drugbank_target|P30518 Vasopressin V2 receptor (DB00035; DB00067; DB00618; DB00872; DB02638; DB05091; DB05838; DB06212; DB09059; DB14642)
 OpenBabel12092119283D

  0  0  0     0  0            999 V3000
M  V30 BEGIN CTAB
M  V30 COUNTS 5708 5785 0 0 0
M  V30 BEGIN ATOM
M  V30 1 H -0.908 1.98254 -0.117106 0
M  V30 2 N 0 1.576 0 0
M  V30 3 C 0.933 2.03868 1.02534 0
M  V30 4 C 1.911 0.928543 1.3348 0
M  V30 5 O 3.095 1.19667 1.45644 0
M  V30 6 C 0.222 2.43627 2.35294 0
M  V30 7 C -0.732 3.65373 2.2001 0
M  V30 8 S 0.101 5.13292 1.52614 0
M  V30 9 C 1.257 5.56322 2.86805 0
M  V30 10 H 1.49 2.90518 0.631377 0
M  V30 11 H -0.977 1.52953 0.210867 0
M  V30 12 H 0.981 2.67203 3.11629 0
M  V30 13 H -0.358 1.57376 2.7183 0
M  V30 14 H -1.165 3.90944 3.18086 0
M  V30 15 H -1.563 3.418 1.51819 0
M  V30 16 H 0.729 5.58782 3.83104 0
M  V30 17 H 1.672 6.56266 2.65933 0
M  V30 18 H 2.08 4.83886 2.90714 0
M  V30 19 N 1.4781 -0.272755 1.55222 0
M  V30 20 C 2.4081 -1.34136 1.91127 0
M  V30 21 C 3.3891 -1.51513 0.773168 0
M  V30 22 O 4.5741 -1.64552 1.03132 0
M  V30 23 C 1.7041 -2.70083 2.1834 0
M  V30 24 C 0.6581 -2.67437 3.34158 0
M  V30 25 C -0.0159 -4.06938 3.46851 0
M  V30 26 C 1.2841 -2.26686 4.70543 0
M  V30 27 H 2.9781 -1.04333 2.80633 0
M  V30 28 H 0.5241 -0.500454 1.35024 0
M  V30 29 H 2.4771 -3.44952 2.42046 0
M  V30 30 H 1.2011 -3.01469 1.25634 0
M  V30 31 H -0.1399 -1.95026 3.1042 0
M  V30 32 H -0.4919 -4.35547 2.51611 0
M  V30 33 H -0.7919 -4.06062 4.2472 0
M  V30 34 H 0.7321 -4.83545 3.72849 0
M  V30 35 H 2.1461 -2.91277 4.93792 0
M  V30 36 H 0.5431 -2.36971 5.5133 0
M  V30 37 H 1.6131 -1.21818 4.69349 0
M  V30 38 N 2.9562 -1.48159 -0.537278 0
M  V30 39 C 3.8892 -1.567 -1.65893 0
M  V30 40 C 4.8672 -0.41787 -1.57139 0
M  V30 41 O 6.0512 -0.628461 -1.77715 0
M  V30 42 C 3.1782 -1.48818 -3.04255 0
M  V30 43 C 2.2242 -2.68482 -3.31391 0
M  V30 44 S 3.0572 -4.30516 -3.1846 0
M  V30 45 C 4.2132 -4.2522 -4.59281 0
M  V30 46 H 4.4462 -2.5159 -1.58397 0
M  V30 47 H 1.9792 -1.36602 -0.719672 0
M  V30 48 H 3.9372 -1.44958 -3.84054 0
M  V30 49 H 2.5982 -0.552777 -3.09198 0
M  V30 50 H 1.7912 -2.59085 -4.32309 0
M  V30 51 H 1.3932 -2.69567 -2.59248 0
M  V30 52 H 3.6852 -3.94703 -5.5065 0
M  V30 53 H 4.6282 -5.26292 -4.73732 0
M  V30 54 H 5.0362 -3.55791 -4.38261 0
M  V30 55 N 4.4343 0.785586 -1.36625 0
M  V30 56 C 5.3973 1.87999 -1.31107 0
M  V30 57 C 6.3973 1.59316 -0.217959 0
M  V30 58 O 7.5873 1.67656 -0.472977 0
M  V30 59 C 4.7193 3.24861 -1.03334 0
M  V30 60 H 5.9123 1.94307 -2.2844 0
M  V30 61 H 3.4653 0.983813 -1.21453 0
M  V30 62 H 4.2003 3.24235 -0.0647432 0
M  V30 63 H 3.9853 3.4707 -1.82441 0
M  V30 64 H 5.4753 4.04929 -1.02088 0
M  V30 65 N 5.9124 1.20967 1.01018 0
M  V30 66 C 7.1374 1.0503 1.78839 0
M  V30 67 C 7.5624 -0.395752 1.8389 0
M  V30 68 O 6.9204 -1.28529 1.27867 0
M  V30 69 C 6.9684 1.64602 3.2084 0
M  V30 70 O 6.0724 0.887988 4.02726 0
M  V30 71 H 5.4134 0.369987 0.551367 0
M  V30 72 H 7.9434 1.60399 1.27018 0
M  V30 73 H 7.9534 1.68607 3.71532 0
M  V30 74 H 6.6284 2.69841 3.16479 0
M  V30 75 H 5.2054 0.922648 3.61305 0
M  V30 76 N 7.3905 -1.2043 1.01659 0
M  V30 77 C 8.6185 -1.93777 0.725132 0
M  V30 78 C 9.0335 -1.74772 -0.714166 0
M  V30 79 O 8.3905 -1.06169 -1.4844 0
M  V30 80 C 8.4415 -3.45876 1.05129 0
M  V30 81 O 8.1625 -3.6426 2.43406 0
M  V30 82 C 9.6635 -4.36368 0.780891 0
M  V30 83 H 6.8835 -0.615901 0.266284 0
M  V30 84 H 9.4275 -1.52922 1.35776 0
M  V30 85 H 7.5825 -3.8461 0.464065 0
M  V30 86 H 7.9965 -4.58246 2.55169 0
M  V30 87 H 9.4705 -5.41743 1.05918 0
M  V30 88 H 9.9475 -4.38275 -0.284937 0
M  V30 89 H 10.5535 -4.03296 1.35027 0
M  V30 90 N 8.8686 -0.792821 -1.36206 0
M  V30 91 C 10.0966 -0.378825 -2.03402 0
M  V30 92 C 10.5116 1.00586 -1.59774 0
M  V30 93 O 9.8686 1.64574 -0.788764 0
M  V30 94 C 9.9196 -0.43683 -3.58851 0
M  V30 95 O 9.6406 -1.76691 -4.00889 0
M  V30 96 C 11.1416 -0.0138943 -4.43298 0
M  V30 97 H 8.3616 -0.155673 -0.652692 0
M  V30 98 H 10.9056 -1.07261 -1.74113 0
M  V30 99 H 9.0606 0.208575 -3.86838 0
M  V30 100 H 9.4746 -1.72011 -4.95492 0
M  V30 101 H 10.9486 -0.105615 -5.51899 0
M  V30 102 H 11.4256 1.03915 -4.2673 0
M  V30 103 H 12.0316 -0.63192 -4.20579 0
M  V30 104 N 10.3467 1.47872 -0.545128 0
M  V30 105 C 11.5717 2.07391 -0.0190611 0
M  V30 106 C 11.9967 1.39688 1.25971 0
M  V30 107 O 11.3547 0.467816 1.7516 0
M  V30 108 C 11.4027 3.60188 0.172335 0
M  V30 109 O 10.5067 3.9339 1.23766 0
M  V30 110 H 9.8477 0.662411 -0.0459059 0
M  V30 111 H 12.3777 1.90066 -0.757365 0
M  V30 112 H 12.3877 4.06129 0.390305 0
M  V30 113 H 11.0627 4.08865 -0.761725 0
M  V30 114 H 9.6397 3.5921 1.00114 0
M  V30 115 N 11.8248 0.280983 1.55075 0
M  V30 116 C 12.7878 -0.590896 2.21452 0
M  V30 117 C 13.7878 -1.07682 1.19421 0
M  V30 118 O 14.9778 -0.97605 1.44288 0
M  V30 119 C 12.1098 -1.81587 2.88511 0
M  V30 120 H 13.3028 -0.0112554 2.99898 0
M  V30 121 H 10.8558 0.0316438 1.56268 0
M  V30 122 H 11.5908 -2.43587 2.14093 0
M  V30 123 H 11.3758 -1.4753 3.63287 0
M  V30 124 H 12.8658 -2.43575 3.39206 0
M  V30 125 N 13.3029 -1.57598 0.00835791 0
M  V30 126 C 14.5489 -1.91211 -0.675732 0
M  V30 127 C 14.8819 -0.883139 -1.72958 0
M  V30 128 O 14.1569 0.097016 -1.94258 0
M  V30 129 C 14.4399 -3.35379 -1.31123 0
M  V30 130 C 14.2929 -4.48999 -0.268356 0
M  V30 131 C 15.6119 -3.7912 -2.23508 0
M  V30 132 H 12.7309 -0.695374 -0.244179 0
M  V30 133 H 15.3729 -1.89901 0.0613655 0
M  V30 134 H 13.5229 -3.36626 -1.93946 0
M  V30 135 H 15.1949 -4.59887 0.360844 0
M  V30 136 H 13.4379 -4.31873 0.408482 0
M  V30 137 H 14.1089 -5.46851 -0.752218 0
M  V30 138 H 16.5849 -3.79477 -1.70693 0
M  V30 139 H 15.4609 -4.80729 -2.64936 0
M  V30 140 H 15.7219 -3.13455 -3.11766 0
M  V30 141 N 14.781 0.264519 -1.55364 0
M  V30 142 C 16.192 0.834936 -1.6699 0
M  V30 143 C 16.543 1.86718 -0.602552 0
M  V30 144 O 15.668 2.14899 0.254425 0
M  V30 145 C 16.263 1.5212 -3.02729 0
M  V30 146 C 14.822 2.03954 -3.16354 0
M  V30 147 C 13.969 0.884498 -2.62815 0
M  V30 148 H 16.92 0.0406869 -1.58648 0
M  V30 149 H 16.941 2.38853 -2.96191 0
M  V30 150 H 16.453 0.769668 -3.80392 0
M  V30 151 H 14.554 2.82041 -2.43482 0
M  V30 152 H 14.667 2.24902 -4.23032 0
M  V30 153 H 13.031 1.2802 -2.20188 0
M  V30 154 H 13.814 0.14634 -3.42988 0
M  V30 155 N 16.2591 1.48442 0.529413 0
M  V30 156 C 17.5071 1.56179 1.28267 0
M  V30 157 C 17.8281 0.237721 1.93546 0
M  V30 158 O 17.0981 -0.740779 1.81354 0
M  V30 159 H 15.6781 0.575367 0.476405 0
M  V30 160 H 18.3401 1.84909 0.61602 0
M  V30 161 H 17.4361 2.34312 2.06165 0
M  V30 162 N 17.7372 -0.778329 1.37039 0
M  V30 163 C 18.6872 -1.88142 1.28789 0
M  V30 164 C 19.6712 -1.59923 0.177063 0
M  V30 165 O 20.8632 -1.72165 0.410873 0
M  V30 166 C 17.9922 -3.25518 1.09055 0
M  V30 167 C 17.0782 -3.5971 2.24654 0
M  V30 168 N 17.4692 -3.65131 3.50018 0
M  V30 169 C 15.7672 -3.89837 2.16663 0
M  V30 170 C 16.4682 -3.95882 4.26207 0
M  V30 171 N 15.4442 -4.11441 3.55271 0
M  V30 172 H 19.2462 -1.90575 2.23737 0
M  V30 173 H 16.7602 -0.974435 1.29917 0
M  V30 174 H 18.7572 -4.04423 1.0123 0
M  V30 175 H 17.4172 -3.24353 0.15018 0
M  V30 176 H 18.4282 -3.475 3.84011 0
M  V30 177 H 15.1052 -3.96533 1.30645 0
M  V30 178 H 16.4952 -4.06907 5.34674 0
M  V30 179 N 19.2153 -1.21501 -1.00376 0
M  V30 180 C 20.6263 -1.03146 -1.55621 0
M  V30 181 C 20.9773 0.408375 -1.91903 0
M  V30 182 O 20.1023 1.29177 -1.73616 0
M  V30 183 C 20.6973 -1.86612 -2.82775 0
M  V30 184 C 19.2563 -1.72586 -3.34501 0
M  V30 185 C 18.4033 -1.83747 -2.07683 0
M  V30 186 H 21.3543 -1.35505 -0.826081 0
M  V30 187 H 21.3753 -1.3771 -3.54706 0
M  V30 188 H 20.8873 -2.91399 -2.56336 0
M  V30 189 H 18.9883 -0.704877 -3.65872 0
M  V30 190 H 19.1013 -2.54623 -4.05837 0
M  V30 191 H 17.4653 -1.27069 -2.20739 0
M  V30 192 H 18.2483 -2.90044 -1.83655 0
M  V30 193 N 20.6934 1.19889 -1.02296 0
M  V30 194 C 21.9184 1.9393 -0.735237 0
M  V30 195 C 22.3434 1.74639 0.698782 0
M  V30 196 O 21.7014 1.04481 1.48167 0
M  V30 197 C 21.7494 3.43916 -1.08417 0
M  V30 198 O 20.8534 4.11917 -0.199446 0
M  V30 199 H 20.1944 0.605645 -0.272196 0
M  V30 200 H 22.7244 1.52137 -1.36804 0
M  V30 201 H 22.7344 3.9456 -1.03856 0
M  V30 202 H 21.4094 3.5728 -2.12894 0
M  V30 203 H 19.9864 3.71666 -0.303136 0
M  V30 204 N 22.1715 0.800033 1.35784 0
M  V30 205 C 23.1015 0.220184 2.3246 0
M  V30 206 C 24.0825 -0.65073 1.57161 0
M  V30 207 O 25.2675 -0.582359 1.85263 0
M  V30 208 C 22.3975 -0.637353 3.41402 0
M  V30 209 C 21.3515 0.134531 4.27789 0
M  V30 210 C 20.6775 -0.844285 5.27992 0
M  V30 211 C 21.9775 1.32979 5.05088 0
M  V30 212 H 23.6715 1.02787 2.81203 0
M  V30 213 H 21.2175 0.495717 1.35199 0
M  V30 214 H 23.1705 -1.05302 4.08031 0
M  V30 215 H 21.8945 -1.47785 2.91251 0
M  V30 216 H 20.5535 0.531296 3.6273 0
M  V30 217 H 20.2015 -1.68011 4.74111 0
M  V30 218 H 19.9015 -0.332184 5.8666 0
M  V30 219 H 21.4255 -1.2583 5.97494 0
M  V30 220 H 22.8395 0.98934 5.64699 0
M  V30 221 H 21.2365 1.77593 5.7322 0
M  V30 222 H 22.3065 2.11978 4.36111 0
M  V30 223 N 23.6496 -1.47581 0.552962 0
M  V30 224 C 25.0606 -1.86324 0.118463 0
M  V30 225 C 25.4116 -1.46006 -1.3106 0
M  V30 226 O 24.5366 -0.861182 -1.98526 0
M  V30 227 C 25.1316 -3.3816 0.20821 0
M  V30 228 C 23.6906 -3.7601 -0.171226 0
M  V30 229 C 22.8376 -2.71634 0.557686 0
M  V30 230 H 25.7886 -1.39159 0.762928 0
M  V30 231 H 25.8096 -3.76141 -0.574278 0
M  V30 232 H 25.3216 -3.67473 1.24841 0
M  V30 233 H 23.4226 -3.52313 -1.21269 0
M  V30 234 H 23.5356 -4.78745 0.184379 0
M  V30 235 H 21.8996 -2.547 0.00125792 0
M  V30 236 H 22.6826 -3.0379 1.59896 0
M  V30 237 N 25.1277 -0.289203 -1.54924 0
M  V30 238 C 26.3527 0.329299 -2.04769 0
M  V30 239 C 26.7777 1.4763 -1.16564 0
M  V30 240 O 26.1357 1.80527 -0.167186 0
M  V30 241 C 26.1837 0.774438 -3.52186 0
M  V30 242 O 25.2877 1.88038 -3.67036 0
M  V30 243 H 24.6287 0.0659259 -0.660719 0
M  V30 244 H 27.1587 -0.42761 -2.00082 0
M  V30 245 H 27.1687 1.06642 -3.93816 0
M  V30 246 H 25.8437 -0.0646707 -4.1585 0
M  V30 247 H 24.4207 1.58985 -3.3731 0
M  V30 248 N 26.6058 1.57591 -0.0167156 0
M  V30 249 C 27.5358 2.12496 0.967858 0
M  V30 250 C 28.5168 1.03807 1.34752 0
M  V30 251 O 29.7018 1.31577 1.42833 0
M  V30 252 C 26.8318 2.64194 2.25431 0
M  V30 253 C 25.7858 3.77559 2.01576 0
M  V30 254 C 25.1118 4.15636 3.36379 0
M  V30 255 C 26.4118 5.04151 1.36489 0
M  V30 256 H 28.1058 2.95013 0.510643 0
M  V30 257 H 25.6518 1.41915 0.244181 0
M  V30 258 H 27.6048 3.01236 2.94678 0
M  V30 259 H 26.3288 1.78821 2.73296 0
M  V30 260 H 24.9878 3.40937 1.34751 0
M  V30 261 H 24.6358 3.27263 3.81979 0
M  V30 262 H 24.3358 4.92022 3.21229 0
M  V30 263 H 25.8598 4.5525 4.06915 0
M  V30 264 H 27.2738 5.38857 1.95718 0
M  V30 265 H 25.6708 5.85453 1.31776 0
M  V30 266 H 26.7408 4.83733 0.336219 0
M  V30 267 N 28.0839 -0.256276 1.55502 0
M  V30 268 C 29.4949 -0.826068 1.67431 0
M  V30 269 C 29.8459 -1.86396 0.612446 0
M  V30 270 O 28.9709 -2.15031 -0.243025 0
M  V30 271 C 29.5659 -1.50512 3.03532 0
M  V30 272 C 28.1249 -2.02273 3.17431 0
M  V30 273 C 27.2719 -0.870548 2.63281 0
M  V30 274 H 30.2229 -0.0322728 1.58667 0
M  V30 275 H 30.2439 -2.37279 2.97454 0
M  V30 276 H 29.7559 -0.749484 3.80794 0
M  V30 277 H 27.8569 -2.80746 2.44974 0
M  V30 278 H 27.9699 -2.22655 4.24219 0
M  V30 279 H 26.3339 -1.26851 2.20864 0
M  V30 280 H 27.1169 -0.128149 3.43061 0
M  V30 281 N 29.562 -1.4872 -0.521534 0
M  V30 282 C 30.787 -1.61101 -1.30618 0
M  V30 283 C 31.212 -0.274611 -1.86085 0
M  V30 284 O 30.57 0.754937 -1.64834 0
M  V30 285 C 30.618 -2.66709 -2.4269 0
M  V30 286 O 29.722 -2.24456 -3.45967 0
M  V30 287 H 29.063 -0.539921 -0.386499 0
M  V30 288 H 31.593 -1.94767 -0.626645 0
M  V30 289 H 31.603 -2.88245 -2.88754 0
M  V30 290 H 30.278 -3.63727 -2.01682 0
M  V30 291 H 28.855 -2.13168 -3.05964 0
M  V30 292 N 31.0401 0.771051 -1.3745 0
M  V30 293 C 31.9881 1.90574 -1.33358 0
M  V30 294 C 32.9821 1.67936 -0.22224 0
M  V30 295 O 34.1881 1.75717 -0.390304 0
M  V30 296 H 30.5631 0.626714 -0.415612 0
M  V30 297 H 32.5341 1.91142 -2.29144 0
M  V30 298 C 31.2831 3.27845 -1.15813 0
M  V30 299 H 30.6061 3.45842 -2.00583 0
M  V30 300 H 32.0461 4.07538 -1.17 0
M  V30 301 C 30.5051 3.36625 0.136165 0
M  V30 302 O 31.0351 3.85785 1.11949 0
M  V30 303 N 29.2411 2.89997 0.187099 0
M  V30 304 H 28.7881 2.50182 -0.613753 0
M  V30 305 H 28.7461 2.96252 1.05272 0
M  V30 306 N 32.5182 1.22032 0.997298 0
M  V30 307 C 33.7432 1.06921 1.77715 0
M  V30 308 C 34.1682 -0.376226 1.84299 0
M  V30 309 O 33.5262 -1.27165 1.29223 0
M  V30 310 C 33.5742 1.67996 3.19076 0
M  V30 311 O 32.6782 0.930653 4.01762 0
M  V30 312 H 32.0192 0.375814 0.547412 0
M  V30 313 H 34.5492 1.61737 1.25309 0
M  V30 314 H 34.5592 1.72538 3.69723 0
M  V30 315 H 33.2342 2.73182 3.13599 0
M  V30 316 H 31.8112 0.960917 3.60307 0
M  V30 317 N 33.9963 -1.19345 1.0293 0
M  V30 318 C 35.2213 -1.93538 0.745511 0
M  V30 319 C 35.6463 -1.75007 -0.689511 0
M  V30 320 O 35.0043 -1.05265 -1.47611 0
M  V30 321 C 35.0523 -3.43336 1.10239 0
M  V30 322 O 34.1563 -4.11806 0.221289 0
M  V30 323 H 33.4973 -0.604193 0.275404 0
M  V30 324 H 36.0273 -1.5141 1.37609 0
M  V30 325 H 36.0373 -3.94004 1.05947 0
M  V30 326 H 34.7123 -3.56146 2.14786 0
M  V30 327 H 33.2893 -3.715 0.322842 0
M  V30 328 N 35.4744 -0.807222 -1.35358 0
M  V30 329 C 36.4064 -0.175717 -2.28525 0
M  V30 330 C 37.4194 0.625354 -1.5031 0
M  V30 331 O 38.6084 0.457611 -1.72535 0
M  V30 332 C 35.7084 0.773471 -3.29956 0
M  V30 333 C 34.8814 0.0186296 -4.37396 0
M  V30 334 C 33.9404 0.886395 -5.18681 0
M  V30 335 O 32.9664 0.337106 -5.68201 0
M  V30 336 N 34.1684 2.20839 -5.36852 0
M  V30 337 H 36.9334 -0.976091 -2.83359 0
M  V30 338 H 34.4944 -0.662737 -1.47714 0
M  V30 339 H 36.4864 1.35824 -3.81227 0
M  V30 340 H 35.0564 1.47465 -2.75632 0
M  V30 341 H 34.2764 -0.747349 -3.87051 0
M  V30 342 H 35.5644 -0.501577 -5.06322 0
M  V30 343 H 34.9624 2.67858 -4.98265 0
M  V30 344 H 33.5194 2.74237 -5.91301 0
M  V30 345 N 36.9525 1.47285 -0.560781 0
M  V30 346 C 37.8625 2.33846 0.187954 0
M  V30 347 C 38.8785 1.48412 0.908293 0
M  V30 348 O 40.0545 1.81332 0.876388 0
M  V30 349 C 37.1195 3.25178 1.2025 0
M  V30 350 C 36.1805 4.26504 0.489208 0
M  V30 351 C 35.4135 5.13472 1.45542 0
M  V30 352 O 35.6365 5.02959 2.6905 0
M  V30 353 O 34.5705 5.93902 0.977963 0
M  V30 354 H 38.3965 2.99177 -0.522177 0
M  V30 355 H 35.9815 1.45903 -0.321364 0
M  V30 356 H 37.8635 3.81584 1.78805 0
M  V30 357 H 36.5385 2.6247 1.89449 0
M  V30 358 H 35.4455 3.73847 -0.137627 0
M  V30 359 H 36.7785 4.91935 -0.161399 0
M  V30 360 N 38.4306 0.297415 1.54768 0
M  V30 361 C 39.8466 -0.0560823 1.59501 0
M  V30 362 C 40.0466 -1.52725 1.31444 0
M  V30 363 O 39.1026 -2.27947 1.08611 0
M  V30 364 C 40.4156 0.338631 2.98787 0
M  V30 365 C 41.9636 0.287097 3.11681 0
M  V30 366 C 42.4386 0.656579 4.53269 0
M  V30 367 N 43.9296 0.608977 4.59179 0
M  V30 368 C 44.6646 0.867385 5.66802 0
M  V30 369 N 44.1606 1.19157 6.82476 0
M  V30 370 N 45.9536 0.794687 5.56454 0
M  V30 371 H 38.1046 1.25624 1.71267 0
M  V30 372 H 40.3676 0.509057 0.799728 0
M  V30 373 H 40.0736 1.36263 3.2423 0
M  V30 374 H 39.9476 -0.309508 3.75928 0
M  V30 375 H 42.3346 -0.727649 2.85988 0
M  V30 376 H 42.4156 0.969809 2.36703 0
M  V30 377 H 42.0596 1.66912 4.7969 0
M  V30 378 H 41.9896 -0.0481649 5.26578 0
M  V30 379 H 44.4806 0.369198 3.76092 0
M  V30 380 H 44.7936 1.37482 7.60473 0
M  V30 381 H 43.1386 1.22958 6.84037 0
M  V30 382 H 46.3296 0.541098 4.64962 0
M  V30 383 H 46.5026 0.999445 6.40246 0
M  V30 384 N 39.9087 -1.5758 0.0250728 0
M  V30 385 C 41.3197 -1.79476 -0.514323 0
M  V30 386 C 41.6707 -0.934956 -1.72491 0
M  V30 387 O 40.7957 -0.144245 -2.15919 0
M  V30 388 C 41.3907 -3.25503 -0.939842 0
M  V30 389 C 39.9497 -3.48408 -1.42438 0
M  V30 390 C 39.0967 -2.74583 -0.387201 0
M  V30 391 H 42.0477 -1.567 0.25113 0
M  V30 392 H 42.0687 -3.34992 -1.80445 0
M  V30 393 H 41.5807 -3.88056 -0.0585628 0
M  V30 394 H 39.6817 -2.91103 -2.32572 0
M  V30 395 H 39.7947 -4.57119 -1.43455 0
M  V30 396 H 38.1587 -2.39942 -0.854409 0
M  V30 397 H 38.9417 -3.39849 0.485543 0
M  V30 398 N 41.3868 0.248026 -1.55636 0
M  V30 399 C 42.3168 1.31079 -1.93237 0
M  V30 400 C 43.2978 1.50264 -0.797174 0
M  V30 401 O 44.4828 1.62891 -1.05737 0
M  V30 402 C 41.6128 2.66575 -2.22609 0
M  V30 403 C 40.5668 2.62087 -3.3837 0
M  V30 404 C 39.8928 4.01369 -3.53281 0
M  V30 405 C 41.1928 2.19171 -4.7409 0
M  V30 406 H 42.8868 0.998556 -2.82257 0
M  V30 407 H 40.4328 0.47891 -1.35803 0
M  V30 408 H 42.3858 3.41057 -2.47503 0
M  V30 409 H 41.1098 2.99432 -1.30414 0
M  V30 410 H 39.7688 1.90063 -3.13483 0
M  V30 411 H 39.4168 4.31489 -2.58508 0
M  V30 412 H 39.1168 3.99254 -4.31127 0
M  V30 413 H 40.6408 4.77552 -3.80495 0
M  V30 414 H 42.0548 2.83384 -4.98363 0
M  V30 415 H 40.4518 2.2817 -5.5503 0
M  V30 416 H 41.5218 1.14336 -4.71227 0
M  V30 417 N 42.8649 1.48995 0.513639 0
M  V30 418 C 44.1419 1.48338 1.27495 0
M  V30 419 C 44.5219 0.204065 2.10111 0
M  V30 420 O 43.8699 -0.813881 2.13514 0
M  V30 421 C 44.0799 2.75498 2.14247 0
M  V30 422 C 45.4279 3.24484 2.73852 0
M  V30 423 O 46.4519 2.76528 2.24523 0
M  V30 424 O 45.3109 4.07974 3.6362 0
M  V30 425 H 42.4049 0.593149 0.576284 0
M  V30 426 H 44.9509 1.61246 0.528948 0
M  V30 427 H 43.7229 3.60109 1.53092 0
M  V30 428 H 43.3459 2.6539 2.96064 0
M  V30 429 N 44.343 -0.763751 1.37857 0
M  V30 430 C 45.571 -1.55293 1.36718 0
M  V30 431 C 45.986 -1.88745 -0.0455434 0
M  V30 432 O 45.343 -1.52039 -1.00947 0
M  V30 433 C 45.394 -2.85831 2.2132 0
M  V30 434 O 45.115 -2.5381 3.57089 0
M  V30 435 C 46.616 -3.80023 2.28249 0
M  V30 436 H 43.836 -0.480841 0.468009 0
M  V30 437 H 46.38 -0.946009 1.81303 0
M  V30 438 H 44.535 -3.42926 1.80223 0
M  V30 439 H 44.949 -3.37459 4.01524 0
M  V30 440 H 46.423 -4.68599 2.91752 0
M  V30 441 H 46.9 -4.1973 1.2932 0
M  V30 442 H 47.506 -3.28855 2.69693 0
M  V30 443 N 45.8211 -1.22559 -0.990812 0
M  V30 444 C 47.2371 -0.985996 -1.255 0
M  V30 445 C 47.4371 0.319173 -1.98956 0
M  V30 446 O 46.4931 1.04127 -2.3003 0
M  V30 447 C 47.8061 -2.18607 -2.06474 0
M  V30 448 C 49.3541 -2.22985 -2.19651 0
M  V30 449 C 49.8291 -3.4255 -3.04012 0
M  V30 450 N 51.3201 -3.42725 -3.11599 0
M  V30 451 C 52.0551 -4.31892 -3.7717 0
M  V30 452 N 51.5511 -5.31279 -4.44651 0
M  V30 453 N 53.3441 -4.19662 -3.73952 0
M  V30 454 H 45.4951 -2.06469 -0.49841 0
M  V30 455 H 47.7581 -0.904853 -0.282747 0
M  V30 456 H 47.4641 -3.13267 -1.59865 0
M  V30 457 H 47.3381 -2.18838 -3.07229 0
M  V30 458 H 49.7251 -1.28871 -2.65474 0
M  V30 459 H 49.8061 -2.26791 -1.18319 0
M  V30 460 H 49.4501 -4.36965 -2.58889 0
M  V30 461 H 49.3801 -3.35984 -4.0549 0
M  V30 462 H 51.8711 -2.70807 -2.63575 0
M  V30 463 H 52.1841 -5.95593 -4.92431 0
M  V30 464 H 50.5291 -5.3519 -4.43392 0
M  V30 465 H 53.7201 -3.41268 -3.20396 0
M  V30 466 H 53.8931 -4.89358 -4.24774 0
M  V30 467 N 47.2992 1.18797 -1.03562 0
M  V30 468 C 48.5762 1.84469 -0.650434 0
M  V30 469 C 48.9562 1.92319 0.870433 0
M  V30 470 O 48.3042 1.44528 1.76986 0
M  V30 471 C 48.5142 3.2306 -1.32036 0
M  V30 472 C 49.8622 3.9915 -1.44792 0
M  V30 473 O 50.8862 3.32481 -1.27806 0
M  V30 474 O 49.7452 5.18587 -1.72423 0
M  V30 475 H 46.8392 0.795251 -0.226946 0
M  V30 476 H 49.3852 1.26231 -1.13419 0
M  V30 477 H 48.1572 3.1222 -2.3587 0
M  V30 478 H 47.7802 3.88949 -0.8249 0
M  V30 479 N 48.7773 0.814389 1.34928 0
M  V30 480 C 50.1883 0.458364 1.80986 0
M  V30 481 C 50.5393 -1.02042 1.67577 0
M  V30 482 O 49.6643 -1.79352 1.21086 0
M  V30 483 C 50.2593 0.825212 3.28597 0
M  V30 484 C 48.8183 0.521677 3.72767 0
M  V30 485 C 47.9653 1.04668 2.56788 0
M  V30 486 H 50.9163 1.00533 1.22795 0
M  V30 487 H 50.9373 0.12571 3.80292 0
M  V30 488 H 50.4493 1.90154 3.38324 0
M  V30 489 H 48.5503 -0.545589 3.68584 0
M  V30 490 H 48.6633 1.05977 4.67232 0
M  V30 491 H 47.0273 0.468622 2.50352 0
M  V30 492 H 47.8103 2.12927 2.6929 0
M  V30 493 N 50.2554 -1.46986 0.568584 0
M  V30 494 C 51.1854 -2.32946 -0.160753 0
M  V30 495 C 52.1664 -1.44487 -0.897631 0
M  V30 496 O 53.3514 -1.73327 -0.875867 0
M  V30 497 C 50.4814 -3.26494 -1.18403 0
M  V30 498 C 49.4354 -4.24282 -0.562895 0
M  V30 499 C 48.7614 -5.07236 -1.69163 0
M  V30 500 C 50.0614 -5.19989 0.490761 0
M  V30 501 H 51.7554 -2.94175 0.556916 0
M  V30 502 H 49.3014 -1.4146 0.26927 0
M  V30 503 H 51.2544 -3.85477 -1.70251 0
M  V30 504 H 49.9784 -2.63343 -1.93179 0
M  V30 505 H 48.6374 -3.66541 -0.0656164 0
M  V30 506 H 48.2854 -4.4048 -2.42871 0
M  V30 507 H 47.9854 -5.7345 -1.28174 0
M  V30 508 H 49.5094 -5.6908 -2.21314 0
M  V30 509 H 50.9234 -5.73271 0.0579047 0
M  V30 510 H 49.3204 -5.94469 0.820165 0
M  V30 511 H 50.3904 -4.64777 1.3824 0
M  V30 512 N 51.7335 -0.305618 -1.54608 0
M  V30 513 C 52.6635 0.561482 -2.26649 0
M  V30 514 C 53.6445 1.13415 -1.26772 0
M  V30 515 O 54.8295 1.16262 -1.55553 0
M  V30 516 C 51.9595 1.73122 -3.01075 0
M  V30 517 C 50.9135 1.2887 -4.08138 0
M  V30 518 C 50.2395 2.54396 -4.70305 0
M  V30 519 C 51.5395 0.416578 -5.20636 0
M  V30 520 H 53.2335 -0.0393902 -2.99374 0
M  V30 521 H 50.7795 -0.020385 -1.43986 0
M  V30 522 H 52.7325 2.34396 -3.50195 0
M  V30 523 H 51.4565 2.3584 -2.25936 0
M  V30 524 H 50.1155 0.698991 -3.59875 0
M  V30 525 H 49.7635 3.15439 -3.918 0
M  V30 526 H 49.4635 2.25486 -5.42614 0
M  V30 527 H 50.9875 3.16464 -5.2219 0
M  V30 528 H 52.4015 0.935116 -5.65622 0
M  V30 529 H 50.7985 0.221046 -5.99693 0
M  V30 530 H 51.8685 -0.557162 -4.81688 0
M  V30 531 N 53.2116 1.57565 -0.0334293 0
M  V30 532 C 54.1746 2.09393 0.932048 0
M  V30 533 C 55.1746 1.00986 1.25134 0
M  V30 534 O 56.3646 1.27129 1.19096 0
M  V30 535 C 53.4966 2.56338 2.2473 0
M  V30 536 H 54.6896 2.95984 0.483085 0
M  V30 537 H 52.2426 1.54819 0.21468 0
M  V30 538 H 52.9776 1.7309 2.74245 0
M  V30 539 H 52.7626 3.35542 2.02865 0
M  V30 540 H 54.2526 2.96646 2.93923 0
M  V30 541 N 54.6897 -0.239769 1.55765 0
M  V30 542 C 56.1057 -0.588624 1.48349 0
M  V30 543 C 56.3057 -1.88005 0.72502 0
M  V30 544 O 55.3617 -2.51186 0.257269 0
M  V30 545 C 56.6747 -0.68474 2.928 0
M  V30 546 C 58.2227 -0.77659 3.03213 0
M  V30 547 C 58.6977 -0.904207 4.48986 0
M  V30 548 N 60.1887 -0.968896 4.52953 0
M  V30 549 C 60.9237 -1.08703 5.63002 0
M  V30 550 N 60.4197 -1.17026 6.82845 0
M  V30 551 N 62.2127 -1.12074 5.50814 0
M  V30 552 H 54.3637 0.607911 2.03515 0
M  V30 553 H 56.6267 0.21083 0.924259 0
M  V30 554 H 56.3327 0.194284 3.51163 0
M  V30 555 H 56.2067 -1.55435 3.43686 0
M  V30 556 H 58.5937 -1.64606 2.44926 0
M  V30 557 H 58.6747 0.118315 2.55526 0
M  V30 558 H 58.3187 -0.0392633 5.07885 0
M  V30 559 H 58.2487 -1.81426 4.9436 0
M  V30 560 H 60.7397 -0.915633 3.6664 0
M  V30 561 H 61.0527 -1.25966 7.62465 0
M  V30 562 H 59.3977 -1.13971 6.85591 0
M  V30 563 H 62.5887 -1.05226 4.5612 0
M  V30 564 H 62.7617 -1.20936 6.36615 0
M  V30 565 N 56.1678 -1.49265 -0.50573 0
M  V30 566 C 57.1308 -1.65075 -1.59006 0
M  V30 567 C 58.1308 -0.522768 -1.52065 0
M  V30 568 O 59.3208 -0.789117 -1.55302 0
M  V30 569 C 56.4528 -1.64369 -2.98656 0
M  V30 570 H 57.6458 -2.61784 -1.46319 0
M  V30 571 H 55.1988 -1.38226 -0.729616 0
M  V30 572 H 55.9338 -0.692272 -3.16825 0
M  V30 573 H 55.7188 -2.46282 -3.05103 0
M  V30 574 H 57.2088 -1.78674 -3.77446 0
M  V30 575 N 57.6459 0.756429 -1.3826 0
M  V30 576 C 58.5559 1.9009 -1.37488 0
M  V30 577 C 59.5719 1.71855 -0.272366 0
M  V30 578 O 60.7479 1.94827 -0.510318 0
M  V30 579 C 57.8129 3.25421 -1.19592 0
M  V30 580 C 56.8739 3.56202 -2.39622 0
M  V30 581 C 56.1069 4.85075 -2.2257 0
M  V30 582 O 56.3299 5.57246 -1.21793 0
M  V30 583 O 55.2639 5.15269 -3.11098 0
M  V30 584 H 59.0899 1.93695 -2.33914 0
M  V30 585 H 56.6749 0.901313 -1.1915 0
M  V30 586 H 58.5569 4.06337 -1.11661 0
M  V30 587 H 57.2319 3.22634 -0.262486 0
M  V30 588 H 56.1389 2.75458 -2.53128 0
M  V30 589 H 57.4719 3.63747 -3.31586 0
M  V30 590 N 59.124 1.23083 0.984299 0
M  V30 591 C 60.054 1.03292 2.09411 0
M  V30 592 C 61.035 -0.048923 1.7003 0
M  V30 593 O 62.22 0.114967 1.93859 0
M  V30 594 C 59.35 0.619155 3.41736 0
M  V30 595 C 58.304 1.64791 3.95004 0
M  V30 596 C 57.63 1.0897 5.23478 0
M  V30 597 C 58.93 3.03999 4.24714 0
M  V30 598 H 60.624 1.96119 2.26225 0
M  V30 599 H 58.17 0.944344 1.08711 0
M  V30 600 H 60.123 0.467777 4.18796 0
M  V30 601 H 58.847 -0.344786 3.24775 0
M  V30 602 H 57.506 1.78721 3.20085 0
M  V30 603 H 57.154 0.11686 5.02864 0
M  V30 604 H 56.854 1.77704 5.60085 0
M  V30 605 H 58.378 0.950093 6.03163 0
M  V30 606 H 59.792 2.93393 4.92538 0
M  V30 607 H 58.189 3.69936 4.72512 0
M  V30 608 H 59.259 3.53285 3.32142 0
M  V30 609 N 60.6021 -1.18246 1.0419 0
M  V30 610 C 61.5651 -2.20128 0.638452 0
M  V30 611 C 62.5651 -1.57885 -0.304805 0
M  V30 612 O 63.7551 -1.73967 -0.0900369 0
M  V30 613 C 60.8871 -3.4084 -0.0637751 0
M  V30 614 H 62.0801 -2.57336 1.54007 0
M  V30 615 H 59.6331 -1.32152 0.834598 0
M  V30 616 H 60.3681 -3.09166 -0.979136 0
M  V30 617 H 60.1531 -3.8726 0.614198 0
M  V30 618 H 61.6431 -4.16274 -0.332512 0
M  V30 619 N 62.0802 -0.821533 -1.34494 0
M  V30 620 C 63.0102 -0.257138 -2.3208 0
M  V30 621 C 63.9912 0.625645 -1.58176 0
M  V30 622 O 65.1762 0.552811 -1.86166 0
M  V30 623 C 62.3062 0.582958 -3.42372 0
M  V30 624 C 61.2602 -0.202571 -4.2752 0
M  V30 625 C 60.5862 0.760179 -5.29269 0
M  V30 626 C 61.8862 -1.40998 -5.02908 0
M  V30 627 H 63.5802 -1.07247 -2.79532 0
M  V30 628 H 61.1262 -0.517163 -1.34393 0
M  V30 629 H 63.0792 0.987972 -4.09655 0
M  V30 630 H 61.8032 1.43133 -2.93565 0
M  V30 631 H 60.4622 -0.588936 -3.61838 0
M  V30 632 H 60.1102 1.60447 -4.76724 0
M  V30 633 H 59.8102 0.238809 -5.87115 0
M  V30 634 H 61.3342 1.16308 -5.9942 0
M  V30 635 H 62.7482 -1.07905 -5.63054 0
M  V30 636 H 61.1452 -1.86689 -5.70322 0
M  V30 637 H 62.2152 -2.1889 -4.32684 0
M  V30 638 N 63.5583 1.46682 -0.576371 0
M  V30 639 C 64.4883 2.33028 0.148397 0
M  V30 640 C 65.4693 1.44961 0.889956 0
M  V30 641 O 66.6543 1.73789 0.866662 0
M  V30 642 C 63.7843 3.27117 1.1667 0
M  V30 643 C 62.7383 4.24575 0.540386 0
M  V30 644 C 62.0643 5.08126 1.6647 0
M  V30 645 C 63.3643 5.19722 -0.518331 0
M  V30 646 H 65.0583 2.93875 -0.572509 0
M  V30 647 H 62.6043 1.41315 -0.276768 0
M  V30 648 H 64.5573 3.86374 1.68204 0
M  V30 649 H 63.2813 2.64364 1.9178 0
M  V30 650 H 61.9403 3.66571 0.0461769 0
M  V30 651 H 61.5883 4.41762 2.40531 0
M  V30 652 H 61.2883 5.74122 1.25131 0
M  V30 653 H 62.8123 5.70246 2.18293 0
M  V30 654 H 64.2263 5.73232 -0.0883058 0
M  V30 655 H 62.6233 5.94026 -0.851679 0
M  V30 656 H 63.6933 4.64037 -1.40703 0
M  V30 657 N 65.0364 0.313813 1.54444 0
M  V30 658 C 66.2614 -0.296681 2.05267 0
M  V30 659 C 66.6864 -1.45757 1.18897 0
M  V30 660 O 66.0444 -1.80239 0.195886 0
M  V30 661 C 66.0924 -0.71831 3.53373 0
M  V30 662 O 65.1964 -1.82175 3.69981 0
M  V30 663 H 64.5374 -0.0554061 0.661684 0
M  V30 664 H 67.0674 0.459387 1.99376 0
M  V30 665 H 67.0774 -1.00364 3.95463 0
M  V30 666 H 65.7524 0.130821 4.15694 0
M  V30 667 H 64.3294 -1.53598 3.39797 0
M  V30 668 N 66.5145 -1.57545 0.0417849 0
M  V30 669 C 67.7635 -1.91494 -0.633492 0
M  V30 670 C 68.0765 -0.921084 -1.72556 0
M  V30 671 O 69.2825 -1.15228 -2.45835 0
M  V30 672 C 67.7385 -3.40072 -1.17808 0
M  V30 673 C 67.3465 -4.47843 -0.118633 0
M  V30 674 C 69.0905 -3.8307 -1.82915 0
M  V30 675 C 66.9975 -5.87529 -0.675578 0
M  V30 676 H 65.9275 -0.714653 -0.24039 0
M  V30 677 H 68.5785 -1.83175 0.109148 0
M  V30 678 H 66.9605 -3.43364 -1.97274 0
M  V30 679 H 68.1345 -4.56128 0.654494 0
M  V30 680 H 66.4495 -4.14128 0.434414 0
M  V30 681 H 69.0465 -4.84794 -2.25563 0
M  V30 682 H 69.3895 -3.1881 -2.67705 0
M  V30 683 H 69.9225 -3.82255 -1.10119 0
M  V30 684 H 66.6615 -6.55362 0.134475 0
M  V30 685 H 66.1815 -5.82824 -1.4169 0
M  V30 686 H 67.8605 -6.36491 -1.1614 0
M  V30 687 N 67.9926 0.231505 -1.5589 0
M  V30 688 C 69.2386 0.95877 -1.78705 0
M  V30 689 C 69.5716 1.8438 -0.609725 0
M  V30 690 O 68.8466 1.90521 0.391426 0
M  V30 691 C 69.1296 1.8062 -3.11526 0
M  V30 692 C 68.9826 0.948328 -4.39689 0
M  V30 693 C 70.3016 2.78585 -3.40703 0
M  V30 694 H 67.4206 0.347129 -0.650131 0
M  V30 695 H 70.0626 0.228259 -1.88624 0
M  V30 696 H 68.2126 2.42902 -3.03201 0
M  V30 697 H 69.8846 0.343016 -4.60023 0
M  V30 698 H 68.1276 0.253314 -4.3306 0
M  V30 699 H 68.7986 1.57543 -5.29041 0
M  V30 700 H 71.2746 2.26439 -3.49091 0
M  V30 701 H 70.1506 3.34988 -4.34826 0
M  V30 702 H 70.4116 3.55825 -2.62375 0
M  V30 703 N 69.4707 1.49531 0.497807 0
M  V30 704 C 70.7177 1.59179 1.25173 0
M  V30 705 C 71.0457 0.279932 1.92475 0
M  V30 706 O 70.3007 -0.732383 1.81479 0
M  V30 707 C 70.5997 2.70252 2.33878 0
M  V30 708 C 70.2657 4.11644 1.84012 0
M  V30 709 C 68.9277 4.50121 1.70132 0
M  V30 710 C 71.2797 5.00121 1.46725 0
M  V30 711 C 68.6077 5.74845 1.17348 0
M  V30 712 C 70.9597 6.25366 0.95392 0
M  V30 713 C 69.6237 6.6267 0.801538 0
M  V30 714 H 68.8937 0.582478 0.45804 0
M  V30 715 H 71.5407 1.83373 0.551948 0
M  V30 716 H 69.8457 2.40041 3.09657 0
M  V30 717 H 71.5427 2.74925 2.9192 0
M  V30 718 H 68.1327 3.81274 1.95775 0
M  V30 719 H 72.3167 4.71048 1.56294 0
M  V30 720 H 67.5727 6.02444 1.04264 0
M  V30 721 H 71.7467 6.93301 0.656225 0
M  V30 722 H 69.3737 7.59197 0.390351 0
M  V30 723 N 70.9488 -0.749086 1.3866 0
M  V30 724 C 72.1948 -1.51056 1.35314 0
M  V30 725 C 72.5278 -1.94121 -0.0553751 0
M  V30 726 O 71.8028 -1.65763 -1.01749 0
M  V30 727 C 72.0858 -2.76003 2.31288 0
M  V30 728 C 71.9388 -2.39047 3.8102 0
M  V30 729 C 73.2578 -3.78046 2.2532 0
M  V30 730 H 70.3768 -0.547972 0.492844 0
M  V30 731 H 73.0188 -0.857628 1.69543 0
M  V30 732 H 71.1688 -3.31716 2.02229 0
M  V30 733 H 72.8408 -1.89074 4.20771 0
M  V30 734 H 71.0838 -1.71449 3.98482 0
M  V30 735 H 71.7548 -3.28462 4.4364 0
M  V30 736 H 74.2308 -3.31884 2.50983 0
M  V30 737 H 73.1068 -4.63159 2.94576 0
M  V30 738 H 73.3678 -4.23957 1.25352 0
M  V30 739 N 72.4269 -1.23603 -0.977757 0
M  V30 740 C 73.3899 -1.02069 -2.05218 0
M  V30 741 C 74.3899 0.0184305 -1.60789 0
M  V30 742 O 75.5799 -0.221569 -1.72785 0
M  V30 743 C 72.7119 -0.544926 -3.36517 0
M  V30 744 H 73.9049 -1.9742 -2.25755 0
M  V30 745 H 71.4579 -1.05684 -1.15155 0
M  V30 746 H 72.1929 0.412241 -3.21669 0
M  V30 747 H 71.9779 -1.2948 -3.70105 0
M  V30 748 H 73.4679 -0.414985 -4.15533 0
M  V30 749 N 73.905 1.17692 -1.04816 0
M  V30 750 C 75.151 1.88137 -0.75711 0
M  V30 751 C 75.484 1.80604 0.713841 0
M  V30 752 O 74.759 1.21146 1.52164 0
M  V30 753 C 75.042 3.38318 -1.2334 0
M  V30 754 C 74.895 3.54622 -2.76701 0
M  V30 755 C 76.214 4.32214 -0.829415 0
M  V30 756 H 73.333 0.683163 -0.27651 0
M  V30 757 H 75.975 1.38424 -1.30149 0
M  V30 758 H 74.125 3.80787 -0.770286 0
M  V30 759 H 75.797 3.21194 -3.31107 0
M  V30 760 H 74.04 2.97026 -3.16161 0
M  V30 761 H 74.711 4.60028 -3.05088 0
M  V30 762 H 77.187 3.97565 -1.22805 0
M  V30 763 H 76.063 5.35838 -1.19033 0
M  V30 764 H 76.324 4.41294 0.266891 0
M  V30 765 N 75.3831 0.828654 1.34056 0
M  V30 766 C 76.3461 0.259927 2.27721 0
M  V30 767 C 77.3461 -0.565478 1.50529 0
M  V30 768 O 78.5361 -0.38075 1.69988 0
M  V30 769 C 75.6681 -0.634944 3.34935 0
M  V30 770 H 76.8611 1.0863 2.79534 0
M  V30 771 H 74.4141 0.600951 1.44285 0
M  V30 772 H 75.1491 -1.48416 2.88346 0
M  V30 773 H 74.9341 -0.0444999 3.92075 0
M  V30 774 H 76.4241 -1.02648 4.04788 0
M  V30 775 N 76.8612 -1.46375 0.584142 0
M  V30 776 C 77.7912 -2.33103 -0.136037 0
M  V30 777 C 78.7722 -1.45431 -0.882255 0
M  V30 778 O 79.9572 -1.74246 -0.857434 0
M  V30 779 C 77.0872 -3.27731 -1.14933 0
M  V30 780 C 76.0412 -4.24855 -0.517862 0
M  V30 781 C 75.3672 -5.09001 -1.63773 0
M  V30 782 C 76.6672 -5.19439 0.545886 0
M  V30 783 H 78.3612 -2.93568 0.588086 0
M  V30 784 H 75.9072 -1.41166 0.284259 0
M  V30 785 H 77.8602 -3.87261 -1.66153 0
M  V30 786 H 76.5842 -2.65377 -1.90375 0
M  V30 787 H 75.2432 -3.6659 -0.0267361 0
M  V30 788 H 74.8912 -4.43031 -2.38185 0
M  V30 789 H 74.5912 -5.74777 -1.22085 0
M  V30 790 H 76.1152 -5.71396 -2.15266 0
M  V30 791 H 77.5292 -5.73177 0.118704 0
M  V30 792 H 75.9262 -5.93566 0.88317 0
M  V30 793 H 76.9962 -4.63285 1.43162 0
M  V30 794 N 78.3393 -0.321999 -1.54275 0
M  V30 795 C 79.5643 0.285791 -2.05422 0
M  V30 796 C 79.9893 1.45124 -1.19669 0
M  V30 797 O 79.3473 1.80132 -0.205441 0
M  V30 798 C 79.3953 0.69956 -3.53749 0
M  V30 799 O 78.4993 1.8021 -3.70942 0
M  V30 800 H 77.8403 0.0518962 -0.661969 0
M  V30 801 H 80.3703 -0.469954 -1.9913 0
M  V30 802 H 80.3803 0.982649 -3.9599 0
M  V30 803 H 79.0553 -0.152864 -4.15619 0
M  V30 804 H 77.6323 1.51794 -3.40607 0
M  V30 805 N 79.8174 1.5752 -0.0501392 0
M  V30 806 C 80.7654 2.12651 0.942459 0
M  V30 807 C 81.7594 1.05807 1.32292 0
M  V30 808 O 82.9654 1.24217 1.3027 0
M  V30 809 H 79.3404 0.679673 0.321789 0
M  V30 810 H 81.3114 2.94951 0.452356 0
M  V30 811 C 80.0604 2.68565 2.20836 0
M  V30 812 H 79.3834 3.50439 1.92439 0
M  V30 813 H 80.8234 3.10761 2.8845 0
M  V30 814 C 79.2824 1.62291 2.95234 0
M  V30 815 O 79.8124 1.03508 3.88135 0
M  V30 816 N 78.0184 1.33836 2.57946 0
M  V30 817 H 77.5654 1.81826 1.82475 0
M  V30 818 H 77.5234 0.629595 3.08032 0
M  V30 819 N 81.2955 -0.223234 1.56011 0
M  V30 820 C 82.5435 -0.946003 1.78592 0
M  V30 821 C 82.8645 -1.84936 0.618349 0
M  V30 822 O 82.1345 -1.92473 -0.364833 0
M  V30 823 H 80.7145 -0.352298 0.658707 0
M  V30 824 H 83.3765 -0.235494 1.93472 0
M  V30 825 H 82.4725 -1.55381 2.70672 0
M  V30 826 N 82.7736 -1.49793 -0.48987 0
M  V30 827 C 83.7036 -1.70201 -1.59856 0
M  V30 828 C 84.6846 -0.55076 -1.60937 0
M  V30 829 O 85.8696 -0.787841 -1.77501 0
M  V30 830 C 82.9996 -1.77882 -2.98287 0
M  V30 831 C 81.9536 -2.92907 -3.12073 0
M  V30 832 C 81.2796 -2.85712 -4.51965 0
M  V30 833 C 82.5796 -4.3369 -2.91051 0
M  V30 834 H 84.2736 -2.63025 -1.43032 0
M  V30 835 H 81.8196 -1.26574 -0.686664 0
M  V30 836 H 83.7726 -1.90744 -3.75759 0
M  V30 837 H 82.4966 -0.816653 -3.16225 0
M  V30 838 H 81.1556 -2.79665 -2.37029 0
M  V30 839 H 80.8036 -1.8738 -4.66795 0
M  V30 840 H 80.5036 -3.62921 -4.62128 0
M  V30 841 H 82.0276 -3.00598 -5.31482 0
M  V30 842 H 83.4416 -4.47555 -3.58284 0
M  V30 843 H 81.8386 -5.12205 -3.12675 0
M  V30 844 H 82.9086 -4.47362 -1.87071 0
M  V30 845 N 84.2517 0.741722 -1.39055 0
M  V30 846 C 85.4977 1.50336 -1.36113 0
M  V30 847 C 85.8307 1.94148 0.0450796 0
M  V30 848 O 85.1057 1.66301 1.00868 0
M  V30 849 C 85.3887 2.74773 -2.32749 0
M  V30 850 C 85.2417 2.37023 -3.82283 0
M  V30 851 C 86.5607 3.76846 -2.27322 0
M  V30 852 H 83.6797 0.545351 -0.495743 0
M  V30 853 H 86.3217 0.848624 -1.69995 0
M  V30 854 H 84.4717 3.30639 -2.03986 0
M  V30 855 H 86.1437 1.8684 -4.21768 0
M  V30 856 H 84.3867 1.69334 -3.99385 0
M  V30 857 H 85.0577 3.26104 -4.45376 0
M  V30 858 H 87.5337 3.30548 -2.5274 0
M  V30 859 H 86.4097 4.6159 -2.97028 0
M  V30 860 H 86.6707 4.23286 -1.27599 0
M  V30 861 N 85.7298 1.2412 0.971189 0
M  V30 862 C 86.6598 1.05508 2.08304 0
M  V30 863 C 87.6408 -0.0308864 1.70072 0
M  V30 864 O 88.8258 0.135521 1.93727 0
M  V30 865 C 85.9558 0.655365 3.4106 0
M  V30 866 C 84.9098 1.68971 3.93234 0
M  V30 867 C 84.2358 1.14516 5.22293 0
M  V30 868 C 85.5358 3.08487 4.21465 0
M  V30 869 H 87.2298 1.98507 2.24132 0
M  V30 870 H 84.7758 0.955821 1.07704 0
M  V30 871 H 86.7288 0.51217 4.18276 0
M  V30 872 H 85.4528 -0.31032 3.25122 0
M  V30 873 H 84.1118 1.82106 3.18171 0
M  V30 874 H 83.7598 0.170189 5.02712 0
M  V30 875 H 83.4598 1.83635 5.58168 0
M  V30 876 H 84.9838 1.01401 6.02121 0
M  V30 877 H 86.3978 2.98601 4.89398 0
M  V30 878 H 84.7948 3.74926 4.68562 0
M  V30 879 H 85.8648 3.56787 3.28376 0
M  V30 880 N 87.2079 -1.17134 1.05439 0
M  V30 881 C 88.1709 -2.19439 0.661764 0
M  V30 882 C 89.1709 -1.58199 -0.288042 0
M  V30 883 O 90.3609 -1.74053 -0.0715803 0
M  V30 884 C 87.4929 -3.40889 -0.0276209 0
M  V30 885 H 88.6859 -2.55688 1.56728 0
M  V30 886 H 86.2389 -1.31259 0.848567 0
M  V30 887 H 86.9739 -3.10187 -0.94629 0
M  V30 888 H 86.7589 -3.86586 0.655238 0
M  V30 889 H 88.2489 -4.16603 -0.288342 0
M  V30 890 N 88.686 -0.835752 -1.33615 0
M  V30 891 C 89.649 -0.272 -2.2758 0
M  V30 892 C 90.649 0.557487 -1.50827 0
M  V30 893 O 91.839 0.37173 -1.70188 0
M  V30 894 C 88.971 0.617173 -3.35267 0
M  V30 895 H 90.164 -1.10111 -2.78954 0
M  V30 896 H 87.717 -0.608594 -1.43965 0
M  V30 897 H 88.452 1.46884 -2.89129 0
M  V30 898 H 88.237 0.0237066 -3.92093 0
M  V30 899 H 89.727 1.005 -4.05326 0
M  V30 900 N 90.1641 1.46063 -0.591896 0
M  V30 901 C 91.0941 2.33172 0.123673 0
M  V30 902 C 92.0751 1.45897 0.87453 0
M  V30 903 O 93.2601 1.74698 0.848181 0
M  V30 904 C 90.3901 3.28336 1.13194 0
M  V30 905 C 89.3441 4.25124 0.495324 0
M  V30 906 C 88.6701 5.09863 1.61071 0
M  V30 907 C 89.9701 5.19143 -0.573425 0
M  V30 908 H 91.6641 2.93252 -0.603646 0
M  V30 909 H 89.2101 1.41014 -0.291741 0
M  V30 910 H 91.1631 3.88137 1.64097 0
M  V30 911 H 89.8871 2.66383 1.88965 0
M  V30 912 H 88.5461 3.66599 0.00729452 0
M  V30 913 H 88.1941 4.44288 2.35832 0
M  V30 914 H 87.8941 5.75417 1.19035 0
M  V30 915 H 89.4181 5.72529 2.12233 0
M  V30 916 H 90.8321 5.73106 -0.1491 0
M  V30 917 H 89.2291 5.93089 -0.914636 0
M  V30 918 H 90.2991 4.62519 -1.45617 0
M  V30 919 N 91.6422 0.330177 1.54103 0
M  V30 920 C 92.6052 -0.520144 2.2322 0
M  V30 921 C 93.6052 -1.03828 1.22786 0
M  V30 922 O 94.7952 -0.929652 1.4732 0
M  V30 923 C 91.9272 -1.72317 2.94142 0
M  V30 924 H 93.1202 0.0841605 2.99782 0
M  V30 925 H 90.6732 0.0813433 1.56088 0
M  V30 926 H 91.4082 -2.36653 2.21734 0
M  V30 927 H 91.1932 -1.35898 3.67796 0
M  V30 928 H 92.6832 -2.3266 3.46784 0
M  V30 929 N 93.1203 -1.57491 0.0584922 0
M  V30 930 C 94.5363 -1.56792 -0.298091 0
M  V30 931 C 94.7363 -1.06679 -1.70944 0
M  V30 932 O 93.7923 -0.726672 -2.41818 0
M  V30 933 C 95.1053 -3.00461 -0.119879 0
M  V30 934 C 96.6533 -3.1242 -0.190428 0
M  V30 935 C 97.1283 -4.57982 -0.0406567 0
M  V30 936 N 98.6193 -4.63099 -0.0966958 0
M  V30 937 C 99.3543 -5.734 -0.00502943 0
M  V30 938 N 98.8503 -6.9266 0.139402 0
M  V30 939 N 100.643 -5.62067 -0.0611391 0
M  V30 940 H 92.7943 -1.88386 0.98105 0
M  V30 941 H 95.0573 -0.867865 0.381463 0
M  V30 942 H 94.7633 -3.41187 0.85349 0
M  V30 943 H 94.6373 -3.66843 -0.877833 0
M  V30 944 H 97.0243 -2.71589 -1.15427 0
M  V30 945 H 97.1053 -2.48702 0.598405 0
M  V30 946 H 96.7493 -4.995 0.919897 0
M  V30 947 H 96.6793 -5.19715 -0.848727 0
M  V30 948 H 99.1703 -3.77331 -0.207277 0
M  V30 949 H 99.4833 -7.72536 0.201855 0
M  V30 950 H 97.8283 -6.94781 0.174586 0
M  V30 951 H 101.019 -4.67782 -0.172583 0
M  V30 952 H 101.192 -6.47999 0.0137562 0
M  V30 953 N 94.5984 0.214957 -1.56127 0
M  V30 954 C 96.0144 0.564948 -1.49267 0
M  V30 955 C 96.2144 1.86827 -0.754838 0
M  V30 956 O 95.2704 2.50745 -0.297198 0
M  V30 957 C 96.5834 0.638071 -2.93852 0
M  V30 958 C 98.1314 0.728253 -3.0441 0
M  V30 959 C 98.6064 0.832663 -4.50367 0
M  V30 960 N 100.097 0.896712 -4.54437 0
M  V30 961 C 100.832 0.997324 -5.6466 0
M  V30 962 N 100.328 1.06147 -6.8462 0
M  V30 963 N 102.121 1.03297 -5.52527 0
M  V30 964 H 94.2724 -0.640211 -2.02522 0
M  V30 965 H 96.5354 -0.225507 -0.920788 0
M  V30 966 H 96.2414 -0.250126 -3.50809 0
M  V30 967 H 96.1154 1.49947 -3.46115 0
M  V30 968 H 98.5024 1.60689 -2.47514 0
M  V30 969 H 98.5834 -0.158952 -2.55306 0
M  V30 970 H 98.2274 -0.0415417 -5.07883 0
M  V30 971 H 98.1574 1.73538 -4.97184 0
M  V30 972 H 100.648 0.857188 -3.6805 0
M  V30 973 H 100.961 1.1382 -7.64372 0
M  V30 974 H 99.3064 1.03049 -6.87318 0
M  V30 975 H 102.497 0.979558 -4.57736 0
M  V30 976 H 102.67 1.10793 -6.38458 0
M  V30 977 N 96.0765 1.50051 0.48192 0
M  V30 978 C 97.3245 1.60181 1.23234 0
M  V30 979 C 97.6455 0.299176 1.92691 0
M  V30 980 O 96.9155 -0.682708 1.83619 0
M  V30 981 H 95.4955 0.590232 0.457859 0
M  V30 982 H 98.1575 1.86775 0.556881 0
M  V30 983 H 97.2535 2.40753 1.98607 0
M  V30 984 N 97.5546 -0.734337 1.39446 0
M  V30 985 C 98.9706 -1.03997 1.21065 0
M  V30 986 C 99.1706 -2.01369 0.0727019 0
M  V30 987 O 98.2266 -2.45856 -0.575426 0
M  V30 988 C 99.5396 -1.60163 2.54496 0
M  V30 989 C 101.088 -1.7224 2.61347 0
M  V30 990 C 101.563 -2.31814 3.95002 0
M  V30 991 N 103.054 -2.39223 3.96644 0
M  V30 992 C 103.789 -2.86258 4.96834 0
M  V30 993 N 103.285 -3.33184 6.07421 0
M  V30 994 N 105.078 -2.85473 4.84213 0
M  V30 995 H 97.2286 -0.0885624 2.12215 0
M  V30 996 H 99.4916 -0.10191 0.942506 0
M  V30 997 H 99.1976 -0.960811 3.38321 0
M  V30 998 H 99.0716 -2.5896 2.74262 0
M  V30 999 H 101.459 -2.35443 1.77906 0
M  V30 1000 H 101.54 -0.720939 2.4543 0
M  V30 1001 H 101.184 -1.69238 4.78875 0
M  V30 1002 H 101.114 -3.32638 4.08239 0
M  V30 1003 H 103.605 -2.06057 3.16779 0
M  V30 1004 H 103.918 -3.67586 6.7978 0
M  V30 1005 H 102.263 -3.31191 6.11013 0
M  V30 1006 H 105.454 -2.48136 3.96921 0
M  V30 1007 H 105.627 -3.21814 5.62441 0
M  V30 1008 N 99.0327 -1.24633 -0.964593 0
M  V30 1009 C 100.449 -1.01239 -1.2338 0
M  V30 1010 C 100.649 0.2769 -1.99588 0
M  V30 1011 O 99.7047 0.992241 -2.32187 0
M  V30 1012 C 101.018 -2.22937 -2.01791 0
M  V30 1013 C 102.566 -2.27594 -2.14872 0
M  V30 1014 C 103.041 -3.48921 -2.96678 0
M  V30 1015 N 104.532 -3.49257 -3.04259 0
M  V30 1016 C 105.267 -4.39795 -3.67924 0
M  V30 1017 N 104.763 -5.40591 -4.33281 0
M  V30 1018 N 106.556 -4.275 -3.64966 0
M  V30 1019 H 98.7067 -2.0748 -0.454502 0
M  V30 1020 H 100.97 -0.910647 -0.26349 0
M  V30 1021 H 100.676 -3.16587 -1.53184 0
M  V30 1022 H 100.55 -2.25306 -3.02518 0
M  V30 1023 H 102.937 -1.34473 -2.6268 0
M  V30 1024 H 103.018 -2.2925 -1.13482 0
M  V30 1025 H 102.662 -4.42359 -2.49562 0
M  V30 1026 H 102.592 -3.4451 -3.98272 0
M  V30 1027 H 105.083 -2.76337 -2.57771 0
M  V30 1028 H 105.396 -6.05904 -4.79687 0
M  V30 1029 H 103.741 -5.44475 -4.3194 0
M  V30 1030 H 106.932 -3.47987 -3.13086 0
M  V30 1031 H 107.105 -4.98258 -4.14298 0
M  V30 1032 N 100.511 1.16574 -1.06058 0
M  V30 1033 C 101.759 1.86677 -0.77434 0
M  V30 1034 C 102.08 1.81959 0.701147 0
M  V30 1035 O 101.35 1.2515 1.50713 0
M  V30 1036 H 99.9298 0.691134 -0.283449 0
M  V30 1037 H 102.592 1.41378 -1.34158 0
M  V30 1038 H 101.688 2.92181 -1.09711 0
M  V30 1039 N 101.989 0.842826 1.3317 0
M  V30 1040 C 102.939 0.250877 2.26616 0
M  V30 1041 C 103.923 -0.596427 1.49437 0
M  V30 1042 O 105.115 -0.447747 1.71243 0
M  V30 1043 C 102.244 -0.569779 3.38539 0
M  V30 1044 C 101.33 0.289254 4.23112 0
M  V30 1045 N 101.721 1.36987 4.86897 0
M  V30 1046 C 100.019 0.0769631 4.45934 0
M  V30 1047 C 100.72 1.89737 5.49886 0
M  V30 1048 N 99.6959 1.19827 5.30229 0
M  V30 1049 H 103.498 1.07718 2.73448 0
M  V30 1050 H 101.012 0.687693 1.47121 0
M  V30 1051 H 103.009 -1.01018 4.04476 0
M  V30 1052 H 101.669 -1.39401 2.93253 0
M  V30 1053 H 102.68 1.75277 4.87338 0
M  V30 1054 H 99.3569 -0.713507 4.11358 0
M  V30 1055 H 100.747 2.80253 6.10662 0
M  V30 1056 N 103.467 -1.45747 0.599634 0
M  V30 1057 C 104.713 -2.03153 0.100263 0
M  V30 1058 C 105.068 -1.46073 -1.25221 0
M  V30 1059 O 104.361 -0.622878 -1.81193 0
M  V30 1060 C 104.555 -3.57399 -0.00602758 0
M  V30 1061 C 104.384 -4.2944 1.3346 0
M  V30 1062 C 103.154 -4.6768 1.91321 0
M  V30 1063 C 105.352 -4.61905 2.2616 0
M  V30 1064 N 103.334 -5.24544 3.18946 0
M  V30 1065 C 104.705 -5.19518 3.3838 0
M  V30 1066 C 106.76 -4.43841 2.25631 0
M  V30 1067 C 105.463 -5.60972 4.50226 0
M  V30 1068 C 107.489 -4.86322 3.36518 0
M  V30 1069 C 106.851 -5.44021 4.4746 0
M  V30 1070 H 102.95 -0.777911 0.0798696 0
M  V30 1071 H 105.534 -1.77674 0.796244 0
M  V30 1072 H 103.705 -3.82556 -0.671212 0
M  V30 1073 H 105.437 -4.01457 -0.51133 0
M  V30 1074 H 102.192 -4.5098 1.44617 0
M  V30 1075 H 102.616 -5.57483 3.84112 0
M  V30 1076 H 107.258 -3.98552 1.41123 0
M  V30 1077 H 104.976 -6.0523 5.35464 0
M  V30 1078 H 108.562 -4.74084 3.37247 0
M  V30 1079 H 107.442 -5.76289 5.31846 0
M  V30 1080 N 104.945 -0.338344 -1.53925 0
M  V30 1081 C 105.908 0.508299 -2.23493 0
M  V30 1082 C 106.908 1.03175 -1.23335 0
M  V30 1083 O 108.098 0.921826 -1.47811 0
M  V30 1084 C 105.23 1.70754 -2.95052 0
M  V30 1085 H 106.423 -0.100058 -2.99733 0
M  V30 1086 H 103.976 -0.0896198 -1.56043 0
M  V30 1087 H 104.711 2.35474 -2.22986 0
M  V30 1088 H 104.496 1.33946 -3.68512 0
M  V30 1089 H 105.986 2.30818 -3.48013 0
M  V30 1090 N 106.423 1.57458 -0.0668435 0
M  V30 1091 C 107.834 1.80776 0.466558 0
M  V30 1092 C 108.185 0.980361 1.69951 0
M  V30 1093 O 107.31 0.201441 2.1546 0
M  V30 1094 C 107.905 3.27881 0.85321 0
M  V30 1095 C 106.464 3.52062 1.3315 0
M  V30 1096 C 105.611 2.75513 0.314264 0
M  V30 1097 H 108.562 1.5598 -0.292588 0
M  V30 1098 H 108.583 3.39659 1.715 0
M  V30 1099 H 108.095 3.88075 -0.0443439 0
M  V30 1100 H 106.196 2.97167 2.24772 0
M  V30 1101 H 106.309 4.60762 1.31285 0
M  V30 1102 H 104.673 2.42123 0.790492 0
M  V30 1103 H 105.456 3.38442 -0.575477 0
M  V30 1104 N 107.901 -0.206675 1.56239 0
M  V30 1105 C 109.15 -0.926964 1.79138 0
M  V30 1106 C 109.463 -1.84901 0.638043 0
M  V30 1107 O 110.669 -2.60906 0.751033 0
M  V30 1108 C 109.125 -1.6986 3.17294 0
M  V30 1109 C 108.733 -0.821956 4.40395 0
M  V30 1110 C 110.477 -2.40922 3.4951 0
M  V30 1111 C 108.384 -1.59179 5.69575 0
M  V30 1112 H 107.314 -0.349864 0.667915 0
M  V30 1113 H 109.965 -0.180487 1.8261 0
M  V30 1114 H 108.347 -2.48853 3.08039 0
M  V30 1115 H 109.521 -0.0715019 4.60745 0
M  V30 1116 H 107.836 -0.222741 4.15804 0
M  V30 1117 H 110.433 -2.99047 4.43255 0
M  V30 1118 H 110.776 -3.14542 2.72707 0
M  V30 1119 H 111.309 -1.68905 3.60161 0
M  V30 1120 H 108.048 -0.898589 6.49312 0
M  V30 1121 H 107.568 -2.31648 5.53262 0
M  V30 1122 H 109.247 -2.14862 6.10281 0
M  V30 1123 N 109.379 -1.50304 -0.473955 0
M  V30 1124 C 110.329 -1.65347 -1.56985 0
M  V30 1125 C 111.313 -0.508176 -1.52664 0
M  V30 1126 O 112.505 -0.762446 -1.59737 0
M  V30 1127 C 109.634 -1.74832 -2.95447 0
M  V30 1128 C 108.72 -2.95028 -3.04662 0
M  V30 1129 N 109.111 -4.18747 -2.83698 0
M  V30 1130 C 107.409 -2.93527 -3.35795 0
M  V30 1131 C 108.11 -4.99687 -2.97805 0
M  V30 1132 N 107.086 -4.33585 -3.2788 0
M  V30 1133 H 110.888 -2.58698 -1.39472 0
M  V30 1134 H 108.402 -1.47449 -0.680629 0
M  V30 1135 H 110.399 -1.83712 -3.7424 0
M  V30 1136 H 109.059 -0.826376 -3.14008 0
M  V30 1137 H 110.07 -4.48291 -2.59337 0
M  V30 1138 H 106.747 -2.10821 -3.60362 0
M  V30 1139 H 108.137 -6.08057 -2.85861 0
M  V30 1140 N 110.857 0.726932 -1.39834 0
M  V30 1141 C 112.103 1.48884 -1.377 0
M  V30 1142 C 112.436 1.94185 0.0244852 0
M  V30 1143 O 111.711 1.67361 0.990986 0
M  V30 1144 C 111.994 2.72288 -2.3565 0
M  V30 1145 C 111.847 2.32956 -3.84775 0
M  V30 1146 C 113.166 3.74414 -2.31306 0
M  V30 1147 H 110.285 0.540062 -0.5015 0
M  V30 1148 H 112.927 0.830547 -1.70886 0
M  V30 1149 H 111.077 3.28457 -2.07481 0
M  V30 1150 H 112.749 1.82356 -4.23726 0
M  V30 1151 H 110.992 1.65088 -4.01159 0
M  V30 1152 H 111.663 3.21362 -4.4881 0
M  V30 1153 H 114.139 3.27849 -2.56231 0
M  V30 1154 H 113.015 4.58414 -3.01907 0
M  V30 1155 H 113.276 4.21909 -1.32081 0
M  V30 1156 N 112.336 1.25143 0.95797 0
M  V30 1157 C 113.583 1.09692 1.70217 0
M  V30 1158 C 113.911 -0.362654 1.91089 0
M  V30 1159 O 113.166 -1.28386 1.47701 0
M  V30 1160 C 113.465 1.79272 3.09187 0
M  V30 1161 C 113.131 3.29196 3.08125 0
M  V30 1162 C 111.793 3.70096 3.07543 0
M  V30 1163 C 114.145 4.24995 3.0171 0
M  V30 1164 C 111.473 5.05213 2.9829 0
M  V30 1165 C 113.825 5.60132 2.93999 0
M  V30 1166 C 112.489 6.00365 2.9175 0
M  V30 1167 H 111.759 0.401393 0.622868 0
M  V30 1168 H 114.406 1.55372 1.11945 0
M  V30 1169 H 112.711 1.26014 3.70982 0
M  V30 1170 H 114.408 1.64773 3.65583 0
M  V30 1171 H 110.998 2.96651 3.09348 0
M  V30 1172 H 115.182 3.9439 3.01281 0
M  V30 1173 H 110.438 5.35569 2.94916 0
M  V30 1174 H 114.612 6.3406 2.87996 0
M  V30 1175 H 112.239 7.05023 2.84336 0
M  V30 1176 N 113.814 -1.1601 1.06675 0
M  V30 1177 C 115.063 -1.85973 0.780818 0
M  V30 1178 C 115.376 -1.82819 -0.695444 0
M  V30 1179 O 116.582 -2.484 -1.09589 0
M  V30 1180 C 115.038 -3.33757 1.34665 0
M  V30 1181 C 114.646 -3.45374 2.85343 0
M  V30 1182 C 116.39 -4.0895 1.13843 0
M  V30 1183 C 114.297 -4.87266 3.35151 0
M  V30 1184 H 113.227 -0.696661 0.288407 0
M  V30 1185 H 115.878 -1.30903 1.28595 0
M  V30 1186 H 114.26 -3.88456 0.769274 0
M  V30 1187 H 115.434 -3.00816 3.49065 0
M  V30 1188 H 113.749 -2.83619 3.04876 0
M  V30 1189 H 116.346 -5.13654 1.4854 0
M  V30 1190 H 116.689 -4.16229 0.0770282 0
M  V30 1191 H 117.222 -3.605 1.68179 0
M  V30 1192 H 113.961 -4.85168 4.40786 0
M  V30 1193 H 113.481 -5.32433 2.76179 0
M  V30 1194 H 115.16 -5.56097 3.30704 0
M  V30 1195 N 115.292 -0.849877 -1.32721 0
M  V30 1196 C 116.54 -0.450032 -1.97026 0
M  V30 1197 C 116.861 0.996604 -1.67609 0
M  V30 1198 O 116.131 1.6958 -0.980786 0
M  V30 1199 H 114.711 -0.163426 -0.728904 0
M  V30 1200 H 117.373 -1.08526 -1.6189 0
M  V30 1201 H 116.469 -0.591146 -3.0645 0
M  V30 1202 N 116.77 1.45427 -0.607355 0
M  V30 1203 C 117.72 2.27612 0.133038 0
M  V30 1204 C 118.704 1.37307 0.838785 0
M  V30 1205 O 119.896 1.61299 0.728813 0
M  V30 1206 C 117.025 3.24173 1.12991 0
M  V30 1207 C 116.111 4.21965 0.425011 0
M  V30 1208 N 116.502 5.02982 -0.533217 0
M  V30 1209 C 114.8 4.40899 0.672593 0
M  V30 1210 C 115.501 5.73931 -0.947518 0
M  V30 1211 N 114.477 5.42819 -0.291321 0
M  V30 1212 H 118.279 2.87649 -0.602935 0
M  V30 1213 H 115.793 1.56576 -0.431006 0
M  V30 1214 H 117.79 3.81783 1.67473 0
M  V30 1215 H 116.45 2.65696 1.86644 0
M  V30 1216 H 117.461 5.09843 -0.90995 0
M  V30 1217 H 114.138 3.93547 1.39382 0
M  V30 1218 H 115.528 6.49037 -1.73782 0
M  V30 1219 N 118.248 0.346503 1.53744 0
M  V30 1220 C 119.178 -0.501193 2.28058 0
M  V30 1221 C 120.159 -1.10014 1.29734 0
M  V30 1222 O 121.344 -1.12097 1.58581 0
M  V30 1223 C 118.474 -1.65078 3.05559 0
M  V30 1224 C 117.428 -1.18003 4.11411 0
M  V30 1225 C 116.754 -2.41837 4.76884 0
M  V30 1226 C 118.054 -0.278394 5.21558 0
M  V30 1227 H 119.748 0.11875 2.99164 0
M  V30 1228 H 117.294 0.0585531 1.43881 0
M  V30 1229 H 119.247 -2.25028 3.56287 0
M  V30 1230 H 117.971 -2.29767 2.32109 0
M  V30 1231 H 116.63 -0.603331 3.61601 0
M  V30 1232 H 116.278 -3.0494 4.00026 0
M  V30 1233 H 115.978 -2.1102 5.48402 0
M  V30 1234 H 117.502 -3.02508 5.30397 0
M  V30 1235 H 118.916 -0.784823 5.67903 0
M  V30 1236 H 117.313 -0.0619707 6.00068 0
M  V30 1237 H 118.383 0.684677 4.80042 0
M  V30 1238 N 119.726 -1.57421 0.075193 0
M  V30 1239 C 120.966 -1.95495 -0.596757 0
M  V30 1240 C 121.33 -0.954886 -1.66571 0
M  V30 1241 O 122.531 -1.22341 -2.39345 0
M  V30 1242 C 120.802 -3.382 -1.15566 0
M  V30 1243 S 122.361 -3.98254 -1.84226 0
M  V30 1244 H 119.179 -0.683649 -0.195307 0
M  V30 1245 H 121.781 -1.94925 0.149859 0
M  V30 1246 H 120.485 -4.08766 -0.36588 0
M  V30 1247 H 120.016 -3.42321 -1.93856 0
M  V30 1248 H 122.031 -3.85435 -3.12497 0
M  V30 1249 N 121.204 0.198386 -1.56346 0
M  V30 1250 C 122.134 1.24865 -1.9731 0
M  V30 1251 C 123.115 1.47651 -0.844576 0
M  V30 1252 O 124.3 1.59444 -1.10866 0
M  V30 1253 C 121.43 2.59358 -2.30977 0
M  V30 1254 C 120.384 2.5119 -3.46537 0
M  V30 1255 C 119.71 3.89926 -3.65871 0
M  V30 1256 C 121.01 2.03977 -4.80823 0
M  V30 1257 H 122.704 0.908252 -2.85291 0
M  V30 1258 H 120.25 0.435462 -1.37258 0
M  V30 1259 H 122.203 3.33011 -2.58228 0
M  V30 1260 H 120.927 2.95132 -1.39874 0
M  V30 1261 H 119.586 1.79993 -3.19371 0
M  V30 1262 H 119.234 4.23046 -2.72105 0
M  V30 1263 H 118.934 3.85336 -4.4361 0
M  V30 1264 H 120.458 4.65205 -3.95495 0
M  V30 1265 H 121.872 2.67386 -5.07127 0
M  V30 1266 H 120.269 2.10397 -5.62008 0
M  V30 1267 H 121.339 0.992861 -4.74626 0
M  V30 1268 N 122.682 1.50554 0.465978 0
M  V30 1269 C 123.645 1.69233 1.54574 0
M  V30 1270 C 124.645 0.562901 1.50626 0
M  V30 1271 O 125.835 0.830016 1.53155 0
M  V30 1272 C 122.967 1.7223 2.94193 0
M  V30 1273 H 124.16 2.65571 1.39327 0
M  V30 1274 H 121.713 1.40111 0.692711 0
M  V30 1275 H 122.448 0.77603 3.14878 0
M  V30 1276 H 122.233 2.54285 2.98466 0
M  V30 1277 H 123.723 1.88618 3.72576 0
M  V30 1278 N 124.16 -0.719506 1.40217 0
M  V30 1279 C 125.437 -1.47221 1.28784 0
M  V30 1280 C 125.817 -2.10883 -0.0956067 0
M  V30 1281 O 125.165 -1.99833 -1.10811 0
M  V30 1282 C 125.375 -2.5111 2.42373 0
M  V30 1283 C 126.723 -3.17053 2.82423 0
M  V30 1284 O 127.747 -2.61429 2.41937 0
M  V30 1285 O 126.606 -4.17742 3.52355 0
M  V30 1286 H 123.7 -0.654491 0.50554 0
M  V30 1287 H 126.246 -0.752014 1.52128 0
M  V30 1288 H 125.018 -2.02556 3.34793 0
M  V30 1289 H 124.641 -3.3067 2.20778 0
M  V30 1290 N 125.638 -1.25649 -0.95132 0
M  V30 1291 C 126.568 -1.08808 -2.06599 0
M  V30 1292 C 127.549 0.00382547 -1.701 0
M  V30 1293 O 128.734 -0.166325 -1.93486 0
M  V30 1294 C 125.864 -0.709542 -3.39975 0
M  V30 1295 C 124.818 -1.75206 -3.90496 0
M  V30 1296 C 124.144 -1.22811 -5.20405 0
M  V30 1297 C 125.444 -3.15153 -4.16504 0
M  V30 1298 H 127.138 -2.02048 -2.20946 0
M  V30 1299 H 124.684 -0.972835 -1.06169 0
M  V30 1300 H 126.637 -0.578649 -4.17408 0
M  V30 1301 H 125.361 0.258556 -3.25575 0
M  V30 1302 H 124.02 -1.87145 -3.15234 0
M  V30 1303 H 123.668 -0.250145 -5.02378 0
M  V30 1304 H 123.368 -1.92492 -5.55176 0
M  V30 1305 H 124.892 -1.10968 -6.00432 0
M  V30 1306 H 126.306 -3.06349 -4.84586 0
M  V30 1307 H 124.703 -3.82333 -4.62538 0
M  V30 1308 H 125.773 -3.61966 -3.22658 0
M  V30 1309 N 127.117 1.15442 -1.07289 0
M  V30 1310 C 128.08 2.18358 -0.696591 0
M  V30 1311 C 129.08 1.58637 0.262837 0
M  V30 1312 O 130.27 1.74145 0.0438809 0
M  V30 1313 C 127.402 3.4089 -0.0266151 0
M  V30 1314 H 128.595 2.53162 -1.60776 0
M  V30 1315 H 126.148 1.29893 -0.869342 0
M  V30 1316 H 126.883 3.11653 0.896822 0
M  V30 1317 H 126.668 3.85495 -0.716657 0
M  V30 1318 H 128.158 4.17009 0.222028 0
M  V30 1319 N 128.595 0.856903 1.32268 0
M  V30 1320 C 129.841 0.462069 1.97466 0
M  V30 1321 C 130.174 -0.980298 1.67642 0
M  V30 1322 O 129.449 -1.68824 0.965858 0
M  V30 1323 C 129.732 0.704336 3.53145 0
M  V30 1324 C 129.585 2.19529 3.9259 0
M  V30 1325 C 130.904 0.1622 4.39801 0
M  V30 1326 H 128.023 0.169357 0.717278 0
M  V30 1327 H 130.665 1.07574 1.56614 0
M  V30 1328 H 128.815 0.181999 3.88073 0
M  V30 1329 H 130.487 2.78387 3.67829 0
M  V30 1330 H 128.73 2.67292 3.41668 0
M  V30 1331 H 129.401 2.31549 5.01088 0
M  V30 1332 H 131.877 0.608905 4.11621 0
M  V30 1333 H 130.753 0.361265 5.4771 0
M  V30 1334 H 131.014 -0.935158 4.32096 0
M  V30 1335 N 130.073 -1.45103 0.615059 0
M  V30 1336 C 131.036 -2.29025 -0.0895485 0
M  V30 1337 C 132.036 -1.40174 -0.787906 0
M  V30 1338 O 133.226 -1.62217 -0.634933 0
M  V30 1339 C 130.358 -3.21376 -1.13711 0
M  V30 1340 H 131.551 -2.92807 0.648382 0
M  V30 1341 H 129.104 -1.51749 0.374444 0
M  V30 1342 H 129.839 -2.6241 -1.90556 0
M  V30 1343 H 129.624 -3.86834 -0.640475 0
M  V30 1344 H 131.114 -3.84459 -1.63036 0
M  V30 1345 N 131.551 -0.354651 -1.53558 0
M  V30 1346 C 132.481 0.489091 -2.2832 0
M  V30 1347 C 133.462 1.09324 -1.30316 0
M  V30 1348 O 134.647 1.11255 -1.59173 0
M  V30 1349 C 131.777 1.63456 -3.0643 0
M  V30 1350 C 130.731 1.1582 -4.12031 0
M  V30 1351 C 130.057 2.39305 -4.7816 0
M  V30 1352 C 131.357 0.250731 -5.21698 0
M  V30 1353 H 133.051 -0.134614 -2.99097 0
M  V30 1354 H 130.597 -0.0661826 -1.43848 0
M  V30 1355 H 132.55 2.23136 -3.57475 0
M  V30 1356 H 131.274 2.28533 -2.33325 0
M  V30 1357 H 129.933 0.584146 -3.61916 0
M  V30 1358 H 129.581 3.02814 -4.01637 0
M  V30 1359 H 129.281 2.08109 -5.49513 0
M  V30 1360 H 130.805 2.99691 -5.31994 0
M  V30 1361 H 132.219 0.754695 -5.68311 0
M  V30 1362 H 130.616 0.0301468 -6.00092 0
M  V30 1363 H 131.686 -0.710125 -4.79672 0
M  V30 1364 N 133.029 1.57378 -0.0835403 0
M  V30 1365 C 134.276 1.9393 0.58287 0
M  V30 1366 C 134.604 0.964455 1.68904 0
M  V30 1367 O 133.859 -0.0179474 1.95692 0
M  V30 1368 C 134.158 3.37063 1.1884 0
M  V30 1369 C 133.824 4.50424 0.207194 0
M  V30 1370 C 132.486 4.81159 -0.0627115 0
M  V30 1371 C 134.838 5.19136 -0.463426 0
M  V30 1372 C 132.166 5.77939 -1.01012 0
M  V30 1373 C 134.518 6.16931 -1.39924 0
M  V30 1374 C 133.182 6.46078 -1.67749 0
M  V30 1375 H 132.452 0.70964 0.213287 0
M  V30 1376 H 135.099 1.90856 -0.156916 0
M  V30 1377 H 133.404 3.3666 2.00418 0
M  V30 1378 H 135.101 3.6264 1.71153 0
M  V30 1379 H 131.691 4.2646 0.427747 0
M  V30 1380 H 135.875 4.95576 -0.268034 0
M  V30 1381 H 131.131 5.98842 -1.23283 0
M  V30 1382 H 135.305 6.69273 -1.92476 0
M  V30 1383 H 132.932 7.2088 -2.41321 0
M  V30 1384 N 134.507 -0.190092 1.56449 0
M  V30 1385 C 135.439 -1.25973 1.91477 0
M  V30 1386 C 136.452 -1.41452 0.805931 0
M  V30 1387 O 137.641 -1.41789 1.08435 0
M  V30 1388 C 134.741 -2.63117 2.13594 0
M  V30 1389 C 133.914 -2.69182 3.4476 0
M  V30 1390 C 132.973 -3.87557 3.5593 0
M  V30 1391 O 131.999 -3.74427 4.28711 0
M  V30 1392 N 133.201 -5.03224 2.89388 0
M  V30 1393 H 135.966 -0.962394 2.83828 0
M  V30 1394 H 133.527 -0.379981 1.57378 0
M  V30 1395 H 135.519 -3.40742 2.1835 0
M  V30 1396 H 134.089 -2.85319 1.27719 0
M  V30 1397 H 133.309 -1.77793 3.51828 0
M  V30 1398 H 134.597 -2.70229 4.31107 0
M  V30 1399 H 133.995 -5.16791 2.30094 0
M  V30 1400 H 132.552 -5.78778 2.99764 0
M  V30 1401 N 135.985 -1.50799 -0.457987 0
M  V30 1402 C 137.231 -1.62683 -1.21088 0
M  V30 1403 C 137.564 -0.332268 -1.91336 0
M  V30 1404 O 136.839 0.667043 -1.82704 0
M  V30 1405 C 137.122 -2.81615 -2.24422 0
M  V30 1406 C 136.975 -4.20989 -1.58392 0
M  V30 1407 C 138.294 -2.96085 -3.2561 0
M  V30 1408 H 135.413 -0.592087 -0.438864 0
M  V30 1409 H 138.055 -1.83225 -0.50286 0
M  V30 1410 H 136.205 -2.64231 -2.84806 0
M  V30 1411 H 137.877 -4.49994 -1.01504 0
M  V30 1412 H 136.12 -4.24641 -0.886704 0
M  V30 1413 H 136.791 -5.0016 -2.33547 0
M  V30 1414 H 139.267 -3.12042 -2.75262 0
M  V30 1415 H 138.143 -3.80902 -3.95228 0
M  V30 1416 H 138.404 -2.0726 -3.90507 0
M  V30 1417 N 137.463 0.71206 -1.40597 0
M  V30 1418 C 138.393 1.83889 -1.43899 0
M  V30 1419 C 139.374 1.67442 -0.299504 0
M  V30 1420 O 140.559 1.87421 -0.508624 0
M  V30 1421 C 137.689 3.21877 -1.30431 0
M  V30 1422 C 136.643 3.53002 -2.42019 0
M  V30 1423 C 135.969 4.90172 -2.13626 0
M  V30 1424 C 137.269 3.53643 -3.84362 0
M  V30 1425 H 138.963 1.81383 -2.38203 0
M  V30 1426 H 136.509 0.871237 -1.14654 0
M  V30 1427 H 138.462 4.00404 -1.31357 0
M  V30 1428 H 137.186 3.24968 -0.326049 0
M  V30 1429 H 135.845 2.76818 -2.40349 0
M  V30 1430 H 135.493 4.89869 -1.14182 0
M  V30 1431 H 135.193 5.11962 -2.88389 0
M  V30 1432 H 136.717 5.71028 -2.1624 0
M  V30 1433 H 138.131 4.22203 -3.87837 0
M  V30 1434 H 136.528 3.86961 -4.58673 0
M  V30 1435 H 137.598 2.52954 -4.13693 0
M  V30 1436 N 138.941 1.26152 0.944643 0
M  V30 1437 C 140.352 1.10454 1.50522 0
M  V30 1438 C 140.703 -0.31635 1.93633 0
M  V30 1439 O 139.828 -1.20746 1.79581 0
M  V30 1440 C 140.423 1.99891 2.73549 0
M  V30 1441 C 138.982 1.88348 3.25886 0
M  V30 1442 C 138.129 1.93447 1.9868 0
M  V30 1443 H 141.08 1.39292 0.760489 0
M  V30 1444 H 141.101 1.54477 3.47732 0
M  V30 1445 H 140.613 3.03297 2.42141 0
M  V30 1446 H 138.714 0.878636 3.62092 0
M  V30 1447 H 138.827 2.73696 3.93227 0
M  V30 1448 H 137.191 1.37456 2.14425 0
M  V30 1449 H 137.974 2.98476 1.69607 0
M  V30 1450 N 140.419 -1.14872 1.07899 0
M  V30 1451 C 141.351 -2.19425 0.662231 0
M  V30 1452 C 142.364 -1.60231 -0.288079 0
M  V30 1453 O 143.553 -1.78336 -0.076534 0
M  V30 1454 C 140.653 -3.38867 -0.0470695 0
M  V30 1455 C 139.826 -4.27597 0.920831 0
M  V30 1456 C 138.885 -5.25616 0.247805 0
M  V30 1457 O 137.911 -5.62189 0.890599 0
M  V30 1458 N 139.113 -5.71746 -1.00435 0
M  V30 1459 H 141.878 -2.55797 1.56166 0
M  V30 1460 H 139.439 -1.30042 0.964404 0
M  V30 1461 H 141.431 -4.01497 -0.50813 0
M  V30 1462 H 140.001 -3.00864 -0.848523 0
M  V30 1463 H 139.221 -3.61982 1.56087 0
M  V30 1464 H 140.509 -4.83748 1.57688 0
M  V30 1465 H 139.907 -5.44153 -1.54642 0
M  V30 1466 H 138.464 -6.36389 -1.40899 0
M  V30 1467 N 141.898 -0.863906 -1.31812 0
M  V30 1468 C 142.828 -0.330843 -2.31144 0
M  V30 1469 C 143.809 0.575005 -1.60087 0
M  V30 1470 O 144.994 0.493304 -1.8783 0
M  V30 1471 C 142.124 0.47374 -3.44054 0
M  V30 1472 C 141.078 -0.338481 -4.26659 0
M  V30 1473 C 140.404 0.591412 -5.31419 0
M  V30 1474 C 141.704 -1.56926 -4.98168 0
M  V30 1475 H 143.398 -1.16086 -2.75979 0
M  V30 1476 H 140.944 -0.559657 -1.32679 0
M  V30 1477 H 142.897 0.857143 -4.12591 0
M  V30 1478 H 141.621 1.33721 -2.9797 0
M  V30 1479 H 140.28 -0.703754 -3.59782 0
M  V30 1480 H 139.928 1.45199 -4.81587 0
M  V30 1481 H 139.628 0.0519022 -5.87577 0
M  V30 1482 H 141.152 0.97179 -6.02817 0
M  V30 1483 H 142.566 -1.25764 -5.59336 0
M  V30 1484 H 140.963 -2.04739 -5.64094 0
M  V30 1485 H 142.033 -2.32544 -4.25501 0
M  V30 1486 N 143.376 1.44774 -0.622745 0
M  V30 1487 C 144.339 2.29069 0.0774015 0
M  V30 1488 C 145.339 1.4059 0.780461 0
M  V30 1489 O 146.529 1.62551 0.626322 0
M  V30 1490 C 143.661 3.21974 1.12006 0
M  V30 1491 H 144.854 2.92459 -0.663901 0
M  V30 1492 H 142.407 1.51548 -0.382486 0
M  V30 1493 H 143.142 2.63417 1.89162 0
M  V30 1494 H 142.927 3.87168 0.619951 0
M  V30 1495 H 144.417 3.85318 1.60995 0
M  V30 1496 N 144.854 0.36279 1.53368 0
M  V30 1497 C 146.1 -0.220702 2.02199 0
M  V30 1498 C 146.455 -1.46649 1.24546 0
M  V30 1499 O 145.748 -1.88737 0.32996 0
M  V30 1500 C 145.942 -0.568417 3.52851 0
M  V30 1501 C 145.771 0.642126 4.45092 0
M  V30 1502 C 144.541 1.15335 4.91961 0
M  V30 1503 C 146.739 1.50649 4.91741 0
M  V30 1504 N 144.721 2.3242 5.68202 0
M  V30 1505 C 146.092 2.52404 5.66297 0
M  V30 1506 C 148.147 1.52969 4.73819 0
M  V30 1507 C 146.85 3.56331 6.24836 0
M  V30 1508 C 148.876 2.55789 5.33222 0
M  V30 1509 C 148.238 3.56268 6.07662 0
M  V30 1510 H 144.337 -0.0435508 0.780786 0
M  V30 1511 H 146.921 0.506704 1.87991 0
M  V30 1512 H 145.092 -1.2649 3.67226 0
M  V30 1513 H 146.824 -1.13676 3.88407 0
M  V30 1514 H 143.579 0.718412 4.68119 0
M  V30 1515 H 144.003 2.91591 6.10986 0
M  V30 1516 H 148.645 0.766418 4.15795 0
M  V30 1517 H 146.363 4.33543 6.81958 0
M  V30 1518 H 149.949 2.58435 5.21251 0
M  V30 1519 H 148.829 4.34524 6.52808 0
M  V30 1520 N 146.332 -1.57332 0.0918853 0
M  V30 1521 C 147.279 -2.13847 -0.868211 0
M  V30 1522 C 148.249 -1.05618 -1.28196 0
M  V30 1523 O 149.434 -1.33387 -1.36427 0
M  V30 1524 C 146.574 -2.72062 -2.12312 0
M  V30 1525 C 145.687 -3.94514 -1.7602 0
M  V30 1526 C 144.822 -4.40903 -2.96273 0
M  V30 1527 C 143.861 -5.55953 -2.56092 0
M  V30 1528 N 142.998 -5.97209 -3.69169 0
M  V30 1529 H 147.838 -2.95575 -0.379406 0
M  V30 1530 H 145.375 -1.46048 -0.175606 0
M  V30 1531 H 147.333 -3.03931 -2.858 0
M  V30 1532 H 145.963 -1.93068 -2.58698 0
M  V30 1533 H 145.015 -3.68979 -0.925135 0
M  V30 1534 H 146.327 -4.7802 -1.42472 0
M  V30 1535 H 145.481 -4.74539 -3.78018 0
M  V30 1536 H 144.22 -3.56291 -3.33029 0
M  V30 1537 H 143.225 -5.21948 -1.72773 0
M  V30 1538 H 144.45 -6.42311 -2.20484 0
M  V30 1539 H 142.396 -5.15543 -4.05649 0
M  V30 1540 H 142.313 -6.75504 -3.39456 0
M  V30 1541 H 143.581 -6.35475 -4.51434 0
M  V30 1542 N 147.81 0.181792 -1.56548 0
M  V30 1543 C 148.773 1.20894 -1.94724 0
M  V30 1544 C 149.773 1.37738 -0.829747 0
M  V30 1545 O 150.963 1.35323 -1.09697 0
M  V30 1546 C 148.095 2.57593 -2.23291 0
M  V30 1547 H 149.288 0.882275 -2.86629 0
M  V30 1548 H 146.841 0.423838 -1.50444 0
M  V30 1549 H 147.576 2.95291 -1.34067 0
M  V30 1550 H 147.361 2.46735 -3.04736 0
M  V30 1551 H 148.851 3.31637 -2.53785 0
M  V30 1552 N 149.288 1.51039 0.449983 0
M  V30 1553 C 150.516 1.66869 1.2232 0
M  V30 1554 C 150.931 0.360727 1.85322 0
M  V30 1555 O 150.288 -0.659531 1.70166 0
M  V30 1556 C 150.339 2.77524 2.31652 0
M  V30 1557 O 150.06 4.03252 1.7123 0
M  V30 1558 C 151.561 3.04512 3.2216 0
M  V30 1559 H 148.781 0.560326 0.369155 0
M  V30 1560 H 151.325 1.97385 0.534719 0
M  V30 1561 H 149.48 2.49642 2.96239 0
M  V30 1562 H 149.894 4.64609 2.43389 0
M  V30 1563 H 151.368 3.85551 3.95038 0
M  V30 1564 H 151.845 2.16415 3.8218 0
M  V30 1565 H 152.451 3.34005 2.63288 0
M  V30 1566 N 150.766 -0.704594 1.40972 0
M  V30 1567 C 152.043 -1.45847 1.30338 0
M  V30 1568 C 152.423 -2.10973 -0.0732344 0
M  V30 1569 O 151.771 -2.00997 -1.08685 0
M  V30 1570 C 151.981 -2.48525 2.45023 0
M  V30 1571 C 153.329 -3.1404 2.8577 0
M  V30 1572 O 154.353 -2.58848 2.44696 0
M  V30 1573 O 153.212 -4.13981 3.56766 0
M  V30 1574 H 150.306 -0.649092 0.512454 0
M  V30 1575 H 152.852 -0.735836 1.52917 0
M  V30 1576 H 151.624 -1.98994 3.36923 0
M  V30 1577 H 151.247 -3.2831 2.24272 0
M  V30 1578 N 152.244 -1.26651 -0.937939 0
M  V30 1579 C 153.66 -1.03834 -1.21205 0
M  V30 1580 C 153.86 0.234502 -2.00131 0
M  V30 1581 O 152.916 0.942767 -2.3424 0
M  V30 1582 C 154.229 -2.27167 -1.97017 0
M  V30 1583 C 155.777 -2.32101 -2.09996 0
M  V30 1584 C 156.252 -3.55136 -2.8921 0
M  V30 1585 N 157.743 -3.55632 -2.96783 0
M  V30 1586 C 158.478 -4.475 -3.58512 0
M  V30 1587 N 157.974 -5.4966 -4.21717 0
M  V30 1588 N 159.767 -4.35145 -3.55816 0
M  V30 1589 H 151.918 -2.08398 -0.410391 0
M  V30 1590 H 154.181 -0.916031 -0.244114 0
M  V30 1591 H 153.887 -3.19765 -1.46434 0
M  V30 1592 H 153.761 -2.31672 -2.97671 0
M  V30 1593 H 156.148 -1.40015 -2.59769 0
M  V30 1594 H 156.229 -2.31605 -1.08594 0
M  V30 1595 H 155.873 -4.47553 -2.40123 0
M  V30 1596 H 155.803 -3.5288 -3.90875 0
M  V30 1597 H 158.294 -2.81743 -2.51852 0
M  V30 1598 H 158.607 -6.15943 -4.66727 0
M  V30 1599 H 156.952 -5.53514 -4.20294 0
M  V30 1600 H 160.143 -3.5455 -3.05634 0
M  V30 1601 H 160.316 -5.06934 -4.03636 0
M  V30 1602 N 153.722 1.14298 -1.08507 0
M  V30 1603 C 154.969 1.85359 -0.815373 0
M  V30 1604 C 155.297 1.83001 0.658865 0
M  V30 1605 O 154.552 1.25655 1.50031 0
M  V30 1606 C 154.851 3.33547 -1.28379 0
M  V30 1607 C 154.517 3.56093 -2.76602 0
M  V30 1608 C 153.179 3.61955 -3.17084 0
M  V30 1609 C 155.531 3.64834 -3.72217 0
M  V30 1610 C 152.859 3.74082 -4.51973 0
M  V30 1611 C 155.211 3.78487 -5.06883 0
M  V30 1612 C 153.875 3.82598 -5.46969 0
M  V30 1613 H 153.145 0.678276 -0.298366 0
M  V30 1614 H 155.792 1.35002 -1.35819 0
M  V30 1615 H 154.097 3.86191 -0.660593 0
M  V30 1616 H 155.794 3.86959 -1.05186 0
M  V30 1617 H 152.384 3.52179 -2.4427 0
M  V30 1618 H 156.568 3.59595 -3.42061 0
M  V30 1619 H 151.824 3.75527 -4.82483 0
M  V30 1620 H 155.998 3.84193 -5.80834 0
M  V30 1621 H 153.625 3.91747 -6.51489 0
M  V30 1622 N 155.201 0.870884 1.31352 0
M  V30 1623 C 156.617 0.562932 1.49343 0
M  V30 1624 C 156.817 -0.902725 1.80148 0
M  V30 1625 O 155.873 -1.68484 1.88067 0
M  V30 1626 C 157.186 1.46393 2.62659 0
M  V30 1627 C 158.734 1.46607 2.76542 0
M  V30 1628 C 159.209 2.35266 3.92955 0
M  V30 1629 N 160.7 2.33151 4.00243 0
M  V30 1630 C 161.435 2.98471 4.89594 0
M  V30 1631 N 160.931 3.72964 5.8384 0
M  V30 1632 N 162.724 2.87775 4.82848 0
M  V30 1633 H 154.875 1.81923 1.09626 0
M  V30 1634 H 157.138 0.777934 0.541777 0
M  V30 1635 H 156.844 2.50689 2.46674 0
M  V30 1636 H 156.718 1.16314 3.58819 0
M  V30 1637 H 159.105 0.43069 2.9194 0
M  V30 1638 H 159.186 1.8071 1.81046 0
M  V30 1639 H 158.83 3.38881 3.78315 0
M  V30 1640 H 158.76 1.98487 4.87761 0
M  V30 1641 H 161.251 1.79006 3.32814 0
M  V30 1642 H 161.564 4.19932 6.4875 0
M  V30 1643 H 159.909 3.77073 5.83816 0
M  V30 1644 H 163.1 2.29116 4.08195 0
M  V30 1645 H 163.273 3.38961 5.52277 0
M  V30 1646 N 156.679 -1.44442 0.630414 0
M  V30 1647 C 157.927 -2.01653 0.134351 0
M  V30 1648 C 158.248 -1.49836 -1.24796 0
M  V30 1649 O 157.518 -0.701684 -1.82902 0
M  V30 1650 H 156.098 -0.74554 0.0466769 0
M  V30 1651 H 158.76 -1.76952 0.816955 0
M  V30 1652 H 157.856 -3.11935 0.101498 0
M  V30 1653 N 158.157 -0.370918 -1.53173 0
M  V30 1654 C 159.568 0.107139 -1.86392 0
M  V30 1655 C 159.919 1.47714 -1.29132 0
M  V30 1656 O 159.044 2.07464 -0.615439 0
M  V30 1657 C 159.639 0.201187 -3.38202 0
M  V30 1658 C 158.198 0.623507 -3.712 0
M  V30 1659 C 157.345 -0.225978 -2.76378 0
M  V30 1660 H 160.296 -0.58951 -1.47345 0
M  V30 1661 H 160.317 1.02377 -3.66468 0
M  V30 1662 H 159.829 -0.796058 -3.79848 0
M  V30 1663 H 157.93 1.62879 -3.35114 0
M  V30 1664 H 158.043 0.394414 -4.77474 0
M  V30 1665 H 156.407 0.305962 -2.52856 0
M  V30 1666 H 157.19 -1.22086 -3.20858 0
M  V30 1667 N 159.635 1.57281 -0.100228 0
M  V30 1668 C 160.912 1.86014 0.604812 0
M  V30 1669 C 161.292 0.998025 1.86018 0
M  V30 1670 O 160.64 0.0718184 2.28387 0
M  V30 1671 C 160.85 3.36784 0.915278 0
M  V30 1672 C 162.198 4.04957 1.27651 0
M  V30 1673 O 163.222 3.41695 1.00613 0
M  V30 1674 O 162.081 5.16593 1.7831 0
M  V30 1675 H 159.175 0.76942 0.303185 0
M  V30 1676 H 161.721 1.69176 -0.133313 0
M  V30 1677 H 160.493 3.91292 0.0248896 0
M  V30 1678 H 160.116 3.58987 1.70921 0
M  V30 1679 N 161.113 -0.173488 1.56642 0
M  V30 1680 C 162.076 -1.19859 1.95362 0
M  V30 1681 C 163.076 -1.37296 0.83704 0
M  V30 1682 O 164.266 -1.34739 1.10413 0
M  V30 1683 C 161.398 -2.56405 2.24654 0
M  V30 1684 H 162.591 -0.867062 2.87092 0
M  V30 1685 H 160.144 -0.415853 1.50666 0
M  V30 1686 H 160.879 -2.94576 1.35631 0
M  V30 1687 H 160.664 -2.45115 3.06041 0
M  V30 1688 H 162.154 -3.30287 2.5554 0
M  V30 1689 N 162.591 -1.51276 -0.441967 0
M  V30 1690 C 163.521 -1.752 -1.54361 0
M  V30 1691 C 164.502 -0.601682 -1.59103 0
M  V30 1692 O 165.687 -0.843913 -1.74905 0
M  V30 1693 C 162.817 -1.87282 -2.92477 0
M  V30 1694 C 161.771 -3.02687 -3.02596 0
M  V30 1695 C 161.097 -2.99947 -4.42647 0
M  V30 1696 C 162.397 -4.4273 -2.77106 0
M  V30 1697 H 164.091 -2.67442 -1.34592 0
M  V30 1698 H 161.637 -1.28694 -0.646048 0
M  V30 1699 H 163.59 -2.02602 -3.695 0
M  V30 1700 H 162.314 -0.916844 -3.13467 0
M  V30 1701 H 160.973 -2.87065 -2.28012 0
M  V30 1702 H 160.621 -2.02136 -4.60597 0
M  V30 1703 H 160.321 -3.77439 -4.50348 0
M  V30 1704 H 161.845 -3.17354 -5.2165 0
M  V30 1705 H 163.259 -4.58727 -3.43864 0
M  V30 1706 H 161.656 -5.21893 -2.96222 0
M  V30 1707 H 162.726 -4.53087 -1.72744 0
M  V30 1708 N 164.069 0.697108 -1.41344 0
M  V30 1709 C 165.309 1.46939 -1.42085 0
M  V30 1710 C 165.673 1.9198 -0.0280397 0
M  V30 1711 O 166.874 2.6865 0.0897504 0
M  V30 1712 C 165.145 2.64985 -2.39828 0
M  V30 1713 S 166.704 3.54147 -2.59085 0
M  V30 1714 H 163.522 0.502146 -0.503359 0
M  V30 1715 H 166.124 0.813546 -1.77769 0
M  V30 1716 H 164.828 2.30098 -3.39828 0
M  V30 1717 H 164.359 3.35464 -2.05493 0
M  V30 1718 H 166.374 4.60137 -1.85711 0
M  V30 1719 N 165.547 1.27147 0.931209 0
M  V30 1720 C 166.963 1.04475 1.20653 0
M  V30 1721 C 167.163 -0.223885 2.00252 0
M  V30 1722 O 166.219 -0.930332 2.34736 0
M  V30 1723 C 167.532 2.28209 1.95809 0
M  V30 1724 C 169.08 2.33211 2.08762 0
M  V30 1725 C 169.555 3.56665 2.87323 0
M  V30 1726 N 171.046 3.57201 2.94892 0
M  V30 1727 C 171.781 4.49395 3.56134 0
M  V30 1728 N 171.277 5.51889 4.18796 0
M  V30 1729 N 173.07 4.37026 3.53504 0
M  V30 1730 H 165.221 2.08612 0.399333 0
M  V30 1731 H 167.484 0.917312 0.239253 0
M  V30 1732 H 167.19 3.20538 1.44736 0
M  V30 1733 H 167.064 2.33247 2.96438 0
M  V30 1734 H 169.451 1.41391 2.59023 0
M  V30 1735 H 169.532 2.32178 1.07364 0
M  V30 1736 H 169.176 4.4882 2.37746 0
M  V30 1737 H 169.106 3.54948 3.88998 0
M  V30 1738 H 171.597 2.83074 2.50354 0
M  V30 1739 H 171.91 6.18409 4.63454 0
M  V30 1740 H 170.255 5.55735 4.17353 0
M  V30 1741 H 173.446 3.56166 3.03749 0
M  V30 1742 H 173.619 5.09067 4.00942 0
M  V30 1743 N 167.025 -1.13721 1.09112 0
M  V30 1744 C 167.988 -2.17222 0.731241 0
M  V30 1745 C 168.988 -1.59035 -0.237566 0
M  V30 1746 O 170.178 -1.74192 -0.0161704 0
M  V30 1747 C 167.31 -3.40804 0.0808443 0
M  V30 1748 H 168.503 -2.50573 1.64783 0
M  V30 1749 H 166.056 -1.28493 0.889897 0
M  V30 1750 H 166.791 -3.1304 -0.847127 0
M  V30 1751 H 166.576 -3.84306 0.777896 0
M  V30 1752 H 168.066 -4.1731 -0.155657 0
M  V30 1753 N 168.503 -0.877838 -1.30888 0
M  V30 1754 C 169.749 -0.493426 -1.96706 0
M  V30 1755 C 170.082 0.953504 -1.6918 0
M  V30 1756 O 169.357 1.67266 -0.992594 0
M  V30 1757 C 169.64 -0.760429 -3.51979 0
M  V30 1758 C 169.493 -2.25747 -3.89048 0
M  V30 1759 C 170.812 -0.232148 -4.39487 0
M  V30 1760 H 167.931 -0.180746 -0.714493 0
M  V30 1761 H 170.573 -1.10052 -1.54882 0
M  V30 1762 H 168.723 -0.243715 -3.87735 0
M  V30 1763 H 170.395 -2.84204 -3.63354 0
M  V30 1764 H 168.638 -2.72694 -3.37373 0
M  V30 1765 H 169.309 -2.39491 -4.97341 0
M  V30 1766 H 171.785 -0.674314 -4.106 0
M  V30 1767 H 170.661 -0.448355 -5.47066 0
M  V30 1768 H 170.922 0.866297 -4.33529 0
M  V30 1769 N 169.982 1.44106 -0.638065 0
M  V30 1770 C 170.929 2.30715 0.062701 0
M  V30 1771 C 171.899 1.43882 0.829883 0
M  V30 1772 O 173.084 1.72775 0.809532 0
M  V30 1773 C 170.224 3.29258 1.03358 0
M  V30 1774 C 169.337 4.31192 0.26409 0
M  V30 1775 C 168.472 5.16825 1.22741 0
M  V30 1776 C 167.511 6.10462 0.447475 0
M  V30 1777 N 166.648 6.8877 1.36161 0
M  V30 1778 H 171.488 2.90096 -0.681781 0
M  V30 1779 H 169.025 1.42925 -0.347988 0
M  V30 1780 H 170.983 3.84886 1.60992 0
M  V30 1781 H 169.613 2.71562 1.74511 0
M  V30 1782 H 168.665 3.77981 -0.428295 0
M  V30 1783 H 169.977 4.97619 -0.343052 0
M  V30 1784 H 169.131 5.77004 1.87487 0
M  V30 1785 H 167.87 4.50488 1.86847 0
M  V30 1786 H 166.875 5.49386 -0.213433 0
M  V30 1787 H 168.1 6.78837 -0.188968 0
M  V30 1788 H 166.046 6.25096 1.98975 0
M  V30 1789 H 165.963 7.51663 0.808656 0
M  V30 1790 H 167.231 7.53467 1.99769 0
M  V30 1791 N 171.46 0.379036 1.52974 0
M  V30 1792 C 172.69 -0.20649 2.05566 0
M  V30 1793 C 173.098 -1.41906 1.25137 0
M  V30 1794 O 172.441 -1.81421 0.288464 0
M  V30 1795 C 172.503 -0.651086 3.53555 0
M  V30 1796 C 172.167 0.446626 4.54812 0
M  V30 1797 C 173.164 1.30079 5.03364 0
M  V30 1798 C 170.849 0.610719 4.98573 0
M  V30 1799 C 172.843 2.30426 5.94292 0
M  V30 1800 C 170.53 1.61754 5.89304 0
M  V30 1801 C 171.528 2.46274 6.37054 0
M  V30 1802 O 171.216 3.45237 7.25994 0
M  V30 1803 H 170.948 -0.0372381 0.674974 0
M  V30 1804 H 173.502 0.539718 1.98182 0
M  V30 1805 H 171.732 -1.44911 3.58522 0
M  V30 1806 H 173.421 -1.16112 3.88938 0
M  V30 1807 H 174.187 1.18527 4.70294 0
M  V30 1808 H 170.066 -0.0374044 4.60985 0
M  V30 1809 H 173.61 2.96432 6.31485 0
M  V30 1810 H 169.507 1.73348 6.21788 0
M  V30 1811 H 170.275 3.41124 7.44027 0
M  V30 1812 N 172.938 -1.57226 0.108567 0
M  V30 1813 C 173.868 -2.17778 -0.84232 0
M  V30 1814 C 174.849 -1.11487 -1.2847 0
M  V30 1815 O 176.034 -1.39681 -1.34918 0
M  V30 1816 C 173.164 -2.76888 -2.09644 0
M  V30 1817 C 172.118 -3.88669 -1.79221 0
M  V30 1818 C 171.444 -4.34541 -3.11574 0
M  V30 1819 C 172.744 -5.11251 -1.06864 0
M  V30 1820 H 174.438 -2.97489 -0.337774 0
M  V30 1821 H 171.984 -1.43097 -0.161025 0
M  V30 1822 H 173.937 -3.17904 -2.76614 0
M  V30 1823 H 172.661 -1.94451 -2.62405 0
M  V30 1824 H 171.32 -3.48213 -1.14644 0
M  V30 1825 H 170.968 -3.48977 -3.62249 0
M  V30 1826 H 170.668 -5.09914 -2.91996 0
M  V30 1827 H 172.192 -4.782 -3.7968 0
M  V30 1828 H 173.606 -5.49352 -1.63968 0
M  V30 1829 H 172.003 -5.9214 -0.974178 0
M  V30 1830 H 173.073 -4.8487 -0.0536168 0
M  V30 1831 N 174.416 0.165178 -1.56732 0
M  V30 1832 C 175.348 1.22911 -1.93457 0
M  V30 1833 C 176.361 1.40152 -0.828333 0
M  V30 1834 O 177.55 1.40046 -1.10677 0
M  V30 1835 C 174.65 2.59686 -2.17753 0
M  V30 1836 C 173.823 2.63663 -3.48999 0
M  V30 1837 C 172.882 3.81845 -3.62051 0
M  V30 1838 O 171.908 3.67559 -4.34613 0
M  V30 1839 N 173.11 4.98557 -2.97357 0
M  V30 1840 H 175.875 0.917118 -2.85323 0
M  V30 1841 H 173.436 0.354895 -1.57962 0
M  V30 1842 H 175.428 3.37225 -2.23743 0
M  V30 1843 H 173.998 2.83251 -1.32242 0
M  V30 1844 H 173.218 1.72173 -3.54612 0
M  V30 1845 H 174.506 2.63336 -4.35352 0
M  V30 1846 H 173.904 5.13065 -2.38287 0
M  V30 1847 H 172.461 5.73936 -3.08934 0
M  V30 1848 N 175.894 1.51508 0.433938 0
M  V30 1849 C 176.827 1.67756 1.54704 0
M  V30 1850 C 177.805 0.525127 1.53887 0
M  V30 1851 O 178.989 0.749393 1.72963 0
M  V30 1852 C 176.116 1.69424 2.9328 0
M  V30 1853 C 175.162 2.90673 3.12108 0
M  V30 1854 S 175.995 4.51431 2.88046 0
M  V30 1855 C 177.151 4.55849 4.28897 0
M  V30 1856 H 177.384 2.61904 1.40689 0
M  V30 1857 H 174.917 1.41235 0.62386 0
M  V30 1858 H 176.875 1.7107 3.73156 0
M  V30 1859 H 175.536 0.764464 3.04655 0
M  V30 1860 H 174.729 2.88251 4.13434 0
M  V30 1861 H 174.331 2.86786 2.40062 0
M  V30 1862 H 176.623 4.31699 5.22152 0
M  V30 1863 H 177.566 5.57676 4.36351 0
M  V30 1864 H 177.974 3.85137 4.12711 0
M  V30 1865 N 177.372 -0.689602 1.41712 0
M  V30 1866 C 178.618 -1.45181 1.41599 0
M  V30 1867 C 178.951 -1.94181 0.0270081 0
M  V30 1868 O 178.226 -1.6993 -0.946265 0
M  V30 1869 C 178.509 -2.65945 2.42787 0
M  V30 1870 C 178.362 -2.22672 3.90816 0
M  V30 1871 C 179.681 -3.68149 2.41151 0
M  V30 1872 H 176.8 -0.526576 0.515642 0
M  V30 1873 H 179.442 -0.784947 1.73028 0
M  V30 1874 H 177.592 -3.2284 2.16116 0
M  V30 1875 H 179.264 -1.71058 4.28412 0
M  V30 1876 H 177.507 -1.54394 4.05395 0
M  V30 1877 H 178.178 -3.0935 4.57172 0
M  V30 1878 H 180.654 -3.2094 2.64834 0
M  V30 1879 H 179.53 -4.50248 3.13955 0
M  V30 1880 H 179.791 -4.18259 1.43221 0
M  V30 1881 N 178.85 -1.27639 -0.924453 0
M  V30 1882 C 180.098 -1.13941 -1.66918 0
M  V30 1883 C 180.419 0.314589 -1.92446 0
M  V30 1884 O 179.689 1.21964 -1.53303 0
M  V30 1885 H 178.269 -0.418678 -0.618642 0
M  V30 1886 H 180.931 -1.60213 -1.10985 0
M  V30 1887 H 180.027 -1.67094 -2.63602 0
M  V30 1888 N 180.328 1.1314 -1.09713 0
M  V30 1889 C 181.261 2.17735 -0.683137 0
M  V30 1890 C 182.239 1.59582 0.311841 0
M  V30 1891 O 183.423 1.87298 0.212514 0
M  V30 1892 C 180.55 3.38699 -0.00684324 0
M  V30 1893 C 179.596 4.1546 -0.964102 0
M  V30 1894 S 180.429 4.74733 -2.47767 0
M  V30 1895 C 181.585 5.9904 -1.81387 0
M  V30 1896 H 181.818 2.52515 -1.56918 0
M  V30 1897 H 179.351 1.24484 -0.913404 0
M  V30 1898 H 181.309 4.08765 0.377044 0
M  V30 1899 H 179.97 3.02214 0.85589 0
M  V30 1900 H 179.163 5.02093 -0.43803 0
M  V30 1901 H 178.765 3.51066 -1.28953 0
M  V30 1902 H 181.057 6.67846 -1.13967 0
M  V30 1903 H 182 6.56261 -2.65947 0
M  V30 1904 H 182.408 5.4976 -1.28155 0
M  V30 1905 N 181.806 0.884767 1.30421 0
M  V30 1906 C 183.036 0.517293 2.00019 0
M  V30 1907 C 183.444 -0.898632 1.66497 0
M  V30 1908 O 182.787 -1.60245 0.898181 0
M  V30 1909 C 182.849 0.612025 3.54252 0
M  V30 1910 C 182.513 1.99222 4.1129 0
M  V30 1911 C 183.51 2.9616 4.273 0
M  V30 1912 C 181.195 2.29755 4.46674 0
M  V30 1913 C 183.189 4.21764 4.77906 0
M  V30 1914 C 180.876 3.55606 4.96979 0
M  V30 1915 C 181.874 4.51425 5.12547 0
M  V30 1916 O 181.562 5.75043 5.61766 0
M  V30 1917 H 181.294 0.198529 0.64619 0
M  V30 1918 H 183.848 1.1919 1.67281 0
M  V30 1919 H 182.078 -0.119561 3.86515 0
M  V30 1920 H 183.767 0.255859 4.05093 0
M  V30 1921 H 184.533 2.73882 4.00267 0
M  V30 1922 H 180.412 1.55942 4.33824 0
M  V30 1923 H 183.956 4.96561 4.89972 0
M  V30 1924 H 179.853 3.7772 5.23448 0
M  V30 1925 H 180.621 5.77422 5.80109 0
M  V30 1926 N 183.284 -1.43765 0.645699 0
M  V30 1927 C 184.247 -2.29163 -0.0409488 0
M  V30 1928 C 185.247 -1.41813 -0.757996 0
M  V30 1929 O 186.437 -1.63527 -0.600382 0
M  V30 1930 C 183.569 -3.23716 -1.06869 0
M  V30 1931 H 184.762 -2.91366 0.710345 0
M  V30 1932 H 182.315 -1.5092 0.406547 0
M  V30 1933 H 183.05 -2.66393 -1.84947 0
M  V30 1934 H 182.835 -3.88105 -0.558277 0
M  V30 1935 H 184.325 -3.87831 -1.54845 0
M  V30 1936 N 184.763 -0.387143 -1.52771 0
M  V30 1937 C 185.988 0.198407 -2.06449 0
M  V30 1938 C 186.413 1.39918 -1.25716 0
M  V30 1939 O 185.771 1.79099 -0.281657 0
M  V30 1940 C 185.819 0.548893 -3.56398 0
M  V30 1941 O 184.923 1.64315 -3.78252 0
M  V30 1942 H 184.264 0.0237731 -0.663574 0
M  V30 1943 H 186.794 -0.553989 -1.96957 0
M  V30 1944 H 186.804 0.813812 -3.99801 0
M  V30 1945 H 185.479 -0.329005 -4.14597 0
M  V30 1946 H 184.056 1.37211 -3.46738 0
M  V30 1947 N 186.241 1.57166 -0.116904 0
M  V30 1948 C 187.466 1.999 0.55271 0
M  V30 1949 C 187.891 0.996039 1.59564 0
M  V30 1950 O 187.249 -0.032556 1.81271 0
M  V30 1951 C 187.297 3.4152 1.15742 0
M  V30 1952 O 186.401 3.44106 2.27299 0
M  V30 1953 H 185.742 0.649447 0.138258 0
M  V30 1954 H 188.272 2.03573 -0.204759 0
M  V30 1955 H 188.282 3.79684 1.49346 0
M  V30 1956 H 186.957 4.14034 0.393493 0
M  V30 1957 H 185.534 3.17759 1.9515 0
M  V30 1958 N 187.719 -0.156864 1.56817 0
M  V30 1959 C 188.949 -0.885031 1.86684 0
M  V30 1960 C 189.357 -1.75696 0.701954 0
M  V30 1961 O 188.7 -1.80569 -0.337732 0
M  V30 1962 C 188.762 -1.80092 3.11138 0
M  V30 1963 C 188.426 -1.10714 4.43386 0
M  V30 1964 C 189.423 -0.465714 5.1781 0
M  V30 1965 C 187.108 -1.09959 4.90117 0
M  V30 1966 C 189.102 0.174002 6.37162 0
M  V30 1967 C 186.789 -0.456055 6.09396 0
M  V30 1968 C 187.787 0.179622 6.82764 0
M  V30 1969 O 187.475 0.812975 7.99779 0
M  V30 1970 H 187.207 -0.261813 0.623242 0
M  V30 1971 H 189.761 -0.157383 2.04796 0
M  V30 1972 H 187.991 -2.56926 2.89009 0
M  V30 1973 H 189.68 -2.40018 3.27332 0
M  V30 1974 H 190.446 -0.463427 4.82781 0
M  V30 1975 H 186.325 -1.58378 4.3294 0
M  V30 1976 H 189.869 0.670765 6.94368 0
M  V30 1977 H 185.766 -0.455975 6.43888 0
M  V30 1978 H 186.534 0.71366 8.15383 0
M  V30 1979 N 189.197 -1.51736 -0.425897 0
M  V30 1980 C 190.13 -1.68574 -1.53812 0
M  V30 1981 C 191.108 -0.53328 -1.53606 0
M  V30 1982 O 192.292 -0.758555 -1.72564 0
M  V30 1983 C 189.419 -1.70977 -2.92377 0
M  V30 1984 C 188.465 -2.92324 -3.10563 0
M  V30 1985 S 189.298 -4.52952 -2.85648 0
M  V30 1986 C 190.454 -4.58117 -4.26474 0
M  V30 1987 H 190.687 -2.62647 -1.39298 0
M  V30 1988 H 188.22 -1.41564 -0.616361 0
M  V30 1989 H 190.178 -1.73047 -3.72243 0
M  V30 1990 H 188.839 -0.78061 -3.04245 0
M  V30 1991 H 188.032 -2.90439 -4.11899 0
M  V30 1992 H 187.634 -2.88055 -2.38538 0
M  V30 1993 H 189.926 -4.34462 -5.19855 0
M  V30 1994 H 190.869 -5.59983 -4.33388 0
M  V30 1995 H 191.277 -3.8732 -4.10662 0
M  V30 1996 N 190.675 0.682077 -1.42076 0
M  V30 1997 C 191.924 1.43786 -1.41451 0
M  V30 1998 C 192.237 1.95574 -0.0317074 0
M  V30 1999 O 193.443 2.71326 0.0971462 0
M  V30 2000 C 191.899 2.60071 -2.48779 0
M  V30 2001 C 191.507 2.15013 -3.93031 0
M  V30 2002 C 193.251 3.37626 -2.57311 0
M  V30 2003 C 191.158 3.28336 -4.91883 0
M  V30 2004 H 190.088 0.540143 -0.526082 0
M  V30 2005 H 192.739 0.739157 -1.67955 0
M  V30 2006 H 191.121 3.32275 -2.15429 0
M  V30 2007 H 192.295 1.5001 -4.35699 0
M  V30 2008 H 190.61 1.50416 -3.88284 0
M  V30 2009 H 193.207 4.22012 -3.28345 0
M  V30 2010 H 193.55 3.83727 -1.61429 0
M  V30 2011 H 194.083 2.72488 -2.89819 0
M  V30 2012 H 190.822 2.87234 -5.89217 0
M  V30 2013 H 190.342 3.92145 -4.53853 0
M  V30 2014 H 192.021 3.93913 -5.13265 0
M  V30 2015 N 192.153 1.28127 0.917671 0
M  V30 2016 C 193.083 1.14248 2.03641 0
M  V30 2017 C 194.064 0.0412748 1.7005 0
M  V30 2018 O 195.249 0.217566 1.92977 0
M  V30 2019 C 192.379 0.799431 3.37974 0
M  V30 2020 C 191.333 1.85497 3.85713 0
M  V30 2021 C 190.659 1.36565 5.16966 0
M  V30 2022 C 191.959 3.26085 4.08002 0
M  V30 2023 H 193.653 2.07835 2.15511 0
M  V30 2024 H 191.199 1.00064 1.03553 0
M  V30 2025 H 193.152 0.689114 4.15727 0
M  V30 2026 H 191.876 -0.172145 3.26146 0
M  V30 2027 H 190.535 1.95437 3.10161 0
M  V30 2028 H 190.183 0.383253 5.01538 0
M  V30 2029 H 189.883 2.07143 5.49878 0
M  V30 2030 H 191.407 1.26848 5.97279 0
M  V30 2031 H 192.821 3.19089 4.76293 0
M  V30 2032 H 191.218 3.94462 4.52238 0
M  V30 2033 H 192.288 3.70394 3.12948 0
M  V30 2034 N 193.631 -1.12557 1.10312 0
M  V30 2035 C 194.594 -2.16434 0.75424 0
M  V30 2036 C 195.594 -1.59278 -0.220685 0
M  V30 2037 O 196.784 -1.742 0.00230591 0
M  V30 2038 C 193.916 -3.40699 0.116987 0
M  V30 2039 H 195.109 -2.48811 1.67431 0
M  V30 2040 H 192.662 -1.27542 0.903475 0
M  V30 2041 H 193.397 -3.13921 -0.813877 0
M  V30 2042 H 193.182 -3.83459 0.818613 0
M  V30 2043 H 194.672 -4.17451 -0.111387 0
M  V30 2044 N 195.109 -0.891671 -1.2995 0
M  V30 2045 C 196.042 -0.307994 -2.26112 0
M  V30 2046 C 197.02 0.575262 -1.52084 0
M  V30 2047 O 198.204 0.523864 -1.81074 0
M  V30 2048 C 195.331 0.561734 -3.34009 0
M  V30 2049 C 194.377 -0.253107 -4.25748 0
M  V30 2050 S 195.21 -1.64572 -5.09584 0
M  V30 2051 C 196.366 -0.782699 -6.20987 0
M  V30 2052 H 196.599 -1.12309 -2.75271 0
M  V30 2053 H 194.132 -0.691509 -1.38049 0
M  V30 2054 H 196.09 1.05777 -3.96638 0
M  V30 2055 H 194.751 1.35099 -2.83561 0
M  V30 2056 H 193.944 0.410908 -5.02322 0
M  V30 2057 H 193.546 -0.682004 -3.67729 0
M  V30 2058 H 195.838 -0.00257476 -6.775 0
M  V30 2059 H 196.781 -1.52026 -6.91588 0
M  V30 2060 H 197.189 -0.340638 -5.63471 0
M  V30 2061 N 196.587 1.43421 -0.653314 0
M  V30 2062 C 197.815 2.06163 -0.174491 0
M  V30 2063 C 198.23 1.48969 1.1599 0
M  V30 2064 O 197.587 0.621042 1.71608 0
M  V30 2065 C 197.638 3.61417 -0.0774865 0
M  V30 2066 O 197.359 4.16485 -1.35912 0
M  V30 2067 C 198.86 4.41235 0.427402 0
M  V30 2068 H 196.08 0.664946 -0.0899353 0
M  V30 2069 H 198.624 1.83924 -0.893988 0
M  V30 2070 H 196.779 3.82841 0.59257 0
M  V30 2071 H 197.193 5.10153 -1.21839 0
M  V30 2072 H 198.667 5.5021 0.44423 0
M  V30 2073 H 199.144 4.14268 1.45873 0
M  V30 2074 H 199.75 4.2478 -0.210167 0
M  V30 2075 N 198.065 0.39524 1.52563 0
M  V30 2076 C 198.995 -0.428384 2.29537 0
M  V30 2077 C 199.976 -1.05831 1.33169 0
M  V30 2078 O 201.161 -1.06995 1.62067 0
M  V30 2079 C 198.291 -1.55274 3.10656 0
M  V30 2080 C 197.245 -1.04855 4.14957 0
M  V30 2081 C 196.571 -2.26543 4.84337 0
M  V30 2082 C 197.871 -0.112324 5.22179 0
M  V30 2083 H 199.565 0.213867 2.98635 0
M  V30 2084 H 197.111 0.104298 1.43622 0
M  V30 2085 H 199.064 -2.1358 3.63265 0
M  V30 2086 H 197.788 -2.22266 2.39302 0
M  V30 2087 H 196.447 -0.487985 3.63338 0
M  V30 2088 H 196.095 -2.92059 4.09525 0
M  V30 2089 H 195.795 -1.93466 5.54837 0
M  V30 2090 H 197.319 -2.85481 5.39753 0
M  V30 2091 H 198.733 -0.603752 5.70112 0
M  V30 2092 H 197.13 0.128968 5.99961 0
M  V30 2093 H 198.2 0.837052 4.77621 0
M  V30 2094 N 199.544 -1.57102 0.125237 0
M  V30 2095 C 200.821 -1.86953 -0.575142 0
M  V30 2096 C 201.201 -1.02749 -1.84407 0
M  V30 2097 O 200.549 -0.108144 -2.28244 0
M  V30 2098 C 200.759 -3.38198 -0.861583 0
M  V30 2099 C 202.107 -4.06937 -1.21192 0
M  V30 2100 O 203.131 -3.43252 -0.951645 0
M  V30 2101 O 201.99 -5.19364 -1.70068 0
M  V30 2102 H 199.084 -0.774147 -0.290906 0
M  V30 2103 H 201.63 -1.68942 0.160211 0
M  V30 2104 H 200.402 -3.91282 0.0373647 0
M  V30 2105 H 200.025 -3.61661 -1.65188 0
M  V30 2106 N 201.022 0.148545 -1.56898 0
M  V30 2107 C 202.438 0.501131 -1.51528 0
M  V30 2108 C 202.638 1.83458 -0.833399 0
M  V30 2109 O 201.694 2.49259 -0.40328 0
M  V30 2110 C 203.007 0.512864 -2.96294 0
M  V30 2111 C 204.555 0.598487 -3.07225 0
M  V30 2112 C 205.03 0.640897 -4.53494 0
M  V30 2113 N 206.521 0.703163 -4.57832 0
M  V30 2114 C 207.256 0.756935 -5.68382 0
M  V30 2115 N 206.752 0.770147 -6.88506 0
M  V30 2116 N 208.545 0.797698 -5.56411 0
M  V30 2117 H 200.696 -0.725532 -1.99624 0
M  V30 2118 H 202.959 -0.264358 -0.910395 0
M  V30 2119 H 202.665 -0.398691 -3.49433 0
M  V30 2120 H 202.539 1.35133 -3.52163 0
M  V30 2121 H 204.926 1.50046 -2.54106 0
M  V30 2122 H 205.007 -0.267093 -2.54402 0
M  V30 2123 H 204.651 -0.256915 -5.0725 0
M  V30 2124 H 204.581 1.52295 -5.04097 0
M  V30 2125 H 207.072 0.700314 -3.71354 0
M  V30 2126 H 207.385 0.812983 -7.68512 0
M  V30 2127 H 205.73 0.738049 -6.9107 0
M  V30 2128 H 208.921 0.784535 -4.61479 0
M  V30 2129 H 209.094 0.83614 -6.42583 0
M  V30 2130 N 202.5 1.5196 0.417844 0
M  V30 2131 C 203.45 1.7106 1.5074 0
M  V30 2132 C 204.434 0.564487 1.50673 0
M  V30 2133 O 205.626 0.821206 1.56797 0
M  V30 2134 C 202.755 1.85677 2.88754 0
M  V30 2135 C 201.841 3.06133 2.93502 0
M  V30 2136 N 202.232 4.28987 2.67962 0
M  V30 2137 C 200.53 3.05787 3.24669 0
M  V30 2138 C 201.231 5.10395 2.79055 0
M  V30 2139 N 200.207 4.45455 3.11561 0
M  V30 2140 H 204.009 2.63696 1.29775 0
M  V30 2141 H 201.523 1.49873 0.625436 0
M  V30 2142 H 203.52 1.97475 3.67164 0
M  V30 2143 H 202.18 0.942348 3.10725 0
M  V30 2144 H 203.191 4.57607 2.4252 0
M  V30 2145 H 199.868 2.2405 3.52289 0
M  V30 2146 H 201.258 6.18247 2.63097 0
M  V30 2147 N 203.978 -0.674533 1.42435 0
M  V30 2148 C 205.394 -0.98769 1.25367 0
M  V30 2149 C 205.594 -2.00879 0.158044 0
M  V30 2150 O 204.65 -2.48075 -0.470633 0
M  V30 2151 C 205.963 -1.49224 2.6106 0
M  V30 2152 C 207.511 -1.61 2.68417 0
M  V30 2153 C 207.986 -2.14852 4.04478 0
M  V30 2154 N 209.477 -2.22185 4.06434 0
M  V30 2155 C 210.212 -2.64928 5.08528 0
M  V30 2156 N 209.708 -3.07121 6.21006 0
M  V30 2157 N 211.501 -2.64679 4.95885 0
M  V30 2158 H 203.652 0.00152503 2.124 0
M  V30 2159 H 205.915 -0.0618434 0.945981 0
M  V30 2160 H 205.621 -0.816453 3.42092 0
M  V30 2161 H 205.495 -2.47094 2.84999 0
M  V30 2162 H 207.882 -2.27686 1.87732 0
M  V30 2163 H 207.963 -0.616195 2.48267 0
M  V30 2164 H 207.607 -1.48775 4.85622 0
M  V30 2165 H 207.537 -3.15024 4.2198 0
M  V30 2166 H 210.028 -1.92435 3.25234 0
M  V30 2167 H 210.341 -3.38423 6.94759 0
M  V30 2168 H 208.686 -3.04978 6.24511 0
M  V30 2169 H 211.877 -2.31078 4.07088 0
M  V30 2170 H 212.05 -2.9767 5.75584 0
M  V30 2171 N 205.456 -1.28612 -0.910864 0
M  V30 2172 C 206.419 -1.12803 -1.9952 0
M  V30 2173 C 207.419 -0.0668264 -1.60661 0
M  V30 2174 O 208.609 -0.312847 -1.71368 0
M  V30 2175 C 205.741 -0.72254 -3.33155 0
M  V30 2176 H 206.934 -2.09109 -2.14973 0
M  V30 2177 H 204.487 -1.11639 -1.09391 0
M  V30 2178 H 205.222 0.241152 -3.23402 0
M  V30 2179 H 205.007 -1.48916 -3.62721 0
M  V30 2180 H 206.497 -0.634666 -4.12749 0
M  V30 2181 N 206.934 1.1197 -1.10907 0
M  V30 2182 C 208.183 1.82947 -0.849302 0
M  V30 2183 C 208.496 1.85275 0.627112 0
M  V30 2184 O 209.702 2.52296 1.00295 0
M  V30 2185 C 208.158 3.28529 -1.46959 0
M  V30 2186 C 207.766 3.34546 -2.97965 0
M  V30 2187 C 209.51 4.04443 -1.28942 0
M  V30 2188 C 207.417 4.74491 -3.53004 0
M  V30 2189 H 206.347 0.685477 -0.314065 0
M  V30 2190 H 208.998 1.2604 -1.33365 0
M  V30 2191 H 207.38 3.85333 -0.912917 0
M  V30 2192 H 208.554 2.87654 -3.59989 0
M  V30 2193 H 206.869 2.72108 -3.15192 0
M  V30 2194 H 209.466 5.07787 -1.67502 0
M  V30 2195 H 209.809 4.15656 -0.231456 0
M  V30 2196 H 210.342 3.5401 -1.81443 0
M  V30 2197 H 207.081 4.68474 -4.58489 0
M  V30 2198 H 206.601 5.21816 -2.9575 0
M  V30 2199 H 208.28 5.4344 -3.51115 0
M  V30 2200 N 208.412 0.89855 1.29475 0
M  V30 2201 C 209.652 0.530771 1.97388 0
M  V30 2202 C 210.016 -0.905832 1.69289 0
M  V30 2203 O 211.217 -1.38042 2.30646 0
M  V30 2204 C 209.488 0.81369 3.48014 0
M  V30 2205 S 211.047 0.550048 4.35339 0
M  V30 2206 H 207.865 0.196956 0.683176 0
M  V30 2207 H 210.467 1.16074 1.57312 0
M  V30 2208 H 209.171 1.85749 3.65958 0
M  V30 2209 H 208.702 0.171795 3.93025 0
M  V30 2210 H 210.717 -0.605423 4.92493 0
M  V30 2211 N 209.89 -1.43072 0.660911 0
M  V30 2212 C 211.306 -1.56169 0.329173 0
M  V30 2213 C 211.506 -1.64317 -1.16629 0
M  V30 2214 O 210.562 -1.60245 -1.95135 0
M  V30 2215 C 211.875 -2.81873 1.04729 0
M  V30 2216 C 213.423 -2.95627 1.02828 0
M  V30 2217 C 213.898 -4.24174 1.72744 0
M  V30 2218 N 215.389 -4.31055 1.69545 0
M  V30 2219 C 216.124 -5.29304 2.20511 0
M  V30 2220 N 215.62 -6.33786 2.79799 0
M  V30 2221 N 217.413 -5.21008 2.10966 0
M  V30 2222 H 209.564 -1.36027 1.63127 0
M  V30 2223 H 211.827 -0.653823 0.686454 0
M  V30 2224 H 211.533 -2.81942 2.10242 0
M  V30 2225 H 211.407 -3.72338 0.603702 0
M  V30 2226 H 213.794 -2.95094 -0.0184742 0
M  V30 2227 H 213.875 -2.06431 1.51063 0
M  V30 2228 H 213.519 -4.25467 2.7738 0
M  V30 2229 H 213.449 -5.1228 1.2197 0
M  V30 2230 H 215.94 -3.56174 1.26288 0
M  V30 2231 H 216.253 -7.05086 3.16344 0
M  V30 2232 H 214.598 -6.34387 2.83863 0
M  V30 2233 H 217.789 -4.38301 1.64347 0
M  V30 2234 H 217.962 -5.97416 2.50993 0
M  V30 2235 N 211.368 -0.403325 -1.52352 0
M  V30 2236 C 212.779 0.0675782 -1.86578 0
M  V30 2237 C 213.13 1.44941 -1.32236 0
M  V30 2238 O 212.255 2.06112 -0.659307 0
M  V30 2239 C 212.85 0.129404 -3.38553 0
M  V30 2240 C 211.409 0.544629 -3.72439 0
M  V30 2241 C 210.556 -0.284551 -2.75836 0
M  V30 2242 H 213.507 -0.620631 -1.46061 0
M  V30 2243 H 213.528 0.94581 -3.68558 0
M  V30 2244 H 213.04 -0.87645 -3.78074 0
M  V30 2245 H 211.141 1.55734 -3.38493 0
M  V30 2246 H 211.254 0.293046 -4.78203 0
M  V30 2247 H 209.618 0.252258 -2.53448 0
M  V30 2248 H 210.401 -1.28865 -3.18196 0
M  V30 2249 N 212.846 1.57033 -0.133567 0
M  V30 2250 C 213.779 2.11824 0.848872 0
M  V30 2251 C 214.757 1.03833 1.2513 0
M  V30 2252 O 215.941 1.31579 1.34978 0
M  V30 2253 C 213.068 2.62692 2.138 0
M  V30 2254 C 212.114 3.82705 1.88253 0
M  V30 2255 S 212.947 5.2438 1.08563 0
M  V30 2256 C 214.103 5.78627 2.38624 0
M  V30 2257 H 214.336 2.94824 0.38289 0
M  V30 2258 H 211.869 1.5419 0.0804796 0
M  V30 2259 H 213.827 2.92652 2.87863 0
M  V30 2260 H 212.488 1.79847 2.57515 0
M  V30 2261 H 211.681 4.16496 2.83809 0
M  V30 2262 H 211.283 3.53437 1.22305 0
M  V30 2263 H 213.575 5.8924 3.34369 0
M  V30 2264 H 214.518 6.76443 2.09358 0
M  V30 2265 H 214.926 5.06783 2.48658 0
M  V30 2266 N 214.325 -0.140222 1.56975 0
M  V30 2267 C 215.255 -1.17456 2.01808 0
M  V30 2268 C 216.236 -1.44415 0.898794 0
M  V30 2269 O 217.421 -1.5522 1.16707 0
M  V30 2270 C 214.551 -2.50607 2.40444 0
M  V30 2271 C 213.505 -2.38155 3.55621 0
M  V30 2272 C 212.831 -3.76078 3.80091 0
M  V30 2273 C 214.131 -1.85991 4.88062 0
M  V30 2274 H 215.825 -0.801743 2.88466 0
M  V30 2275 H 213.371 -0.38422 1.38779 0
M  V30 2276 H 215.324 -3.23197 2.7041 0
M  V30 2277 H 214.048 -2.89737 1.50732 0
M  V30 2278 H 212.707 -1.68016 3.25832 0
M  V30 2279 H 212.355 -4.12656 2.87618 0
M  V30 2280 H 212.055 -3.68606 4.57606 0
M  V30 2281 H 213.579 -4.50206 4.12488 0
M  V30 2282 H 214.993 -2.4838 5.16701 0
M  V30 2283 H 213.39 -1.89393 5.6943 0
M  V30 2284 H 214.46 -0.816023 4.77984 0
M  V30 2285 N 215.803 -1.52179 -0.40978 0
M  V30 2286 C 216.766 -1.74853 -1.48186 0
M  V30 2287 C 217.766 -0.618417 -1.48433 0
M  V30 2288 O 218.956 -0.886286 -1.49969 0
M  V30 2289 C 216.088 -1.8303 -2.87598 0
M  V30 2290 H 217.281 -2.70559 -1.29374 0
M  V30 2291 H 214.834 -1.42586 -0.640233 0
M  V30 2292 H 215.569 -0.89236 -3.11781 0
M  V30 2293 H 215.354 -2.65187 -2.88822 0
M  V30 2294 H 216.844 -2.02316 -3.65319 0
M  V30 2295 N 217.281 0.66697 -1.42791 0
M  V30 2296 C 218.511 1.45294 -1.46878 0
M  V30 2297 C 218.919 1.89027 -0.0809861 0
M  V30 2298 O 218.262 1.59219 0.916246 0
M  V30 2299 C 218.324 2.72908 -2.34012 0
M  V30 2300 C 217.988 2.51203 -3.81767 0
M  V30 2301 C 218.985 2.15302 -4.73224 0
M  V30 2302 C 216.67 2.65954 -4.26115 0
M  V30 2303 C 218.664 1.94431 -6.07022 0
M  V30 2304 C 216.351 2.44699 -5.59969 0
M  V30 2305 C 217.349 2.08992 -6.5024 0
M  V30 2306 O 217.037 1.87948 -7.81621 0
M  V30 2307 H 216.769 0.453306 -0.501487 0
M  V30 2308 H 219.323 0.826232 -1.88049 0
M  V30 2309 H 217.553 3.38089 -1.87703 0
M  V30 2310 H 219.242 3.34816 -2.29462 0
M  V30 2311 H 220.008 2.03495 -4.40244 0
M  V30 2312 H 215.887 2.92724 -3.56137 0
M  V30 2313 H 219.431 1.66484 -6.77443 0
M  V30 2314 H 215.328 2.56105 -5.9252 0
M  V30 2315 H 216.096 2.02483 -7.93059 0
M  V30 2316 N 218.759 1.29093 0.90403 0
M  V30 2317 C 220.175 1.07011 1.1841 0
M  V30 2318 C 220.375 -0.181358 2.00682 0
M  V30 2319 O 219.431 -0.880331 2.36657 0
M  V30 2320 C 220.744 2.32311 1.90924 0
M  V30 2321 C 222.292 2.37587 2.03768 0
M  V30 2322 C 222.767 3.62679 2.79693 0
M  V30 2323 N 224.258 3.63376 2.87249 0
M  V30 2324 C 224.993 4.56848 3.46522 0
M  V30 2325 N 224.489 5.60648 4.06996 0
M  V30 2326 N 226.282 4.44426 3.44154 0
M  V30 2327 H 218.433 2.09412 0.354993 0
M  V30 2328 H 220.696 0.922181 0.219742 0
M  V30 2329 H 220.402 3.23536 1.37905 0
M  V30 2330 H 220.276 2.39483 2.91424 0
M  V30 2331 H 222.663 1.46853 2.55965 0
M  V30 2332 H 222.744 2.34403 1.02415 0
M  V30 2333 H 222.388 4.53762 2.28173 0
M  V30 2334 H 222.318 3.63119 3.81381 0
M  V30 2335 H 224.809 2.88321 2.44293 0
M  V30 2336 H 225.122 6.28101 4.50232 0
M  V30 2337 H 223.467 5.64463 4.05471 0
M  V30 2338 H 226.658 3.62529 2.96126 0
M  V30 2339 H 226.831 5.17457 3.90054 0
M  V30 2340 N 220.237 -1.11381 1.11499 0
M  V30 2341 C 221.187 -2.15555 0.74298 0
M  V30 2342 C 222.171 -1.58894 -0.253276 0
M  V30 2343 O 223.363 -1.76897 -0.0602918 0
M  V30 2344 C 220.492 -3.42782 0.188481 0
M  V30 2345 C 219.578 -4.064 1.21244 0
M  V30 2346 N 219.969 -4.44864 2.40685 0
M  V30 2347 C 218.267 -4.3333 1.05552 0
M  V30 2348 C 218.968 -4.94715 3.05994 0
M  V30 2349 N 217.944 -4.90909 2.33472 0
M  V30 2350 H 221.746 -2.43074 1.65203 0
M  V30 2351 H 219.26 -1.28401 0.994329 0
M  V30 2352 H 221.257 -4.16789 -0.0961693 0
M  V30 2353 H 219.917 -3.16727 -0.715149 0
M  V30 2354 H 220.928 -4.36876 2.78136 0
M  V30 2355 H 217.605 -4.1698 0.208372 0
M  V30 2356 H 218.995 -5.34103 4.07656 0
M  V30 2357 N 221.715 -0.905404 -1.28997 0
M  V30 2358 C 222.963 -0.533192 -1.9494 0
M  V30 2359 C 223.284 0.924618 -1.71685 0
M  V30 2360 O 222.554 1.65268 -1.05183 0
M  V30 2361 H 221.134 -0.194194 -0.721317 0
M  V30 2362 H 223.796 -1.15294 -1.57141 0
M  V30 2363 H 222.892 -0.72059 -3.03667 0
M  V30 2364 N 223.193 1.4272 -0.668489 0
M  V30 2365 C 224.418 2.06484 -0.194758 0
M  V30 2366 C 224.843 1.49862 1.13679 0
M  V30 2367 O 224.201 0.614582 1.70565 0
M  V30 2368 C 224.249 3.60353 -0.133546 0
M  V30 2369 O 223.353 4.02464 0.899806 0
M  V30 2370 H 222.694 0.656137 -0.10188 0
M  V30 2371 H 225.224 1.82964 -0.915722 0
M  V30 2372 H 225.234 4.07976 0.0447041 0
M  V30 2373 H 223.909 4.00938 -1.1055 0
M  V30 2374 H 222.486 3.66402 0.693109 0
M  V30 2375 N 224.671 0.411399 1.52136 0
M  V30 2376 C 225.919 -0.163322 2.01439 0
M  V30 2377 C 226.24 -1.45453 1.29879 0
M  V30 2378 O 225.51 -1.91225 0.4254 0
M  V30 2379 H 224.09 -0.0633447 0.744309 0
M  V30 2380 H 226.752 0.548161 1.87033 0
M  V30 2381 H 225.848 -0.357817 3.10042 0
M  V30 2382 N 226.149 -1.5696 0.141893 0
M  V30 2383 C 227.112 -2.15316 -0.785587 0
M  V30 2384 C 228.112 -1.09366 -1.1788 0
M  V30 2385 O 229.302 -1.35031 -1.10056 0
M  V30 2386 C 226.434 -2.71211 -2.06537 0
M  V30 2387 H 227.627 -2.98608 -0.278041 0
M  V30 2388 H 225.18 -1.5593 -0.107519 0
M  V30 2389 H 225.915 -1.91571 -2.6167 0
M  V30 2390 H 225.7 -3.4872 -1.79268 0
M  V30 2391 H 227.19 -3.16189 -2.72789 0
M  V30 2392 N 227.627 0.131896 -1.57047 0
M  V30 2393 C 228.577 1.1679 -1.95816 0
M  V30 2394 C 229.561 1.37756 -0.831393 0
M  V30 2395 O 230.753 1.39065 -1.09499 0
M  V30 2396 C 227.882 2.49778 -2.35512 0
M  V30 2397 C 226.968 2.32342 -3.54793 0
M  V30 2398 N 227.359 1.8469 -4.70875 0
M  V30 2399 C 225.657 2.63043 -3.60173 0
M  V30 2400 C 226.358 1.80656 -5.52936 0
M  V30 2401 N 225.334 2.24528 -4.95064 0
M  V30 2402 H 229.136 0.791818 -2.83033 0
M  V30 2403 H 226.65 0.339791 -1.58805 0
M  V30 2404 H 228.647 3.24692 -2.61498 0
M  V30 2405 H 227.307 2.88156 -1.49654 0
M  V30 2406 H 228.318 1.54429 -4.9434 0
M  V30 2407 H 224.995 3.05193 -2.84892 0
M  V30 2408 H 226.385 1.45178 -6.56028 0
M  V30 2409 N 229.106 1.52395 0.401703 0
M  V30 2410 C 230.352 1.68019 1.14635 0
M  V30 2411 C 230.707 0.408722 1.88009 0
M  V30 2412 O 230 -0.597133 1.82057 0
M  V30 2413 C 230.194 2.84578 2.16217 0
M  V30 2414 C 230.023 4.22938 1.5282 0
M  V30 2415 C 228.793 4.88352 1.29772 0
M  V30 2416 C 230.991 5.04778 0.985094 0
M  V30 2417 N 228.973 6.10726 0.623455 0
M  V30 2418 C 230.344 6.1845 0.438172 0
M  V30 2419 C 232.399 4.90057 0.880275 0
M  V30 2420 C 231.102 7.19013 -0.203306 0
M  V30 2421 C 233.128 5.9086 0.252639 0
M  V30 2422 C 232.49 7.03829 -0.283573 0
M  V30 2423 H 228.589 0.668413 0.405892 0
M  V30 2424 H 231.173 1.89717 0.437674 0
M  V30 2425 H 229.344 2.64483 2.84435 0
M  V30 2426 H 231.076 2.89202 2.83098 0
M  V30 2427 H 227.831 4.46846 1.56926 0
M  V30 2428 H 228.255 6.76323 0.302733 0
M  V30 2429 H 232.897 4.02938 1.28065 0
M  V30 2430 H 230.615 8.05751 -0.615726 0
M  V30 2431 H 234.201 5.81543 0.172954 0
M  V30 2432 H 233.081 7.80493 -0.761575 0
M  V30 2433 N 230.584 -0.659388 1.43143 0
M  V30 2434 C 231.532 -1.79374 1.4808 0
M  V30 2435 C 232.526 -1.65639 0.354988 0
M  V30 2436 O 233.732 -1.7206 0.528704 0
M  V30 2437 H 230.107 -0.591705 0.4641 0
M  V30 2438 H 232.078 -1.72329 2.43609 0
M  V30 2439 C 230.827 -3.17606 1.41499 0
M  V30 2440 H 230.15 -3.28809 2.27431 0
M  V30 2441 H 231.59 -3.96951 1.49015 0
M  V30 2442 C 230.049 -3.36642 0.131765 0
M  V30 2443 O 230.579 -3.93461 -0.809386 0
M  V30 2444 N 228.785 -2.90567 0.0439396 0
M  V30 2445 H 228.332 -2.44513 0.810619 0
M  V30 2446 H 228.29 -3.03681 -0.813969 0
M  V30 2447 N 232.062 -1.29571 -0.897171 0
M  V30 2448 C 233.478 -1.07637 -1.17841 0
M  V30 2449 C 233.678 0.170713 -2.00776 0
M  V30 2450 O 232.734 0.867768 -2.3712 0
M  V30 2451 C 234.047 -2.3332 -1.8969 0
M  V30 2452 C 235.595 -2.38664 -2.02505 0
M  V30 2453 C 236.07 -3.64157 -2.77765 0
M  V30 2454 N 237.561 -3.64894 -2.85318 0
M  V30 2455 C 238.296 -4.58679 -3.44094 0
M  V30 2456 N 237.792 -5.62799 -4.04017 0
M  V30 2457 N 239.585 -4.46245 -3.41793 0
M  V30 2458 H 231.736 -2.09598 -0.343883 0
M  V30 2459 H 233.999 -0.923333 -0.214848 0
M  V30 2460 H 233.705 -3.24262 -1.36187 0
M  V30 2461 H 233.579 -2.41025 -2.9015 0
M  V30 2462 H 235.966 -1.48208 -2.55183 0
M  V30 2463 H 236.047 -2.34943 -1.01171 0
M  V30 2464 H 235.691 -4.54965 -2.25763 0
M  V30 2465 H 235.621 -3.65137 -3.7945 0
M  V30 2466 H 238.112 -2.89613 -2.42761 0
M  V30 2467 H 238.425 -6.3048 -4.46895 0
M  V30 2468 H 236.77 -5.66605 -4.02472 0
M  V30 2469 H 239.961 -3.64094 -2.94199 0
M  V30 2470 H 240.134 -5.19518 -3.87304 0
M  V30 2471 N 233.54 1.10788 -1.12088 0
M  V30 2472 C 234.951 1.64181 -0.88891 0
M  V30 2473 C 235.302 1.87508 0.577498 0
M  V30 2474 O 234.427 1.61434 1.44112 0
M  V30 2475 C 235.022 2.98257 -1.60712 0
M  V30 2476 C 233.581 3.4853 -1.42139 0
M  V30 2477 C 232.728 2.23208 -1.6454 0
M  V30 2478 H 235.679 0.943368 -1.27618 0
M  V30 2479 H 235.7 3.65552 -1.05604 0
M  V30 2480 H 235.212 2.81246 -2.67436 0
M  V30 2481 H 233.313 3.70692 -0.376552 0
M  V30 2482 H 233.426 4.26882 -2.17505 0
M  V30 2483 H 231.79 2.31169 -1.06925 0
M  V30 2484 H 232.573 2.08733 -2.72554 0
M  V30 2485 N 235.018 0.912232 1.28515 0
M  V30 2486 C 236.264 0.545405 1.95328 0
M  V30 2487 C 236.597 -0.908313 1.71649 0
M  V30 2488 O 235.872 -1.64575 1.03659 0
M  V30 2489 C 236.155 0.853483 3.4984 0
M  V30 2490 C 236.008 2.35982 3.82926 0
M  V30 2491 C 237.327 0.348589 4.38717 0
M  V30 2492 H 234.446 0.199626 0.709449 0
M  V30 2493 H 237.088 1.1412 1.5191 0
M  V30 2494 H 235.238 0.34643 3.86952 0
M  V30 2495 H 236.91 2.93738 3.55691 0
M  V30 2496 H 235.153 2.81543 3.30024 0
M  V30 2497 H 235.824 2.52593 4.90816 0
M  V30 2498 H 238.3 0.78294 4.08668 0
M  V30 2499 H 237.176 0.593242 5.45685 0
M  V30 2500 H 237.437 -0.751049 4.35674 0
M  V30 2501 N 236.496 -1.42363 0.676048 0
M  V30 2502 C 237.426 -2.33497 0.0124832 0
M  V30 2503 C 238.407 -1.50748 -0.787981 0
M  V30 2504 O 239.592 -1.79346 -0.744884 0
M  V30 2505 C 236.722 -3.34377 -0.938582 0
M  V30 2506 C 235.676 -4.27289 -0.246622 0
M  V30 2507 C 235.002 -5.18386 -1.31071 0
M  V30 2508 C 236.302 -5.14916 0.875125 0
M  V30 2509 H 237.996 -2.89233 0.773593 0
M  V30 2510 H 235.542 -1.39073 0.37346 0
M  V30 2511 H 237.495 -3.97044 -1.41188 0
M  V30 2512 H 236.219 -2.76947 -1.73113 0
M  V30 2513 H 234.878 -3.66018 0.206456 0
M  V30 2514 H 234.526 -4.57282 -2.09528 0
M  V30 2515 H 234.226 -5.81378 -0.852839 0
M  V30 2516 H 235.75 -5.83929 -1.78492 0
M  V30 2517 H 237.164 -5.71262 0.482983 0
M  V30 2518 H 235.561 -5.86747 1.25887 0
M  V30 2519 H 236.631 -4.53242 1.72335 0
M  V30 2520 N 237.974 -0.419461 -1.51915 0
M  V30 2521 C 239.22 0.153166 -2.02221 0
M  V30 2522 C 239.553 1.43907 -1.30401 0
M  V30 2523 O 238.828 1.90055 -0.413438 0
M  V30 2524 C 239.111 0.390291 -3.57979 0
M  V30 2525 C 238.964 -0.913014 -4.40436 0
M  V30 2526 C 240.283 1.16794 -4.2432 0
M  V30 2527 H 237.402 0.0541924 -0.735005 0
M  V30 2528 H 240.044 -0.554955 -1.81715 0
M  V30 2529 H 238.194 0.993491 -3.75582 0
M  V30 2530 H 239.866 -1.54882 -4.34522 0
M  V30 2531 H 238.109 -1.52168 -4.06236 0
M  V30 2532 H 238.78 -0.701361 -5.47526 0
M  V30 2533 H 241.256 0.657161 -4.10878 0
M  V30 2534 H 240.132 1.3026 -5.3322 0
M  V30 2535 H 240.393 2.19132 -3.83971 0
M  V30 2536 N 239.452 1.56882 -0.150215 0
M  V30 2537 C 240.415 2.1573 0.774157 0
M  V30 2538 C 241.415 1.0999 1.17298 0
M  V30 2539 O 242.605 1.35613 1.09338 0
M  V30 2540 C 239.737 2.72302 2.05096 0
M  V30 2541 H 240.93 2.98752 0.262201 0
M  V30 2542 H 238.483 1.55985 0.099248 0
M  V30 2543 H 239.218 1.92956 2.6065 0
M  V30 2544 H 239.003 3.49665 1.77416 0
M  V30 2545 H 240.493 3.17632 2.71109 0
M  V30 2546 N 240.93 -0.123565 1.57115 0
M  V30 2547 C 242.176 -0.828428 1.85765 0
M  V30 2548 C 242.531 -1.77709 0.737371 0
M  V30 2549 O 241.824 -1.89787 -0.262978 0
M  V30 2550 C 242.018 -1.62016 3.18568 0
M  V30 2551 C 241.847 -0.749663 4.43407 0
M  V30 2552 C 240.617 -0.406251 5.03664 0
M  V30 2553 C 242.815 -0.0693505 5.14253 0
M  V30 2554 N 240.797 0.475389 6.12057 0
M  V30 2555 C 242.168 0.671474 6.16353 0
M  V30 2556 C 244.223 0.00754393 4.97899 0
M  V30 2557 C 242.926 1.48197 7.03868 0
M  V30 2558 C 244.952 0.804845 5.85898 0
M  V30 2559 C 244.314 1.53388 6.87497 0
M  V30 2560 H 240.413 -0.280219 0.73007 0
M  V30 2561 H 242.997 -0.0924183 1.94481 0
M  V30 2562 H 241.168 -2.32724 3.10957 0
M  V30 2563 H 242.9 -2.27 3.35042 0
M  V30 2564 H 239.655 -0.747446 4.67665 0
M  V30 2565 H 240.079 0.907924 6.70884 0
M  V30 2566 H 244.721 -0.541741 4.19315 0
M  V30 2567 H 242.439 2.04242 7.81864 0
M  V30 2568 H 246.025 0.866642 5.75309 0
M  V30 2569 H 244.905 2.1409 7.5441 0
M  V30 2570 N 242.408 -1.52605 -0.393616 0
M  V30 2571 C 243.371 -1.76415 -1.46323 0
M  V30 2572 C 244.371 -0.634126 -1.47768 0
M  V30 2573 O 245.561 -0.902142 -1.4902 0
M  V30 2574 C 242.693 -1.8607 -2.85641 0
M  V30 2575 H 243.886 -2.71916 -1.26498 0
M  V30 2576 H 241.439 -1.43257 -0.625073 0
M  V30 2577 H 242.174 -0.925378 -3.10817 0
M  V30 2578 H 241.959 -2.68235 -2.85993 0
M  V30 2579 H 243.449 -2.06179 -3.63153 0
M  V30 2580 N 243.887 0.651787 -1.4349 0
M  V30 2581 C 245.134 1.41167 -1.45183 0
M  V30 2582 C 245.462 1.94349 -0.0766601 0
M  V30 2583 O 244.717 1.72804 0.918555 0
M  V30 2584 C 245.016 2.60914 -2.44251 0
M  V30 2585 C 244.682 2.26142 -3.9009 0
M  V30 2586 C 243.344 2.16371 -4.2981 0
M  V30 2587 C 245.696 1.98334 -4.81989 0
M  V30 2588 C 243.024 1.7695 -5.5938 0
M  V30 2589 C 245.376 1.6041 -6.11924 0
M  V30 2590 C 244.04 1.49166 -6.5062 0
M  V30 2591 H 243.31 0.516566 -0.531263 0
M  V30 2592 H 245.957 0.741099 -1.76579 0
M  V30 2593 H 244.262 3.3311 -2.06265 0
M  V30 2594 H 245.959 3.19127 -2.42815 0
M  V30 2595 H 242.549 2.34658 -3.58655 0
M  V30 2596 H 246.733 2.04803 -4.52072 0
M  V30 2597 H 241.989 1.66831 -5.88198 0
M  V30 2598 H 246.163 1.37925 -6.82605 0
M  V30 2599 H 243.79 1.1839 -7.50925 0
M  V30 2600 N 245.365 1.30045 0.890287 0
M  V30 2601 C 246.59 1.21598 1.68014 0
M  V30 2602 C 247.015 -0.218678 1.86825 0
M  V30 2603 O 246.373 -1.15756 1.39536 0
M  V30 2604 C 246.421 1.94434 3.03691 0
M  V30 2605 O 245.525 1.2678 3.92429 0
M  V30 2606 H 244.866 0.420856 0.513592 0
M  V30 2607 H 247.396 1.71775 1.11151 0
M  V30 2608 H 247.406 2.03251 3.5377 0
M  V30 2609 H 246.081 2.98777 2.89318 0
M  V30 2610 H 244.658 1.26282 3.50866 0
M  V30 2611 N 246.843 -1.10192 1.12674 0
M  V30 2612 C 247.773 -2.18652 0.819362 0
M  V30 2613 C 248.754 -1.68698 -0.217915 0
M  V30 2614 O 249.939 -1.94041 -0.0785581 0
M  V30 2615 C 247.069 -3.46202 0.27594 0
M  V30 2616 C 246.023 -4.09444 1.24656 0
M  V30 2617 C 245.349 -5.31725 0.563258 0
M  V30 2618 C 246.649 -4.52863 2.60217 0
M  V30 2619 H 248.343 -2.44622 1.72628 0
M  V30 2620 H 245.889 -1.17571 0.831451 0
M  V30 2621 H 247.842 -4.21372 0.0486149 0
M  V30 2622 H 246.566 -3.1973 -0.666331 0
M  V30 2623 H 245.225 -3.36284 1.45974 0
M  V30 2624 H 244.873 -5.0153 -0.384235 0
M  V30 2625 H 244.573 -5.74991 1.21075 0
M  V30 2626 H 246.097 -6.09624 0.34503 0
M  V30 2627 H 247.511 -5.19294 2.42913 0
M  V30 2628 H 245.908 -5.06986 3.21068 0
M  V30 2629 H 246.978 -3.65656 3.18471 0
M  V30 2630 N 248.321 -0.919034 -1.28029 0
M  V30 2631 C 249.251 -0.428581 -2.29533 0
M  V30 2632 C 250.232 0.50659 -1.62381 0
M  V30 2633 O 251.417 0.413195 -1.89753 0
M  V30 2634 C 248.547 0.327388 -3.45753 0
M  V30 2635 C 247.501 -0.519137 -4.2484 0
M  V30 2636 C 246.827 0.365486 -5.33449 0
M  V30 2637 C 248.127 -1.77914 -4.91064 0
M  V30 2638 H 249.821 -1.27687 -2.70807 0
M  V30 2639 H 247.367 -0.615428 -1.30186 0
M  V30 2640 H 249.32 0.681378 -4.15855 0
M  V30 2641 H 248.044 1.20963 -3.03374 0
M  V30 2642 H 246.703 -0.855717 -3.56473 0
M  V30 2643 H 246.351 1.24642 -4.87312 0
M  V30 2644 H 246.051 -0.197356 -5.87268 0
M  V30 2645 H 247.575 0.715241 -6.06396 0
M  V30 2646 H 248.989 -1.49374 -5.53498 0
M  V30 2647 H 247.386 -2.2848 -5.54903 0
M  V30 2648 H 248.456 -2.50382 -4.15255 0
M  V30 2649 N 249.799 1.42003 -0.683588 0
M  V30 2650 C 250.729 2.33487 -0.024866 0
M  V30 2651 C 251.71 1.51163 0.779975 0
M  V30 2652 O 252.895 1.79739 0.735362 0
M  V30 2653 C 250.025 3.3487 0.920836 0
M  V30 2654 C 248.979 4.27414 0.223958 0
M  V30 2655 C 248.305 5.19074 1.2832 0
M  V30 2656 C 249.605 5.14445 -0.90242 0
M  V30 2657 H 251.299 2.88819 -0.788921 0
M  V30 2658 H 248.845 1.38873 -0.38083 0
M  V30 2659 H 250.798 3.97787 1.39081 0
M  V30 2660 H 249.522 2.77861 1.71642 0
M  V30 2661 H 248.181 3.65904 -0.225864 0
M  V30 2662 H 247.829 4.58387 2.071 0
M  V30 2663 H 247.529 5.81822 0.821995 0
M  V30 2664 H 249.053 5.84867 1.75392 0
M  V30 2665 H 250.467 5.70998 -0.513272 0
M  V30 2666 H 248.864 5.86072 -1.28997 0
M  V30 2667 H 249.934 4.52322 -1.74737 0
M  V30 2668 N 251.277 0.427512 1.51691 0
M  V30 2669 C 252.502 -0.143601 2.06902 0
M  V30 2670 C 252.927 -1.36536 1.29382 0
M  V30 2671 O 252.285 -1.78289 0.329043 0
M  V30 2672 C 252.333 -0.454207 3.57728 0
M  V30 2673 O 251.437 -1.54228 3.82475 0
M  V30 2674 H 250.778 -0.00617128 0.663971 0
M  V30 2675 H 253.308 0.606014 1.95419 0
M  V30 2676 H 253.318 -0.707525 4.01818 0
M  V30 2677 H 251.993 0.438812 4.13579 0
M  V30 2678 H 250.57 -1.2797 3.50254 0
M  V30 2679 N 252.755 -1.56801 0.158532 0
M  V30 2680 C 253.685 -2.20347 -0.772609 0
M  V30 2681 C 254.666 -1.15518 -1.24859 0
M  V30 2682 O 255.851 -1.43902 -1.30406 0
M  V30 2683 C 252.981 -2.83417 -2.00729 0
M  V30 2684 C 251.935 -3.94174 -1.66765 0
M  V30 2685 C 251.261 -4.44233 -2.97592 0
M  V30 2686 C 252.561 -5.14392 -0.905447 0
M  V30 2687 H 254.255 -2.98413 -0.242959 0
M  V30 2688 H 251.801 -1.43537 -0.115419 0
M  V30 2689 H 253.754 -3.26543 -2.6636 0
M  V30 2690 H 252.478 -2.02701 -2.56086 0
M  V30 2691 H 251.137 -3.51684 -1.03508 0
M  V30 2692 H 250.785 -3.60325 -3.50963 0
M  V30 2693 H 250.485 -5.18945 -2.75626 0
M  V30 2694 H 252.009 -4.90037 -3.64274 0
M  V30 2695 H 253.423 -5.5429 -1.46408 0
M  V30 2696 H 251.82 -5.9494 -0.7853 0
M  V30 2697 H 252.89 -4.84795 0.100668 0
M  V30 2698 N 254.233 0.115231 -1.57178 0
M  V30 2699 C 255.644 0.67197 -1.74188 0
M  V30 2700 C 255.995 1.80125 -0.777777 0
M  V30 2701 O 255.12 2.16346 0.0484376 0
M  V30 2702 C 255.715 1.22573 -3.1585 0
M  V30 2703 C 254.274 1.72872 -3.34353 0
M  V30 2704 C 253.421 0.629972 -2.70049 0
M  V30 2705 H 256.372 -0.110712 -1.58313 0
M  V30 2706 H 256.393 2.09535 -3.17609 0
M  V30 2707 H 255.905 0.403598 -3.85996 0
M  V30 2708 H 254.006 2.5755 -2.69256 0
M  V30 2709 H 254.119 1.83557 -4.42542 0
M  V30 2710 H 252.483 1.0645 -2.31388 0
M  V30 2711 H 253.266 -0.181241 -3.42821 0
M  V30 2712 N 255.711 1.52812 0.385517 0
M  V30 2713 C 256.643 1.74096 1.49074 0
M  V30 2714 C 257.656 0.621462 1.50472 0
M  V30 2715 O 258.845 0.897245 1.54311 0
M  V30 2716 C 255.945 1.78774 2.87911 0
M  V30 2717 C 255.118 3.08134 3.10439 0
M  V30 2718 C 254.177 3.04313 4.29278 0
M  V30 2719 O 253.203 3.78168 4.25415 0
M  V30 2720 N 254.405 2.23741 5.35649 0
M  V30 2721 H 257.17 2.69455 1.31202 0
M  V30 2722 H 254.731 1.51343 0.575065 0
M  V30 2723 H 256.723 1.73721 3.65518 0
M  V30 2724 H 255.293 0.907869 2.99126 0
M  V30 2725 H 254.513 3.26649 2.20667 0
M  V30 2726 H 255.801 3.93662 3.22347 0
M  V30 2727 H 255.199 1.63211 5.41645 0
M  V30 2728 H 253.756 2.24524 6.11909 0
M  V30 2729 N 257.189 -0.644168 1.43834 0
M  V30 2730 C 258.119 -1.76814 1.52509 0
M  V30 2731 C 259.1 -1.65823 0.379052 0
M  V30 2732 O 260.285 -1.84781 0.597466 0
M  V30 2733 C 257.415 -3.15288 1.4564 0
M  V30 2734 C 256.369 -3.41053 2.58586 0
M  V30 2735 C 255.695 -4.79421 2.36769 0
M  V30 2736 C 256.995 -3.34902 4.00797 0
M  V30 2737 H 258.689 -1.69812 2.46586 0
M  V30 2738 H 256.235 -0.815542 1.1868 0
M  V30 2739 H 258.188 -3.93681 1.50311 0
M  V30 2740 H 256.912 -3.23043 0.480725 0
M  V30 2741 H 255.571 -2.65035 2.53282 0
M  V30 2742 H 255.219 -4.83863 1.37424 0
M  V30 2743 H 254.919 -4.9762 3.12487 0
M  V30 2744 H 256.443 -5.6006 2.43238 0
M  V30 2745 H 257.857 -4.03218 4.07539 0
M  V30 2746 H 256.254 -3.64637 4.76613 0
M  V30 2747 H 257.324 -2.32928 4.25291 0
M  V30 2748 N 258.668 -1.30515 -0.883378 0
M  V30 2749 C 259.915 -1.1943 -1.63532 0
M  V30 2750 C 260.243 0.250627 -1.92878 0
M  V30 2751 O 259.498 1.19556 -1.54935 0
M  V30 2752 C 259.797 -1.96994 -2.98209 0
M  V30 2753 C 259.463 -3.466 -2.88408 0
M  V30 2754 C 258.125 -3.87397 -2.85442 0
M  V30 2755 C 260.477 -4.41863 -2.76418 0
M  V30 2756 C 257.805 -5.21745 -2.68327 0
M  V30 2757 C 260.157 -5.7632 -2.60841 0
M  V30 2758 C 258.821 -6.16354 -2.56251 0
M  V30 2759 H 258.091 -0.437025 -0.598406 0
M  V30 2760 H 260.738 -1.61635 -1.02696 0
M  V30 2761 H 259.043 -1.47429 -3.63004 0
M  V30 2762 H 260.74 -1.85808 -3.55354 0
M  V30 2763 H 257.33 -3.14182 -2.91527 0
M  V30 2764 H 261.514 -4.11285 -2.77775 0
M  V30 2765 H 256.77 -5.51853 -2.63189 0
M  V30 2766 H 260.944 -6.49772 -2.50538 0
M  V30 2767 H 258.571 -7.20401 -2.42748 0
M  V30 2768 N 260.146 1.09593 -1.13257 0
M  V30 2769 C 261.395 1.81105 -0.887917 0
M  V30 2770 C 261.708 1.86563 0.587672 0
M  V30 2771 O 262.914 2.54367 0.949204 0
M  V30 2772 C 261.37 3.25338 -1.53895 0
M  V30 2773 C 260.978 3.28151 -3.04994 0
M  V30 2774 C 262.722 4.01617 -1.37492 0
M  V30 2775 C 260.629 4.66897 -3.6299 0
M  V30 2776 H 259.559 0.678661 -0.328534 0
M  V30 2777 H 262.21 1.23183 -1.36008 0
M  V30 2778 H 260.592 3.8331 -0.994446 0
M  V30 2779 H 261.766 2.79953 -3.66009 0
M  V30 2780 H 260.081 2.65361 -3.20893 0
M  V30 2781 H 262.678 5.04119 -1.78235 0
M  V30 2782 H 263.021 4.15072 -0.31957 0
M  V30 2783 H 263.554 3.50082 -1.88912 0
M  V30 2784 H 260.293 4.58643 -4.68323 0
M  V30 2785 H 259.813 5.15426 -3.06752 0
M  V30 2786 H 261.492 5.3587 -3.62563 0
M  V30 2787 N 261.624 0.925811 1.2754 0
M  V30 2788 C 262.871 0.565255 1.94451 0
M  V30 2789 C 263.199 -0.89316 1.7278 0
M  V30 2790 O 262.454 -1.65213 1.04895 0
M  V30 2791 C 262.753 0.835296 3.47502 0
M  V30 2792 C 262.419 2.27515 3.89291 0
M  V30 2793 C 261.081 2.66879 4.00411 0
M  V30 2794 C 263.433 3.21158 4.10496 0
M  V30 2795 C 260.761 3.99014 4.30122 0
M  V30 2796 C 263.113 4.52871 4.4169 0
M  V30 2797 C 261.777 4.92072 4.51023 0
M  V30 2798 H 261.047 0.206841 0.711546 0
M  V30 2799 H 263.694 1.16942 1.51647 0
M  V30 2800 H 261.999 0.148442 3.91519 0
M  V30 2801 H 263.696 0.535322 3.97411 0
M  V30 2802 H 260.286 1.95976 3.81171 0
M  V30 2803 H 264.47 2.9195 4.01346 0
M  V30 2804 H 259.726 4.2907 4.35556 0
M  V30 2805 H 263.9 5.25436 4.57045 0
M  V30 2806 H 261.527 5.9449 4.738 0
M  V30 2807 N 263.102 -1.41638 0.69111 0
M  V30 2808 C 264.065 -2.29178 0.0319786 0
M  V30 2809 C 265.065 -1.44153 -0.712496 0
M  V30 2810 O 266.255 -1.65354 -0.548053 0
M  V30 2811 C 263.387 -3.26952 -0.965161 0
M  V30 2812 H 264.58 -2.88959 0.802681 0
M  V30 2813 H 262.133 -1.4955 0.454356 0
M  V30 2814 H 262.868 -2.72142 -1.76378 0
M  V30 2815 H 262.653 -3.89685 -0.434522 0
M  V30 2816 H 264.143 -3.92561 -1.42428 0
M  V30 2817 N 264.58 -0.43555 -1.51462 0
M  V30 2818 C 265.512 0.41257 -2.25456 0
M  V30 2819 C 266.525 0.987822 -1.29406 0
M  V30 2820 O 267.714 0.882266 -1.55172 0
M  V30 2821 C 264.814 1.58894 -2.99342 0
M  V30 2822 C 263.987 1.13288 -4.22474 0
M  V30 2823 C 263.046 2.17917 -4.78956 0
M  V30 2824 O 262.072 1.77425 -5.40841 0
M  V30 2825 N 263.274 3.50382 -4.62832 0
M  V30 2826 H 266.039 -0.221603 -2.9888 0
M  V30 2827 H 263.6 -0.264342 -1.59727 0
M  V30 2828 H 265.592 2.28508 -3.34015 0
M  V30 2829 H 264.162 2.12849 -2.28941 0
M  V30 2830 H 263.382 0.263881 -3.93316 0
M  V30 2831 H 264.67 0.805542 -5.02383 0
M  V30 2832 H 264.068 3.86013 -4.13534 0
M  V30 2833 H 262.625 4.15895 -5.01871 0
M  V30 2834 N 266.058 1.56714 -0.166846 0
M  V30 2835 C 267.474 1.58473 0.189372 0
M  V30 2836 C 267.674 1.18201 1.63189 0
M  V30 2837 O 266.73 0.891528 2.36237 0
M  V30 2838 C 268.043 3.00573 -0.0873872 0
M  V30 2839 C 269.591 3.1299 -0.0252443 0
M  V30 2840 C 270.066 4.57174 -0.274934 0
M  V30 2841 N 271.557 4.62665 -0.222553 0
M  V30 2842 C 272.292 5.72072 -0.389985 0
M  V30 2843 N 271.788 6.90054 -0.616229 0
M  V30 2844 N 273.581 5.61153 -0.326202 0
M  V30 2845 H 265.732 1.8118 -1.10849 0
M  V30 2846 H 267.995 0.839525 -0.440342 0
M  V30 2847 H 267.701 3.34497 -1.0865 0
M  V30 2848 H 267.575 3.72019 0.623037 0
M  V30 2849 H 269.962 2.78895 0.96444 0
M  V30 2850 H 270.043 2.43989 -0.768309 0
M  V30 2851 H 269.687 4.91976 -1.26181 0
M  V30 2852 H 269.617 5.24328 0.48869 0
M  V30 2853 H 272.108 3.77863 -0.0531512 0
M  V30 2854 H 272.421 7.69311 -0.733559 0
M  V30 2855 H 270.766 6.91927 -0.652791 0
M  V30 2856 H 273.957 4.67859 -0.150072 0
M  V30 2857 H 274.13 6.46364 -0.460116 0
M  V30 2858 N 267.536 -0.106894 1.57237 0
M  V30 2859 C 268.484 -1.14944 2.02215 0
M  V30 2860 C 269.478 -1.42167 0.92114 0
M  V30 2861 O 270.684 -1.41987 1.10634 0
M  V30 2862 H 267.059 -0.387841 0.64427 0
M  V30 2863 H 269.03 -0.743683 2.88984 0
M  V30 2864 C 267.779 -2.4647 2.4525 0
M  V30 2865 H 267.102 -2.26363 3.29545 0
M  V30 2866 H 268.542 -3.17948 2.80508 0
M  V30 2867 C 267.001 -3.09921 1.321 0
M  V30 2868 O 267.531 -3.9651 0.643622 0
M  V30 2869 N 265.737 -2.69986 1.07497 0
M  V30 2870 H 265.284 -1.99667 1.62761 0
M  V30 2871 H 265.242 -3.12769 0.319876 0
M  V30 2872 N 269.014 -1.53014 -0.377408 0
M  V30 2873 C 270.26 -1.68872 -1.12294 0
M  V30 2874 C 270.593 -0.433224 -1.89306 0
M  V30 2875 O 269.868 0.569258 -1.85983 0
M  V30 2876 C 270.151 -2.93115 -2.09179 0
M  V30 2877 C 270.004 -4.28794 -1.35853 0
M  V30 2878 C 271.323 -3.12928 -3.09458 0
M  V30 2879 H 268.442 -0.614518 -0.406862 0
M  V30 2880 H 271.084 -1.85633 -0.40503 0
M  V30 2881 H 269.234 -2.78956 -2.70399 0
M  V30 2882 H 270.906 -4.54742 -0.775082 0
M  V30 2883 H 269.149 -4.28744 -0.660364 0
M  V30 2884 H 269.82 -5.11837 -2.06706 0
M  V30 2885 H 272.296 -3.26194 -2.58334 0
M  V30 2886 H 271.172 -4.01316 -3.74482 0
M  V30 2887 H 271.433 -2.27669 -3.78971 0
M  V30 2888 N 270.492 0.636531 -1.44174 0
M  V30 2889 C 271.402 1.77754 -1.53103 0
M  V30 2890 C 272.418 1.68928 -0.417034 0
M  V30 2891 O 273.594 1.89801 -0.6736 0
M  V30 2892 C 270.659 3.14115 -1.46741 0
M  V30 2893 C 269.72 3.34612 -2.68948 0
M  V30 2894 C 268.953 4.64467 -2.6288 0
M  V30 2895 O 269.176 5.44919 -1.68581 0
M  V30 2896 O 268.11 4.87049 -3.53648 0
M  V30 2897 H 271.936 1.73174 -2.49489 0
M  V30 2898 H 269.521 0.79709 -1.2636 0
M  V30 2899 H 271.403 3.95412 -1.45696 0
M  V30 2900 H 270.078 3.19249 -0.534975 0
M  V30 2901 H 268.985 2.53014 -2.75562 0
M  V30 2902 H 270.318 3.34336 -3.61221 0
M  V30 2903 N 271.97 1.30982 0.876444 0
M  V30 2904 C 273.218 1.20058 1.62575 0
M  V30 2905 C 273.539 -0.242947 1.93481 0
M  V30 2906 O 272.809 -1.1619 1.57724 0
M  V30 2907 H 271.389 0.44135 0.602677 0
M  V30 2908 H 274.051 1.64222 1.04962 0
M  V30 2909 H 273.147 1.76762 2.57219 0
M  V30 2910 N 273.449 -1.08991 1.13837 0
M  V30 2911 C 274.697 -1.80899 0.901098 0
M  V30 2912 C 275.018 -1.86356 -0.574134 0
M  V30 2913 O 274.288 -1.35235 -1.41733 0
M  V30 2914 H 272.868 -0.669966 0.330386 0
M  V30 2915 H 275.53 -1.318 1.43578 0
M  V30 2916 H 274.626 -2.83929 1.29578 0
M  V30 2917 N 274.927 -0.932562 -1.27047 0
M  V30 2918 C 276.152 -0.591474 -1.98787 0
M  V30 2919 C 276.577 0.824601 -1.69062 0
M  V30 2920 O 275.935 1.5541 -0.933677 0
M  V30 2921 C 275.983 -0.829808 -3.50922 0
M  V30 2922 O 275.087 0.102266 -4.12273 0
M  V30 2923 H 274.428 -0.227185 -0.623926 0
M  V30 2924 H 276.958 -1.25314 -1.61733 0
M  V30 2925 H 276.968 -0.747292 -4.01098 0
M  V30 2926 H 275.643 -1.86201 -3.7189 0
M  V30 2927 H 274.22 -0.0305761 -3.72887 0
M  V30 2928 N 276.405 1.4127 -0.698611 0
M  V30 2929 C 277.653 2.00782 -0.230409 0
M  V30 2930 C 277.974 1.5562 1.17505 0
M  V30 2931 O 277.244 0.78815 1.79346 0
M  V30 2932 H 275.824 0.742464 -0.0821944 0
M  V30 2933 H 278.486 1.72852 -0.90045 0
M  V30 2934 H 277.582 3.11095 -0.25021 0
M  V30 2935 N 277.883 0.443576 1.51229 0
M  V30 2936 C 279.129 -0.120975 2.02439 0
M  V30 2937 C 279.462 -1.41815 1.32674 0
M  V30 2938 O 278.737 -1.89373 0.443622 0
M  V30 2939 C 279.02 -0.333291 3.58554 0
M  V30 2940 C 278.873 0.982968 4.38928 0
M  V30 2941 C 280.192 -1.10028 4.26124 0
M  V30 2942 H 277.311 -0.0424923 0.735774 0
M  V30 2943 H 279.953 0.583794 1.80809 0
M  V30 2944 H 278.103 -0.933614 3.77115 0
M  V30 2945 H 279.775 1.61775 4.32003 0
M  V30 2946 H 278.018 1.58611 4.03763 0
M  V30 2947 H 278.689 0.788379 5.46341 0
M  V30 2948 H 281.165 -0.591711 4.11871 0
M  V30 2949 H 280.041 -1.21761 5.35225 0
M  V30 2950 H 280.302 -2.12996 3.87408 0
M  V30 2951 N 279.361 -1.56624 0.175154 0
M  V30 2952 C 280.589 -2.01374 -0.474971 0
M  V30 2953 C 281.004 -1.05537 -1.56548 0
M  V30 2954 O 280.361 -0.0568668 -1.82411 0
M  V30 2955 C 280.412 -3.45923 -1.04975 0
M  V30 2956 O 280.133 -4.381 -0.00276605 0
M  V30 2957 C 281.634 -4.06093 -1.77773 0
M  V30 2958 H 278.854 -0.659962 -0.121206 0
M  V30 2959 H 281.398 -2.02601 0.27801 0
M  V30 2960 H 279.553 -3.45458 -1.75321 0
M  V30 2961 H 279.967 -5.22753 -0.427681 0
M  V30 2962 H 281.441 -5.09147 -2.13245 0
M  V30 2963 H 281.918 -3.48405 -2.67414 0
M  V30 2964 H 282.524 -4.10272 -1.12059 0
M  V30 2965 N 280.839 0.0985539 -1.57292 0
M  V30 2966 C 282.116 0.834155 -1.76921 0
M  V30 2967 C 282.496 1.97101 -0.755928 0
M  V30 2968 O 281.844 2.27474 0.216245 0
M  V30 2969 C 282.054 1.33194 -3.22584 0
M  V30 2970 C 283.402 1.77611 -3.85668 0
M  V30 2971 O 284.426 1.42825 -3.26312 0
M  V30 2972 O 283.285 2.4192 -4.90038 0
M  V30 2973 H 280.379 0.397628 -0.725135 0
M  V30 2974 H 282.925 0.0807044 -1.69508 0
M  V30 2975 H 281.697 0.517248 -3.87866 0
M  V30 2976 H 281.32 2.1475 -3.34616 0
M  V30 2977 N 282.317 1.53212 0.369288 0
M  V30 2978 C 283.557 1.70915 1.12105 0
M  V30 2979 C 283.921 0.449444 1.86665 0
M  V30 2980 O 285.122 0.503105 2.6405 0
M  V30 2981 C 283.393 2.9222 2.05772 0
M  V30 2982 S 284.952 3.30609 2.88519 0
M  V30 2983 H 281.77 0.601445 0.379189 0
M  V30 2984 H 284.372 1.91306 0.402794 0
M  V30 2985 H 283.076 3.82103 1.49752 0
M  V30 2986 H 282.607 2.7422 2.82076 0
M  V30 2987 H 284.622 2.82333 4.08047 0
M  V30 2988 N 283.795 -0.628877 1.44509 0
M  V30 2989 C 285.041 -1.38863 1.48623 0
M  V30 2990 C 285.396 -1.92038 0.117933 0
M  V30 2991 O 284.689 -1.70853 -0.86716 0
M  V30 2992 C 284.883 -2.56995 2.48371 0
M  V30 2993 C 284.712 -2.15385 3.94765 0
M  V30 2994 C 283.482 -2.02558 4.62924 0
M  V30 2995 C 285.68 -1.74158 4.83915 0
M  V30 2996 N 283.662 -1.54534 5.94132 0
M  V30 2997 C 285.033 -1.37396 6.04584 0
M  V30 2998 C 287.088 -1.61559 4.7096 0
M  V30 2999 C 285.791 -0.892948 7.13736 0
M  V30 3000 C 287.817 -1.14862 5.80139 0
M  V30 3001 C 287.179 -0.790516 6.9995 0
M  V30 3002 H 283.278 -0.502858 0.59888 0
M  V30 3003 H 285.862 -0.72121 1.8085 0
M  V30 3004 H 284.033 -3.21362 2.1813 0
M  V30 3005 H 285.765 -3.23801 2.42766 0
M  V30 3006 H 282.52 -2.23082 4.1777 0
M  V30 3007 H 282.944 -1.32815 6.63844 0
M  V30 3008 H 287.586 -1.87876 3.78764 0
M  V30 3009 H 285.304 -0.617291 8.05739 0
M  V30 3010 H 288.89 -1.05569 5.72142 0
M  V30 3011 H 287.77 -0.434713 7.82994 0
M  V30 3012 N 285.273 -1.31445 -0.869486 0
M  V30 3013 C 286.236 -1.19094 -1.9583 0
M  V30 3014 C 287.236 -0.117906 -1.60367 0
M  V30 3015 O 288.426 -0.367208 -1.70286 0
M  V30 3016 C 285.558 -0.828165 -3.30688 0
M  V30 3017 H 286.751 -2.15842 -2.08212 0
M  V30 3018 H 284.304 -1.15063 -1.05784 0
M  V30 3019 H 285.039 0.138142 -3.24006 0
M  V30 3020 H 284.824 -1.6038 -3.578 0
M  V30 3021 H 286.314 -0.765658 -4.10521 0
M  V30 3022 N 286.751 1.08385 -1.14413 0
M  V30 3023 C 287.991 1.8238 -0.922868 0
M  V30 3024 C 288.355 1.84225 0.540842 0
M  V30 3025 O 289.556 2.53985 0.880058 0
M  V30 3026 C 287.827 3.24048 -1.50757 0
M  V30 3027 S 289.386 4.14917 -1.4279 0
M  V30 3028 H 286.204 0.628524 -0.332384 0
M  V30 3029 H 288.806 1.30278 -1.45766 0
M  V30 3030 H 287.51 3.20288 -2.56601 0
M  V30 3031 H 287.041 3.81224 -0.971178 0
M  V30 3032 H 289.056 4.94473 -0.413582 0
M  V30 3033 N 288.23 0.939286 1.26551 0
M  V30 3034 C 289.477 0.585847 1.9384 0
M  V30 3035 C 289.805 -0.874784 1.73718 0
M  V30 3036 O 289.06 -1.64092 1.06642 0
M  V30 3037 C 289.359 0.872106 3.46596 0
M  V30 3038 C 289.025 2.31632 3.86856 0
M  V30 3039 C 287.687 2.71111 3.97558 0
M  V30 3040 C 290.039 3.25494 4.07066 0
M  V30 3041 C 287.367 4.03553 4.25866 0
M  V30 3042 C 289.719 4.57531 4.36862 0
M  V30 3043 C 288.383 4.96828 4.45778 0
M  V30 3044 H 287.653 0.214377 0.709312 0
M  V30 3045 H 290.3 1.18544 1.50398 0
M  V30 3046 H 288.605 0.18996 3.91339 0
M  V30 3047 H 290.302 0.577442 3.96821 0
M  V30 3048 H 286.892 2.00008 3.79071 0
M  V30 3049 H 291.076 2.9619 3.98227 0
M  V30 3050 H 286.332 4.33665 4.30981 0
M  V30 3051 H 290.506 5.30254 4.51446 0
M  V30 3052 H 288.133 5.99482 4.67468 0
M  V30 3053 N 289.708 -1.40897 0.706093 0
M  V30 3054 C 290.671 -2.29131 0.0562841 0
M  V30 3055 C 291.671 -1.44901 -0.697166 0
M  V30 3056 O 292.861 -1.65926 -0.530484 0
M  V30 3057 C 289.993 -3.27957 -0.93043 0
M  V30 3058 H 291.186 -2.88091 0.833284 0
M  V30 3059 H 288.739 -1.4906 0.470192 0
M  V30 3060 H 289.474 -2.73997 -1.73482 0
M  V30 3061 H 289.259 -3.90124 -0.393166 0
M  V30 3062 H 290.749 -3.94049 -1.38256 0
M  V30 3063 N 291.186 -0.45159 -1.50991 0
M  V30 3064 C 292.096 0.358431 -2.31846 0
M  V30 3065 C 293.112 1.01438 -1.41373 0
M  V30 3066 O 294.288 1.00663 -1.74439 0
M  V30 3067 C 291.353 1.43704 -3.15515 0
M  V30 3068 C 290.414 0.799742 -4.21785 0
M  V30 3069 C 289.647 1.82696 -5.01456 0
M  V30 3070 O 289.87 3.05105 -4.81941 0
M  V30 3071 O 288.804 1.40958 -5.85162 0
M  V30 3072 H 292.63 -0.302032 -3.02194 0
M  V30 3073 H 290.215 -0.213825 -1.47862 0
M  V30 3074 H 292.097 2.06227 -3.67489 0
M  V30 3075 H 290.772 2.08133 -2.47916 0
M  V30 3076 H 289.679 0.136084 -3.73852 0
M  V30 3077 H 291.012 0.198718 -4.91799 0
M  V30 3078 N 292.664 1.56529 -0.183458 0
M  V30 3079 C 294.075 1.83739 0.331177 0
M  V30 3080 C 294.426 1.10373 1.62211 0
M  V30 3081 O 293.551 0.36071 2.13373 0
M  V30 3082 C 294.146 3.33306 0.607646 0
M  V30 3083 C 292.705 3.60969 1.06668 0
M  V30 3084 C 291.852 2.77086 0.109029 0
M  V30 3085 H 294.803 1.53379 -0.407484 0
M  V30 3086 H 294.824 3.51444 1.45832 0
M  V30 3087 H 294.336 3.86677 -0.332086 0
M  V30 3088 H 292.437 3.13021 2.0211 0
M  V30 3089 H 292.55 4.69231 0.967447 0
M  V30 3090 H 290.914 2.47319 0.608714 0
M  V30 3091 H 291.697 3.33241 -0.82494 0
M  V30 3092 N 294.142 -0.090211 1.57342 0
M  V30 3093 C 295.388 -0.788838 1.8748 0
M  V30 3094 C 295.743 -1.76105 0.7749 0
M  V30 3095 O 295.036 -1.90302 -0.222663 0
M  V30 3096 C 295.23 -1.55222 3.21933 0
M  V30 3097 C 295.059 -0.655441 4.44898 0
M  V30 3098 C 293.829 -0.299325 5.04413 0
M  V30 3099 C 296.027 0.0397458 5.14285 0
M  V30 3100 N 294.009 0.605108 6.10911 0
M  V30 3101 C 295.38 0.802061 6.1479 0
M  V30 3102 C 297.435 0.113154 4.97771 0
M  V30 3103 C 296.138 1.63093 7.00566 0
M  V30 3104 C 298.164 0.928942 5.84059 0
M  V30 3105 C 297.526 1.67936 6.84088 0
M  V30 3106 H 293.625 -0.26467 0.735849 0
M  V30 3107 H 296.209 -0.0511453 1.94633 0
M  V30 3108 H 294.38 -2.26076 3.15823 0
M  V30 3109 H 296.112 -2.19843 3.39781 0
M  V30 3110 H 292.867 -0.648079 4.69145 0
M  V30 3111 H 293.291 1.05002 6.68808 0
M  V30 3112 H 297.933 -0.452676 4.2037 0
M  V30 3113 H 295.651 2.20781 7.77355 0
M  V30 3114 H 299.237 0.988478 5.73341 0
M  V30 3115 H 298.117 2.30044 7.49699 0
M  V30 3116 N 295.62 -1.53406 -0.361157 0
M  V30 3117 C 296.868 -1.69467 -1.10115 0
M  V30 3118 C 297.189 -0.451352 -1.89705 0
M  V30 3119 O 296.459 0.534636 -1.88463 0
M  V30 3120 H 295.039 -0.624749 -0.409508 0
M  V30 3121 H 297.701 -1.90609 -0.406699 0
M  V30 3122 H 296.797 -2.55774 -1.78847 0
M  V30 3123 N 297.098 0.621204 -1.44841 0
M  V30 3124 C 298.514 0.94048 -1.28946 0
M  V30 3125 C 298.714 2.00154 -0.23249 0
M  V30 3126 O 297.77 2.49651 0.378237 0
M  V30 3127 C 299.083 1.39433 -2.66419 0
M  V30 3128 C 300.631 1.50927 -2.74208 0
M  V30 3129 C 301.106 1.99692 -4.12174 0
M  V30 3130 N 302.597 2.06947 -4.144 0
M  V30 3131 C 303.332 2.45871 -5.1801 0
M  V30 3132 N 302.828 2.83862 -6.31977 0
M  V30 3133 N 304.621 2.46092 -5.05366 0
M  V30 3134 H 296.772 -0.0803548 -2.12248 0
M  V30 3135 H 299.035 0.0266913 -0.947624 0
M  V30 3136 H 298.741 0.688925 -3.44887 0
M  V30 3137 H 298.615 2.36347 -2.93973 0
M  V30 3138 H 301.002 2.20561 -1.96053 0
M  V30 3139 H 301.083 0.523627 -2.50383 0
M  V30 3140 H 300.727 1.30649 -4.90809 0
M  V30 3141 H 300.657 2.99146 -4.33381 0
M  V30 3142 H 303.148 1.80232 -3.32152 0
M  V30 3143 H 303.461 3.12405 -7.0684 0
M  V30 3144 H 301.806 2.8159 -6.35399 0
M  V30 3145 H 304.997 2.1581 -4.15384 0
M  V30 3146 H 305.17 2.76102 -5.86235 0
M  V30 3147 N 298.576 1.31904 0.862503 0
M  V30 3148 C 299.992 1.10724 1.14945 0
M  V30 3149 C 300.192 -0.117421 2.01158 0
M  V30 3150 O 299.248 -0.804595 2.39338 0
M  V30 3151 C 300.561 2.38267 1.83437 0
M  V30 3152 C 302.109 2.43949 1.96106 0
M  V30 3153 C 302.584 3.71394 2.68013 0
M  V30 3154 N 304.075 3.72331 2.75543 0
M  V30 3155 C 304.81 4.67641 3.31812 0
M  V30 3156 N 304.306 5.73313 3.88953 0
M  V30 3157 N 306.099 4.5515 3.29841 0
M  V30 3158 H 298.25 2.10436 0.288191 0
M  V30 3159 H 300.513 0.928705 0.190292 0
M  V30 3160 H 300.219 3.27759 1.27542 0
M  V30 3161 H 300.093 2.48633 2.83657 0
M  V30 3162 H 302.48 1.54922 2.51164 0
M  V30 3163 H 302.561 2.37543 0.949059 0
M  V30 3164 H 302.205 4.60791 2.13621 0
M  V30 3165 H 302.135 3.75069 3.69636 0
M  V30 3166 H 304.626 2.95947 2.34997 0
M  V30 3167 H 304.939 6.42107 4.30022 0
M  V30 3168 H 303.284 5.77077 3.87308 0
M  V30 3169 H 306.475 3.71766 2.84443 0
M  V30 3170 H 306.648 5.29604 3.73394 0
M  V30 3171 N 300.054 -1.07777 1.14986 0
M  V30 3172 C 301.282 -1.84018 0.945773 0
M  V30 3173 C 301.697 -1.81897 -0.505863 0
M  V30 3174 O 301.054 -1.22726 -1.35072 0
M  V30 3175 C 301.105 -3.31287 1.44677 0
M  V30 3176 O 300.826 -3.33449 2.84154 0
M  V30 3177 C 302.327 -4.24311 1.28355 0
M  V30 3178 H 299.547 -0.580716 0.336169 0
M  V30 3179 H 302.091 -1.36077 1.52654 0
M  V30 3180 H 300.246 -3.76594 0.908625 0
M  V30 3181 H 300.66 -4.25427 3.06777 0
M  V30 3182 H 302.134 -5.2573 1.68261 0
M  V30 3183 H 302.611 -4.38612 0.227184 0
M  V30 3184 H 303.217 -3.84836 1.81056 0
M  V30 3185 N 301.532 -0.945985 -1.26051 0
M  V30 3186 C 302.762 -0.612136 -1.97323 0
M  V30 3187 C 303.17 0.818171 -1.70595 0
M  V30 3188 O 302.513 1.55777 -0.973613 0
M  V30 3189 C 302.575 -0.780347 -3.50929 0
M  V30 3190 C 302.239 -2.18619 -4.01317 0
M  V30 3191 C 303.236 -3.16209 -4.12683 0
M  V30 3192 C 300.921 -2.50805 -4.35203 0
M  V30 3193 C 302.915 -4.44085 -4.57238 0
M  V30 3194 C 300.602 -3.78912 -4.79446 0
M  V30 3195 C 301.6 -4.75365 -4.90425 0
M  V30 3196 O 301.288 -6.01191 -5.3369 0
M  V30 3197 H 301.02 -0.229134 -0.635982 0
M  V30 3198 H 303.574 -1.27036 -1.61404 0
M  V30 3199 H 301.804 -0.0649864 -3.86645 0
M  V30 3200 H 303.493 -0.448842 -4.03411 0
M  V30 3201 H 304.259 -2.92668 -3.86744 0
M  V30 3202 H 300.138 -1.76463 -4.2589 0
M  V30 3203 H 303.682 -5.19373 -4.65723 0
M  V30 3204 H 299.579 -4.02265 -5.0483 0
M  V30 3205 H 300.347 -6.04442 -5.51899 0
M  V30 3206 N 303.011 1.40521 -0.713556 0
M  V30 3207 C 304.257 2.01221 -0.252564 0
M  V30 3208 C 304.59 1.56444 1.1506 0
M  V30 3209 O 303.865 0.783597 1.78017 0
M  V30 3210 C 304.148 3.58582 -0.330332 0
M  V30 3211 C 304.001 4.13437 -1.77173 0
M  V30 3212 C 305.32 4.39079 0.299641 0
M  V30 3213 H 302.439 0.731077 -0.0932471 0
M  V30 3214 H 305.081 1.67026 -0.905673 0
M  V30 3215 H 303.231 3.87844 0.225737 0
M  V30 3216 H 304.903 3.9498 -2.38303 0
M  V30 3217 H 303.146 3.67801 -2.3001 0
M  V30 3218 H 303.817 5.22597 -1.77755 0
M  V30 3219 H 306.293 4.15735 -0.174139 0
M  V30 3220 H 305.169 5.4848 0.214771 0
M  V30 3221 H 305.43 4.19915 1.38288 0
M  V30 3222 N 304.489 0.459591 1.5075 0
M  V30 3223 C 305.717 -0.0973749 2.06671 0
M  V30 3224 C 306.132 -1.34524 1.32472 0
M  V30 3225 O 305.489 -1.7827 0.390634 0
M  V30 3226 C 305.54 -0.39714 3.59312 0
M  V30 3227 O 305.261 0.801214 4.30711 0
M  V30 3228 C 306.762 -1.00234 4.31819 0
M  V30 3229 H 303.982 0.00195854 0.670997 0
M  V30 3230 H 306.526 0.645072 1.94059 0
M  V30 3231 H 304.681 -1.08951 3.71764 0
M  V30 3232 H 305.095 0.538857 5.21725 0
M  V30 3233 H 306.569 -1.16193 5.39632 0
M  V30 3234 H 307.046 -1.98939 3.91561 0
M  V30 3235 H 307.652 -0.348699 4.23868 0
M  V30 3236 N 305.967 -1.56429 0.191757 0
M  V30 3237 C 307.213 -1.98541 -0.441943 0
M  V30 3238 C 307.568 -1.07646 -1.59468 0
M  V30 3239 O 306.861 -0.120191 -1.91223 0
M  V30 3240 C 307.055 -3.44449 -0.953384 0
M  V30 3241 C 306.884 -4.49456 0.148262 0
M  V30 3242 C 305.654 -5.01668 0.604781 0
M  V30 3243 C 307.852 -5.05336 0.95602 0
M  V30 3244 N 305.834 -5.90334 1.6846 0
M  V30 3245 C 307.205 -5.9064 1.88531 0
M  V30 3246 C 309.26 -4.87779 0.998811 0
M  V30 3247 C 307.963 -6.60264 2.85383 0
M  V30 3248 C 309.989 -5.58139 1.95537 0
M  V30 3249 C 309.351 -6.43187 2.8721 0
M  V30 3250 H 305.45 -0.771247 -0.129236 0
M  V30 3251 H 308.034 -1.92426 0.296682 0
M  V30 3252 H 306.205 -3.5107 -1.66146 0
M  V30 3253 H 307.937 -3.73533 -1.55741 0
M  V30 3254 H 304.692 -4.73183 0.198736 0
M  V30 3255 H 305.116 -6.39371 2.22561 0
M  V30 3256 H 309.758 -4.21705 0.304048 0
M  V30 3257 H 307.476 -7.25538 3.55837 0
M  V30 3258 H 311.062 -5.46532 1.99484 0
M  V30 3259 H 309.942 -6.96674 3.60022 0
M  V30 3260 N 307.445 0.0818655 -1.57387 0
M  V30 3261 C 308.694 0.781681 -1.85937 0
M  V30 3262 C 309.007 1.79246 -0.782957 0
M  V30 3263 O 310.213 2.54112 -0.955987 0
M  V30 3264 C 308.669 1.44109 -3.29789 0
M  V30 3265 C 308.277 0.469396 -4.45534 0
M  V30 3266 C 310.021 2.12386 -3.67549 0
M  V30 3267 C 307.928 1.13415 -5.80423 0
M  V30 3268 H 306.858 0.295682 -0.693605 0
M  V30 3269 H 309.509 0.0348051 -1.83467 0
M  V30 3270 H 307.891 2.23588 -3.2684 0
M  V30 3271 H 309.065 -0.294856 -4.59856 0
M  V30 3272 H 307.38 -0.108383 -4.16259 0
M  V30 3273 H 309.977 2.62878 -4.65617 0
M  V30 3274 H 310.32 2.91877 -2.96839 0
M  V30 3275 H 310.853 1.39751 -3.72444 0
M  V30 3276 H 307.592 0.379771 -6.54399 0
M  V30 3277 H 307.112 1.8695 -5.69921 0
M  V30 3278 H 308.791 1.65686 -6.25426 0
M  V30 3279 N 308.923 1.53595 0.353017 0
M  V30 3280 C 309.886 1.80232 1.41594 0
M  V30 3281 C 310.886 0.673081 1.46035 0
M  V30 3282 O 312.076 0.941335 1.46576 0
M  V30 3283 C 309.208 1.93578 2.80607 0
M  V30 3284 H 310.401 2.75174 1.19244 0
M  V30 3285 H 307.954 1.44864 0.586872 0
M  V30 3286 H 308.689 1.00746 3.08254 0
M  V30 3287 H 308.474 2.75724 2.78781 0
M  V30 3288 H 309.964 2.15735 3.57558 0
M  V30 3289 N 310.401 -0.613514 1.45168 0
M  V30 3290 C 311.331 -1.7354 1.56225 0
M  V30 3291 C 312.312 -1.64981 0.41414 0
M  V30 3292 O 313.497 -1.83472 0.636526 0
M  V30 3293 C 310.627 -3.12128 1.52295 0
M  V30 3294 C 309.581 -3.35491 2.65762 0
M  V30 3295 C 308.907 -4.74291 2.46885 0
M  V30 3296 C 310.207 -3.26325 4.0781 0
M  V30 3297 H 311.901 -1.64543 2.50132 0
M  V30 3298 H 309.447 -0.790185 1.20383 0
M  V30 3299 H 311.4 -3.90404 1.58628 0
M  V30 3300 H 310.124 -3.2195 0.549139 0
M  V30 3301 H 308.783 -2.59603 2.58847 0
M  V30 3302 H 308.431 -4.80839 1.47657 0
M  V30 3303 H 308.131 -4.9088 3.22972 0
M  V30 3304 H 309.655 -5.54775 2.55063 0
M  V30 3305 H 311.069 -3.94483 4.16 0
M  V30 3306 H 309.466 -3.54445 4.8424 0
M  V30 3307 H 310.536 -2.23855 4.30136 0
M  V30 3308 N 311.879 -1.3236 -0.855495 0
M  V30 3309 C 312.812 -1.15559 -1.96777 0
M  V30 3310 C 313.79 -0.0552681 -1.62506 0
M  V30 3311 O 314.974 -0.214419 -1.87277 0
M  V30 3312 C 312.101 -0.768851 -3.29858 0
M  V30 3313 C 311.147 -1.87429 -3.83109 0
M  V30 3314 S 311.98 -3.48243 -4.06801 0
M  V30 3315 C 313.136 -3.11539 -5.42858 0
M  V30 3316 H 313.369 -2.09717 -2.10727 0
M  V30 3317 H 310.902 -1.17011 -1.00737 0
M  V30 3318 H 312.86 -0.55248 -4.06765 0
M  V30 3319 H 311.521 0.153857 -3.13723 0
M  V30 3320 H 310.714 -1.55667 -4.79358 0
M  V30 3321 H 310.316 -2.04647 -3.13042 0
M  V30 3322 H 312.608 -2.61331 -6.2507 0
M  V30 3323 H 313.551 -4.06806 -5.79582 0
M  V30 3324 H 313.959 -2.48582 -5.06821 0
M  V30 3325 N 313.357 1.07166 -1.15556 0
M  V30 3326 C 314.603 1.80065 -0.932984 0
M  V30 3327 C 314.936 1.86586 0.53845 0
M  V30 3328 O 314.211 1.35098 1.39924 0
M  V30 3329 C 314.494 3.25022 -1.55025 0
M  V30 3330 C 314.347 3.26634 -3.09242 0
M  V30 3331 C 315.666 4.22341 -1.2376 0
M  V30 3332 H 312.785 0.653697 -0.340366 0
M  V30 3333 H 315.427 1.25389 -1.4275 0
M  V30 3334 H 313.577 3.71712 -1.12972 0
M  V30 3335 H 315.249 2.88173 -3.60214 0
M  V30 3336 H 313.492 2.65539 -3.43033 0
M  V30 3337 H 314.163 4.28854 -3.47546 0
M  V30 3338 H 316.639 3.8405 -1.60139 0
M  V30 3339 H 315.515 5.22053 -1.69564 0
M  V30 3340 H 315.776 4.41828 -0.154938 0
M  V30 3341 N 314.835 0.952656 1.25548 0
M  V30 3342 C 316.082 0.606373 1.93208 0
M  V30 3343 C 316.41 -0.85631 1.74636 0
M  V30 3344 O 315.665 -1.62951 1.08376 0
M  V30 3345 C 315.964 0.908818 3.45652 0
M  V30 3346 C 315.63 2.35722 3.84378 0
M  V30 3347 C 314.292 2.75312 3.9466 0
M  V30 3348 C 316.644 3.29793 4.03591 0
M  V30 3349 C 313.972 4.08047 4.21562 0
M  V30 3350 C 316.324 4.62138 4.31985 0
M  V30 3351 C 314.988 5.01528 4.40484 0
M  V30 3352 H 314.258 0.221888 0.706998 0
M  V30 3353 H 316.905 1.20132 1.49133 0
M  V30 3354 H 315.21 0.231456 3.91116 0
M  V30 3355 H 316.907 0.619498 3.96186 0
M  V30 3356 H 313.497 2.04017 3.76928 0
M  V30 3357 H 317.681 3.00397 3.95064 0
M  V30 3358 H 312.937 4.38212 4.26357 0
M  V30 3359 H 317.111 5.35012 4.45797 0
M  V30 3360 H 314.738 6.04406 4.61083 0
M  V30 3361 N 316.313 -1.40141 0.720998 0
M  V30 3362 C 317.559 -2.01084 0.263231 0
M  V30 3363 C 317.892 -1.57052 -1.14229 0
M  V30 3364 O 317.167 -0.793027 -1.77599 0
M  V30 3365 C 317.45 -3.58401 0.349344 0
M  V30 3366 C 317.303 -4.12491 1.79363 0
M  V30 3367 C 318.622 -4.39231 -0.276351 0
M  V30 3368 H 315.741 -0.730572 0.0971228 0
M  V30 3369 H 318.383 -1.66543 0.914518 0
M  V30 3370 H 316.533 -3.87958 -0.205165 0
M  V30 3371 H 318.205 -3.93711 2.40394 0
M  V30 3372 H 316.448 -3.66576 2.31958 0
M  V30 3373 H 317.119 -5.21646 1.80524 0
M  V30 3374 H 319.595 -4.15637 0.196184 0
M  V30 3375 H 318.471 -5.48586 -0.185681 0
M  V30 3376 H 318.732 -4.20643 -1.36059 0
M  V30 3377 N 317.792 -0.46758 -1.50504 0
M  V30 3378 C 318.755 0.317059 -2.26996 0
M  V30 3379 C 319.755 0.923513 -1.31635 0
M  V30 3380 O 320.945 0.793239 -1.55091 0
M  V30 3381 C 318.077 1.45134 -3.08462 0
M  V30 3382 H 319.27 -0.353723 -2.97807 0
M  V30 3383 H 316.823 -0.221545 -1.54722 0
M  V30 3384 H 317.558 2.15728 -2.4214 0
M  V30 3385 H 317.343 1.02232 -3.78538 0
M  V30 3386 H 318.833 2.00493 -3.66323 0
M  V30 3387 N 319.27 1.56325 -0.20005 0
M  V30 3388 C 320.681 1.8408 0.31167 0
M  V30 3389 C 321.032 1.12087 1.61031 0
M  V30 3390 O 320.157 0.38332 2.12978 0
M  V30 3391 C 320.752 3.33932 0.57226 0
M  V30 3392 C 319.311 3.6208 1.02834 0
M  V30 3393 C 318.458 2.77186 0.079634 0
M  V30 3394 H 321.409 1.52939 -0.423729 0
M  V30 3395 H 321.43 3.52971 1.42096 0
M  V30 3396 H 320.942 3.86303 -0.37308 0
M  V30 3397 H 319.043 3.15147 1.98778 0
M  V30 3398 H 319.156 4.7023 0.917624 0
M  V30 3399 H 317.52 2.47951 0.582448 0
M  V30 3400 H 318.303 3.32347 -0.860238 0
M  V30 3401 N 320.748 -0.0735177 1.57428 0
M  V30 3402 C 321.976 -0.785969 1.9139 0
M  V30 3403 C 322.391 -1.71207 0.795847 0
M  V30 3404 O 321.748 -1.81033 -0.230915 0
M  V30 3405 C 321.799 -1.58107 3.25091 0
M  V30 3406 O 321.52 -0.6922 4.32597 0
M  V30 3407 C 323.021 -2.39467 3.73055 0
M  V30 3408 H 320.241 -0.223558 0.632663 0
M  V30 3409 H 322.785 -0.044302 2.04452 0
M  V30 3410 H 320.94 -2.27503 3.13562 0
M  V30 3411 H 321.354 -1.24504 5.09508 0
M  V30 3412 H 322.828 -2.90716 4.69242 0
M  V30 3413 H 323.305 -3.18913 3.01979 0
M  V30 3414 H 323.911 -1.7523 3.87523 0
M  V30 3415 N 322.226 -1.5378 -0.344866 0
M  V30 3416 C 323.156 -1.84662 -1.42906 0
M  V30 3417 C 324.137 -0.701648 -1.54955 0
M  V30 3418 O 325.322 -0.953438 -1.69184 0
M  V30 3419 C 322.452 -2.05503 -2.79974 0
M  V30 3420 C 321.406 -3.21318 -2.82734 0
M  V30 3421 C 320.732 -3.2749 -4.22675 0
M  V30 3422 C 322.032 -4.59456 -2.48389 0
M  V30 3423 H 323.726 -2.75461 -1.17311 0
M  V30 3424 H 321.272 -1.32542 -0.562896 0
M  V30 3425 H 323.225 -2.25691 -3.55867 0
M  V30 3426 H 321.949 -1.11434 -3.07002 0
M  V30 3427 H 320.608 -3.00984 -2.09294 0
M  V30 3428 H 320.256 -2.31019 -4.4681 0
M  V30 3429 H 319.956 -4.05316 -4.25433 0
M  V30 3430 H 321.48 -3.49887 -5.00412 0
M  V30 3431 H 322.894 -4.79667 -3.13995 0
M  V30 3432 H 321.291 -5.39675 -2.62432 0
M  V30 3433 H 322.361 -4.63155 -1.4358 0
M  V30 3434 N 323.704 0.605807 -1.45491 0
M  V30 3435 C 324.952 1.36207 -1.49305 0
M  V30 3436 C 325.273 1.94519 -0.136863 0
M  V30 3437 O 324.543 1.77261 0.833983 0
M  V30 3438 H 323.123 0.50565 -0.549843 0
M  V30 3439 H 325.785 0.711239 -1.81459 0
M  V30 3440 H 324.881 2.18058 -2.23287 0
M  V30 3441 N 325.182 1.32811 0.848464 0
M  V30 3442 C 326.431 1.23075 1.59798 0
M  V30 3443 C 326.744 -0.204419 1.94529 0
M  V30 3444 O 327.95 -0.423701 2.68173 0
M  V30 3445 C 326.406 2.15594 2.88179 0
M  V30 3446 C 326.014 3.64228 2.60849 0
M  V30 3447 C 327.758 2.14709 3.66197 0
M  V30 3448 C 325.665 4.48689 3.85269 0
M  V30 3449 H 324.595 0.457091 0.599653 0
M  V30 3450 H 327.246 1.57813 0.936342 0
M  V30 3451 H 325.628 1.73778 3.55833 0
M  V30 3452 H 326.802 4.14424 2.01467 0
M  V30 3453 H 325.117 3.67306 1.96151 0
M  V30 3454 H 327.714 2.75046 4.58534 0
M  V30 3455 H 328.057 1.13966 4.00397 0
M  V30 3456 H 328.59 2.54837 3.05455 0
M  V30 3457 H 325.329 5.5027 3.56207 0
M  V30 3458 H 324.849 4.03241 4.44024 0
M  V30 3459 H 326.528 4.62006 4.52946 0
M  V30 3460 N 326.66 -1.06551 1.16123 0
M  V30 3461 C 327.623 -2.12132 0.867906 0
M  V30 3462 C 328.623 -1.60224 -0.135944 0
M  V30 3463 O 329.813 -1.73943 0.0946422 0
M  V30 3464 C 326.945 -3.396 0.297419 0
M  V30 3465 H 328.138 -2.39586 1.80385 0
M  V30 3466 H 325.691 -1.22574 0.969812 0
M  V30 3467 H 326.426 -3.17794 -0.64633 0
M  V30 3468 H 326.211 -3.78581 1.02073 0
M  V30 3469 H 327.701 -4.17455 0.110052 0
M  V30 3470 N 328.138 -0.959301 -1.25041 0
M  V30 3471 C 329.101 -0.487677 -2.23952 0
M  V30 3472 C 330.101 0.41119 -1.55454 0
M  V30 3473 O 331.291 0.207825 -1.72956 0
M  V30 3474 C 328.423 0.294807 -3.39623 0
M  V30 3475 H 329.616 -1.36198 -2.67189 0
M  V30 3476 H 327.169 -0.743042 -1.37508 0
M  V30 3477 H 327.904 1.18658 -3.01813 0
M  V30 3478 H 327.689 -0.35012 -3.90534 0
M  V30 3479 H 329.179 0.614089 -4.1306 0
M  V30 3480 N 329.616 1.39756 -0.72842 0
M  V30 3481 C 330.856 2.025 -0.278078 0
M  V30 3482 C 331.22 1.5654 1.11173 0
M  V30 3483 O 332.421 2.11435 1.65978 0
M  V30 3484 C 330.692 3.55489 -0.369139 0
M  V30 3485 S 332.251 4.388 0.00232983 0
M  V30 3486 H 329.069 0.702534 -0.109391 0
M  V30 3487 H 331.671 1.70672 -0.95348 0
M  V30 3488 H 330.375 3.86429 -1.38204 0
M  V30 3489 H 329.906 3.92061 0.324308 0
M  V30 3490 H 331.921 4.80954 1.22055 0
M  V30 3491 N 331.094 0.475555 1.50254 0
M  V30 3492 C 332.026 -0.352649 2.26471 0
M  V30 3493 C 333.039 -0.953165 1.3198 0
M  V30 3494 O 334.228 -0.840815 1.57457 0
M  V30 3495 C 331.328 -1.50902 3.0345 0
M  V30 3496 C 330.501 -1.02047 4.25329 0
M  V30 3497 C 329.56 -2.05142 4.84565 0
M  V30 3498 O 328.586 -1.63023 5.45355 0
M  V30 3499 N 329.788 -3.37987 4.71959 0
M  V30 3500 H 332.553 0.300767 2.98187 0
M  V30 3501 H 330.114 0.306598 1.5897 0
M  V30 3502 H 332.106 -2.19572 3.39956 0
M  V30 3503 H 330.676 -2.06705 2.34504 0
M  V30 3504 H 329.896 -0.159507 3.93877 0
M  V30 3505 H 331.184 -0.672061 5.04342 0
M  V30 3506 H 330.582 -3.74913 4.23623 0
M  V30 3507 H 329.139 -4.02443 5.12721 0
M  V30 3508 N 332.573 -1.56217 0.208337 0
M  V30 3509 C 333.819 -1.98242 -0.427552 0
M  V30 3510 C 334.152 -1.09554 -1.60348 0
M  V30 3511 O 333.427 -0.15035 -1.93918 0
M  V30 3512 C 333.71 -3.4931 -0.874907 0
M  V30 3513 C 333.563 -4.48773 0.303751 0
M  V30 3514 C 334.882 -4.04424 -1.73577 0
M  V30 3515 H 332.001 -0.720744 -0.153936 0
M  V30 3516 H 334.643 -1.87586 0.30192 0
M  V30 3517 H 332.793 -3.58522 -1.49648 0
M  V30 3518 H 334.465 -4.51586 0.941682 0
M  V30 3519 H 332.708 -4.23194 0.953375 0
M  V30 3520 H 333.379 -5.51976 -0.0519883 0
M  V30 3521 H 335.855 -3.98075 -1.21143 0
M  V30 3522 H 334.731 -5.1047 -2.01771 0
M  V30 3523 H 334.992 -3.50494 -2.69456 0
M  V30 3524 N 334.051 0.0651679 -1.57465 0
M  V30 3525 C 334.981 1.07693 -2.07182 0
M  V30 3526 C 335.962 1.39962 -0.966673 0
M  V30 3527 O 337.147 1.49475 -1.2398 0
M  V30 3528 C 334.277 2.3885 -2.52127 0
M  V30 3529 C 333.231 2.20917 -3.66579 0
M  V30 3530 C 332.557 3.57515 -3.97601 0
M  V30 3531 C 333.857 1.62493 -4.9638 0
M  V30 3532 H 335.551 0.663199 -2.91962 0
M  V30 3533 H 333.097 0.317569 -1.40455 0
M  V30 3534 H 335.05 3.09928 -2.85522 0
M  V30 3535 H 333.774 2.82215 -1.64384 0
M  V30 3536 H 332.433 1.52279 -3.33477 0
M  V30 3537 H 332.081 3.98463 -3.06979 0
M  V30 3538 H 331.781 3.46353 -4.74672 0
M  V30 3539 H 333.305 4.30013 -4.33499 0
M  V30 3540 H 334.719 2.23445 -5.27963 0
M  V30 3541 H 333.116 1.62009 -5.77818 0
M  V30 3542 H 334.186 0.587041 -4.81333 0
M  V30 3543 N 335.529 1.53961 0.336706 0
M  V30 3544 C 336.778 1.70751 1.07363 0
M  V30 3545 C 337.091 0.481061 1.89592 0
M  V30 3546 O 338.297 0.530046 2.66276 0
M  V30 3547 C 336.753 3.01965 1.95818 0
M  V30 3548 C 336.361 4.31971 1.18764 0
M  V30 3549 C 338.105 3.28121 2.69327 0
M  V30 3550 C 336.012 5.54255 2.06289 0
M  V30 3551 H 334.942 0.636292 0.404535 0
M  V30 3552 H 337.593 1.80459 0.332681 0
M  V30 3553 H 335.975 2.86132 2.7376 0
M  V30 3554 H 337.149 4.5853 0.456849 0
M  V30 3555 H 335.464 4.12481 0.569946 0
M  V30 3556 H 338.061 4.16673 3.35094 0
M  V30 3557 H 338.404 2.45426 3.36261 0
M  V30 3558 H 338.937 3.44762 1.98454 0
M  V30 3559 H 335.676 6.39513 1.43885 0
M  V30 3560 H 335.196 5.31935 2.77138 0
M  V30 3561 H 336.875 5.90159 2.65182 0
M  V30 3562 N 337.007 -0.598083 1.45811 0
M  V30 3563 C 338.254 -1.35681 1.50323 0
M  V30 3564 C 338.582 -1.9393 0.148739 0
M  V30 3565 O 337.837 -1.76094 -0.853787 0
M  V30 3566 C 338.136 -2.51669 2.53766 0
M  V30 3567 C 337.802 -2.11508 3.98215 0
M  V30 3568 C 336.464 -2.0027 4.37545 0
M  V30 3569 C 338.816 -1.80308 4.89018 0
M  V30 3570 C 336.144 -1.56067 5.65562 0
M  V30 3571 C 338.496 -1.37589 6.17456 0
M  V30 3572 C 337.16 -1.24916 6.55708 0
M  V30 3573 H 336.43 -0.496492 0.550069 0
M  V30 3574 H 339.077 -0.675052 1.79207 0
M  V30 3575 H 337.382 -3.25225 2.18486 0
M  V30 3576 H 339.079 -3.09895 2.54492 0
M  V30 3577 H 335.669 -2.21185 3.67117 0
M  V30 3578 H 339.853 -1.87884 4.59362 0
M  V30 3579 H 335.109 -1.44886 5.93985 0
M  V30 3580 H 339.283 -1.12495 6.87254 0
M  V30 3581 H 336.91 -0.904386 7.54801 0
M  V30 3582 N 338.485 -1.33259 -0.841409 0
M  V30 3583 C 339.901 -1.12538 -1.13169 0
M  V30 3584 C 340.101 0.0854037 -2.01319 0
M  V30 3585 O 339.157 0.766417 -2.40587 0
M  V30 3586 C 340.47 -2.41156 -1.79623 0
M  V30 3587 C 342.018 -2.47038 -1.922 0
M  V30 3588 C 342.493 -3.7561 -2.6207 0
M  V30 3589 N 343.984 -3.76667 -2.69585 0
M  V30 3590 C 344.719 -4.72861 -3.2433 0
M  V30 3591 N 344.215 -5.79428 -3.79783 0
M  V30 3592 N 346.008 -4.6034 -3.22558 0
M  V30 3593 H 338.159 -2.10868 -0.254676 0
M  V30 3594 H 340.422 -0.931615 -0.175493 0
M  V30 3595 H 340.128 -3.29747 -1.22311 0
M  V30 3596 H 340.002 -2.53114 -2.79666 0
M  V30 3597 H 342.389 -1.58898 -2.48667 0
M  V30 3598 H 342.47 -2.39022 -0.911148 0
M  V30 3599 H 342.114 -4.64131 -2.06263 0
M  V30 3600 H 342.044 -3.80902 -3.63622 0
M  V30 3601 H 344.535 -2.99648 -2.30259 0
M  V30 3602 H 344.848 -6.48867 -4.19752 0
M  V30 3603 H 343.193 -5.83166 -3.78078 0
M  V30 3604 H 346.384 -3.76244 -2.78492 0
M  V30 3605 H 346.557 -5.35478 -3.64921 0
M  V30 3606 N 339.963 1.05934 -1.16686 0
M  V30 3607 C 340.873 2.17014 -0.891183 0
M  V30 3608 C 341.889 1.73453 0.137907 0
M  V30 3609 O 343.065 2.01361 -0.039592 0
M  V30 3610 C 340.13 3.44384 -0.400099 0
M  V30 3611 C 339.191 4.02433 -1.49486 0
M  V30 3612 C 338.424 5.23723 -1.02711 0
M  V30 3613 O 338.647 5.7027 0.121716 0
M  V30 3614 O 337.581 5.7382 -1.81699 0
M  V30 3615 H 341.407 2.43113 -1.82015 0
M  V30 3616 H 338.992 1.15541 -0.947132 0
M  V30 3617 H 340.874 4.21189 -0.133392 0
M  V30 3618 H 339.549 3.19802 0.500817 0
M  V30 3619 H 338.456 3.27102 -1.81535 0
M  V30 3620 H 339.789 4.31317 -2.37121 0
M  V30 3621 N 341.441 0.965919 1.2453 0
M  V30 3622 C 342.69 0.622437 1.91856 0
M  V30 3623 C 343.003 -0.846006 1.76358 0
M  V30 3624 O 344.209 -1.29993 2.38357 0
M  V30 3625 C 342.665 1.0626 3.43856 0
M  V30 3626 C 342.273 2.55437 3.68043 0
M  V30 3627 C 344.017 0.792183 4.17043 0
M  V30 3628 C 341.924 2.93196 5.13605 0
M  V30 3629 H 340.854 0.229092 0.718354 0
M  V30 3630 H 343.505 1.17189 1.41206 0
M  V30 3631 H 341.887 0.441476 3.93531 0
M  V30 3632 H 343.061 3.22665 3.28974 0
M  V30 3633 H 341.376 2.8007 3.08139 0
M  V30 3634 H 343.973 1.05031 5.24283 0
M  V30 3635 H 344.316 -0.271584 4.15413 0
M  V30 3636 H 344.849 1.37419 3.73311 0
M  V30 3637 H 341.588 3.98636 5.20355 0
M  V30 3638 H 341.108 2.30651 5.53679 0
M  V30 3639 H 342.787 2.83004 5.81823 0
M  V30 3640 N 342.919 -1.39368 0.735821 0
M  V30 3641 C 343.869 -2.27885 0.0724287 0
M  V30 3642 C 344.853 -1.44301 -0.711756 0
M  V30 3643 O 346.045 -1.67206 -0.58063 0
M  V30 3644 C 343.174 -3.33029 -0.833454 0
M  V30 3645 C 342.26 -4.24078 -0.0433749 0
M  V30 3646 N 342.651 -4.96138 0.983903 0
M  V30 3647 C 340.949 -4.45164 -0.272905 0
M  V30 3648 C 341.65 -5.63069 1.4604 0
M  V30 3649 N 340.626 -5.37991 0.778857 0
M  V30 3650 H 344.428 -2.81052 0.859467 0
M  V30 3651 H 341.942 -1.5206 0.570227 0
M  V30 3652 H 343.939 -3.95311 -1.32419 0
M  V30 3653 H 342.599 -2.81421 -1.61964 0
M  V30 3654 H 343.61 -4.9958 1.36528 0
M  V30 3655 H 340.287 -4.04497 -1.03383 0
M  V30 3656 H 341.677 -6.30755 2.31511 0
M  V30 3657 N 344.397 -0.483516 -1.5 0
M  V30 3658 C 345.36 0.292965 -2.2732 0
M  V30 3659 C 346.36 0.909499 -1.32608 0
M  V30 3660 O 347.55 0.776745 -1.55924 0
M  V30 3661 C 344.682 1.41854 -3.09984 0
M  V30 3662 H 345.875 -0.385289 -2.97415 0
M  V30 3663 H 343.428 -0.237942 -1.54478 0
M  V30 3664 H 344.163 2.13148 -2.44414 0
M  V30 3665 H 343.948 0.982114 -3.79601 0
M  V30 3666 H 345.438 1.96597 -3.68429 0
M  V30 3667 N 345.875 1.56104 -0.216619 0
M  V30 3668 C 347.1 2.0301 0.424462 0
M  V30 3669 C 347.525 1.0955 1.52907 0
M  V30 3670 O 346.883 0.0827914 1.81111 0
M  V30 3671 C 346.931 3.4819 0.937883 0
M  V30 3672 O 346.035 3.57865 2.04955 0
M  V30 3673 H 345.376 0.656925 0.0966755 0
M  V30 3674 H 347.906 2.01859 -0.33381 0
M  V30 3675 H 347.916 3.88413 1.24897 0
M  V30 3676 H 346.591 4.15699 0.129387 0
M  V30 3677 H 345.168 3.29527 1.74546 0
M  V30 3678 N 347.353 -0.0568162 1.57498 0
M  V30 3679 C 348.283 -1.06593 2.0775 0
M  V30 3680 C 349.264 -1.39448 0.974082 0
M  V30 3681 O 350.449 -1.48815 1.24771 0
M  V30 3682 C 347.579 -2.37509 2.5339 0
M  V30 3683 C 346.533 -2.1897 3.67745 0
M  V30 3684 C 345.859 -3.55402 3.99492 0
M  V30 3685 C 347.159 -1.59859 4.97235 0
M  V30 3686 H 348.853 -0.647706 2.9231 0
M  V30 3687 H 346.399 -0.310116 1.40621 0
M  V30 3688 H 348.352 -3.08409 2.87162 0
M  V30 3689 H 347.076 -2.8134 1.65878 0
M  V30 3690 H 345.735 -1.50508 3.3428 0
M  V30 3691 H 345.383 -3.9683 3.09088 0
M  V30 3692 H 345.083 -3.43831 4.76502 0
M  V30 3693 H 346.607 -4.27708 4.35773 0
M  V30 3694 H 348.021 -2.20642 5.29141 0
M  V30 3695 H 346.418 -1.58942 5.78669 0
M  V30 3696 H 347.488 -0.561506 4.81638 0
M  V30 3697 N 348.832 -1.54138 -0.328536 0
M  V30 3698 C 350.078 -1.7236 -1.06865 0
M  V30 3699 C 350.411 -0.493231 -1.87832 0
M  V30 3700 O 349.686 0.5098 -1.877 0
M  V30 3701 C 349.969 -2.99621 -1.99747 0
M  V30 3702 C 349.822 -4.32899 -1.22143 0
M  V30 3703 C 351.141 -3.22615 -2.99345 0
M  V30 3704 H 348.26 -0.627151 -0.387105 0
M  V30 3705 H 350.902 -1.86827 -0.345767 0
M  V30 3706 H 349.052 -2.87418 -2.61387 0
M  V30 3707 H 350.724 -4.56978 -0.630017 0
M  V30 3708 H 348.967 -4.30628 -0.523628 0
M  V30 3709 H 349.638 -5.18154 -1.90318 0
M  V30 3710 H 352.114 -3.34248 -2.47826 0
M  V30 3711 H 350.99 -4.13027 -3.61524 0
M  V30 3712 H 351.251 -2.3961 -3.71536 0
M  V30 3713 N 350.31 0.590341 -1.46126 0
M  V30 3714 C 351.721 1.17243 -1.45296 0
M  V30 3715 C 352.072 1.95281 -0.189723 0
M  V30 3716 O 351.197 2.04502 0.707674 0
M  V30 3717 C 351.792 2.13284 -2.6324 0
M  V30 3718 C 350.351 2.66832 -2.65476 0
M  V30 3719 C 349.498 1.42557 -2.3785 0
M  V30 3720 H 352.449 0.378692 -1.54116 0
M  V30 3721 H 352.47 2.96619 -2.38323 0
M  V30 3722 H 351.982 1.56459 -3.55165 0
M  V30 3723 H 350.083 3.27548 -1.77603 0
M  V30 3724 H 350.196 3.10088 -3.65215 0
M  V30 3725 H 348.56 1.72107 -1.87753 0
M  V30 3726 H 349.343 0.875741 -3.31942 0
M  V30 3727 N 351.788 1.33704 0.83433 0
M  V30 3728 C 353.036 1.25169 1.58673 0
M  V30 3729 C 353.357 -0.18127 1.94156 0
M  V30 3730 O 352.627 -1.11113 1.6134 0
M  V30 3731 H 351.207 0.4603 0.58833 0
M  V30 3732 H 353.869 1.67478 0.996847 0
M  V30 3733 H 352.965 1.84856 2.51465 0
M  V30 3734 N 353.266 -1.05314 1.17247 0
M  V30 3735 C 354.677 -1.59753 0.96623 0
M  V30 3736 C 355.028 -1.9005 -0.487378 0
M  V30 3737 O 354.153 -1.68126 -1.36245 0
M  V30 3738 C 354.748 -2.90249 1.74759 0
M  V30 3739 C 353.307 -3.41352 1.58606 0
M  V30 3740 C 352.454 -2.15103 1.75002 0
M  V30 3741 H 355.405 -0.881406 1.31973 0
M  V30 3742 H 355.426 -3.60097 1.22925 0
M  V30 3743 H 354.938 -2.68166 2.8055 0
M  V30 3744 H 353.039 -3.68474 0.552985 0
M  V30 3745 H 353.152 -4.16019 2.37624 0
M  V30 3746 H 351.516 -2.25804 1.17833 0
M  V30 3747 H 352.299 -1.95491 2.82202 0
M  V30 3748 N 354.744 -0.972509 -1.24016 0
M  V30 3749 C 355.969 -0.654417 -1.96805 0
M  V30 3750 C 356.394 0.770398 -1.716 0
M  V30 3751 O 355.752 1.52361 -0.982647 0
M  V30 3752 C 355.8 -0.941031 -3.48105 0
M  V30 3753 O 354.904 -0.0289472 -4.1239 0
M  V30 3754 H 354.245 -0.24692 -0.616382 0
M  V30 3755 H 356.775 -1.30396 -1.57664 0
M  V30 3756 H 356.785 -0.87452 -3.98517 0
M  V30 3757 H 355.46 -1.97939 -3.65777 0
M  V30 3758 H 354.037 -0.149192 -3.72601 0
M  V30 3759 N 356.222 1.38976 -0.743202 0
M  V30 3760 C 357.132 2.3434 -0.110399 0
M  V30 3761 C 358.148 1.58741 0.712559 0
M  V30 3762 O 359.324 1.9099 0.639125 0
M  V30 3763 C 356.389 3.37812 0.780012 0
M  V30 3764 C 355.45 4.29263 -0.0561319 0
M  V30 3765 C 354.683 5.27793 0.791875 0
M  V30 3766 O 354.906 5.33043 2.03031 0
M  V30 3767 O 353.84 6.01512 0.216183 0
M  V30 3768 H 357.666 2.90129 -0.897714 0
M  V30 3769 H 355.251 1.40643 -0.503966 0
M  V30 3770 H 357.133 4.01194 1.28923 0
M  V30 3771 H 355.808 2.84395 1.546 0
M  V30 3772 H 354.715 3.69076 -0.611056 0
M  V30 3773 H 356.048 4.85907 -0.784531 0
M  V30 3774 N 357.7 0.491464 1.49741 0
M  V30 3775 C 359.116 0.146835 1.58923 0
M  V30 3776 C 359.316 -1.34804 1.49767 0
M  V30 3777 O 358.372 -2.12317 1.36667 0
M  V30 3778 C 359.685 0.715157 2.92072 0
M  V30 3779 C 361.233 0.680407 3.05515 0
M  V30 3780 C 361.708 1.22663 4.41269 0
M  V30 3781 N 363.199 1.18691 4.47735 0
M  V30 3782 C 363.934 1.57984 5.51207 0
M  V30 3783 N 363.43 2.04824 6.6183 0
M  V30 3784 N 365.223 1.49459 5.41866 0
M  V30 3785 H 357.374 1.46347 1.53936 0
M  V30 3786 H 359.637 0.606453 0.728642 0
M  V30 3787 H 359.343 1.76317 3.04311 0
M  V30 3788 H 359.217 0.17018 3.76816 0
M  V30 3789 H 361.604 -0.358743 2.92911 0
M  V30 3790 H 361.685 1.26242 2.22478 0
M  V30 3791 H 361.329 2.26451 4.54623 0
M  V30 3792 H 361.259 0.620637 5.2293 0
M  V30 3793 H 363.75 0.843605 3.68364 0
M  V30 3794 H 364.063 2.32901 7.3687 0
M  V30 3795 H 362.408 2.08791 6.62896 0
M  V30 3796 H 365.599 1.12692 4.54333 0
M  V30 3797 H 365.772 1.80406 6.22381 0
M  V30 3798 N 359.178 -1.55987 0.224894 0
M  V30 3799 C 360.589 -1.84553 -0.282345 0
M  V30 3800 C 360.94 -1.14634 -1.59227 0
M  V30 3801 O 360.065 -0.417155 -2.12341 0
M  V30 3802 C 360.66 -3.348 -0.519062 0
M  V30 3803 C 359.219 -3.63671 -0.970604 0
M  V30 3804 C 358.366 -2.77277 -0.0355261 0
M  V30 3805 H 361.317 -1.52245 0.448006 0
M  V30 3806 H 361.338 -3.55187 -1.36463 0
M  V30 3807 H 360.85 -3.8566 0.43449 0
M  V30 3808 H 358.951 -3.1827 -1.9374 0
M  V30 3809 H 359.064 -4.71631 -0.842698 0
M  V30 3810 H 357.428 -2.48846 -0.542927 0
M  V30 3811 H 358.211 -3.30937 0.913003 0
M  V30 3812 N 360.656 0.0484629 -1.57525 0
M  V30 3813 C 361.904 0.741657 -1.88 0
M  V30 3814 C 362.225 1.76918 -0.820054 0
M  V30 3815 O 361.495 1.95335 0.148661 0
M  V30 3816 H 360.075 0.276908 -0.69378 0
M  V30 3817 H 362.737 0.019013 -1.94891 0
M  V30 3818 H 361.833 1.24336 -2.86264 0
M  V30 3819 N 362.134 1.5431 0.320358 0
M  V30 3820 C 363.382 1.72327 1.05583 0
M  V30 3821 C 363.703 0.50149 1.88441 0
M  V30 3822 O 362.973 -0.48448 1.89815 0
M  V30 3823 H 361.553 0.635387 0.3928 0
M  V30 3824 H 364.215 1.91621 0.356019 0
M  V30 3825 H 363.311 2.60426 1.72003 0
M  V30 3826 N 363.613 -0.582584 1.46437 0
M  V30 3827 C 365.029 -0.905962 1.31394 0
M  V30 3828 C 365.229 -1.99468 0.285476 0
M  V30 3829 O 364.285 -2.50566 -0.311914 0
M  V30 3830 C 365.598 -1.3232 2.70022 0
M  V30 3831 C 367.146 -1.43604 2.78113 0
M  V30 3832 C 367.621 -1.88694 4.17323 0
M  V30 3833 N 369.112 -1.95887 4.19741 0
M  V30 3834 C 369.847 -2.32051 5.24347 0
M  V30 3835 N 369.343 -2.67006 6.39281 0
M  V30 3836 N 371.136 -2.32606 5.11713 0
M  V30 3837 H 363.287 0.1366 2.1196 0
M  V30 3838 H 365.55 -0.00155736 0.947999 0
M  V30 3839 H 365.256 -0.597242 3.46592 0
M  V30 3840 H 365.13 -2.28469 3.00136 0
M  V30 3841 H 367.517 -2.15286 2.01832 0
M  V30 3842 H 367.598 -0.457059 2.51684 0
M  V30 3843 H 367.242 -1.1759 4.941 0
M  V30 3844 H 367.172 -2.8755 4.4116 0
M  V30 3845 H 369.663 -1.71362 3.36814 0
M  V30 3846 H 369.976 -2.93554 7.14875 0
M  V30 3847 H 368.321 -2.64644 6.42642 0
M  V30 3848 H 371.512 -2.04721 4.2096 0
M  V30 3849 H 371.685 -2.60462 5.93349 0
M  V30 3850 N 365.091 -1.34144 -0.827227 0
M  V30 3851 C 366.507 -1.13732 -1.11969 0
M  V30 3852 C 366.707 0.0640463 -2.01398 0
M  V30 3853 O 365.763 0.740856 -2.41387 0
M  V30 3854 C 367.076 -2.43047 -1.77055 0
M  V30 3855 C 368.624 -2.49063 -1.89569 0
M  V30 3856 C 369.099 -3.78369 -2.58072 0
M  V30 3857 N 370.59 -3.79505 -2.65575 0
M  V30 3858 C 371.325 -4.76274 -3.19297 0
M  V30 3859 N 370.821 -5.83424 -3.73616 0
M  V30 3860 N 372.614 -4.63735 -3.17658 0
M  V30 3861 H 364.765 -2.11126 -0.232296 0
M  V30 3862 H 367.028 -0.933424 -0.165602 0
M  V30 3863 H 366.734 -3.31025 -1.18807 0
M  V30 3864 H 366.608 -2.56066 -2.76966 0
M  V30 3865 H 368.995 -1.61527 -2.46968 0
M  V30 3866 H 369.076 -2.39975 -0.885745 0
M  V30 3867 H 368.72 -4.66293 -2.01329 0
M  V30 3868 H 368.65 -3.84737 -3.59562 0
M  V30 3869 H 371.141 -3.02074 -2.27068 0
M  V30 3870 H 371.454 -6.53282 -4.12846 0
M  V30 3871 H 369.799 -5.87143 -3.71871 0
M  V30 3872 H 372.99 -3.79177 -2.74486 0
M  V30 3873 H 373.163 -5.39318 -3.59221 0
M  V30 3874 N 366.569 1.04691 -1.17803 0
M  V30 3875 C 367.985 1.29963 -0.926379 0
M  V30 3876 C 368.185 1.97251 0.411635 0
M  V30 3877 O 367.241 2.24922 1.14744 0
M  V30 3878 C 368.554 2.16447 -2.08737 0
M  V30 3879 C 370.102 2.29814 -2.12496 0
M  V30 3880 C 370.577 3.19661 -3.27995 0
M  V30 3881 N 372.068 3.27247 -3.27816 0
M  V30 3882 C 372.803 3.96906 -4.13827 0
M  V30 3883 N 372.299 4.6895 -5.09959 0
M  V30 3884 N 374.092 3.93122 -4.01761 0
M  V30 3885 H 366.243 0.594182 -2.0392 0
M  V30 3886 H 368.506 0.324649 -0.890678 0
M  V30 3887 H 368.212 1.74304 -3.05469 0
M  V30 3888 H 368.086 3.17103 -2.04268 0
M  V30 3889 H 370.473 2.71196 -1.16347 0
M  V30 3890 H 370.554 1.2877 -2.21025 0
M  V30 3891 H 370.198 2.78991 -4.24413 0
M  V30 3892 H 370.128 4.20722 -3.16703 0
M  V30 3893 H 372.619 2.75921 -2.58217 0
M  V30 3894 H 372.932 5.19679 -5.71974 0
M  V30 3895 H 371.277 4.67875 -5.13924 0
M  V30 3896 H 374.468 3.35967 -3.2595 0
M  V30 3897 H 374.641 4.47139 -4.6901 0
M  V30 3898 N 368.047 0.979072 1.23499 0
M  V30 3899 C 369.295 0.645941 1.91499 0
M  V30 3900 C 369.616 -0.822948 1.76784 0
M  V30 3901 O 368.886 -1.58854 1.14639 0
M  V30 3902 H 367.466 0.235919 0.708767 0
M  V30 3903 H 370.128 1.2426 1.50152 0
M  V30 3904 H 369.224 0.896411 2.9895 0
M  V30 3905 N 369.525 -1.3858 0.750561 0
M  V30 3906 C 370.941 -1.53759 0.427824 0
M  V30 3907 C 371.141 -1.71401 -1.05943 0
M  V30 3908 O 370.197 -1.72331 -1.84549 0
M  V30 3909 C 371.51 -2.74642 1.22443 0
M  V30 3910 C 373.058 -2.88489 1.2142 0
M  V30 3911 C 373.533 -4.12329 1.9937 0
M  V30 3912 N 375.024 -4.194 1.96616 0
M  V30 3913 C 375.759 -5.14209 2.53727 0
M  V30 3914 N 375.255 -6.14709 3.19539 0
M  V30 3915 N 377.048 -5.06537 2.43673 0
M  V30 3916 H 369.199 -1.25377 1.71447 0
M  V30 3917 H 371.462 -0.608844 0.726645 0
M  V30 3918 H 371.168 -2.68 2.27747 0
M  V30 3919 H 371.042 -3.67745 0.839273 0
M  V30 3920 H 373.429 -2.94614 0.169232 0
M  V30 3921 H 373.51 -1.96406 1.63885 0
M  V30 3922 H 373.154 -4.06966 3.03877 0
M  V30 3923 H 373.084 -5.03486 1.54302 0
M  V30 3924 H 375.575 -3.47421 1.48684 0
M  V30 3925 H 375.888 -6.8354 3.60545 0
M  V30 3926 H 374.233 -6.1505 3.23633 0
M  V30 3927 H 377.424 -4.26962 1.91889 0
M  V30 3928 H 377.597 -5.80245 2.88479 0
M  V30 3929 N 371.003 -0.499398 -1.49478 0
M  V30 3930 C 372.419 -0.155261 -1.58843 0
M  V30 3931 C 372.619 1.34008 -1.50479 0
M  V30 3932 O 371.675 2.11589 -1.37791 0
M  V30 3933 C 372.988 -0.730636 -2.91689 0
M  V30 3934 C 374.536 -0.696599 -3.0515 0
M  V30 3935 C 375.011 -1.25001 -4.40612 0
M  V30 3936 N 376.502 -1.21064 -4.47099 0
M  V30 3937 C 377.237 -1.60905 -5.50361 0
M  V30 3938 N 376.733 -2.08331 -6.60735 0
M  V30 3939 N 378.526 -1.52331 -5.41065 0
M  V30 3940 H 370.677 -1.47162 -1.53158 0
M  V30 3941 H 372.94 -0.610309 -0.725415 0
M  V30 3942 H 372.646 -1.77928 -3.03372 0
M  V30 3943 H 372.52 -0.190161 -3.7672 0
M  V30 3944 H 374.907 0.343204 -2.93097 0
M  V30 3945 H 374.988 -1.2742 -2.21806 0
M  V30 3946 H 374.632 -2.28859 -4.53416 0
M  V30 3947 H 374.562 -0.64836 -5.22593 0
M  V30 3948 H 377.053 -0.863128 -3.67911 0
M  V30 3949 H 377.366 -2.36805 -7.35624 0
M  V30 3950 H 375.711 -2.12304 -6.6178 0
M  V30 3951 H 378.902 -1.151 -4.53729 0
M  V30 3952 H 379.075 -1.83704 -6.21415 0
M  V30 3953 N 372.481 1.55866 -0.233164 0
M  V30 3954 C 373.709 2.02998 0.399905 0
M  V30 3955 C 374.124 1.11274 1.52524 0
M  V30 3956 O 373.481 0.124528 1.82075 0
M  V30 3957 C 373.532 3.4958 0.920639 0
M  V30 3958 O 373.253 4.37808 -0.159834 0
M  V30 3959 C 374.754 4.12411 1.62578 0
M  V30 3960 H 371.974 0.664006 0.0966281 0
M  V30 3961 H 374.518 2.0143 -0.353013 0
M  V30 3962 H 372.673 3.51727 1.62379 0
M  V30 3963 H 373.087 5.23981 0.23337 0
M  V30 3964 H 374.561 5.16711 1.94201 0
M  V30 3965 H 375.038 3.5809 2.54299 0
M  V30 3966 H 375.644 4.14148 0.967553 0
M  V30 3967 N 373.959 -0.0401083 1.57549 0
M  V30 3968 C 375.207 -0.731677 1.8839 0
M  V30 3969 C 375.528 -1.76481 0.829425 0
M  V30 3970 O 374.798 -1.95411 -0.1383 0
M  V30 3971 H 373.378 -0.273225 0.695239 0
M  V30 3972 H 376.04 -0.00867725 1.94898 0
M  V30 3973 H 375.136 -1.22816 2.86919 0
M  V30 3974 N 375.437 -1.54477 -0.31217 0
M  V30 3975 C 376.662 -1.77526 -1.07235 0
M  V30 3976 C 377.087 -0.527775 -1.80544 0
M  V30 3977 O 376.445 0.52121 -1.73646 0
M  V30 3978 C 376.493 -2.97535 -2.03728 0
M  V30 3979 O 375.597 -2.69878 -3.11833 0
M  V30 3980 H 374.938 -0.58792 -0.30862 0
M  V30 3981 H 377.468 -2.01532 -0.352993 0
M  V30 3982 H 377.478 -3.25198 -2.46395 0
M  V30 3983 H 376.153 -3.87996 -1.49774 0
M  V30 3984 H 374.73 -2.53199 -2.7376 0
M  V30 3985 N 376.915 0.57481 -1.46744 0
M  V30 3986 C 378.326 1.15695 -1.46532 0
M  V30 3987 C 378.677 1.95068 -0.210425 0
M  V30 3988 O 377.802 2.05241 0.685944 0
M  V30 3989 C 378.397 2.1048 -2.65487 0
M  V30 3990 C 376.956 2.64002 -2.68291 0
M  V30 3991 C 376.103 1.40026 -2.39349 0
M  V30 3992 H 379.054 0.362325 -1.54509 0
M  V30 3993 H 379.075 2.94074 -2.41455 0
M  V30 3994 H 378.587 1.52683 -3.56805 0
M  V30 3995 H 376.688 3.25646 -1.81067 0
M  V30 3996 H 376.801 3.06197 -3.68483 0
M  V30 3997 H 375.165 1.70106 -1.89568 0
M  V30 3998 H 375.948 0.840485 -3.32852 0
M  V30 3999 N 378.394 1.34581 0.820102 0
M  V30 4000 C 379.642 1.26845 1.57336 0
M  V30 4001 C 379.963 -0.160667 1.94337 0
M  V30 4002 O 379.233 -1.09396 1.6251 0
M  V30 4003 H 377.813 0.466514 0.583415 0
M  V30 4004 H 380.475 1.68526 0.979027 0
M  V30 4005 H 379.571 1.87513 2.4949 0
M  V30 4006 N 379.872 -1.04064 1.18357 0
M  V30 4007 C 380.782 -2.15569 0.925596 0
M  V30 4008 C 381.798 -1.7365 -0.110295 0
M  V30 4009 O 382.974 -2.01273 0.0716218 0
M  V30 4010 C 380.039 -3.43704 0.454836 0
M  V30 4011 C 379.1 -4.00004 1.55869 0
M  V30 4012 C 378.333 -5.22023 1.1103 0
M  V30 4013 O 378.556 -5.70392 -0.0309756 0
M  V30 4014 O 377.49 -5.70856 1.90805 0
M  V30 4015 H 381.316 -2.40187 1.8586 0
M  V30 4016 H 378.901 -1.1402 0.965394 0
M  V30 4017 H 380.783 -4.20923 0.200382 0
M  V30 4018 H 379.458 -3.20559 -0.449876 0
M  V30 4019 H 378.365 -3.24172 1.86716 0
M  V30 4020 H 379.698 -4.2749 2.43953 0
M  V30 4021 N 381.35 -0.985608 -1.22978 0
M  V30 4022 C 382.598 -0.656087 -1.91154 0
M  V30 4023 C 382.919 0.813561 -1.77218 0
M  V30 4024 O 382.189 1.58244 -1.1548 0
M  V30 4025 H 380.769 -0.239674 -0.707506 0
M  V30 4026 H 383.431 -1.25054 -1.49491 0
M  V30 4027 H 382.527 -0.912253 -2.9847 0
M  V30 4028 N 382.828 1.3818 -0.7579 0
M  V30 4029 C 383.791 2.28764 -0.141286 0
M  V30 4030 C 384.791 1.47388 0.642907 0
M  V30 4031 O 385.981 1.67781 0.468536 0
M  V30 4032 C 383.113 3.31184 0.808069 0
M  V30 4033 H 384.306 2.848 -0.939633 0
M  V30 4034 H 381.859 1.47212 -0.525191 0
M  V30 4035 H 382.594 2.80247 1.63193 0
M  V30 4036 H 382.379 3.91314 0.248104 0
M  V30 4037 H 383.869 3.98909 1.23536 0
M  V30 4038 N 384.306 0.507319 1.49211 0
M  V30 4039 C 385.256 -0.287112 2.26185 0
M  V30 4040 C 386.24 -0.929983 1.31302 0
M  V30 4041 O 387.432 -0.836538 1.55984 0
M  V30 4042 C 384.561 -1.34718 3.15763 0
M  V30 4043 C 383.647 -0.710235 4.18111 0
M  V30 4044 N 384.038 0.190836 5.0544 0
M  V30 4045 C 382.336 -0.97009 4.35322 0
M  V30 4046 C 383.037 0.55606 5.79036 0
M  V30 4047 N 382.013 -0.0775232 5.43545 0
M  V30 4048 H 385.815 0.406445 2.91076 0
M  V30 4049 H 383.329 0.323814 1.59139 0
M  V30 4050 H 385.326 -1.92982 3.69545 0
M  V30 4051 H 383.986 -2.04235 2.52424 0
M  V30 4052 H 384.997 0.562047 5.14841 0
M  V30 4053 H 381.674 -1.65753 3.83187 0
M  V30 4054 H 383.064 1.2936 6.5933 0
M  V30 4055 N 385.784 -1.5574 0.241426 0
M  V30 4056 C 387.03 -1.99104 -0.385406 0
M  V30 4057 C 387.363 -1.1293 -1.57988 0
M  V30 4058 O 386.638 -0.191449 -1.93555 0
M  V30 4059 C 386.921 -3.51087 -0.800616 0
M  V30 4060 C 386.774 -4.48028 0.398874 0
M  V30 4061 C 388.093 -4.08015 -1.64959 0
M  V30 4062 H 385.212 -0.723848 -0.138614 0
M  V30 4063 H 387.854 -1.86903 0.341642 0
M  V30 4064 H 386.004 -3.61615 -1.4201 0
M  V30 4065 H 387.676 -4.49487 1.03726 0
M  V30 4066 H 385.919 -4.21077 1.04293 0
M  V30 4067 H 386.59 -5.51962 0.0651056 0
M  V30 4068 H 389.066 -4.00555 -1.12672 0
M  V30 4069 H 387.942 -5.14635 -1.90898 0
M  V30 4070 H 388.203 -3.56131 -2.61961 0
M  V30 4071 N 387.262 0.0317525 -1.57568 0
M  V30 4072 C 388.487 0.738664 -1.938 0
M  V30 4073 C 388.912 1.68242 -0.841208 0
M  V30 4074 O 388.27 1.80157 0.203267 0
M  V30 4075 C 388.318 1.47417 -3.29091 0
M  V30 4076 O 387.422 2.5872 -3.2115 0
M  V30 4077 H 386.763 0.198856 -0.633524 0
M  V30 4078 H 389.293 -0.0119713 -2.04596 0
M  V30 4079 H 389.303 1.84468 -3.63917 0
M  V30 4080 H 387.978 0.781988 -4.08482 0
M  V30 4081 H 386.555 2.24231 -2.97951 0
M  V30 4082 N 388.74 1.54641 0.303973 0
M  V30 4083 C 389.703 1.84646 1.35789 0
M  V30 4084 C 390.703 0.7192 1.4382 0
M  V30 4085 O 391.893 0.987491 1.43507 0
M  V30 4086 C 389.025 2.02407 2.74307 0
M  V30 4087 H 390.218 2.78829 1.10429 0
M  V30 4088 H 387.771 1.46658 0.540487 0
M  V30 4089 H 388.506 1.10502 3.04893 0
M  V30 4090 H 388.291 2.84453 2.69868 0
M  V30 4091 H 389.781 2.27002 3.50514 0
M  V30 4092 N 390.218 -0.567019 1.47046 0
M  V30 4093 C 391.181 -1.65696 1.58359 0
M  V30 4094 C 392.181 -1.54097 0.459441 0
M  V30 4095 O 393.371 -1.58432 0.724225 0
M  V30 4096 C 390.503 -3.05197 1.51879 0
M  V30 4097 H 391.696 -1.57019 2.5551 0
M  V30 4098 H 389.249 -0.786148 1.3509 0
M  V30 4099 H 389.984 -3.19417 0.560673 0
M  V30 4100 H 389.769 -3.15025 2.33455 0
M  V30 4101 H 391.259 -3.84511 1.62913 0
M  V30 4102 N 391.696 -1.35014 -0.812953 0
M  V30 4103 C 392.942 -1.2812 -1.57204 0
M  V30 4104 C 393.275 0.145869 -1.93651 0
M  V30 4105 O 392.55 1.0937 -1.60836 0
M  V30 4106 C 392.833 -2.18162 -2.86492 0
M  V30 4107 C 392.686 -3.69454 -2.56561 0
M  V30 4108 C 394.005 -2.07439 -3.88145 0
M  V30 4109 H 391.124 -0.466746 -0.570366 0
M  V30 4110 H 393.766 -1.65357 -0.935783 0
M  V30 4111 H 391.916 -1.86535 -3.40789 0
M  V30 4112 H 393.588 -4.11493 -2.08497 0
M  V30 4113 H 391.831 -3.9005 -1.89851 0
M  V30 4114 H 392.502 -4.27835 -3.48799 0
M  V30 4115 H 394.978 -2.35228 -3.4323 0
M  V30 4116 H 393.854 -2.7265 -4.76396 0
M  V30 4117 H 394.115 -1.05439 -4.29343 0
M  V30 4118 N 393.175 1.03435 -1.18907 0
M  V30 4119 C 394.138 2.09756 -0.923844 0
M  V30 4120 C 395.138 1.60528 0.093416 0
M  V30 4121 O 396.328 1.73631 -0.140727 0
M  V30 4122 C 393.46 3.38692 -0.387354 0
M  V30 4123 H 394.653 2.34719 -1.86674 0
M  V30 4124 H 392.206 1.19959 -1.00197 0
M  V30 4125 H 392.941 3.19396 0.561845 0
M  V30 4126 H 392.726 3.75742 -1.12074 0
M  V30 4127 H 394.216 4.17016 -0.220694 0
M  V30 4128 N 394.653 0.992116 1.22453 0
M  V30 4129 C 395.6 0.541731 2.24352 0
M  V30 4130 C 396.57 -0.425519 1.60557 0
M  V30 4131 O 397.755 -0.330453 1.87917 0
M  V30 4132 C 394.895 -0.138248 3.44823 0
M  V30 4133 C 394.008 0.870649 4.23136 0
M  V30 4134 C 393.143 0.164269 5.30946 0
M  V30 4135 C 392.182 1.16159 6.00977 0
M  V30 4136 N 391.319 0.483568 7.00433 0
M  V30 4137 H 396.159 1.41541 2.62241 0
M  V30 4138 H 393.696 0.709013 1.28885 0
M  V30 4139 H 395.654 -0.5494 4.13567 0
M  V30 4140 H 394.284 -0.975721 3.077 0
M  V30 4141 H 393.336 1.40013 3.53696 0
M  V30 4142 H 394.648 1.63014 4.7141 0
M  V30 4143 H 393.802 -0.303653 6.0594 0
M  V30 4144 H 392.541 -0.627733 4.83643 0
M  V30 4145 H 391.546 1.64015 5.24766 0
M  V30 4146 H 392.771 1.95445 6.50368 0
M  V30 4147 H 390.717 -0.289012 6.55363 0
M  V30 4148 H 390.634 1.18152 7.4671 0
M  V30 4149 H 391.902 0.0384219 7.79491 0
M  V30 4150 N 396.131 -1.37776 0.765217 0
M  V30 4151 C 397.359 -2.04124 0.337767 0
M  V30 4152 C 397.774 -1.57715 -1.03785 0
M  V30 4153 O 397.131 -0.755447 -1.6613 0
M  V30 4154 C 397.182 -3.59658 0.364442 0
M  V30 4155 O 396.903 -4.04367 1.68579 0
M  V30 4156 C 398.404 -4.43236 -0.0754221 0
M  V30 4157 H 395.624 -0.655696 0.142491 0
M  V30 4158 H 398.168 -1.76238 1.03732 0
M  V30 4159 H 396.323 -3.86339 -0.286471 0
M  V30 4160 H 396.737 -4.98857 1.61993 0
M  V30 4161 H 398.211 -5.52 -0.00560067 0
M  V30 4162 H 398.688 -4.2455 -1.12491 0
M  V30 4163 H 399.294 -4.21767 0.547055 0
M  V30 4164 N 397.609 -0.515225 -1.4894 0
M  V30 4165 C 398.855 0.0242508 -2.02785 0
M  V30 4166 C 399.188 1.35323 -1.39289 0
M  V30 4167 O 398.463 1.87041 -0.533469 0
M  V30 4168 C 398.746 0.16184 -3.59736 0
M  V30 4169 C 398.599 -1.19127 -4.33738 0
M  V30 4170 C 399.918 0.895719 -4.30888 0
M  V30 4171 H 397.037 0.00733914 -0.736963 0
M  V30 4172 H 399.679 -0.669395 -1.77818 0
M  V30 4173 H 397.829 0.752624 -3.8114 0
M  V30 4174 H 399.501 -1.82202 -4.23792 0
M  V30 4175 H 397.744 -1.77695 -3.95736 0
M  V30 4176 H 398.415 -1.04815 -5.41957 0
M  V30 4177 H 400.891 0.394528 -4.14225 0
M  V30 4178 H 399.767 0.960859 -5.40425 0
M  V30 4179 H 400.028 1.9427 -3.97129 0
M  V30 4180 N 399.087 1.5561 -0.249682 0
M  V30 4181 C 400.503 1.59254 0.105103 0
M  V30 4182 C 400.703 1.26685 1.56694 0
M  V30 4183 O 399.759 1.0155 2.31179 0
M  V30 4184 C 401.072 2.99687 -0.246592 0
M  V30 4185 C 402.62 3.12416 -0.191118 0
M  V30 4186 C 403.095 4.55074 -0.516885 0
M  V30 4187 N 404.586 4.60835 -0.467489 0
M  V30 4188 C 405.321 5.69201 -0.69268 0
M  V30 4189 N 404.817 6.85817 -0.981146 0
M  V30 4190 N 406.61 5.58635 -0.623198 0
M  V30 4191 H 398.761 1.75049 -1.20298 0
M  V30 4192 H 401.024 0.815003 -0.484225 0
M  V30 4193 H 400.73 3.28267 -1.26228 0
M  V30 4194 H 400.604 3.74798 0.424962 0
M  V30 4195 H 402.991 2.83615 0.815247 0
M  V30 4196 H 403.072 2.39573 -0.896563 0
M  V30 4197 H 402.716 4.84596 -1.52082 0
M  V30 4198 H 402.646 5.26181 0.210068 0
M  V30 4199 H 405.137 3.7705 -0.253373 0
M  V30 4200 H 405.45 7.64341 -1.14032 0
M  V30 4201 H 403.795 6.87494 -1.01865 0
M  V30 4202 H 406.986 4.66406 -0.397863 0
M  V30 4203 H 407.159 6.43017 -0.802093 0
M  V30 4204 N 400.565 -0.0233959 1.57583 0
M  V30 4205 C 401.498 -1.05549 2.02323 0
M  V30 4206 C 402.476 -1.34843 0.908626 0
M  V30 4207 O 403.66 -1.47404 1.17491 0
M  V30 4208 C 400.787 -2.38885 2.40108 0
M  V30 4209 C 399.833 -2.2541 3.62067 0
M  V30 4210 S 400.666 -1.60217 5.1097 0
M  V30 4211 C 401.822 -2.95032 5.52003 0
M  V30 4212 H 402.055 -0.674435 2.89549 0
M  V30 4213 H 399.588 -0.23355 1.52623 0
M  V30 4214 H 401.546 -3.15562 2.62547 0
M  V30 4215 H 400.207 -2.74137 1.53323 0
M  V30 4216 H 399.4 -3.23854 3.86179 0
M  V30 4217 H 399.002 -1.56876 3.39508 0
M  V30 4218 H 401.294 -3.91357 5.53033 0
M  V30 4219 H 402.237 -2.75646 6.52246 0
M  V30 4220 H 402.645 -2.97865 4.79517 0
M  V30 4221 N 402.043 -1.548 -0.295768 0
M  V30 4222 C 403.271 -1.78327 -1.04914 0
M  V30 4223 C 403.686 -0.545316 -1.80753 0
M  V30 4224 O 403.043 0.485013 -1.75937 0
M  V30 4225 C 403.094 -2.99418 -2.02561 0
M  V30 4226 O 402.815 -4.18431 -1.29798 0
M  V30 4227 C 404.316 -3.35375 -2.89895 0
M  V30 4228 H 401.536 -0.594618 -0.310918 0
M  V30 4229 H 404.08 -2.01763 -0.333454 0
M  V30 4230 H 402.235 -2.78175 -2.69624 0
M  V30 4231 H 402.649 -4.86736 -1.95419 0
M  V30 4232 H 404.123 -4.23332 -3.54251 0
M  V30 4233 H 404.6 -2.53761 -3.58472 0
M  V30 4234 H 405.206 -3.58796 -2.28355 0
M  V30 4235 N 403.521 0.559213 -1.47345 0
M  V30 4236 C 404.451 1.67622 -1.62558 0
M  V30 4237 C 405.432 1.63331 -0.475087 0
M  V30 4238 O 406.617 1.80983 -0.704182 0
M  V30 4239 C 403.747 3.0626 -1.63774 0
M  V30 4240 C 402.701 3.25397 -2.7803 0
M  V30 4241 C 402.027 4.64801 -2.64318 0
M  V30 4242 C 403.327 3.10965 -4.19641 0
M  V30 4243 H 405.021 1.55146 -2.56067 0
M  V30 4244 H 402.567 0.744961 -1.23233 0
M  V30 4245 H 404.52 3.84247 -1.73008 0
M  V30 4246 H 403.244 3.1969 -0.66825 0
M  V30 4247 H 401.903 2.49817 -2.68304 0
M  V30 4248 H 401.551 4.75028 -1.65401 0
M  V30 4249 H 401.251 4.78555 -3.40968 0
M  V30 4250 H 402.775 5.44926 -2.75478 0
M  V30 4251 H 404.189 3.78772 -4.30354 0
M  V30 4252 H 402.586 3.36229 -4.97062 0
M  V30 4253 H 403.656 2.07736 -4.38148 0
M  V30 4254 N 404.999 1.35443 0.805782 0
M  V30 4255 C 406.245 1.28952 1.56522 0
M  V30 4256 C 406.578 -0.135597 1.93726 0
M  V30 4257 O 405.853 -1.08516 1.61414 0
M  V30 4258 C 406.136 2.19678 2.85331 0
M  V30 4259 C 405.989 3.7081 2.54598 0
M  V30 4260 C 407.308 2.09495 3.8704 0
M  V30 4261 H 404.427 0.469764 0.567883 0
M  V30 4262 H 407.069 1.65851 0.927001 0
M  V30 4263 H 405.219 1.8834 3.39795 0
M  V30 4264 H 406.891 4.12593 2.06312 0
M  V30 4265 H 405.134 3.91051 1.8778 0
M  V30 4266 H 405.805 4.29679 3.46525 0
M  V30 4267 H 408.281 2.37045 3.41978 0
M  V30 4268 H 407.157 2.75173 4.74943 0
M  V30 4269 H 407.418 1.07714 4.28777 0
M  V30 4270 N 406.477 -1.02803 1.19454 0
M  V30 4271 C 407.726 -1.7562 0.991996 0
M  V30 4272 C 408.039 -1.89672 -0.477901 0
M  V30 4273 O 409.245 -2.59468 -0.799287 0
M  V30 4274 C 407.701 -3.15812 1.72601 0
M  V30 4275 C 407.309 -3.0981 3.23607 0
M  V30 4276 C 409.053 -3.92918 1.60674 0
M  V30 4277 C 406.96 -4.44939 3.89594 0
M  V30 4278 H 405.89 -0.658352 0.367543 0
M  V30 4279 H 408.541 -1.15044 1.42959 0
M  V30 4280 H 406.923 -3.7686 1.21624 0
M  V30 4281 H 408.097 -2.58138 3.81709 0
M  V30 4282 H 406.412 -2.46201 3.35819 0
M  V30 4283 H 409.009 -4.9287 2.07323 0
M  V30 4284 H 409.352 -4.12502 0.561025 0
M  V30 4285 H 409.885 -3.38472 2.09001 0
M  V30 4286 H 406.624 -4.30559 4.94267 0
M  V30 4287 H 406.144 -4.96664 3.36281 0
M  V30 4288 H 407.823 -5.1382 3.93189 0
M  V30 4289 N 407.956 -0.998596 -1.21925 0
M  V30 4290 C 409.202 -0.678667 -1.91107 0
M  V30 4291 C 409.535 0.78791 -1.77498 0
M  V30 4292 O 408.81 1.57043 -1.1475 0
M  V30 4293 C 409.093 -1.09245 -3.43129 0
M  V30 4294 C 408.946 -2.61801 -3.6576 0
M  V30 4295 C 410.265 -0.649984 -4.35274 0
M  V30 4296 H 407.384 -0.248025 -0.694012 0
M  V30 4297 H 410.026 -1.24314 -1.43688 0
M  V30 4298 H 408.176 -0.612171 -3.83647 0
M  V30 4299 H 409.848 -3.17543 -3.34611 0
M  V30 4300 H 408.091 -3.03609 -3.09845 0
M  V30 4301 H 408.762 -2.85804 -4.7225 0
M  V30 4302 H 411.238 -1.0626 -4.02303 0
M  V30 4303 H 410.114 -0.967743 -5.40302 0
M  V30 4304 H 410.375 0.449139 -4.39813 0
M  V30 4305 N 409.434 1.37368 -0.772513 0
M  V30 4306 C 410.68 1.99969 -0.337681 0
M  V30 4307 C 411.013 1.61184 1.08321 0
M  V30 4308 O 410.288 0.858395 1.74533 0
M  V30 4309 C 410.571 3.56858 -0.482121 0
M  V30 4310 C 410.424 4.0555 -1.94549 0
M  V30 4311 C 411.743 4.39955 0.113143 0
M  V30 4312 H 408.862 0.726464 -0.124171 0
M  V30 4313 H 411.504 1.63034 -0.975699 0
M  V30 4314 H 409.654 3.88452 0.0610361 0
M  V30 4315 H 411.326 3.84518 -2.54841 0
M  V30 4316 H 409.569 3.57715 -2.45403 0
M  V30 4317 H 410.24 5.14587 -1.9976 0
M  V30 4318 H 412.716 4.14623 -0.35031 0
M  V30 4319 H 411.592 5.48897 -0.0180514 0
M  V30 4320 H 411.853 4.25403 1.20354 0
M  V30 4321 N 410.912 0.523116 1.48665 0
M  V30 4322 C 412.158 -0.0134963 2.02796 0
M  V30 4323 C 412.491 -1.34582 1.40004 0
M  V30 4324 O 411.766 -1.86756 0.543381 0
M  V30 4325 C 412.049 -0.14276 3.59817 0
M  V30 4326 C 411.902 1.21425 4.331 0
M  V30 4327 C 413.221 -0.872856 4.31357 0
M  V30 4328 H 410.34 -0.00343074 0.736992 0
M  V30 4329 H 412.982 0.678816 1.7746 0
M  V30 4330 H 411.132 -0.732401 3.81534 0
M  V30 4331 H 412.804 1.84447 4.2282 0
M  V30 4332 H 411.047 1.79791 3.94788 0
M  V30 4333 H 411.718 1.07687 5.41394 0
M  V30 4334 H 414.194 -0.372555 4.14429 0
M  V30 4335 H 413.07 -0.932185 5.40927 0
M  V30 4336 H 413.331 -1.92161 3.98154 0
M  V30 4337 N 412.39 -1.55475 0.257931 0
M  V30 4338 C 413.62 -2.03314 -0.367026 0
M  V30 4339 C 414.028 -1.13625 -1.51281 0
M  V30 4340 O 413.371 -0.145334 -1.83124 0
M  V30 4341 C 413.433 -3.47362 -0.926284 0
M  V30 4342 C 413.097 -4.56914 0.0886584 0
M  V30 4343 C 414.094 -5.12013 0.902123 0
M  V30 4344 C 411.779 -5.01827 0.217936 0
M  V30 4345 C 413.773 -6.10529 1.83122 0
M  V30 4346 C 411.46 -6.00172 1.15052 0
M  V30 4347 C 412.458 -6.54402 1.95568 0
M  V30 4348 O 412.146 -7.50827 2.87253 0
M  V30 4349 H 411.878 -0.669976 -0.0900443 0
M  V30 4350 H 414.432 -2.01804 0.382673 0
M  V30 4351 H 412.662 -3.46056 -1.72575 0
M  V30 4352 H 414.351 -3.78637 -1.46249 0
M  V30 4353 H 415.117 -4.78139 0.812891 0
M  V30 4354 H 410.996 -4.59272 -0.398721 0
M  V30 4355 H 414.54 -6.52783 2.46008 0
M  V30 4356 H 410.437 -6.33465 1.24064 0
M  V30 4357 H 411.205 -7.68483 2.81739 0
M  V30 4358 N 413.868 0.0150385 -1.57593 0
M  V30 4359 C 415.114 0.704043 -1.90187 0
M  V30 4360 C 415.447 1.74249 -0.857366 0
M  V30 4361 O 414.722 1.94092 0.125843 0
M  V30 4362 C 415.005 1.36087 -3.33395 0
M  V30 4363 C 414.858 0.334981 -4.48551 0
M  V30 4364 C 416.177 2.29112 -3.7576 0
M  V30 4365 H 413.296 0.254475 -0.691673 0
M  V30 4366 H 415.938 -0.0331678 -1.89971 0
M  V30 4367 H 414.088 1.98922 -3.3371 0
M  V30 4368 H 415.76 -0.292534 -4.60372 0
M  V30 4369 H 414.003 -0.344325 -4.32431 0
M  V30 4370 H 414.674 0.833316 -5.45674 0
M  V30 4371 H 417.15 1.76308 -3.76902 0
M  V30 4372 H 416.026 2.72043 -4.76743 0
M  V30 4373 H 416.287 3.16385 -3.08793 0
M  V30 4374 N 415.346 1.54954 0.287554 0
M  V30 4375 C 416.276 1.89839 1.35954 0
M  V30 4376 C 417.257 0.758675 1.52244 0
M  V30 4377 O 418.442 1.01557 1.65529 0
M  V30 4378 C 415.572 2.15753 2.72154 0
M  V30 4379 C 414.526 3.3159 2.70614 0
M  V30 4380 C 413.852 3.42952 4.10229 0
M  V30 4381 C 415.152 4.68359 2.31165 0
M  V30 4382 H 416.846 2.79625 1.07007 0
M  V30 4383 H 414.392 1.3454 0.513316 0
M  V30 4384 H 416.345 2.38743 3.47246 0
M  V30 4385 H 415.069 1.22752 3.02654 0
M  V30 4386 H 413.728 3.08545 1.97979 0
M  V30 4387 H 413.376 2.47443 4.37928 0
M  V30 4388 H 413.076 4.20826 4.10097 0
M  V30 4389 H 414.6 3.68218 4.87081 0
M  V30 4390 H 416.014 4.9099 2.95976 0
M  V30 4391 H 414.411 5.49044 2.42221 0
M  V30 4392 H 415.481 4.68165 1.26291 0
M  V30 4393 N 416.824 -0.551391 1.4764 0
M  V30 4394 C 418.064 -1.31901 1.56145 0
M  V30 4395 C 418.428 -1.90724 0.221013 0
M  V30 4396 O 419.629 -2.6819 0.180945 0
M  V30 4397 C 417.9 -2.39517 2.65267 0
M  V30 4398 S 419.459 -3.26289 2.93395 0
M  V30 4399 H 416.277 -0.448965 0.551318 0
M  V30 4400 H 418.879 -0.630599 1.85051 0
M  V30 4401 H 417.583 -1.94747 3.6125 0
M  V30 4402 H 417.114 -3.13092 2.38195 0
M  V30 4403 H 419.129 -4.39122 2.31055 0
M  V30 4404 N 418.302 -1.35869 -0.798587 0
M  V30 4405 C 419.548 -1.30788 -1.55775 0
M  V30 4406 C 419.903 0.114558 -1.92059 0
M  V30 4407 O 419.196 1.06691 -1.59147 0
M  V30 4408 C 419.39 -2.1556 -2.85077 0
M  V30 4409 C 419.219 -3.65904 -2.61428 0
M  V30 4410 C 417.989 -4.35112 -2.56915 0
M  V30 4411 C 420.187 -4.59375 -2.31255 0
M  V30 4412 N 418.169 -5.71155 -2.25068 0
M  V30 4413 C 419.54 -5.83598 -2.09316 0
M  V30 4414 C 421.595 -4.48035 -2.17185 0
M  V30 4415 C 420.298 -6.97755 -1.74731 0
M  V30 4416 C 422.324 -5.62049 -1.83998 0
M  V30 4417 C 421.686 -6.85305 -1.629 0
M  V30 4418 H 417.785 -0.533855 -0.571422 0
M  V30 4419 H 420.369 -1.7083 -0.934079 0
M  V30 4420 H 418.54 -1.77776 -3.45326 0
M  V30 4421 H 420.272 -2.01938 -3.50718 0
M  V30 4422 H 417.027 -3.87812 -2.71843 0
M  V30 4423 H 417.451 -6.42978 -2.11916 0
M  V30 4424 H 422.093 -3.53338 -2.3219 0
M  V30 4425 H 419.811 -7.92411 -1.58464 0
M  V30 4426 H 423.397 -5.55232 -1.73808 0
M  V30 4427 H 422.277 -7.72034 -1.37596 0
M  V30 4428 N 419.78 1.02168 -1.19998 0
M  V30 4429 C 420.743 2.08765 -0.94604 0
M  V30 4430 C 421.743 1.60618 0.0763846 0
M  V30 4431 O 422.933 1.73472 -0.159135 0
M  V30 4432 C 420.065 3.38262 -0.423255 0
M  V30 4433 H 421.258 2.32726 -1.89153 0
M  V30 4434 H 418.811 1.1889 -1.01464 0
M  V30 4435 H 419.546 3.19974 0.527938 0
M  V30 4436 H 419.331 3.74532 -1.16053 0
M  V30 4437 H 420.821 4.16759 -0.264911 0
M  V30 4438 N 421.258 1.00505 1.21394 0
M  V30 4439 C 422.669 0.721082 1.72213 0
M  V30 4440 C 423.02 -0.761263 1.80829 0
M  V30 4441 O 422.145 -1.59464 1.46288 0
M  V30 4442 C 422.74 1.30228 3.12772 0
M  V30 4443 C 421.299 1.06743 3.60947 0
M  V30 4444 C 420.446 1.41507 2.38477 0
M  V30 4445 H 423.397 1.17594 1.06571 0
M  V30 4446 H 423.418 0.686955 3.74247 0
M  V30 4447 H 422.93 2.38115 3.06468 0
M  V30 4448 H 421.031 0.00572162 3.726 0
M  V30 4449 H 421.144 1.73936 4.46411 0
M  V30 4450 H 419.508 0.833852 2.40664 0
M  V30 4451 H 420.291 2.50424 2.34824 0
M  V30 4452 N 422.737 -1.36956 0.779787 0
M  V30 4453 C 423.984 -1.99491 0.347766 0
M  V30 4454 C 424.312 -1.61898 -1.07793 0
M  V30 4455 O 423.567 -0.86071 -1.75756 0
M  V30 4456 C 423.866 -3.54585 0.447686 0
M  V30 4457 C 423.532 -4.1197 1.83279 0
M  V30 4458 C 422.194 -4.27356 2.2118 0
M  V30 4459 C 424.546 -4.43354 2.74019 0
M  V30 4460 C 421.874 -4.71432 3.4924 0
M  V30 4461 C 424.226 -4.88858 4.01497 0
M  V30 4462 C 422.89 -5.0245 4.39432 0
M  V30 4463 H 422.16 -0.729991 0.127257 0
M  V30 4464 H 424.807 -1.63599 0.995376 0
M  V30 4465 H 423.112 -3.90773 -0.283447 0
M  V30 4466 H 424.809 -4.00888 0.0945948 0
M  V30 4467 H 421.399 -4.00428 1.52825 0
M  V30 4468 H 425.583 -4.31045 2.45995 0
M  V30 4469 H 420.839 -4.80141 3.78516 0
M  V30 4470 H 425.013 -5.12108 4.71931 0
M  V30 4471 H 422.64 -5.36362 5.38721 0
M  V30 4472 N 424.215 -0.530993 -1.48385 0
M  V30 4473 C 425.462 0.0027373 -2.025 0
M  V30 4474 C 425.79 1.34186 -1.40799 0
M  V30 4475 O 425.045 1.88 -0.543544 0
M  V30 4476 C 425.344 0.172742 -3.56982 0
M  V30 4477 C 425.01 -1.09215 -4.37473 0
M  V30 4478 C 423.672 -1.43881 -4.59186 0
M  V30 4479 C 426.024 -1.93153 -4.84088 0
M  V30 4480 C 423.352 -2.62381 -5.2476 0
M  V30 4481 C 425.704 -3.10833 -5.50968 0
M  V30 4482 C 424.368 -3.45843 -5.70919 0
M  V30 4483 H 423.638 0.00100165 -0.740999 0
M  V30 4484 H 426.285 -0.697219 -1.78357 0
M  V30 4485 H 424.59 0.955473 -3.79971 0
M  V30 4486 H 426.287 0.600642 -3.96476 0
M  V30 4487 H 422.877 -0.812177 -4.20834 0
M  V30 4488 H 427.061 -1.67683 -4.67115 0
M  V30 4489 H 422.317 -2.89707 -5.38405 0
M  V30 4490 H 426.491 -3.7618 -5.86056 0
M  V30 4491 H 424.118 -4.37764 -6.21503 0
M  V30 4492 N 425.693 1.55336 -0.266172 0
M  V30 4493 C 426.623 2.25146 0.618981 0
M  V30 4494 C 427.604 1.23845 1.16604 0
M  V30 4495 O 428.789 1.52544 1.20183 0
M  V30 4496 C 425.919 2.96572 1.80728 0
M  V30 4497 C 424.873 4.04726 1.39215 0
M  V30 4498 C 424.199 4.63678 2.66283 0
M  V30 4499 C 425.499 5.19407 0.548942 0
M  V30 4500 H 427.193 2.99377 0.0368116 0
M  V30 4501 H 424.739 1.43991 0.0162651 0
M  V30 4502 H 426.692 3.44116 2.43232 0
M  V30 4503 H 425.416 2.19861 2.41514 0
M  V30 4504 H 424.075 3.57979 0.790351 0
M  V30 4505 H 423.723 3.83646 3.25308 0
M  V30 4506 H 423.423 5.367 2.39222 0
M  V30 4507 H 424.947 5.13967 3.29651 0
M  V30 4508 H 426.361 5.63059 1.07876 0
M  V30 4509 H 424.758 5.98936 0.373593 0
M  V30 4510 H 425.828 4.8295 -0.434394 0
M  V30 4511 N 427.171 -0.0066808 1.57599 0
M  V30 4512 C 428.417 -0.693947 1.90558 0
M  V30 4513 C 428.75 -1.73792 0.866594 0
M  V30 4514 O 428.025 -1.94156 -0.115548 0
M  V30 4515 C 428.308 -1.34317 3.34112 0
M  V30 4516 C 428.161 -0.311189 4.48722 0
M  V30 4517 C 429.48 -2.27116 3.7697 0
M  V30 4518 H 426.599 -0.250803 0.693013 0
M  V30 4519 H 429.241 0.043242 1.89951 0
M  V30 4520 H 427.391 -1.9715 3.3476 0
M  V30 4521 H 429.063 0.316944 4.6021 0
M  V30 4522 H 427.306 0.367253 4.32243 0
M  V30 4523 H 427.977 -0.804366 5.46108 0
M  V30 4524 H 430.453 -1.74306 3.77831 0
M  V30 4525 H 429.329 -2.69511 4.78179 0
M  V30 4526 H 429.59 -3.14743 3.10466 0
M  V30 4527 N 428.649 -1.55105 -0.279332 0
M  V30 4528 C 429.581 -1.83952 -1.36727 0
M  V30 4529 C 430.594 -0.723642 -1.45833 0
M  V30 4530 O 431.783 -1.00141 -1.47763 0
M  V30 4531 C 428.883 -1.98183 -2.74912 0
M  V30 4532 C 428.056 -3.28787 -2.88475 0
M  V30 4533 C 427.115 -3.33162 -4.07295 0
M  V30 4534 O 426.141 -4.06576 -3.98353 0
M  V30 4535 N 427.343 -2.60109 -5.18964 0
M  V30 4536 H 430.108 -2.77853 -1.12328 0
M  V30 4537 H 427.669 -1.54945 -0.469442 0
M  V30 4538 H 429.661 -1.98488 -3.52682 0
M  V30 4539 H 428.231 -1.11177 -2.92162 0
M  V30 4540 H 427.451 -3.41075 -1.97641 0
M  V30 4541 H 428.739 -4.14933 -2.94463 0
M  V30 4542 H 428.137 -2.00136 -5.29115 0
M  V30 4543 H 426.694 -2.66143 -5.94988 0
M  V30 4544 N 430.127 0.543554 -1.4793 0
M  V30 4545 C 431.057 1.65888 -1.64327 0
M  V30 4546 C 432.038 1.62818 -0.492383 0
M  V30 4547 O 433.223 1.80226 -0.723338 0
M  V30 4548 C 430.353 3.04506 -1.67013 0
M  V30 4549 C 429.307 3.2243 -2.81466 0
M  V30 4550 C 428.633 4.61972 -2.69233 0
M  V30 4551 C 429.933 3.06496 -4.22915 0
M  V30 4552 H 431.627 1.52421 -2.57698 0
M  V30 4553 H 429.173 0.731849 -1.24016 0
M  V30 4554 H 431.126 3.82391 -1.77074 0
M  V30 4555 H 429.85 3.18964 -0.70212 0
M  V30 4556 H 428.509 2.46957 -2.70938 0
M  V30 4557 H 428.157 4.73247 -1.7043 0
M  V30 4558 H 427.857 4.74911 -3.46025 0
M  V30 4559 H 429.381 5.41974 -2.81242 0
M  V30 4560 H 430.795 3.74186 -4.34348 0
M  V30 4561 H 429.192 3.30938 -5.006 0
M  V30 4562 H 430.262 2.03077 -4.40327 0
M  V30 4563 N 431.605 1.3629 0.791371 0
M  V30 4564 C 432.851 1.31613 1.5508 0
M  V30 4565 C 433.206 -0.104372 1.92117 0
M  V30 4566 O 432.499 -1.05845 1.5971 0
M  V30 4567 C 432.693 2.17068 2.8393 0
M  V30 4568 C 432.522 3.67285 2.59484 0
M  V30 4569 C 431.292 4.36469 2.54604 0
M  V30 4570 C 433.49 4.60595 2.28816 0
M  V30 4571 N 431.472 5.7234 2.22036 0
M  V30 4572 C 432.843 5.847 2.06218 0
M  V30 4573 C 434.898 4.4918 2.14806 0
M  V30 4574 C 433.601 6.98671 1.71028 0
M  V30 4575 C 435.627 5.63017 1.81014 0
M  V30 4576 C 434.989 6.86159 1.59263 0
M  V30 4577 H 431.088 0.536878 0.568582 0
M  V30 4578 H 433.672 1.71323 0.925007 0
M  V30 4579 H 431.843 1.79605 3.44378 0
M  V30 4580 H 433.575 2.03795 3.49642 0
M  V30 4581 H 430.33 3.89249 2.69782 0
M  V30 4582 H 430.754 6.44093 2.08503 0
M  V30 4583 H 435.396 3.54564 2.30313 0
M  V30 4584 H 433.114 7.9324 1.54259 0
M  V30 4585 H 436.7 5.56146 1.70861 0
M  V30 4586 H 435.58 7.72753 1.335 0
M  V30 4587 N 433.083 -1.0153 1.20538 0
M  V30 4588 C 434.046 -2.0826 0.957098 0
M  V30 4589 C 435.046 -1.60657 -0.0678655 0
M  V30 4590 O 436.236 -1.73385 0.168332 0
M  V30 4591 C 433.368 -3.38033 0.441188 0
M  V30 4592 H 434.561 -2.31719 1.90384 0
M  V30 4593 H 432.114 -1.1835 1.02093 0
M  V30 4594 H 432.849 -3.20249 -0.510961 0
M  V30 4595 H 432.634 -3.73911 1.18038 0
M  V30 4596 H 434.124 -4.16613 0.287009 0
M  V30 4597 N 434.561 -1.01147 -1.20859 0
M  V30 4598 C 435.524 -0.582224 -2.21682 0
M  V30 4599 C 436.524 0.344887 -1.57058 0
M  V30 4600 O 437.714 0.134281 -1.73682 0
M  V30 4601 C 434.846 0.150496 -3.40568 0
M  V30 4602 H 436.039 -1.47408 -2.61172 0
M  V30 4603 H 433.592 -0.800695 -1.34233 0
M  V30 4604 H 434.327 1.0575 -3.06574 0
M  V30 4605 H 434.112 -0.515444 -3.88697 0
M  V30 4606 H 435.602 0.438344 -4.15293 0
M  V30 4607 N 436.039 1.36541 -0.78704 0
M  V30 4608 C 437.285 2.00044 -0.367938 0
M  V30 4609 C 437.64 1.61345 1.04812 0
M  V30 4610 O 436.933 0.856936 1.71368 0
M  V30 4611 C 437.127 3.54343 -0.466485 0
M  V30 4612 C 436.956 4.08029 -1.89058 0
M  V30 4613 C 435.726 4.38284 -2.51466 0
M  V30 4614 C 437.924 4.27954 -2.85236 0
M  V30 4615 N 435.906 4.77778 -3.85488 0
M  V30 4616 C 437.277 4.70227 -4.04088 0
M  V30 4617 C 439.332 4.10119 -2.82324 0
M  V30 4618 C 438.035 4.96532 -5.20432 0
M  V30 4619 C 440.061 4.37569 -3.97854 0
M  V30 4620 C 439.423 4.80095 -5.15449 0
M  V30 4621 H 435.522 0.760525 -0.182004 0
M  V30 4622 H 438.106 1.65589 -1.02413 0
M  V30 4623 H 436.277 3.88072 0.159606 0
M  V30 4624 H 438.009 4.04693 -0.0238577 0
M  V30 4625 H 434.764 4.27905 -2.02965 0
M  V30 4626 H 435.188 5.01813 -4.54437 0
M  V30 4627 H 439.83 3.76399 -1.92571 0
M  V30 4628 H 437.548 5.29134 -6.10773 0
M  V30 4629 H 441.134 4.25341 -3.96958 0
M  V30 4630 H 440.014 5.00925 -6.0336 0
M  V30 4631 N 437.518 0.538854 1.48102 0
M  V30 4632 C 438.795 -0.0568108 1.95517 0
M  V30 4633 C 439.175 -1.50408 1.48124 0
M  V30 4634 O 438.523 -2.17133 0.711727 0
M  V30 4635 C 438.733 0.0696262 3.48931 0
M  V30 4636 C 440.081 -0.0851202 4.24515 0
M  V30 4637 O 441.105 -0.0037347 3.562 0
M  V30 4638 O 439.964 -0.257025 5.45895 0
M  V30 4639 H 437.058 -0.0743695 0.823649 0
M  V30 4640 H 439.604 0.604081 1.58584 0
M  V30 4641 H 438.376 1.07744 3.76174 0
M  V30 4642 H 437.999 -0.629714 3.92582 0
M  V30 4643 N 438.996 -1.55193 0.274407 0
M  V30 4644 C 440.407 -1.85358 -0.223488 0
M  V30 4645 C 440.758 -1.19642 -1.555 0
M  V30 4646 O 439.883 -0.484498 -2.10907 0
M  V30 4647 C 440.478 -3.36282 -0.412285 0
M  V30 4648 C 439.037 -3.66574 -0.854413 0
M  V30 4649 C 438.184 -2.7725 0.0527056 0
M  V30 4650 H 441.135 -1.50743 0.496215 0
M  V30 4651 H 441.156 -3.59349 -1.25094 0
M  V30 4652 H 440.668 -3.84083 0.556965 0
M  V30 4653 H 438.769 -3.24273 -1.83516 0
M  V30 4654 H 438.882 -4.74073 -0.692226 0
M  V30 4655 H 437.246 -2.50447 -0.463484 0
M  V30 4656 H 438.029 -3.27865 1.01783 0
M  V30 4657 N 440.474 -0.00167713 -1.576 0
M  V30 4658 C 441.384 1.00548 -2.1196 0
M  V30 4659 C 442.4 1.3758 -1.06526 0
M  V30 4660 O 443.576 1.46278 -1.38436 0
M  V30 4661 C 440.641 2.27809 -2.6135 0
M  V30 4662 C 439.702 1.97074 -3.81393 0
M  V30 4663 C 438.935 3.18267 -4.28417 0
M  V30 4664 O 439.158 4.30009 -3.74765 0
M  V30 4665 O 438.092 3.02167 -5.20556 0
M  V30 4666 H 441.918 0.573373 -2.98238 0
M  V30 4667 H 439.503 0.217255 -1.47812 0
M  V30 4668 H 441.385 3.02568 -2.93309 0
M  V30 4669 H 440.06 2.70254 -1.78169 0
M  V30 4670 H 438.967 1.19785 -3.54404 0
M  V30 4671 H 440.3 1.59464 -4.65652 0
M  V30 4672 N 441.952 1.55251 0.271103 0
M  V30 4673 C 442.915 1.87484 1.31842 0
M  V30 4674 C 443.915 0.749545 1.42262 0
M  V30 4675 O 445.105 1.01771 1.4138 0
M  V30 4676 C 442.237 2.0818 2.69951 0
M  V30 4677 H 443.43 2.81108 1.0449 0
M  V30 4678 H 440.983 1.47771 0.509258 0
M  V30 4679 H 441.718 1.16944 3.02481 0
M  V30 4680 H 441.503 2.90114 2.63774 0
M  V30 4681 H 442.993 2.34385 3.4562 0
M  V30 4682 N 443.43 -0.535701 1.48216 0
M  V30 4683 C 444.841 -1.11769 1.49548 0
M  V30 4684 C 445.192 -1.94442 0.26207 0
M  V30 4685 O 444.317 -2.06987 -0.631287 0
M  V30 4686 C 444.912 -2.03367 2.70975 0
M  V30 4687 C 443.471 -2.56795 2.75196 0
M  V30 4688 C 442.618 -1.33631 2.42977 0
M  V30 4689 H 445.569 -0.321232 1.55415 0
M  V30 4690 H 445.59 -2.87569 2.49167 0
M  V30 4691 H 445.102 -1.43169 3.60727 0
M  V30 4692 H 443.203 -3.20731 1.89638 0
M  V30 4693 H 443.316 -2.9632 3.76472 0
M  V30 4694 H 441.68 -1.6502 1.94012 0
M  V30 4695 H 442.463 -0.75194 3.34964 0
M  V30 4696 N 444.908 -1.36708 -0.784132 0
M  V30 4697 C 445.838 -1.34153 -1.91116 0
M  V30 4698 C 446.819 -0.212121 -1.68772 0
M  V30 4699 O 448.004 -0.410581 -1.8981 0
M  V30 4700 C 445.134 -1.13535 -3.28218 0
M  V30 4701 C 444.088 -2.23356 -3.65097 0
M  V30 4702 C 443.414 -1.87875 -5.00607 0
M  V30 4703 C 444.714 -3.65473 -3.73131 0
M  V30 4704 H 446.408 -2.28459 -1.93512 0
M  V30 4705 H 443.954 -1.09973 -0.929618 0
M  V30 4706 H 445.907 -1.10381 -4.06687 0
M  V30 4707 H 444.631 -0.156804 -3.26223 0
M  V30 4708 H 443.29 -2.25645 -2.88929 0
M  V30 4709 H 442.938 -0.885814 -4.95139 0
M  V30 4710 H 442.638 -2.61406 -5.26252 0
M  V30 4711 H 444.162 -1.86286 -5.81489 0
M  V30 4712 H 445.576 -3.65382 -4.41779 0
M  V30 4713 H 443.973 -4.37953 -4.10265 0
M  V30 4714 H 445.043 -3.99995 -2.74102 0
M  V30 4715 N 446.386 1.0089 -1.21074 0
M  V30 4716 C 447.296 2.13039 -0.982425 0
M  V30 4717 C 448.312 1.73881 0.0642161 0
M  V30 4718 O 449.488 2.01012 -0.12496 0
M  V30 4719 C 446.553 3.42377 -0.545803 0
M  V30 4720 C 445.614 3.95731 -1.6642 0
M  V30 4721 C 444.847 5.18896 -1.24832 0
M  V30 4722 O 445.07 5.70273 -0.120265 0
M  V30 4723 O 444.004 5.65597 -2.05873 0
M  V30 4724 H 447.83 2.35175 -1.92163 0
M  V30 4725 H 445.415 1.1142 -0.995285 0
M  V30 4726 H 447.297 4.20244 -0.311912 0
M  V30 4727 H 445.972 3.21639 0.364727 0
M  V30 4728 H 444.879 3.19108 -1.95246 0
M  V30 4729 H 446.212 4.20872 -2.55201 0
M  V30 4730 N 447.864 1.01787 1.20321 0
M  V30 4731 C 449.112 0.706538 1.89347 0
M  V30 4732 C 449.433 -0.766289 1.79313 0
M  V30 4733 O 448.703 -1.55126 1.19635 0
M  V30 4734 H 447.283 0.258348 0.700903 0
M  V30 4735 H 449.945 1.28974 1.46122 0
M  V30 4736 H 449.041 0.991066 2.95946 0
M  V30 4737 N 449.342 -1.36122 0.79427 0
M  V30 4738 C 450.305 -2.28309 0.201889 0
M  V30 4739 C 451.305 -1.49041 -0.603603 0
M  V30 4740 O 452.495 -1.68964 -0.423888 0
M  V30 4741 C 449.627 -3.3321 -0.719978 0
M  V30 4742 H 450.82 -2.82208 1.01481 0
M  V30 4743 H 448.373 -1.45768 0.564037 0
M  V30 4744 H 449.108 -2.84475 -1.55706 0
M  V30 4745 H 448.893 -3.91835 -0.144266 0
M  V30 4746 H 450.383 -4.02044 -1.12916 0
M  V30 4747 N 450.82 -0.546701 -1.47814 0
M  V30 4748 C 452.231 -0.110564 -1.86372 0
M  V30 4749 C 452.582 1.31678 -1.45449 0
M  V30 4750 O 451.707 1.98889 -0.852758 0
M  V30 4751 C 452.302 -0.193873 -3.38245 0
M  V30 4752 C 450.861 0.187164 -3.75934 0
M  V30 4753 C 450.008 -0.546166 -2.71868 0
M  V30 4754 H 452.959 -0.757022 -1.39481 0
M  V30 4755 H 452.98 0.590218 -3.75895 0
M  V30 4756 H 452.492 -1.23282 -3.67999 0
M  V30 4757 H 450.593 1.22762 -3.51796 0
M  V30 4758 H 450.706 -0.164083 -4.78819 0
M  V30 4759 H 449.07 0.00953904 -2.54698 0
M  V30 4760 H 449.853 -1.58606 -3.04465 0
M  V30 4761 N 452.299 1.55045 -0.282633 0
M  V30 4762 C 453.546 1.9976 0.33199 0
M  V30 4763 C 453.874 1.17105 1.55295 0
M  V30 4764 O 453.129 0.230599 1.94337 0
M  V30 4765 C 453.428 3.49422 0.750938 0
M  V30 4766 C 453.094 4.4941 -0.366228 0
M  V30 4767 C 451.756 4.76471 -0.672964 0
M  V30 4768 C 454.108 5.09054 -1.11864 0
M  V30 4769 C 451.436 5.60442 -1.73556 0
M  V30 4770 C 453.788 5.9418 -2.17102 0
M  V30 4771 C 452.452 6.19558 -2.48402 0
M  V30 4772 H 451.722 0.730974 0.121484 0
M  V30 4773 H 454.369 1.8732 -0.39791 0
M  V30 4774 H 452.674 3.59377 1.56063 0
M  V30 4775 H 454.371 3.81432 1.23736 0
M  V30 4776 H 450.961 4.2844 -0.117041 0
M  V30 4777 H 455.145 4.88165 -0.894925 0
M  V30 4778 H 450.401 5.78349 -1.983 0
M  V30 4779 H 454.575 6.39427 -2.75873 0
M  V30 4780 H 452.202 6.84417 -3.30874 0
M  V30 4781 N 453.777 0.010035 1.57597 0
M  V30 4782 C 455.023 -0.673697 1.91283 0
M  V30 4783 C 455.356 -1.72863 0.884979 0
M  V30 4784 O 454.631 -1.94268 -0.0949487 0
M  V30 4785 C 454.914 -1.30766 3.35518 0
M  V30 4786 C 454.767 -0.263578 4.49027 0
M  V30 4787 C 456.086 -2.23105 3.79358 0
M  V30 4788 H 453.205 -0.243439 0.695634 0
M  V30 4789 H 455.847 0.0633864 1.89894 0
M  V30 4790 H 453.997 -1.93588 3.36832 0
M  V30 4791 H 455.669 0.365738 4.59848 0
M  V30 4792 H 453.912 0.413077 4.31829 0
M  V30 4793 H 454.583 -0.746398 5.4693 0
M  V30 4794 H 457.059 -1.70289 3.79659 0
M  V30 4795 H 455.935 -2.64424 4.81011 0
M  V30 4796 H 456.196 -3.11433 3.13787 0
M  V30 4797 N 455.255 -1.55392 -0.262866 0
M  V30 4798 C 456.185 -1.91978 -1.32917 0
M  V30 4799 C 457.166 -0.7828 -1.51017 0
M  V30 4800 O 458.351 -1.04178 -1.63892 0
M  V30 4801 C 455.481 -2.20055 -2.68687 0
M  V30 4802 C 454.435 -3.35854 -2.65304 0
M  V30 4803 C 453.761 -3.49435 -4.04721 0
M  V30 4804 C 455.061 -4.71977 -2.23685 0
M  V30 4805 H 456.755 -2.81292 -1.02544 0
M  V30 4806 H 454.301 -1.3534 -0.491846 0
M  V30 4807 H 456.254 -2.44237 -3.43404 0
M  V30 4808 H 454.978 -1.27551 -3.00663 0
M  V30 4809 H 453.637 -3.11655 -1.93045 0
M  V30 4810 H 453.285 -2.54379 -4.33936 0
M  V30 4811 H 452.985 -4.27297 -4.0335 0
M  V30 4812 H 454.509 -3.7592 -4.81161 0
M  V30 4813 H 455.923 -4.95637 -2.88127 0
M  V30 4814 H 454.32 -5.52828 -2.33456 0
M  V30 4815 H 455.39 -4.70115 -1.18827 0
M  V30 4816 N 456.733 0.527833 -1.48498 0
M  V30 4817 C 457.663 1.64136 -1.66077 0
M  V30 4818 C 458.644 1.62286 -0.509625 0
M  V30 4819 O 459.829 1.79449 -0.742413 0
M  V30 4820 C 456.959 3.02717 -1.70234 0
M  V30 4821 C 455.913 3.19426 -2.8487 0
M  V30 4822 C 455.239 4.5909 -2.74118 0
M  V30 4823 C 456.539 3.01993 -4.26142 0
M  V30 4824 H 458.233 1.4968 -2.593 0
M  V30 4825 H 455.779 0.718654 -1.24785 0
M  V30 4826 H 457.732 3.80491 -1.8112 0
M  V30 4827 H 456.456 3.18201 -0.735911 0
M  V30 4828 H 455.115 2.4407 -2.73542 0
M  V30 4829 H 454.763 4.71413 -1.7544 0
M  V30 4830 H 454.463 4.71214 -3.51042 0
M  V30 4831 H 455.987 5.3896 -2.86974 0
M  V30 4832 H 457.401 3.69558 -4.38292 0
M  V30 4833 H 455.798 3.2561 -5.04082 0
M  V30 4834 H 456.868 1.98396 -4.42456 0
M  V30 4835 N 458.211 1.37122 0.776871 0
M  V30 4836 C 459.144 1.26835 1.89705 0
M  V30 4837 C 460.122 0.14992 1.61907 0
M  V30 4838 O 461.306 0.323242 1.85708 0
M  V30 4839 C 458.433 0.95986 3.24814 0
M  V30 4840 C 457.479 2.09447 3.7153 0
M  V30 4841 S 458.312 3.71368 3.85806 0
M  V30 4842 C 459.468 3.42659 5.23771 0
M  V30 4843 H 459.701 2.21647 1.98141 0
M  V30 4844 H 457.234 1.22685 0.937433 0
M  V30 4845 H 459.192 0.788696 4.02852 0
M  V30 4846 H 457.853 0.0293137 3.14086 0
M  V30 4847 H 457.046 1.8335 4.69467 0
M  V30 4848 H 456.648 2.2255 3.00578 0
M  V30 4849 H 458.94 2.9733 6.0877 0
M  V30 4850 H 459.883 4.39905 5.54878 0
M  V30 4851 H 460.291 2.77708 4.91466 0
M  V30 4852 N 459.689 -1.00246 1.21608 0
M  V30 4853 C 460.619 -2.10921 1.00172 0
M  V30 4854 C 461.6 -1.69938 -0.0741587 0
M  V30 4855 O 462.785 -1.94009 0.0861753 0
M  V30 4856 C 459.915 -3.42618 0.568355 0
M  V30 4857 C 458.869 -3.97407 1.58909 0
M  V30 4858 C 458.195 -5.25038 1.01187 0
M  V30 4859 C 459.495 -4.2918 2.97661 0
M  V30 4860 H 461.189 -2.29112 1.92739 0
M  V30 4861 H 458.735 -1.10101 0.928102 0
M  V30 4862 H 460.688 -4.19444 0.405555 0
M  V30 4863 H 459.412 -3.24227 -0.392961 0
M  V30 4864 H 458.071 -3.22703 1.73949 0
M  V30 4865 H 457.719 -5.02982 0.0421965 0
M  V30 4866 H 457.419 -5.62661 1.6937 0
M  V30 4867 H 458.943 -6.04507 0.860448 0
M  V30 4868 H 460.357 -4.96839 2.86049 0
M  V30 4869 H 458.754 -4.77952 3.6288 0
M  V30 4870 H 459.824 -3.3735 3.48315 0
M  V30 4871 N 461.167 -1.02423 -1.1978 0
M  V30 4872 C 462.097 -0.62157 -2.25075 0
M  V30 4873 C 463.078 0.367148 -1.6609 0
M  V30 4874 O 464.263 0.250892 -1.92573 0
M  V30 4875 C 461.393 0.0331826 -3.47284 0
M  V30 4876 C 460.347 -0.877323 -4.18912 0
M  V30 4877 C 459.673 -0.0879296 -5.34628 0
M  V30 4878 C 460.973 -2.18892 -4.74219 0
M  V30 4879 H 462.667 -1.50179 -2.59011 0
M  V30 4880 H 460.213 -0.723547 -1.24502 0
M  V30 4881 H 462.166 0.326488 -4.20133 0
M  V30 4882 H 460.89 0.948164 -3.12534 0
M  V30 4883 H 459.549 -1.15475 -3.47938 0
M  V30 4884 H 459.197 0.828941 -4.96123 0
M  V30 4885 H 458.897 -0.694359 -5.83483 0
M  V30 4886 H 460.421 0.198743 -6.10276 0
M  V30 4887 H 461.835 -1.95746 -5.38847 0
M  V30 4888 H 460.232 -2.74686 -5.33542 0
M  V30 4889 H 461.302 -2.84674 -3.92541 0
M  V30 4890 N 462.645 1.35699 -0.801477 0
M  V30 4891 C 463.608 2.28199 -0.213994 0
M  V30 4892 C 464.608 1.49359 0.595691 0
M  V30 4893 O 465.798 1.69186 0.414921 0
M  V30 4894 C 462.93 3.33587 0.702297 0
M  V30 4895 H 464.123 2.81666 -1.02976 0
M  V30 4896 H 461.676 1.45467 -0.571759 0
M  V30 4897 H 462.411 2.85297 1.54195 0
M  V30 4898 H 462.196 3.91906 0.123484 0
M  V30 4899 H 463.686 4.02638 1.10783 0
M  V30 4900 N 464.123 0.554532 1.47522 0
M  V30 4901 C 465.348 0.0322661 2.07375 0
M  V30 4902 C 465.773 -1.25079 1.40488 0
M  V30 4903 O 465.131 -1.74859 0.47896 0
M  V30 4904 C 465.179 -0.149397 3.6029 0
M  V30 4905 O 464.283 -1.21259 3.9417 0
M  V30 4906 H 463.624 0.0501228 0.662106 0
M  V30 4907 H 466.154 0.769452 1.8958 0
M  V30 4908 H 466.164 -0.364437 4.06369 0
M  V30 4909 H 464.839 0.787743 4.08372 0
M  V30 4910 H 463.416 -0.97825 3.5984 0
M  V30 4911 N 465.601 -1.54893 0.290851 0
M  V30 4912 C 466.531 -2.26103 -0.583084 0
M  V30 4913 C 467.512 -1.25684 -1.14619 0
M  V30 4914 O 468.697 -1.54436 -1.17741 0
M  V30 4915 C 465.827 -2.99409 -1.75987 0
M  V30 4916 C 464.781 -4.0689 -1.32758 0
M  V30 4917 C 464.107 -4.67856 -2.58872 0
M  V30 4918 C 465.407 -5.20215 -0.46624 0
M  V30 4919 H 467.101 -2.99398 0.0108214 0
M  V30 4920 H 464.647 -1.43998 0.00664468 0
M  V30 4921 H 466.6 -3.47943 -2.37727 0
M  V30 4922 H 465.324 -2.23675 -2.37985 0
M  V30 4923 H 463.983 -3.59191 -0.733299 0
M  V30 4924 H 463.631 -3.88772 -3.19163 0
M  V30 4925 H 463.331 -5.40438 -2.30653 0
M  V30 4926 H 464.855 -5.19147 -3.21433 0
M  V30 4927 H 466.269 -5.64704 -0.989047 0
M  V30 4928 H 464.666 -5.99455 -0.27826 0
M  V30 4929 H 465.736 -4.82198 0.511173 0
M  V30 4930 N 467.08 -0.0183926 -1.57589 0
M  V30 4931 C 468.028 0.985111 -2.10709 0
M  V30 4932 C 469.022 1.34397 -1.0312 0
M  V30 4933 O 470.228 1.32746 -1.21567 0
M  V30 4934 H 466.603 0.335418 -0.673052 0
M  V30 4935 H 468.574 0.511689 -2.9398 0
M  V30 4936 C 467.323 2.26202 -2.64061 0
M  V30 4937 H 466.646 1.9946 -3.4649 0
M  V30 4938 H 468.086 2.94652 -3.04887 0
M  V30 4939 C 466.545 2.98444 -1.5631 0
M  V30 4940 O 467.075 3.90142 -0.956674 0
M  V30 4941 N 465.281 2.6059 -1.28612 0
M  V30 4942 H 464.828 1.86101 -1.78112 0
M  V30 4943 H 464.786 3.09238 -0.567406 0
M  V30 4944 N 468.558 1.5553 0.254621 0
M  V30 4945 C 469.783 1.81383 1.00573 0
M  V30 4946 C 470.208 0.594419 1.78461 0
M  V30 4947 O 469.566 -0.456403 1.75461 0
M  V30 4948 C 469.614 3.04892 1.92545 0
M  V30 4949 O 468.718 2.81266 3.01601 0
M  V30 4950 H 468.059 0.598969 0.286587 0
M  V30 4951 H 470.589 2.02703 0.277952 0
M  V30 4952 H 470.599 3.34119 2.34155 0
M  V30 4953 H 469.274 3.93287 1.3527 0
M  V30 4954 H 467.851 2.63185 2.64174 0
M  V30 4955 N 470.036 -0.519951 1.48776 0
M  V30 4956 C 471.276 -1.2856 1.58908 0
M  V30 4957 C 471.64 -1.90212 0.261418 0
M  V30 4958 O 472.841 -2.67746 0.237791 0
M  V30 4959 C 471.112 -2.33836 2.70288 0
M  V30 4960 S 472.671 -3.19992 3.0025 0
M  V30 4961 H 469.489 -0.43717 0.560717 0
M  V30 4962 H 472.091 -0.591205 1.86346 0
M  V30 4963 H 470.795 -1.87041 3.653 0
M  V30 4964 H 470.326 -3.07969 2.44783 0
M  V30 4965 H 472.341 -4.34122 2.40317 0
M  V30 4966 N 471.514 -1.37532 -0.769588 0
M  V30 4967 C 472.742 -1.36059 -1.55871 0
M  V30 4968 C 473.157 0.053544 -1.88724 0
M  V30 4969 O 472.514 1.01591 -1.5161 0
M  V30 4970 C 472.565 -2.20107 -2.86767 0
M  V30 4971 O 472.286 -3.56009 -2.55321 0
M  V30 4972 C 473.787 -2.26636 -3.80987 0
M  V30 4973 H 471.007 -0.465967 -0.482821 0
M  V30 4974 H 473.551 -1.80901 -0.953686 0
M  V30 4975 H 471.706 -1.78768 -3.43687 0
M  V30 4976 H 472.12 -4.0009 -3.39158 0
M  V30 4977 H 473.594 -2.89763 -4.69831 0
M  V30 4978 H 474.071 -1.2754 -4.20274 0
M  V30 4979 H 474.677 -2.68296 -3.29996 0
M  V30 4980 N 472.992 0.995999 -1.22138 0
M  V30 4981 C 473.94 2.10673 -0.985876 0
M  V30 4982 C 474.934 1.69255 0.0699553 0
M  V30 4983 O 476.14 1.79812 -0.0822176 0
M  V30 4984 H 472.515 0.688865 -0.30161 0
M  V30 4985 H 474.486 2.27711 -1.92848 0
M  V30 4986 C 473.235 3.42881 -0.576909 0
M  V30 4987 H 472.558 3.75191 -1.38101 0
M  V30 4988 H 473.998 4.21589 -0.451518 0
M  V30 4989 C 472.457 3.29265 0.713196 0
M  V30 4990 O 472.987 3.60777 1.76643 0
M  V30 4991 N 471.193 2.82456 0.683162 0
M  V30 4992 H 470.74 2.5701 -0.174242 0
M  V30 4993 H 470.698 2.73727 1.54663 0
M  V30 4994 N 474.47 1.03057 1.19235 0
M  V30 4995 C 475.881 0.757449 1.70645 0
M  V30 4996 C 476.232 -0.722735 1.82403 0
M  V30 4997 O 475.357 -1.56325 1.49638 0
M  V30 4998 C 475.952 1.36833 3.09939 0
M  V30 4999 C 474.511 1.14375 3.58602 0
M  V30 5000 C 473.658 1.46533 2.35422 0
M  V30 5001 H 476.609 1.19828 1.04052 0
M  V30 5002 H 476.63 0.766184 3.72706 0
M  V30 5003 H 476.142 2.44562 3.01349 0
M  V30 5004 H 474.243 0.0847542 3.72504 0
M  V30 5005 H 474.356 1.83366 4.42622 0
M  V30 5006 H 472.72 0.884712 2.38841 0
M  V30 5007 H 473.503 2.55349 2.2946 0
M  V30 5008 N 475.948 -1.35272 0.808662 0
M  V30 5009 C 477.194 -1.99434 0.399717 0
M  V30 5010 C 477.549 -1.62992 -1.02232 0
M  V30 5011 O 476.842 -0.884091 -1.69983 0
M  V30 5012 C 477.036 -3.53556 0.522798 0
M  V30 5013 C 476.865 -4.04969 1.95525 0
M  V30 5014 C 475.635 -4.34228 2.58407 0
M  V30 5015 C 477.833 -4.23362 2.92009 0
M  V30 5016 N 475.815 -4.71585 3.93041 0
M  V30 5017 C 477.186 -4.63739 4.11517 0
M  V30 5018 C 479.241 -4.05576 2.88813 0
M  V30 5019 C 477.944 -4.88189 5.28265 0
M  V30 5020 C 479.97 -4.31184 4.04765 0
M  V30 5021 C 479.332 -4.71834 5.23022 0
M  V30 5022 H 475.431 -0.757534 0.19408 0
M  V30 5023 H 478.015 -1.63939 1.05034 0
M  V30 5024 H 476.186 -3.88277 -0.0978471 0
M  V30 5025 H 477.918 -4.04604 0.0882378 0
M  V30 5026 H 474.673 -4.24621 2.09747 0
M  V30 5027 H 475.097 -4.9452 4.62363 0
M  V30 5028 H 479.739 -3.73288 1.98535 0
M  V30 5029 H 477.457 -5.1935 6.19113 0
M  V30 5030 H 481.043 -4.18972 4.03675 0
M  V30 5031 H 479.923 -4.91263 6.11253 0
M  V30 5032 N 477.426 -0.562348 -1.47226 0
M  V30 5033 C 478.675 -0.038041 -2.01664 0
M  V30 5034 C 478.988 1.32199 -1.44162 0
M  V30 5035 O 480.194 1.9365 -1.90294 0
M  V30 5036 C 478.65 -0.0174958 -3.59896 0
M  V30 5037 C 478.258 -1.3746 -4.2639 0
M  V30 5038 C 480.002 0.453934 -4.22066 0
M  V30 5039 C 477.909 -1.31289 -5.76643 0
M  V30 5040 H 476.839 -0.0104511 -0.753928 0
M  V30 5041 H 479.49 -0.710966 -1.69167 0
M  V30 5042 H 477.872 0.721182 -3.89378 0
M  V30 5043 H 479.046 -2.1314 -4.08544 0
M  V30 5044 H 477.361 -1.78438 -3.7623 0
M  V30 5045 H 479.958 0.518584 -5.32179 0
M  V30 5046 H 480.301 1.46706 -3.89594 0
M  V30 5047 H 480.834 -0.230044 -3.97134 0
M  V30 5048 H 477.573 -2.30217 -6.13743 0
M  V30 5049 H 477.093 -0.597973 -5.96812 0
M  V30 5050 H 478.772 -1.01713 -6.38955 0
M  V30 5051 N 478.904 1.54736 -0.299062 0
M  V30 5052 C 480.134 2.04215 0.312992 0
M  V30 5053 C 480.542 1.17596 1.48215 0
M  V30 5054 O 479.885 0.193835 1.82674 0
M  V30 5055 C 479.947 3.49696 0.833862 0
M  V30 5056 C 479.611 4.56518 -0.20977 0
M  V30 5057 C 480.608 5.09442 -1.03756 0
M  V30 5058 C 478.293 5.01073 -0.35091 0
M  V30 5059 C 480.287 6.05459 -1.99244 0
M  V30 5060 C 477.974 5.9691 -1.30924 0
M  V30 5061 C 478.972 6.48987 -2.1285 0
M  V30 5062 O 478.66 7.42947 -3.07059 0
M  V30 5063 H 478.392 0.672128 0.0722494 0
M  V30 5064 H 480.946 2.00718 -0.436043 0
M  V30 5065 H 479.176 3.5051 1.63339 0
M  V30 5066 H 480.865 3.82381 1.36159 0
M  V30 5067 H 481.631 4.75816 -0.939376 0
M  V30 5068 H 477.51 4.60168 0.276813 0
M  V30 5069 H 481.054 6.46031 -2.63229 0
M  V30 5070 H 476.951 6.29953 -1.40815 0
M  V30 5071 H 477.719 7.60743 -3.02015 0
M  V30 5072 N 480.382 0.0267497 1.57577 0
M  V30 5073 C 481.345 -0.940916 2.08996 0
M  V30 5074 C 482.345 -1.25561 1.00455 0
M  V30 5075 O 483.535 -1.19634 1.26623 0
M  V30 5076 C 480.667 -2.25814 2.55384 0
M  V30 5077 H 481.86 -0.495628 2.95776 0
M  V30 5078 H 479.413 -0.221241 1.54726 0
M  V30 5079 H 480.148 -2.74976 1.71926 0
M  V30 5080 H 479.933 -2.04285 3.34679 0
M  V30 5081 H 481.423 -2.95178 2.95398 0
M  V30 5082 N 481.861 -1.55662 -0.24637 0
M  V30 5083 C 483.086 -1.81914 -0.996093 0
M  V30 5084 C 483.511 -0.603875 -1.78143 0
M  V30 5085 O 482.869 0.447091 -1.75701 0
M  V30 5086 C 482.917 -3.05908 -1.90925 0
M  V30 5087 O 482.021 -2.82861 -3.00105 0
M  V30 5088 H 481.362 -0.600481 -0.283406 0
M  V30 5089 H 483.892 -2.02848 -0.267199 0
M  V30 5090 H 483.902 -3.35356 -2.3238 0
M  V30 5091 H 482.577 -3.93999 -1.33183 0
M  V30 5092 H 481.154 -2.64583 -2.62775 0
M  V30 5093 N 483.339 0.512053 -1.4905 0
M  V30 5094 C 484.586 1.26686 -1.57978 0
M  V30 5095 C 484.914 1.92733 -0.261553 0
M  V30 5096 O 484.169 1.80772 0.749667 0
M  V30 5097 C 484.468 2.36446 -2.68008 0
M  V30 5098 C 484.134 1.87932 -4.09869 0
M  V30 5099 C 482.796 1.74419 -4.48477 0
M  V30 5100 C 485.148 1.5149 -4.98698 0
M  V30 5101 C 482.476 1.22827 -5.73699 0
M  V30 5102 C 484.828 1.01355 -6.24428 0
M  V30 5103 C 483.492 0.864735 -6.61875 0
M  V30 5104 H 482.762 0.463577 -0.578081 0
M  V30 5105 H 485.409 0.569421 -1.82838 0
M  V30 5106 H 483.714 3.11933 -2.37076 0
M  V30 5107 H 485.411 2.9453 -2.72127 0
M  V30 5108 H 482.001 1.99405 -3.79389 0
M  V30 5109 H 486.185 1.60782 -4.69535 0
M  V30 5110 H 481.441 1.10008 -6.01422 0
M  V30 5111 H 485.615 0.722351 -6.92644 0
M  V30 5112 H 483.242 0.462777 -7.5879 0
M  V30 5113 N 484.817 1.37938 0.762283 0
M  V30 5114 C 486.042 1.37059 1.55659 0
M  V30 5115 C 486.467 -0.0396123 1.88058 0
M  V30 5116 O 485.825 -1.01929 1.49934 0
M  V30 5117 C 485.873 2.22494 2.83776 0
M  V30 5118 O 484.977 1.63607 3.78559 0
M  V30 5119 H 484.318 0.467892 0.47114 0
M  V30 5120 H 486.848 1.81587 0.942725 0
M  V30 5121 H 486.858 2.36045 3.32786 0
M  V30 5122 H 485.533 3.24993 2.59524 0
M  V30 5123 H 484.11 1.5915 3.37233 0
M  V30 5124 N 486.295 -0.989507 1.22664 0
M  V30 5125 C 487.52 -1.77031 1.08051 0
M  V30 5126 C 487.945 -1.84535 -0.364483 0
M  V30 5127 O 487.303 -1.3003 -1.2634 0
M  V30 5128 C 487.351 -3.18 1.70024 0
M  V30 5129 O 486.455 -4.01161 0.956216 0
M  V30 5130 H 485.796 -0.545008 0.379292 0
M  V30 5131 H 488.326 -1.24277 1.62531 0
M  V30 5132 H 488.336 -3.68616 1.74888 0
M  V30 5133 H 487.011 -3.11853 2.75174 0
M  V30 5134 H 485.588 -3.59687 0.98384 0
M  V30 5135 N 487.773 -1.03688 -1.18687 0
M  V30 5136 C 488.998 -0.757819 -1.93059 0
M  V30 5137 C 489.423 0.678353 -1.75442 0
M  V30 5138 O 488.781 1.46938 -1.06203 0
M  V30 5139 C 488.829 -1.12423 -3.42627 0
M  V30 5140 O 487.933 -0.247505 -4.11657 0
M  V30 5141 H 487.274 -0.279245 -0.602427 0
M  V30 5142 H 489.804 -1.3857 -1.5053 0
M  V30 5143 H 489.814 -1.08454 -3.93322 0
M  V30 5144 H 488.489 -2.17049 -3.54771 0
M  V30 5145 H 487.066 -0.34649 -3.71287 0
M  V30 5146 N 489.251 1.34841 -0.815825 0
M  V30 5147 C 490.497 1.98793 -0.401129 0
M  V30 5148 C 490.83 1.64548 1.03139 0
M  V30 5149 O 490.105 0.913487 1.71714 0
M  V30 5150 C 490.388 3.55143 -0.595409 0
M  V30 5151 C 490.241 3.99155 -2.07352 0
M  V30 5152 C 491.56 4.40092 -0.0268823 0
M  V30 5153 H 488.679 0.722146 -0.14722 0
M  V30 5154 H 491.321 1.59847 -1.02707 0
M  V30 5155 H 489.471 3.8845 -0.0625779 0
M  V30 5156 H 491.143 3.76216 -2.66945 0
M  V30 5157 H 489.386 3.49726 -2.56659 0
M  V30 5158 H 490.057 5.07971 -2.1603 0
M  V30 5159 H 492.533 4.13298 -0.482042 0
M  V30 5160 H 491.409 5.48562 -0.19267 0
M  V30 5161 H 491.67 4.29016 1.06759 0
M  V30 5162 N 490.729 0.570148 1.46925 0
M  V30 5163 C 491.954 0.0542592 2.07329 0
M  V30 5164 C 492.379 -1.23582 1.41806 0
M  V30 5165 O 491.737 -1.74341 0.497479 0
M  V30 5166 C 491.785 -0.111175 3.60429 0
M  V30 5167 O 490.889 -1.17071 3.95434 0
M  V30 5168 H 490.23 0.0571425 0.661537 0
M  V30 5169 H 492.76 0.789516 1.88753 0
M  V30 5170 H 492.77 -0.321315 4.06733 0
M  V30 5171 H 491.445 0.831012 4.07513 0
M  V30 5172 H 490.022 -0.940029 3.60857 0
M  V30 5173 N 492.207 -1.54576 0.307264 0
M  V30 5174 C 493.432 -2.05139 -0.305379 0
M  V30 5175 C 493.857 -1.18278 -1.46259 0
M  V30 5176 O 493.215 -0.188243 -1.8032 0
M  V30 5177 C 493.263 -3.53066 -0.733283 0
M  V30 5178 O 492.367 -3.69206 -1.83741 0
M  V30 5179 H 491.708 -0.661444 -0.0582105 0
M  V30 5180 H 494.238 -1.99569 0.450931 0
M  V30 5181 H 494.248 -3.95034 -1.02039 0
M  V30 5182 H 492.923 -4.15746 0.113198 0
M  V30 5183 H 491.5 -3.39143 -1.55037 0
M  V30 5184 N 493.685 -0.035106 -1.57561 0
M  V30 5185 C 494.595 0.960295 -2.14046 0
M  V30 5186 C 495.611 1.3529 -1.0942 0
M  V30 5187 O 496.787 1.43309 -1.41508 0
M  V30 5188 C 493.852 2.22214 -2.66124 0
M  V30 5189 C 492.913 1.8894 -3.85487 0
M  V30 5190 C 492.146 3.09109 -4.35072 0
M  V30 5191 O 492.369 4.21963 -3.83802 0
M  V30 5192 O 491.303 2.91058 -5.26848 0
M  V30 5193 H 495.129 0.509983 -2.99387 0
M  V30 5194 H 492.714 0.185853 -1.48239 0
M  V30 5195 H 494.596 2.96279 -2.99661 0
M  V30 5196 H 493.271 2.66414 -1.83862 0
M  V30 5197 H 492.178 1.12241 -3.56865 0
M  V30 5198 H 493.511 1.49551 -4.6893 0
M  V30 5199 N 495.163 1.55791 0.238111 0
M  V30 5200 C 496.093 1.94068 1.29846 0
M  V30 5201 C 497.074 0.806726 1.49753 0
M  V30 5202 O 498.259 1.06772 1.62214 0
M  V30 5203 C 495.389 2.24302 2.65153 0
M  V30 5204 C 494.343 3.40032 2.59927 0
M  V30 5205 C 493.669 3.55829 3.99111 0
M  V30 5206 C 494.969 4.75476 2.16148 0
M  V30 5207 H 496.663 2.82887 0.980563 0
M  V30 5208 H 494.209 1.36105 0.470253 0
M  V30 5209 H 496.162 2.4967 3.39475 0
M  V30 5210 H 494.886 1.32318 2.98596 0
M  V30 5211 H 493.545 3.14687 1.88063 0
M  V30 5212 H 493.193 2.6125 4.29834 0
M  V30 5213 H 492.893 4.3366 3.96501 0
M  V30 5214 H 494.417 3.83528 4.7512 0
M  V30 5215 H 495.831 5.00158 2.80205 0
M  V30 5216 H 494.228 5.56472 2.24631 0
M  V30 5217 H 495.298 4.71946 1.11333 0
M  V30 5218 N 496.642 -0.504142 1.49319 0
M  V30 5219 C 498.058 -0.835039 1.36012 0
M  V30 5220 C 498.258 -1.97674 0.390808 0
M  V30 5221 O 497.314 -2.51867 -0.178655 0
M  V30 5222 C 498.627 -1.17821 2.76656 0
M  V30 5223 C 500.175 -1.2866 2.85334 0
M  V30 5224 C 500.65 -1.66307 4.26739 0
M  V30 5225 N 502.141 -1.73362 4.29534 0
M  V30 5226 C 502.876 -2.0393 5.35911 0
M  V30 5227 N 502.372 -2.32744 6.52535 0
M  V30 5228 N 504.165 -2.05155 5.23324 0
M  V30 5229 H 496.316 0.248764 2.10938 0
M  V30 5230 H 498.579 0.0486962 0.946748 0
M  V30 5231 H 498.285 -0.412682 3.4927 0
M  V30 5232 H 498.159 -2.12239 3.11825 0
M  V30 5233 H 500.546 -2.04285 2.1296 0
M  V30 5234 H 500.627 -0.323004 2.53752 0
M  V30 5235 H 500.271 -0.91234 4.99639 0
M  V30 5236 H 500.201 -2.63761 4.55782 0
M  V30 5237 H 502.692 -1.53268 3.45424 0
M  V30 5238 H 503.005 -2.55248 7.2943 0
M  V30 5239 H 501.35 -2.30207 6.55767 0
M  V30 5240 H 504.541 -1.82119 4.3122 0
M  V30 5241 H 504.714 -2.28644 6.06322 0
M  V30 5242 N 498.12 -1.38341 -0.754957 0
M  V30 5243 C 499.345 -1.37882 -1.5493 0
M  V30 5244 C 499.77 0.0296385 -1.88077 0
M  V30 5245 O 499.128 1.01133 -1.50472 0
M  V30 5246 C 499.176 -2.23996 -2.82592 0
M  V30 5247 O 498.28 -1.65612 -3.77686 0
M  V30 5248 H 497.621 -0.470384 -0.468652 0
M  V30 5249 H 500.151 -1.82084 -0.933082 0
M  V30 5250 H 500.161 -2.37806 -3.3153 0
M  V30 5251 H 498.836 -3.26365 -2.57796 0
M  V30 5252 H 497.413 -1.60936 -3.36384 0
M  V30 5253 N 499.598 0.982988 -1.23187 0
M  V30 5254 C 500.528 2.09301 -1.03515 0
M  V30 5255 C 501.509 1.70035 0.0471136 0
M  V30 5256 O 502.694 1.93847 -0.117029 0
M  V30 5257 C 499.824 3.4167 -0.622791 0
M  V30 5258 C 498.778 3.94828 -1.65211 0
M  V30 5259 C 498.104 5.23362 -1.09527 0
M  V30 5260 C 499.404 4.2439 -3.04451 0
M  V30 5261 H 501.098 2.26016 -1.96359 0
M  V30 5262 H 498.644 1.08611 -0.945501 0
M  V30 5263 H 500.597 4.18746 -0.472233 0
M  V30 5264 H 499.321 3.24811 0.341329 0
M  V30 5265 H 497.98 3.19895 -1.79061 0
M  V30 5266 H 497.628 5.02852 -0.122211 0
M  V30 5267 H 497.328 5.59895 -1.783 0
M  V30 5268 H 498.852 6.03062 -0.956511 0
M  V30 5269 H 500.266 4.92225 -2.93917 0
M  V30 5270 H 498.663 4.72118 -3.70438 0
M  V30 5271 H 499.733 3.31765 -3.53638 0
M  V30 5272 N 501.076 1.04316 1.18135 0
M  V30 5273 C 502.006 0.657299 2.24058 0
M  V30 5274 C 502.987 -0.340678 1.66654 0
M  V30 5275 O 504.172 -0.220223 1.92947 0
M  V30 5276 C 501.302 0.0220715 3.47293 0
M  V30 5277 C 500.256 0.943857 4.17463 0
M  V30 5278 C 499.582 0.172973 5.3442 0
M  V30 5279 C 500.882 2.26409 4.70677 0
M  V30 5280 H 502.576 1.5428 2.56589 0
M  V30 5281 H 500.122 0.743263 1.23335 0
M  V30 5282 H 502.075 -0.259607 4.206 0
M  V30 5283 H 500.799 -0.898323 3.14003 0
M  V30 5284 H 499.458 1.20996 3.46057 0
M  V30 5285 H 499.106 -0.749907 4.97379 0
M  V30 5286 H 498.806 0.787098 5.82304 0
M  V30 5287 H 500.33 -0.101628 6.10515 0
M  V30 5288 H 501.744 2.04294 5.35665 0
M  V30 5289 H 500.141 2.8314 5.29105 0
M  V30 5290 H 501.211 2.90883 3.87962 0
M  V30 5291 N 502.554 -1.34406 0.822964 0
M  V30 5292 C 503.794 -2.00103 0.416915 0
M  V30 5293 C 504.158 -1.63826 -1.00125 0
M  V30 5294 O 505.359 -2.22367 -1.51018 0
M  V30 5295 C 503.63 -3.52101 0.613151 0
M  V30 5296 S 505.189 -4.37774 0.299956 0
M  V30 5297 H 502.007 -0.69333 0.157527 0
M  V30 5298 H 504.609 -1.63698 1.06879 0
M  V30 5299 H 503.313 -3.75991 1.64496 0
M  V30 5300 H 502.844 -3.93364 -0.0534554 0
M  V30 5301 H 504.859 -4.8822 -0.886336 0
M  V30 5302 N 504.032 -0.577932 -1.46621 0
M  V30 5303 C 505.272 -0.0643097 -2.04299 0
M  V30 5304 C 505.636 1.26967 -1.44026 0
M  V30 5305 O 506.837 1.87224 -1.92875 0
M  V30 5306 C 505.108 0.00547588 -3.574 0
M  V30 5307 S 506.667 0.462216 -4.36359 0
M  V30 5308 H 503.485 -0.0351573 -0.71013 0
M  V30 5309 H 506.087 -0.76935 -1.79725 0
M  V30 5310 H 504.791 -0.969423 -3.98786 0
M  V30 5311 H 504.322 0.733435 -3.86503 0
M  V30 5312 H 506.337 1.71791 -4.65513 0
M  V30 5313 N 505.51 1.54411 -0.315457 0
M  V30 5314 C 506.473 2.22713 0.54142 0
M  V30 5315 C 507.473 1.2179 1.04995 0
M  V30 5316 O 508.663 1.46426 0.943667 0
M  V30 5317 C 505.795 2.92485 1.75116 0
M  V30 5318 H 506.988 2.99849 -0.0555508 0
M  V30 5319 H 504.541 1.56159 -0.0664453 0
M  V30 5320 H 505.276 2.19466 2.38758 0
M  V30 5321 H 505.061 3.66483 1.39401 0
M  V30 5322 H 506.551 3.44548 2.35959 0
M  V30 5323 N 506.988 0.0434614 1.5754 0
M  V30 5324 C 508.404 -0.313039 1.565 0
M  V30 5325 C 508.604 -1.71954 1.05043 0
M  V30 5326 O 507.66 -2.425 0.703564 0
M  V30 5327 C 508.973 -0.148544 3.00333 0
M  V30 5328 C 510.521 -0.220231 3.12224 0
M  V30 5329 C 510.996 -0.0843565 4.57922 0
M  V30 5330 N 512.487 -0.140881 4.62986 0
M  V30 5331 C 513.222 -0.0597443 5.73369 0
M  V30 5332 N 512.718 0.0733004 6.92761 0
M  V30 5333 N 514.511 -0.11477 5.61983 0
M  V30 5334 H 506.662 0.96303 1.89313 0
M  V30 5335 H 508.925 0.373164 0.871466 0
M  V30 5336 H 508.631 0.820894 3.41986 0
M  V30 5337 H 508.505 -0.912798 3.65989 0
M  V30 5338 H 510.892 -1.18014 2.70475 0
M  V30 5339 H 510.973 0.574646 2.49262 0
M  V30 5340 H 510.617 0.872192 5.00355 0
M  V30 5341 H 510.547 -0.898281 5.18882 0
M  V30 5342 H 513.038 -0.243273 3.77116 0
M  V30 5343 H 513.351 0.128128 7.72694 0
M  V30 5344 H 511.696 0.10828 6.94916 0
M  V30 5345 H 514.887 -0.217212 4.67596 0
M  V30 5346 H 515.06 -0.0480779 6.47982 0
M  V30 5347 N 508.466 -1.55915 -0.229846 0
M  V30 5348 C 509.714 -1.7819 -0.953565 0
M  V30 5349 C 510.035 -0.610504 -1.85197 0
M  V30 5350 O 509.305 0.372988 -1.92316 0
M  V30 5351 H 507.885 -0.657208 -0.355087 0
M  V30 5352 H 510.547 -1.9337 -0.243693 0
M  V30 5353 H 509.643 -2.70011 -1.56527 0
M  V30 5354 N 509.944 0.496216 -1.49584 0
M  V30 5355 C 511.36 0.827814 -1.36453 0
M  V30 5356 C 511.56 1.97464 -0.401285 0
M  V30 5357 O 510.616 2.51958 0.165296 0
M  V30 5358 C 511.929 1.16352 -2.77277 0
M  V30 5359 C 513.477 1.27145 -2.86013 0
M  V30 5360 C 513.952 1.64042 -4.27615 0
M  V30 5361 N 515.443 1.71082 -4.30448 0
M  V30 5362 C 516.178 2.01085 -5.36984 0
M  V30 5363 N 515.674 2.2928 -6.5376 0
M  V30 5364 N 517.467 2.02376 -5.24405 0
M  V30 5365 H 509.618 -0.259947 -2.10803 0
M  V30 5366 H 511.881 -0.0537163 -0.946477 0
M  V30 5367 H 511.587 0.394153 -3.49484 0
M  V30 5368 H 511.461 2.10582 -3.12946 0
M  V30 5369 H 513.848 2.03152 -2.1404 0
M  V30 5370 H 513.929 0.309542 -2.5392 0
M  V30 5371 H 513.573 0.88583 -5.00115 0
M  V30 5372 H 513.503 2.6134 -4.57175 0
M  V30 5373 H 515.994 1.51434 -3.46232 0
M  V30 5374 H 516.307 2.51376 -7.30774 0
M  V30 5375 H 514.652 2.26726 -6.56978 0
M  V30 5376 H 517.843 1.79829 -4.32179 0
M  V30 5377 H 518.016 2.25425 -6.07526 0
M  V30 5378 N 511.423 1.38739 0.74761 0
M  V30 5379 C 512.651 1.38521 1.53686 0
M  V30 5380 C 513.066 -0.0235129 1.88785 0
M  V30 5381 O 512.423 -0.991662 1.53207 0
M  V30 5382 C 512.474 2.24641 2.83229 0
M  V30 5383 O 512.195 3.60026 2.49625 0
M  V30 5384 C 513.696 2.32669 3.77333 0
M  V30 5385 H 510.916 0.473589 0.475347 0
M  V30 5386 H 513.46 1.82395 0.924786 0
M  V30 5387 H 511.615 1.84213 3.40799 0
M  V30 5388 H 512.029 4.05435 3.3275 0
M  V30 5389 H 513.503 2.97201 4.65162 0
M  V30 5390 H 513.98 1.3421 4.18192 0
M  V30 5391 H 514.586 2.73512 3.25685 0
M  V30 5392 N 512.901 -0.976442 1.23707 0
M  V30 5393 C 514.312 -1.53284 1.06587 0
M  V30 5394 C 514.663 -1.92765 -0.365526 0
M  V30 5395 O 513.788 -1.7645 -1.25277 0
M  V30 5396 C 514.383 -2.78548 1.92864 0
M  V30 5397 C 512.942 -3.30574 1.79994 0
M  V30 5398 C 512.089 -2.03538 1.88328 0
M  V30 5399 H 515.04 -0.795692 1.37311 0
M  V30 5400 H 515.061 -3.5155 1.45577 0
M  V30 5401 H 514.573 -2.49782 2.97037 0
M  V30 5402 H 512.674 -3.64211 0.786202 0
M  V30 5403 H 512.787 -4.00065 2.636 0
M  V30 5404 H 511.151 -2.17853 1.31954 0
M  V30 5405 H 511.934 -1.77149 2.94063 0
M  V30 5406 N 514.379 -1.04941 -1.1758 0
M  V30 5407 C 515.79 -0.784501 -1.69418 0
M  V30 5408 C 516.141 0.693625 -1.8353 0
M  V30 5409 O 515.266 1.53925 -1.52106 0
M  V30 5410 C 515.861 -1.41746 -3.07723 0
M  V30 5411 C 514.42 -1.20066 -3.56737 0
M  V30 5412 C 513.567 -1.5026 -2.33061 0
M  V30 5413 H 516.518 -1.21469 -1.02133 0
M  V30 5414 H 516.539 -0.825381 -3.7144 0
M  V30 5415 H 516.051 -2.49325 -2.9742 0
M  V30 5416 H 514.152 -0.144006 -3.72322 0
M  V30 5417 H 514.265 -1.90384 -4.39648 0
M  V30 5418 H 512.629 -0.922598 -2.37403 0
M  V30 5419 H 513.412 -2.58967 -2.25368 0
M  V30 5420 N 515.857 1.33968 -0.830081 0
M  V30 5421 C 517.082 2.02813 -0.433796 0
M  V30 5422 C 517.507 1.62076 0.954614 0
M  V30 5423 O 516.865 0.808955 1.62252 0
M  V30 5424 C 516.913 3.56348 -0.552115 0
M  V30 5425 O 516.017 4.10202 0.425191 0
M  V30 5426 H 515.358 0.639817 -0.177567 0
M  V30 5427 H 517.888 1.7106 -1.12248 0
M  V30 5428 H 517.898 4.05722 -0.430513 0
M  V30 5429 H 516.573 3.85344 -1.56471 0
M  V30 5430 H 515.15 3.71979 0.261878 0
M  V30 5431 N 517.335 0.585699 1.46312 0
M  V30 5432 C 518.265 -0.133556 2.33118 0
M  V30 5433 C 519.246 -0.880707 1.45525 0
M  V30 5434 O 520.431 -0.855579 1.74337 0
M  V30 5435 C 517.561 -1.14585 3.27853 0
M  V30 5436 C 516.515 -0.513341 4.2491 0
M  V30 5437 C 515.841 -1.63231 5.09175 0
M  V30 5438 C 517.141 0.551413 5.19381 0
M  V30 5439 H 518.835 0.59121 2.93505 0
M  V30 5440 H 516.381 0.285761 1.41136 0
M  V30 5441 H 518.334 -1.65741 3.87438 0
M  V30 5442 H 517.058 -1.90093 2.65579 0
M  V30 5443 H 515.717 -0.0228349 3.66593 0
M  V30 5444 H 515.365 -2.37713 4.43285 0
M  V30 5445 H 515.065 -1.21473 5.74907 0
M  V30 5446 H 516.589 -2.14658 5.71624 0
M  V30 5447 H 518.003 0.124804 5.73164 0
M  V30 5448 H 516.4 0.889486 5.93471 0
M  V30 5449 H 517.47 1.43655 4.63132 0
M  V30 5450 N 518.813 -1.54241 0.323641 0
M  V30 5451 C 520.061 -2.00174 -0.278359 0
M  V30 5452 C 520.382 -1.2134 -1.52648 0
M  V30 5453 O 519.652 -0.315244 -1.93347 0
M  V30 5454 H 518.232 -0.739463 -0.105845 0
M  V30 5455 H 520.894 -1.89864 0.440204 0
M  V30 5456 H 519.99 -3.07486 -0.5347 0
M  V30 5457 N 520.291 -0.0518155 -1.57515 0
M  V30 5458 C 521.702 0.483787 -1.80323 0
M  V30 5459 C 522.053 1.70879 -0.964099 0
M  V30 5460 O 521.178 2.15643 -0.180872 0
M  V30 5461 C 521.773 0.884459 -3.27052 0
M  V30 5462 C 520.332 1.36504 -3.50776 0
M  V30 5463 C 519.479 0.340539 -2.75201 0
M  V30 5464 H 522.43 -0.277691 -1.56252 0
M  V30 5465 H 522.451 1.74733 -3.38007 0
M  V30 5466 H 521.963 -0.00731093 -3.88099 0
M  V30 5467 H 520.064 2.27598 -2.95009 0
M  V30 5468 H 520.177 1.35675 -4.59488 0
M  V30 5469 H 518.541 0.81356 -2.41357 0
M  V30 5470 H 519.324 -0.543156 -3.38976 0
M  V30 5471 N 521.769 1.56035 0.221574 0
M  V30 5472 C 522.701 1.889 1.29805 0
M  V30 5473 C 523.714 0.777269 1.43047 0
M  V30 5474 O 524.903 1.05557 1.43945 0
M  V30 5475 C 522.003 2.0825 2.67367 0
M  V30 5476 C 521.176 3.39267 2.76073 0
M  V30 5477 C 520.235 3.48049 3.94649 0
M  V30 5478 O 519.261 4.2108 3.82988 0
M  V30 5479 N 520.463 2.79191 5.08953 0
M  V30 5480 H 523.228 2.81831 1.01938 0
M  V30 5481 H 520.789 1.5658 0.411612 0
M  V30 5482 H 522.781 2.11441 3.45072 0
M  V30 5483 H 521.351 1.21944 2.87834 0
M  V30 5484 H 520.571 3.48175 1.84846 0
M  V30 5485 H 521.859 4.25575 2.7886 0
M  V30 5486 H 521.257 2.19635 5.21322 0
M  V30 5487 H 519.814 2.88043 5.84701 0
M  V30 5488 N 523.247 -0.488276 1.49845 0
M  V30 5489 C 524.524 -1.24959 1.50481 0
M  V30 5490 C 524.904 -2.09735 0.239698 0
M  V30 5491 O 524.252 -2.14865 -0.777524 0
M  V30 5492 C 524.462 -2.0954 2.79095 0
M  V30 5493 C 525.81 -2.68305 3.29086 0
M  V30 5494 O 526.834 -2.19797 2.80299 0
M  V30 5495 O 525.693 -3.56643 4.14087 0
M  V30 5496 H 522.787 -0.566133 0.602845 0
M  V30 5497 H 525.333 -0.501504 1.6212 0
M  V30 5498 H 524.105 -1.46958 3.62656 0
M  V30 5499 H 523.728 -2.91517 2.70377 0
M  V30 5500 N 524.725 -1.39134 -0.740242 0
M  V30 5501 C 525.635 -1.39697 -1.88473 0
M  V30 5502 C 526.651 -0.292403 -1.71526 0
M  V30 5503 O 527.827 -0.533021 -1.94219 0
M  V30 5504 C 524.892 -1.23382 -3.24003 0
M  V30 5505 C 523.953 -2.43763 -3.53381 0
M  V30 5506 C 523.186 -2.28216 -4.82445 0
M  V30 5507 O 523.409 -1.28288 -5.55786 0
M  V30 5508 O 522.343 -3.1709 -5.11603 0
M  V30 5509 H 526.169 -2.36159 -1.90952 0
M  V30 5510 H 523.754 -1.20194 -0.887346 0
M  V30 5511 H 525.636 -1.16395 -4.05006 0
M  V30 5512 H 524.311 -0.300121 -3.22306 0
M  V30 5513 H 523.218 -2.56325 -2.72485 0
M  V30 5514 H 524.551 -3.35808 -3.59852 0
M  V30 5515 N 526.204 0.969867 -1.24223 0
M  V30 5516 C 527.429 1.75289 -1.10853 0
M  V30 5517 C 527.854 1.85091 0.335079 0
M  V30 5518 O 527.212 1.32024 1.24255 0
M  V30 5519 C 527.26 3.15255 -1.75062 0
M  V30 5520 O 526.364 3.99589 -1.01992 0
M  V30 5521 H 525.705 0.538904 -0.387915 0
M  V30 5522 H 528.235 1.21675 -1.64488 0
M  V30 5523 H 528.245 3.65787 -1.80731 0
M  V30 5524 H 526.92 3.07436 -2.801 0
M  V30 5525 H 525.497 3.58077 -1.04094 0
M  V30 5526 N 527.682 1.05563 1.17022 0
M  V30 5527 C 528.922 0.777033 1.89054 0
M  V30 5528 C 529.286 -0.683617 1.79418 0
M  V30 5529 O 530.487 -1.07648 2.46303 0
M  V30 5530 C 528.758 1.24886 3.34871 0
M  V30 5531 S 530.317 1.0982 4.24835 0
M  V30 5532 H 527.135 0.282082 0.652649 0
M  V30 5533 H 529.737 1.35103 1.41306 0
M  V30 5534 H 528.441 2.30699 3.3942 0
M  V30 5535 H 527.972 0.669292 3.87665 0
M  V30 5536 H 529.987 0.02462 4.96194 0
M  V30 5537 N 529.16 -1.33526 0.837174 0
M  V30 5538 C 530.388 -2.02047 0.445494 0
M  V30 5539 C 530.803 -1.62995 -0.952788 0
M  V30 5540 O 530.16 -0.842447 -1.61892 0
M  V30 5541 C 530.211 -3.57221 0.554577 0
M  V30 5542 O 529.932 -3.94863 1.89776 0
M  V30 5543 C 531.433 -4.43012 0.159634 0
M  V30 5544 H 528.653 -0.647221 0.177048 0
M  V30 5545 H 531.197 -1.70492 1.12928 0
M  V30 5546 H 529.352 -3.87315 -0.0812781 0
M  V30 5547 H 529.766 -4.89569 1.88208 0
M  V30 5548 H 531.24 -5.51253 0.28701 0
M  V30 5549 H 531.717 -4.29916 -0.898289 0
M  V30 5550 H 532.323 -4.18274 0.769855 0
M  V30 5551 N 530.638 -0.59345 -1.46 0
M  V30 5552 C 531.866 -0.0890934 -2.06708 0
M  V30 5553 C 532.281 1.2205 -1.44046 0
M  V30 5554 O 531.638 1.74029 -0.549551 0
M  V30 5555 C 531.689 0.0720263 -3.61428 0
M  V30 5556 O 531.41 -1.18574 -4.21748 0
M  V30 5557 C 532.911 0.609487 -4.3909 0
M  V30 5558 H 530.131 -0.0623628 -0.668096 0
M  V30 5559 H 532.675 -0.817171 -1.87464 0
M  V30 5560 H 530.83 0.750369 -3.80063 0
M  V30 5561 H 531.244 -1.0064 -5.14754 0
M  V30 5562 H 532.718 0.671363 -5.47902 0
M  V30 5563 H 533.195 1.62878 -4.07882 0
M  V30 5564 H 533.801 -0.03434 -4.25286 0
M  V30 5565 N 532.116 1.54067 -0.331816 0
M  V30 5566 C 533.079 2.23275 0.517768 0
M  V30 5567 C 534.079 1.22897 1.03697 0
M  V30 5568 O 535.269 1.47419 0.928084 0
M  V30 5569 C 532.401 2.94326 1.72004 0
M  V30 5570 H 533.594 2.99773 -0.0873507 0
M  V30 5571 H 531.147 1.56079 -0.0830042 0
M  V30 5572 H 531.882 2.21986 2.36417 0
M  V30 5573 H 531.667 3.67941 1.35507 0
M  V30 5574 H 533.157 3.47031 2.32291 0
M  V30 5575 N 533.594 0.0601682 1.57485 0
M  V30 5576 C 534.819 -0.624416 1.97777 0
M  V30 5577 C 535.244 -1.63051 0.937867 0
M  V30 5578 O 534.602 -1.81036 -0.0978845 0
M  V30 5579 C 534.65 -1.27979 3.37126 0
M  V30 5580 O 533.754 -2.39556 3.35688 0
M  V30 5581 H 533.095 -0.161581 0.64404 0
M  V30 5582 H 535.625 0.131237 2.04179 0
M  V30 5583 H 535.635 -1.62937 3.74053 0
M  V30 5584 H 534.31 -0.542501 4.12347 0
M  V30 5585 H 532.887 -2.06478 3.10517 0
M  V30 5586 N 535.072 -1.5615 -0.213296 0
M  V30 5587 C 536.297 -1.83986 -0.957282 0
M  V30 5588 C 536.722 -0.641526 -1.76822 0
M  V30 5589 O 536.08 0.409722 -1.7661 0
M  V30 5590 C 536.128 -3.09889 -1.84393 0
M  V30 5591 O 535.232 -2.89163 -2.94038 0
M  V30 5592 H 534.573 -0.606357 -0.270605 0
M  V30 5593 H 537.103 -2.03369 -0.224111 0
M  V30 5594 H 537.113 -3.40209 -2.25215 0
M  V30 5595 H 535.788 -3.96735 -1.24795 0
M  V30 5596 H 534.365 -2.70097 -2.57103 0
M  V30 5597 N 536.55 0.480323 -1.50102 0
M  V30 5598 C 537.775 1.26126 -1.64642 0
M  V30 5599 C 538.2 1.85257 -0.325823 0
M  V30 5600 O 537.558 1.66854 0.709194 0
M  V30 5601 C 537.606 2.35243 -2.73301 0
M  V30 5602 O 536.71 3.39646 -2.33911 0
M  V30 5603 H 536.051 0.371463 -0.550374 0
M  V30 5604 H 538.581 0.572696 -1.96421 0
M  V30 5605 H 538.591 2.80695 -2.96098 0
M  V30 5606 H 537.266 1.91574 -3.6915 0
M  V30 5607 H 535.843 2.99969 -2.21525 0
M  V30 5608 N 538.028 1.39524 0.732853 0
M  V30 5609 C 538.958 1.41153 1.86005 0
M  V30 5610 C 539.939 0.274614 1.67869 0
M  V30 5611 O 541.124 0.480745 1.88155 0
M  V30 5612 C 538.254 1.25638 3.23778 0
M  V30 5613 C 537.208 2.36752 3.56556 0
M  V30 5614 C 536.534 2.06326 4.93289 0
M  V30 5615 C 537.834 3.79069 3.5931 0
M  V30 5616 H 539.528 2.35484 1.84899 0
M  V30 5617 H 537.074 1.13348 0.888162 0
M  V30 5618 H 539.027 1.25398 4.0231 0
M  V30 5619 H 537.751 0.277772 3.25417 0
M  V30 5620 H 536.41 2.36213 2.80355 0
M  V30 5621 H 536.058 1.06897 4.9151 0
M  V30 5622 H 535.758 2.80757 5.16187 0
M  V30 5623 H 537.282 2.07739 5.74175 0
M  V30 5624 H 538.696 3.81526 4.27914 0
M  V30 5625 H 537.093 4.52878 3.93728 0
M  V30 5626 H 538.163 4.09893 2.59068 0
M  V30 5627 N 539.506 -0.963266 1.24736 0
M  V30 5628 C 540.469 -2.04013 1.04457 0
M  V30 5629 C 541.469 -1.608 0.000335555 0
M  V30 5630 O 542.659 -1.72515 0.241719 0
M  V30 5631 C 539.791 -3.35858 0.584162 0
M  V30 5632 H 540.984 -2.23436 2.00041 0
M  V30 5633 H 538.537 -1.13914 1.07021 0
M  V30 5634 H 539.272 -3.22128 -0.374673 0
M  V30 5635 H 539.057 -3.68568 1.3379 0
M  V30 5636 H 540.547 -4.1502 0.463451 0
M  V30 5637 N 540.985 -1.06182 -1.16461 0
M  V30 5638 C 541.932 -0.671613 -2.20812 0
M  V30 5639 C 542.902 0.331186 -1.62765 0
M  V30 5640 O 544.087 0.22033 -1.89524 0
M  V30 5641 C 541.227 -0.063029 -3.45042 0
M  V30 5642 C 540.34 -1.11587 -4.1734 0
M  V30 5643 C 539.475 -0.473546 -5.29085 0
M  V30 5644 C 538.514 -1.51 -5.93182 0
M  V30 5645 N 537.651 -0.891118 -6.96422 0
M  V30 5646 H 542.491 -1.56589 -2.53542 0
M  V30 5647 H 540.028 -0.782951 -1.24532 0
M  V30 5648 H 541.986 0.307344 -4.16066 0
M  V30 5649 H 540.616 0.794663 -3.12866 0
M  V30 5650 H 539.668 -1.60396 -3.44931 0
M  V30 5651 H 540.98 -1.90221 -4.61104 0
M  V30 5652 H 540.134 -0.0501432 -6.06679 0
M  V30 5653 H 538.873 0.344687 -4.8648 0
M  V30 5654 H 537.878 -1.94331 -5.14311 0
M  V30 5655 H 539.103 -2.33031 -6.37866 0
M  V30 5656 H 537.049 -0.0935753 -6.55933 0
M  V30 5657 H 536.966 -1.61486 -7.38551 0
M  V30 5658 H 538.234 -0.492822 -7.77941 0
M  V30 5659 N 542.463 1.3308 -0.844243 0
M  V30 5660 C 543.74 1.92178 -0.364261 0
M  V30 5661 C 544.12 1.76961 1.15101 0
M  V30 5662 O 543.468 1.16128 1.9679 0
M  V30 5663 C 543.678 3.393 -0.817106 0
M  V30 5664 C 545.026 4.16444 -0.828236 0
M  V30 5665 O 546.05 3.47975 -0.761062 0
M  V30 5666 O 544.909 5.38685 -0.920926 0
M  V30 5667 H 542.003 0.820411 -0.10419 0
M  V30 5668 H 544.549 1.41918 -0.930453 0
M  V30 5669 H 543.321 3.44272 -1.85991 0
M  V30 5670 H 542.944 3.96947 -0.227785 0
M  V30 5671 N 543.941 0.601185 1.45683 0
M  V30 5672 C 545.169 0.100054 2.06658 0
M  V30 5673 C 545.584 -1.21285 1.44691 0
M  V30 5674 O 544.941 -1.73735 0.558772 0
M  V30 5675 C 544.992 -0.0528579 3.61461 0
M  V30 5676 O 544.713 1.20809 4.21114 0
M  V30 5677 C 546.214 -0.586193 4.39407 0
M  V30 5678 H 543.434 0.065905 0.667756 0
M  V30 5679 H 545.978 0.827101 1.87028 0
M  V30 5680 H 544.133 -0.730203 3.80456 0
M  V30 5681 H 544.547 1.03368 5.14213 0
M  V30 5682 H 546.021 -0.642297 5.4825 0
M  V30 5683 H 546.498 -1.60713 4.0874 0
M  V30 5684 H 547.104 0.0568935 4.25262 0
M  V30 5685 N 545.419 -1.53889 0.339982 0
M  V30 5686 C 546.644 -2.05741 -0.261798 0
M  V30 5687 C 547.069 -1.21354 -1.43718 0
M  V30 5688 O 546.427 -0.22645 -1.7988 0
M  V30 5689 C 546.475 -3.54542 -0.658228 0
M  V30 5690 O 545.579 -3.7302 -1.75869 0
M  V30 5691 H 544.92 -0.662529 -0.0441672 0
M  V30 5692 H 547.45 -1.98568 0.493161 0
M  V30 5693 H 547.46 -3.9711 -0.936368 0
M  V30 5694 H 546.135 -4.15412 0.201358 0
M  V30 5695 H 544.712 -3.42355 -1.47809 0
M  V30 5696 N 546.897 -0.0685191 -1.57451 0
M  V30 5697 C 548.122 0.613919 -1.98106 0
M  V30 5698 C 548.547 1.62551 -0.946501 0
M  V30 5699 O 547.905 1.81085 0.0882824 0
M  V30 5700 C 547.953 1.26189 -3.378 0
M  V30 5701 O 547.057 2.37773 -3.36954 0
M  V30 5702 H 546.398 0.158163 -0.644888 0
M  V30 5703 H 548.928 -0.142063 -2.04106 0
M  V30 5704 H 548.938 1.60951 -3.74912 0
M  V30 5705 H 547.613 0.520625 -4.12629 0
M  V30 5706 H 546.19 2.04829 -3.11608 0
M  V30 5707 O 548.414 1.61339 0.072188 0
M  V30 5708 H 549.105 1.80682 0.698125 0
M  V30 END ATOM
M  V30 BEGIN BOND
M  V30 END BOND
M  V30 END CTAB
M  END
$$$$
