drugbank_target|P39023 60S ribosomal protein L3 (DB02494; DB04865; DB07374; DB08437; DB09092)
 OpenBabel12092120423D

  0  0  0     0  0            999 V3000
M  V30 BEGIN CTAB
M  V30 COUNTS 6635 6703 0 0 0
M  V30 BEGIN ATOM
M  V30 1 H -0.908 1.98254 -0.117106 0
M  V30 2 N 0 1.576 0 0
M  V30 3 C 0.933 2.03868 1.02534 0
M  V30 4 C 1.911 0.928543 1.3348 0
M  V30 5 O 3.095 1.19667 1.45644 0
M  V30 6 C 0.222 2.43627 2.35294 0
M  V30 7 C -0.732 3.65373 2.2001 0
M  V30 8 S 0.101 5.13292 1.52614 0
M  V30 9 C 1.257 5.56322 2.86805 0
M  V30 10 H 1.49 2.90518 0.631377 0
M  V30 11 H -0.977 1.52953 0.210867 0
M  V30 12 H 0.981 2.67203 3.11629 0
M  V30 13 H -0.358 1.57376 2.7183 0
M  V30 14 H -1.165 3.90944 3.18086 0
M  V30 15 H -1.563 3.418 1.51819 0
M  V30 16 H 0.729 5.58782 3.83104 0
M  V30 17 H 1.672 6.56266 2.65933 0
M  V30 18 H 2.08 4.83886 2.90714 0
M  V30 19 N 1.4781 -0.272755 1.55222 0
M  V30 20 C 2.7031 -1.02683 1.80197 0
M  V30 21 C 3.1281 -1.79142 0.573551 0
M  V30 22 O 2.4861 -1.74917 -0.476849 0
M  V30 23 C 2.5341 -1.9609 3.02624 0
M  V30 24 O 1.6381 -3.04863 2.77727 0
M  V30 25 H 0.9791 -0.293557 0.595584 0
M  V30 26 H 3.5091 -0.30159 2.02365 0
M  V30 27 H 3.5191 -2.38039 3.31363 0
M  V30 28 H 2.1941 -1.39851 3.91682 0
M  V30 29 H 0.7711 -2.67228 2.60084 0
M  V30 30 N 2.9562 -1.48159 -0.537278 0
M  V30 31 C 3.9062 -1.5854 -1.63857 0
M  V30 32 C 4.8902 -0.442969 -1.54682 0
M  V30 33 O 6.0822 -0.69401 -1.62827 0
M  V30 34 C 3.2112 -1.62144 -3.02596 0
M  V30 35 C 2.2972 -2.81841 -3.16901 0
M  V30 36 N 2.6882 -4.06337 -3.01204 0
M  V30 37 C 0.9862 -2.79021 -3.47942 0
M  V30 38 C 1.6872 -4.86606 -3.18731 0
M  V30 39 N 0.6632 -4.19288 -3.45974 0
M  V30 40 H 4.4652 -2.5255 -1.50319 0
M  V30 41 H 1.9792 -1.4443 -0.742555 0
M  V30 42 H 3.9762 -1.67674 -3.81695 0
M  V30 43 H 2.6362 -0.69245 -3.17231 0
M  V30 44 H 3.6472 -4.36888 -2.78117 0
M  V30 45 H 0.3242 -1.95347 -3.6898 0
M  V30 46 H 1.7142 -5.95385 -3.11394 0
M  V30 47 N 4.4343 0.785586 -1.36625 0
M  V30 48 C 5.8503 1.08419 -1.17122 0
M  V30 49 C 6.0503 2.015 0.00208491 0
M  V30 50 O 5.1063 2.43551 0.666278 0
M  V30 51 C 6.4193 1.69498 -2.48377 0
M  V30 52 C 7.9673 1.81821 -2.54775 0
M  V30 53 C 8.4423 2.46315 -3.86126 0
M  V30 54 N 9.9333 2.53779 -3.87492 0
M  V30 55 C 10.6683 3.045 -4.85868 0
M  V30 56 N 10.1643 3.55499 -5.94637 0
M  V30 57 N 11.9573 3.03247 -4.73284 0
M  V30 58 H 4.1083 0.167264 -2.1174 0
M  V30 59 H 6.3713 0.13682 -0.938075 0
M  V30 60 H 6.0773 1.08571 -3.34522 0
M  V30 61 H 5.9513 2.6896 -2.64462 0
M  V30 62 H 8.3383 2.41884 -1.69045 0
M  V30 63 H 8.4193 0.811532 -2.42586 0
M  V30 64 H 8.0633 1.86895 -4.72263 0
M  V30 65 H 7.9933 3.47561 -3.95612 0
M  V30 66 H 10.4843 2.17672 -3.08913 0
M  V30 67 H 10.7973 3.92562 -6.65669 0
M  V30 68 H 9.1423 3.5364 -5.98301 0
M  V30 69 H 12.3333 2.62696 -3.87438 0
M  V30 70 H 12.5063 3.42467 -5.50109 0
M  V30 71 N 5.9124 1.20967 1.01018 0
M  V30 72 C 6.8594 0.964281 2.09691 0
M  V30 73 C 7.8294 -0.107853 1.65749 0
M  V30 74 O 9.0144 0.0381987 1.90762 0
M  V30 75 C 6.1544 0.52943 3.41015 0
M  V30 76 C 5.2674 1.67043 3.98398 0
M  V30 77 C 4.4024 1.18525 5.17808 0
M  V30 78 C 3.4414 2.29892 5.67288 0
M  V30 79 N 2.5784 1.82546 6.77954 0
M  V30 80 H 7.4184 1.89463 2.30017 0
M  V30 81 H 4.9554 0.944289 1.1279 0
M  V30 82 H 6.9134 0.258588 4.16398 0
M  V30 83 H 5.5434 -0.363919 3.20742 0
M  V30 84 H 4.5954 2.05603 3.20049 0
M  V30 85 H 5.9074 2.50877 4.31117 0
M  V30 86 H 5.0614 0.870762 6.00419 0
M  V30 87 H 3.8004 0.316887 4.86669 0
M  V30 88 H 2.8054 2.6215 4.83278 0
M  V30 89 H 4.0304 3.17216 6.00459 0
M  V30 90 H 1.9764 0.980454 6.48632 0
M  V30 91 H 1.8934 2.59956 7.09901 0
M  V30 92 H 3.1614 1.54115 7.64113 0
M  V30 93 N 7.3905 -1.2043 1.01659 0
M  V30 94 C 8.6375 -1.89797 0.705917 0
M  V30 95 C 8.9655 -1.78848 -0.764439 0
M  V30 96 O 8.2205 -1.16694 -1.57102 0
M  V30 97 C 8.5195 -3.40464 1.08714 0
M  V30 98 C 8.1855 -3.71614 2.5537 0
M  V30 99 C 6.8475 -3.79826 2.95441 0
M  V30 100 C 9.1995 -3.85915 3.50313 0
M  V30 101 C 6.5275 -3.99797 4.29394 0
M  V30 102 C 8.8795 -4.07396 4.83954 0
M  V30 103 C 7.5435 -4.13837 5.23732 0
M  V30 104 H 6.8135 -0.694518 0.258313 0
M  V30 105 H 9.4605 -1.42691 1.27717 0
M  V30 106 H 7.7655 -3.89385 0.434309 0
M  V30 107 H 9.4625 -3.92433 0.824461 0
M  V30 108 H 6.0525 -3.65822 2.23321 0
M  V30 109 H 10.2365 -3.78926 3.20513 0
M  V30 110 H 5.4925 -4.03018 4.59768 0
M  V30 111 H 9.6665 -4.17404 5.57447 0
M  V30 112 H 7.2935 -4.29064 6.27541 0
M  V30 113 N 8.8686 -0.792821 -1.36206 0
M  V30 114 C 10.0936 -0.377701 -2.03932 0
M  V30 115 C 10.5186 0.998947 -1.59382 0
M  V30 116 O 9.8766 1.64421 -0.763903 0
M  V30 117 C 9.9246 -0.453635 -3.57735 0
M  V30 118 O 9.0286 0.538151 -4.08874 0
M  V30 119 H 8.3696 -0.159855 -0.644471 0
M  V30 120 H 10.8996 -1.07488 -1.7409 0
M  V30 121 H 10.9096 -0.318464 -4.06755 0
M  V30 122 H 9.5846 -1.45784 -3.89512 0
M  V30 123 H 8.1616 0.364359 -3.71116 0
M  V30 124 N 10.3467 1.47872 -0.545128 0
M  V30 125 C 11.3097 2.28337 0.198717 0
M  V30 126 C 12.3097 1.36255 0.853888 0
M  V30 127 O 13.4997 1.59003 0.711606 0
M  V30 128 C 10.6317 3.15585 1.28915 0
M  V30 129 H 11.8247 2.95567 -0.507941 0
M  V30 130 H 9.3777 1.53362 -0.301616 0
M  V30 131 H 10.1127 2.53019 2.02859 0
M  V30 132 H 9.8977 3.83337 0.824309 0
M  V30 133 H 11.3877 3.76243 1.81194 0
M  V30 134 N 11.8248 0.280983 1.55075 0
M  V30 135 C 13.2358 -0.215629 1.85451 0
M  V30 136 C 13.5868 -1.54991 1.203 0
M  V30 137 O 12.7118 -2.10699 0.493435 0
M  V30 138 C 13.3068 -0.398026 3.36454 0
M  V30 139 C 11.8658 -0.838866 3.66933 0
M  V30 140 C 11.0128 0.064458 2.77225 0
M  V30 141 H 13.9638 0.502601 1.50531 0
M  V30 142 H 13.9848 -1.23569 3.59876 0
M  V30 143 H 13.4968 0.573241 3.83843 0
M  V30 144 H 11.5978 -1.8214 3.25048 0
M  V30 145 H 11.7108 -0.672123 4.74362 0
M  V30 146 H 10.0748 -0.452863 2.50642 0
M  V30 147 H 10.8578 1.03172 3.2743 0
M  V30 148 N 13.3029 -1.57598 0.00835791 0
M  V30 149 C 14.7189 -1.55764 -0.347822 0
M  V30 150 C 14.9189 -1.01186 -1.74252 0
M  V30 151 O 13.9749 -0.649371 -2.44007 0
M  V30 152 C 15.2879 -2.99927 -0.215407 0
M  V30 153 C 16.8359 -3.11656 -0.289725 0
M  V30 154 C 17.3109 -4.57621 -0.18634 0
M  V30 155 N 18.8019 -4.62557 -0.243978 0
M  V30 156 C 19.5369 -5.73094 -0.18745 0
M  V30 157 N 19.0329 -6.92753 -0.0810331 0
M  V30 158 N 20.8259 -5.61588 -0.239925 0
M  V30 159 H 12.9769 -1.91411 0.92062 0
M  V30 160 H 15.2399 -0.879562 0.353659 0
M  V30 161 H 14.9459 -3.43729 0.744512 0
M  V30 162 H 14.8199 -3.63865 -0.994097 0
M  V30 163 H 17.2069 -2.67779 -1.24009 0
M  V30 164 H 17.2879 -2.5048 0.51898 0
M  V30 165 H 16.9319 -5.02174 0.760519 0
M  V30 166 H 16.8619 -5.16752 -1.01364 0
M  V30 167 H 19.3529 -3.76481 -0.327217 0
M  V30 168 H 19.6659 -7.72787 -0.0440241 0
M  V30 169 H 18.0109 -6.94984 -0.0465419 0
M  V30 170 H 21.2019 -4.66996 -0.321317 0
M  V30 171 H 21.3749 -6.47714 -0.192407 0
M  V30 172 N 14.781 0.264519 -1.55364 0
M  V30 173 C 15.731 1.32966 -1.85214 0
M  V30 174 C 16.715 1.44306 -0.711653 0
M  V30 175 O 17.907 1.47844 -0.973192 0
M  V30 176 C 15.036 2.68839 -2.13495 0
M  V30 177 C 14.122 2.61575 -3.33825 0
M  V30 178 N 14.513 2.23933 -4.53528 0
M  V30 179 C 12.811 2.92621 -3.36584 0
M  V30 180 C 13.512 2.26868 -5.35636 0
M  V30 181 N 12.488 2.65677 -4.74254 0
M  V30 182 H 16.29 1.02884 -2.75304 0
M  V30 183 H 13.804 0.473157 -1.55354 0
M  V30 184 H 15.801 3.45685 -2.33039 0
M  V30 185 H 14.461 2.99802 -1.24694 0
M  V30 186 H 15.472 1.95769 -4.79474 0
M  V30 187 H 12.149 3.2824 -2.58002 0
M  V30 188 H 13.539 2.00254 -6.41364 0
M  V30 189 N 16.2591 1.48442 0.529413 0
M  V30 190 C 17.5071 1.56179 1.28267 0
M  V30 191 C 17.8281 0.237721 1.93546 0
M  V30 192 O 17.0981 -0.740779 1.81354 0
M  V30 193 H 15.6781 0.575367 0.476405 0
M  V30 194 H 18.3401 1.84909 0.61602 0
M  V30 195 H 17.4361 2.34312 2.06165 0
M  V30 196 N 17.7372 -0.778329 1.37039 0
M  V30 197 C 18.9622 -1.57248 1.35233 0
M  V30 198 C 19.3872 -1.87999 -0.0615568 0
M  V30 199 O 18.7452 -1.48734 -1.03672 0
M  V30 200 C 18.7932 -2.86353 2.19167 0
M  V30 201 O 17.8972 -3.80442 1.59178 0
M  V30 202 H 17.2382 -0.476569 0.462362 0
M  V30 203 H 19.7682 -0.963853 1.80474 0
M  V30 204 H 19.7782 -3.35519 2.32145 0
M  V30 205 H 18.4532 -2.63299 3.21942 0
M  V30 206 H 17.0302 -3.39067 1.55203 0
M  V30 207 N 19.2153 -1.21501 -1.00376 0
M  V30 208 C 20.1453 -0.999478 -2.11028 0
M  V30 209 C 21.1263 0.0759671 -1.6993 0
M  V30 210 O 22.3113 -0.0841106 -1.94018 0
M  V30 211 C 19.4413 -0.564709 -3.42678 0
M  V30 212 C 18.3953 -1.58486 -3.97576 0
M  V30 213 C 17.7213 -1.00628 -5.25146 0
M  V30 214 C 19.0213 -2.97204 -4.29496 0
M  V30 215 H 20.7153 -1.92495 -2.29317 0
M  V30 216 H 18.2613 -0.92693 -1.102 0
M  V30 217 H 20.2143 -0.401091 -4.19487 0
M  V30 218 H 18.9383 0.396411 -3.24185 0
M  V30 219 H 17.5973 -1.73606 -3.22888 0
M  V30 220 H 17.2453 -0.0368439 -5.02987 0
M  V30 221 H 16.9453 -1.68771 -5.62841 0
M  V30 222 H 18.4693 -0.854015 -6.04598 0
M  V30 223 H 19.8833 -2.8552 -4.97143 0
M  V30 224 H 18.2803 -3.62372 -4.78338 0
M  V30 225 H 19.3503 -3.47956 -3.3772 0
M  V30 226 N 20.6934 1.19889 -1.02296 0
M  V30 227 C 21.9414 1.89046 -0.714558 0
M  V30 228 C 22.2624 1.79636 0.758681 0
M  V30 229 O 21.5324 1.20292 1.54618 0
M  V30 230 H 20.1124 0.699802 -0.261317 0
M  V30 231 H 22.7744 1.45574 -1.29592 0
M  V30 232 H 21.8704 2.95524 -1.0036 0
M  V30 233 N 22.1715 0.800033 1.35784 0
M  V30 234 C 23.4185 0.377342 1.98953 0
M  V30 235 C 23.7465 -1.05378 1.6348 0
M  V30 236 O 23.0015 -1.74459 0.886707 0
M  V30 237 C 23.3005 0.500276 3.53881 0
M  V30 238 C 22.9665 1.89375 4.09204 0
M  V30 239 C 21.6285 2.27499 4.24025 0
M  V30 240 C 23.9805 2.8057 4.39238 0
M  V30 241 C 21.3085 3.562 4.66195 0
M  V30 242 C 23.6605 4.0871 4.82844 0
M  V30 243 C 22.3245 4.46843 4.95871 0
M  V30 244 H 21.5945 0.138079 0.728021 0
M  V30 245 H 24.2415 1.01955 1.62103 0
M  V30 246 H 22.5465 -0.225405 3.91151 0
M  V30 247 H 24.2435 0.154097 4.00704 0
M  V30 248 H 20.8335 1.58753 3.98115 0
M  V30 249 H 25.0175 2.52367 4.27346 0
M  V30 250 H 20.2735 3.85602 4.74469 0
M  V30 251 H 24.4475 4.79481 5.05046 0
M  V30 252 H 22.0745 5.46623 5.28306 0
M  V30 253 N 23.6496 -1.47581 0.552962 0
M  V30 254 C 24.5796 -2.32762 -0.185451 0
M  V30 255 C 25.5606 -1.43527 -0.912905 0
M  V30 256 O 26.7456 -1.72388 -0.894201 0
M  V30 257 C 23.8756 -3.25219 -1.21859 0
M  V30 258 C 22.8296 -4.23661 -0.607864 0
M  V30 259 C 22.1556 -5.05413 -1.74533 0
M  V30 260 C 23.4556 -5.20481 0.435582 0
M  V30 261 H 25.1496 -2.94749 0.525684 0
M  V30 262 H 22.6956 -1.41738 0.254251 0
M  V30 263 H 24.6486 -3.8365 -1.7433 0
M  V30 264 H 23.3726 -2.61279 -1.95961 0
M  V30 265 H 22.0316 -3.66451 -0.104489 0
M  V30 266 H 21.6796 -4.3788 -2.47529 0
M  V30 267 H 21.3796 -5.72059 -1.34249 0
M  V30 268 H 22.9036 -5.66701 -2.27338 0
M  V30 269 H 24.3176 -5.733 -0.00290157 0
M  V30 270 H 22.7146 -5.95305 0.757067 0
M  V30 271 H 23.7846 -4.66217 1.33303 0
M  V30 272 N 25.1277 -0.289203 -1.54924 0
M  V30 273 C 26.5387 0.205791 -1.85562 0
M  V30 274 C 26.8897 1.54351 -1.2112 0
M  V30 275 O 26.0147 2.10435 -0.504601 0
M  V30 276 C 26.6097 0.380177 -3.3666 0
M  V30 277 C 25.1687 0.819395 -3.67373 0
M  V30 278 C 24.3157 -0.079159 -2.77187 0
M  V30 279 H 27.2667 -0.510577 -1.50262 0
M  V30 280 H 27.2877 1.21659 -3.60526 0
M  V30 281 H 26.7997 -0.593589 -3.83534 0
M  V30 282 H 24.9007 1.80413 -3.26009 0
M  V30 283 H 25.0137 0.646957 -4.74712 0
M  V30 284 H 23.3777 0.439565 -2.50878 0
M  V30 285 H 24.1607 -1.04906 -3.26878 0
M  V30 286 N 26.6058 1.57591 -0.0167156 0
M  V30 287 C 28.0218 1.55946 0.339557 0
M  V30 288 C 28.2218 1.02109 1.73713 0
M  V30 289 O 27.2778 0.662303 2.43659 0
M  V30 290 C 28.5908 3.00037 0.199499 0
M  V30 291 C 30.1388 3.11805 0.273193 0
M  V30 292 C 30.6138 4.57713 0.162068 0
M  V30 293 N 32.1048 4.6268 0.219444 0
M  V30 294 C 32.8398 5.73185 0.157054 0
M  V30 295 N 32.3358 6.92786 0.0442936 0
M  V30 296 N 34.1288 5.61707 0.21014 0
M  V30 297 H 26.2798 1.90921 -0.930758 0
M  V30 298 H 28.5428 0.877674 -0.358319 0
M  V30 299 H 28.2488 3.4333 -0.76273 0
M  V30 300 H 28.1228 3.64387 0.974786 0
M  V30 301 H 30.5098 2.68433 1.22587 0
M  V30 302 H 30.5908 2.50201 -0.532256 0
M  V30 303 H 30.2348 5.01763 -0.78714 0
M  V30 304 H 30.1648 5.17283 0.986222 0
M  V30 305 H 32.6558 3.76649 0.307246 0
M  V30 306 H 32.9688 7.728 0.00304069 0
M  V30 307 H 31.3138 6.94999 0.00968457 0
M  V30 308 H 34.5048 4.6716 0.296546 0
M  V30 309 H 34.6778 6.47807 0.158054 0
M  V30 310 N 28.0839 -0.256276 1.55502 0
M  V30 311 C 29.0309 -1.31714 1.89526 0
M  V30 312 C 30.0009 -1.4828 0.748479 0
M  V30 313 O 31.1859 -1.62416 1.00128 0
M  V30 314 C 28.3259 -2.66933 2.18725 0
M  V30 315 C 27.4389 -2.58452 3.4616 0
M  V30 316 C 26.5739 -3.85961 3.64976 0
M  V30 317 C 25.6129 -3.72059 4.86044 0
M  V30 318 N 24.7499 -4.9144 5.01429 0
M  V30 319 H 29.5899 -1.01998 2.80001 0
M  V30 320 H 27.1269 -0.492413 1.38613 0
M  V30 321 H 29.0849 -3.4563 2.33657 0
M  V30 322 H 27.7149 -2.94816 1.31466 0
M  V30 323 H 26.7669 -1.71374 3.3961 0
M  V30 324 H 28.0789 -2.44085 4.34999 0
M  V30 325 H 27.2329 -4.73101 3.79816 0
M  V30 326 H 25.9719 -4.03215 2.74353 0
M  V30 327 H 24.9769 -2.83302 4.7119 0
M  V30 328 H 26.2019 -3.56309 5.78118 0
M  V30 329 H 24.1479 -5.09072 4.13741 0
M  V30 330 H 24.0649 -4.79668 5.84341 0
M  V30 331 H 25.3329 -5.80104 5.20672 0
M  V30 332 N 29.562 -1.4872 -0.521534 0
M  V30 333 C 30.978 -1.35028 -0.850855 0
M  V30 334 C 31.178 -0.367712 -1.98116 0
M  V30 335 O 30.234 0.208037 -2.51642 0
M  V30 336 C 31.547 -2.75263 -1.21041 0
M  V30 337 C 33.095 -2.83813 -1.31981 0
M  V30 338 C 33.57 -4.24769 -1.71276 0
M  V30 339 N 35.061 -4.27482 -1.78363 0
M  V30 340 C 35.796 -5.33494 -2.1017 0
M  V30 341 N 35.292 -6.49775 -2.40343 0
M  V30 342 N 37.085 -5.20894 -2.11248 0
M  V30 343 H 29.236 -2.11214 0.22413 0
M  V30 344 H 31.499 -0.947252 0.0376439 0
M  V30 345 H 31.205 -3.48765 -0.453415 0
M  V30 346 H 31.079 -3.09327 -2.15863 0
M  V30 347 H 33.466 -2.10561 -2.06756 0
M  V30 348 H 33.547 -2.53358 -0.352596 0
M  V30 349 H 33.191 -4.9854 -0.970588 0
M  V30 350 H 33.121 -4.52673 -2.69062 0
M  V30 351 H 35.612 -3.43611 -1.57288 0
M  V30 352 H 35.925 -7.26402 -2.63743 0
M  V30 353 H 34.27 -6.53035 -2.37844 0
M  V30 354 H 37.461 -4.29065 -1.87139 0
M  V30 355 H 37.634 -6.03612 -2.35704 0
M  V30 356 N 31.0401 0.771051 -1.3745 0
M  V30 357 C 32.2651 1.56529 -1.36065 0
M  V30 358 C 32.6901 1.88029 0.0515859 0
M  V30 359 O 32.0481 1.49282 1.02882 0
M  V30 360 C 32.0961 2.85187 -2.20683 0
M  V30 361 O 31.2001 3.79593 -1.61193 0
M  V30 362 H 30.5411 0.47411 -0.464883 0
M  V30 363 H 33.0711 0.954269 -1.80983 0
M  V30 364 H 33.0811 3.34283 -2.33921 0
M  V30 365 H 31.7561 2.61588 -3.23334 0
M  V30 366 H 30.3331 3.38239 -1.56999 0
M  V30 367 N 32.5182 1.22032 0.997298 0
M  V30 368 C 33.7432 1.06921 1.77715 0
M  V30 369 C 34.1682 -0.376226 1.84299 0
M  V30 370 O 33.5262 -1.27165 1.29223 0
M  V30 371 C 33.5742 1.67996 3.19076 0
M  V30 372 O 32.6782 0.930653 4.01762 0
M  V30 373 H 32.0192 0.375814 0.547412 0
M  V30 374 H 34.5492 1.61737 1.25309 0
M  V30 375 H 34.5592 1.72538 3.69723 0
M  V30 376 H 33.2342 2.73182 3.13599 0
M  V30 377 H 31.8112 0.960917 3.60307 0
M  V30 378 N 33.9963 -1.19345 1.0293 0
M  V30 379 C 35.4123 -1.41069 0.746446 0
M  V30 380 C 35.6123 -1.90078 -0.668776 0
M  V30 381 O 34.6683 -2.0778 -1.4347 0
M  V30 382 C 35.9813 -2.42141 1.78292 0
M  V30 383 C 37.5293 -2.55887 1.80252 0
M  V30 384 C 38.0043 -3.60214 2.8286 0
M  V30 385 N 39.4953 -3.67711 2.81679 0
M  V30 386 C 40.2303 -4.48128 3.57727 0
M  V30 387 N 39.7263 -5.32248 4.43491 0
M  V30 388 N 41.5193 -4.42782 3.46267 0
M  V30 389 H 33.6703 -0.858536 1.94275 0
M  V30 390 H 35.9333 -0.439541 0.839945 0
M  V30 391 H 35.6393 -2.13155 2.79746 0
M  V30 392 H 35.5133 -3.41323 1.60557 0
M  V30 393 H 37.9003 -2.84196 0.794757 0
M  V30 394 H 37.9813 -1.56858 2.02062 0
M  V30 395 H 37.6253 -3.32647 3.83807 0
M  V30 396 H 37.5553 -4.58895 2.58307 0
M  V30 397 H 40.0463 -3.07634 2.19476 0
M  V30 398 H 40.3593 -5.90729 4.98256 0
M  V30 399 H 38.7043 -5.31707 4.47564 0
M  V30 400 H 41.8953 -3.76107 2.78677 0
M  V30 401 H 42.0683 -5.05215 4.05785 0
M  V30 402 N 35.4744 -0.807222 -1.35358 0
M  V30 403 C 36.4244 -0.190706 -2.27201 0
M  V30 404 C 37.4084 0.635838 -1.47804 0
M  V30 405 O 38.6004 0.492991 -1.69996 0
M  V30 406 C 35.7294 0.659337 -3.36909 0
M  V30 407 C 34.8154 -0.176971 -4.23731 0
M  V30 408 N 35.2064 -1.24029 -4.90357 0
M  V30 409 C 33.5044 0.0412953 -4.45981 0
M  V30 410 C 34.2054 -1.75092 -5.54723 0
M  V30 411 N 33.1814 -1.05727 -5.33219 0
M  V30 412 H 36.9834 -1.0043 -2.76208 0
M  V30 413 H 34.4974 -0.648445 -1.48892 0
M  V30 414 H 36.4944 1.11706 -4.01656 0
M  V30 415 H 35.1544 1.47127 -2.89454 0
M  V30 416 H 36.1654 -1.62295 -4.91814 0
M  V30 417 H 32.8424 0.82232 -4.09322 0
M  V30 418 H 34.2324 -2.63963 -6.17878 0
M  V30 419 N 36.9525 1.47285 -0.560781 0
M  V30 420 C 38.3685 1.58065 -0.22081 0
M  V30 421 C 38.5685 1.55892 1.27671 0
M  V30 422 O 37.6245 1.46422 2.0571 0
M  V30 423 C 38.9375 2.88418 -0.850625 0
M  V30 424 C 40.4855 3.02009 -0.822184 0
M  V30 425 C 40.9605 4.35066 -1.43113 0
M  V30 426 N 42.4515 4.41711 -1.39448 0
M  V30 427 C 43.1865 5.43237 -1.83525 0
M  V30 428 N 42.6825 6.51555 -2.35474 0
M  V30 429 N 44.4755 5.34304 -1.74574 0
M  V30 430 H 36.6265 1.46941 -1.53369 0
M  V30 431 H 38.8895 0.699558 -0.639783 0
M  V30 432 H 38.5955 2.95755 -1.9032 0
M  V30 433 H 38.4695 3.75612 -0.345773 0
M  V30 434 H 40.8565 2.94266 0.221714 0
M  V30 435 H 40.9375 2.16347 -1.36483 0
M  V30 436 H 40.5815 4.43565 -2.47412 0
M  V30 437 H 40.5115 5.19465 -0.863899 0
M  V30 438 H 43.0025 3.64027 -1.01452 0
M  V30 439 H 43.3155 7.25203 -2.67021 0
M  V30 440 H 41.6605 6.52435 -2.39487 0
M  V30 441 H 44.8515 4.48581 -1.33763 0
M  V30 442 H 45.0245 6.13288 -2.09242 0
M  V30 443 N 38.4306 0.297415 1.54768 0
M  V30 444 C 39.6786 -0.312295 1.99673 0
M  V30 445 C 39.9996 -1.54686 1.18732 0
M  V30 446 O 39.2696 -1.93854 0.282382 0
M  V30 447 H 37.8496 -0.118381 0.73756 0
M  V30 448 H 40.5116 0.407915 1.90583 0
M  V30 449 H 39.6076 -0.586813 3.06534 0
M  V30 450 N 39.9087 -1.5758 0.0250728 0
M  V30 451 C 40.8557 -2.09973 -0.958129 0
M  V30 452 C 41.8257 -1.00085 -1.3256 0
M  V30 453 O 43.0107 -1.27481 -1.41962 0
M  V30 454 C 40.1507 -2.62812 -2.2366 0
M  V30 455 C 39.2637 -3.86693 -1.92594 0
M  V30 456 C 38.3987 -4.27941 -3.14707 0
M  V30 457 C 37.4377 -5.44591 -2.79442 0
M  V30 458 N 36.5747 -5.81014 -3.94167 0
M  V30 459 H 41.4147 -2.937 -0.504428 0
M  V30 460 H 38.9517 -1.45172 -0.237392 0
M  V30 461 H 40.9097 -2.91536 -2.98434 0
M  V30 462 H 39.5397 -1.81922 -2.66654 0
M  V30 463 H 38.5917 -3.64723 -1.0808 0
M  V30 464 H 39.9037 -4.71547 -1.62619 0
M  V30 465 H 39.0577 -4.58079 -3.97804 0
M  V30 466 H 37.7967 -3.41845 -3.4784 0
M  V30 467 H 36.8017 -5.1415 -1.94755 0
M  V30 468 H 38.0267 -6.32382 -2.47528 0
M  V30 469 H 35.9727 -4.97874 -4.2715 0
M  V30 470 H 35.8897 -6.60498 -3.67801 0
M  V30 471 H 37.1577 -6.15756 -4.7798 0
M  V30 472 N 41.3868 0.248026 -1.55636 0
M  V30 473 C 42.6328 0.97767 -1.77678 0
M  V30 474 C 42.9658 1.85016 -0.590135 0
M  V30 475 O 42.2408 1.90095 0.411611 0
M  V30 476 C 42.5238 1.83914 -3.09593 0
M  V30 477 C 42.3768 0.99491 -4.38659 0
M  V30 478 C 43.6958 2.82183 -3.37729 0
M  V30 479 H 40.8148 0.354005 -0.646413 0
M  V30 480 H 43.4568 0.248253 -1.88371 0
M  V30 481 H 41.6068 2.46104 -3.00608 0
M  V30 482 H 43.2788 0.391789 -4.59633 0
M  V30 483 H 41.5218 0.299231 -4.32767 0
M  V30 484 H 42.1928 1.63145 -5.2734 0
M  V30 485 H 44.6688 2.30129 -3.4667 0
M  V30 486 H 43.5448 3.39582 -4.31249 0
M  V30 487 H 43.8058 3.58588 -2.58586 0
M  V30 488 N 42.8649 1.48995 0.513639 0
M  V30 489 C 43.8119 1.6473 1.61656 0
M  V30 490 C 44.7819 0.488984 1.58739 0
M  V30 491 O 45.9669 0.714478 1.76918 0
M  V30 492 C 43.1069 1.7082 2.99858 0
M  V30 493 C 42.2199 2.9787 3.12885 0
M  V30 494 C 41.3549 2.95017 4.41744 0
M  V30 495 C 40.3939 4.16702 4.48359 0
M  V30 496 N 39.5309 4.11832 5.68629 0
M  V30 497 H 44.3709 2.58909 1.47547 0
M  V30 498 H 41.9079 1.28382 0.71808 0
M  V30 499 H 43.8659 1.72331 3.79944 0
M  V30 500 H 42.4959 0.801181 3.12699 0
M  V30 501 H 41.5479 3.06029 2.25944 0
M  V30 502 H 42.8599 3.8786 3.13633 0
M  V30 503 H 42.0139 2.95021 5.30139 0
M  V30 504 H 40.7529 2.02784 4.43542 0
M  V30 505 H 39.7579 4.16955 3.58369 0
M  V30 506 H 40.9829 5.10113 4.48287 0
M  V30 507 H 38.9289 3.22428 5.71293 0
M  V30 508 H 38.8459 4.95543 5.7094 0
M  V30 509 H 40.1139 4.1592 6.59266 0
M  V30 510 N 44.343 -0.763751 1.37857 0
M  V30 511 C 45.568 -1.55805 1.36893 0
M  V30 512 C 45.993 -1.88054 -0.0416135 0
M  V30 513 O 45.351 -1.49825 -1.02089 0
M  V30 514 C 45.399 -2.84012 2.22192 0
M  V30 515 O 44.503 -3.78732 1.63204 0
M  V30 516 H 43.844 -0.471638 0.46739 0
M  V30 517 H 46.374 -0.944657 1.81487 0
M  V30 518 H 46.384 -3.33037 2.35691 0
M  V30 519 H 45.059 -2.59869 3.24716 0
M  V30 520 H 43.636 -3.37402 1.58791 0
M  V30 521 N 45.8211 -1.22559 -0.990812 0
M  V30 522 C 47.0681 -1.05141 -1.73065 0
M  V30 523 C 47.3961 0.413191 -1.9006 0
M  V30 524 O 46.6511 1.32257 -1.44245 0
M  V30 525 C 46.9501 -1.71011 -3.13831 0
M  V30 526 C 46.6161 -3.20911 -3.16745 0
M  V30 527 C 45.2781 -3.61812 -3.17247 0
M  V30 528 C 47.6301 -4.16846 -3.12872 0
M  V30 529 C 44.9581 -4.97127 -3.1158 0
M  V30 530 C 47.3101 -5.5214 -3.08746 0
M  V30 531 C 45.9741 -5.92419 -3.07565 0
M  V30 532 H 45.2441 -0.384738 -0.633291 0
M  V30 533 H 47.8911 -1.5235 -1.16025 0
M  V30 534 H 46.1961 -1.16133 -3.74193 0
M  V30 535 H 47.8931 -1.55023 -3.69823 0
M  V30 536 H 44.4831 -2.88344 -3.17105 0
M  V30 537 H 48.6671 -3.86263 -3.11632 0
M  V30 538 H 43.9231 -5.27562 -3.09012 0
M  V30 539 H 48.0971 -6.26201 -3.04705 0
M  V30 540 H 45.7241 -6.97236 -3.02929 0
M  V30 541 N 47.2992 1.18797 -1.03562 0
M  V30 542 C 48.7102 1.70322 -0.764676 0
M  V30 543 C 49.0612 1.82708 0.714996 0
M  V30 544 O 48.1862 1.50299 1.55689 0
M  V30 545 C 48.7812 3.09356 -1.38145 0
M  V30 546 C 47.3402 3.58114 -1.15895 0
M  V30 547 C 46.4872 2.34798 -1.4753 0
M  V30 548 H 49.4382 1.03543 -1.20268 0
M  V30 549 H 49.4592 3.72378 -0.781977 0
M  V30 550 H 48.9712 3.00309 -2.45837 0
M  V30 551 H 47.0722 3.72464 -0.100544 0
M  V30 552 H 47.1852 4.4184 -1.8524 0
M  V30 553 H 45.5492 2.38464 -0.894829 0
M  V30 554 H 46.3322 2.28375 -2.56319 0
M  V30 555 N 48.7773 0.814389 1.34928 0
M  V30 556 C 49.7243 0.22822 2.29669 0
M  V30 557 C 50.6943 -0.642164 1.53184 0
M  V30 558 O 51.8793 -0.585605 1.81591 0
M  V30 559 C 49.0193 -0.61089 3.3965 0
M  V30 560 C 48.1323 0.280792 4.31086 0
M  V30 561 C 47.2673 -0.567067 5.28165 0
M  V30 562 C 46.3063 0.324531 6.11239 0
M  V30 563 N 45.4433 -0.483756 7.00431 0
M  V30 564 H 50.2833 1.04153 2.79206 0
M  V30 565 H 47.8203 0.525133 1.37407 0
M  V30 566 H 49.7783 -1.11263 4.0209 0
M  V30 567 H 48.4083 -1.38939 2.91369 0
M  V30 568 H 47.4603 0.900688 3.69583 0
M  V30 569 H 48.7723 0.966723 4.89342 0
M  V30 570 H 47.9263 -1.13363 5.96015 0
M  V30 571 H 46.6653 -1.28654 4.70425 0
M  V30 572 H 45.6703 0.903298 5.42329 0
M  V30 573 H 46.8953 1.04198 6.71059 0
M  V30 574 H 44.8413 -1.18706 6.45171 0
M  V30 575 H 44.7583 0.143965 7.55863 0
M  V30 576 H 46.0263 -1.03334 7.7262 0
M  V30 577 N 50.2554 -1.46986 0.568584 0
M  V30 578 C 51.5324 -1.95592 -0.0174074 0
M  V30 579 C 51.9124 -1.51124 -1.47393 0
M  V30 580 O 51.2604 -0.755329 -2.15655 0
M  V30 581 C 51.4704 -3.48719 0.139913 0
M  V30 582 C 52.8184 -4.246 0.000426376 0
M  V30 583 O 53.8424 -3.56135 0.0680316 0
M  V30 584 O 52.7014 -5.46302 -0.146988 0
M  V30 585 H 49.7954 -0.82498 -0.0577599 0
M  V30 586 H 52.3414 -1.57335 0.635909 0
M  V30 587 H 51.1134 -3.73927 1.15301 0
M  V30 588 H 50.7364 -3.93771 -0.550491 0
M  V30 589 N 51.7335 -0.305618 -1.54608 0
M  V30 590 C 53.0105 0.355652 -1.92339 0
M  V30 591 C 53.3905 1.71324 -1.23335 0
M  V30 592 O 52.7385 2.25473 -0.370702 0
M  V30 593 C 52.9485 0.46572 -3.45879 0
M  V30 594 C 54.2965 0.734426 -4.182 0
M  V30 595 O 55.3205 0.54935 -3.51938 0
M  V30 596 O 54.1795 1.09024 -5.35515 0
M  V30 597 H 51.2735 0.199666 -0.802535 0
M  V30 598 H 53.8195 -0.354017 -1.65966 0
M  V30 599 H 52.5915 -0.488461 -3.88239 0
M  V30 600 H 52.2145 1.22367 -3.78301 0
M  V30 601 N 53.2116 1.57565 -0.0334293 0
M  V30 602 C 54.6226 1.79746 0.504798 0
M  V30 603 C 54.9736 0.944091 1.71992 0
M  V30 604 O 54.0986 0.155694 2.15839 0
M  V30 605 C 54.6936 3.25997 0.922567 0
M  V30 606 C 53.2526 3.49159 1.40588 0
M  V30 607 C 52.3996 2.74785 0.372633 0
M  V30 608 H 55.3506 1.56565 -0.259436 0
M  V30 609 H 55.3716 3.35945 1.78666 0
M  V30 610 H 54.8836 3.88081 0.0379825 0
M  V30 611 H 52.9846 2.92332 2.31025 0
M  V30 612 H 53.0976 4.57873 1.41028 0
M  V30 613 H 51.4616 2.40391 0.841672 0
M  V30 614 H 52.2446 3.39587 -0.503559 0
M  V30 615 N 54.6897 -0.239769 1.55765 0
M  V30 616 C 55.9147 -0.988373 1.82335 0
M  V30 617 C 56.3397 -1.77886 0.611421 0
M  V30 618 O 55.6977 -1.75889 -0.439639 0
M  V30 619 C 55.7457 -1.89627 3.06715 0
M  V30 620 O 54.8497 -2.98904 2.84131 0
M  V30 621 H 54.1907 -0.280858 0.601677 0
M  V30 622 H 56.7207 -0.258597 2.02959 0
M  V30 623 H 56.7307 -2.30957 3.36338 0
M  V30 624 H 55.4057 -1.31511 3.9456 0
M  V30 625 H 53.9827 -2.61651 2.65694 0
M  V30 626 N 56.1678 -1.49265 -0.50573 0
M  V30 627 C 57.1148 -1.65585 -1.6078 0
M  V30 628 C 58.0848 -0.497396 -1.58478 0
M  V30 629 O 59.2698 -0.72385 -1.76536 0
M  V30 630 C 56.4098 -1.72408 -2.98948 0
M  V30 631 C 55.5228 -2.99525 -3.11301 0
M  V30 632 C 54.6578 -2.97356 -4.40174 0
M  V30 633 C 53.6968 -4.19074 -4.46143 0
M  V30 634 N 52.8338 -4.14841 -5.66437 0
M  V30 635 H 57.6738 -2.59688 -1.46172 0
M  V30 636 H 55.2108 -1.28761 -0.711261 0
M  V30 637 H 57.1688 -1.74344 -3.79025 0
M  V30 638 H 55.7988 -0.817753 -3.1227 0
M  V30 639 H 54.8508 -3.07222 -2.24318 0
M  V30 640 H 56.1628 -3.89518 -3.11572 0
M  V30 641 H 55.3168 -2.97829 -5.28567 0
M  V30 642 H 54.0558 -2.05133 -4.42461 0
M  V30 643 H 53.0608 -4.1885 -3.56153 0
M  V30 644 H 54.2858 -5.12483 -4.45575 0
M  V30 645 H 52.2318 -3.25453 -5.69575 0
M  V30 646 H 52.1488 -4.98564 -5.68304 0
M  V30 647 H 53.4168 -4.1941 -6.57051 0
M  V30 648 N 57.6459 0.756429 -1.3826 0
M  V30 649 C 59.0569 1.33359 -1.30661 0
M  V30 650 C 59.4079 1.96161 0.0388875 0
M  V30 651 O 58.5329 1.94874 0.940918 0
M  V30 652 C 59.1279 2.42477 -2.36622 0
M  V30 653 C 57.6869 2.95922 -2.3261 0
M  V30 654 C 56.8339 1.69275 -2.19639 0
M  V30 655 H 59.7849 0.55552 -1.4866 0
M  V30 656 H 59.8059 3.22345 -2.02174 0
M  V30 657 H 59.3179 1.96739 -3.34538 0
M  V30 658 H 57.4189 3.45996 -1.38267 0
M  V30 659 H 57.5319 3.50494 -3.26636 0
M  V30 660 H 55.8959 1.92793 -1.66442 0
M  V30 661 H 56.6789 1.25619 -3.19491 0
M  V30 662 N 59.124 1.23083 0.984299 0
M  V30 663 C 60.37 1.06214 1.72761 0
M  V30 664 C 60.703 -0.400584 1.90024 0
M  V30 665 O 59.978 -1.29672 1.44967 0
M  V30 666 C 60.261 1.78375 3.12817 0
M  V30 667 C 60.114 3.32296 3.03149 0
M  V30 668 C 61.433 1.54309 4.12161 0
M  V30 669 H 58.552 0.387251 0.627061 0
M  V30 670 H 61.194 1.51536 1.14616 0
M  V30 671 H 59.344 1.39848 3.62457 0
M  V30 672 H 61.016 3.8032 2.61064 0
M  V30 673 H 59.259 3.6153 2.39747 0
M  V30 674 H 59.93 3.77972 4.02295 0
M  V30 675 H 62.406 1.87791 3.71314 0
M  V30 676 H 61.282 2.07281 5.08258 0
M  V30 677 H 61.543 0.477572 4.39513 0
M  V30 678 N 60.6021 -1.18246 1.0419 0
M  V30 679 C 61.5521 -2.19843 0.604392 0
M  V30 680 C 62.5361 -1.56962 -0.353814 0
M  V30 681 O 63.7281 -1.76156 -0.17267 0
M  V30 682 C 60.8571 -3.43287 -0.0298975 0
M  V30 683 C 59.9431 -4.13288 0.951531 0
M  V30 684 N 60.3341 -4.59271 2.11906 0
M  V30 685 C 58.6321 -4.39165 0.7778 0
M  V30 686 C 59.3331 -5.13173 2.73912 0
M  V30 687 N 58.3091 -5.04763 2.01779 0
M  V30 688 H 62.1111 -2.53089 1.4941 0
M  V30 689 H 59.6251 -1.34465 0.910658 0
M  V30 690 H 61.6221 -4.15334 -0.361037 0
M  V30 691 H 60.2821 -3.11537 -0.915127 0
M  V30 692 H 61.2931 -4.5368 2.49789 0
M  V30 693 H 57.9701 -4.17461 -0.0572331 0
M  V30 694 H 59.3601 -5.58947 3.72864 0
M  V30 695 N 62.0802 -0.821533 -1.34494 0
M  V30 696 C 63.0102 -0.257138 -2.3208 0
M  V30 697 C 63.9912 0.625645 -1.58176 0
M  V30 698 O 65.1762 0.552811 -1.86166 0
M  V30 699 C 62.3062 0.582958 -3.42372 0
M  V30 700 C 61.2602 -0.202571 -4.2752 0
M  V30 701 C 60.5862 0.760179 -5.29269 0
M  V30 702 C 61.8862 -1.40998 -5.02908 0
M  V30 703 H 63.5802 -1.07247 -2.79532 0
M  V30 704 H 61.1262 -0.517163 -1.34393 0
M  V30 705 H 63.0792 0.987972 -4.09655 0
M  V30 706 H 61.8032 1.43133 -2.93565 0
M  V30 707 H 60.4622 -0.588936 -3.61838 0
M  V30 708 H 60.1102 1.60447 -4.76724 0
M  V30 709 H 59.8102 0.238809 -5.87115 0
M  V30 710 H 61.3342 1.16308 -5.9942 0
M  V30 711 H 62.7482 -1.07905 -5.63054 0
M  V30 712 H 61.1452 -1.86689 -5.70322 0
M  V30 713 H 62.2152 -2.1889 -4.32684 0
M  V30 714 N 63.5583 1.46682 -0.576371 0
M  V30 715 C 64.7863 2.06798 -0.0649635 0
M  V30 716 C 65.2013 1.42612 1.23723 0
M  V30 717 O 64.5583 0.529203 1.74659 0
M  V30 718 C 64.6093 3.6132 0.114202 0
M  V30 719 O 64.3303 4.23104 -1.13644 0
M  V30 720 C 65.8313 4.38349 0.66069 0
M  V30 721 H 63.0513 0.668778 -0.0545616 0
M  V30 722 H 65.5953 1.88404 -0.795237 0
M  V30 723 H 63.7503 3.79162 0.794673 0
M  V30 724 H 64.1643 5.15894 -0.946253 0
M  V30 725 H 65.6383 5.47081 0.73526 0
M  V30 726 H 66.1153 4.05953 1.67627 0
M  V30 727 H 66.7213 4.25297 0.0152951 0
M  V30 728 N 65.0364 0.313813 1.54444 0
M  V30 729 C 65.9994 -0.54379 2.22656 0
M  V30 730 C 66.9994 -1.05124 1.21678 0
M  V30 731 O 68.1894 -0.945225 1.46325 0
M  V30 732 C 65.3214 -1.75427 2.92298 0
M  V30 733 H 66.5144 0.0523599 2.99854 0
M  V30 734 H 64.0674 0.0647834 1.56166 0
M  V30 735 H 64.8024 -2.38991 2.19211 0
M  V30 736 H 64.5874 -1.39791 3.66334 0
M  V30 737 H 66.0774 -2.36325 3.44297 0
M  V30 738 N 66.5145 -1.57545 0.0417849 0
M  V30 739 C 67.7615 -1.92317 -0.634082 0
M  V30 740 C 68.0895 -0.919334 -1.71402 0
M  V30 741 O 67.3445 0.0698253 -1.95575 0
M  V30 742 C 67.6435 -3.33794 -1.27735 0
M  V30 743 C 67.3095 -4.49716 -0.326543 0
M  V30 744 C 65.9715 -4.81156 -0.0648814 0
M  V30 745 C 68.3235 -5.20182 0.325623 0
M  V30 746 C 65.6515 -5.80414 0.856539 0
M  V30 747 C 68.0035 -6.20424 1.23518 0
M  V30 748 C 66.6675 -6.50298 1.5056 0
M  V30 749 H 65.9375 -0.703736 -0.232027 0
M  V30 750 H 68.5845 -1.91205 0.106259 0
M  V30 751 H 66.8895 -3.31228 -2.09274 0
M  V30 752 H 68.5865 -3.57975 -1.80707 0
M  V30 753 H 65.1765 -4.25176 -0.540665 0
M  V30 754 H 69.3605 -4.96112 0.136546 0
M  V30 755 H 64.6165 -6.019 1.07363 0
M  V30 756 H 68.7905 -6.74141 1.74664 0
M  V30 757 H 66.4175 -7.27025 2.22123 0
M  V30 758 N 67.9926 0.231505 -1.5589 0
M  V30 759 C 68.9226 1.29022 -1.94617 0
M  V30 760 C 69.9036 1.4941 -0.813067 0
M  V30 761 O 71.0886 1.6176 -1.07459 0
M  V30 762 C 68.2186 2.64199 -2.25424 0
M  V30 763 C 67.1726 2.58484 -3.41131 0
M  V30 764 C 66.4986 3.97599 -3.57518 0
M  V30 765 C 67.7986 2.1413 -4.76388 0
M  V30 766 H 69.4926 0.968563 -2.83301 0
M  V30 767 H 67.0386 0.464479 -1.36303 0
M  V30 768 H 68.9916 3.38413 -2.51107 0
M  V30 769 H 67.7156 2.98032 -1.33583 0
M  V30 770 H 66.3746 1.86727 -3.15481 0
M  V30 771 H 66.0226 4.28723 -2.6307 0
M  V30 772 H 65.7226 3.94659 -4.35337 0
M  V30 773 H 67.2466 4.7349 -3.85538 0
M  V30 774 H 68.6606 2.78083 -5.01341 0
M  V30 775 H 67.0576 2.2227 -5.57419 0
M  V30 776 H 68.1276 1.09331 -4.72414 0
M  V30 777 N 69.4707 1.49531 0.497807 0
M  V30 778 C 70.7187 1.58865 1.24926 0
M  V30 779 C 71.0397 0.278721 1.92998 0
M  V30 780 O 70.3097 -0.702144 1.82885 0
M  V30 781 H 68.8897 0.585343 0.464094 0
M  V30 782 H 71.5517 1.86174 0.57666 0
M  V30 783 H 70.6477 2.38633 2.01149 0
M  V30 784 N 70.9488 -0.749086 1.3866 0
M  V30 785 C 72.1788 -1.53611 1.38157 0
M  V30 786 C 72.5868 -1.89177 -0.0293595 0
M  V30 787 O 71.9298 -1.53606 -1.00752 0
M  V30 788 C 71.9918 -2.86087 2.17702 0
M  V30 789 C 71.6558 -2.73034 3.66472 0
M  V30 790 C 72.6528 -2.42526 4.59866 0
M  V30 791 C 70.3378 -2.90345 4.09884 0
M  V30 792 C 72.3318 -2.29492 5.94653 0
M  V30 793 C 70.0188 -2.7693 5.4475 0
M  V30 794 C 71.0168 -2.46547 6.36949 0
M  V30 795 O 70.7048 -2.33199 7.69333 0
M  V30 796 H 70.4368 -0.481773 0.474205 0
M  V30 797 H 72.9908 -0.934465 1.82912 0
M  V30 798 H 71.2208 -3.48458 1.67672 0
M  V30 799 H 72.9098 -3.47625 2.09551 0
M  V30 800 H 73.6758 -2.28816 4.27631 0
M  V30 801 H 69.5548 -3.1299 3.38464 0
M  V30 802 H 73.0988 -2.05698 6.66584 0
M  V30 803 H 68.9958 -2.90215 5.76581 0
M  V30 804 H 69.7638 -2.48376 7.79905 0
M  V30 805 N 72.4269 -1.23603 -0.977757 0
M  V30 806 C 73.3739 -1.01954 -2.07061 0
M  V30 807 C 74.3439 0.0638697 -1.65977 0
M  V30 808 O 75.5289 -0.0887624 -1.90593 0
M  V30 809 C 72.6689 -0.619658 -3.39491 0
M  V30 810 C 71.7819 -1.77547 -3.93829 0
M  V30 811 C 70.9169 -1.32212 -5.14484 0
M  V30 812 C 69.9559 -2.44852 -5.60994 0
M  V30 813 N 69.0929 -2.00456 -6.72876 0
M  V30 814 H 73.9329 -1.95495 -2.24913 0
M  V30 815 H 71.4699 -0.973861 -1.10247 0
M  V30 816 H 73.4279 -0.368898 -4.15566 0
M  V30 817 H 72.0579 0.278752 -3.21594 0
M  V30 818 H 71.1099 -2.14016 -3.14486 0
M  V30 819 H 72.4219 -2.62219 -4.24314 0
M  V30 820 H 71.5759 -1.02965 -5.97899 0
M  V30 821 H 70.3149 -0.445808 -4.85658 0
M  V30 822 H 69.3199 -2.74871 -4.76157 0
M  V30 823 H 70.5449 -3.33024 -5.91837 0
M  V30 824 H 68.4909 -1.15208 -6.45804 0
M  V30 825 H 68.4079 -2.78687 -7.02759 0
M  V30 826 H 69.6759 -1.7432 -7.59758 0
M  V30 827 N 73.905 1.17692 -1.04816 0
M  V30 828 C 74.868 2.19787 -0.650117 0
M  V30 829 C 75.868 1.58044 0.296427 0
M  V30 830 O 77.058 1.74012 0.0808097 0
M  V30 831 C 74.19 3.40869 0.0456987 0
M  V30 832 H 75.383 2.56516 -1.5537 0
M  V30 833 H 72.936 1.31708 -0.841594 0
M  V30 834 H 73.671 3.09681 0.962726 0
M  V30 835 H 73.456 3.86928 -0.634727 0
M  V30 836 H 74.946 4.16445 0.310432 0
M  V30 837 N 75.3831 0.828654 1.34056 0
M  V30 838 C 76.6311 0.41863 1.97717 0
M  V30 839 C 76.9521 -1.02314 1.66002 0
M  V30 840 O 76.2221 -1.71119 0.953683 0
M  V30 841 H 74.8021 0.151809 0.731412 0
M  V30 842 H 77.4641 1.05936 1.63596 0
M  V30 843 H 76.5601 0.542318 3.07352 0
M  V30 844 N 76.8612 -1.46375 0.584142 0
M  V30 845 C 77.7942 -2.27351 -0.196676 0
M  V30 846 C 78.7722 -1.35715 -0.895561 0
M  V30 847 O 79.9562 -1.65126 -0.90916 0
M  V30 848 C 77.0832 -3.13486 -1.28235 0
M  V30 849 C 76.1292 -4.20896 -0.689145 0
M  V30 850 S 76.9622 -5.33299 0.48507 0
M  V30 851 C 78.1182 -6.23 -0.601767 0
M  V30 852 H 78.3512 -2.93228 0.490395 0
M  V30 853 H 75.8842 -1.49875 0.371071 0
M  V30 854 H 77.8422 -3.63676 -1.90395 0
M  V30 855 H 76.5032 -2.4692 -1.94138 0
M  V30 856 H 75.6962 -4.80997 -1.50527 0
M  V30 857 H 75.2982 -3.73726 -0.143181 0
M  V30 858 H 77.5902 -6.60979 -1.48705 0
M  V30 859 H 78.5332 -7.0809 -0.0374799 0
M  V30 860 H 78.9412 -5.57173 -0.906557 0
M  V30 861 N 78.3393 -0.321999 -1.54275 0
M  V30 862 C 79.5673 0.283052 -2.04955 0
M  V30 863 C 79.9823 1.45904 -1.19823 0
M  V30 864 O 79.3393 1.81063 -0.228545 0
M  V30 865 C 79.3903 0.719028 -3.54277 0
M  V30 866 O 79.1113 -0.410175 -4.36176 0
M  V30 867 C 80.6123 1.38705 -4.21041 0
M  V30 868 H 77.8323 0.0584616 -0.668448 0
M  V30 869 H 80.3763 -0.467734 -1.99079 0
M  V30 870 H 78.5313 1.41979 -3.60445 0
M  V30 871 H 78.9453 -0.0669416 -5.24457 0
M  V30 872 H 80.4193 1.64306 -5.2698 0
M  V30 873 H 80.8963 2.33385 -3.72059 0
M  V30 874 H 81.5023 0.728906 -4.19007 0
M  V30 875 N 79.8174 1.5752 -0.0501392 0
M  V30 876 C 80.7674 2.07981 0.934231 0
M  V30 877 C 81.7514 0.984745 1.27246 0
M  V30 878 O 82.9434 1.24809 1.25506 0
M  V30 879 C 80.0724 2.62751 2.20945 0
M  V30 880 C 79.1584 3.79225 1.89865 0
M  V30 881 N 79.5494 4.89036 1.29142 0
M  V30 882 C 77.8474 3.88111 2.19741 0
M  V30 883 C 78.5484 5.70084 1.15669 0
M  V30 884 N 77.5244 5.17659 1.65923 0
M  V30 885 H 81.3264 2.90277 0.460053 0
M  V30 886 H 78.8404 1.61665 0.15434 0
M  V30 887 H 80.8374 2.97205 2.9236 0
M  V30 888 H 79.4974 1.81894 2.6897 0
M  V30 889 H 80.5084 5.08854 0.963756 0
M  V30 890 H 77.1854 3.18194 2.70293 0
M  V30 891 H 78.5754 6.68395 0.685356 0
M  V30 892 N 81.2955 -0.223234 1.56011 0
M  V30 893 C 82.5445 -0.945912 1.78144 0
M  V30 894 C 82.8575 -1.85567 0.618396 0
M  V30 895 O 84.0635 -2.61688 0.723318 0
M  V30 896 C 82.5195 -1.73216 3.15475 0
M  V30 897 C 82.1275 -0.868619 4.39499 0
M  V30 898 C 83.8715 -2.44615 3.46935 0
M  V30 899 C 81.7785 -1.65212 5.67855 0
M  V30 900 H 80.7085 -0.356929 0.664167 0
M  V30 901 H 83.3595 -0.199845 1.82409 0
M  V30 902 H 81.7415 -2.52107 3.05382 0
M  V30 903 H 82.9155 -0.120366 4.60643 0
M  V30 904 H 81.2305 -0.26683 4.15544 0
M  V30 905 H 83.8275 -3.03732 4.40058 0
M  V30 906 H 84.1705 -3.17417 2.69355 0
M  V30 907 H 84.7035 -1.72715 3.58349 0
M  V30 908 H 81.4425 -0.967407 6.48322 0
M  V30 909 H 80.9625 -2.37503 5.50774 0
M  V30 910 H 82.6415 -2.21322 6.07968 0
M  V30 911 N 82.7736 -1.49793 -0.48987 0
M  V30 912 C 84.0196 -1.60078 -1.24511 0
M  V30 913 C 84.3526 -0.291608 -1.91998 0
M  V30 914 O 83.6276 0.705647 -1.81248 0
M  V30 915 C 83.9106 -2.76791 -2.30345 0
M  V30 916 C 83.7636 -4.17535 -1.67286 0
M  V30 917 C 85.0826 -2.89111 -3.31817 0
M  V30 918 H 82.2016 -0.582645 -0.451324 0
M  V30 919 H 84.8436 -1.82117 -0.541612 0
M  V30 920 H 82.9936 -2.5813 -2.90346 0
M  V30 921 H 84.6656 -4.4774 -1.11026 0
M  V30 922 H 82.9086 -4.22665 -0.976577 0
M  V30 923 H 83.5796 -4.95094 -2.44103 0
M  V30 924 H 86.0556 -3.06133 -2.81819 0
M  V30 925 H 84.9316 -3.72433 -4.03219 0
M  V30 926 H 85.1926 -1.9893 -3.94815 0
M  V30 927 N 84.2517 0.741722 -1.39055 0
M  V30 928 C 85.6677 1.04638 -1.20512 0
M  V30 929 C 85.8677 2.01405 -0.0620218 0
M  V30 930 O 84.9237 2.45547 0.588457 0
M  V30 931 C 86.2367 1.6151 -2.53643 0
M  V30 932 C 87.7847 1.73623 -2.6043 0
M  V30 933 C 88.2597 2.33906 -3.93767 0
M  V30 934 N 89.7507 2.41323 -3.9537 0
M  V30 935 C 90.4857 2.88888 -4.95309 0
M  V30 936 N 89.9817 3.36401 -6.05645 0
M  V30 937 N 91.7747 2.88037 -4.82692 0
M  V30 938 H 83.9257 0.0998155 -2.12165 0
M  V30 939 H 86.1887 0.106907 -0.941953 0
M  V30 940 H 85.8947 0.978739 -3.37807 0
M  V30 941 H 85.7687 2.60411 -2.72885 0
M  V30 942 H 88.1557 2.36384 -1.76655 0
M  V30 943 H 88.2367 0.733945 -2.45045 0
M  V30 944 H 87.8807 1.71776 -4.7797 0
M  V30 945 H 87.8107 3.34799 -4.06469 0
M  V30 946 H 90.3017 2.07734 -3.15682 0
M  V30 947 H 90.6147 3.71186 -6.77821 0
M  V30 948 H 88.9597 3.34427 -6.09248 0
M  V30 949 H 92.1507 2.50237 -3.95599 0
M  V30 950 H 92.3237 3.24792 -5.60726 0
M  V30 951 N 85.7298 1.2412 0.971189 0
M  V30 952 C 86.6398 1.04747 2.09917 0
M  V30 953 C 87.6558 -0.0107162 1.73997 0
M  V30 954 O 88.8318 0.186714 2.00533 0
M  V30 955 C 85.8968 0.650828 3.40537 0
M  V30 956 C 84.9578 1.7851 3.90426 0
M  V30 957 C 84.1908 1.40729 5.14812 0
M  V30 958 O 84.4138 0.29557 5.69634 0
M  V30 959 O 83.3478 2.23168 5.58999 0
M  V30 960 H 87.1738 1.99304 2.29154 0
M  V30 961 H 84.7588 1.02908 1.08307 0
M  V30 962 H 86.6408 0.440992 4.19086 0
M  V30 963 H 85.3158 -0.265649 3.22608 0
M  V30 964 H 84.2228 2.04966 3.12953 0
M  V30 965 H 85.5558 2.68023 4.12825 0
M  V30 966 N 87.2079 -1.17134 1.05439 0
M  V30 967 C 88.4539 -1.87733 0.767077 0
M  V30 968 C 88.7869 -1.8098 -0.704253 0
M  V30 969 O 88.0619 -1.21951 -1.5152 0
M  V30 970 C 88.3449 -3.37659 1.25133 0
M  V30 971 C 88.1979 -3.53149 2.78578 0
M  V30 972 C 89.5169 -4.31768 0.852324 0
M  V30 973 H 86.6359 -0.681687 0.280129 0
M  V30 974 H 89.2779 -1.37732 1.30881 0
M  V30 975 H 87.4279 -3.80373 0.790469 0
M  V30 976 H 89.0999 -3.19434 3.32806 0
M  V30 977 H 87.3429 -2.95345 3.17732 0
M  V30 978 H 88.0139 -4.58403 3.07523 0
M  V30 979 H 90.4899 -3.96909 1.24911 0
M  V30 980 H 89.3659 -5.35199 1.21873 0
M  V30 981 H 89.6269 -4.41429 -0.243485 0
M  V30 982 N 88.686 -0.835752 -1.33615 0
M  V30 983 C 89.963 -0.352017 -1.92406 0
M  V30 984 C 90.343 1.16225 -1.76224 0
M  V30 985 O 89.691 1.97526 -1.14873 0
M  V30 986 C 89.901 -0.795485 -3.39813 0
M  V30 987 C 91.249 -0.801703 -4.16963 0
M  V30 988 O 92.273 -0.738889 -3.48452 0
M  V30 989 O 91.132 -0.886607 -5.3926 0
M  V30 990 H 88.226 -0.0989641 -0.821057 0
M  V30 991 H 90.772 -0.921397 -1.42507 0
M  V30 992 H 89.544 -1.83795 -3.45449 0
M  V30 993 H 89.167 -0.202505 -3.97084 0
M  V30 994 N 90.1641 1.46063 -0.591896 0
M  V30 995 C 91.5801 1.57561 -0.254288 0
M  V30 996 C 91.7801 1.58565 1.24336 0
M  V30 997 O 90.8361 1.50753 2.02558 0
M  V30 998 C 92.1491 2.86549 -0.911611 0
M  V30 999 C 93.6971 3.00197 -0.886059 0
M  V30 1000 C 94.1721 4.31933 -1.5231 0
M  V30 1001 N 95.6631 4.38654 -1.48786 0
M  V30 1002 C 96.3981 5.39222 -1.95006 0
M  V30 1003 N 95.8941 6.46414 -2.49241 0
M  V30 1004 N 97.6871 5.3048 -1.85868 0
M  V30 1005 H 89.8381 1.43655 -1.56451 0
M  V30 1006 H 92.1011 0.68583 -0.654478 0
M  V30 1007 H 91.8071 2.91651 -1.96551 0
M  V30 1008 H 91.6811 3.74794 -0.425368 0
M  V30 1009 H 94.0681 2.9467 0.159246 0
M  V30 1010 H 94.1491 2.13403 -1.41041 0
M  V30 1011 H 93.7931 4.38217 -2.56765 0
M  V30 1012 H 93.7231 5.17516 -0.973891 0
M  V30 1013 H 96.2141 3.61793 -1.09151 0
M  V30 1014 H 96.5271 7.19376 -2.82344 0
M  V30 1015 H 94.8721 6.47208 -2.53272 0
M  V30 1016 H 98.0631 4.45643 -1.43248 0
M  V30 1017 H 98.2361 6.08711 -2.22204 0
M  V30 1018 N 91.6422 0.330177 1.54103 0
M  V30 1019 C 93.0532 -0.15652 1.86043 0
M  V30 1020 C 93.4042 -1.51086 1.2517 0
M  V30 1021 O 92.5292 -2.09023 0.560217 0
M  V30 1022 C 93.1242 -0.290784 3.3755 0
M  V30 1023 C 91.6832 -0.721705 3.69416 0
M  V30 1024 C 90.8302 0.152622 2.7688 0
M  V30 1025 H 93.7812 0.550237 1.48856 0
M  V30 1026 H 93.8022 -1.12058 3.63625 0
M  V30 1027 H 93.3142 0.695068 3.81825 0
M  V30 1028 H 91.4152 -1.71706 3.30678 0
M  V30 1029 H 91.5282 -0.520869 4.7626 0
M  V30 1030 H 89.8922 -0.372894 2.51956 0
M  V30 1031 H 90.6752 1.13536 3.23982 0
M  V30 1032 N 93.1203 -1.57491 0.0584922 0
M  V30 1033 C 94.3683 -1.92597 -0.612436 0
M  V30 1034 C 94.6893 -0.938162 -1.70949 0
M  V30 1035 O 93.9593 0.0158301 -1.95894 0
M  V30 1036 H 92.5393 -0.710964 -0.229214 0
M  V30 1037 H 95.2013 -1.94571 0.113218 0
M  V30 1038 H 94.2973 -2.94038 -1.04633 0
M  V30 1039 N 94.5984 0.214957 -1.56127 0
M  V30 1040 C 95.8234 0.95924 -1.83884 0
M  V30 1041 C 96.2484 1.7689 -0.639644 0
M  V30 1042 O 95.6064 1.76566 0.411601 0
M  V30 1043 C 95.6544 1.84723 -3.09693 0
M  V30 1044 O 94.7584 2.94346 -2.8885 0
M  V30 1045 H 94.0994 0.27125 -0.606069 0
M  V30 1046 H 96.6294 0.226276 -2.03345 0
M  V30 1047 H 96.6394 2.25576 -3.39969 0
M  V30 1048 H 95.3144 1.25218 -3.96602 0
M  V30 1049 H 93.8914 2.57391 -2.69823 0
M  V30 1050 N 96.0765 1.50051 0.48192 0
M  V30 1051 C 97.0235 1.68122 1.58125 0
M  V30 1052 C 97.9935 0.522545 1.57666 0
M  V30 1053 O 99.1785 0.751844 1.75362 0
M  V30 1054 C 96.3185 1.77142 2.96167 0
M  V30 1055 C 95.4315 3.0444 3.06497 0
M  V30 1056 C 94.5665 3.04321 4.35387 0
M  V30 1057 C 93.6055 4.26118 4.3942 0
M  V30 1058 N 92.7425 4.238 5.59766 0
M  V30 1059 H 97.5825 2.6198 1.42022 0
M  V30 1060 H 95.1195 1.29877 0.690687 0
M  V30 1061 H 97.0775 1.80352 3.76203 0
M  V30 1062 H 95.7075 0.867329 3.1093 0
M  V30 1063 H 94.7595 3.10752 2.19402 0
M  V30 1064 H 96.0715 3.94426 3.05336 0
M  V30 1065 H 95.2255 3.062 5.23762 0
M  V30 1066 H 93.9645 2.12147 4.39141 0
M  V30 1067 H 92.9695 4.24463 3.49444 0
M  V30 1068 H 94.1945 5.19507 4.37366 0
M  V30 1069 H 92.1405 3.34474 5.64326 0
M  V30 1070 H 92.0575 5.07542 5.60301 0
M  V30 1071 H 93.3255 4.2981 6.50295 0
M  V30 1072 N 97.5546 -0.734337 1.39446 0
M  V30 1073 C 98.8006 -1.49613 1.36908 0
M  V30 1074 C 99.1336 -1.94169 -0.0347829 0
M  V30 1075 O 98.4086 -1.66833 -0.999847 0
M  V30 1076 C 98.6916 -2.73534 2.34203 0
M  V30 1077 C 98.5446 -2.34993 3.83534 0
M  V30 1078 C 99.8636 -3.75635 2.29317 0
M  V30 1079 H 96.9826 -0.542714 0.498629 0
M  V30 1080 H 99.6246 -0.839597 1.70443 0
M  V30 1081 H 97.7746 -3.29553 2.05736 0
M  V30 1082 H 99.4466 -1.84601 4.22753 0
M  V30 1083 H 97.6896 -1.67213 4.00278 0
M  V30 1084 H 98.3606 -3.23738 4.47099 0
M  V30 1085 H 100.837 -3.29203 2.54489 0
M  V30 1086 H 99.7126 -4.60008 2.99472 0
M  V30 1087 H 99.9736 -4.22603 1.29842 0
M  V30 1088 N 99.0327 -1.24633 -0.964593 0
M  V30 1089 C 99.9807 -1.03917 -2.08096 0
M  V30 1090 C 100.975 0.0268581 -1.69379 0
M  V30 1091 O 102.181 -0.127952 -1.79545 0
M  V30 1092 H 98.5557 -0.319044 -0.680966 0
M  V30 1093 H 100.527 -1.98581 -2.22729 0
M  V30 1094 C 99.2757 -0.663983 -3.41301 0
M  V30 1095 H 98.5987 -1.47605 -3.71555 0
M  V30 1096 H 100.039 -0.558663 -4.20303 0
M  V30 1097 C 98.4977 0.629169 -3.30973 0
M  V30 1098 O 99.0277 1.67404 -3.65156 0
M  V30 1099 N 97.2337 0.611057 -2.84103 0
M  V30 1100 H 96.7807 -0.239593 -2.56483 0
M  V30 1101 H 96.7387 1.47647 -2.77575 0
M  V30 1102 N 100.511 1.16574 -1.06058 0
M  V30 1103 C 101.458 2.20883 -0.669263 0
M  V30 1104 C 102.428 1.62729 0.332918 0
M  V30 1105 O 103.613 1.895 0.222346 0
M  V30 1106 C 100.753 3.45049 -0.0593572 0
M  V30 1107 C 99.8658 4.17458 -1.11143 0
M  V30 1108 C 99.0008 5.29135 -0.467916 0
M  V30 1109 C 98.0398 5.93343 -1.50369 0
M  V30 1110 N 97.1768 6.96516 -0.883706 0
M  V30 1111 H 102.017 2.53709 -1.5632 0
M  V30 1112 H 99.5538 1.24616 -0.781625 0
M  V30 1113 H 101.512 4.16033 0.311771 0
M  V30 1114 H 100.142 3.12781 0.797992 0
M  V30 1115 H 99.1938 3.45101 -1.60029 0
M  V30 1116 H 100.506 4.61307 -1.89731 0
M  V30 1117 H 99.6598 6.06684 -0.0436871 0
M  V30 1118 H 98.3988 4.86443 0.349864 0
M  V30 1119 H 97.4038 5.14517 -1.93784 0
M  V30 1120 H 98.6288 6.38114 -2.32352 0
M  V30 1121 H 96.5748 6.55943 -0.086595 0
M  V30 1122 H 96.4918 7.38723 -1.607 0
M  V30 1123 H 97.7598 7.77993 -0.484543 0
M  V30 1124 N 101.989 0.842826 1.3317 0
M  V30 1125 C 102.936 0.276885 2.29133 0
M  V30 1126 C 103.906 -0.609527 1.54512 0
M  V30 1127 O 105.091 -0.546955 1.82792 0
M  V30 1128 C 102.231 -0.538707 3.40869 0
M  V30 1129 C 101.344 0.372169 4.30394 0
M  V30 1130 C 100.479 -0.454908 5.29249 0
M  V30 1131 C 99.5179 0.45411 6.10413 0
M  V30 1132 N 98.6549 -0.335075 7.013 0
M  V30 1133 H 103.495 1.10052 2.76934 0
M  V30 1134 H 101.032 0.554161 1.36262 0
M  V30 1135 H 102.99 -1.02709 4.0436 0
M  V30 1136 H 101.62 -1.32727 2.9425 0
M  V30 1137 H 100.672 0.97888 3.6759 0
M  V30 1138 H 101.984 1.0703 4.87182 0
M  V30 1139 H 101.138 -1.00695 5.98285 0
M  V30 1140 H 99.8769 -1.18646 4.73048 0
M  V30 1141 H 98.8819 1.01813 5.40291 0
M  V30 1142 H 100.107 1.18409 6.68697 0
M  V30 1143 H 98.0529 -1.04994 6.47543 0
M  V30 1144 H 97.9699 0.304262 7.55387 0
M  V30 1145 H 99.2379 -0.869224 7.74638 0
M  V30 1146 N 103.467 -1.45747 0.599634 0
M  V30 1147 C 104.377 -2.34262 -0.125888 0
M  V30 1148 C 105.393 -1.50768 -0.868625 0
M  V30 1149 O 106.569 -1.83592 -0.828003 0
M  V30 1150 C 103.634 -3.28252 -1.11587 0
M  V30 1151 C 102.695 -4.27651 -0.375956 0
M  V30 1152 C 101.928 -5.1715 -1.31877 0
M  V30 1153 O 102.151 -5.09916 -2.55621 0
M  V30 1154 O 101.085 -5.96286 -0.820157 0
M  V30 1155 H 104.911 -2.97688 0.601315 0
M  V30 1156 H 102.496 -1.44999 0.359934 0
M  V30 1157 H 104.378 -3.86191 -1.68626 0
M  V30 1158 H 103.053 -2.67401 -1.82424 0
M  V30 1159 H 101.96 -3.7335 0.236698 0
M  V30 1160 H 103.293 -4.91334 0.29177 0
M  V30 1161 N 104.945 -0.338344 -1.53925 0
M  V30 1162 C 106.191 0.260143 -2.01125 0
M  V30 1163 C 106.524 1.50617 -1.22589 0
M  V30 1164 O 105.799 1.91979 -0.312113 0
M  V30 1165 C 106.082 0.579499 -3.55407 0
M  V30 1166 C 105.935 -0.678264 -4.44657 0
M  V30 1167 C 107.254 1.39122 -4.17532 0
M  V30 1168 H 104.373 0.0930772 -0.731099 0
M  V30 1169 H 107.015 -0.457852 -1.84401 0
M  V30 1170 H 105.165 1.19118 -3.69788 0
M  V30 1171 H 106.837 -1.31631 -4.42121 0
M  V30 1172 H 105.08 -1.3042 -4.13731 0
M  V30 1173 H 105.751 -0.410143 -5.50474 0
M  V30 1174 H 108.227 0.874035 -4.06817 0
M  V30 1175 H 107.103 1.58342 -5.25565 0
M  V30 1176 H 107.364 2.39178 -3.71815 0
M  V30 1177 N 106.423 1.57458 -0.0668435 0
M  V30 1178 C 107.669 1.93587 0.6043 0
M  V30 1179 C 108.002 0.946722 1.69561 0
M  V30 1180 O 107.277 -0.0248516 1.94484 0
M  V30 1181 C 107.56 3.40014 1.18585 0
M  V30 1182 C 107.413 4.49685 0.101529 0
M  V30 1183 C 108.732 3.87154 2.09284 0
M  V30 1184 H 105.851 0.703958 0.218202 0
M  V30 1185 H 108.493 1.89542 -0.131804 0
M  V30 1186 H 106.643 3.43592 1.81319 0
M  V30 1187 H 108.315 4.5823 -0.531279 0
M  V30 1188 H 106.558 4.30059 -0.568487 0
M  V30 1189 H 107.229 5.49266 0.54874 0
M  V30 1190 H 109.705 3.85551 1.56491 0
M  V30 1191 H 108.581 4.90231 2.46911 0
M  V30 1192 H 108.842 3.2481 2.99918 0
M  V30 1193 N 107.901 -0.206675 1.56239 0
M  V30 1194 C 108.811 -1.27686 1.96808 0
M  V30 1195 C 109.827 -1.50455 0.874035 0
M  V30 1196 O 111.003 -1.63295 1.17884 0
M  V30 1197 C 108.068 -2.60358 2.28942 0
M  V30 1198 C 107.129 -2.45762 3.51994 0
M  V30 1199 C 106.362 -3.72108 3.82585 0
M  V30 1200 O 106.585 -4.75776 3.14631 0
M  V30 1201 O 105.519 -3.6833 4.76043 0
M  V30 1202 H 109.345 -0.962593 2.88041 0
M  V30 1203 H 106.93 -0.410746 1.43643 0
M  V30 1204 H 108.812 -3.38687 2.50737 0
M  V30 1205 H 107.487 -2.91435 1.4088 0
M  V30 1206 H 106.394 -1.65584 3.35459 0
M  V30 1207 H 107.727 -2.19621 4.40486 0
M  V30 1208 N 109.379 -1.50304 -0.473955 0
M  V30 1209 C 110.342 -1.6841 -1.55469 0
M  V30 1210 C 111.342 -0.554905 -1.50922 0
M  V30 1211 O 112.532 -0.821882 -1.53593 0
M  V30 1212 C 109.664 -1.70667 -2.95102 0
M  V30 1213 H 110.857 -2.64828 -1.40733 0
M  V30 1214 H 108.41 -1.39742 -0.700132 0
M  V30 1215 H 109.145 -0.75932 -3.15285 0
M  V30 1216 H 108.93 -2.52698 -2.9981 0
M  V30 1217 H 110.42 -1.8664 -3.73571 0
M  V30 1218 N 110.857 0.726932 -1.39834 0
M  V30 1219 C 112.103 1.48884 -1.377 0
M  V30 1220 C 112.436 1.94185 0.0244852 0
M  V30 1221 O 111.711 1.67361 0.990986 0
M  V30 1222 C 111.994 2.72288 -2.3565 0
M  V30 1223 C 111.847 2.32956 -3.84775 0
M  V30 1224 C 113.166 3.74414 -2.31306 0
M  V30 1225 H 110.285 0.540062 -0.5015 0
M  V30 1226 H 112.927 0.830547 -1.70886 0
M  V30 1227 H 111.077 3.28457 -2.07481 0
M  V30 1228 H 112.749 1.82356 -4.23726 0
M  V30 1229 H 110.992 1.65088 -4.01159 0
M  V30 1230 H 111.663 3.21362 -4.4881 0
M  V30 1231 H 114.139 3.27849 -2.56231 0
M  V30 1232 H 113.015 4.58414 -3.01907 0
M  V30 1233 H 113.276 4.21909 -1.32081 0
M  V30 1234 N 112.336 1.25143 0.95797 0
M  V30 1235 C 113.564 1.12424 1.73691 0
M  V30 1236 C 113.979 -0.322304 1.86029 0
M  V30 1237 O 113.336 -1.22186 1.35561 0
M  V30 1238 C 113.387 1.76933 3.15241 0
M  V30 1239 O 113.108 3.15932 3.03511 0
M  V30 1240 C 114.609 1.6995 4.09429 0
M  V30 1241 H 111.829 0.3923 0.544373 0
M  V30 1242 H 114.373 1.6544 1.20207 0
M  V30 1243 H 112.528 1.27895 3.6568 0
M  V30 1244 H 112.942 3.47598 3.9278 0
M  V30 1245 H 114.416 2.19753 5.06372 0
M  V30 1246 H 114.893 0.662619 4.34173 0
M  V30 1247 H 115.499 2.18461 3.64904 0
M  V30 1248 N 113.814 -1.1601 1.06675 0
M  V30 1249 C 115.063 -1.85973 0.780818 0
M  V30 1250 C 115.376 -1.82819 -0.695444 0
M  V30 1251 O 116.582 -2.484 -1.09589 0
M  V30 1252 C 115.038 -3.33757 1.34665 0
M  V30 1253 C 114.646 -3.45374 2.85343 0
M  V30 1254 C 116.39 -4.0895 1.13843 0
M  V30 1255 C 114.297 -4.87266 3.35151 0
M  V30 1256 H 113.227 -0.696661 0.288407 0
M  V30 1257 H 115.878 -1.30903 1.28595 0
M  V30 1258 H 114.26 -3.88456 0.769274 0
M  V30 1259 H 115.434 -3.00816 3.49065 0
M  V30 1260 H 113.749 -2.83619 3.04876 0
M  V30 1261 H 116.346 -5.13654 1.4854 0
M  V30 1262 H 116.689 -4.16229 0.0770282 0
M  V30 1263 H 117.222 -3.605 1.68179 0
M  V30 1264 H 113.961 -4.85168 4.40786 0
M  V30 1265 H 113.481 -5.32433 2.76179 0
M  V30 1266 H 115.16 -5.56097 3.30704 0
M  V30 1267 N 115.292 -0.849877 -1.32721 0
M  V30 1268 C 116.538 -0.451591 -1.97708 0
M  V30 1269 C 116.871 0.989175 -1.6712 0
M  V30 1270 O 116.146 1.69334 -0.956891 0
M  V30 1271 C 116.429 -0.685598 -3.53513 0
M  V30 1272 C 116.282 -2.17444 -3.93749 0
M  V30 1273 C 117.601 -0.138874 -4.39881 0
M  V30 1274 H 114.72 -0.16555 -0.718166 0
M  V30 1275 H 117.362 -1.06742 -1.57182 0
M  V30 1276 H 115.512 -0.161416 -3.88165 0
M  V30 1277 H 117.184 -2.76433 -3.693 0
M  V30 1278 H 115.427 -2.65476 -3.43081 0
M  V30 1279 H 116.098 -2.28888 -5.02309 0
M  V30 1280 H 118.574 -0.587068 -4.11938 0
M  V30 1281 H 117.45 -0.332213 -5.47894 0
M  V30 1282 H 117.711 0.95806 -4.31594 0
M  V30 1283 N 116.77 1.45427 -0.607355 0
M  V30 1284 C 117.68 2.34325 0.113463 0
M  V30 1285 C 118.696 1.51226 0.860617 0
M  V30 1286 O 119.872 1.84029 0.818255 0
M  V30 1287 C 116.937 3.28839 1.09844 0
M  V30 1288 C 115.998 4.27844 0.353271 0
M  V30 1289 C 115.231 5.17842 1.29133 0
M  V30 1290 O 115.454 5.11264 2.52913 0
M  V30 1291 O 114.388 5.96713 0.788523 0
M  V30 1292 H 118.214 2.97364 -0.617094 0
M  V30 1293 H 115.799 1.44807 -0.367619 0
M  V30 1294 H 117.681 3.8708 1.66575 0
M  V30 1295 H 116.356 2.68365 1.81003 0
M  V30 1296 H 115.263 3.7322 -0.256494 0
M  V30 1297 H 116.596 4.91173 -0.317822 0
M  V30 1298 N 118.248 0.346503 1.53744 0
M  V30 1299 C 119.476 -0.25041 2.05379 0
M  V30 1300 C 119.891 -1.43979 1.22129 0
M  V30 1301 O 119.248 -1.80677 0.257321 0
M  V30 1302 C 119.299 -0.662575 3.55376 0
M  V30 1303 O 119.02 0.479515 4.35468 0
M  V30 1304 C 120.521 -1.31989 4.23195 0
M  V30 1305 H 117.741 -0.0478198 0.669294 0
M  V30 1306 H 120.285 0.499346 1.9831 0
M  V30 1307 H 118.44 -1.36227 3.62658 0
M  V30 1308 H 118.854 0.15037 5.24284 0
M  V30 1309 H 120.328 -1.55902 5.29527 0
M  V30 1310 H 120.805 -2.27436 3.75725 0
M  V30 1311 H 121.411 -0.662154 4.20114 0
M  V30 1312 N 119.726 -1.57421 0.075193 0
M  V30 1313 C 121.137 -1.81021 -0.456964 0
M  V30 1314 C 121.488 -0.98936 -1.69429 0
M  V30 1315 O 120.613 -0.212865 -2.15351 0
M  V30 1316 C 121.208 -3.28329 -0.83581 0
M  V30 1317 C 119.767 -3.52764 -1.31281 0
M  V30 1318 C 118.914 -2.75676 -0.299648 0
M  V30 1319 H 121.865 -1.55822 0.300856 0
M  V30 1320 H 121.886 -3.40564 -1.69696 0
M  V30 1321 H 121.398 -3.88046 0.0649238 0
M  V30 1322 H 119.499 -2.98355 -2.23193 0
M  V30 1323 H 119.612 -4.61451 -1.28839 0
M  V30 1324 H 117.976 -2.42538 -0.777641 0
M  V30 1325 H 118.759 -3.38132 0.593417 0
M  V30 1326 N 121.204 0.198386 -1.56346 0
M  V30 1327 C 122.615 0.763358 -1.70381 0
M  V30 1328 C 122.966 1.83995 -0.681203 0
M  V30 1329 O 122.091 2.15785 0.16305 0
M  V30 1330 C 122.686 1.39143 -3.08909 0
M  V30 1331 C 121.245 1.90352 -3.2472 0
M  V30 1332 C 120.392 0.772233 -2.6633 0
M  V30 1333 H 123.343 -0.0266377 -1.58678 0
M  V30 1334 H 123.364 2.26076 -3.06055 0
M  V30 1335 H 122.876 0.607638 -3.83314 0
M  V30 1336 H 120.977 2.71461 -2.55225 0
M  V30 1337 H 121.09 2.06757 -4.3219 0
M  V30 1338 H 119.454 1.18566 -2.2542 0
M  V30 1339 H 120.237 0.00073556 -3.433 0
M  V30 1340 N 122.682 1.50554 0.465978 0
M  V30 1341 C 123.615 1.64436 1.58227 0
M  V30 1342 C 124.593 0.492367 1.54966 0
M  V30 1343 O 125.777 0.712536 1.74514 0
M  V30 1344 C 122.904 1.63165 2.96808 0
M  V30 1345 C 121.95 2.83987 3.18204 0
M  V30 1346 S 122.783 4.45219 2.97557 0
M  V30 1347 C 123.939 4.46649 4.3847 0
M  V30 1348 H 124.172 2.58861 1.46213 0
M  V30 1349 H 121.705 1.3988 0.653678 0
M  V30 1350 H 123.663 1.63116 3.76701 0
M  V30 1351 H 122.324 0.69967 3.06208 0
M  V30 1352 H 121.517 2.79416 4.19455 0
M  V30 1353 H 121.119 2.81629 2.46092 0
M  V30 1354 H 123.411 4.20526 5.31191 0
M  V30 1355 H 124.354 5.48295 4.48082 0
M  V30 1356 H 124.762 3.76296 4.20787 0
M  V30 1357 N 124.16 -0.719506 1.40217 0
M  V30 1358 C 125.406 -1.48152 1.38488 0
M  V30 1359 C 125.739 -1.94195 -0.0141867 0
M  V30 1360 O 125.014 -1.67884 -0.982096 0
M  V30 1361 C 125.297 -2.71035 2.37091 0
M  V30 1362 C 125.15 -2.30912 3.86005 0
M  V30 1363 C 126.469 -3.73182 2.33288 0
M  V30 1364 H 123.588 -0.537395 0.504357 0
M  V30 1365 H 126.23 -0.821472 1.71324 0
M  V30 1366 H 124.38 -3.27352 2.0922 0
M  V30 1367 H 126.052 -1.80107 4.24687 0
M  V30 1368 H 124.295 -1.62958 4.02029 0
M  V30 1369 H 124.966 -3.18978 4.50508 0
M  V30 1370 H 127.442 -3.26485 2.57966 0
M  V30 1371 H 126.318 -4.56806 3.04334 0
M  V30 1372 H 126.579 -4.21202 1.34317 0
M  V30 1373 N 125.638 -1.25649 -0.95132 0
M  V30 1374 C 126.884 -1.10757 -1.69884 0
M  V30 1375 C 127.217 0.350061 -1.91019 0
M  V30 1376 O 126.492 1.25783 -1.48354 0
M  V30 1377 C 126.775 -1.86606 -3.07978 0
M  V30 1378 C 126.628 -3.40217 -2.94232 0
M  V30 1379 C 127.947 -1.65182 -4.07925 0
M  V30 1380 H 125.066 -0.40374 -0.616574 0
M  V30 1381 H 127.708 -1.54521 -1.10558 0
M  V30 1382 H 125.858 -1.49409 -3.58621 0
M  V30 1383 H 127.53 -3.87108 -2.50889 0
M  V30 1384 H 125.773 -3.67759 -2.30078 0
M  V30 1385 H 126.444 -3.88505 -3.92133 0
M  V30 1386 H 128.92 -1.9757 -3.66204 0
M  V30 1387 H 127.796 -2.20683 -5.02583 0
M  V30 1388 H 128.057 -0.593933 -4.38092 0
M  V30 1389 N 127.117 1.15442 -1.07289 0
M  V30 1390 C 128.363 1.86489 -0.796846 0
M  V30 1391 C 128.696 1.82078 0.675371 0
M  V30 1392 O 127.971 1.24346 1.4956 0
M  V30 1393 C 128.254 3.35626 -1.30489 0
M  V30 1394 C 128.107 3.48673 -2.84161 0
M  V30 1395 C 129.426 4.30357 -0.920907 0
M  V30 1396 H 126.545 0.677144 -0.290939 0
M  V30 1397 H 129.187 1.35633 -1.33056 0
M  V30 1398 H 127.337 3.79068 -0.850883 0
M  V30 1399 H 129.009 3.14099 -3.37846 0
M  V30 1400 H 127.252 2.90253 -3.22391 0
M  V30 1401 H 127.923 4.53453 -3.14777 0
M  V30 1402 H 130.399 3.94871 -1.3121 0
M  V30 1403 H 129.275 5.33193 -1.30372 0
M  V30 1404 H 129.536 4.4176 0.173226 0
M  V30 1405 N 128.595 0.856903 1.32268 0
M  V30 1406 C 129.843 0.460474 1.96784 0
M  V30 1407 C 130.164 -0.987701 1.68135 0
M  V30 1408 O 129.434 -1.69058 0.989765 0
M  V30 1409 H 128.014 0.167289 0.728027 0
M  V30 1410 H 130.676 1.09383 1.61312 0
M  V30 1411 H 129.772 0.60739 3.06133 0
M  V30 1412 N 130.073 -1.45103 0.615059 0
M  V30 1413 C 131.322 -2.01396 0.110718 0
M  V30 1414 C 131.635 -1.48834 -1.26916 0
M  V30 1415 O 132.841 -1.97152 -1.86664 0
M  V30 1416 C 131.297 -3.59599 0.14723 0
M  V30 1417 C 130.905 -4.21158 1.52743 0
M  V30 1418 C 132.649 -4.23428 -0.30148 0
M  V30 1419 C 130.556 -5.71535 1.51992 0
M  V30 1420 H 129.486 -0.753061 0.0376241 0
M  V30 1421 H 132.137 -1.66494 0.77149 0
M  V30 1422 H 130.519 -3.91724 -0.580339 0
M  V30 1423 H 131.693 -4.00594 2.2773 0
M  V30 1424 H 130.008 -3.69552 1.91886 0
M  V30 1425 H 132.605 -5.33703 -0.326392 0
M  V30 1426 H 132.948 -3.94629 -1.32565 0
M  V30 1427 H 133.481 -3.96047 0.373065 0
M  V30 1428 H 130.22 -6.05044 2.52193 0
M  V30 1429 H 129.74 -5.94268 0.81274 0
M  V30 1430 H 131.419 -6.34873 1.24681 0
M  V30 1431 N 131.551 -0.354651 -1.53558 0
M  V30 1432 C 132.797 0.238797 -2.01389 0
M  V30 1433 C 133.13 1.49309 -1.2418 0
M  V30 1434 O 132.405 1.91638 -0.332457 0
M  V30 1435 C 132.688 0.541771 -3.56001 0
M  V30 1436 C 132.541 -0.725388 -4.43912 0
M  V30 1437 C 133.86 1.34685 -4.18984 0
M  V30 1438 H 130.979 0.0853177 -0.732045 0
M  V30 1439 H 133.621 -0.477384 -1.83905 0
M  V30 1440 H 131.771 1.15189 -3.71031 0
M  V30 1441 H 133.443 -1.36313 -4.407 0
M  V30 1442 H 131.686 -1.34801 -4.12324 0
M  V30 1443 H 132.357 -0.468505 -5.50008 0
M  V30 1444 H 134.833 0.830837 -4.07721 0
M  V30 1445 H 133.709 1.52759 -5.27215 0
M  V30 1446 H 133.97 2.35221 -3.74331 0
M  V30 1447 N 133.029 1.57378 -0.0835403 0
M  V30 1448 C 134.277 1.93547 0.581718 0
M  V30 1449 C 134.598 0.96524 1.69435 0
M  V30 1450 O 133.868 0.0153369 1.95894 0
M  V30 1451 H 132.448 0.714521 0.217874 0
M  V30 1452 H 135.11 1.94366 -0.144158 0
M  V30 1453 H 134.206 2.95665 0.999423 0
M  V30 1454 N 134.507 -0.190092 1.56449 0
M  V30 1455 C 135.737 -0.92443 1.84764 0
M  V30 1456 C 136.145 -1.77146 0.664529 0
M  V30 1457 O 135.488 -1.79812 -0.375957 0
M  V30 1458 C 135.55 -1.86651 3.07248 0
M  V30 1459 C 135.214 -1.20094 4.40938 0
M  V30 1460 C 136.211 -0.575445 5.16706 0
M  V30 1461 C 133.896 -1.2033 4.87674 0
M  V30 1462 C 135.89 0.0388111 6.37388 0
M  V30 1463 C 133.577 -0.585214 6.08291 0
M  V30 1464 C 134.575 0.0347578 6.82991 0
M  V30 1465 O 134.263 0.643147 8.01323 0
M  V30 1466 H 133.995 -0.274974 0.617548 0
M  V30 1467 H 136.549 -0.200788 2.04416 0
M  V30 1468 H 134.779 -2.62998 2.83494 0
M  V30 1469 H 136.468 -2.46907 3.22167 0
M  V30 1470 H 137.234 -0.565728 4.81689 0
M  V30 1471 H 133.113 -1.67526 4.29484 0
M  V30 1472 H 136.657 0.523329 6.95634 0
M  V30 1473 H 132.554 -0.592451 6.42775 0
M  V30 1474 H 133.322 0.540545 8.16713 0
M  V30 1475 N 135.985 -1.50799 -0.457987 0
M  V30 1476 C 137.231 -1.62683 -1.21088 0
M  V30 1477 C 137.564 -0.332268 -1.91336 0
M  V30 1478 O 136.839 0.667043 -1.82704 0
M  V30 1479 C 137.122 -2.81615 -2.24422 0
M  V30 1480 C 136.975 -4.20989 -1.58392 0
M  V30 1481 C 138.294 -2.96085 -3.2561 0
M  V30 1482 H 135.413 -0.592087 -0.438864 0
M  V30 1483 H 138.055 -1.83225 -0.50286 0
M  V30 1484 H 136.205 -2.64231 -2.84806 0
M  V30 1485 H 137.877 -4.49994 -1.01504 0
M  V30 1486 H 136.12 -4.24641 -0.886704 0
M  V30 1487 H 136.791 -5.0016 -2.33547 0
M  V30 1488 H 139.267 -3.12042 -2.75262 0
M  V30 1489 H 138.143 -3.80902 -3.95228 0
M  V30 1490 H 138.404 -2.0726 -3.90507 0
M  V30 1491 N 137.463 0.71206 -1.40597 0
M  V30 1492 C 138.373 1.8562 -1.43466 0
M  V30 1493 C 139.389 1.70902 -0.326902 0
M  V30 1494 O 140.565 1.93105 -0.572043 0
M  V30 1495 C 137.63 3.21451 -1.29884 0
M  V30 1496 C 136.691 3.48398 -2.50833 0
M  V30 1497 C 135.924 4.77749 -2.3789 0
M  V30 1498 O 136.147 5.53089 -1.39459 0
M  V30 1499 O 135.081 5.05111 -3.27333 0
M  V30 1500 H 138.907 1.86155 -2.39958 0
M  V30 1501 H 136.492 0.86295 -1.21957 0
M  V30 1502 H 138.374 4.02579 -1.24531 0
M  V30 1503 H 137.049 3.21636 -0.364997 0
M  V30 1504 H 135.956 2.67265 -2.61763 0
M  V30 1505 H 137.289 3.53014 -3.4299 0
M  V30 1506 N 138.941 1.26152 0.944643 0
M  V30 1507 C 140.169 1.14259 1.72489 0
M  V30 1508 C 140.584 -0.302555 1.8636 0
M  V30 1509 O 139.941 -1.20741 1.36849 0
M  V30 1510 C 139.992 1.80266 3.13347 0
M  V30 1511 O 139.713 3.19133 3.00143 0
M  V30 1512 C 141.214 1.74283 4.07603 0
M  V30 1513 H 138.434 0.398051 0.540181 0
M  V30 1514 H 140.978 1.66706 1.18446 0
M  V30 1515 H 139.133 1.31766 3.64303 0
M  V30 1516 H 139.547 3.51744 3.89071 0
M  V30 1517 H 141.021 2.25111 5.04013 0
M  V30 1518 H 141.498 0.708631 4.33446 0
M  V30 1519 H 142.104 2.22319 3.62567 0
M  V30 1520 N 140.419 -1.14872 1.07899 0
M  V30 1521 C 141.83 -1.67367 0.827363 0
M  V30 1522 C 142.181 -1.85236 -0.646693 0
M  V30 1523 O 141.306 -1.55974 -1.50004 0
M  V30 1524 C 141.901 -3.04016 1.49532 0
M  V30 1525 C 140.46 -3.53566 1.29106 0
M  V30 1526 C 139.607 -2.29161 1.56143 0
M  V30 1527 H 142.558 -0.990083 1.24028 0
M  V30 1528 H 142.579 -3.69219 0.919643 0
M  V30 1529 H 142.091 -2.90978 2.56814 0
M  V30 1530 H 140.192 -3.71835 0.238713 0
M  V30 1531 H 140.305 -4.34661 2.01511 0
M  V30 1532 H 138.669 -2.34978 0.982717 0
M  V30 1533 H 139.452 -2.18705 2.64619 0
M  V30 1534 N 141.898 -0.863906 -1.31812 0
M  V30 1535 C 143.314 -0.555004 -1.49639 0
M  V30 1536 C 143.514 0.912266 -1.79666 0
M  V30 1537 O 142.57 1.69479 -1.87171 0
M  V30 1538 C 143.883 -1.44998 -2.63431 0
M  V30 1539 C 145.431 -1.45138 -2.77316 0
M  V30 1540 C 145.906 -2.33179 -3.94197 0
M  V30 1541 N 147.397 -2.31025 -4.01474 0
M  V30 1542 C 148.132 -2.95871 -4.9117 0
M  V30 1543 N 147.628 -3.69863 -5.8581 0
M  V30 1544 N 149.421 -2.85211 -4.84367 0
M  V30 1545 H 141.572 -1.81339 -1.10589 0
M  V30 1546 H 143.835 -0.77505 -0.545895 0
M  V30 1547 H 143.541 -2.49377 -2.48 0
M  V30 1548 H 143.415 -1.14409 -3.59431 0
M  V30 1549 H 145.802 -0.415201 -2.92164 0
M  V30 1550 H 145.883 -1.79747 -1.82001 0
M  V30 1551 H 145.527 -3.3687 -3.80107 0
M  V30 1552 H 145.457 -1.95897 -4.88807 0
M  V30 1553 H 147.948 -1.77238 -3.33759 0
M  V30 1554 H 148.261 -4.16486 -6.50968 0
M  V30 1555 H 146.606 -3.73971 -5.85808 0
M  V30 1556 H 149.797 -2.26948 -4.09405 0
M  V30 1557 H 149.97 -3.36027 -5.54066 0
M  V30 1558 N 143.376 1.44774 -0.622745 0
M  V30 1559 C 144.624 2.01721 -0.123655 0
M  V30 1560 C 144.945 1.49172 1.25589 0
M  V30 1561 O 144.215 0.691974 1.83272 0
M  V30 1562 H 142.795 0.745777 -0.0427225 0
M  V30 1563 H 145.457 1.77382 -0.807559 0
M  V30 1564 H 144.553 3.11984 -0.0849534 0
M  V30 1565 N 144.854 0.36279 1.53368 0
M  V30 1566 C 145.784 -0.476976 2.28576 0
M  V30 1567 C 146.765 -1.08631 1.30894 0
M  V30 1568 O 147.95 -1.10409 1.59761 0
M  V30 1569 C 145.08 -1.61828 3.07293 0
M  V30 1570 C 144.034 -1.13633 4.1264 0
M  V30 1571 C 143.36 -2.36766 4.79423 0
M  V30 1572 C 144.66 -0.223061 5.21823 0
M  V30 1573 H 146.354 0.150474 2.99022 0
M  V30 1574 H 143.9 0.0738103 1.43811 0
M  V30 1575 H 145.853 -2.21237 3.58653 0
M  V30 1576 H 144.577 -2.27292 2.34533 0
M  V30 1577 H 143.236 -0.564945 3.62221 0
M  V30 1578 H 142.884 -3.0068 4.03238 0
M  V30 1579 H 142.584 -2.05192 5.50609 0
M  V30 1580 H 144.108 -2.96865 5.33576 0
M  V30 1581 H 145.522 -0.724545 5.68703 0
M  V30 1582 H 143.919 0.001678 6.001 0
M  V30 1583 H 144.989 0.735553 4.79289 0
M  V30 1584 N 146.332 -1.57332 0.0918853 0
M  V30 1585 C 147.748 -1.57389 -0.264766 0
M  V30 1586 C 147.948 -1.10281 -1.68643 0
M  V30 1587 O 147.004 -0.777801 -2.40222 0
M  V30 1588 C 148.317 -3.00648 -0.0561195 0
M  V30 1589 C 149.865 -3.12754 -0.124116 0
M  V30 1590 C 150.34 -4.57965 0.0564972 0
M  V30 1591 N 151.831 -4.632 0.00155611 0
M  V30 1592 C 152.566 -5.73281 0.116598 0
M  V30 1593 N 152.062 -6.92208 0.286294 0
M  V30 1594 N 153.855 -5.6207 0.0580973 0
M  V30 1595 H 146.006 -1.86262 1.02079 0
M  V30 1596 H 148.269 -0.859579 0.399786 0
M  V30 1597 H 147.975 -3.393 0.925669 0
M  V30 1598 H 147.849 -3.68623 -0.799823 0
M  V30 1599 H 150.236 -2.73976 -1.09641 0
M  V30 1600 H 150.317 -2.47377 0.651024 0
M  V30 1601 H 149.961 -4.97436 1.02564 0
M  V30 1602 H 149.891 -5.21399 -0.738297 0
M  V30 1603 H 152.382 -3.77686 -0.127192 0
M  V30 1604 H 152.695 -7.71934 0.365676 0
M  V30 1605 H 151.04 -6.94254 0.32192 0
M  V30 1606 H 154.231 -4.68043 -0.0733204 0
M  V30 1607 H 154.404 -6.47824 0.151203 0
M  V30 1608 N 147.81 0.181792 -1.56548 0
M  V30 1609 C 149.038 0.915947 -1.85521 0
M  V30 1610 C 149.453 1.76282 -0.676016 0
M  V30 1611 O 148.81 1.79012 0.355077 0
M  V30 1612 C 148.861 1.80126 -3.13427 0
M  V30 1613 O 148.582 0.988562 -4.26801 0
M  V30 1614 C 150.083 2.64597 -3.55673 0
M  V30 1615 H 147.303 0.26661 -0.61576 0
M  V30 1616 H 149.847 0.185039 -2.03661 0
M  V30 1617 H 148.002 2.48563 -2.97145 0
M  V30 1618 H 148.416 1.59308 -4.99721 0
M  V30 1619 H 149.89 3.2235 -4.48101 0
M  V30 1620 H 150.367 3.38958 -2.79292 0
M  V30 1621 H 150.973 2.0151 -3.74532 0
M  V30 1622 N 149.288 1.51039 0.449983 0
M  V30 1623 C 150.535 1.63081 1.20045 0
M  V30 1624 C 150.863 0.341024 1.91487 0
M  V30 1625 O 150.118 -0.674276 1.83717 0
M  V30 1626 C 150.417 2.77556 2.25161 0
M  V30 1627 C 150.083 4.17289 1.70823 0
M  V30 1628 C 148.745 4.55305 1.55725 0
M  V30 1629 C 151.097 5.04536 1.3074 0
M  V30 1630 C 148.425 5.78287 0.989999 0
M  V30 1631 C 150.777 6.28085 0.754482 0
M  V30 1632 C 149.441 6.64885 0.590308 0
M  V30 1633 H 148.711 0.596755 0.439277 0
M  V30 1634 H 151.358 1.85037 0.49333 0
M  V30 1635 H 149.663 2.49771 3.01863 0
M  V30 1636 H 151.36 2.84073 2.83026 0
M  V30 1637 H 147.95 3.8731 1.83546 0
M  V30 1638 H 152.134 4.75782 1.41229 0
M  V30 1639 H 147.39 6.05456 0.850451 0
M  V30 1640 H 151.564 6.95038 0.435324 0
M  V30 1641 H 149.191 7.60055 0.14862 0
M  V30 1642 N 150.766 -0.704594 1.40972 0
M  V30 1643 C 151.713 -1.81862 1.42109 0
M  V30 1644 C 152.683 -1.63781 0.276593 0
M  V30 1645 O 153.868 -1.84759 0.4763 0
M  V30 1646 C 151.008 -3.19669 1.30022 0
M  V30 1647 C 150.121 -3.49246 2.54267 0
M  V30 1648 C 149.256 -4.76618 2.3454 0
M  V30 1649 C 148.295 -4.99133 3.54306 0
M  V30 1650 N 147.432 -6.17726 3.33706 0
M  V30 1651 H 152.272 -1.80226 2.37324 0
M  V30 1652 H 149.809 -0.880238 1.17857 0
M  V30 1653 H 151.767 -3.99263 1.21018 0
M  V30 1654 H 150.397 -3.20506 0.384192 0
M  V30 1655 H 149.449 -2.64125 2.73756 0
M  V30 1656 H 150.761 -3.61788 3.43381 0
M  V30 1657 H 149.915 -5.64249 2.22952 0
M  V30 1658 H 148.654 -4.66305 1.42867 0
M  V30 1659 H 147.659 -4.09953 3.66359 0
M  V30 1660 H 148.884 -5.11311 4.4692 0
M  V30 1661 H 146.83 -6.08642 2.44725 0
M  V30 1662 H 146.747 -6.30995 4.16391 0
M  V30 1663 H 148.015 -7.08115 3.25873 0
M  V30 1664 N 152.244 -1.26651 -0.937939 0
M  V30 1665 C 153.472 -1.15173 -1.7188 0
M  V30 1666 C 153.887 0.292668 -1.86518 0
M  V30 1667 O 153.244 1.20014 -1.37488 0
M  V30 1668 C 153.295 -1.81925 -3.12387 0
M  V30 1669 O 153.016 -3.2072 -2.98446 0
M  V30 1670 C 154.517 -1.76442 -4.06673 0
M  V30 1671 H 151.737 -0.400911 -0.538063 0
M  V30 1672 H 154.281 -1.67332 -1.1756 0
M  V30 1673 H 152.436 -1.33696 -3.63599 0
M  V30 1674 H 152.85 -3.53802 -3.872 0
M  V30 1675 H 154.324 -2.27781 -5.02812 0
M  V30 1676 H 154.801 -0.731608 -4.33064 0
M  V30 1677 H 155.407 -2.24238 -3.61382 0
M  V30 1678 N 153.722 1.14298 -1.08507 0
M  V30 1679 C 154.968 1.85633 -0.816581 0
M  V30 1680 C 155.301 1.82784 0.656021 0
M  V30 1681 O 154.576 1.25926 1.48233 0
M  V30 1682 C 154.859 3.34223 -1.34041 0
M  V30 1683 C 154.712 3.45639 -2.87843 0
M  V30 1684 C 156.031 4.29356 -0.9665 0
M  V30 1685 H 153.15 0.67402 -0.298104 0
M  V30 1686 H 155.792 1.34214 -1.34487 0
M  V30 1687 H 153.942 3.78144 -0.89104 0
M  V30 1688 H 155.614 3.10498 -3.41158 0
M  V30 1689 H 153.857 2.86817 -3.25451 0
M  V30 1690 H 154.528 4.50089 -3.19569 0
M  V30 1691 H 157.004 3.93457 -1.35391 0
M  V30 1692 H 155.88 5.3178 -1.3602 0
M  V30 1693 H 156.141 4.41919 0.126362 0
M  V30 1694 N 155.201 0.870884 1.31352 0
M  V30 1695 C 156.448 0.482273 1.96673 0
M  V30 1696 C 156.776 -0.965638 1.68836 0
M  V30 1697 O 156.031 -1.69514 0.977937 0
M  V30 1698 C 156.33 0.687157 3.50732 0
M  V30 1699 C 155.996 2.108 3.9859 0
M  V30 1700 C 154.658 2.49656 4.1137 0
M  V30 1701 C 157.01 3.03459 4.23748 0
M  V30 1702 C 154.338 3.80412 4.46659 0
M  V30 1703 C 156.69 4.3373 4.60501 0
M  V30 1704 C 155.354 4.725 4.71487 0
M  V30 1705 H 154.624 0.176476 0.719679 0
M  V30 1706 H 157.271 1.10405 1.56471 0
M  V30 1707 H 155.576 -0.0177476 3.91796 0
M  V30 1708 H 157.273 0.366284 3.99324 0
M  V30 1709 H 153.863 1.79633 3.8914 0
M  V30 1710 H 158.047 2.74665 4.13368 0
M  V30 1711 H 153.303 4.1021 4.53362 0
M  V30 1712 H 157.477 5.05578 4.78919 0
M  V30 1713 H 155.104 5.73859 4.98588 0
M  V30 1714 N 156.679 -1.44442 0.630414 0
M  V30 1715 C 157.642 -2.29107 -0.0652523 0
M  V30 1716 C 158.642 -1.41002 -0.772995 0
M  V30 1717 O 159.832 -1.62881 -0.617692 0
M  V30 1718 C 156.964 -3.22564 -1.10296 0
M  V30 1719 H 158.157 -2.92103 0.679401 0
M  V30 1720 H 155.71 -1.51343 0.390517 0
M  V30 1721 H 156.445 -2.64416 -1.87762 0
M  V30 1722 H 156.23 -3.87491 -0.59941 0
M  V30 1723 H 157.72 -3.86167 -1.5895 0
M  V30 1724 N 158.157 -0.370918 -1.53173 0
M  V30 1725 C 159.067 0.480823 -2.2962 0
M  V30 1726 C 160.083 1.08789 -1.35798 0
M  V30 1727 O 161.259 1.09768 -1.68858 0
M  V30 1728 C 158.324 1.60227 -3.07454 0
M  V30 1729 C 157.385 1.0222 -4.16953 0
M  V30 1730 C 156.618 2.0902 -4.91066 0
M  V30 1731 O 156.841 3.30222 -4.65091 0
M  V30 1732 O 155.775 1.71778 -5.76867 0
M  V30 1733 H 159.601 -0.141421 -3.03371 0
M  V30 1734 H 157.186 -0.135146 -1.48787 0
M  V30 1735 H 159.068 2.25417 -3.56041 0
M  V30 1736 H 157.743 2.20982 -2.36535 0
M  V30 1737 H 156.65 0.334064 -3.72605 0
M  V30 1738 H 157.983 0.459131 -4.90054 0
M  V30 1739 N 159.635 1.57281 -0.100228 0
M  V30 1740 C 160.585 2.10848 0.86759 0
M  V30 1741 C 161.569 1.02473 1.24049 0
M  V30 1742 O 162.761 1.28739 1.21471 0
M  V30 1743 C 159.89 2.69648 2.12474 0
M  V30 1744 C 158.976 3.85074 1.77704 0
M  V30 1745 N 159.367 4.92897 1.13518 0
M  V30 1746 C 157.665 3.94905 2.07282 0
M  V30 1747 C 158.366 5.73475 0.974735 0
M  V30 1748 N 157.342 5.22675 1.4937 0
M  V30 1749 H 161.144 2.91594 0.367471 0
M  V30 1750 H 158.658 1.62074 0.102829 0
M  V30 1751 H 160.655 3.06356 2.82757 0
M  V30 1752 H 159.315 1.90359 2.63047 0
M  V30 1753 H 160.326 5.11662 0.801381 0
M  V30 1754 H 157.003 3.26633 2.60033 0
M  V30 1755 H 158.393 6.70238 0.472364 0
M  V30 1756 N 161.113 -0.173488 1.56642 0
M  V30 1757 C 162.362 -0.888758 1.81063 0
M  V30 1758 C 162.675 -1.83506 0.67712 0
M  V30 1759 O 163.881 -2.59254 0.806206 0
M  V30 1760 C 162.337 -1.63091 3.20826 0
M  V30 1761 C 161.945 -0.728357 4.4204 0
M  V30 1762 C 163.689 -2.33454 3.54541 0
M  V30 1763 C 161.596 -1.47062 5.72823 0
M  V30 1764 H 160.526 -0.335618 0.675186 0
M  V30 1765 H 163.177 -0.141712 1.82952 0
M  V30 1766 H 161.559 -2.42263 3.13248 0
M  V30 1767 H 162.733 0.0262449 4.60793 0
M  V30 1768 H 161.048 -0.134492 4.16183 0
M  V30 1769 H 163.645 -2.89578 4.49498 0
M  V30 1770 H 163.988 -3.08687 2.79317 0
M  V30 1771 H 164.521 -1.61227 3.63663 0
M  V30 1772 H 161.26 -0.760658 6.51072 0
M  V30 1773 H 160.78 -2.1986 5.58052 0
M  V30 1774 H 162.459 -2.01868 6.14702 0
M  V30 1775 N 162.591 -1.51276 -0.441967 0
M  V30 1776 C 163.816 -1.67799 -1.21895 0
M  V30 1777 C 164.241 -0.372864 -1.84367 0
M  V30 1778 O 163.599 0.666501 -1.68604 0
M  V30 1779 C 163.647 -2.79199 -2.28211 0
M  V30 1780 O 162.751 -2.42479 -3.33583 0
M  V30 1781 H 162.092 -0.559649 -0.357336 0
M  V30 1782 H 164.622 -1.97815 -0.522522 0
M  V30 1783 H 164.632 -3.03146 -2.73069 0
M  V30 1784 H 163.307 -3.73906 -1.82118 0
M  V30 1785 H 161.884 -2.29087 -2.94234 0
M  V30 1786 N 164.069 0.697108 -1.41344 0
M  V30 1787 C 165.346 1.45154 -1.31109 0
M  V30 1788 C 165.726 2.11009 0.0620449 0
M  V30 1789 O 165.074 2.01571 1.07618 0
M  V30 1790 C 165.284 2.47223 -2.46337 0
M  V30 1791 C 166.632 3.1252 -2.87431 0
M  V30 1792 O 167.656 2.57547 -2.46065 0
M  V30 1793 O 166.515 4.12083 -3.58957 0
M  V30 1794 H 163.609 0.646365 -0.515889 0
M  V30 1795 H 166.155 0.727716 -1.53305 0
M  V30 1796 H 164.927 1.97204 -3.37974 0
M  V30 1797 H 164.55 3.27116 -2.2601 0
M  V30 1798 N 165.547 1.27147 0.931209 0
M  V30 1799 C 166.457 1.11372 2.06478 0
M  V30 1800 C 167.473 0.044645 1.73943 0
M  V30 1801 O 168.649 0.250417 1.99837 0
M  V30 1802 C 165.714 0.758838 3.38294 0
M  V30 1803 C 164.775 1.90841 3.84549 0
M  V30 1804 C 164.008 1.57036 5.10074 0
M  V30 1805 O 164.231 0.476645 5.68405 0
M  V30 1806 O 163.165 2.40839 5.51616 0
M  V30 1807 H 166.991 2.06493 2.22698 0
M  V30 1808 H 164.576 1.06301 1.04978 0
M  V30 1809 H 166.458 0.574098 4.17471 0
M  V30 1810 H 165.133 -0.162879 3.2329 0
M  V30 1811 H 164.04 2.14819 3.06274 0
M  V30 1812 H 165.373 2.81021 4.04089 0
M  V30 1813 N 167.025 -1.13721 1.09112 0
M  V30 1814 C 168.265 -1.86576 0.834801 0
M  V30 1815 C 168.629 -1.81435 -0.628122 0
M  V30 1816 O 169.83 -2.49497 -1.00024 0
M  V30 1817 C 168.101 -3.30872 1.35124 0
M  V30 1818 S 169.66 -4.21257 1.22832 0
M  V30 1819 H 166.478 -0.643666 0.302017 0
M  V30 1820 H 169.08 -1.37085 1.39385 0
M  V30 1821 H 167.784 -3.32166 2.41027 0
M  V30 1822 H 167.315 -3.85423 0.788185 0
M  V30 1823 H 169.33 -4.95884 0.177191 0
M  V30 1824 N 168.503 -0.877838 -1.30888 0
M  V30 1825 C 169.45 -0.337538 -2.28318 0
M  V30 1826 C 170.42 0.568346 -1.56074 0
M  V30 1827 O 171.605 0.498298 -1.84178 0
M  V30 1828 C 168.745 0.448142 -3.42178 0
M  V30 1829 C 167.858 -0.48615 -4.29256 0
M  V30 1830 C 166.993 0.314427 -5.30269 0
M  V30 1831 C 166.032 -0.615791 -6.08995 0
M  V30 1832 N 165.169 0.14902 -7.01942 0
M  V30 1833 H 170.009 -1.17356 -2.73919 0
M  V30 1834 H 167.546 -0.590094 -1.34745 0
M  V30 1835 H 169.504 0.919517 -4.06941 0
M  V30 1836 H 168.134 1.24879 -2.97666 0
M  V30 1837 H 167.186 -1.076 -3.64865 0
M  V30 1838 H 168.498 -1.19909 -4.84173 0
M  V30 1839 H 167.652 0.847969 -6.00745 0
M  V30 1840 H 166.391 1.06062 -4.76027 0
M  V30 1841 H 165.396 -1.16102 -5.37401 0
M  V30 1842 H 166.621 -1.36097 -6.65323 0
M  V30 1843 H 164.567 0.877884 -6.50099 0
M  V30 1844 H 164.484 -0.504433 -7.54315 0
M  V30 1845 H 165.752 0.663537 -7.76671 0
M  V30 1846 N 169.982 1.44106 -0.638065 0
M  V30 1847 C 171.398 1.56672 -0.304286 0
M  V30 1848 C 171.598 1.6244 1.19228 0
M  V30 1849 O 170.654 1.57121 1.9766 0
M  V30 1850 C 171.967 2.83503 -1.00231 0
M  V30 1851 C 173.515 2.97226 -0.981116 0
M  V30 1852 C 173.99 4.26868 -1.65974 0
M  V30 1853 N 175.481 4.33698 -1.62666 0
M  V30 1854 C 176.216 5.32745 -2.12063 0
M  V30 1855 N 175.712 6.38157 -2.6968 0
M  V30 1856 N 177.505 5.24299 -2.02651 0
M  V30 1857 H 169.656 1.38605 -1.60942 0
M  V30 1858 H 171.919 0.664661 -0.675965 0
M  V30 1859 H 171.625 2.85251 -2.0573 0
M  V30 1860 H 171.499 3.73251 -0.54439 0
M  V30 1861 H 173.886 2.95027 0.0654188 0
M  V30 1862 H 173.967 2.08808 -1.47759 0
M  V30 1863 H 173.611 4.29826 -2.70576 0
M  V30 1864 H 173.541 5.14156 -1.13804 0
M  V30 1865 H 176.032 3.58138 -1.20606 0
M  V30 1866 H 176.345 7.10029 -3.05087 0
M  V30 1867 H 174.69 6.38823 -2.73734 0
M  V30 1868 H 177.881 4.4086 -1.57353 0
M  V30 1869 H 178.054 6.01334 -2.41457 0
M  V30 1870 N 171.46 0.379036 1.52974 0
M  V30 1871 C 172.876 0.0285448 1.59574 0
M  V30 1872 C 173.076 -1.45542 1.39355 0
M  V30 1873 O 172.132 -2.2187 1.20541 0
M  V30 1874 C 173.445 0.496535 2.96572 0
M  V30 1875 C 174.993 0.451909 3.0972 0
M  V30 1876 C 175.468 0.895924 4.49152 0
M  V30 1877 N 176.959 0.851522 4.55306 0
M  V30 1878 C 177.694 1.16661 5.61407 0
M  V30 1879 N 177.19 1.55166 6.752 0
M  V30 1880 N 178.983 1.08853 5.51459 0
M  V30 1881 H 171.134 1.34525 1.64367 0
M  V30 1882 H 173.397 0.550733 0.771619 0
M  V30 1883 H 173.103 1.53258 3.16552 0
M  V30 1884 H 172.977 -0.109802 3.7704 0
M  V30 1885 H 175.364 -0.575029 2.89443 0
M  V30 1886 H 175.445 1.09392 2.3123 0
M  V30 1887 H 175.089 1.92104 4.70168 0
M  V30 1888 H 175.019 0.23103 5.26093 0
M  V30 1889 H 177.51 0.568038 3.73606 0
M  V30 1890 H 177.823 1.776 7.52116 0
M  V30 1891 H 176.168 1.59044 6.76557 0
M  V30 1892 H 179.359 0.786803 4.6144 0
M  V30 1893 H 179.532 1.33742 6.34048 0
M  V30 1894 N 172.938 -1.57226 0.108567 0
M  V30 1895 C 174.185 -1.94833 -0.551943 0
M  V30 1896 C 174.513 -0.991204 -1.67348 0
M  V30 1897 O 173.768 -0.0131878 -1.95696 0
M  V30 1898 C 174.067 -3.38911 -1.13463 0
M  V30 1899 C 173.733 -4.50696 -0.135509 0
M  V30 1900 C 172.395 -4.80998 0.139252 0
M  V30 1901 C 174.747 -5.18333 0.545957 0
M  V30 1902 C 172.075 -5.76259 1.10194 0
M  V30 1903 C 174.427 -6.14627 1.49721 0
M  V30 1904 C 173.091 -6.43327 1.78006 0
M  V30 1905 H 172.361 -0.712944 -0.20197 0
M  V30 1906 H 175.008 -1.90582 0.18726 0
M  V30 1907 H 173.313 -3.39805 -1.95037 0
M  V30 1908 H 175.01 -3.65317 -1.65362 0
M  V30 1909 H 171.6 -4.27087 -0.359846 0
M  V30 1910 H 175.784 -4.95087 0.346842 0
M  V30 1911 H 171.04 -5.96804 1.32795 0
M  V30 1912 H 175.214 -6.66126 2.03099 0
M  V30 1913 H 172.841 -7.1695 2.52759 0
M  V30 1914 N 174.416 0.165178 -1.56732 0
M  V30 1915 C 175.646 0.894919 -1.86212 0
M  V30 1916 C 176.054 1.76066 -0.692627 0
M  V30 1917 O 175.397 1.80387 0.347303 0
M  V30 1918 C 175.459 1.8174 -3.10179 0
M  V30 1919 C 175.123 1.13064 -4.42793 0
M  V30 1920 C 176.12 0.493169 -5.17556 0
M  V30 1921 C 173.805 1.12556 -4.89527 0
M  V30 1922 C 175.799 -0.140209 -6.37246 0
M  V30 1923 C 173.486 0.488366 -6.09145 0
M  V30 1924 C 174.484 -0.143411 -6.82849 0
M  V30 1925 O 174.172 -0.77055 -8.00199 0
M  V30 1926 H 173.904 0.265114 -0.621844 0
M  V30 1927 H 176.458 0.168242 -2.0471 0
M  V30 1928 H 174.688 2.58455 -2.87642 0
M  V30 1929 H 176.377 2.4175 -3.26055 0
M  V30 1930 H 177.143 0.489023 -4.82528 0
M  V30 1931 H 173.022 1.60672 -4.32094 0
M  V30 1932 H 176.566 -0.633932 -6.94714 0
M  V30 1933 H 172.463 0.490116 -6.43637 0
M  V30 1934 H 173.231 -0.670408 -8.1575 0
M  V30 1935 N 175.894 1.51508 0.433938 0
M  V30 1936 C 176.841 1.73068 1.52696 0
M  V30 1937 C 177.811 0.572441 1.55924 0
M  V30 1938 O 178.996 0.807253 1.72882 0
M  V30 1939 C 176.136 1.86474 2.90381 0
M  V30 1940 C 175.249 3.14037 2.96656 0
M  V30 1941 C 174.384 3.18019 4.25485 0
M  V30 1942 C 173.423 4.39882 4.2564 0
M  V30 1943 N 172.56 4.41394 5.45999 0
M  V30 1944 H 177.4 2.66366 1.33615 0
M  V30 1945 H 174.937 1.32008 0.649018 0
M  V30 1946 H 176.895 1.92229 3.70275 0
M  V30 1947 H 175.525 0.965809 3.08013 0
M  V30 1948 H 174.577 3.17575 2.09404 0
M  V30 1949 H 175.889 4.0394 2.92633 0
M  V30 1950 H 175.043 3.22708 5.13755 0
M  V30 1951 H 173.782 2.2601 4.3217 0
M  V30 1952 H 172.787 4.35366 3.35763 0
M  V30 1953 H 174.012 5.33159 4.20617 0
M  V30 1954 H 171.958 3.52258 5.53399 0
M  V30 1955 H 171.875 5.25111 5.4387 0
M  V30 1956 H 173.143 4.50281 6.36292 0
M  V30 1957 N 177.372 -0.689602 1.41712 0
M  V30 1958 C 178.32 -1.82475 1.44242 0
M  V30 1959 C 179.314 -1.66354 0.319774 0
M  V30 1960 O 180.52 -1.73143 0.492089 0
M  V30 1961 H 176.895 -0.601416 0.451445 0
M  V30 1962 H 178.866 -1.77458 2.39899 0
M  V30 1963 C 177.615 -3.20535 1.3473 0
M  V30 1964 H 176.938 -3.33559 2.20405 0
M  V30 1965 H 178.378 -4.00023 1.40562 0
M  V30 1966 C 176.837 -3.36846 0.0603281 0
M  V30 1967 O 177.367 -3.91656 -0.892663 0
M  V30 1968 N 175.573 -2.90595 -0.0177039 0
M  V30 1969 H 175.12 -2.46178 0.758572 0
M  V30 1970 H 175.078 -3.01886 -0.878201 0
M  V30 1971 N 178.85 -1.27639 -0.924453 0
M  V30 1972 C 180.096 -1.15345 -1.67532 0
M  V30 1973 C 180.451 0.297096 -1.90092 0
M  V30 1974 O 179.744 1.21374 -1.48253 0
M  V30 1975 C 179.938 -1.87407 -3.04325 0
M  V30 1976 C 179.767 -3.3932 -2.95114 0
M  V30 1977 C 178.537 -4.08644 -2.97218 0
M  V30 1978 C 180.735 -4.35242 -2.73987 0
M  V30 1979 N 178.717 -5.47102 -2.78482 0
M  V30 1980 C 180.088 -5.6099 -2.63988 0
M  V30 1981 C 182.143 -4.25294 -2.589 0
M  V30 1982 C 180.846 -6.77924 -2.40442 0
M  V30 1983 C 182.872 -5.41952 -2.36731 0
M  V30 1984 C 182.234 -6.66658 -2.27478 0
M  V30 1985 H 178.333 -0.47696 -0.619704 0
M  V30 1986 H 180.917 -1.6115 -1.09265 0
M  V30 1987 H 179.088 -1.44053 -3.60699 0
M  V30 1988 H 180.82 -1.6759 -3.68369 0
M  V30 1989 H 177.575 -3.60136 -3.07569 0
M  V30 1990 H 177.999 -6.19852 -2.72236 0
M  V30 1991 H 182.641 -3.29598 -2.64811 0
M  V30 1992 H 180.359 -7.73699 -2.3327 0
M  V30 1993 H 183.945 -5.36137 -2.25938 0
M  V30 1994 H 182.825 -7.55405 -2.10555 0
M  V30 1995 N 180.328 1.1314 -1.09713 0
M  V30 1996 C 181.278 2.16709 -0.708593 0
M  V30 1997 C 182.262 1.58471 0.278523 0
M  V30 1998 O 183.454 1.76779 0.088427 0
M  V30 1999 C 180.583 3.43039 -0.133923 0
M  V30 2000 C 179.669 4.08277 -1.14763 0
M  V30 2001 N 180.06 4.48637 -2.33577 0
M  V30 2002 C 178.358 4.34954 -0.986446 0
M  V30 2003 C 179.059 4.9952 -2.98085 0
M  V30 2004 N 178.035 4.94561 -2.25632 0
M  V30 2005 H 181.837 2.45672 -1.61315 0
M  V30 2006 H 179.351 1.29967 -0.973775 0
M  V30 2007 H 181.348 4.16583 0.162465 0
M  V30 2008 H 180.008 3.15549 0.765447 0
M  V30 2009 H 181.019 4.41246 -2.7115 0
M  V30 2010 H 177.696 4.17258 -0.142008 0
M  V30 2011 H 179.086 5.40521 -3.99108 0
M  V30 2012 N 181.806 0.884767 1.30421 0
M  V30 2013 C 182.753 0.349642 2.28136 0
M  V30 2014 C 183.723 -0.560061 1.56373 0
M  V30 2015 O 184.908 -0.488524 1.8444 0
M  V30 2016 C 182.048 -0.42999 3.42411 0
M  V30 2017 C 181.161 0.508907 4.28992 0
M  V30 2018 C 180.296 -0.286301 5.30428 0
M  V30 2019 C 179.335 0.648079 6.08659 0
M  V30 2020 N 178.472 -0.111792 7.02011 0
M  V30 2021 H 183.312 1.18807 2.73293 0
M  V30 2022 H 180.849 0.597231 1.3443 0
M  V30 2023 H 182.807 -0.897923 4.07423 0
M  V30 2024 H 181.437 -1.23299 2.98324 0
M  V30 2025 H 180.489 1.09533 3.64289 0
M  V30 2026 H 181.801 1.22475 4.8353 0
M  V30 2027 H 180.955 -0.816098 6.01186 0
M  V30 2028 H 179.694 -1.03536 4.76583 0
M  V30 2029 H 178.699 1.18951 5.36778 0
M  V30 2030 H 179.924 1.39623 6.64592 0
M  V30 2031 H 177.87 -0.843395 6.50556 0
M  V30 2032 H 177.787 0.544429 7.54037 0
M  V30 2033 H 179.055 -0.622339 7.77012 0
M  V30 2034 N 183.284 -1.43765 0.645699 0
M  V30 2035 C 184.509 -2.06767 0.161883 0
M  V30 2036 C 184.934 -1.48034 -1.16049 0
M  V30 2037 O 184.292 -0.587369 -1.71522 0
M  V30 2038 C 184.34 -3.60519 0.0762003 0
M  V30 2039 O 183.444 -4.00982 -0.963721 0
M  V30 2040 H 182.785 -0.657675 0.091429 0
M  V30 2041 H 185.315 -1.84397 0.886499 0
M  V30 2042 H 185.325 -4.07853 -0.109604 0
M  V30 2043 H 184 -4.02646 1.04157 0
M  V30 2044 H 182.577 -3.65253 -0.751312 0
M  V30 2045 N 184.763 -0.387143 -1.52771 0
M  V30 2046 C 185.71 0.449048 -2.26389 0
M  V30 2047 C 186.68 1.05961 -1.27912 0
M  V30 2048 O 187.865 1.08804 -1.56737 0
M  V30 2049 C 185.005 1.57155 -3.0724 0
M  V30 2050 C 184.118 0.984066 -4.20643 0
M  V30 2051 C 183.253 2.07745 -4.88892 0
M  V30 2052 C 182.292 1.46574 -5.94292 0
M  V30 2053 N 181.429 2.49834 -6.56146 0
M  V30 2054 H 186.269 -0.185205 -2.97424 0
M  V30 2055 H 183.806 -0.103164 -1.46738 0
M  V30 2056 H 185.764 2.23309 -3.52405 0
M  V30 2057 H 184.394 2.17615 -2.38419 0
M  V30 2058 H 183.446 0.212193 -3.79808 0
M  V30 2059 H 184.758 0.497029 -4.96318 0
M  V30 2060 H 183.912 2.81673 -5.3735 0
M  V30 2061 H 182.651 2.59807 -4.12737 0
M  V30 2062 H 181.656 0.711696 -5.45174 0
M  V30 2063 H 182.881 0.953088 -6.72379 0
M  V30 2064 H 180.827 3.0107 -5.82832 0
M  V30 2065 H 180.744 2.05879 -7.27427 0
M  V30 2066 H 182.012 3.23399 -7.09249 0
M  V30 2067 N 186.241 1.57166 -0.116904 0
M  V30 2068 C 187.188 2.15202 0.83408 0
M  V30 2069 C 188.158 1.07644 1.26499 0
M  V30 2070 O 189.343 1.35541 1.34288 0
M  V30 2071 C 186.483 2.75405 2.07957 0
M  V30 2072 C 185.596 3.97264 1.69721 0
M  V30 2073 C 184.731 4.45561 2.89221 0
M  V30 2074 C 183.77 5.59956 2.47215 0
M  V30 2075 N 182.907 6.03006 3.59622 0
M  V30 2076 H 187.747 2.96141 0.332335 0
M  V30 2077 H 185.284 1.46309 0.152349 0
M  V30 2078 H 187.242 3.08439 2.80929 0
M  V30 2079 H 185.872 1.97159 2.55594 0
M  V30 2080 H 184.924 3.70404 0.866316 0
M  V30 2081 H 186.236 4.80226 1.34849 0
M  V30 2082 H 185.39 4.80493 3.7042 0
M  V30 2083 H 184.129 3.61544 3.27318 0
M  V30 2084 H 183.134 5.2463 1.64448 0
M  V30 2085 H 184.359 6.45738 2.10238 0
M  V30 2086 H 182.305 5.21931 3.97396 0
M  V30 2087 H 182.222 6.80819 3.28667 0
M  V30 2088 H 183.49 6.42576 4.41267 0
M  V30 2089 N 187.719 -0.156864 1.56817 0
M  V30 2090 C 188.666 -1.19394 1.97519 0
M  V30 2091 C 189.636 -1.4322 0.841265 0
M  V30 2092 O 190.821 -1.55719 1.10255 0
M  V30 2093 C 187.961 -2.52483 2.35258 0
M  V30 2094 C 187.074 -2.35914 3.61896 0
M  V30 2095 C 186.209 -3.61969 3.88782 0
M  V30 2096 C 185.248 -3.40395 5.08722 0
M  V30 2097 N 184.385 -4.58556 5.31668 0
M  V30 2098 H 189.225 -0.839845 2.85921 0
M  V30 2099 H 186.762 -0.403264 1.41464 0
M  V30 2100 H 188.72 -3.30071 2.55165 0
M  V30 2101 H 187.35 -2.85859 1.49949 0
M  V30 2102 H 186.402 -1.49429 3.49821 0
M  V30 2103 H 187.714 -2.15926 4.49641 0
M  V30 2104 H 186.868 -4.47989 4.09135 0
M  V30 2105 H 185.607 -3.84951 2.9944 0
M  V30 2106 H 184.612 -2.52763 4.88253 0
M  V30 2107 H 185.837 -3.18822 5.99608 0
M  V30 2108 H 183.783 -4.81729 4.45279 0
M  V30 2109 H 183.7 -4.41535 6.13664 0
M  V30 2110 H 184.968 -5.45817 5.5651 0
M  V30 2111 N 189.197 -1.51736 -0.425897 0
M  V30 2112 C 190.16 -1.73271 -1.50032 0
M  V30 2113 C 191.16 -0.602639 -1.4908 0
M  V30 2114 O 192.35 -0.87033 -1.509 0
M  V30 2115 C 189.482 -1.79969 -2.89523 0
M  V30 2116 H 190.675 -2.69172 -1.32237 0
M  V30 2117 H 188.228 -1.41899 -0.65532 0
M  V30 2118 H 188.963 -0.859241 -3.1271 0
M  V30 2119 H 188.748 -2.62109 -2.91619 0
M  V30 2120 H 190.238 -1.9843 -3.67444 0
M  V30 2121 N 190.675 0.682077 -1.42076 0
M  V30 2122 C 191.922 1.44215 -1.42156 0
M  V30 2123 C 192.25 1.94468 -0.0354186 0
M  V30 2124 O 191.505 1.70816 0.955002 0
M  V30 2125 C 191.804 2.66036 -2.38662 0
M  V30 2126 C 191.47 2.34366 -3.85206 0
M  V30 2127 C 190.132 2.25439 -4.25124 0
M  V30 2128 C 192.484 2.08513 -4.77673 0
M  V30 2129 C 189.812 1.88775 -5.55501 0
M  V30 2130 C 192.164 1.73354 -6.08384 0
M  V30 2131 C 190.828 1.62933 -6.47309 0
M  V30 2132 H 190.098 0.527718 -0.520187 0
M  V30 2133 H 192.745 0.778387 -1.74967 0
M  V30 2134 H 191.05 3.3741 -1.99152 0
M  V30 2135 H 192.747 3.24205 -2.35991 0
M  V30 2136 H 189.337 2.42213 -3.53597 0
M  V30 2137 H 193.521 2.14346 -4.47626 0
M  V30 2138 H 188.777 1.7927 -5.84527 0
M  V30 2139 H 192.951 1.52373 -6.79526 0
M  V30 2140 H 190.578 1.34292 -7.48244 0
M  V30 2141 N 192.153 1.28127 0.917671 0
M  V30 2142 C 193.381 1.17892 1.70026 0
M  V30 2143 C 193.796 -0.262958 1.8696 0
M  V30 2144 O 193.153 -1.17811 1.3938 0
M  V30 2145 C 193.204 1.86872 3.09453 0
M  V30 2146 O 192.925 3.25428 2.93306 0
M  V30 2147 C 194.426 1.8289 4.03815 0
M  V30 2148 H 191.646 0.40942 0.531617 0
M  V30 2149 H 194.19 1.69181 1.14883 0
M  V30 2150 H 192.345 1.39464 3.61426 0
M  V30 2151 H 192.759 3.59918 3.81523 0
M  V30 2152 H 194.233 2.35751 4.99125 0
M  V30 2153 H 194.71 0.800412 4.31845 0
M  V30 2154 H 195.316 2.29959 3.57769 0
M  V30 2155 N 193.631 -1.12557 1.10312 0
M  V30 2156 C 194.578 -2.18247 0.750781 0
M  V30 2157 C 195.548 -1.63853 -0.272293 0
M  V30 2158 O 196.733 -1.90195 -0.151862 0
M  V30 2159 C 193.873 -3.44591 0.187379 0
M  V30 2160 C 192.986 -4.13046 1.2656 0
M  V30 2161 C 192.121 -5.27034 0.663978 0
M  V30 2162 C 191.16 -5.87353 1.72287 0
M  V30 2163 N 190.297 -6.92757 1.1416 0
M  V30 2164 H 195.137 -2.47732 1.65628 0
M  V30 2165 H 192.674 -1.21629 0.827337 0
M  V30 2166 H 194.632 -4.16904 -0.157148 0
M  V30 2167 H 193.262 -3.15527 -0.681355 0
M  V30 2168 H 192.314 -3.38924 1.72727 0
M  V30 2169 H 193.626 -4.53947 2.06721 0
M  V30 2170 H 192.78 -6.06104 0.268824 0
M  V30 2171 H 191.519 -4.87407 -0.169082 0
M  V30 2172 H 190.524 -5.06971 2.12746 0
M  V30 2173 H 191.749 -6.29051 2.55875 0
M  V30 2174 H 189.695 -6.5517 0.329984 0
M  V30 2175 H 189.612 -7.3225 1.88007 0
M  V30 2176 H 190.88 -7.75658 0.772956 0
M  V30 2177 N 195.109 -0.891671 -1.2995 0
M  V30 2178 C 196.339 -0.527893 -1.99742 0
M  V30 2179 C 196.747 0.88979 -1.66971 0
M  V30 2180 O 196.09 1.59766 -0.906667 0
M  V30 2181 C 196.152 -0.630804 -3.53922 0
M  V30 2182 C 195.816 -2.01401 -4.10228 0
M  V30 2183 C 196.813 -2.98422 -4.25724 0
M  V30 2184 C 194.498 -2.32121 -4.45449 0
M  V30 2185 C 196.492 -4.24293 -4.75662 0
M  V30 2186 C 194.179 -3.58237 -4.95086 0
M  V30 2187 C 195.177 -4.54137 -5.10146 0
M  V30 2188 O 194.865 -5.78014 -5.58708 0
M  V30 2189 H 194.597 -0.201953 -0.645129 0
M  V30 2190 H 197.151 -1.20076 -1.66646 0
M  V30 2191 H 195.381 0.0990616 -3.86573 0
M  V30 2192 H 197.07 -0.277338 -4.04951 0
M  V30 2193 H 197.836 -2.76001 -3.98809 0
M  V30 2194 H 193.715 -1.5824 -4.32991 0
M  V30 2195 H 197.259 -4.99153 -4.87332 0
M  V30 2196 H 193.156 -3.80491 -5.21437 0
M  V30 2197 H 193.924 -5.8049 -5.77039 0
M  V30 2198 N 196.587 1.43421 -0.653314 0
M  V30 2199 C 197.827 2.03689 -0.170346 0
M  V30 2200 C 198.191 1.50427 1.19314 0
M  V30 2201 O 199.392 2.0234 1.76952 0
M  V30 2202 C 197.663 3.56946 -0.180183 0
M  V30 2203 S 199.222 4.38171 0.234925 0
M  V30 2204 H 196.04 0.707345 -0.0719976 0
M  V30 2205 H 198.642 1.75486 -0.86167 0
M  V30 2206 H 197.346 3.93212 -1.17526 0
M  V30 2207 H 196.877 3.89791 0.531675 0
M  V30 2208 H 198.892 4.73808 1.47378 0
M  V30 2209 N 198.065 0.39524 1.52563 0
M  V30 2210 C 199.012 -0.437036 2.26624 0
M  V30 2211 C 199.982 -1.05281 1.28472 0
M  V30 2212 O 201.167 -1.07971 1.57311 0
M  V30 2213 C 198.307 -1.55524 3.08069 0
M  V30 2214 C 197.42 -0.961745 4.21158 0
M  V30 2215 C 196.555 -2.05149 4.89987 0
M  V30 2216 C 195.594 -1.4342 5.95061 0
M  V30 2217 N 194.731 -2.46351 6.57462 0
M  V30 2218 H 199.571 0.200976 2.97322 0
M  V30 2219 H 197.108 0.110944 1.46681 0
M  V30 2220 H 199.066 -2.21437 3.53584 0
M  V30 2221 H 197.696 -2.16348 2.3957 0
M  V30 2222 H 196.748 -0.192048 3.79915 0
M  V30 2223 H 198.06 -0.470701 4.96574 0
M  V30 2224 H 197.214 -2.78819 5.38837 0
M  V30 2225 H 195.953 -2.57615 4.14109 0
M  V30 2226 H 194.958 -0.682774 5.45544 0
M  V30 2227 H 196.183 -0.917416 6.72875 0
M  V30 2228 H 194.129 -2.97975 5.8442 0
M  V30 2229 H 194.046 -2.02019 7.28508 0
M  V30 2230 H 195.314 -3.19633 7.10954 0
M  V30 2231 N 199.544 -1.57102 0.125237 0
M  V30 2232 C 200.491 -2.15641 -0.822655 0
M  V30 2233 C 201.461 -1.08313 -1.25927 0
M  V30 2234 O 202.646 -1.36251 -1.33567 0
M  V30 2235 C 199.786 -2.76504 -2.06494 0
M  V30 2236 C 198.899 -3.98158 -1.67612 0
M  V30 2237 C 198.034 -4.47088 -2.86854 0
M  V30 2238 C 197.073 -5.6126 -2.44242 0
M  V30 2239 N 196.21 -6.04905 -3.56419 0
M  V30 2240 H 201.05 -2.96313 -0.316625 0
M  V30 2241 H 198.587 -1.46388 -0.144588 0
M  V30 2242 H 200.545 -3.09925 -2.79289 0
M  V30 2243 H 199.175 -1.98512 -2.54545 0
M  V30 2244 H 198.227 -3.70858 -0.846661 0
M  V30 2245 H 199.539 -4.80934 -1.32301 0
M  V30 2246 H 198.693 -4.82451 -3.67867 0
M  V30 2247 H 197.432 -3.63275 -3.25396 0
M  V30 2248 H 196.437 -5.25495 -1.61663 0
M  V30 2249 H 197.662 -6.46843 -2.0681 0
M  V30 2250 H 195.608 -5.24032 -3.94623 0
M  V30 2251 H 195.525 -6.82552 -3.25051 0
M  V30 2252 H 196.793 -6.44907 -4.37853 0
M  V30 2253 N 201.022 0.148545 -1.56898 0
M  V30 2254 C 202.268 0.857877 -1.84424 0
M  V30 2255 C 202.623 1.7886 -0.709006 0
M  V30 2256 O 201.916 1.89344 0.293139 0
M  V30 2257 C 202.11 1.67064 -3.1595 0
M  V30 2258 C 201.939 0.82011 -4.42159 0
M  V30 2259 C 200.709 0.486328 -5.02954 0
M  V30 2260 C 202.907 0.151155 -5.14078 0
M  V30 2261 N 200.889 -0.377956 -6.12735 0
M  V30 2262 C 202.26 -0.573333 -6.17343 0
M  V30 2263 C 204.315 0.0716685 -4.97848 0
M  V30 2264 C 203.018 -1.3698 -7.06137 0
M  V30 2265 C 205.044 -0.711532 -5.87104 0
M  V30 2266 C 204.406 -1.42431 -6.8985 0
M  V30 2267 H 200.505 0.291798 -0.725519 0
M  V30 2268 H 203.089 0.123347 -1.94309 0
M  V30 2269 H 201.26 2.37642 -3.07215 0
M  V30 2270 H 202.992 2.32302 -3.31388 0
M  V30 2271 H 199.747 0.821753 -4.66416 0
M  V30 2272 H 200.171 -0.801077 -6.72244 0
M  V30 2273 H 204.813 0.608381 -4.184 0
M  V30 2274 H 202.531 -1.91778 -7.85014 0
M  V30 2275 H 206.117 -0.775005 -5.76615 0
M  V30 2276 H 204.997 -2.02061 -7.57721 0
M  V30 2277 N 202.5 1.5196 0.417844 0
M  V30 2278 C 203.432 1.70895 1.52733 0
M  V30 2279 C 204.445 0.589405 1.51756 0
M  V30 2280 O 205.634 0.864312 1.56179 0
M  V30 2281 C 202.734 1.72627 2.91639 0
M  V30 2282 C 201.907 3.01479 3.16905 0
M  V30 2283 C 200.966 2.95139 4.35637 0
M  V30 2284 O 199.992 3.69059 4.3334 0
M  V30 2285 N 201.194 2.12328 5.40275 0
M  V30 2286 H 203.959 2.66612 1.36888 0
M  V30 2287 H 201.52 1.50089 0.607037 0
M  V30 2288 H 203.512 1.65928 3.6912 0
M  V30 2289 H 202.082 0.844216 3.00985 0
M  V30 2290 H 201.302 3.21895 2.27546 0
M  V30 2291 H 202.59 3.86736 3.30625 0
M  V30 2292 H 201.988 1.51685 5.44985 0
M  V30 2293 H 200.545 2.11494 6.16534 0
M  V30 2294 N 203.978 -0.674533 1.42435 0
M  V30 2295 C 205.255 -1.4305 1.33402 0
M  V30 2296 C 205.635 -2.11081 -0.0284674 0
M  V30 2297 O 204.983 -2.03257 -1.04397 0
M  V30 2298 C 205.193 -2.43272 2.50239 0
M  V30 2299 C 206.541 -3.07907 2.92367 0
M  V30 2300 O 207.565 -2.53599 2.50132 0
M  V30 2301 O 206.424 -4.0632 3.65467 0
M  V30 2302 H 203.518 -0.638076 0.526106 0
M  V30 2303 H 206.064 -0.703235 1.54443 0
M  V30 2304 H 204.836 -1.91803 3.41068 0
M  V30 2305 H 204.459 -3.23479 2.31186 0
M  V30 2306 N 205.456 -1.28612 -0.910864 0
M  V30 2307 C 206.366 -1.14643 -2.0468 0
M  V30 2308 C 207.382 -0.0723121 -1.7385 0
M  V30 2309 O 208.558 -0.282178 -1.99413 0
M  V30 2310 C 205.623 -0.812561 -3.37044 0
M  V30 2311 C 204.684 -1.96935 -3.81465 0
M  V30 2312 C 203.917 -1.65131 -5.07511 0
M  V30 2313 O 204.14 -0.567013 -5.67575 0
M  V30 2314 O 203.074 -2.49585 -5.47714 0
M  V30 2315 H 206.9 -2.1001 -2.19384 0
M  V30 2316 H 204.485 -1.07958 -1.03274 0
M  V30 2317 H 206.367 -0.640441 -4.16505 0
M  V30 2318 H 205.042 0.111426 -3.23508 0
M  V30 2319 H 203.949 -2.19664 -3.02818 0
M  V30 2320 H 205.282 -2.87414 -3.99567 0
M  V30 2321 N 206.934 1.1197 -1.10907 0
M  V30 2322 C 208.211 1.79959 -0.766432 0
M  V30 2323 C 208.591 1.97466 0.746363 0
M  V30 2324 O 207.939 1.55491 1.67436 0
M  V30 2325 C 208.149 3.14009 -1.52314 0
M  V30 2326 C 209.497 3.89134 -1.69883 0
M  V30 2327 O 210.521 3.2368 -1.48692 0
M  V30 2328 O 209.38 5.06572 -2.05054 0
M  V30 2329 H 206.474 0.779208 -0.277062 0
M  V30 2330 H 209.02 1.18762 -1.21217 0
M  V30 2331 H 207.792 2.96587 -2.55249 0
M  V30 2332 H 207.415 3.82915 -1.07059 0
M  V30 2333 N 208.412 0.89855 1.29475 0
M  V30 2334 C 209.66 0.522847 1.9522 0
M  V30 2335 C 209.981 -0.93371 1.71192 0
M  V30 2336 O 209.251 -1.65823 1.04305 0
M  V30 2337 H 207.831 0.190366 0.722336 0
M  V30 2338 H 210.493 1.14459 1.5775 0
M  V30 2339 H 209.589 0.704476 3.04045 0
M  V30 2340 N 209.89 -1.43072 0.660911 0
M  V30 2341 C 210.837 -2.30785 -0.0259884 0
M  V30 2342 C 211.807 -1.45184 -0.806888 0
M  V30 2343 O 212.992 -1.74041 -0.781943 0
M  V30 2344 C 210.132 -3.30861 -0.981067 0
M  V30 2345 C 209.245 -4.31558 -0.195458 0
M  V30 2346 C 208.38 -5.18712 -1.14503 0
M  V30 2347 C 207.419 -6.11097 -0.350299 0
M  V30 2348 N 206.556 -6.90849 -1.25186 0
M  V30 2349 H 211.396 -2.88975 0.727846 0
M  V30 2350 H 208.933 -1.42353 0.370682 0
M  V30 2351 H 210.891 -3.87399 -1.54849 0
M  V30 2352 H 209.521 -2.74304 -1.70169 0
M  V30 2353 H 208.573 -3.77252 0.488374 0
M  V30 2354 H 209.885 -4.9701 0.422176 0
M  V30 2355 H 209.039 -5.79914 -1.78284 0
M  V30 2356 H 207.778 -4.53404 -1.79656 0
M  V30 2357 H 206.783 -5.48976 0.300808 0
M  V30 2358 H 208.008 -6.7845 0.296941 0
M  V30 2359 H 205.954 -6.28182 -1.89005 0
M  V30 2360 H 205.871 -7.52854 -0.688971 0
M  V30 2361 H 207.139 -7.5655 -1.87757 0
M  V30 2362 N 211.368 -0.403325 -1.52352 0
M  V30 2363 C 212.315 0.425011 -2.26853 0
M  V30 2364 C 213.285 1.04598 -1.29029 0
M  V30 2365 O 214.47 1.07135 -1.57882 0
M  V30 2366 C 211.61 1.53888 -3.08889 0
M  V30 2367 C 210.723 0.939396 -4.21663 0
M  V30 2368 C 209.858 2.02547 -4.91068 0
M  V30 2369 C 208.897 1.40263 -5.95813 0
M  V30 2370 N 208.034 2.4286 -6.58759 0
M  V30 2371 H 212.874 -0.21674 -2.97211 0
M  V30 2372 H 210.411 -0.118722 -1.4662 0
M  V30 2373 H 212.369 2.19558 -3.54753 0
M  V30 2374 H 210.999 2.15074 -2.40714 0
M  V30 2375 H 210.051 0.171898 -3.80011 0
M  V30 2376 H 211.363 0.44436 -4.96817 0
M  V30 2377 H 210.517 2.75958 -5.40308 0
M  V30 2378 H 209.256 2.55415 -4.15469 0
M  V30 2379 H 208.261 0.653833 -5.45898 0
M  V30 2380 H 209.486 0.881719 -6.73352 0
M  V30 2381 H 207.432 2.94871 -5.85992 0
M  V30 2382 H 207.349 1.98152 -7.2957 0
M  V30 2383 H 208.617 3.15858 -7.12639 0
M  V30 2384 N 212.846 1.57033 -0.133567 0
M  V30 2385 C 213.778 2.13176 0.841944 0
M  V30 2386 C 214.791 1.07794 1.22001 0
M  V30 2387 O 215.98 1.35117 1.16643 0
M  V30 2388 C 213.08 2.62847 2.13926 0
M  V30 2389 C 212.253 3.92486 1.93064 0
M  V30 2390 C 211.312 4.27605 3.0666 0
M  V30 2391 O 210.338 4.96168 2.78937 0
M  V30 2392 N 211.54 3.861 4.33483 0
M  V30 2393 H 214.305 2.97503 0.362192 0
M  V30 2394 H 211.866 1.61821 0.05042 0
M  V30 2395 H 213.858 2.83363 2.88942 0
M  V30 2396 H 212.428 1.83319 2.53205 0
M  V30 2397 H 211.648 3.80732 1.02159 0
M  V30 2398 H 212.936 4.77225 1.76447 0
M  V30 2399 H 212.334 3.30828 4.58878 0
M  V30 2400 H 210.891 4.11694 5.05323 0
M  V30 2401 N 214.325 -0.140222 1.56975 0
M  V30 2402 C 215.255 -1.17456 2.01808 0
M  V30 2403 C 216.236 -1.44415 0.898794 0
M  V30 2404 O 217.421 -1.5522 1.16707 0
M  V30 2405 C 214.551 -2.50607 2.40444 0
M  V30 2406 C 213.505 -2.38155 3.55621 0
M  V30 2407 C 212.831 -3.76078 3.80091 0
M  V30 2408 C 214.131 -1.85991 4.88062 0
M  V30 2409 H 215.825 -0.801743 2.88466 0
M  V30 2410 H 213.371 -0.38422 1.38779 0
M  V30 2411 H 215.324 -3.23197 2.7041 0
M  V30 2412 H 214.048 -2.89737 1.50732 0
M  V30 2413 H 212.707 -1.68016 3.25832 0
M  V30 2414 H 212.355 -4.12656 2.87618 0
M  V30 2415 H 212.055 -3.68606 4.57606 0
M  V30 2416 H 213.579 -4.50206 4.12488 0
M  V30 2417 H 214.993 -2.4838 5.16701 0
M  V30 2418 H 213.39 -1.89393 5.6943 0
M  V30 2419 H 214.46 -0.816023 4.77984 0
M  V30 2420 N 215.803 -1.52179 -0.40978 0
M  V30 2421 C 216.713 -1.78364 -1.52392 0
M  V30 2422 C 217.729 -0.669183 -1.60617 0
M  V30 2423 O 218.905 -0.954518 -1.77344 0
M  V30 2424 C 215.97 -1.92822 -2.88133 0
M  V30 2425 C 215.031 -3.16725 -2.898 0
M  V30 2426 C 214.264 -3.30483 -4.19067 0
M  V30 2427 O 214.487 -2.49522 -5.12928 0
M  V30 2428 O 213.421 -4.2363 -4.27576 0
M  V30 2429 H 217.247 -2.72931 -1.33201 0
M  V30 2430 H 214.832 -1.37016 -0.59557 0
M  V30 2431 H 216.714 -2.04157 -3.68643 0
M  V30 2432 H 215.389 -1.01444 -3.07393 0
M  V30 2433 H 214.296 -3.10848 -2.08146 0
M  V30 2434 H 215.629 -4.07881 -2.75489 0
M  V30 2435 N 217.281 0.66697 -1.42791 0
M  V30 2436 C 218.228 1.7803 -1.4688 0
M  V30 2437 C 219.198 1.6299 -0.319919 0
M  V30 2438 O 220.383 1.83432 -0.525118 0
M  V30 2439 C 217.523 3.1611 -1.38451 0
M  V30 2440 C 216.636 3.42381 -2.63437 0
M  V30 2441 C 215.771 4.70232 -2.47094 0
M  V30 2442 C 214.81 4.89564 -3.67415 0
M  V30 2443 N 213.947 6.08661 -3.49966 0
M  V30 2444 H 218.787 1.7387 -2.42019 0
M  V30 2445 H 216.324 0.84868 -1.20149 0
M  V30 2446 H 218.282 3.95914 -1.31561 0
M  V30 2447 H 216.912 3.19374 -0.469033 0
M  V30 2448 H 215.964 2.56774 -2.80662 0
M  V30 2449 H 217.276 3.52557 -3.52853 0
M  V30 2450 H 216.43 5.5814 -2.37834 0
M  V30 2451 H 215.169 4.62353 -1.5518 0
M  V30 2452 H 214.174 4.00096 -3.77099 0
M  V30 2453 H 215.399 4.99282 -4.6032 0
M  V30 2454 H 213.345 6.0194 -2.60776 0
M  V30 2455 H 213.262 6.19733 -4.32975 0
M  V30 2456 H 214.53 6.99226 -3.44532 0
M  V30 2457 N 218.759 1.29093 0.90403 0
M  V30 2458 C 220.036 1.075 1.63411 0
M  V30 2459 C 220.416 -0.382346 2.07609 0
M  V30 2460 O 219.764 -1.37031 1.82851 0
M  V30 2461 C 219.974 2.05858 2.81822 0
M  V30 2462 C 221.322 2.36539 3.52611 0
M  V30 2463 O 222.346 2.04019 2.91984 0
M  V30 2464 O 221.205 2.92085 4.61897 0
M  V30 2465 H 218.299 0.411547 0.717327 0
M  V30 2466 H 220.845 1.40449 0.952479 0
M  V30 2467 H 219.617 3.04037 2.46327 0
M  V30 2468 H 219.24 1.73613 3.57693 0
M  V30 2469 N 220.237 -1.11381 1.11499 0
M  V30 2470 C 221.484 -1.83132 0.864231 0
M  V30 2471 C 221.812 -1.84683 -0.610114 0
M  V30 2472 O 221.067 -1.29589 -1.46646 0
M  V30 2473 C 221.366 -3.30026 1.37177 0
M  V30 2474 C 221.032 -3.48634 2.85946 0
M  V30 2475 C 219.694 -3.53421 3.26569 0
M  V30 2476 C 222.046 -3.54837 3.81759 0
M  V30 2477 C 219.374 -3.61967 4.61733 0
M  V30 2478 C 221.726 -3.64915 5.1674 0
M  V30 2479 C 220.39 -3.67962 5.5692 0
M  V30 2480 H 219.66 -0.670127 0.316245 0
M  V30 2481 H 222.307 -1.31354 1.3935 0
M  V30 2482 H 220.612 -3.84304 0.762753 0
M  V30 2483 H 222.309 -3.84034 1.15408 0
M  V30 2484 H 218.899 -3.45579 2.53521 0
M  V30 2485 H 223.083 -3.50399 3.51474 0
M  V30 2486 H 218.339 -3.62603 4.92269 0
M  V30 2487 H 222.513 -3.68658 5.90816 0
M  V30 2488 H 220.14 -3.74336 6.61647 0
M  V30 2489 N 221.715 -0.905404 -1.28997 0
M  V30 2490 C 222.94 -0.549175 -1.99997 0
M  V30 2491 C 223.365 0.860276 -1.67275 0
M  V30 2492 O 222.723 1.57355 -0.900502 0
M  V30 2493 C 222.771 -0.755185 -3.52604 0
M  V30 2494 O 221.875 0.189692 -4.11964 0
M  V30 2495 H 221.216 -0.213899 -0.628604 0
M  V30 2496 H 223.746 -1.21856 -1.64354 0
M  V30 2497 H 223.756 -0.662045 -4.02593 0
M  V30 2498 H 222.431 -1.78271 -3.75755 0
M  V30 2499 H 221.008 0.0485257 -3.72868 0
M  V30 2500 N 223.193 1.4272 -0.668489 0
M  V30 2501 C 224.418 2.06484 -0.194758 0
M  V30 2502 C 224.843 1.49862 1.13679 0
M  V30 2503 O 224.201 0.614582 1.70565 0
M  V30 2504 C 224.249 3.60353 -0.133546 0
M  V30 2505 O 223.353 4.02464 0.899806 0
M  V30 2506 H 222.694 0.656137 -0.10188 0
M  V30 2507 H 225.224 1.82964 -0.915722 0
M  V30 2508 H 225.234 4.07976 0.0447041 0
M  V30 2509 H 223.909 4.00938 -1.1055 0
M  V30 2510 H 222.486 3.66402 0.693109 0
M  V30 2511 N 224.671 0.411399 1.52136 0
M  V30 2512 C 225.604 -0.457614 2.23565 0
M  V30 2513 C 226.582 -1.04613 1.24478 0
M  V30 2514 O 227.766 -1.09356 1.53536 0
M  V30 2515 C 224.893 -1.6354 2.96602 0
M  V30 2516 C 223.939 -1.17005 4.10137 0
M  V30 2517 S 224.772 -0.13333 5.35334 0
M  V30 2518 C 225.928 -1.31638 6.119 0
M  V30 2519 H 226.161 0.148883 2.96927 0
M  V30 2520 H 223.694 0.195713 1.53155 0
M  V30 2521 H 225.652 -2.31074 3.39286 0
M  V30 2522 H 224.313 -2.21324 2.22878 0
M  V30 2523 H 223.506 -2.05005 4.60422 0
M  V30 2524 H 223.108 -0.573319 3.6958 0
M  V30 2525 H 225.4 -2.23957 6.39413 0
M  V30 2526 H 226.343 -0.854014 7.02931 0
M  V30 2527 H 226.751 -1.54321 5.42997 0
M  V30 2528 N 226.149 -1.5696 0.141893 0
M  V30 2529 C 227.096 -2.16501 -0.799737 0
M  V30 2530 C 228.066 -1.09643 -1.24771 0
M  V30 2531 O 229.251 -1.3766 -1.32115 0
M  V30 2532 C 226.391 -2.78679 -2.03549 0
M  V30 2533 C 225.504 -3.99914 -1.6338 0
M  V30 2534 C 224.639 -4.50106 -2.82096 0
M  V30 2535 C 223.678 -5.63819 -2.38275 0
M  V30 2536 N 222.815 -6.08651 -3.49983 0
M  V30 2537 H 227.655 -2.96632 -0.285179 0
M  V30 2538 H 225.192 -1.46533 -0.129053 0
M  V30 2539 H 227.15 -3.1287 -2.75986 0
M  V30 2540 H 225.78 -2.012 -2.52425 0
M  V30 2541 H 224.832 -3.71735 -0.807279 0
M  V30 2542 H 226.144 -4.82311 -1.27192 0
M  V30 2543 H 225.298 -4.86325 -3.62729 0
M  V30 2544 H 224.037 -3.66706 -3.21525 0
M  V30 2545 H 223.042 -5.2718 -1.56081 0
M  V30 2546 H 224.267 -6.49 -1.99938 0
M  V30 2547 H 222.213 -5.28188 -3.89042 0
M  V30 2548 H 222.13 -6.85961 -3.17794 0
M  V30 2549 H 223.398 -6.49515 -4.30988 0
M  V30 2550 N 227.627 0.131896 -1.57047 0
M  V30 2551 C 228.574 1.16236 -1.99393 0
M  V30 2552 C 229.544 1.41863 -0.863943 0
M  V30 2553 O 230.729 1.53946 -1.12718 0
M  V30 2554 C 227.869 2.48708 -2.39245 0
M  V30 2555 C 226.982 2.30127 -3.65603 0
M  V30 2556 C 226.117 3.55738 -3.94492 0
M  V30 2557 C 225.156 3.32259 -5.14073 0
M  V30 2558 N 224.293 4.50039 -5.38896 0
M  V30 2559 H 229.133 0.794251 -2.87221 0
M  V30 2560 H 226.67 0.380707 -1.42088 0
M  V30 2561 H 228.628 3.25969 -2.60384 0
M  V30 2562 H 227.258 2.83437 -1.54478 0
M  V30 2563 H 226.31 1.43845 -3.52154 0
M  V30 2564 H 227.622 2.08746 -4.5302 0
M  V30 2565 H 226.776 4.41423 -4.1621 0
M  V30 2566 H 225.515 3.80138 -3.05526 0
M  V30 2567 H 224.52 2.44963 -4.92212 0
M  V30 2568 H 225.745 3.09242 -6.04604 0
M  V30 2569 H 223.691 4.74584 -4.52886 0
M  V30 2570 H 223.608 4.31716 -6.2061 0
M  V30 2571 H 224.876 5.36895 -5.65123 0
M  V30 2572 N 229.106 1.52395 0.401703 0
M  V30 2573 C 230.336 1.70429 1.1678 0
M  V30 2574 C 230.744 0.416702 1.84554 0
M  V30 2575 O 230.087 -0.617697 1.73003 0
M  V30 2576 C 230.149 2.78919 2.26814 0
M  V30 2577 C 229.813 4.20437 1.79113 0
M  V30 2578 C 230.81 5.04028 1.27482 0
M  V30 2579 C 228.495 4.66704 1.85722 0
M  V30 2580 C 230.489 6.31961 0.830913 0
M  V30 2581 C 228.176 5.94625 1.40942 0
M  V30 2582 C 229.174 6.77082 0.897128 0
M  V30 2583 O 228.862 8.02607 0.455822 0
M  V30 2584 H 228.594 0.574272 0.356634 0
M  V30 2585 H 231.148 1.99767 0.477724 0
M  V30 2586 H 229.378 2.44973 2.99207 0
M  V30 2587 H 231.067 2.8548 2.88541 0
M  V30 2588 H 231.833 4.69471 1.21744 0
M  V30 2589 H 227.712 4.0262 2.24539 0
M  V30 2590 H 231.256 6.96271 0.430368 0
M  V30 2591 H 227.153 6.28688 1.46362 0
M  V30 2592 H 227.921 8.16453 0.578457 0
M  V30 2593 N 230.584 -0.659388 1.43143 0
M  V30 2594 C 231.824 -1.43121 1.45931 0
M  V30 2595 C 232.188 -1.91838 0.0789298 0
M  V30 2596 O 233.389 -2.68794 -0.018491 0
M  V30 2597 C 231.66 -2.58534 2.46769 0
M  V30 2598 S 233.219 -3.47154 2.68384 0
M  V30 2599 H 230.037 -0.488624 0.516496 0
M  V30 2600 H 232.639 -0.766128 1.79863 0
M  V30 2601 H 231.343 -2.21007 3.45809 0
M  V30 2602 H 230.874 -3.29898 2.14315 0
M  V30 2603 H 232.889 -4.55051 1.97845 0
M  V30 2604 N 232.062 -1.29571 -0.897171 0
M  V30 2605 C 232.994 -1.10724 -2.00681 0
M  V30 2606 C 234.007 -0.0540026 -1.6271 0
M  V30 2607 O 235.196 -0.298783 -1.75982 0
M  V30 2608 C 232.296 -0.663912 -3.32333 0
M  V30 2609 C 231.469 -1.79622 -3.98816 0
M  V30 2610 C 230.528 -1.34349 -5.0876 0
M  V30 2611 O 229.554 -2.04864 -5.31055 0
M  V30 2612 N 230.756 -0.215764 -5.80099 0
M  V30 2613 H 233.521 -2.06291 -2.17403 0
M  V30 2614 H 231.082 -1.21544 -1.06951 0
M  V30 2615 H 233.074 -0.344295 -4.03233 0
M  V30 2616 H 231.644 0.199375 -3.11964 0
M  V30 2617 H 230.864 -2.28459 -3.21248 0
M  V30 2618 H 232.152 -2.55535 -4.39976 0
M  V30 2619 H 231.55 0.372091 -5.64475 0
M  V30 2620 H 230.107 0.0444707 -6.51785 0
M  V30 2621 N 233.54 1.10788 -1.12088 0
M  V30 2622 C 234.786 1.82942 -0.875226 0
M  V30 2623 C 235.119 1.84779 0.597538 0
M  V30 2624 O 234.394 1.30578 1.44152 0
M  V30 2625 C 234.677 3.29789 -1.44606 0
M  V30 2626 C 234.53 3.36307 -2.98693 0
M  V30 2627 C 235.849 4.26064 -1.10261 0
M  V30 2628 H 232.968 0.664195 -0.319397 0
M  V30 2629 H 235.61 1.29867 -1.38689 0
M  V30 2630 H 233.76 3.75118 -1.01089 0
M  V30 2631 H 235.432 2.99487 -3.50864 0
M  V30 2632 H 233.675 2.76318 -3.34411 0
M  V30 2633 H 234.346 4.39694 -3.33726 0
M  V30 2634 H 236.822 3.88951 -1.4784 0
M  V30 2635 H 235.698 5.27183 -1.52869 0
M  V30 2636 H 235.959 4.42098 -0.0142953 0
M  V30 2637 N 235.018 0.912232 1.28515 0
M  V30 2638 C 236.267 0.540504 1.94323 0
M  V30 2639 C 236.58 -0.920044 1.72611 0
M  V30 2640 O 237.786 -1.39986 2.32629 0
M  V30 2641 C 236.242 0.915803 3.48053 0
M  V30 2642 C 235.85 2.39598 3.78546 0
M  V30 2643 C 237.594 0.614588 4.20027 0
M  V30 2644 C 235.501 2.71148 5.25578 0
M  V30 2645 H 234.431 0.198418 0.727424 0
M  V30 2646 H 237.082 1.11094 1.46049 0
M  V30 2647 H 235.464 0.274168 3.9505 0
M  V30 2648 H 236.638 3.08422 3.42364 0
M  V30 2649 H 234.953 2.66749 3.1974 0
M  V30 2650 H 237.55 0.827002 5.28266 0
M  V30 2651 H 237.893 -0.447531 4.13887 0
M  V30 2652 H 238.426 1.21462 3.78803 0
M  V30 2653 H 235.165 3.76207 5.36794 0
M  V30 2654 H 234.685 2.0696 5.62963 0
M  V30 2655 H 236.364 2.58072 5.93302 0
M  V30 2656 N 236.496 -1.42363 0.676048 0
M  V30 2657 C 237.912 -1.55811 0.345718 0
M  V30 2658 C 238.112 -1.65544 -1.14879 0
M  V30 2659 O 237.168 -1.62306 -1.93424 0
M  V30 2660 C 238.481 -2.80746 1.07713 0
M  V30 2661 C 240.029 -2.9452 1.05958 0
M  V30 2662 C 240.504 -4.22318 1.77233 0
M  V30 2663 N 241.995 -4.29233 1.74108 0
M  V30 2664 C 242.73 -5.26935 2.26113 0
M  V30 2665 N 242.226 -6.30783 2.86505 0
M  V30 2666 N 244.019 -5.18741 2.1648 0
M  V30 2667 H 236.17 -1.34289 1.6456 0
M  V30 2668 H 238.433 -0.646506 0.69335 0
M  V30 2669 H 238.139 -2.79696 2.13221 0
M  V30 2670 H 238.013 -3.71676 0.64316 0
M  V30 2671 H 240.4 -2.95097 0.0128255 0
M  V30 2672 H 240.481 -2.04817 1.53244 0
M  V30 2673 H 240.125 -4.22502 2.81877 0
M  V30 2674 H 240.055 -5.10958 1.27396 0
M  V30 2675 H 242.546 -3.54814 1.30059 0
M  V30 2676 H 242.859 -7.01691 3.23805 0
M  V30 2677 H 241.204 -6.31341 2.90575 0
M  V30 2678 H 244.395 -4.36533 1.68987 0
M  V30 2679 H 244.568 -5.94721 2.57316 0
M  V30 2680 N 237.974 -0.419461 -1.51915 0
M  V30 2681 C 239.22 0.153166 -2.02221 0
M  V30 2682 C 239.553 1.43907 -1.30401 0
M  V30 2683 O 238.828 1.90055 -0.413438 0
M  V30 2684 C 239.111 0.390291 -3.57979 0
M  V30 2685 C 238.964 -0.913014 -4.40436 0
M  V30 2686 C 240.283 1.16794 -4.2432 0
M  V30 2687 H 237.402 0.0541924 -0.735005 0
M  V30 2688 H 240.044 -0.554955 -1.81715 0
M  V30 2689 H 238.194 0.993491 -3.75582 0
M  V30 2690 H 239.866 -1.54882 -4.34522 0
M  V30 2691 H 238.109 -1.52168 -4.06236 0
M  V30 2692 H 238.78 -0.701361 -5.47526 0
M  V30 2693 H 241.256 0.657161 -4.10878 0
M  V30 2694 H 240.132 1.3026 -5.3322 0
M  V30 2695 H 240.393 2.19132 -3.83971 0
M  V30 2696 N 239.452 1.56882 -0.150215 0
M  V30 2697 C 240.701 1.95403 0.500071 0
M  V30 2698 C 241.014 1.03777 1.658 0
M  V30 2699 O 242.22 1.31889 2.37313 0
M  V30 2700 C 240.676 3.4738 0.941018 0
M  V30 2701 C 240.284 4.47596 -0.190158 0
M  V30 2702 C 242.028 3.9476 1.56091 0
M  V30 2703 C 239.935 5.90787 0.269237 0
M  V30 2704 H 238.865 0.729515 0.190588 0
M  V30 2705 H 241.516 1.81988 -0.235074 0
M  V30 2706 H 239.898 3.56138 1.73152 0
M  V30 2707 H 241.072 4.50536 -0.967157 0
M  V30 2708 H 239.387 4.10151 -0.718666 0
M  V30 2709 H 241.984 4.99181 1.9163 0
M  V30 2710 H 242.327 3.36494 2.45107 0
M  V30 2711 H 242.86 3.88932 0.835249 0
M  V30 2712 H 239.599 6.52879 -0.585621 0
M  V30 2713 H 239.119 5.912 1.01204 0
M  V30 2714 H 240.798 6.42979 0.720176 0
M  V30 2715 N 240.93 -0.123565 1.57115 0
M  V30 2716 C 241.893 -1.13583 1.99076 0
M  V30 2717 C 242.893 -1.34564 0.880296 0
M  V30 2718 O 244.083 -1.31158 1.14644 0
M  V30 2719 C 241.215 -2.49128 2.32698 0
M  V30 2720 H 242.408 -0.775287 2.89706 0
M  V30 2721 H 239.961 -0.36771 1.51913 0
M  V30 2722 H 240.696 -2.90111 1.44934 0
M  V30 2723 H 240.481 -2.35255 3.13684 0
M  V30 2724 H 241.971 -3.2199 2.65918 0
M  V30 2725 N 242.408 -1.52605 -0.393616 0
M  V30 2726 C 243.358 -1.73436 -1.48 0
M  V30 2727 C 244.342 -0.588386 -1.49756 0
M  V30 2728 O 245.534 -0.846047 -1.5547 0
M  V30 2729 C 242.663 -1.90247 -2.85764 0
M  V30 2730 C 241.749 -3.10763 -2.88595 0
M  V30 2731 N 242.14 -4.33196 -2.61103 0
M  V30 2732 C 240.438 -3.10914 -3.19763 0
M  V30 2733 C 241.139 -5.1477 -2.70899 0
M  V30 2734 N 240.115 -4.50356 -3.04435 0
M  V30 2735 H 243.917 -2.65727 -1.25563 0
M  V30 2736 H 241.431 -1.5085 -0.601513 0
M  V30 2737 H 243.428 -2.03291 -3.63976 0
M  V30 2738 H 242.088 -0.991663 -3.09186 0
M  V30 2739 H 243.099 -4.61408 -2.35209 0
M  V30 2740 H 239.776 -2.29626 -3.4868 0
M  V30 2741 H 241.166 -6.22355 -2.53227 0
M  V30 2742 N 243.887 0.651787 -1.4349 0
M  V30 2743 C 245.115 1.43937 -1.48626 0
M  V30 2744 C 245.53 1.8851 -0.104587 0
M  V30 2745 O 244.887 1.5958 0.885464 0
M  V30 2746 C 244.938 2.6734 -2.43334 0
M  V30 2747 O 244.659 2.24631 -3.76128 0
M  V30 2748 C 246.16 3.60683 -2.57726 0
M  V30 2749 H 243.38 0.44213 -0.504739 0
M  V30 2750 H 245.924 0.798944 -1.88248 0
M  V30 2751 H 244.079 3.2752 -2.06904 0
M  V30 2752 H 244.493 3.04485 -4.2707 0
M  V30 2753 H 245.967 4.43933 -3.28067 0
M  V30 2754 H 246.444 4.08126 -1.62265 0
M  V30 2755 H 247.05 3.06384 -2.94973 0
M  V30 2756 N 245.365 1.30045 0.890287 0
M  V30 2757 C 246.297 1.11786 2.00091 0
M  V30 2758 C 247.31 0.0626307 1.62679 0
M  V30 2759 O 248.499 0.308112 1.75821 0
M  V30 2760 C 245.599 0.681527 3.31977 0
M  V30 2761 C 244.772 1.81735 3.97858 0
M  V30 2762 C 243.831 1.37045 5.08041 0
M  V30 2763 O 242.857 2.07677 5.29961 0
M  V30 2764 N 244.059 0.246525 5.79976 0
M  V30 2765 H 246.824 2.07441 2.16306 0
M  V30 2766 H 244.385 1.2211 1.06305 0
M  V30 2767 H 246.377 0.365675 4.03045 0
M  V30 2768 H 244.947 -0.182828 3.12065 0
M  V30 2769 H 244.167 2.30159 3.20032 0
M  V30 2770 H 245.455 2.57865 4.38615 0
M  V30 2771 H 244.853 -0.34215 5.64664 0
M  V30 2772 H 243.41 -0.00990438 6.51799 0
M  V30 2773 N 246.843 -1.10192 1.12674 0
M  V30 2774 C 247.776 -2.15847 0.740625 0
M  V30 2775 C 248.754 -1.60352 -0.269421 0
M  V30 2776 O 249.938 -1.87796 -0.16278 0
M  V30 2777 C 247.065 -3.38562 0.096641 0
M  V30 2778 C 246.111 -4.12758 1.07391 0
M  V30 2779 S 246.944 -4.67997 2.60267 0
M  V30 2780 C 248.1 -5.94021 1.97206 0
M  V30 2781 H 248.333 -2.48266 1.63558 0
M  V30 2782 H 245.866 -1.22019 0.946087 0
M  V30 2783 H 247.824 -4.09621 -0.268535 0
M  V30 2784 H 246.485 -3.04377 -0.775462 0
M  V30 2785 H 245.678 -5.00755 0.570997 0
M  V30 2786 H 245.28 -3.47523 1.38216 0
M  V30 2787 H 247.572 -6.64589 1.31634 0
M  V30 2788 H 248.515 -6.48979 2.83253 0
M  V30 2789 H 248.923 -5.46169 1.42686 0
M  V30 2790 N 248.321 -0.919034 -1.28029 0
M  V30 2791 C 249.737 -0.617972 -1.4715 0
M  V30 2792 C 249.937 0.835242 -1.83374 0
M  V30 2793 O 248.993 1.61388 -1.94191 0
M  V30 2794 C 250.306 -1.56041 -2.57044 0
M  V30 2795 C 251.854 -1.56769 -2.7091 0
M  V30 2796 C 252.329 -2.49688 -3.83953 0
M  V30 2797 N 253.82 -2.47845 -3.91314 0
M  V30 2798 C 254.555 -3.16437 -4.78179 0
M  V30 2799 N 254.051 -3.94376 -5.69596 0
M  V30 2800 N 255.844 -3.05498 -4.71834 0
M  V30 2801 H 247.995 -1.85866 -1.02798 0
M  V30 2802 H 250.258 -0.797506 -0.512531 0
M  V30 2803 H 249.964 -2.59671 -2.372 0
M  V30 2804 H 249.838 -1.29551 -3.54255 0
M  V30 2805 H 252.225 -0.538745 -2.90141 0
M  V30 2806 H 252.306 -1.87305 -1.74214 0
M  V30 2807 H 251.95 -3.52688 -3.65477 0
M  V30 2808 H 251.88 -2.16453 -4.80058 0
M  V30 2809 H 254.371 -1.91234 -3.25941 0
M  V30 2810 H 254.684 -4.43721 -6.32718 0
M  V30 2811 H 253.029 -3.98481 -5.69419 0
M  V30 2812 H 256.22 -2.44108 -3.99411 0
M  V30 2813 H 256.393 -3.59225 -5.39316 0
M  V30 2814 N 249.799 1.42003 -0.683588 0
M  V30 2815 C 250.729 2.33487 -0.024866 0
M  V30 2816 C 251.71 1.51163 0.779975 0
M  V30 2817 O 252.895 1.79739 0.735362 0
M  V30 2818 C 250.025 3.3487 0.920836 0
M  V30 2819 C 248.979 4.27414 0.223958 0
M  V30 2820 C 248.305 5.19074 1.2832 0
M  V30 2821 C 249.605 5.14445 -0.90242 0
M  V30 2822 H 251.299 2.88819 -0.788921 0
M  V30 2823 H 248.845 1.38873 -0.38083 0
M  V30 2824 H 250.798 3.97787 1.39081 0
M  V30 2825 H 249.522 2.77861 1.71642 0
M  V30 2826 H 248.181 3.65904 -0.225864 0
M  V30 2827 H 247.829 4.58387 2.071 0
M  V30 2828 H 247.529 5.81822 0.821995 0
M  V30 2829 H 249.053 5.84867 1.75392 0
M  V30 2830 H 250.467 5.70998 -0.513272 0
M  V30 2831 H 248.864 5.86072 -1.28997 0
M  V30 2832 H 249.934 4.52322 -1.74737 0
M  V30 2833 N 251.277 0.427512 1.51691 0
M  V30 2834 C 252.207 -0.3796 2.30394 0
M  V30 2835 C 253.188 -1.02982 1.35384 0
M  V30 2836 O 254.373 -1.03534 1.643 0
M  V30 2837 C 251.503 -1.48649 3.1388 0
M  V30 2838 C 250.457 -0.960294 4.17088 0
M  V30 2839 C 249.783 -2.16219 4.89033 0
M  V30 2840 C 251.083 -0.00153679 5.223 0
M  V30 2841 H 252.777 0.277164 2.98114 0
M  V30 2842 H 250.323 0.134739 1.43368 0
M  V30 2843 H 252.276 -2.05826 3.67714 0
M  V30 2844 H 251 -2.1714 2.43962 0
M  V30 2845 H 249.659 -0.410806 3.64291 0
M  V30 2846 H 249.307 -2.83307 4.15628 0
M  V30 2847 H 249.007 -1.81654 5.58816 0
M  V30 2848 H 250.531 -2.73968 5.45687 0
M  V30 2849 H 251.945 -0.482687 5.71264 0
M  V30 2850 H 250.342 0.256199 5.99553 0
M  V30 2851 H 251.412 0.938174 4.75738 0
M  V30 2852 N 252.755 -1.56801 0.158532 0
M  V30 2853 C 254.166 -1.83189 -0.360366 0
M  V30 2854 C 254.517 -1.07778 -1.63946 0
M  V30 2855 O 253.642 -0.326718 -2.13919 0
M  V30 2856 C 254.237 -3.32297 -0.660595 0
M  V30 2857 C 252.796 -3.59227 -1.12398 0
M  V30 2858 C 251.943 -2.76877 -0.153097 0
M  V30 2859 H 254.894 -1.54008 0.383031 0
M  V30 2860 H 254.915 -3.4908 -1.51405 0
M  V30 2861 H 254.427 -3.87156 0.270527 0
M  V30 2862 H 252.528 -3.09766 -2.07064 0
M  V30 2863 H 252.641 -4.67632 -1.04197 0
M  V30 2864 H 251.005 -2.46319 -0.647983 0
M  V30 2865 H 251.788 -3.34511 0.77182 0
M  V30 2866 N 254.233 0.115231 -1.57178 0
M  V30 2867 C 255.163 1.1423 -2.03651 0
M  V30 2868 C 256.144 1.42967 -0.921655 0
M  V30 2869 O 257.329 1.53343 -1.19162 0
M  V30 2870 C 254.459 2.4675 -2.44401 0
M  V30 2871 C 253.413 2.32467 -3.59365 0
M  V30 2872 C 252.739 3.69984 -3.86026 0
M  V30 2873 C 254.039 1.78203 -4.90959 0
M  V30 2874 H 255.733 0.755749 -2.89705 0
M  V30 2875 H 253.279 0.362093 -1.39373 0
M  V30 2876 H 255.232 3.18854 -2.75517 0
M  V30 2877 H 253.956 2.87302 -1.55322 0
M  V30 2878 H 252.615 1.62811 -3.28463 0
M  V30 2879 H 252.263 4.08028 -2.94147 0
M  V30 2880 H 251.963 3.61279 -4.63412 0
M  V30 2881 H 253.487 4.43587 -4.19599 0
M  V30 2882 H 254.901 2.40128 -5.20587 0
M  V30 2883 H 253.298 1.8031 -5.72371 0
M  V30 2884 H 254.368 0.739876 -4.79222 0
M  V30 2885 N 255.711 1.52812 0.385517 0
M  V30 2886 C 257.127 1.4214 0.725829 0
M  V30 2887 C 257.327 0.544589 1.94001 0
M  V30 2888 O 256.383 0.0193693 2.52493 0
M  V30 2889 C 257.696 2.85042 0.957668 0
M  V30 2890 C 259.244 2.94543 1.05892 0
M  V30 2891 C 259.719 4.38464 1.32337 0
M  V30 2892 N 261.21 4.41804 1.39151 0
M  V30 2893 C 261.945 5.5025 1.61285 0
M  V30 2894 N 261.441 6.68775 1.80866 0
M  V30 2895 N 263.234 5.37798 1.63492 0
M  V30 2896 H 255.385 2.08338 -0.413383 0
M  V30 2897 H 257.648 0.940016 -0.122775 0
M  V30 2898 H 257.354 3.51431 0.137568 0
M  V30 2899 H 257.228 3.27505 1.87137 0
M  V30 2900 H 259.615 2.28321 1.86959 0
M  V30 2901 H 259.696 2.55504 0.123057 0
M  V30 2902 H 259.34 5.05254 0.517793 0
M  V30 2903 H 259.27 4.75059 2.27214 0
M  V30 2904 H 261.761 3.56377 1.25713 0
M  V30 2905 H 262.074 7.47197 1.97271 0
M  V30 2906 H 260.419 6.71797 1.78083 0
M  V30 2907 H 263.61 4.44171 1.47749 0
M  V30 2908 H 263.783 6.22382 1.80402 0
M  V30 2909 N 257.189 -0.644168 1.43834 0
M  V30 2910 C 258.121 -1.76955 1.45669 0
M  V30 2911 C 259.134 -1.58956 0.351666 0
M  V30 2912 O 260.323 -1.6751 0.616644 0
M  V30 2913 C 257.423 -3.14507 1.26248 0
M  V30 2914 C 256.596 -3.59083 2.49757 0
M  V30 2915 C 255.655 -4.75467 2.25427 0
M  V30 2916 O 254.681 -4.84444 2.98836 0
M  V30 2917 N 255.883 -5.66289 1.27661 0
M  V30 2918 H 258.648 -1.75856 2.42682 0
M  V30 2919 H 256.209 -0.828312 1.39106 0
M  V30 2920 H 258.201 -3.90067 1.0784 0
M  V30 2921 H 256.771 -3.10325 0.376478 0
M  V30 2922 H 255.991 -2.7387 2.8353 0
M  V30 2923 H 257.279 -3.85613 3.31934 0
M  V30 2924 H 256.677 -5.61718 0.670064 0
M  V30 2925 H 255.234 -6.41533 1.15234 0
M  V30 2926 N 258.668 -1.30515 -0.883378 0
M  V30 2927 C 259.615 -1.17032 -1.98927 0
M  V30 2928 C 260.585 -0.0594241 -1.65994 0
M  V30 2929 O 261.77 -0.229895 -1.8941 0
M  V30 2930 C 258.91 -0.869777 -3.33959 0
M  V30 2931 C 258.023 -2.06271 -3.79574 0
M  V30 2932 C 257.158 -1.70011 -5.03259 0
M  V30 2933 C 256.197 -2.8579 -5.41286 0
M  V30 2934 N 255.334 -2.49816 -6.56153 0
M  V30 2935 H 260.174 -2.1164 -2.09792 0
M  V30 2936 H 257.711 -1.05296 -1.02719 0
M  V30 2937 H 259.669 -0.676138 -4.11685 0
M  V30 2938 H 258.299 0.0394332 -3.22776 0
M  V30 2939 H 257.351 -2.36755 -2.97744 0
M  V30 2940 H 258.663 -2.92971 -4.03694 0
M  V30 2941 H 257.817 -1.47032 -5.88614 0
M  V30 2942 H 256.556 -0.804829 -4.81013 0
M  V30 2943 H 255.561 -3.09434 -4.54456 0
M  V30 2944 H 256.786 -3.76008 -5.65504 0
M  V30 2945 H 254.732 -1.62795 -6.35479 0
M  V30 2946 H 254.649 -3.30048 -6.8015 0
M  V30 2947 H 255.917 -2.30197 -7.44735 0
M  V30 2948 N 260.146 1.09593 -1.13257 0
M  V30 2949 C 261.093 2.1618 -0.808381 0
M  V30 2950 C 262.063 1.64517 0.228754 0
M  V30 2951 O 263.248 1.9053 0.101381 0
M  V30 2952 C 260.388 3.43973 -0.278675 0
M  V30 2953 C 259.501 4.09545 -1.37466 0
M  V30 2954 C 258.636 5.25088 -0.803479 0
M  V30 2955 C 257.675 5.82579 -1.87799 0
M  V30 2956 N 256.812 6.89486 -1.32488 0
M  V30 2957 H 261.652 2.43254 -1.72138 0
M  V30 2958 H 259.189 1.19392 -0.859294 0
M  V30 2959 H 261.147 4.17174 0.0465583 0
M  V30 2960 H 259.777 3.17223 0.597459 0
M  V30 2961 H 258.829 3.34226 -1.81652 0
M  V30 2962 H 260.141 4.48307 -2.18684 0
M  V30 2963 H 259.295 6.05178 -0.429427 0
M  V30 2964 H 258.034 4.87684 0.0397956 0
M  V30 2965 H 257.039 5.01152 -2.26113 0
M  V30 2966 H 258.264 6.22045 -2.72463 0
M  V30 2967 H 256.21 6.54064 -0.503575 0
M  V30 2968 H 256.127 7.27007 -2.07355 0
M  V30 2969 H 257.395 7.73336 -0.978336 0
M  V30 2970 N 261.624 0.925811 1.2754 0
M  V30 2971 C 262.587 0.428129 2.25166 0
M  V30 2972 C 263.587 -0.452261 1.54309 0
M  V30 2973 O 264.777 -0.253608 1.72344 0
M  V30 2974 C 261.909 -0.384749 3.38722 0
M  V30 2975 H 263.102 1.29066 2.70706 0
M  V30 2976 H 260.655 0.706323 1.3943 0
M  V30 2977 H 261.39 -1.26618 2.98561 0
M  V30 2978 H 261.175 0.246454 3.91325 0
M  V30 2979 H 262.665 -0.723389 4.11287 0
M  V30 2980 N 263.102 -1.41638 0.69111 0
M  V30 2981 C 264.052 -2.28 -0.000107832 0
M  V30 2982 C 265.036 -1.41964 -0.757304 0
M  V30 2983 O 266.228 -1.65274 -0.633532 0
M  V30 2984 C 263.357 -3.30209 -0.938983 0
M  V30 2985 C 262.443 -4.23725 -0.17827 0
M  V30 2986 N 262.834 -4.99017 0.825563 0
M  V30 2987 C 261.132 -4.44071 -0.414392 0
M  V30 2988 C 261.833 -5.67431 1.28052 0
M  V30 2989 N 260.809 -5.40197 0.607304 0
M  V30 2990 H 264.611 -2.83644 0.769617 0
M  V30 2991 H 262.125 -1.53797 0.521562 0
M  V30 2992 H 264.122 -3.90898 -1.44929 0
M  V30 2993 H 262.782 -2.76126 -1.70836 0
M  V30 2994 H 263.793 -5.03671 1.20566 0
M  V30 2995 H 260.47 -4.01004 -1.162 0
M  V30 2996 H 261.86 -6.37801 2.11327 0
M  V30 2997 N 264.58 -0.43555 -1.51462 0
M  V30 2998 C 265.51 0.367376 -2.30592 0
M  V30 2999 C 266.491 1.02263 -1.35928 0
M  V30 3000 O 267.676 1.02661 -1.64847 0
M  V30 3001 C 264.806 1.46983 -3.14664 0
M  V30 3002 C 263.76 0.938161 -4.17591 0
M  V30 3003 C 263.086 2.13622 -4.90173 0
M  V30 3004 C 264.386 -0.0261621 -5.22293 0
M  V30 3005 H 266.08 -0.292969 -2.97963 0
M  V30 3006 H 263.626 -0.14234 -1.43295 0
M  V30 3007 H 265.579 2.03873 -3.688 0
M  V30 3008 H 264.303 2.15843 -2.4511 0
M  V30 3009 H 262.962 0.391481 -3.64504 0
M  V30 3010 H 262.61 2.81098 -4.17124 0
M  V30 3011 H 262.31 1.78688 -5.59772 0
M  V30 3012 H 263.834 2.7107 -5.47132 0
M  V30 3013 H 265.248 0.452384 -5.71512 0
M  V30 3014 H 263.645 -0.287992 -5.99409 0
M  V30 3015 H 264.715 -0.963391 -4.75233 0
M  V30 3016 N 266.058 1.56714 -0.166846 0
M  V30 3017 C 266.991 2.13577 0.80375 0
M  V30 3018 C 267.969 1.06464 1.22899 0
M  V30 3019 O 269.153 1.34413 1.32157 0
M  V30 3020 C 266.28 2.67168 2.0818 0
M  V30 3021 C 265.326 3.86612 1.80093 0
M  V30 3022 S 266.159 5.26565 0.97416 0
M  V30 3023 C 267.315 5.83558 2.26297 0
M  V30 3024 H 267.548 2.9557 0.320267 0
M  V30 3025 H 265.081 1.54326 0.0477555 0
M  V30 3026 H 267.039 2.98692 2.8159 0
M  V30 3027 H 265.7 1.85269 2.53642 0
M  V30 3028 H 264.893 4.22422 2.7491 0
M  V30 3029 H 264.495 3.55951 1.14781 0
M  V30 3030 H 266.787 5.962 3.21795 0
M  V30 3031 H 267.73 6.80731 1.94962 0
M  V30 3032 H 268.138 5.11944 2.37853 0
M  V30 3033 N 267.536 -0.106894 1.57237 0
M  V30 3034 C 268.446 -1.14911 2.0453 0
M  V30 3035 C 269.462 -1.44592 0.96795 0
M  V30 3036 O 270.638 -1.55468 1.2803 0
M  V30 3037 C 267.703 -2.45272 2.45036 0
M  V30 3038 C 266.764 -2.22879 3.66911 0
M  V30 3039 C 265.997 -3.47024 4.05475 0
M  V30 3040 O 266.22 -4.54804 3.44252 0
M  V30 3041 O 265.154 -3.3731 4.98504 0
M  V30 3042 H 268.98 -0.777461 2.9358 0
M  V30 3043 H 266.565 -0.318563 1.45964 0
M  V30 3044 H 268.447 -3.22055 2.71769 0
M  V30 3045 H 267.122 -2.81886 1.59129 0
M  V30 3046 H 266.029 -1.43915 3.45311 0
M  V30 3047 H 267.362 -1.91163 4.53561 0
M  V30 3048 N 269.014 -1.53014 -0.377408 0
M  V30 3049 C 270.263 -1.67845 -1.11853 0
M  V30 3050 C 270.576 -0.430625 -1.90801 0
M  V30 3051 O 271.782 -0.459261 -2.67587 0
M  V30 3052 C 270.238 -2.96668 -2.03756 0
M  V30 3053 C 269.846 -4.28671 -1.30175 0
M  V30 3054 C 271.59 -3.20865 -2.77932 0
M  V30 3055 C 269.497 -5.48591 -2.20911 0
M  V30 3056 H 268.427 -0.625343 -0.421263 0
M  V30 3057 H 271.078 -1.79514 -0.380409 0
M  V30 3058 H 269.46 -2.78773 -2.8125 0
M  V30 3059 H 270.634 -4.57157 -0.578259 0
M  V30 3060 H 268.949 -4.10825 -0.679108 0
M  V30 3061 H 271.546 -4.07642 -3.46024 0
M  V30 3062 H 271.889 -2.36424 -3.4265 0
M  V30 3063 H 272.422 -3.39379 -2.07525 0
M  V30 3064 H 269.161 -6.35474 -1.6079 0
M  V30 3065 H 268.681 -5.244 -2.91144 0
M  V30 3066 H 270.36 -5.8292 -2.80736 0
M  V30 3067 N 270.492 0.636531 -1.44174 0
M  V30 3068 C 271.424 1.7618 -1.46606 0
M  V30 3069 C 272.437 1.58768 -0.360091 0
M  V30 3070 O 273.626 1.67181 -0.625518 0
M  V30 3071 C 270.726 3.13833 -1.27915 0
M  V30 3072 C 269.899 3.57753 -2.51658 0
M  V30 3073 C 268.958 4.74265 -2.27945 0
M  V30 3074 O 267.984 4.82852 -3.01401 0
M  V30 3075 N 269.186 5.65604 -1.30662 0
M  V30 3076 H 271.951 1.74567 -2.43612 0
M  V30 3077 H 269.512 0.820924 -1.39544 0
M  V30 3078 H 271.504 3.8949 -1.09907 0
M  V30 3079 H 270.074 3.10121 -0.39293 0
M  V30 3080 H 269.294 2.72362 -2.84978 0
M  V30 3081 H 270.582 3.83847 -3.33974 0
M  V30 3082 H 269.98 5.61354 -0.699844 0
M  V30 3083 H 268.537 6.40913 -1.18634 0
M  V30 3084 N 271.97 1.30982 0.876444 0
M  V30 3085 C 273.216 1.20474 1.63138 0
M  V30 3086 C 273.549 -0.238096 1.92735 0
M  V30 3087 O 272.824 -1.1692 1.55435 0
M  V30 3088 C 273.107 2.04244 2.96574 0
M  V30 3089 C 272.96 3.56793 2.73896 0
M  V30 3090 C 274.279 1.88684 3.97601 0
M  V30 3091 H 271.398 0.439001 0.591985 0
M  V30 3092 H 274.04 1.60704 1.01361 0
M  V30 3093 H 272.19 1.70063 3.493 0
M  V30 3094 H 273.862 4.01077 2.27892 0
M  V30 3095 H 272.105 3.80548 2.08245 0
M  V30 3096 H 272.776 4.10706 3.68815 0
M  V30 3097 H 275.252 2.18584 3.54062 0
M  V30 3098 H 274.128 2.4961 4.88862 0
M  V30 3099 H 274.389 0.848343 4.33884 0
M  V30 3100 N 273.449 -1.08991 1.13837 0
M  V30 3101 C 274.397 -2.17841 0.815347 0
M  V30 3102 C 275.391 -1.68164 -0.204233 0
M  V30 3103 O 276.597 -1.79897 -0.0609304 0
M  V30 3104 H 272.972 -0.710654 0.245915 0
M  V30 3105 H 274.943 -2.42315 1.74143 0
M  V30 3106 C 273.692 -3.46381 0.302614 0
M  V30 3107 H 273.015 -3.84979 1.0785 0
M  V30 3108 H 274.455 -4.23844 0.115074 0
M  V30 3109 C 272.914 -3.22556 -0.972591 0
M  V30 3110 O 273.444 -3.45599 -2.04754 0
M  V30 3111 N 271.65 -2.76134 -0.905455 0
M  V30 3112 H 271.197 -2.57582 -0.0305421 0
M  V30 3113 H 271.155 -2.60571 -1.75926 0
M  V30 3114 N 274.927 -0.932562 -1.27047 0
M  V30 3115 C 276.175 -0.574422 -1.93765 0
M  V30 3116 C 276.496 0.887993 -1.73608 0
M  V30 3117 O 275.766 1.62999 -1.08665 0
M  V30 3118 H 274.346 -0.209451 -0.717035 0
M  V30 3119 H 277.008 -1.18601 -1.5466 0
M  V30 3120 H 276.104 -0.784841 -3.02071 0
M  V30 3121 N 276.405 1.4127 -0.698611 0
M  V30 3122 C 277.653 2.00782 -0.230409 0
M  V30 3123 C 277.974 1.5562 1.17505 0
M  V30 3124 O 277.244 0.78815 1.79346 0
M  V30 3125 H 275.824 0.742464 -0.0821944 0
M  V30 3126 H 278.486 1.72852 -0.90045 0
M  V30 3127 H 277.582 3.11095 -0.25021 0
M  V30 3128 N 277.883 0.443576 1.51229 0
M  V30 3129 C 279.111 -0.11929 2.06556 0
M  V30 3130 C 279.526 -1.35921 1.31038 0
M  V30 3131 O 278.883 -1.78675 0.371704 0
M  V30 3132 C 278.934 -0.435228 3.5887 0
M  V30 3133 O 278.655 0.755486 4.31537 0
M  V30 3134 C 280.156 -1.04808 4.30732 0
M  V30 3135 H 277.376 -0.0051584 0.67098 0
M  V30 3136 H 279.92 0.624453 1.94733 0
M  V30 3137 H 278.075 -1.12887 3.70588 0
M  V30 3138 H 278.489 0.483491 5.22267 0
M  V30 3139 H 279.963 -1.2191 5.3837 0
M  V30 3140 H 280.44 -2.03081 3.89429 0
M  V30 3141 H 281.046 -0.393637 4.23474 0
M  V30 3142 N 279.361 -1.56624 0.175154 0
M  V30 3143 C 280.607 -1.9729 -0.469506 0
M  V30 3144 C 280.94 -1.06128 -1.62636 0
M  V30 3145 O 280.215 -0.109183 -1.94193 0
M  V30 3146 C 280.498 -3.47375 -0.948804 0
M  V30 3147 C 280.351 -4.49317 0.208491 0
M  V30 3148 C 281.67 -4.00652 -1.82116 0
M  V30 3149 H 278.789 -0.717317 -0.16919 0
M  V30 3150 H 281.431 -1.88184 0.262062 0
M  V30 3151 H 279.581 -3.55267 -1.57219 0
M  V30 3152 H 281.253 -4.53482 0.845682 0
M  V30 3153 H 279.496 -4.25121 0.863395 0
M  V30 3154 H 280.167 -5.51741 -0.169059 0
M  V30 3155 H 282.643 -3.95416 -1.2956 0
M  V30 3156 H 281.519 -5.06075 -2.12554 0
M  V30 3157 H 281.78 -3.44699 -2.7683 0
M  V30 3158 N 280.839 0.0985539 -1.57292 0
M  V30 3159 C 281.802 1.10402 -2.00858 0
M  V30 3160 C 282.802 1.33146 -0.901593 0
M  V30 3161 O 283.992 1.29318 -1.16716 0
M  V30 3162 C 281.124 2.45394 -2.36632 0
M  V30 3163 H 282.317 0.729099 -2.90902 0
M  V30 3164 H 279.87 0.343495 -1.52479 0
M  V30 3165 H 280.605 2.87769 -1.49531 0
M  V30 3166 H 280.39 2.30235 -3.17387 0
M  V30 3167 H 281.88 3.17718 -2.71007 0
M  V30 3168 N 282.317 1.53212 0.369288 0
M  V30 3169 C 283.227 1.82342 1.47609 0
M  V30 3170 C 284.243 0.711532 1.58787 0
M  V30 3171 O 285.419 1.0012 1.74751 0
M  V30 3172 C 282.484 2.00393 2.8292 0
M  V30 3173 C 281.545 3.24297 2.81301 0
M  V30 3174 C 280.778 3.41478 4.10157 0
M  V30 3175 O 281.001 2.63033 5.06132 0
M  V30 3176 O 279.935 4.34817 4.16194 0
M  V30 3177 H 283.761 2.76366 1.25918 0
M  V30 3178 H 281.346 1.38547 0.559034 0
M  V30 3179 H 283.228 2.13859 3.63101 0
M  V30 3180 H 281.903 1.09559 3.04596 0
M  V30 3181 H 280.81 3.16257 1.99831 0
M  V30 3182 H 282.143 4.15041 2.64578 0
M  V30 3183 N 283.795 -0.628877 1.44509 0
M  V30 3184 C 284.742 -1.74074 1.51549 0
M  V30 3185 C 285.712 -1.62084 0.363021 0
M  V30 3186 O 286.897 -1.81975 0.573567 0
M  V30 3187 C 284.037 -3.12328 1.46784 0
M  V30 3188 C 283.15 -3.35277 2.72422 0
M  V30 3189 C 282.285 -4.63515 2.59475 0
M  V30 3190 C 281.324 -4.7965 3.80266 0
M  V30 3191 N 280.461 -5.99168 3.65981 0
M  V30 3192 H 285.301 -1.67392 2.46544 0
M  V30 3193 H 282.838 -0.816527 1.22357 0
M  V30 3194 H 284.796 -3.92286 1.42012 0
M  V30 3195 H 283.426 -3.18018 0.553544 0
M  V30 3196 H 282.478 -2.49242 2.87372 0
M  V30 3197 H 283.79 -3.43078 3.62076 0
M  V30 3198 H 282.944 -5.51638 2.52548 0
M  V30 3199 H 281.683 -4.58076 1.67384 0
M  V30 3200 H 280.688 -3.89957 3.87574 0
M  V30 3201 H 281.913 -4.86902 4.73395 0
M  V30 3202 H 279.859 -5.94814 2.76644 0
M  V30 3203 H 279.776 -6.08035 4.49254 0
M  V30 3204 H 281.044 -6.89846 3.6295 0
M  V30 3205 N 285.273 -1.31445 -0.869486 0
M  V30 3206 C 286.203 -1.21727 -1.99261 0
M  V30 3207 C 287.184 -0.104359 -1.6978 0
M  V30 3208 O 288.369 -0.289038 -1.92037 0
M  V30 3209 C 285.499 -0.924317 -3.34774 0
M  V30 3210 C 284.453 -1.99685 -3.78563 0
M  V30 3211 C 283.779 -1.55658 -5.11541 0
M  V30 3212 C 285.079 -3.41003 -3.95619 0
M  V30 3213 H 286.773 -2.1569 -2.07649 0
M  V30 3214 H 284.319 -1.03839 -0.997675 0
M  V30 3215 H 286.272 -0.842934 -4.12883 0
M  V30 3216 H 284.996 0.0509793 -3.2656 0
M  V30 3217 H 283.655 -2.06813 -3.02694 0
M  V30 3218 H 283.303 -0.569132 -4.9977 0
M  V30 3219 H 283.003 -2.27409 -5.41811 0
M  V30 3220 H 284.527 -1.48928 -5.92159 0
M  V30 3221 H 285.941 -3.36547 -4.64122 0
M  V30 3222 H 284.338 -4.10975 -4.37286 0
M  V30 3223 H 285.408 -3.81754 -2.98985 0
M  V30 3224 N 286.751 1.08385 -1.14413 0
M  V30 3225 C 288.028 1.77429 -0.823297 0
M  V30 3226 C 288.408 1.9974 0.683163 0
M  V30 3227 O 287.756 1.60739 1.62405 0
M  V30 3228 C 287.966 3.09004 -1.62227 0
M  V30 3229 C 289.314 3.83532 -1.82177 0
M  V30 3230 O 290.338 3.18786 -1.58915 0
M  V30 3231 O 289.197 4.99792 -2.21067 0
M  V30 3232 H 286.291 0.769999 -0.301712 0
M  V30 3233 H 288.837 1.14846 -1.24934 0
M  V30 3234 H 287.609 2.88316 -2.64555 0
M  V30 3235 H 287.232 3.79316 -1.19187 0
M  V30 3236 N 288.23 0.939286 1.26551 0
M  V30 3237 C 289.476 0.596234 1.94465 0
M  V30 3238 C 289.831 -0.855013 1.72358 0
M  V30 3239 O 289.124 -1.6034 1.04889 0
M  V30 3240 C 289.318 0.872106 3.46596 0
M  V30 3241 C 289.147 2.34862 3.83497 0
M  V30 3242 C 287.917 3.00344 4.06352 0
M  V30 3243 C 290.115 3.32697 3.92195 0
M  V30 3244 N 288.097 4.38027 4.30123 0
M  V30 3245 C 289.468 4.55631 4.20476 0
M  V30 3246 C 291.523 3.27747 3.74815 0
M  V30 3247 C 290.226 5.74233 4.33185 0
M  V30 3248 C 292.252 4.45672 3.88755 0
M  V30 3249 C 291.614 5.67388 4.17433 0
M  V30 3250 H 287.713 0.268515 0.734455 0
M  V30 3251 H 290.297 1.2083 1.5267 0
M  V30 3252 H 288.468 0.289102 3.87323 0
M  V30 3253 H 290.2 0.490513 4.01716 0
M  V30 3254 H 286.955 2.50969 4.01636 0
M  V30 3255 H 287.379 5.09288 4.46044 0
M  V30 3256 H 292.021 2.34703 3.51673 0
M  V30 3257 H 289.739 6.67731 4.55149 0
M  V30 3258 H 293.325 4.43372 3.76713 0
M  V30 3259 H 292.205 6.57115 4.27983 0
M  V30 3260 N 289.708 -1.40897 0.706093 0
M  V30 3261 C 290.671 -2.29131 0.0562841 0
M  V30 3262 C 291.671 -1.44901 -0.697166 0
M  V30 3263 O 292.861 -1.65926 -0.530484 0
M  V30 3264 C 289.993 -3.27957 -0.93043 0
M  V30 3265 H 291.186 -2.88091 0.833284 0
M  V30 3266 H 288.739 -1.4906 0.470192 0
M  V30 3267 H 289.474 -2.73997 -1.73482 0
M  V30 3268 H 289.259 -3.90124 -0.393166 0
M  V30 3269 H 290.749 -3.94049 -1.38256 0
M  V30 3270 N 291.186 -0.45159 -1.50991 0
M  V30 3271 C 292.602 -0.104647 -1.59257 0
M  V30 3272 C 292.802 1.38728 -1.4614 0
M  V30 3273 O 291.858 2.15866 -1.30989 0
M  V30 3274 C 293.171 -0.637468 -2.93865 0
M  V30 3275 C 294.719 -0.599166 -3.07212 0
M  V30 3276 C 295.194 -1.1092 -4.44366 0
M  V30 3277 N 296.685 -1.06778 -4.50725 0
M  V30 3278 C 297.42 -1.43314 -5.55201 0
M  V30 3279 N 296.916 -1.87204 -6.67028 0
M  V30 3280 N 298.709 -1.3504 -5.45638 0
M  V30 3281 H 290.86 -1.42214 -1.57762 0
M  V30 3282 H 293.123 -0.586921 -0.744465 0
M  V30 3283 H 292.829 -1.68187 -3.08879 0
M  V30 3284 H 292.703 -0.0702139 -3.77135 0
M  V30 3285 H 295.09 0.436277 -2.91857 0
M  V30 3286 H 295.171 -1.20299 -2.25747 0
M  V30 3287 H 294.815 -2.14318 -4.60467 0
M  V30 3288 H 294.745 -0.481773 -5.24392 0
M  V30 3289 H 297.236 -0.745643 -3.70471 0
M  V30 3290 H 297.549 -2.13282 -7.42786 0
M  V30 3291 H 295.894 -1.91142 -6.68199 0
M  V30 3292 H 299.085 -1.00607 -4.57161 0
M  V30 3293 H 299.258 -1.63841 -6.26945 0
M  V30 3294 N 292.664 1.56529 -0.183458 0
M  V30 3295 C 293.574 2.22144 0.754272 0
M  V30 3296 C 294.59 1.21684 1.24374 0
M  V30 3297 O 295.766 1.54385 1.29333 0
M  V30 3298 C 292.831 2.85884 1.96141 0
M  V30 3299 C 291.892 4.01579 1.51765 0
M  V30 3300 C 291.125 4.6227 2.66725 0
M  V30 3301 O 291.348 4.21865 3.83909 0
M  V30 3302 O 290.282 5.51936 2.40104 0
M  V30 3303 H 294.108 3.02861 0.225527 0
M  V30 3304 H 291.693 1.49331 0.0453032 0
M  V30 3305 H 293.575 3.26253 2.66715 0
M  V30 3306 H 292.25 2.08154 2.47899 0
M  V30 3307 H 291.157 3.65856 0.781049 0
M  V30 3308 H 292.49 4.80938 1.04686 0
M  V30 3309 N 294.142 -0.090211 1.57342 0
M  V30 3310 C 295.558 -0.444547 1.53284 0
M  V30 3311 C 295.758 -1.80238 0.900914 0
M  V30 3312 O 294.814 -2.4759 0.495513 0
M  V30 3313 C 296.127 -0.402543 2.97993 0
M  V30 3314 C 297.675 -0.48405 3.09234 0
M  V30 3315 C 298.15 -0.472144 4.5556 0
M  V30 3316 N 299.641 -0.532757 4.60126 0
M  V30 3317 C 300.376 -0.545462 5.708 0
M  V30 3318 N 299.872 -0.514082 6.9089 0
M  V30 3319 N 301.665 -0.59064 5.58988 0
M  V30 3320 H 293.816 0.799121 1.96794 0
M  V30 3321 H 296.079 0.297965 0.899956 0
M  V30 3322 H 295.785 0.528106 3.47712 0
M  V30 3323 H 295.659 -1.21969 3.56936 0
M  V30 3324 H 298.046 -1.40512 2.595 0
M  V30 3325 H 298.127 0.361328 2.53235 0
M  V30 3326 H 297.771 0.445 5.05947 0
M  V30 3327 H 297.701 -1.3348 5.09402 0
M  V30 3328 H 300.192 -0.562006 3.73698 0
M  V30 3329 H 300.505 -0.527195 7.71 0
M  V30 3330 H 298.85 -0.481054 6.93333 0
M  V30 3331 H 302.041 -0.61272 4.64073 0
M  V30 3332 H 302.214 -0.597073 6.45243 0
M  V30 3333 N 295.62 -1.53406 -0.361157 0
M  V30 3334 C 296.55 -1.83136 -1.44857 0
M  V30 3335 C 297.531 -0.685174 -1.5569 0
M  V30 3336 O 298.716 -0.93544 -1.70186 0
M  V30 3337 C 295.846 -2.02522 -2.82138 0
M  V30 3338 C 294.8 -3.18302 -2.86126 0
M  V30 3339 C 294.126 -3.22989 -4.26125 0
M  V30 3340 C 295.426 -4.56796 -2.53248 0
M  V30 3341 H 297.12 -2.74201 -1.20226 0
M  V30 3342 H 294.666 -1.31938 -0.576922 0
M  V30 3343 H 296.619 -2.21904 -3.58241 0
M  V30 3344 H 295.343 -1.08172 -3.08166 0
M  V30 3345 H 294.002 -2.98747 -2.12475 0
M  V30 3346 H 293.65 -2.26267 -4.49235 0
M  V30 3347 H 293.35 -4.00781 -4.29708 0
M  V30 3348 H 294.874 -3.44559 -5.04094 0
M  V30 3349 H 296.288 -4.7631 -3.19064 0
M  V30 3350 H 294.685 -5.36862 -2.68141 0
M  V30 3351 H 295.755 -4.61606 -1.48484 0
M  V30 3352 N 297.098 0.621204 -1.44841 0
M  V30 3353 C 298.008 1.7612 -1.5498 0
M  V30 3354 C 299.024 1.68477 -0.434927 0
M  V30 3355 O 300.2 1.89076 -0.693693 0
M  V30 3356 C 297.265 3.1254 -1.50065 0
M  V30 3357 C 296.326 3.31741 -2.72482 0
M  V30 3358 C 295.559 4.61653 -2.67792 0
M  V30 3359 O 295.782 5.431 -1.74352 0
M  V30 3360 O 294.716 4.83271 -3.58794 0
M  V30 3361 H 298.542 1.70518 -2.51311 0
M  V30 3362 H 296.127 0.783643 -1.27198 0
M  V30 3363 H 298.009 3.93844 -1.49882 0
M  V30 3364 H 296.684 3.18663 -0.568806 0
M  V30 3365 H 295.591 2.50077 -2.7823 0
M  V30 3366 H 296.924 3.30486 -3.64746 0
M  V30 3367 N 298.576 1.31904 0.862503 0
M  V30 3368 C 299.508 1.16005 1.97675 0
M  V30 3369 C 300.521 0.0971234 1.6251 0
M  V30 3370 O 301.71 0.345337 1.75128 0
M  V30 3371 C 298.81 0.751791 3.30456 0
M  V30 3372 C 297.983 1.90133 3.93914 0
M  V30 3373 C 297.042 1.4779 5.05019 0
M  V30 3374 O 296.068 2.18872 5.25437 0
M  V30 3375 N 297.27 0.369491 5.79323 0
M  V30 3376 H 300.035 2.11982 2.11857 0
M  V30 3377 H 297.596 1.24337 1.03691 0
M  V30 3378 H 299.588 0.451084 4.02178 0
M  V30 3379 H 298.158 -0.116593 3.12382 0
M  V30 3380 H 297.378 2.36896 3.15078 0
M  V30 3381 H 298.666 2.67111 4.33047 0
M  V30 3382 H 298.064 -0.222299 5.65263 0
M  V30 3383 H 296.621 0.128354 6.51674 0
M  V30 3384 N 300.054 -1.07777 1.14986 0
M  V30 3385 C 300.986 -2.14769 0.800436 0
M  V30 3386 C 301.999 -1.61739 -0.185595 0
M  V30 3387 O 303.188 -1.78462 0.0370358 0
M  V30 3388 C 300.288 -3.38481 0.168533 0
M  V30 3389 C 299.461 -4.20876 1.1909 0
M  V30 3390 C 298.52 -5.22976 0.581575 0
M  V30 3391 O 297.546 -5.55388 1.24633 0
M  V30 3392 N 298.748 -5.76976 -0.638706 0
M  V30 3393 H 301.513 -2.45348 1.72118 0
M  V30 3394 H 299.074 -1.23645 1.04515 0
M  V30 3395 H 301.066 -4.03916 -0.251764 0
M  V30 3396 H 299.636 -3.05651 -0.655467 0
M  V30 3397 H 298.856 -3.51322 1.78791 0
M  V30 3398 H 300.144 -4.7274 1.88133 0
M  V30 3399 H 299.542 -5.52886 -1.19723 0
M  V30 3400 H 298.099 -6.44061 -1.00142 0
M  V30 3401 N 301.532 -0.945985 -1.26051 0
M  V30 3402 C 302.778 -0.597002 -1.93814 0
M  V30 3403 C 303.111 0.862484 -1.73997 0
M  V30 3404 O 302.386 1.61769 -1.07986 0
M  V30 3405 C 302.669 -0.945937 -3.47454 0
M  V30 3406 C 302.522 -2.46052 -3.76535 0
M  V30 3407 C 303.841 -0.464785 -4.37639 0
M  V30 3408 H 300.96 -0.218366 -0.703907 0
M  V30 3409 H 303.602 -1.18107 -1.48831 0
M  V30 3410 H 301.752 -0.448902 -3.85898 0
M  V30 3411 H 303.424 -3.03065 -3.47778 0
M  V30 3412 H 301.667 -2.90194 -3.22444 0
M  V30 3413 H 302.338 -2.65517 -4.83947 0
M  V30 3414 H 304.814 -0.891016 -4.06448 0
M  V30 3415 H 303.69 -0.737712 -5.4392 0
M  V30 3416 H 303.951 0.635274 -4.37512 0
M  V30 3417 N 303.011 1.40521 -0.713556 0
M  V30 3418 C 304.422 1.83853 -0.324807 0
M  V30 3419 C 304.773 1.59667 1.14021 0
M  V30 3420 O 303.898 1.07649 1.87725 0
M  V30 3421 C 304.493 3.33751 -0.582746 0
M  V30 3422 C 303.052 3.75584 -0.247727 0
M  V30 3423 C 302.199 2.63753 -0.856121 0
M  V30 3424 H 305.15 1.29817 -0.91286 0
M  V30 3425 H 305.171 3.80194 0.152682 0
M  V30 3426 H 304.683 3.51322 -1.64908 0
M  V30 3427 H 302.784 3.63608 0.813624 0
M  V30 3428 H 302.897 4.7373 -0.715307 0
M  V30 3429 H 301.261 2.53108 -0.28432 0
M  V30 3430 H 302.044 2.84137 -1.92668 0
M  V30 3431 N 304.489 0.459591 1.5075 0
M  V30 3432 C 305.735 -0.0994966 2.02556 0
M  V30 3433 C 306.068 -1.40399 1.3417 0
M  V30 3434 O 305.343 -1.88892 0.463683 0
M  V30 3435 C 305.626 -0.295242 3.58888 0
M  V30 3436 C 305.479 1.02947 4.37861 0
M  V30 3437 C 306.798 -1.05502 4.27267 0
M  V30 3438 H 303.917 -0.034686 0.736183 0
M  V30 3439 H 306.559 0.602938 1.8018 0
M  V30 3440 H 304.709 -0.893563 3.78084 0
M  V30 3441 H 306.381 1.66348 4.30263 0
M  V30 3442 H 304.624 1.62885 4.02058 0
M  V30 3443 H 305.295 0.846281 5.45474 0
M  V30 3444 H 307.771 -0.547993 4.12476 0
M  V30 3445 H 306.647 -1.16077 5.36486 0
M  V30 3446 H 306.908 -2.08875 3.89645 0
M  V30 3447 N 305.967 -1.56429 0.191757 0
M  V30 3448 C 306.915 -2.20273 -0.747174 0
M  V30 3449 C 307.909 -1.17288 -1.22229 0
M  V30 3450 O 309.115 -1.35441 -1.18557 0
M  V30 3451 H 305.49 -0.705885 -0.259289 0
M  V30 3452 H 307.461 -2.97826 -0.184963 0
M  V30 3453 C 306.21 -2.87356 -1.95759 0
M  V30 3454 H 305.533 -3.66341 -1.60106 0
M  V30 3455 H 306.973 -3.3547 -2.59299 0
M  V30 3456 C 305.432 -1.88213 -2.79423 0
M  V30 3457 O 305.962 -1.38033 -3.7724 0
M  V30 3458 N 304.168 -1.56516 -2.44849 0
M  V30 3459 H 303.715 -1.97516 -1.65364 0
M  V30 3460 H 303.673 -0.904369 -3.01112 0
M  V30 3461 N 307.445 0.0818655 -1.57387 0
M  V30 3462 C 308.377 1.12484 -1.997 0
M  V30 3463 C 309.39 1.35564 -0.90146 0
M  V30 3464 O 310.579 1.33982 -1.17945 0
M  V30 3465 C 307.679 2.47778 -2.31213 0
M  V30 3466 C 306.852 2.44793 -3.62485 0
M  V30 3467 C 305.911 3.62117 -3.81782 0
M  V30 3468 O 304.937 3.44005 -4.53486 0
M  V30 3469 N 306.139 4.82094 -3.23367 0
M  V30 3470 H 308.904 0.764585 -2.89783 0
M  V30 3471 H 306.465 0.270664 -1.59621 0
M  V30 3472 H 308.457 3.24891 -2.41304 0
M  V30 3473 H 307.027 2.75843 -1.4707 0
M  V30 3474 H 306.247 1.53134 -3.6324 0
M  V30 3475 H 307.535 2.39889 -4.48699 0
M  V30 3476 H 306.933 4.99713 -2.65148 0
M  V30 3477 H 305.49 5.56753 -3.38923 0
M  V30 3478 N 308.923 1.53595 0.353017 0
M  V30 3479 C 310.169 1.70638 1.09593 0
M  V30 3480 C 310.502 0.463286 1.88593 0
M  V30 3481 O 309.777 -0.539597 1.86865 0
M  V30 3482 C 310.06 2.96406 2.04489 0
M  V30 3483 C 309.913 4.30901 1.29014 0
M  V30 3484 C 311.232 3.17812 3.0444 0
M  V30 3485 H 308.351 0.620913 0.397034 0
M  V30 3486 H 310.993 1.86254 0.375446 0
M  V30 3487 H 309.143 2.83223 2.65927 0
M  V30 3488 H 310.815 4.55917 0.702638 0
M  V30 3489 H 309.058 4.29741 0.592071 0
M  V30 3490 H 309.729 5.1506 1.98537 0
M  V30 3491 H 312.205 3.30263 2.53112 0
M  V30 3492 H 311.081 4.07223 3.6805 0
M  V30 3493 H 311.342 2.33669 3.75301 0
M  V30 3494 N 310.401 -0.613514 1.45168 0
M  V30 3495 C 311.648 -1.37268 1.48875 0
M  V30 3496 C 311.976 -1.94077 0.128161 0
M  V30 3497 O 311.231 -1.75178 -0.872416 0
M  V30 3498 C 311.53 -2.54347 2.51083 0
M  V30 3499 C 311.196 -2.1572 3.95949 0
M  V30 3500 C 309.858 -2.04899 4.35396 0
M  V30 3501 C 312.21 -1.85485 4.87078 0
M  V30 3502 C 309.538 -1.62057 5.63875 0
M  V30 3503 C 311.89 -1.4413 6.15962 0
M  V30 3504 C 310.554 -1.31863 6.54346 0
M  V30 3505 H 309.824 -0.502299 0.544773 0
M  V30 3506 H 312.471 -0.694021 1.78481 0
M  V30 3507 H 310.776 -3.27524 2.15024 0
M  V30 3508 H 312.473 -3.12577 2.51191 0
M  V30 3509 H 309.063 -2.25066 3.64751 0
M  V30 3510 H 313.247 -1.92745 4.57343 0
M  V30 3511 H 308.503 -1.51177 5.92415 0
M  V30 3512 H 312.677 -1.19778 6.86022 0
M  V30 3513 H 310.304 -0.984392 7.538 0
M  V30 3514 N 311.879 -1.3236 -0.855495 0
M  V30 3515 C 313.127 -1.22629 -1.60644 0
M  V30 3516 C 313.448 0.212136 -1.93843 0
M  V30 3517 O 312.718 1.13666 -1.59552 0
M  V30 3518 H 311.298 -0.450882 -0.595579 0
M  V30 3519 H 313.96 -1.65871 -1.02337 0
M  V30 3520 H 313.056 -1.80832 -2.54374 0
M  V30 3521 N 313.357 1.07166 -1.15556 0
M  V30 3522 C 314.289 2.14341 -0.811815 0
M  V30 3523 C 315.302 1.61835 0.177015 0
M  V30 3524 O 316.491 1.78439 -0.0464996 0
M  V30 3525 C 313.591 3.38387 -0.186481 0
M  V30 3526 C 312.764 4.20238 -1.21321 0
M  V30 3527 C 311.823 5.2266 -0.609302 0
M  V30 3528 O 310.849 5.54719 -1.27576 0
M  V30 3529 N 312.051 5.77306 0.608099 0
M  V30 3530 H 314.816 2.44431 -1.73417 0
M  V30 3531 H 312.377 1.23089 -1.0517 0
M  V30 3532 H 314.369 4.04044 0.230339 0
M  V30 3533 H 312.939 3.05994 0.639249 0
M  V30 3534 H 312.159 3.50369 -1.80652 0
M  V30 3535 H 313.447 4.71736 -1.90638 0
M  V30 3536 H 312.845 5.53513 1.1679 0
M  V30 3537 H 311.402 6.44583 0.96725 0
M  V30 3538 N 314.835 0.952656 1.25548 0
M  V30 3539 C 316.112 0.523818 1.88456 0
M  V30 3540 C 316.492 -0.998871 1.85973 0
M  V30 3541 O 315.84 -1.86381 1.3219 0
M  V30 3542 C 316.05 1.0982 3.31271 0
M  V30 3543 C 317.398 1.17385 4.08051 0
M  V30 3544 O 318.422 1.04961 3.40384 0
M  V30 3545 O 317.281 1.36852 5.29088 0
M  V30 3546 H 314.375 0.172485 0.808813 0
M  V30 3547 H 316.921 1.04596 1.33633 0
M  V30 3548 H 315.693 2.1415 3.27499 0
M  V30 3549 H 315.316 0.559191 3.93648 0
M  V30 3550 N 316.313 -1.40141 0.720998 0
M  V30 3551 C 317.223 -2.34486 0.0731031 0
M  V30 3552 C 318.239 -1.57587 -0.737723 0
M  V30 3553 O 319.415 -1.89949 -0.669429 0
M  V30 3554 C 316.48 -3.36528 -0.833656 0
M  V30 3555 C 315.541 -4.29298 -0.0121673 0
M  V30 3556 C 314.774 -5.26466 -0.875742 0
M  V30 3557 O 314.997 -5.29745 -2.11485 0
M  V30 3558 O 313.931 -6.01092 -0.31185 0
M  V30 3559 H 317.757 -2.9152 0.851444 0
M  V30 3560 H 315.342 -1.41427 0.481527 0
M  V30 3561 H 317.224 -3.99093 -1.35289 0
M  V30 3562 H 315.899 -2.81899 -1.59105 0
M  V30 3563 H 314.806 -3.70001 0.552262 0
M  V30 3564 H 316.139 -4.87094 0.707129 0
M  V30 3565 N 317.792 -0.46758 -1.50504 0
M  V30 3566 C 318.725 0.374324 -2.25109 0
M  V30 3567 C 319.703 0.99921 -1.28275 0
M  V30 3568 O 320.887 1.03583 -1.57489 0
M  V30 3569 C 318.014 1.52419 -3.02467 0
M  V30 3570 C 317.06 1.01702 -4.14197 0
M  V30 3571 S 317.893 -0.0654477 -5.3546 0
M  V30 3572 C 319.049 1.08837 -6.16365 0
M  V30 3573 H 319.282 -0.258983 -2.9617 0
M  V30 3574 H 316.815 -0.252421 -1.52323 0
M  V30 3575 H 318.773 2.18322 -3.47628 0
M  V30 3576 H 317.434 2.129 -2.30938 0
M  V30 3577 H 316.627 1.87776 -4.67714 0
M  V30 3578 H 316.229 0.435757 -3.71453 0
M  V30 3579 H 318.521 2.00071 -6.47285 0
M  V30 3580 H 319.464 0.592538 -7.05616 0
M  V30 3581 H 319.872 1.34061 -5.4835 0
M  V30 3582 N 319.27 1.56325 -0.20005 0
M  V30 3583 C 320.519 1.96895 0.437652 0
M  V30 3584 C 320.832 1.08999 1.62415 0
M  V30 3585 O 322.038 1.39372 2.32997 0
M  V30 3586 C 320.494 3.50198 0.830025 0
M  V30 3587 C 320.102 4.46765 -0.332461 0
M  V30 3588 C 321.846 3.99526 1.43453 0
M  V30 3589 C 319.753 5.91344 0.0811468 0
M  V30 3590 H 318.683 0.735209 0.167282 0
M  V30 3591 H 321.334 1.81148 -0.292853 0
M  V30 3592 H 319.716 3.61467 1.61734 0
M  V30 3593 H 320.89 4.47231 -1.11 0
M  V30 3594 H 319.205 4.07657 -0.848789 0
M  V30 3595 H 321.802 5.05025 1.75652 0
M  V30 3596 H 322.145 3.44122 2.34277 0
M  V30 3597 H 322.678 3.91393 0.71109 0
M  V30 3598 H 319.417 6.50685 -0.793033 0
M  V30 3599 H 318.937 5.94121 0.823445 0
M  V30 3600 H 320.616 6.44945 0.515252 0
M  V30 3601 N 320.748 -0.0735177 1.57428 0
M  V30 3602 C 322.025 -0.805903 1.78226 0
M  V30 3603 C 322.405 -1.95874 0.787189 0
M  V30 3604 O 321.753 -2.2779 -0.180029 0
M  V30 3605 C 321.963 -1.28045 3.24662 0
M  V30 3606 C 323.311 -1.71453 3.88444 0
M  V30 3607 O 324.335 -1.37616 3.28543 0
M  V30 3608 O 323.194 -2.34093 4.93825 0
M  V30 3609 H 320.288 -0.386041 0.73137 0
M  V30 3610 H 322.834 -0.0537269 1.69615 0
M  V30 3611 H 321.606 -0.455476 3.8864 0
M  V30 3612 H 321.229 -2.094 3.37991 0
M  V30 3613 N 322.226 -1.5378 -0.344866 0
M  V30 3614 C 323.472 -1.71216 -1.08687 0
M  V30 3615 C 323.805 -0.473281 -1.88345 0
M  V30 3616 O 323.08 0.52968 -1.87149 0
M  V30 3617 C 323.363 -2.97486 -2.02914 0
M  V30 3618 C 323.216 -4.31579 -1.26727 0
M  V30 3619 C 324.535 -3.19422 -3.0275 0
M  V30 3620 H 321.654 -0.62301 -0.393735 0
M  V30 3621 H 324.296 -1.8645 -0.365563 0
M  V30 3622 H 322.446 -2.84629 -2.64421 0
M  V30 3623 H 324.118 -4.56284 -0.67845 0
M  V30 3624 H 322.361 -4.30049 -0.569273 0
M  V30 3625 H 323.032 -5.16106 -1.95803 0
M  V30 3626 H 325.508 -3.316 -2.51357 0
M  V30 3627 H 324.384 -4.09169 -3.65885 0
M  V30 3628 H 324.645 -2.35656 -3.74057 0
M  V30 3629 N 323.704 0.605807 -1.45491 0
M  V30 3630 C 324.953 1.36086 -1.48874 0
M  V30 3631 C 325.266 1.95131 -0.135333 0
M  V30 3632 O 326.472 2.7146 -0.0468144 0
M  V30 3633 C 324.928 2.46518 -2.62215 0
M  V30 3634 C 324.536 1.93877 -4.03876 0
M  V30 3635 C 326.28 3.23512 -2.74846 0
M  V30 3636 C 324.187 3.01801 -5.08596 0
M  V30 3637 H 323.117 0.511497 -0.553974 0
M  V30 3638 H 325.768 0.649089 -1.71636 0
M  V30 3639 H 324.15 3.20388 -2.32739 0
M  V30 3640 H 325.324 1.26704 -4.43038 0
M  V30 3641 H 323.639 1.29622 -3.95711 0
M  V30 3642 H 326.236 4.04013 -3.50253 0
M  V30 3643 H 326.579 3.74631 -1.81542 0
M  V30 3644 H 327.112 2.56742 -3.03856 0
M  V30 3645 H 323.851 2.55597 -6.03614 0
M  V30 3646 H 323.371 3.67535 -4.74002 0
M  V30 3647 H 325.05 3.66152 -5.33424 0
M  V30 3648 N 325.182 1.32811 0.848464 0
M  V30 3649 C 326.43 1.23479 1.59991 0
M  V30 3650 C 326.751 -0.201853 1.93952 0
M  V30 3651 O 326.021 -1.12818 1.60153 0
M  V30 3652 H 324.601 0.454034 0.593179 0
M  V30 3653 H 327.263 1.66412 1.01455 0
M  V30 3654 H 326.359 1.82178 2.53412 0
M  V30 3655 N 326.66 -1.06551 1.16123 0
M  V30 3656 C 327.906 -1.79567 0.94252 0
M  V30 3657 C 328.239 -1.86869 -0.528547 0
M  V30 3658 O 327.514 -1.35838 -1.39206 0
M  V30 3659 C 327.797 -3.24195 1.56747 0
M  V30 3660 C 327.65 -3.24989 3.10969 0
M  V30 3661 C 328.969 -4.21678 1.25998 0
M  V30 3662 H 326.088 -0.651883 0.343828 0
M  V30 3663 H 328.73 -1.2463 1.43413 0
M  V30 3664 H 326.88 -3.71107 1.14942 0
M  V30 3665 H 328.552 -2.86258 3.61737 0
M  V30 3666 H 326.795 -2.63716 3.44436 0
M  V30 3667 H 327.466 -4.27005 3.49815 0
M  V30 3668 H 329.942 -3.83196 1.62174 0
M  V30 3669 H 328.818 -5.21146 1.7233 0
M  V30 3670 H 329.079 -4.4174 0.178367 0
M  V30 3671 N 328.138 -0.959301 -1.25041 0
M  V30 3672 C 329.366 -0.633949 -1.96948 0
M  V30 3673 C 329.781 0.794916 -1.7125 0
M  V30 3674 O 329.138 1.53231 -0.991287 0
M  V30 3675 C 329.189 -0.888805 -3.50403 0
M  V30 3676 O 328.91 -2.26149 -3.75218 0
M  V30 3677 C 330.411 -0.576482 -4.39536 0
M  V30 3678 H 327.631 -0.237263 -0.627652 0
M  V30 3679 H 330.175 -1.28495 -1.59089 0
M  V30 3680 H 328.33 -0.284145 -3.86357 0
M  V30 3681 H 328.744 -2.33514 -4.6965 0
M  V30 3682 H 330.218 -0.805314 -5.46094 0
M  V30 3683 H 330.695 0.489075 -4.36468 0
M  V30 3684 H 331.301 -1.16067 -4.09156 0
M  V30 3685 N 329.616 1.39756 -0.72842 0
M  V30 3686 C 330.563 2.30647 -0.0841519 0
M  V30 3687 C 331.533 1.48869 0.7367 0
M  V30 3688 O 332.718 1.77574 0.698015 0
M  V30 3689 C 329.858 3.35165 0.822091 0
M  V30 3690 C 328.971 4.31999 -0.0106663 0
M  V30 3691 C 328.106 5.23585 0.896241 0
M  V30 3692 C 327.145 6.12072 0.0583381 0
M  V30 3693 N 326.282 6.96035 0.920818 0
M  V30 3694 H 331.122 2.85173 -0.864891 0
M  V30 3695 H 328.659 1.40422 -0.438179 0
M  V30 3696 H 330.617 3.94345 1.36189 0
M  V30 3697 H 329.247 2.8211 1.56888 0
M  V30 3698 H 328.299 3.74492 -0.66781 0
M  V30 3699 H 329.611 4.9443 -0.658825 0
M  V30 3700 H 328.765 5.87759 1.50412 0
M  V30 3701 H 327.504 4.61459 1.57819 0
M  V30 3702 H 326.509 5.46916 -0.562389 0
M  V30 3703 H 327.734 6.76261 -0.6203 0
M  V30 3704 H 325.68 6.36485 1.58818 0
M  V30 3705 H 325.597 7.55284 0.32899 0
M  V30 3706 H 326.865 7.64646 1.51447 0
M  V30 3707 N 331.094 0.475555 1.50254 0
M  V30 3708 C 332.342 -0.077738 2.0195 0
M  V30 3709 C 332.663 -1.39813 1.35931 0
M  V30 3710 O 331.933 -1.89249 0.506123 0
M  V30 3711 H 330.513 -0.031719 0.746326 0
M  V30 3712 H 333.175 0.626995 1.84539 0
M  V30 3713 H 332.271 -0.225995 3.11281 0
M  V30 3714 N 332.573 -1.56217 0.208337 0
M  V30 3715 C 333.52 -2.19699 -0.707192 0
M  V30 3716 C 334.49 -1.14836 -1.20008 0
M  V30 3717 O 335.675 -1.4314 -1.26157 0
M  V30 3718 C 332.815 -2.87061 -1.91546 0
M  V30 3719 C 331.928 -4.06483 -1.46271 0
M  V30 3720 C 331.063 -4.61665 -2.62752 0
M  V30 3721 C 330.102 -5.73417 -2.14147 0
M  V30 3722 N 329.239 -6.22948 -3.23853 0
M  V30 3723 H 334.079 -2.97575 -0.159111 0
M  V30 3724 H 331.616 -1.46948 -0.0667874 0
M  V30 3725 H 333.574 -3.24294 -2.62468 0
M  V30 3726 H 332.204 -2.11725 -2.43664 0
M  V30 3727 H 331.256 -3.74825 -0.648886 0
M  V30 3728 H 332.568 -4.87271 -1.06622 0
M  V30 3729 H 331.722 -5.01272 -3.41776 0
M  V30 3730 H 330.461 -3.80013 -3.05682 0
M  V30 3731 H 329.466 -5.33326 -1.33581 0
M  V30 3732 H 330.691 -6.56897 -1.72232 0
M  V30 3733 H 328.637 -5.44213 -3.6629 0
M  V30 3734 H 328.554 -6.98823 -2.88414 0
M  V30 3735 H 329.822 -6.6721 -4.03052 0
M  V30 3736 N 334.051 0.0651679 -1.57465 0
M  V30 3737 C 335.299 0.761555 -1.87202 0
M  V30 3738 C 335.62 1.77778 -0.801243 0
M  V30 3739 O 334.89 1.95166 0.16937 0
M  V30 3740 H 333.47 0.284251 -0.690804 0
M  V30 3741 H 336.132 0.0396827 -1.9486 0
M  V30 3742 H 335.228 1.27365 -2.84929 0
M  V30 3743 N 335.529 1.53961 0.336706 0
M  V30 3744 C 336.759 1.75229 1.09446 0
M  V30 3745 C 337.167 0.494602 1.82621 0
M  V30 3746 O 336.51 -0.543764 1.75468 0
M  V30 3747 C 336.572 2.88288 2.1478 0
M  V30 3748 C 336.236 4.27656 1.6112 0
M  V30 3749 C 337.233 5.08981 1.0599 0
M  V30 3750 C 334.918 4.74161 1.6576 0
M  V30 3751 C 336.912 6.34916 0.562129 0
M  V30 3752 C 334.599 6.00067 1.15595 0
M  V30 3753 C 335.597 6.80278 0.609147 0
M  V30 3754 O 335.285 8.03818 0.114999 0
M  V30 3755 H 335.017 0.588881 0.331956 0
M  V30 3756 H 337.571 2.01614 0.392566 0
M  V30 3757 H 335.801 2.57443 2.88548 0
M  V30 3758 H 337.49 2.97461 2.76174 0
M  V30 3759 H 338.256 4.74213 1.01722 0
M  V30 3760 H 334.135 4.11781 2.07261 0
M  V30 3761 H 337.679 6.9747 0.134668 0
M  V30 3762 H 333.576 6.3433 1.19566 0
M  V30 3763 H 334.344 8.18172 0.231651 0
M  V30 3764 N 337.007 -0.598083 1.45811 0
M  V30 3765 C 337.954 -1.7082 1.55207 0
M  V30 3766 C 338.924 -1.61278 0.39732 0
M  V30 3767 O 340.109 -1.80717 0.612038 0
M  V30 3768 C 337.249 -3.09144 1.53376 0
M  V30 3769 C 336.362 -3.29423 2.79472 0
M  V30 3770 C 335.497 -4.57907 2.69248 0
M  V30 3771 C 334.536 -4.71476 3.90354 0
M  V30 3772 N 333.673 -5.9127 3.78608 0
M  V30 3773 H 338.513 -1.62125 2.50039 0
M  V30 3774 H 336.05 -0.790389 1.24062 0
M  V30 3775 H 338.008 -3.89186 1.50301 0
M  V30 3776 H 336.638 -3.16773 0.620876 0
M  V30 3777 H 335.69 -2.43091 2.92594 0
M  V30 3778 H 337.002 -3.3532 3.69272 0
M  V30 3779 H 336.156 -5.46157 2.64192 0
M  V30 3780 H 334.895 -4.54423 1.77063 0
M  V30 3781 H 333.9 -3.81648 3.95759 0
M  V30 3782 H 335.125 -4.76751 4.83617 0
M  V30 3783 H 333.071 -5.88813 2.89199 0
M  V30 3784 H 332.988 -5.98369 4.6205 0
M  V30 3785 H 334.256 -6.81992 3.77501 0
M  V30 3786 N 338.485 -1.33259 -0.841409 0
M  V30 3787 C 339.733 -1.24326 -1.59334 0
M  V30 3788 C 340.054 0.191564 -1.94057 0
M  V30 3789 O 339.324 1.11967 -1.60749 0
M  V30 3790 H 337.904 -0.457174 -0.590763 0
M  V30 3791 H 340.566 -1.66947 -1.00571 0
M  V30 3792 H 339.662 -1.8352 -2.52442 0
M  V30 3793 N 339.963 1.05934 -1.16686 0
M  V30 3794 C 341.209 1.79065 -0.95203 0
M  V30 3795 C 341.542 1.87147 0.518629 0
M  V30 3796 O 340.817 1.36574 1.38484 0
M  V30 3797 C 341.1 3.23359 -1.58464 0
M  V30 3798 C 340.953 3.23336 -3.12689 0
M  V30 3799 C 342.272 4.21004 -1.28232 0
M  V30 3800 H 339.391 0.65005 -0.34728 0
M  V30 3801 H 342.033 1.23868 -1.44072 0
M  V30 3802 H 340.183 3.70493 -1.16908 0
M  V30 3803 H 341.855 2.84336 -3.6325 0
M  V30 3804 H 340.098 2.61886 -3.4583 0
M  V30 3805 H 340.769 4.25144 -3.52075 0
M  V30 3806 H 343.245 3.8233 -1.64203 0
M  V30 3807 H 342.121 5.20225 -1.75092 0
M  V30 3808 H 342.382 4.41639 -0.201791 0
M  V30 3809 N 341.441 0.965919 1.2453 0
M  V30 3810 C 342.669 0.644385 1.96609 0
M  V30 3811 C 343.084 -0.785823 1.71669 0
M  V30 3812 O 342.441 -1.52703 0.999399 0
M  V30 3813 C 342.492 0.907375 3.49927 0
M  V30 3814 O 342.213 2.28136 3.74013 0
M  V30 3815 C 343.714 0.599784 4.39224 0
M  V30 3816 H 340.934 0.240588 0.626385 0
M  V30 3817 H 343.478 1.29337 1.58405 0
M  V30 3818 H 341.633 0.304631 3.862 0
M  V30 3819 H 342.047 2.36002 4.68405 0
M  V30 3820 H 343.521 0.834263 5.45659 0
M  V30 3821 H 343.998 -0.465921 4.36722 0
M  V30 3822 H 344.604 1.18235 4.08535 0
M  V30 3823 N 342.919 -1.39368 0.735821 0
M  V30 3824 C 344.144 -2.05319 0.293052 0
M  V30 3825 C 344.569 -1.55115 -1.064 0
M  V30 3826 O 343.927 -0.695261 -1.67439 0
M  V30 3827 C 343.975 -3.59305 0.305323 0
M  V30 3828 O 343.079 -4.06299 -0.706761 0
M  V30 3829 H 342.42 -0.650529 0.13307 0
M  V30 3830 H 344.95 -1.78386 1.00197 0
M  V30 3831 H 344.96 -4.07724 0.149997 0
M  V30 3832 H 343.635 -3.95207 1.29553 0
M  V30 3833 H 342.212 -3.69292 -0.517504 0
M  V30 3834 N 344.397 -0.483516 -1.5 0
M  V30 3835 C 345.813 -0.138404 -1.58999 0
M  V30 3836 C 346.013 1.35597 -1.4905 0
M  V30 3837 O 345.069 2.13039 -1.35539 0
M  V30 3838 C 346.382 -0.699658 -2.92447 0
M  V30 3839 C 347.93 -0.664195 -3.05872 0
M  V30 3840 C 348.405 -1.20321 -4.41913 0
M  V30 3841 N 349.896 -1.16315 -4.48358 0
M  V30 3842 C 350.631 -1.55058 -5.52037 0
M  V30 3843 N 350.127 -2.01311 -6.62907 0
M  V30 3844 N 351.92 -1.46584 -5.42651 0
M  V30 3845 H 344.071 -1.45529 -1.5471 0
M  V30 3846 H 346.334 -0.60258 -0.731848 0
M  V30 3847 H 346.04 -1.747 -3.05242 0
M  V30 3848 H 345.914 -0.150194 -3.76901 0
M  V30 3849 H 348.301 0.374272 -2.92717 0
M  V30 3850 H 348.382 -1.25061 -2.23144 0
M  V30 3851 H 348.026 -2.24037 -4.55818 0
M  V30 3852 H 347.956 -0.592896 -5.23252 0
M  V30 3853 H 350.447 -0.824058 -3.68806 0
M  V30 3854 H 350.76 -2.2899 -7.38095 0
M  V30 3855 H 349.105 -2.05273 -6.63994 0
M  V30 3856 H 352.296 -1.10281 -4.54924 0
M  V30 3857 H 352.469 -1.77103 -6.23329 0
M  V30 3858 N 345.875 1.56104 -0.216619 0
M  V30 3859 C 347.121 1.99219 0.410301 0
M  V30 3860 C 347.476 1.10169 1.57735 0
M  V30 3861 O 346.769 0.150598 1.91007 0
M  V30 3862 C 346.963 3.45923 0.898464 0
M  V30 3863 C 346.792 4.49163 -0.219748 0
M  V30 3864 C 345.562 5.00642 -0.684516 0
M  V30 3865 C 347.76 5.03751 -1.03629 0
M  V30 3866 N 345.742 5.87579 -1.7783 0
M  V30 3867 C 347.113 5.87566 -1.97904 0
M  V30 3868 C 349.168 4.86128 -1.07629 0
M  V30 3869 C 347.871 6.5564 -2.95851 0
M  V30 3870 C 349.897 5.54958 -2.04392 0
M  V30 3871 C 349.259 6.38536 -2.97407 0
M  V30 3872 H 345.358 0.773206 0.11695 0
M  V30 3873 H 347.942 1.9193 -0.327258 0
M  V30 3874 H 346.113 3.53669 1.6054 0
M  V30 3875 H 347.845 3.75963 1.49779 0
M  V30 3876 H 344.6 4.72807 -0.27399 0
M  V30 3877 H 345.024 6.3575 -2.32705 0
M  V30 3878 H 349.666 4.21168 -0.371099 0
M  V30 3879 H 347.384 7.19785 -3.67335 0
M  V30 3880 H 350.97 5.43289 -2.08154 0
M  V30 3881 H 349.85 6.90858 -3.71059 0
M  V30 3882 N 347.353 -0.0568162 1.57498 0
M  V30 3883 C 348.303 -1.07315 2.01166 0
M  V30 3884 C 349.287 -1.33632 0.896171 0
M  V30 3885 O 350.479 -1.33682 1.16009 0
M  V30 3886 C 347.608 -2.38257 2.47161 0
M  V30 3887 C 346.694 -2.1515 3.65474 0
M  V30 3888 N 347.085 -1.62014 4.7915 0
M  V30 3889 C 345.383 -2.45559 3.72313 0
M  V30 3890 C 346.084 -1.54069 5.60926 0
M  V30 3891 N 345.06 -2.00652 5.05213 0
M  V30 3892 H 348.862 -0.655878 2.86488 0
M  V30 3893 H 346.376 -0.263635 1.60246 0
M  V30 3894 H 348.373 -3.11845 2.76691 0
M  V30 3895 H 347.033 -2.80687 1.63232 0
M  V30 3896 H 348.044 -1.30667 5.01145 0
M  V30 3897 H 344.721 -2.91253 2.99129 0
M  V30 3898 H 346.111 -1.13712 6.62208 0
M  V30 3899 N 348.832 -1.54138 -0.328536 0
M  V30 3900 C 350.06 -1.76062 -1.08673 0
M  V30 3901 C 350.475 -0.506852 -1.81869 0
M  V30 3902 O 349.832 0.522223 -1.74869 0
M  V30 3903 C 349.883 -2.95054 -2.08866 0
M  V30 3904 O 349.604 -4.15583 -1.38644 0
M  V30 3905 C 351.105 -3.2915 -2.96943 0
M  V30 3906 H 348.325 -0.587889 -0.323461 0
M  V30 3907 H 350.869 -2.0101 -0.376175 0
M  V30 3908 H 349.024 -2.72394 -2.75464 0
M  V30 3909 H 349.438 -4.82481 -2.05699 0
M  V30 3910 H 350.912 -4.15723 -3.63151 0
M  V30 3911 H 351.389 -2.461 -3.63774 0
M  V30 3912 H 351.995 -3.53871 -2.35914 0
M  V30 3913 N 350.31 0.590341 -1.46126 0
M  V30 3914 C 351.257 1.69994 -1.56111 0
M  V30 3915 C 352.227 1.61065 -0.405867 0
M  V30 3916 O 353.412 1.8039 -0.621613 0
M  V30 3917 C 350.552 3.08326 -1.55013 0
M  V30 3918 C 349.665 3.27936 -2.81215 0
M  V30 3919 C 348.8 4.56473 -2.71673 0
M  V30 3920 C 347.839 4.694 -3.92849 0
M  V30 3921 N 346.976 5.89254 -3.81738 0
M  V30 3922 H 351.816 1.60797 -2.50895 0
M  V30 3923 H 349.353 0.783799 -1.24479 0
M  V30 3924 H 351.311 3.88383 -1.52362 0
M  V30 3925 H 349.941 3.16439 -0.637667 0
M  V30 3926 H 348.993 2.41536 -2.93879 0
M  V30 3927 H 350.305 3.33357 -3.71045 0
M  V30 3928 H 349.459 5.44748 -2.67085 0
M  V30 3929 H 348.198 4.53477 -1.7947 0
M  V30 3930 H 347.203 3.79544 -3.97777 0
M  V30 3931 H 348.428 4.7418 -4.86138 0
M  V30 3932 H 346.374 5.87271 -2.92317 0
M  V30 3933 H 346.291 5.95911 -4.65217 0
M  V30 3934 H 347.559 6.79981 -3.81112 0
M  V30 3935 N 351.788 1.33704 0.83433 0
M  V30 3936 C 352.735 1.24335 1.94447 0
M  V30 3937 C 353.705 0.120991 1.65659 0
M  V30 3938 O 354.89 0.300035 1.88426 0
M  V30 3939 C 352.03 0.993124 3.30501 0
M  V30 3940 C 351.143 2.20217 3.71657 0
M  V30 3941 C 350.278 1.88572 4.96602 0
M  V30 3942 C 349.317 3.05683 5.30306 0
M  V30 3943 N 348.454 2.73997 6.46429 0
M  V30 3944 H 353.294 2.1928 2.01792 0
M  V30 3945 H 350.831 1.09035 0.987404 0
M  V30 3946 H 352.789 0.828467 4.08892 0
M  V30 3947 H 351.419 0.0803902 3.227 0
M  V30 3948 H 350.471 2.47642 2.88752 0
M  V30 3949 H 351.783 3.07752 3.92543 0
M  V30 3950 H 350.937 1.68776 5.82752 0
M  V30 3951 H 349.676 0.982799 4.77695 0
M  V30 3952 H 348.681 3.26088 4.42659 0
M  V30 3953 H 349.906 3.96737 5.51159 0
M  V30 3954 H 347.852 1.86268 6.28999 0
M  V30 3955 H 347.769 3.55064 6.67432 0
M  V30 3956 H 349.037 2.57679 7.35678 0
M  V30 3957 N 353.266 -1.05314 1.17247 0
M  V30 3958 C 354.196 -2.1498 0.911362 0
M  V30 3959 C 355.177 -1.69471 -0.146169 0
M  V30 3960 O 356.362 -1.942 0.003812 0
M  V30 3961 C 353.492 -3.4472 0.422528 0
M  V30 3962 C 352.446 -4.03789 1.4191 0
M  V30 3963 C 351.772 -5.28858 0.788274 0
M  V30 3964 C 353.072 -4.41418 2.7919 0
M  V30 3965 H 354.766 -2.3708 1.82848 0
M  V30 3966 H 352.312 -1.13938 0.880569 0
M  V30 3967 H 354.265 -4.20787 0.227289 0
M  V30 3968 H 352.989 -3.22269 -0.530123 0
M  V30 3969 H 351.648 -3.2979 1.60106 0
M  V30 3970 H 351.296 -5.02709 -0.171173 0
M  V30 3971 H 350.996 -5.69338 1.45353 0
M  V30 3972 H 352.52 -6.07612 0.603282 0
M  V30 3973 H 353.934 -5.08524 2.64719 0
M  V30 3974 H 352.331 -4.92913 3.42282 0
M  V30 3975 H 353.401 -3.51819 3.33693 0
M  V30 3976 N 354.744 -0.972509 -1.24016 0
M  V30 3977 C 356.155 -0.67517 -1.74064 0
M  V30 3978 C 356.506 0.808939 -1.78747 0
M  V30 3979 O 355.631 1.63286 -1.42009 0
M  V30 3980 C 356.226 -1.21889 -3.16115 0
M  V30 3981 C 354.785 -0.971358 -3.6365 0
M  V30 3982 C 353.932 -1.35134 -2.42145 0
M  V30 3983 H 356.883 -1.14727 -1.09651 0
M  V30 3984 H 356.904 -0.587489 -3.75937 0
M  V30 3985 H 356.416 -2.29906 -3.12674 0
M  V30 3986 H 354.517 0.0930686 -3.72484 0
M  V30 3987 H 354.63 -1.62039 -4.50866 0
M  V30 3988 H 352.994 -0.769751 -2.4279 0
M  V30 3989 H 353.777 -2.4411 -2.41381 0
M  V30 3990 N 356.222 1.38976 -0.743202 0
M  V30 3991 C 357.638 1.53984 -0.419664 0
M  V30 3992 C 357.838 1.70837 1.0685 0
M  V30 3993 O 356.894 1.7135 1.8546 0
M  V30 3994 C 358.207 2.75287 -1.20985 0
M  V30 3995 C 359.755 2.89129 -1.19889 0
M  V30 3996 C 360.23 4.13381 -1.97181 0
M  V30 3997 N 361.721 4.20437 -1.94389 0
M  V30 3998 C 362.456 5.15547 -2.50996 0
M  V30 3999 N 361.952 6.16395 -3.16274 0
M  V30 4000 N 363.745 5.07822 -2.40984 0
M  V30 4001 H 355.896 1.26285 -1.7078 0
M  V30 4002 H 358.159 0.612689 -0.723406 0
M  V30 4003 H 357.865 2.69204 -2.26323 0
M  V30 4004 H 357.739 3.68184 -0.819759 0
M  V30 4005 H 360.126 2.947 -0.153606 0
M  V30 4006 H 360.207 1.97272 -1.62841 0
M  V30 4007 H 359.851 4.08572 -3.01714 0
M  V30 4008 H 359.781 5.04298 -1.51629 0
M  V30 4009 H 362.272 3.48205 -1.46839 0
M  V30 4010 H 362.585 6.85443 -3.56915 0
M  V30 4011 H 360.93 6.16758 -3.20367 0
M  V30 4012 H 364.121 4.27973 -1.89622 0
M  V30 4013 H 364.294 5.81767 -2.85397 0
M  V30 4014 N 357.7 0.491464 1.49741 0
M  V30 4015 C 358.647 -0.292027 2.28945 0
M  V30 4016 C 359.617 -0.968973 1.34908 0
M  V30 4017 O 360.802 -0.97748 1.6386 0
M  V30 4018 C 357.942 -1.35617 3.17336 0
M  V30 4019 C 357.055 -0.691957 4.26422 0
M  V30 4020 C 356.19 -1.73572 5.02042 0
M  V30 4021 C 355.229 -1.05286 6.02977 0
M  V30 4022 N 354.366 -2.0404 6.71798 0
M  V30 4023 H 359.206 0.389654 2.95442 0
M  V30 4024 H 356.743 0.204003 1.45679 0
M  V30 4025 H 358.701 -1.98502 3.66951 0
M  V30 4026 H 357.331 -2.00674 2.52844 0
M  V30 4027 H 356.383 0.0499523 3.80367 0
M  V30 4028 H 357.695 -0.153946 4.98562 0
M  V30 4029 H 356.849 -2.43987 5.55478 0
M  V30 4030 H 355.588 -2.30757 4.29654 0
M  V30 4031 H 354.593 -0.334446 5.48782 0
M  V30 4032 H 355.818 -0.487636 6.77347 0
M  V30 4033 H 353.764 -2.60205 6.02187 0
M  V30 4034 H 353.681 -1.55279 7.39881 0
M  V30 4035 H 354.949 -2.73772 7.29842 0
M  V30 4036 N 359.178 -1.55987 0.224894 0
M  V30 4037 C 360.406 -2.02784 -0.410665 0
M  V30 4038 C 360.821 -1.10464 -1.53112 0
M  V30 4039 O 360.178 -0.114871 -1.82138 0
M  V30 4040 C 360.229 -3.49087 -0.939165 0
M  V30 4041 O 359.95 -4.37887 0.136614 0
M  V30 4042 C 361.451 -4.11543 -1.64763 0
M  V30 4043 H 358.671 -0.663484 -0.100148 0
M  V30 4044 H 361.215 -2.01614 0.342326 0
M  V30 4045 H 359.37 -3.50861 -1.64242 0
M  V30 4046 H 359.784 -5.23849 -0.261155 0
M  V30 4047 H 361.258 -5.15673 -1.96939 0
M  V30 4048 H 361.735 -3.56736 -2.56195 0
M  V30 4049 H 362.341 -4.13629 -0.989503 0
M  V30 4050 N 360.656 0.0484629 -1.57525 0
M  V30 4051 C 361.606 1.06246 -2.01732 0
M  V30 4052 C 362.59 1.33155 -0.903245 0
M  V30 4053 O 363.782 1.33065 -1.16717 0
M  V30 4054 C 360.911 2.36943 -2.48421 0
M  V30 4055 C 359.997 2.13208 -3.6661 0
M  V30 4056 N 360.388 1.5947 -4.80003 0
M  V30 4057 C 358.686 2.43581 -3.7361 0
M  V30 4058 C 359.387 1.51092 -5.61735 0
M  V30 4059 N 358.363 1.9797 -5.0627 0
M  V30 4060 H 362.165 0.640675 -2.86832 0
M  V30 4061 H 359.679 0.255134 -1.60383 0
M  V30 4062 H 361.676 3.10374 -2.78341 0
M  V30 4063 H 360.336 2.79818 -1.64718 0
M  V30 4064 H 361.347 1.28008 -5.01831 0
M  V30 4065 H 358.024 2.89662 -3.00669 0
M  V30 4066 H 359.414 1.10199 -6.62801 0
M  V30 4067 N 362.134 1.5431 0.320358 0
M  V30 4068 C 363.55 1.45091 0.664889 0
M  V30 4069 C 363.75 0.626382 1.91517 0
M  V30 4070 O 362.806 0.126443 2.52183 0
M  V30 4071 C 364.119 2.88848 0.83591 0
M  V30 4072 C 365.667 2.9877 0.933046 0
M  V30 4073 C 366.142 4.43683 1.13621 0
M  V30 4074 N 367.633 4.47309 1.20287 0
M  V30 4075 C 368.368 5.56595 1.37801 0
M  V30 4076 N 367.864 6.75844 1.52338 0
M  V30 4077 N 369.657 5.44248 1.40535 0
M  V30 4078 H 361.808 2.06398 -0.501374 0
M  V30 4079 H 364.071 0.933963 -0.162534 0
M  V30 4080 H 363.777 3.51698 -0.0116092 0
M  V30 4081 H 363.651 3.35148 1.73078 0
M  V30 4082 H 366.038 2.36045 1.77107 0
M  V30 4083 H 366.119 2.55796 0.0145782 0
M  V30 4084 H 365.763 5.06995 0.303032 0
M  V30 4085 H 365.693 4.84269 2.0686 0
M  V30 4086 H 368.184 3.61388 1.10485 0
M  V30 4087 H 368.497 7.54892 1.65403 0
M  V30 4088 H 366.842 6.78746 1.4943 0
M  V30 4089 H 370.033 4.50038 1.28777 0
M  V30 4090 H 370.206 6.29473 1.53842 0
M  V30 4091 N 363.613 -0.582584 1.46437 0
M  V30 4092 C 364.861 -1.33814 1.51453 0
M  V30 4093 C 365.182 -1.94277 0.167792 0
M  V30 4094 O 364.452 -1.78566 -0.805677 0
M  V30 4095 H 363.032 -0.496838 0.557818 0
M  V30 4096 H 365.694 -0.682281 1.82568 0
M  V30 4097 H 364.79 -2.14479 2.26728 0
M  V30 4098 N 365.091 -1.34144 -0.827227 0
M  V30 4099 C 366.021 -1.28005 -1.95287 0
M  V30 4100 C 367.002 -0.158321 -1.69362 0
M  V30 4101 O 368.187 -0.349987 -1.9102 0
M  V30 4102 C 365.317 -1.03036 -3.31664 0
M  V30 4103 C 364.271 -2.11628 -3.72019 0
M  V30 4104 C 363.597 -1.71854 -5.0633 0
M  V30 4105 C 364.897 -3.53417 -3.8457 0
M  V30 4106 H 366.591 -2.22187 -2.00682 0
M  V30 4107 H 364.137 -1.0696 -0.964135 0
M  V30 4108 H 366.09 -0.973863 -4.09993 0
M  V30 4109 H 364.814 -0.0529391 -3.26557 0
M  V30 4110 H 363.473 -2.16339 -2.95961 0
M  V30 4111 H 363.121 -0.727841 -4.97706 0
M  V30 4112 H 362.821 -2.44531 -5.34302 0
M  V30 4113 H 364.345 -1.67692 -5.87122 0
M  V30 4114 H 365.759 -3.51142 -4.5318 0
M  V30 4115 H 364.156 -4.24679 -4.2399 0
M  V30 4116 H 365.226 -3.91072 -2.86689 0
M  V30 4117 N 366.569 1.04691 -1.17803 0
M  V30 4118 C 367.985 1.29963 -0.926379 0
M  V30 4119 C 368.185 1.97251 0.411635 0
M  V30 4120 O 367.241 2.24922 1.14744 0
M  V30 4121 C 368.554 2.16447 -2.08737 0
M  V30 4122 C 370.102 2.29814 -2.12496 0
M  V30 4123 C 370.577 3.19661 -3.27995 0
M  V30 4124 N 372.068 3.27247 -3.27816 0
M  V30 4125 C 372.803 3.96906 -4.13827 0
M  V30 4126 N 372.299 4.6895 -5.09959 0
M  V30 4127 N 374.092 3.93122 -4.01761 0
M  V30 4128 H 366.243 0.594182 -2.0392 0
M  V30 4129 H 368.506 0.324649 -0.890678 0
M  V30 4130 H 368.212 1.74304 -3.05469 0
M  V30 4131 H 368.086 3.17103 -2.04268 0
M  V30 4132 H 370.473 2.71196 -1.16347 0
M  V30 4133 H 370.554 1.2877 -2.21025 0
M  V30 4134 H 370.198 2.78991 -4.24413 0
M  V30 4135 H 370.128 4.20722 -3.16703 0
M  V30 4136 H 372.619 2.75921 -2.58217 0
M  V30 4137 H 372.932 5.19679 -5.71974 0
M  V30 4138 H 371.277 4.67875 -5.13924 0
M  V30 4139 H 374.468 3.35967 -3.2595 0
M  V30 4140 H 374.641 4.47139 -4.6901 0
M  V30 4141 N 368.047 0.979072 1.23499 0
M  V30 4142 C 368.994 0.517904 2.24914 0
M  V30 4143 C 369.964 -0.442525 1.60097 0
M  V30 4144 O 371.149 -0.350365 1.87556 0
M  V30 4145 C 368.289 -0.174813 3.44657 0
M  V30 4146 C 367.402 0.825721 4.24035 0
M  V30 4147 C 366.537 0.107946 5.3109 0
M  V30 4148 C 365.576 1.09778 6.02175 0
M  V30 4149 N 364.713 0.40925 7.00906 0
M  V30 4150 H 369.553 1.38751 2.63727 0
M  V30 4151 H 367.09 0.695303 1.2963 0
M  V30 4152 H 369.048 -0.593233 4.12961 0
M  V30 4153 H 367.678 -1.0083 3.06648 0
M  V30 4154 H 366.73 1.36253 3.55161 0
M  V30 4155 H 368.042 1.58005 4.73113 0
M  V30 4156 H 367.196 -0.367904 6.05583 0
M  V30 4157 H 365.935 -0.678994 4.8295 0
M  V30 4158 H 364.94 1.5844 5.26476 0
M  V30 4159 H 366.165 1.88536 6.52404 0
M  V30 4160 H 364.111 -0.358506 6.5502 0
M  V30 4161 H 364.028 1.10226 7.47921 0
M  V30 4162 H 365.296 -0.0442557 7.79487 0
M  V30 4163 N 369.525 -1.3858 0.750561 0
M  V30 4164 C 370.771 -2.00481 0.305825 0
M  V30 4165 C 371.104 -1.5944 -1.10872 0
M  V30 4166 O 370.379 -0.83052 -1.75877 0
M  V30 4167 C 370.662 -3.5758 0.425287 0
M  V30 4168 C 370.515 -4.08594 1.88072 0
M  V30 4169 C 371.834 -4.39719 -0.183122 0
M  V30 4170 H 368.953 -0.728348 0.112598 0
M  V30 4171 H 371.595 -1.64566 0.949638 0
M  V30 4172 H 369.745 -3.88306 -0.122828 0
M  V30 4173 H 371.417 -3.88523 2.48691 0
M  V30 4174 H 369.66 -3.61574 2.39681 0
M  V30 4175 H 370.331 -5.177 1.91548 0
M  V30 4176 H 372.807 -4.15128 0.284303 0
M  V30 4177 H 371.683 -5.48856 -0.0692757 0
M  V30 4178 H 371.944 -4.23434 -1.27106 0
M  V30 4179 N 371.003 -0.499398 -1.49478 0
M  V30 4180 C 371.966 0.268838 -2.27618 0
M  V30 4181 C 372.966 0.895383 -1.33565 0
M  V30 4182 O 374.156 0.760164 -1.56739 0
M  V30 4183 C 371.288 1.38559 -3.11471 0
M  V30 4184 H 372.481 -0.416812 -2.96989 0
M  V30 4185 H 370.034 -0.254313 -1.54217 0
M  V30 4186 H 370.769 2.10544 -2.46661 0
M  V30 4187 H 370.554 0.941797 -3.80621 0
M  V30 4188 H 372.044 1.92678 -3.70493 0
M  V30 4189 N 372.481 1.55866 -0.233164 0
M  V30 4190 C 373.721 2.00506 0.397078 0
M  V30 4191 C 374.085 1.1176 1.56121 0
M  V30 4192 O 375.286 1.45796 2.25825 0
M  V30 4193 C 373.557 3.4811 0.809601 0
M  V30 4194 S 375.116 4.14765 1.43231 0
M  V30 4195 H 371.934 0.699828 0.125547 0
M  V30 4196 H 374.536 1.92429 -0.345177 0
M  V30 4197 H 373.24 4.10373 -0.0471601 0
M  V30 4198 H 372.771 3.60085 1.58438 0
M  V30 4199 H 374.786 4.14914 2.7214 0
M  V30 4200 N 373.959 -0.0401083 1.57549 0
M  V30 4201 C 375.208 -0.732108 1.87944 0
M  V30 4202 C 375.521 -1.77107 0.830206 0
M  V30 4203 O 376.727 -2.51488 1.02302 0
M  V30 4204 C 375.183 -1.35315 3.33494 0
M  V30 4205 C 374.791 -0.351105 4.46622 0
M  V30 4206 C 376.535 -2.02566 3.73051 0
M  V30 4207 C 374.442 -0.979859 5.83226 0
M  V30 4208 H 373.372 -0.277188 0.701201 0
M  V30 4209 H 376.023 0.0138501 1.83495 0
M  V30 4210 H 374.405 -2.14844 3.32653 0
M  V30 4211 H 375.579 0.416674 4.58912 0
M  V30 4212 H 373.894 0.218708 4.15825 0
M  V30 4213 H 376.491 -2.50441 4.72423 0
M  V30 4214 H 376.834 -2.83904 3.04474 0
M  V30 4215 H 377.367 -1.29827 3.76018 0
M  V30 4216 H 374.106 -0.206135 6.55176 0
M  V30 4217 H 373.626 -1.71774 5.74677 0
M  V30 4218 H 375.305 -1.49046 6.29599 0
M  V30 4219 N 375.437 -1.54477 -0.31217 0
M  V30 4220 C 376.685 -1.72884 -1.04668 0
M  V30 4221 C 377.006 -0.511477 -1.88173 0
M  V30 4222 O 376.276 0.474407 -1.90069 0
M  V30 4223 H 374.856 -0.637461 -0.389425 0
M  V30 4224 H 377.518 -1.91807 -0.345852 0
M  V30 4225 H 376.614 -2.61334 -1.70619 0
M  V30 4226 N 376.915 0.57481 -1.46744 0
M  V30 4227 C 377.878 1.66533 -1.57478 0
M  V30 4228 C 378.878 1.54338 -0.451263 0
M  V30 4229 O 380.068 1.58814 -0.715813 0
M  V30 4230 C 377.2 3.05999 -1.50259 0
M  V30 4231 H 378.393 1.58372 -2.54673 0
M  V30 4232 H 375.946 0.793301 -1.34672 0
M  V30 4233 H 376.681 3.19709 -0.543725 0
M  V30 4234 H 376.466 3.16259 -2.31781 0
M  V30 4235 H 377.956 3.8537 -1.60872 0
M  V30 4236 N 378.394 1.34581 0.820102 0
M  V30 4237 C 379.64 1.28294 1.57836 0
M  V30 4238 C 379.995 -0.145099 1.91852 0
M  V30 4239 O 379.288 -1.09209 1.57429 0
M  V30 4240 C 379.482 2.10997 2.8847 0
M  V30 4241 C 379.311 3.61698 2.67216 0
M  V30 4242 C 378.081 4.3097 2.63805 0
M  V30 4243 C 380.279 4.55638 2.38534 0
M  V30 4244 N 378.261 5.67502 2.34126 0
M  V30 4245 C 379.632 5.80194 2.18574 0
M  V30 4246 C 381.687 4.44523 2.24285 0
M  V30 4247 C 380.39 6.94886 1.8581 0
M  V30 4248 C 382.416 5.5905 1.92916 0
M  V30 4249 C 381.778 6.82627 1.73782 0
M  V30 4250 H 377.877 0.524697 0.579842 0
M  V30 4251 H 380.461 1.69323 0.961139 0
M  V30 4252 H 378.632 1.7226 3.48111 0
M  V30 4253 H 380.364 1.96333 3.53886 0
M  V30 4254 H 377.119 3.83438 2.77978 0
M  V30 4255 H 377.543 6.39525 2.22118 0
M  V30 4256 H 382.185 3.49599 2.37782 0
M  V30 4257 H 379.903 7.89789 1.7105 0
M  V30 4258 H 383.489 5.52396 1.82619 0
M  V30 4259 H 382.369 7.69748 1.49861 0
M  V30 4260 N 379.872 -1.04064 1.18357 0
M  V30 4261 C 380.822 -2.10393 0.878561 0
M  V30 4262 C 381.806 -1.60183 -0.151713 0
M  V30 4263 O 382.998 -1.76923 0.0523303 0
M  V30 4264 C 380.127 -3.4089 0.406096 0
M  V30 4265 C 379.213 -3.97866 1.46844 0
M  V30 4266 N 379.604 -4.28657 2.68489 0
M  V30 4267 C 377.902 -4.2574 1.32896 0
M  V30 4268 C 378.603 -4.74253 3.36836 0
M  V30 4269 N 377.579 -4.75068 2.64219 0
M  V30 4270 H 381.381 -2.32076 1.80327 0
M  V30 4271 H 378.895 -1.21818 1.07397 0
M  V30 4272 H 380.892 -4.16557 0.169088 0
M  V30 4273 H 379.552 -3.20633 -0.512275 0
M  V30 4274 H 380.563 -4.18304 3.05356 0
M  V30 4275 H 377.24 -4.1481 0.473134 0
M  V30 4276 H 378.63 -5.07096 4.40798 0
M  V30 4277 N 381.35 -0.985608 -1.22978 0
M  V30 4278 C 382.761 -0.693593 -1.73338 0
M  V30 4279 C 383.112 0.789935 -1.79595 0
M  V30 4280 O 382.237 1.61771 -1.43733 0
M  V30 4281 C 382.832 -1.25235 -3.14804 0
M  V30 4282 C 381.391 -1.00987 -3.626 0
M  V30 4283 C 380.538 -1.37695 -2.40698 0
M  V30 4284 H 383.489 -1.15884 -1.08428 0
M  V30 4285 H 383.51 -0.627329 -3.75293 0
M  V30 4286 H 383.022 -2.33209 -3.10218 0
M  V30 4287 H 381.123 0.0535565 -3.72562 0
M  V30 4288 H 381.236 -1.66812 -4.49122 0
M  V30 4289 H 379.6 -0.795459 -2.4196 0
M  V30 4290 H 380.383 -2.46657 -2.38779 0
M  V30 4291 N 382.828 1.3818 -0.7579 0
M  V30 4292 C 383.791 2.28764 -0.141286 0
M  V30 4293 C 384.791 1.47388 0.642907 0
M  V30 4294 O 385.981 1.67781 0.468536 0
M  V30 4295 C 383.113 3.31184 0.808069 0
M  V30 4296 H 384.306 2.848 -0.939633 0
M  V30 4297 H 381.859 1.47212 -0.525191 0
M  V30 4298 H 382.594 2.80247 1.63193 0
M  V30 4299 H 382.379 3.91314 0.248104 0
M  V30 4300 H 383.869 3.98909 1.23536 0
M  V30 4301 N 384.306 0.507319 1.49211 0
M  V30 4302 C 385.722 0.163682 1.58758 0
M  V30 4303 C 385.922 -1.33208 1.51188 0
M  V30 4304 O 384.978 -2.10855 1.38911 0
M  V30 4305 C 386.291 0.746095 2.91297 0
M  V30 4306 C 387.839 0.712773 3.04776 0
M  V30 4307 C 388.314 1.27336 4.39943 0
M  V30 4308 N 389.805 1.23433 4.46451 0
M  V30 4309 C 390.54 1.63821 5.495 0
M  V30 4310 N 390.036 2.11832 6.5962 0
M  V30 4311 N 391.829 1.55198 5.4025 0
M  V30 4312 H 383.98 1.47972 1.52375 0
M  V30 4313 H 386.243 0.614147 0.722168 0
M  V30 4314 H 385.949 1.79534 3.02424 0
M  V30 4315 H 385.823 0.210137 3.76614 0
M  V30 4316 H 388.21 -0.327656 2.93275 0
M  V30 4317 H 388.291 1.28595 2.21127 0
M  V30 4318 H 387.935 2.3126 4.52196 0
M  V30 4319 H 387.865 0.676066 5.22242 0
M  V30 4320 H 390.356 0.882627 3.67448 0
M  V30 4321 H 390.669 2.40703 7.34358 0
M  V30 4322 H 389.014 2.1581 6.60644 0
M  V30 4323 H 392.205 1.17505 4.53112 0
M  V30 4324 H 392.378 1.86997 6.20432 0
M  V30 4325 N 385.784 -1.5574 0.241426 0
M  V30 4326 C 387.03 -1.99104 -0.385406 0
M  V30 4327 C 387.363 -1.1293 -1.57988 0
M  V30 4328 O 386.638 -0.191449 -1.93555 0
M  V30 4329 C 386.921 -3.51087 -0.800616 0
M  V30 4330 C 386.774 -4.48028 0.398874 0
M  V30 4331 C 388.093 -4.08015 -1.64959 0
M  V30 4332 H 385.212 -0.723848 -0.138614 0
M  V30 4333 H 387.854 -1.86903 0.341642 0
M  V30 4334 H 386.004 -3.61615 -1.4201 0
M  V30 4335 H 387.676 -4.49487 1.03726 0
M  V30 4336 H 385.919 -4.21077 1.04293 0
M  V30 4337 H 386.59 -5.51962 0.0651056 0
M  V30 4338 H 389.066 -4.00555 -1.12672 0
M  V30 4339 H 387.942 -5.14635 -1.90898 0
M  V30 4340 H 388.203 -3.56131 -2.61961 0
M  V30 4341 N 387.262 0.0317525 -1.57568 0
M  V30 4342 C 388.225 1.01783 -2.0536 0
M  V30 4343 C 389.225 1.29203 -0.957253 0
M  V30 4344 O 390.415 1.24251 -1.22095 0
M  V30 4345 C 387.547 2.35137 -2.46827 0
M  V30 4346 H 388.74 0.605062 -2.93733 0
M  V30 4347 H 386.293 0.278514 -1.53799 0
M  V30 4348 H 387.028 2.81168 -1.61602 0
M  V30 4349 H 386.813 2.16566 -3.26866 0
M  V30 4350 H 388.303 3.05938 -2.84239 0
M  V30 4351 N 388.74 1.54641 0.303973 0
M  V30 4352 C 389.987 1.7378 1.03955 0
M  V30 4353 C 390.315 0.521986 1.87365 0
M  V30 4354 O 389.57 -0.496099 1.89308 0
M  V30 4355 C 389.869 2.97753 1.97681 0
M  V30 4356 C 389.535 4.31671 1.30271 0
M  V30 4357 C 388.197 4.68075 1.11619 0
M  V30 4358 C 390.549 5.147 0.82055 0
M  V30 4359 C 387.877 5.8509 0.434304 0
M  V30 4360 C 390.229 6.32416 0.152395 0
M  V30 4361 C 388.893 6.67484 -0.0461067 0
M  V30 4362 H 388.163 0.635908 0.380398 0
M  V30 4363 H 390.81 1.88896 0.314718 0
M  V30 4364 H 389.115 2.77406 2.76682 0
M  V30 4365 H 390.812 3.09756 2.54661 0
M  V30 4366 H 387.402 4.03041 1.45795 0
M  V30 4367 H 391.586 4.87077 0.952374 0
M  V30 4368 H 386.842 6.10806 0.269495 0
M  V30 4369 H 391.016 6.96023 -0.229126 0
M  V30 4370 H 388.643 7.58011 -0.576494 0
M  V30 4371 N 390.218 -0.567019 1.47046 0
M  V30 4372 C 391.443 -1.3551 1.57009 0
M  V30 4373 C 391.868 -1.86841 0.217259 0
M  V30 4374 O 391.226 -1.62435 -0.805268 0
M  V30 4375 C 391.274 -2.50777 2.5912 0
M  V30 4376 O 390.378 -3.52706 2.13711 0
M  V30 4377 H 389.719 -0.402919 0.52778 0
M  V30 4378 H 392.249 -0.686241 1.92748 0
M  V30 4379 H 392.259 -2.97481 2.79229 0
M  V30 4380 H 390.934 -2.12771 3.57353 0
M  V30 4381 H 389.511 -3.12374 2.03659 0
M  V30 4382 N 391.696 -1.35014 -0.812953 0
M  V30 4383 C 392.942 -1.2812 -1.57204 0
M  V30 4384 C 393.275 0.145869 -1.93651 0
M  V30 4385 O 392.55 1.0937 -1.60836 0
M  V30 4386 C 392.833 -2.18162 -2.86492 0
M  V30 4387 C 392.686 -3.69454 -2.56561 0
M  V30 4388 C 394.005 -2.07439 -3.88145 0
M  V30 4389 H 391.124 -0.466746 -0.570366 0
M  V30 4390 H 393.766 -1.65357 -0.935783 0
M  V30 4391 H 391.916 -1.86535 -3.40789 0
M  V30 4392 H 393.588 -4.11493 -2.08497 0
M  V30 4393 H 391.831 -3.9005 -1.89851 0
M  V30 4394 H 392.502 -4.27835 -3.48799 0
M  V30 4395 H 394.978 -2.35228 -3.4323 0
M  V30 4396 H 393.854 -2.7265 -4.76396 0
M  V30 4397 H 394.115 -1.05439 -4.29343 0
M  V30 4398 N 393.175 1.03435 -1.18907 0
M  V30 4399 C 394.138 2.09756 -0.923844 0
M  V30 4400 C 395.138 1.60528 0.093416 0
M  V30 4401 O 396.328 1.73631 -0.140727 0
M  V30 4402 C 393.46 3.38692 -0.387354 0
M  V30 4403 H 394.653 2.34719 -1.86674 0
M  V30 4404 H 392.206 1.19959 -1.00197 0
M  V30 4405 H 392.941 3.19396 0.561845 0
M  V30 4406 H 392.726 3.75742 -1.12074 0
M  V30 4407 H 394.216 4.17016 -0.220694 0
M  V30 4408 N 394.653 0.992116 1.22453 0
M  V30 4409 C 396.069 0.702713 1.43297 0
M  V30 4410 C 396.269 -0.726909 1.87932 0
M  V30 4411 O 395.325 -1.49792 2.0327 0
M  V30 4412 C 396.638 1.70762 2.47509 0
M  V30 4413 C 398.186 1.72298 2.61309 0
M  V30 4414 C 398.661 2.71649 3.68742 0
M  V30 4415 N 400.152 2.70239 3.76199 0
M  V30 4416 C 400.887 3.43778 4.58917 0
M  V30 4417 N 400.383 4.26914 5.45633 0
M  V30 4418 N 402.176 3.32487 4.5322 0
M  V30 4419 H 394.327 1.91543 0.917871 0
M  V30 4420 H 396.59 0.826031 0.465162 0
M  V30 4421 H 396.296 2.73059 2.21657 0
M  V30 4422 H 396.17 1.49985 3.46099 0
M  V30 4423 H 398.557 0.706989 2.86506 0
M  V30 4424 H 398.638 1.97143 1.62997 0
M  V30 4425 H 398.282 3.73397 3.44292 0
M  V30 4426 H 398.212 2.44074 4.66622 0
M  V30 4427 H 400.703 2.09912 3.14237 0
M  V30 4428 H 401.016 4.79855 6.05771 0
M  V30 4429 H 399.361 4.31002 5.45218 0
M  V30 4430 H 402.552 2.6698 3.84499 0
M  V30 4431 H 402.725 3.90058 5.17454 0
M  V30 4432 N 396.131 -1.37776 0.765217 0
M  V30 4433 C 397.094 -2.28686 0.153416 0
M  V30 4434 C 398.094 -1.47727 -0.635081 0
M  V30 4435 O 399.284 -1.68027 -0.459632 0
M  V30 4436 C 396.416 -3.31608 -0.790495 0
M  V30 4437 H 397.609 -2.84297 0.954723 0
M  V30 4438 H 395.162 -1.46932 0.53299 0
M  V30 4439 H 395.897 -2.81109 -1.61705 0
M  V30 4440 H 395.682 -3.9144 -0.227348 0
M  V30 4441 H 397.172 -3.99559 -1.21419 0
M  V30 4442 N 397.609 -0.515225 -1.4894 0
M  V30 4443 C 398.857 0.0241671 -2.02086 0
M  V30 4444 C 399.178 1.3616 -1.3959 0
M  V30 4445 O 398.448 1.87841 -0.556121 0
M  V30 4446 H 397.028 0.0119203 -0.746905 0
M  V30 4447 H 399.69 -0.675702 -1.82812 0
M  V30 4448 H 398.786 0.143385 -3.1177 0
M  V30 4449 N 399.087 1.5561 -0.249682 0
M  V30 4450 C 400.019 2.18834 0.681496 0
M  V30 4451 C 401.032 1.16546 1.1367 0
M  V30 4452 O 402.221 1.43397 1.06299 0
M  V30 4453 C 399.321 2.77992 1.9384 0
M  V30 4454 C 398.494 4.05725 1.63419 0
M  V30 4455 C 397.553 4.49174 2.74096 0
M  V30 4456 O 396.579 5.15492 2.41364 0
M  V30 4457 N 397.781 4.17191 4.03649 0
M  V30 4458 H 400.546 2.9937 0.140514 0
M  V30 4459 H 398.107 1.6175 -0.0697541 0
M  V30 4460 H 400.099 3.04015 2.67127 0
M  V30 4461 H 398.669 2.01596 2.38909 0
M  V30 4462 H 397.889 3.87261 0.736358 0
M  V30 4463 H 399.177 4.88999 1.40562 0
M  V30 4464 H 398.575 3.63955 4.33074 0
M  V30 4465 H 397.132 4.48043 4.73393 0
M  V30 4466 N 400.565 -0.0233959 1.57583 0
M  V30 4467 C 401.512 -1.02224 2.06927 0
M  V30 4468 C 402.482 -1.35575 0.959617 0
M  V30 4469 O 403.667 -1.45815 1.23055 0
M  V30 4470 C 400.807 -2.31636 2.5581 0
M  V30 4471 C 399.92 -2.04394 3.80588 0
M  V30 4472 C 399.055 -3.27717 4.18061 0
M  V30 4473 C 398.094 -2.96056 5.3574 0
M  V30 4474 N 397.231 -4.11847 5.68618 0
M  V30 4475 H 402.071 -0.594504 2.9201 0
M  V30 4476 H 399.608 -0.281921 1.44373 0
M  V30 4477 H 401.566 -3.07258 2.82221 0
M  V30 4478 H 400.196 -2.72122 1.73636 0
M  V30 4479 H 399.248 -1.19244 3.61227 0
M  V30 4480 H 400.56 -1.77042 4.66323 0
M  V30 4481 H 399.714 -4.11702 4.4563 0
M  V30 4482 H 398.453 -3.58188 3.30988 0
M  V30 4483 H 397.458 -2.10474 5.07918 0
M  V30 4484 H 398.683 -2.66857 6.24471 0
M  V30 4485 H 396.629 -4.42258 4.84504 0
M  V30 4486 H 396.546 -3.87938 6.48876 0
M  V30 4487 H 397.814 -4.96689 6.00766 0
M  V30 4488 N 402.043 -1.548 -0.295768 0
M  V30 4489 C 403.291 -1.73985 -1.02828 0
M  V30 4490 C 403.612 -0.531406 -1.87619 0
M  V30 4491 O 402.882 0.454221 -1.90561 0
M  V30 4492 H 401.462 -0.641556 -0.382642 0
M  V30 4493 H 404.124 -1.92163 -0.325489 0
M  V30 4494 H 403.22 -2.63129 -1.67838 0
M  V30 4495 N 403.521 0.559213 -1.47345 0
M  V30 4496 C 404.751 1.33999 -1.57251 0
M  V30 4497 C 405.159 1.87905 -0.220978 0
M  V30 4498 O 404.502 1.65577 0.795617 0
M  V30 4499 C 404.564 2.54798 -2.53611 0
M  V30 4500 C 404.228 2.22192 -3.99349 0
M  V30 4501 C 405.225 1.79607 -4.87891 0
M  V30 4502 C 402.91 2.33613 -4.44669 0
M  V30 4503 C 404.904 1.48868 -6.19772 0
M  V30 4504 C 402.591 2.02487 -5.76578 0
M  V30 4505 C 403.589 1.60183 -6.63951 0
M  V30 4506 O 403.277 1.29451 -7.93409 0
M  V30 4507 H 403.009 0.414858 -0.533731 0
M  V30 4508 H 405.563 0.684465 -1.9366 0
M  V30 4509 H 403.793 3.23235 -2.12265 0
M  V30 4510 H 405.482 3.16873 -2.53666 0
M  V30 4511 H 406.248 1.70278 -4.54126 0
M  V30 4512 H 402.127 2.65501 -3.76869 0
M  V30 4513 H 405.671 1.15775 -6.87926 0
M  V30 4514 H 401.568 2.11448 -6.09885 0
M  V30 4515 H 402.336 1.43098 -8.05894 0
M  V30 4516 N 404.999 1.35443 0.805782 0
M  V30 4517 C 405.949 1.24972 1.90699 0
M  V30 4518 C 406.933 0.144806 1.60247 0
M  V30 4519 O 408.125 0.376102 1.72958 0
M  V30 4520 C 405.254 1.02475 3.27649 0
M  V30 4521 C 404.34 2.17361 3.64164 0
M  V30 4522 N 404.731 3.42591 3.72109 0
M  V30 4523 C 403.029 2.08765 3.94123 0
M  V30 4524 C 403.73 4.18144 4.04389 0
M  V30 4525 N 402.706 3.4691 4.18515 0
M  V30 4526 H 406.508 2.19852 1.95044 0
M  V30 4527 H 404.022 1.27928 1.00041 0
M  V30 4528 H 406.019 0.930617 4.06381 0
M  V30 4529 H 404.679 0.0848009 3.24589 0
M  V30 4530 H 405.69 3.76932 3.55166 0
M  V30 4531 H 402.367 1.22629 3.99084 0
M  V30 4532 H 403.757 5.26367 4.17597 0
M  V30 4533 N 406.477 -1.02803 1.19454 0
M  V30 4534 C 407.427 -2.0945 0.900827 0
M  V30 4535 C 408.411 -1.60335 -0.134715 0
M  V30 4536 O 409.603 -1.76857 0.0710924 0
M  V30 4537 C 406.732 -3.4044 0.442229 0
M  V30 4538 C 405.818 -3.96286 1.51056 0
M  V30 4539 N 406.209 -4.25785 2.73021 0
M  V30 4540 C 404.507 -4.24307 1.37404 0
M  V30 4541 C 405.208 -4.70654 3.41848 0
M  V30 4542 N 404.184 -4.72238 2.69243 0
M  V30 4543 H 407.986 -2.3015 1.82779 0
M  V30 4544 H 405.5 -1.20672 1.08683 0
M  V30 4545 H 407.497 -4.16354 0.21326 0
M  V30 4546 H 406.157 -3.21159 -0.478238 0
M  V30 4547 H 407.168 -4.15041 3.09776 0
M  V30 4548 H 403.845 -4.14285 0.517103 0
M  V30 4549 H 405.235 -5.02392 4.46152 0
M  V30 4550 N 407.956 -0.998596 -1.21925 0
M  V30 4551 C 409.372 -0.710303 -1.42923 0
M  V30 4552 C 409.572 0.716933 -1.88314 0
M  V30 4553 O 408.628 1.48712 -2.04062 0
M  V30 4554 C 409.941 -1.72072 -2.466 0
M  V30 4555 C 411.489 -1.73681 -2.60392 0
M  V30 4556 C 411.964 -2.73601 -3.67296 0
M  V30 4557 N 413.455 -2.7223 -3.7476 0
M  V30 4558 C 414.19 -3.46206 -4.57087 0
M  V30 4559 N 413.686 -4.29802 -5.43362 0
M  V30 4560 N 415.479 -3.34886 -4.51451 0
M  V30 4561 H 407.63 -1.92028 -0.9077 0
M  V30 4562 H 409.893 -0.828487 -0.460775 0
M  V30 4563 H 409.599 -2.74231 -2.20206 0
M  V30 4564 H 409.473 -1.51818 -3.45299 0
M  V30 4565 H 411.86 -0.722173 -2.86127 0
M  V30 4566 H 411.941 -1.98005 -1.61949 0
M  V30 4567 H 411.585 -3.75217 -3.42307 0
M  V30 4568 H 411.515 -2.46545 -4.65321 0
M  V30 4569 H 414.006 -2.11576 -3.1312 0
M  V30 4570 H 414.319 -4.83061 -6.03218 0
M  V30 4571 H 412.664 -4.33887 -5.42925 0
M  V30 4572 H 415.855 -2.69015 -3.83078 0
M  V30 4573 H 416.028 -3.92796 -5.15379 0
M  V30 4574 N 409.434 1.37368 -0.772513 0
M  V30 4575 C 410.662 2.03942 -0.348588 0
M  V30 4576 C 411.077 1.58264 1.02947 0
M  V30 4577 O 410.434 0.764246 1.65727 0
M  V30 4578 C 410.485 3.5946 -0.38351 0
M  V30 4579 O 410.206 4.03468 -1.70721 0
M  V30 4580 C 411.707 4.4327 0.0519152 0
M  V30 4581 H 408.927 0.654931 -0.145966 0
M  V30 4582 H 411.471 1.75686 -1.04665 0
M  V30 4583 H 409.626 3.86486 0.265978 0
M  V30 4584 H 410.04 4.97991 -1.64636 0
M  V30 4585 H 411.514 5.51995 -0.0236733 0
M  V30 4586 H 411.991 4.2514 1.10238 0
M  V30 4587 H 412.597 4.21471 -0.569415 0
M  V30 4588 N 410.912 0.523116 1.48665 0
M  V30 4589 C 411.822 -0.247406 2.33292 0
M  V30 4590 C 412.838 -0.945769 1.46052 0
M  V30 4591 O 414.014 -0.922253 1.79043 0
M  V30 4592 C 411.079 -1.28487 3.22012 0
M  V30 4593 C 410.14 -0.597592 4.2512 0
M  V30 4594 C 409.373 -1.58563 5.09601 0
M  V30 4595 O 409.596 -2.81763 4.95949 0
M  V30 4596 O 408.53 -1.12879 5.91221 0
M  V30 4597 H 412.356 0.445869 3.00409 0
M  V30 4598 H 409.941 0.284128 1.46673 0
M  V30 4599 H 411.823 -1.88459 3.7691 0
M  V30 4600 H 410.498 -1.96068 2.57564 0
M  V30 4601 H 409.405 0.0424407 3.74076 0
M  V30 4602 H 410.738 0.0361517 4.92187 0
M  V30 4603 N 412.39 -1.55475 0.257931 0
M  V30 4604 C 413.639 -1.98383 -0.364275 0
M  V30 4605 C 413.952 -1.14952 -1.58258 0
M  V30 4606 O 415.158 -1.47924 -2.27664 0
M  V30 4607 C 413.614 -3.53037 -0.699479 0
M  V30 4608 C 413.222 -4.45223 0.498046 0
M  V30 4609 C 414.966 -4.04575 -1.28526 0
M  V30 4610 C 412.873 -5.91238 0.138383 0
M  V30 4611 H 411.803 -0.740911 -0.13988 0
M  V30 4612 H 414.454 -1.79936 0.359883 0
M  V30 4613 H 412.836 -3.6722 -1.48207 0
M  V30 4614 H 414.01 -4.42803 1.27522 0
M  V30 4615 H 412.325 -4.04226 0.999503 0
M  V30 4616 H 414.922 -5.11196 -1.56788 0
M  V30 4617 H 415.265 -3.5258 -2.21344 0
M  V30 4618 H 415.798 -3.93762 -0.565337 0
M  V30 4619 H 412.537 -6.47294 1.03398 0
M  V30 4620 H 412.057 -5.96768 -0.602374 0
M  V30 4621 H 413.736 -6.46413 -0.27553 0
M  V30 4622 N 413.868 0.0150385 -1.57593 0
M  V30 4623 C 414.816 1.02958 -2.08572 0
M  V30 4624 C 415.81 1.36554 -1.00246 0
M  V30 4625 O 417.016 1.35295 -1.18724 0
M  V30 4626 H 413.391 0.349619 -0.665786 0
M  V30 4627 H 415.362 0.573932 -2.92829 0
M  V30 4628 C 414.111 2.31752 -2.59203 0
M  V30 4629 H 413.434 2.06765 -3.42182 0
M  V30 4630 H 414.874 3.01053 -2.98568 0
M  V30 4631 C 413.333 3.01692 -1.49945 0
M  V30 4632 O 413.863 3.92083 -0.873704 0
M  V30 4633 N 412.069 2.6326 -1.23056 0
M  V30 4634 H 411.616 1.89838 -1.74125 0
M  V30 4635 H 411.574 3.10372 -0.501685 0
M  V30 4636 N 415.346 1.54954 0.287554 0
M  V30 4637 C 416.293 1.86834 1.35505 0
M  V30 4638 C 417.263 0.718452 1.49758 0
M  V30 4639 O 418.448 0.968358 1.644 0
M  V30 4640 C 415.588 2.13303 2.71286 0
M  V30 4641 C 414.701 3.40883 2.65373 0
M  V30 4642 C 413.836 3.57125 3.93236 0
M  V30 4643 C 412.875 4.78449 3.81776 0
M  V30 4644 N 412.012 4.91426 5.01443 0
M  V30 4645 H 416.852 2.77889 1.07619 0
M  V30 4646 H 414.389 1.37593 0.520241 0
M  V30 4647 H 416.347 2.26646 3.50267 0
M  V30 4648 H 414.977 1.25499 2.97405 0
M  V30 4649 H 414.029 3.36088 1.78182 0
M  V30 4650 H 415.341 4.29993 2.52799 0
M  V30 4651 H 414.495 3.70207 4.80658 0
M  V30 4652 H 413.234 2.66173 4.0866 0
M  V30 4653 H 412.239 4.65386 2.92738 0
M  V30 4654 H 413.464 5.70822 3.67884 0
M  V30 4655 H 411.41 4.03401 5.17304 0
M  V30 4656 H 411.327 5.74559 4.91343 0
M  V30 4657 H 412.595 5.08879 5.90477 0
M  V30 4658 N 416.824 -0.551391 1.4764 0
M  V30 4659 C 417.771 -1.65796 1.60563 0
M  V30 4660 C 418.741 -1.59932 0.448428 0
M  V30 4661 O 419.926 -1.78679 0.669222 0
M  V30 4662 C 417.066 -3.04108 1.63133 0
M  V30 4663 C 416.179 -3.20365 2.89811 0
M  V30 4664 C 415.314 -4.49109 2.8368 0
M  V30 4665 C 414.353 -4.58819 4.05156 0
M  V30 4666 N 413.49 -5.78926 3.97227 0
M  V30 4667 H 418.33 -1.54088 2.5507 0
M  V30 4668 H 415.867 -0.75052 1.26513 0
M  V30 4669 H 417.825 -3.84207 1.62606 0
M  V30 4670 H 416.455 -3.14637 0.721341 0
M  V30 4671 H 415.507 -2.33659 3.00179 0
M  V30 4672 H 416.819 -3.23402 3.79753 0
M  V30 4673 H 415.973 -5.37475 2.81434 0
M  V30 4674 H 414.712 -4.4856 1.91431 0
M  V30 4675 H 413.717 -3.68864 4.077 0
M  V30 4676 H 414.942 -4.61124 4.98539 0
M  V30 4677 H 412.888 -5.79314 3.07785 0
M  V30 4678 H 412.805 -5.83367 4.80853 0
M  V30 4679 H 414.073 -6.69637 3.99007 0
M  V30 4680 N 418.302 -1.35869 -0.798587 0
M  V30 4681 C 419.551 -1.28921 -1.5512 0
M  V30 4682 C 419.864 0.13208 -1.95154 0
M  V30 4683 O 421.07 0.323879 -2.69561 0
M  V30 4684 C 419.526 -2.26141 -2.79979 0
M  V30 4685 C 419.134 -3.73658 -2.47151 0
M  V30 4686 C 420.878 -2.28152 -3.57976 0
M  V30 4687 C 418.785 -4.62679 -3.6835 0
M  V30 4688 H 417.715 -0.479031 -0.582276 0
M  V30 4689 H 420.366 -1.61179 -0.877125 0
M  V30 4690 H 418.748 -1.86865 -3.49138 0
M  V30 4691 H 419.922 -4.21616 -1.85947 0
M  V30 4692 H 418.237 -3.74333 -1.82383 0
M  V30 4693 H 420.834 -2.91875 -4.4801 0
M  V30 4694 H 421.177 -1.28748 -3.95891 0
M  V30 4695 H 421.71 -2.65998 -2.95787 0
M  V30 4696 H 418.449 -5.63111 -3.35538 0
M  V30 4697 H 417.969 -4.19442 -4.28752 0
M  V30 4698 H 419.648 -4.78498 -4.35487 0
M  V30 4699 N 419.78 1.02168 -1.19998 0
M  V30 4700 C 421.01 1.79036 -1.031 0
M  V30 4701 C 421.418 1.84409 0.423078 0
M  V30 4702 O 420.761 1.29228 1.30559 0
M  V30 4703 C 420.823 3.25185 -1.53281 0
M  V30 4704 C 420.487 3.43431 -3.01503 0
M  V30 4705 C 421.484 3.33063 -3.99206 0
M  V30 4706 C 419.169 3.69412 -3.40353 0
M  V30 4707 C 421.163 3.48413 -5.33748 0
M  V30 4708 C 418.85 3.84406 -4.75053 0
M  V30 4709 C 419.848 3.7391 -5.71559 0
M  V30 4710 O 419.536 3.88452 -7.03818 0
M  V30 4711 H 419.268 0.570043 -0.363355 0
M  V30 4712 H 421.822 1.29524 -1.59414 0
M  V30 4713 H 420.052 3.75756 -0.913483 0
M  V30 4714 H 421.741 3.83671 -1.32481 0
M  V30 4715 H 422.507 3.12934 -3.70537 0
M  V30 4716 H 418.386 3.76671 -2.65782 0
M  V30 4717 H 421.93 3.40137 -6.09059 0
M  V30 4718 H 417.827 4.04035 -5.03415 0
M  V30 4719 H 418.595 4.055 -7.10993 0
M  V30 4720 N 421.258 1.00505 1.21394 0
M  V30 4721 C 422.205 0.565496 2.23765 0
M  V30 4722 C 423.175 -0.408466 1.60999 0
M  V30 4723 O 424.36 -0.310503 1.88257 0
M  V30 4724 C 421.5 -0.101667 3.4495 0
M  V30 4725 C 420.613 0.915479 4.22188 0
M  V30 4726 C 419.748 0.220574 5.30742 0
M  V30 4727 C 418.787 1.22527 5.99711 0
M  V30 4728 N 417.924 0.557831 6.9988 0
M  V30 4729 H 422.764 1.44314 2.60725 0
M  V30 4730 H 420.301 0.722643 1.28126 0
M  V30 4731 H 422.259 -0.505504 4.14126 0
M  V30 4732 H 420.889 -0.94303 3.08718 0
M  V30 4733 H 419.941 1.43756 3.52191 0
M  V30 4734 H 421.253 1.68005 4.69655 0
M  V30 4735 H 420.407 -0.239368 6.06228 0
M  V30 4736 H 419.146 -0.576401 4.84282 0
M  V30 4737 H 418.151 1.69571 5.22997 0
M  V30 4738 H 419.376 2.02332 6.48258 0
M  V30 4739 H 417.322 -0.219486 6.55633 0
M  V30 4740 H 417.239 1.26065 7.45415 0
M  V30 4741 H 418.507 0.121095 7.79406 0
M  V30 4742 N 422.737 -1.36956 0.779787 0
M  V30 4743 C 423.986 -1.98738 0.344405 0
M  V30 4744 C 424.299 -1.62596 -1.08728 0
M  V30 4745 O 425.505 -2.1754 -1.62445 0
M  V30 4746 C 423.961 -3.5544 0.564829 0
M  V30 4747 C 423.569 -4.00514 2.0073 0
M  V30 4748 C 425.313 -4.24059 0.193471 0
M  V30 4749 C 423.22 -5.49957 2.17489 0
M  V30 4750 H 422.15 -0.743561 0.12503 0
M  V30 4751 H 424.801 -1.56381 0.960057 0
M  V30 4752 H 423.183 -3.95817 -0.120397 0
M  V30 4753 H 424.357 -3.71362 2.72814 0
M  V30 4754 H 422.672 -3.44703 2.336 0
M  V30 4755 H 425.269 -5.33874 0.297097 0
M  V30 4756 H 425.612 -4.07378 -0.857263 0
M  V30 4757 H 426.145 -3.89012 0.831556 0
M  V30 4758 H 422.884 -5.71574 3.2091 0
M  V30 4759 H 422.404 -5.80767 1.49899 0
M  V30 4760 H 424.083 -6.16043 1.97738 0
M  V30 4761 N 424.215 -0.530993 -1.48385 0
M  V30 4762 C 425.463 0.00273189 -2.021 0
M  V30 4763 C 425.784 1.34672 -1.41027 0
M  V30 4764 O 425.054 1.8724 -0.576012 0
M  V30 4765 H 423.634 0.00399774 -0.746989 0
M  V30 4766 H 426.296 -0.695054 -1.82085 0
M  V30 4767 H 425.392 0.11031 -3.11905 0
M  V30 4768 N 425.693 1.55336 -0.266172 0
M  V30 4769 C 426.625 2.19544 0.658247 0
M  V30 4770 C 427.638 1.17746 1.12427 0
M  V30 4771 O 428.827 1.44517 1.04772 0
M  V30 4772 C 425.927 2.80032 1.9088 0
M  V30 4773 C 425.1 4.07436 1.59106 0
M  V30 4774 C 424.159 4.52056 2.69317 0
M  V30 4775 O 423.185 5.18023 2.35883 0
M  V30 4776 N 424.387 4.21448 3.99201 0
M  V30 4777 H 427.152 2.99503 0.108754 0
M  V30 4778 H 424.713 1.61667 -0.0869059 0
M  V30 4779 H 426.705 3.06831 2.63888 0
M  V30 4780 H 425.275 2.04119 2.36758 0
M  V30 4781 H 424.495 3.88021 0.695243 0
M  V30 4782 H 425.783 4.90462 1.35367 0
M  V30 4783 H 425.181 3.68528 4.29189 0
M  V30 4784 H 423.738 4.53039 4.68614 0
M  V30 4785 N 427.171 -0.0066808 1.57599 0
M  V30 4786 C 428.419 -0.691552 1.899 0
M  V30 4787 C 428.74 -1.74682 0.866672 0
M  V30 4788 O 428.01 -1.95661 -0.0968189 0
M  V30 4789 H 426.59 -0.258416 0.700878 0
M  V30 4790 H 429.252 0.0326655 1.94873 0
M  V30 4791 H 428.348 -1.16702 2.8946 0
M  V30 4792 N 428.649 -1.55105 -0.279332 0
M  V30 4793 C 429.879 -1.7917 -1.02867 0
M  V30 4794 C 430.287 -0.56204 -1.80659 0
M  V30 4795 O 429.63 0.478266 -1.77365 0
M  V30 4796 C 429.692 -2.96061 -2.03932 0
M  V30 4797 C 429.356 -4.33341 -1.45137 0
M  V30 4798 C 430.353 -5.12565 -0.870266 0
M  V30 4799 C 428.038 -4.79987 -1.48048 0
M  V30 4800 C 430.032 -6.36565 -0.326097 0
M  V30 4801 C 427.719 -6.03944 -0.932443 0
M  V30 4802 C 428.717 -6.8207 -0.356247 0
M  V30 4803 O 428.405 -8.03691 0.183412 0
M  V30 4804 H 428.137 -0.600796 -0.309872 0
M  V30 4805 H 430.691 -2.02932 -0.317468 0
M  V30 4806 H 428.921 -2.67975 -2.78794 0
M  V30 4807 H 430.61 -3.07506 -2.64943 0
M  V30 4808 H 431.376 -4.77661 -0.840521 0
M  V30 4809 H 427.255 -4.1919 -1.91835 0
M  V30 4810 H 430.799 -6.97489 0.124286 0
M  V30 4811 H 426.696 -6.3833 -0.959407 0
M  V30 4812 H 427.464 -8.18468 0.0721681 0
M  V30 4813 N 430.127 0.543554 -1.4793 0
M  V30 4814 C 431.057 1.65888 -1.64327 0
M  V30 4815 C 432.038 1.62818 -0.492383 0
M  V30 4816 O 433.223 1.80226 -0.723338 0
M  V30 4817 C 430.353 3.04506 -1.67013 0
M  V30 4818 C 429.307 3.2243 -2.81466 0
M  V30 4819 C 428.633 4.61972 -2.69233 0
M  V30 4820 C 429.933 3.06496 -4.22915 0
M  V30 4821 H 431.627 1.52421 -2.57698 0
M  V30 4822 H 429.173 0.731849 -1.24016 0
M  V30 4823 H 431.126 3.82391 -1.77074 0
M  V30 4824 H 429.85 3.18964 -0.70212 0
M  V30 4825 H 428.509 2.46957 -2.70938 0
M  V30 4826 H 428.157 4.73247 -1.7043 0
M  V30 4827 H 427.857 4.74911 -3.46025 0
M  V30 4828 H 429.381 5.41974 -2.81242 0
M  V30 4829 H 430.795 3.74186 -4.34348 0
M  V30 4830 H 429.192 3.30938 -5.006 0
M  V30 4831 H 430.262 2.03077 -4.40327 0
M  V30 4832 N 431.605 1.3629 0.791371 0
M  V30 4833 C 432.854 1.29742 1.54434 0
M  V30 4834 C 433.167 -0.121729 1.95221 0
M  V30 4835 O 434.373 -0.309579 2.69729 0
M  V30 4836 C 432.829 2.27623 2.78776 0
M  V30 4837 C 432.437 3.74963 2.45166 0
M  V30 4838 C 434.181 2.30047 3.56761 0
M  V30 4839 C 432.088 4.64626 3.65891 0
M  V30 4840 H 431.018 0.482113 0.579727 0
M  V30 4841 H 433.669 1.61642 0.868565 0
M  V30 4842 H 432.051 1.88714 3.48142 0
M  V30 4843 H 433.225 4.22596 1.83709 0
M  V30 4844 H 431.54 3.75295 1.80396 0
M  V30 4845 H 434.137 2.94247 4.46456 0
M  V30 4846 H 434.48 1.30846 3.95203 0
M  V30 4847 H 435.013 2.67563 2.94372 0
M  V30 4848 H 431.752 5.64883 3.32547 0
M  V30 4849 H 431.272 4.2171 4.26521 0
M  V30 4850 H 432.951 4.80801 4.32943 0
M  V30 4851 N 433.083 -1.0153 1.20538 0
M  V30 4852 C 434.03 -2.10098 0.955383 0
M  V30 4853 C 435 -1.65702 -0.114878 0
M  V30 4854 O 436.185 -1.90776 0.0301118 0
M  V30 4855 C 433.325 -3.41236 0.514969 0
M  V30 4856 C 432.438 -3.99102 1.65353 0
M  V30 4857 C 431.573 -5.18306 1.16329 0
M  V30 4858 C 430.612 -5.68258 2.27485 0
M  V30 4859 N 429.749 -6.78722 1.7967 0
M  V30 4860 H 434.589 -2.30818 1.88486 0
M  V30 4861 H 432.126 -1.13189 0.939499 0
M  V30 4862 H 434.084 -4.16504 0.240935 0
M  V30 4863 H 432.714 -3.20585 -0.377512 0
M  V30 4864 H 431.766 -3.20918 2.04245 0
M  V30 4865 H 433.078 -4.32177 2.49047 0
M  V30 4866 H 432.232 -6.00782 0.845302 0
M  V30 4867 H 430.971 -4.86799 0.296254 0
M  V30 4868 H 429.976 -4.84385 2.60099 0
M  V30 4869 H 431.201 -6.01798 3.14667 0
M  V30 4870 H 429.147 -6.49042 0.95295 0
M  V30 4871 H 429.064 -7.10996 2.56944 0
M  V30 4872 H 430.332 -7.64759 1.50875 0
M  V30 4873 N 434.561 -1.01147 -1.20859 0
M  V30 4874 C 435.838 -0.613136 -1.85742 0
M  V30 4875 C 436.218 0.909004 -1.90526 0
M  V30 4876 O 435.566 1.79862 -1.40932 0
M  V30 4877 C 435.776 -1.255 -3.25654 0
M  V30 4878 C 437.124 -1.3672 -4.01986 0
M  V30 4879 O 438.148 -1.21082 -3.34989 0
M  V30 4880 O 437.007 -1.6194 -5.21956 0
M  V30 4881 H 434.101 -0.210878 -0.799662 0
M  V30 4882 H 436.647 -1.10853 -1.2849 0
M  V30 4883 H 435.419 -2.29532 -3.16908 0
M  V30 4884 H 435.042 -0.746369 -3.90532 0
M  V30 4885 N 436.039 1.36541 -0.78704 0
M  V30 4886 C 437.287 1.98911 -0.357633 0
M  V30 4887 C 437.608 1.62778 1.07371 0
M  V30 4888 O 436.878 0.900612 1.73971 0
M  V30 4889 H 435.458 0.735734 -0.129246 0
M  V30 4890 H 438.12 1.66776 -1.00855 0
M  V30 4891 H 437.216 3.08874 -0.447549 0
M  V30 4892 N 437.518 0.538854 1.48102 0
M  V30 4893 C 438.465 -0.219042 2.29758 0
M  V30 4894 C 439.435 -0.925562 1.37922 0
M  V30 4895 O 440.62 -0.924855 1.66886 0
M  V30 4896 C 437.76 -1.25452 3.2149 0
M  V30 4897 C 436.873 -0.555943 4.28408 0
M  V30 4898 C 436.008 -1.57512 5.0731 0
M  V30 4899 C 435.047 -0.860498 6.06021 0
M  V30 4900 N 434.184 -1.82564 6.77949 0
M  V30 4901 H 439.024 0.483449 2.94052 0
M  V30 4902 H 436.561 0.250247 1.44956 0
M  V30 4903 H 438.519 -1.86727 3.7308 0
M  V30 4904 H 437.149 -1.92528 2.591 0
M  V30 4905 H 436.201 0.170938 3.80016 0
M  V30 4906 H 437.513 0.00474616 4.988 0
M  V30 4907 H 436.667 -2.26191 5.62959 0
M  V30 4908 H 435.406 -2.16972 4.36778 0
M  V30 4909 H 434.411 -0.159686 5.49568 0
M  V30 4910 H 435.636 -0.271897 6.78555 0
M  V30 4911 H 433.582 -2.40915 6.10161 0
M  V30 4912 H 433.499 -1.31662 7.44447 0
M  V30 4913 H 434.767 -2.50414 7.38182 0
M  V30 4914 N 438.996 -1.55193 0.274407 0
M  V30 4915 C 439.926 -2.25471 -0.607032 0
M  V30 4916 C 440.907 -1.24461 -1.15946 0
M  V30 4917 O 442.092 -1.53179 -1.19373 0
M  V30 4918 C 439.222 -2.97526 -1.79153 0
M  V30 4919 C 438.176 -4.05459 -1.37067 0
M  V30 4920 C 437.502 -4.65084 -2.6382 0
M  V30 4921 C 438.802 -5.19691 -0.521389 0
M  V30 4922 H 440.496 -2.99393 -0.0209343 0
M  V30 4923 H 438.042 -1.43997 -0.00862866 0
M  V30 4924 H 439.995 -3.45402 -2.41404 0
M  V30 4925 H 438.719 -2.21138 -2.40344 0
M  V30 4926 H 437.378 -3.58393 -0.771355 0
M  V30 4927 H 437.026 -3.85365 -3.23268 0
M  V30 4928 H 436.726 -5.37961 -2.36372 0
M  V30 4929 H 438.25 -5.15708 -3.26921 0
M  V30 4930 H 439.664 -5.63623 -1.04889 0
M  V30 4931 H 438.061 -5.99126 -0.341825 0
M  V30 4932 H 439.131 -4.82713 0.46 0
M  V30 4933 N 440.474 -0.00167713 -1.576 0
M  V30 4934 C 441.723 0.682021 -1.89819 0
M  V30 4935 C 442.036 1.74844 -0.876871 0
M  V30 4936 O 443.242 2.48688 -1.08934 0
M  V30 4937 C 441.698 1.26425 -3.36964 0
M  V30 4938 C 441.306 0.232568 -4.47396 0
M  V30 4939 C 443.05 1.92604 -3.78291 0
M  V30 4940 C 440.957 0.824882 -5.85619 0
M  V30 4941 H 439.887 0.258499 -0.708304 0
M  V30 4942 H 442.538 -0.0624957 -1.83394 0
M  V30 4943 H 440.92 2.05949 -3.38232 0
M  V30 4944 H 442.094 -0.5382 -4.57646 0
M  V30 4945 H 440.409 -0.32888 -4.15099 0
M  V30 4946 H 443.006 2.37827 -4.78897 0
M  V30 4947 H 443.349 2.75732 -3.11894 0
M  V30 4948 H 443.882 1.19812 -3.79328 0
M  V30 4949 H 440.621 0.0323542 -6.55492 0
M  V30 4950 H 440.141 1.56477 -5.79029 0
M  V30 4951 H 441.82 1.32301 -6.33329 0
M  V30 4952 N 441.952 1.55251 0.271103 0
M  V30 4953 C 442.899 1.88261 1.33516 0
M  V30 4954 C 443.869 0.734296 1.48988 0
M  V30 4955 O 445.054 0.985741 1.63364 0
M  V30 4956 C 442.194 2.16168 2.69008 0
M  V30 4957 C 441.307 3.43678 2.61743 0
M  V30 4958 C 440.442 3.61276 3.89427 0
M  V30 4959 C 439.481 4.82472 3.7668 0
M  V30 4960 N 438.618 4.96717 4.96202 0
M  V30 4961 H 443.458 2.79015 1.04665 0
M  V30 4962 H 440.995 1.38137 0.505618 0
M  V30 4963 H 442.953 2.30349 3.47844 0
M  V30 4964 H 441.583 1.28646 2.96057 0
M  V30 4965 H 440.635 3.37959 1.74607 0
M  V30 4966 H 441.947 4.3265 2.48224 0
M  V30 4967 H 441.101 3.75284 4.76704 0
M  V30 4968 H 439.84 2.70492 4.05814 0
M  V30 4969 H 438.845 4.68465 2.87786 0
M  V30 4970 H 440.07 5.74692 3.61809 0
M  V30 4971 H 438.016 4.08865 5.12997 0
M  V30 4972 H 437.933 5.79738 4.85222 0
M  V30 4973 H 439.201 5.15113 5.85046 0
M  V30 4974 N 443.43 -0.535701 1.48216 0
M  V30 4975 C 444.378 -1.66179 1.62749 0
M  V30 4976 C 445.372 -1.62034 0.49409 0
M  V30 4977 O 446.578 -1.6696 0.672624 0
M  V30 4978 H 442.953 -0.550244 0.512578 0
M  V30 4979 H 444.924 -1.51063 2.57337 0
M  V30 4980 C 443.673 -3.04471 1.67907 0
M  V30 4981 H 442.996 -3.08351 2.54479 0
M  V30 4982 H 444.436 -3.82894 1.82121 0
M  V30 4983 C 442.895 -3.34314 0.416596 0
M  V30 4984 O 443.425 -3.98905 -0.473014 0
M  V30 4985 N 441.631 -2.89149 0.290038 0
M  V30 4986 H 441.178 -2.36764 1.01493 0
M  V30 4987 H 441.136 -3.09486 -0.55367 0
M  V30 4988 N 444.908 -1.36708 -0.784132 0
M  V30 4989 C 445.856 -1.31533 -1.91838 0
M  V30 4990 C 446.85 -0.206205 -1.6814 0
M  V30 4991 O 448.056 -0.373519 -1.76082 0
M  V30 4992 H 444.431 -0.409613 -0.630651 0
M  V30 4993 H 446.402 -2.2731 -1.9332 0
M  V30 4994 C 445.151 -1.12679 -3.28936 0
M  V30 4995 H 444.474 -1.97274 -3.4774 0
M  V30 4996 H 445.914 -1.13106 -4.08636 0
M  V30 4997 C 444.373 0.168281 -3.36479 0
M  V30 4998 O 444.903 1.15625 -3.84699 0
M  V30 4999 N 443.109 0.214762 -2.89805 0
M  V30 5000 H 442.656 -0.589852 -2.50756 0
M  V30 5001 H 442.614 1.08094 -2.95234 0
M  V30 5002 N 446.386 1.0089 -1.21074 0
M  V30 5003 C 447.349 2.0775 -0.968129 0
M  V30 5004 C 448.349 1.6069 0.0593445 0
M  V30 5005 O 449.539 1.73293 -0.177525 0
M  V30 5006 C 446.671 3.37794 -0.459108 0
M  V30 5007 H 447.864 2.30707 -1.9161 0
M  V30 5008 H 445.417 1.17807 -1.02719 0
M  V30 5009 H 446.152 3.20516 0.49397 0
M  V30 5010 H 445.937 3.7328 -1.20019 0
M  V30 5011 H 447.427 4.16454 -0.309099 0
M  V30 5012 N 447.864 1.01787 1.20321 0
M  V30 5013 C 449.089 0.727009 1.9424 0
M  V30 5014 C 449.514 -0.706179 1.74341 0
M  V30 5015 O 448.872 -1.48609 1.03852 0
M  V30 5016 C 448.92 1.06958 3.44372 0
M  V30 5017 O 448.024 0.181983 4.11998 0
M  V30 5018 H 447.365 0.269626 0.606793 0
M  V30 5019 H 449.895 1.36158 1.52716 0
M  V30 5020 H 449.905 1.02182 3.94997 0
M  V30 5021 H 448.58 2.11378 3.58179 0
M  V30 5022 H 447.157 0.287378 3.71791 0
M  V30 5023 N 449.342 -1.36122 0.79427 0
M  V30 5024 C 450.57 -2.03362 0.380989 0
M  V30 5025 C 450.985 -1.59881 -1.00416 0
M  V30 5026 O 450.342 -0.790515 -1.6449 0
M  V30 5027 C 450.393 -3.58804 0.440649 0
M  V30 5028 O 450.114 -4.007 1.77118 0
M  V30 5029 C 451.615 -4.43296 0.0186117 0
M  V30 5030 H 448.835 -0.652526 0.156367 0
M  V30 5031 H 451.379 -1.73998 1.07447 0
M  V30 5032 H 449.534 -3.8686 -0.204458 0
M  V30 5033 H 449.948 -4.95309 1.72538 0
M  V30 5034 H 451.422 -5.51887 0.111488 0
M  V30 5035 H 451.899 -4.2684 -1.03461 0
M  V30 5036 H 452.505 -4.20512 0.636395 0
M  V30 5037 N 450.82 -0.546701 -1.47814 0
M  V30 5038 C 452.097 0.0464413 -1.95545 0
M  V30 5039 C 452.477 1.4962 -1.48919 0
M  V30 5040 O 451.825 2.16752 -0.723232 0
M  V30 5041 C 452.035 -0.0881298 -3.48889 0
M  V30 5042 C 453.383 0.0626059 -4.24554 0
M  V30 5043 O 454.407 -0.0151555 -3.56197 0
M  V30 5044 O 453.266 0.228071 -5.46024 0
M  V30 5045 H 450.36 0.0700004 -0.824032 0
M  V30 5046 H 452.906 -0.612482 -1.58262 0
M  V30 5047 H 451.678 -1.09737 -3.75597 0
M  V30 5048 H 451.301 0.608886 -3.9291 0
M  V30 5049 N 452.299 1.55045 -0.282633 0
M  V30 5050 C 453.529 2.03872 0.334635 0
M  V30 5051 C 453.937 1.16018 1.49454 0
M  V30 5052 O 453.28 0.174449 1.8287 0
M  V30 5053 C 453.342 3.48791 0.870905 0
M  V30 5054 C 453.006 4.56715 -0.161338 0
M  V30 5055 C 454.003 5.10513 -0.983466 0
M  V30 5056 C 451.688 5.01417 -0.297745 0
M  V30 5057 C 453.682 6.07538 -1.92811 0
M  V30 5058 C 451.369 5.98265 -1.24586 0
M  V30 5059 C 452.367 6.51208 -2.05954 0
M  V30 5060 O 452.055 7.46162 -2.99162 0
M  V30 5061 H 451.787 0.671324 0.0793742 0
M  V30 5062 H 454.341 2.01169 -0.41473 0
M  V30 5063 H 452.571 3.48758 1.67047 0
M  V30 5064 H 454.26 3.80916 1.40207 0
M  V30 5065 H 455.026 4.76785 -0.888856 0
M  V30 5066 H 450.905 4.59849 0.325604 0
M  V30 5067 H 454.449 6.48787 -2.56363 0
M  V30 5068 H 450.346 6.31412 -1.34126 0
M  V30 5069 H 451.114 7.63903 -2.93929 0
M  V30 5070 N 453.777 0.010035 1.57597 0
M  V30 5071 C 455.054 -0.710296 1.82248 0
M  V30 5072 C 455.434 -1.91426 0.889911 0
M  V30 5073 O 454.782 -2.28424 -0.0590292 0
M  V30 5074 C 454.992 -1.10655 3.30993 0
M  V30 5075 C 456.34 -1.50621 3.96987 0
M  V30 5076 O 457.364 -1.20007 3.35375 0
M  V30 5077 O 456.223 -2.07587 5.05539 0
M  V30 5078 H 453.317 -0.34673 0.750804 0
M  V30 5079 H 455.863 0.0362578 1.69661 0
M  V30 5080 H 454.635 -0.248826 3.90508 0
M  V30 5081 H 454.258 -1.91189 3.48615 0
M  V30 5082 N 455.255 -1.55392 -0.262866 0
M  V30 5083 C 456.185 -1.91978 -1.32917 0
M  V30 5084 C 457.166 -0.7828 -1.51017 0
M  V30 5085 O 458.351 -1.04178 -1.63892 0
M  V30 5086 C 455.481 -2.20055 -2.68687 0
M  V30 5087 C 454.435 -3.35854 -2.65304 0
M  V30 5088 C 453.761 -3.49435 -4.04721 0
M  V30 5089 C 455.061 -4.71977 -2.23685 0
M  V30 5090 H 456.755 -2.81292 -1.02544 0
M  V30 5091 H 454.301 -1.3534 -0.491846 0
M  V30 5092 H 456.254 -2.44237 -3.43404 0
M  V30 5093 H 454.978 -1.27551 -3.00663 0
M  V30 5094 H 453.637 -3.11655 -1.93045 0
M  V30 5095 H 453.285 -2.54379 -4.33936 0
M  V30 5096 H 452.985 -4.27297 -4.0335 0
M  V30 5097 H 454.509 -3.7592 -4.81161 0
M  V30 5098 H 455.923 -4.95637 -2.88127 0
M  V30 5099 H 454.32 -5.52828 -2.33456 0
M  V30 5100 H 455.39 -4.70115 -1.18827 0
M  V30 5101 N 456.733 0.527833 -1.48498 0
M  V30 5102 C 457.958 1.313 -1.60546 0
M  V30 5103 C 458.383 1.86199 -0.26672 0
M  V30 5104 O 457.741 1.64513 0.761918 0
M  V30 5105 C 457.789 2.43818 -2.65678 0
M  V30 5106 O 456.893 3.46916 -2.22987 0
M  V30 5107 H 456.234 0.388784 -0.538277 0
M  V30 5108 H 458.764 0.634896 -1.945 0
M  V30 5109 H 458.774 2.89973 -2.87018 0
M  V30 5110 H 457.449 2.03222 -3.62869 0
M  V30 5111 H 456.026 3.06864 -2.11869 0
M  V30 5112 N 458.211 1.37122 0.776871 0
M  V30 5113 C 459.488 1.22586 1.52421 0
M  V30 5114 C 459.868 -0.182726 2.10308 0
M  V30 5115 O 459.216 -1.18979 1.9508 0
M  V30 5116 C 459.426 2.31782 2.60918 0
M  V30 5117 C 460.774 2.69071 3.2846 0
M  V30 5118 O 461.798 2.3092 2.71209 0
M  V30 5119 O 460.657 3.3478 4.31954 0
M  V30 5120 H 457.751 0.478045 0.674835 0
M  V30 5121 H 460.297 1.48888 0.814275 0
M  V30 5122 H 459.069 3.26131 2.16227 0
M  V30 5123 H 458.692 2.06916 3.39517 0
M  V30 5124 N 459.689 -1.00246 1.21608 0
M  V30 5125 C 460.636 -2.09073 0.977613 0
M  V30 5126 C 461.606 -1.65815 -0.097297 0
M  V30 5127 O 462.791 -1.90734 0.0503445 0
M  V30 5128 C 459.931 -3.40671 0.551133 0
M  V30 5129 C 459.044 -3.97326 1.69576 0
M  V30 5130 C 458.179 -5.17043 1.2182 0
M  V30 5131 C 457.218 -5.65813 2.335 0
M  V30 5132 N 456.355 -6.76778 1.86859 0
M  V30 5133 H 461.195 -2.28806 1.90924 0
M  V30 5134 H 458.732 -1.12186 0.951452 0
M  V30 5135 H 460.69 -4.16225 0.285097 0
M  V30 5136 H 459.32 -3.20967 -0.343489 0
M  V30 5137 H 458.372 -3.18734 2.07637 0
M  V30 5138 H 459.684 -4.29511 2.53617 0
M  V30 5139 H 458.838 -5.99852 0.908975 0
M  V30 5140 H 457.577 -4.86458 0.347869 0
M  V30 5141 H 456.582 -4.81599 2.65222 0
M  V30 5142 H 457.807 -5.98427 3.21033 0
M  V30 5143 H 455.753 -6.47994 1.02174 0
M  V30 5144 H 455.67 -7.08231 2.64471 0
M  V30 5145 H 456.938 -7.63116 1.58978 0
M  V30 5146 N 461.167 -1.02423 -1.1978 0
M  V30 5147 C 462.392 -0.7373 -1.93852 0
M  V30 5148 C 462.817 0.696923 -1.74713 0
M  V30 5149 O 462.175 1.48056 -1.04638 0
M  V30 5150 C 462.223 -1.08783 -3.438 0
M  V30 5151 O 461.327 -0.20383 -4.11896 0
M  V30 5152 H 460.668 -0.27284 -0.605355 0
M  V30 5153 H 463.198 -1.36966 -1.51992 0
M  V30 5154 H 463.208 -1.04276 -3.9445 0
M  V30 5155 H 461.883 -2.13274 -3.57053 0
M  V30 5156 H 460.46 -0.307091 -3.71633 0
M  V30 5157 N 462.645 1.35699 -0.801477 0
M  V30 5158 C 463.894 1.98165 -0.375979 0
M  V30 5159 C 464.207 1.64306 1.06127 0
M  V30 5160 O 465.413 2.20097 1.58964 0
M  V30 5161 C 463.869 3.54497 -0.621305 0
M  V30 5162 C 463.477 3.9727 -2.07076 0
M  V30 5163 C 465.221 4.23697 -0.26091 0
M  V30 5164 C 463.128 5.46427 -2.26211 0
M  V30 5165 H 462.058 0.741478 -0.136844 0
M  V30 5166 H 464.709 1.54834 -0.984814 0
M  V30 5167 H 463.091 3.95958 0.0574112 0
M  V30 5168 H 464.265 3.66974 -2.78687 0
M  V30 5169 H 462.58 3.40943 -2.39054 0
M  V30 5170 H 465.177 5.33334 -0.381994 0
M  V30 5171 H 465.52 4.0869 0.792344 0
M  V30 5172 H 466.053 3.87639 -0.893339 0
M  V30 5173 H 462.792 5.66396 -3.29963 0
M  V30 5174 H 462.312 5.78309 -1.59119 0
M  V30 5175 H 463.991 6.12819 -2.07513 0
M  V30 5176 N 464.123 0.554532 1.47522 0
M  V30 5177 C 465.071 -0.207765 2.3167 0
M  V30 5178 C 466.065 -0.911914 1.4276 0
M  V30 5179 O 467.271 -0.833504 1.59539 0
M  V30 5180 H 463.646 -0.0858726 0.747081 0
M  V30 5181 H 465.617 0.521178 2.93813 0
M  V30 5182 C 464.366 -1.2263 3.25357 0
M  V30 5183 H 463.689 -0.693887 3.93732 0
M  V30 5184 H 465.129 -1.73062 3.87073 0
M  V30 5185 C 463.588 -2.27278 2.4869 0
M  V30 5186 O 464.118 -3.34156 2.22941 0
M  V30 5187 N 462.324 -2.01134 2.09746 0
M  V30 5188 H 461.871 -1.14232 2.30887 0
M  V30 5189 H 461.829 -2.71369 1.58765 0
M  V30 5190 N 465.601 -1.54893 0.290851 0
M  V30 5191 C 467.012 -1.85584 -0.203816 0
M  V30 5192 C 467.363 -1.21285 -1.54222 0
M  V30 5193 O 466.488 -0.506841 -2.10381 0
M  V30 5194 C 467.083 -3.367 -0.376595 0
M  V30 5195 C 465.642 -3.6746 -0.815485 0
M  V30 5196 C 464.789 -2.77178 0.0821087 0
M  V30 5197 H 467.74 -1.50208 0.512175 0
M  V30 5198 H 467.761 -3.60656 -1.21275 0
M  V30 5199 H 467.273 -3.8347 0.59767 0
M  V30 5200 H 465.374 -3.26201 -1.80066 0
M  V30 5201 H 465.487 -4.7478 -0.641905 0
M  V30 5202 H 463.851 -2.50925 -0.436895 0
M  V30 5203 H 464.634 -3.26767 1.05254 0
M  V30 5204 N 467.08 -0.0183926 -1.57589 0
M  V30 5205 C 468.01 0.965596 -2.12599 0
M  V30 5206 C 468.991 1.34641 -1.0395 0
M  V30 5207 O 470.176 1.42693 -1.31729 0
M  V30 5208 C 467.306 2.25149 -2.64434 0
M  V30 5209 C 466.26 2.01175 -3.77773 0
M  V30 5210 C 465.586 3.35937 -4.15994 0
M  V30 5211 C 466.886 1.35953 -5.04296 0
M  V30 5212 H 468.58 0.507504 -2.95067 0
M  V30 5213 H 466.126 0.242671 -1.41941 0
M  V30 5214 H 468.079 2.94357 -3.01549 0
M  V30 5215 H 466.803 2.73105 -1.79112 0
M  V30 5216 H 465.462 1.34388 -3.4108 0
M  V30 5217 H 465.11 3.81631 -3.27669 0
M  V30 5218 H 464.81 3.20705 -4.92364 0
M  V30 5219 H 466.334 4.0643 -4.55683 0
M  V30 5220 H 467.748 1.95144 -5.39065 0
M  V30 5221 H 466.145 1.31152 -5.85593 0
M  V30 5222 H 467.215 0.331071 -4.83768 0
M  V30 5223 N 468.558 1.5553 0.254621 0
M  V30 5224 C 469.806 1.7665 0.981793 0
M  V30 5225 C 470.127 0.580963 1.86145 0
M  V30 5226 O 469.397 -0.403537 1.91699 0
M  V30 5227 H 467.977 0.651475 0.365498 0
M  V30 5228 H 470.639 1.92958 0.274426 0
M  V30 5229 H 469.735 2.67486 1.60802 0
M  V30 5230 N 470.036 -0.519951 1.48776 0
M  V30 5231 C 471.284 -1.2727 1.56993 0
M  V30 5232 C 471.605 -1.9339 0.25004 0
M  V30 5233 O 470.875 -1.81822 -0.729216 0
M  V30 5234 H 469.455 -0.472732 0.578389 0
M  V30 5235 H 472.117 -0.604234 1.85297 0
M  V30 5236 H 471.213 -2.04669 2.3562 0
M  V30 5237 N 471.514 -1.37532 -0.769588 0
M  V30 5238 C 472.761 -1.3286 -1.52822 0
M  V30 5239 C 473.089 0.0862597 -1.94309 0
M  V30 5240 O 472.344 1.05995 -1.6451 0
M  V30 5241 C 472.643 -2.21558 -2.8044 0
M  V30 5242 C 472.309 -3.69796 -2.57996 0
M  V30 5243 C 470.971 -4.10194 -2.51583 0
M  V30 5244 C 473.323 -4.63699 -2.37976 0
M  V30 5245 C 470.651 -5.42608 -2.23144 0
M  V30 5246 C 473.003 -5.96353 -2.1106 0
M  V30 5247 C 471.667 -6.35853 -2.03093 0
M  V30 5248 H 470.937 -0.486168 -0.559215 0
M  V30 5249 H 473.584 -1.69757 -0.886277 0
M  V30 5250 H 471.889 -1.77663 -3.49204 0
M  V30 5251 H 473.586 -2.15256 -3.38328 0
M  V30 5252 H 470.176 -3.37759 -2.63851 0
M  V30 5253 H 474.36 -4.33346 -2.41919 0
M  V30 5254 H 469.616 -5.72173 -2.15472 0
M  V30 5255 H 473.79 -6.68667 -1.94568 0
M  V30 5256 H 471.417 -7.38382 -1.8082 0
M  V30 5257 N 472.992 0.995999 -1.22138 0
M  V30 5258 C 474.238 1.73767 -1.04561 0
M  V30 5259 C 474.571 1.89633 0.418698 0
M  V30 5260 O 473.846 1.43723 1.3105 0
M  V30 5261 C 474.129 3.14505 -1.75382 0
M  V30 5262 C 473.982 3.06306 -3.29388 0
M  V30 5263 C 475.301 4.13615 -1.50369 0
M  V30 5264 H 472.42 0.630728 -0.38125 0
M  V30 5265 H 475.062 1.16057 -1.50435 0
M  V30 5266 H 473.212 3.63775 -1.36383 0
M  V30 5267 H 474.884 2.64681 -3.77812 0
M  V30 5268 H 473.127 2.43186 -3.59226 0
M  V30 5269 H 473.798 4.05884 -3.74116 0
M  V30 5270 H 476.274 3.73089 -1.84239 0
M  V30 5271 H 475.15 5.10212 -2.02421 0
M  V30 5272 H 475.411 4.39949 -0.435611 0
M  V30 5273 N 474.47 1.03057 1.19235 0
M  V30 5274 C 475.42 0.583386 2.2041 0
M  V30 5275 C 476.404 -0.368776 1.56617 0
M  V30 5276 O 477.596 -0.189471 1.75983 0
M  V30 5277 C 474.725 -0.0626534 3.43243 0
M  V30 5278 C 473.811 0.91205 4.14177 0
M  V30 5279 N 474.202 2.07514 4.61272 0
M  V30 5280 C 472.5 0.735859 4.39888 0
M  V30 5281 C 473.201 2.69003 5.15764 0
M  V30 5282 N 472.177 1.96954 5.06666 0
M  V30 5283 H 475.979 1.46988 2.54503 0
M  V30 5284 H 473.493 0.897785 1.35328 0
M  V30 5285 H 475.49 -0.400653 4.1497 0
M  V30 5286 H 474.15 -0.944813 3.1065 0
M  V30 5287 H 475.161 2.45448 4.56043 0
M  V30 5288 H 471.838 -0.0970656 4.17387 0
M  V30 5289 H 473.228 3.67514 5.6248 0
M  V30 5290 N 475.948 -1.35272 0.808662 0
M  V30 5291 C 477.178 -2.02652 0.401953 0
M  V30 5292 C 477.586 -1.6108 -0.992462 0
M  V30 5293 O 476.929 -0.804984 -1.65123 0
M  V30 5294 C 476.991 -3.57174 0.408246 0
M  V30 5295 C 476.655 -4.22019 1.75353 0
M  V30 5296 C 477.652 -4.43552 2.71215 0
M  V30 5297 C 475.337 -4.59093 2.03811 0
M  V30 5298 C 477.331 -5.01264 3.93717 0
M  V30 5299 C 475.018 -5.16519 3.26576 0
M  V30 5300 C 476.016 -5.37546 4.21347 0
M  V30 5301 O 475.704 -5.93761 5.41944 0
M  V30 5302 H 475.436 -0.656495 0.161216 0
M  V30 5303 H 477.99 -1.73829 1.0942 0
M  V30 5304 H 476.22 -3.85197 -0.340608 0
M  V30 5305 H 477.909 -4.05893 0.0235623 0
M  V30 5306 H 478.675 -4.15288 2.50522 0
M  V30 5307 H 474.554 -4.42039 1.30854 0
M  V30 5308 H 478.098 -5.17592 4.67701 0
M  V30 5309 H 473.995 -5.4421 3.47139 0
M  V30 5310 H 474.763 -6.1221 5.43269 0
M  V30 5311 N 477.426 -0.562348 -1.47226 0
M  V30 5312 C 478.674 -0.0401371 -2.0206 0
M  V30 5313 C 478.995 1.3165 -1.43852 0
M  V30 5314 O 478.265 1.85976 -0.615599 0
M  V30 5315 H 476.845 -0.0118479 -0.746906 0
M  V30 5316 H 479.507 -0.73352 -1.8057 0
M  V30 5317 H 478.603 0.0441254 -3.12069 0
M  V30 5318 N 478.904 1.54736 -0.299062 0
M  V30 5319 C 479.814 2.27127 0.587413 0
M  V30 5320 C 480.83 1.30575 1.15005 0
M  V30 5321 O 482.006 1.63554 1.17525 0
M  V30 5322 C 479.071 2.99645 1.74395 0
M  V30 5323 C 478.132 4.11731 1.21559 0
M  V30 5324 C 477.365 4.80781 2.317 0
M  V30 5325 O 477.588 4.4918 3.51558 0
M  V30 5326 O 476.522 5.68226 1.98501 0
M  V30 5327 H 480.348 3.037 0.000250109 0
M  V30 5328 H 477.933 1.49256 -0.0655919 0
M  V30 5329 H 479.815 3.45138 2.4178 0
M  V30 5330 H 478.49 2.25969 2.31775 0
M  V30 5331 H 477.397 3.70641 0.507514 0
M  V30 5332 H 478.73 4.87379 0.687233 0
M  V30 5333 N 480.382 0.0267497 1.57577 0
M  V30 5334 C 481.628 -0.653371 1.91987 0
M  V30 5335 C 481.961 -1.71915 0.903263 0
M  V30 5336 O 481.236 -1.94358 -0.0743387 0
M  V30 5337 C 481.519 -1.272 3.36886 0
M  V30 5338 C 481.372 -0.215938 4.49281 0
M  V30 5339 C 482.691 -2.19069 3.81703 0
M  V30 5340 H 479.81 -0.236047 0.698177 0
M  V30 5341 H 482.452 0.0835236 1.89816 0
M  V30 5342 H 480.602 -1.90005 3.38866 0
M  V30 5343 H 482.274 0.41449 4.59434 0
M  V30 5344 H 480.517 0.458855 4.31366 0
M  V30 5345 H 481.188 -0.688347 5.47691 0
M  V30 5346 H 483.664 -1.66253 3.81444 0
M  V30 5347 H 482.54 -2.59307 4.83788 0
M  V30 5348 H 482.801 -3.08087 3.17072 0
M  V30 5349 N 481.861 -1.55662 -0.24637 0
M  V30 5350 C 483.089 -1.81575 -0.991876 0
M  V30 5351 C 483.504 -0.602545 -1.78927 0
M  V30 5352 O 482.861 0.428795 -1.77391 0
M  V30 5353 C 482.912 -3.05711 -1.92933 0
M  V30 5354 O 482.633 -4.22348 -1.1642 0
M  V30 5355 C 484.134 -3.44428 -2.79078 0
M  V30 5356 H 481.354 -0.604209 -0.291844 0
M  V30 5357 H 483.898 -2.02722 -0.269095 0
M  V30 5358 H 482.053 -2.86612 -2.60638 0
M  V30 5359 H 482.467 -4.92706 -1.79835 0
M  V30 5360 H 483.941 -4.34388 -3.40603 0
M  V30 5361 H 484.418 -2.65037 -3.50217 0
M  V30 5362 H 485.024 -3.65879 -2.16824 0
M  V30 5363 N 483.339 0.512053 -1.4905 0
M  V30 5364 C 484.287 1.63568 -1.65373 0
M  V30 5365 C 485.281 1.61228 -0.519806 0
M  V30 5366 O 486.487 1.65869 -0.699101 0
M  V30 5367 H 482.862 0.542019 -0.521267 0
M  V30 5368 H 484.833 1.4695 -2.59708 0
M  V30 5369 C 483.582 3.01761 -1.7273 0
M  V30 5370 H 482.905 3.04263 -2.59353 0
M  V30 5371 H 484.345 3.79948 -1.8819 0
M  V30 5372 C 482.804 3.33609 -0.46973 0
M  V30 5373 O 483.334 3.99607 0.409492 0
M  V30 5374 N 481.54 2.88651 -0.336003 0
M  V30 5375 H 481.087 2.35119 -1.05247 0
M  V30 5376 H 481.045 3.10328 0.504363 0
M  V30 5377 N 484.817 1.37938 0.762283 0
M  V30 5378 C 486.094 1.24196 1.51112 0
M  V30 5379 C 486.474 -0.160409 2.1049 0
M  V30 5380 O 485.822 -1.16904 1.96331 0
M  V30 5381 C 486.032 2.34537 2.58445 0
M  V30 5382 C 487.38 2.7254 3.25588 0
M  V30 5383 O 488.404 2.33783 2.68745 0
M  V30 5384 O 487.263 3.39343 4.28379 0
M  V30 5385 H 484.357 0.485175 0.669727 0
M  V30 5386 H 486.903 1.49743 0.798438 0
M  V30 5387 H 485.675 3.28406 2.12756 0
M  V30 5388 H 485.298 2.10505 3.37303 0
M  V30 5389 N 486.295 -0.989507 1.22664 0
M  V30 5390 C 487.542 -1.72953 1.05325 0
M  V30 5391 C 487.87 -1.90104 -0.411168 0
M  V30 5392 O 487.125 -1.44386 -1.32103 0
M  V30 5393 C 487.424 -3.13649 1.71345 0
M  V30 5394 C 487.09 -3.16403 3.21248 0
M  V30 5395 C 485.752 -3.16862 3.62149 0
M  V30 5396 C 488.104 -3.12428 4.17179 0
M  V30 5397 C 485.432 -3.11051 4.97458 0
M  V30 5398 C 487.784 -3.08159 5.52468 0
M  V30 5399 C 486.448 -3.06935 5.92746 0
M  V30 5400 H 485.718 -0.632881 0.385412 0
M  V30 5401 H 488.365 -1.15863 1.52473 0
M  V30 5402 H 486.67 -3.74069 1.16532 0
M  V30 5403 H 488.367 -3.69658 1.55416 0
M  V30 5404 H 484.957 -3.16798 2.88682 0
M  V30 5405 H 489.141 -3.11221 3.86595 0
M  V30 5406 H 484.397 -3.0845 5.27891 0
M  V30 5407 H 488.571 -3.04039 6.26525 0
M  V30 5408 H 486.198 -3.02186 6.97558 0
M  V30 5409 N 487.773 -1.03688 -1.18687 0
M  V30 5410 C 489.019 -0.739123 -1.88851 0
M  V30 5411 C 489.352 0.731042 -1.79915 0
M  V30 5412 O 488.627 1.53313 -1.19688 0
M  V30 5413 C 488.91 -1.20106 -3.3948 0
M  V30 5414 C 488.763 -2.73304 -3.57246 0
M  V30 5415 C 490.082 -0.788134 -4.32986 0
M  V30 5416 H 487.201 -0.269978 -0.68577 0
M  V30 5417 H 489.843 -1.28822 -1.3966 0
M  V30 5418 H 487.993 -0.733915 -3.81505 0
M  V30 5419 H 489.665 -3.28027 -3.24339 0
M  V30 5420 H 487.908 -3.13313 -3.00029 0
M  V30 5421 H 488.579 -3.00684 -4.62918 0
M  V30 5422 H 491.055 -1.19005 -3.98719 0
M  V30 5423 H 489.931 -1.13915 -5.36949 0
M  V30 5424 H 490.192 0.308988 -4.41019 0
M  V30 5425 N 489.251 1.34841 -0.815825 0
M  V30 5426 C 490.184 2.27504 -0.178062 0
M  V30 5427 C 491.162 1.48542 0.661373 0
M  V30 5428 O 492.346 1.77779 0.626653 0
M  V30 5429 C 489.473 3.30246 0.752002 0
M  V30 5430 C 488.519 4.26499 -0.00899172 0
M  V30 5431 S 489.352 5.18169 -1.35134 0
M  V30 5432 C 490.508 6.24449 -0.42596 0
M  V30 5433 H 490.741 2.81248 -0.963684 0
M  V30 5434 H 488.274 1.41781 -0.611355 0
M  V30 5435 H 490.232 3.89933 1.28308 0
M  V30 5436 H 488.893 2.75363 1.51109 0
M  V30 5437 H 488.086 4.99146 0.697766 0
M  V30 5438 H 487.688 3.7103 -0.470396 0
M  V30 5439 H 489.98 6.76404 0.385234 0
M  V30 5440 H 490.923 6.99156 -1.1219 0
M  V30 5441 H 491.331 5.64497 -0.0175461 0
M  V30 5442 N 490.729 0.570148 1.46925 0
M  V30 5443 C 491.659 -0.158274 2.32963 0
M  V30 5444 C 492.64 -0.896093 1.44583 0
M  V30 5445 O 493.825 -0.874022 1.7342 0
M  V30 5446 C 490.955 -1.18055 3.26619 0
M  V30 5447 C 489.909 -0.558379 4.24342 0
M  V30 5448 C 489.235 -1.68623 5.07415 0
M  V30 5449 C 490.535 0.496295 5.19937 0
M  V30 5450 H 492.229 0.560046 2.94115 0
M  V30 5451 H 489.775 0.270775 1.41431 0
M  V30 5452 H 491.728 -1.69841 3.85658 0
M  V30 5453 H 490.452 -1.92899 2.63548 0
M  V30 5454 H 489.111 -0.0617157 3.66548 0
M  V30 5455 H 488.759 -2.42402 4.40738 0
M  V30 5456 H 488.459 -1.27564 5.73586 0
M  V30 5457 H 489.983 -2.20709 5.69315 0
M  V30 5458 H 491.397 0.0640052 5.73264 0
M  V30 5459 H 489.794 0.82649 5.94381 0
M  V30 5460 H 490.864 1.38735 4.6463 0
M  V30 5461 N 492.207 -1.54576 0.307264 0
M  V30 5462 C 493.154 -2.23751 -0.56604 0
M  V30 5463 C 494.124 -1.22235 -1.12462 0
M  V30 5464 O 495.309 -1.50873 -1.16799 0
M  V30 5465 C 492.449 -2.98661 -1.72903 0
M  V30 5466 C 491.562 -4.14963 -1.20124 0
M  V30 5467 C 490.697 -4.77441 -2.3286 0
M  V30 5468 C 489.736 -5.85875 -1.77247 0
M  V30 5469 N 488.873 -6.42282 -2.8358 0
M  V30 5470 H 493.713 -2.97984 0.0304578 0
M  V30 5471 H 491.25 -1.47076 0.0268015 0
M  V30 5472 H 493.208 -3.40329 -2.41313 0
M  V30 5473 H 491.838 -2.26793 -2.29706 0
M  V30 5474 H 490.89 -3.78193 -0.409198 0
M  V30 5475 H 492.202 -4.93066 -0.754171 0
M  V30 5476 H 491.356 -5.21993 -3.09205 0
M  V30 5477 H 490.095 -3.98684 -2.80896 0
M  V30 5478 H 489.1 -5.40741 -0.993926 0
M  V30 5479 H 490.325 -6.6652 -1.30107 0
M  V30 5480 H 488.271 -5.66406 -3.30939 0
M  V30 5481 H 488.188 -7.1575 -2.43388 0
M  V30 5482 H 489.456 -6.91492 -3.59804 0
M  V30 5483 N 493.685 -0.035106 -1.57561 0
M  V30 5484 C 494.933 0.64096 -1.91667 0
M  V30 5485 C 495.254 1.72323 -0.912681 0
M  V30 5486 O 494.524 1.95849 0.0449089 0
M  V30 5487 H 493.104 0.239743 -0.707483 0
M  V30 5488 H 495.766 -0.084321 -1.94718 0
M  V30 5489 H 494.862 1.08987 -2.92452 0
M  V30 5490 N 495.163 1.55791 0.238111 0
M  V30 5491 C 496.403 1.79801 0.972163 0
M  V30 5492 C 496.767 0.606027 1.82185 0
M  V30 5493 O 497.968 0.725079 2.58836 0
M  V30 5494 C 496.239 3.08608 1.80266 0
M  V30 5495 S 497.798 3.53872 2.59461 0
M  V30 5496 H 494.616 0.631418 0.326852 0
M  V30 5497 H 497.218 1.94031 0.239212 0
M  V30 5498 H 495.922 3.93419 1.1683 0
M  V30 5499 H 495.453 2.9714 2.57821 0
M  V30 5500 H 497.468 3.15899 3.82651 0
M  V30 5501 N 496.642 -0.504142 1.49319 0
M  V30 5502 C 497.888 -1.26033 1.58882 0
M  V30 5503 C 498.221 -1.92268 0.273274 0
M  V30 5504 O 497.496 -1.80567 -0.72291 0
M  V30 5505 C 497.779 -2.32976 2.7458 0
M  V30 5506 C 497.632 -1.71263 4.1592 0
M  V30 5507 C 498.951 -3.34561 2.85932 0
M  V30 5508 H 496.07 -0.456863 0.578312 0
M  V30 5509 H 498.712 -0.558965 1.81592 0
M  V30 5510 H 496.862 -2.92796 2.55348 0
M  V30 5511 H 498.534 -1.15294 4.4666 0
M  V30 5512 H 496.777 -1.01686 4.21714 0
M  V30 5513 H 497.448 -2.48816 4.92742 0
M  V30 5514 H 499.924 -2.84727 3.0343 0
M  V30 5515 H 498.8 -4.06754 3.68568 0
M  V30 5516 H 499.061 -3.96695 1.95154 0
M  V30 5517 N 498.12 -1.38341 -0.754957 0
M  V30 5518 C 499.366 -1.34672 -1.51628 0
M  V30 5519 C 499.699 0.0636036 -1.94096 0
M  V30 5520 O 498.974 1.0245 -1.6533 0
M  V30 5521 C 499.257 -2.30116 -2.76981 0
M  V30 5522 C 499.11 -3.80003 -2.4066 0
M  V30 5523 C 500.429 -2.23715 -3.78998 0
M  V30 5524 H 497.548 -0.490517 -0.550056 0
M  V30 5525 H 500.19 -1.69178 -0.864807 0
M  V30 5526 H 498.34 -2.00821 -3.3257 0
M  V30 5527 H 500.012 -4.19966 -1.90856 0
M  V30 5528 H 498.255 -3.97751 -1.73137 0
M  V30 5529 H 498.926 -4.42244 -3.30339 0
M  V30 5530 H 501.402 -2.49574 -3.32945 0
M  V30 5531 H 500.278 -2.9261 -4.64403 0
M  V30 5532 H 500.539 -1.23554 -4.24484 0
M  V30 5533 N 499.598 0.982988 -1.23187 0
M  V30 5534 C 500.846 1.72052 -1.06031 0
M  V30 5535 C 501.167 1.90769 0.404019 0
M  V30 5536 O 500.437 1.47446 1.28982 0
M  V30 5537 H 499.017 0.637499 -0.389363 0
M  V30 5538 H 501.679 1.18338 -1.54862 0
M  V30 5539 H 500.775 2.7111 -1.54615 0
M  V30 5540 N 501.076 1.04316 1.18135 0
M  V30 5541 C 502.304 0.768117 1.92113 0
M  V30 5542 C 502.719 -0.675057 1.76319 0
M  V30 5543 O 502.076 -1.46038 1.09449 0
M  V30 5544 C 502.127 1.12808 3.43448 0
M  V30 5545 O 501.848 2.5146 3.58747 0
M  V30 5546 C 503.349 0.8779 4.3452 0
M  V30 5547 H 500.569 0.279937 0.609817 0
M  V30 5548 H 503.113 1.39149 1.49859 0
M  V30 5549 H 501.268 0.549623 3.83481 0
M  V30 5550 H 501.682 2.65313 4.52448 0
M  V30 5551 H 503.156 1.17959 5.39249 0
M  V30 5552 H 503.633 -0.187239 4.38801 0
M  V30 5553 H 504.239 1.43977 4.00188 0
M  V30 5554 N 502.554 -1.34406 0.822964 0
M  V30 5555 C 503.501 -2.29519 0.24284 0
M  V30 5556 C 504.471 -1.5359 -0.632397 0
M  V30 5557 O 505.656 -1.8196 -0.57403 0
M  V30 5558 C 502.796 -3.40032 -0.58925 0
M  V30 5559 C 501.909 -4.30899 0.308236 0
M  V30 5560 C 501.044 -5.28515 -0.533425 0
M  V30 5561 C 500.083 -6.1102 0.363444 0
M  V30 5562 N 499.22 -7.00725 -0.439147 0
M  V30 5563 H 504.06 -2.78537 1.05929 0
M  V30 5564 H 501.597 -1.3707 0.533872 0
M  V30 5565 H 503.555 -4.0279 -1.087 0
M  V30 5566 H 502.185 -2.92248 -1.37081 0
M  V30 5567 H 501.237 -3.69002 0.924203 0
M  V30 5568 H 502.549 -4.88717 0.997862 0
M  V30 5569 H 501.703 -5.96725 -1.09565 0
M  V30 5570 H 500.442 -4.71235 -1.25656 0
M  V30 5571 H 499.447 -5.41743 0.937812 0
M  V30 5572 H 500.672 -6.70381 1.08469 0
M  V30 5573 H 498.618 -6.45913 -1.14595 0
M  V30 5574 H 498.535 -7.55756 0.19209 0
M  V30 5575 H 499.803 -7.73263 -0.984124 0
M  V30 5576 N 504.032 -0.577932 -1.46621 0
M  V30 5577 C 504.979 0.158048 -2.30258 0
M  V30 5578 C 505.949 0.888669 -1.40328 0
M  V30 5579 O 507.134 0.880283 -1.6928 0
M  V30 5580 C 504.274 1.16884 -3.24703 0
M  V30 5581 C 503.387 0.442163 -4.29731 0
M  V30 5582 C 502.522 1.44007 -5.11308 0
M  V30 5583 C 501.561 0.69952 -6.0809 0
M  V30 5584 N 500.698 1.64525 -6.82551 0
M  V30 5585 H 505.538 -0.561242 -2.92667 0
M  V30 5586 H 503.075 -0.288591 -1.44241 0
M  V30 5587 H 505.033 1.7677 -3.779 0
M  V30 5588 H 503.663 1.85591 -2.64113 0
M  V30 5589 H 502.715 -0.271632 -3.79429 0
M  V30 5590 H 504.027 -0.136992 -4.98612 0
M  V30 5591 H 503.181 2.11186 -5.68758 0
M  V30 5592 H 501.92 2.05315 -4.42377 0
M  V30 5593 H 500.925 0.0139217 -5.49798 0
M  V30 5594 H 502.15 0.091894 -6.79038 0
M  V30 5595 H 500.096 2.24653 -6.16334 0
M  V30 5596 H 500.013 1.11878 -7.47676 0
M  V30 5597 H 501.281 2.30754 -7.44562 0
M  V30 5598 N 505.51 1.54411 -0.315457 0
M  V30 5599 C 506.926 1.59556 0.037464 0
M  V30 5600 C 507.126 1.33217 1.5118 0
M  V30 5601 O 506.182 1.11264 2.26664 0
M  V30 5602 C 507.495 2.98372 -0.373477 0
M  V30 5603 C 509.043 3.11324 -0.323452 0
M  V30 5604 C 509.518 4.52472 -0.709433 0
M  V30 5605 N 511.009 4.58437 -0.662524 0
M  V30 5606 C 511.744 5.65751 -0.933474 0
M  V30 5607 N 511.24 6.81039 -1.27114 0
M  V30 5608 N 513.033 5.55489 -0.859573 0
M  V30 5609 H 505.184 1.6979 -1.27614 0
M  V30 5610 H 507.447 0.793732 -0.518356 0
M  V30 5611 H 507.153 3.22618 -1.40037 0
M  V30 5612 H 507.027 3.76264 0.265615 0
M  V30 5613 H 509.414 2.86818 0.694223 0
M  V30 5614 H 509.495 2.35555 -0.997367 0
M  V30 5615 H 509.139 4.7771 -1.72498 0
M  V30 5616 H 509.069 5.26598 -0.0132923 0
M  V30 5617 H 511.56 3.75636 -0.413065 0
M  V30 5618 H 511.873 7.58816 -1.46348 0
M  V30 5619 H 510.218 6.82555 -1.30932 0
M  V30 5620 H 513.409 4.64299 -0.595324 0
M  V30 5621 H 513.582 6.39036 -1.0741 0
M  V30 5622 N 506.988 0.0434614 1.5754 0
M  V30 5623 C 508.234 -0.632971 1.92669 0
M  V30 5624 C 508.567 -1.70947 0.921446 0
M  V30 5625 O 507.842 -1.94426 -0.0537202 0
M  V30 5626 C 508.125 -1.23619 3.38216 0
M  V30 5627 C 507.978 -0.168274 4.49485 0
M  V30 5628 C 509.297 -2.15008 3.84005 0
M  V30 5629 H 506.416 -0.228629 0.700641 0
M  V30 5630 H 509.058 0.103651 1.89717 0
M  V30 5631 H 507.208 -1.864 3.40863 0
M  V30 5632 H 508.88 0.463196 4.58969 0
M  V30 5633 H 507.123 0.504581 4.30855 0
M  V30 5634 H 507.794 -0.630218 5.48391 0
M  V30 5635 H 510.27 -1.62198 3.83185 0
M  V30 5636 H 509.146 -2.54161 4.86511 0
M  V30 5637 H 509.407 -3.04707 3.20322 0
M  V30 5638 N 508.466 -1.55915 -0.229846 0
M  V30 5639 C 509.396 -1.94754 -1.28815 0
M  V30 5640 C 510.377 -0.814657 -1.49323 0
M  V30 5641 O 511.562 -1.07631 -1.61645 0
M  V30 5642 C 508.692 -2.25705 -2.63959 0
M  V30 5643 C 507.646 -3.41406 -2.5812 0
M  V30 5644 C 506.972 -3.57941 -3.97218 0
M  V30 5645 C 508.272 -4.76616 -2.13623 0
M  V30 5646 H 509.966 -2.83404 -0.965547 0
M  V30 5647 H 507.512 -1.36353 -0.463028 0
M  V30 5648 H 509.465 -2.51467 -3.38146 0
M  V30 5649 H 508.189 -1.339 -2.9789 0
M  V30 5650 H 506.848 -3.1568 -1.86391 0
M  V30 5651 H 506.496 -2.63526 -4.28443 0
M  V30 5652 H 506.196 -4.35757 -3.94195 0
M  V30 5653 H 507.72 -3.86042 -4.73079 0
M  V30 5654 H 509.134 -5.01637 -2.77549 0
M  V30 5655 H 507.531 -5.57655 -2.21677 0
M  V30 5656 H 508.601 -4.7253 -1.08829 0
M  V30 5657 N 509.944 0.496216 -1.49584 0
M  V30 5658 C 511.172 1.27394 -1.63029 0
M  V30 5659 C 511.587 1.86344 -0.303569 0
M  V30 5660 O 510.944 1.68057 0.711547 0
M  V30 5661 C 510.995 2.40077 -2.70269 0
M  V30 5662 O 510.716 1.83549 -3.97796 0
M  V30 5663 C 512.217 3.31372 -2.94462 0
M  V30 5664 H 509.437 0.386211 -0.54871 0
M  V30 5665 H 511.981 0.595163 -1.95648 0
M  V30 5666 H 510.136 3.03775 -2.40415 0
M  V30 5667 H 510.55 2.57561 -4.56905 0
M  V30 5668 H 512.024 4.06707 -3.73221 0
M  V30 5669 H 512.501 3.88654 -2.0456 0
M  V30 5670 H 513.107 2.73435 -3.25751 0
M  V30 5671 N 511.423 1.38739 0.74761 0
M  V30 5672 C 512.353 1.39173 1.87492 0
M  V30 5673 C 513.334 0.256794 1.6815 0
M  V30 5674 O 514.519 0.460762 1.88655 0
M  V30 5675 C 511.649 1.22197 3.25093 0
M  V30 5676 C 510.603 2.32957 3.59047 0
M  V30 5677 C 509.929 2.01082 4.95449 0
M  V30 5678 C 511.229 3.75237 3.6331 0
M  V30 5679 H 512.923 2.3351 1.87386 0
M  V30 5680 H 510.469 1.12399 0.900134 0
M  V30 5681 H 512.422 1.21124 4.03617 0
M  V30 5682 H 511.146 0.243241 3.25693 0
M  V30 5683 H 509.805 2.33226 2.82845 0
M  V30 5684 H 509.453 1.01678 4.92616 0
M  V30 5685 H 509.153 2.75267 5.19136 0
M  V30 5686 H 510.677 2.01638 5.76346 0
M  V30 5687 H 512.091 3.76966 4.31937 0
M  V30 5688 H 510.488 4.48677 3.98509 0
M  V30 5689 H 511.558 4.07122 2.634 0
M  V30 5690 N 512.901 -0.976442 1.23707 0
M  V30 5691 C 514.317 -1.24341 1.00058 0
M  V30 5692 C 514.517 -1.99315 -0.295932 0
M  V30 5693 O 513.573 -2.3123 -1.01435 0
M  V30 5694 C 514.886 -2.03909 2.21001 0
M  V30 5695 C 516.434 -2.17034 2.25534 0
M  V30 5696 C 516.909 -2.99994 3.46075 0
M  V30 5697 N 518.4 -3.07578 3.46338 0
M  V30 5698 C 519.135 -3.72104 4.36264 0
M  V30 5699 N 518.631 -4.3842 5.36432 0
M  V30 5700 N 520.424 -3.69029 4.23998 0
M  V30 5701 H 512.575 -0.47428 2.07037 0
M  V30 5702 H 514.838 -0.272167 0.908091 0
M  V30 5703 H 514.544 -1.56198 3.15111 0
M  V30 5704 H 514.418 -3.04654 2.22409 0
M  V30 5705 H 516.805 -2.63951 1.31961 0
M  V30 5706 H 516.886 -1.15664 2.28156 0
M  V30 5707 H 516.53 -2.53772 4.39957 0
M  V30 5708 H 516.46 -4.01541 3.40694 0
M  V30 5709 H 518.951 -2.60397 2.73865 0
M  V30 5710 H 519.264 -4.85447 6.013 0
M  V30 5711 H 517.609 -4.37116 5.40328 0
M  V30 5712 H 520.8 -3.16392 3.44984 0
M  V30 5713 H 520.973 -4.19034 4.94282 0
M  V30 5714 N 514.379 -1.04941 -1.1758 0
M  V30 5715 C 515.326 -0.648155 -2.21512 0
M  V30 5716 C 516.296 0.348431 -1.62404 0
M  V30 5717 O 517.481 0.240419 -1.89279 0
M  V30 5718 C 514.621 -0.0264291 -3.4509 0
M  V30 5719 C 513.734 -1.07154 -4.185 0
M  V30 5720 C 512.869 -0.417403 -5.29558 0
M  V30 5721 C 511.908 -1.447 -5.94751 0
M  V30 5722 N 511.045 -0.817203 -6.97328 0
M  V30 5723 H 515.885 -1.53891 -2.55189 0
M  V30 5724 H 513.422 -0.769699 -1.25356 0
M  V30 5725 H 515.38 0.351456 -4.15717 0
M  V30 5726 H 514.01 0.827802 -3.12005 0
M  V30 5727 H 513.062 -1.56728 -3.46613 0
M  V30 5728 H 514.374 -1.8532 -4.63096 0
M  V30 5729 H 513.528 0.0142061 -6.06698 0
M  V30 5730 H 512.267 0.396265 -4.86087 0
M  V30 5731 H 511.272 -1.88865 -5.16343 0
M  V30 5732 H 512.497 -2.26252 -6.40302 0
M  V30 5733 H 510.443 -0.0239995 -6.55996 0
M  V30 5734 H 510.36 -1.53644 -7.40223 0
M  V30 5735 H 511.628 -0.410283 -7.7842 0
M  V30 5736 N 515.857 1.33968 -0.830081 0
M  V30 5737 C 517.082 2.02813 -0.433796 0
M  V30 5738 C 517.507 1.62076 0.954614 0
M  V30 5739 O 516.865 0.808955 1.62252 0
M  V30 5740 C 516.913 3.56348 -0.552115 0
M  V30 5741 O 516.017 4.10202 0.425191 0
M  V30 5742 H 515.358 0.639817 -0.177567 0
M  V30 5743 H 517.888 1.7106 -1.12248 0
M  V30 5744 H 517.898 4.05722 -0.430513 0
M  V30 5745 H 516.573 3.85344 -1.56471 0
M  V30 5746 H 515.15 3.71979 0.261878 0
M  V30 5747 N 517.335 0.585699 1.46312 0
M  V30 5748 C 518.265 -0.133556 2.33118 0
M  V30 5749 C 519.246 -0.880707 1.45525 0
M  V30 5750 O 520.431 -0.855579 1.74337 0
M  V30 5751 C 517.561 -1.14585 3.27853 0
M  V30 5752 C 516.515 -0.513341 4.2491 0
M  V30 5753 C 515.841 -1.63231 5.09175 0
M  V30 5754 C 517.141 0.551413 5.19381 0
M  V30 5755 H 518.835 0.59121 2.93505 0
M  V30 5756 H 516.381 0.285761 1.41136 0
M  V30 5757 H 518.334 -1.65741 3.87438 0
M  V30 5758 H 517.058 -1.90093 2.65579 0
M  V30 5759 H 515.717 -0.0228349 3.66593 0
M  V30 5760 H 515.365 -2.37713 4.43285 0
M  V30 5761 H 515.065 -1.21473 5.74907 0
M  V30 5762 H 516.589 -2.14658 5.71624 0
M  V30 5763 H 518.003 0.124804 5.73164 0
M  V30 5764 H 516.4 0.889486 5.93471 0
M  V30 5765 H 517.47 1.43655 4.63132 0
M  V30 5766 N 518.813 -1.54241 0.323641 0
M  V30 5767 C 519.743 -2.27289 -0.534993 0
M  V30 5768 C 520.724 -1.28087 -1.11927 0
M  V30 5769 O 521.909 -1.56899 -1.14439 0
M  V30 5770 C 519.039 -3.03075 -1.69596 0
M  V30 5771 C 517.993 -4.09614 -1.24098 0
M  V30 5772 C 517.319 -4.73242 -2.4889 0
M  V30 5773 C 518.619 -5.21087 -0.355789 0
M  V30 5774 H 520.313 -2.99308 0.0743257 0
M  V30 5775 H 517.859 -1.43952 0.0371874 0
M  V30 5776 H 519.812 -3.52907 -2.30293 0
M  V30 5777 H 518.536 -2.28673 -2.33187 0
M  V30 5778 H 517.195 -3.60666 -0.656945 0
M  V30 5779 H 516.843 -3.95455 -3.10845 0
M  V30 5780 H 516.543 -5.45209 -2.19138 0
M  V30 5781 H 518.067 -5.25848 -3.10348 0
M  V30 5782 H 519.481 -5.66675 -0.869042 0
M  V30 5783 H 517.878 -5.9991 -0.151045 0
M  V30 5784 H 518.948 -4.81005 0.613339 0
M  V30 5785 N 520.291 -0.0518155 -1.57515 0
M  V30 5786 C 521.537 0.622745 -1.93002 0
M  V30 5787 C 521.87 1.70456 -0.930499 0
M  V30 5788 O 521.145 1.94452 0.0434086 0
M  V30 5789 C 521.428 1.21824 -3.38867 0
M  V30 5790 C 521.281 0.144434 -4.49568 0
M  V30 5791 C 522.6 2.12968 -3.8514 0
M  V30 5792 H 519.719 0.22491 -0.701844 0
M  V30 5793 H 522.361 -0.113711 -1.89659 0
M  V30 5794 H 520.511 1.8459 -3.41846 0
M  V30 5795 H 522.183 -0.48753 -4.58717 0
M  V30 5796 H 520.426 -0.527424 -4.30582 0
M  V30 5797 H 521.097 0.601127 -5.48717 0
M  V30 5798 H 523.573 1.60163 -3.8404 0
M  V30 5799 H 522.449 2.51578 -4.87852 0
M  V30 5800 H 522.71 3.03004 -3.21934 0
M  V30 5801 N 521.769 1.56035 0.221574 0
M  V30 5802 C 522.701 1.889 1.29805 0
M  V30 5803 C 523.714 0.777269 1.43047 0
M  V30 5804 O 524.903 1.05557 1.43945 0
M  V30 5805 C 522.003 2.0825 2.67367 0
M  V30 5806 C 521.176 3.39267 2.76073 0
M  V30 5807 C 520.235 3.48049 3.94649 0
M  V30 5808 O 519.261 4.2108 3.82988 0
M  V30 5809 N 520.463 2.79191 5.08953 0
M  V30 5810 H 523.228 2.81831 1.01938 0
M  V30 5811 H 520.789 1.5658 0.411612 0
M  V30 5812 H 522.781 2.11441 3.45072 0
M  V30 5813 H 521.351 1.21944 2.87834 0
M  V30 5814 H 520.571 3.48175 1.84846 0
M  V30 5815 H 521.859 4.25575 2.7886 0
M  V30 5816 H 521.257 2.19635 5.21322 0
M  V30 5817 H 519.814 2.88043 5.84701 0
M  V30 5818 N 523.247 -0.488276 1.49845 0
M  V30 5819 C 524.475 -1.26527 1.63702 0
M  V30 5820 C 524.89 -1.8618 0.313447 0
M  V30 5821 O 524.247 -1.68432 -0.702624 0
M  V30 5822 C 524.298 -2.3864 2.71538 0
M  V30 5823 O 524.019 -1.81437 3.98763 0
M  V30 5824 C 525.52 -3.29805 2.96215 0
M  V30 5825 H 522.74 -0.383295 0.55075 0
M  V30 5826 H 525.284 -0.584779 1.95961 0
M  V30 5827 H 523.439 -3.02496 2.42023 0
M  V30 5828 H 523.853 -2.55135 4.58265 0
M  V30 5829 H 525.327 -4.04722 3.75372 0
M  V30 5830 H 525.804 -3.87563 2.06619 0
M  V30 5831 H 526.41 -2.71703 3.27196 0
M  V30 5832 N 524.725 -1.39134 -0.740242 0
M  V30 5833 C 525.672 -1.37434 -1.8542 0
M  V30 5834 C 526.642 -0.234822 -1.64432 0
M  V30 5835 O 527.827 -0.429125 -1.85912 0
M  V30 5836 C 524.967 -1.21844 -3.22875 0
M  V30 5837 C 524.08 -2.45296 -3.55603 0
M  V30 5838 C 523.215 -2.22334 -4.82432 0
M  V30 5839 C 522.254 -3.41488 -5.07988 0
M  V30 5840 N 521.391 -3.17877 -6.26018 0
M  V30 5841 H 526.231 -2.3266 -1.86207 0
M  V30 5842 H 523.768 -1.15578 -0.909946 0
M  V30 5843 H 525.726 -1.10818 -4.02213 0
M  V30 5844 H 524.356 -0.3025 -3.21379 0
M  V30 5845 H 523.408 -2.66945 -2.71006 0
M  V30 5846 H 524.72 -3.34063 -3.7041 0
M  V30 5847 H 523.874 -2.0852 -5.69741 0
M  V30 5848 H 522.613 -1.30954 -4.6979 0
M  V30 5849 H 521.618 -3.55807 -4.19144 0
M  V30 5850 H 522.843 -4.33763 -5.22519 0
M  V30 5851 H 520.789 -2.29156 -6.14673 0
M  V30 5852 H 520.706 -4.00198 -6.41387 0
M  V30 5853 H 521.974 -3.07746 -7.16179 0
M  V30 5854 N 526.204 0.969867 -1.24223 0
M  V30 5855 C 527.62 1.23809 -1.00716 0
M  V30 5856 C 527.82 1.99469 0.285358 0
M  V30 5857 O 526.876 2.31764 1.00207 0
M  V30 5858 C 528.189 2.02734 -2.2208 0
M  V30 5859 C 529.737 2.15834 -2.26681 0
M  V30 5860 C 530.212 2.98154 -3.47661 0
M  V30 5861 N 531.703 3.05737 -3.47964 0
M  V30 5862 C 532.438 3.69785 -4.38231 0
M  V30 5863 N 531.934 4.35569 -5.3875 0
M  V30 5864 N 533.727 3.66775 -4.25949 0
M  V30 5865 H 525.878 0.463294 -2.07286 0
M  V30 5866 H 528.141 0.267348 -0.909521 0
M  V30 5867 H 527.847 1.54524 -3.15935 0
M  V30 5868 H 527.721 3.0347 -2.24021 0
M  V30 5869 H 530.108 2.63248 -1.33359 0
M  V30 5870 H 530.189 1.14453 -2.28767 0
M  V30 5871 H 529.833 2.51435 -4.41297 0
M  V30 5872 H 529.763 3.99729 -3.42818 0
M  V30 5873 H 532.254 2.58941 -2.75242 0
M  V30 5874 H 532.567 4.82251 -6.03866 0
M  V30 5875 H 530.912 4.34244 -5.42639 0
M  V30 5876 H 534.103 3.14558 -3.46657 0
M  V30 5877 H 534.276 4.16407 -4.96497 0
M  V30 5878 N 527.682 1.05563 1.17022 0
M  V30 5879 C 529.098 0.777684 1.39371 0
M  V30 5880 C 529.298 -0.626269 1.91521 0
M  V30 5881 O 528.354 -1.38806 2.10924 0
M  V30 5882 C 529.667 1.83642 2.3811 0
M  V30 5883 C 531.215 1.85907 2.51809 0
M  V30 5884 C 531.69 2.90813 3.53824 0
M  V30 5885 N 533.181 2.898 3.61345 0
M  V30 5886 C 533.916 3.6762 4.40049 0
M  V30 5887 N 533.412 4.55237 5.22237 0
M  V30 5888 N 535.205 3.56044 4.34959 0
M  V30 5889 H 527.356 1.9614 0.815047 0
M  V30 5890 H 529.619 0.849527 0.420722 0
M  V30 5891 H 529.325 2.84425 2.06871 0
M  V30 5892 H 529.199 1.6812 3.37662 0
M  V30 5893 H 531.586 0.857865 2.82356 0
M  V30 5894 H 531.667 2.05506 1.52318 0
M  V30 5895 H 531.311 3.91122 3.24015 0
M  V30 5896 H 531.241 2.68465 4.53028 0
M  V30 5897 H 533.732 2.26274 3.02669 0
M  V30 5898 H 534.045 5.11291 5.79484 0
M  V30 5899 H 532.39 4.59296 5.21605 0
M  V30 5900 H 535.581 2.86986 3.69806 0
M  V30 5901 H 535.754 4.16938 4.96051 0
M  V30 5902 N 529.16 -1.33526 0.837174 0
M  V30 5903 C 530.123 -2.27551 0.274421 0
M  V30 5904 C 531.123 -1.50886 -0.555881 0
M  V30 5905 O 532.313 -1.70227 -0.369918 0
M  V30 5906 C 529.445 -3.35332 -0.613605 0
M  V30 5907 H 530.638 -2.78837 1.10408 0
M  V30 5908 H 528.191 -1.439 0.610126 0
M  V30 5909 H 528.926 -2.89285 -1.46577 0
M  V30 5910 H 528.711 -3.92095 -0.0195341 0
M  V30 5911 H 530.201 -4.05433 -1.00068 0
M  V30 5912 N 530.638 -0.59345 -1.46 0
M  V30 5913 C 531.568 0.121192 -2.33185 0
M  V30 5914 C 532.549 0.872977 -1.4599 0
M  V30 5915 O 533.734 0.846321 -1.74789 0
M  V30 5916 C 530.864 1.12844 -3.28456 0
M  V30 5917 C 529.818 0.4908 -4.25177 0
M  V30 5918 C 529.144 1.60529 -5.10034 0
M  V30 5919 C 530.444 -0.578949 -5.19081 0
M  V30 5920 H 532.138 -0.606767 -2.93187 0
M  V30 5921 H 529.684 -0.293242 -1.40983 0
M  V30 5922 H 531.637 1.63684 -3.88311 0
M  V30 5923 H 530.361 1.88681 -2.66584 0
M  V30 5924 H 529.02 0.00339328 -3.666 0
M  V30 5925 H 528.668 2.35359 -4.44539 0
M  V30 5926 H 528.368 1.18422 -5.75543 0
M  V30 5927 H 529.892 2.11623 -5.72755 0
M  V30 5928 H 531.306 -0.155199 -5.7309 0
M  V30 5929 H 529.703 -0.920947 -5.92991 0
M  V30 5930 H 530.773 -1.46109 -4.62364 0
M  V30 5931 N 532.116 1.54067 -0.331816 0
M  V30 5932 C 533.026 2.28322 0.539104 0
M  V30 5933 C 534.042 1.32985 1.1221 0
M  V30 5934 O 535.218 1.6601 1.1403 0
M  V30 5935 C 532.283 3.03277 1.68 0
M  V30 5936 C 531.344 4.14216 1.12798 0
M  V30 5937 C 530.577 4.85588 2.2145 0
M  V30 5938 O 530.8 4.56536 3.41952 0
M  V30 5939 O 529.734 5.72309 1.86404 0
M  V30 5940 H 533.56 3.03632 -0.0641692 0
M  V30 5941 H 531.145 1.49083 -0.0972365 0
M  V30 5942 H 533.027 3.50189 2.34405 0
M  V30 5943 H 531.702 2.30834 2.2693 0
M  V30 5944 H 530.609 3.71635 0.428782 0
M  V30 5945 H 531.942 4.88727 0.583698 0
M  V30 5946 N 533.594 0.0601682 1.57485 0
M  V30 5947 C 534.541 -0.91112 2.12055 0
M  V30 5948 C 535.511 -1.30298 1.03013 0
M  V30 5949 O 536.696 -1.39087 1.30612 0
M  V30 5950 C 533.836 -2.1775 2.67729 0
M  V30 5951 C 532.949 -1.83933 3.90887 0
M  V30 5952 C 532.084 -3.05096 4.34845 0
M  V30 5953 C 531.123 -2.67241 5.5068 0
M  V30 5954 N 530.26 -3.81127 5.8965 0
M  V30 5955 H 535.1 -0.43888 2.9475 0
M  V30 5956 H 532.637 -0.204995 1.45665 0
M  V30 5957 H 534.595 -2.91866 2.98111 0
M  V30 5958 H 533.225 -2.62535 1.87816 0
M  V30 5959 H 532.277 -0.999287 3.6704 0
M  V30 5960 H 533.589 -1.52074 4.75052 0
M  V30 5961 H 532.743 -3.87502 4.66827 0
M  V30 5962 H 531.482 -3.40139 3.49509 0
M  V30 5963 H 530.487 -1.83254 5.18361 0
M  V30 5964 H 531.712 -2.3338 6.37738 0
M  V30 5965 H 529.658 -4.15954 5.07266 0
M  V30 5966 H 529.575 -3.52997 6.68528 0
M  V30 5967 H 530.843 -4.64145 6.2625 0
M  V30 5968 N 535.072 -1.5615 -0.213296 0
M  V30 5969 C 536.321 -1.78743 -0.93455 0
M  V30 5970 C 536.634 -0.630199 -1.8517 0
M  V30 5971 O 537.84 -0.739966 -2.61222 0
M  V30 5972 C 536.296 -3.16571 -1.71203 0
M  V30 5973 C 535.904 -4.40043 -0.840617 0
M  V30 5974 C 537.648 -3.48485 -2.42401 0
M  V30 5975 C 535.555 -5.68895 -1.61592 0
M  V30 5976 H 534.485 -0.666426 -0.352692 0
M  V30 5977 H 537.136 -1.82532 -0.188227 0
M  V30 5978 H 535.518 -3.06981 -2.50157 0
M  V30 5979 H 536.692 -4.6071 -0.0910326 0
M  V30 5980 H 535.007 -4.15706 -0.240365 0
M  V30 5981 H 537.604 -4.41983 -3.00924 0
M  V30 5982 H 537.947 -2.71371 -3.15695 0
M  V30 5983 H 538.48 -3.59442 -1.7043 0
M  V30 5984 H 535.219 -6.48925 -0.926106 0
M  V30 5985 H 534.739 -5.52275 -2.33991 0
M  V30 5986 H 536.418 -6.09365 -2.17447 0
M  V30 5987 N 536.55 0.480323 -1.50102 0
M  V30 5988 C 537.827 1.24159 -1.51142 0
M  V30 5989 C 538.207 2.09605 -0.250818 0
M  V30 5990 O 537.555 2.15274 0.766118 0
M  V30 5991 C 537.765 2.08057 -2.80202 0
M  V30 5992 C 539.113 2.66556 -3.30504 0
M  V30 5993 O 540.137 2.18308 -2.81461 0
M  V30 5994 O 538.996 3.54442 -4.15973 0
M  V30 5995 H 536.09 0.562928 -0.605839 0
M  V30 5996 H 538.636 0.492899 -1.62384 0
M  V30 5997 H 537.408 1.45032 -3.6343 0
M  V30 5998 H 537.031 2.90079 -2.71919 0
M  V30 5999 N 538.028 1.39524 0.732853 0
M  V30 6000 C 538.958 1.41153 1.86005 0
M  V30 6001 C 539.939 0.274614 1.67869 0
M  V30 6002 O 541.124 0.480745 1.88155 0
M  V30 6003 C 538.254 1.25638 3.23778 0
M  V30 6004 C 537.208 2.36752 3.56556 0
M  V30 6005 C 536.534 2.06326 4.93289 0
M  V30 6006 C 537.834 3.79069 3.5931 0
M  V30 6007 H 539.528 2.35484 1.84899 0
M  V30 6008 H 537.074 1.13348 0.888162 0
M  V30 6009 H 539.027 1.25398 4.0231 0
M  V30 6010 H 537.751 0.277772 3.25417 0
M  V30 6011 H 536.41 2.36213 2.80355 0
M  V30 6012 H 536.058 1.06897 4.9151 0
M  V30 6013 H 535.758 2.80757 5.16187 0
M  V30 6014 H 537.282 2.07739 5.74175 0
M  V30 6015 H 538.696 3.81526 4.27914 0
M  V30 6016 H 537.093 4.52878 3.93728 0
M  V30 6017 H 538.163 4.09893 2.59068 0
M  V30 6018 N 539.506 -0.963266 1.24736 0
M  V30 6019 C 540.453 -2.05857 1.04363 0
M  V30 6020 C 541.423 -1.6604 -0.0444951 0
M  V30 6021 O 542.608 -1.90477 0.110999 0
M  V30 6022 C 539.748 -3.38745 0.659235 0
M  V30 6023 C 538.861 -3.9173 1.82131 0
M  V30 6024 C 537.996 -5.12906 1.38208 0
M  V30 6025 C 537.035 -5.58098 2.51382 0
M  V30 6026 N 536.172 -6.7049 2.08295 0
M  V30 6027 H 541.012 -2.22616 1.98107 0
M  V30 6028 H 538.549 -1.09103 0.986661 0
M  V30 6029 H 540.507 -4.15107 0.417371 0
M  V30 6030 H 539.137 -3.21898 -0.241201 0
M  V30 6031 H 538.189 -3.11966 2.17672 0
M  V30 6032 H 539.501 -4.21225 2.67153 0
M  V30 6033 H 538.655 -5.96657 1.09935 0
M  V30 6034 H 537.394 -4.85105 0.502456 0
M  V30 6035 H 536.399 -4.72917 2.80409 0
M  V30 6036 H 537.624 -5.87911 3.39909 0
M  V30 6037 H 535.57 -6.44416 1.22737 0
M  V30 6038 H 535.487 -6.99458 2.86869 0
M  V30 6039 H 536.755 -7.57672 1.83175 0
M  V30 6040 N 540.985 -1.06182 -1.16461 0
M  V30 6041 C 542.232 -0.777863 -1.86964 0
M  V30 6042 C 542.56 0.695602 -1.81636 0
M  V30 6043 O 541.815 1.52532 -1.22607 0
M  V30 6044 C 542.114 -1.21633 -3.36066 0
M  V30 6045 C 541.78 -2.69371 -3.61594 0
M  V30 6046 C 540.442 -3.09727 -3.6827 0
M  V30 6047 C 542.794 -3.64791 -3.7226 0
M  V30 6048 C 540.122 -4.44345 -3.83112 0
M  V30 6049 C 542.474 -4.99155 -3.88623 0
M  V30 6050 C 541.138 -5.39149 -3.93541 0
M  V30 6051 H 540.408 -0.28464 -0.68415 0
M  V30 6052 H 543.055 -1.33071 -1.37711 0
M  V30 6053 H 541.36 -0.582651 -3.87443 0
M  V30 6054 H 543.057 -0.973682 -3.88999 0
M  V30 6055 H 539.647 -2.37124 -3.57029 0
M  V30 6056 H 543.831 -3.34746 -3.66413 0
M  V30 6057 H 539.087 -4.74819 -3.85172 0
M  V30 6058 H 543.261 -5.72976 -3.95817 0
M  V30 6059 H 540.888 -6.43464 -4.04794 0
M  V30 6060 N 542.463 1.3308 -0.844243 0
M  V30 6061 C 543.712 1.96868 -0.438833 0
M  V30 6062 C 544.025 1.67599 1.00846 0
M  V30 6063 O 545.231 2.25043 1.51881 0
M  V30 6064 C 543.687 3.5234 -0.73377 0
M  V30 6065 C 543.295 3.90481 -2.1961 0
M  V30 6066 C 545.039 4.22653 -0.395574 0
M  V30 6067 C 542.946 5.38954 -2.43481 0
M  V30 6068 H 541.876 0.736749 -0.160364 0
M  V30 6069 H 544.527 1.51623 -1.03358 0
M  V30 6070 H 542.909 3.95941 -0.068589 0
M  V30 6071 H 544.083 3.57922 -2.90221 0
M  V30 6072 H 542.398 3.33165 -2.4978 0
M  V30 6073 H 544.995 5.31848 -0.551477 0
M  V30 6074 H 545.338 4.11004 0.661921 0
M  V30 6075 H 545.871 3.84601 -1.01621 0
M  V30 6076 H 542.61 5.55612 -3.47816 0
M  V30 6077 H 542.13 5.72954 -1.77437 0
M  V30 6078 H 543.809 6.05907 -2.26905 0
M  V30 6079 N 543.941 0.601185 1.45683 0
M  V30 6080 C 545.218 0.0261659 1.95582 0
M  V30 6081 C 545.598 -1.4399 1.5437 0
M  V30 6082 O 544.946 -2.13919 0.80318 0
M  V30 6083 C 545.156 0.217557 3.48321 0
M  V30 6084 C 546.504 0.0950076 4.24494 0
M  V30 6085 O 547.528 0.147345 3.55895 0
M  V30 6086 O 546.387 -0.025261 5.46494 0
M  V30 6087 H 543.481 -0.0393688 0.826062 0
M  V30 6088 H 546.027 0.670798 1.55879 0
M  V30 6089 H 544.799 1.23601 3.71266 0
M  V30 6090 H 544.422 -0.46264 3.94899 0
M  V30 6091 N 545.419 -1.53889 0.339982 0
M  V30 6092 C 546.647 -2.05271 -0.259114 0
M  V30 6093 C 547.062 -1.21517 -1.44496 0
M  V30 6094 O 546.419 -0.24966 -1.80784 0
M  V30 6095 C 546.47 -3.55092 -0.677634 0
M  V30 6096 O 546.191 -4.35667 0.461051 0
M  V30 6097 C 547.692 -4.22631 -1.33782 0
M  V30 6098 H 544.912 -0.669085 -0.0506566 0
M  V30 6099 H 547.456 -1.9852 0.490935 0
M  V30 6100 H 545.611 -3.62077 -1.37763 0
M  V30 6101 H 546.025 -5.24343 0.128144 0
M  V30 6102 H 547.499 -5.28861 -1.58145 0
M  V30 6103 H 547.976 -3.74758 -2.29027 0
M  V30 6104 H 548.582 -4.19829 -0.679957 0
M  V30 6105 N 546.897 -0.0685191 -1.57451 0
M  V30 6106 C 548.125 0.610462 -1.97689 0
M  V30 6107 C 548.54 1.63346 -0.946758 0
M  V30 6108 O 547.897 1.82377 0.0669868 0
M  V30 6109 C 547.948 1.28196 -3.38006 0
M  V30 6110 O 547.669 0.299906 -4.37072 0
M  V30 6111 C 549.17 2.04907 -3.931 0
M  V30 6112 H 546.39 0.165689 -0.650222 0
M  V30 6113 H 548.934 -0.139953 -2.04021 0
M  V30 6114 H 547.089 1.98348 -3.32771 0
M  V30 6115 H 547.503 0.78126 -5.18649 0
M  V30 6116 H 548.977 2.47287 -4.93511 0
M  V30 6117 H 549.454 2.9043 -3.29465 0
M  V30 6118 H 550.06 1.39629 -4.01726 0
M  V30 6119 N 548.375 1.56261 0.205012 0
M  V30 6120 C 549.6 1.84491 0.947512 0
M  V30 6121 C 550.025 0.650894 1.76479 0
M  V30 6122 O 549.383 -0.40035 1.76824 0
M  V30 6123 C 549.431 3.10863 1.82747 0
M  V30 6124 O 548.535 2.90719 2.925 0
M  V30 6125 H 547.876 0.607783 0.267386 0
M  V30 6126 H 550.406 2.03485 0.213323 0
M  V30 6127 H 550.416 3.41399 2.23407 0
M  V30 6128 H 549.091 3.97392 1.2269 0
M  V30 6129 H 547.668 2.71457 2.55667 0
M  V30 6130 N 549.853 -0.472356 1.50355 0
M  V30 6131 C 550.8 -1.57051 1.69126 0
M  V30 6132 C 551.77 -1.5733 0.532574 0
M  V30 6133 O 552.955 -1.7488 0.762994 0
M  V30 6134 C 550.095 -2.95033 1.79024 0
M  V30 6135 C 549.208 -3.04552 3.06386 0
M  V30 6136 C 548.343 -4.33441 3.07087 0
M  V30 6137 C 547.382 -4.36697 4.28908 0
M  V30 6138 N 546.519 -5.57056 4.27356 0
M  V30 6139 H 551.359 -1.40351 2.62879 0
M  V30 6140 H 548.896 -0.682403 1.30314 0
M  V30 6141 H 550.854 -3.75048 1.82744 0
M  V30 6142 H 549.484 -3.10371 0.887109 0
M  V30 6143 H 548.536 -2.17419 3.12143 0
M  V30 6144 H 549.848 -3.02818 3.96362 0
M  V30 6145 H 549.002 -5.21801 3.09529 0
M  V30 6146 H 547.741 -4.37782 2.14939 0
M  V30 6147 H 546.746 -3.46734 4.2668 0
M  V30 6148 H 547.971 -4.34049 5.22282 0
M  V30 6149 H 545.917 -5.62184 3.3806 0
M  V30 6150 H 545.834 -5.57058 5.111 0
M  V30 6151 H 547.102 -6.47545 4.33942 0
M  V30 6152 N 551.331 -1.39911 -0.725443 0
M  V30 6153 C 552.578 -1.37654 -1.48518 0
M  V30 6154 C 552.906 0.0243982 -1.94485 0
M  V30 6155 O 552.161 1.00708 -1.67799 0
M  V30 6156 C 552.46 -2.30368 -2.7325 0
M  V30 6157 C 552.126 -3.77817 -2.461 0
M  V30 6158 C 550.788 -4.17991 -2.38405 0
M  V30 6159 C 553.14 -4.71036 -2.23103 0
M  V30 6160 C 550.468 -5.49433 -2.05768 0
M  V30 6161 C 552.82 -6.02766 -1.9198 0
M  V30 6162 C 551.484 -6.41993 -1.82761 0
M  V30 6163 H 550.754 -0.503713 -0.543465 0
M  V30 6164 H 553.401 -1.7249 -0.831822 0
M  V30 6165 H 551.706 -1.88683 -3.43375 0
M  V30 6166 H 553.403 -2.2591 -3.31309 0
M  V30 6167 H 549.993 -3.45982 -2.52972 0
M  V30 6168 H 554.177 -4.40823 -2.2801 0
M  V30 6169 H 549.433 -5.78738 -1.9716 0
M  V30 6170 H 553.607 -6.74519 -1.73197 0
M  V30 6171 H 551.234 -7.43761 -1.57237 0
M  V30 6172 N 552.809 0.956637 -1.25245 0
M  V30 6173 C 554.057 1.69764 -1.09657 0
M  V30 6174 C 554.378 1.91583 0.363464 0
M  V30 6175 O 553.648 1.50149 1.25825 0
M  V30 6176 H 552.228 0.629097 -0.402798 0
M  V30 6177 H 554.89 1.15026 -1.57337 0
M  V30 6178 H 553.986 2.67769 -1.60331 0
M  V30 6179 N 554.287 1.06798 1.15896 0
M  V30 6180 C 555.237 0.653213 2.18443 0
M  V30 6181 C 556.221 -0.318763 1.57711 0
M  V30 6182 O 557.413 -0.133388 1.76497 0
M  V30 6183 C 554.542 0.0465785 3.43268 0
M  V30 6184 C 553.628 1.04336 4.11066 0
M  V30 6185 N 554.019 2.22084 4.54436 0
M  V30 6186 C 552.317 0.875433 4.37324 0
M  V30 6187 C 553.018 2.85276 5.06944 0
M  V30 6188 N 551.994 2.12973 5.00143 0
M  V30 6189 H 555.796 1.55011 2.49698 0
M  V30 6190 H 553.31 0.940384 1.32403 0
M  V30 6191 H 555.307 -0.26843 4.16035 0
M  V30 6192 H 553.967 -0.845504 3.13499 0
M  V30 6193 H 554.978 2.59833 4.48004 0
M  V30 6194 H 551.655 0.0357721 4.17485 0
M  V30 6195 H 553.045 3.85223 5.50503 0
M  V30 6196 N 555.766 -1.3263 0.851289 0
M  V30 6197 C 557.014 -1.96978 0.452128 0
M  V30 6198 C 557.335 -1.67715 -0.99482 0
M  V30 6199 O 556.605 -0.98259 -1.69476 0
M  V30 6200 H 555.185 -0.72873 0.164202 0
M  V30 6201 H 557.847 -1.61774 1.08698 0
M  V30 6202 H 556.943 -3.06387 0.594407 0
M  V30 6203 N 557.244 -0.608902 -1.45362 0
M  V30 6204 C 558.66 -0.272659 -1.57254 0
M  V30 6205 C 558.86 1.22477 -1.60005 0
M  V30 6206 O 557.916 2.00785 -1.53106 0
M  V30 6207 C 559.229 -0.944991 -2.85465 0
M  V30 6208 C 560.777 -0.921033 -2.99142 0
M  V30 6209 C 561.252 -1.5734 -4.30126 0
M  V30 6210 N 562.743 -1.53895 -4.36887 0
M  V30 6211 C 563.478 -2.01286 -5.36909 0
M  V30 6212 N 562.974 -2.56768 -6.43461 0
M  V30 6213 N 564.767 -1.92046 -5.28275 0
M  V30 6214 H 556.918 -1.58117 -1.4182 0
M  V30 6215 H 559.181 -0.662437 -0.678146 0
M  V30 6216 H 558.887 -1.99941 -2.89338 0
M  V30 6217 H 558.761 -0.469079 -3.74272 0
M  V30 6218 H 561.148 0.124846 -2.94836 0
M  V30 6219 H 561.229 -1.43522 -2.11743 0
M  V30 6220 H 560.873 -2.61862 -4.35191 0
M  V30 6221 H 560.803 -1.03422 -5.16344 0
M  V30 6222 H 563.294 -1.13366 -3.60495 0
M  V30 6223 H 563.607 -2.9072 -7.16032 0
M  V30 6224 H 561.952 -2.60808 -6.44208 0
M  V30 6225 H 565.143 -1.48439 -4.43941 0
M  V30 6226 H 565.316 -2.29293 -6.06077 0
M  V30 6227 N 558.722 1.53707 -0.348139 0
M  V30 6228 C 559.969 2.00988 0.246966 0
M  V30 6229 C 560.297 1.23586 1.50189 0
M  V30 6230 O 559.552 0.312817 1.93184 0
M  V30 6231 C 559.851 3.52292 0.602061 0
M  V30 6232 C 559.517 4.47453 -0.556509 0
M  V30 6233 C 558.179 4.73188 -0.874446 0
M  V30 6234 C 560.531 5.03851 -1.33354 0
M  V30 6235 C 557.859 5.52577 -1.9717 0
M  V30 6236 C 560.211 5.84437 -2.42108 0
M  V30 6237 C 558.875 6.08465 -2.74456 0
M  V30 6238 H 558.145 0.735469 0.0903712 0
M  V30 6239 H 560.792 1.85464 -0.477001 0
M  V30 6240 H 559.097 3.65672 1.40681 0
M  V30 6241 H 560.794 3.86337 1.07447 0
M  V30 6242 H 557.384 4.27558 -0.298652 0
M  V30 6243 H 561.568 4.8393 -1.10117 0
M  V30 6244 H 556.824 5.69418 -2.22651 0
M  V30 6245 H 560.998 6.27151 -3.02745 0
M  V30 6246 H 558.625 6.69768 -3.59604 0
M  V30 6247 N 560.2 0.0768682 1.57412 0
M  V30 6248 C 561.132 -0.918248 2.10002 0
M  V30 6249 C 562.145 -1.25808 1.03325 0
M  V30 6250 O 563.334 -1.21438 1.30824 0
M  V30 6251 C 560.434 -2.23263 2.54964 0
M  V30 6252 C 559.607 -2.07088 3.8527 0
M  V30 6253 C 558.666 -3.21876 4.16272 0
M  V30 6254 O 557.692 -2.96643 4.8579 0
M  V30 6255 N 558.894 -4.4712 3.70221 0
M  V30 6256 H 561.659 -0.469209 2.96004 0
M  V30 6257 H 559.22 -0.108725 1.61535 0
M  V30 6258 H 561.212 -2.9897 2.72762 0
M  V30 6259 H 559.782 -2.59649 1.74072 0
M  V30 6260 H 559.002 -1.15818 3.76802 0
M  V30 6261 H 560.29 -1.93537 4.70554 0
M  V30 6262 H 559.688 -4.70506 3.1407 0
M  V30 6263 H 558.245 -5.19837 3.93209 0
M  V30 6264 N 561.678 -1.56367 -0.196722 0
M  V30 6265 C 562.906 -1.84639 -0.933608 0
M  V30 6266 C 563.321 -0.659164 -1.76919 0
M  V30 6267 O 562.678 0.372142 -1.78665 0
M  V30 6268 C 562.729 -3.11694 -1.83109 0
M  V30 6269 O 562.45 -4.25838 -1.02924 0
M  V30 6270 C 563.951 -3.53132 -2.67979 0
M  V30 6271 H 561.171 -0.613188 -0.272473 0
M  V30 6272 H 563.715 -2.03475 -0.204465 0
M  V30 6273 H 561.87 -2.94759 -2.51387 0
M  V30 6274 H 562.284 -4.98178 -1.64069 0
M  V30 6275 H 563.758 -4.45005 -3.26611 0
M  V30 6276 H 564.235 -2.76045 -3.41608 0
M  V30 6277 H 564.841 -3.72592 -2.05074 0
M  V30 6278 N 563.156 0.464375 -1.50603 0
M  V30 6279 C 564.089 1.58052 -1.64605 0
M  V30 6280 C 565.067 1.54914 -0.494016 0
M  V30 6281 O 566.251 1.74438 -0.714393 0
M  V30 6282 C 563.378 2.96634 -1.63481 0
M  V30 6283 C 562.424 3.17901 -2.84325 0
M  V30 6284 S 563.257 2.97083 -4.45536 0
M  V30 6285 C 564.413 4.37994 -4.47115 0
M  V30 6286 H 564.646 1.45937 -2.59017 0
M  V30 6287 H 562.179 0.652189 -1.39949 0
M  V30 6288 H 564.137 3.76527 -1.63517 0
M  V30 6289 H 562.798 3.06134 -0.702928 0
M  V30 6290 H 561.991 4.19158 -2.79862 0
M  V30 6291 H 561.593 2.45792 -2.81891 0
M  V30 6292 H 563.885 5.30743 -4.21091 0
M  V30 6293 H 564.828 4.47499 -5.48772 0
M  V30 6294 H 565.236 4.20386 -3.76743 0
M  V30 6295 N 564.634 1.40294 0.718013 0
M  V30 6296 C 565.544 1.42678 1.86226 0
M  V30 6297 C 566.56 0.319655 1.71039 0
M  V30 6298 O 567.736 0.563852 1.93346 0
M  V30 6299 C 564.801 1.2852 3.21999 0
M  V30 6300 C 563.862 2.49354 3.49458 0
M  V30 6301 C 563.095 2.35863 4.78753 0
M  V30 6302 O 563.318 1.37114 5.53675 0
M  V30 6303 O 562.252 3.25189 5.06494 0
M  V30 6304 H 566.078 2.39167 1.87171 0
M  V30 6305 H 563.663 1.2159 0.868112 0
M  V30 6306 H 565.545 1.22824 4.03103 0
M  V30 6307 H 564.22 0.351359 3.21787 0
M  V30 6308 H 563.127 2.60628 2.68373 0
M  V30 6309 H 564.46 3.41491 3.54464 0
M  V30 6310 N 566.112 -0.949982 1.2575 0
M  V30 6311 C 567.022 -2.08109 1.08295 0
M  V30 6312 C 568.038 -1.7399 0.0188181 0
M  V30 6313 O 569.214 -2.00187 0.220724 0
M  V30 6314 C 566.279 -3.39383 0.708534 0
M  V30 6315 C 565.34 -3.8734 1.85111 0
M  V30 6316 C 564.573 -5.12349 1.49447 0
M  V30 6317 O 564.796 -5.6905 0.392212 0
M  V30 6318 O 563.73 -5.5513 2.32624 0
M  V30 6319 H 567.556 -2.25738 2.03165 0
M  V30 6320 H 565.141 -1.06545 1.04731 0
M  V30 6321 H 567.023 -4.18277 0.512061 0
M  V30 6322 H 565.698 -3.23013 -0.210854 0
M  V30 6323 H 564.605 -3.09429 2.10248 0
M  V30 6324 H 565.938 -4.08216 2.74991 0
M  V30 6325 N 567.59 -1.07411 -1.15328 0
M  V30 6326 C 568.537 -0.694995 -2.20087 0
M  V30 6327 C 569.507 0.313904 -1.63107 0
M  V30 6328 O 570.692 0.200216 -1.89747 0
M  V30 6329 C 567.832 -0.0996218 -3.44956 0
M  V30 6330 C 566.945 -1.16007 -4.16133 0
M  V30 6331 C 566.08 -0.529636 -5.28553 0
M  V30 6332 C 565.119 -1.57283 -5.91548 0
M  V30 6333 N 564.256 -0.964932 -6.95438 0
M  V30 6334 H 569.096 -1.5927 -2.51867 0
M  V30 6335 H 566.633 -0.796115 -1.23695 0
M  V30 6336 H 568.591 0.263197 -4.16369 0
M  V30 6337 H 567.221 0.761435 -3.13691 0
M  V30 6338 H 566.273 -1.64045 -3.4321 0
M  V30 6339 H 567.585 -1.95101 -4.59061 0
M  V30 6340 H 566.739 -0.114487 -6.06592 0
M  V30 6341 H 565.478 0.29307 -4.86819 0
M  V30 6342 H 564.483 -1.99775 -5.12221 0
M  V30 6343 H 565.708 -2.39783 -6.35359 0
M  V30 6344 H 563.654 -0.16314 -6.55797 0
M  V30 6345 H 563.571 -1.69311 -7.36797 0
M  V30 6346 H 564.839 -0.575305 -7.77374 0
M  V30 6347 N 569.068 1.32177 -0.85831 0
M  V30 6348 C 570.015 2.28794 -0.303607 0
M  V30 6349 C 570.985 1.55213 0.591453 0
M  V30 6350 O 572.17 1.83418 0.525585 0
M  V30 6351 C 569.31 3.41475 0.49889 0
M  V30 6352 C 568.423 4.2993 -0.422373 0
M  V30 6353 C 567.558 5.29743 0.393111 0
M  V30 6354 C 566.597 6.09842 -0.525317 0
M  V30 6355 N 565.734 7.01643 0.253208 0
M  V30 6356 H 570.574 2.75631 -1.13276 0
M  V30 6357 H 568.111 1.35606 -0.570026 0
M  V30 6358 H 570.069 4.05531 0.979826 0
M  V30 6359 H 568.699 2.95779 1.29284 0
M  V30 6360 H 567.751 3.66422 -1.02171 0
M  V30 6361 H 569.063 4.85899 -1.12709 0
M  V30 6362 H 568.217 5.9942 0.937056 0
M  V30 6363 H 566.956 4.744 1.13117 0
M  V30 6364 H 565.961 5.39066 -1.08112 0
M  V30 6365 H 567.186 6.6727 -1.26205 0
M  V30 6366 H 565.132 6.48725 0.974295 0
M  V30 6367 H 565.049 7.54981 -0.392398 0
M  V30 6368 H 566.317 7.756 0.778761 0
M  V30 6369 N 570.547 0.616602 1.45037 0
M  V30 6370 C 571.51 -0.0871112 2.29034 0
M  V30 6371 C 572.51 -0.786414 1.40258 0
M  V30 6372 O 573.7 -0.633207 1.62284 0
M  V30 6373 C 570.832 -1.13369 3.21497 0
M  V30 6374 H 572.025 0.651497 2.92738 0
M  V30 6375 H 569.578 0.376058 1.51709 0
M  V30 6376 H 570.313 -1.90277 2.62612 0
M  V30 6377 H 570.098 -0.636358 3.86902 0
M  V30 6378 H 571.588 -1.62627 3.84633 0
M  V30 6379 N 572.025 -1.5352 0.356285 0
M  V30 6380 C 573.272 -2.01117 -0.236303 0
M  V30 6381 C 573.6 -1.24381 -1.49531 0
M  V30 6382 O 572.855 -0.323057 -1.93015 0
M  V30 6383 C 573.154 -3.52607 -0.583369 0
M  V30 6384 C 572.82 -4.47151 0.58023 0
M  V30 6385 C 571.482 -4.72718 0.899528 0
M  V30 6386 C 573.834 -5.03137 1.36024 0
M  V30 6387 C 571.162 -5.51523 2.00098 0
M  V30 6388 C 573.514 -5.83145 2.45204 0
M  V30 6389 C 572.178 -6.07001 2.77679 0
M  V30 6390 H 571.448 -0.735938 -0.0864695 0
M  V30 6391 H 574.095 -1.85209 0.48683 0
M  V30 6392 H 572.4 -3.66413 -1.38739 0
M  V30 6393 H 574.097 -3.86901 -1.05397 0
M  V30 6394 H 570.687 -4.27394 0.321322 0
M  V30 6395 H 574.871 -4.83339 1.12682 0
M  V30 6396 H 570.127 -5.68229 2.25668 0
M  V30 6397 H 574.301 -6.25537 3.06067 0
M  V30 6398 H 571.928 -6.67851 3.63151 0
M  V30 6399 N 573.503 -0.0852151 -1.57369 0
M  V30 6400 C 574.436 0.913608 -2.09113 0
M  V30 6401 C 575.414 1.28264 -0.999358 0
M  V30 6402 O 576.598 1.3896 -1.27367 0
M  V30 6403 C 573.725 2.21777 -2.55993 0
M  V30 6404 C 572.771 1.99932 -3.76735 0
M  V30 6405 S 573.604 1.24637 -5.20794 0
M  V30 6406 C 574.76 2.56304 -5.71016 0
M  V30 6407 H 574.993 0.473369 -2.93507 0
M  V30 6408 H 572.526 0.127856 -1.5387 0
M  V30 6409 H 574.484 2.96726 -2.83662 0
M  V30 6410 H 573.145 2.62923 -1.71843 0
M  V30 6411 H 572.338 2.96482 -4.07571 0
M  V30 6412 H 571.94 1.33116 -3.49509 0
M  V30 6413 H 574.232 3.5233 -5.78679 0
M  V30 6414 H 575.175 2.3006 -6.69685 0
M  V30 6415 H 575.583 2.64125 -4.98897 0
M  V30 6416 N 574.981 1.5647 0.188427 0
M  V30 6417 C 576.229 1.80655 0.905986 0
M  V30 6418 C 576.55 0.659391 1.83513 0
M  V30 6419 O 575.82 -0.321868 1.93238 0
M  V30 6420 H 574.4 0.666391 0.337538 0
M  V30 6421 H 577.062 1.93949 0.192339 0
M  V30 6422 H 576.158 2.74066 1.49313 0
M  V30 6423 N 576.459 -0.456382 1.50847 0
M  V30 6424 C 577.87 -1.03685 1.55262 0
M  V30 6425 C 578.221 -1.92779 0.364771 0
M  V30 6426 O 577.346 -2.10043 -0.52068 0
M  V30 6427 C 577.941 -1.88718 2.81374 0
M  V30 6428 C 576.5 -2.41847 2.88422 0
M  V30 6429 C 575.647 -1.20564 2.49719 0
M  V30 6430 H 578.598 -0.238399 1.56899 0
M  V30 6431 H 578.619 -2.73957 2.6406 0
M  V30 6432 H 578.131 -1.23847 3.67809 0
M  V30 6433 H 576.232 -3.10228 2.06372 0
M  V30 6434 H 576.345 -2.75947 3.9165 0
M  V30 6435 H 574.709 -1.54504 2.02486 0
M  V30 6436 H 575.492 -0.573326 3.38479 0
M  V30 6437 N 577.937 -1.40673 -0.710563 0
M  V30 6438 C 578.867 -1.44095 -1.83736 0
M  V30 6439 C 579.848 -0.301286 -1.67411 0
M  V30 6440 O 581.033 -0.510618 -1.87367 0
M  V30 6441 C 578.163 -1.30773 -3.21738 0
M  V30 6442 C 577.117 -2.42395 -3.52745 0
M  V30 6443 C 576.443 -2.14147 -4.89944 0
M  V30 6444 C 577.743 -3.84738 -3.53234 0
M  V30 6445 H 579.437 -2.38396 -1.81129 0
M  V30 6446 H 576.983 -1.14746 -0.870017 0
M  V30 6447 H 578.936 -1.31783 -4.00264 0
M  V30 6448 H 577.66 -0.329507 -3.24934 0
M  V30 6449 H 576.319 -2.40643 -2.76562 0
M  V30 6450 H 575.967 -1.14703 -4.89747 0
M  V30 6451 H 575.667 -2.88934 -5.11655 0
M  V30 6452 H 577.191 -2.16848 -5.70797 0
M  V30 6453 H 578.605 -3.88286 -4.2179 0
M  V30 6454 H 577.002 -4.59085 -3.86473 0
M  V30 6455 H 578.072 -4.13962 -2.52514 0
M  V30 6456 N 579.415 0.9433 -1.26252 0
M  V30 6457 C 580.362 2.0417 -1.07625 0
M  V30 6458 C 581.332 1.6609 0.0180738 0
M  V30 6459 O 582.517 1.90276 -0.141289 0
M  V30 6460 C 579.657 3.37653 -0.713043 0
M  V30 6461 C 578.77 3.88783 -1.8834 0
M  V30 6462 C 577.905 5.10642 -1.4635 0
M  V30 6463 C 576.944 5.54028 -2.60229 0
M  V30 6464 N 576.081 6.67092 -2.18936 0
M  V30 6465 H 580.921 2.19436 -2.01623 0
M  V30 6466 H 578.458 1.07519 -1.00389 0
M  V30 6467 H 580.416 4.14391 -0.483358 0
M  V30 6468 H 579.046 3.22241 0.18996 0
M  V30 6469 H 578.098 3.08464 -2.22608 0
M  V30 6470 H 579.41 4.16922 -2.73821 0
M  V30 6471 H 578.564 5.94832 -1.19414 0
M  V30 6472 H 577.303 4.84244 -0.579568 0
M  V30 6473 H 576.308 4.68396 -2.87898 0
M  V30 6474 H 577.533 5.82429 -3.49219 0
M  V30 6475 H 575.479 6.42381 -1.32974 0
M  V30 6476 H 575.396 6.94806 -2.97961 0
M  V30 6477 H 576.664 7.54662 -1.95206 0
M  V30 6478 N 580.893 1.08022 1.14757 0
M  V30 6479 C 581.84 0.706657 2.19716 0
M  V30 6480 C 582.81 -0.30525 1.63271 0
M  V30 6481 O 583.995 -0.19015 1.8985 0
M  V30 6482 C 581.135 0.117914 3.44898 0
M  V30 6483 C 580.248 1.18212 4.15512 0
M  V30 6484 C 579.383 0.557659 5.28265 0
M  V30 6485 C 578.422 1.60418 5.90705 0
M  V30 6486 N 577.559 1.0018 6.94916 0
M  V30 6487 H 582.399 1.60603 2.51019 0
M  V30 6488 H 579.936 0.802664 1.23271 0
M  V30 6489 H 581.894 -0.241112 4.16503 0
M  V30 6490 H 580.524 -0.744788 3.1409 0
M  V30 6491 H 579.576 1.65863 3.42335 0
M  V30 6492 H 580.888 1.97533 4.5802 0
M  V30 6493 H 580.042 0.146654 6.06523 0
M  V30 6494 H 578.781 -0.267249 4.86967 0
M  V30 6495 H 577.786 2.02489 5.11154 0
M  V30 6496 H 579.011 2.43149 6.34078 0
M  V30 6497 H 576.957 0.197917 6.55701 0
M  V30 6498 H 576.874 1.73216 7.35889 0
M  V30 6499 H 578.142 0.616523 7.77058 0
M  V30 6500 N 582.371 -1.3172 0.865308 0
M  V30 6501 C 583.648 -1.91574 0.394789 0
M  V30 6502 C 584.028 -1.78769 -1.12271 0
M  V30 6503 O 583.376 -1.19245 -1.94918 0
M  V30 6504 C 583.586 -3.37957 0.870982 0
M  V30 6505 C 584.934 -4.15073 0.894384 0
M  V30 6506 O 585.958 -3.4672 0.816325 0
M  V30 6507 O 584.817 -5.37151 1.00651 0
M  V30 6508 H 581.911 -0.818649 0.117229 0
M  V30 6509 H 584.457 -1.4042 0.952913 0
M  V30 6510 H 583.229 -3.41269 1.91444 0
M  V30 6511 H 582.852 -3.96534 0.290907 0
M  V30 6512 N 583.85 -0.624285 -1.44708 0
M  V30 6513 C 585.266 -0.289322 -1.56956 0
M  V30 6514 C 585.466 1.20773 -1.61295 0
M  V30 6515 O 584.522 1.9915 -1.55227 0
M  V30 6516 C 585.835 -0.975215 -2.84447 0
M  V30 6517 C 587.383 -0.952709 -2.98148 0
M  V30 6518 C 587.858 -1.61893 -4.28433 0
M  V30 6519 N 589.349 -1.5852 -4.35231 0
M  V30 6520 C 590.084 -2.06969 -5.34744 0
M  V30 6521 N 589.58 -2.63579 -6.40701 0
M  V30 6522 N 591.373 -1.97638 -5.26209 0
M  V30 6523 H 583.524 -1.59612 -1.40135 0
M  V30 6524 H 585.787 -0.669592 -0.671081 0
M  V30 6525 H 585.493 -2.02999 -2.87201 0
M  V30 6526 H 585.367 -0.508749 -3.73753 0
M  V30 6527 H 587.754 0.093568 -2.94952 0
M  V30 6528 H 587.835 -1.4576 -2.10209 0
M  V30 6529 H 587.479 -2.66463 -4.32389 0
M  V30 6530 H 587.409 -1.08893 -5.15218 0
M  V30 6531 H 589.899 -1.17183 -3.59272 0
M  V30 6532 H 590.213 -2.98298 -7.12908 0
M  V30 6533 H 588.558 -2.67626 -6.41406 0
M  V30 6534 H 591.749 -1.5314 -4.42341 0
M  V30 6535 H 591.922 -2.35708 -6.03611 0
M  V30 6536 N 585.328 1.53329 -0.364422 0
M  V30 6537 C 586.577 2.00421 0.226747 0
M  V30 6538 C 586.89 1.25581 1.49963 0
M  V30 6539 O 588.096 1.63256 2.16933 0
M  V30 6540 C 586.552 3.57017 0.454618 0
M  V30 6541 C 586.16 4.40734 -0.803568 0
M  V30 6542 C 587.904 4.12468 1.00351 0
M  V30 6543 C 585.811 5.8888 -0.545345 0
M  V30 6544 H 584.741 0.748787 0.0885082 0
M  V30 6545 H 587.392 1.7703 -0.482983 0
M  V30 6546 H 585.774 3.76558 1.22558 0
M  V30 6547 H 586.948 4.32967 -1.57723 0
M  V30 6548 H 585.263 3.96381 -1.27559 0
M  V30 6549 H 587.86 5.20783 1.212 0
M  V30 6550 H 588.203 3.6699 1.9653 0
M  V30 6551 H 588.736 3.96721 0.29274 0
M  V30 6552 H 585.475 6.38633 -1.47743 0
M  V30 6553 H 584.995 5.99499 0.189842 0
M  V30 6554 H 586.674 6.46776 -0.170425 0
M  V30 6555 N 586.806 0.0935595 1.57322 0
M  V30 6556 C 587.769 -0.851426 2.12799 0
M  V30 6557 C 588.769 -1.21187 1.0569 0
M  V30 6558 O 589.959 -1.14156 1.31583 0
M  V30 6559 C 587.091 -2.14779 2.64731 0
M  V30 6560 H 588.284 -0.369733 2.97612 0
M  V30 6561 H 585.837 -0.155417 1.55525 0
M  V30 6562 H 586.572 -2.67437 1.83434 0
M  V30 6563 H 586.357 -1.89907 3.43042 0
M  V30 6564 H 587.847 -2.82383 3.07651 0
M  V30 6565 N 588.284 -1.56567 -0.180126 0
M  V30 6566 C 589.231 -1.95725 -1.22313 0
M  V30 6567 C 590.201 -0.819911 -1.44453 0
M  V30 6568 O 591.386 -1.07931 -1.57339 0
M  V30 6569 C 588.526 -2.31484 -2.55947 0
M  V30 6570 C 587.639 -3.58354 -2.4126 0
M  V30 6571 C 586.774 -3.83366 -3.67701 0
M  V30 6572 C 585.813 -5.03612 -3.47909 0
M  V30 6573 N 584.95 -5.24802 -4.66398 0
M  V30 6574 H 589.79 -2.84642 -0.882198 0
M  V30 6575 H 587.327 -1.4085 -0.42422 0
M  V30 6576 H 589.285 -2.50237 -3.33822 0
M  V30 6577 H 587.915 -1.45689 -2.88053 0
M  V30 6578 H 586.967 -3.47565 -1.54606 0
M  V30 6579 H 588.279 -4.46386 -2.22577 0
M  V30 6580 H 587.433 -4.02439 -4.54013 0
M  V30 6581 H 586.172 -2.93692 -3.89353 0
M  V30 6582 H 585.177 -4.84447 -2.59983 0
M  V30 6583 H 586.402 -5.94809 -3.27688 0
M  V30 6584 H 584.348 -4.38079 -4.88286 0
M  V30 6585 H 584.265 -6.07041 -4.50596 0
M  V30 6586 H 585.533 -5.48346 -5.54019 0
M  V30 6587 N 589.762 0.448376 -1.51087 0
M  V30 6588 C 590.672 1.56882 -1.74428 0
M  V30 6589 C 591.688 1.62268 -0.62809 0
M  V30 6590 O 592.864 1.79716 -0.909075 0
M  V30 6591 C 589.929 2.92947 -1.85426 0
M  V30 6592 C 588.99 2.97766 -3.09247 0
M  V30 6593 C 588.223 4.27341 -3.19711 0
M  V30 6594 O 588.446 5.19112 -2.36387 0
M  V30 6595 O 587.38 4.38219 -4.12611 0
M  V30 6596 H 591.206 1.40104 -2.69452 0
M  V30 6597 H 588.791 0.630247 -1.35456 0
M  V30 6598 H 590.673 3.73719 -1.94709 0
M  V30 6599 H 589.348 3.09876 -0.935887 0
M  V30 6600 H 588.255 2.15989 -3.0545 0
M  V30 6601 H 589.588 2.8578 -4.00738 0
M  V30 6602 N 591.24 1.41047 0.703093 0
M  V30 6603 C 592.15 1.44645 1.84703 0
M  V30 6604 C 593.166 0.337778 1.7069 0
M  V30 6605 O 594.342 0.584327 1.92737 0
M  V30 6606 C 591.407 1.31928 3.20618 0
M  V30 6607 C 590.468 2.53047 3.46794 0
M  V30 6608 C 589.701 2.40927 4.76224 0
M  V30 6609 O 589.924 1.42978 5.5219 0
M  V30 6610 O 588.858 3.30543 5.03016 0
M  V30 6611 H 592.684 2.41139 1.84624 0
M  V30 6612 H 590.269 1.22504 0.855167 0
M  V30 6613 H 592.151 1.27092 4.01778 0
M  V30 6614 H 590.826 0.385469 3.21397 0
M  V30 6615 H 589.733 2.6346 2.65593 0
M  V30 6616 H 591.066 3.45231 3.50822 0
M  V30 6617 N 592.718 -0.936591 1.26751 0
M  V30 6618 C 593.966 -1.67998 1.12343 0
M  V30 6619 C 594.287 -1.92137 -0.332938 0
M  V30 6620 O 593.557 -1.52132 -1.23421 0
M  V30 6621 H 592.137 -0.622609 0.412756 0
M  V30 6622 H 594.799 -1.12509 1.59147 0
M  V30 6623 H 593.895 -2.65185 1.64571 0
M  V30 6624 N 594.196 -1.08629 -1.14182 0
M  V30 6625 C 595.159 -0.722027 -2.1753 0
M  V30 6626 C 596.159 0.244305 -1.58933 0
M  V30 6627 O 597.349 0.0235545 -1.74184 0
M  V30 6628 C 594.481 -0.0663966 -3.40835 0
M  V30 6629 H 595.674 -1.63719 -2.51269 0
M  V30 6630 H 593.227 -0.884442 -1.28869 0
M  V30 6631 H 593.962 0.860389 -3.12678 0
M  V30 6632 H 593.747 -0.761598 -3.84632 0
M  V30 6633 H 595.237 0.173346 -4.1724 0
M  V30 6634 O 595.713 1.26359 -1.00577 0
M  V30 6635 H 596.404 1.82071 -0.661052 0
M  V30 END ATOM
M  V30 BEGIN BOND
M  V30 END BOND
M  V30 END CTAB
M  END
$$$$
