drugbank_target|P03905 NADH-ubiquinone oxidoreductase chain 4 (DB00157)
 OpenBabel12092119343D

  0  0  0     0  0            999 V3000
M  V30 BEGIN CTAB
M  V30 COUNTS 7441 7535 0 0 0
M  V30 BEGIN ATOM
M  V30 1 H -0.908 1.98254 -0.117106 0
M  V30 2 N 0 1.576 0 0
M  V30 3 C 0.933 2.03868 1.02534 0
M  V30 4 C 1.911 0.928543 1.3348 0
M  V30 5 O 3.095 1.19667 1.45644 0
M  V30 6 C 0.222 2.43627 2.35294 0
M  V30 7 C -0.732 3.65373 2.2001 0
M  V30 8 S 0.101 5.13292 1.52614 0
M  V30 9 C 1.257 5.56322 2.86805 0
M  V30 10 H 1.49 2.90518 0.631377 0
M  V30 11 H -0.977 1.52953 0.210867 0
M  V30 12 H 0.981 2.67203 3.11629 0
M  V30 13 H -0.358 1.57376 2.7183 0
M  V30 14 H -1.165 3.90944 3.18086 0
M  V30 15 H -1.563 3.418 1.51819 0
M  V30 16 H 0.729 5.58782 3.83104 0
M  V30 17 H 1.672 6.56266 2.65933 0
M  V30 18 H 2.08 4.83886 2.90714 0
M  V30 19 N 1.4781 -0.272755 1.55222 0
M  V30 20 C 2.4081 -1.34136 1.91127 0
M  V30 21 C 3.3891 -1.51513 0.773168 0
M  V30 22 O 4.5741 -1.64552 1.03132 0
M  V30 23 C 1.7041 -2.70083 2.1834 0
M  V30 24 C 0.6581 -2.67437 3.34158 0
M  V30 25 C -0.0159 -4.06938 3.46851 0
M  V30 26 C 1.2841 -2.26686 4.70543 0
M  V30 27 H 2.9781 -1.04333 2.80633 0
M  V30 28 H 0.5241 -0.500454 1.35024 0
M  V30 29 H 2.4771 -3.44952 2.42046 0
M  V30 30 H 1.2011 -3.01469 1.25634 0
M  V30 31 H -0.1399 -1.95026 3.1042 0
M  V30 32 H -0.4919 -4.35547 2.51611 0
M  V30 33 H -0.7919 -4.06062 4.2472 0
M  V30 34 H 0.7321 -4.83545 3.72849 0
M  V30 35 H 2.1461 -2.91277 4.93792 0
M  V30 36 H 0.5431 -2.36971 5.5133 0
M  V30 37 H 1.6131 -1.21818 4.69349 0
M  V30 38 N 2.9562 -1.48159 -0.537278 0
M  V30 39 C 3.9032 -1.62138 -1.64256 0
M  V30 40 C 4.8732 -0.463668 -1.59497 0
M  V30 41 O 6.0582 -0.686241 -1.78032 0
M  V30 42 C 3.1982 -1.66028 -3.02537 0
M  V30 43 C 2.3112 -2.92855 -3.17585 0
M  V30 44 C 1.4462 -2.87952 -4.46382 0
M  V30 45 C 0.4852 -4.09516 -4.54932 0
M  V30 46 N -0.3778 -4.02733 -5.75109 0
M  V30 47 H 4.4622 -2.56529 -1.51647 0
M  V30 48 H 1.9992 -1.27224 -0.738414 0
M  V30 49 H 3.9572 -1.66265 -3.82638 0
M  V30 50 H 2.5872 -0.751331 -3.13934 0
M  V30 51 H 1.6392 -3.02395 -2.30784 0
M  V30 52 H 2.9512 -3.82822 -3.19764 0
M  V30 53 H 2.1052 -2.8655 -5.34765 0
M  V30 54 H 0.8442 -1.95702 -4.46712 0
M  V30 55 H -0.1508 -4.11201 -3.64957 0
M  V30 56 H 1.0742 -5.02917 -4.56346 0
M  V30 57 H -0.9798 -3.13299 -5.76351 0
M  V30 58 H -1.0628 -4.86397 -5.78752 0
M  V30 59 H 0.2052 -4.05379 -6.65799 0
M  V30 60 N 4.4343 0.785586 -1.36625 0
M  V30 61 C 5.3643 1.91259 -1.33949 0
M  V30 62 C 6.3453 1.68795 -0.210325 0
M  V30 63 O 7.5303 1.89854 -0.408561 0
M  V30 64 C 4.6603 3.28339 -1.13186 0
M  V30 65 C 3.6143 3.65335 -2.22967 0
M  V30 66 C 2.9403 5.00806 -1.87342 0
M  V30 67 C 4.2403 3.7352 -3.65075 0
M  V30 68 H 5.9343 1.93755 -2.28253 0
M  V30 69 H 3.4803 0.930788 -1.09874 0
M  V30 70 H 5.4333 4.06804 -1.09948 0
M  V30 71 H 4.1573 3.2624 -0.153332 0
M  V30 72 H 2.8163 2.89169 -2.25337 0
M  V30 73 H 2.4643 4.95233 -0.880545 0
M  V30 74 H 2.1643 5.26529 -2.60846 0
M  V30 75 H 3.6883 5.81687 -1.85667 0
M  V30 76 H 5.1023 4.42168 -3.64911 0
M  V30 77 H 3.4993 4.10731 -4.37516 0
M  V30 78 H 4.5693 2.74527 -3.99703 0
M  V30 79 N 5.9124 1.20967 1.01018 0
M  V30 80 C 7.1614 1.01796 1.74128 0
M  V30 81 C 7.4744 -0.449691 1.90361 0
M  V30 82 O 8.6804 -0.76068 2.60626 0
M  V30 83 C 7.1364 1.7727 3.13215 0
M  V30 84 C 6.7444 3.28171 3.04972 0
M  V30 85 C 8.4884 1.66489 3.90489 0
M  V30 86 C 6.3954 3.96156 4.39107 0
M  V30 87 H 5.3254 0.377276 0.652824 0
M  V30 88 H 7.9764 1.44651 1.12909 0
M  V30 89 H 6.3584 1.27205 3.75013 0
M  V30 90 H 7.5324 3.85499 2.52443 0
M  V30 91 H 5.8474 3.39437 2.41188 0
M  V30 92 H 8.4444 2.14617 4.89738 0
M  V30 93 H 8.7874 0.6222 4.11624 0
M  V30 94 H 9.3204 2.14003 3.35332 0
M  V30 95 H 6.0594 5.00604 4.23174 0
M  V30 96 H 5.5794 3.43617 4.91617 0
M  V30 97 H 7.2584 4.00774 5.07926 0
M  V30 98 N 7.3905 -1.2043 1.01659 0
M  V30 99 C 8.6365 -1.90079 0.706963 0
M  V30 100 C 8.9695 -1.78648 -0.761474 0
M  V30 101 O 8.2445 -1.17069 -1.55323 0
M  V30 102 C 8.5275 -3.41469 1.14327 0
M  V30 103 C 8.3805 -3.61833 2.67201 0
M  V30 104 C 9.6995 -4.34261 0.714529 0
M  V30 105 H 6.8185 -0.690254 0.2583 0
M  V30 106 H 9.4605 -1.41826 1.26433 0
M  V30 107 H 7.6105 -3.82696 0.669056 0
M  V30 108 H 9.2825 -3.2986 3.22475 0
M  V30 109 H 7.5255 -3.05304 3.08175 0
M  V30 110 H 8.1965 -4.67955 2.92783 0
M  V30 111 H 10.6725 -4.00682 1.12221 0
M  V30 112 H 9.5485 -5.38806 1.04784 0
M  V30 113 H 9.8095 -4.40431 -0.383799 0
M  V30 114 N 8.8686 -0.792821 -1.36206 0
M  V30 115 C 10.2796 -0.429513 -1.81692 0
M  V30 116 C 10.6306 1.04695 -1.65932 0
M  V30 117 O 9.7556 1.81256 -1.18218 0
M  V30 118 C 10.3506 -0.772831 -3.29868 0
M  V30 119 C 8.9096 -0.462307 -3.7355 0
M  V30 120 C 8.0566 -1.00569 -2.5842 0
M  V30 121 H 11.0076 -0.985672 -1.24379 0
M  V30 122 H 11.0286 -0.0651928 -3.80444 0
M  V30 123 H 10.5406 -1.84747 -3.41307 0
M  V30 124 H 8.6416 0.604158 -3.67669 0
M  V30 125 H 8.7546 -0.985299 -4.68859 0
M  V30 126 H 7.1186 -0.428734 -2.51066 0
M  V30 127 H 7.9016 -2.08616 -2.72643 0
M  V30 128 N 10.3467 1.47872 -0.545128 0
M  V30 129 C 11.5747 2.06889 -0.021084 0
M  V30 130 C 11.9897 1.39955 1.2672 0
M  V30 131 O 11.3467 0.492036 1.75742 0
M  V30 132 C 11.3977 3.60996 0.190817 0
M  V30 133 O 11.1187 4.25419 -1.04644 0
M  V30 134 C 12.6197 4.36849 0.753521 0
M  V30 135 H 9.8397 0.669785 -0.0403635 0
M  V30 136 H 12.3837 1.90049 -0.755095 0
M  V30 137 H 10.5387 3.77391 0.87492 0
M  V30 138 H 10.9527 5.17785 -0.836611 0
M  V30 139 H 12.4267 5.45399 0.851139 0
M  V30 140 H 12.9037 4.02306 1.762 0
M  V30 141 H 13.5097 4.25169 0.105503 0
M  V30 142 N 11.8248 0.280983 1.55075 0
M  V30 143 C 13.0738 -0.334784 1.98902 0
M  V30 144 C 13.3868 -1.56534 1.17288 0
M  V30 145 O 14.5928 -2.25443 1.51287 0
M  V30 146 C 13.0488 -0.646994 3.54037 0
M  V30 147 C 12.6568 0.564085 4.44435 0
M  V30 148 C 14.4008 -1.22506 4.06439 0
M  V30 149 C 12.3078 0.226137 5.90967 0
M  V30 150 H 11.2378 -0.128866 0.742906 0
M  V30 151 H 13.8888 0.386556 1.79382 0
M  V30 152 H 12.2708 -1.42739 3.6938 0
M  V30 153 H 13.4448 1.34082 4.40861 0
M  V30 154 H 11.7598 1.0594 4.02698 0
M  V30 155 H 14.3568 -1.49182 5.13468 0
M  V30 156 H 14.6998 -2.16085 3.55827 0
M  V30 157 H 15.2328 -0.50682 3.94558 0
M  V30 158 H 11.9718 1.12996 6.45687 0
M  V30 159 H 11.4918 -0.513717 5.97596 0
M  V30 160 H 13.1708 -0.179539 6.46751 0
M  V30 161 N 13.3029 -1.57598 0.00835791 0
M  V30 162 C 14.2359 -2.04409 -1.01451 0
M  V30 163 C 15.2139 -0.935609 -1.32985 0
M  V30 164 O 16.3979 -1.20437 -1.45007 0
M  V30 165 C 13.5249 -2.44872 -2.33999 0
M  V30 166 C 12.5709 -3.66535 -2.18069 0
M  V30 167 S 13.4039 -5.14095 -1.4989 0
M  V30 168 C 14.5599 -5.57835 -2.8385 0
M  V30 169 H 14.7929 -2.90849 -0.615961 0
M  V30 170 H 12.3259 -1.53063 -0.202752 0
M  V30 171 H 14.2839 -2.68852 -3.10208 0
M  V30 172 H 12.9449 -1.58815 -2.70992 0
M  V30 173 H 12.1379 -3.92626 -3.16008 0
M  V30 174 H 11.7399 -3.426 -1.50004 0
M  V30 175 H 14.0319 -5.60806 -3.80136 0
M  V30 176 H 14.9749 -6.57667 -2.62449 0
M  V30 177 H 15.3829 -4.85421 -2.88144 0
M  V30 178 N 14.781 0.264519 -1.55364 0
M  V30 179 C 15.711 1.33121 -1.91836 0
M  V30 180 C 16.692 1.51101 -0.781192 0
M  V30 181 O 17.877 1.64003 -1.04003 0
M  V30 182 C 15.007 2.68921 -2.19769 0
M  V30 183 C 13.961 2.65661 -3.35571 0
M  V30 184 C 13.287 4.05093 -3.49004 0
M  V30 185 C 14.587 2.24187 -4.71739 0
M  V30 186 H 16.281 1.02844 -2.81182 0
M  V30 187 H 13.827 0.493286 -1.35287 0
M  V30 188 H 15.78 3.43663 -2.43872 0
M  V30 189 H 14.504 3.00799 -1.27231 0
M  V30 190 H 13.163 1.93377 -3.1145 0
M  V30 191 H 12.811 4.34206 -2.53917 0
M  V30 192 H 12.511 4.03804 -4.26868 0
M  V30 193 H 14.035 4.81561 -3.75408 0
M  V30 194 H 15.449 2.88654 -4.9533 0
M  V30 195 H 13.846 2.34044 -5.52579 0
M  V30 196 H 14.916 1.19327 -4.69988 0
M  V30 197 N 16.2591 1.48442 0.529413 0
M  V30 198 C 17.1891 1.65902 1.64313 0
M  V30 199 C 18.1701 0.507897 1.6234 0
M  V30 200 O 19.3551 0.740503 1.79528 0
M  V30 201 C 16.4851 1.69911 3.02898 0
M  V30 202 C 15.4391 2.8453 3.19729 0
M  V30 203 C 14.7651 2.73629 4.59381 0
M  V30 204 C 16.0651 4.25821 3.02447 0
M  V30 205 H 17.7591 2.5914 1.49955 0
M  V30 206 H 15.3051 1.24709 0.719982 0
M  V30 207 H 17.2581 1.80715 3.80684 0
M  V30 208 H 15.9821 0.732524 3.18279 0
M  V30 209 H 14.6411 2.73283 2.44361 0
M  V30 210 H 14.2891 1.74938 4.71599 0
M  V30 211 H 13.9891 3.50541 4.71588 0
M  V30 212 H 15.5131 2.86401 5.39265 0
M  V30 213 H 16.9271 4.37898 3.70024 0
M  V30 214 H 15.3241 5.03735 3.26146 0
M  V30 215 H 16.3941 4.42244 1.98867 0
M  V30 216 N 17.7372 -0.778329 1.37039 0
M  V30 217 C 19.1482 -1.35421 1.28523 0
M  V30 218 C 19.4992 -1.96075 -0.0700901 0
M  V30 219 O 18.6242 -1.93352 -0.971801 0
M  V30 220 C 19.2192 -2.46211 2.32735 0
M  V30 221 C 17.7782 -2.99585 2.27873 0
M  V30 222 C 16.9252 -1.72748 2.16918 0
M  V30 223 H 19.8762 -0.5791 1.47757 0
M  V30 224 H 19.8972 -3.2552 1.9702 0
M  V30 225 H 19.4092 -2.02036 3.31365 0
M  V30 226 H 17.5102 -3.48152 1.32745 0
M  V30 227 H 17.6232 -3.55646 3.21018 0
M  V30 228 H 15.9872 -1.95416 1.63354 0
M  V30 229 H 16.7702 -1.30686 3.17452 0
M  V30 230 N 19.2153 -1.21501 -1.00376 0
M  V30 231 C 20.1453 -0.999478 -2.11028 0
M  V30 232 C 21.1263 0.0759671 -1.6993 0
M  V30 233 O 22.3113 -0.0841106 -1.94018 0
M  V30 234 C 19.4413 -0.564709 -3.42678 0
M  V30 235 C 18.3953 -1.58486 -3.97576 0
M  V30 236 C 17.7213 -1.00628 -5.25146 0
M  V30 237 C 19.0213 -2.97204 -4.29496 0
M  V30 238 H 20.7153 -1.92495 -2.29317 0
M  V30 239 H 18.2613 -0.92693 -1.102 0
M  V30 240 H 20.2143 -0.401091 -4.19487 0
M  V30 241 H 18.9383 0.396411 -3.24185 0
M  V30 242 H 17.5973 -1.73606 -3.22888 0
M  V30 243 H 17.2453 -0.0368439 -5.02987 0
M  V30 244 H 16.9453 -1.68771 -5.62841 0
M  V30 245 H 18.4693 -0.854015 -6.04598 0
M  V30 246 H 19.8833 -2.8552 -4.97143 0
M  V30 247 H 18.2803 -3.62372 -4.78338 0
M  V30 248 H 19.3503 -3.47956 -3.3772 0
M  V30 249 N 20.6934 1.19889 -1.02296 0
M  V30 250 C 21.9214 1.9339 -0.735399 0
M  V30 251 C 22.3364 1.75148 0.704887 0
M  V30 252 O 21.6934 1.06954 1.47875 0
M  V30 253 C 21.7444 3.45313 -1.06962 0
M  V30 254 O 21.4654 3.62964 -2.45334 0
M  V30 255 C 22.9664 4.35948 -0.804021 0
M  V30 256 H 20.1864 0.61448 -0.269546 0
M  V30 257 H 22.7304 1.522 -1.36585 0
M  V30 258 H 20.8854 3.84359 -0.484455 0
M  V30 259 H 21.2994 4.56886 -2.57595 0
M  V30 260 H 22.7734 5.41174 -1.0879 0
M  V30 261 H 23.2504 4.3842 0.261691 0
M  V30 262 H 23.8564 4.02574 -1.37164 0
M  V30 263 N 22.1715 0.800033 1.35784 0
M  V30 264 C 23.4175 0.38701 1.99684 0
M  V30 265 C 23.7725 -1.03268 1.62338 0
M  V30 266 O 23.0655 -1.70543 0.87325 0
M  V30 267 C 23.2595 0.500276 3.53881 0
M  V30 268 C 23.0885 1.92942 4.06206 0
M  V30 269 C 21.8585 2.55637 4.35865 0
M  V30 270 C 24.0565 2.89307 4.25213 0
M  V30 271 N 22.0385 3.9003 4.74078 0
M  V30 272 C 23.4095 4.08556 4.66349 0
M  V30 273 C 25.4645 2.86225 4.07406 0
M  V30 274 C 24.1675 5.25146 4.91543 0
M  V30 275 C 26.1935 4.02011 4.33752 0
M  V30 276 C 25.5555 5.20007 4.75155 0
M  V30 277 H 21.6545 0.189252 0.758754 0
M  V30 278 H 24.2385 1.03988 1.64604 0
M  V30 279 H 22.4095 -0.122568 3.88207 0
M  V30 280 H 24.1415 0.0624733 4.04652 0
M  V30 281 H 20.8965 2.07039 4.25948 0
M  V30 282 H 21.3205 4.59205 4.97454 0
M  V30 283 H 25.9625 1.96154 3.74544 0
M  V30 284 H 23.6805 6.15794 5.23281 0
M  V30 285 H 27.2665 4.00999 4.21534 0
M  V30 286 H 26.1465 6.08113 4.95145 0
M  V30 287 N 23.6496 -1.47581 0.552962 0
M  V30 288 C 24.5796 -2.32762 -0.185451 0
M  V30 289 C 25.5606 -1.43527 -0.912905 0
M  V30 290 O 26.7456 -1.72388 -0.894201 0
M  V30 291 C 23.8756 -3.25219 -1.21859 0
M  V30 292 C 22.8296 -4.23661 -0.607864 0
M  V30 293 C 22.1556 -5.05413 -1.74533 0
M  V30 294 C 23.4556 -5.20481 0.435582 0
M  V30 295 H 25.1496 -2.94749 0.525684 0
M  V30 296 H 22.6956 -1.41738 0.254251 0
M  V30 297 H 24.6486 -3.8365 -1.7433 0
M  V30 298 H 23.3726 -2.61279 -1.95961 0
M  V30 299 H 22.0316 -3.66451 -0.104489 0
M  V30 300 H 21.6796 -4.3788 -2.47529 0
M  V30 301 H 21.3796 -5.72059 -1.34249 0
M  V30 302 H 22.9036 -5.66701 -2.27338 0
M  V30 303 H 24.3176 -5.733 -0.00290157 0
M  V30 304 H 22.7146 -5.95305 0.757067 0
M  V30 305 H 23.7846 -4.66217 1.33303 0
M  V30 306 N 25.1277 -0.289203 -1.54924 0
M  V30 307 C 26.3527 0.329299 -2.04769 0
M  V30 308 C 26.7777 1.4763 -1.16564 0
M  V30 309 O 26.1357 1.80527 -0.167186 0
M  V30 310 C 26.1837 0.774438 -3.52186 0
M  V30 311 O 25.2877 1.88038 -3.67036 0
M  V30 312 H 24.6287 0.0659259 -0.660719 0
M  V30 313 H 27.1587 -0.42761 -2.00082 0
M  V30 314 H 27.1687 1.06642 -3.93816 0
M  V30 315 H 25.8437 -0.0646707 -4.1585 0
M  V30 316 H 24.4207 1.58985 -3.3731 0
M  V30 317 N 26.6058 1.57591 -0.0167156 0
M  V30 318 C 27.5528 2.09462 0.969251 0
M  V30 319 C 28.5228 0.99381 1.33089 0
M  V30 320 O 29.7078 1.26726 1.42636 0
M  V30 321 C 26.8478 2.61622 2.25051 0
M  V30 322 C 25.9608 3.85666 1.94642 0
M  V30 323 C 25.0958 4.26266 3.16972 0
M  V30 324 C 24.1348 5.43101 2.82326 0
M  V30 325 N 23.2718 5.78915 3.97243 0
M  V30 326 H 28.1118 2.93428 0.519997 0
M  V30 327 H 25.6488 1.45044 0.245087 0
M  V30 328 H 27.6068 2.89949 2.99976 0
M  V30 329 H 26.2368 1.80505 2.67615 0
M  V30 330 H 25.2888 3.64145 1.10013 0
M  V30 331 H 26.6008 4.70678 1.65117 0
M  V30 332 H 25.7548 4.55963 4.00228 0
M  V30 333 H 24.4938 3.39996 3.49648 0
M  V30 334 H 23.4988 5.1311 1.97479 0
M  V30 335 H 24.7238 6.3106 2.50879 0
M  V30 336 H 22.6698 4.95602 4.29785 0
M  V30 337 H 22.5868 6.58539 3.71299 0
M  V30 338 H 23.8548 6.13212 4.81239 0
M  V30 339 N 28.0839 -0.256276 1.55502 0
M  V30 340 C 29.0309 -1.31714 1.89526 0
M  V30 341 C 30.0009 -1.4828 0.748479 0
M  V30 342 O 31.1859 -1.62416 1.00128 0
M  V30 343 C 28.3259 -2.66933 2.18725 0
M  V30 344 C 27.4389 -2.58452 3.4616 0
M  V30 345 C 26.5739 -3.85961 3.64976 0
M  V30 346 C 25.6129 -3.72059 4.86044 0
M  V30 347 N 24.7499 -4.9144 5.01429 0
M  V30 348 H 29.5899 -1.01998 2.80001 0
M  V30 349 H 27.1269 -0.492413 1.38613 0
M  V30 350 H 29.0849 -3.4563 2.33657 0
M  V30 351 H 27.7149 -2.94816 1.31466 0
M  V30 352 H 26.7669 -1.71374 3.3961 0
M  V30 353 H 28.0789 -2.44085 4.34999 0
M  V30 354 H 27.2329 -4.73101 3.79816 0
M  V30 355 H 25.9719 -4.03215 2.74353 0
M  V30 356 H 24.9769 -2.83302 4.7119 0
M  V30 357 H 26.2019 -3.56309 5.78118 0
M  V30 358 H 24.1479 -5.09072 4.13741 0
M  V30 359 H 24.0649 -4.79668 5.84341 0
M  V30 360 H 25.3329 -5.80104 5.20672 0
M  V30 361 N 29.562 -1.4872 -0.521534 0
M  V30 362 C 30.512 -1.60269 -1.62166 0
M  V30 363 C 31.496 -0.45935 -1.54204 0
M  V30 364 O 32.688 -0.711241 -1.62081 0
M  V30 365 C 29.817 -1.65344 -3.00859 0
M  V30 366 C 28.903 -2.85187 -3.13894 0
M  V30 367 N 29.294 -4.09509 -2.96877 0
M  V30 368 C 27.592 -2.82695 -3.44963 0
M  V30 369 C 28.293 -4.89959 -3.13552 0
M  V30 370 N 27.269 -4.22934 -3.41508 0
M  V30 371 H 31.071 -2.5413 -1.47632 0
M  V30 372 H 28.585 -1.45209 -0.727194 0
M  V30 373 H 30.582 -1.71713 -3.79895 0
M  V30 374 H 29.242 -0.726058 -3.16478 0
M  V30 375 H 30.253 -4.39814 -2.73467 0
M  V30 376 H 26.93 -1.99249 -3.66887 0
M  V30 377 H 28.32 -5.98654 -3.05061 0
M  V30 378 N 31.0401 0.771051 -1.3745 0
M  V30 379 C 31.9731 1.89166 -1.27638 0
M  V30 380 C 32.9511 1.61842 -0.156782 0
M  V30 381 O 34.1351 1.85569 -0.331111 0
M  V30 382 C 31.2621 3.24405 -0.973621 0
M  V30 383 C 30.3081 3.70638 -2.1102 0
M  V30 384 S 31.1411 3.84228 -3.73 0
M  V30 385 C 32.2971 5.22313 -3.44876 0
M  V30 386 H 32.5301 1.972 -2.22485 0
M  V30 387 H 30.0631 0.932224 -1.23081 0
M  V30 388 H 32.0211 4.02514 -0.805766 0
M  V30 389 H 30.6821 3.14071 -0.0426279 0
M  V30 390 H 29.8751 4.68685 -1.85338 0
M  V30 391 H 29.4771 2.99632 -2.23822 0
M  V30 392 H 31.7691 6.07505 -2.99908 0
M  V30 393 H 32.7121 5.53008 -4.42253 0
M  V30 394 H 33.1201 4.90284 -2.79789 0
M  V30 395 N 32.5182 1.22032 0.997298 0
M  V30 396 C 33.7672 1.03637 1.73038 0
M  V30 397 C 34.0802 -0.429475 1.90827 0
M  V30 398 O 35.2862 -0.732995 2.61418 0
M  V30 399 C 33.7422 1.80582 3.11317 0
M  V30 400 C 33.3502 3.31387 3.01474 0
M  V30 401 C 35.0942 1.70621 3.88701 0
M  V30 402 C 33.0012 4.00791 4.3488 0
M  V30 403 H 31.9312 0.384179 0.648785 0
M  V30 404 H 34.5822 1.4584 1.11368 0
M  V30 405 H 32.9642 1.31175 3.73643 0
M  V30 406 H 34.1382 3.88155 2.4834 0
M  V30 407 H 32.4532 3.41976 2.37575 0
M  V30 408 H 35.0502 2.19799 4.87434 0
M  V30 409 H 35.3932 0.665823 4.10941 0
M  V30 410 H 35.9262 2.17547 3.33044 0
M  V30 411 H 32.6652 5.05064 4.1784 0
M  V30 412 H 32.1852 3.48811 4.87945 0
M  V30 413 H 33.8642 4.06139 5.03647 0
M  V30 414 N 33.9963 -1.19345 1.0293 0
M  V30 415 C 35.2423 -1.89585 0.736824 0
M  V30 416 C 35.5973 -1.78148 -0.726703 0
M  V30 417 O 34.8903 -1.16332 -1.52242 0
M  V30 418 C 35.0843 -3.39292 1.12319 0
M  V30 419 C 34.9133 -3.65298 2.62273 0
M  V30 420 C 33.6833 -3.83304 3.29251 0
M  V30 421 C 35.8813 -3.6682 3.60482 0
M  V30 422 N 33.8633 -3.96944 4.68304 0
M  V30 423 C 35.2343 -3.86037 4.85155 0
M  V30 424 C 37.2893 -3.49848 3.54275 0
M  V30 425 C 35.9923 -3.9004 6.04369 0
M  V30 426 C 38.0183 -3.55129 4.72903 0
M  V30 427 C 37.3803 -3.74831 5.9639 0
M  V30 428 H 33.4793 -0.712856 0.321497 0
M  V30 429 H 36.0633 -1.43427 1.31669 0
M  V30 430 H 34.2343 -3.84172 0.571524 0
M  V30 431 H 35.9663 -3.97055 0.78292 0
M  V30 432 H 32.7213 -3.82211 2.79663 0
M  V30 433 H 33.1453 -4.07613 5.40538 0
M  V30 434 H 37.7873 -3.33572 2.59788 0
M  V30 435 H 35.5053 -4.05108 6.99223 0
M  V30 436 H 39.0913 -3.43287 4.69729 0
M  V30 437 H 37.9713 -3.78792 6.86649 0
M  V30 438 N 35.4744 -0.807222 -1.35358 0
M  V30 439 C 36.7234 -0.384376 -1.98004 0
M  V30 440 C 37.0364 1.0543 -1.64754 0
M  V30 441 O 38.2424 1.58029 -2.20769 0
M  V30 442 C 36.6984 -0.636326 -3.5423 0
M  V30 443 C 36.3064 -2.08759 -3.96388 0
M  V30 444 C 38.0504 -0.278869 -4.23583 0
M  V30 445 C 35.9574 -2.28525 -5.45463 0
M  V30 446 H 34.8874 -0.139986 -0.740891 0
M  V30 447 H 37.5384 -0.991369 -1.54415 0
M  V30 448 H 35.9204 0.0406256 -3.95979 0
M  V30 449 H 37.0944 -2.8024 -3.6579 0
M  V30 450 H 35.4094 -2.40497 -3.39926 0
M  V30 451 H 38.0064 -0.404599 -5.33167 0
M  V30 452 H 38.3494 0.775012 -4.09022 0
M  V30 453 H 38.8824 -0.909764 -3.87257 0
M  V30 454 H 35.6214 -3.32361 -5.64992 0
M  V30 455 H 35.1414 -1.61569 -5.77629 0
M  V30 456 H 36.8204 -2.10109 -6.11934 0
M  V30 457 N 36.9525 1.47285 -0.560781 0
M  V30 458 C 37.9005 2.31756 0.197942 0
M  V30 459 C 38.8945 1.43146 0.905854 0
M  V30 460 O 40.1005 1.59891 0.826733 0
M  V30 461 H 36.4755 0.747438 0.0827049 0
M  V30 462 H 38.4465 2.9359 -0.533629 0
M  V30 463 C 37.1955 3.25874 1.21249 0
M  V30 464 H 36.5185 3.94023 0.67719 0
M  V30 465 H 37.9585 3.87803 1.71419 0
M  V30 466 C 36.4175 2.49651 2.26221 0
M  V30 467 O 36.9475 2.24355 3.33208 0
M  V30 468 N 35.1535 2.10597 2.00243 0
M  V30 469 H 34.7005 2.31369 1.13252 0
M  V30 470 H 34.6585 1.59913 2.70694 0
M  V30 471 N 38.4306 0.297415 1.54768 0
M  V30 472 C 39.6586 -0.315623 2.04478 0
M  V30 473 C 40.0736 -1.47792 1.17486 0
M  V30 474 O 39.4306 -1.81404 0.19971 0
M  V30 475 C 39.4816 -0.7753 3.53088 0
M  V30 476 O 39.2026 0.340732 4.36773 0
M  V30 477 C 40.7036 -1.45386 4.18781 0
M  V30 478 H 37.9236 -0.0690887 0.667434 0
M  V30 479 H 40.4676 0.436003 1.99798 0
M  V30 480 H 38.6226 -1.47696 3.58141 0
M  V30 481 H 39.0366 -0.0165035 5.24497 0
M  V30 482 H 40.5106 -1.72669 5.24299 0
M  V30 483 H 40.9876 -2.39275 3.68299 0
M  V30 484 H 41.5936 -0.795475 4.17795 0
M  V30 485 N 39.9087 -1.5758 0.0250728 0
M  V30 486 C 41.1367 -1.9593 -0.664747 0
M  V30 487 C 41.5517 -0.901352 -1.65895 0
M  V30 488 O 40.9087 0.117255 -1.82123 0
M  V30 489 C 40.9597 -3.34342 -1.37468 0
M  V30 490 O 40.6807 -4.36079 -0.420324 0
M  V30 491 C 42.1817 -3.873 -2.1567 0
M  V30 492 H 39.4017 -0.645405 -0.183557 0
M  V30 493 H 41.9457 -2.04329 0.0836372 0
M  V30 494 H 40.1007 -3.27175 -2.0745 0
M  V30 495 H 40.5147 -5.16297 -0.923991 0
M  V30 496 H 41.9887 -4.86504 -2.60803 0
M  V30 497 H 42.4657 -3.21331 -2.99405 0
M  V30 498 H 43.0717 -3.97723 -1.50654 0
M  V30 499 N 41.3868 0.248026 -1.55636 0
M  V30 500 C 42.6148 0.993808 -1.81469 0
M  V30 501 C 43.0298 1.78991 -0.60064 0
M  V30 502 O 42.3868 1.77345 0.430682 0
M  V30 503 C 42.4378 1.93258 -3.05506 0
M  V30 504 O 42.1588 1.16869 -4.22224 0
M  V30 505 C 43.6598 2.79444 -3.4413 0
M  V30 506 H 40.8798 0.292486 -0.603898 0
M  V30 507 H 43.4238 0.271253 -2.02693 0
M  V30 508 H 41.5788 2.60943 -2.86335 0
M  V30 509 H 41.9928 1.80359 -4.92515 0
M  V30 510 H 43.4668 3.41066 -4.34026 0
M  V30 511 H 43.9438 3.50499 -2.64665 0
M  V30 512 H 44.5498 2.17214 -3.65648 0
M  V30 513 N 42.8649 1.48995 0.513639 0
M  V30 514 C 43.8149 1.61127 1.61314 0
M  V30 515 C 44.7989 0.467521 1.53958 0
M  V30 516 O 45.9909 0.719826 1.61702 0
M  V30 517 C 43.1199 1.66937 2.99978 0
M  V30 518 C 42.2059 2.86847 3.12377 0
M  V30 519 N 42.5969 4.11078 2.94701 0
M  V30 520 C 40.8949 2.84521 3.43459 0
M  V30 521 C 41.5959 4.91615 3.10949 0
M  V30 522 N 40.5719 4.24739 3.3926 0
M  V30 523 H 44.3739 2.54909 1.46282 0
M  V30 524 H 41.8879 1.45593 0.719483 0
M  V30 525 H 43.8849 1.73725 3.78979 0
M  V30 526 H 42.5449 0.742831 3.16089 0
M  V30 527 H 43.5559 4.41258 2.71131 0
M  V30 528 H 40.2329 2.01192 3.65825 0
M  V30 529 H 41.6229 6.00264 3.01882 0
M  V30 530 N 44.343 -0.763751 1.37857 0
M  V30 531 C 45.568 -1.55805 1.36893 0
M  V30 532 C 45.993 -1.88054 -0.0416135 0
M  V30 533 O 45.351 -1.49825 -1.02089 0
M  V30 534 C 45.399 -2.84012 2.22192 0
M  V30 535 O 44.503 -3.78732 1.63204 0
M  V30 536 H 43.844 -0.471638 0.46739 0
M  V30 537 H 46.374 -0.944657 1.81487 0
M  V30 538 H 46.384 -3.33037 2.35691 0
M  V30 539 H 45.059 -2.59869 3.24716 0
M  V30 540 H 43.636 -3.37402 1.58791 0
M  V30 541 N 45.8211 -1.22559 -0.990812 0
M  V30 542 C 46.7511 -1.0218 -2.09956 0
M  V30 543 C 47.7321 0.0579394 -1.70001 0
M  V30 544 O 48.9171 -0.104684 -1.93918 0
M  V30 545 C 46.0471 -0.601023 -3.4206 0
M  V30 546 C 45.0011 -1.62694 -3.95872 0
M  V30 547 C 44.3271 -1.06193 -5.24049 0
M  V30 548 C 45.6271 -3.01743 -4.2632 0
M  V30 549 H 47.3211 -1.94916 -2.27262 0
M  V30 550 H 44.8671 -0.938566 -1.09211 0
M  V30 551 H 46.8201 -0.445561 -4.19038 0
M  V30 552 H 45.5441 0.362005 -3.24588 0
M  V30 553 H 44.2031 -1.77021 -3.21028 0
M  V30 554 H 43.8511 -0.0901903 -5.02919 0
M  V30 555 H 43.5511 -1.74732 -5.61019 0
M  V30 556 H 45.0751 -0.918092 -6.03658 0
M  V30 557 H 46.4891 -2.90777 -4.94087 0
M  V30 558 H 44.8861 -3.67425 -4.74467 0
M  V30 559 H 45.9561 -3.51518 -3.34011 0
M  V30 560 N 47.2992 1.18797 -1.03562 0
M  V30 561 C 48.5482 1.87978 -0.731235 0
M  V30 562 C 48.8612 1.80911 0.743671 0
M  V30 563 O 50.0672 2.45407 1.16137 0
M  V30 564 C 48.5232 3.3721 -1.25768 0
M  V30 565 C 48.1312 3.52818 -2.76085 0
M  V30 566 C 49.8752 4.11825 -1.0296 0
M  V30 567 C 47.7822 4.9598 -3.22114 0
M  V30 568 H 46.7122 0.704063 -0.269835 0
M  V30 569 H 49.3632 1.34266 -1.25079 0
M  V30 570 H 47.7452 3.90359 -0.666011 0
M  V30 571 H 48.9192 3.09965 -3.40966 0
M  V30 572 H 47.2342 2.91602 -2.97249 0
M  V30 573 H 49.8312 5.17411 -1.34869 0
M  V30 574 H 50.1742 4.16287 0.0333546 0
M  V30 575 H 50.7072 3.64833 -1.58562 0
M  V30 576 H 47.4462 4.96684 -4.27768 0
M  V30 577 H 46.9662 5.39569 -2.61965 0
M  V30 578 H 48.6452 5.6467 -3.15844 0
M  V30 579 N 48.7773 0.814389 1.34928 0
M  V30 580 C 50.0263 0.394871 1.97797 0
M  V30 581 C 50.3393 -1.04555 1.65311 0
M  V30 582 O 51.5453 -1.56856 2.21604 0
M  V30 583 C 50.0013 0.655103 3.53888 0
M  V30 584 C 49.6093 2.10858 3.95276 0
M  V30 585 C 51.3533 0.301329 4.23429 0
M  V30 586 C 49.2603 2.31415 5.44244 0
M  V30 587 H 48.1903 0.143913 0.740139 0
M  V30 588 H 50.8413 0.999544 1.53888 0
M  V30 589 H 49.2233 -0.0196253 3.95995 0
M  V30 590 H 50.3973 2.82176 3.64298 0
M  V30 591 H 48.7123 2.42297 3.38646 0
M  V30 592 H 51.3093 0.432869 5.32945 0
M  V30 593 H 51.6523 -0.75331 4.09428 0
M  V30 594 H 52.1853 0.930288 3.86769 0
M  V30 595 H 48.9243 3.35353 5.63222 0
M  V30 596 H 48.4443 1.6463 5.76764 0
M  V30 597 H 50.1233 2.13352 6.10811 0
M  V30 598 N 50.2554 -1.46986 0.568584 0
M  V30 599 C 51.4804 -2.07335 0.0520528 0
M  V30 600 C 51.9054 -1.41675 -1.23733 0
M  V30 601 O 51.2634 -0.495623 -1.74394 0
M  V30 602 C 51.3114 -3.60417 -0.11501 0
M  V30 603 O 50.4154 -3.95309 -1.17492 0
M  V30 604 H 49.7564 -0.661597 0.0564385 0
M  V30 605 H 52.2864 -1.88837 0.787507 0
M  V30 606 H 52.2964 -4.06698 -0.325644 0
M  V30 607 H 50.9714 -4.07601 0.826675 0
M  V30 608 H 49.5484 -3.60757 -0.943869 0
M  V30 609 N 51.7335 -0.305618 -1.54608 0
M  V30 610 C 52.9825 0.303098 -1.9941 0
M  V30 611 C 53.2955 1.54648 -1.19764 0
M  V30 612 O 54.5015 2.23007 -1.54855 0
M  V30 613 C 52.9575 0.590588 -3.55021 0
M  V30 614 C 52.5655 -0.634719 -4.43481 0
M  V30 615 C 54.3095 1.16025 -4.08336 0
M  V30 616 C 52.2165 -0.320126 -5.90533 0
M  V30 617 H 51.1465 0.117031 -0.744862 0
M  V30 618 H 53.7975 -0.415045 -1.78745 0
M  V30 619 H 52.1795 1.36845 -3.71604 0
M  V30 620 H 53.3535 -1.41079 -4.38672 0
M  V30 621 H 51.6685 -1.12333 -4.00962 0
M  V30 622 H 54.2655 1.40994 -5.15776 0
M  V30 623 H 54.6085 2.10397 -3.5922 0
M  V30 624 H 55.1415 0.443985 -3.95315 0
M  V30 625 H 51.8805 -1.23254 -6.43808 0
M  V30 626 H 51.4005 0.418579 -5.98338 0
M  V30 627 H 53.0795 0.0766241 -6.46955 0
M  V30 628 N 53.2116 1.57565 -0.0334293 0
M  V30 629 C 54.4606 1.91155 0.643639 0
M  V30 630 C 54.7736 0.91192 1.73042 0
M  V30 631 O 55.9796 1.13923 2.46442 0
M  V30 632 C 54.4356 3.39443 1.1961 0
M  V30 633 C 54.0436 4.47774 0.142381 0
M  V30 634 C 55.7876 3.82094 1.84944 0
M  V30 635 C 53.6946 5.87162 0.706727 0
M  V30 636 H 52.6246 0.713368 0.244176 0
M  V30 637 H 55.2756 1.8323 -0.0994323 0
M  V30 638 H 53.6576 3.42313 1.99092 0
M  V30 639 H 54.8316 4.56469 -0.630296 0
M  V30 640 H 53.1466 4.14352 -0.412446 0
M  V30 641 H 55.7436 4.83591 2.2813 0
M  V30 642 H 56.0866 3.17386 2.69392 0
M  V30 643 H 56.6196 3.81665 1.12145 0
M  V30 644 H 53.3586 6.55424 -0.0997178 0
M  V30 645 H 52.8786 5.82064 1.44779 0
M  V30 646 H 54.5576 6.35866 1.19514 0
M  V30 647 N 54.6897 -0.239769 1.55765 0
M  V30 648 C 56.1007 -0.808263 1.68297 0
M  V30 649 C 56.4517 -1.85736 0.632181 0
M  V30 650 O 55.5767 -2.15277 -0.220204 0
M  V30 651 C 56.1717 -1.47284 3.05111 0
M  V30 652 C 54.7307 -1.98895 3.19559 0
M  V30 653 C 53.8777 -0.842575 2.64189 0
M  V30 654 H 56.8287 -0.0154422 1.58692 0
M  V30 655 H 56.8497 -2.34111 2.99954 0
M  V30 656 H 56.3617 -0.709053 3.81568 0
M  V30 657 H 54.4627 -2.78132 2.47938 0
M  V30 658 H 54.5757 -2.18143 4.26556 0
M  V30 659 H 52.9397 -1.24501 2.22197 0
M  V30 660 H 53.7227 -0.0917552 3.43177 0
M  V30 661 N 56.1678 -1.49265 -0.50573 0
M  V30 662 C 57.0978 -1.68495 -1.61653 0
M  V30 663 C 58.0788 -0.53366 -1.61512 0
M  V30 664 O 59.2638 -0.76897 -1.78327 0
M  V30 665 C 56.3938 -1.74709 -3.00157 0
M  V30 666 C 55.3478 -2.89581 -3.15162 0
M  V30 667 C 54.6738 -2.80903 -4.5497 0
M  V30 668 C 55.9738 -4.30578 -2.95634 0
M  V30 669 H 57.6678 -2.61493 -1.45814 0
M  V30 670 H 55.2138 -1.25838 -0.70005 0
M  V30 671 H 57.1668 -1.86748 -3.77761 0
M  V30 672 H 55.8908 -0.783067 -3.17074 0
M  V30 673 H 54.5498 -2.77136 -2.39982 0
M  V30 674 H 54.1978 -1.82419 -4.68756 0
M  V30 675 H 53.8978 -3.57999 -4.65951 0
M  V30 676 H 55.4218 -2.94944 -5.34641 0
M  V30 677 H 56.8358 -4.4373 -3.63011 0
M  V30 678 H 55.2328 -5.0886 -3.18091 0
M  V30 679 H 56.3028 -4.45352 -1.91806 0
M  V30 680 N 57.6459 0.756429 -1.3826 0
M  V30 681 C 58.5759 1.88374 -1.37976 0
M  V30 682 C 59.5569 1.68311 -0.246082 0
M  V30 683 O 60.7419 1.88944 -0.44874 0
M  V30 684 C 57.8719 3.25864 -1.20125 0
M  V30 685 C 56.8259 3.60523 -2.30666 0
M  V30 686 C 56.1519 4.9672 -1.97923 0
M  V30 687 C 57.4519 3.65692 -3.72916 0
M  V30 688 H 59.1459 1.88869 -2.32312 0
M  V30 689 H 56.6919 0.907272 -1.11824 0
M  V30 690 H 58.6449 4.0438 -1.18552 0
M  V30 691 H 57.3689 3.25841 -0.222498 0
M  V30 692 H 56.0279 2.84324 -2.3142 0
M  V30 693 H 55.6759 4.93253 -0.985393 0
M  V30 694 H 55.3759 5.20878 -2.71955 0
M  V30 695 H 56.8999 5.77618 -1.97964 0
M  V30 696 H 58.3139 4.34328 -3.74208 0
M  V30 697 H 56.7109 4.01358 -4.4613 0
M  V30 698 H 57.7809 2.65987 -4.05436 0
M  V30 699 N 59.124 1.23083 0.984299 0
M  V30 700 C 60.371 1.06057 1.72505 0
M  V30 701 C 60.699 -0.403105 1.90277 0
M  V30 702 O 59.954 -1.3149 1.44944 0
M  V30 703 C 60.253 1.72673 3.1292 0
M  V30 704 C 59.919 3.22586 3.15038 0
M  V30 705 C 58.581 3.63489 3.15324 0
M  V30 706 C 60.933 4.185 3.10657 0
M  V30 707 C 58.261 4.98772 3.08939 0
M  V30 708 C 60.613 5.53769 3.05814 0
M  V30 709 C 59.277 5.94041 3.04419 0
M  V30 710 H 58.547 0.388091 0.631242 0
M  V30 711 H 61.194 1.52963 1.15215 0
M  V30 712 H 59.499 1.18116 3.73572 0
M  V30 713 H 61.196 1.56982 3.68996 0
M  V30 714 H 57.786 2.90022 3.15571 0
M  V30 715 H 61.97 3.87911 3.09579 0
M  V30 716 H 57.226 5.29193 3.0621 0
M  V30 717 H 61.4 6.27808 3.0138 0
M  V30 718 H 59.027 6.98833 2.99227 0
M  V30 719 N 60.6021 -1.18246 1.0419 0
M  V30 720 C 61.8491 -1.88257 0.746017 0
M  V30 721 C 62.1771 -1.80429 -0.726331 0
M  V30 722 O 61.4321 -1.2 -1.54591 0
M  V30 723 C 61.7311 -3.38082 1.15911 0
M  V30 724 C 61.3971 -3.66114 2.63195 0
M  V30 725 C 60.0591 -3.73474 3.03432 0
M  V30 726 C 62.4111 -3.78398 3.5842 0
M  V30 727 C 59.7391 -3.90599 4.37778 0
M  V30 728 C 62.0911 -3.97039 4.92487 0
M  V30 729 C 60.7551 -4.02635 5.32392 0
M  V30 730 H 60.0251 -0.688883 0.272987 0
M  V30 731 H 62.6721 -1.3995 1.30715 0
M  V30 732 H 60.9771 -3.88377 0.516806 0
M  V30 733 H 62.6741 -3.90596 0.907516 0
M  V30 734 H 59.2641 -3.61003 2.3103 0
M  V30 735 H 63.4481 -3.72042 3.28479 0
M  V30 736 H 58.7041 -3.93175 4.68213 0
M  V30 737 H 62.8781 -4.05486 5.66175 0
M  V30 738 H 60.5051 -4.15657 6.36501 0
M  V30 739 N 62.0802 -0.821533 -1.34494 0
M  V30 740 C 63.0282 -0.230702 -2.31453 0
M  V30 741 C 64.0222 0.627793 -1.57338 0
M  V30 742 O 65.2282 0.519288 -1.72347 0
M  V30 743 H 61.6032 -0.0558577 -0.749923 0
M  V30 744 H 63.5742 -1.06332 -2.78812 0
M  V30 745 C 62.3232 0.59391 -3.4259 0
M  V30 746 H 61.6462 -0.0573588 -3.99759 0
M  V30 747 H 63.0862 0.973446 -4.12674 0
M  V30 748 C 61.5452 1.76568 -2.86924 0
M  V30 749 O 62.0752 2.8638 -2.81691 0
M  V30 750 N 60.2812 1.58198 -2.43766 0
M  V30 751 H 59.8282 0.68872 -2.48222 0
M  V30 752 H 59.7862 2.36752 -2.06871 0
M  V30 753 N 63.5583 1.46682 -0.576371 0
M  V30 754 C 64.4903 2.28341 0.198231 0
M  V30 755 C 65.5033 1.38141 0.861453 0
M  V30 756 O 66.6923 1.62797 0.732082 0
M  V30 757 C 63.7923 3.12986 1.29972 0
M  V30 758 C 62.9653 4.31271 0.729639 0
M  V30 759 C 62.0243 4.97363 1.71803 0
M  V30 760 O 61.0503 5.55156 1.25658 0
M  V30 761 N 62.2523 4.93796 3.05198 0
M  V30 762 H 65.0173 2.9546 -0.502324 0
M  V30 763 H 62.5783 1.56525 -0.413715 0
M  V30 764 H 64.5703 3.54066 1.96008 0
M  V30 765 H 63.1403 2.47984 1.90323 0
M  V30 766 H 62.3603 3.94052 -0.108012 0
M  V30 767 H 63.6483 5.07739 0.328438 0
M  V30 768 H 63.0463 4.48077 3.45317 0
M  V30 769 H 61.6033 5.38837 3.6674 0
M  V30 770 N 65.0364 0.313813 1.54444 0
M  V30 771 C 66.2854 -0.292519 1.99568 0
M  V30 772 C 66.5984 -1.54011 1.20582 0
M  V30 773 O 67.8044 -2.22183 1.56035 0
M  V30 774 C 66.2604 -0.571752 3.55329 0
M  V30 775 C 65.8684 0.658229 4.43138 0
M  V30 776 C 67.6124 -1.13857 4.08946 0
M  V30 777 C 65.5194 0.351439 5.90355 0
M  V30 778 H 64.4494 -0.113079 0.745472 0
M  V30 779 H 67.1004 0.424518 1.78522 0
M  V30 780 H 65.4824 -1.34872 3.72325 0
M  V30 781 H 66.6564 1.43403 4.37918 0
M  V30 782 H 64.9714 1.14458 4.0036 0
M  V30 783 H 67.5684 -1.38257 5.16516 0
M  V30 784 H 67.9114 -2.08489 3.6033 0
M  V30 785 H 68.4444 -0.423015 3.95544 0
M  V30 786 H 65.1834 1.26667 6.43145 0
M  V30 787 H 64.7034 -0.386842 5.98551 0
M  V30 788 H 66.3824 -0.0423134 6.46986 0
M  V30 789 N 66.5145 -1.57545 0.0417849 0
M  V30 790 C 67.4625 -2.12148 -0.953723 0
M  V30 791 C 68.4565 -1.05104 -1.32852 0
M  V30 792 O 69.6625 -1.23524 -1.30927 0
M  V30 793 H 66.0375 -0.677957 -0.325389 0
M  V30 794 H 68.0085 -2.94707 -0.467991 0
M  V30 795 C 66.7575 -2.6739 -2.22257 0
M  V30 796 H 66.0805 -3.49413 -1.94295 0
M  V30 797 H 67.5205 -3.09227 -2.90094 0
M  V30 798 C 65.9795 -1.60723 -2.96091 0
M  V30 799 O 66.5095 -1.01449 -3.88679 0
M  V30 800 N 64.7155 -1.32466 -2.58652 0
M  V30 801 H 64.2625 -1.80856 -1.83437 0
M  V30 802 H 64.2205 -0.61325 -3.08361 0
M  V30 803 N 67.9926 0.231505 -1.5589 0
M  V30 804 C 68.9406 1.30649 -1.92441 0
M  V30 805 C 69.9346 1.49037 -0.805254 0
M  V30 806 O 71.1406 1.50329 -0.990007 0
M  V30 807 H 67.5156 0.437812 -0.611412 0
M  V30 808 H 69.4866 0.970973 -2.82161 0
M  V30 809 C 68.2356 2.65179 -2.24889 0
M  V30 810 H 67.5586 2.51835 -3.10514 0
M  V30 811 H 68.9986 3.39234 -2.54355 0
M  V30 812 C 67.4576 3.19439 -1.07054 0
M  V30 813 O 67.9876 4.00371 -0.326499 0
M  V30 814 N 66.1936 2.77675 -0.85703 0
M  V30 815 H 65.7406 2.11969 -1.46379 0
M  V30 816 H 65.6986 3.14321 -0.0703223 0
M  V30 817 N 69.4707 1.49531 0.497807 0
M  V30 818 C 70.4187 1.66926 1.61983 0
M  V30 819 C 71.4127 0.535167 1.60724 0
M  V30 820 O 72.6187 0.714896 1.65195 0
M  V30 821 H 68.9937 0.526415 0.537021 0
M  V30 822 H 70.9647 2.61098 1.44465 0
M  V30 823 C 69.7137 1.75602 3.00099 0
M  V30 824 H 69.0367 2.62244 3.01775 0
M  V30 825 H 70.4767 1.91807 3.78135 0
M  V30 826 C 68.9357 0.501543 3.33146 0
M  V30 827 O 69.4657 -0.371342 3.9998 0
M  V30 828 N 67.6717 0.363531 2.88317 0
M  V30 829 H 67.2187 1.07485 2.34104 0
M  V30 830 H 67.1767 -0.474728 3.10795 0
M  V30 831 N 70.9488 -0.749086 1.3866 0
M  V30 832 C 71.8788 -1.8764 1.38973 0
M  V30 833 C 72.8598 -1.68178 0.255004 0
M  V30 834 O 74.0448 -1.88704 0.458754 0
M  V30 835 C 71.1748 -3.25222 1.21851 0
M  V30 836 C 70.1288 -3.59295 2.32575 0
M  V30 837 C 69.4548 -4.95663 2.00555 0
M  V30 838 C 70.7548 -3.63709 3.7485 0
M  V30 839 H 72.4488 -1.87635 2.3331 0
M  V30 840 H 69.9948 -0.901329 1.12303 0
M  V30 841 H 71.9478 -4.03746 1.20695 0
M  V30 842 H 70.6718 -3.25719 0.239775 0
M  V30 843 H 69.3308 -2.83093 2.32925 0
M  V30 844 H 68.9788 -4.92724 1.01154 0
M  V30 845 H 68.6788 -5.19429 2.74714 0
M  V30 846 H 70.2028 -5.7656 2.01024 0
M  V30 847 H 71.6168 -4.32338 3.76506 0
M  V30 848 H 70.0138 -3.98986 4.48252 0
M  V30 849 H 71.0838 -2.63834 4.06841 0
M  V30 850 N 72.4269 -1.23603 -0.977757 0
M  V30 851 C 73.6739 -1.06971 -1.71941 0
M  V30 852 C 74.0019 0.393009 -1.90488 0
M  V30 853 O 73.2569 1.30719 -1.4564 0
M  V30 854 C 73.5559 -1.7433 -3.11999 0
M  V30 855 C 73.2219 -3.24252 -3.13323 0
M  V30 856 C 71.8839 -3.65156 -3.13392 0
M  V30 857 C 74.2359 -4.20141 -3.08433 0
M  V30 858 C 71.5639 -5.00403 -3.0629 0
M  V30 859 C 73.9159 -5.55384 -3.02873 0
M  V30 860 C 72.5799 -5.95647 -3.01265 0
M  V30 861 H 71.8499 -0.391433 -0.629175 0
M  V30 862 H 74.4969 -1.53572 -1.14403 0
M  V30 863 H 72.8019 -1.20096 -3.7294 0
M  V30 864 H 74.4989 -1.58936 -3.68158 0
M  V30 865 H 71.0889 -2.91692 -3.14029 0
M  V30 866 H 75.2729 -3.89547 -3.07517 0
M  V30 867 H 70.5289 -5.3081 -3.03399 0
M  V30 868 H 74.7029 -6.29398 -2.98046 0
M  V30 869 H 72.3299 -7.0041 -2.95516 0
M  V30 870 N 73.905 1.17692 -1.04816 0
M  V30 871 C 75.13 1.92327 -0.776207 0
M  V30 872 C 75.555 1.76082 0.661581 0
M  V30 873 O 74.913 1.076 1.45917 0
M  V30 874 C 74.961 3.41539 -1.15687 0
M  V30 875 O 74.065 4.11402 -0.286775 0
M  V30 876 H 73.406 0.599735 -0.284981 0
M  V30 877 H 75.936 1.49201 -1.4 0
M  V30 878 H 75.946 3.92269 -1.12202 0
M  V30 879 H 74.621 3.52684 -2.20425 0
M  V30 880 H 73.198 3.70939 -0.381903 0
M  V30 881 N 75.3831 0.828654 1.34056 0
M  V30 882 C 76.6231 0.425394 1.99924 0
M  V30 883 C 76.9871 -0.994294 1.64249 0
M  V30 884 O 78.1881 -1.50074 2.23005 0
M  V30 885 C 76.4591 0.628071 3.51838 0
M  V30 886 S 78.0181 0.318511 4.37642 0
M  V30 887 H 74.8361 0.160465 0.692656 0
M  V30 888 H 77.4381 1.07572 1.63244 0
M  V30 889 H 76.1421 1.66089 3.7529 0
M  V30 890 H 75.6731 -0.0367799 3.93383 0
M  V30 891 H 77.6881 -0.865632 4.88591 0
M  V30 892 N 76.8612 -1.46375 0.584142 0
M  V30 893 C 78.0862 -2.07268 0.0740405 0
M  V30 894 C 78.5112 -1.42979 -1.22223 0
M  V30 895 O 77.8692 -0.514092 -1.73859 0
M  V30 896 C 77.9172 -3.60518 -0.0767769 0
M  V30 897 O 77.0212 -3.96533 -1.13292 0
M  V30 898 H 76.3622 -0.660961 0.0634524 0
M  V30 899 H 78.8922 -1.87991 0.807492 0
M  V30 900 H 78.9022 -4.07021 -0.282489 0
M  V30 901 H 77.5772 -4.06702 0.86986 0
M  V30 902 H 76.1542 -3.61738 -0.905553 0
M  V30 903 N 78.3393 -0.321999 -1.54275 0
M  V30 904 C 79.7503 0.166384 -1.85957 0
M  V30 905 C 80.1013 1.51747 -1.24367 0
M  V30 906 O 79.2263 2.09317 -0.549124 0
M  V30 907 C 79.8213 0.308681 -3.37391 0
M  V30 908 C 78.3803 0.741286 -3.69028 0
M  V30 909 C 77.5273 -0.137937 -2.76957 0
M  V30 910 H 80.4783 -0.542335 -1.49146 0
M  V30 911 H 80.4993 1.13984 -3.63026 0
M  V30 912 H 80.0113 -0.674809 -3.82188 0
M  V30 913 H 78.1123 1.73458 -3.29762 0
M  V30 914 H 78.2253 0.546118 -4.75977 0
M  V30 915 H 76.5893 0.386251 -2.51754 0
M  V30 916 H 77.3723 -1.11816 -3.2458 0
M  V30 917 N 79.8174 1.5752 -0.0501392 0
M  V30 918 C 81.0454 1.96963 0.633492 0
M  V30 919 C 81.4604 0.927631 1.6444 0
M  V30 920 O 80.8174 -0.0882665 1.82286 0
M  V30 921 C 80.8684 3.36487 1.32132 0
M  V30 922 O 80.5894 4.36693 0.350894 0
M  V30 923 C 82.0904 3.90682 2.09481 0
M  V30 924 H 79.3104 0.648244 0.173266 0
M  V30 925 H 81.8544 2.0417 -0.116134 0
M  V30 926 H 80.0094 3.30434 2.02218 0
M  V30 927 H 80.4234 5.17702 0.841735 0
M  V30 928 H 81.8974 4.90591 2.5303 0
M  V30 929 H 82.3744 3.26053 2.94255 0
M  V30 930 H 82.9804 4.00069 1.44307 0
M  V30 931 N 81.2955 -0.223234 1.56011 0
M  V30 932 C 82.5425 -0.947875 1.78946 0
M  V30 933 C 82.8705 -1.844 0.618608 0
M  V30 934 O 82.1255 -1.91629 -0.397093 0
M  V30 935 C 82.4245 -1.81948 3.0762 0
M  V30 936 C 82.0905 -1.07672 4.37856 0
M  V30 937 C 80.7525 -0.871544 4.73242 0
M  V30 938 C 83.1045 -0.552081 5.18268 0
M  V30 939 C 80.4325 -0.129791 5.86556 0
M  V30 940 C 82.7845 0.17632 6.32354 0
M  V30 941 C 81.4485 0.39277 6.66343 0
M  V30 942 H 80.7185 -0.346852 0.654809 0
M  V30 943 H 83.3655 -0.216171 1.90276 0
M  V30 944 H 81.6705 -2.61899 2.91404 0
M  V30 945 H 83.3675 -2.38227 3.22566 0
M  V30 946 H 79.9575 -1.24662 4.1007 0
M  V30 947 H 84.1415 -0.698076 4.91366 0
M  V30 948 H 79.3975 0.048153 6.11381 0
M  V30 949 H 83.5715 0.590367 6.93893 0
M  V30 950 H 81.1985 0.969466 7.53993 0
M  V30 951 N 82.7736 -1.49793 -0.48987 0
M  V30 952 C 83.9986 -1.63836 -1.27172 0
M  V30 953 C 84.4236 -0.31402 -1.8546 0
M  V30 954 O 83.7816 0.719803 -1.66399 0
M  V30 955 C 83.8296 -2.71797 -2.36978 0
M  V30 956 O 82.9336 -2.31744 -3.41128 0
M  V30 957 H 82.2746 -0.547997 -0.37496 0
M  V30 958 H 84.8046 -1.96053 -0.585191 0
M  V30 959 H 84.8146 -2.94305 -2.82575 0
M  V30 960 H 83.4896 -3.67923 -1.93921 0
M  V30 961 H 82.0666 -2.1961 -3.01373 0
M  V30 962 N 84.2517 0.741722 -1.39055 0
M  V30 963 C 85.4767 1.53607 -1.39354 0
M  V30 964 C 85.9017 1.88096 0.0116905 0
M  V30 965 O 85.2597 1.5143 0.996924 0
M  V30 966 C 85.3077 2.80441 -2.26682 0
M  V30 967 O 84.4117 3.76088 -1.69208 0
M  V30 968 H 83.7527 0.464142 -0.474835 0
M  V30 969 H 86.2827 0.915665 -1.82967 0
M  V30 970 H 86.2927 3.29246 -2.40959 0
M  V30 971 H 84.9677 2.5467 -3.2881 0
M  V30 972 H 83.5447 3.34833 -1.64138 0
M  V30 973 N 85.7298 1.2412 0.971189 0
M  V30 974 C 87.0068 0.986867 1.6888 0
M  V30 975 C 87.3868 -0.491857 2.0529 0
M  V30 976 O 86.7348 -1.46531 1.75331 0
M  V30 977 C 86.9448 1.9063 2.92338 0
M  V30 978 C 88.2928 2.17515 3.64654 0
M  V30 979 O 89.3168 1.88254 3.02388 0
M  V30 980 O 88.1758 2.6719 4.7673 0
M  V30 981 H 85.2698 0.372944 0.738134 0
M  V30 982 H 87.8158 1.35203 1.02559 0
M  V30 983 H 86.5878 2.90552 2.62097 0
M  V30 984 H 86.2108 1.54408 3.66393 0
M  V30 985 N 87.2079 -1.17134 1.05439 0
M  V30 986 C 88.6189 -1.69084 0.791676 0
M  V30 987 C 88.9699 -1.83822 -0.685839 0
M  V30 988 O 88.0949 -1.52757 -1.53278 0
M  V30 989 C 88.6899 -3.07119 1.4305 0
M  V30 990 C 87.2489 -3.56225 1.21577 0
M  V30 991 C 86.3959 -2.32421 1.51247 0
M  V30 992 H 89.3469 -1.01617 1.219 0
M  V30 993 H 89.3679 -3.71087 0.84112 0
M  V30 994 H 88.8799 -2.9636 2.50584 0
M  V30 995 H 86.9809 -3.72257 0.159787 0
M  V30 996 H 87.0939 -4.38837 1.92246 0
M  V30 997 H 85.4579 -2.3701 0.932653 0
M  V30 998 H 86.2409 -2.24268 2.5992 0
M  V30 999 N 88.686 -0.835752 -1.33615 0
M  V30 1000 C 89.616 -0.281739 -2.31794 0
M  V30 1001 C 90.597 0.608833 -1.58831 0
M  V30 1002 O 91.782 0.533035 -1.86741 0
M  V30 1003 C 88.912 0.546612 -3.42971 0
M  V30 1004 C 87.866 -0.247904 -4.27281 0
M  V30 1005 C 87.192 0.704001 -5.30045 0
M  V30 1006 C 88.492 -1.46324 -5.01385 0
M  V30 1007 H 90.186 -1.10206 -2.78379 0
M  V30 1008 H 87.732 -0.531388 -1.33837 0
M  V30 1009 H 89.685 0.944467 -4.1068 0
M  V30 1010 H 88.409 1.40011 -2.95067 0
M  V30 1011 H 87.068 -0.627281 -3.61194 0
M  V30 1012 H 86.716 1.55381 -4.78399 0
M  V30 1013 H 86.416 0.176524 -5.87335 0
M  V30 1014 H 87.94 1.09944 -6.0062 0
M  V30 1015 H 89.354 -1.13871 -5.61877 0
M  V30 1016 H 87.751 -1.92728 -5.6831 0
M  V30 1017 H 88.821 -2.23467 -4.30338 0
M  V30 1018 N 90.1641 1.46063 -0.591896 0
M  V30 1019 C 91.3921 2.06717 -0.0868936 0
M  V30 1020 C 91.8071 1.43916 1.22203 0
M  V30 1021 O 91.1641 0.547698 1.74088 0
M  V30 1022 C 91.2151 3.6142 0.0758725 0
M  V30 1023 O 90.9361 4.21874 -1.18126 0
M  V30 1024 C 92.4371 4.39025 0.61416 0
M  V30 1025 H 89.6571 0.668162 -0.0616518 0
M  V30 1026 H 92.2011 1.8755 -0.815175 0
M  V30 1027 H 90.3561 3.79983 0.754413 0
M  V30 1028 H 90.7701 5.14861 -1.00092 0
M  V30 1029 H 92.2441 5.4783 0.677193 0
M  V30 1030 H 92.7211 4.07708 1.63312 0
M  V30 1031 H 93.3271 4.2529 -0.0298142 0
M  V30 1032 N 91.6422 0.330177 1.54103 0
M  V30 1033 C 92.8702 -0.272179 2.05102 0
M  V30 1034 C 93.2852 -1.45267 1.20595 0
M  V30 1035 O 92.6422 -1.8094 0.238144 0
M  V30 1036 C 92.6932 -0.70023 3.54653 0
M  V30 1037 O 92.4142 0.433301 4.35952 0
M  V30 1038 C 93.9152 -1.3647 4.21771 0
M  V30 1039 H 91.1352 -0.0549159 0.668749 0
M  V30 1040 H 93.6792 0.478285 1.98828 0
M  V30 1041 H 91.8342 -1.40066 3.61193 0
M  V30 1042 H 92.2482 0.0947539 5.24414 0
M  V30 1043 H 93.7222 -1.61509 5.27843 0
M  V30 1044 H 94.1992 -2.31409 3.73292 0
M  V30 1045 H 94.8052 -0.706675 4.19388 0
M  V30 1046 N 93.1203 -1.57491 0.0584922 0
M  V30 1047 C 94.5313 -1.80526 -0.476138 0
M  V30 1048 C 94.8823 -0.971334 -1.70469 0
M  V30 1049 O 94.0073 -0.190012 -2.15564 0
M  V30 1050 C 94.6023 -3.27424 -0.870587 0
M  V30 1051 C 93.1613 -3.51351 -1.35015 0
M  V30 1052 C 92.3083 -2.75343 -0.32887 0
M  V30 1053 H 95.2593 -1.56133 0.284312 0
M  V30 1054 H 95.2803 -3.38745 -1.73299 0
M  V30 1055 H 94.7923 -3.88093 0.0237627 0
M  V30 1056 H 92.8933 -2.95971 -2.26345 0
M  V30 1057 H 93.0063 -4.60059 -1.33726 0
M  V30 1058 H 91.3703 -2.417 -0.803321 0
M  V30 1059 H 92.1533 -3.38743 0.557521 0
M  V30 1060 N 94.5984 0.214957 -1.56127 0
M  V30 1061 C 95.5284 1.2695 -1.95974 0
M  V30 1062 C 96.5094 1.48539 -0.828868 0
M  V30 1063 O 97.6944 1.60611 -1.09168 0
M  V30 1064 C 94.8244 2.61794 -2.28214 0
M  V30 1065 C 93.7784 2.54851 -3.43853 0
M  V30 1066 C 93.1044 3.93785 -3.61715 0
M  V30 1067 C 94.4044 2.09065 -4.78632 0
M  V30 1068 H 96.0984 0.93846 -2.84312 0
M  V30 1069 H 93.6444 0.449996 -1.36788 0
M  V30 1070 H 95.5974 3.35731 -2.54682 0
M  V30 1071 H 94.3214 2.96599 -1.36736 0
M  V30 1072 H 92.9804 1.8337 -3.17444 0
M  V30 1073 H 92.6284 4.25908 -2.67602 0
M  V30 1074 H 92.3284 3.90019 -4.39498 0
M  V30 1075 H 93.8524 4.69374 -3.90539 0
M  V30 1076 H 95.2664 2.7275 -5.04262 0
M  V30 1077 H 93.6634 2.16346 -5.59745 0
M  V30 1078 H 94.7334 1.04315 -4.73547 0
M  V30 1079 N 96.0765 1.50051 0.48192 0
M  V30 1080 C 97.0065 1.71046 1.58951 0
M  V30 1081 C 97.9875 0.559288 1.60642 0
M  V30 1082 O 99.1725 0.797243 1.77081 0
M  V30 1083 C 96.3025 1.79462 2.97339 0
M  V30 1084 C 95.2565 2.94558 3.10515 0
M  V30 1085 C 94.5825 2.88105 4.50444 0
M  V30 1086 C 95.8825 4.35227 2.88747 0
M  V30 1087 H 97.5765 2.6378 1.41635 0
M  V30 1088 H 95.1225 1.26936 0.679942 0
M  V30 1089 H 97.0755 1.92734 3.74742 0
M  V30 1090 H 95.7995 0.833412 3.15788 0
M  V30 1091 H 94.4585 2.80918 2.35543 0
M  V30 1092 H 94.1065 1.89853 4.65795 0
M  V30 1093 H 93.8065 3.65366 4.60197 0
M  V30 1094 H 95.3305 3.03412 5.29881 0
M  V30 1095 H 96.7445 4.49449 3.55905 0
M  V30 1096 H 95.1415 5.13856 3.09955 0
M  V30 1097 H 96.2115 4.48347 1.84696 0
M  V30 1098 N 97.5546 -0.734337 1.39446 0
M  V30 1099 C 98.4876 -1.85715 1.32609 0
M  V30 1100 C 99.4656 -1.6137 0.199636 0
M  V30 1101 O 100.65 -1.84626 0.380195 0
M  V30 1102 C 97.7766 -3.21709 1.05929 0
M  V30 1103 C 96.8226 -3.64913 2.20773 0
M  V30 1104 S 97.6556 -3.74203 3.83056 0
M  V30 1105 C 98.8116 -5.12986 3.58603 0
M  V30 1106 H 99.0446 -1.91232 2.27635 0
M  V30 1107 H 96.5776 -0.899263 1.25509 0
M  V30 1108 H 98.5356 -4.00236 0.912203 0
M  V30 1109 H 97.1966 -3.13848 0.125883 0
M  V30 1110 H 96.3896 -4.63606 1.97699 0
M  V30 1111 H 95.9916 -2.93593 2.31688 0
M  V30 1112 H 98.2836 -5.99339 3.15909 0
M  V30 1113 H 99.2266 -5.41088 4.5676 0
M  V30 1114 H 99.6346 -4.82694 2.9269 0
M  V30 1115 N 99.0327 -1.24633 -0.964593 0
M  V30 1116 C 99.9627 -1.06611 -2.07741 0
M  V30 1117 C 100.944 0.0218666 -1.70086 0
M  V30 1118 O 102.129 -0.145793 -1.93652 0
M  V30 1119 C 99.2587 -0.673444 -3.40708 0
M  V30 1120 C 98.2127 -1.71054 -3.92332 0
M  V30 1121 C 97.5387 -1.17285 -5.21678 0
M  V30 1122 C 98.8387 -3.10718 -4.19824 0
M  V30 1123 H 100.533 -1.99693 -2.23076 0
M  V30 1124 H 98.0787 -0.96152 -1.07195 0
M  V30 1125 H 100.032 -0.534345 -4.17998 0
M  V30 1126 H 98.7557 0.293073 -3.25282 0
M  V30 1127 H 97.4147 -1.83791 -3.17201 0
M  V30 1128 H 97.0627 -0.196847 -5.02615 0
M  V30 1129 H 96.7627 -1.86592 -5.57187 0
M  V30 1130 H 98.2867 -1.04593 -6.01575 0
M  V30 1131 H 99.7007 -3.01192 -4.87808 0
M  V30 1132 H 98.0977 -3.77406 -4.66567 0
M  V30 1133 H 99.1677 -3.58524 -3.26479 0
M  V30 1134 N 100.511 1.16574 -1.06058 0
M  V30 1135 C 101.739 1.90952 -0.796552 0
M  V30 1136 C 102.154 1.77302 0.648808 0
M  V30 1137 O 101.511 1.11605 1.44397 0
M  V30 1138 C 101.562 3.41736 -1.17894 0
M  V30 1139 O 101.283 3.54975 -2.56758 0
M  V30 1140 C 102.784 4.33169 -0.942308 0
M  V30 1141 H 100.004 0.605594 -0.288959 0
M  V30 1142 H 102.548 1.47777 -1.41358 0
M  V30 1143 H 100.703 3.82623 -0.606491 0
M  V30 1144 H 101.117 4.4846 -2.72 0
M  V30 1145 H 102.591 5.37439 -1.25952 0
M  V30 1146 H 103.068 4.3903 0.122078 0
M  V30 1147 H 103.674 3.98007 -1.49902 0
M  V30 1148 N 101.989 0.842826 1.3317 0
M  V30 1149 C 103.217 0.454055 2.01856 0
M  V30 1150 C 103.632 -0.94587 1.63397 0
M  V30 1151 O 102.989 -1.61534 0.849302 0
M  V30 1152 C 103.04 0.569715 3.56982 0
M  V30 1153 O 102.761 1.91448 3.94055 0
M  V30 1154 C 104.262 0.178412 4.42941 0
M  V30 1155 H 101.482 0.17979 0.646465 0
M  V30 1156 H 104.026 1.1365 1.70012 0
M  V30 1157 H 102.181 -0.0648587 3.87346 0
M  V30 1158 H 102.595 1.90282 4.88767 0
M  V30 1159 H 104.069 0.310376 5.51127 0
M  V30 1160 H 104.546 -0.880056 4.30293 0
M  V30 1161 H 105.152 0.787579 4.17944 0
M  V30 1162 N 103.467 -1.45747 0.599634 0
M  V30 1163 C 104.713 -2.03153 0.100263 0
M  V30 1164 C 105.068 -1.46073 -1.25221 0
M  V30 1165 O 104.361 -0.622878 -1.81193 0
M  V30 1166 C 104.555 -3.57399 -0.00602758 0
M  V30 1167 C 104.384 -4.2944 1.3346 0
M  V30 1168 C 103.154 -4.6768 1.91321 0
M  V30 1169 C 105.352 -4.61905 2.2616 0
M  V30 1170 N 103.334 -5.24544 3.18946 0
M  V30 1171 C 104.705 -5.19518 3.3838 0
M  V30 1172 C 106.76 -4.43841 2.25631 0
M  V30 1173 C 105.463 -5.60972 4.50226 0
M  V30 1174 C 107.489 -4.86322 3.36518 0
M  V30 1175 C 106.851 -5.44021 4.4746 0
M  V30 1176 H 102.95 -0.777911 0.0798696 0
M  V30 1177 H 105.534 -1.77674 0.796244 0
M  V30 1178 H 103.705 -3.82556 -0.671212 0
M  V30 1179 H 105.437 -4.01457 -0.51133 0
M  V30 1180 H 102.192 -4.5098 1.44617 0
M  V30 1181 H 102.616 -5.57483 3.84112 0
M  V30 1182 H 107.258 -3.98552 1.41123 0
M  V30 1183 H 104.976 -6.0523 5.35464 0
M  V30 1184 H 108.562 -4.74084 3.37247 0
M  V30 1185 H 107.442 -5.76289 5.31846 0
M  V30 1186 N 104.945 -0.338344 -1.53925 0
M  V30 1187 C 105.875 0.51328 -2.27789 0
M  V30 1188 C 106.856 1.107 -1.29149 0
M  V30 1189 O 108.041 1.12937 -1.57984 0
M  V30 1190 C 105.171 1.66697 -3.04679 0
M  V30 1191 C 104.125 1.20183 -4.1078 0
M  V30 1192 C 103.451 2.44363 -4.75595 0
M  V30 1193 C 104.751 0.30605 -5.21403 0
M  V30 1194 H 106.445 -0.102883 -2.99223 0
M  V30 1195 H 103.991 -0.0509219 -1.4391 0
M  V30 1196 H 105.944 2.26915 -3.55088 0
M  V30 1197 H 104.668 2.30995 -2.30887 0
M  V30 1198 H 103.327 0.622499 -3.61276 0
M  V30 1199 H 102.975 3.07057 -3.98403 0
M  V30 1200 H 102.675 2.13925 -5.47275 0
M  V30 1201 H 104.199 3.05317 -5.28786 0
M  V30 1202 H 105.613 0.814929 -5.67478 0
M  V30 1203 H 104.01 0.0937929 -6.00027 0
M  V30 1204 H 105.08 -0.65921 -4.80398 0
M  V30 1205 N 106.423 1.57458 -0.0668435 0
M  V30 1206 C 107.353 2.15468 0.899764 0
M  V30 1207 C 108.334 1.08042 1.31381 0
M  V30 1208 O 109.519 1.36054 1.38574 0
M  V30 1209 C 106.649 2.71232 2.16911 0
M  V30 1210 C 105.603 3.83781 1.89463 0
M  V30 1211 C 104.929 4.26127 3.22986 0
M  V30 1212 C 106.229 5.08238 1.20381 0
M  V30 1213 H 107.923 2.96488 0.416529 0
M  V30 1214 H 105.469 1.4262 0.198908 0
M  V30 1215 H 107.422 3.10458 2.84945 0
M  V30 1216 H 106.146 1.87426 2.67468 0
M  V30 1217 H 104.805 3.45051 1.23836 0
M  V30 1218 H 104.453 3.39249 3.71374 0
M  V30 1219 H 104.153 5.01993 3.05413 0
M  V30 1220 H 105.677 4.67966 3.92225 0
M  V30 1221 H 107.091 5.44811 1.78475 0
M  V30 1222 H 105.488 5.89349 1.13083 0
M  V30 1223 H 106.558 4.84558 0.182153 0
M  V30 1224 N 107.901 -0.206675 1.56239 0
M  V30 1225 C 109.312 -0.772383 1.69974 0
M  V30 1226 C 109.663 -1.84353 0.671436 0
M  V30 1227 O 108.788 -2.15695 -0.174491 0
M  V30 1228 C 109.383 -1.40779 3.08167 0
M  V30 1229 C 107.942 -1.92072 3.23706 0
M  V30 1230 C 107.089 -0.786347 2.65917 0
M  V30 1231 H 110.04 0.0182223 1.5869 0
M  V30 1232 H 110.061 -2.27696 3.04852 0
M  V30 1233 H 109.573 -0.627958 3.82986 0
M  V30 1234 H 107.674 -2.7281 2.53782 0
M  V30 1235 H 107.787 -2.09046 4.31087 0
M  V30 1236 H 106.151 -1.1976 2.24788 0
M  V30 1237 H 106.934 -0.0189416 3.43295 0
M  V30 1238 N 109.379 -1.50304 -0.473955 0
M  V30 1239 C 110.309 -1.71886 -1.58042 0
M  V30 1240 C 111.29 -0.567799 -1.60344 0
M  V30 1241 O 112.475 -0.806623 -1.76656 0
M  V30 1242 C 109.605 -1.81036 -2.96384 0
M  V30 1243 C 108.559 -2.962 -3.08949 0
M  V30 1244 C 107.885 -2.9049 -4.48909 0
M  V30 1245 C 109.185 -4.36752 -2.86434 0
M  V30 1246 H 110.879 -2.64527 -1.40234 0
M  V30 1247 H 108.425 -1.27295 -0.673201 0
M  V30 1248 H 110.378 -1.94719 -3.73714 0
M  V30 1249 H 109.102 -0.850147 -3.15341 0
M  V30 1250 H 107.761 -2.82164 -2.3405 0
M  V30 1251 H 107.409 -1.92321 -4.64781 0
M  V30 1252 H 107.109 -3.67802 -4.58253 0
M  V30 1253 H 108.633 -3.06218 -5.28264 0
M  V30 1254 H 110.047 -4.5133 -3.53517 0
M  V30 1255 H 108.444 -5.15493 -3.07225 0
M  V30 1256 H 109.514 -4.49321 -1.82316 0
M  V30 1257 N 110.857 0.726932 -1.39834 0
M  V30 1258 C 112.085 1.51613 -1.40787 0
M  V30 1259 C 112.5 1.88799 -0.00451505 0
M  V30 1260 O 111.857 1.54662 0.968809 0
M  V30 1261 C 111.908 2.79863 -2.28821 0
M  V30 1262 O 111.629 2.44253 -3.63692 0
M  V30 1263 C 113.13 3.73837 -2.38245 0
M  V30 1264 H 110.35 0.468264 -0.480593 0
M  V30 1265 H 112.894 0.897607 -1.83748 0
M  V30 1266 H 111.049 3.38027 -1.89252 0
M  V30 1267 H 111.463 3.26695 -4.1033 0
M  V30 1268 H 112.937 4.60699 -3.04073 0
M  V30 1269 H 113.414 4.16153 -1.40403 0
M  V30 1270 H 114.02 3.21589 -2.78317 0
M  V30 1271 N 112.336 1.25143 0.95797 0
M  V30 1272 C 113.585 1.0909 1.69654 0
M  V30 1273 C 113.898 -0.368548 1.92097 0
M  V30 1274 O 115.104 -0.649455 2.63618 0
M  V30 1275 C 113.56 1.90395 3.05414 0
M  V30 1276 C 113.168 3.4081 2.90779 0
M  V30 1277 C 114.912 1.82901 3.83076 0
M  V30 1278 C 112.819 4.14423 4.21909 0
M  V30 1279 H 111.749 0.404625 0.636235 0
M  V30 1280 H 114.4 1.4931 1.06672 0
M  V30 1281 H 112.782 1.42996 3.69281 0
M  V30 1282 H 113.956 3.95859 2.35865 0
M  V30 1283 H 112.271 3.49361 2.26575 0
M  V30 1284 H 114.868 2.35196 4.80195 0
M  V30 1285 H 115.211 0.796224 4.08615 0
M  V30 1286 H 115.744 2.28033 3.25954 0
M  V30 1287 H 112.483 5.18102 4.01561 0
M  V30 1288 H 112.003 3.64159 4.76601 0
M  V30 1289 H 113.682 4.21956 4.90471 0
M  V30 1290 N 113.814 -1.1601 1.06675 0
M  V30 1291 C 114.747 -2.1947 0.625168 0
M  V30 1292 C 115.725 -1.58699 -0.354041 0
M  V30 1293 O 116.909 -1.86669 -0.262098 0
M  V30 1294 C 114.036 -3.38598 -0.0829593 0
M  V30 1295 C 113.082 -4.1787 0.853611 0
M  V30 1296 S 113.915 -4.81135 2.35094 0
M  V30 1297 C 115.071 -6.03639 1.65441 0
M  V30 1298 H 115.304 -2.56587 1.50168 0
M  V30 1299 H 112.837 -1.26862 0.880078 0
M  V30 1300 H 114.795 -4.07621 -0.485288 0
M  V30 1301 H 113.456 -2.99839 -0.935716 0
M  V30 1302 H 112.649 -5.03078 0.304755 0
M  V30 1303 H 112.251 -3.54361 1.196 0
M  V30 1304 H 114.543 -6.70632 0.962201 0
M  V30 1305 H 115.486 -6.63081 2.48454 0
M  V30 1306 H 115.894 -5.52965 1.13534 0
M  V30 1307 N 115.292 -0.849877 -1.32721 0
M  V30 1308 C 116.255 -0.296122 -2.27279 0
M  V30 1309 C 117.255 0.541458 -1.5141 0
M  V30 1310 O 118.445 0.353658 -1.70572 0
M  V30 1311 C 115.577 0.581579 -3.35902 0
M  V30 1312 H 116.77 -1.13064 -2.77771 0
M  V30 1313 H 114.323 -0.62383 -1.43311 0
M  V30 1314 H 115.058 1.43809 -2.9067 0
M  V30 1315 H 114.843 -0.0178814 -3.92096 0
M  V30 1316 H 116.333 0.961951 -4.0637 0
M  V30 1317 N 116.77 1.45427 -0.607355 0
M  V30 1318 C 117.995 2.07124 -0.107006 0
M  V30 1319 C 118.42 1.44906 1.19933 0
M  V30 1320 O 117.778 0.541687 1.73019 0
M  V30 1321 C 117.826 3.60595 0.0194119 0
M  V30 1322 O 116.93 3.98285 1.0697 0
M  V30 1323 H 116.271 0.659868 -0.0739597 0
M  V30 1324 H 118.801 1.86683 -0.837297 0
M  V30 1325 H 118.811 4.07419 0.2177 0
M  V30 1326 H 117.486 4.05266 -0.934453 0
M  V30 1327 H 116.063 3.63133 0.847889 0
M  V30 1328 N 118.248 0.346503 1.53744 0
M  V30 1329 C 119.18 -0.543316 2.22667 0
M  V30 1330 C 120.193 -1.06159 1.23427 0
M  V30 1331 O 121.382 -0.971235 1.49764 0
M  V30 1332 C 118.482 -1.76076 2.89569 0
M  V30 1333 C 117.655 -1.37727 4.15151 0
M  V30 1334 C 116.714 -2.45471 4.65436 0
M  V30 1335 O 115.74 -2.08655 5.29577 0
M  V30 1336 N 116.942 -3.7677 4.41616 0
M  V30 1337 H 119.707 0.0469703 2.99663 0
M  V30 1338 H 117.268 0.170766 1.60997 0
M  V30 1339 H 119.26 -2.47593 3.20125 0
M  V30 1340 H 117.83 -2.25835 2.16142 0
M  V30 1341 H 117.05 -0.492746 3.91108 0
M  V30 1342 H 118.338 -1.09708 4.96832 0
M  V30 1343 H 117.736 -4.09467 3.90325 0
M  V30 1344 H 116.293 -4.44448 4.7677 0
M  V30 1345 N 119.726 -1.57421 0.075193 0
M  V30 1346 C 121.142 -1.57099 -0.281444 0
M  V30 1347 C 121.342 -1.08486 -1.69803 0
M  V30 1348 O 120.398 -0.752279 -2.41033 0
M  V30 1349 C 121.711 -3.00571 -0.0880041 0
M  V30 1350 C 123.259 -3.12605 -0.157281 0
M  V30 1351 C 123.734 -4.57999 0.0079207 0
M  V30 1352 N 125.225 -4.63176 -0.0475725 0
M  V30 1353 C 125.96 -5.73373 0.0557876 0
M  V30 1354 N 125.456 -6.92473 0.21286 0
M  V30 1355 N 127.249 -5.621 -0.00152098 0
M  V30 1356 H 119.4 -1.87335 1.00098 0
M  V30 1357 H 121.663 -0.86377 0.390646 0
M  V30 1358 H 121.369 -3.40262 0.889629 0
M  V30 1359 H 121.243 -3.67754 -0.838875 0
M  V30 1360 H 123.63 -2.72798 -1.1254 0
M  V30 1361 H 123.711 -2.48053 0.62475 0
M  V30 1362 H 123.355 -4.98496 0.972824 0
M  V30 1363 H 123.285 -5.20586 -0.793556 0
M  V30 1364 H 125.776 -3.7753 -0.167244 0
M  V30 1365 H 126.089 -7.72279 0.283781 0
M  V30 1366 H 124.434 -6.94556 0.248267 0
M  V30 1367 H 127.625 -4.67938 -0.122958 0
M  V30 1368 H 127.798 -6.47948 0.0824844 0
M  V30 1369 N 121.204 0.198386 -1.56346 0
M  V30 1370 C 122.154 1.2499 -1.90687 0
M  V30 1371 C 123.138 1.41158 -0.772217 0
M  V30 1372 O 124.33 1.43584 -1.03502 0
M  V30 1373 C 121.459 2.59542 -2.24706 0
M  V30 1374 C 120.545 2.47181 -3.44619 0
M  V30 1375 N 120.936 2.04495 -4.62618 0
M  V30 1376 C 119.234 2.78082 -3.48692 0
M  V30 1377 C 119.935 2.03945 -5.44776 0
M  V30 1378 N 118.911 2.45323 -4.85095 0
M  V30 1379 H 122.713 0.911149 -2.7942 0
M  V30 1380 H 120.227 0.40684 -1.57221 0
M  V30 1381 H 122.224 3.3549 -2.47491 0
M  V30 1382 H 120.884 2.94244 -1.37298 0
M  V30 1383 H 121.895 1.75256 -4.87345 0
M  V30 1384 H 118.572 3.17002 -2.71691 0
M  V30 1385 H 119.962 1.72872 -6.4928 0
M  V30 1386 N 122.682 1.50554 0.465978 0
M  V30 1387 C 123.612 1.72722 1.57128 0
M  V30 1388 C 124.593 0.576294 1.6004 0
M  V30 1389 O 125.778 0.81598 1.76225 0
M  V30 1390 C 122.908 1.82605 2.95419 0
M  V30 1391 C 121.862 2.97835 3.07373 0
M  V30 1392 C 121.188 2.92867 4.47363 0
M  V30 1393 C 122.488 4.38265 2.84114 0
M  V30 1394 H 124.182 2.65267 1.38829 0
M  V30 1395 H 121.728 1.2765 0.666441 0
M  V30 1396 H 123.681 1.96698 3.72677 0
M  V30 1397 H 122.405 0.866858 3.14886 0
M  V30 1398 H 121.064 2.83401 2.3255 0
M  V30 1399 H 120.712 1.94783 4.63755 0
M  V30 1400 H 120.412 3.70227 4.56296 0
M  V30 1401 H 121.936 3.09015 5.26633 0
M  V30 1402 H 123.35 4.53198 3.51118 0
M  V30 1403 H 121.747 5.17115 3.04487 0
M  V30 1404 H 122.817 4.50281 1.7993 0
M  V30 1405 N 124.16 -0.719506 1.40217 0
M  V30 1406 C 125.385 -1.51371 1.4178 0
M  V30 1407 C 125.81 -1.88091 0.0182355 0
M  V30 1408 O 125.168 -1.52997 -0.972707 0
M  V30 1409 C 125.216 -2.768 2.31115 0
M  V30 1410 O 124.32 -3.73349 1.7517 0
M  V30 1411 H 123.661 -0.456529 0.482159 0
M  V30 1412 H 126.191 -0.88644 1.844 0
M  V30 1413 H 126.201 -3.25371 2.46167 0
M  V30 1414 H 124.876 -2.49407 3.3282 0
M  V30 1415 H 123.453 -3.32179 1.69444 0
M  V30 1416 N 125.638 -1.25649 -0.95132 0
M  V30 1417 C 126.863 -1.13443 -1.73624 0
M  V30 1418 C 127.288 0.307565 -1.85568 0
M  V30 1419 O 126.646 1.22282 -1.33854 0
M  V30 1420 C 126.694 -1.79723 -3.12621 0
M  V30 1421 O 125.798 -1.07912 -3.98031 0
M  V30 1422 H 125.139 -0.395872 -0.533086 0
M  V30 1423 H 127.669 -1.66276 -1.1922 0
M  V30 1424 H 127.679 -1.86141 -3.63064 0
M  V30 1425 H 126.354 -2.84633 -3.03244 0
M  V30 1426 H 124.931 -1.09398 -3.56492 0
M  V30 1427 N 127.117 1.15442 -1.07289 0
M  V30 1428 C 128.027 2.23786 -0.704057 0
M  V30 1429 C 129.043 1.7166 0.284413 0
M  V30 1430 O 130.219 2.00972 0.131205 0
M  V30 1431 C 127.284 3.46535 -0.106792 0
M  V30 1432 C 126.345 4.13654 -1.14842 0
M  V30 1433 C 125.578 5.30544 -0.57956 0
M  V30 1434 O 125.801 5.67187 0.604585 0
M  V30 1435 O 124.735 5.87154 -1.32414 0
M  V30 1436 H 128.561 2.57664 -1.60757 0
M  V30 1437 H 126.146 1.23152 -0.845803 0
M  V30 1438 H 128.028 4.20804 0.224048 0
M  V30 1439 H 126.703 3.14407 0.770049 0
M  V30 1440 H 125.61 3.4131 -1.5316 0
M  V30 1441 H 126.943 4.49861 -1.99714 0
M  V30 1442 N 128.595 0.856903 1.32268 0
M  V30 1443 C 130.006 0.515711 1.79436 0
M  V30 1444 C 130.357 -0.966586 1.70738 0
M  V30 1445 O 129.482 -1.75409 1.26731 0
M  V30 1446 C 130.077 0.929335 3.25805 0
M  V30 1447 C 128.636 0.640006 3.70919 0
M  V30 1448 C 127.783 1.12784 2.53328 0
M  V30 1449 H 130.734 1.04389 1.19535 0
M  V30 1450 H 130.755 0.246633 3.797 0
M  V30 1451 H 130.267 2.00821 3.32103 0
M  V30 1452 H 128.368 -0.428051 3.70133 0
M  V30 1453 H 128.481 1.20788 4.63624 0
M  V30 1454 H 126.845 0.548033 2.48734 0
M  V30 1455 H 127.628 2.21387 2.62379 0
M  V30 1456 N 130.073 -1.45103 0.615059 0
M  V30 1457 C 131.003 -2.33339 -0.0865619 0
M  V30 1458 C 131.984 -1.4727 -0.851209 0
M  V30 1459 O 133.169 -1.76026 -0.820281 0
M  V30 1460 C 130.299 -3.30095 -1.07956 0
M  V30 1461 C 129.253 -4.25858 -0.427628 0
M  V30 1462 C 128.579 -5.12361 -1.5294 0
M  V30 1463 C 129.879 -5.18165 0.655944 0
M  V30 1464 H 131.573 -2.92254 0.650224 0
M  V30 1465 H 129.119 -1.40532 0.314138 0
M  V30 1466 H 131.072 -3.90698 -1.57901 0
M  V30 1467 H 129.796 -2.69355 -1.84703 0
M  V30 1468 H 128.455 -3.66564 0.0510292 0
M  V30 1469 H 128.103 -4.47984 -2.28734 0
M  V30 1470 H 127.803 -5.77238 -1.09865 0
M  V30 1471 H 129.327 -5.75833 -2.03098 0
M  V30 1472 H 130.741 -5.72796 0.240257 0
M  V30 1473 H 129.138 -5.91559 1.00888 0
M  V30 1474 H 130.208 -4.60144 1.52957 0
M  V30 1475 N 131.551 -0.354651 -1.53558 0
M  V30 1476 C 132.776 0.242153 -2.05981 0
M  V30 1477 C 133.201 1.42553 -1.2272 0
M  V30 1478 O 132.559 1.79656 -0.243604 0
M  V30 1479 C 132.607 0.624367 -3.55154 0
M  V30 1480 O 131.711 1.72301 -3.74681 0
M  V30 1481 H 131.052 0.0378432 -0.662921 0
M  V30 1482 H 133.582 -0.512087 -1.98088 0
M  V30 1483 H 133.592 0.898433 -3.97985 0
M  V30 1484 H 132.267 -0.240989 -4.15201 0
M  V30 1485 H 130.844 1.44535 -3.4375 0
M  V30 1486 N 133.029 1.57378 -0.0835403 0
M  V30 1487 C 134.445 1.57246 0.273109 0
M  V30 1488 C 134.645 1.09385 1.69225 0
M  V30 1489 O 133.701 0.765051 2.40631 0
M  V30 1490 C 135.014 3.00614 0.0720628 0
M  V30 1491 C 136.562 3.12684 0.1407 0
M  V30 1492 C 137.037 4.57989 -0.0322094 0
M  V30 1493 N 138.528 4.63194 0.0230085 0
M  V30 1494 C 139.263 5.73335 -0.0861941 0
M  V30 1495 N 138.759 6.9235 -0.24958 0
M  V30 1496 N 140.552 5.62093 -0.0282886 0
M  V30 1497 H 132.703 1.86801 -1.0109 0
M  V30 1498 H 134.966 0.861687 -0.395222 0
M  V30 1499 H 134.672 3.39786 -0.907662 0
M  V30 1500 H 134.546 3.68193 0.81936 0
M  V30 1501 H 136.933 2.73391 1.11092 0
M  V30 1502 H 137.014 2.47719 -0.637896 0
M  V30 1503 H 136.658 4.97973 -0.999247 0
M  V30 1504 H 136.588 5.21 0.765937 0
M  V30 1505 H 139.079 3.77613 0.14722 0
M  V30 1506 H 139.392 7.72117 -0.324733 0
M  V30 1507 H 137.737 6.94415 -0.285097 0
M  V30 1508 H 140.928 4.67997 0.0981408 0
M  V30 1509 H 141.101 6.47895 -0.116845 0
M  V30 1510 N 134.507 -0.190092 1.56449 0
M  V30 1511 C 135.454 -1.23557 1.94942 0
M  V30 1512 C 136.424 -1.44972 0.810696 0
M  V30 1513 O 137.609 -1.58023 1.06927 0
M  V30 1514 C 134.749 -2.57416 2.2985 0
M  V30 1515 C 133.862 -2.43537 3.5681 0
M  V30 1516 C 132.997 -3.70134 3.81017 0
M  V30 1517 C 132.036 -3.51109 5.01387 0
M  V30 1518 N 131.173 -4.6973 5.21822 0
M  V30 1519 H 136.013 -0.900304 2.84075 0
M  V30 1520 H 133.55 -0.43318 1.40577 0
M  V30 1521 H 135.508 -3.35409 2.48106 0
M  V30 1522 H 134.138 -2.88975 1.43852 0
M  V30 1523 H 133.19 -1.56816 3.46573 0
M  V30 1524 H 134.502 -2.25415 4.4496 0
M  V30 1525 H 133.656 -4.56566 3.9954 0
M  V30 1526 H 132.395 -3.91215 2.91207 0
M  V30 1527 H 131.4 -2.63063 4.82782 0
M  V30 1528 H 132.625 -3.31468 5.9271 0
M  V30 1529 H 130.571 -4.91065 4.34961 0
M  V30 1530 H 130.488 -4.54452 6.0416 0
M  V30 1531 H 131.756 -5.57499 5.44808 0
M  V30 1532 N 135.985 -1.50799 -0.457987 0
M  V30 1533 C 136.932 -1.70617 -1.5543 0
M  V30 1534 C 137.902 -0.547562 -1.56815 0
M  V30 1535 O 139.087 -0.779647 -1.74144 0
M  V30 1536 C 136.227 -1.81831 -2.93311 0
M  V30 1537 C 135.34 -3.09278 -3.01615 0
M  V30 1538 C 134.475 -3.11209 -4.30491 0
M  V30 1539 C 133.514 -4.33055 -4.32585 0
M  V30 1540 N 132.651 -4.32652 -5.52952 0
M  V30 1541 H 137.491 -2.64207 -1.37836 0
M  V30 1542 H 135.028 -1.30959 -0.669937 0
M  V30 1543 H 136.986 -1.86314 -3.73287 0
M  V30 1544 H 135.616 -0.916685 -3.0951 0
M  V30 1545 H 134.668 -3.14203 -2.1443 0
M  V30 1546 H 135.98 -3.99233 -2.99022 0
M  V30 1547 H 135.134 -3.14494 -5.18824 0
M  V30 1548 H 133.873 -2.19106 -4.35711 0
M  V30 1549 H 132.878 -4.29969 -3.42647 0
M  V30 1550 H 134.103 -5.264 -4.29046 0
M  V30 1551 H 132.049 -3.43409 -5.58933 0
M  V30 1552 H 131.966 -5.16392 -5.52155 0
M  V30 1553 H 133.234 -4.40101 -6.43375 0
M  V30 1554 N 137.463 0.71206 -1.40597 0
M  V30 1555 C 138.393 1.83889 -1.43899 0
M  V30 1556 C 139.374 1.67442 -0.299504 0
M  V30 1557 O 140.559 1.87421 -0.508624 0
M  V30 1558 C 137.689 3.21877 -1.30431 0
M  V30 1559 C 136.643 3.53002 -2.42019 0
M  V30 1560 C 135.969 4.90172 -2.13626 0
M  V30 1561 C 137.269 3.53643 -3.84362 0
M  V30 1562 H 138.963 1.81383 -2.38203 0
M  V30 1563 H 136.509 0.871237 -1.14654 0
M  V30 1564 H 138.462 4.00404 -1.31357 0
M  V30 1565 H 137.186 3.24968 -0.326049 0
M  V30 1566 H 135.845 2.76818 -2.40349 0
M  V30 1567 H 135.493 4.89869 -1.14182 0
M  V30 1568 H 135.193 5.11962 -2.88389 0
M  V30 1569 H 136.717 5.71028 -2.1624 0
M  V30 1570 H 138.131 4.22203 -3.87837 0
M  V30 1571 H 136.528 3.86961 -4.58673 0
M  V30 1572 H 137.598 2.52954 -4.13693 0
M  V30 1573 N 138.941 1.26152 0.944643 0
M  V30 1574 C 140.171 1.14094 1.72239 0
M  V30 1575 C 140.579 -0.306931 1.86694 0
M  V30 1576 O 139.922 -1.22222 1.3714 0
M  V30 1577 C 139.984 1.73316 3.14963 0
M  V30 1578 C 139.648 3.2239 3.23904 0
M  V30 1579 C 140.645 4.19252 3.07447 0
M  V30 1580 C 138.33 3.62788 3.47405 0
M  V30 1581 C 140.324 5.54491 3.14353 0
M  V30 1582 C 138.011 4.98162 3.53947 0
M  V30 1583 C 139.009 5.93823 3.37436 0
M  V30 1584 O 138.697 7.26732 3.43679 0
M  V30 1585 H 138.429 0.398292 0.546205 0
M  V30 1586 H 140.983 1.67201 1.19301 0
M  V30 1587 H 139.213 1.14667 3.69308 0
M  V30 1588 H 140.902 1.56214 3.74636 0
M  V30 1589 H 141.668 3.8938 2.8915 0
M  V30 1590 H 137.547 2.88816 3.59313 0
M  V30 1591 H 141.091 6.29137 3.01384 0
M  V30 1592 H 136.988 5.27695 3.71763 0
M  V30 1593 H 137.756 7.3496 3.60245 0
M  V30 1594 N 140.419 -1.14872 1.07899 0
M  V30 1595 C 141.349 -2.2193 0.725887 0
M  V30 1596 C 142.33 -1.67622 -0.28927 0
M  V30 1597 O 143.515 -1.93533 -0.160787 0
M  V30 1598 C 140.645 -3.47061 0.128856 0
M  V30 1599 C 139.599 -4.14363 1.07178 0
M  V30 1600 C 138.925 -5.33636 0.337229 0
M  V30 1601 C 140.225 -4.63492 2.40775 0
M  V30 1602 H 141.919 -2.51724 1.62097 0
M  V30 1603 H 139.465 -1.20991 0.780838 0
M  V30 1604 H 141.418 -4.21199 -0.130147 0
M  V30 1605 H 140.142 -3.16617 -0.80134 0
M  V30 1606 H 138.801 -3.42173 1.3158 0
M  V30 1607 H 138.449 -4.99449 -0.596606 0
M  V30 1608 H 138.149 -5.79609 0.965788 0
M  V30 1609 H 139.673 -6.10539 0.0861567 0
M  V30 1610 H 141.087 -5.2913 2.20669 0
M  V30 1611 H 139.484 -5.20148 2.99276 0
M  V30 1612 H 140.554 -3.78834 3.02676 0
M  V30 1613 N 141.898 -0.863906 -1.31812 0
M  V30 1614 C 143.123 -0.48527 -2.01643 0
M  V30 1615 C 143.548 0.913058 -1.64453 0
M  V30 1616 O 142.906 1.6014 -0.849985 0
M  V30 1617 C 142.954 -0.642625 -3.54828 0
M  V30 1618 O 142.058 0.320659 -4.11151 0
M  V30 1619 H 141.399 -0.193793 -0.635091 0
M  V30 1620 H 143.929 -1.16565 -1.68148 0
M  V30 1621 H 143.939 -0.533628 -4.04495 0
M  V30 1622 H 142.614 -1.66227 -3.81237 0
M  V30 1623 H 141.191 0.167126 -3.72525 0
M  V30 1624 N 143.376 1.44774 -0.622745 0
M  V30 1625 C 144.309 2.27792 0.136329 0
M  V30 1626 C 145.287 1.38041 0.859264 0
M  V30 1627 O 146.471 1.67478 0.86506 0
M  V30 1628 C 143.598 3.16776 1.19878 0
M  V30 1629 C 142.644 4.22575 0.57731 0
M  V30 1630 S 143.477 5.31825 -0.626294 0
M  V30 1631 C 144.633 6.24377 0.436378 0
M  V30 1632 H 144.866 2.91824 -0.567967 0
M  V30 1633 H 142.399 1.48838 -0.410677 0
M  V30 1634 H 144.357 3.68596 1.80686 0
M  V30 1635 H 143.018 2.5198 1.87523 0
M  V30 1636 H 142.211 4.84818 1.37721 0
M  V30 1637 H 141.813 3.73974 0.0440439 0
M  V30 1638 H 144.105 6.64689 1.31128 0
M  V30 1639 H 145.048 7.07941 -0.150271 0
M  V30 1640 H 145.456 5.59381 0.758513 0
M  V30 1641 N 144.854 0.36279 1.53368 0
M  V30 1642 C 145.784 -0.476976 2.28576 0
M  V30 1643 C 146.765 -1.08631 1.30894 0
M  V30 1644 O 147.95 -1.10409 1.59761 0
M  V30 1645 C 145.08 -1.61828 3.07293 0
M  V30 1646 C 144.034 -1.13633 4.1264 0
M  V30 1647 C 143.36 -2.36766 4.79423 0
M  V30 1648 C 144.66 -0.223061 5.21823 0
M  V30 1649 H 146.354 0.150474 2.99022 0
M  V30 1650 H 143.9 0.0738103 1.43811 0
M  V30 1651 H 145.853 -2.21237 3.58653 0
M  V30 1652 H 144.577 -2.27292 2.34533 0
M  V30 1653 H 143.236 -0.564945 3.62221 0
M  V30 1654 H 142.884 -3.0068 4.03238 0
M  V30 1655 H 142.584 -2.05192 5.50609 0
M  V30 1656 H 144.108 -2.96865 5.33576 0
M  V30 1657 H 145.522 -0.724545 5.68703 0
M  V30 1658 H 143.919 0.001678 6.001 0
M  V30 1659 H 144.989 0.735553 4.79289 0
M  V30 1660 N 146.332 -1.57332 0.0918853 0
M  V30 1661 C 147.581 -1.93412 -0.572249 0
M  V30 1662 C 147.894 -0.975515 -1.69538 0
M  V30 1663 O 149.1 -1.22991 -2.42045 0
M  V30 1664 C 147.556 -3.43648 -1.0693 0
M  V30 1665 C 147.164 -4.47994 0.0239049 0
M  V30 1666 C 148.908 -3.88695 -1.70635 0
M  V30 1667 C 146.815 -5.89381 -0.488319 0
M  V30 1668 H 145.745 -0.721939 -0.217532 0
M  V30 1669 H 148.396 -1.82735 0.167369 0
M  V30 1670 H 146.778 -3.49466 -1.8625 0
M  V30 1671 H 147.952 -4.53815 0.799277 0
M  V30 1672 H 146.267 -4.12536 0.565946 0
M  V30 1673 H 148.864 -4.91725 -2.10025 0
M  V30 1674 H 149.207 -3.27166 -2.57426 0
M  V30 1675 H 149.74 -3.85564 -0.979023 0
M  V30 1676 H 146.479 -6.54602 0.342906 0
M  V30 1677 H 145.999 -5.87037 -1.23077 0
M  V30 1678 H 147.678 -6.39863 -0.958317 0
M  V30 1679 N 147.81 0.181792 -1.56548 0
M  V30 1680 C 149.035 0.920019 -1.85877 0
M  V30 1681 C 149.46 1.75494 -0.677021 0
M  V30 1682 O 148.818 1.77399 0.374056 0
M  V30 1683 C 148.866 1.78112 -3.13542 0
M  V30 1684 O 147.97 2.88152 -2.95029 0
M  V30 1685 H 147.311 0.258334 -0.611686 0
M  V30 1686 H 149.841 0.183092 -2.03779 0
M  V30 1687 H 149.851 2.18314 -3.44678 0
M  V30 1688 H 148.526 1.16777 -3.99169 0
M  V30 1689 H 147.103 2.51609 -2.75222 0
M  V30 1690 N 149.288 1.51039 0.449983 0
M  V30 1691 C 150.218 1.74379 1.55288 0
M  V30 1692 C 151.199 0.593236 1.5942 0
M  V30 1693 O 152.384 0.834625 1.7535 0
M  V30 1694 C 149.514 1.85728 2.93466 0
M  V30 1695 C 148.468 3.01078 3.04197 0
M  V30 1696 C 147.794 2.97595 4.44231 0
M  V30 1697 C 149.094 4.41254 2.7945 0
M  V30 1698 H 150.788 2.66725 1.36008 0
M  V30 1699 H 148.334 1.2835 0.652864 0
M  V30 1700 H 150.287 2.0064 3.70569 0
M  V30 1701 H 149.011 0.900207 3.13949 0
M  V30 1702 H 147.67 2.85851 2.29531 0
M  V30 1703 H 147.318 1.99691 4.61663 0
M  V30 1704 H 147.018 3.75046 4.52343 0
M  V30 1705 H 148.542 3.14583 5.23326 0
M  V30 1706 H 149.956 4.56897 3.46292 0
M  V30 1707 H 148.353 5.20315 2.98985 0
M  V30 1708 H 149.423 4.52164 1.75144 0
M  V30 1709 N 150.766 -0.704594 1.40972 0
M  V30 1710 C 151.698 -1.82974 1.38033 0
M  V30 1711 C 152.711 -1.60305 0.283931 0
M  V30 1712 O 153.9 -1.69975 0.545042 0
M  V30 1713 C 151 -3.19578 1.12795 0
M  V30 1714 C 150.173 -3.69352 2.34302 0
M  V30 1715 C 149.232 -4.84601 2.05058 0
M  V30 1716 O 148.258 -4.96682 2.7802 0
M  V30 1717 N 149.46 -5.71194 1.03528 0
M  V30 1718 H 152.225 -1.85991 2.35005 0
M  V30 1719 H 149.786 -0.886567 1.35468 0
M  V30 1720 H 151.778 -3.9429 0.911987 0
M  V30 1721 H 150.348 -3.11642 0.24452 0
M  V30 1722 H 149.568 -2.85649 2.71659 0
M  V30 1723 H 150.856 -3.99345 3.1528 0
M  V30 1724 H 150.254 -5.64054 0.431217 0
M  V30 1725 H 148.811 -6.45843 0.879205 0
M  V30 1726 N 152.244 -1.26651 -0.937939 0
M  V30 1727 C 153.493 -1.11775 -1.67897 0
M  V30 1728 C 153.806 0.33794 -1.92659 0
M  V30 1729 O 155.012 0.607434 -2.64618 0
M  V30 1730 C 153.468 -1.9523 -3.02346 0
M  V30 1731 C 153.076 -3.45393 -2.8532 0
M  V30 1732 C 154.82 -1.88972 -3.80118 0
M  V30 1733 C 152.727 -4.21083 -4.15263 0
M  V30 1734 H 151.657 -0.414696 -0.629717 0
M  V30 1735 H 154.308 -1.50988 -1.04283 0
M  V30 1736 H 152.69 -1.48853 -3.66959 0
M  V30 1737 H 153.864 -3.99561 -2.29537 0
M  V30 1738 H 152.179 -3.52921 -2.20988 0
M  V30 1739 H 154.776 -2.42805 -4.76392 0
M  V30 1740 H 155.119 -0.86113 -4.07296 0
M  V30 1741 H 155.652 -2.33189 -3.22285 0
M  V30 1742 H 152.391 -5.24425 -3.93267 0
M  V30 1743 H 151.911 -3.71695 -4.70747 0
M  V30 1744 H 153.59 -4.29706 -4.83696 0
M  V30 1745 N 153.722 1.14298 -1.08507 0
M  V30 1746 C 154.947 1.8976 -0.837001 0
M  V30 1747 C 155.372 1.78097 0.605228 0
M  V30 1748 O 154.73 1.12188 1.4242 0
M  V30 1749 C 154.778 3.37685 -1.26495 0
M  V30 1750 O 153.882 4.10281 -0.417514 0
M  V30 1751 H 153.223 0.590365 -0.303917 0
M  V30 1752 H 155.753 1.44672 -1.44676 0
M  V30 1753 H 155.763 3.88501 -1.24625 0
M  V30 1754 H 154.438 3.45492 -2.31534 0
M  V30 1755 H 153.015 3.69536 -0.499722 0
M  V30 1756 N 155.201 0.870884 1.31352 0
M  V30 1757 C 156.131 0.343096 2.30966 0
M  V30 1758 C 157.112 -0.566507 1.60389 0
M  V30 1759 O 158.297 -0.483336 1.88089 0
M  V30 1760 C 155.427 -0.455487 3.443 0
M  V30 1761 C 154.381 0.361103 4.26474 0
M  V30 1762 C 153.707 -0.563221 5.31725 0
M  V30 1763 C 155.007 1.59566 4.97329 0
M  V30 1764 H 156.701 1.17548 2.75359 0
M  V30 1765 H 154.247 0.566686 1.32381 0
M  V30 1766 H 156.2 -0.83525 4.13039 0
M  V30 1767 H 154.924 -1.32139 2.98675 0
M  V30 1768 H 153.583 0.722825 3.59403 0
M  V30 1769 H 153.231 -1.42643 4.82351 0
M  V30 1770 H 152.931 -0.0207409 5.87596 0
M  V30 1771 H 154.455 -0.939808 6.03324 0
M  V30 1772 H 155.869 1.28728 5.58661 0
M  V30 1773 H 154.266 2.07728 5.63 0
M  V30 1774 H 155.336 2.34798 4.24262 0
M  V30 1775 N 156.679 -1.44442 0.630414 0
M  V30 1776 C 157.928 -2.01267 0.132073 0
M  V30 1777 C 158.241 -1.50172 -1.25331 0
M  V30 1778 O 159.447 -1.9912 -1.84562 0
M  V30 1779 C 157.903 -3.59422 0.185362 0
M  V30 1780 C 157.511 -4.19514 1.57201 0
M  V30 1781 C 159.255 -4.23724 -0.256553 0
M  V30 1782 C 157.162 -5.69891 1.58045 0
M  V30 1783 H 156.092 -0.752619 0.0456092 0
M  V30 1784 H 158.743 -1.65666 0.789106 0
M  V30 1785 H 157.125 -3.92318 -0.538759 0
M  V30 1786 H 158.299 -3.98156 2.31966 0
M  V30 1787 H 156.614 -3.67496 1.95795 0
M  V30 1788 H 159.211 -5.34019 -0.269767 0
M  V30 1789 H 159.554 -3.96013 -1.28372 0
M  V30 1790 H 160.087 -3.95629 0.41505 0
M  V30 1791 H 156.826 -6.02336 2.58597 0
M  V30 1792 H 156.346 -5.93373 0.875725 0
M  V30 1793 H 158.025 -6.33515 1.31408 0
M  V30 1794 N 158.157 -0.370918 -1.53173 0
M  V30 1795 C 159.09 0.516727 -2.22273 0
M  V30 1796 C 160.068 1.07877 -1.21661 0
M  V30 1797 O 161.252 1.13389 -1.50583 0
M  V30 1798 C 158.379 1.71346 -2.92161 0
M  V30 1799 C 157.425 1.27838 -4.0689 0
M  V30 1800 S 158.258 0.275217 -5.34792 0
M  V30 1801 C 159.414 1.47816 -6.08195 0
M  V30 1802 H 159.647 -0.0701054 -2.97217 0
M  V30 1803 H 157.18 -0.155038 -1.5362 0
M  V30 1804 H 159.138 2.39988 -3.3304 0
M  V30 1805 H 157.799 2.27156 -2.16931 0
M  V30 1806 H 156.992 2.17141 -4.54825 0
M  V30 1807 H 156.594 0.671105 -3.6793 0
M  V30 1808 H 158.886 2.40831 -6.33251 0
M  V30 1809 H 159.829 1.04008 -7.0042 0
M  V30 1810 H 160.237 1.68663 -5.38714 0
M  V30 1811 N 159.635 1.57281 -0.100228 0
M  V30 1812 C 160.863 1.98879 0.570509 0
M  V30 1813 C 161.278 0.979476 1.61405 0
M  V30 1814 O 160.635 -0.0302288 1.82475 0
M  V30 1815 C 160.686 3.4052 1.2136 0
M  V30 1816 O 160.407 4.37588 0.211786 0
M  V30 1817 C 161.908 3.97149 1.96945 0
M  V30 1818 H 159.128 0.653428 0.152555 0
M  V30 1819 H 161.672 2.03697 -0.18103 0
M  V30 1820 H 159.827 3.367 1.91603 0
M  V30 1821 H 160.241 5.20118 0.676607 0
M  V30 1822 H 161.715 4.98393 2.37294 0
M  V30 1823 H 162.192 3.3525 2.83733 0
M  V30 1824 H 162.798 4.04458 1.31506 0
M  V30 1825 N 161.113 -0.173488 1.56642 0
M  V30 1826 C 162.36 -0.890465 1.81871 0
M  V30 1827 C 162.688 -1.82339 0.67696 0
M  V30 1828 O 161.943 -1.92795 -0.335926 0
M  V30 1829 C 162.242 -1.72069 3.13252 0
M  V30 1830 C 161.908 -0.936878 4.41059 0
M  V30 1831 C 160.57 -0.720545 4.75775 0
M  V30 1832 C 162.922 -0.386919 5.19762 0
M  V30 1833 C 160.25 0.0568829 5.86672 0
M  V30 1834 C 162.602 0.37741 6.31473 0
M  V30 1835 C 161.266 0.604563 6.64757 0
M  V30 1836 H 160.536 -0.325844 0.665512 0
M  V30 1837 H 163.183 -0.155527 1.90867 0
M  V30 1838 H 161.488 -2.52496 2.99588 0
M  V30 1839 H 163.185 -2.27844 3.29982 0
M  V30 1840 H 159.775 -1.11553 4.13828 0
M  V30 1841 H 163.959 -0.541398 4.93338 0
M  V30 1842 H 159.215 0.242635 6.10918 0
M  V30 1843 H 163.389 0.810825 6.91664 0
M  V30 1844 H 161.016 1.20885 7.50527 0
M  V30 1845 N 162.591 -1.51276 -0.441967 0
M  V30 1846 C 163.819 -1.67516 -1.21434 0
M  V30 1847 C 164.234 -0.37055 -1.85128 0
M  V30 1848 O 163.591 0.650498 -1.70513 0
M  V30 1849 C 163.642 -2.78748 -2.30177 0
M  V30 1850 O 163.363 -4.04154 -1.69089 0
M  V30 1851 C 164.864 -3.06217 -3.20541 0
M  V30 1852 H 162.084 -0.562276 -0.366178 0
M  V30 1853 H 164.628 -1.97666 -0.524244 0
M  V30 1854 H 162.783 -2.5121 -2.94911 0
M  V30 1855 H 163.197 -4.65894 -2.40922 0
M  V30 1856 H 164.671 -3.8764 -3.92987 0
M  V30 1857 H 165.148 -2.18439 -3.81026 0
M  V30 1858 H 165.754 -3.35397 -2.61513 0
M  V30 1859 N 164.069 0.697108 -1.41344 0
M  V30 1860 C 165.032 1.79281 -1.42797 0
M  V30 1861 C 166.032 1.57607 -0.318837 0
M  V30 1862 O 167.222 1.64309 -0.578642 0
M  V30 1863 C 164.354 3.17632 -1.23785 0
M  V30 1864 H 165.547 1.79385 -2.40335 0
M  V30 1865 H 163.1 0.904582 -1.27464 0
M  V30 1866 H 163.835 3.23167 -0.270814 0
M  V30 1867 H 163.62 3.34765 -2.04144 0
M  V30 1868 H 165.11 3.97617 -1.27633 0
M  V30 1869 N 165.547 1.27147 0.931209 0
M  V30 1870 C 166.775 1.16082 1.71267 0
M  V30 1871 C 167.19 -0.282772 1.8667 0
M  V30 1872 O 166.547 -1.19283 1.38122 0
M  V30 1873 C 166.598 1.8358 3.11417 0
M  V30 1874 O 166.319 3.22299 2.96741 0
M  V30 1875 C 167.82 1.78597 4.05732 0
M  V30 1876 H 165.04 0.403758 0.535929 0
M  V30 1877 H 167.584 1.67953 1.16671 0
M  V30 1878 H 165.739 1.35623 3.62885 0
M  V30 1879 H 166.153 3.55851 3.85319 0
M  V30 1880 H 167.627 2.30444 5.01597 0
M  V30 1881 H 168.104 0.754564 4.3267 0
M  V30 1882 H 168.71 2.26152 3.60188 0
M  V30 1883 N 167.025 -1.13721 1.09112 0
M  V30 1884 C 167.935 -2.22638 0.73957 0
M  V30 1885 C 168.951 -1.72091 -0.257068 0
M  V30 1886 O 170.127 -2.01155 -0.0992154 0
M  V30 1887 C 167.192 -3.46322 0.16191 0
M  V30 1888 C 166.253 -4.11775 1.21408 0
M  V30 1889 C 165.486 -5.29555 0.663891 0
M  V30 1890 O 165.709 -5.68077 -0.514274 0
M  V30 1891 O 164.643 -5.84973 1.41738 0
M  V30 1892 H 168.469 -2.55074 1.64836 0
M  V30 1893 H 166.054 -1.21791 0.865289 0
M  V30 1894 H 167.936 -4.21107 -0.157073 0
M  V30 1895 H 166.611 -3.15593 -0.719932 0
M  V30 1896 H 165.518 -3.3883 1.58571 0
M  V30 1897 H 166.851 -4.46627 2.06845 0
M  V30 1898 N 168.503 -0.877838 -1.30888 0
M  V30 1899 C 169.433 -0.35534 -2.3078 0
M  V30 1900 C 170.414 0.557994 -1.60687 0
M  V30 1901 O 171.599 0.473355 -1.88343 0
M  V30 1902 C 168.729 0.437221 -3.44537 0
M  V30 1903 C 167.683 -0.383715 -4.26276 0
M  V30 1904 C 167.009 0.535014 -5.32017 0
M  V30 1905 C 168.309 -1.62201 -4.96476 0
M  V30 1906 H 170.003 -1.19007 -2.74732 0
M  V30 1907 H 167.549 -0.573698 -1.32078 0
M  V30 1908 H 169.502 0.813334 -4.13477 0
M  V30 1909 H 168.226 1.30553 -2.99372 0
M  V30 1910 H 166.885 -0.741874 -3.59015 0
M  V30 1911 H 166.533 1.40083 -4.831 0
M  V30 1912 H 166.233 -0.0104211 -5.87599 0
M  V30 1913 H 167.757 0.907799 -6.03814 0
M  V30 1914 H 169.171 -1.31689 -5.5797 0
M  V30 1915 H 167.568 -2.10711 -5.61891 0
M  V30 1916 H 168.638 -2.37044 -4.23011 0
M  V30 1917 N 169.982 1.44106 -0.638065 0
M  V30 1918 C 171.231 2.01194 -0.142744 0
M  V30 1919 C 171.544 1.50835 1.24532 0
M  V30 1920 O 172.75 2.00096 1.83504 0
M  V30 1921 C 171.206 3.59319 -0.20442 0
M  V30 1922 C 170.814 4.18674 -1.59423 0
M  V30 1923 C 172.558 4.23854 0.234079 0
M  V30 1924 C 170.465 5.69045 -1.61065 0
M  V30 1925 H 169.395 0.752367 -0.0495998 0
M  V30 1926 H 172.046 1.65246 -0.797881 0
M  V30 1927 H 170.428 3.92598 0.517946 0
M  V30 1928 H 171.602 3.96921 -2.34074 0
M  V30 1929 H 169.917 3.66453 -1.97741 0
M  V30 1930 H 172.514 5.34155 0.241443 0
M  V30 1931 H 172.857 3.96688 1.2627 0
M  V30 1932 H 173.39 3.95403 -0.436025 0
M  V30 1933 H 170.129 6.00956 -2.61787 0
M  V30 1934 H 169.649 5.929 -0.90718 0
M  V30 1935 H 171.328 6.32809 -1.34766 0
M  V30 1936 N 171.46 0.379036 1.52974 0
M  V30 1937 C 172.393 -0.504932 2.22544 0
M  V30 1938 C 173.371 -1.0723 1.22231 0
M  V30 1939 O 174.555 -1.12589 1.51182 0
M  V30 1940 C 171.682 -1.69794 2.93066 0
M  V30 1941 C 170.728 -1.25678 4.07563 0
M  V30 1942 S 171.561 -0.246852 5.34931 0
M  V30 1943 C 172.717 -1.44588 6.08971 0
M  V30 1944 H 172.95 0.0858666 2.97176 0
M  V30 1945 H 170.483 0.163183 1.53535 0
M  V30 1946 H 172.441 -2.38219 3.34308 0
M  V30 1947 H 171.102 -2.26002 2.18133 0
M  V30 1948 H 170.295 -2.14725 4.5597 0
M  V30 1949 H 169.897 -0.651584 3.6828 0
M  V30 1950 H 172.189 -2.37469 6.34519 0
M  V30 1951 H 173.132 -1.00292 7.00962 0
M  V30 1952 H 173.54 -1.65804 5.39601 0
M  V30 1953 N 172.938 -1.57226 0.108567 0
M  V30 1954 C 174.185 -1.94833 -0.551943 0
M  V30 1955 C 174.513 -0.991204 -1.67348 0
M  V30 1956 O 173.768 -0.0131878 -1.95696 0
M  V30 1957 C 174.067 -3.38911 -1.13463 0
M  V30 1958 C 173.733 -4.50696 -0.135509 0
M  V30 1959 C 172.395 -4.80998 0.139252 0
M  V30 1960 C 174.747 -5.18333 0.545957 0
M  V30 1961 C 172.075 -5.76259 1.10194 0
M  V30 1962 C 174.427 -6.14627 1.49721 0
M  V30 1963 C 173.091 -6.43327 1.78006 0
M  V30 1964 H 172.361 -0.712944 -0.20197 0
M  V30 1965 H 175.008 -1.90582 0.18726 0
M  V30 1966 H 173.313 -3.39805 -1.95037 0
M  V30 1967 H 175.01 -3.65317 -1.65362 0
M  V30 1968 H 171.6 -4.27087 -0.359846 0
M  V30 1969 H 175.784 -4.95087 0.346842 0
M  V30 1970 H 171.04 -5.96804 1.32795 0
M  V30 1971 H 175.214 -6.66126 2.03099 0
M  V30 1972 H 172.841 -7.1695 2.52759 0
M  V30 1973 N 174.416 0.165178 -1.56732 0
M  V30 1974 C 175.646 0.894919 -1.86212 0
M  V30 1975 C 176.054 1.76066 -0.692627 0
M  V30 1976 O 175.397 1.80387 0.347303 0
M  V30 1977 C 175.459 1.8174 -3.10179 0
M  V30 1978 C 175.123 1.13064 -4.42793 0
M  V30 1979 C 176.12 0.493169 -5.17556 0
M  V30 1980 C 173.805 1.12556 -4.89527 0
M  V30 1981 C 175.799 -0.140209 -6.37246 0
M  V30 1982 C 173.486 0.488366 -6.09145 0
M  V30 1983 C 174.484 -0.143411 -6.82849 0
M  V30 1984 O 174.172 -0.77055 -8.00199 0
M  V30 1985 H 173.904 0.265114 -0.621844 0
M  V30 1986 H 176.458 0.168242 -2.0471 0
M  V30 1987 H 174.688 2.58455 -2.87642 0
M  V30 1988 H 176.377 2.4175 -3.26055 0
M  V30 1989 H 177.143 0.489023 -4.82528 0
M  V30 1990 H 173.022 1.60672 -4.32094 0
M  V30 1991 H 176.566 -0.633932 -6.94714 0
M  V30 1992 H 172.463 0.490116 -6.43637 0
M  V30 1993 H 173.231 -0.670408 -8.1575 0
M  V30 1994 N 175.894 1.51508 0.433938 0
M  V30 1995 C 177.143 1.63578 1.18005 0
M  V30 1996 C 177.456 0.359514 1.92268 0
M  V30 1997 O 178.662 0.359632 2.69108 0
M  V30 1998 C 177.118 2.88901 2.14626 0
M  V30 1999 C 176.726 4.23544 1.45995 0
M  V30 2000 C 178.47 3.10328 2.89649 0
M  V30 2001 C 176.377 5.40014 2.4112 0
M  V30 2002 H 175.307 0.609277 0.444182 0
M  V30 2003 H 177.958 1.77978 0.446773 0
M  V30 2004 H 176.34 2.68142 2.91403 0
M  V30 2005 H 177.514 4.54696 0.747532 0
M  V30 2006 H 175.829 4.08021 0.831115 0
M  V30 2007 H 178.426 3.94518 3.60915 0
M  V30 2008 H 178.769 2.23544 3.51189 0
M  V30 2009 H 179.302 3.31443 2.19978 0
M  V30 2010 H 176.041 6.29068 1.84264 0
M  V30 2011 H 175.561 5.13233 3.10406 0
M  V30 2012 H 177.24 5.72099 3.02177 0
M  V30 2013 N 177.372 -0.689602 1.41712 0
M  V30 2014 C 178.619 -1.44966 1.4139 0
M  V30 2015 C 178.947 -1.94484 0.025105 0
M  V30 2016 O 178.202 -1.70307 -0.964048 0
M  V30 2017 C 178.501 -2.67298 2.37247 0
M  V30 2018 C 178.167 -2.36405 3.83958 0
M  V30 2019 C 176.829 -2.27691 4.23923 0
M  V30 2020 C 179.181 -2.11043 4.76561 0
M  V30 2021 C 176.509 -1.91719 5.54492 0
M  V30 2022 C 178.861 -1.76578 6.07456 0
M  V30 2023 C 177.525 -1.66363 6.46436 0
M  V30 2024 H 176.795 -0.53047 0.517381 0
M  V30 2025 H 179.442 -0.787655 1.74552 0
M  V30 2026 H 177.747 -3.38461 1.9736 0
M  V30 2027 H 179.444 -3.25452 2.34269 0
M  V30 2028 H 176.034 -2.44085 3.52308 0
M  V30 2029 H 180.218 -2.16717 4.46483 0
M  V30 2030 H 175.474 -1.82367 5.83568 0
M  V30 2031 H 179.648 -1.55974 6.78708 0
M  V30 2032 H 177.275 -1.38258 7.47522 0
M  V30 2033 N 178.85 -1.27639 -0.924453 0
M  V30 2034 C 180.097 -1.14167 -1.67249 0
M  V30 2035 C 180.425 0.311863 -1.91984 0
M  V30 2036 O 179.68 1.24425 -1.51053 0
M  V30 2037 C 179.979 -1.87407 -3.04325 0
M  V30 2038 C 179.645 -3.37249 -2.99289 0
M  V30 2039 C 178.307 -3.7812 -2.97622 0
M  V30 2040 C 180.659 -4.32845 -2.90336 0
M  V30 2041 C 177.987 -5.12944 -2.8479 0
M  V30 2042 C 180.339 -5.6773 -2.79045 0
M  V30 2043 C 179.003 -6.07889 -2.7573 0
M  V30 2044 H 178.273 -0.417766 -0.612007 0
M  V30 2045 H 180.92 -1.58286 -1.07786 0
M  V30 2046 H 179.225 -1.35805 -3.67511 0
M  V30 2047 H 180.922 -1.74408 -3.61086 0
M  V30 2048 H 177.512 -3.04748 -3.01374 0
M  V30 2049 H 181.696 -4.02239 -2.90719 0
M  V30 2050 H 176.952 -5.432 -2.80612 0
M  V30 2051 H 181.126 -6.41472 -2.71083 0
M  V30 2052 H 178.753 -7.12314 -2.65544 0
M  V30 2053 N 180.328 1.1314 -1.09713 0
M  V30 2054 C 181.238 2.22242 -0.751367 0
M  V30 2055 C 182.254 1.72224 0.247938 0
M  V30 2056 O 183.43 2.01205 0.0885463 0
M  V30 2057 C 180.495 3.46231 -0.180274 0
M  V30 2058 C 179.556 4.11125 -1.2359 0
M  V30 2059 C 178.789 5.29195 -0.691966 0
M  V30 2060 O 179.012 5.68342 0.48414 0
M  V30 2061 O 177.946 5.84214 -1.44838 0
M  V30 2062 H 181.772 2.54197 -1.66186 0
M  V30 2063 H 179.357 1.21331 -0.871735 0
M  V30 2064 H 181.239 4.21185 0.134739 0
M  V30 2065 H 179.914 3.1597 0.703185 0
M  V30 2066 H 178.821 3.37985 -1.60366 0
M  V30 2067 H 180.154 4.45524 -2.09211 0
M  V30 2068 N 181.806 0.884767 1.30421 0
M  V30 2069 C 183.034 0.518044 2.0031 0
M  V30 2070 C 183.449 -0.893408 1.66324 0
M  V30 2071 O 182.806 -1.5875 0.900262 0
M  V30 2072 C 182.857 0.682997 3.54989 0
M  V30 2073 O 182.578 2.03888 3.87764 0
M  V30 2074 C 184.079 0.31924 4.42149 0
M  V30 2075 H 181.299 0.200265 0.640418 0
M  V30 2076 H 183.843 1.19001 1.6631 0
M  V30 2077 H 181.998 0.0584052 3.87356 0
M  V30 2078 H 182.412 2.05735 4.82466 0
M  V30 2079 H 183.886 0.485555 5.4986 0
M  V30 2080 H 184.363 -0.742717 4.32875 0
M  V30 2081 H 184.969 0.920147 4.15227 0
M  V30 2082 N 183.284 -1.43765 0.645699 0
M  V30 2083 C 184.512 -2.06253 0.163556 0
M  V30 2084 C 184.927 -1.48352 -1.16778 0
M  V30 2085 O 184.284 -0.611932 -1.71935 0
M  V30 2086 C 184.335 -3.61453 0.0583186 0
M  V30 2087 O 184.056 -4.172 1.33702 0
M  V30 2088 C 185.557 -4.41002 -0.450795 0
M  V30 2089 H 182.777 -0.665413 0.0864077 0
M  V30 2090 H 185.321 -1.84396 0.884222 0
M  V30 2091 H 183.476 -3.82522 -0.612865 0
M  V30 2092 H 183.89 -5.10791 1.19131 0
M  V30 2093 H 185.364 -5.49966 -0.473403 0
M  V30 2094 H 185.841 -4.13488 -1.48068 0
M  V30 2095 H 186.447 -4.24886 0.187637 0
M  V30 2096 N 184.763 -0.387143 -1.52771 0
M  V30 2097 C 185.693 0.440551 -2.29306 0
M  V30 2098 C 186.674 1.06535 -1.32606 0
M  V30 2099 O 187.859 1.07853 -1.61497 0
M  V30 2100 C 184.989 1.56919 -3.09829 0
M  V30 2101 C 183.943 1.07054 -4.14395 0
M  V30 2102 C 183.269 2.29109 -4.83129 0
M  V30 2103 C 184.569 0.140015 -5.22112 0
M  V30 2104 H 186.263 -0.198026 -2.98744 0
M  V30 2105 H 183.809 -0.09668 -1.43675 0
M  V30 2106 H 185.762 2.15503 -3.62128 0
M  V30 2107 H 184.486 2.23532 -2.3812 0
M  V30 2108 H 183.145 0.507247 -3.63074 0
M  V30 2109 H 182.793 2.94227 -4.0797 0
M  V30 2110 H 182.493 1.96406 -5.53804 0
M  V30 2111 H 184.017 2.88339 -5.38231 0
M  V30 2112 H 185.431 0.633978 -5.69784 0
M  V30 2113 H 183.828 -0.0971485 -6.00021 0
M  V30 2114 H 184.898 -0.811711 -4.78058 0
M  V30 2115 N 186.241 1.57166 -0.116904 0
M  V30 2116 C 187.49 1.94298 0.541407 0
M  V30 2117 C 187.803 1.00236 1.67964 0
M  V30 2118 O 189.009 1.26826 2.40057 0
M  V30 2119 C 187.465 3.45306 1.01449 0
M  V30 2120 C 187.073 4.47899 -0.0951738 0
M  V30 2121 C 188.817 3.91361 1.6443 0
M  V30 2122 C 186.724 5.90083 0.394491 0
M  V30 2123 H 185.654 0.725308 0.206019 0
M  V30 2124 H 188.305 1.82446 -0.196419 0
M  V30 2125 H 186.687 3.52385 1.80667 0
M  V30 2126 H 187.861 4.52486 -0.871374 0
M  V30 2127 H 186.176 4.11583 -0.631505 0
M  V30 2128 H 188.773 4.95004 2.02176 0
M  V30 2129 H 189.116 3.3122 2.52189 0
M  V30 2130 H 189.649 3.87073 0.917559 0
M  V30 2131 H 186.388 6.53974 -0.447004 0
M  V30 2132 H 185.908 5.88921 1.13722 0
M  V30 2133 H 187.587 6.41307 0.856399 0
M  V30 2134 N 187.719 -0.156864 1.56817 0
M  V30 2135 C 189.13 -0.717916 1.72345 0
M  V30 2136 C 189.481 -1.82124 0.729747 0
M  V30 2137 O 188.606 -2.16141 -0.105781 0
M  V30 2138 C 189.201 -1.30904 3.12489 0
M  V30 2139 C 187.76 -1.81676 3.29653 0
M  V30 2140 C 186.907 -0.701349 2.68284 0
M  V30 2141 H 189.858 0.0686989 1.58551 0
M  V30 2142 H 189.879 -2.17882 3.11942 0
M  V30 2143 H 189.391 -0.505796 3.8479 0
M  V30 2144 H 187.492 -2.64598 2.62333 0
M  V30 2145 H 187.605 -1.95226 4.3752 0
M  V30 2146 H 185.969 -1.12548 2.28484 0
M  V30 2147 H 186.752 0.0902846 3.43181 0
M  V30 2148 N 189.197 -1.51736 -0.425897 0
M  V30 2149 C 190.425 -1.68794 -1.1965 0
M  V30 2150 C 190.84 -0.390164 -1.84725 0
M  V30 2151 O 190.197 0.632376 -1.71194 0
M  V30 2152 C 190.248 -2.81174 -2.27208 0
M  V30 2153 O 189.969 -4.05925 -1.64793 0
M  V30 2154 C 191.47 -3.09599 -3.17275 0
M  V30 2155 H 188.69 -0.566128 -0.360194 0
M  V30 2156 H 191.234 -1.98211 -0.503249 0
M  V30 2157 H 189.389 -2.54324 -2.9223 0
M  V30 2158 H 189.803 -4.68423 -2.35967 0
M  V30 2159 H 191.277 -3.91786 -3.88854 0
M  V30 2160 H 191.754 -2.22468 -3.78688 0
M  V30 2161 H 192.36 -3.38151 -2.57941 0
M  V30 2162 N 190.675 0.682077 -1.42076 0
M  V30 2163 C 191.605 1.80796 -1.47767 0
M  V30 2164 C 192.586 1.6677 -0.334954 0
M  V30 2165 O 193.771 1.863 -0.548264 0
M  V30 2166 C 190.901 3.19038 -1.37229 0
M  V30 2167 C 189.855 3.47789 -2.49453 0
M  V30 2168 C 189.181 4.8553 -2.23975 0
M  V30 2169 C 190.481 3.45411 -3.91776 0
M  V30 2170 H 192.175 1.7629 -2.41997 0
M  V30 2171 H 189.721 0.846721 -1.16476 0
M  V30 2172 H 191.674 3.97528 -1.39821 0
M  V30 2173 H 190.398 3.24204 -0.394907 0
M  V30 2174 H 189.057 2.71657 -2.46166 0
M  V30 2175 H 188.705 4.87337 -1.24547 0
M  V30 2176 H 188.405 5.0573 -2.99184 0
M  V30 2177 H 189.929 5.66312 -2.28304 0
M  V30 2178 H 191.343 4.13882 -3.96705 0
M  V30 2179 H 189.74 3.77145 -4.66778 0
M  V30 2180 H 190.81 2.44122 -4.18966 0
M  V30 2181 N 192.153 1.28127 0.917671 0
M  V30 2182 C 193.116 1.11744 2.00115 0
M  V30 2183 C 194.116 0.0583052 1.60694 0
M  V30 2184 O 195.306 0.303755 1.71531 0
M  V30 2185 C 192.438 0.704862 3.33533 0
M  V30 2186 H 193.631 2.07966 2.16079 0
M  V30 2187 H 191.184 1.11058 1.09981 0
M  V30 2188 H 191.919 -0.258299 3.2327 0
M  V30 2189 H 191.704 1.4699 3.63505 0
M  V30 2190 H 193.194 0.612768 4.1308 0
M  V30 2191 N 193.631 -1.12557 1.10312 0
M  V30 2192 C 194.88 -1.83395 0.839588 0
M  V30 2193 C 195.193 -1.84939 -0.636929 0
M  V30 2194 O 196.399 -2.51761 -1.01631 0
M  V30 2195 C 194.855 -3.29303 1.45215 0
M  V30 2196 C 194.463 -3.36122 2.96186 0
M  V30 2197 C 196.207 -4.05121 1.26796 0
M  V30 2198 C 194.114 -4.76357 3.50483 0
M  V30 2199 H 193.044 -0.687133 0.310425 0
M  V30 2200 H 195.695 -1.26746 1.32694 0
M  V30 2201 H 194.077 -3.85812 0.892469 0
M  V30 2202 H 195.251 -2.89559 3.58458 0
M  V30 2203 H 193.566 -2.73776 3.13745 0
M  V30 2204 H 196.163 -5.08668 1.64806 0
M  V30 2205 H 196.506 -4.15773 0.209409 0
M  V30 2206 H 197.039 -3.54967 1.79563 0
M  V30 2207 H 193.778 -4.70899 4.55998 0
M  V30 2208 H 193.298 -5.23377 2.92978 0
M  V30 2209 H 194.977 -5.45294 3.48228 0
M  V30 2210 N 195.109 -0.891671 -1.2995 0
M  V30 2211 C 196.358 -0.509521 -1.95158 0
M  V30 2212 C 196.671 0.947388 -1.71125 0
M  V30 2213 O 197.877 1.43669 -2.30372 0
M  V30 2214 C 196.333 -0.860315 -3.49466 0
M  V30 2215 C 195.941 -2.33545 -3.8231 0
M  V30 2216 C 197.685 -0.547687 -4.20952 0
M  V30 2217 C 195.592 -2.62752 -5.29826 0
M  V30 2218 H 194.522 -0.18682 -0.730489 0
M  V30 2219 H 197.173 -1.08756 -1.47798 0
M  V30 2220 H 195.555 -0.211285 -3.95436 0
M  V30 2221 H 196.729 -3.02936 -3.47227 0
M  V30 2222 H 195.044 -2.61629 -3.23944 0
M  V30 2223 H 197.641 -0.742854 -5.29515 0
M  V30 2224 H 197.984 0.51332 -4.13123 0
M  V30 2225 H 198.517 -1.1542 -3.80688 0
M  V30 2226 H 195.256 -3.6762 -5.42712 0
M  V30 2227 H 194.776 -1.97977 -5.66185 0
M  V30 2228 H 196.455 -2.48601 -5.97333 0
M  V30 2229 N 196.587 1.43421 -0.653314 0
M  V30 2230 C 197.815 2.06163 -0.174491 0
M  V30 2231 C 198.23 1.48969 1.1599 0
M  V30 2232 O 197.587 0.621042 1.71608 0
M  V30 2233 C 197.638 3.61417 -0.0774865 0
M  V30 2234 O 197.359 4.16485 -1.35912 0
M  V30 2235 C 198.86 4.41235 0.427402 0
M  V30 2236 H 196.08 0.664946 -0.0899353 0
M  V30 2237 H 198.624 1.83924 -0.893988 0
M  V30 2238 H 196.779 3.82841 0.59257 0
M  V30 2239 H 197.193 5.10153 -1.21839 0
M  V30 2240 H 198.667 5.5021 0.44423 0
M  V30 2241 H 199.144 4.14268 1.45873 0
M  V30 2242 H 199.75 4.2478 -0.210167 0
M  V30 2243 N 198.065 0.39524 1.52563 0
M  V30 2244 C 199.481 0.0454682 1.59535 0
M  V30 2245 C 199.681 -1.44056 1.4089 0
M  V30 2246 O 198.737 -2.20579 1.22888 0
M  V30 2247 C 200.05 0.527963 2.96029 0
M  V30 2248 C 201.598 0.484733 3.09224 0
M  V30 2249 C 202.073 0.943512 4.48176 0
M  V30 2250 N 203.564 0.899765 4.54377 0
M  V30 2251 C 204.299 1.22609 5.60138 0
M  V30 2252 N 203.795 1.62319 6.73516 0
M  V30 2253 N 205.588 1.14696 5.50274 0
M  V30 2254 H 197.739 1.36261 1.62931 0
M  V30 2255 H 200.002 0.558887 0.765735 0
M  V30 2256 H 199.708 1.56607 3.14908 0
M  V30 2257 H 199.582 -0.0698056 3.77135 0
M  V30 2258 H 201.969 -0.544298 2.90037 0
M  V30 2259 H 202.05 1.11838 2.30056 0
M  V30 2260 H 201.694 1.9708 4.68104 0
M  V30 2261 H 201.624 0.286817 5.25818 0
M  V30 2262 H 204.115 0.607632 3.72983 0
M  V30 2263 H 204.428 1.85567 7.5019 0
M  V30 2264 H 202.773 1.66211 6.74833 0
M  V30 2265 H 205.964 0.835701 4.6058 0
M  V30 2266 H 206.137 1.40459 6.32594 0
M  V30 2267 N 199.544 -1.57102 0.125237 0
M  V30 2268 C 200.79 -1.96488 -0.525753 0
M  V30 2269 C 201.145 -1.00786 -1.6389 0
M  V30 2270 O 200.438 -0.038979 -1.9156 0
M  V30 2271 C 200.632 -3.40096 -1.09862 0
M  V30 2272 C 200.461 -4.4968 -0.0425004 0
M  V30 2273 C 199.231 -5.03781 0.391463 0
M  V30 2274 C 201.429 -5.08936 0.740829 0
M  V30 2275 N 199.411 -5.96948 1.4327 0
M  V30 2276 C 200.782 -5.98105 1.6331 0
M  V30 2277 C 202.837 -4.91576 0.791029 0
M  V30 2278 C 201.54 -6.71774 2.57122 0
M  V30 2279 C 203.566 -5.6593 1.71688 0
M  V30 2280 C 202.928 -6.5479 2.59672 0
M  V30 2281 H 199.027 -0.765072 -0.161831 0
M  V30 2282 H 201.611 -1.93511 0.214801 0
M  V30 2283 H 199.782 -3.43707 -1.80887 0
M  V30 2284 H 201.514 -3.66591 -1.71444 0
M  V30 2285 H 198.269 -4.736 -0.00213584 0
M  V30 2286 H 198.693 -6.48236 1.95243 0
M  V30 2287 H 203.335 -4.22615 0.124915 0
M  V30 2288 H 201.053 -7.39977 3.24744 0
M  V30 2289 H 204.639 -5.54501 1.76125 0
M  V30 2290 H 203.519 -7.11316 3.30149 0
M  V30 2291 N 201.022 0.148545 -1.56898 0
M  V30 2292 C 202.27 0.859717 -1.82902 0
M  V30 2293 C 202.591 1.81775 -0.70588 0
M  V30 2294 O 201.861 1.93994 0.272586 0
M  V30 2295 H 200.441 0.320469 -0.674766 0
M  V30 2296 H 203.103 0.142918 -1.94375 0
M  V30 2297 H 202.199 1.4229 -2.77777 0
M  V30 2298 N 202.5 1.5196 0.417844 0
M  V30 2299 C 203.448 1.75278 1.52907 0
M  V30 2300 C 204.442 0.619611 1.57662 0
M  V30 2301 O 205.648 0.801457 1.61173 0
M  V30 2302 H 202.023 0.554141 0.508362 0
M  V30 2303 H 203.994 2.68389 1.30422 0
M  V30 2304 C 202.743 1.91262 2.90369 0
M  V30 2305 H 202.066 2.77872 2.8745 0
M  V30 2306 H 203.506 2.11581 3.67436 0
M  V30 2307 C 201.965 0.677431 3.30019 0
M  V30 2308 O 202.495 -0.158799 4.01386 0
M  V30 2309 N 200.701 0.515851 2.85985 0
M  V30 2310 H 200.248 1.19744 2.28077 0
M  V30 2311 H 200.206 -0.309315 3.12875 0
M  V30 2312 N 203.978 -0.674533 1.42435 0
M  V30 2313 C 204.91 -1.80005 1.41883 0
M  V30 2314 C 205.923 -1.59667 0.31787 0
M  V30 2315 O 207.112 -1.68781 0.580973 0
M  V30 2316 C 204.212 -3.17114 1.19549 0
M  V30 2317 C 203.385 -3.64299 2.42084 0
M  V30 2318 C 202.444 -4.80142 2.15291 0
M  V30 2319 O 201.47 -4.90673 2.88493 0
M  V30 2320 N 202.672 -5.68869 1.1562 0
M  V30 2321 H 205.437 -1.80964 2.38898 0
M  V30 2322 H 202.998 -0.857633 1.37318 0
M  V30 2323 H 204.99 -3.92267 0.995417 0
M  V30 2324 H 203.56 -3.11053 0.310569 0
M  V30 2325 H 202.78 -2.79822 2.77657 0
M  V30 2326 H 204.068 -3.92567 3.23679 0
M  V30 2327 H 203.466 -5.63012 0.550765 0
M  V30 2328 H 202.023 -6.43833 1.016 0
M  V30 2329 N 205.456 -1.28612 -0.910864 0
M  V30 2330 C 206.867 -1.14406 -1.47541 0
M  V30 2331 C 207.218 0.264901 -1.94403 0
M  V30 2332 O 206.343 1.15942 -1.82719 0
M  V30 2333 C 206.938 -2.07073 -2.68153 0
M  V30 2334 C 205.497 -1.96923 -3.20778 0
M  V30 2335 C 204.644 -1.98646 -1.93481 0
M  V30 2336 H 207.595 -1.41259 -0.723291 0
M  V30 2337 H 207.616 -1.63642 -3.43514 0
M  V30 2338 H 207.128 -3.09611 -2.34015 0
M  V30 2339 H 205.229 -0.97433 -3.59635 0
M  V30 2340 H 205.342 -2.84026 -3.85832 0
M  V30 2341 H 203.706 -1.43093 -2.10705 0
M  V30 2342 H 204.489 -3.02868 -1.61634 0
M  V30 2343 N 206.934 1.1197 -1.10907 0
M  V30 2344 C 207.844 2.21433 -0.774896 0
M  V30 2345 C 208.86 1.72478 0.229657 0
M  V30 2346 O 210.036 2.01288 0.0672008 0
M  V30 2347 C 207.101 3.4602 -0.216986 0
M  V30 2348 C 206.162 4.09791 -1.27944 0
M  V30 2349 C 205.395 5.28431 -0.748055 0
M  V30 2350 O 205.618 5.68823 0.423833 0
M  V30 2351 O 204.552 5.82644 -1.51027 0
M  V30 2352 H 208.378 2.5242 -1.68873 0
M  V30 2353 H 205.963 1.20399 -0.884555 0
M  V30 2354 H 207.845 4.21304 0.090059 0
M  V30 2355 H 206.52 3.16698 0.669633 0
M  V30 2356 H 205.427 3.36265 -1.63941 0
M  V30 2357 H 206.76 4.4328 -2.13925 0
M  V30 2358 N 208.412 0.89855 1.29475 0
M  V30 2359 C 209.828 0.594483 1.48115 0
M  V30 2360 C 210.028 -0.86431 1.82022 0
M  V30 2361 O 209.084 -1.64457 1.91599 0
M  V30 2362 C 210.397 1.51932 2.59494 0
M  V30 2363 C 211.945 1.5244 2.7337 0
M  V30 2364 C 212.42 2.43548 3.87877 0
M  V30 2365 N 213.911 2.41589 3.95208 0
M  V30 2366 C 214.646 3.08789 4.83153 0
M  V30 2367 N 214.142 3.85265 5.75798 0
M  V30 2368 N 215.935 2.97952 4.76635 0
M  V30 2369 H 208.086 1.84207 1.05742 0
M  V30 2370 H 210.349 0.789251 0.525154 0
M  V30 2371 H 210.055 2.55865 2.41301 0
M  V30 2372 H 209.929 1.23899 3.56271 0
M  V30 2373 H 212.316 0.492518 2.90961 0
M  V30 2374 H 212.397 1.8451 1.77172 0
M  V30 2375 H 212.041 3.46829 3.71041 0
M  V30 2376 H 211.971 2.08788 4.83441 0
M  V30 2377 H 214.462 1.86025 3.28943 0
M  V30 2378 H 214.775 4.33598 6.39697 0
M  V30 2379 H 213.12 3.89371 5.75687 0
M  V30 2380 H 216.311 2.37723 4.03244 0
M  V30 2381 H 216.484 3.50599 5.44962 0
M  V30 2382 N 209.89 -1.43072 0.660911 0
M  V30 2383 C 210.82 -2.33497 -0.0122829 0
M  V30 2384 C 211.801 -1.49903 -0.803925 0
M  V30 2385 O 212.986 -1.78546 -0.763864 0
M  V30 2386 C 210.116 -3.33363 -0.973994 0
M  V30 2387 C 209.07 -4.27003 -0.291928 0
M  V30 2388 C 208.396 -5.16967 -1.36562 0
M  V30 2389 C 209.696 -5.15816 0.820462 0
M  V30 2390 H 211.39 -2.90038 0.742873 0
M  V30 2391 H 208.936 -1.39461 0.358688 0
M  V30 2392 H 210.889 -3.95524 -1.45392 0
M  V30 2393 H 209.613 -2.75095 -1.7604 0
M  V30 2394 H 208.272 -3.66217 0.167623 0
M  V30 2395 H 207.92 -4.55034 -2.14366 0
M  V30 2396 H 207.62 -5.80441 -0.914454 0
M  V30 2397 H 209.144 -5.82003 -1.84675 0
M  V30 2398 H 210.558 -5.71742 0.422366 0
M  V30 2399 H 208.955 -5.8805 1.19656 0
M  V30 2400 H 210.025 -4.55045 1.67518 0
M  V30 2401 N 211.368 -0.403325 -1.52352 0
M  V30 2402 C 212.316 0.439752 -2.28405 0
M  V30 2403 C 213.31 1.05089 -1.32863 0
M  V30 2404 O 214.516 0.989759 -1.50345 0
M  V30 2405 H 210.891 0.160587 -0.734653 0
M  V30 2406 H 212.862 -0.222983 -2.97566 0
M  V30 2407 C 211.611 1.54736 -3.11371 0
M  V30 2408 H 210.934 1.08643 -3.84755 0
M  V30 2409 H 212.374 2.1112 -3.67701 0
M  V30 2410 C 210.833 2.51141 -2.24566 0
M  V30 2411 O 211.363 3.54887 -1.88196 0
M  V30 2412 N 209.569 2.21213 -1.8845 0
M  V30 2413 H 209.116 1.36878 -2.18225 0
M  V30 2414 H 209.074 2.85963 -1.30662 0
M  V30 2415 N 212.846 1.57033 -0.133567 0
M  V30 2416 C 213.809 2.14897 0.796995 0
M  V30 2417 C 214.809 1.0874 1.18458 0
M  V30 2418 O 215.999 1.34446 1.1077 0
M  V30 2419 C 213.131 2.70112 2.07973 0
M  V30 2420 H 214.324 2.98457 0.293873 0
M  V30 2421 H 211.877 1.55871 0.115787 0
M  V30 2422 H 212.612 1.9018 2.62682 0
M  V30 2423 H 212.397 3.47764 1.81115 0
M  V30 2424 H 213.887 3.14738 2.74462 0
M  V30 2425 N 214.325 -0.140222 1.56975 0
M  V30 2426 C 215.573 -0.850005 1.83356 0
M  V30 2427 C 215.894 -1.81399 0.71551 0
M  V30 2428 O 215.164 -1.94136 -0.262294 0
M  V30 2429 H 213.744 -0.316886 0.676456 0
M  V30 2430 H 216.406 -0.132608 1.94448 0
M  V30 2431 H 215.502 -1.40814 2.78528 0
M  V30 2432 N 215.803 -1.52179 -0.40978 0
M  V30 2433 C 217.031 -1.70054 -1.17853 0
M  V30 2434 C 217.446 -0.409735 -1.843 0
M  V30 2435 O 216.803 0.614183 -1.71855 0
M  V30 2436 C 216.854 -2.83568 -2.24213 0
M  V30 2437 O 216.575 -4.0765 -1.60478 0
M  V30 2438 C 218.076 -3.12947 -3.13973 0
M  V30 2439 H 215.296 -0.569917 -0.354169 0
M  V30 2440 H 217.84 -1.98734 -0.482198 0
M  V30 2441 H 215.995 -2.57409 -2.89516 0
M  V30 2442 H 216.409 -4.70899 -2.30986 0
M  V30 2443 H 217.883 -3.95889 -3.84677 0
M  V30 2444 H 218.36 -2.26472 -3.76307 0
M  V30 2445 H 218.966 -3.40868 -2.5434 0
M  V30 2446 N 217.281 0.66697 -1.42791 0
M  V30 2447 C 218.511 1.45294 -1.46878 0
M  V30 2448 C 218.919 1.89027 -0.0809861 0
M  V30 2449 O 218.262 1.59219 0.916246 0
M  V30 2450 C 218.324 2.72908 -2.34012 0
M  V30 2451 C 217.988 2.51203 -3.81767 0
M  V30 2452 C 218.985 2.15302 -4.73224 0
M  V30 2453 C 216.67 2.65954 -4.26115 0
M  V30 2454 C 218.664 1.94431 -6.07022 0
M  V30 2455 C 216.351 2.44699 -5.59969 0
M  V30 2456 C 217.349 2.08992 -6.5024 0
M  V30 2457 O 217.037 1.87948 -7.81621 0
M  V30 2458 H 216.769 0.453306 -0.501487 0
M  V30 2459 H 219.323 0.826232 -1.88049 0
M  V30 2460 H 217.553 3.38089 -1.87703 0
M  V30 2461 H 219.242 3.34816 -2.29462 0
M  V30 2462 H 220.008 2.03495 -4.40244 0
M  V30 2463 H 215.887 2.92724 -3.56137 0
M  V30 2464 H 219.431 1.66484 -6.77443 0
M  V30 2465 H 215.328 2.56105 -5.9252 0
M  V30 2466 H 216.096 2.02483 -7.93059 0
M  V30 2467 N 218.759 1.29093 0.90403 0
M  V30 2468 C 220.006 1.16813 1.65411 0
M  V30 2469 C 220.334 -0.28128 1.92455 0
M  V30 2470 O 219.589 -1.22006 1.53013 0
M  V30 2471 C 219.888 1.92224 3.01305 0
M  V30 2472 C 219.554 3.41968 2.93885 0
M  V30 2473 C 218.216 3.82807 2.91569 0
M  V30 2474 C 220.568 4.37409 2.83413 0
M  V30 2475 C 217.896 5.1741 2.76594 0
M  V30 2476 C 220.248 5.72097 2.69977 0
M  V30 2477 C 218.912 6.12199 2.66024 0
M  V30 2478 H 218.182 0.42745 0.605283 0
M  V30 2479 H 220.829 1.59981 1.05254 0
M  V30 2480 H 219.134 1.41635 3.65304 0
M  V30 2481 H 220.831 1.80131 3.58265 0
M  V30 2482 H 217.421 3.09504 2.96488 0
M  V30 2483 H 221.605 4.06813 2.84283 0
M  V30 2484 H 216.861 5.47596 2.71935 0
M  V30 2485 H 221.035 6.45704 2.60844 0
M  V30 2486 H 218.662 7.16448 2.54178 0
M  V30 2487 N 220.237 -1.11381 1.11499 0
M  V30 2488 C 221.167 -2.19509 0.796125 0
M  V30 2489 C 222.148 -1.68458 -0.235796 0
M  V30 2490 O 223.333 -1.93947 -0.0991344 0
M  V30 2491 C 220.463 -3.46475 0.239205 0
M  V30 2492 C 219.417 -4.10744 1.20307 0
M  V30 2493 C 218.743 -5.32293 0.50683 0
M  V30 2494 C 220.043 -4.55597 2.55399 0
M  V30 2495 H 221.737 -2.46439 1.70024 0
M  V30 2496 H 219.283 -1.18446 0.818935 0
M  V30 2497 H 221.236 -4.214 0.00392006 0
M  V30 2498 H 219.96 -3.19006 -0.700206 0
M  V30 2499 H 218.619 -3.37813 1.42399 0
M  V30 2500 H 218.267 -5.01095 -0.437408 0
M  V30 2501 H 217.967 -5.76243 1.1497 0
M  V30 2502 H 219.491 -6.09956 0.280351 0
M  V30 2503 H 220.905 -5.21841 2.37391 0
M  V30 2504 H 219.302 -5.10363 3.15673 0
M  V30 2505 H 220.372 -3.69013 3.14575 0
M  V30 2506 N 221.715 -0.905404 -1.28997 0
M  V30 2507 C 222.962 -0.534248 -1.95325 0
M  V30 2508 C 223.29 0.920535 -1.71337 0
M  V30 2509 O 222.545 1.66861 -1.02254 0
M  V30 2510 C 222.844 -0.779906 -3.48787 0
M  V30 2511 C 222.51 -2.21293 -3.92861 0
M  V30 2512 C 221.172 -2.60475 -4.04606 0
M  V30 2513 C 223.524 -3.14587 -4.15553 0
M  V30 2514 C 220.852 -3.9212 -4.36416 0
M  V30 2515 C 223.204 -4.45787 -4.48839 0
M  V30 2516 C 221.868 -4.84834 -4.58794 0
M  V30 2517 H 221.138 -0.195495 -0.714747 0
M  V30 2518 H 223.785 -1.14514 -1.53488 0
M  V30 2519 H 222.09 -0.0861365 -3.91705 0
M  V30 2520 H 223.787 -0.472029 -3.98212 0
M  V30 2521 H 220.377 -1.89887 -3.84241 0
M  V30 2522 H 224.561 -2.85528 -4.0594 0
M  V30 2523 H 219.817 -4.22086 -4.42327 0
M  V30 2524 H 223.991 -5.18098 -4.65346 0
M  V30 2525 H 221.618 -5.86877 -4.83197 0
M  V30 2526 N 223.193 1.4272 -0.668489 0
M  V30 2527 C 224.423 2.05668 -0.196063 0
M  V30 2528 C 224.831 1.5028 1.14946 0
M  V30 2529 O 224.174 0.6348 1.72383 0
M  V30 2530 C 224.236 3.59469 -0.0468879 0
M  V30 2531 C 223.9 4.37518 -1.32012 0
M  V30 2532 C 224.897 4.68584 -2.25222 0
M  V30 2533 C 222.582 4.77266 -1.56596 0
M  V30 2534 C 224.576 5.38326 -3.41297 0
M  V30 2535 C 222.263 5.4675 -2.72962 0
M  V30 2536 C 223.261 5.77204 -3.65137 0
M  V30 2537 O 222.949 6.45264 -4.79468 0
M  V30 2538 H 222.681 0.669382 -0.0943599 0
M  V30 2539 H 225.235 1.83954 -0.913788 0
M  V30 2540 H 223.465 3.79817 0.726357 0
M  V30 2541 H 225.154 4.04071 0.384852 0
M  V30 2542 H 225.92 4.38382 -2.07477 0
M  V30 2543 H 221.799 4.52959 -0.857249 0
M  V30 2544 H 225.343 5.62014 -4.13263 0
M  V30 2545 H 221.24 5.76369 -2.90635 0
M  V30 2546 H 222.008 6.63753 -4.78931 0
M  V30 2547 N 224.671 0.411399 1.52136 0
M  V30 2548 C 225.899 -0.163076 2.06256 0
M  V30 2549 C 226.314 -1.3867 1.28125 0
M  V30 2550 O 225.671 -1.79423 0.333721 0
M  V30 2551 C 225.722 -0.511252 3.57867 0
M  V30 2552 O 225.443 0.66378 4.33042 0
M  V30 2553 C 226.944 -1.13921 4.28412 0
M  V30 2554 H 224.164 -0.0193897 0.67072 0
M  V30 2555 H 226.708 0.583007 1.96013 0
M  V30 2556 H 224.863 -1.20723 3.6811 0
M  V30 2557 H 225.277 0.372601 5.23175 0
M  V30 2558 H 226.751 -1.33302 5.35663 0
M  V30 2559 H 227.228 -2.11296 3.85033 0
M  V30 2560 H 227.834 -0.483373 4.22544 0
M  V30 2561 N 226.149 -1.5696 0.141893 0
M  V30 2562 C 227.079 -2.19516 -0.795936 0
M  V30 2563 C 228.06 -1.14187 -1.26077 0
M  V30 2564 O 229.245 -1.42511 -1.31925 0
M  V30 2565 C 226.375 -2.81272 -2.03723 0
M  V30 2566 C 225.329 -3.92384 -1.70936 0
M  V30 2567 C 224.655 -4.41052 -3.02287 0
M  V30 2568 C 225.955 -5.13403 -0.959954 0
M  V30 2569 H 227.649 -2.98138 -0.274596 0
M  V30 2570 H 225.195 -1.43406 -0.130636 0
M  V30 2571 H 227.148 -3.237 -2.69808 0
M  V30 2572 H 225.872 -1.99973 -2.58221 0
M  V30 2573 H 224.531 -3.50566 -1.07232 0
M  V30 2574 H 224.179 -3.56582 -3.54765 0
M  V30 2575 H 223.879 -5.15993 -2.81114 0
M  V30 2576 H 225.403 -4.86146 -3.69451 0
M  V30 2577 H 226.817 -5.52706 -1.52279 0
M  V30 2578 H 225.214 -5.94073 -0.848357 0
M  V30 2579 H 226.284 -4.84875 0.0492434 0
M  V30 2580 N 227.627 0.131896 -1.57047 0
M  V30 2581 C 228.873 0.843179 -1.84441 0
M  V30 2582 C 229.206 1.80129 -0.725749 0
M  V30 2583 O 228.481 1.92624 0.269469 0
M  V30 2584 C 228.764 1.60442 -3.22382 0
M  V30 2585 C 228.617 0.666782 -4.4483 0
M  V30 2586 C 229.936 2.56354 -3.5773 0
M  V30 2587 H 227.055 0.305081 -0.670891 0
M  V30 2588 H 229.697 0.107839 -1.89694 0
M  V30 2589 H 227.847 2.23128 -3.18035 0
M  V30 2590 H 229.519 0.0497646 -4.61273 0
M  V30 2591 H 227.762 -0.022609 -4.33794 0
M  V30 2592 H 228.433 1.23579 -5.37989 0
M  V30 2593 H 230.909 2.0378 -3.62785 0
M  V30 2594 H 229.785 3.06657 -4.5525 0
M  V30 2595 H 230.046 3.38419 -2.84473 0
M  V30 2596 N 229.106 1.52395 0.401703 0
M  V30 2597 C 230.354 1.66488 1.14569 0
M  V30 2598 C 230.675 0.400897 1.90835 0
M  V30 2599 O 229.945 -0.584415 1.8698 0
M  V30 2600 H 228.525 0.613672 0.425929 0
M  V30 2601 H 231.187 1.89464 0.457093 0
M  V30 2602 H 230.283 2.50942 1.85566 0
M  V30 2603 N 230.584 -0.659388 1.43143 0
M  V30 2604 C 231.809 -1.45221 1.48073 0
M  V30 2605 C 232.234 -1.87845 0.097995 0
M  V30 2606 O 231.592 -1.56985 -0.90694 0
M  V30 2607 C 231.64 -2.66748 2.42647 0
M  V30 2608 O 230.744 -3.65583 1.90848 0
M  V30 2609 H 230.085 -0.435669 0.501088 0
M  V30 2610 H 232.615 -0.807432 1.87994 0
M  V30 2611 H 232.625 -3.14637 2.59745 0
M  V30 2612 H 231.3 -2.35067 3.43098 0
M  V30 2613 H 229.877 -3.24693 1.83381 0
M  V30 2614 N 232.062 -1.29571 -0.897171 0
M  V30 2615 C 232.992 -1.17473 -2.01798 0
M  V30 2616 C 233.973 -0.068323 -1.69963 0
M  V30 2617 O 235.158 -0.248239 -1.92607 0
M  V30 2618 C 232.288 -0.853099 -3.36659 0
M  V30 2619 C 231.242 -1.9161 -3.82713 0
M  V30 2620 C 230.568 -1.44773 -5.14728 0
M  V30 2621 C 231.868 -3.32535 -4.02763 0
M  V30 2622 H 233.562 -2.11237 -2.12177 0
M  V30 2623 H 231.108 -1.01699 -1.01948 0
M  V30 2624 H 233.061 -0.755165 -4.14578 0
M  V30 2625 H 231.785 0.120236 -3.26379 0
M  V30 2626 H 230.444 -2.00346 -3.07013 0
M  V30 2627 H 230.092 -0.462995 -5.00865 0
M  V30 2628 H 229.792 -2.15865 -5.46513 0
M  V30 2629 H 231.316 -1.36334 -5.95185 0
M  V30 2630 H 232.73 -3.26626 -4.71156 0
M  V30 2631 H 231.127 -4.01607 -4.45905 0
M  V30 2632 H 232.197 -3.75326 -3.07016 0
M  V30 2633 N 233.54 1.10788 -1.12088 0
M  V30 2634 C 234.951 1.64181 -0.88891 0
M  V30 2635 C 235.302 1.87508 0.577498 0
M  V30 2636 O 234.427 1.61434 1.44112 0
M  V30 2637 C 235.022 2.98257 -1.60712 0
M  V30 2638 C 233.581 3.4853 -1.42139 0
M  V30 2639 C 232.728 2.23208 -1.6454 0
M  V30 2640 H 235.679 0.943368 -1.27618 0
M  V30 2641 H 235.7 3.65552 -1.05604 0
M  V30 2642 H 235.212 2.81246 -2.67436 0
M  V30 2643 H 233.313 3.70692 -0.376552 0
M  V30 2644 H 233.426 4.26882 -2.17505 0
M  V30 2645 H 231.79 2.31169 -1.06925 0
M  V30 2646 H 232.573 2.08733 -2.72554 0
M  V30 2647 N 235.018 0.912232 1.28515 0
M  V30 2648 C 235.948 0.416403 2.29757 0
M  V30 2649 C 236.929 -0.515194 1.6211 0
M  V30 2650 O 238.114 -0.423253 1.89532 0
M  V30 2651 C 235.244 -0.34572 3.45575 0
M  V30 2652 C 234.198 0.496599 4.25109 0
M  V30 2653 C 233.524 -0.393771 5.33248 0
M  V30 2654 C 234.824 1.75307 4.92001 0
M  V30 2655 H 236.518 1.26249 2.7148 0
M  V30 2656 H 234.064 0.608515 1.30511 0
M  V30 2657 H 236.017 -0.703422 4.15488 0
M  V30 2658 H 234.741 -1.2257 3.02728 0
M  V30 2659 H 233.4 0.8368 3.56922 0
M  V30 2660 H 233.048 -1.27225 4.86644 0
M  V30 2661 H 232.748 0.166209 5.87365 0
M  V30 2662 H 234.272 -0.747389 6.06009 0
M  V30 2663 H 235.686 1.46437 5.54283 0
M  V30 2664 H 234.083 2.25534 5.56106 0
M  V30 2665 H 235.153 2.48176 4.16577 0
M  V30 2666 N 236.496 -1.42363 0.676048 0
M  V30 2667 C 237.426 -2.33497 0.0124832 0
M  V30 2668 C 238.407 -1.50748 -0.787981 0
M  V30 2669 O 239.592 -1.79346 -0.744884 0
M  V30 2670 C 236.722 -3.34377 -0.938582 0
M  V30 2671 C 235.676 -4.27289 -0.246622 0
M  V30 2672 C 235.002 -5.18386 -1.31071 0
M  V30 2673 C 236.302 -5.14916 0.875125 0
M  V30 2674 H 237.996 -2.89233 0.773593 0
M  V30 2675 H 235.542 -1.39073 0.37346 0
M  V30 2676 H 237.495 -3.97044 -1.41188 0
M  V30 2677 H 236.219 -2.76947 -1.73113 0
M  V30 2678 H 234.878 -3.66018 0.206456 0
M  V30 2679 H 234.526 -4.57282 -2.09528 0
M  V30 2680 H 234.226 -5.81378 -0.852839 0
M  V30 2681 H 235.75 -5.83929 -1.78492 0
M  V30 2682 H 237.164 -5.71262 0.482983 0
M  V30 2683 H 235.561 -5.86747 1.25887 0
M  V30 2684 H 236.631 -4.53242 1.72335 0
M  V30 2685 N 237.974 -0.419461 -1.51915 0
M  V30 2686 C 239.223 0.154346 -2.01109 0
M  V30 2687 C 239.536 1.45338 -1.30905 0
M  V30 2688 O 240.742 2.10906 -1.7097 0
M  V30 2689 C 239.198 0.325615 -3.58424 0
M  V30 2690 C 238.806 -0.961934 -4.37551 0
M  V30 2691 C 240.55 0.854155 -4.15818 0
M  V30 2692 C 238.457 -0.757287 -5.86531 0
M  V30 2693 H 237.387 0.0614563 -0.751491 0
M  V30 2694 H 240.038 -0.54649 -1.75173 0
M  V30 2695 H 238.42 1.08903 -3.80731 0
M  V30 2696 H 239.594 -1.7323 -4.26999 0
M  V30 2697 H 237.909 -1.41766 -3.91524 0
M  V30 2698 H 240.506 1.02346 -5.24814 0
M  V30 2699 H 240.849 1.83172 -3.73837 0
M  V30 2700 H 241.382 0.149528 -3.97519 0
M  V30 2701 H 238.121 -1.70671 -6.32892 0
M  V30 2702 H 237.641 -0.0264061 -5.99794 0
M  V30 2703 H 239.32 -0.403482 -6.45741 0
M  V30 2704 N 239.452 1.56882 -0.150215 0
M  V30 2705 C 240.415 2.1573 0.774157 0
M  V30 2706 C 241.415 1.0999 1.17298 0
M  V30 2707 O 242.605 1.35613 1.09338 0
M  V30 2708 C 239.737 2.72302 2.05096 0
M  V30 2709 H 240.93 2.98752 0.262201 0
M  V30 2710 H 238.483 1.55985 0.099248 0
M  V30 2711 H 239.218 1.92956 2.6065 0
M  V30 2712 H 239.003 3.49665 1.77416 0
M  V30 2713 H 240.493 3.17632 2.71109 0
M  V30 2714 N 240.93 -0.123565 1.57115 0
M  V30 2715 C 241.86 -1.15309 2.03042 0
M  V30 2716 C 242.841 -1.43454 0.914061 0
M  V30 2717 O 244.026 -1.53973 1.18347 0
M  V30 2718 C 241.156 -2.48043 2.43089 0
M  V30 2719 C 240.11 -2.3437 3.58127 0
M  V30 2720 C 239.436 -3.72026 3.84059 0
M  V30 2721 C 240.736 -1.80804 4.90007 0
M  V30 2722 H 242.43 -0.771102 2.893 0
M  V30 2723 H 239.976 -0.369479 1.39179 0
M  V30 2724 H 241.929 -3.20311 2.73823 0
M  V30 2725 H 240.653 -2.88122 1.53796 0
M  V30 2726 H 239.312 -1.64551 3.27595 0
M  V30 2727 H 238.96 -4.09582 2.91979 0
M  V30 2728 H 238.66 -3.63732 4.6149 0
M  V30 2729 H 240.184 -4.45806 4.1724 0
M  V30 2730 H 241.598 -2.42886 5.19307 0
M  V30 2731 H 239.995 -1.83343 5.71407 0
M  V30 2732 H 241.065 -0.76528 4.78823 0
M  V30 2733 N 242.408 -1.52605 -0.393616 0
M  V30 2734 C 243.657 -1.66649 -1.13627 0
M  V30 2735 C 243.97 -0.410364 -1.91247 0
M  V30 2736 O 245.176 -0.430854 -2.68059 0
M  V30 2737 C 243.632 -2.9449 -2.06891 0
M  V30 2738 C 243.24 -4.27266 -1.34714 0
M  V30 2739 C 244.984 -3.17899 -2.81319 0
M  V30 2740 C 242.891 -5.46217 -2.26717 0
M  V30 2741 H 241.821 -0.62084 -0.427871 0
M  V30 2742 H 244.472 -1.791 -0.399428 0
M  V30 2743 H 242.854 -2.75774 -2.84191 0
M  V30 2744 H 244.028 -4.56518 -0.626714 0
M  V30 2745 H 242.343 -4.10081 -0.722643 0
M  V30 2746 H 244.94 -4.03949 -3.50328 0
M  V30 2747 H 245.283 -2.32777 -3.45139 0
M  V30 2748 H 245.816 -3.37159 -2.11113 0
M  V30 2749 H 242.555 -6.33733 -1.67521 0
M  V30 2750 H 242.075 -5.21283 -2.96689 0
M  V30 2751 H 243.754 -5.7991 -2.86903 0
M  V30 2752 N 243.887 0.651787 -1.4349 0
M  V30 2753 C 245.117 1.43728 -1.48411 0
M  V30 2754 C 245.525 1.8893 -0.10103 0
M  V30 2755 O 244.868 1.60182 0.899307 0
M  V30 2756 C 244.93 2.70411 -2.36893 0
M  V30 2757 C 244.594 2.4714 -3.8441 0
M  V30 2758 C 245.591 2.10271 -4.75481 0
M  V30 2759 C 243.276 2.6142 -4.28912 0
M  V30 2760 C 245.27 1.87982 -6.0905 0
M  V30 2761 C 242.957 2.38746 -5.62533 0
M  V30 2762 C 243.955 2.02083 -6.5242 0
M  V30 2763 O 243.643 1.79647 -7.8357 0
M  V30 2764 H 243.375 0.447962 -0.506267 0
M  V30 2765 H 245.929 0.80624 -1.88915 0
M  V30 2766 H 244.159 3.36079 -1.91278 0
M  V30 2767 H 245.848 3.32364 -2.33 0
M  V30 2768 H 246.614 1.98814 -4.42378 0
M  V30 2769 H 242.493 2.88931 -3.59222 0
M  V30 2770 H 246.037 1.5929 -6.7917 0
M  V30 2771 H 241.934 2.49806 -5.95203 0
M  V30 2772 H 242.702 1.9406 -7.95162 0
M  V30 2773 N 245.365 1.30045 0.890287 0
M  V30 2774 C 246.593 1.21472 1.67487 0
M  V30 2775 C 247.008 -0.223241 1.87476 0
M  V30 2776 O 246.365 -1.14828 1.41847 0
M  V30 2777 C 246.416 1.93394 3.05419 0
M  V30 2778 O 246.137 3.31576 2.86337 0
M  V30 2779 C 247.638 1.91414 3.99844 0
M  V30 2780 H 244.858 0.420604 0.522813 0
M  V30 2781 H 247.402 1.7158 1.11268 0
M  V30 2782 H 245.557 1.47099 3.58386 0
M  V30 2783 H 245.971 3.67929 3.73802 0
M  V30 2784 H 247.445 2.46285 4.94012 0
M  V30 2785 H 247.922 0.891833 4.3005 0
M  V30 2786 H 248.528 2.37496 3.52811 0
M  V30 2787 N 246.843 -1.10192 1.12674 0
M  V30 2788 C 247.793 -2.14754 0.765801 0
M  V30 2789 C 248.777 -1.59154 -0.236409 0
M  V30 2790 O 249.969 -1.76951 -0.0415261 0
M  V30 2791 C 247.098 -3.42563 0.224827 0
M  V30 2792 C 246.184 -4.05091 1.25548 0
M  V30 2793 N 246.575 -4.42287 2.4539 0
M  V30 2794 C 244.873 -4.32186 1.10142 0
M  V30 2795 C 245.574 -4.91441 3.11224 0
M  V30 2796 N 244.55 -4.88405 2.38666 0
M  V30 2797 H 248.352 -2.41309 1.67772 0
M  V30 2798 H 245.866 -1.27339 1.00789 0
M  V30 2799 H 247.863 -4.16868 -0.0519578 0
M  V30 2800 H 246.523 -3.17467 -0.681515 0
M  V30 2801 H 247.534 -4.33902 2.82754 0
M  V30 2802 H 244.211 -4.16735 0.252587 0
M  V30 2803 H 245.601 -5.29749 4.13298 0
M  V30 2804 N 248.321 -0.919034 -1.28029 0
M  V30 2805 C 249.269 -0.401753 -2.29104 0
M  V30 2806 C 250.263 0.509354 -1.61561 0
M  V30 2807 O 251.469 0.390014 -1.75724 0
M  V30 2808 H 247.844 -0.111331 -0.743713 0
M  V30 2809 H 249.815 -1.2672 -2.70156 0
M  V30 2810 C 248.564 0.338148 -3.46052 0
M  V30 2811 H 247.887 -0.353732 -3.98232 0
M  V30 2812 H 249.327 0.664653 -4.18758 0
M  V30 2813 C 247.786 1.54798 -2.99231 0
M  V30 2814 O 248.316 2.64696 -3.02157 0
M  V30 2815 N 246.522 1.3968 -2.54829 0
M  V30 2816 H 246.069 0.502698 -2.52647 0
M  V30 2817 H 246.027 2.20755 -2.23863 0
M  V30 2818 N 249.799 1.42003 -0.683588 0
M  V30 2819 C 251.027 2.05746 -0.218182 0
M  V30 2820 C 251.442 1.51396 1.12804 0
M  V30 2821 O 250.799 0.657303 1.70252 0
M  V30 2822 C 250.85 3.61171 -0.154131 0
M  V30 2823 O 250.571 4.13508 -1.44716 0
M  V30 2824 C 252.072 4.42042 0.333713 0
M  V30 2825 H 249.292 0.662888 -0.10402 0
M  V30 2826 H 251.836 1.81987 -0.9328 0
M  V30 2827 H 249.991 3.84012 0.511231 0
M  V30 2828 H 250.405 5.07453 -1.32632 0
M  V30 2829 H 251.879 5.51028 0.327423 0
M  V30 2830 H 252.356 4.17269 1.37053 0
M  V30 2831 H 252.962 4.24239 -0.300222 0
M  V30 2832 N 251.277 0.427512 1.51691 0
M  V30 2833 C 252.207 -0.3796 2.30394 0
M  V30 2834 C 253.188 -1.02982 1.35384 0
M  V30 2835 O 254.373 -1.03534 1.643 0
M  V30 2836 C 251.503 -1.48649 3.1388 0
M  V30 2837 C 250.457 -0.960294 4.17088 0
M  V30 2838 C 249.783 -2.16219 4.89033 0
M  V30 2839 C 251.083 -0.00153679 5.223 0
M  V30 2840 H 252.777 0.277164 2.98114 0
M  V30 2841 H 250.323 0.134739 1.43368 0
M  V30 2842 H 252.276 -2.05826 3.67714 0
M  V30 2843 H 251 -2.1714 2.43962 0
M  V30 2844 H 249.659 -0.410806 3.64291 0
M  V30 2845 H 249.307 -2.83307 4.15628 0
M  V30 2846 H 249.007 -1.81654 5.58816 0
M  V30 2847 H 250.531 -2.73968 5.45687 0
M  V30 2848 H 251.945 -0.482687 5.71264 0
M  V30 2849 H 250.342 0.256199 5.99553 0
M  V30 2850 H 251.412 0.938174 4.75738 0
M  V30 2851 N 252.755 -1.56801 0.158532 0
M  V30 2852 C 254.003 -1.96102 -0.488712 0
M  V30 2853 C 254.324 -1.04498 -1.64636 0
M  V30 2854 O 253.594 -0.108783 -1.95598 0
M  V30 2855 H 252.174 -0.724102 -0.183535 0
M  V30 2856 H 254.836 -1.93457 0.236728 0
M  V30 2857 H 253.932 -3.00097 -0.857219 0
M  V30 2858 N 254.233 0.115231 -1.57178 0
M  V30 2859 C 255.458 0.840354 -1.89612 0
M  V30 2860 C 255.883 1.72464 -0.750845 0
M  V30 2861 O 255.241 1.78826 0.298478 0
M  V30 2862 C 255.289 1.64654 -3.20814 0
M  V30 2863 O 254.393 2.7538 -3.06985 0
M  V30 2864 H 253.734 0.232158 -0.622092 0
M  V30 2865 H 256.264 0.0964977 -2.04372 0
M  V30 2866 H 256.274 2.03499 -3.53627 0
M  V30 2867 H 254.949 0.997416 -4.03763 0
M  V30 2868 H 253.526 2.3971 -2.85646 0
M  V30 2869 N 255.711 1.52812 0.385517 0
M  V30 2870 C 256.641 1.80808 1.47752 0
M  V30 2871 C 257.622 0.660318 1.5676 0
M  V30 2872 O 258.807 0.908246 1.71652 0
M  V30 2873 C 255.937 1.98008 2.85324 0
M  V30 2874 C 254.891 3.13709 2.91154 0
M  V30 2875 C 254.217 3.16169 4.31209 0
M  V30 2876 C 255.517 4.52709 2.60483 0
M  V30 2877 H 257.211 2.72253 1.24573 0
M  V30 2878 H 254.757 1.31003 0.597839 0
M  V30 2879 H 256.71 2.16176 3.61726 0
M  V30 2880 H 255.434 1.03255 3.09848 0
M  V30 2881 H 254.093 2.95329 2.17201 0
M  V30 2882 H 253.741 2.19092 4.52778 0
M  V30 2883 H 253.441 3.93894 4.36029 0
M  V30 2884 H 254.965 3.36496 5.09512 0
M  V30 2885 H 256.379 4.71173 3.26602 0
M  V30 2886 H 254.776 5.32528 2.76648 0
M  V30 2887 H 255.846 4.59186 1.55809 0
M  V30 2888 N 257.189 -0.644168 1.43834 0
M  V30 2889 C 258.137 -1.77793 1.49974 0
M  V30 2890 C 259.131 -1.65253 0.372536 0
M  V30 2891 O 260.337 -1.7149 0.546924 0
M  V30 2892 H 256.712 -0.58675 0.47035 0
M  V30 2893 H 258.683 -1.69736 2.45423 0
M  V30 2894 C 257.432 -3.16087 1.4486 0
M  V30 2895 H 256.755 -3.26378 2.30905 0
M  V30 2896 H 258.195 -3.95349 1.53217 0
M  V30 2897 C 256.654 -3.36484 0.167463 0
M  V30 2898 O 257.184 -3.94298 -0.767609 0
M  V30 2899 N 255.39 -2.90504 0.0747556 0
M  V30 2900 H 254.937 -2.4364 0.836507 0
M  V30 2901 H 254.895 -3.04527 -0.781714 0
M  V30 2902 N 258.668 -1.30515 -0.883378 0
M  V30 2903 C 259.917 -1.18795 -1.63005 0
M  V30 2904 C 260.23 0.255923 -1.93919 0
M  V30 2905 O 261.436 0.494654 -2.66956 0
M  V30 2906 C 259.892 -2.07878 -2.93794 0
M  V30 2907 C 259.5 -3.57184 -2.70414 0
M  V30 2908 C 261.244 -2.04924 -3.71761 0
M  V30 2909 C 259.151 -4.38317 -3.97029 0
M  V30 2910 H 258.081 -0.441031 -0.611562 0
M  V30 2911 H 260.732 -1.55275 -0.977854 0
M  V30 2912 H 259.114 -1.64283 -3.60315 0
M  V30 2913 H 260.288 -4.08937 -2.12384 0
M  V30 2914 H 258.603 -3.61976 -2.0582 0
M  V30 2915 H 261.2 -2.62792 -4.65665 0
M  V30 2916 H 261.543 -1.0331 -4.03277 0
M  V30 2917 H 262.076 -2.46649 -3.12104 0
M  V30 2918 H 258.815 -5.40632 -3.70671 0
M  V30 2919 H 258.335 -3.91326 -4.54559 0
M  V30 2920 H 260.014 -4.49834 -4.65036 0
M  V30 2921 N 260.146 1.09593 -1.13257 0
M  V30 2922 C 261.076 2.18214 -0.830946 0
M  V30 2923 C 262.057 1.68812 0.208966 0
M  V30 2924 O 263.242 1.9408 0.0682666 0
M  V30 2925 C 260.372 3.46051 -0.294296 0
M  V30 2926 C 259.326 4.08778 -1.26826 0
M  V30 2927 C 258.652 5.31419 -0.591449 0
M  V30 2928 C 259.952 4.51476 -2.62615 0
M  V30 2929 H 261.646 2.43703 -1.73923 0
M  V30 2930 H 259.192 1.17128 -0.837675 0
M  V30 2931 H 261.145 4.2134 -0.0709606 0
M  V30 2932 H 259.869 3.20079 0.649366 0
M  V30 2933 H 258.528 3.35505 -1.47756 0
M  V30 2934 H 258.176 5.01727 0.357633 0
M  V30 2935 H 257.876 5.74341 -1.24123 0
M  V30 2936 H 259.4 6.09433 -0.377355 0
M  V30 2937 H 260.814 5.17999 -2.45663 0
M  V30 2938 H 259.211 5.05277 -3.23752 0
M  V30 2939 H 260.281 3.63962 -3.20406 0
M  V30 2940 N 261.624 0.925811 1.2754 0
M  V30 2941 C 262.554 0.440748 2.29303 0
M  V30 2942 C 263.535 -0.497971 1.62648 0
M  V30 2943 O 264.72 -0.403126 1.8997 0
M  V30 2944 C 261.85 -0.309048 3.45922 0
M  V30 2945 C 260.804 0.54166 4.24559 0
M  V30 2946 C 260.13 -0.337191 5.33636 0
M  V30 2947 C 261.43 1.80516 4.90114 0
M  V30 2948 H 263.124 1.29121 2.70126 0
M  V30 2949 H 260.67 0.622323 1.29858 0
M  V30 2950 H 262.623 -0.659315 4.1621 0
M  V30 2951 H 261.347 -1.19352 3.04011 0
M  V30 2952 H 260.006 0.874609 3.56014 0
M  V30 2953 H 259.654 -1.22056 4.87966 0
M  V30 2954 H 259.354 0.228497 5.87156 0
M  V30 2955 H 260.878 -0.683072 6.06767 0
M  V30 2956 H 262.292 1.52307 5.52698 0
M  V30 2957 H 260.689 2.3142 5.53683 0
M  V30 2958 H 261.759 2.52581 4.13921 0
M  V30 2959 N 263.102 -1.41638 0.69111 0
M  V30 2960 C 264.032 -2.3347 0.037248 0
M  V30 2961 C 265.013 -1.51575 -0.771947 0
M  V30 2962 O 266.198 -1.80126 -0.72582 0
M  V30 2963 C 263.328 -3.35354 -0.903064 0
M  V30 2964 C 262.282 -4.27526 -0.201288 0
M  V30 2965 C 261.608 -5.19747 -1.25565 0
M  V30 2966 C 262.908 -5.13959 0.929689 0
M  V30 2967 H 264.602 -2.88397 0.804227 0
M  V30 2968 H 262.148 -1.38669 0.388189 0
M  V30 2969 H 264.101 -3.98519 -1.36969 0
M  V30 2970 H 262.825 -2.78767 -1.70166 0
M  V30 2971 H 261.484 -3.65779 0.245265 0
M  V30 2972 H 261.132 -4.59479 -2.04666 0
M  V30 2973 H 260.832 -5.8225 -0.791128 0
M  V30 2974 H 262.356 -5.85789 -1.72288 0
M  V30 2975 H 263.77 -5.70718 0.543546 0
M  V30 2976 H 262.167 -5.85379 1.32103 0
M  V30 2977 H 263.237 -4.51389 1.77133 0
M  V30 2978 N 264.58 -0.43555 -1.51462 0
M  V30 2979 C 265.808 0.130242 -2.0649 0
M  V30 2980 C 266.223 1.36614 -1.30315 0
M  V30 2981 O 265.58 1.78869 -0.362223 0
M  V30 2982 C 265.631 0.454253 -3.58635 0
M  V30 2983 O 265.352 -0.73259 -4.31931 0
M  V30 2984 C 266.853 1.07091 -4.3017 0
M  V30 2985 H 264.073 0.00871669 -0.670943 0
M  V30 2986 H 266.617 -0.614117 -1.95061 0
M  V30 2987 H 264.772 1.14851 -3.69984 0
M  V30 2988 H 265.186 -0.455787 -5.22516 0
M  V30 2989 H 266.66 1.24764 -5.37716 0
M  V30 2990 H 267.137 2.05144 -3.88346 0
M  V30 2991 H 267.743 0.416089 -4.2326 0
M  V30 2992 N 266.058 1.56714 -0.166846 0
M  V30 2993 C 266.988 2.20754 0.760913 0
M  V30 2994 C 267.969 1.16178 1.24244 0
M  V30 2995 O 269.154 1.44592 1.29641 0
M  V30 2996 C 266.284 2.84478 1.99223 0
M  V30 2997 C 265.238 3.95053 1.64672 0
M  V30 2998 C 264.564 4.45805 2.95232 0
M  V30 2999 C 265.864 5.14865 0.878155 0
M  V30 3000 H 267.558 2.98537 0.22713 0
M  V30 3001 H 265.104 1.43596 0.107805 0
M  V30 3002 H 267.057 3.27951 2.64624 0
M  V30 3003 H 265.781 2.04056 2.55007 0
M  V30 3004 H 264.44 3.52228 1.01641 0
M  V30 3005 H 264.088 3.62181 3.49047 0
M  V30 3006 H 263.788 5.204 2.7287 0
M  V30 3007 H 265.312 4.91962 3.6167 0
M  V30 3008 H 266.726 5.55059 1.43466 0
M  V30 3009 H 265.123 5.95348 0.753738 0
M  V30 3010 H 266.193 4.84735 -0.126377 0
M  V30 3011 N 267.536 -0.106894 1.57237 0
M  V30 3012 C 268.764 -0.826389 1.8968 0
M  V30 3013 C 269.179 -1.72856 0.759353 0
M  V30 3014 O 268.536 -1.80503 -0.269263 0
M  V30 3015 C 268.587 -1.64967 3.21665 0
M  V30 3016 O 268.308 -0.783804 4.31031 0
M  V30 3017 C 269.809 -2.47326 3.67892 0
M  V30 3018 H 267.029 -0.236927 0.627779 0
M  V30 3019 H 269.573 -0.0876593 2.04312 0
M  V30 3020 H 267.728 -2.34103 3.08666 0
M  V30 3021 H 268.142 -1.35284 5.06753 0
M  V30 3022 H 269.616 -3.00604 4.6297 0
M  V30 3023 H 270.093 -3.25247 2.95146 0
M  V30 3024 H 270.699 -1.83411 3.83719 0
M  V30 3025 N 269.014 -1.53014 -0.377408 0
M  V30 3026 C 269.977 -1.77957 -1.44444 0
M  V30 3027 C 270.977 -0.649763 -1.47087 0
M  V30 3028 O 272.167 -0.917897 -1.48055 0
M  V30 3029 C 269.299 -1.89089 -2.83651 0
M  V30 3030 H 270.492 -2.73243 -1.23606 0
M  V30 3031 H 268.045 -1.43912 -0.609844 0
M  V30 3032 H 268.78 -0.958293 -3.09818 0
M  V30 3033 H 268.565 -2.71254 -2.83132 0
M  V30 3034 H 270.055 -2.1002 -3.60945 0
M  V30 3035 N 270.492 0.636531 -1.44174 0
M  V30 3036 C 271.424 1.7618 -1.46606 0
M  V30 3037 C 272.437 1.58768 -0.360091 0
M  V30 3038 O 273.626 1.67181 -0.625518 0
M  V30 3039 C 270.726 3.13833 -1.27915 0
M  V30 3040 C 269.899 3.57753 -2.51658 0
M  V30 3041 C 268.958 4.74265 -2.27945 0
M  V30 3042 O 267.984 4.82852 -3.01401 0
M  V30 3043 N 269.186 5.65604 -1.30662 0
M  V30 3044 H 271.951 1.74567 -2.43612 0
M  V30 3045 H 269.512 0.820924 -1.39544 0
M  V30 3046 H 271.504 3.8949 -1.09907 0
M  V30 3047 H 270.074 3.10121 -0.39293 0
M  V30 3048 H 269.294 2.72362 -2.84978 0
M  V30 3049 H 270.582 3.83847 -3.33974 0
M  V30 3050 H 269.98 5.61354 -0.699844 0
M  V30 3051 H 268.537 6.40913 -1.18634 0
M  V30 3052 N 271.97 1.30982 0.876444 0
M  V30 3053 C 272.88 1.2003 2.01569 0
M  V30 3054 C 273.896 0.11838 1.73597 0
M  V30 3055 O 275.072 0.33495 1.98595 0
M  V30 3056 C 272.137 0.901637 3.34771 0
M  V30 3057 C 271.198 2.06979 3.76109 0
M  V30 3058 C 270.431 1.78529 5.02954 0
M  V30 3059 O 270.654 0.717296 5.65872 0
M  V30 3060 O 269.588 2.64019 5.40905 0
M  V30 3061 H 273.414 2.15753 2.13739 0
M  V30 3062 H 270.999 1.10658 1.00375 0
M  V30 3063 H 272.881 0.750645 4.1466 0
M  V30 3064 H 271.556 -0.0256141 3.2369 0
M  V30 3065 H 270.463 2.27616 2.96887 0
M  V30 3066 H 271.796 2.97907 3.91807 0
M  V30 3067 N 273.449 -1.08991 1.13837 0
M  V30 3068 C 274.379 -2.17771 0.842507 0
M  V30 3069 C 275.36 -1.6892 -0.20001 0
M  V30 3070 O 276.545 -1.94113 -0.0579731 0
M  V30 3071 C 273.675 -3.4589 0.312644 0
M  V30 3072 C 272.629 -4.08099 1.28992 0
M  V30 3073 C 271.955 -5.31098 0.619623 0
M  V30 3074 C 273.255 -4.50077 2.65005 0
M  V30 3075 H 274.949 -2.42777 1.75213 0
M  V30 3076 H 272.495 -1.16682 0.843875 0
M  V30 3077 H 274.448 -4.21297 0.0933043 0
M  V30 3078 H 273.172 -3.20419 -0.632382 0
M  V30 3079 H 271.831 -3.34717 1.49533 0
M  V30 3080 H 271.479 -5.0191 -0.33102 0
M  V30 3081 H 271.179 -5.73674 1.27167 0
M  V30 3082 H 272.703 -6.09224 0.409669 0
M  V30 3083 H 274.117 -5.16688 2.48407 0
M  V30 3084 H 272.514 -5.03553 3.26427 0
M  V30 3085 H 273.584 -3.62257 3.22332 0
M  V30 3086 N 274.927 -0.932562 -1.27047 0
M  V30 3087 C 276.152 -0.591474 -1.98787 0
M  V30 3088 C 276.577 0.824601 -1.69062 0
M  V30 3089 O 275.935 1.5541 -0.933677 0
M  V30 3090 C 275.983 -0.829808 -3.50922 0
M  V30 3091 O 275.087 0.102266 -4.12273 0
M  V30 3092 H 274.428 -0.227185 -0.623926 0
M  V30 3093 H 276.958 -1.25314 -1.61733 0
M  V30 3094 H 276.968 -0.747292 -4.01098 0
M  V30 3095 H 275.643 -1.86201 -3.7189 0
M  V30 3096 H 274.22 -0.0305761 -3.72887 0
M  V30 3097 N 276.405 1.4127 -0.698611 0
M  V30 3098 C 277.353 2.32588 -0.023855 0
M  V30 3099 C 278.347 1.51128 0.765292 0
M  V30 3100 O 279.553 1.67043 0.670571 0
M  V30 3101 H 275.928 0.751918 0.0110871 0
M  V30 3102 H 277.899 2.87167 -0.811031 0
M  V30 3103 C 276.648 3.35947 0.896369 0
M  V30 3104 H 275.971 3.98684 0.298548 0
M  V30 3105 H 277.411 4.02376 1.33676 0
M  V30 3106 C 275.87 2.70076 2.01396 0
M  V30 3107 O 276.4 2.55093 3.10307 0
M  V30 3108 N 274.606 2.28724 1.79259 0
M  V30 3109 H 274.153 2.4111 0.906841 0
M  V30 3110 H 274.111 1.84986 2.54219 0
M  V30 3111 N 277.883 0.443576 1.51229 0
M  V30 3112 C 279.108 -0.121648 2.07043 0
M  V30 3113 C 279.533 -1.35156 1.30823 0
M  V30 3114 O 278.891 -1.7793 0.347934 0
M  V30 3115 C 278.939 -0.41624 3.5819 0
M  V30 3116 O 278.043 -1.50163 3.8409 0
M  V30 3117 H 277.384 0.000871367 0.663999 0
M  V30 3118 H 279.914 0.626706 1.94765 0
M  V30 3119 H 279.924 -0.664867 4.02546 0
M  V30 3120 H 278.599 0.482653 4.1309 0
M  V30 3121 H 277.176 -1.24248 3.51592 0
M  V30 3122 N 279.361 -1.56624 0.175154 0
M  V30 3123 C 280.607 -1.98061 -0.462976 0
M  V30 3124 C 280.962 -1.05949 -1.60601 0
M  V30 3125 O 280.255 -0.0999027 -1.91339 0
M  V30 3126 C 280.449 -3.43419 -0.989864 0
M  V30 3127 C 280.278 -4.49587 0.100583 0
M  V30 3128 C 279.048 -5.02281 0.551539 0
M  V30 3129 C 281.246 -5.06322 0.902369 0
M  V30 3130 N 279.228 -5.92088 1.62189 0
M  V30 3131 C 280.599 -5.92607 1.82256 0
M  V30 3132 C 282.654 -4.88811 0.947019 0
M  V30 3133 C 281.357 -6.63254 2.78364 0
M  V30 3134 C 283.383 -5.60182 1.89606 0
M  V30 3135 C 282.745 -6.46197 2.80372 0
M  V30 3136 H 278.844 -0.769833 -0.137409 0
M  V30 3137 H 281.428 -1.9273 0.276256 0
M  V30 3138 H 279.599 -3.49288 -1.6986 0
M  V30 3139 H 281.331 -3.7186 -1.59694 0
M  V30 3140 H 278.086 -4.73367 0.148537 0
M  V30 3141 H 278.51 -6.41696 2.15767 0
M  V30 3142 H 283.152 -4.22004 0.259304 0
M  V30 3143 H 280.87 -7.29271 3.48122 0
M  V30 3144 H 284.456 -5.48617 1.93676 0
M  V30 3145 H 283.336 -7.00453 3.52612 0
M  V30 3146 N 280.839 0.0985539 -1.57292 0
M  V30 3147 C 281.802 1.10402 -2.00858 0
M  V30 3148 C 282.802 1.33146 -0.901593 0
M  V30 3149 O 283.992 1.29318 -1.16716 0
M  V30 3150 C 281.124 2.45394 -2.36632 0
M  V30 3151 H 282.317 0.729099 -2.90902 0
M  V30 3152 H 279.87 0.343495 -1.52479 0
M  V30 3153 H 280.605 2.87769 -1.49531 0
M  V30 3154 H 280.39 2.30235 -3.17387 0
M  V30 3155 H 281.88 3.17718 -2.71007 0
M  V30 3156 N 282.317 1.53212 0.369288 0
M  V30 3157 C 283.265 1.80054 1.47253 0
M  V30 3158 C 284.259 0.669456 1.55611 0
M  V30 3159 O 285.465 0.852328 1.58541 0
M  V30 3160 H 281.84 0.570034 0.490475 0
M  V30 3161 H 283.811 2.72403 1.21817 0
M  V30 3162 C 282.56 2.00403 2.84137 0
M  V30 3163 H 281.883 2.86876 2.78464 0
M  V30 3164 H 283.323 2.23164 3.60519 0
M  V30 3165 C 281.782 0.782081 3.27697 0
M  V30 3166 O 282.312 -0.0310205 4.01688 0
M  V30 3167 N 280.518 0.606573 2.84199 0
M  V30 3168 H 280.065 1.26939 2.24152 0
M  V30 3169 H 280.023 -0.20962 3.137 0
M  V30 3170 N 283.795 -0.628877 1.44509 0
M  V30 3171 C 284.743 -1.76193 1.51852 0
M  V30 3172 C 285.737 -1.64849 0.390042 0
M  V30 3173 O 286.943 -1.709 0.565082 0
M  V30 3174 H 283.318 -0.581728 0.476547 0
M  V30 3175 H 285.289 -1.67123 2.47209 0
M  V30 3176 C 284.038 -3.14533 1.48204 0
M  V30 3177 H 283.361 -3.23911 2.34354 0
M  V30 3178 H 284.801 -3.93701 1.57402 0
M  V30 3179 C 283.26 -3.36287 0.203142 0
M  V30 3180 O 283.79 -3.9509 -0.725745 0
M  V30 3181 N 281.996 -2.90408 0.105563 0
M  V30 3182 H 281.543 -2.42739 0.862301 0
M  V30 3183 H 281.501 -3.05339 -0.749371 0
M  V30 3184 N 285.273 -1.31445 -0.869486 0
M  V30 3185 C 286.203 -1.21727 -1.99261 0
M  V30 3186 C 287.184 -0.104359 -1.6978 0
M  V30 3187 O 288.369 -0.289038 -1.92037 0
M  V30 3188 C 285.499 -0.924317 -3.34774 0
M  V30 3189 C 284.453 -1.99685 -3.78563 0
M  V30 3190 C 283.779 -1.55658 -5.11541 0
M  V30 3191 C 285.079 -3.41003 -3.95619 0
M  V30 3192 H 286.773 -2.1569 -2.07649 0
M  V30 3193 H 284.319 -1.03839 -0.997675 0
M  V30 3194 H 286.272 -0.842934 -4.12883 0
M  V30 3195 H 284.996 0.0509793 -3.2656 0
M  V30 3196 H 283.655 -2.06813 -3.02694 0
M  V30 3197 H 283.303 -0.569132 -4.9977 0
M  V30 3198 H 283.003 -2.27409 -5.41811 0
M  V30 3199 H 284.527 -1.48928 -5.92159 0
M  V30 3200 H 285.941 -3.36547 -4.64122 0
M  V30 3201 H 284.338 -4.10975 -4.37286 0
M  V30 3202 H 285.408 -3.81754 -2.98985 0
M  V30 3203 N 286.751 1.08385 -1.14413 0
M  V30 3204 C 287.684 2.14642 -0.774871 0
M  V30 3205 C 288.662 1.60761 0.243876 0
M  V30 3206 O 289.846 1.88031 0.132883 0
M  V30 3207 C 286.973 3.38366 -0.150491 0
M  V30 3208 C 286.019 4.10997 -1.13945 0
M  V30 3209 S 286.852 4.63797 -2.67679 0
M  V30 3210 C 288.008 5.90808 -2.06631 0
M  V30 3211 H 288.241 2.45633 -1.67487 0
M  V30 3212 H 285.774 1.20498 -0.96538 0
M  V30 3213 H 287.732 4.09996 0.203334 0
M  V30 3214 H 286.393 3.05572 0.72694 0
M  V30 3215 H 285.586 4.99783 -0.65059 0
M  V30 3216 H 285.188 3.4528 -1.43727 0
M  V30 3217 H 287.48 6.62411 -1.4219 0
M  V30 3218 H 288.423 6.4439 -2.93542 0
M  V30 3219 H 288.831 5.4383 -1.51357 0
M  V30 3220 N 288.23 0.939286 1.26551 0
M  V30 3221 C 289.476 0.596234 1.94465 0
M  V30 3222 C 289.831 -0.855013 1.72358 0
M  V30 3223 O 289.124 -1.6034 1.04889 0
M  V30 3224 C 289.318 0.872106 3.46596 0
M  V30 3225 C 289.147 2.34862 3.83497 0
M  V30 3226 C 287.917 3.00344 4.06352 0
M  V30 3227 C 290.115 3.32697 3.92195 0
M  V30 3228 N 288.097 4.38027 4.30123 0
M  V30 3229 C 289.468 4.55631 4.20476 0
M  V30 3230 C 291.523 3.27747 3.74815 0
M  V30 3231 C 290.226 5.74233 4.33185 0
M  V30 3232 C 292.252 4.45672 3.88755 0
M  V30 3233 C 291.614 5.67388 4.17433 0
M  V30 3234 H 287.713 0.268515 0.734455 0
M  V30 3235 H 290.297 1.2083 1.5267 0
M  V30 3236 H 288.468 0.289102 3.87323 0
M  V30 3237 H 290.2 0.490513 4.01716 0
M  V30 3238 H 286.955 2.50969 4.01636 0
M  V30 3239 H 287.379 5.09288 4.46044 0
M  V30 3240 H 292.021 2.34703 3.51673 0
M  V30 3241 H 289.739 6.67731 4.55149 0
M  V30 3242 H 293.325 4.43372 3.76713 0
M  V30 3243 H 292.205 6.57115 4.27983 0
M  V30 3244 N 289.708 -1.40897 0.706093 0
M  V30 3245 C 290.638 -2.33418 0.0620085 0
M  V30 3246 C 291.619 -1.52385 -0.755827 0
M  V30 3247 O 292.804 -1.80886 -0.706674 0
M  V30 3248 C 289.934 -3.36293 -0.867445 0
M  V30 3249 C 288.888 -4.27716 -0.155932 0
M  V30 3250 C 288.214 -5.2105 -1.20046 0
M  V30 3251 C 289.514 -5.12944 0.984149 0
M  V30 3252 H 291.208 -2.87527 0.83477 0
M  V30 3253 H 288.754 -1.38249 0.402875 0
M  V30 3254 H 290.707 -3.99949 -1.32735 0
M  V30 3255 H 289.431 -2.80556 -1.67199 0
M  V30 3256 H 288.09 -3.65498 0.284047 0
M  V30 3257 H 287.738 -4.61624 -1.99781 0
M  V30 3258 H 287.438 -5.83056 -0.729328 0
M  V30 3259 H 288.962 -5.87584 -1.66066 0
M  V30 3260 H 290.376 -5.70109 0.604048 0
M  V30 3261 H 288.773 -5.83945 1.38304 0
M  V30 3262 H 289.843 -4.49485 1.81911 0
M  V30 3263 N 291.186 -0.45159 -1.50991 0
M  V30 3264 C 292.149 0.341117 -2.26647 0
M  V30 3265 C 293.149 0.937422 -1.30649 0
M  V30 3266 O 294.339 0.809644 -1.54241 0
M  V30 3267 C 291.471 1.48398 -3.06905 0
M  V30 3268 H 292.664 -0.322117 -2.98165 0
M  V30 3269 H 290.217 -0.205122 -1.54948 0
M  V30 3270 H 290.952 2.18284 -2.39838 0
M  V30 3271 H 290.737 1.06241 -3.77432 0
M  V30 3272 H 292.227 2.04367 -3.64176 0
M  V30 3273 N 292.664 1.56529 -0.183458 0
M  V30 3274 C 293.894 2.01331 0.463612 0
M  V30 3275 C 294.302 1.06278 1.5653 0
M  V30 3276 O 293.645 0.0577976 1.83609 0
M  V30 3277 C 293.707 3.42547 1.09096 0
M  V30 3278 C 293.371 4.56817 0.129442 0
M  V30 3279 C 294.368 5.15734 -0.656807 0
M  V30 3280 C 292.053 5.02295 0.02174 0
M  V30 3281 C 294.047 6.1857 -1.53784 0
M  V30 3282 C 291.734 6.04978 -0.862864 0
M  V30 3283 C 292.732 6.62988 -1.64123 0
M  V30 3284 O 292.42 7.63677 -2.51103 0
M  V30 3285 H 292.152 0.664917 0.121907 0
M  V30 3286 H 294.706 2.034 -0.285954 0
M  V30 3287 H 292.936 3.37428 1.88889 0
M  V30 3288 H 294.625 3.71228 1.64148 0
M  V30 3289 H 295.391 4.81473 -0.583839 0
M  V30 3290 H 291.27 4.56847 0.617392 0
M  V30 3291 H 294.814 6.63777 -2.14583 0
M  V30 3292 H 290.711 6.38663 -0.93699 0
M  V30 3293 H 291.479 7.81049 -2.44753 0
M  V30 3294 N 294.142 -0.090211 1.57342 0
M  V30 3295 C 295.37 -0.806224 1.90546 0
M  V30 3296 C 295.785 -1.72041 0.777644 0
M  V30 3297 O 295.142 -1.80778 -0.250103 0
M  V30 3298 C 295.193 -1.61546 3.23396 0
M  V30 3299 O 294.914 -0.738043 4.31839 0
M  V30 3300 C 296.415 -2.4341 3.70495 0
M  V30 3301 H 293.635 -0.230256 0.630257 0
M  V30 3302 H 296.179 -0.0659843 2.04394 0
M  V30 3303 H 294.334 -2.30816 3.11131 0
M  V30 3304 H 294.748 -1.29901 5.08159 0
M  V30 3305 H 296.222 -2.95676 4.66133 0
M  V30 3306 H 296.699 -3.22098 2.98579 0
M  V30 3307 H 297.305 -1.79331 3.85643 0
M  V30 3308 N 295.62 -1.53406 -0.361157 0
M  V30 3309 C 296.553 -1.74946 -1.46524 0
M  V30 3310 C 297.531 -0.59795 -1.51206 0
M  V30 3311 O 298.715 -0.831062 -1.69191 0
M  V30 3312 C 295.842 -1.83224 -2.84863 0
M  V30 3313 C 294.888 -3.05233 -2.97885 0
M  V30 3314 S 295.721 -4.6466 -2.66179 0
M  V30 3315 C 296.877 -4.75793 -4.06659 0
M  V30 3316 H 297.11 -2.68319 -1.28033 0
M  V30 3317 H 294.643 -1.44051 -0.555764 0
M  V30 3318 H 296.601 -1.88679 -3.64569 0
M  V30 3319 H 295.262 -0.908948 -3.00661 0
M  V30 3320 H 294.455 -3.07648 -3.9921 0
M  V30 3321 H 294.057 -2.97913 -2.26106 0
M  V30 3322 H 296.349 -4.5612 -5.0096 0
M  V30 3323 H 297.292 -5.7786 -4.09247 0
M  V30 3324 H 297.7 -4.04389 -3.93865 0
M  V30 3325 N 297.098 0.621204 -1.44841 0
M  V30 3326 C 298.061 1.71459 -1.521 0
M  V30 3327 C 299.061 1.55696 -0.401933 0
M  V30 3328 O 300.251 1.61011 -0.664925 0
M  V30 3329 C 297.383 3.10624 -1.40447 0
M  V30 3330 H 298.576 1.66394 -2.49506 0
M  V30 3331 H 296.129 0.835745 -1.3208 0
M  V30 3332 H 296.864 3.21277 -0.441737 0
M  V30 3333 H 296.649 3.23473 -2.21602 0
M  V30 3334 H 298.139 3.90293 -1.4853 0
M  V30 3335 N 298.576 1.31904 0.862503 0
M  V30 3336 C 299.823 1.22017 1.61611 0
M  V30 3337 C 300.151 -0.21991 1.93253 0
M  V30 3338 O 299.406 -1.17076 1.56817 0
M  V30 3339 C 299.705 2.01713 2.95037 0
M  V30 3340 C 299.371 3.51145 2.82857 0
M  V30 3341 C 298.033 3.91889 2.79243 0
M  V30 3342 C 300.385 4.46204 2.69353 0
M  V30 3343 C 297.713 5.25947 2.59993 0
M  V30 3344 C 300.065 5.80397 2.5164 0
M  V30 3345 C 298.729 6.20352 2.46413 0
M  V30 3346 H 297.999 0.44649 0.591378 0
M  V30 3347 H 300.646 1.63248 1.00111 0
M  V30 3348 H 298.951 1.53185 3.60613 0
M  V30 3349 H 300.648 1.91437 3.52353 0
M  V30 3350 H 297.238 3.1878 2.86491 0
M  V30 3351 H 301.422 4.15652 2.71196 0
M  V30 3352 H 296.678 5.5597 2.54376 0
M  V30 3353 H 300.852 6.53676 2.40169 0
M  V30 3354 H 298.479 7.24172 2.31256 0
M  V30 3355 N 300.054 -1.07777 1.14986 0
M  V30 3356 C 300.987 -2.14228 0.786243 0
M  V30 3357 C 301.965 -1.60888 -0.235347 0
M  V30 3358 O 303.149 -1.88099 -0.122909 0
M  V30 3359 C 300.276 -3.38281 0.168433 0
M  V30 3360 C 299.322 -4.10387 1.16123 0
M  V30 3361 S 300.155 -4.62371 2.70135 0
M  V30 3362 C 301.311 -5.89704 2.09762 0
M  V30 3363 H 301.544 -2.44741 1.68787 0
M  V30 3364 H 299.077 -1.19984 0.971756 0
M  V30 3365 H 301.035 -4.10098 -0.181588 0
M  V30 3366 H 299.696 -3.05953 -0.710725 0
M  V30 3367 H 298.889 -4.99431 0.677086 0
M  V30 3368 H 298.491 -3.44513 1.45556 0
M  V30 3369 H 300.783 -6.61648 1.45701 0
M  V30 3370 H 301.726 -6.42824 2.96955 0
M  V30 3371 H 302.134 -5.4302 1.54239 0
M  V30 3372 N 301.532 -0.945985 -1.26051 0
M  V30 3373 C 302.778 -0.597002 -1.93814 0
M  V30 3374 C 303.111 0.862484 -1.73997 0
M  V30 3375 O 302.386 1.61769 -1.07986 0
M  V30 3376 C 302.669 -0.945937 -3.47454 0
M  V30 3377 C 302.522 -2.46052 -3.76535 0
M  V30 3378 C 303.841 -0.464785 -4.37639 0
M  V30 3379 H 300.96 -0.218366 -0.703907 0
M  V30 3380 H 303.602 -1.18107 -1.48831 0
M  V30 3381 H 301.752 -0.448902 -3.85898 0
M  V30 3382 H 303.424 -3.03065 -3.47778 0
M  V30 3383 H 301.667 -2.90194 -3.22444 0
M  V30 3384 H 302.338 -2.65517 -4.83947 0
M  V30 3385 H 304.814 -0.891016 -4.06448 0
M  V30 3386 H 303.69 -0.737712 -5.4392 0
M  V30 3387 H 303.951 0.635274 -4.37512 0
M  V30 3388 N 303.011 1.40521 -0.713556 0
M  V30 3389 C 303.958 2.30723 -0.059684 0
M  V30 3390 C 304.928 1.48079 0.752448 0
M  V30 3391 O 306.113 1.76823 0.71681 0
M  V30 3392 C 303.253 3.34274 0.857594 0
M  V30 3393 C 302.366 4.31986 0.0351536 0
M  V30 3394 C 301.501 5.22605 0.951724 0
M  V30 3395 C 300.54 6.11976 0.123253 0
M  V30 3396 N 299.677 6.9502 0.99459 0
M  V30 3397 H 304.517 2.86074 -0.834596 0
M  V30 3398 H 302.054 1.40879 -0.42326 0
M  V30 3399 H 304.012 3.92879 1.40364 0
M  V30 3400 H 302.642 2.8043 1.59871 0
M  V30 3401 H 301.694 3.7518 -0.628052 0
M  V30 3402 H 303.006 4.95101 -0.606347 0
M  V30 3403 H 302.16 5.86131 1.56638 0
M  V30 3404 H 300.899 4.59759 1.62705 0
M  V30 3405 H 299.904 5.47482 -0.50435 0
M  V30 3406 H 301.129 6.76881 -0.548539 0
M  V30 3407 H 299.075 6.34764 1.6556 0
M  V30 3408 H 298.992 7.54892 0.40908 0
M  V30 3409 H 300.26 7.62997 1.59549 0
M  V30 3410 N 304.489 0.459591 1.5075 0
M  V30 3411 C 305.422 -0.386257 2.24907 0
M  V30 3412 C 306.4 -1.006 1.27744 0
M  V30 3413 O 307.584 -1.04416 1.56938 0
M  V30 3414 C 304.711 -1.54021 3.01654 0
M  V30 3415 C 303.757 -1.03898 4.13651 0
M  V30 3416 S 304.59 0.0370501 5.35487 0
M  V30 3417 C 305.746 -1.12105 6.15779 0
M  V30 3418 H 305.979 0.243272 2.96303 0
M  V30 3419 H 303.512 0.244339 1.52454 0
M  V30 3420 H 305.47 -2.20163 3.46466 0
M  V30 3421 H 304.131 -2.14121 2.29806 0
M  V30 3422 H 303.324 -1.90254 4.66711 0
M  V30 3423 H 302.926 -0.45545 3.71216 0
M  V30 3424 H 305.218 -2.03501 6.46215 0
M  V30 3425 H 306.161 -0.62995 7.05292 0
M  V30 3426 H 306.569 -1.36967 5.47631 0
M  V30 3427 N 305.967 -1.56429 0.191757 0
M  V30 3428 C 307.378 -1.83912 -0.321428 0
M  V30 3429 C 307.729 -1.11231 -1.61623 0
M  V30 3430 O 306.854 -0.37202 -2.13178 0
M  V30 3431 C 307.449 -3.33624 -0.589961 0
M  V30 3432 C 306.008 -3.6153 -1.04753 0
M  V30 3433 C 305.155 -2.7714 -0.0943327 0
M  V30 3434 H 308.106 -1.53161 0.415612 0
M  V30 3435 H 308.127 -3.52213 -1.43966 0
M  V30 3436 H 307.639 -3.86495 0.352588 0
M  V30 3437 H 305.74 -3.14089 -2.00447 0
M  V30 3438 H 305.853 -4.69737 -0.942549 0
M  V30 3439 H 304.217 -2.47638 -0.595589 0
M  V30 3440 H 305 -3.32799 0.842601 0
M  V30 3441 N 307.445 0.0818655 -1.57387 0
M  V30 3442 C 308.375 1.09885 -2.06028 0
M  V30 3443 C 309.356 1.4098 -0.951774 0
M  V30 3444 O 310.541 1.50781 -1.22387 0
M  V30 3445 C 307.671 2.4151 -2.4958 0
M  V30 3446 C 306.625 2.24792 -3.64215 0
M  V30 3447 C 305.951 3.61712 -3.93787 0
M  V30 3448 C 307.251 1.67749 -4.94629 0
M  V30 3449 H 308.945 0.694128 -2.91243 0
M  V30 3450 H 306.491 0.332448 -1.4011 0
M  V30 3451 H 308.444 3.12939 -2.82219 0
M  V30 3452 H 307.168 2.83943 -1.61381 0
M  V30 3453 H 305.827 1.55807 -3.31843 0
M  V30 3454 H 305.475 4.01697 -3.02735 0
M  V30 3455 H 305.175 3.51368 -4.70971 0
M  V30 3456 H 306.699 4.34587 -4.28913 0
M  V30 3457 H 308.113 2.29032 -5.25564 0
M  V30 3458 H 306.51 1.68128 -5.76067 0
M  V30 3459 H 307.58 0.638059 -4.80684 0
M  V30 3460 N 308.923 1.53595 0.353017 0
M  V30 3461 C 310.153 1.74058 1.11299 0
M  V30 3462 C 310.561 0.475205 1.83135 0
M  V30 3463 O 309.904 -0.562344 1.74881 0
M  V30 3464 C 309.966 2.85994 2.17825 0
M  V30 3465 C 309.63 4.25923 1.65647 0
M  V30 3466 C 310.627 5.07829 1.11383 0
M  V30 3467 C 308.312 4.72377 1.7078 0
M  V30 3468 C 310.306 6.34285 0.629439 0
M  V30 3469 C 307.993 5.98808 1.21953 0
M  V30 3470 C 308.991 6.79594 0.681265 0
M  V30 3471 O 308.679 8.03651 0.200248 0
M  V30 3472 H 308.411 0.585327 0.338183 0
M  V30 3473 H 310.965 2.01186 0.413927 0
M  V30 3474 H 309.195 2.54368 2.91262 0
M  V30 3475 H 310.884 2.94515 2.79313 0
M  V30 3476 H 311.65 4.73107 1.06746 0
M  V30 3477 H 307.529 4.0956 2.11617 0
M  V30 3478 H 311.073 6.97288 0.208636 0
M  V30 3479 H 306.97 6.33026 1.26287 0
M  V30 3480 H 307.738 8.1788 0.318416 0
M  V30 3481 N 310.401 -0.613514 1.45168 0
M  V30 3482 C 311.649 -1.36997 1.48581 0
M  V30 3483 C 311.97 -1.94589 0.126545 0
M  V30 3484 O 311.24 -1.76816 -0.843372 0
M  V30 3485 H 309.82 -0.508558 0.547154 0
M  V30 3486 H 312.482 -0.720853 1.81079 0
M  V30 3487 H 311.578 -2.1924 2.22127 0
M  V30 3488 N 311.879 -1.3236 -0.855495 0
M  V30 3489 C 312.809 -1.23833 -1.97958 0
M  V30 3490 C 313.79 -0.122361 -1.69659 0
M  V30 3491 O 314.975 -0.30939 -1.9172 0
M  V30 3492 C 312.105 -0.959772 -3.33775 0
M  V30 3493 C 311.059 -2.03689 -3.76424 0
M  V30 3494 C 310.385 -1.61075 -5.09862 0
M  V30 3495 C 311.685 -3.4518 -3.9198 0
M  V30 3496 H 313.379 -2.1788 -2.0535 0
M  V30 3497 H 310.925 -1.04891 -0.986605 0
M  V30 3498 H 312.878 -0.886678 -4.11966 0
M  V30 3499 H 311.602 0.0163404 -3.26596 0
M  V30 3500 H 310.261 -2.10012 -3.00484 0
M  V30 3501 H 309.909 -0.622107 -4.99138 0
M  V30 3502 H 309.609 -2.33143 -5.39368 0
M  V30 3503 H 311.133 -1.55201 -5.90546 0
M  V30 3504 H 312.547 -3.4145 -4.60526 0
M  V30 3505 H 310.944 -4.1559 -4.32903 0
M  V30 3506 H 312.014 -3.84903 -2.94919 0
M  V30 3507 N 313.357 1.07166 -1.15556 0
M  V30 3508 C 314.307 2.12649 -0.82247 0
M  V30 3509 C 315.291 1.59725 0.194129 0
M  V30 3510 O 316.483 1.76999 -0.00540402 0
M  V30 3511 C 313.612 3.41847 -0.315572 0
M  V30 3512 C 312.698 4.0162 -1.36244 0
M  V30 3513 N 313.089 4.35625 -2.5703 0
M  V30 3514 C 311.387 4.29114 -1.21562 0
M  V30 3515 C 312.088 4.83017 -3.24144 0
M  V30 3516 N 311.064 4.81906 -2.51531 0
M  V30 3517 H 314.866 2.36776 -1.74111 0
M  V30 3518 H 312.38 1.24622 -1.0413 0
M  V30 3519 H 314.377 4.16859 -0.0585855 0
M  V30 3520 H 313.037 3.19163 0.597105 0
M  V30 3521 H 314.048 4.26253 -2.94158 0
M  V30 3522 H 310.725 4.15919 -0.362988 0
M  V30 3523 H 312.115 5.18605 -4.27198 0
M  V30 3524 N 314.835 0.952656 1.25548 0
M  V30 3525 C 315.765 0.489287 2.28316 0
M  V30 3526 C 316.746 -0.463359 1.63667 0
M  V30 3527 O 317.931 -0.36274 1.90782 0
M  V30 3528 C 315.061 -0.235603 3.465 0
M  V30 3529 C 314.015 0.631593 4.23314 0
M  V30 3530 C 313.341 -0.223923 5.34231 0
M  V30 3531 C 314.641 1.90871 4.86174 0
M  V30 3532 H 316.335 1.34822 2.67326 0
M  V30 3533 H 313.881 0.649728 1.28509 0
M  V30 3534 H 315.834 -0.570882 4.17515 0
M  V30 3535 H 314.558 -1.12877 3.06474 0
M  V30 3536 H 313.217 0.949929 3.54079 0
M  V30 3537 H 312.865 -1.11678 4.90446 0
M  V30 3538 H 312.565 0.35299 5.86539 0
M  V30 3539 H 314.089 -0.554214 6.0808 0
M  V30 3540 H 315.503 1.63997 5.49343 0
M  V30 3541 H 313.9 2.43112 5.4865 0
M  V30 3542 H 314.97 2.61304 4.08471 0
M  V30 3543 N 316.313 -1.40141 0.720998 0
M  V30 3544 C 317.559 -2.01572 0.272075 0
M  V30 3545 C 317.914 -1.5616 -1.12391 0
M  V30 3546 O 317.207 -0.774198 -1.75262 0
M  V30 3547 C 317.401 -3.56165 0.296892 0
M  V30 3548 C 317.23 -4.16584 1.69375 0
M  V30 3549 C 316 -4.49783 2.30269 0
M  V30 3550 C 318.198 -4.41076 2.64493 0
M  V30 3551 N 316.18 -4.95626 3.62254 0
M  V30 3552 C 317.551 -4.88971 3.81192 0
M  V30 3553 C 319.606 -4.23122 2.62435 0
M  V30 3554 C 318.309 -5.20796 4.96149 0
M  V30 3555 C 320.335 -4.56052 3.76524 0
M  V30 3556 C 319.697 -5.04141 4.91956 0
M  V30 3557 H 315.796 -0.768343 0.145511 0
M  V30 3558 H 318.38 -1.70287 0.943959 0
M  V30 3559 H 316.551 -3.86868 -0.344578 0
M  V30 3560 H 318.283 -4.04346 -0.169254 0
M  V30 3561 H 315.038 -4.37101 1.82318 0
M  V30 3562 H 315.462 -5.22923 4.29977 0
M  V30 3563 H 320.104 -3.85158 1.74393 0
M  V30 3564 H 317.822 -5.57672 5.84831 0
M  V30 3565 H 321.408 -4.43796 3.76213 0
M  V30 3566 H 320.288 -5.29142 5.78774 0
M  V30 3567 N 317.792 -0.46758 -1.50504 0
M  V30 3568 C 318.722 0.318381 -2.31319 0
M  V30 3569 C 319.703 0.993564 -1.38066 0
M  V30 3570 O 320.888 0.991411 -1.66987 0
M  V30 3571 C 318.018 1.40275 -3.17711 0
M  V30 3572 C 316.972 0.849373 -4.19487 0
M  V30 3573 C 316.298 2.03177 -4.94594 0
M  V30 3574 C 317.598 -0.136942 -5.2212 0
M  V30 3575 H 319.292 -0.356106 -2.97275 0
M  V30 3576 H 316.838 -0.172703 -1.42961 0
M  V30 3577 H 318.791 1.96004 -3.73042 0
M  V30 3578 H 317.515 2.10596 -2.49634 0
M  V30 3579 H 316.174 0.314076 -3.65252 0
M  V30 3580 H 315.822 2.72187 -4.22993 0
M  V30 3581 H 315.522 1.66774 -5.63436 0
M  V30 3582 H 317.046 2.59403 -5.52759 0
M  V30 3583 H 318.46 0.331056 -5.72343 0
M  V30 3584 H 316.857 -0.41507 -5.98663 0
M  V30 3585 H 317.927 -1.06398 -4.73083 0
M  V30 3586 N 319.27 1.56325 -0.20005 0
M  V30 3587 C 320.681 1.8408 0.31167 0
M  V30 3588 C 321.032 1.12087 1.61031 0
M  V30 3589 O 320.157 0.38332 2.12978 0
M  V30 3590 C 320.752 3.33932 0.57226 0
M  V30 3591 C 319.311 3.6208 1.02834 0
M  V30 3592 C 318.458 2.77186 0.079634 0
M  V30 3593 H 321.409 1.52939 -0.423729 0
M  V30 3594 H 321.43 3.52971 1.42096 0
M  V30 3595 H 320.942 3.86303 -0.37308 0
M  V30 3596 H 319.043 3.15147 1.98778 0
M  V30 3597 H 319.156 4.7023 0.917624 0
M  V30 3598 H 317.52 2.47951 0.582448 0
M  V30 3599 H 318.303 3.32347 -0.860238 0
M  V30 3600 N 320.748 -0.0735177 1.57428 0
M  V30 3601 C 321.695 -1.08756 2.0357 0
M  V30 3602 C 322.665 -1.38559 0.916 0
M  V30 3603 O 323.85 -1.49656 1.18354 0
M  V30 3604 C 320.99 -2.39657 2.48311 0
M  V30 3605 C 320.103 -2.16399 3.73892 0
M  V30 3606 C 319.238 -3.40852 4.07423 0
M  V30 3607 C 318.277 -3.1295 5.2605 0
M  V30 3608 N 317.414 -4.29729 5.55228 0
M  V30 3609 H 322.254 -0.687104 2.8997 0
M  V30 3610 H 319.791 -0.327709 1.43403 0
M  V30 3611 H 321.749 -3.16081 2.72303 0
M  V30 3612 H 320.379 -2.77508 1.64891 0
M  V30 3613 H 319.431 -1.30676 3.57251 0
M  V30 3614 H 320.743 -1.91788 4.60455 0
M  V30 3615 H 319.897 -4.25671 4.32306 0
M  V30 3616 H 318.636 -3.68537 3.19425 0
M  V30 3617 H 317.641 -2.26526 5.00965 0
M  V30 3618 H 318.866 -2.86589 6.15665 0
M  V30 3619 H 316.812 -4.57448 4.70188 0
M  V30 3620 H 316.729 -4.08385 6.36206 0
M  V30 3621 H 317.997 -5.1555 5.84661 0
M  V30 3622 N 322.226 -1.5378 -0.344866 0
M  V30 3623 C 323.189 -1.80981 -1.40637 0
M  V30 3624 C 324.189 -0.680816 -1.45676 0
M  V30 3625 O 325.379 -0.949095 -1.46075 0
M  V30 3626 C 322.511 -1.95063 -2.79577 0
M  V30 3627 H 323.704 -2.75803 -1.17783 0
M  V30 3628 H 321.257 -1.45173 -0.579181 0
M  V30 3629 H 321.992 -1.02379 -3.07716 0
M  V30 3630 H 321.777 -2.77198 -2.77315 0
M  V30 3631 H 323.267 -2.17629 -3.56409 0
M  V30 3632 N 323.704 0.605807 -1.45491 0
M  V30 3633 C 324.654 1.71074 -1.50724 0
M  V30 3634 C 325.638 1.5658 -0.37033 0
M  V30 3635 O 326.83 1.65887 -0.617299 0
M  V30 3636 C 323.959 3.0983 -1.47852 0
M  V30 3637 C 323.045 3.29704 -2.66751 0
M  V30 3638 N 323.436 3.19831 -3.91844 0
M  V30 3639 C 321.734 3.60579 -2.62486 0
M  V30 3640 C 322.435 3.41083 -4.71208 0
M  V30 3641 N 321.411 3.65157 -4.02693 0
M  V30 3642 H 325.213 1.61937 -2.45263 0
M  V30 3643 H 322.727 0.80912 -1.40808 0
M  V30 3644 H 324.724 3.89101 -1.49686 0
M  V30 3645 H 323.384 3.20115 -0.543714 0
M  V30 3646 H 324.395 2.98194 -4.23439 0
M  V30 3647 H 321.072 3.7769 -1.77922 0
M  V30 3648 H 322.462 3.38828 -5.80211 0
M  V30 3649 N 325.182 1.32811 0.848464 0
M  V30 3650 C 326.428 1.23907 1.60546 0
M  V30 3651 C 326.761 -0.197161 1.93197 0
M  V30 3652 O 326.036 -1.13596 1.5788 0
M  V30 3653 C 326.319 2.10489 2.92175 0
M  V30 3654 C 326.172 3.62522 2.66266 0
M  V30 3655 C 327.491 1.97075 3.93509 0
M  V30 3656 H 324.61 0.451459 0.58254 0
M  V30 3657 H 327.252 1.62818 0.979296 0
M  V30 3658 H 325.402 1.77434 3.45614 0
M  V30 3659 H 327.074 4.05821 2.19334 0
M  V30 3660 H 325.317 3.84879 2.00126 0
M  V30 3661 H 325.988 4.18437 3.6002 0
M  V30 3662 H 328.464 2.26045 3.49346 0
M  V30 3663 H 327.34 2.59923 4.83457 0
M  V30 3664 H 327.601 0.940186 4.31987 0
M  V30 3665 N 326.66 -1.06551 1.16123 0
M  V30 3666 C 327.57 -2.17484 0.879662 0
M  V30 3667 C 328.586 -1.73377 -0.147104 0
M  V30 3668 O 329.762 -2.01379 0.0289128 0
M  V30 3669 C 326.827 -3.44591 0.381829 0
M  V30 3670 C 325.888 -4.0322 1.4735 0
M  V30 3671 C 325.121 -5.24261 0.999324 0
M  V30 3672 O 325.344 -5.70198 -0.151957 0
M  V30 3673 O 324.278 -5.74775 1.78653 0
M  V30 3674 H 328.104 -2.44075 1.80724 0
M  V30 3675 H 325.689 -1.16042 0.940992 0
M  V30 3676 H 327.571 -4.21254 0.111053 0
M  V30 3677 H 326.246 -3.19532 -0.51777 0
M  V30 3678 H 325.153 -3.2806 1.79798 0
M  V30 3679 H 326.486 -4.32568 2.34831 0
M  V30 3680 N 328.138 -0.959301 -1.25041 0
M  V30 3681 C 329.101 -0.487677 -2.23952 0
M  V30 3682 C 330.101 0.41119 -1.55454 0
M  V30 3683 O 331.291 0.207825 -1.72956 0
M  V30 3684 C 328.423 0.294807 -3.39623 0
M  V30 3685 H 329.616 -1.36198 -2.67189 0
M  V30 3686 H 327.169 -0.743042 -1.37508 0
M  V30 3687 H 327.904 1.18658 -3.01813 0
M  V30 3688 H 327.689 -0.35012 -3.90534 0
M  V30 3689 H 329.179 0.614089 -4.1306 0
M  V30 3690 N 329.616 1.39756 -0.72842 0
M  V30 3691 C 331.027 1.83498 -0.344289 0
M  V30 3692 C 331.378 1.60868 1.12321 0
M  V30 3693 O 330.503 1.09634 1.86573 0
M  V30 3694 C 331.098 3.33114 -0.618112 0
M  V30 3695 C 329.657 3.753 -0.287549 0
M  V30 3696 C 328.804 2.62831 -0.884048 0
M  V30 3697 H 331.755 1.28842 -0.926578 0
M  V30 3698 H 331.776 3.80334 0.112349 0
M  V30 3699 H 331.288 3.49553 -1.68625 0
M  V30 3700 H 329.389 3.64451 0.775012 0
M  V30 3701 H 329.502 4.72945 -0.765512 0
M  V30 3702 H 327.866 2.52792 -0.311149 0
M  V30 3703 H 328.649 2.82078 -1.95671 0
M  V30 3704 N 331.094 0.475555 1.50254 0
M  V30 3705 C 332.343 -0.0795996 2.01543 0
M  V30 3706 C 332.656 -1.4038 1.36209 0
M  V30 3707 O 333.862 -2.04415 1.7868 0
M  V30 3708 C 332.318 -0.192363 3.59386 0
M  V30 3709 C 331.926 1.12367 4.33679 0
M  V30 3710 C 333.67 -0.699238 4.18701 0
M  V30 3711 C 331.577 0.974453 5.83317 0
M  V30 3712 H 330.507 -0.0335228 0.753254 0
M  V30 3713 H 333.158 0.611128 1.73025 0
M  V30 3714 H 331.54 -0.946974 3.84511 0
M  V30 3715 H 332.714 1.88958 4.20276 0
M  V30 3716 H 331.029 1.562 3.85993 0
M  V30 3717 H 333.626 -0.827978 5.28251 0
M  V30 3718 H 333.969 -1.69171 3.80377 0
M  V30 3719 H 334.502 -0.00188807 3.978 0
M  V30 3720 H 331.241 1.94042 6.26121 0
M  V30 3721 H 330.761 0.248998 5.99283 0
M  V30 3722 H 332.44 0.642867 6.43798 0
M  V30 3723 N 332.573 -1.56217 0.208337 0
M  V30 3724 C 333.536 -2.18455 -0.693557 0
M  V30 3725 C 334.536 -1.14268 -1.13135 0
M  V30 3726 O 335.726 -1.39577 -1.0423 0
M  V30 3727 C 332.858 -2.79727 -1.94848 0
M  V30 3728 H 334.051 -2.99519 -0.15114 0
M  V30 3729 H 331.604 -1.56245 -0.041287 0
M  V30 3730 H 332.339 -2.02497 -2.53309 0
M  V30 3731 H 332.124 -3.56009 -1.64316 0
M  V30 3732 H 333.614 -3.27475 -2.59133 0
M  V30 3733 N 334.051 0.0651679 -1.57465 0
M  V30 3734 C 335.299 0.761555 -1.87202 0
M  V30 3735 C 335.62 1.77778 -0.801243 0
M  V30 3736 O 334.89 1.95166 0.16937 0
M  V30 3737 H 333.47 0.284251 -0.690804 0
M  V30 3738 H 336.132 0.0396827 -1.9486 0
M  V30 3739 H 335.228 1.27365 -2.84929 0
M  V30 3740 N 335.529 1.53961 0.336706 0
M  V30 3741 C 336.754 1.75797 1.10046 0
M  V30 3742 C 337.179 0.498985 1.81361 0
M  V30 3743 O 336.537 -0.548769 1.72795 0
M  V30 3744 C 336.585 2.94257 2.08436 0
M  V30 3745 O 335.689 2.64883 3.16087 0
M  V30 3746 H 335.03 0.582936 0.317934 0
M  V30 3747 H 337.56 2.00945 0.38501 0
M  V30 3748 H 337.57 3.21237 2.51537 0
M  V30 3749 H 336.245 3.85564 1.55927 0
M  V30 3750 H 334.822 2.48812 2.77753 0
M  V30 3751 N 337.007 -0.598083 1.45811 0
M  V30 3752 C 337.94 -1.7223 1.49706 0
M  V30 3753 C 338.918 -1.58732 0.352535 0
M  V30 3754 O 340.102 -1.80162 0.554438 0
M  V30 3755 C 337.229 -3.10148 1.3611 0
M  V30 3756 C 336.275 -3.42209 2.54549 0
M  V30 3757 S 337.108 -3.35989 4.16979 0
M  V30 3758 C 338.264 -4.76471 4.05865 0
M  V30 3759 H 338.497 -1.68665 2.44826 0
M  V30 3760 H 336.03 -0.775541 1.33509 0
M  V30 3761 H 337.988 -3.8972 1.28953 0
M  V30 3762 H 336.649 -3.11219 0.424451 0
M  V30 3763 H 335.842 -4.42652 2.40988 0
M  V30 3764 H 335.444 -2.70173 2.58617 0
M  V30 3765 H 337.736 -5.665 3.71596 0
M  V30 3766 H 338.679 -4.95089 5.06253 0
M  V30 3767 H 339.087 -4.52599 3.37364 0
M  V30 3768 N 338.485 -1.33259 -0.841409 0
M  V30 3769 C 339.731 -1.24757 -1.59886 0
M  V30 3770 C 340.064 0.186913 -1.93298 0
M  V30 3771 O 339.339 1.12757 -1.5848 0
M  V30 3772 C 339.622 -2.12036 -2.91055 0
M  V30 3773 C 339.475 -3.63929 -2.6434 0
M  V30 3774 C 340.794 -1.9916 -3.92458 0
M  V30 3775 H 337.913 -0.454542 -0.580138 0
M  V30 3776 H 340.555 -1.63335 -0.970647 0
M  V30 3777 H 338.705 -1.79265 -3.44669 0
M  V30 3778 H 340.377 -4.06978 -2.17178 0
M  V30 3779 H 338.62 -3.85935 -1.98082 0
M  V30 3780 H 339.291 -4.20341 -3.57796 0
M  V30 3781 H 341.767 -2.27895 -3.48143 0
M  V30 3782 H 340.643 -2.62484 -4.82072 0
M  V30 3783 H 340.904 -0.963082 -4.31482 0
M  V30 3784 N 339.963 1.05934 -1.16686 0
M  V30 3785 C 340.893 2.1546 -0.899949 0
M  V30 3786 C 341.874 1.69391 0.155154 0
M  V30 3787 O 343.059 1.94199 0.00648693 0
M  V30 3788 C 340.189 3.44939 -0.404241 0
M  V30 3789 C 339.143 4.04536 -1.39767 0
M  V30 3790 C 338.469 5.29268 -0.760216 0
M  V30 3791 C 339.769 4.42893 -2.76845 0
M  V30 3792 H 341.463 2.38046 -1.81588 0
M  V30 3793 H 339.009 1.14404 -0.874514 0
M  V30 3794 H 340.962 4.20901 -0.204971 0
M  V30 3795 H 339.686 3.21983 0.547206 0
M  V30 3796 H 338.345 3.30635 -1.58355 0
M  V30 3797 H 337.993 5.02611 0.197831 0
M  V30 3798 H 337.693 5.70101 -1.42332 0
M  V30 3799 H 339.217 6.07924 -0.57105 0
M  V30 3800 H 340.631 5.09921 -2.62019 0
M  V30 3801 H 339.028 4.94721 -3.39663 0
M  V30 3802 H 340.098 3.53584 -3.31823 0
M  V30 3803 N 341.441 0.965919 1.2453 0
M  V30 3804 C 342.404 0.499547 2.2369 0
M  V30 3805 C 343.404 -0.40294 1.5567 0
M  V30 3806 O 344.594 -0.19865 1.73064 0
M  V30 3807 C 341.726 -0.276792 3.39774 0
M  V30 3808 H 342.919 1.37613 2.66463 0
M  V30 3809 H 340.472 0.750324 1.37112 0
M  V30 3810 H 341.207 -1.17055 3.02438 0
M  V30 3811 H 340.992 0.370826 3.90343 0
M  V30 3812 H 342.482 -0.592175 4.1338 0
M  V30 3813 N 342.919 -1.39368 0.735821 0
M  V30 3814 C 343.882 -2.2896 0.104874 0
M  V30 3815 C 344.882 -1.46347 -0.666274 0
M  V30 3816 O 346.072 -1.67014 -0.49517 0
M  V30 3817 C 343.204 -3.29857 -0.860656 0
M  V30 3818 H 344.397 -2.86259 0.894205 0
M  V30 3819 H 341.95 -1.48029 0.501704 0
M  V30 3820 H 342.685 -2.77615 -1.67631 0
M  V30 3821 H 342.47 -3.9087 -0.310327 0
M  V30 3822 H 343.96 -3.96893 -1.29867 0
M  V30 3823 N 344.397 -0.483516 -1.5 0
M  V30 3824 C 345.643 0.0672592 -2.02688 0
M  V30 3825 C 345.976 1.38247 -1.36387 0
M  V30 3826 O 345.251 1.88131 -0.493675 0
M  V30 3827 C 345.534 0.238109 -3.59312 0
M  V30 3828 C 345.387 -1.099 -4.36168 0
M  V30 3829 C 346.706 0.986916 -4.28892 0
M  V30 3830 H 343.825 0.0229696 -0.736642 0
M  V30 3831 H 346.467 -0.631527 -1.79197 0
M  V30 3832 H 344.617 0.8333 -3.79458 0
M  V30 3833 H 346.289 -1.73172 -4.27562 0
M  V30 3834 H 344.532 -1.69261 -3.99416 0
M  V30 3835 H 345.203 -0.932954 -5.44059 0
M  V30 3836 H 347.679 0.482302 -4.13295 0
M  V30 3837 H 346.555 1.07527 -5.38265 0
M  V30 3838 H 346.816 2.0265 -3.92919 0
M  V30 3839 N 345.875 1.56104 -0.216619 0
M  V30 3840 C 346.805 2.23063 0.690296 0
M  V30 3841 C 347.786 1.20072 1.20485 0
M  V30 3842 O 348.971 1.48643 1.24976 0
M  V30 3843 C 346.101 2.90672 1.90072 0
M  V30 3844 C 345.055 4.00092 1.5202 0
M  V30 3845 C 344.381 4.54972 2.80899 0
M  V30 3846 C 345.681 5.17398 0.71391 0
M  V30 3847 H 347.375 2.99109 0.132038 0
M  V30 3848 H 344.921 1.43866 0.0620664 0
M  V30 3849 H 346.874 3.36204 2.54057 0
M  V30 3850 H 345.598 2.12066 2.48386 0
M  V30 3851 H 344.257 3.55283 0.903839 0
M  V30 3852 H 343.905 3.73102 3.37348 0
M  V30 3853 H 343.605 5.28817 2.56176 0
M  V30 3854 H 345.129 5.0322 3.45836 0
M  V30 3855 H 346.543 5.59342 1.25735 0
M  V30 3856 H 344.94 5.97444 0.563951 0
M  V30 3857 H 346.01 4.84088 -0.280527 0
M  V30 3858 N 347.353 -0.0568162 1.57498 0
M  V30 3859 C 348.283 -1.06593 2.0775 0
M  V30 3860 C 349.264 -1.39448 0.974082 0
M  V30 3861 O 350.449 -1.48815 1.24771 0
M  V30 3862 C 347.579 -2.37509 2.5339 0
M  V30 3863 C 346.533 -2.1897 3.67745 0
M  V30 3864 C 345.859 -3.55402 3.99492 0
M  V30 3865 C 347.159 -1.59859 4.97235 0
M  V30 3866 H 348.853 -0.647706 2.9231 0
M  V30 3867 H 346.399 -0.310116 1.40621 0
M  V30 3868 H 348.352 -3.08409 2.87162 0
M  V30 3869 H 347.076 -2.8134 1.65878 0
M  V30 3870 H 345.735 -1.50508 3.3428 0
M  V30 3871 H 345.383 -3.9683 3.09088 0
M  V30 3872 H 345.083 -3.43831 4.76502 0
M  V30 3873 H 346.607 -4.27708 4.35773 0
M  V30 3874 H 348.021 -2.20642 5.29141 0
M  V30 3875 H 346.418 -1.58942 5.78669 0
M  V30 3876 H 347.488 -0.561506 4.81638 0
M  V30 3877 N 348.832 -1.54138 -0.328536 0
M  V30 3878 C 349.779 -1.83176 -1.40411 0
M  V30 3879 C 350.749 -0.678494 -1.5161 0
M  V30 3880 O 351.934 -0.92443 -1.6691 0
M  V30 3881 C 349.074 -2.06035 -2.76846 0
M  V30 3882 C 348.187 -3.33727 -2.74318 0
M  V30 3883 C 347.322 -3.46574 -4.02567 0
M  V30 3884 C 346.361 -4.68159 -3.94327 0
M  V30 3885 N 345.498 -4.77959 -5.14296 0
M  V30 3886 H 350.338 -2.74938 -1.14948 0
M  V30 3887 H 347.875 -1.36166 -0.556538 0
M  V30 3888 H 349.833 -2.1728 -3.56153 0
M  V30 3889 H 348.463 -1.1757 -3.00628 0
M  V30 3890 H 347.515 -3.31246 -1.8703 0
M  V30 3891 H 348.827 -4.23139 -2.64111 0
M  V30 3892 H 347.981 -3.57333 -4.90304 0
M  V30 3893 H 346.72 -2.55245 -4.15574 0
M  V30 3894 H 345.725 -4.57461 -3.04974 0
M  V30 3895 H 346.95 -5.60868 -3.82889 0
M  V30 3896 H 344.896 -3.89544 -5.27818 0
M  V30 3897 H 344.813 -5.6133 -5.06404 0
M  V30 3898 H 346.081 -4.93044 -6.03761 0
M  V30 3899 N 350.31 0.590341 -1.46126 0
M  V30 3900 C 351.24 1.71032 -1.58966 0
M  V30 3901 C 352.221 1.64302 -0.440335 0
M  V30 3902 O 353.406 1.82436 -0.665634 0
M  V30 3903 C 350.536 3.09665 -1.57241 0
M  V30 3904 C 349.49 3.31221 -2.71066 0
M  V30 3905 C 348.816 4.70303 -2.54399 0
M  V30 3906 C 350.116 3.19796 -4.1295 0
M  V30 3907 H 351.81 1.60543 -2.52718 0
M  V30 3908 H 349.356 0.770933 -1.21625 0
M  V30 3909 H 351.309 3.87831 -1.64819 0
M  V30 3910 H 350.033 3.21036 -0.600289 0
M  V30 3911 H 348.692 2.55452 -2.62944 0
M  V30 3912 H 348.34 4.78429 -1.55288 0
M  V30 3913 H 348.04 4.85679 -3.30741 0
M  V30 3914 H 349.564 5.50647 -2.63857 0
M  V30 3915 H 350.978 3.87815 -4.22223 0
M  V30 3916 H 349.375 3.46696 -4.89818 0
M  V30 3917 H 350.445 2.16983 -4.33643 0
M  V30 3918 N 351.788 1.33704 0.83433 0
M  V30 3919 C 353.036 1.25169 1.58673 0
M  V30 3920 C 353.357 -0.18127 1.94156 0
M  V30 3921 O 352.627 -1.11113 1.6134 0
M  V30 3922 H 351.207 0.4603 0.58833 0
M  V30 3923 H 353.869 1.67478 0.996847 0
M  V30 3924 H 352.965 1.84856 2.51465 0
M  V30 3925 N 353.266 -1.05314 1.17247 0
M  V30 3926 C 354.514 -1.77941 0.958194 0
M  V30 3927 C 354.835 -1.88089 -0.514556 0
M  V30 3928 O 354.105 -1.39676 -1.37359 0
M  V30 3929 H 352.685 -0.659116 0.351533 0
M  V30 3930 H 355.347 -1.27166 1.47699 0
M  V30 3931 H 354.443 -2.79663 1.38546 0
M  V30 3932 N 354.744 -0.972509 -1.24016 0
M  V30 3933 C 355.974 -0.653853 -1.9598 0
M  V30 3934 C 356.382 0.781801 -1.72292 0
M  V30 3935 O 355.725 1.53677 -1.00644 0
M  V30 3936 C 355.787 -0.854608 -3.49194 0
M  V30 3937 C 355.451 -2.27082 -3.96589 0
M  V30 3938 C 356.448 -3.24892 -4.05883 0
M  V30 3939 C 354.133 -2.5998 -4.29786 0
M  V30 3940 C 356.127 -4.53684 -4.47716 0
M  V30 3941 C 353.814 -3.88997 -4.71301 0
M  V30 3942 C 354.812 -4.85661 -4.80232 0
M  V30 3943 O 354.5 -6.12376 -5.20818 0
M  V30 3944 H 354.232 -0.242572 -0.630979 0
M  V30 3945 H 356.786 -1.30431 -1.58673 0
M  V30 3946 H 355.016 -0.146985 -3.86421 0
M  V30 3947 H 356.705 -0.534311 -4.02368 0
M  V30 3948 H 357.471 -3.00805 -3.80449 0
M  V30 3949 H 353.35 -1.85457 -4.22051 0
M  V30 3950 H 356.894 -5.29135 -4.54601 0
M  V30 3951 H 352.791 -4.12882 -4.96184 0
M  V30 3952 H 353.559 -6.16013 -5.38953 0
M  V30 3953 N 356.222 1.38976 -0.743202 0
M  V30 3954 C 357.47 1.99948 -0.29417 0
M  V30 3955 C 357.791 1.59279 1.12495 0
M  V30 3956 O 357.061 0.844808 1.76748 0
M  V30 3957 H 355.641 0.739473 -0.105774 0
M  V30 3958 H 358.303 1.699 -0.954986 0
M  V30 3959 H 357.399 3.10142 -0.349056 0
M  V30 3960 N 357.7 0.491464 1.49741 0
M  V30 3961 C 358.633 -0.338464 2.25676 0
M  V30 3962 C 359.611 -0.978676 1.29849 0
M  V30 3963 O 360.795 -1.01064 1.59117 0
M  V30 3964 C 357.922 -1.47588 3.04853 0
M  V30 3965 C 356.968 -0.951 4.15762 0
M  V30 3966 S 357.801 0.150626 5.35288 0
M  V30 3967 C 358.957 -0.990178 6.18018 0
M  V30 3968 H 359.19 0.306068 2.9572 0
M  V30 3969 H 356.723 0.276622 1.51902 0
M  V30 3970 H 358.681 -2.12764 3.51058 0
M  V30 3971 H 357.342 -2.09199 2.34296 0
M  V30 3972 H 356.535 -1.80311 4.70642 0
M  V30 3973 H 356.137 -0.376607 3.72099 0
M  V30 3974 H 358.429 -1.89748 6.50386 0
M  V30 3975 H 359.372 -0.480205 7.0647 0
M  V30 3976 H 359.78 -1.25321 5.50413 0
M  V30 3977 N 359.178 -1.55987 0.224894 0
M  V30 3978 C 360.111 -2.16413 -0.723929 0
M  V30 3979 C 361.089 -1.10952 -1.18863 0
M  V30 3980 O 362.273 -1.39225 -1.27077 0
M  V30 3981 C 359.4 -2.74711 -1.98121 0
M  V30 3982 C 358.446 -3.9303 -1.6562 0
M  V30 3983 S 359.279 -5.29817 -0.778058 0
M  V30 3984 C 360.435 -5.91555 -2.04483 0
M  V30 3985 H 360.668 -2.96555 -0.210347 0
M  V30 3986 H 358.201 -1.54397 0.00955457 0
M  V30 3987 H 360.159 -3.08938 -2.70311 0
M  V30 3988 H 358.82 -1.94555 -2.46591 0
M  V30 3989 H 358.013 -4.32334 -2.59043 0
M  V30 3990 H 357.615 -3.59966 -1.01491 0
M  V30 3991 H 359.907 -6.07732 -2.99446 0
M  V30 3992 H 360.85 -6.87498 -1.69563 0
M  V30 3993 H 361.258 -5.20419 -2.18688 0
M  V30 3994 N 360.656 0.0484629 -1.57525 0
M  V30 3995 C 362.072 0.40375 -1.54409 0
M  V30 3996 C 362.272 1.77786 -0.948384 0
M  V30 3997 O 361.328 2.46189 -0.560983 0
M  V30 3998 C 362.641 0.323394 -2.98956 0
M  V30 3999 C 364.189 0.401892 -3.10409 0
M  V30 4000 C 364.664 0.351195 -4.56652 0
M  V30 4001 N 366.155 0.410576 -4.61377 0
M  V30 4002 C 366.89 0.393933 -5.72045 0
M  V30 4003 N 366.386 0.330724 -6.9201 0
M  V30 4004 N 368.179 0.442227 -5.60358 0
M  V30 4005 H 360.33 -0.851016 -1.94606 0
M  V30 4006 H 362.593 -0.321721 -0.89174 0
M  V30 4007 H 362.299 -0.62011 -3.4619 0
M  V30 4008 H 362.173 1.12463 -3.60044 0
M  V30 4009 H 364.56 1.33582 -2.63134 0
M  V30 4010 H 364.641 -0.428342 -2.52188 0
M  V30 4011 H 364.285 -0.578987 -5.04589 0
M  V30 4012 H 364.215 1.19928 -5.12762 0
M  V30 4013 H 366.706 0.462729 -3.75056 0
M  V30 4014 H 367.019 0.322592 -7.72126 0
M  V30 4015 H 365.364 0.29706 -6.94365 0
M  V30 4016 H 368.555 0.489464 -4.65534 0
M  V30 4017 H 368.728 0.425788 -6.466 0
M  V30 4018 N 362.134 1.5431 0.320358 0
M  V30 4019 C 363.064 1.86912 1.3995 0
M  V30 4020 C 364.045 0.726211 1.53819 0
M  V30 4021 O 365.23 0.980233 1.67646 0
M  V30 4022 C 362.36 2.09932 2.7667 0
M  V30 4023 C 361.314 3.25776 2.77586 0
M  V30 4024 C 360.64 3.34173 4.17412 0
M  V30 4025 C 361.94 4.6335 2.41048 0
M  V30 4026 H 363.634 2.77292 1.12914 0
M  V30 4027 H 361.18 1.33421 0.541738 0
M  V30 4028 H 363.133 2.31324 3.52232 0
M  V30 4029 H 361.857 1.16304 3.0519 0
M  V30 4030 H 360.516 3.04276 2.04479 0
M  V30 4031 H 360.164 2.38098 4.43078 0
M  V30 4032 H 359.864 4.12033 4.18931 0
M  V30 4033 H 361.388 3.57803 4.94782 0
M  V30 4034 H 362.802 4.84602 3.06324 0
M  V30 4035 H 361.199 5.43782 2.53813 0
M  V30 4036 H 362.269 4.65381 1.36193 0
M  V30 4037 N 363.613 -0.582584 1.46437 0
M  V30 4038 C 364.841 -1.36682 1.55324 0
M  V30 4039 C 365.256 -1.87796 0.194409 0
M  V30 4040 O 364.613 -1.63623 -0.808318 0
M  V30 4041 C 364.664 -2.55426 2.55812 0
M  V30 4042 O 364.385 -2.0643 3.86417 0
M  V30 4043 C 365.886 -3.47976 2.74641 0
M  V30 4044 H 363.106 -0.417545 0.525259 0
M  V30 4045 H 365.65 -0.708219 1.91845 0
M  V30 4046 H 363.805 -3.17275 2.22295 0
M  V30 4047 H 364.219 -2.83762 4.41111 0
M  V30 4048 H 365.693 -4.27775 3.48874 0
M  V30 4049 H 366.17 -3.99919 1.81553 0
M  V30 4050 H 366.776 -2.91962 3.09255 0
M  V30 4051 N 365.091 -1.34144 -0.827227 0
M  V30 4052 C 366.021 -1.28005 -1.95287 0
M  V30 4053 C 367.002 -0.158321 -1.69362 0
M  V30 4054 O 368.187 -0.349987 -1.9102 0
M  V30 4055 C 365.317 -1.03036 -3.31664 0
M  V30 4056 C 364.271 -2.11628 -3.72019 0
M  V30 4057 C 363.597 -1.71854 -5.0633 0
M  V30 4058 C 364.897 -3.53417 -3.8457 0
M  V30 4059 H 366.591 -2.22187 -2.00682 0
M  V30 4060 H 364.137 -1.0696 -0.964135 0
M  V30 4061 H 366.09 -0.973863 -4.09993 0
M  V30 4062 H 364.814 -0.0529391 -3.26557 0
M  V30 4063 H 363.473 -2.16339 -2.95961 0
M  V30 4064 H 363.121 -0.727841 -4.97706 0
M  V30 4065 H 362.821 -2.44531 -5.34302 0
M  V30 4066 H 364.345 -1.67692 -5.87122 0
M  V30 4067 H 365.759 -3.51142 -4.5318 0
M  V30 4068 H 364.156 -4.24679 -4.2399 0
M  V30 4069 H 365.226 -3.91072 -2.86689 0
M  V30 4070 N 366.569 1.04691 -1.17803 0
M  V30 4071 C 367.818 1.77176 -0.963931 0
M  V30 4072 C 368.131 1.88888 0.508015 0
M  V30 4073 O 369.337 2.58164 0.840465 0
M  V30 4074 C 367.793 3.18518 -1.67555 0
M  V30 4075 C 367.401 3.14919 -3.18637 0
M  V30 4076 C 369.145 3.95424 -1.54402 0
M  V30 4077 C 367.052 4.51081 -3.82466 0
M  V30 4078 H 365.982 0.664116 -0.357023 0
M  V30 4079 H 368.633 1.17303 -1.4111 0
M  V30 4080 H 367.015 3.78748 -1.15613 0
M  V30 4081 H 368.189 2.64178 -3.77554 0
M  V30 4082 H 366.504 2.51512 -3.31859 0
M  V30 4083 H 369.101 4.96106 -1.99456 0
M  V30 4084 H 369.444 4.13343 -0.495329 0
M  V30 4085 H 369.977 3.41754 -2.0359 0
M  V30 4086 H 366.716 4.38368 -4.87354 0
M  V30 4087 H 366.236 5.01951 -3.28337 0
M  V30 4088 H 367.915 5.2001 -3.84965 0
M  V30 4089 N 368.047 0.979072 1.23499 0
M  V30 4090 C 368.977 0.537606 2.27227 0
M  V30 4091 C 369.958 -0.428539 1.64613 0
M  V30 4092 O 371.143 -0.322191 1.91509 0
M  V30 4093 C 368.273 -0.162052 3.46922 0
M  V30 4094 C 367.227 0.721242 4.21879 0
M  V30 4095 C 366.553 -0.110555 5.34586 0
M  V30 4096 C 367.853 2.01141 4.82016 0
M  V30 4097 H 369.547 1.40462 2.64406 0
M  V30 4098 H 367.093 0.67684 1.27102 0
M  V30 4099 H 369.046 -0.482192 4.18632 0
M  V30 4100 H 367.77 -1.06351 3.08799 0
M  V30 4101 H 366.429 1.02482 3.51984 0
M  V30 4102 H 366.077 -1.0125 4.92704 0
M  V30 4103 H 365.777 0.477325 5.85658 0
M  V30 4104 H 367.301 -0.425107 6.09118 0
M  V30 4105 H 368.715 1.75612 5.45741 0
M  V30 4106 H 367.112 2.54695 5.43369 0
M  V30 4107 H 368.182 2.69909 4.02836 0
M  V30 4108 N 369.525 -1.3858 0.750561 0
M  V30 4109 C 370.473 -2.32339 0.110162 0
M  V30 4110 C 371.467 -1.53864 -0.708674 0
M  V30 4111 O 372.673 -1.69417 -0.608112 0
M  V30 4112 H 369.048 -0.751812 0.0168275 0
M  V30 4113 H 371.019 -2.83959 0.917053 0
M  V30 4114 C 369.768 -3.39043 -0.771067 0
M  V30 4115 H 369.091 -3.99517 -0.150374 0
M  V30 4116 H 370.531 -4.07061 -1.1865 0
M  V30 4117 C 368.99 -2.77365 -1.91234 0
M  V30 4118 O 369.52 -2.66434 -3.00626 0
M  V30 4119 N 367.726 -2.35219 -1.70646 0
M  V30 4120 H 367.273 -2.4431 -0.81673 0
M  V30 4121 H 367.231 -1.94294 -2.47178 0
M  V30 4122 N 371.003 -0.499398 -1.49478 0
M  V30 4123 C 372.414 -0.051215 -1.8663 0
M  V30 4124 C 372.765 1.36238 -1.41186 0
M  V30 4125 O 371.89 2.01502 -0.789051 0
M  V30 4126 C 372.485 -0.0861651 -3.3869 0
M  V30 4127 C 371.044 0.30667 -3.75149 0
M  V30 4128 C 370.191 -0.459397 -2.73468 0
M  V30 4129 H 373.142 -0.712264 -1.41818 0
M  V30 4130 H 373.163 0.709507 -3.73826 0
M  V30 4131 H 372.675 -1.11512 -3.71735 0
M  V30 4132 H 370.776 1.33892 -3.47712 0
M  V30 4133 H 370.889 -0.0116669 -4.79099 0
M  V30 4134 H 369.253 0.0905645 -2.54539 0
M  V30 4135 H 370.036 -1.4884 -3.09357 0
M  V30 4136 N 372.481 1.55866 -0.233164 0
M  V30 4137 C 373.411 2.23783 0.666599 0
M  V30 4138 C 374.392 1.21343 1.19205 0
M  V30 4139 O 375.577 1.4996 1.23392 0
M  V30 4140 C 372.707 2.92671 1.86978 0
M  V30 4141 C 371.661 4.01682 1.47768 0
M  V30 4142 C 370.987 4.57926 2.76058 0
M  V30 4143 C 372.287 5.18126 0.658993 0
M  V30 4144 H 373.981 2.99232 0.100306 0
M  V30 4145 H 371.527 1.43924 0.046804 0
M  V30 4146 H 373.48 3.3888 2.50476 0
M  V30 4147 H 372.204 2.14688 2.46123 0
M  V30 4148 H 370.863 3.56222 0.866106 0
M  V30 4149 H 370.511 3.76659 3.33372 0
M  V30 4150 H 370.211 5.31505 2.50552 0
M  V30 4151 H 371.735 5.06859 3.40479 0
M  V30 4152 H 373.149 5.60644 1.19795 0
M  V30 4153 H 371.546 5.98009 0.500552 0
M  V30 4154 H 372.616 4.83763 -0.331856 0
M  V30 4155 N 373.959 -0.0401083 1.57549 0
M  V30 4156 C 375.187 -0.745196 1.93014 0
M  V30 4157 C 375.602 -1.6948 0.831984 0
M  V30 4158 O 374.959 -1.81482 -0.192463 0
M  V30 4159 C 375.01 -1.51176 3.28372 0
M  V30 4160 O 374.731 -0.600284 4.33968 0
M  V30 4161 C 376.232 -2.315 3.78051 0
M  V30 4162 H 373.452 -0.210088 0.637263 0
M  V30 4163 H 375.996 -0.000924689 2.045 0
M  V30 4164 H 374.151 -2.20801 3.18317 0
M  V30 4165 H 374.565 -1.13669 5.12035 0
M  V30 4166 H 376.039 -2.80697 4.75303 0
M  V30 4167 H 376.516 -3.12436 3.08675 0
M  V30 4168 H 377.122 -1.66971 3.91153 0
M  V30 4169 N 375.437 -1.54477 -0.31217 0
M  V30 4170 C 376.384 -1.84655 -1.38461 0
M  V30 4171 C 377.354 -0.694536 -1.50882 0
M  V30 4172 O 378.539 -0.942081 -1.6592 0
M  V30 4173 C 375.679 -2.0896 -2.74645 0
M  V30 4174 C 374.792 -3.36618 -2.70763 0
M  V30 4175 C 373.927 -3.50824 -3.98868 0
M  V30 4176 C 372.966 -4.72315 -3.89339 0
M  V30 4177 N 372.103 -4.83387 -5.09197 0
M  V30 4178 H 376.943 -2.76142 -1.12026 0
M  V30 4179 H 374.48 -1.36748 -0.542065 0
M  V30 4180 H 376.438 -2.21045 -3.53829 0
M  V30 4181 H 375.068 -1.20752 -2.99364 0
M  V30 4182 H 374.12 -3.33211 -1.83506 0
M  V30 4183 H 375.432 -4.25917 -2.59608 0
M  V30 4184 H 374.586 -3.62513 -4.86486 0
M  V30 4185 H 373.325 -2.59638 -4.12843 0
M  V30 4186 H 372.33 -4.6067 -3.00105 0
M  V30 4187 H 373.555 -5.64897 -3.76919 0
M  V30 4188 H 371.501 -3.9512 -5.23657 0
M  V30 4189 H 371.418 -5.66669 -5.00422 0
M  V30 4190 H 372.686 -4.9942 -5.98498 0
M  V30 4191 N 376.915 0.57481 -1.46744 0
M  V30 4192 C 377.865 1.67838 -1.54319 0
M  V30 4193 C 378.849 1.55759 -0.40346 0
M  V30 4194 O 380.041 1.6454 -0.652347 0
M  V30 4195 C 377.17 3.06624 -1.5439 0
M  V30 4196 C 376.256 3.23971 -2.73685 0
M  V30 4197 N 376.647 3.11447 -3.9854 0
M  V30 4198 C 374.945 3.5493 -2.70075 0
M  V30 4199 C 375.646 3.31011 -4.78337 0
M  V30 4200 N 374.622 3.56533 -4.10348 0
M  V30 4201 H 378.424 1.56698 -2.48642 0
M  V30 4202 H 375.938 0.779071 -1.42493 0
M  V30 4203 H 377.935 3.85839 -1.57905 0
M  V30 4204 H 376.595 3.1889 -0.611493 0
M  V30 4205 H 377.606 2.89145 -4.29669 0
M  V30 4206 H 374.283 3.73832 -1.85893 0
M  V30 4207 H 375.673 3.26445 -5.87268 0
M  V30 4208 N 378.394 1.34581 0.820102 0
M  V30 4209 C 379.327 1.20735 1.93644 0
M  V30 4210 C 380.305 0.0983343 1.62302 0
M  V30 4211 O 381.489 0.263997 1.86642 0
M  V30 4212 C 378.616 0.856037 3.27704 0
M  V30 4213 C 377.662 1.97521 3.78005 0
M  V30 4214 S 378.495 3.58906 3.97425 0
M  V30 4215 C 379.651 3.25822 5.34407 0
M  V30 4216 H 379.884 2.15231 2.05093 0
M  V30 4217 H 377.417 1.1964 0.97599 0
M  V30 4218 H 379.375 0.660133 4.05157 0
M  V30 4219 H 378.036 -0.0706253 3.14021 0
M  V30 4220 H 377.229 1.68321 4.75062 0
M  V30 4221 H 376.831 2.12875 3.07507 0
M  V30 4222 H 379.123 2.77812 6.17922 0
M  V30 4223 H 380.066 4.22029 5.68592 0
M  V30 4224 H 380.474 2.61932 5.00052 0
M  V30 4225 N 379.872 -1.04064 1.18357 0
M  V30 4226 C 380.835 -2.10243 0.912707 0
M  V30 4227 C 381.835 -1.60477 -0.101928 0
M  V30 4228 O 383.025 -1.73703 0.131517 0
M  V30 4229 C 380.157 -3.38893 0.369387 0
M  V30 4230 H 381.35 -2.35706 1.85426 0
M  V30 4231 H 378.903 -1.20489 0.995594 0
M  V30 4232 H 379.638 -3.19094 -0.578776 0
M  V30 4233 H 379.423 -3.76331 1.1008 0
M  V30 4234 H 380.913 -4.17128 0.198575 0
M  V30 4235 N 381.35 -0.985608 -1.22978 0
M  V30 4236 C 382.58 -0.674603 -1.95276 0
M  V30 4237 C 382.988 0.763483 -1.73111 0
M  V30 4238 O 382.331 1.52601 -1.02268 0
M  V30 4239 C 382.393 -0.891597 -3.48268 0
M  V30 4240 C 382.057 -2.31275 -3.94158 0
M  V30 4241 C 383.054 -3.29179 -4.02415 0
M  V30 4242 C 380.739 -2.64524 -4.27004 0
M  V30 4243 C 382.733 -4.58407 -4.42879 0
M  V30 4244 C 380.42 -3.93974 -4.67149 0
M  V30 4245 C 381.418 -4.90727 -4.75053 0
M  V30 4246 O 381.106 -6.17865 -5.14294 0
M  V30 4247 H 380.838 -0.249251 -0.628371 0
M  V30 4248 H 383.392 -1.32106 -1.5728 0
M  V30 4249 H 381.622 -0.187962 -3.86243 0
M  V30 4250 H 383.311 -0.576957 -4.01779 0
M  V30 4251 H 384.077 -3.04823 -3.77237 0
M  V30 4252 H 379.956 -1.89923 -4.2006 0
M  V30 4253 H 383.5 -5.33926 -4.48964 0
M  V30 4254 H 379.397 -4.18122 -4.91777 0
M  V30 4255 H 380.165 -6.21694 -5.32389 0
M  V30 4256 N 382.828 1.3818 -0.7579 0
M  V30 4257 C 384.239 1.82726 -0.383134 0
M  V30 4258 C 384.59 1.63214 1.08884 0
M  V30 4259 O 383.715 1.13566 1.84205 0
M  V30 4260 C 384.31 3.31728 -0.688631 0
M  V30 4261 C 382.869 3.74606 -0.367091 0
M  V30 4262 C 382.016 2.60896 -0.939599 0
M  V30 4263 H 384.967 1.26847 -0.953699 0
M  V30 4264 H 384.988 3.80487 0.0316492 0
M  V30 4265 H 384.5 3.45898 -1.76001 0
M  V30 4266 H 382.601 3.66013 0.697532 0
M  V30 4267 H 382.714 4.71215 -0.865658 0
M  V30 4268 H 381.078 2.52075 -0.3647 0
M  V30 4269 H 381.861 2.77864 -2.0161 0
M  V30 4270 N 384.306 0.507319 1.49211 0
M  V30 4271 C 385.553 -0.0349529 2.0247 0
M  V30 4272 C 385.881 -1.36409 1.38647 0
M  V30 4273 O 385.136 -1.88841 0.513566 0
M  V30 4274 C 385.435 -0.229513 3.56662 0
M  V30 4275 C 385.101 1.02241 4.39156 0
M  V30 4276 C 383.763 1.36557 4.61417 0
M  V30 4277 C 386.115 1.85428 4.871 0
M  V30 4278 C 383.443 2.53999 5.28868 0
M  V30 4279 C 385.795 3.02028 5.55843 0
M  V30 4280 C 384.459 3.36717 5.76349 0
M  V30 4281 H 383.729 -0.0127902 0.74089 0
M  V30 4282 H 386.376 0.668756 1.79443 0
M  V30 4283 H 384.681 -1.0158 3.78403 0
M  V30 4284 H 386.378 -0.663641 3.9547 0
M  V30 4285 H 382.968 0.745124 4.22073 0
M  V30 4286 H 387.152 1.6023 4.69723 0
M  V30 4287 H 382.408 2.81105 5.42946 0
M  V30 4288 H 386.582 3.66808 5.91967 0
M  V30 4289 H 384.209 4.27821 6.28389 0
M  V30 4290 N 385.784 -1.5574 0.241426 0
M  V30 4291 C 386.714 -2.24133 -0.654722 0
M  V30 4292 C 387.695 -1.21974 -1.1856 0
M  V30 4293 O 388.88 -1.50612 -1.22595 0
M  V30 4294 C 386.01 -2.93659 -1.85423 0
M  V30 4295 C 384.964 -4.0246 -1.45636 0
M  V30 4296 C 384.29 -4.59383 -2.73626 0
M  V30 4297 C 385.59 -5.18468 -0.631506 0
M  V30 4298 H 387.284 -2.99281 -0.0844353 0
M  V30 4299 H 384.83 -1.43947 -0.0391707 0
M  V30 4300 H 386.783 -3.40203 -2.48676 0
M  V30 4301 H 385.507 -2.15991 -2.44981 0
M  V30 4302 H 384.166 -3.56676 -0.847202 0
M  V30 4303 H 383.814 -3.78422 -3.3137 0
M  V30 4304 H 383.514 -5.32826 -2.4773 0
M  V30 4305 H 385.038 -5.08658 -3.37786 0
M  V30 4306 H 386.452 -5.61272 -1.1682 0
M  V30 4307 H 384.849 -5.98266 -0.468831 0
M  V30 4308 H 385.919 -4.8358 0.357506 0
M  V30 4309 N 387.262 0.0317525 -1.57568 0
M  V30 4310 C 388.508 0.724175 -1.8943 0
M  V30 4311 C 388.841 1.75149 -0.838836 0
M  V30 4312 O 388.116 1.93948 0.146422 0
M  V30 4313 C 388.399 1.39615 -3.31933 0
M  V30 4314 C 388.252 0.382537 -4.4817 0
M  V30 4315 C 389.571 2.33084 -3.73309 0
M  V30 4316 H 386.69 0.261797 -0.688935 0
M  V30 4317 H 389.332 -0.013017 -1.89996 0
M  V30 4318 H 387.482 2.02451 -3.31581 0
M  V30 4319 H 389.154 -0.243689 -4.60656 0
M  V30 4320 H 387.397 -0.29844 -4.32772 0
M  V30 4321 H 388.068 0.891145 -5.44759 0
M  V30 4322 H 390.544 1.80295 -3.7501 0
M  V30 4323 H 389.42 2.77084 -4.73831 0
M  V30 4324 H 389.681 3.19643 -3.05419 0
M  V30 4325 N 388.74 1.54641 0.303973 0
M  V30 4326 C 389.67 1.88386 1.3796 0
M  V30 4327 C 390.651 0.742485 1.5304 0
M  V30 4328 O 391.836 0.997959 1.66597 0
M  V30 4329 C 388.966 2.12854 2.74427 0
M  V30 4330 C 387.92 3.28702 2.74115 0
M  V30 4331 C 387.246 3.38582 4.13844 0
M  V30 4332 C 388.546 4.65881 2.3612 0
M  V30 4333 H 390.24 2.78474 1.09966 0
M  V30 4334 H 387.786 1.33988 0.527556 0
M  V30 4335 H 389.739 2.35047 3.49758 0
M  V30 4336 H 388.463 1.19535 3.03939 0
M  V30 4337 H 387.122 3.06428 2.0124 0
M  V30 4338 H 386.77 2.42784 4.40528 0
M  V30 4339 H 386.47 4.16453 4.14537 0
M  V30 4340 H 387.994 3.63031 4.90959 0
M  V30 4341 H 389.408 4.87823 3.01167 0
M  V30 4342 H 387.805 5.46444 2.48031 0
M  V30 4343 H 388.875 4.66799 1.3125 0
M  V30 4344 N 390.218 -0.567019 1.47046 0
M  V30 4345 C 391.443 -1.3551 1.57009 0
M  V30 4346 C 391.868 -1.86841 0.217259 0
M  V30 4347 O 391.226 -1.62435 -0.805268 0
M  V30 4348 C 391.274 -2.50777 2.5912 0
M  V30 4349 O 390.378 -3.52706 2.13711 0
M  V30 4350 H 389.719 -0.402919 0.52778 0
M  V30 4351 H 392.249 -0.686241 1.92748 0
M  V30 4352 H 392.259 -2.97481 2.79229 0
M  V30 4353 H 390.934 -2.12771 3.57353 0
M  V30 4354 H 389.511 -3.12374 2.03659 0
M  V30 4355 N 391.696 -1.35014 -0.812953 0
M  V30 4356 C 392.626 -1.30069 -1.93919 0
M  V30 4357 C 393.607 -0.176275 -1.69184 0
M  V30 4358 O 394.792 -0.370227 -1.90638 0
M  V30 4359 C 391.922 -1.06547 -3.30552 0
M  V30 4360 C 390.876 -2.15561 -3.69753 0
M  V30 4361 C 390.202 -1.77214 -5.04479 0
M  V30 4362 C 391.502 -3.57476 -3.808 0
M  V30 4363 H 393.196 -2.24303 -1.98314 0
M  V30 4364 H 390.742 -1.07977 -0.952736 0
M  V30 4365 H 392.695 -1.01729 -4.08937 0
M  V30 4366 H 391.419 -0.0875719 -3.26483 0
M  V30 4367 H 390.078 -2.19466 -2.9365 0
M  V30 4368 H 389.726 -0.780589 -4.96906 0
M  V30 4369 H 389.426 -2.50184 -5.31678 0
M  V30 4370 H 390.95 -1.7391 -5.8531 0
M  V30 4371 H 392.364 -3.55929 -4.4943 0
M  V30 4372 H 390.761 -4.29152 -4.19462 0
M  V30 4373 H 391.831 -3.94091 -2.82525 0
M  V30 4374 N 393.175 1.03435 -1.18907 0
M  V30 4375 C 394.421 1.7713 -0.99982 0
M  V30 4376 C 394.776 1.86695 0.465049 0
M  V30 4377 O 394.069 1.36866 1.34083 0
M  V30 4378 C 394.263 3.19792 -1.59586 0
M  V30 4379 C 394.092 3.24134 -3.11717 0
M  V30 4380 C 392.862 3.32398 -3.80578 0
M  V30 4381 C 395.06 3.11625 -4.09138 0
M  V30 4382 N 393.042 3.26055 -5.20155 0
M  V30 4383 C 394.413 3.12855 -5.35277 0
M  V30 4384 C 396.468 2.95713 -4.00572 0
M  V30 4385 C 395.171 2.99805 -6.53842 0
M  V30 4386 C 397.197 2.84011 -5.1874 0
M  V30 4387 C 396.559 2.8589 -6.43775 0
M  V30 4388 H 392.658 0.659683 -0.419931 0
M  V30 4389 H 395.242 1.2317 -1.50789 0
M  V30 4390 H 393.413 3.72085 -1.11389 0
M  V30 4391 H 395.145 3.81819 -1.3415 0
M  V30 4392 H 391.9 3.38392 -3.31342 0
M  V30 4393 H 392.324 3.26307 -5.93172 0
M  V30 4394 H 396.966 2.93086 -3.0473 0
M  V30 4395 H 394.684 3.01184 -7.49876 0
M  V30 4396 H 398.27 2.72744 -5.13909 0
M  V30 4397 H 397.15 2.76931 -7.33675 0
M  V30 4398 N 394.653 0.992116 1.22453 0
M  V30 4399 C 395.901 0.666215 1.90804 0
M  V30 4400 C 396.222 -0.804152 1.77647 0
M  V30 4401 O 395.492 -1.57629 1.16318 0
M  V30 4402 H 394.072 0.243423 0.706225 0
M  V30 4403 H 396.734 1.25845 1.48825 0
M  V30 4404 H 395.83 0.928069 2.97982 0
M  V30 4405 N 396.131 -1.37776 0.765217 0
M  V30 4406 C 397.064 -2.28008 0.0935025 0
M  V30 4407 C 398.042 -1.45985 -0.716047 0
M  V30 4408 O 399.226 -1.75331 -0.692203 0
M  V30 4409 C 396.353 -3.27228 -0.874052 0
M  V30 4410 C 395.399 -4.26239 -0.149307 0
M  V30 4411 S 396.232 -5.22827 1.15809 0
M  V30 4412 C 397.388 -6.256 0.193906 0
M  V30 4413 H 397.621 -2.84631 0.858637 0
M  V30 4414 H 395.154 -1.43952 0.558313 0
M  V30 4415 H 397.112 -3.84902 -1.42691 0
M  V30 4416 H 395.773 -2.69565 -1.61225 0
M  V30 4417 H 394.966 -4.96213 -0.88254 0
M  V30 4418 H 394.568 -3.7252 0.332366 0
M  V30 4419 H 396.86 -6.74508 -0.636011 0
M  V30 4420 H 397.803 -7.02838 0.861638 0
M  V30 4421 H 398.211 -5.64173 -0.191975 0
M  V30 4422 N 397.609 -0.515225 -1.4894 0
M  V30 4423 C 398.858 0.0261361 -2.01683 0
M  V30 4424 C 399.171 1.36719 -1.39883 0
M  V30 4425 O 400.377 1.99606 -1.84037 0
M  V30 4426 C 398.833 0.0970111 -3.59769 0
M  V30 4427 C 398.441 -1.23825 -4.30548 0
M  V30 4428 C 400.185 0.587981 -4.20408 0
M  V30 4429 C 398.092 -1.12877 -5.80528 0
M  V30 4430 H 397.022 0.0135398 -0.753878 0
M  V30 4431 H 399.673 -0.656787 -1.71343 0
M  V30 4432 H 398.055 0.844694 -3.86886 0
M  V30 4433 H 399.229 -2.00034 -4.15118 0
M  V30 4434 H 397.544 -1.66379 -3.81716 0
M  V30 4435 H 400.141 0.68763 -5.3026 0
M  V30 4436 H 400.484 1.59026 -3.84729 0
M  V30 4437 H 401.017 -0.103582 -3.97665 0
M  V30 4438 H 397.756 -2.10575 -6.20756 0
M  V30 4439 H 397.276 -0.407799 -5.98412 0
M  V30 4440 H 398.955 -0.813332 -6.41868 0
M  V30 4441 N 399.087 1.5561 -0.249682 0
M  V30 4442 C 400.02 2.17537 0.689408 0
M  V30 4443 C 400.998 1.12829 1.17083 0
M  V30 4444 O 402.182 1.41229 1.24846 0
M  V30 4445 C 399.309 2.77828 1.93725 0
M  V30 4446 C 398.355 3.95615 1.59346 0
M  V30 4447 S 399.188 5.30988 0.69367 0
M  V30 4448 C 400.344 5.94734 1.95046 0
M  V30 4449 H 400.577 2.96852 0.163142 0
M  V30 4450 H 398.11 1.54362 -0.0341166 0
M  V30 4451 H 400.068 3.13199 2.65361 0
M  V30 4452 H 398.729 1.98454 2.43465 0
M  V30 4453 H 397.922 4.364 2.52132 0
M  V30 4454 H 397.524 3.61535 0.957512 0
M  V30 4455 H 399.816 6.12419 2.89739 0
M  V30 4456 H 400.759 6.90109 1.58604 0
M  V30 4457 H 401.167 5.23832 2.10381 0
M  V30 4458 N 400.565 -0.0233959 1.57583 0
M  V30 4459 C 401.793 -0.724682 1.93794 0
M  V30 4460 C 402.208 -1.68588 0.849912 0
M  V30 4461 O 401.565 -1.81676 -0.173204 0
M  V30 4462 C 401.616 -1.47684 3.29957 0
M  V30 4463 O 401.337 -0.554222 4.3458 0
M  V30 4464 C 402.838 -2.27477 3.80485 0
M  V30 4465 H 400.058 -0.203317 0.639455 0
M  V30 4466 H 402.602 0.0207653 2.04489 0
M  V30 4467 H 400.757 -2.17412 3.20641 0
M  V30 4468 H 401.171 -1.08232 5.13212 0
M  V30 4469 H 402.645 -2.7564 4.78254 0
M  V30 4470 H 403.122 -3.09144 3.11972 0
M  V30 4471 H 403.728 -1.62813 3.92902 0
M  V30 4472 N 402.043 -1.548 -0.295768 0
M  V30 4473 C 403.268 -1.78653 -1.05346 0
M  V30 4474 C 403.693 -0.546894 -1.79974 0
M  V30 4475 O 403.051 0.502763 -1.7419 0
M  V30 4476 C 403.099 -2.99679 -2.00561 0
M  V30 4477 O 402.203 -2.7317 -3.08953 0
M  V30 4478 H 401.544 -0.59116 -0.302367 0
M  V30 4479 H 404.074 -2.01895 -0.331598 0
M  V30 4480 H 404.084 -3.27793 -2.42932 0
M  V30 4481 H 402.759 -3.89562 -1.4565 0
M  V30 4482 H 401.336 -2.56089 -2.71059 0
M  V30 4483 N 403.521 0.559213 -1.47345 0
M  V30 4484 C 404.746 1.34676 -1.57725 0
M  V30 4485 C 405.171 1.86723 -0.227164 0
M  V30 4486 O 404.529 1.6286 0.796642 0
M  V30 4487 C 404.577 2.49399 -2.60447 0
M  V30 4488 O 403.681 3.51567 -2.15578 0
M  V30 4489 H 403.022 0.400115 -0.52991 0
M  V30 4490 H 405.552 0.676009 -1.93109 0
M  V30 4491 H 405.562 2.95996 -2.80803 0
M  V30 4492 H 404.237 2.10873 -3.58477 0
M  V30 4493 H 402.814 3.11289 -2.05313 0
M  V30 4494 N 404.999 1.35443 0.805782 0
M  V30 4495 C 406.248 1.28097 1.55801 0
M  V30 4496 C 406.561 -0.142428 1.95081 0
M  V30 4497 O 407.767 -0.33817 2.69386 0
M  V30 4498 C 406.223 2.24653 2.81174 0
M  V30 4499 C 405.831 3.72342 2.49129 0
M  V30 4500 C 407.575 2.2625 3.59181 0
M  V30 4501 C 405.482 4.60719 3.70799 0
M  V30 4502 H 404.412 0.475937 0.584808 0
M  V30 4503 H 407.063 1.60712 0.885661 0
M  V30 4504 H 405.445 1.85011 3.50124 0
M  V30 4505 H 406.619 4.20624 1.88181 0
M  V30 4506 H 404.934 3.73361 1.84366 0
M  V30 4507 H 407.531 2.89495 4.49552 0
M  V30 4508 H 407.874 1.26647 3.96568 0
M  V30 4509 H 408.407 2.64426 2.97193 0
M  V30 4510 H 405.146 5.61324 3.3852 0
M  V30 4511 H 404.666 4.17163 4.3097 0
M  V30 4512 H 406.345 4.76182 4.38018 0
M  V30 4513 N 406.477 -1.02803 1.19454 0
M  V30 4514 C 407.717 -1.77769 1.00883 0
M  V30 4515 C 408.081 -1.86596 -0.45233 0
M  V30 4516 O 409.282 -2.57895 -0.757877 0
M  V30 4517 C 407.553 -3.16486 1.66046 0
M  V30 4518 S 409.112 -4.07632 1.62424 0
M  V30 4519 H 405.93 -0.611949 0.361993 0
M  V30 4520 H 408.532 -1.23175 1.51816 0
M  V30 4521 H 407.236 -3.0768 2.7159 0
M  V30 4522 H 406.767 -3.76156 1.15196 0
M  V30 4523 H 408.782 -4.91937 0.64903 0
M  V30 4524 N 407.956 -0.998596 -1.21925 0
M  V30 4525 C 408.886 -0.573688 -2.26343 0
M  V30 4526 C 409.867 0.402296 -1.65274 0
M  V30 4527 O 411.052 0.291683 -1.91997 0
M  V30 4528 C 408.182 0.106839 -3.47136 0
M  V30 4529 C 407.136 -0.788269 -4.20678 0
M  V30 4530 C 406.462 0.0254927 -5.34694 0
M  V30 4531 C 407.762 -2.08784 -4.78755 0
M  V30 4532 H 409.456 -1.44651 -2.62138 0
M  V30 4533 H 407.002 -0.696975 -1.26009 0
M  V30 4534 H 408.955 0.415531 -4.19346 0
M  V30 4535 H 407.679 1.01424 -3.10452 0
M  V30 4536 H 406.338 -1.08069 -3.50309 0
M  V30 4537 H 405.986 0.933989 -4.94253 0
M  V30 4538 H 405.686 -0.570437 -5.84825 0
M  V30 4539 H 407.21 0.328147 -6.09718 0
M  V30 4540 H 408.624 -1.84272 -5.42878 0
M  V30 4541 H 407.021 -2.63307 -5.39249 0
M  V30 4542 H 408.091 -2.76284 -3.98491 0
M  V30 4543 N 409.434 1.37368 -0.772513 0
M  V30 4544 C 410.85 1.53059 -0.452231 0
M  V30 4545 C 411.05 1.73065 1.03203 0
M  V30 4546 O 410.106 1.75245 1.81784 0
M  V30 4547 C 411.419 2.72659 -1.26797 0
M  V30 4548 C 412.967 2.86521 -1.25995 0
M  V30 4549 C 413.442 4.09105 -2.05905 0
M  V30 4550 N 414.933 4.16219 -2.03263 0
M  V30 4551 C 415.668 5.10107 -2.61875 0
M  V30 4552 N 415.164 6.09547 -3.29278 0
M  V30 4553 N 416.957 5.02596 -2.51701 0
M  V30 4554 H 409.108 1.22634 -1.7342 0
M  V30 4555 H 411.371 0.597206 -0.736239 0
M  V30 4556 H 411.077 2.64343 -2.31982 0
M  V30 4557 H 410.951 3.66363 -0.897672 0
M  V30 4558 H 413.338 2.94308 -0.216081 0
M  V30 4559 H 413.419 1.93774 -1.66989 0
M  V30 4560 H 413.063 4.0208 -3.10313 0
M  V30 4561 H 412.993 5.00968 -1.62292 0
M  V30 4562 H 415.484 3.45012 -1.54192 0
M  V30 4563 H 415.797 6.77718 -3.71374 0
M  V30 4564 H 414.142 6.09824 -3.33377 0
M  V30 4565 H 417.333 4.23855 -1.98657 0
M  V30 4566 H 417.506 5.75582 -2.97673 0
M  V30 4567 N 410.912 0.523116 1.48665 0
M  V30 4568 C 411.844 -0.280421 2.27478 0
M  V30 4569 C 412.857 -0.910694 1.34945 0
M  V30 4570 O 414.046 -0.790295 1.60052 0
M  V30 4571 C 411.146 -1.41171 3.08097 0
M  V30 4572 C 410.319 -0.884642 4.28361 0
M  V30 4573 C 409.378 -1.89622 4.90846 0
M  V30 4574 O 408.404 -1.4559 5.50265 0
M  V30 4575 N 409.606 -3.22801 4.82472 0
M  V30 4576 H 412.371 0.395481 2.97079 0
M  V30 4577 H 409.932 0.357018 1.57915 0
M  V30 4578 H 411.924 -2.08645 3.4677 0
M  V30 4579 H 410.494 -1.99139 2.40961 0
M  V30 4580 H 409.714 -0.0341177 3.94185 0
M  V30 4581 H 411.002 -0.511268 5.06225 0
M  V30 4582 H 410.4 -3.61246 4.35336 0
M  V30 4583 H 408.957 -3.85927 5.25265 0
M  V30 4584 N 412.39 -1.55475 0.257931 0
M  V30 4585 C 413.618 -2.03609 -0.367559 0
M  V30 4586 C 414.033 -1.13687 -1.50734 0
M  V30 4587 O 413.39 -0.153479 -1.81853 0
M  V30 4588 C 413.441 -3.51001 -0.864908 0
M  V30 4589 O 413.162 -4.37499 0.229465 0
M  V30 4590 C 414.663 -4.14946 -1.55997 0
M  V30 4591 H 411.883 -0.665459 -0.0860521 0
M  V30 4592 H 414.427 -2.00843 0.385014 0
M  V30 4593 H 412.582 -3.54266 -1.56762 0
M  V30 4594 H 412.996 -5.24286 -0.14998 0
M  V30 4595 H 414.47 -5.19735 -1.85956 0
M  V30 4596 H 414.947 -3.6209 -2.4857 0
M  V30 4597 H 415.553 -4.15635 -0.901543 0
M  V30 4598 N 413.868 0.0150385 -1.57593 0
M  V30 4599 C 415.145 0.7392 -1.81094 0
M  V30 4600 C 415.525 1.92817 -0.859344 0
M  V30 4601 O 414.873 2.28301 0.095362 0
M  V30 4602 C 415.083 1.15907 -3.29191 0
M  V30 4603 C 416.431 1.56918 -3.9454 0
M  V30 4604 O 417.455 1.25328 -3.33424 0
M  V30 4605 O 416.314 2.15604 -5.02173 0
M  V30 4606 H 413.408 0.358631 -0.745193 0
M  V30 4607 H 415.954 -0.00926156 -1.69697 0
M  V30 4608 H 414.726 0.310921 -3.90063 0
M  V30 4609 H 414.349 1.96711 -3.45529 0
M  V30 4610 N 415.346 1.54954 0.287554 0
M  V30 4611 C 416.276 1.89839 1.35954 0
M  V30 4612 C 417.257 0.758675 1.52244 0
M  V30 4613 O 418.442 1.01557 1.65529 0
M  V30 4614 C 415.572 2.15753 2.72154 0
M  V30 4615 C 414.526 3.3159 2.70614 0
M  V30 4616 C 413.852 3.42952 4.10229 0
M  V30 4617 C 415.152 4.68359 2.31165 0
M  V30 4618 H 416.846 2.79625 1.07007 0
M  V30 4619 H 414.392 1.3454 0.513316 0
M  V30 4620 H 416.345 2.38743 3.47246 0
M  V30 4621 H 415.069 1.22752 3.02654 0
M  V30 4622 H 413.728 3.08545 1.97979 0
M  V30 4623 H 413.376 2.47443 4.37928 0
M  V30 4624 H 413.076 4.20826 4.10097 0
M  V30 4625 H 414.6 3.68218 4.87081 0
M  V30 4626 H 416.014 4.9099 2.95976 0
M  V30 4627 H 414.411 5.49044 2.42221 0
M  V30 4628 H 415.481 4.68165 1.26291 0
M  V30 4629 N 416.824 -0.551391 1.4764 0
M  V30 4630 C 417.771 -1.65796 1.60563 0
M  V30 4631 C 418.741 -1.59932 0.448428 0
M  V30 4632 O 419.926 -1.78679 0.669222 0
M  V30 4633 C 417.066 -3.04108 1.63133 0
M  V30 4634 C 416.179 -3.20365 2.89811 0
M  V30 4635 C 415.314 -4.49109 2.8368 0
M  V30 4636 C 414.353 -4.58819 4.05156 0
M  V30 4637 N 413.49 -5.78926 3.97227 0
M  V30 4638 H 418.33 -1.54088 2.5507 0
M  V30 4639 H 415.867 -0.75052 1.26513 0
M  V30 4640 H 417.825 -3.84207 1.62606 0
M  V30 4641 H 416.455 -3.14637 0.721341 0
M  V30 4642 H 415.507 -2.33659 3.00179 0
M  V30 4643 H 416.819 -3.23402 3.79753 0
M  V30 4644 H 415.973 -5.37475 2.81434 0
M  V30 4645 H 414.712 -4.4856 1.91431 0
M  V30 4646 H 413.717 -3.68864 4.077 0
M  V30 4647 H 414.942 -4.61124 4.98539 0
M  V30 4648 H 412.888 -5.79314 3.07785 0
M  V30 4649 H 412.805 -5.83367 4.80853 0
M  V30 4650 H 414.073 -6.69637 3.99007 0
M  V30 4651 N 418.302 -1.35869 -0.798587 0
M  V30 4652 C 419.527 -1.32883 -1.59238 0
M  V30 4653 C 419.952 0.0894587 -1.87887 0
M  V30 4654 O 419.31 1.05869 -1.47178 0
M  V30 4655 C 419.358 -2.14892 -2.89575 0
M  V30 4656 O 418.462 -1.53512 -3.82763 0
M  V30 4657 H 417.803 -0.455236 -0.48338 0
M  V30 4658 H 420.333 -1.79024 -0.990539 0
M  V30 4659 H 420.343 -2.27139 -3.38928 0
M  V30 4660 H 419.018 -3.17998 -2.68049 0
M  V30 4661 H 417.595 -1.50153 -3.41334 0
M  V30 4662 N 419.78 1.02168 -1.19998 0
M  V30 4663 C 420.71 2.12488 -0.96804 0
M  V30 4664 C 421.691 1.69799 0.101185 0
M  V30 4665 O 422.876 1.94121 -0.0552993 0
M  V30 4666 C 420.006 3.43479 -0.513776 0
M  V30 4667 C 418.96 3.99884 -1.52566 0
M  V30 4668 C 418.286 5.26582 -0.928214 0
M  V30 4669 C 419.586 4.33861 -2.90795 0
M  V30 4670 H 421.28 2.32149 -1.89069 0
M  V30 4671 H 418.826 1.11564 -0.910468 0
M  V30 4672 H 420.779 4.20036 -0.338774 0
M  V30 4673 H 419.503 3.23561 0.444493 0
M  V30 4674 H 418.162 3.25429 -1.68794 0
M  V30 4675 H 417.81 5.02986 0.0378289 0
M  V30 4676 H 417.51 5.65284 -1.60397 0
M  V30 4677 H 419.034 6.05799 -0.764167 0
M  V30 4678 H 420.448 5.01327 -2.78109 0
M  V30 4679 H 418.845 4.83664 -3.55231 0
M  V30 4680 H 419.915 3.42848 -3.42904 0
M  V30 4681 N 421.258 1.00505 1.21394 0
M  V30 4682 C 422.507 0.683159 1.89778 0
M  V30 4683 C 422.82 -0.789471 1.7896 0
M  V30 4684 O 424.026 -1.22344 2.42372 0
M  V30 4685 C 422.482 1.17146 3.40301 0
M  V30 4686 C 422.09 2.67017 3.5973 0
M  V30 4687 C 423.834 0.924461 4.14311 0
M  V30 4688 C 421.741 3.09387 5.04017 0
M  V30 4689 H 420.671 0.25183 0.710702 0
M  V30 4690 H 423.322 1.21622 1.37406 0
M  V30 4691 H 421.704 0.566451 3.91928 0
M  V30 4692 H 422.878 3.32968 3.18542 0
M  V30 4693 H 421.193 2.89732 2.99073 0
M  V30 4694 H 423.79 1.21658 5.20676 0
M  V30 4695 H 424.133 -0.139286 4.16067 0
M  V30 4696 H 424.666 1.49226 3.6875 0
M  V30 4697 H 421.405 4.14989 5.07409 0
M  V30 4698 H 420.925 2.48149 5.46061 0
M  V30 4699 H 422.604 3.01371 5.72525 0
M  V30 4700 N 422.737 -1.36956 0.779787 0
M  V30 4701 C 423.7 -2.2851 0.177662 0
M  V30 4702 C 424.7 -1.48393 -0.619377 0
M  V30 4703 O 425.89 -1.68505 -0.441785 0
M  V30 4704 C 423.022 -3.32428 -0.755279 0
M  V30 4705 H 424.215 -2.83269 0.984823 0
M  V30 4706 H 421.768 -1.46358 0.548544 0
M  V30 4707 H 422.503 -2.82808 -1.58714 0
M  V30 4708 H 422.288 -3.91659 -0.185817 0
M  V30 4709 H 423.778 -4.00824 -1.17174 0
M  V30 4710 N 424.215 -0.530993 -1.48385 0
M  V30 4711 C 425.445 -0.00133928 -2.066 0
M  V30 4712 C 425.853 1.28599 -1.38777 0
M  V30 4713 O 425.196 1.77599 -0.469495 0
M  V30 4714 C 425.258 0.292137 -3.58311 0
M  V30 4715 C 424.922 -0.901864 -4.48013 0
M  V30 4716 C 425.919 -1.80053 -4.87726 0
M  V30 4717 C 423.604 -1.10915 -4.89901 0
M  V30 4718 C 425.598 -2.89038 -5.68098 0
M  V30 4719 C 423.285 -2.20213 -5.70043 0
M  V30 4720 C 424.283 -3.09107 -6.0905 0
M  V30 4721 O 423.971 -4.16514 -6.87583 0
M  V30 4722 H 423.703 -0.0308475 -0.675296 0
M  V30 4723 H 426.257 -0.736335 -1.91748 0
M  V30 4724 H 424.487 1.08112 -3.7128 0
M  V30 4725 H 426.176 0.763994 -3.98645 0
M  V30 4726 H 426.942 -1.65234 -4.55986 0
M  V30 4727 H 422.821 -0.426498 -4.59023 0
M  V30 4728 H 426.365 -3.58451 -5.98464 0
M  V30 4729 H 422.262 -2.35016 -6.01197 0
M  V30 4730 H 423.03 -4.14237 -7.05939 0
M  V30 4731 N 425.693 1.55336 -0.266172 0
M  V30 4732 C 426.918 2.04258 0.359661 0
M  V30 4733 C 427.343 1.14359 1.49344 0
M  V30 4734 O 426.701 0.140369 1.80756 0
M  V30 4735 C 426.749 3.50997 0.826635 0
M  V30 4736 O 425.853 3.64204 1.93466 0
M  V30 4737 H 425.194 0.659668 0.075727 0
M  V30 4738 H 427.724 2.00694 -0.39786 0
M  V30 4739 H 427.734 3.9219 1.12477 0
M  V30 4740 H 426.409 4.159 -0.00293032 0
M  V30 4741 H 424.986 3.34913 1.63974 0
M  V30 4742 N 427.171 -0.0066808 1.57599 0
M  V30 4743 C 428.396 -0.707738 1.94951 0
M  V30 4744 C 428.821 -1.66882 0.867868 0
M  V30 4745 O 428.179 -1.80457 -0.17458 0
M  V30 4746 C 428.227 -1.42162 3.31394 0
M  V30 4747 O 427.331 -2.53578 3.25226 0
M  V30 4748 H 426.672 -0.188752 0.636607 0
M  V30 4749 H 429.202 0.0445193 2.04552 0
M  V30 4750 H 429.212 -1.78655 3.66806 0
M  V30 4751 H 427.887 -0.716903 4.09675 0
M  V30 4752 H 426.464 -2.19463 3.01481 0
M  V30 4753 N 428.649 -1.55105 -0.279332 0
M  V30 4754 C 429.898 -1.74618 -1.00952 0
M  V30 4755 C 430.211 -0.551096 -1.87676 0
M  V30 4756 O 431.417 -0.628507 -2.64125 0
M  V30 4757 C 429.873 -3.09025 -1.84476 0
M  V30 4758 C 429.481 -4.36081 -1.0265 0
M  V30 4759 C 431.225 -3.37891 -2.56963 0
M  V30 4760 C 429.132 -5.6153 -1.85576 0
M  V30 4761 H 428.062 -0.650868 -0.38064 0
M  V30 4762 H 430.713 -1.81569 -0.265475 0
M  V30 4763 H 429.095 -2.96095 -2.62952 0
M  V30 4764 H 430.269 -4.59909 -0.286354 0
M  V30 4765 H 428.584 -4.14312 -0.416464 0
M  V30 4766 H 431.181 -4.28822 -3.19399 0
M  V30 4767 H 431.524 -2.57737 -3.26921 0
M  V30 4768 H 432.057 -3.5189 -1.85522 0
M  V30 4769 H 428.796 -6.44413 -1.2005 0
M  V30 4770 H 428.316 -5.41854 -2.57204 0
M  V30 4771 H 429.995 -5.99594 -2.43096 0
M  V30 4772 N 430.127 0.543554 -1.4793 0
M  V30 4773 C 431.352 1.32995 -1.59145 0
M  V30 4774 C 431.777 1.86472 -0.246956 0
M  V30 4775 O 431.135 1.63696 0.779324 0
M  V30 4776 C 431.183 2.46623 -2.63077 0
M  V30 4777 O 430.287 3.49261 -2.19295 0
M  V30 4778 H 429.628 0.394472 -0.534124 0
M  V30 4779 H 432.158 0.655489 -1.93816 0
M  V30 4780 H 432.168 2.93001 -2.83926 0
M  V30 4781 H 430.843 2.07059 -3.60693 0
M  V30 4782 H 429.42 3.09094 -2.08603 0
M  V30 4783 N 431.605 1.3629 0.791371 0
M  V30 4784 C 432.555 1.26988 1.89362 0
M  V30 4785 C 433.539 0.161795 1.60084 0
M  V30 4786 O 434.731 0.394426 1.72549 0
M  V30 4787 C 431.86 1.05944 3.26544 0
M  V30 4788 C 430.946 2.21211 3.61838 0
M  V30 4789 N 431.337 3.46518 3.68455 0
M  V30 4790 C 429.635 2.12933 3.91887 0
M  V30 4791 C 430.336 4.2241 3.99931 0
M  V30 4792 N 429.312 3.51329 4.14812 0
M  V30 4793 H 433.114 2.21908 1.92702 0
M  V30 4794 H 430.628 1.28982 0.986787 0
M  V30 4795 H 432.625 0.973666 4.05371 0
M  V30 4796 H 431.285 0.119223 3.24481 0
M  V30 4797 H 432.296 3.80677 3.51148 0
M  V30 4798 H 428.973 1.26855 3.97761 0
M  V30 4799 H 430.363 5.30767 4.1199 0
M  V30 4800 N 433.083 -1.0153 1.20538 0
M  V30 4801 C 434.016 -2.09759 0.898695 0
M  V30 4802 C 434.994 -1.61909 -0.149733 0
M  V30 4803 O 436.178 -1.88486 -0.0230293 0
M  V30 4804 C 433.305 -3.36913 0.347512 0
M  V30 4805 C 432.351 -4.03655 1.37713 0
M  V30 4806 S 433.184 -4.47402 2.94265 0
M  V30 4807 C 434.34 -5.77756 2.40726 0
M  V30 4808 H 434.573 -2.3545 1.81523 0
M  V30 4809 H 432.106 -1.14665 1.03399 0
M  V30 4810 H 434.064 -4.10484 0.0360518 0
M  V30 4811 H 432.725 -3.09291 -0.547546 0
M  V30 4812 H 431.918 -4.9514 0.940872 0
M  V30 4813 H 431.52 -3.36313 1.63614 0
M  V30 4814 H 433.812 -6.52994 1.80569 0
M  V30 4815 H 434.755 -6.2618 3.30612 0
M  V30 4816 H 435.163 -5.34081 1.82806 0
M  V30 4817 N 434.561 -1.01147 -1.20859 0
M  V30 4818 C 435.524 -0.582224 -2.21682 0
M  V30 4819 C 436.524 0.344887 -1.57058 0
M  V30 4820 O 437.714 0.134281 -1.73682 0
M  V30 4821 C 434.846 0.150496 -3.40568 0
M  V30 4822 H 436.039 -1.47408 -2.61172 0
M  V30 4823 H 433.592 -0.800695 -1.34233 0
M  V30 4824 H 434.327 1.0575 -3.06574 0
M  V30 4825 H 434.112 -0.515444 -3.88697 0
M  V30 4826 H 435.602 0.438344 -4.15293 0
M  V30 4827 N 436.039 1.36541 -0.78704 0
M  V30 4828 C 436.969 2.32659 -0.197992 0
M  V30 4829 C 437.95 1.56533 0.665697 0
M  V30 4830 O 439.135 1.84698 0.60001 0
M  V30 4831 C 436.265 3.40778 0.669901 0
M  V30 4832 C 435.219 4.27897 -0.0937039 0
M  V30 4833 C 434.545 5.27163 0.894629 0
M  V30 4834 C 435.845 5.06334 -1.28154 0
M  V30 4835 H 437.539 2.82171 -1.00099 0
M  V30 4836 H 435.085 1.35665 -0.482793 0
M  V30 4837 H 437.038 4.07008 1.09191 0
M  V30 4838 H 435.762 2.89827 1.50558 0
M  V30 4839 H 434.421 3.6322 -0.49666 0
M  V30 4840 H 434.069 4.72486 1.72527 0
M  V30 4841 H 433.769 5.86317 0.388149 0
M  V30 4842 H 435.293 5.96266 1.31525 0
M  V30 4843 H 436.707 5.65617 -0.93541 0
M  V30 4844 H 435.104 5.74888 -1.72115 0
M  V30 4845 H 436.174 4.38114 -2.07807 0
M  V30 4846 N 437.518 0.538854 1.48102 0
M  V30 4847 C 438.764 0.00801365 2.02798 0
M  V30 4848 C 439.097 -1.3309 1.41424 0
M  V30 4849 O 438.372 -1.86169 0.563158 0
M  V30 4850 C 438.655 -0.104589 3.59948 0
M  V30 4851 C 438.508 1.26012 4.31788 0
M  V30 4852 C 439.827 -0.827055 4.32259 0
M  V30 4853 H 436.946 0.00438624 0.736987 0
M  V30 4854 H 439.588 0.6976 1.7673 0
M  V30 4855 H 437.738 -0.691893 3.82289 0
M  V30 4856 H 439.41 1.88922 4.2084 0
M  V30 4857 H 437.653 1.83968 3.92859 0
M  V30 4858 H 438.324 1.13424 5.40221 0
M  V30 4859 H 440.8 -0.328578 4.14801 0
M  V30 4860 H 439.676 -0.87476 5.41885 0
M  V30 4861 H 439.937 -1.87927 4.0017 0
M  V30 4862 N 438.996 -1.55193 0.274407 0
M  V30 4863 C 440.242 -1.99877 -0.343086 0
M  V30 4864 C 440.575 -1.16256 -1.55558 0
M  V30 4865 O 439.85 -0.232462 -1.93106 0
M  V30 4866 C 440.133 -3.52706 -0.725965 0
M  V30 4867 C 439.986 -4.47081 0.493818 0
M  V30 4868 C 441.305 -4.11422 -1.56268 0
M  V30 4869 H 438.424 -0.726625 -0.123229 0
M  V30 4870 H 441.066 -1.86136 0.38121 0
M  V30 4871 H 439.216 -3.64546 -1.34307 0
M  V30 4872 H 440.888 -4.47186 1.13237 0
M  V30 4873 H 439.131 -4.1877 1.13201 0
M  V30 4874 H 439.802 -5.51699 0.18217 0
M  V30 4875 H 442.278 -4.02855 -1.04151 0
M  V30 4876 H 441.154 -5.18568 -1.79939 0
M  V30 4877 H 441.415 -3.61607 -2.54348 0
M  V30 4878 N 440.474 -0.00167713 -1.576 0
M  V30 4879 C 441.702 0.693759 -1.94922 0
M  V30 4880 C 442.117 1.67215 -0.876626 0
M  V30 4881 O 441.474 1.81929 0.144279 0
M  V30 4882 C 441.525 1.42416 -3.32265 0
M  V30 4883 O 441.246 0.485014 -4.35407 0
M  V30 4884 C 442.747 2.21395 -3.84056 0
M  V30 4885 H 439.967 0.193118 -0.642609 0
M  V30 4886 H 442.511 -0.0532952 -2.04431 0
M  V30 4887 H 440.666 2.12284 -3.24059 0
M  V30 4888 H 441.08 1.00053 -5.14868 0
M  V30 4889 H 442.554 2.67996 -4.82578 0
M  V30 4890 H 443.031 3.04142 -3.16851 0
M  V30 4891 H 443.637 1.56542 -3.95443 0
M  V30 4892 N 441.952 1.55251 0.271103 0
M  V30 4893 C 442.915 1.87484 1.31842 0
M  V30 4894 C 443.915 0.749545 1.42262 0
M  V30 4895 O 445.105 1.01771 1.4138 0
M  V30 4896 C 442.237 2.0818 2.69951 0
M  V30 4897 H 443.43 2.81108 1.0449 0
M  V30 4898 H 440.983 1.47771 0.509258 0
M  V30 4899 H 441.718 1.16944 3.02481 0
M  V30 4900 H 441.503 2.90114 2.63774 0
M  V30 4901 H 442.993 2.34385 3.4562 0
M  V30 4902 N 443.43 -0.535701 1.48216 0
M  V30 4903 C 444.679 -1.28828 1.55197 0
M  V30 4904 C 444.992 -1.94263 0.228278 0
M  V30 4905 O 446.198 -2.70927 0.176278 0
M  V30 4906 C 444.654 -2.33727 2.73678 0
M  V30 4907 C 444.262 -1.74386 4.12666 0
M  V30 4908 C 446.006 -3.1003 2.89968 0
M  V30 4909 C 443.913 -2.77192 5.22416 0
M  V30 4910 H 442.843 -0.484484 0.577747 0
M  V30 4911 H 445.494 -0.56646 1.74538 0
M  V30 4912 H 443.876 -3.08919 2.4776 0
M  V30 4913 H 445.05 -1.05421 4.48579 0
M  V30 4914 H 443.365 -1.10595 4.01445 0
M  V30 4915 H 445.962 -3.86842 3.6913 0
M  V30 4916 H 446.305 -3.65542 1.9921 0
M  V30 4917 H 446.838 -2.41952 3.15759 0
M  V30 4918 H 443.577 -2.26507 6.15122 0
M  V30 4919 H 443.097 -3.44502 4.90998 0
M  V30 4920 H 444.776 -3.40285 5.50286 0
M  V30 4921 N 444.908 -1.36708 -0.784132 0
M  V30 4922 C 445.838 -1.34153 -1.91116 0
M  V30 4923 C 446.819 -0.212121 -1.68772 0
M  V30 4924 O 448.004 -0.410581 -1.8981 0
M  V30 4925 C 445.134 -1.13535 -3.28218 0
M  V30 4926 C 444.088 -2.23356 -3.65097 0
M  V30 4927 C 443.414 -1.87875 -5.00607 0
M  V30 4928 C 444.714 -3.65473 -3.73131 0
M  V30 4929 H 446.408 -2.28459 -1.93512 0
M  V30 4930 H 443.954 -1.09973 -0.929618 0
M  V30 4931 H 445.907 -1.10381 -4.06687 0
M  V30 4932 H 444.631 -0.156804 -3.26223 0
M  V30 4933 H 443.29 -2.25645 -2.88929 0
M  V30 4934 H 442.938 -0.885814 -4.95139 0
M  V30 4935 H 442.638 -2.61406 -5.26252 0
M  V30 4936 H 444.162 -1.86286 -5.81489 0
M  V30 4937 H 445.576 -3.65382 -4.41779 0
M  V30 4938 H 443.973 -4.37953 -4.10265 0
M  V30 4939 H 445.043 -3.99995 -2.74102 0
M  V30 4940 N 446.386 1.0089 -1.21074 0
M  V30 4941 C 447.635 1.74019 -1.01981 0
M  V30 4942 C 447.948 1.90408 0.447665 0
M  V30 4943 O 449.154 2.60707 0.757906 0
M  V30 4944 C 447.61 3.13026 -1.77603 0
M  V30 4945 C 447.218 3.04623 -3.28495 0
M  V30 4946 C 448.962 3.90312 -1.66904 0
M  V30 4947 C 446.869 4.38685 -3.96623 0
M  V30 4948 H 445.799 0.652422 -0.377971 0
M  V30 4949 H 448.45 1.12755 -1.44771 0
M  V30 4950 H 446.832 3.74878 -1.27604 0
M  V30 4951 H 448.006 2.52032 -3.85767 0
M  V30 4952 H 446.321 2.40827 -3.39693 0
M  V30 4953 H 448.918 4.8951 -2.15138 0
M  V30 4954 H 449.261 4.11558 -0.62658 0
M  V30 4955 H 449.794 3.35104 -2.14359 0
M  V30 4956 H 446.533 4.22641 -5.01054 0
M  V30 4957 H 446.053 4.91252 -3.4414 0
M  V30 4958 H 447.732 5.075 -4.01314 0
M  V30 4959 N 447.864 1.01787 1.20321 0
M  V30 4960 C 448.796 0.547357 2.22568 0
M  V30 4961 C 449.809 -0.370922 1.58518 0
M  V30 4962 O 450.998 -0.169067 1.77698 0
M  V30 4963 C 448.098 -0.223031 3.38165 0
M  V30 4964 C 447.271 0.697472 4.31803 0
M  V30 4965 C 446.33 -0.025562 5.26194 0
M  V30 4966 O 445.356 0.597367 5.66057 0
M  V30 4967 N 446.558 -1.29999 5.65757 0
M  V30 4968 H 449.323 1.42668 2.63564 0
M  V30 4969 H 446.884 0.895552 1.34876 0
M  V30 4970 H 448.876 -0.716002 3.98316 0
M  V30 4971 H 447.446 -1.00366 2.9605 0
M  V30 4972 H 446.666 1.37073 3.69601 0
M  V30 4973 H 447.954 1.32347 4.91286 0
M  V30 4974 H 447.352 -1.827 5.35385 0
M  V30 4975 H 445.909 -1.73766 6.28211 0
M  V30 4976 N 449.342 -1.36122 0.79427 0
M  V30 4977 C 450.57 -2.03362 0.380989 0
M  V30 4978 C 450.985 -1.59881 -1.00416 0
M  V30 4979 O 450.342 -0.790515 -1.6449 0
M  V30 4980 C 450.393 -3.58804 0.440649 0
M  V30 4981 O 450.114 -4.007 1.77118 0
M  V30 4982 C 451.615 -4.43296 0.0186117 0
M  V30 4983 H 448.835 -0.652526 0.156367 0
M  V30 4984 H 451.379 -1.73998 1.07447 0
M  V30 4985 H 449.534 -3.8686 -0.204458 0
M  V30 4986 H 449.948 -4.95309 1.72538 0
M  V30 4987 H 451.422 -5.51887 0.111488 0
M  V30 4988 H 451.899 -4.2684 -1.03461 0
M  V30 4989 H 452.505 -4.20512 0.636395 0
M  V30 4990 N 450.82 -0.546701 -1.47814 0
M  V30 4991 C 452.231 -0.110564 -1.86372 0
M  V30 4992 C 452.582 1.31678 -1.45449 0
M  V30 4993 O 451.707 1.98889 -0.852758 0
M  V30 4994 C 452.302 -0.193873 -3.38245 0
M  V30 4995 C 450.861 0.187164 -3.75934 0
M  V30 4996 C 450.008 -0.546166 -2.71868 0
M  V30 4997 H 452.959 -0.757022 -1.39481 0
M  V30 4998 H 452.98 0.590218 -3.75895 0
M  V30 4999 H 452.492 -1.23282 -3.67999 0
M  V30 5000 H 450.593 1.22762 -3.51796 0
M  V30 5001 H 450.706 -0.164083 -4.78819 0
M  V30 5002 H 449.07 0.00953904 -2.54698 0
M  V30 5003 H 449.853 -1.58606 -3.04465 0
M  V30 5004 N 452.299 1.55045 -0.282633 0
M  V30 5005 C 453.545 2.0078 0.325436 0
M  V30 5006 C 453.9 1.1676 1.52921 0
M  V30 5007 O 453.193 0.231475 1.90197 0
M  V30 5008 C 453.387 3.49422 0.750938 0
M  V30 5009 C 453.216 4.47827 -0.410056 0
M  V30 5010 C 451.986 4.97288 -0.896239 0
M  V30 5011 C 454.184 4.98903 -1.24902 0
M  V30 5012 N 452.166 5.79508 -2.02591 0
M  V30 5013 C 453.537 5.78644 -2.22646 0
M  V30 5014 C 455.592 4.81126 -1.2815 0
M  V30 5015 C 454.295 6.42502 -3.23393 0
M  V30 5016 C 456.321 5.45789 -2.27745 0
M  V30 5017 C 455.683 6.25348 -3.24222 0
M  V30 5018 H 451.782 0.77747 0.08405 0
M  V30 5019 H 454.366 1.90369 -0.408368 0
M  V30 5020 H 452.537 3.60159 1.45395 0
M  V30 5021 H 454.269 3.81978 1.33698 0
M  V30 5022 H 451.024 4.71219 -0.474277 0
M  V30 5023 H 451.448 6.25308 -2.59459 0
M  V30 5024 H 456.09 4.19215 -0.549397 0
M  V30 5025 H 453.808 7.03558 -3.97533 0
M  V30 5026 H 457.394 5.33972 -2.31009 0
M  V30 5027 H 456.274 6.74498 -4.00027 0
M  V30 5028 N 453.777 0.010035 1.57597 0
M  V30 5029 C 455.002 -0.687021 1.95691 0
M  V30 5030 C 455.427 -1.65952 0.885519 0
M  V30 5031 O 454.785 -1.80633 -0.15543 0
M  V30 5032 C 454.833 -1.3864 3.32884 0
M  V30 5033 O 453.937 -2.50115 3.27897 0
M  V30 5034 H 453.278 -0.181989 0.638573 0
M  V30 5035 H 455.808 0.0662122 2.04493 0
M  V30 5036 H 455.818 -1.74754 3.6868 0
M  V30 5037 H 454.493 -0.673411 4.10412 0
M  V30 5038 H 453.07 -2.16253 3.03791 0
M  V30 5039 N 455.255 -1.55392 -0.262866 0
M  V30 5040 C 456.502 -1.76476 -0.993109 0
M  V30 5041 C 456.83 -0.571479 -1.85915 0
M  V30 5042 O 456.085 0.445733 -1.90556 0
M  V30 5043 C 456.384 -3.02889 -1.89718 0
M  V30 5044 C 456.05 -4.34974 -1.18781 0
M  V30 5045 C 454.712 -4.7087 -0.991699 0
M  V30 5046 C 457.064 -5.16695 -0.683798 0
M  V30 5047 C 454.392 -5.86036 -0.279024 0
M  V30 5048 C 456.744 -6.32598 0.0153327 0
M  V30 5049 C 455.408 -6.67127 0.223062 0
M  V30 5050 H 454.678 -0.64577 -0.363404 0
M  V30 5051 H 457.325 -1.89664 -0.264525 0
M  V30 5052 H 455.63 -2.84644 -2.6923 0
M  V30 5053 H 457.327 -3.16399 -2.46359 0
M  V30 5054 H 453.917 -4.06765 -1.35058 0
M  V30 5055 H 458.101 -4.8943 -0.8229 0
M  V30 5056 H 453.357 -6.11306 -0.107456 0
M  V30 5057 H 457.531 -6.95171 0.413584 0
M  V30 5058 H 455.158 -7.56216 0.777265 0
M  V30 5059 N 456.733 0.527833 -1.48498 0
M  V30 5060 C 457.961 1.30823 -1.6029 0
M  V30 5061 C 458.376 1.86945 -0.263974 0
M  V30 5062 O 457.733 1.6651 0.747034 0
M  V30 5063 C 457.784 2.45756 -2.65116 0
M  V30 5064 O 457.505 1.91946 -3.93813 0
M  V30 5065 C 459.006 3.37543 -2.87367 0
M  V30 5066 H 456.226 0.397763 -0.540394 0
M  V30 5067 H 458.77 0.636529 -1.94341 0
M  V30 5068 H 456.925 3.08806 -2.33917 0
M  V30 5069 H 457.339 2.67195 -4.51339 0
M  V30 5070 H 458.813 4.14532 -3.6451 0
M  V30 5071 H 459.29 3.92905 -1.9627 0
M  V30 5072 H 459.896 2.80283 -3.19878 0
M  V30 5073 N 458.211 1.37122 0.776871 0
M  V30 5074 C 459.459 1.31787 1.53221 0
M  V30 5075 C 459.78 -0.0987589 1.9475 0
M  V30 5076 O 459.05 -1.0417 1.65908 0
M  V30 5077 H 457.63 0.484839 0.568278 0
M  V30 5078 H 460.292 1.71556 0.924917 0
M  V30 5079 H 459.388 1.95355 2.43398 0
M  V30 5080 N 459.689 -1.00246 1.21608 0
M  V30 5081 C 460.652 -2.07233 0.979133 0
M  V30 5082 C 461.652 -1.6072 -0.0508219 0
M  V30 5083 O 462.842 -1.73196 0.186712 0
M  V30 5084 C 459.974 -3.37546 0.477016 0
M  V30 5085 H 461.167 -2.29687 1.92831 0
M  V30 5086 H 458.72 -1.17261 1.03342 0
M  V30 5087 H 459.455 -3.20773 -0.476966 0
M  V30 5088 H 459.24 -3.72638 1.21997 0
M  V30 5089 H 460.73 -4.16285 0.331181 0
M  V30 5090 N 461.167 -1.02423 -1.1978 0
M  V30 5091 C 462.413 -0.719051 -1.89625 0
M  V30 5092 C 462.746 0.750083 -1.7913 0
M  V30 5093 O 462.021 1.54574 -1.18056 0
M  V30 5094 C 462.304 -1.16499 -3.40735 0
M  V30 5095 C 462.157 -2.695 -3.60125 0
M  V30 5096 C 463.476 -0.742166 -4.33797 0
M  V30 5097 H 460.595 -0.26269 -0.688595 0
M  V30 5098 H 463.237 -1.27333 -1.41018 0
M  V30 5099 H 461.387 -0.69341 -3.82262 0
M  V30 5100 H 463.059 -3.24569 -3.278 0
M  V30 5101 H 461.302 -3.10113 -3.03336 0
M  V30 5102 H 461.973 -2.95757 -4.66081 0
M  V30 5103 H 464.449 -1.1477 -3.99959 0
M  V30 5104 H 463.325 -1.08213 -5.38127 0
M  V30 5105 H 463.586 0.355747 -4.40666 0
M  V30 5106 N 462.645 1.35699 -0.801477 0
M  V30 5107 C 463.894 1.98165 -0.375979 0
M  V30 5108 C 464.207 1.64306 1.06127 0
M  V30 5109 O 465.413 2.20097 1.58964 0
M  V30 5110 C 463.869 3.54497 -0.621305 0
M  V30 5111 C 463.477 3.9727 -2.07076 0
M  V30 5112 C 465.221 4.23697 -0.26091 0
M  V30 5113 C 463.128 5.46427 -2.26211 0
M  V30 5114 H 462.058 0.741478 -0.136844 0
M  V30 5115 H 464.709 1.54834 -0.984814 0
M  V30 5116 H 463.091 3.95958 0.0574112 0
M  V30 5117 H 464.265 3.66974 -2.78687 0
M  V30 5118 H 462.58 3.40943 -2.39054 0
M  V30 5119 H 465.177 5.33334 -0.381994 0
M  V30 5120 H 465.52 4.0869 0.792344 0
M  V30 5121 H 466.053 3.87639 -0.893339 0
M  V30 5122 H 462.792 5.66396 -3.29963 0
M  V30 5123 H 462.312 5.78309 -1.59119 0
M  V30 5124 H 463.991 6.12819 -2.07513 0
M  V30 5125 N 464.123 0.554532 1.47522 0
M  V30 5126 C 465.053 -0.182974 2.32782 0
M  V30 5127 C 466.034 -0.911377 1.43624 0
M  V30 5128 O 467.219 -0.892366 1.72483 0
M  V30 5129 C 464.349 -1.21513 3.25349 0
M  V30 5130 C 463.303 -0.603355 4.23726 0
M  V30 5131 C 462.629 -1.73995 5.05598 0
M  V30 5132 C 463.929 0.441121 5.20434 0
M  V30 5133 H 465.623 0.52882 2.94693 0
M  V30 5134 H 463.169 0.255759 1.41711 0
M  V30 5135 H 465.122 -1.73922 3.83835 0
M  V30 5136 H 463.846 -1.95683 2.61487 0
M  V30 5137 H 462.505 -0.10059 3.66462 0
M  V30 5138 H 462.153 -2.47063 4.38143 0
M  V30 5139 H 461.853 -1.3364 5.72201 0
M  V30 5140 H 463.377 -2.26735 5.66942 0
M  V30 5141 H 464.791 0.00319931 5.733 0
M  V30 5142 H 463.188 0.763402 5.95224 0
M  V30 5143 H 464.258 1.33799 4.66075 0
M  V30 5144 N 465.601 -1.54893 0.290851 0
M  V30 5145 C 466.534 -2.19289 -0.631489 0
M  V30 5146 C 467.512 -1.15893 -1.14051 0
M  V30 5147 O 468.696 -1.4449 -1.21058 0
M  V30 5148 C 465.823 -2.82866 -1.86291 0
M  V30 5149 C 464.869 -3.997 -1.48801 0
M  V30 5150 S 465.702 -5.32641 -0.552644 0
M  V30 5151 C 466.858 -5.99696 -1.79209 0
M  V30 5152 H 467.091 -2.9718 -0.0843791 0
M  V30 5153 H 464.624 -1.54218 0.075031 0
M  V30 5154 H 466.582 -3.20124 -2.56964 0
M  V30 5155 H 465.243 -2.04839 -2.38117 0
M  V30 5156 H 464.436 -4.42932 -2.40473 0
M  V30 5157 H 464.038 -3.63947 -0.861321 0
M  V30 5158 H 466.33 -6.19886 -2.734 0
M  V30 5159 H 467.273 -6.94071 -1.40251 0
M  V30 5160 H 467.681 -5.29226 -1.96419 0
M  V30 5161 N 467.08 -0.0183926 -1.57589 0
M  V30 5162 C 468.329 0.66185 -1.90532 0
M  V30 5163 C 468.642 1.73904 -0.895366 0
M  V30 5164 O 469.848 2.47518 -1.11566 0
M  V30 5165 C 468.304 1.22844 -3.38286 0
M  V30 5166 C 467.912 0.185103 -4.47617 0
M  V30 5167 C 469.656 1.88581 -3.80312 0
M  V30 5168 C 467.563 0.762723 -5.86461 0
M  V30 5169 H 466.493 0.250972 -0.711006 0
M  V30 5170 H 469.144 -0.0819435 -1.83317 0
M  V30 5171 H 467.526 2.0235 -3.40398 0
M  V30 5172 H 468.7 -0.58671 -4.5705 0
M  V30 5173 H 467.015 -0.372889 -4.14727 0
M  V30 5174 H 469.612 2.32735 -4.81392 0
M  V30 5175 H 469.955 2.72408 -3.14801 0
M  V30 5176 H 470.488 1.15782 -3.80578 0
M  V30 5177 H 467.227 -0.0371713 -6.55489 0
M  V30 5178 H 466.747 1.50327 -5.80656 0
M  V30 5179 H 468.426 1.25576 -6.34697 0
M  V30 5180 N 468.558 1.5553 0.254621 0
M  V30 5181 C 469.521 1.88872 1.29846 0
M  V30 5182 C 470.521 0.764591 1.41459 0
M  V30 5183 O 471.711 1.03265 1.40293 0
M  V30 5184 C 468.843 2.11032 2.67728 0
M  V30 5185 H 470.036 2.82201 1.01502 0
M  V30 5186 H 467.589 1.48303 0.493556 0
M  V30 5187 H 468.324 1.20146 3.01223 0
M  V30 5188 H 468.109 2.92895 2.60682 0
M  V30 5189 H 469.599 2.38038 3.43115 0
M  V30 5190 N 470.036 -0.519951 1.48776 0
M  V30 5191 C 470.986 -1.61995 1.60442 0
M  V30 5192 C 471.97 -1.54155 0.460991 0
M  V30 5193 O 473.162 -1.62006 0.712965 0
M  V30 5194 C 470.291 -3.00683 1.65664 0
M  V30 5195 C 469.377 -3.1359 2.8552 0
M  V30 5196 N 469.768 -2.96441 4.09825 0
M  V30 5197 C 468.066 -3.44662 2.83062 0
M  V30 5198 C 468.767 -3.1303 4.90293 0
M  V30 5199 N 467.743 -3.41058 4.23297 0
M  V30 5200 H 471.545 -1.47362 2.54287 0
M  V30 5201 H 469.059 -0.725649 1.45286 0
M  V30 5202 H 471.056 -3.79712 1.72117 0
M  V30 5203 H 469.716 -3.16401 0.729425 0
M  V30 5204 H 470.727 -2.72999 4.40104 0
M  V30 5205 H 467.404 -3.66675 1.9964 0
M  V30 5206 H 468.794 -3.04424 5.98979 0
M  V30 5207 N 471.514 -1.37532 -0.769588 0
M  V30 5208 C 472.762 -1.32597 -1.5252 0
M  V30 5209 C 473.083 0.0884294 -1.94799 0
M  V30 5210 O 472.353 1.03289 -1.66458 0
M  V30 5211 H 470.933 -0.487846 -0.565699 0
M  V30 5212 H 473.595 -1.72044 -0.915806 0
M  V30 5213 H 472.691 -1.96643 -2.42359 0
M  V30 5214 N 472.992 0.995999 -1.22138 0
M  V30 5215 C 473.922 2.10387 -1.01289 0
M  V30 5216 C 474.903 1.69975 0.0651454 0
M  V30 5217 O 476.088 1.9396 -0.0964628 0
M  V30 5218 C 473.218 3.42312 -0.586517 0
M  V30 5219 C 472.172 3.96558 -1.61014 0
M  V30 5220 C 471.498 5.24494 -1.0397 0
M  V30 5221 C 472.798 4.27595 -2.99933 0
M  V30 5222 H 474.492 2.28086 -1.93951 0
M  V30 5223 H 472.038 1.09607 -0.933928 0
M  V30 5224 H 473.991 4.19223 -0.427793 0
M  V30 5225 H 472.715 3.24431 0.375761 0
M  V30 5226 H 471.374 3.21776 -1.75658 0
M  V30 5227 H 471.022 5.02953 -0.0688703 0
M  V30 5228 H 470.722 5.61755 -1.72352 0
M  V30 5229 H 472.246 6.04042 -0.892494 0
M  V30 5230 H 473.66 4.95315 -2.8868 0
M  V30 5231 H 472.057 4.76021 -3.6541 0
M  V30 5232 H 473.127 3.35498 -3.50099 0
M  V30 5233 N 474.47 1.03057 1.19235 0
M  V30 5234 C 475.698 0.747697 1.92917 0
M  V30 5235 C 476.113 -0.69372 1.75593 0
M  V30 5236 O 475.47 -1.47191 1.07894 0
M  V30 5237 C 475.521 1.09159 3.44625 0
M  V30 5238 O 475.242 2.47641 3.61394 0
M  V30 5239 C 476.743 0.831763 4.35427 0
M  V30 5240 H 473.963 0.273453 0.612751 0
M  V30 5241 H 476.507 1.37552 1.51327 0
M  V30 5242 H 474.662 0.508919 3.84043 0
M  V30 5243 H 475.076 2.60499 4.55237 0
M  V30 5244 H 476.55 1.12233 5.4047 0
M  V30 5245 H 477.027 -0.233769 4.38577 0
M  V30 5246 H 477.633 1.39725 4.01693 0
M  V30 5247 N 475.948 -1.35272 0.808662 0
M  V30 5248 C 477.173 -2.03477 0.401475 0
M  V30 5249 C 477.598 -1.60537 -0.980279 0
M  V30 5250 O 476.956 -0.78304 -1.63518 0
M  V30 5251 C 477.004 -3.57181 0.495354 0
M  V30 5252 O 476.108 -4.09474 -0.490397 0
M  V30 5253 H 475.449 -0.642561 0.167366 0
M  V30 5254 H 477.979 -1.72824 1.09512 0
M  V30 5255 H 477.989 -4.06356 0.365912 0
M  V30 5256 H 476.664 -3.87784 1.5032 0
M  V30 5257 H 475.241 -3.71516 -0.321023 0
M  V30 5258 N 477.426 -0.562348 -1.47226 0
M  V30 5259 C 478.651 -0.0432632 -2.07355 0
M  V30 5260 C 479.076 1.24332 -1.41149 0
M  V30 5261 O 478.434 1.74603 -0.488226 0
M  V30 5262 C 478.482 0.130288 -3.60365 0
M  V30 5263 O 477.586 1.19166 -3.94808 0
M  V30 5264 H 476.927 -0.0536334 -0.66183 0
M  V30 5265 H 479.457 -0.779495 -1.89169 0
M  V30 5266 H 479.467 0.342881 -4.06557 0
M  V30 5267 H 478.142 -0.809389 -4.07948 0
M  V30 5268 H 476.719 0.959153 -3.60354 0
M  V30 5269 N 478.904 1.54736 -0.299062 0
M  V30 5270 C 479.834 2.26409 0.571085 0
M  V30 5271 C 480.815 1.2629 1.13951 0
M  V30 5272 O 482 1.55059 1.16921 0
M  V30 5273 C 479.13 3.00338 1.74396 0
M  V30 5274 C 478.084 4.07588 1.30599 0
M  V30 5275 C 477.41 4.69222 2.56387 0
M  V30 5276 C 478.71 5.20455 0.438645 0
M  V30 5277 H 480.404 2.99388 -0.0266991 0
M  V30 5278 H 477.95 1.43993 -0.0142812 0
M  V30 5279 H 479.903 3.49198 2.35878 0
M  V30 5280 H 478.627 2.24934 2.36796 0
M  V30 5281 H 477.286 3.59575 0.71424 0
M  V30 5282 H 476.934 3.9046 3.17097 0
M  V30 5283 H 476.634 5.41653 2.27784 0
M  V30 5284 H 478.158 5.20844 3.18675 0
M  V30 5285 H 479.572 5.65221 0.959085 0
M  V30 5286 H 477.969 5.99594 0.246466 0
M  V30 5287 H 479.039 4.8192 -0.536738 0
M  V30 5288 N 480.382 0.0267497 1.57577 0
M  V30 5289 C 481.312 -0.954308 2.13108 0
M  V30 5290 C 482.293 -1.34088 1.04663 0
M  V30 5291 O 483.478 -1.41992 1.32484 0
M  V30 5292 C 480.608 -2.23744 2.65624 0
M  V30 5293 C 479.562 -1.99168 3.78835 0
M  V30 5294 C 478.888 -3.33726 4.17769 0
M  V30 5295 C 480.188 -1.33277 5.0501 0
M  V30 5296 H 481.882 -0.491848 2.95332 0
M  V30 5297 H 479.428 -0.23514 1.42067 0
M  V30 5298 H 481.381 -2.92754 3.03106 0
M  V30 5299 H 480.105 -2.72151 1.80558 0
M  V30 5300 H 478.764 -1.32577 3.41788 0
M  V30 5301 H 478.412 -3.79888 3.29688 0
M  V30 5302 H 478.112 -3.18089 4.94058 0
M  V30 5303 H 479.636 -4.04008 4.57832 0
M  V30 5304 H 481.05 -1.92283 5.40093 0
M  V30 5305 H 479.447 -1.28045 5.8628 0
M  V30 5306 H 480.517 -0.305411 4.83937 0
M  V30 5307 N 481.861 -1.55662 -0.24637 0
M  V30 5308 C 483.108 -1.77519 -0.974335 0
M  V30 5309 C 483.436 -0.591165 -1.85298 0
M  V30 5310 O 482.691 0.425497 -1.91018 0
M  V30 5311 C 482.99 -3.04885 -1.86494 0
M  V30 5312 C 482.656 -4.36209 -1.14161 0
M  V30 5313 C 481.318 -4.71896 -0.941701 0
M  V30 5314 C 483.67 -5.17391 -0.628957 0
M  V30 5315 C 480.998 -5.86299 -0.216852 0
M  V30 5316 C 483.35 -6.32546 0.0824273 0
M  V30 5317 C 482.014 -6.66853 0.293807 0
M  V30 5318 H 481.284 -0.649588 -0.356535 0
M  V30 5319 H 483.931 -1.89934 -0.244394 0
M  V30 5320 H 482.236 -2.87484 -2.66196 0
M  V30 5321 H 483.933 -3.18994 -2.42989 0
M  V30 5322 H 480.523 -4.08174 -1.30736 0
M  V30 5323 H 484.707 -4.90276 -0.770943 0
M  V30 5324 H 479.963 -6.11385 -0.0426124 0
M  V30 5325 H 484.137 -6.94693 0.487292 0
M  V30 5326 H 481.764 -7.55349 0.857428 0
M  V30 5327 N 483.339 0.512053 -1.4905 0
M  V30 5328 C 484.579 1.27715 -1.59588 0
M  V30 5329 C 484.943 1.90071 -0.271502 0
M  V30 5330 O 486.144 2.67616 -0.251987 0
M  V30 5331 C 484.415 2.32399 -2.71524 0
M  V30 5332 S 485.974 3.18396 -3.01943 0
M  V30 5333 H 482.792 0.43419 -0.563027 0
M  V30 5334 H 485.394 0.581315 -1.86657 0
M  V30 5335 H 484.098 1.85101 -3.66287 0
M  V30 5336 H 483.629 3.06667 -2.46412 0
M  V30 5337 H 485.644 4.32842 -2.42616 0
M  V30 5338 N 484.817 1.37938 0.762283 0
M  V30 5339 C 485.747 1.37176 1.88958 0
M  V30 5340 C 486.728 0.238945 1.68413 0
M  V30 5341 O 487.913 0.440726 1.89133 0
M  V30 5342 C 485.043 1.18742 3.2637 0
M  V30 5343 C 483.997 2.29136 3.61498 0
M  V30 5344 C 483.323 1.95816 4.97554 0
M  V30 5345 C 484.623 3.71363 3.6727 0
M  V30 5346 H 486.317 2.31509 1.89853 0
M  V30 5347 H 483.863 1.11438 0.912005 0
M  V30 5348 H 485.816 1.16837 4.04879 0
M  V30 5349 H 484.54 0.208683 3.25933 0
M  V30 5350 H 483.199 2.30213 2.85303 0
M  V30 5351 H 482.847 0.964475 4.93667 0
M  V30 5352 H 482.547 2.69745 5.22026 0
M  V30 5353 H 484.071 1.95513 5.78452 0
M  V30 5354 H 485.485 3.72364 4.35911 0
M  V30 5355 H 483.882 4.44425 4.03245 0
M  V30 5356 H 484.952 4.04305 2.67704 0
M  V30 5357 N 486.295 -0.989507 1.22664 0
M  V30 5358 C 487.258 -2.06183 1.00106 0
M  V30 5359 C 488.258 -1.60765 -0.0337726 0
M  V30 5360 O 489.448 -1.72989 0.205072 0
M  V30 5361 C 486.58 -3.37021 0.51279 0
M  V30 5362 H 487.773 -2.27629 1.95256 0
M  V30 5363 H 485.326 -1.16158 1.0458 0
M  V30 5364 H 486.061 -3.21261 -0.442917 0
M  V30 5365 H 485.846 -3.71323 1.25942 0
M  V30 5366 H 487.336 -4.1591 0.375315 0
M  V30 5367 N 487.773 -1.03688 -1.18687 0
M  V30 5368 C 488.721 -0.618292 -2.24232 0
M  V30 5369 C 489.715 0.353045 -1.6568 0
M  V30 5370 O 490.921 0.220749 -1.78641 0
M  V30 5371 H 487.296 -0.181711 -0.729716 0
M  V30 5372 H 489.267 -1.51893 -2.56848 0
M  V30 5373 C 488.016 0.00677342 -3.47699 0
M  V30 5374 H 487.339 -0.731692 -3.93047 0
M  V30 5375 H 488.779 0.262492 -4.23187 0
M  V30 5376 C 487.238 1.25572 -3.12623 0
M  V30 5377 O 487.768 2.34691 -3.26011 0
M  V30 5378 N 485.974 1.14755 -2.66982 0
M  V30 5379 H 485.521 0.259601 -2.56289 0
M  V30 5380 H 485.479 1.98412 -2.43885 0
M  V30 5381 N 489.251 1.34841 -0.815825 0
M  V30 5382 C 490.476 2.03261 -0.41226 0
M  V30 5383 C 490.901 1.61055 0.971751 0
M  V30 5384 O 490.259 0.7917 1.63101 0
M  V30 5385 C 490.307 3.56914 -0.514289 0
M  V30 5386 O 489.411 4.09728 0.468675 0
M  V30 5387 H 488.752 0.641664 -0.170771 0
M  V30 5388 H 491.282 1.72241 -1.10427 0
M  V30 5389 H 491.292 4.06156 -0.387457 0
M  V30 5390 H 489.967 3.86982 -1.52375 0
M  V30 5391 H 488.544 3.71681 0.301316 0
M  V30 5392 N 490.729 0.570148 1.46925 0
M  V30 5393 C 491.677 -0.183181 2.31878 0
M  V30 5394 C 492.671 -0.896721 1.43719 0
M  V30 5395 O 493.877 -0.816536 1.60414 0
M  V30 5396 H 490.252 -0.077944 0.74795 0
M  V30 5397 H 492.223 0.552312 2.93244 0
M  V30 5398 C 490.972 -1.19172 3.2664 0
M  V30 5399 H 490.295 -0.652088 3.94446 0
M  V30 5400 H 491.735 -1.68946 3.88887 0
M  V30 5401 C 490.194 -2.24627 2.51086 0
M  V30 5402 O 490.724 -3.31773 2.26472 0
M  V30 5403 N 488.93 -1.98898 2.11867 0
M  V30 5404 H 488.477 -1.11777 2.32086 0
M  V30 5405 H 488.435 -2.6967 1.61634 0
M  V30 5406 N 492.207 -1.54576 0.307264 0
M  V30 5407 C 493.437 -2.04378 -0.302158 0
M  V30 5408 C 493.845 -1.18381 -1.47589 0
M  V30 5409 O 493.188 -0.20352 -1.82569 0
M  V30 5410 C 493.25 -3.50133 -0.815305 0
M  V30 5411 C 492.914 -4.56401 0.233977 0
M  V30 5412 C 493.911 -5.08884 1.06456 0
M  V30 5413 C 491.596 -5.0088 0.377478 0
M  V30 5414 C 493.59 -6.04394 2.02452 0
M  V30 5415 C 491.277 -5.96208 1.34088 0
M  V30 5416 C 492.275 -6.47849 2.16288 0
M  V30 5417 O 491.963 -7.41308 3.10994 0
M  V30 5418 H 491.695 -0.672502 -0.0686839 0
M  V30 5419 H 494.249 -2.00484 0.446682 0
M  V30 5420 H 492.479 -3.51371 -1.61478 0
M  V30 5421 H 494.168 -3.83098 -1.34129 0
M  V30 5422 H 494.934 -4.75311 0.964596 0
M  V30 5423 H 490.813 -4.60309 -0.252405 0
M  V30 5424 H 494.357 -6.44626 2.66652 0
M  V30 5425 H 490.254 -6.29198 1.44154 0
M  V30 5426 H 491.022 -7.5913 3.06045 0
M  V30 5427 N 493.685 -0.035106 -1.57561 0
M  V30 5428 C 494.595 0.960295 -2.14046 0
M  V30 5429 C 495.611 1.3529 -1.0942 0
M  V30 5430 O 496.787 1.43309 -1.41508 0
M  V30 5431 C 493.852 2.22214 -2.66124 0
M  V30 5432 C 492.913 1.8894 -3.85487 0
M  V30 5433 C 492.146 3.09109 -4.35072 0
M  V30 5434 O 492.369 4.21963 -3.83802 0
M  V30 5435 O 491.303 2.91058 -5.26848 0
M  V30 5436 H 495.129 0.509983 -2.99387 0
M  V30 5437 H 492.714 0.185853 -1.48239 0
M  V30 5438 H 494.596 2.96279 -2.99661 0
M  V30 5439 H 493.271 2.66414 -1.83862 0
M  V30 5440 H 492.178 1.12241 -3.56865 0
M  V30 5441 H 493.511 1.49551 -4.6893 0
M  V30 5442 N 495.163 1.55791 0.238111 0
M  V30 5443 C 496.579 1.48411 0.587045 0
M  V30 5444 C 496.779 0.72702 1.87927 0
M  V30 5445 O 495.835 0.259942 2.51158 0
M  V30 5446 C 497.148 2.92873 0.681623 0
M  V30 5447 C 498.696 3.03295 0.773363 0
M  V30 5448 C 499.171 4.49082 0.899428 0
M  V30 5449 N 500.662 4.53056 0.964075 0
M  V30 5450 C 501.397 5.63117 1.08104 0
M  V30 5451 N 500.893 6.82969 1.16299 0
M  V30 5452 N 502.686 5.50933 1.11488 0
M  V30 5453 H 494.837 2.0345 -0.610076 0
M  V30 5454 H 497.1 0.924034 -0.211813 0
M  V30 5455 H 496.806 3.51142 -0.19802 0
M  V30 5456 H 496.68 3.43851 1.55069 0
M  V30 5457 H 499.067 2.45101 1.64346 0
M  V30 5458 H 499.148 2.55513 -0.121034 0
M  V30 5459 H 498.792 5.07889 0.0338586 0
M  V30 5460 H 498.722 4.94553 1.809 0
M  V30 5461 H 501.213 3.66737 0.91173 0
M  V30 5462 H 501.526 7.62598 1.25155 0
M  V30 5463 H 499.871 6.85712 1.13241 0
M  V30 5464 H 503.062 4.56231 1.0474 0
M  V30 5465 H 503.235 6.36743 1.20259 0
M  V30 5466 N 496.642 -0.504142 1.49319 0
M  V30 5467 C 497.87 -1.28256 1.62351 0
M  V30 5468 C 498.285 -1.86502 0.293682 0
M  V30 5469 O 497.642 -1.67678 -0.720449 0
M  V30 5470 C 497.693 -2.41507 2.68992 0
M  V30 5471 O 497.414 -1.85656 3.96817 0
M  V30 5472 C 498.915 -3.32929 2.927 0
M  V30 5473 H 496.135 -0.389115 0.546654 0
M  V30 5474 H 498.679 -0.605531 1.95329 0
M  V30 5475 H 496.834 -3.05046 2.38801 0
M  V30 5476 H 497.248 -2.59981 4.55533 0
M  V30 5477 H 498.722 -4.0868 3.71058 0
M  V30 5478 H 499.199 -3.89733 2.02496 0
M  V30 5479 H 499.805 -2.75158 3.24296 0
M  V30 5480 N 498.12 -1.38341 -0.754957 0
M  V30 5481 C 499.07 -1.31964 -1.85929 0
M  V30 5482 C 500.054 -0.204181 -1.59599 0
M  V30 5483 O 501.246 -0.440036 -1.71443 0
M  V30 5484 C 498.375 -1.14565 -3.2362 0
M  V30 5485 C 497.461 -2.30727 -3.55846 0
M  V30 5486 N 497.852 -3.56165 -3.59138 0
M  V30 5487 C 496.15 -2.23249 -3.86104 0
M  V30 5488 C 496.851 -4.32865 -3.88591 0
M  V30 5489 N 495.827 -3.62203 -4.05351 0
M  V30 5490 H 499.629 -2.2694 -1.8675 0
M  V30 5491 H 497.143 -1.31553 -0.952243 0
M  V30 5492 H 499.14 -1.0808 -4.02647 0
M  V30 5493 H 497.8 -0.205212 -3.24051 0
M  V30 5494 H 498.811 -3.89854 -3.40932 0
M  V30 5495 H 495.488 -1.37357 -3.94258 0
M  V30 5496 H 496.878 -5.41504 -3.97773 0
M  V30 5497 N 499.598 0.982988 -1.23187 0
M  V30 5498 C 500.823 1.76455 -1.08988 0
M  V30 5499 C 501.248 1.84726 0.354691 0
M  V30 5500 O 500.606 1.30699 1.25649 0
M  V30 5501 C 500.654 3.17094 -1.71708 0
M  V30 5502 O 499.758 4.00648 -0.977477 0
M  V30 5503 H 499.099 0.542988 -0.382177 0
M  V30 5504 H 501.629 1.23413 -1.63188 0
M  V30 5505 H 501.639 3.67684 -1.76841 0
M  V30 5506 H 500.314 3.10389 -2.76823 0
M  V30 5507 H 498.891 3.59161 -1.0029 0
M  V30 5508 N 501.076 1.04316 1.18135 0
M  V30 5509 C 502.492 0.762858 1.40188 0
M  V30 5510 C 502.692 -0.646547 1.90846 0
M  V30 5511 O 501.748 -1.41036 2.0944 0
M  V30 5512 C 503.061 1.81106 2.40044 0
M  V30 5513 C 504.609 1.83226 2.53766 0
M  V30 5514 C 505.084 2.87044 3.56889 0
M  V30 5515 N 506.575 2.85951 3.64398 0
M  V30 5516 C 507.31 3.62932 4.43923 0
M  V30 5517 N 506.806 4.49672 5.27036 0
M  V30 5518 N 508.599 3.51411 4.38711 0
M  V30 5519 H 500.75 1.95264 0.835805 0
M  V30 5520 H 503.013 0.845017 0.429709 0
M  V30 5521 H 502.719 2.82214 2.09876 0
M  V30 5522 H 502.593 1.64529 3.39426 0
M  V30 5523 H 504.98 0.827869 2.8325 0
M  V30 5524 H 505.061 2.03879 1.54489 0
M  V30 5525 H 504.705 3.87663 3.28145 0
M  V30 5526 H 504.635 2.63645 4.5585 0
M  V30 5527 H 507.126 2.23051 3.05052 0
M  V30 5528 H 507.439 5.05116 5.84874 0
M  V30 5529 H 505.784 4.53738 5.26447 0
M  V30 5530 H 508.975 2.83047 3.72829 0
M  V30 5531 H 509.148 4.11654 5.00445 0
M  V30 5532 N 502.554 -1.34406 0.822964 0
M  V30 5533 C 503.803 -1.97542 0.407458 0
M  V30 5534 C 504.116 -1.65973 -1.035 0
M  V30 5535 O 505.322 -2.22598 -1.55442 0
M  V30 5536 C 503.778 -3.53463 0.677623 0
M  V30 5537 C 503.386 -3.93925 2.1337 0
M  V30 5538 C 505.13 -4.23229 0.328284 0
M  V30 5539 C 503.037 -5.42759 2.34876 0
M  V30 5540 H 501.967 -0.739207 0.148623 0
M  V30 5541 H 504.618 -1.53248 1.00932 0
M  V30 5542 H 503 -3.96 0.00558965 0
M  V30 5543 H 504.174 -3.62494 2.8449 0
M  V30 5544 H 502.489 -3.37097 2.44448 0
M  V30 5545 H 505.086 -5.32659 0.466794 0
M  V30 5546 H 505.429 -4.09899 -0.727224 0
M  V30 5547 H 505.962 -3.86169 0.954896 0
M  V30 5548 H 502.701 -5.61075 3.38932 0
M  V30 5549 H 502.221 -5.75704 1.68299 0
M  V30 5550 H 503.9 -6.0944 2.17236 0
M  V30 5551 N 504.032 -0.577932 -1.46621 0
M  V30 5552 C 504.965 0.206312 -2.27265 0
M  V30 5553 C 505.943 0.901306 -1.35334 0
M  V30 5554 O 507.127 0.916151 -1.64739 0
M  V30 5555 C 504.254 1.29563 -3.1294 0
M  V30 5556 C 503.3 0.706981 -4.206 0
M  V30 5557 S 504.133 -0.462459 -5.33499 0
M  V30 5558 C 505.289 0.628171 -6.2274 0
M  V30 5559 H 505.522 -0.477961 -2.93433 0
M  V30 5560 H 503.055 -0.364715 -1.50031 0
M  V30 5561 H 505.013 1.91935 -3.62865 0
M  V30 5562 H 503.674 1.95183 -2.46095 0
M  V30 5563 H 502.867 1.52565 -4.80354 0
M  V30 5564 H 502.469 0.159022 -3.73662 0
M  V30 5565 H 504.761 1.51506 -6.60342 0
M  V30 5566 H 505.704 0.0674961 -7.08068 0
M  V30 5567 H 506.112 0.930167 -5.56784 0
M  V30 5568 N 505.51 1.54411 -0.315457 0
M  V30 5569 C 506.759 1.99599 0.290395 0
M  V30 5570 C 507.072 1.20746 1.53882 0
M  V30 5571 O 508.278 1.56272 2.22017 0
M  V30 5572 C 506.734 3.5539 0.56797 0
M  V30 5573 C 506.342 4.43068 -0.662945 0
M  V30 5574 C 508.086 4.09067 1.13422 0
M  V30 5575 C 505.993 5.90317 -0.357722 0
M  V30 5576 H 504.923 0.745592 0.112286 0
M  V30 5577 H 507.574 1.78477 -0.426418 0
M  V30 5578 H 505.956 3.72468 1.34476 0
M  V30 5579 H 507.13 4.37765 -1.43869 0
M  V30 5580 H 505.445 4.00238 -1.14884 0
M  V30 5581 H 508.042 5.16663 1.37707 0
M  V30 5582 H 508.385 3.60552 2.08106 0
M  V30 5583 H 508.918 3.95589 0.418805 0
M  V30 5584 H 505.657 6.4301 -1.27351 0
M  V30 5585 H 505.177 5.98592 0.380472 0
M  V30 5586 H 506.856 6.4699 0.0354284 0
M  V30 5587 N 506.988 0.0434614 1.5754 0
M  V30 5588 C 507.918 -0.931651 2.14109 0
M  V30 5589 C 508.899 -1.32971 1.06079 0
M  V30 5590 O 510.084 -1.40579 1.33982 0
M  V30 5591 C 507.214 -2.20914 2.67982 0
M  V30 5592 C 506.168 -1.95139 3.80926 0
M  V30 5593 C 505.494 -3.29276 4.21285 0
M  V30 5594 C 506.794 -1.27913 5.06395 0
M  V30 5595 H 508.488 -0.460497 2.95837 0
M  V30 5596 H 506.034 -0.220058 1.42309 0
M  V30 5597 H 507.987 -2.89522 3.06194 0
M  V30 5598 H 506.711 -2.70221 1.83434 0
M  V30 5599 H 505.37 -1.28945 3.43175 0
M  V30 5600 H 505.018 -3.76369 3.33699 0
M  V30 5601 H 504.718 -3.12831 4.97404 0
M  V30 5602 H 506.242 -3.99129 4.62091 0
M  V30 5603 H 507.656 -1.86544 5.42102 0
M  V30 5604 H 506.053 -1.2182 5.87605 0
M  V30 5605 H 507.123 -0.254066 4.84234 0
M  V30 5606 N 508.466 -1.55915 -0.229846 0
M  V30 5607 C 509.691 -1.8296 -0.976743 0
M  V30 5608 C 510.116 -0.622735 -1.77493 0
M  V30 5609 O 509.474 0.428431 -1.76165 0
M  V30 5610 C 509.522 -3.07916 -1.8767 0
M  V30 5611 O 508.626 -2.86028 -2.97088 0
M  V30 5612 H 507.967 -0.603453 -0.277021 0
M  V30 5613 H 510.497 -2.0312 -0.245669 0
M  V30 5614 H 510.507 -3.37802 -2.2881 0
M  V30 5615 H 509.182 -3.95389 -1.28996 0
M  V30 5616 H 507.759 -2.67355 -2.59954 0
M  V30 5617 N 509.944 0.496216 -1.49584 0
M  V30 5618 C 510.876 1.61404 -1.62731 0
M  V30 5619 C 511.889 1.54613 -0.50978 0
M  V30 5620 O 513.078 1.60458 -0.782017 0
M  V30 5621 C 510.178 3.00212 -1.57245 0
M  V30 5622 C 509.351 3.32138 -2.84611 0
M  V30 5623 C 508.41 4.5038 -2.72112 0
M  V30 5624 O 507.436 4.51926 -3.46051 0
M  V30 5625 N 508.638 5.50575 -1.83977 0
M  V30 5626 H 511.403 1.50552 -2.59141 0
M  V30 5627 H 508.964 0.684182 -1.46733 0
M  V30 5628 H 510.956 3.77241 -1.4653 0
M  V30 5629 H 509.526 3.04964 -0.686729 0
M  V30 5630 H 508.746 2.4396 -3.09641 0
M  V30 5631 H 510.034 3.50268 -3.69039 0
M  V30 5632 H 509.432 5.52128 -1.23171 0
M  V30 5633 H 507.989 6.26687 -1.79182 0
M  V30 5634 N 511.423 1.38739 0.74761 0
M  V30 5635 C 512.671 1.35007 1.50391 0
M  V30 5636 C 512.992 -0.0574274 1.94915 0
M  V30 5637 O 512.262 -1.00628 1.6808 0
M  V30 5638 H 510.842 0.496784 0.557866 0
M  V30 5639 H 513.504 1.73479 0.888319 0
M  V30 5640 H 512.6 2.00474 2.392 0
M  V30 5641 N 512.901 -0.976442 1.23707 0
M  V30 5642 C 513.831 -2.08749 1.04624 0
M  V30 5643 C 514.812 -1.70057 -0.0380956 0
M  V30 5644 O 515.997 -1.93782 0.127308 0
M  V30 5645 C 513.127 -3.41335 0.640902 0
M  V30 5646 C 512.081 -3.93947 1.67302 0
M  V30 5647 C 511.407 -5.22774 1.12301 0
M  V30 5648 C 512.707 -4.22769 3.06697 0
M  V30 5649 H 514.401 -2.24972 1.97555 0
M  V30 5650 H 511.947 -1.08108 0.951247 0
M  V30 5651 H 513.9 -4.18489 0.494434 0
M  V30 5652 H 512.624 -3.24988 -0.324099 0
M  V30 5653 H 511.283 -3.18941 1.80755 0
M  V30 5654 H 510.931 -5.0278 0.148877 0
M  V30 5655 H 510.631 -5.58942 1.81267 0
M  V30 5656 H 512.155 -6.02546 0.988479 0
M  V30 5657 H 513.569 -4.90659 2.96524 0
M  V30 5658 H 511.966 -4.70147 3.72937 0
M  V30 5659 H 513.036 -3.29885 3.55392 0
M  V30 5660 N 514.379 -1.04941 -1.1758 0
M  V30 5661 C 515.311 -0.606174 -2.21039 0
M  V30 5662 C 516.324 0.328763 -1.59446 0
M  V30 5663 O 517.513 0.121895 -1.78083 0
M  V30 5664 C 514.613 0.133294 -3.38638 0
M  V30 5665 C 513.786 -0.811711 -4.29802 0
M  V30 5666 C 512.845 -0.113958 -5.26077 0
M  V30 5667 O 511.871 -0.747237 -5.64274 0
M  V30 5668 N 513.073 1.14953 -5.69004 0
M  V30 5669 H 515.838 -1.49606 -2.59689 0
M  V30 5670 H 513.399 -0.930997 -1.32454 0
M  V30 5671 H 515.391 0.610144 -4.00074 0
M  V30 5672 H 513.961 0.924816 -2.98607 0
M  V30 5673 H 513.181 -1.46824 -3.65837 0
M  V30 5674 H 514.469 -1.45326 -4.87604 0
M  V30 5675 H 513.867 1.68441 -5.40041 0
M  V30 5676 H 512.424 1.57049 -6.32597 0
M  V30 5677 N 515.857 1.33968 -0.830081 0
M  V30 5678 C 517.085 2.0228 -0.434773 0
M  V30 5679 C 517.5 1.62487 0.961419 0
M  V30 5680 O 516.857 0.833849 1.62337 0
M  V30 5681 C 516.908 3.5751 -0.535625 0
M  V30 5682 O 516.629 3.95864 -1.87679 0
M  V30 5683 C 518.13 4.43091 -0.136137 0
M  V30 5684 H 515.35 0.648151 -0.173613 0
M  V30 5685 H 517.894 1.71089 -1.12022 0
M  V30 5686 H 516.049 3.87266 0.101817 0
M  V30 5687 H 516.463 4.9056 -1.85609 0
M  V30 5688 H 517.937 5.51398 -0.257772 0
M  V30 5689 H 518.414 4.29433 0.921076 0
M  V30 5690 H 519.02 4.18677 -0.747662 0
M  V30 5691 N 517.335 0.585699 1.46312 0
M  V30 5692 C 518.265 -0.133556 2.33118 0
M  V30 5693 C 519.246 -0.880707 1.45525 0
M  V30 5694 O 520.431 -0.855579 1.74337 0
M  V30 5695 C 517.561 -1.14585 3.27853 0
M  V30 5696 C 516.515 -0.513341 4.2491 0
M  V30 5697 C 515.841 -1.63231 5.09175 0
M  V30 5698 C 517.141 0.551413 5.19381 0
M  V30 5699 H 518.835 0.59121 2.93505 0
M  V30 5700 H 516.381 0.285761 1.41136 0
M  V30 5701 H 518.334 -1.65741 3.87438 0
M  V30 5702 H 517.058 -1.90093 2.65579 0
M  V30 5703 H 515.717 -0.0228349 3.66593 0
M  V30 5704 H 515.365 -2.37713 4.43285 0
M  V30 5705 H 515.065 -1.21473 5.74907 0
M  V30 5706 H 516.589 -2.14658 5.71624 0
M  V30 5707 H 518.003 0.124804 5.73164 0
M  V30 5708 H 516.4 0.889486 5.93471 0
M  V30 5709 H 517.47 1.43655 4.63132 0
M  V30 5710 N 518.813 -1.54241 0.323641 0
M  V30 5711 C 519.743 -2.27289 -0.534993 0
M  V30 5712 C 520.724 -1.28087 -1.11927 0
M  V30 5713 O 521.909 -1.56899 -1.14439 0
M  V30 5714 C 519.039 -3.03075 -1.69596 0
M  V30 5715 C 517.993 -4.09614 -1.24098 0
M  V30 5716 C 517.319 -4.73242 -2.4889 0
M  V30 5717 C 518.619 -5.21087 -0.355789 0
M  V30 5718 H 520.313 -2.99308 0.0743257 0
M  V30 5719 H 517.859 -1.43952 0.0371874 0
M  V30 5720 H 519.812 -3.52907 -2.30293 0
M  V30 5721 H 518.536 -2.28673 -2.33187 0
M  V30 5722 H 517.195 -3.60666 -0.656945 0
M  V30 5723 H 516.843 -3.95455 -3.10845 0
M  V30 5724 H 516.543 -5.45209 -2.19138 0
M  V30 5725 H 518.067 -5.25848 -3.10348 0
M  V30 5726 H 519.481 -5.66675 -0.869042 0
M  V30 5727 H 517.878 -5.9991 -0.151045 0
M  V30 5728 H 518.948 -4.81005 0.613339 0
M  V30 5729 N 520.291 -0.0518155 -1.57515 0
M  V30 5730 C 521.702 0.483787 -1.80323 0
M  V30 5731 C 522.053 1.70879 -0.964099 0
M  V30 5732 O 521.178 2.15643 -0.180872 0
M  V30 5733 C 521.773 0.884459 -3.27052 0
M  V30 5734 C 520.332 1.36504 -3.50776 0
M  V30 5735 C 519.479 0.340539 -2.75201 0
M  V30 5736 H 522.43 -0.277691 -1.56252 0
M  V30 5737 H 522.451 1.74733 -3.38007 0
M  V30 5738 H 521.963 -0.00731093 -3.88099 0
M  V30 5739 H 520.064 2.27598 -2.95009 0
M  V30 5740 H 520.177 1.35675 -4.59488 0
M  V30 5741 H 518.541 0.81356 -2.41357 0
M  V30 5742 H 519.324 -0.543156 -3.38976 0
M  V30 5743 N 521.769 1.56035 0.221574 0
M  V30 5744 C 522.699 1.95434 1.2778 0
M  V30 5745 C 523.68 0.822564 1.48889 0
M  V30 5746 O 524.865 1.08486 1.61072 0
M  V30 5747 C 521.995 2.27102 2.62759 0
M  V30 5748 C 520.949 3.4277 2.56306 0
M  V30 5749 C 520.275 3.60043 3.95314 0
M  V30 5750 C 521.575 4.77742 2.11093 0
M  V30 5751 H 523.269 2.83912 0.950504 0
M  V30 5752 H 520.815 1.36596 0.455791 0
M  V30 5753 H 522.768 2.53256 3.36807 0
M  V30 5754 H 521.492 1.35478 2.97176 0
M  V30 5755 H 520.151 3.16664 1.84715 0
M  V30 5756 H 519.799 2.65794 4.27039 0
M  V30 5757 H 519.499 4.37841 3.91879 0
M  V30 5758 H 521.023 3.88545 4.71025 0
M  V30 5759 H 522.437 5.03102 2.74885 0
M  V30 5760 H 520.834 5.58823 2.18716 0
M  V30 5761 H 521.904 4.731 1.06321 0
M  V30 5762 N 523.247 -0.488276 1.49845 0
M  V30 5763 C 524.18 -1.60651 1.62069 0
M  V30 5764 C 525.158 -1.5568 0.469308 0
M  V30 5765 O 526.342 -1.75553 0.686551 0
M  V30 5766 C 523.469 -2.99197 1.58741 0
M  V30 5767 C 522.515 -3.22385 2.79232 0
M  V30 5768 S 523.348 -3.04133 4.40753 0
M  V30 5769 C 524.504 -4.45052 4.4009 0
M  V30 5770 H 524.737 -1.50039 2.56662 0
M  V30 5771 H 522.27 -0.674371 1.38894 0
M  V30 5772 H 524.228 -3.79081 1.57506 0
M  V30 5773 H 522.889 -3.07213 0.654136 0
M  V30 5774 H 522.082 -4.23557 2.73159 0
M  V30 5775 H 521.684 -2.50245 2.77945 0
M  V30 5776 H 523.976 -5.37375 4.12594 0
M  V30 5777 H 524.919 -4.56172 5.41583 0
M  V30 5778 H 525.327 -4.26327 3.70008 0
M  V30 5779 N 524.725 -1.39134 -0.740242 0
M  V30 5780 C 525.688 -1.37217 -1.83587 0
M  V30 5781 C 526.688 -0.270221 -1.58513 0
M  V30 5782 O 527.878 -0.527843 -1.6601 0
M  V30 5783 C 525.01 -1.13959 -3.21288 0
M  V30 5784 H 526.203 -2.34705 -1.86691 0
M  V30 5785 H 523.756 -1.24622 -0.94335 0
M  V30 5786 H 524.491 -0.17131 -3.23847 0
M  V30 5787 H 524.276 -1.93754 -3.40884 0
M  V30 5788 H 525.766 -1.15346 -4.01354 0
M  V30 5789 N 526.204 0.969867 -1.24223 0
M  V30 5790 C 527.451 1.71256 -1.08063 0
M  V30 5791 C 527.779 1.90734 0.380872 0
M  V30 5792 O 527.034 1.46469 1.29789 0
M  V30 5793 C 527.333 3.10883 -1.76314 0
M  V30 5794 C 526.999 3.11252 -3.26241 0
M  V30 5795 C 525.661 3.1106 -3.67144 0
M  V30 5796 C 528.013 3.05751 -4.22097 0
M  V30 5797 C 525.341 3.03097 -5.02344 0
M  V30 5798 C 527.693 2.9933 -5.57301 0
M  V30 5799 C 526.357 2.97466 -5.97554 0
M  V30 5800 H 525.627 0.62667 -0.395431 0
M  V30 5801 H 528.274 1.13422 -1.54297 0
M  V30 5802 H 526.579 3.72168 -1.22468 0
M  V30 5803 H 528.276 3.67138 -1.61277 0
M  V30 5804 H 524.866 3.12165 -2.93685 0
M  V30 5805 H 529.05 3.05031 -3.91497 0
M  V30 5806 H 524.306 3.00013 -5.32731 0
M  V30 5807 H 528.48 2.94033 -6.31283 0
M  V30 5808 H 526.107 2.91051 -7.02277 0
M  V30 5809 N 527.682 1.05563 1.17022 0
M  V30 5810 C 528.928 0.778872 1.87897 0
M  V30 5811 C 529.283 -0.686839 1.79723 0
M  V30 5812 O 528.576 -1.49612 1.19694 0
M  V30 5813 C 528.77 1.19849 3.36706 0
M  V30 5814 C 528.599 2.70345 3.59366 0
M  V30 5815 C 527.369 3.37707 3.75875 0
M  V30 5816 C 529.567 3.68564 3.58699 0
M  V30 5817 N 527.549 4.7703 3.86414 0
M  V30 5818 C 528.92 4.93634 3.75134 0
M  V30 5819 C 530.975 3.6198 3.4187 0
M  V30 5820 C 529.678 6.12907 3.76481 0
M  V30 5821 C 531.704 4.80697 3.44507 0
M  V30 5822 C 531.066 6.04592 3.61453 0
M  V30 5823 H 527.165 0.337297 0.705517 0
M  V30 5824 H 529.749 1.34832 1.40458 0
M  V30 5825 H 527.92 0.656958 3.82804 0
M  V30 5826 H 529.652 0.871172 3.95212 0
M  V30 5827 H 526.407 2.88108 3.75887 0
M  V30 5828 H 526.831 5.49483 3.95471 0
M  V30 5829 H 531.473 2.67154 3.27702 0
M  V30 5830 H 529.191 7.08073 3.89432 0
M  V30 5831 H 532.777 4.77259 3.32738 0
M  V30 5832 H 531.657 6.94916 3.63403 0
M  V30 5833 N 529.16 -1.33526 0.837174 0
M  V30 5834 C 530.406 -1.98541 0.44193 0
M  V30 5835 C 530.761 -1.65124 -0.987517 0
M  V30 5836 O 530.054 -0.919948 -1.6807 0
M  V30 5837 C 530.248 -3.52367 0.597675 0
M  V30 5838 C 530.077 -4.00731 2.04071 0
M  V30 5839 C 528.847 -4.28649 2.67559 0
M  V30 5840 C 531.045 -4.17073 3.00923 0
M  V30 5841 N 529.027 -4.63142 4.02955 0
M  V30 5842 C 530.398 -4.54905 4.21261 0
M  V30 5843 C 532.453 -3.99358 2.97351 0
M  V30 5844 C 531.156 -4.76874 5.38501 0
M  V30 5845 C 533.182 -4.22501 4.1382 0
M  V30 5846 C 532.544 -4.60634 5.32912 0
M  V30 5847 H 528.643 -0.753246 0.210105 0
M  V30 5848 H 531.227 -1.61674 1.08488 0
M  V30 5849 H 529.398 -3.88397 -0.0154658 0
M  V30 5850 H 531.13 -4.04326 0.17404 0
M  V30 5851 H 527.885 -4.20077 2.18706 0
M  V30 5852 H 528.309 -4.84601 4.72748 0
M  V30 5853 H 532.951 -3.68993 2.06408 0
M  V30 5854 H 530.669 -5.06101 6.2999 0
M  V30 5855 H 534.255 -4.10316 4.12471 0
M  V30 5856 H 533.135 -4.78187 6.21536 0
M  V30 5857 N 530.638 -0.59345 -1.46 0
M  V30 5858 C 531.568 0.121192 -2.33185 0
M  V30 5859 C 532.549 0.872977 -1.4599 0
M  V30 5860 O 533.734 0.846321 -1.74789 0
M  V30 5861 C 530.864 1.12844 -3.28456 0
M  V30 5862 C 529.818 0.4908 -4.25177 0
M  V30 5863 C 529.144 1.60529 -5.10034 0
M  V30 5864 C 530.444 -0.578949 -5.19081 0
M  V30 5865 H 532.138 -0.606767 -2.93187 0
M  V30 5866 H 529.684 -0.293242 -1.40983 0
M  V30 5867 H 531.637 1.63684 -3.88311 0
M  V30 5868 H 530.361 1.88681 -2.66584 0
M  V30 5869 H 529.02 0.00339328 -3.666 0
M  V30 5870 H 528.668 2.35359 -4.44539 0
M  V30 5871 H 528.368 1.18422 -5.75543 0
M  V30 5872 H 529.892 2.11623 -5.72755 0
M  V30 5873 H 531.306 -0.155199 -5.7309 0
M  V30 5874 H 529.703 -0.920947 -5.92991 0
M  V30 5875 H 530.773 -1.46109 -4.62364 0
M  V30 5876 N 532.116 1.54067 -0.331816 0
M  V30 5877 C 533.046 2.27569 0.522932 0
M  V30 5878 C 534.027 1.28679 1.11247 0
M  V30 5879 O 535.212 1.57504 1.13605 0
M  V30 5880 C 532.342 3.0397 1.67987 0
M  V30 5881 C 531.296 4.10267 1.21924 0
M  V30 5882 C 530.622 4.74555 2.46377 0
M  V30 5883 C 531.922 5.21268 0.32815 0
M  V30 5884 H 533.616 2.99264 -0.0901977 0
M  V30 5885 H 531.162 1.4393 -0.044821 0
M  V30 5886 H 533.115 3.54123 2.28418 0
M  V30 5887 H 531.839 2.29906 2.31971 0
M  V30 5888 H 530.498 3.61009 0.637809 0
M  V30 5889 H 530.146 3.97098 3.08743 0
M  V30 5890 H 529.846 5.46363 2.16243 0
M  V30 5891 H 531.37 5.27487 3.07555 0
M  V30 5892 H 532.784 5.67128 0.838978 0
M  V30 5893 H 531.181 5.99982 0.119228 0
M  V30 5894 H 532.251 4.80673 -0.638839 0
M  V30 5895 N 533.594 0.0601682 1.57485 0
M  V30 5896 C 534.557 -0.896373 2.10945 0
M  V30 5897 C 535.557 -1.23402 1.03095 0
M  V30 5898 O 536.747 -1.16921 1.29132 0
M  V30 5899 C 533.879 -2.20346 2.60116 0
M  V30 5900 H 535.072 -0.432778 2.96761 0
M  V30 5901 H 532.625 -0.188372 1.55161 0
M  V30 5902 H 533.36 -2.71268 1.7772 0
M  V30 5903 H 533.145 -1.9714 3.38937 0
M  V30 5904 H 534.635 -2.88846 3.01592 0
M  V30 5905 N 535.072 -1.5615 -0.213296 0
M  V30 5906 C 536.297 -1.83986 -0.957282 0
M  V30 5907 C 536.722 -0.641526 -1.76822 0
M  V30 5908 O 536.08 0.409722 -1.7661 0
M  V30 5909 C 536.128 -3.09889 -1.84393 0
M  V30 5910 O 535.232 -2.89163 -2.94038 0
M  V30 5911 H 534.573 -0.606357 -0.270605 0
M  V30 5912 H 537.103 -2.03369 -0.224111 0
M  V30 5913 H 537.113 -3.40209 -2.25215 0
M  V30 5914 H 535.788 -3.96735 -1.24795 0
M  V30 5915 H 534.365 -2.70097 -2.57103 0
M  V30 5916 N 536.55 0.480323 -1.50102 0
M  V30 5917 C 537.48 1.58769 -1.71215 0
M  V30 5918 C 538.461 1.60583 -0.560997 0
M  V30 5919 O 539.646 1.76996 -0.799127 0
M  V30 5920 C 536.776 2.97148 -1.79778 0
M  V30 5921 C 535.73 3.10201 -2.94888 0
M  V30 5922 C 535.056 4.50137 -2.88584 0
M  V30 5923 C 536.356 2.88283 -4.35534 0
M  V30 5924 H 538.05 1.41354 -2.6393 0
M  V30 5925 H 535.596 0.678591 -1.27008 0
M  V30 5926 H 537.549 3.74536 -1.93133 0
M  V30 5927 H 536.273 3.15699 -0.836772 0
M  V30 5928 H 534.932 2.35244 -2.81169 0
M  V30 5929 H 534.58 4.65593 -1.90349 0
M  V30 5930 H 534.28 4.59808 -3.65856 0
M  V30 5931 H 535.804 5.29558 -3.03976 0
M  V30 5932 H 537.218 3.55427 -4.49827 0
M  V30 5933 H 535.615 3.09408 -5.14186 0
M  V30 5934 H 536.685 1.84219 -4.48544 0
M  V30 5935 N 538.028 1.39524 0.732853 0
M  V30 5936 C 538.991 1.38189 1.82857 0
M  V30 5937 C 539.991 0.278624 1.58368 0
M  V30 5938 O 541.181 0.536639 1.65728 0
M  V30 5939 C 538.313 1.15661 3.2068 0
M  V30 5940 H 539.506 2.35692 1.85444 0
M  V30 5941 H 537.059 1.2512 0.936728 0
M  V30 5942 H 537.794 0.188482 3.23752 0
M  V30 5943 H 537.579 1.95559 3.39852 0
M  V30 5944 H 539.069 1.17472 4.00737 0
M  V30 5945 N 539.506 -0.963266 1.24736 0
M  V30 5946 C 540.454 -2.07985 1.04139 0
M  V30 5947 C 541.448 -1.69381 -0.0250556 0
M  V30 5948 O 542.654 -1.79531 0.129863 0
M  V30 5949 H 539.029 -0.680627 0.319768 0
M  V30 5950 H 541 -2.22517 1.98818 0
M  V30 5951 C 539.749 -3.4123 0.667615 0
M  V30 5952 H 539.072 -3.71397 1.48 0
M  V30 5953 H 540.512 -4.20244 0.563136 0
M  V30 5954 C 538.971 -3.3104 -0.625647 0
M  V30 5955 O 539.501 -3.65334 -1.67016 0
M  V30 5956 N 537.707 -2.84168 -0.608033 0
M  V30 5957 H 537.254 -2.56458 0.242323 0
M  V30 5958 H 537.212 -2.77732 -1.47352 0
M  V30 5959 N 540.985 -1.06182 -1.16461 0
M  V30 5960 C 541.915 -0.692861 -2.22984 0
M  V30 5961 C 542.896 0.314122 -1.67174 0
M  V30 5962 O 544.081 0.189499 -1.93273 0
M  V30 5963 C 541.211 -0.07732 -3.47214 0
M  V30 5964 C 540.165 -1.01015 -4.15909 0
M  V30 5965 C 539.491 -0.257973 -5.34077 0
M  V30 5966 C 540.791 -2.33868 -4.67015 0
M  V30 5967 H 542.485 -1.58343 -2.54102 0
M  V30 5968 H 540.031 -0.76279 -1.22137 0
M  V30 5969 H 541.984 0.19266 -4.20959 0
M  V30 5970 H 540.708 0.848254 -3.15392 0
M  V30 5971 H 539.367 -1.26486 -3.44088 0
M  V30 5972 H 539.015 0.670684 -4.98509 0
M  V30 5973 H 538.715 -0.879638 -5.80979 0
M  V30 5974 H 540.239 0.00448788 -6.106 0
M  V30 5975 H 541.653 -2.1279 -5.32347 0
M  V30 5976 H 540.05 -2.91522 -5.24533 0
M  V30 5977 H 541.12 -2.97019 -3.83286 0
M  V30 5978 N 542.463 1.3308 -0.844243 0
M  V30 5979 C 543.426 2.27403 -0.286485 0
M  V30 5980 C 544.426 1.51179 0.547872 0
M  V30 5981 O 545.616 1.70421 0.360886 0
M  V30 5982 C 542.748 3.35653 0.595813 0
M  V30 5983 H 543.941 2.78248 -1.11885 0
M  V30 5984 H 541.494 1.43574 -0.617749 0
M  V30 5985 H 542.229 2.90058 1.4504 0
M  V30 5986 H 542.014 3.921 -0.00125994 0
M  V30 5987 H 543.504 4.05958 0.979168 0
M  V30 5988 N 543.941 0.601185 1.45683 0
M  V30 5989 C 544.871 -0.108824 2.33246 0
M  V30 5990 C 545.852 -0.865223 1.46451 0
M  V30 5991 O 547.037 -0.83704 1.75235 0
M  V30 5992 C 544.167 -1.11101 3.2905 0
M  V30 5993 C 543.121 -0.468244 4.25431 0
M  V30 5994 C 542.447 -1.57822 5.10878 0
M  V30 5995 C 543.747 0.606469 5.18767 0
M  V30 5996 H 545.441 0.622306 2.92861 0
M  V30 5997 H 542.987 0.300714 1.40825 0
M  V30 5998 H 544.94 -1.61622 3.89174 0
M  V30 5999 H 543.664 -1.87265 2.67581 0
M  V30 6000 H 542.323 0.0160484 3.66596 0
M  V30 6001 H 541.971 -2.32998 4.45781 0
M  V30 6002 H 541.671 -1.15369 5.76163 0
M  V30 6003 H 543.195 -2.08583 5.73869 0
M  V30 6004 H 544.609 0.185589 5.73 0
M  V30 6005 H 543.006 0.952381 5.92494 0
M  V30 6006 H 544.076 1.48559 4.61582 0
M  V30 6007 N 545.419 -1.53889 0.339982 0
M  V30 6008 C 546.83 -1.86139 -0.144671 0
M  V30 6009 C 547.181 -1.2613 -1.50285 0
M  V30 6010 O 546.306 -0.573515 -2.08662 0
M  V30 6011 C 546.901 -3.37728 -0.269285 0
M  V30 6012 C 545.46 -3.69868 -0.698168 0
M  V30 6013 C 544.607 -2.76777 0.170249 0
M  V30 6014 H 547.558 -1.48503 0.559704 0
M  V30 6015 H 547.579 -3.64331 -1.0974 0
M  V30 6016 H 547.091 -3.81375 0.719366 0
M  V30 6017 H 545.192 -3.31764 -1.69597 0
M  V30 6018 H 545.305 -4.76582 -0.490533 0
M  V30 6019 H 543.669 -2.52188 -0.356844 0
M  V30 6020 H 544.452 -3.23253 1.15597 0
M  V30 6021 N 546.897 -0.0685191 -1.57451 0
M  V30 6022 C 548.308 0.464634 -1.80826 0
M  V30 6023 C 548.659 1.69847 -0.982169 0
M  V30 6024 O 547.784 2.15439 -0.203734 0
M  V30 6025 C 548.379 0.849721 -3.27971 0
M  V30 6026 C 546.938 1.32776 -3.52204 0
M  V30 6027 C 546.085 0.311332 -2.75547 0
M  V30 6028 H 549.036 -0.294248 -1.55948 0
M  V30 6029 H 549.057 1.71138 -3.39841 0
M  V30 6030 H 548.569 -0.0484736 -3.8807 0
M  V30 6031 H 546.67 2.24456 -2.97406 0
M  V30 6032 H 546.783 1.30794 -4.60901 0
M  V30 6033 H 545.147 0.787915 -2.42206 0
M  V30 6034 H 545.93 -0.579078 -3.38381 0
M  V30 6035 N 548.375 1.56261 0.205012 0
M  V30 6036 C 549.603 1.84141 0.943386 0
M  V30 6037 C 550.018 0.649772 1.77266 0
M  V30 6038 O 549.375 -0.381612 1.78466 0
M  V30 6039 C 549.426 3.10719 1.84759 0
M  V30 6040 O 549.147 4.25286 1.05181 0
M  V30 6041 C 550.648 3.51706 2.69848 0
M  V30 6042 H 547.868 0.611734 0.275721 0
M  V30 6043 H 550.412 2.03364 0.215253 0
M  V30 6044 H 548.567 2.93422 2.52947 0
M  V30 6045 H 548.981 4.97301 1.66709 0
M  V30 6046 H 550.455 4.43266 3.28967 0
M  V30 6047 H 550.932 2.7423 3.43067 0
M  V30 6048 H 551.538 3.71499 2.07047 0
M  V30 6049 N 549.853 -0.472356 1.50355 0
M  V30 6050 C 551.102 -1.2213 1.60522 0
M  V30 6051 C 551.415 -1.9312 0.310466 0
M  V30 6052 O 552.621 -2.69936 0.291029 0
M  V30 6053 C 551.077 -2.21909 2.83345 0
M  V30 6054 C 550.685 -1.56727 4.19691 0
M  V30 6055 C 552.429 -2.97453 3.02856 0
M  V30 6056 C 550.336 -2.54785 5.33703 0
M  V30 6057 H 549.266 -0.459543 0.597776 0
M  V30 6058 H 551.917 -0.491922 1.76783 0
M  V30 6059 H 550.299 -2.98133 2.60639 0
M  V30 6060 H 551.473 -0.863007 4.52646 0
M  V30 6061 H 549.788 -0.934685 4.05774 0
M  V30 6062 H 552.385 -3.70838 3.85205 0
M  V30 6063 H 552.728 -3.56764 2.14534 0
M  V30 6064 H 553.261 -2.28342 3.25737 0
M  V30 6065 H 550 -2.00214 6.24175 0
M  V30 6066 H 549.52 -3.23367 5.05167 0
M  V30 6067 H 551.199 -3.16639 5.64224 0
M  V30 6068 N 551.331 -1.39911 -0.725443 0
M  V30 6069 C 552.279 -1.39552 -1.86086 0
M  V30 6070 C 553.273 -0.277334 -1.67114 0
M  V30 6071 O 554.479 -0.447865 -1.74339 0
M  V30 6072 H 550.854 -0.435993 -0.612711 0
M  V30 6073 H 552.825 -2.35305 -1.83505 0
M  V30 6074 C 551.574 -1.26529 -3.2386 0
M  V30 6075 H 550.897 -2.11845 -3.3906 0
M  V30 6076 H 552.337 -1.30336 -4.03471 0
M  V30 6077 C 550.796 0.0254168 -3.3689 0
M  V30 6078 O 551.326 0.992048 -3.89257 0
M  V30 6079 N 549.532 0.0916528 -2.90455 0
M  V30 6080 H 549.079 -0.695675 -2.48028 0
M  V30 6081 H 549.037 0.954745 -2.99553 0
M  V30 6082 N 552.809 0.956637 -1.25245 0
M  V30 6083 C 553.739 2.07058 -1.07931 0
M  V30 6084 C 554.72 1.70096 0.0110361 0
M  V30 6085 O 555.905 1.93555 -0.158121 0
M  V30 6086 C 553.035 3.40272 -0.695124 0
M  V30 6087 C 551.989 3.91235 -1.73549 0
M  V30 6088 C 551.315 5.20921 -1.20604 0
M  V30 6089 C 552.615 4.17837 -3.13385 0
M  V30 6090 H 554.309 2.218 -2.01109 0
M  V30 6091 H 551.855 1.06581 -0.968326 0
M  V30 6092 H 553.808 4.1765 -0.560949 0
M  V30 6093 H 552.532 3.25462 0.272355 0
M  V30 6094 H 551.191 3.16025 -1.85807 0
M  V30 6095 H 550.839 5.02479 -0.228846 0
M  V30 6096 H 550.539 5.55987 -1.90136 0
M  V30 6097 H 552.063 6.00897 -1.08421 0
M  V30 6098 H 553.477 4.8588 -3.04292 0
M  V30 6099 H 551.874 4.64154 -3.80369 0
M  V30 6100 H 552.944 3.2419 -3.60595 0
M  V30 6101 N 554.287 1.06798 1.15896 0
M  V30 6102 C 555.217 0.704677 2.22613 0
M  V30 6103 C 556.198 -0.305252 1.67339 0
M  V30 6104 O 557.383 -0.179247 1.93371 0
M  V30 6105 C 554.513 0.0957325 3.47168 0
M  V30 6106 C 553.467 1.0322 4.15367 0
M  V30 6107 C 552.793 0.286293 5.33933 0
M  V30 6108 C 554.093 2.36341 4.65768 0
M  V30 6109 H 555.787 1.59688 2.53259 0
M  V30 6110 H 553.333 0.769257 1.21731 0
M  V30 6111 H 555.286 -0.170333 4.21056 0
M  V30 6112 H 554.01 -0.831516 3.15838 0
M  V30 6113 H 552.669 1.28309 3.43413 0
M  V30 6114 H 552.317 -0.644237 4.98857 0
M  V30 6115 H 552.017 0.910436 5.80504 0
M  V30 6116 H 553.541 0.0278938 6.10594 0
M  V30 6117 H 554.955 2.1561 5.31211 0
M  V30 6118 H 553.352 2.94299 5.2298 0
M  V30 6119 H 554.422 2.99047 3.81705 0
M  V30 6120 N 555.766 -1.3263 0.851289 0
M  V30 6121 C 557.014 -1.96978 0.452128 0
M  V30 6122 C 557.335 -1.67715 -0.99482 0
M  V30 6123 O 556.605 -0.98259 -1.69476 0
M  V30 6124 H 555.185 -0.72873 0.164202 0
M  V30 6125 H 557.847 -1.61774 1.08698 0
M  V30 6126 H 556.943 -3.06387 0.594407 0
M  V30 6127 N 557.244 -0.608902 -1.45362 0
M  V30 6128 C 558.154 0.110969 -2.34337 0
M  V30 6129 C 559.17 0.859007 -1.51318 0
M  V30 6130 O 560.346 0.816296 -1.84116 0
M  V30 6131 C 557.411 1.09494 -3.28956 0
M  V30 6132 C 556.472 0.348718 -4.27881 0
M  V30 6133 C 555.705 1.28582 -5.17979 0
M  V30 6134 O 555.928 2.52369 -5.11533 0
M  V30 6135 O 554.862 0.782172 -5.96796 0
M  V30 6136 H 558.688 -0.620258 -2.97299 0
M  V30 6137 H 556.273 -0.36916 -1.44767 0
M  V30 6138 H 558.155 1.66163 -3.87257 0
M  V30 6139 H 556.83 1.80717 -2.68557 0
M  V30 6140 H 555.737 -0.260465 -3.73192 0
M  V30 6141 H 557.07 -0.323049 -4.91139 0
M  V30 6142 N 558.722 1.53707 -0.348139 0
M  V30 6143 C 559.652 2.28111 0.498766 0
M  V30 6144 C 560.633 1.29851 1.09876 0
M  V30 6145 O 561.818 1.587 1.11928 0
M  V30 6146 C 558.948 3.05735 1.64753 0
M  V30 6147 C 557.902 4.11537 1.17565 0
M  V30 6148 C 557.228 4.77142 2.4133 0
M  V30 6149 C 558.528 5.21587 0.272844 0
M  V30 6150 H 560.222 2.99152 -0.121934 0
M  V30 6151 H 557.768 1.43875 -0.0600842 0
M  V30 6152 H 559.721 3.56526 2.24649 0
M  V30 6153 H 558.445 2.32354 2.2952 0
M  V30 6154 H 557.104 3.61665 0.599483 0
M  V30 6155 H 556.752 4.0035 3.04514 0
M  V30 6156 H 556.452 5.48626 2.10436 0
M  V30 6157 H 557.976 5.30719 3.01943 0
M  V30 6158 H 559.39 5.67986 0.778779 0
M  V30 6159 H 557.787 6.00074 0.0555849 0
M  V30 6160 H 558.857 4.79969 -0.689785 0
M  V30 6161 N 560.2 0.0768682 1.57412 0
M  V30 6162 C 561.425 -0.603404 1.98428 0
M  V30 6163 C 561.85 -1.62047 0.955108 0
M  V30 6164 O 561.208 -1.81129 -0.0786778 0
M  V30 6165 C 561.256 -1.24396 3.38464 0
M  V30 6166 O 560.36 -2.35982 3.3821 0
M  V30 6167 H 559.701 -0.154741 0.645718 0
M  V30 6168 H 562.231 0.152885 2.04028 0
M  V30 6169 H 562.241 -1.5896 3.7576 0
M  V30 6170 H 560.916 -0.498735 4.12899 0
M  V30 6171 H 559.493 -2.03173 3.1269 0
M  V30 6172 N 561.678 -1.56367 -0.196722 0
M  V30 6173 C 562.924 -1.80796 -0.918725 0
M  V30 6174 C 563.257 -0.650645 -1.82976 0
M  V30 6175 O 562.532 0.348889 -1.91345 0
M  V30 6176 C 562.815 -3.15472 -1.73636 0
M  V30 6177 C 562.668 -4.41693 -0.85015 0
M  V30 6178 C 563.987 -3.46824 -2.70927 0
M  V30 6179 H 561.106 -0.657702 -0.332561 0
M  V30 6180 H 563.748 -1.89086 -0.186186 0
M  V30 6181 H 561.898 -3.08536 -2.36088 0
M  V30 6182 H 563.57 -4.60673 -0.240459 0
M  V30 6183 H 561.813 -4.33517 -0.156785 0
M  V30 6184 H 562.484 -5.32419 -1.45719 0
M  V30 6185 H 564.96 -3.54049 -2.18607 0
M  V30 6186 H 563.836 -4.4218 -3.25219 0
M  V30 6187 H 564.097 -2.70236 -3.49893 0
M  V30 6188 N 563.156 0.464375 -1.50603 0
M  V30 6189 C 564.086 1.56944 -1.72889 0
M  V30 6190 C 565.067 1.59979 -0.577997 0
M  V30 6191 O 566.252 1.76138 -0.817855 0
M  V30 6192 C 563.382 2.95225 -1.8292 0
M  V30 6193 C 562.336 3.07056 -2.98162 0
M  V30 6194 C 561.662 4.47051 -2.93343 0
M  V30 6195 C 562.962 2.83648 -4.38567 0
M  V30 6196 H 564.656 1.38547 -2.65415 0
M  V30 6197 H 562.202 0.665082 -1.27721 0
M  V30 6198 H 564.155 3.72467 -1.97095 0
M  V30 6199 H 562.879 3.14793 -0.870209 0
M  V30 6200 H 561.538 2.32248 -2.83648 0
M  V30 6201 H 561.186 4.63547 -1.95276 0
M  V30 6202 H 560.886 4.55902 -3.70712 0
M  V30 6203 H 562.41 5.26304 -3.09575 0
M  V30 6204 H 563.824 3.50636 -4.53572 0
M  V30 6205 H 562.221 3.03937 -5.17438 0
M  V30 6206 H 563.291 1.79451 -4.50472 0
M  V30 6207 N 564.634 1.40294 0.718013 0
M  V30 6208 C 565.88 1.38645 1.48005 0
M  V30 6209 C 566.213 -0.0121202 1.94196 0
M  V30 6210 O 565.488 -0.980309 1.67989 0
M  V30 6211 C 565.771 2.37379 2.70782 0
M  V30 6212 C 565.624 3.8625 2.30501 0
M  V30 6213 C 566.943 2.33685 3.72933 0
M  V30 6214 H 564.062 0.504928 0.536858 0
M  V30 6215 H 566.704 1.71411 0.819649 0
M  V30 6216 H 564.854 2.09568 3.27129 0
M  V30 6217 H 566.526 4.24879 1.79655 0
M  V30 6218 H 564.769 4.02202 1.6253 0
M  V30 6219 H 565.44 4.50847 3.18498 0
M  V30 6220 H 567.916 2.58314 3.2621 0
M  V30 6221 H 566.792 3.0482 4.56482 0
M  V30 6222 H 567.053 1.34765 4.21059 0
M  V30 6223 N 566.112 -0.949982 1.2575 0
M  V30 6224 C 567.34 -1.72972 1.13527 0
M  V30 6225 C 567.755 -1.8623 -0.310453 0
M  V30 6226 O 567.112 -1.36336 -1.2132 0
M  V30 6227 C 567.163 -3.14108 1.78936 0
M  V30 6228 O 566.884 -3.01493 3.17858 0
M  V30 6229 C 568.385 -4.08338 1.72554 0
M  V30 6230 H 565.605 -0.541864 0.395758 0
M  V30 6231 H 568.149 -1.19151 1.66202 0
M  V30 6232 H 566.304 -3.64858 1.30221 0
M  V30 6233 H 566.718 -3.90559 3.50092 0
M  V30 6234 H 568.192 -5.04963 2.22973 0
M  V30 6235 H 568.669 -4.33742 0.690251 0
M  V30 6236 H 569.275 -3.63506 2.2078 0
M  V30 6237 N 567.59 -1.07411 -1.15328 0
M  V30 6238 C 568.818 -0.818782 -1.90009 0
M  V30 6239 C 569.233 0.628072 -1.78047 0
M  V30 6240 O 568.59 1.43085 -1.13282 0
M  V30 6241 C 568.641 -1.21874 -3.40337 0
M  V30 6242 O 568.362 -2.60883 -3.51954 0
M  V30 6243 C 569.863 -0.992796 -4.3204 0
M  V30 6244 H 567.083 -0.296007 -0.60218 0
M  V30 6245 H 569.627 -1.43073 -1.46117 0
M  V30 6246 H 567.782 -0.651103 -3.81889 0
M  V30 6247 H 568.196 -2.77216 -4.45255 0
M  V30 6248 H 569.67 -1.32215 -5.35932 0
M  V30 6249 H 570.147 0.0708331 -4.39143 0
M  V30 6250 H 570.753 -1.54537 -3.9623 0
M  V30 6251 N 569.068 1.32177 -0.85831 0
M  V30 6252 C 570.315 1.97125 -0.463484 0
M  V30 6253 C 570.643 1.67907 0.981705 0
M  V30 6254 O 569.898 0.961717 1.70439 0
M  V30 6255 C 570.197 3.51372 -0.653658 0
M  V30 6256 C 569.863 4.00584 -2.06987 0
M  V30 6257 C 568.525 4.13733 -2.4572 0
M  V30 6258 C 570.877 4.26624 -2.99402 0
M  V30 6259 C 568.205 4.50268 -3.76132 0
M  V30 6260 C 570.557 4.64618 -4.29316 0
M  V30 6261 C 569.221 4.75975 -4.67979 0
M  V30 6262 H 568.491 0.72133 -0.169601 0
M  V30 6263 H 571.138 1.57517 -1.08907 0
M  V30 6264 H 569.443 3.91761 0.0551328 0
M  V30 6265 H 571.14 3.99655 -0.328163 0
M  V30 6266 H 567.73 3.90837 -1.75911 0
M  V30 6267 H 571.914 4.1597 -2.70708 0
M  V30 6268 H 567.17 4.57256 -4.05865 0
M  V30 6269 H 571.344 4.83722 -5.00985 0
M  V30 6270 H 568.971 5.04041 -5.69076 0
M  V30 6271 N 570.547 0.616602 1.45037 0
M  V30 6272 C 571.772 0.120192 2.07051 0
M  V30 6273 C 572.197 -1.19008 1.45666 0
M  V30 6274 O 571.555 -1.7267 0.552692 0
M  V30 6275 C 571.603 0.00354901 3.606 0
M  V30 6276 O 570.707 -1.04431 3.98958 0
M  V30 6277 H 570.048 0.0781599 0.659384 0
M  V30 6278 H 572.578 0.849167 1.86146 0
M  V30 6279 H 572.588 -0.191754 4.07549 0
M  V30 6280 H 571.263 0.960239 4.04663 0
M  V30 6281 H 569.84 -0.824749 3.63665 0
M  V30 6282 N 572.025 -1.5352 0.356285 0
M  V30 6283 C 573.271 -2.02104 -0.229271 0
M  V30 6284 C 573.626 -1.23923 -1.47176 0
M  V30 6285 O 572.919 -0.321957 -1.88876 0
M  V30 6286 C 573.113 -3.52607 -0.583369 0
M  V30 6287 C 572.942 -4.4536 0.623253 0
M  V30 6288 C 571.712 -4.92446 1.13248 0
M  V30 6289 C 573.91 -4.92375 1.48563 0
M  V30 6290 N 571.892 -5.69183 2.3001 0
M  V30 6291 C 573.263 -5.67362 2.50001 0
M  V30 6292 C 575.318 -4.74464 1.50959 0
M  V30 6293 C 574.021 -6.26341 3.5368 0
M  V30 6294 C 576.047 -5.34302 2.53526 0
M  V30 6295 C 575.409 -6.09166 3.53688 0
M  V30 6296 H 571.508 -0.780595 -0.0468602 0
M  V30 6297 H 574.092 -1.88204 0.49873 0
M  V30 6298 H 572.263 -3.66686 -1.28046 0
M  V30 6299 H 573.995 -3.87922 -1.15321 0
M  V30 6300 H 570.75 -4.6842 0.698562 0
M  V30 6301 H 571.174 -6.12216 2.88998 0
M  V30 6302 H 575.816 -4.16117 0.748785 0
M  V30 6303 H 573.534 -6.8379 4.30648 0
M  V30 6304 H 577.12 -5.22342 2.56223 0
M  V30 6305 H 576 -6.54644 4.31753 0
M  V30 6306 N 573.503 -0.0852151 -1.57369 0
M  V30 6307 C 574.728 0.592872 -1.98746 0
M  V30 6308 C 575.153 1.61538 -0.963689 0
M  V30 6309 O 574.511 1.81168 0.069071 0
M  V30 6310 C 574.559 1.22599 -3.39119 0
M  V30 6311 O 573.663 2.34185 -3.39457 0
M  V30 6312 H 573.004 0.151314 -0.646529 0
M  V30 6313 H 575.534 -0.163703 -2.03944 0
M  V30 6314 H 575.544 1.56965 -3.76598 0
M  V30 6315 H 574.219 0.476831 -4.13158 0
M  V30 6316 H 572.796 2.01512 -3.13763 0
M  V30 6317 N 574.981 1.5647 0.188427 0
M  V30 6318 C 575.929 1.95971 1.25293 0
M  V30 6319 C 576.923 0.846047 1.4676 0
M  V30 6320 O 578.129 1.03109 1.47542 0
M  V30 6321 H 574.504 0.623253 0.420784 0
M  V30 6322 H 576.475 2.84731 0.892792 0
M  V30 6323 C 575.224 2.32116 2.58877 0
M  V30 6324 H 574.547 3.17341 2.43176 0
M  V30 6325 H 575.987 2.63613 3.3209 0
M  V30 6326 C 574.446 1.15823 3.16365 0
M  V30 6327 O 574.976 0.436785 3.99318 0
M  V30 6328 N 573.182 0.933278 2.75206 0
M  V30 6329 H 572.729 1.52169 2.07852 0
M  V30 6330 H 572.687 0.156976 3.14008 0
M  V30 6331 N 576.459 -0.456382 1.50847 0
M  V30 6332 C 577.708 -1.2042 1.61808 0
M  V30 6333 C 578.021 -1.9278 0.330932 0
M  V30 6334 O 579.227 -2.69612 0.319643 0
M  V30 6335 C 577.683 -2.18891 2.85683 0
M  V30 6336 C 577.291 -1.52267 4.2133 0
M  V30 6337 C 579.035 -2.94224 3.05994 0
M  V30 6338 C 576.942 -2.4911 5.36375 0
M  V30 6339 H 575.872 -0.453177 0.602616 0
M  V30 6340 H 578.523 -0.473144 1.77295 0
M  V30 6341 H 576.905 -2.95351 2.63787 0
M  V30 6342 H 578.079 -0.814949 4.53536 0
M  V30 6343 H 576.394 -0.891594 4.06743 0
M  V30 6344 H 578.991 -3.66732 3.89117 0
M  V30 6345 H 579.334 -3.54469 2.18306 0
M  V30 6346 H 579.867 -2.24874 3.28141 0
M  V30 6347 H 576.606 -1.93582 6.26264 0
M  V30 6348 H 576.126 -3.17991 5.08569 0
M  V30 6349 H 577.805 -3.10637 5.67551 0
M  V30 6350 N 577.937 -1.40673 -0.710563 0
M  V30 6351 C 579.165 -1.42547 -1.4996 0
M  V30 6352 C 579.58 -0.0265485 -1.88781 0
M  V30 6353 O 578.937 0.950694 -1.55782 0
M  V30 6354 C 578.988 -2.32071 -2.77173 0
M  V30 6355 O 578.709 -3.66518 -2.39992 0
M  V30 6356 C 580.21 -2.42591 -3.71032 0
M  V30 6357 H 577.43 -0.486025 -0.462623 0
M  V30 6358 H 579.974 -1.84783 -0.876102 0
M  V30 6359 H 578.129 -1.93184 -3.35795 0
M  V30 6360 H 578.543 -4.14115 -3.21884 0
M  V30 6361 H 580.017 -3.09429 -4.57119 0
M  V30 6362 H 580.494 -1.4525 -4.14486 0
M  V30 6363 H 581.1 -2.82051 -3.18319 0
M  V30 6364 N 579.415 0.9433 -1.26252 0
M  V30 6365 C 580.345 2.05902 -1.10122 0
M  V30 6366 C 581.326 1.70099 -0.00700552 0
M  V30 6367 O 582.511 1.93377 -0.178641 0
M  V30 6368 C 579.641 3.39516 -0.731175 0
M  V30 6369 C 578.595 3.89372 -1.77688 0
M  V30 6370 C 577.921 5.19613 -1.26122 0
M  V30 6371 C 579.221 4.14489 -3.17799 0
M  V30 6372 H 580.915 2.19655 -2.03451 0
M  V30 6373 H 578.461 1.05548 -0.979576 0
M  V30 6374 H 580.414 4.17031 -0.605215 0
M  V30 6375 H 579.138 3.25733 0.23782 0
M  V30 6376 H 577.797 3.14036 -1.89148 0
M  V30 6377 H 577.445 5.02208 -0.282128 0
M  V30 6378 H 577.145 5.53939 -1.96023 0
M  V30 6379 H 578.669 5.99713 -1.14789 0
M  V30 6380 H 580.083 4.82625 -3.09428 0
M  V30 6381 H 578.48 4.60094 -3.85271 0
M  V30 6382 H 579.55 3.20347 -3.64014 0
M  V30 6383 N 580.893 1.08022 1.14757 0
M  V30 6384 C 581.823 0.728248 2.21853 0
M  V30 6385 C 582.804 -0.287486 1.67653 0
M  V30 6386 O 583.989 -0.158727 1.9355 0
M  V30 6387 C 581.119 0.132549 3.47047 0
M  V30 6388 C 580.073 1.07619 4.14249 0
M  V30 6389 C 579.399 0.342907 5.33599 0
M  V30 6390 C 580.699 2.41268 4.63235 0
M  V30 6391 H 582.393 1.62365 2.51551 0
M  V30 6392 H 579.939 0.782125 1.20908 0
M  V30 6393 H 581.892 -0.125665 4.21213 0
M  V30 6394 H 580.616 -0.797971 3.16702 0
M  V30 6395 H 579.275 1.31944 3.42033 0
M  V30 6396 H 578.923 -0.59129 4.99513 0
M  V30 6397 H 578.623 0.971955 5.79506 0
M  V30 6398 H 580.147 0.0926538 6.1053 0
M  V30 6399 H 581.561 2.21232 5.28894 0
M  V30 6400 H 579.958 2.9983 5.19829 0
M  V30 6401 H 581.028 3.03079 3.78512 0
M  V30 6402 N 582.371 -1.3172 0.865308 0
M  V30 6403 C 583.301 -2.31109 0.333302 0
M  V30 6404 C 584.282 -1.60148 -0.573301 0
M  V30 6405 O 585.467 -1.87882 -0.491305 0
M  V30 6406 C 582.597 -3.44104 -0.470078 0
M  V30 6407 C 581.551 -4.26623 0.343021 0
M  V30 6408 C 580.877 -5.31482 -0.585756 0
M  V30 6409 C 582.177 -4.98001 1.57456 0
M  V30 6410 H 583.871 -2.75855 1.1638 0
M  V30 6411 H 581.417 -1.3262 0.561069 0
M  V30 6412 H 583.37 -4.12682 -0.852752 0
M  V30 6413 H 582.094 -2.98112 -1.33404 0
M  V30 6414 H 580.753 -3.59707 0.707583 0
M  V30 6415 H 580.401 -4.81741 -1.44686 0
M  V30 6416 H 580.101 -5.87582 -0.0456494 0
M  V30 6417 H 581.625 -6.0292 -0.965375 0
M  V30 6418 H 583.039 -5.59201 1.26359 0
M  V30 6419 H 581.436 -5.63876 2.05339 0
M  V30 6420 H 582.506 -4.25253 2.32997 0
M  V30 6421 N 583.85 -0.624285 -1.44708 0
M  V30 6422 C 585.077 -0.132919 -2.06473 0
M  V30 6423 C 585.493 1.18967 -1.46602 0
M  V30 6424 O 584.85 1.72824 -0.586341 0
M  V30 6425 C 584.901 -0.00465418 -3.615 0
M  V30 6426 O 584.622 -1.27494 -4.19138 0
M  V30 6427 C 586.123 0.516213 -4.40284 0
M  V30 6428 H 583.343 -0.0765201 -0.666623 0
M  V30 6429 H 585.887 -0.856751 -1.85688 0
M  V30 6430 H 584.042 0.669583 -3.8157 0
M  V30 6431 H 584.456 -1.11536 -5.12504 0
M  V30 6432 H 585.93 0.554994 -5.49203 0
M  V30 6433 H 586.407 1.5419 -4.11245 0
M  V30 6434 H 587.013 -0.124542 -4.25118 0
M  V30 6435 N 585.328 1.53329 -0.364422 0
M  V30 6436 C 586.576 2.00842 0.225189 0
M  V30 6437 C 586.897 1.25345 1.49378 0
M  V30 6438 O 586.167 0.366396 1.92443 0
M  V30 6439 H 584.747 0.742009 0.0862027 0
M  V30 6440 H 587.409 1.8863 -0.490389 0
M  V30 6441 H 586.505 3.08795 0.452987 0
M  V30 6442 N 586.806 0.0935595 1.57322 0
M  V30 6443 C 587.736 -0.863062 2.16964 0
M  V30 6444 C 588.717 -1.29528 1.10256 0
M  V30 6445 O 589.902 -1.36245 1.38387 0
M  V30 6446 C 587.032 -2.12276 2.74875 0
M  V30 6447 C 585.986 -1.82921 3.86942 0
M  V30 6448 C 585.312 -3.15707 4.31548 0
M  V30 6449 C 586.612 -1.11737 5.10208 0
M  V30 6450 H 588.306 -0.366145 2.97153 0
M  V30 6451 H 585.852 -0.174673 1.42937 0
M  V30 6452 H 587.805 -2.79634 3.1525 0
M  V30 6453 H 586.529 -2.64248 1.91938 0
M  V30 6454 H 585.188 -1.17961 3.47103 0
M  V30 6455 H 584.836 -3.65563 3.45504 0
M  V30 6456 H 584.536 -2.96849 5.07104 0
M  V30 6457 H 586.06 -3.84226 4.74555 0
M  V30 6458 H 587.474 -1.69203 5.47762 0
M  V30 6459 H 585.871 -1.03064 5.91183 0
M  V30 6460 H 586.941 -0.0998818 4.84797 0
M  V30 6461 N 588.284 -1.56567 -0.180126 0
M  V30 6462 C 589.232 -1.96632 -1.24251 0
M  V30 6463 C 590.226 -0.853818 -1.46309 0
M  V30 6464 O 591.432 -1.0389 -1.46993 0
M  V30 6465 H 587.807 -0.625476 -0.417473 0
M  V30 6466 H 589.778 -2.85201 -0.877679 0
M  V30 6467 C 588.527 -2.33486 -2.57642 0
M  V30 6468 H 587.85 -3.18626 -2.4149 0
M  V30 6469 H 589.29 -2.65371 -3.30688 0
M  V30 6470 C 587.749 -1.17499 -3.15746 0
M  V30 6471 O 588.279 -0.457956 -3.99081 0
M  V30 6472 N 586.485 -0.94786 -2.74707 0
M  V30 6473 H 586.032 -1.53269 -2.07042 0
M  V30 6474 H 585.99 -0.173626 -3.1392 0
M  V30 6475 N 589.762 0.448376 -1.51087 0
M  V30 6476 C 590.695 1.56298 -1.66272 0
M  V30 6477 C 591.673 1.54381 -0.510419 0
M  V30 6478 O 592.857 1.73671 -0.732854 0
M  V30 6479 C 589.984 2.94883 -1.66618 0
M  V30 6480 C 589.03 3.14868 -2.87681 0
M  V30 6481 S 589.863 2.9234 -4.48662 0
M  V30 6482 C 591.019 4.33227 -4.51735 0
M  V30 6483 H 591.252 1.43182 -2.6055 0
M  V30 6484 H 588.785 0.637309 -1.40633 0
M  V30 6485 H 590.743 3.74771 -1.67502 0
M  V30 6486 H 589.404 3.05371 -0.735358 0
M  V30 6487 H 588.597 4.16166 -2.84292 0
M  V30 6488 H 588.199 2.42788 -2.84482 0
M  V30 6489 H 590.491 5.26247 -4.26697 0
M  V30 6490 H 591.434 4.41653 -5.53487 0
M  V30 6491 H 591.842 4.16367 -3.81181 0
M  V30 6492 N 591.24 1.41047 0.703093 0
M  V30 6493 C 592.17 1.45067 1.82969 0
M  V30 6494 C 593.151 0.31016 1.67248 0
M  V30 6495 O 594.336 0.520548 1.87093 0
M  V30 6496 C 591.466 1.32478 3.2104 0
M  V30 6497 C 590.42 2.44262 3.51454 0
M  V30 6498 C 589.746 2.16742 4.88801 0
M  V30 6499 C 591.046 3.86606 3.51189 0
M  V30 6500 H 592.74 2.39353 1.79863 0
M  V30 6501 H 590.286 1.15206 0.863919 0
M  V30 6502 H 592.239 1.33904 3.99559 0
M  V30 6503 H 590.963 0.346735 3.24754 0
M  V30 6504 H 589.622 2.42107 2.75282 0
M  V30 6505 H 589.27 1.17299 4.89132 0
M  V30 6506 H 588.97 2.91643 5.10116 0
M  V30 6507 H 590.494 2.19872 5.69639 0
M  V30 6508 H 591.908 3.90517 4.19725 0
M  V30 6509 H 590.305 4.61128 3.84033 0
M  V30 6510 H 591.375 4.15296 2.50315 0
M  V30 6511 N 592.718 -0.936591 1.26751 0
M  V30 6512 C 593.964 -1.6858 1.12733 0
M  V30 6513 C 594.297 -1.91414 -0.327745 0
M  V30 6514 O 593.572 -1.49812 -1.24043 0
M  V30 6515 C 593.855 -3.05779 1.90187 0
M  V30 6516 C 593.708 -2.90242 3.43627 0
M  V30 6517 C 595.027 -4.0597 1.69931 0
M  V30 6518 H 592.146 -0.61182 0.410908 0
M  V30 6519 H 594.788 -1.08747 1.55801 0
M  V30 6520 H 592.938 -3.56853 1.53584 0
M  V30 6521 H 594.61 -2.46354 3.9001 0
M  V30 6522 H 592.853 -2.2577 3.70419 0
M  V30 6523 H 593.524 -3.87572 3.93055 0
M  V30 6524 H 596 -3.63874 2.0183 0
M  V30 6525 H 594.876 -4.99974 2.26534 0
M  V30 6526 H 595.137 -4.37369 0.64502 0
M  V30 6527 N 594.196 -1.08629 -1.14182 0
M  V30 6528 C 595.424 -0.838889 -1.8913 0
M  V30 6529 C 595.839 0.609153 -1.78703 0
M  V30 6530 O 595.196 1.41876 -1.14794 0
M  V30 6531 C 595.247 -1.25477 -3.39025 0
M  V30 6532 O 594.968 -2.64601 -3.49167 0
M  V30 6533 C 596.469 -1.03856 -4.30963 0
M  V30 6534 H 593.689 -0.302377 -0.599007 0
M  V30 6535 H 596.233 -1.44615 -1.44592 0
M  V30 6536 H 594.388 -0.691571 -3.81177 0
M  V30 6537 H 594.802 -2.81922 -4.42289 0
M  V30 6538 H 596.276 -1.37892 -5.345 0
M  V30 6539 H 596.753 0.0242522 -4.39193 0
M  V30 6540 H 597.359 -1.58731 -3.94569 0
M  V30 6541 N 595.674 1.31259 -0.872281 0
M  V30 6542 C 596.637 2.26744 -0.334656 0
M  V30 6543 C 597.637 1.52307 0.515681 0
M  V30 6544 O 598.827 1.71148 0.324656 0
M  V30 6545 C 595.959 3.36841 0.524482 0
M  V30 6546 H 597.152 2.75812 -1.17762 0
M  V30 6547 H 594.705 1.42232 -0.648064 0
M  V30 6548 H 595.44 2.93069 1.38855 0
M  V30 6549 H 595.225 3.92009 -0.0844299 0
M  V30 6550 H 596.715 4.07944 0.892838 0
M  V30 6551 N 597.152 0.631951 1.44375 0
M  V30 6552 C 598.082 -0.0593243 2.33425 0
M  V30 6553 C 599.063 -0.833964 1.48253 0
M  V30 6554 O 600.248 -0.799682 1.76971 0
M  V30 6555 C 597.378 -1.04096 3.31333 0
M  V30 6556 C 596.332 -0.377899 4.26328 0
M  V30 6557 C 595.658 -1.4695 5.14111 0
M  V30 6558 C 596.958 0.716371 5.17364 0
M  V30 6559 H 598.652 0.684287 2.91475 0
M  V30 6560 H 596.198 0.330518 1.40156 0
M  V30 6561 H 598.151 -1.53331 3.92514 0
M  V30 6562 H 596.875 -1.81547 2.71493 0
M  V30 6563 H 595.534 0.0938054 3.6648 0
M  V30 6564 H 595.182 -2.2349 4.50623 0
M  V30 6565 H 594.882 -1.03121 5.78481 0
M  V30 6566 H 596.406 -1.96363 5.78164 0
M  V30 6567 H 597.82 0.307089 5.72477 0
M  V30 6568 H 596.217 1.07784 5.90341 0
M  V30 6569 H 597.287 1.58316 4.58327 0
M  V30 6570 N 598.631 -1.53133 0.372548 0
M  V30 6571 C 599.861 -2.05476 -0.215202 0
M  V30 6572 C 600.269 -1.24534 -1.42436 0
M  V30 6573 O 599.612 -0.280771 -1.81542 0
M  V30 6574 C 599.674 -3.53276 -0.666068 0
M  V30 6575 C 599.338 -4.54998 0.427342 0
M  V30 6576 C 600.335 -5.03911 1.27944 0
M  V30 6577 C 598.02 -4.98828 0.589579 0
M  V30 6578 C 600.014 -5.95263 2.27905 0
M  V30 6579 C 597.701 -5.89984 1.59255 0
M  V30 6580 C 598.699 -6.38093 2.43571 0
M  V30 6581 O 598.387 -7.27451 3.42156 0
M  V30 6582 H 598.119 -0.67481 -0.040099 0
M  V30 6583 H 600.673 -1.98409 0.531312 0
M  V30 6584 H 598.903 -3.57904 -1.4643 0
M  V30 6585 H 600.592 -3.88442 -1.1776 0
M  V30 6586 H 601.358 -4.70792 1.16532 0
M  V30 6587 H 597.237 -4.60965 -0.0569456 0
M  V30 6588 H 600.781 -6.32736 2.93753 0
M  V30 6589 H 596.678 -6.22518 1.70711 0
M  V30 6590 H 597.446 -7.45467 3.37967 0
M  V30 6591 N 600.109 -0.101901 -1.5727 0
M  V30 6592 C 601.334 0.571759 -1.99363 0
M  V30 6593 C 601.759 1.60507 -0.980768 0
M  V30 6594 O 601.117 1.81231 0.0498517 0
M  V30 6595 C 601.165 1.18996 -3.404 0
M  V30 6596 O 600.269 2.30572 -3.41922 0
M  V30 6597 H 599.61 0.144449 -0.648098 0
M  V30 6598 H 602.14 -0.185325 -2.03759 0
M  V30 6599 H 602.15 1.52962 -3.78241 0
M  V30 6600 H 600.825 0.432984 -4.1364 0
M  V30 6601 H 599.402 1.98173 -3.15883 0
M  V30 6602 N 601.587 1.56661 0.17182 0
M  V30 6603 C 602.517 1.99401 1.21498 0
M  V30 6604 C 603.498 0.869516 1.46197 0
M  V30 6605 O 604.683 1.13556 1.57539 0
M  V30 6606 C 601.813 2.35346 2.55401 0
M  V30 6607 C 600.767 3.5075 2.45272 0
M  V30 6608 C 600.093 3.72437 3.8366 0
M  V30 6609 C 601.393 4.84216 1.95787 0
M  V30 6610 H 603.087 2.86792 0.859699 0
M  V30 6611 H 600.633 1.37977 0.412103 0
M  V30 6612 H 602.586 2.63843 3.2858 0
M  V30 6613 H 601.31 1.44864 2.92715 0
M  V30 6614 H 599.969 3.2238 1.74547 0
M  V30 6615 H 599.617 2.79246 4.18367 0
M  V30 6616 H 599.317 4.50087 3.77751 0
M  V30 6617 H 600.841 4.03334 4.58426 0
M  V30 6618 H 602.255 5.11592 2.5874 0
M  V30 6619 H 600.652 5.65498 2.00827 0
M  V30 6620 H 601.722 4.76243 0.912159 0
M  V30 6621 N 603.065 -0.440357 1.51323 0
M  V30 6622 C 604.295 -1.21079 1.67402 0
M  V30 6623 C 604.703 -1.85555 0.369599 0
M  V30 6624 O 604.046 -1.71375 -0.661525 0
M  V30 6625 C 604.108 -2.33839 2.73056 0
M  V30 6626 C 603.772 -1.89755 4.15743 0
M  V30 6627 C 604.769 -1.40268 5.0062 0
M  V30 6628 C 602.454 -1.97539 4.61826 0
M  V30 6629 C 604.448 -0.991474 6.29642 0
M  V30 6630 C 602.135 -1.56029 5.90845 0
M  V30 6631 C 603.133 -1.06915 6.7458 0
M  V30 6632 O 602.821 -0.659933 8.01187 0
M  V30 6633 H 602.553 -0.371133 0.56501 0
M  V30 6634 H 605.107 -0.528409 1.98487 0
M  V30 6635 H 603.337 -3.05345 2.37279 0
M  V30 6636 H 605.026 -2.95713 2.78044 0
M  V30 6637 H 605.792 -1.33652 4.66221 0
M  V30 6638 H 601.671 -2.34713 3.96776 0
M  V30 6639 H 605.215 -0.607425 6.9495 0
M  V30 6640 H 601.112 -1.62315 6.24759 0
M  V30 6641 H 601.88 -0.786052 8.14717 0
M  V30 6642 N 604.543 -1.41418 -0.695603 0
M  V30 6643 C 605.476 -1.3768 -1.81988 0
M  V30 6644 C 606.454 -0.244061 -1.60758 0
M  V30 6645 O 607.638 -0.430965 -1.83507 0
M  V30 6646 C 604.765 -1.1476 -3.18666 0
M  V30 6647 C 603.811 -2.30752 -3.58686 0
M  V30 6648 S 604.644 -3.9323 -3.63498 0
M  V30 6649 C 605.8 -3.72613 -5.02902 0
M  V30 6650 H 606.033 -2.32822 -1.84882 0
M  V30 6651 H 603.566 -1.27942 -0.86431 0
M  V30 6652 H 605.524 -1.02223 -3.97569 0
M  V30 6653 H 604.185 -0.212385 -3.13381 0
M  V30 6654 H 603.378 -2.10409 -4.57978 0
M  V30 6655 H 602.98 -2.39696 -2.87092 0
M  V30 6656 H 605.272 -3.32317 -5.904 0
M  V30 6657 H 606.215 -4.71507 -5.28286 0
M  V30 6658 H 606.623 -3.0589 -4.74438 0
M  V30 6659 N 606.021 0.929856 -1.27246 0
M  V30 6660 C 607.268 1.67731 -1.13457 0
M  V30 6661 C 607.596 1.9185 0.319998 0
M  V30 6662 O 606.851 1.50524 1.25064 0
M  V30 6663 C 607.15 3.05116 -1.86115 0
M  V30 6664 C 606.816 3.00715 -3.35978 0
M  V30 6665 C 605.478 2.99222 -3.76855 0
M  V30 6666 C 607.83 2.92168 -4.3161 0
M  V30 6667 C 605.158 2.86962 -5.11732 0
M  V30 6668 C 607.51 2.81449 -5.66542 0
M  V30 6669 C 606.174 2.78305 -6.06715 0
M  V30 6670 H 605.444 0.613772 -0.415168 0
M  V30 6671 H 608.091 1.08456 -1.57827 0
M  V30 6672 H 606.396 3.68083 -1.34246 0
M  V30 6673 H 608.093 3.61822 -1.72876 0
M  V30 6674 H 604.683 3.02664 -3.03468 0
M  V30 6675 H 608.867 2.92421 -4.01003 0
M  V30 6676 H 604.123 2.82913 -5.42006 0
M  V30 6677 H 608.297 2.738 -6.40317 0
M  V30 6678 H 605.924 2.68561 -7.11181 0
M  V30 6679 N 607.499 1.09233 1.13605 0
M  V30 6680 C 608.727 0.848908 1.88683 0
M  V30 6681 C 609.142 -0.599667 1.79024 0
M  V30 6682 O 608.499 -1.41265 1.15544 0
M  V30 6683 C 608.55 1.27273 3.38355 0
M  V30 6684 O 608.271 2.66449 3.47759 0
M  V30 6685 C 609.772 1.0614 4.30406 0
M  V30 6686 H 606.992 0.305549 0.597395 0
M  V30 6687 H 609.536 1.4538 1.43823 0
M  V30 6688 H 607.691 0.711776 3.80805 0
M  V30 6689 H 608.105 2.84264 4.40788 0
M  V30 6690 H 609.579 1.40725 5.33761 0
M  V30 6691 H 610.056 -0.000960332 4.392 0
M  V30 6692 H 610.662 1.60821 3.93722 0
M  V30 6693 N 608.977 -1.30795 0.87923 0
M  V30 6694 C 610.205 -2.00527 0.509548 0
M  V30 6695 C 610.62 -1.65944 -0.90045 0
M  V30 6696 O 609.977 -0.893525 -1.5913 0
M  V30 6697 C 610.028 -3.55276 0.667943 0
M  V30 6698 O 609.749 -3.88625 2.02242 0
M  V30 6699 C 611.25 -4.4228 0.300494 0
M  V30 6700 H 608.47 -0.641261 0.197549 0
M  V30 6701 H 611.014 -1.66813 1.18295 0
M  V30 6702 H 609.169 -3.87377 0.0419843 0
M  V30 6703 H 609.583 -4.83334 2.03688 0
M  V30 6704 H 611.057 -5.50061 0.462242 0
M  V30 6705 H 611.534 -4.32556 -0.76106 0
M  V30 6706 H 612.14 -4.15613 0.902536 0
M  V30 6707 N 610.455 -0.639598 -1.44038 0
M  V30 6708 C 611.683 -0.154811 -2.0632 0
M  V30 6709 C 612.098 1.17406 -1.47856 0
M  V30 6710 O 611.455 1.72193 -0.604638 0
M  V30 6711 C 611.506 -0.0429958 -3.61474 0
M  V30 6712 O 611.227 -1.31932 -4.17763 0
M  V30 6713 C 612.728 0.469486 -4.40807 0
M  V30 6714 H 609.948 -0.0835862 -0.665773 0
M  V30 6715 H 612.492 -0.876397 -1.84769 0
M  V30 6716 H 610.647 0.629075 -3.82258 0
M  V30 6717 H 611.061 -1.16965 -5.11292 0
M  V30 6718 H 612.535 0.496712 -5.49761 0
M  V30 6719 H 613.012 1.49819 -4.12857 0
M  V30 6720 H 613.618 -0.169624 -4.24962 0
M  V30 6721 N 611.933 1.52934 -0.380664 0
M  V30 6722 C 612.865 2.23822 0.493581 0
M  V30 6723 C 613.878 1.25761 1.03383 0
M  V30 6724 O 615.067 1.5189 0.937633 0
M  V30 6725 C 612.167 2.9342 1.69582 0
M  V30 6726 C 611.34 4.18115 1.28445 0
M  V30 6727 C 610.399 4.70788 2.35042 0
M  V30 6728 O 609.425 5.34093 1.96807 0
M  V30 6729 N 610.627 4.49899 3.66839 0
M  V30 6730 H 613.392 2.99484 -0.11371 0
M  V30 6731 H 610.953 1.60577 -0.206587 0
M  V30 6732 H 612.945 3.2556 2.40401 0
M  V30 6733 H 611.515 2.21119 2.20965 0
M  V30 6734 H 610.735 3.92109 0.405503 0
M  V30 6735 H 612.023 4.99152 0.986132 0
M  V30 6736 H 611.421 3.99349 4.0067 0
M  V30 6737 H 609.978 4.86551 4.33718 0
M  V30 6738 N 613.412 0.11024 1.57214 0
M  V30 6739 C 614.658 -0.544479 1.95977 0
M  V30 6740 C 615.013 -1.64845 0.992171 0
M  V30 6741 O 614.306 -1.91589 0.0206981 0
M  V30 6742 C 614.5 -1.13102 3.39032 0
M  V30 6743 C 614.329 -0.0854079 4.49619 0
M  V30 6744 C 613.099 0.343373 5.04132 0
M  V30 6745 C 615.297 0.692232 5.0962 0
M  V30 6746 N 613.279 1.37567 5.98288 0
M  V30 6747 C 614.65 1.57596 5.99636 0
M  V30 6748 C 616.705 0.744085 4.92309 0
M  V30 6749 C 615.408 2.50701 6.74197 0
M  V30 6750 C 617.434 1.6628 5.67543 0
M  V30 6751 C 616.796 2.53412 6.57238 0
M  V30 6752 H 612.895 -0.169124 0.763493 0
M  V30 6753 H 615.479 0.196326 1.93708 0
M  V30 6754 H 613.65 -1.84158 3.41965 0
M  V30 6755 H 615.382 -1.74934 3.64939 0
M  V30 6756 H 612.137 -0.0473277 4.73576 0
M  V30 6757 H 612.561 1.89048 6.50069 0
M  V30 6758 H 617.203 0.0845825 4.22715 0
M  V30 6759 H 614.921 3.17669 7.43043 0
M  V30 6760 H 618.507 1.70825 5.56156 0
M  V30 6761 H 617.387 3.23347 7.14434 0
M  V30 6762 N 614.89 -1.56749 -0.16351 0
M  V30 6763 C 616.138 -1.82074 -0.87713 0
M  V30 6764 C 616.459 -0.688503 -1.82441 0
M  V30 6765 O 615.729 0.291085 -1.93725 0
M  V30 6766 H 614.309 -0.671677 -0.326893 0
M  V30 6767 H 616.971 -1.9423 -0.161459 0
M  V30 6768 H 616.067 -2.76407 -1.44934 0
M  V30 6769 N 616.368 0.432326 -1.51554 0
M  V30 6770 C 617.593 1.20824 -1.68571 0
M  V30 6771 C 618.018 1.84126 -0.384596 0
M  V30 6772 O 617.376 1.69025 0.655751 0
M  V30 6773 C 617.424 2.26429 -2.80646 0
M  V30 6774 O 616.528 3.32032 -2.44598 0
M  V30 6775 H 615.869 0.353765 -0.561913 0
M  V30 6776 H 618.399 0.509916 -1.98144 0
M  V30 6777 H 618.409 2.71133 -3.04878 0
M  V30 6778 H 617.084 1.79733 -3.75058 0
M  V30 6779 H 615.661 2.92769 -2.30956 0
M  V30 6780 N 617.846 1.41785 0.688094 0
M  V30 6781 C 618.776 1.47 1.8142 0
M  V30 6782 C 619.757 0.327881 1.6691 0
M  V30 6783 O 620.942 0.540362 1.86531 0
M  V30 6784 C 618.072 1.35876 3.19617 0
M  V30 6785 C 617.026 2.47976 3.48844 0
M  V30 6786 C 616.352 2.21915 4.86475 0
M  V30 6787 C 617.652 3.90309 3.47068 0
M  V30 6788 H 619.346 2.41247 1.77314 0
M  V30 6789 H 616.892 1.16116 0.851651 0
M  V30 6790 H 618.845 1.38134 3.98117 0
M  V30 6791 H 617.569 0.38116 3.24368 0
M  V30 6792 H 616.228 2.45013 2.72698 0
M  V30 6793 H 615.876 1.2248 4.8786 0
M  V30 6794 H 615.576 2.97037 5.06994 0
M  V30 6795 H 617.1 2.25901 5.67275 0
M  V30 6796 H 618.514 3.94947 4.1556 0
M  V30 6797 H 616.911 4.65175 3.7912 0
M  V30 6798 H 617.981 4.17927 2.45896 0
M  V30 6799 N 619.324 -0.923095 1.27737 0
M  V30 6800 C 620.552 -1.70525 1.17171 0
M  V30 6801 C 620.967 -1.86847 -0.270881 0
M  V30 6802 O 620.324 -1.38879 -1.18401 0
M  V30 6803 C 620.375 -3.10242 1.85559 0
M  V30 6804 O 620.096 -2.94683 3.24182 0
M  V30 6805 C 621.597 -4.04586 1.81176 0
M  V30 6806 H 618.817 -0.533347 0.407163 0
M  V30 6807 H 621.361 -1.15599 1.68692 0
M  V30 6808 H 619.516 -3.62014 1.3793 0
M  V30 6809 H 619.93 -3.83045 3.58297 0
M  V30 6810 H 621.404 -5.00119 2.33633 0
M  V30 6811 H 621.881 -4.3218 0.782099 0
M  V30 6812 H 622.487 -3.58741 2.2844 0
M  V30 6813 N 620.802 -1.09834 -1.13024 0
M  V30 6814 C 621.752 -0.710899 -2.16634 0
M  V30 6815 C 622.736 0.276836 -1.58501 0
M  V30 6816 O 623.928 0.0865457 -1.76788 0
M  V30 6817 C 621.057 -0.137574 -3.43024 0
M  V30 6818 C 620.143 -1.15198 -4.08155 0
M  V30 6819 N 620.534 -2.34054 -4.48388 0
M  V30 6820 C 618.832 -0.991074 -4.34849 0
M  V30 6821 C 619.533 -2.98616 -4.99203 0
M  V30 6822 N 618.509 -2.26159 -4.94321 0
M  V30 6823 H 622.311 -1.61576 -2.455 0
M  V30 6824 H 619.825 -0.975158 -1.29863 0
M  V30 6825 H 621.822 0.158031 -4.166 0
M  V30 6826 H 620.482 0.762088 -3.1563 0
M  V30 6827 H 621.493 -2.7162 -4.40957 0
M  V30 6828 H 618.17 -0.146448 -4.17243 0
M  V30 6829 H 619.56 -3.99683 -5.40096 0
M  V30 6830 N 622.28 1.30327 -0.886154 0
M  V30 6831 C 623.23 2.25668 -0.325248 0
M  V30 6832 C 624.214 1.51318 0.546972 0
M  V30 6833 O 625.406 1.72623 0.391203 0
M  V30 6834 C 622.535 3.40229 0.458167 0
M  V30 6835 C 621.621 4.21933 -0.428208 0
M  V30 6836 N 622.012 4.82129 -1.52921 0
M  V30 6837 C 620.31 4.45439 -0.223535 0
M  V30 6838 C 621.011 5.43351 -2.07714 0
M  V30 6839 N 619.987 5.26002 -1.37195 0
M  V30 6840 H 623.789 2.69759 -1.1665 0
M  V30 6841 H 621.303 1.4478 -0.735691 0
M  V30 6842 H 623.3 4.07579 0.876648 0
M  V30 6843 H 621.96 2.97678 1.29684 0
M  V30 6844 H 622.971 4.81312 -1.91205 0
M  V30 6845 H 619.648 4.13481 0.577875 0
M  V30 6846 H 621.038 6.01118 -3.00178 0
M  V30 6847 N 623.758 0.647228 1.43697 0
M  V30 6848 C 625.007 0.155552 2.01099 0
M  V30 6849 C 625.32 -1.23569 1.51624 0
M  V30 6850 O 626.526 -1.82226 2.01261 0
M  V30 6851 C 624.982 0.227296 3.59182 0
M  V30 6852 C 624.59 1.62086 4.17651 0
M  V30 6853 C 626.334 -0.207085 4.23995 0
M  V30 6854 C 624.241 1.64685 5.68008 0
M  V30 6855 H 623.171 0.0543895 0.752036 0
M  V30 6856 H 625.822 0.808386 1.64734 0
M  V30 6857 H 624.204 -0.492937 3.9292 0
M  V30 6858 H 625.378 2.36597 3.95422 0
M  V30 6859 H 623.693 2.0007 3.65186 0
M  V30 6860 H 626.29 -0.207426 5.34298 0
M  V30 6861 H 626.633 -1.23742 3.97484 0
M  V30 6862 H 627.166 0.461193 3.95118 0
M  V30 6863 H 623.905 2.65608 5.99277 0
M  V30 6864 H 623.425 0.944914 5.9231 0
M  V30 6865 H 625.104 1.38792 6.31938 0
M  V30 6866 N 625.236 -1.5273 0.388769 0
M  V30 6867 C 626.184 -2.27975 -0.461527 0
M  V30 6868 C 627.178 -1.31854 -1.06352 0
M  V30 6869 O 628.384 -1.49394 -1.00406 0
M  V30 6870 H 624.759 -0.733088 -0.16759 0
M  V30 6871 H 626.73 -2.97765 0.194579 0
M  V30 6872 C 625.479 -3.09881 -1.577 0
M  V30 6873 H 624.802 -3.83701 -1.12309 0
M  V30 6874 H 626.242 -3.6567 -2.14619 0
M  V30 6875 C 624.701 -2.22159 -2.53272 0
M  V30 6876 O 625.231 -1.84802 -3.56667 0
M  V30 6877 N 623.437 -1.8633 -2.23001 0
M  V30 6878 H 622.984 -2.16909 -1.38954 0
M  V30 6879 H 622.942 -1.27927 -2.87197 0
M  V30 6880 N 626.714 -0.118576 -1.57153 0
M  V30 6881 C 627.662 0.849114 -2.16547 0
M  V30 6882 C 628.656 1.27567 -1.11458 0
M  V30 6883 O 629.862 1.24746 -1.29763 0
M  V30 6884 H 626.237 0.291935 -0.693021 0
M  V30 6885 H 628.208 0.323693 -2.96639 0
M  V30 6886 C 626.957 2.08951 -2.77912 0
M  V30 6887 H 626.28 1.77021 -3.58474 0
M  V30 6888 H 627.72 2.74666 -3.23008 0
M  V30 6889 C 626.179 2.87899 -1.74974 0
M  V30 6890 O 626.709 3.83268 -1.20285 0
M  V30 6891 N 624.915 2.51884 -1.44924 0
M  V30 6892 H 624.462 1.74397 -1.89587 0
M  V30 6893 H 624.42 3.05003 -0.762921 0
M  V30 6894 N 628.193 1.56834 0.155195 0
M  V30 6895 C 629.126 1.9278 1.22111 0
M  V30 6896 C 630.104 0.792588 1.41975 0
M  V30 6897 O 631.288 1.04743 1.5672 0
M  V30 6898 C 628.415 2.19273 2.58142 0
M  V30 6899 C 627.461 3.41932 2.54921 0
M  V30 6900 S 628.294 4.95769 2.02418 0
M  V30 6901 C 629.45 5.25375 3.40194 0
M  V30 6902 H 629.683 2.82889 0.914393 0
M  V30 6903 H 627.216 1.50133 0.360461 0
M  V30 6904 H 629.174 2.35217 3.36427 0
M  V30 6905 H 627.835 1.29843 2.86007 0
M  V30 6906 H 627.028 3.57721 3.55038 0
M  V30 6907 H 626.63 3.25188 1.8474 0
M  V30 6908 H 628.922 5.1834 4.36268 0
M  V30 6909 H 629.865 6.26889 3.29266 0
M  V30 6910 H 630.273 4.52906 3.36951 0
M  V30 6911 N 629.671 -0.424282 1.51781 0
M  V30 6912 C 630.618 -1.51591 1.74037 0
M  V30 6913 C 631.588 -1.55556 0.582358 0
M  V30 6914 O 632.773 -1.72364 0.818245 0
M  V30 6915 C 629.913 -2.89188 1.8832 0
M  V30 6916 C 629.026 -2.9465 3.1592 0
M  V30 6917 C 628.161 -4.23452 3.20721 0
M  V30 6918 C 627.2 -4.22831 4.42584 0
M  V30 6919 N 626.337 -5.43178 4.44862 0
M  V30 6920 H 631.177 -1.31917 2.67212 0
M  V30 6921 H 628.714 -0.640599 1.32419 0
M  V30 6922 H 630.672 -3.69044 1.94583 0
M  V30 6923 H 629.302 -3.07392 0.985402 0
M  V30 6924 H 628.354 -2.07378 3.18902 0
M  V30 6925 H 629.666 -2.90055 4.05795 0
M  V30 6926 H 628.82 -5.1169 3.25973 0
M  V30 6927 H 627.559 -4.30722 2.28757 0
M  V30 6928 H 626.564 -3.32984 4.37495 0
M  V30 6929 H 627.789 -4.17213 5.35826 0
M  V30 6930 H 625.735 -5.51145 3.55775 0
M  V30 6931 H 625.652 -5.40515 5.28563 0
M  V30 6932 H 626.92 -6.33412 4.54324 0
M  V30 6933 N 631.149 -1.42148 -0.680565 0
M  V30 6934 C 632.56 -1.3768 -1.26099 0
M  V30 6935 C 632.911 -0.0672348 -1.96085 0
M  V30 6936 O 632.036 0.834172 -1.99676 0
M  V30 6937 C 632.631 -2.49387 -2.29328 0
M  V30 6938 C 631.19 -2.4827 -2.82911 0
M  V30 6939 C 630.337 -2.2847 -1.57152 0
M  V30 6940 H 633.288 -1.51446 -0.474326 0
M  V30 6941 H 633.309 -2.19307 -3.10941 0
M  V30 6942 H 632.821 -3.44686 -1.78363 0
M  V30 6943 H 630.922 -1.56773 -3.38013 0
M  V30 6944 H 631.035 -3.45109 -3.3232 0
M  V30 6945 H 629.399 -1.76623 -1.83511 0
M  V30 6946 H 630.182 -3.25816 -1.0816 0
M  V30 6947 N 632.627 0.916307 -1.28225 0
M  V30 6948 C 633.852 1.7043 -1.18188 0
M  V30 6949 C 634.277 1.86346 0.256274 0
M  V30 6950 O 633.635 1.37175 1.18544 0
M  V30 6951 C 633.683 3.07546 -1.88275 0
M  V30 6952 O 632.787 3.94904 -1.18848 0
M  V30 6953 H 632.128 0.521967 -0.410423 0
M  V30 6954 H 634.658 1.14589 -1.69501 0
M  V30 6955 H 634.668 3.57793 -1.96082 0
M  V30 6956 H 633.343 2.95279 -2.92887 0
M  V30 6957 H 631.92 3.53339 -1.19187 0
M  V30 6958 N 634.105 1.10431 1.1244 0
M  V30 6959 C 635.352 0.846717 1.83948 0
M  V30 6960 C 635.68 -0.627709 1.84093 0
M  V30 6961 O 634.935 -1.47876 1.28184 0
M  V30 6962 C 635.234 1.34022 3.3132 0
M  V30 6963 C 634.9 2.82606 3.51347 0
M  V30 6964 C 633.562 3.23182 3.56521 0
M  V30 6965 C 635.914 3.78356 3.58464 0
M  V30 6966 C 633.242 4.58258 3.66356 0
M  V30 6967 C 635.594 5.13234 3.69829 0
M  V30 6968 C 634.258 5.53384 3.73259 0
M  V30 6969 H 633.528 0.309836 0.673114 0
M  V30 6970 H 636.175 1.38091 1.32677 0
M  V30 6971 H 634.48 0.726047 3.85014 0
M  V30 6972 H 636.177 1.11739 3.85118 0
M  V30 6973 H 632.767 2.50212 3.47983 0
M  V30 6974 H 636.951 3.48115 3.53737 0
M  V30 6975 H 632.207 4.88787 3.67284 0
M  V30 6976 H 636.381 5.87272 3.74279 0
M  V30 6977 H 634.008 6.58045 3.80633 0
M  V30 6978 N 635.583 -1.29855 0.893053 0
M  V30 6979 C 636.811 -1.99976 0.530788 0
M  V30 6980 C 637.226 -1.66889 -0.882799 0
M  V30 6981 O 636.583 -0.910352 -1.58173 0
M  V30 6982 C 636.634 -3.54547 0.705587 0
M  V30 6983 O 636.355 -3.86458 2.06353 0
M  V30 6984 C 637.856 -4.41937 0.347387 0
M  V30 6985 H 635.076 -0.639129 0.204339 0
M  V30 6986 H 637.62 -1.65549 1.20057 0
M  V30 6987 H 635.775 -3.87311 0.0830685 0
M  V30 6988 H 636.189 -4.81146 2.08803 0
M  V30 6989 H 637.663 -5.4954 0.520557 0
M  V30 6990 H 638.14 -4.33339 -0.715139 0
M  V30 6991 H 638.746 -4.14633 0.946567 0
M  V30 6992 N 637.061 -0.65484 -1.43351 0
M  V30 6993 C 638.477 -0.32255 -1.56307 0
M  V30 6994 C 638.677 1.17324 -1.63821 0
M  V30 6995 O 637.733 1.95813 -1.59417 0
M  V30 6996 C 639.046 -1.03533 -2.82314 0
M  V30 6997 C 640.594 -1.01574 -2.9606 0
M  V30 6998 C 641.069 -1.70945 -4.24902 0
M  V30 6999 N 642.56 -1.67716 -4.3177 0
M  V30 7000 C 643.295 -2.18265 -5.30234 0
M  V30 7001 N 642.791 -2.7711 -6.34966 0
M  V30 7002 N 644.584 -2.08756 -5.21898 0
M  V30 7003 H 636.735 -1.62549 -1.36717 0
M  V30 7004 H 638.998 -0.683676 -0.656727 0
M  V30 7005 H 638.704 -2.09045 -2.8283 0
M  V30 7006 H 638.578 -0.587913 -3.7259 0
M  V30 7007 H 640.965 0.0309834 -2.95084 0
M  V30 7008 H 641.046 -1.50186 -2.07069 0
M  V30 7009 H 640.69 -2.75574 -4.26639 0
M  V30 7010 H 640.62 -1.19797 -5.12793 0
M  V30 7011 H 643.111 -1.24777 -3.56706 0
M  V30 7012 H 643.424 -3.13353 -7.06421 0
M  V30 7013 H 641.769 -2.81171 -6.35585 0
M  V30 7014 H 644.96 -1.62488 -4.38994 0
M  V30 7015 H 645.133 -2.48459 -5.98475 0
M  V30 7016 N 638.539 1.52521 -0.396863 0
M  V30 7017 C 639.449 2.30403 0.44178 0
M  V30 7018 C 640.465 1.37625 1.06468 0
M  V30 7019 O 641.641 1.70697 1.06886 0
M  V30 7020 C 638.706 3.1013 1.54986 0
M  V30 7021 C 637.767 4.18628 0.951279 0
M  V30 7022 C 637 4.94543 2.00655 0
M  V30 7023 O 637.223 4.70629 3.22281 0
M  V30 7024 O 636.157 5.797 1.61962 0
M  V30 7025 H 639.983 3.03087 -0.192892 0
M  V30 7026 H 637.568 1.48537 -0.16038 0
M  V30 7027 H 639.45 3.59816 2.19341 0
M  V30 7028 H 638.125 2.40251 2.16935 0
M  V30 7029 H 637.032 3.73119 0.270773 0
M  V30 7030 H 638.365 4.90763 0.375887 0
M  V30 7031 N 640.017 0.126909 1.57088 0
M  V30 7032 C 640.965 -0.837618 2.16995 0
M  V30 7033 C 641.959 -1.26974 1.12133 0
M  V30 7034 O 643.165 -1.24056 1.30423 0
M  V30 7035 H 639.54 -0.288256 0.694559 0
M  V30 7036 H 641.511 -0.307957 2.96807 0
M  V30 7037 C 640.26 -2.07474 2.79016 0
M  V30 7038 H 639.583 -1.75117 3.59408 0
M  V30 7039 H 641.023 -2.72949 3.24461 0
M  V30 7040 C 639.482 -2.86967 1.76498 0
M  V30 7041 O 640.012 -3.82625 1.22316 0
M  V30 7042 N 638.218 -2.51111 1.46258 0
M  V30 7043 H 637.765 -1.73389 1.90509 0
M  V30 7044 H 637.723 -3.04594 0.779085 0
M  V30 7045 N 641.495 -1.56914 -0.146875 0
M  V30 7046 C 642.723 -1.87515 -0.874394 0
M  V30 7047 C 643.138 -0.715116 -1.74733 0
M  V30 7048 O 642.495 0.315113 -1.79759 0
M  V30 7049 C 642.546 -3.17362 -1.731 0
M  V30 7050 O 642.267 -4.28897 -0.893245 0
M  V30 7051 C 643.768 -3.61479 -2.56609 0
M  V30 7052 H 640.988 -0.621546 -0.252827 0
M  V30 7053 H 643.532 -2.04023 -0.139627 0
M  V30 7054 H 641.687 -3.02608 -2.41883 0
M  V30 7055 H 642.101 -5.03146 -1.48137 0
M  V30 7056 H 643.575 -4.5517 -3.12289 0
M  V30 7057 H 644.052 -2.86773 -3.32653 0
M  V30 7058 H 644.658 -3.78927 -1.93117 0
M  V30 7059 N 642.974 0.416227 -1.52004 0
M  V30 7060 C 643.904 1.51365 -1.77795 0
M  V30 7061 C 644.885 1.58059 -0.628601 0
M  V30 7062 O 646.07 1.73447 -0.873478 0
M  V30 7063 C 643.2 2.89256 -1.92219 0
M  V30 7064 C 642.154 2.97415 -3.0778 0
M  V30 7065 C 641.48 4.37492 -3.07417 0
M  V30 7066 C 642.78 2.69551 -4.47369 0
M  V30 7067 H 644.474 1.30033 -2.69688 0
M  V30 7068 H 642.02 0.624112 -1.29772 0
M  V30 7069 H 643.973 3.66008 -2.08845 0
M  V30 7070 H 642.697 3.11866 -0.969917 0
M  V30 7071 H 641.356 2.23107 -2.90893 0
M  V30 7072 H 641.004 4.571 -2.09925 0
M  V30 7073 H 640.704 4.43877 -3.85029 0
M  V30 7074 H 642.228 5.16188 -3.26162 0
M  V30 7075 H 643.642 3.36028 -4.64497 0
M  V30 7076 H 642.039 2.87321 -5.26846 0
M  V30 7077 H 643.109 1.65029 -4.55953 0
M  V30 7078 N 644.452 1.42507 0.673017 0
M  V30 7079 C 645.385 1.40557 1.79774 0
M  V30 7080 C 646.363 0.269606 1.60349 0
M  V30 7081 O 647.547 0.460105 1.82798 0
M  V30 7082 C 644.674 1.19815 3.168 0
M  V30 7083 C 643.72 2.36429 3.5497 0
M  V30 7084 S 644.553 3.98963 3.57196 0
M  V30 7085 C 645.709 3.80567 4.9691 0
M  V30 7086 H 645.942 2.35734 1.81154 0
M  V30 7087 H 643.475 1.293 0.843846 0
M  V30 7088 H 645.433 1.08535 3.95892 0
M  V30 7089 H 644.094 0.262215 3.13004 0
M  V30 7090 H 643.287 2.17669 4.54573 0
M  V30 7091 H 642.889 2.44233 2.83242 0
M  V30 7092 H 645.181 3.41668 5.85038 0
M  V30 7093 H 646.124 4.79852 5.20718 0
M  V30 7094 H 646.532 3.13399 4.69512 0
M  V30 7095 N 645.93 -0.909495 1.28709 0
M  V30 7096 C 647.177 -1.65905 1.16111 0
M  V30 7097 C 647.505 -1.92334 -0.289436 0
M  V30 7098 O 646.76 -1.52495 -1.22653 0
M  V30 7099 C 647.059 -3.02117 1.90945 0
M  V30 7100 C 646.725 -2.95332 3.40719 0
M  V30 7101 C 645.387 -2.93189 3.81567 0
M  V30 7102 C 647.739 -2.85264 4.36204 0
M  V30 7103 C 645.067 -2.78784 5.16233 0
M  V30 7104 C 647.419 -2.724 5.70948 0
M  V30 7105 C 646.083 -2.68617 6.11066 0
M  V30 7106 H 645.353 -0.60709 0.42488 0
M  V30 7107 H 648 -1.05932 1.59533 0
M  V30 7108 H 646.305 -3.65901 1.40085 0
M  V30 7109 H 648.002 -3.59026 1.7861 0
M  V30 7110 H 644.592 -2.97797 3.08245 0
M  V30 7111 H 648.776 -2.86005 4.05605 0
M  V30 7112 H 644.032 -2.74254 5.46438 0
M  V30 7113 H 648.206 -2.63579 6.44592 0
M  V30 7114 H 645.833 -2.57213 7.15364 0
M  V30 7115 N 647.408 -1.11026 -1.11852 0
M  V30 7116 C 648.341 -0.708501 -2.16923 0
M  V30 7117 C 649.319 0.293196 -1.59935 0
M  V30 7118 O 650.503 0.190641 -1.87533 0
M  V30 7119 C 647.63 -0.0463705 -3.38668 0
M  V30 7120 C 646.676 -1.01252 -4.14307 0
M  V30 7121 S 647.509 -2.53291 -4.71809 0
M  V30 7122 C 648.665 -1.88366 -5.96883 0
M  V30 7123 H 648.898 -1.59854 -2.50667 0
M  V30 7124 H 646.431 -0.927869 -1.2341 0
M  V30 7125 H 648.389 0.329314 -4.09177 0
M  V30 7126 H 647.05 0.820562 -3.03192 0
M  V30 7127 H 646.243 -0.496596 -5.01548 0
M  V30 7128 H 645.845 -1.33042 -3.49537 0
M  V30 7129 H 648.137 -1.21753 -6.6647 0
M  V30 7130 H 649.08 -2.73588 -6.53112 0
M  V30 7131 H 649.488 -1.34562 -5.48227 0
M  V30 7132 N 648.886 1.2938 -0.899927 0
M  V30 7133 C 649.836 2.25311 -0.349165 0
M  V30 7134 C 650.82 1.51889 0.530892 0
M  V30 7135 O 652.012 1.73028 0.372872 0
M  V30 7136 C 649.141 3.40696 0.422055 0
M  V30 7137 C 648.227 4.21455 -0.472935 0
M  V30 7138 N 648.618 4.8048 -1.58026 0
M  V30 7139 C 646.916 4.45177 -0.270767 0
M  V30 7140 C 647.617 5.41117 -2.13465 0
M  V30 7141 N 646.593 5.24518 -1.42766 0
M  V30 7142 H 650.395 2.68507 -1.19505 0
M  V30 7143 H 647.909 1.43992 -0.751006 0
M  V30 7144 H 649.906 4.08486 0.833369 0
M  V30 7145 H 648.566 2.99037 1.2652 0
M  V30 7146 H 649.577 4.79257 -1.96299 0
M  V30 7147 H 646.254 4.14071 0.533988 0
M  V30 7148 H 647.644 5.979 -3.06537 0
M  V30 7149 N 650.364 0.662433 1.43002 0
M  V30 7150 C 651.294 -0.00979809 2.33498 0
M  V30 7151 C 652.275 -0.802329 1.49989 0
M  V30 7152 O 653.46 -0.761964 1.78627 0
M  V30 7153 C 650.59 -0.970446 3.33466 0
M  V30 7154 C 649.544 -0.287383 4.27034 0
M  V30 7155 C 648.87 -1.36012 5.17112 0
M  V30 7156 C 650.17 0.82595 5.15728 0
M  V30 7157 H 651.864 0.745959 2.89958 0
M  V30 7158 H 649.41 0.360172 1.39423 0
M  V30 7159 H 651.363 -1.44971 3.95679 0
M  V30 7160 H 650.087 -1.75748 2.75282 0
M  V30 7161 H 648.746 0.17152 3.66199 0
M  V30 7162 H 648.394 -2.13882 4.55262 0
M  V30 7163 H 648.094 -0.908276 5.80538 0
M  V30 7164 H 649.618 -1.84056 5.82199 0
M  V30 7165 H 651.032 0.42845 5.71697 0
M  V30 7166 H 649.429 1.20282 5.87922 0
M  V30 7167 H 650.499 1.68003 4.54866 0
M  V30 7168 N 651.842 -1.52309 0.404946 0
M  V30 7169 C 653.067 -2.06666 -0.1743 0
M  V30 7170 C 653.492 -1.27341 -1.38441 0
M  V30 7171 O 652.85 -0.302539 -1.78758 0
M  V30 7172 C 652.898 -3.57014 -0.507262 0
M  V30 7173 O 652.002 -3.80144 -1.59889 0
M  V30 7174 H 651.343 -0.663807 -0.0160273 0
M  V30 7175 H 653.873 -1.96297 0.576937 0
M  V30 7176 H 653.883 -4.00724 -0.767098 0
M  V30 7177 H 652.558 -4.14184 0.377368 0
M  V30 7178 H 651.135 -3.48316 -1.33155 0
M  V30 7179 N 653.32 -0.135238 -1.57019 0
M  V30 7180 C 654.731 0.387521 -1.82634 0
M  V30 7181 C 655.082 1.65528 -1.05332 0
M  V30 7182 O 654.207 2.14381 -0.294926 0
M  V30 7183 C 654.802 0.709852 -3.3128 0
M  V30 7184 C 653.361 1.17718 -3.57518 0
M  V30 7185 C 652.508 0.194183 -2.76619 0
M  V30 7186 H 655.459 -0.360126 -1.5456 0
M  V30 7187 H 655.48 1.5657 -3.46794 0
M  V30 7188 H 654.992 -0.213024 -3.87515 0
M  V30 7189 H 653.093 2.1164 -3.06658 0
M  V30 7190 H 653.206 1.11128 -4.66034 0
M  V30 7191 H 651.57 0.684478 -2.4533 0
M  V30 7192 H 652.353 -0.722076 -3.3562 0
M  V30 7193 N 654.798 1.5699 0.138552 0
M  V30 7194 C 656.047 1.82998 0.848205 0
M  V30 7195 C 656.36 0.717829 1.81952 0
M  V30 7196 O 657.566 0.863756 2.57394 0
M  V30 7197 C 656.022 3.24379 1.55904 0
M  V30 7198 C 655.63 4.43552 0.62971 0
M  V30 7199 C 657.374 3.59654 2.25498 0
M  V30 7200 C 655.281 5.75957 1.34266 0
M  V30 7201 H 654.211 0.682495 0.320495 0
M  V30 7202 H 656.862 1.83222 0.100924 0
M  V30 7203 H 655.244 3.18567 2.35226 0
M  V30 7204 H 656.418 4.6062 -0.128882 0
M  V30 7205 H 654.733 4.16379 0.0417526 0
M  V30 7206 H 657.33 4.55837 2.79493 0
M  V30 7207 H 657.673 2.86124 3.02388 0
M  V30 7208 H 658.206 3.67164 1.53087 0
M  V30 7209 H 654.945 6.52604 0.615441 0
M  V30 7210 H 654.465 5.62811 2.07375 0
M  V30 7211 H 656.144 6.19046 1.88126 0
M  V30 7212 N 656.276 -0.40816 1.52223 0
M  V30 7213 C 657.206 -1.5042 1.78595 0
M  V30 7214 C 658.187 -1.57723 0.636974 0
M  V30 7215 O 659.372 -1.72982 0.882664 0
M  V30 7216 C 656.502 -2.88232 1.93751 0
M  V30 7217 C 655.456 -2.95779 3.09352 0
M  V30 7218 C 654.782 -4.35855 3.09732 0
M  V30 7219 C 656.082 -2.67175 4.48793 0
M  V30 7220 H 657.776 -1.28601 2.70374 0
M  V30 7221 H 655.322 -0.617221 1.30101 0
M  V30 7222 H 657.275 -3.64895 2.10783 0
M  V30 7223 H 655.999 -3.11347 0.986443 0
M  V30 7224 H 654.658 -2.21561 2.92072 0
M  V30 7225 H 654.306 -4.55981 2.12346 0
M  V30 7226 H 654.006 -4.41829 3.87377 0
M  V30 7227 H 655.53 -5.14451 3.28895 0
M  V30 7228 H 656.944 -3.3356 4.66273 0
M  V30 7229 H 655.341 -2.84523 5.28362 0
M  V30 7230 H 656.411 -1.62609 4.56822 0
M  V30 7231 N 657.755 -1.42862 -0.66545 0
M  V30 7232 C 658.685 -1.49867 -1.79059 0
M  V30 7233 C 659.666 -0.354394 -1.66367 0
M  V30 7234 O 660.851 -0.569969 -1.85647 0
M  V30 7235 C 657.981 -1.40943 -3.17415 0
M  V30 7236 C 656.935 -2.53495 -3.44854 0
M  V30 7237 C 656.261 -2.29626 -4.82883 0
M  V30 7238 C 657.561 -3.95781 -3.40815 0
M  V30 7239 H 659.255 -2.44037 -1.73453 0
M  V30 7240 H 656.801 -1.17456 -0.833071 0
M  V30 7241 H 658.754 -1.4445 -3.95869 0
M  V30 7242 H 657.478 -0.432716 -3.23721 0
M  V30 7243 H 656.137 -2.4932 -2.68766 0
M  V30 7244 H 655.785 -1.30226 -4.8585 0
M  V30 7245 H 655.485 -3.05065 -5.02204 0
M  V30 7246 H 657.009 -2.34897 -5.63609 0
M  V30 7247 H 658.423 -4.01508 -4.09224 0
M  V30 7248 H 656.82 -4.71148 -3.71672 0
M  V30 7249 H 657.89 -4.21786 -2.39216 0
M  V30 7250 N 659.233 0.902656 -1.29189 0
M  V30 7251 C 660.163 2.02294 -1.16616 0
M  V30 7252 C 661.144 1.6999 -0.0611175 0
M  V30 7253 O 662.329 1.9271 -0.240072 0
M  V30 7254 C 659.459 3.37018 -0.83882 0
M  V30 7255 C 658.413 3.83522 -1.89986 0
M  V30 7256 C 657.739 5.15337 -1.42589 0
M  V30 7257 C 659.039 4.04169 -3.30824 0
M  V30 7258 H 660.733 2.13071 -2.10336 0
M  V30 7259 H 658.279 1.02378 -1.01266 0
M  V30 7260 H 660.232 4.14895 -0.737584 0
M  V30 7261 H 658.956 3.26325 0.134071 0
M  V30 7262 H 657.615 3.07859 -1.99043 0
M  V30 7263 H 657.263 5.01056 -0.441759 0
M  V30 7264 H 656.963 5.47423 -2.13547 0
M  V30 7265 H 658.487 5.95758 -1.3381 0
M  V30 7266 H 659.901 4.72537 -3.24626 0
M  V30 7267 H 658.298 4.47604 -3.99713 0
M  V30 7268 H 659.368 3.08604 -3.74021 0
M  V30 7269 N 660.711 1.11618 1.11262 0
M  V30 7270 C 661.936 0.889013 1.8738 0
M  V30 7271 C 662.361 -0.555884 1.79698 0
M  V30 7272 O 661.719 -1.39272 1.16073 0
M  V30 7273 C 661.767 1.35759 3.34069 0
M  V30 7274 O 660.871 0.530499 4.08974 0
M  V30 7275 H 660.212 0.320082 0.581759 0
M  V30 7276 H 662.742 1.48611 1.40627 0
M  V30 7277 H 662.752 1.35291 3.84916 0
M  V30 7278 H 661.427 2.40973 3.38976 0
M  V30 7279 H 660.004 0.601439 3.68018 0
M  V30 7280 N 662.189 -1.289 0.906776 0
M  V30 7281 C 663.119 -2.29932 0.406659 0
M  V30 7282 C 664.1 -1.6189 -0.522061 0
M  V30 7283 O 665.285 -1.8935 -0.431283 0
M  V30 7284 C 662.415 -3.45425 -0.360366 0
M  V30 7285 C 661.369 -4.25316 0.478574 0
M  V30 7286 C 660.695 -5.33076 -0.416373 0
M  V30 7287 C 661.995 -4.92739 1.7322 0
M  V30 7288 H 663.689 -2.72013 1.25097 0
M  V30 7289 H 661.235 -1.30768 0.602977 0
M  V30 7290 H 663.188 -4.15186 -0.721029 0
M  V30 7291 H 661.912 -3.02206 -1.23852 0
M  V30 7292 H 660.571 -3.57273 0.821662 0
M  V30 7293 H 660.219 -4.86101 -1.29287 0
M  V30 7294 H 659.919 -5.8743 0.141309 0
M  V30 7295 H 661.443 -6.05686 -0.773072 0
M  V30 7296 H 662.857 -5.54898 1.44086 0
M  V30 7297 H 661.254 -5.57057 2.23175 0
M  V30 7298 H 662.324 -4.17625 2.46408 0
M  V30 7299 N 663.667 -0.670007 -1.42649 0
M  V30 7300 C 664.615 0.0230106 -2.32589 0
M  V30 7301 C 665.609 0.795585 -1.49555 0
M  V30 7302 O 666.815 0.70409 -1.65658 0
M  V30 7303 H 663.19 0.0262342 -0.751542 0
M  V30 7304 H 665.161 -0.753009 -2.88743 0
M  V30 7305 C 663.91 0.963872 -3.34073 0
M  V30 7306 H 663.233 0.378813 -3.98001 0
M  V30 7307 H 664.673 1.41755 -3.99602 0
M  V30 7308 C 663.132 2.06797 -2.65964 0
M  V30 7309 O 663.662 3.15383 -2.48789 0
M  V30 7310 N 661.868 1.83831 -2.25066 0
M  V30 7311 H 661.415 0.955235 -2.39234 0
M  V30 7312 H 661.373 2.57895 -1.79827 0
M  V30 7313 N 665.145 1.52092 -0.413018 0
M  V30 7314 C 666.556 1.86617 0.0556967 0
M  V30 7315 C 666.907 1.33156 1.44097 0
M  V30 7316 O 666.032 0.672417 2.05688 0
M  V30 7317 C 666.627 3.38628 0.107844 0
M  V30 7318 C 665.186 3.72778 0.520904 0
M  V30 7319 C 664.333 2.75649 -0.302109 0
M  V30 7320 H 667.284 1.45663 -0.629919 0
M  V30 7321 H 667.305 3.69152 0.922324 0
M  V30 7322 H 666.817 3.77508 -0.900506 0
M  V30 7323 H 664.918 3.39478 1.53575 0
M  V30 7324 H 665.031 4.7838 0.262591 0
M  V30 7325 H 663.395 2.53603 0.236115 0
M  V30 7326 H 664.178 3.17369 -1.30888 0
M  V30 7327 N 666.623 0.143563 1.56945 0
M  V30 7328 C 667.9 -0.553285 1.87612 0
M  V30 7329 C 668.28 -1.83195 1.04894 0
M  V30 7330 O 667.628 -2.28102 0.134773 0
M  V30 7331 C 667.838 -0.822055 3.3918 0
M  V30 7332 C 669.186 -1.16435 4.08324 0
M  V30 7333 O 670.21 -0.911522 3.4434 0
M  V30 7334 O 669.069 -1.63996 5.21313 0
M  V30 7335 H 666.163 -0.281851 0.777489 0
M  V30 7336 H 668.709 0.179916 1.68744 0
M  V30 7337 H 667.481 0.0830265 3.91212 0
M  V30 7338 H 667.104 -1.60956 3.63564 0
M  V30 7339 N 668.101 -1.57061 -0.130224 0
M  V30 7340 C 669.35 -1.83446 -0.838488 0
M  V30 7341 C 669.663 -0.727468 -1.81569 0
M  V30 7342 O 670.869 -0.877394 -2.56932 0
M  V30 7343 C 669.325 -3.25201 -1.54182 0
M  V30 7344 C 668.933 -4.4388 -0.606178 0
M  V30 7345 C 670.677 -3.60844 -2.23588 0
M  V30 7346 C 668.584 -5.76661 -1.31209 0
M  V30 7347 H 667.514 -0.684185 -0.316871 0
M  V30 7348 H 670.165 -1.83273 -0.0912059 0
M  V30 7349 H 668.547 -3.1981 -2.33533 0
M  V30 7350 H 669.721 -4.60545 0.153308 0
M  V30 7351 H 668.036 -4.16395 -0.0196705 0
M  V30 7352 H 670.633 -4.57313 -2.77072 0
M  V30 7353 H 670.976 -2.87724 -3.00867 0
M  V30 7354 H 671.509 -3.67971 -1.51137 0
M  V30 7355 H 668.248 -6.52922 -0.580823 0
M  V30 7356 H 667.768 -5.63902 -2.04387 0
M  V30 7357 H 669.447 -6.20035 -1.8484 0
M  V30 7358 N 669.579 0.400081 -1.52437 0
M  V30 7359 C 670.828 1.14332 -1.66166 0
M  V30 7360 C 671.141 1.91419 -0.402253 0
M  V30 7361 O 672.347 2.6824 -0.419487 0
M  V30 7362 C 670.803 2.08137 -2.9361 0
M  V30 7363 C 670.411 1.36524 -4.26691 0
M  V30 7364 C 672.155 2.82664 -3.16703 0
M  V30 7365 C 670.062 2.29031 -5.45251 0
M  V30 7366 H 668.992 0.430499 -0.61902 0
M  V30 7367 H 671.643 0.407017 -1.78929 0
M  V30 7368 H 670.025 2.85358 -2.74567 0
M  V30 7369 H 671.199 0.646061 -4.56249 0
M  V30 7370 H 669.514 0.74002 -4.09771 0
M  V30 7371 H 672.111 3.52037 -4.0246 0
M  V30 7372 H 672.454 3.46122 -2.31312 0
M  V30 7373 H 672.987 2.12541 -3.36261 0
M  V30 7374 H 669.726 1.70206 -6.33017 0
M  V30 7375 H 669.246 2.98896 -5.2002 0
M  V30 7376 H 670.925 2.89359 -5.78689 0
M  V30 7377 N 671.057 1.43213 0.657864 0
M  V30 7378 C 672.285 1.48015 1.44566 0
M  V30 7379 C 672.7 0.0965951 1.88553 0
M  V30 7380 O 672.057 -0.892221 1.59203 0
M  V30 7381 C 672.108 2.42199 2.68369 0
M  V30 7382 O 671.829 3.75173 2.26223 0
M  V30 7383 C 673.33 2.56195 3.61772 0
M  V30 7384 H 670.55 0.502861 0.444266 0
M  V30 7385 H 673.094 1.87907 0.806917 0
M  V30 7386 H 671.249 2.05514 3.28394 0
M  V30 7387 H 671.663 4.25776 3.06293 0
M  V30 7388 H 673.137 3.26182 4.4532 0
M  V30 7389 H 673.614 1.60534 4.0881 0
M  V30 7390 H 674.22 2.93671 3.07632 0
M  V30 7391 N 672.536 -0.895792 1.29666 0
M  V30 7392 C 673.784 -1.64339 1.17631 0
M  V30 7393 C 674.105 -1.93099 -0.271643 0
M  V30 7394 O 673.375 -1.55981 -1.18518 0
M  V30 7395 H 671.955 -0.609162 0.432354 0
M  V30 7396 H 674.617 -1.07389 1.62646 0
M  V30 7397 H 673.713 -2.59815 1.72924 0
M  V30 7398 N 674.014 -1.12206 -1.10668 0
M  V30 7399 C 675.261 -0.875875 -1.82578 0
M  V30 7400 C 675.589 0.598342 -1.85068 0
M  V30 7401 O 674.844 1.45818 -1.3052 0
M  V30 7402 C 675.143 -1.39276 -3.29146 0
M  V30 7403 C 674.809 -2.8816 -3.46806 0
M  V30 7404 C 673.471 -3.28813 -3.51334 0
M  V30 7405 C 675.823 -3.8401 -3.52399 0
M  V30 7406 C 673.151 -4.64028 -3.59019 0
M  V30 7407 C 675.503 -5.19053 -3.61617 0
M  V30 7408 C 674.167 -5.59252 -3.64408 0
M  V30 7409 H 673.437 -0.320505 -0.6681 0
M  V30 7410 H 676.084 -1.40184 -1.30464 0
M  V30 7411 H 674.389 -0.787207 -3.8381 0
M  V30 7412 H 676.086 -1.17851 -3.83291 0
M  V30 7413 H 672.676 -2.55716 -3.43958 0
M  V30 7414 H 676.86 -3.53698 -3.48154 0
M  V30 7415 H 672.116 -4.94568 -3.59461 0
M  V30 7416 H 676.29 -5.93152 -3.64889 0
M  V30 7417 H 673.917 -6.64017 -3.70116 0
M  V30 7418 N 675.492 1.28418 -0.913599 0
M  V30 7419 C 676.717 1.99643 -0.561899 0
M  V30 7420 C 677.142 1.67819 0.849608 0
M  V30 7421 O 676.5 0.910503 1.56779 0
M  V30 7422 C 676.548 3.52116 -0.777622 0
M  V30 7423 O 675.652 4.12076 0.163457 0
M  V30 7424 H 674.993 0.627229 -0.217898 0
M  V30 7425 H 677.523 1.63575 -1.229 0
M  V30 7426 H 677.533 4.02163 -0.687666 0
M  V30 7427 H 676.208 3.74613 -1.8066 0
M  V30 7428 H 674.785 3.72892 0.0247827 0
M  V30 7429 N 676.97 0.677563 1.42291 0
M  V30 7430 C 678.195 0.207901 2.06355 0
M  V30 7431 C 678.62 -1.12723 1.50583 0
M  V30 7432 O 677.978 -1.70171 0.62543 0
M  V30 7433 C 678.026 0.156489 3.6026 0
M  V30 7434 O 677.13 -0.874162 4.03029 0
M  V30 7435 H 676.471 0.106056 0.655475 0
M  V30 7436 H 679.001 0.927354 1.82377 0
M  V30 7437 H 679.011 -0.0187258 4.07996 0
M  V30 7438 H 677.686 1.13101 4.00226 0
M  V30 7439 H 676.263 -0.669764 3.66836 0
M  V30 7440 O 678.487 -1.51362 0.563185 0
M  V30 7441 H 679.178 -1.936 0.0623735 0
M  V30 END ATOM
M  V30 BEGIN BOND
M  V30 END BOND
M  V30 END CTAB
M  END
$$$$
