drugbank_target|P0AAI5 3-oxoacyl-[acyl-carrier-protein] synthase 2 (DB01034; DB03017; DB08366; DB08407)
 OpenBabel12092119403D

  0  0  0     0  0            999 V3000
M  V30 BEGIN CTAB
M  V30 COUNTS 6006 6058 0 0 0
M  V30 BEGIN ATOM
M  V30 1 H -0.908 1.98254 -0.117106 0
M  V30 2 N 0 1.576 0 0
M  V30 3 C 0.933 2.03868 1.02534 0
M  V30 4 C 1.911 0.928543 1.3348 0
M  V30 5 O 3.095 1.19667 1.45644 0
M  V30 6 C 0.222 2.43627 2.35294 0
M  V30 7 C -0.732 3.65373 2.2001 0
M  V30 8 S 0.101 5.13292 1.52614 0
M  V30 9 C 1.257 5.56322 2.86805 0
M  V30 10 H 1.49 2.90518 0.631377 0
M  V30 11 H -0.977 1.52953 0.210867 0
M  V30 12 H 0.981 2.67203 3.11629 0
M  V30 13 H -0.358 1.57376 2.7183 0
M  V30 14 H -1.165 3.90944 3.18086 0
M  V30 15 H -1.563 3.418 1.51819 0
M  V30 16 H 0.729 5.58782 3.83104 0
M  V30 17 H 1.672 6.56266 2.65933 0
M  V30 18 H 2.08 4.83886 2.90714 0
M  V30 19 N 1.4781 -0.272755 1.55222 0
M  V30 20 C 2.7031 -1.02683 1.80197 0
M  V30 21 C 3.1281 -1.79142 0.573551 0
M  V30 22 O 2.4861 -1.74917 -0.476849 0
M  V30 23 C 2.5341 -1.9609 3.02624 0
M  V30 24 O 1.6381 -3.04863 2.77727 0
M  V30 25 H 0.9791 -0.293557 0.595584 0
M  V30 26 H 3.5091 -0.30159 2.02365 0
M  V30 27 H 3.5191 -2.38039 3.31363 0
M  V30 28 H 2.1941 -1.39851 3.91682 0
M  V30 29 H 0.7711 -2.67228 2.60084 0
M  V30 30 N 2.9562 -1.48159 -0.537278 0
M  V30 31 C 3.9032 -1.62138 -1.64256 0
M  V30 32 C 4.8732 -0.463668 -1.59497 0
M  V30 33 O 6.0582 -0.686241 -1.78032 0
M  V30 34 C 3.1982 -1.66028 -3.02537 0
M  V30 35 C 2.3112 -2.92855 -3.17585 0
M  V30 36 C 1.4462 -2.87952 -4.46382 0
M  V30 37 C 0.4852 -4.09516 -4.54932 0
M  V30 38 N -0.3778 -4.02733 -5.75109 0
M  V30 39 H 4.4622 -2.56529 -1.51647 0
M  V30 40 H 1.9992 -1.27224 -0.738414 0
M  V30 41 H 3.9572 -1.66265 -3.82638 0
M  V30 42 H 2.5872 -0.751331 -3.13934 0
M  V30 43 H 1.6392 -3.02395 -2.30784 0
M  V30 44 H 2.9512 -3.82822 -3.19764 0
M  V30 45 H 2.1052 -2.8655 -5.34765 0
M  V30 46 H 0.8442 -1.95702 -4.46712 0
M  V30 47 H -0.1508 -4.11201 -3.64957 0
M  V30 48 H 1.0742 -5.02917 -4.56346 0
M  V30 49 H -0.9798 -3.13299 -5.76351 0
M  V30 50 H -1.0628 -4.86397 -5.78752 0
M  V30 51 H 0.2052 -4.05379 -6.65799 0
M  V30 52 N 4.4343 0.785586 -1.36625 0
M  V30 53 C 5.8503 1.08419 -1.17122 0
M  V30 54 C 6.0503 2.015 0.00208491 0
M  V30 55 O 5.1063 2.43551 0.666278 0
M  V30 56 C 6.4193 1.69498 -2.48377 0
M  V30 57 C 7.9673 1.81821 -2.54775 0
M  V30 58 C 8.4423 2.46315 -3.86126 0
M  V30 59 N 9.9333 2.53779 -3.87492 0
M  V30 60 C 10.6683 3.045 -4.85868 0
M  V30 61 N 10.1643 3.55499 -5.94637 0
M  V30 62 N 11.9573 3.03247 -4.73284 0
M  V30 63 H 4.1083 0.167264 -2.1174 0
M  V30 64 H 6.3713 0.13682 -0.938075 0
M  V30 65 H 6.0773 1.08571 -3.34522 0
M  V30 66 H 5.9513 2.6896 -2.64462 0
M  V30 67 H 8.3383 2.41884 -1.69045 0
M  V30 68 H 8.4193 0.811532 -2.42586 0
M  V30 69 H 8.0633 1.86895 -4.72263 0
M  V30 70 H 7.9933 3.47561 -3.95612 0
M  V30 71 H 10.4843 2.17672 -3.08913 0
M  V30 72 H 10.7973 3.92562 -6.65669 0
M  V30 73 H 9.1423 3.5364 -5.98301 0
M  V30 74 H 12.3333 2.62696 -3.87438 0
M  V30 75 H 12.5063 3.42467 -5.50109 0
M  V30 76 N 5.9124 1.20967 1.01018 0
M  V30 77 C 7.3284 0.965905 1.27053 0
M  V30 78 C 7.5284 -0.350785 1.98423 0
M  V30 79 O 6.5844 -1.07773 2.28344 0
M  V30 80 C 7.8974 2.15294 2.09926 0
M  V30 81 C 9.4454 2.19463 2.23171 0
M  V30 82 C 9.9204 3.3767 3.09424 0
M  V30 83 N 11.4114 3.37724 3.17012 0
M  V30 84 C 12.1464 4.25837 3.83993 0
M  V30 85 N 11.6424 5.24138 4.53047 0
M  V30 86 N 13.4354 4.1366 3.80581 0
M  V30 87 H 5.5864 2.0565 0.531194 0
M  V30 88 H 7.8494 0.90024 0.297106 0
M  V30 89 H 7.5554 3.10684 1.64828 0
M  V30 90 H 7.4294 2.13923 3.10672 0
M  V30 91 H 9.8164 1.24632 2.6749 0
M  V30 92 H 9.8974 2.2488 1.21912 0
M  V30 93 H 9.5414 4.32791 2.65808 0
M  V30 94 H 9.4714 3.29491 4.10784 0
M  V30 95 H 11.9624 2.6658 2.6785 0
M  V30 96 H 12.2754 5.87684 5.01844 0
M  V30 97 H 10.6204 5.28068 4.5185 0
M  V30 98 H 13.8114 3.36127 3.25785 0
M  V30 99 H 13.9844 4.82538 4.32505 0
M  V30 100 N 7.3905 -1.2043 1.01659 0
M  V30 101 C 8.6365 -1.90079 0.706963 0
M  V30 102 C 8.9695 -1.78648 -0.761474 0
M  V30 103 O 8.2445 -1.17069 -1.55323 0
M  V30 104 C 8.5275 -3.41469 1.14327 0
M  V30 105 C 8.3805 -3.61833 2.67201 0
M  V30 106 C 9.6995 -4.34261 0.714529 0
M  V30 107 H 6.8185 -0.690254 0.2583 0
M  V30 108 H 9.4605 -1.41826 1.26433 0
M  V30 109 H 7.6105 -3.82696 0.669056 0
M  V30 110 H 9.2825 -3.2986 3.22475 0
M  V30 111 H 7.5255 -3.05304 3.08175 0
M  V30 112 H 8.1965 -4.67955 2.92783 0
M  V30 113 H 10.6725 -4.00682 1.12221 0
M  V30 114 H 9.5485 -5.38806 1.04784 0
M  V30 115 H 9.8095 -4.40431 -0.383799 0
M  V30 116 N 8.8686 -0.792821 -1.36206 0
M  V30 117 C 10.1146 -0.36733 -1.99446 0
M  V30 118 C 10.4476 1.05917 -1.62774 0
M  V30 119 O 9.7226 1.7324 -0.88421 0
M  V30 120 C 10.0056 -0.535044 -3.56103 0
M  V30 121 C 9.8586 -2.00548 -4.02617 0
M  V30 122 C 11.1776 0.0478191 -4.40074 0
M  V30 123 H 8.2966 -0.134941 -0.724541 0
M  V30 124 H 10.9386 -0.999794 -1.61568 0
M  V30 125 H 9.0886 0.00336329 -3.885 0
M  V30 126 H 10.7606 -2.60521 -3.80692 0
M  V30 127 H 9.0036 -2.50686 -3.54032 0
M  V30 128 H 9.6746 -2.07377 -5.11565 0
M  V30 129 H 12.1506 -0.411822 -4.14057 0
M  V30 130 H 11.0266 -0.0995336 -5.4881 0
M  V30 131 H 11.2876 1.14025 -4.27142 0
M  V30 132 N 10.3467 1.47872 -0.545128 0
M  V30 133 C 11.5927 2.02793 -0.0166104 0
M  V30 134 C 11.9257 1.41987 1.32489 0
M  V30 135 O 11.2007 0.571045 1.85928 0
M  V30 136 C 11.4837 3.59989 0.0893294 0
M  V30 137 C 11.3367 4.3125 -1.27841 0
M  V30 138 C 12.6557 4.32606 0.808724 0
M  V30 139 H 9.7747 0.736962 -0.00751035 0
M  V30 140 H 12.4167 1.76433 -0.705085 0
M  V30 141 H 10.5667 3.82579 0.675681 0
M  V30 142 H 12.2387 4.20035 -1.90704 0
M  V30 143 H 10.4817 3.92076 -1.85632 0
M  V30 144 H 11.1527 5.39736 -1.15713 0
M  V30 145 H 13.6287 4.14936 0.310992 0
M  V30 146 H 12.5047 5.42251 0.851782 0
M  V30 147 H 12.7657 4.00963 1.86229 0
M  V30 148 N 11.8248 0.280983 1.55075 0
M  V30 149 C 13.0528 -0.337293 2.04132 0
M  V30 150 C 13.4678 -1.4903 1.15912 0
M  V30 151 O 12.8248 -1.81606 0.180459 0
M  V30 152 C 12.8758 -0.812706 3.52246 0
M  V30 153 O 12.5968 0.294387 4.3711 0
M  V30 154 C 14.0978 -1.4982 4.17216 0
M  V30 155 H 11.3178 -0.0761638 0.666663 0
M  V30 156 H 13.8618 0.414787 2.00249 0
M  V30 157 H 12.0168 -1.51486 3.56554 0
M  V30 158 H 12.4308 -0.0721325 5.2445 0
M  V30 159 H 13.9048 -1.7822 5.22438 0
M  V30 160 H 14.3818 -2.43168 3.65741 0
M  V30 161 H 14.9878 -0.839742 4.16927 0
M  V30 162 N 13.3029 -1.57598 0.00835791 0
M  V30 163 C 14.5509 -1.90551 -0.6734 0
M  V30 164 C 14.8719 -0.883301 -1.73847 0
M  V30 165 O 14.1419 0.0781442 -1.95744 0
M  V30 166 H 12.7219 -0.703312 -0.251717 0
M  V30 167 H 15.3839 -1.94833 0.0512592 0
M  V30 168 H 14.4799 -2.9056 -1.13935 0
M  V30 169 N 14.781 0.264519 -1.55364 0
M  V30 170 C 15.711 1.33121 -1.91836 0
M  V30 171 C 16.692 1.51101 -0.781192 0
M  V30 172 O 17.877 1.64003 -1.04003 0
M  V30 173 C 15.007 2.68921 -2.19769 0
M  V30 174 C 13.961 2.65661 -3.35571 0
M  V30 175 C 13.287 4.05093 -3.49004 0
M  V30 176 C 14.587 2.24187 -4.71739 0
M  V30 177 H 16.281 1.02844 -2.81182 0
M  V30 178 H 13.827 0.493286 -1.35287 0
M  V30 179 H 15.78 3.43663 -2.43872 0
M  V30 180 H 14.504 3.00799 -1.27231 0
M  V30 181 H 13.163 1.93377 -3.1145 0
M  V30 182 H 12.811 4.34206 -2.53917 0
M  V30 183 H 12.511 4.03804 -4.26868 0
M  V30 184 H 14.035 4.81561 -3.75408 0
M  V30 185 H 15.449 2.88654 -4.9533 0
M  V30 186 H 13.846 2.34044 -5.52579 0
M  V30 187 H 14.916 1.19327 -4.69988 0
M  V30 188 N 16.2591 1.48442 0.529413 0
M  V30 189 C 17.5071 1.56179 1.28267 0
M  V30 190 C 17.8281 0.237721 1.93546 0
M  V30 191 O 17.0981 -0.740779 1.81354 0
M  V30 192 H 15.6781 0.575367 0.476405 0
M  V30 193 H 18.3401 1.84909 0.61602 0
M  V30 194 H 17.4361 2.34312 2.06165 0
M  V30 195 N 17.7372 -0.778329 1.37039 0
M  V30 196 C 18.6702 -1.8984 1.26633 0
M  V30 197 C 19.6482 -1.61923 0.148197 0
M  V30 198 O 20.8322 -1.85742 0.321265 0
M  V30 199 C 17.9592 -3.24916 0.956403 0
M  V30 200 C 17.0052 -3.71752 2.09051 0
M  V30 201 S 17.8382 -3.86201 3.70957 0
M  V30 202 C 18.9942 -5.24135 3.42101 0
M  V30 203 H 19.2272 -1.98377 2.21436 0
M  V30 204 H 16.7602 -0.938738 1.22585 0
M  V30 205 H 18.7182 -4.02936 0.784409 0
M  V30 206 H 17.3792 -3.14089 0.0259713 0
M  V30 207 H 16.5722 -4.69661 1.8285 0
M  V30 208 H 16.1742 -3.00815 2.2223 0
M  V30 209 H 18.4662 -6.09086 2.96682 0
M  V30 210 H 19.4092 -5.55346 4.39314 0
M  V30 211 H 19.8172 -4.91761 2.77185 0
M  V30 212 N 19.2153 -1.21501 -1.00376 0
M  V30 213 C 20.1453 -0.999478 -2.11028 0
M  V30 214 C 21.1263 0.0759671 -1.6993 0
M  V30 215 O 22.3113 -0.0841106 -1.94018 0
M  V30 216 C 19.4413 -0.564709 -3.42678 0
M  V30 217 C 18.3953 -1.58486 -3.97576 0
M  V30 218 C 17.7213 -1.00628 -5.25146 0
M  V30 219 C 19.0213 -2.97204 -4.29496 0
M  V30 220 H 20.7153 -1.92495 -2.29317 0
M  V30 221 H 18.2613 -0.92693 -1.102 0
M  V30 222 H 20.2143 -0.401091 -4.19487 0
M  V30 223 H 18.9383 0.396411 -3.24185 0
M  V30 224 H 17.5973 -1.73606 -3.22888 0
M  V30 225 H 17.2453 -0.0368439 -5.02987 0
M  V30 226 H 16.9453 -1.68771 -5.62841 0
M  V30 227 H 18.4693 -0.854015 -6.04598 0
M  V30 228 H 19.8833 -2.8552 -4.97143 0
M  V30 229 H 18.2803 -3.62372 -4.78338 0
M  V30 230 H 19.3503 -3.47956 -3.3772 0
M  V30 231 N 20.6934 1.19889 -1.02296 0
M  V30 232 C 21.9184 1.9393 -0.735237 0
M  V30 233 C 22.3434 1.74639 0.698782 0
M  V30 234 O 21.7014 1.04481 1.48167 0
M  V30 235 C 21.7494 3.43916 -1.08417 0
M  V30 236 O 20.8534 4.11917 -0.199446 0
M  V30 237 H 20.1944 0.605645 -0.272196 0
M  V30 238 H 22.7244 1.52137 -1.36804 0
M  V30 239 H 22.7344 3.9456 -1.03856 0
M  V30 240 H 21.4094 3.5728 -2.12894 0
M  V30 241 H 19.9864 3.71666 -0.303136 0
M  V30 242 N 22.1715 0.800033 1.35784 0
M  V30 243 C 23.5825 0.439142 1.81462 0
M  V30 244 C 23.9335 -1.03813 1.66485 0
M  V30 245 O 23.0585 -1.80626 1.19177 0
M  V30 246 C 23.6535 0.790314 3.29453 0
M  V30 247 C 22.2125 0.482111 3.733 0
M  V30 248 C 21.3595 1.01938 2.57883 0
M  V30 249 H 24.3105 0.992254 1.23855 0
M  V30 250 H 24.3315 0.0853677 3.80404 0
M  V30 251 H 23.8435 1.86554 3.40322 0
M  V30 252 H 21.9445 -0.584652 3.67984 0
M  V30 253 H 22.0575 1.01015 4.6833 0
M  V30 254 H 20.4215 0.442043 2.50835 0
M  V30 255 H 21.2045 2.10059 2.71533 0
M  V30 256 N 23.6496 -1.47581 0.552962 0
M  V30 257 C 24.8956 -2.02782 0.0273648 0
M  V30 258 C 25.2286 -1.42687 -1.31734 0
M  V30 259 O 24.5036 -0.580897 -1.85623 0
M  V30 260 C 24.7866 -3.60031 -0.0702371 0
M  V30 261 C 24.6396 -4.30566 1.30126 0
M  V30 262 C 25.9586 -4.33028 -0.785771 0
M  V30 263 H 23.0776 -0.736912 0.0114185 0
M  V30 264 H 25.7196 -1.76056 0.714432 0
M  V30 265 H 23.8696 -3.82932 -0.655382 0
M  V30 266 H 25.5416 -4.19018 1.92929 0
M  V30 267 H 23.7846 -3.91086 1.87709 0
M  V30 268 H 24.4556 -5.39114 1.18573 0
M  V30 269 H 26.9316 -4.15095 -0.288982 0
M  V30 270 H 25.8076 -5.42695 -0.823013 0
M  V30 271 H 26.0686 -4.01945 -1.841 0
M  V30 272 N 25.1277 -0.289203 -1.54924 0
M  V30 273 C 26.3757 0.322879 -1.99504 0
M  V30 274 C 26.6967 1.55313 -1.1791 0
M  V30 275 O 25.9667 1.94001 -0.272097 0
M  V30 276 H 24.5467 0.122291 -0.736922 0
M  V30 277 H 27.2087 -0.397802 -1.90797 0
M  V30 278 H 26.3047 0.603061 -3.06218 0
M  V30 279 N 26.6058 1.57591 -0.0167156 0
M  V30 280 C 27.5538 2.10604 0.987353 0
M  V30 281 C 28.5478 1.02977 1.34507 0
M  V30 282 O 29.7538 1.21425 1.32875 0
M  V30 283 H 26.1288 0.672695 0.336134 0
M  V30 284 H 28.0998 2.93925 0.514817 0
M  V30 285 C 26.8488 2.6382 2.26483 0
M  V30 286 H 26.1718 3.46278 1.99829 0
M  V30 287 H 27.6118 3.04573 2.94977 0
M  V30 288 C 26.0708 1.55992 2.9861 0
M  V30 289 O 26.6008 0.952521 3.90243 0
M  V30 290 N 24.8068 1.28335 2.60727 0
M  V30 291 H 24.3538 1.77914 1.86291 0
M  V30 292 H 24.3118 0.564115 3.09298 0
M  V30 293 N 28.0839 -0.256276 1.55502 0
M  V30 294 C 29.3119 -1.00342 1.8094 0
M  V30 295 C 29.7269 -1.79307 0.59114 0
M  V30 296 O 29.0839 -1.77114 -0.440081 0
M  V30 297 C 29.1349 -1.94875 3.04476 0
M  V30 298 O 28.8559 -1.19107 4.21598 0
M  V30 299 C 30.3569 -2.81266 3.42644 0
M  V30 300 H 27.5769 -0.295685 0.602338 0
M  V30 301 H 30.1209 -0.281998 2.02546 0
M  V30 302 H 28.2759 -2.62457 2.84947 0
M  V30 303 H 28.6899 -1.82969 4.91551 0
M  V30 304 H 30.1639 -3.43362 4.32211 0
M  V30 305 H 30.6409 -3.51897 2.62802 0
M  V30 306 H 31.2469 -2.1915 3.64491 0
M  V30 307 N 29.562 -1.4872 -0.521534 0
M  V30 308 C 30.808 -1.574 -1.27879 0
M  V30 309 C 31.141 -0.250817 -1.92573 0
M  V30 310 O 30.416 0.743934 -1.79711 0
M  V30 311 C 30.699 -2.71843 -2.36164 0
M  V30 312 C 30.552 -4.13893 -1.76105 0
M  V30 313 C 31.871 -2.82008 -3.37875 0
M  V30 314 H 28.99 -0.572941 -0.463581 0
M  V30 315 H 31.632 -1.80927 -0.580119 0
M  V30 316 H 29.782 -2.51914 -2.95756 0
M  V30 317 H 31.454 -4.45284 -1.20499 0
M  V30 318 H 29.697 -4.20498 -1.06601 0
M  V30 319 H 30.368 -4.89804 -2.5455 0
M  V30 320 H 32.844 -3.00086 -2.88249 0
M  V30 321 H 31.72 -3.63796 -4.11028 0
M  V30 322 H 31.981 -1.90511 -3.98946 0
M  V30 323 N 31.0401 0.771051 -1.3745 0
M  V30 324 C 31.9501 1.91538 -1.35464 0
M  V30 325 C 32.9661 1.72134 -0.254123 0
M  V30 326 O 34.1421 1.95358 -0.489626 0
M  V30 327 C 31.2071 3.26671 -1.16134 0
M  V30 328 C 30.2681 3.58723 -2.35831 0
M  V30 329 C 29.5011 4.87409 -2.17413 0
M  V30 330 O 29.7241 5.58506 -1.15876 0
M  V30 331 O 28.6581 5.18539 -3.05615 0
M  V30 332 H 32.4841 1.96165 -2.31847 0
M  V30 333 H 30.0691 0.9139 -1.18187 0
M  V30 334 H 31.9511 4.07499 -1.07345 0
M  V30 335 H 30.6261 3.22894 -0.228251 0
M  V30 336 H 29.5331 2.78127 -2.50192 0
M  V30 337 H 30.8661 3.67243 -3.27709 0
M  V30 338 N 32.5182 1.22032 0.997298 0
M  V30 339 C 33.7432 1.06921 1.77715 0
M  V30 340 C 34.1682 -0.376226 1.84299 0
M  V30 341 O 33.5262 -1.27165 1.29223 0
M  V30 342 C 33.5742 1.67996 3.19076 0
M  V30 343 O 32.6782 0.930653 4.01762 0
M  V30 344 H 32.0192 0.375814 0.547412 0
M  V30 345 H 34.5492 1.61737 1.25309 0
M  V30 346 H 34.5592 1.72538 3.69723 0
M  V30 347 H 33.2342 2.73182 3.13599 0
M  V30 348 H 31.8112 0.960917 3.60307 0
M  V30 349 N 33.9963 -1.19345 1.0293 0
M  V30 350 C 35.2243 -1.92997 0.745644 0
M  V30 351 C 35.6393 -1.75519 -0.695589 0
M  V30 352 O 34.9963 -1.07737 -1.47306 0
M  V30 353 C 35.0473 -3.44741 1.08792 0
M  V30 354 O 34.7683 -3.61658 2.47256 0
M  V30 355 C 36.2693 -4.35515 0.827129 0
M  V30 356 H 33.4893 -0.613042 0.272801 0
M  V30 357 H 36.0333 -1.51473 1.3739 0
M  V30 358 H 34.1883 -3.84097 0.504832 0
M  V30 359 H 34.6023 -4.55514 2.60015 0
M  V30 360 H 36.0763 -5.40589 1.11658 0
M  V30 361 H 36.5533 -4.38552 -0.238436 0
M  V30 362 H 37.1593 -4.01841 1.39297 0
M  V30 363 N 35.4744 -0.807222 -1.35358 0
M  V30 364 C 36.7204 -0.397594 -1.99476 0
M  V30 365 C 37.0754 1.02405 -1.62883 0
M  V30 366 O 36.3684 1.70077 -0.882282 0
M  V30 367 C 36.5624 -0.519036 -3.53611 0
M  V30 368 C 36.3914 -1.95094 -4.05177 0
M  V30 369 C 35.1614 -2.57945 -4.34503 0
M  V30 370 C 37.3594 -2.91558 -4.23673 0
M  V30 371 N 35.3414 -3.92539 -4.72003 0
M  V30 372 C 36.7124 -4.11024 -4.64176 0
M  V30 373 C 38.7674 -2.88381 -4.05883 0
M  V30 374 C 37.4704 -5.27745 -4.88751 0
M  V30 375 C 39.4964 -4.04306 -4.31614 0
M  V30 376 C 38.8584 -5.22519 -4.72391 0
M  V30 377 H 34.9574 -0.193274 -0.75774 0
M  V30 378 H 37.5414 -1.0486 -1.6405 0
M  V30 379 H 35.7124 0.101979 -3.88266 0
M  V30 380 H 37.4444 -0.0839321 -4.04613 0
M  V30 381 H 34.1994 -2.09295 -4.24844 0
M  V30 382 H 34.6234 -4.61836 -4.95011 0
M  V30 383 H 39.2654 -1.98137 -3.73499 0
M  V30 384 H 36.9834 -6.1856 -5.20008 0
M  V30 385 H 40.5694 -4.03229 -4.19402 0
M  V30 386 H 39.4494 -6.1073 -4.91913 0
M  V30 387 N 36.9525 1.47285 -0.560781 0
M  V30 388 C 37.8995 2.30058 0.18491 0
M  V30 389 C 38.8695 1.39281 0.904986 0
M  V30 390 O 40.0545 1.68241 0.899979 0
M  V30 391 C 37.1945 3.23317 1.20666 0
M  V30 392 C 36.3075 4.29186 0.492285 0
M  V30 393 C 35.4425 5.09592 1.49964 0
M  V30 394 C 34.4815 6.07232 0.770439 0
M  V30 395 N 33.6185 6.80584 1.72479 0
M  V30 396 H 38.4585 2.93302 -0.527048 0
M  V30 397 H 35.9955 1.44568 -0.271738 0
M  V30 398 H 37.9535 3.75811 1.81168 0
M  V30 399 H 36.5835 2.61929 1.88661 0
M  V30 400 H 35.6355 3.7972 -0.227333 0
M  V30 401 H 36.9475 4.98738 -0.0787929 0
M  V30 402 H 36.1015 5.66254 2.17809 0
M  V30 403 H 34.8405 4.3995 2.10464 0
M  V30 404 H 33.8455 5.49745 0.0780846 0
M  V30 405 H 35.0705 6.78884 0.171134 0
M  V30 406 H 33.0165 6.1367 2.3183 0
M  V30 407 H 32.9335 7.46319 1.20596 0
M  V30 408 H 34.2015 7.41818 2.39428 0
M  V30 409 N 38.4306 0.297415 1.54768 0
M  V30 410 C 39.3936 -0.567375 2.22066 0
M  V30 411 C 40.3936 -1.06409 1.20556 0
M  V30 412 O 41.5836 -0.960691 1.45315 0
M  V30 413 C 38.7156 -1.78517 2.90421 0
M  V30 414 H 39.9086 0.0205534 2.99893 0
M  V30 415 H 37.4616 0.0482163 1.56226 0
M  V30 416 H 38.1966 -2.41303 2.16664 0
M  V30 417 H 37.9816 -1.43669 3.64831 0
M  V30 418 H 39.4716 -2.39964 3.41771 0
M  V30 419 N 39.9087 -1.5758 0.0250728 0
M  V30 420 C 40.8387 -2.13007 -0.956575 0
M  V30 421 C 41.8197 -1.0452 -1.342 0
M  V30 422 O 43.0047 -1.32332 -1.42133 0
M  V30 423 C 40.1347 -2.65386 -2.24026 0
M  V30 424 C 39.0887 -3.78623 -1.99571 0
M  V30 425 C 38.4147 -4.17414 -3.3417 0
M  V30 426 C 39.7147 -5.04867 -1.33814 0
M  V30 427 H 41.4087 -2.9528 -0.494991 0
M  V30 428 H 38.9547 -1.42042 -0.236651 0
M  V30 429 H 40.9077 -3.02794 -2.93076 0
M  V30 430 H 39.6317 -1.80268 -2.72343 0
M  V30 431 H 38.2907 -3.41646 -1.32941 0
M  V30 432 H 37.9387 -3.29284 -3.80238 0
M  V30 433 H 37.6387 -4.93719 -3.18615 0
M  V30 434 H 39.1627 -4.57402 -4.04495 0
M  V30 435 H 40.5767 -5.39888 -1.92857 0
M  V30 436 H 38.9737 -5.86144 -1.28669 0
M  V30 437 H 40.0437 -4.83904 -0.310561 0
M  V30 438 N 41.3868 0.248026 -1.55636 0
M  V30 439 C 42.3168 1.31079 -1.93237 0
M  V30 440 C 43.2978 1.50264 -0.797174 0
M  V30 441 O 44.4828 1.62891 -1.05737 0
M  V30 442 C 41.6128 2.66575 -2.22609 0
M  V30 443 C 40.5668 2.62087 -3.3837 0
M  V30 444 C 39.8928 4.01369 -3.53281 0
M  V30 445 C 41.1928 2.19171 -4.7409 0
M  V30 446 H 42.8868 0.998556 -2.82257 0
M  V30 447 H 40.4328 0.47891 -1.35803 0
M  V30 448 H 42.3858 3.41057 -2.47503 0
M  V30 449 H 41.1098 2.99432 -1.30414 0
M  V30 450 H 39.7688 1.90063 -3.13483 0
M  V30 451 H 39.4168 4.31489 -2.58508 0
M  V30 452 H 39.1168 3.99254 -4.31127 0
M  V30 453 H 40.6408 4.77552 -3.80495 0
M  V30 454 H 42.0548 2.83384 -4.98363 0
M  V30 455 H 40.4518 2.2817 -5.5503 0
M  V30 456 H 41.5218 1.14336 -4.71227 0
M  V30 457 N 42.8649 1.48995 0.513639 0
M  V30 458 C 43.8279 1.64229 1.59879 0
M  V30 459 C 44.8279 0.514696 1.5234 0
M  V30 460 O 46.0179 0.78087 1.55718 0
M  V30 461 C 43.1499 1.62783 2.99524 0
M  V30 462 H 44.3429 2.61004 1.47705 0
M  V30 463 H 41.8959 1.37837 0.736936 0
M  V30 464 H 42.6309 0.675461 3.17188 0
M  V30 465 H 42.4159 2.4466 3.06404 0
M  V30 466 H 43.9059 1.76669 3.78388 0
M  V30 467 N 44.343 -0.763751 1.37857 0
M  V30 468 C 45.591 -1.51957 1.33243 0
M  V30 469 C 45.912 -1.94835 -0.0801709 0
M  V30 470 O 45.182 -1.66894 -1.02582 0
M  V30 471 H 43.762 -0.563626 0.49024 0
M  V30 472 H 46.424 -0.908504 1.7243 0
M  V30 473 H 45.52 -2.41523 1.97669 0
M  V30 474 N 45.8211 -1.22559 -0.990812 0
M  V30 475 C 46.7531 -0.955325 -2.08342 0
M  V30 476 C 47.7661 0.0668408 -1.62663 0
M  V30 477 O 48.9551 -0.167421 -1.77713 0
M  V30 478 C 46.0551 -0.415566 -3.36342 0
M  V30 479 C 45.2281 -1.49544 -4.11042 0
M  V30 480 C 44.2871 -0.962399 -5.17324 0
M  V30 481 O 43.3131 -1.64907 -5.44788 0
M  V30 482 N 44.5151 0.215134 -5.80101 0
M  V30 483 H 47.2801 -1.89596 -2.32106 0
M  V30 484 H 44.8411 -1.13276 -1.15673 0
M  V30 485 H 46.8331 -0.0442386 -4.04676 0
M  V30 486 H 45.4031 0.430232 -3.09625 0
M  V30 487 H 44.6231 -2.04 -3.37309 0
M  V30 488 H 45.9111 -2.22195 -4.57719 0
M  V30 489 H 45.3091 0.789779 -5.6016 0
M  V30 490 H 43.8661 0.527826 -6.49659 0
M  V30 491 N 47.2992 1.18797 -1.03562 0
M  V30 492 C 48.5242 1.9314 -0.755764 0
M  V30 493 C 48.9492 1.7537 0.68022 0
M  V30 494 O 48.3072 1.06046 1.47051 0
M  V30 495 C 48.3552 3.42747 -1.12058 0
M  V30 496 O 47.4592 4.11683 -0.243124 0
M  V30 497 H 46.8002 0.602724 -0.278604 0
M  V30 498 H 49.3302 1.50678 -1.3841 0
M  V30 499 H 49.3402 3.93437 -1.08035 0
M  V30 500 H 48.0152 3.55002 -2.16672 0
M  V30 501 H 46.5922 3.71323 -0.342539 0
M  V30 502 N 48.7773 0.814389 1.34928 0
M  V30 503 C 50.0253 0.397636 1.9815 0
M  V30 504 C 50.3463 -1.04069 1.64908 0
M  V30 505 O 49.6163 -1.72121 0.93548 0
M  V30 506 H 48.1963 0.144043 0.732981 0
M  V30 507 H 50.8583 1.04195 1.6471 0
M  V30 508 H 49.9543 0.509688 3.0791 0
M  V30 509 N 50.2554 -1.46986 0.568584 0
M  V30 510 C 51.5044 -2.01646 0.0465894 0
M  V30 511 C 51.8174 -1.44721 -1.31587 0
M  V30 512 O 53.0234 -1.91113 -1.92842 0
M  V30 513 C 51.4794 -3.59885 0.032752 0
M  V30 514 C 51.0874 -4.25804 1.39266 0
M  V30 515 C 52.8314 -4.22255 -0.436038 0
M  V30 516 C 50.7384 -5.76081 1.33732 0
M  V30 517 H 49.6684 -0.753876 0.013647 0
M  V30 518 H 52.3194 -1.68864 0.718131 0
M  V30 519 H 50.7014 -3.8968 -0.704669 0
M  V30 520 H 51.8754 -4.07637 2.1487 0
M  V30 521 H 50.1904 -3.7547 1.80032 0
M  V30 522 H 52.7874 -5.32394 -0.49602 0
M  V30 523 H 53.1304 -3.90212 -1.45053 0
M  V30 524 H 53.6634 -3.97033 0.246877 0
M  V30 525 H 50.4024 -6.12761 2.32817 0
M  V30 526 H 49.9224 -5.96553 0.623267 0
M  V30 527 H 51.6014 -6.38518 1.0442 0
M  V30 528 N 51.7335 -0.305618 -1.54608 0
M  V30 529 C 52.9585 0.307562 -2.05107 0
M  V30 530 C 53.3835 1.46385 -1.18123 0
M  V30 531 O 52.7415 1.8034 -0.186324 0
M  V30 532 C 52.7895 0.73704 -3.52987 0
M  V30 533 O 51.8935 1.84134 -3.6901 0
M  V30 534 H 51.2345 0.0589143 -0.661381 0
M  V30 535 H 53.7645 -0.448807 -1.99617 0
M  V30 536 H 53.7745 1.02459 -3.94925 0
M  V30 537 H 52.4495 -0.108773 -4.15758 0
M  V30 538 H 51.0265 1.55398 -3.38978 0
M  V30 539 N 53.2116 1.57565 -0.0334293 0
M  V30 540 C 54.1416 2.13511 0.945265 0
M  V30 541 C 55.1226 1.05231 1.33643 0
M  V30 542 O 56.3076 1.33084 1.41429 0
M  V30 543 C 53.4376 2.6657 2.22616 0
M  V30 544 C 52.3916 3.79676 1.97561 0
M  V30 545 C 51.7176 4.1918 3.31952 0
M  V30 546 C 53.0176 5.0557 1.31135 0
M  V30 547 H 54.7116 2.95538 0.479325 0
M  V30 548 H 52.2576 1.42166 0.229115 0
M  V30 549 H 54.2106 3.04344 2.91466 0
M  V30 550 H 52.9346 1.8171 2.71384 0
M  V30 551 H 51.5936 3.42347 1.31127 0
M  V30 552 H 51.2416 3.31296 3.78487 0
M  V30 553 H 50.9416 4.95402 3.15992 0
M  V30 554 H 52.4656 4.59541 4.02063 0
M  V30 555 H 53.8796 5.40903 1.89992 0
M  V30 556 H 52.2766 5.86818 1.25559 0
M  V30 557 H 53.3466 4.84062 0.284894 0
M  V30 558 N 54.6897 -0.239769 1.55765 0
M  V30 559 C 55.9387 -0.964754 1.77131 0
M  V30 560 C 56.2517 -1.86213 0.59868 0
M  V30 561 O 57.4577 -2.6244 0.695522 0
M  V30 562 C 55.9137 -1.76552 3.1362 0
M  V30 563 C 55.5217 -0.915185 4.38553 0
M  V30 564 C 57.2657 -2.48281 3.44321 0
M  V30 565 C 55.1727 -1.71225 5.66071 0
M  V30 566 H 54.1027 -0.363953 0.660344 0
M  V30 567 H 56.7537 -0.219181 1.82186 0
M  V30 568 H 55.1357 -2.55331 3.02691 0
M  V30 569 H 56.3097 -0.169217 4.60489 0
M  V30 570 H 54.6247 -0.310889 4.15238 0
M  V30 571 H 57.2217 -3.08382 4.36812 0
M  V30 572 H 57.5647 -3.20256 2.65973 0
M  V30 573 H 58.0977 -1.76507 3.56497 0
M  V30 574 H 54.8367 -1.03612 6.4726 0
M  V30 575 H 54.3567 -2.43331 5.48224 0
M  V30 576 H 56.0357 -2.27758 6.05587 0
M  V30 577 N 56.1678 -1.49265 -0.50573 0
M  V30 578 C 57.4448 -1.49012 -1.26707 0
M  V30 579 C 57.8248 -0.215205 -2.1 0
M  V30 580 O 57.1728 0.802547 -2.13943 0
M  V30 581 C 57.3828 -2.7663 -2.12783 0
M  V30 582 C 58.7308 -3.25932 -2.72127 0
M  V30 583 O 59.7548 -2.77715 -2.23054 0
M  V30 584 O 58.6138 -4.09897 -3.61451 0
M  V30 585 H 55.7078 -0.596197 -0.57313 0
M  V30 586 H 58.2538 -1.61524 -0.52039 0
M  V30 587 H 57.0258 -3.60916 -1.5118 0
M  V30 588 H 56.6488 -2.66956 -2.94653 0
M  V30 589 N 57.6459 0.756429 -1.3826 0
M  V30 590 C 58.5959 1.86069 -1.31766 0
M  V30 591 C 59.5799 1.59621 -0.202483 0
M  V30 592 O 60.7719 1.7149 -0.438211 0
M  V30 593 C 57.9009 3.23742 -1.1422 0
M  V30 594 C 56.9869 3.56091 -2.30348 0
M  V30 595 N 57.3779 3.59517 -3.55783 0
M  V30 596 C 55.6759 3.86341 -2.22838 0
M  V30 597 C 56.3769 3.89052 -4.32451 0
M  V30 598 N 55.3529 4.05736 -3.61772 0
M  V30 599 H 59.1549 1.86992 -2.26741 0
M  V30 600 H 56.6689 0.953643 -1.31451 0
M  V30 601 H 58.6659 4.02761 -1.07652 0
M  V30 602 H 57.3259 3.24073 -0.201763 0
M  V30 603 H 58.3369 3.41347 -3.89491 0
M  V30 604 H 55.0139 3.94404 -1.36937 0
M  V30 605 H 56.4039 3.98349 -5.4108 0
M  V30 606 N 59.124 1.23083 0.984299 0
M  V30 607 C 60.371 1.06057 1.72505 0
M  V30 608 C 60.699 -0.403105 1.90277 0
M  V30 609 O 59.954 -1.3149 1.44944 0
M  V30 610 C 60.253 1.72673 3.1292 0
M  V30 611 C 59.919 3.22586 3.15038 0
M  V30 612 C 58.581 3.63489 3.15324 0
M  V30 613 C 60.933 4.185 3.10657 0
M  V30 614 C 58.261 4.98772 3.08939 0
M  V30 615 C 60.613 5.53769 3.05814 0
M  V30 616 C 59.277 5.94041 3.04419 0
M  V30 617 H 58.547 0.388091 0.631242 0
M  V30 618 H 61.194 1.52963 1.15215 0
M  V30 619 H 59.499 1.18116 3.73572 0
M  V30 620 H 61.196 1.56982 3.68996 0
M  V30 621 H 57.786 2.90022 3.15571 0
M  V30 622 H 61.97 3.87911 3.09579 0
M  V30 623 H 57.226 5.29193 3.0621 0
M  V30 624 H 61.4 6.27808 3.0138 0
M  V30 625 H 59.027 6.98833 2.99227 0
M  V30 626 N 60.6021 -1.18246 1.0419 0
M  V30 627 C 61.8791 -1.84121 0.660208 0
M  V30 628 C 62.2591 -1.92778 -0.860221 0
M  V30 629 O 61.6071 -1.45464 -1.76217 0
M  V30 630 C 61.8171 -3.22355 1.33747 0
M  V30 631 C 63.1651 -3.98376 1.46906 0
M  V30 632 O 64.1891 -3.31799 1.29568 0
M  V30 633 O 63.0481 -5.17665 1.75171 0
M  V30 634 H 60.1421 -0.794036 0.231161 0
M  V30 635 H 62.6881 -1.25628 1.14087 0
M  V30 636 H 61.4601 -3.10964 2.37522 0
M  V30 637 H 61.0831 -3.88506 0.845515 0
M  V30 638 N 62.0802 -0.821533 -1.34494 0
M  V30 639 C 63.3082 -0.421884 -2.02553 0
M  V30 640 C 63.7232 0.971745 -1.61872 0
M  V30 641 O 63.0802 1.62864 -0.823496 0
M  V30 642 C 63.1312 -0.51285 -3.57844 0
M  V30 643 O 62.8522 -1.85155 -3.97051 0
M  V30 644 C 64.3532 -0.107921 -4.43169 0
M  V30 645 H 61.5732 -0.169482 -0.649243 0
M  V30 646 H 64.1172 -1.1093 -1.71798 0
M  V30 647 H 62.2722 0.126474 -3.87193 0
M  V30 648 H 62.6862 -1.82482 -4.91732 0
M  V30 649 H 64.1602 -0.222657 -5.51551 0
M  V30 650 H 64.6372 0.948401 -4.28838 0
M  V30 651 H 65.2432 -0.720989 -4.19144 0
M  V30 652 N 63.5583 1.46682 -0.576371 0
M  V30 653 C 64.7833 2.07304 -0.0630475 0
M  V30 654 C 65.2083 1.42329 1.2298 0
M  V30 655 O 64.5663 0.504865 1.74129 0
M  V30 656 C 64.6143 3.60472 0.095895 0
M  V30 657 O 63.7183 3.95927 1.15394 0
M  V30 658 H 63.0593 0.661288 -0.0599463 0
M  V30 659 H 65.5893 1.88417 -0.797511 0
M  V30 660 H 65.5993 4.06865 0.304071 0
M  V30 661 H 64.2743 4.07157 -0.84828 0
M  V30 662 H 62.8513 3.61252 0.924724 0
M  V30 663 N 65.0364 0.313813 1.54444 0
M  V30 664 C 65.9994 -0.54379 2.22656 0
M  V30 665 C 66.9994 -1.05124 1.21678 0
M  V30 666 O 68.1894 -0.945225 1.46325 0
M  V30 667 C 65.3214 -1.75427 2.92298 0
M  V30 668 H 66.5144 0.0523599 2.99854 0
M  V30 669 H 64.0674 0.0647834 1.56166 0
M  V30 670 H 64.8024 -2.38991 2.19211 0
M  V30 671 H 64.5874 -1.39791 3.66334 0
M  V30 672 H 66.0774 -2.36325 3.44297 0
M  V30 673 N 66.5145 -1.57545 0.0417849 0
M  V30 674 C 67.7445 -1.96339 -0.642995 0
M  V30 675 C 68.1525 -0.917536 -1.65463 0
M  V30 676 O 67.4955 0.107747 -1.83384 0
M  V30 677 C 67.5575 -3.31333 -1.39494 0
M  V30 678 C 67.2215 -4.53796 -0.540204 0
M  V30 679 C 68.2185 -5.19553 0.189806 0
M  V30 680 C 65.9035 -5.0006 -0.473886 0
M  V30 681 C 67.8975 -6.29904 0.974674 0
M  V30 682 C 65.5845 -6.10289 0.314677 0
M  V30 683 C 66.5825 -6.75072 1.03765 0
M  V30 684 O 66.2705 -7.83183 1.81327 0
M  V30 685 H 66.0025 -0.651241 -0.181277 0
M  V30 686 H 68.5565 -2.05148 0.101665 0
M  V30 687 H 66.7865 -3.19052 -2.18502 0
M  V30 688 H 68.4755 -3.54942 -1.96904 0
M  V30 689 H 69.2415 -4.84774 0.147981 0
M  V30 690 H 65.1205 -4.49433 -1.0262 0
M  V30 691 H 68.6645 -6.80401 1.5395 0
M  V30 692 H 64.5615 -6.44506 0.358174 0
M  V30 693 H 65.3295 -7.99913 1.73438 0
M  V30 694 N 67.9926 0.231505 -1.5589 0
M  V30 695 C 68.9556 1.27028 -1.90779 0
M  V30 696 C 69.9556 1.40308 -0.785507 0
M  V30 697 O 71.1456 1.38744 -1.05336 0
M  V30 698 C 68.2776 2.64566 -2.14983 0
M  V30 699 H 69.4706 0.973017 -2.83677 0
M  V30 700 H 67.0236 0.471486 -1.49019 0
M  V30 701 H 67.7586 2.99406 -1.24604 0
M  V30 702 H 67.5436 2.56305 -2.96732 0
M  V30 703 H 69.0336 3.39543 -2.43105 0
M  V30 704 N 69.4707 1.49531 0.497807 0
M  V30 705 C 70.6987 1.62893 1.27567 0
M  V30 706 C 71.1137 0.301585 1.86376 0
M  V30 707 O 70.4707 -0.713335 1.67982 0
M  V30 708 C 70.5217 2.70013 2.40364 0
M  V30 709 O 70.2427 3.976 1.83972 0
M  V30 710 C 71.7437 2.94109 3.31685 0
M  V30 711 H 68.9637 0.548298 0.386794 0
M  V30 712 H 71.5077 1.95584 0.597245 0
M  V30 713 H 69.6627 2.40092 3.04031 0
M  V30 714 H 70.0767 4.56631 2.58047 0
M  V30 715 H 71.5507 3.72788 4.07104 0
M  V30 716 H 72.0277 2.04147 3.88871 0
M  V30 717 H 72.6337 3.2546 2.73781 0
M  V30 718 N 70.9488 -0.749086 1.3866 0
M  V30 719 C 71.8958 -1.86291 1.36251 0
M  V30 720 C 72.8658 -1.64578 0.224347 0
M  V30 721 O 74.0508 -1.86181 0.417279 0
M  V30 722 C 71.1908 -3.23644 1.19786 0
M  V30 723 C 70.3038 -3.57158 2.43027 0
M  V30 724 C 69.4388 -4.83838 2.19258 0
M  V30 725 C 68.4778 -5.10152 3.38247 0
M  V30 726 N 67.6148 -6.28029 3.13884 0
M  V30 727 H 72.4548 -1.87685 2.3147 0
M  V30 728 H 69.9918 -0.917287 1.14997 0
M  V30 729 H 71.9498 -4.0291 1.08254 0
M  V30 730 H 70.5798 -3.21566 0.282031 0
M  V30 731 H 69.6318 -2.72701 2.65214 0
M  V30 732 H 70.9438 -3.7253 3.31697 0
M  V30 733 H 70.0978 -5.71057 2.04888 0
M  V30 734 H 68.8368 -4.70614 1.2796 0
M  V30 735 H 67.8418 -4.21401 3.53131 0
M  V30 736 H 69.0668 -5.25271 4.30427 0
M  V30 737 H 67.0128 -6.1612 2.25238 0
M  V30 738 H 66.9298 -6.43922 3.96106 0
M  V30 739 H 68.1978 -7.18124 3.03179 0
M  V30 740 N 72.4269 -1.23603 -0.977757 0
M  V30 741 C 73.6739 -1.06971 -1.71941 0
M  V30 742 C 74.0019 0.393009 -1.90488 0
M  V30 743 O 73.2569 1.30719 -1.4564 0
M  V30 744 C 73.5559 -1.7433 -3.11999 0
M  V30 745 C 73.2219 -3.24252 -3.13323 0
M  V30 746 C 71.8839 -3.65156 -3.13392 0
M  V30 747 C 74.2359 -4.20141 -3.08433 0
M  V30 748 C 71.5639 -5.00403 -3.0629 0
M  V30 749 C 73.9159 -5.55384 -3.02873 0
M  V30 750 C 72.5799 -5.95647 -3.01265 0
M  V30 751 H 71.8499 -0.391433 -0.629175 0
M  V30 752 H 74.4969 -1.53572 -1.14403 0
M  V30 753 H 72.8019 -1.20096 -3.7294 0
M  V30 754 H 74.4989 -1.58936 -3.68158 0
M  V30 755 H 71.0889 -2.91692 -3.14029 0
M  V30 756 H 75.2729 -3.89547 -3.07517 0
M  V30 757 H 70.5289 -5.3081 -3.03399 0
M  V30 758 H 74.7029 -6.29398 -2.98046 0
M  V30 759 H 72.3299 -7.0041 -2.95516 0
M  V30 760 N 73.905 1.17692 -1.04816 0
M  V30 761 C 74.868 2.19787 -0.650117 0
M  V30 762 C 75.868 1.58044 0.296427 0
M  V30 763 O 77.058 1.74012 0.0808097 0
M  V30 764 C 74.19 3.40869 0.0456987 0
M  V30 765 H 75.383 2.56516 -1.5537 0
M  V30 766 H 72.936 1.31708 -0.841594 0
M  V30 767 H 73.671 3.09681 0.962726 0
M  V30 768 H 73.456 3.86928 -0.634727 0
M  V30 769 H 74.946 4.16445 0.310432 0
M  V30 770 N 75.3831 0.828654 1.34056 0
M  V30 771 C 76.6311 0.41863 1.97717 0
M  V30 772 C 76.9521 -1.02314 1.66002 0
M  V30 773 O 76.2221 -1.71119 0.953683 0
M  V30 774 H 74.8021 0.151809 0.731412 0
M  V30 775 H 77.4641 1.05936 1.63596 0
M  V30 776 H 76.5601 0.542318 3.07352 0
M  V30 777 N 76.8612 -1.46375 0.584142 0
M  V30 778 C 77.7912 -2.33103 -0.136037 0
M  V30 779 C 78.7722 -1.45431 -0.882255 0
M  V30 780 O 79.9572 -1.74246 -0.857434 0
M  V30 781 C 77.0872 -3.27731 -1.14933 0
M  V30 782 C 76.0412 -4.24855 -0.517862 0
M  V30 783 C 75.3672 -5.09001 -1.63773 0
M  V30 784 C 76.6672 -5.19439 0.545886 0
M  V30 785 H 78.3612 -2.93568 0.588086 0
M  V30 786 H 75.9072 -1.41166 0.284259 0
M  V30 787 H 77.8602 -3.87261 -1.66153 0
M  V30 788 H 76.5842 -2.65377 -1.90375 0
M  V30 789 H 75.2432 -3.6659 -0.0267361 0
M  V30 790 H 74.8912 -4.43031 -2.38185 0
M  V30 791 H 74.5912 -5.74777 -1.22085 0
M  V30 792 H 76.1152 -5.71396 -2.15266 0
M  V30 793 H 77.5292 -5.73177 0.118704 0
M  V30 794 H 75.9262 -5.93566 0.88317 0
M  V30 795 H 76.9962 -4.63285 1.43162 0
M  V30 796 N 78.3393 -0.321999 -1.54275 0
M  V30 797 C 79.5853 0.281461 -2.00837 0
M  V30 798 C 79.9183 1.51909 -1.20985 0
M  V30 799 O 79.1933 1.923 -0.291733 0
M  V30 800 C 79.4763 0.617162 -3.54772 0
M  V30 801 C 79.3293 -0.631064 -4.45351 0
M  V30 802 C 80.6483 1.43542 -4.16033 0
M  V30 803 H 77.7673 0.100826 -0.730071 0
M  V30 804 H 80.4093 -0.438268 -1.84876 0
M  V30 805 H 78.5593 1.23034 -3.68504 0
M  V30 806 H 80.2313 -1.26934 -4.43492 0
M  V30 807 H 78.4743 -1.26025 -4.15091 0
M  V30 808 H 79.1453 -0.351735 -5.50878 0
M  V30 809 H 81.6213 0.917134 -4.05867 0
M  V30 810 H 80.4973 1.63907 -5.23856 0
M  V30 811 H 80.7583 2.43108 -3.69257 0
M  V30 812 N 79.8174 1.5752 -0.0501392 0
M  V30 813 C 80.7644 2.1147 0.924603 0
M  V30 814 C 81.7344 1.02182 1.30951 0
M  V30 815 O 82.9194 1.29723 1.39916 0
M  V30 816 C 80.0594 2.66337 2.19451 0
M  V30 817 C 79.1724 3.89708 1.86418 0
M  V30 818 C 78.3074 4.32893 3.07859 0
M  V30 819 C 77.3464 5.48967 2.70742 0
M  V30 820 N 76.4834 5.87211 3.84874 0
M  V30 821 H 81.3234 2.94465 0.457639 0
M  V30 822 H 78.8604 1.45531 0.214266 0
M  V30 823 H 80.8184 2.96247 2.93758 0
M  V30 824 H 79.4484 1.86141 2.63726 0
M  V30 825 H 78.5004 3.66396 1.02264 0
M  V30 826 H 79.8124 4.74074 1.55096 0
M  V30 827 H 78.9664 4.6435 3.90466 0
M  V30 828 H 77.7054 3.47336 3.42358 0
M  V30 829 H 76.7104 5.17183 1.86551 0
M  V30 830 H 77.9354 6.3624 2.37436 0
M  V30 831 H 75.8814 5.04607 4.19175 0
M  V30 832 H 75.7984 6.66266 3.57247 0
M  V30 833 H 77.0664 6.23282 4.68123 0
M  V30 834 N 81.2955 -0.223234 1.56011 0
M  V30 835 C 82.5725 -0.972108 1.69733 0
M  V30 836 C 82.9525 -2.02485 0.59691 0
M  V30 837 O 82.3005 -2.25037 -0.396324 0
M  V30 838 C 82.5105 -1.58407 3.10979 0
M  V30 839 C 83.8585 -2.07696 3.70334 0
M  V30 840 O 84.8825 -1.68304 3.1393 0
M  V30 841 O 83.7415 -2.80096 4.69264 0
M  V30 842 H 80.8355 -0.453993 0.691245 0
M  V30 843 H 83.3815 -0.215149 1.68331 0
M  V30 844 H 82.1535 -0.823831 3.82529 0
M  V30 845 H 81.7765 -2.40661 3.16493 0
M  V30 846 N 82.7736 -1.49793 -0.48987 0
M  V30 847 C 84.0206 -1.59841 -1.24327 0
M  V30 848 C 84.3486 -0.290135 -1.92324 0
M  V30 849 O 83.6036 0.722749 -1.81865 0
M  V30 850 C 83.9026 -2.71488 -2.32441 0
M  V30 851 C 83.5686 -4.12614 -1.81826 0
M  V30 852 C 82.2306 -4.51017 -1.67742 0
M  V30 853 C 84.5826 -5.00892 -1.4407 0
M  V30 854 C 81.9106 -5.75459 -1.14297 0
M  V30 855 C 84.2626 -6.25863 -0.920742 0
M  V30 856 C 82.9266 -6.63086 -0.766383 0
M  V30 857 H 82.1966 -0.584899 -0.454944 0
M  V30 858 H 84.8436 -1.83663 -0.542215 0
M  V30 859 H 83.1486 -2.4168 -3.0838 0
M  V30 860 H 84.8456 -2.76469 -2.90458 0
M  V30 861 H 81.4356 -3.82307 -1.93751 0
M  V30 862 H 85.6196 -4.7187 -1.53794 0
M  V30 863 H 80.8756 -6.02989 -1.01068 0
M  V30 864 H 85.0496 -6.9364 -0.619448 0
M  V30 865 H 82.6766 -7.59393 -0.350083 0
M  V30 866 N 84.2517 0.741722 -1.39055 0
M  V30 867 C 85.1997 1.87702 -1.3737 0
M  V30 868 C 86.1937 1.67427 -0.257812 0
M  V30 869 O 87.3997 1.7485 -0.427489 0
M  V30 870 H 83.7747 0.617757 -0.428812 0
M  V30 871 H 85.7457 1.86239 -2.33147 0
M  V30 872 C 84.4947 3.25315 -1.22741 0
M  V30 873 H 83.8177 3.41509 -2.07873 0
M  V30 874 H 85.2577 4.04964 -1.25618 0
M  V30 875 C 83.7167 3.36838 0.0647316 0
M  V30 876 O 84.2467 3.88073 1.03741 0
M  V30 877 N 82.4527 2.90329 0.125544 0
M  V30 878 H 81.9997 2.48823 -0.666682 0
M  V30 879 H 81.9577 2.98418 0.989639 0
M  V30 880 N 85.7298 1.2412 0.971189 0
M  V30 881 C 86.9698 1.09066 1.7287 0
M  V30 882 C 87.3338 -0.364794 1.88503 0
M  V30 883 O 88.5348 -0.636748 2.61149 0
M  V30 884 C 86.8058 1.80629 3.08396 0
M  V30 885 S 88.3648 1.81263 3.99611 0
M  V30 886 H 85.1828 0.390145 0.594397 0
M  V30 887 H 87.7848 1.57397 1.15959 0
M  V30 888 H 86.4888 2.85647 2.94676 0
M  V30 889 H 86.0198 1.32617 3.70373 0
M  V30 890 H 88.0348 0.877804 4.88374 0
M  V30 891 N 87.2079 -1.17134 1.05439 0
M  V30 892 C 88.1179 -2.24878 0.668365 0
M  V30 893 C 89.1339 -1.71186 -0.311687 0
M  V30 894 O 90.3099 -2.00738 -0.163161 0
M  V30 895 C 87.3749 -3.46662 0.051648 0
M  V30 896 C 86.4359 -4.15429 1.08246 0
M  V30 897 C 85.6689 -5.31399 0.495082 0
M  V30 898 O 85.8919 -5.66153 -0.694743 0
M  V30 899 O 84.8259 -5.89187 1.23056 0
M  V30 900 H 88.6519 -2.60189 1.56637 0
M  V30 901 H 86.2369 -1.24482 0.826104 0
M  V30 902 H 88.1189 -4.20394 -0.290966 0
M  V30 903 H 86.7939 -3.13142 -0.819971 0
M  V30 904 H 85.7009 -3.43704 1.47711 0
M  V30 905 H 87.0339 -4.52982 1.92532 0
M  V30 906 N 88.686 -0.835752 -1.33615 0
M  V30 907 C 89.963 -0.352017 -1.92406 0
M  V30 908 C 90.343 1.16225 -1.76224 0
M  V30 909 O 89.691 1.97526 -1.14873 0
M  V30 910 C 89.901 -0.795485 -3.39813 0
M  V30 911 C 91.249 -0.801703 -4.16963 0
M  V30 912 O 92.273 -0.738889 -3.48452 0
M  V30 913 O 91.132 -0.886607 -5.3926 0
M  V30 914 H 88.226 -0.0989641 -0.821057 0
M  V30 915 H 90.772 -0.921397 -1.42507 0
M  V30 916 H 89.544 -1.83795 -3.45449 0
M  V30 917 H 89.167 -0.202505 -3.97084 0
M  V30 918 N 90.1641 1.46063 -0.591896 0
M  V30 919 C 91.4131 2.01547 -0.0786637 0
M  V30 920 C 91.7261 1.46796 1.29268 0
M  V30 921 O 92.9321 1.94157 1.89777 0
M  V30 922 C 91.3881 3.59787 -0.0900024 0
M  V30 923 C 90.9961 4.23534 -1.46023 0
M  V30 924 C 92.7401 4.22895 0.368806 0
M  V30 925 C 90.6471 5.73881 -1.4288 0
M  V30 926 H 89.5771 0.753564 -0.0256388 0
M  V30 927 H 92.2281 1.677 -0.744905 0
M  V30 928 H 90.6101 3.90752 0.642586 0
M  V30 929 H 91.7841 4.04167 -2.21328 0
M  V30 930 H 90.0991 3.72558 -1.85982 0
M  V30 931 H 92.6961 5.33116 0.411258 0
M  V30 932 H 93.0391 3.9247 1.38827 0
M  V30 933 H 93.5721 3.9659 -0.31001 0
M  V30 934 H 90.3111 6.0898 -2.42536 0
M  V30 935 H 89.8311 5.95486 -0.718095 0
M  V30 936 H 91.5101 6.36776 -1.14565 0
M  V30 937 N 91.6422 0.330177 1.54103 0
M  V30 938 C 92.8912 -0.271336 1.99867 0
M  V30 939 C 93.2042 -1.52723 1.22209 0
M  V30 940 O 94.4102 -2.20515 1.58383 0
M  V30 941 C 92.8662 -0.534032 3.55916 0
M  V30 942 C 92.4742 0.705193 4.42415 0
M  V30 943 C 94.2182 -1.09514 4.1013 0
M  V30 944 C 92.1252 0.414035 5.89949 0
M  V30 945 H 91.0552 -0.105166 0.74663 0
M  V30 946 H 93.7062 0.443429 1.78062 0
M  V30 947 H 92.0882 -1.30915 3.73734 0
M  V30 948 H 93.2622 1.4804 4.36372 0
M  V30 949 H 91.5772 1.18698 3.99124 0
M  V30 950 H 94.1742 -1.3277 5.17954 0
M  V30 951 H 94.5172 -2.04656 3.62521 0
M  V30 952 H 95.0502 -0.381038 3.95971 0
M  V30 953 H 91.7892 1.33481 6.41766 0
M  V30 954 H 91.3092 -0.323336 5.98928 0
M  V30 955 H 92.9882 0.0263105 6.46995 0
M  V30 956 N 93.1203 -1.57491 0.0584922 0
M  V30 957 C 94.3453 -1.97711 -0.62652 0
M  V30 958 C 94.7703 -0.936132 -1.63151 0
M  V30 959 O 94.1283 0.099811 -1.81025 0
M  V30 960 C 94.1763 -3.36989 -1.28338 0
M  V30 961 O 93.2803 -3.35433 -2.39913 0
M  V30 962 H 92.6213 -0.643868 -0.162266 0
M  V30 963 H 95.1513 -2.04193 0.129064 0
M  V30 964 H 95.1613 -3.73879 -1.63335 0
M  V30 965 H 93.8363 -4.12289 -0.546889 0
M  V30 966 H 92.4133 -3.10298 -2.06809 0
M  V30 967 N 94.5984 0.214957 -1.56127 0
M  V30 968 C 96.0144 0.564948 -1.49267 0
M  V30 969 C 96.2144 1.86827 -0.754838 0
M  V30 970 O 95.2704 2.50745 -0.297198 0
M  V30 971 C 96.5834 0.638071 -2.93852 0
M  V30 972 C 98.1314 0.728253 -3.0441 0
M  V30 973 C 98.6064 0.832663 -4.50367 0
M  V30 974 N 100.097 0.896712 -4.54437 0
M  V30 975 C 100.832 0.997324 -5.6466 0
M  V30 976 N 100.328 1.06147 -6.8462 0
M  V30 977 N 102.121 1.03297 -5.52527 0
M  V30 978 H 94.2724 -0.640211 -2.02522 0
M  V30 979 H 96.5354 -0.225507 -0.920788 0
M  V30 980 H 96.2414 -0.250126 -3.50809 0
M  V30 981 H 96.1154 1.49947 -3.46115 0
M  V30 982 H 98.5024 1.60689 -2.47514 0
M  V30 983 H 98.5834 -0.158952 -2.55306 0
M  V30 984 H 98.2274 -0.0415417 -5.07883 0
M  V30 985 H 98.1574 1.73538 -4.97184 0
M  V30 986 H 100.648 0.857188 -3.6805 0
M  V30 987 H 100.961 1.1382 -7.64372 0
M  V30 988 H 99.3064 1.03049 -6.87318 0
M  V30 989 H 102.497 0.979558 -4.57736 0
M  V30 990 H 102.67 1.10793 -6.38458 0
M  V30 991 N 96.0765 1.50051 0.48192 0
M  V30 992 C 97.0235 1.68122 1.58125 0
M  V30 993 C 97.9935 0.522545 1.57666 0
M  V30 994 O 99.1785 0.751844 1.75362 0
M  V30 995 C 96.3185 1.77142 2.96167 0
M  V30 996 C 95.4315 3.0444 3.06497 0
M  V30 997 C 94.5665 3.04321 4.35387 0
M  V30 998 C 93.6055 4.26118 4.3942 0
M  V30 999 N 92.7425 4.238 5.59766 0
M  V30 1000 H 97.5825 2.6198 1.42022 0
M  V30 1001 H 95.1195 1.29877 0.690687 0
M  V30 1002 H 97.0775 1.80352 3.76203 0
M  V30 1003 H 95.7075 0.867329 3.1093 0
M  V30 1004 H 94.7595 3.10752 2.19402 0
M  V30 1005 H 96.0715 3.94426 3.05336 0
M  V30 1006 H 95.2255 3.062 5.23762 0
M  V30 1007 H 93.9645 2.12147 4.39141 0
M  V30 1008 H 92.9695 4.24463 3.49444 0
M  V30 1009 H 94.1945 5.19507 4.37366 0
M  V30 1010 H 92.1405 3.34474 5.64326 0
M  V30 1011 H 92.0575 5.07542 5.60301 0
M  V30 1012 H 93.3255 4.2981 6.50295 0
M  V30 1013 N 97.5546 -0.734337 1.39446 0
M  V30 1014 C 98.4646 -1.87879 1.40495 0
M  V30 1015 C 99.4806 -1.714 0.299672 0
M  V30 1016 O 100.657 -1.93991 0.541249 0
M  V30 1017 C 97.7216 -3.23477 1.24754 0
M  V30 1018 C 96.7826 -3.52344 2.45259 0
M  V30 1019 C 96.0156 -4.81473 2.30259 0
M  V30 1020 O 96.2386 -5.55237 1.30643 0
M  V30 1021 O 95.1726 -5.10254 3.19256 0
M  V30 1022 H 98.9986 -1.89949 2.36966 0
M  V30 1023 H 96.5836 -0.882243 1.20569 0
M  V30 1024 H 98.4656 -4.04509 1.18111 0
M  V30 1025 H 97.1406 -3.22176 0.313781 0
M  V30 1026 H 96.0476 -2.71396 2.57478 0
M  V30 1027 H 97.3806 -3.58426 3.37331 0
M  V30 1028 N 99.0327 -1.24633 -0.964593 0
M  V30 1029 C 99.9647 -0.999302 -2.06268 0
M  V30 1030 C 100.978 0.0323226 -1.62768 0
M  V30 1031 O 102.167 -0.205079 -1.77318 0
M  V30 1032 C 99.2667 -0.486816 -3.35385 0
M  V30 1033 C 98.4397 -1.5823 -4.07777 0
M  V30 1034 C 97.4987 -1.07191 -5.15166 0
M  V30 1035 O 96.5247 -1.76426 -5.41168 0
M  V30 1036 N 97.7267 0.0920373 -5.80427 0
M  V30 1037 H 100.492 -1.94477 -2.28033 0
M  V30 1038 H 98.0527 -1.15704 -1.13244 0
M  V30 1039 H 100.045 -0.130066 -4.04491 0
M  V30 1040 H 98.6147 0.364459 -3.10468 0
M  V30 1041 H 97.8347 -2.11109 -3.32906 0
M  V30 1042 H 99.1227 -2.31854 -4.52903 0
M  V30 1043 H 98.5207 0.670784 -5.61709 0
M  V30 1044 H 97.0777 0.389905 -6.50633 0
M  V30 1045 N 100.511 1.16574 -1.06058 0
M  V30 1046 C 101.927 1.3904 -0.783585 0
M  V30 1047 C 102.127 1.91784 0.618145 0
M  V30 1048 O 101.183 2.11511 1.37911 0
M  V30 1049 C 102.496 2.37329 -1.84649 0
M  V30 1050 C 104.044 2.51018 -1.86973 0
M  V30 1051 C 104.519 3.52588 -2.92311 0
M  V30 1052 N 106.01 3.60113 -2.91329 0
M  V30 1053 C 106.745 4.38486 -3.69482 0
M  V30 1054 N 106.241 5.20302 -4.57447 0
M  V30 1055 N 108.034 4.33446 -3.57885 0
M  V30 1056 H 100.185 0.806725 -1.96483 0
M  V30 1057 H 102.448 0.417117 -0.851303 0
M  V30 1058 H 102.154 2.05663 -2.85299 0
M  V30 1059 H 102.028 3.36946 -1.6955 0
M  V30 1060 H 104.415 2.81989 -0.869827 0
M  V30 1061 H 104.496 1.51445 -2.0615 0
M  V30 1062 H 104.14 3.22354 -3.92492 0
M  V30 1063 H 104.07 4.51886 -2.70383 0
M  V30 1064 H 106.561 3.01707 -2.27555 0
M  V30 1065 H 106.874 5.77311 -5.13743 0
M  V30 1066 H 105.219 5.19653 -4.61503 0
M  V30 1067 H 108.41 3.68586 -2.88551 0
M  V30 1068 H 108.583 4.94279 -4.19037 0
M  V30 1069 N 101.989 0.842826 1.3317 0
M  V30 1070 C 102.936 0.276885 2.29133 0
M  V30 1071 C 103.906 -0.609527 1.54512 0
M  V30 1072 O 105.091 -0.546955 1.82792 0
M  V30 1073 C 102.231 -0.538707 3.40869 0
M  V30 1074 C 101.344 0.372169 4.30394 0
M  V30 1075 C 100.479 -0.454908 5.29249 0
M  V30 1076 C 99.5179 0.45411 6.10413 0
M  V30 1077 N 98.6549 -0.335075 7.013 0
M  V30 1078 H 103.495 1.10052 2.76934 0
M  V30 1079 H 101.032 0.554161 1.36262 0
M  V30 1080 H 102.99 -1.02709 4.0436 0
M  V30 1081 H 101.62 -1.32727 2.9425 0
M  V30 1082 H 100.672 0.97888 3.6759 0
M  V30 1083 H 101.984 1.0703 4.87182 0
M  V30 1084 H 101.138 -1.00695 5.98285 0
M  V30 1085 H 99.8769 -1.18646 4.73048 0
M  V30 1086 H 98.8819 1.01813 5.40291 0
M  V30 1087 H 100.107 1.18409 6.68697 0
M  V30 1088 H 98.0529 -1.04994 6.47543 0
M  V30 1089 H 97.9699 0.304262 7.55387 0
M  V30 1090 H 99.2379 -0.869224 7.74638 0
M  V30 1091 N 103.467 -1.45747 0.599634 0
M  V30 1092 C 104.4 -2.27547 -0.172552 0
M  V30 1093 C 105.378 -1.36657 -0.881116 0
M  V30 1094 O 106.562 -1.66081 -0.891595 0
M  V30 1095 C 103.689 -3.14829 -1.24903 0
M  V30 1096 C 102.735 -4.21603 -0.644465 0
M  V30 1097 S 103.568 -5.32754 0.541606 0
M  V30 1098 C 104.724 -6.23604 -0.535656 0
M  V30 1099 H 104.957 -2.92691 0.521468 0
M  V30 1100 H 102.49 -1.49473 0.386947 0
M  V30 1101 H 104.448 -3.65675 -1.86527 0
M  V30 1102 H 103.109 -2.48965 -1.91508 0
M  V30 1103 H 102.302 -4.82566 -1.45417 0
M  V30 1104 H 101.904 -3.73857 -0.103534 0
M  V30 1105 H 104.196 -6.62519 -1.41686 0
M  V30 1106 H 105.139 -7.0809 0.0376246 0
M  V30 1107 H 105.547 -5.58103 -0.84741 0
M  V30 1108 N 104.945 -0.338344 -1.53925 0
M  V30 1109 C 106.222 0.314774 -1.93051 0
M  V30 1110 C 106.602 1.68669 -1.26941 0
M  V30 1111 O 105.95 2.24636 -0.418445 0
M  V30 1112 C 106.16 0.392249 -3.46789 0
M  V30 1113 C 107.508 0.645554 -4.19664 0
M  V30 1114 O 108.532 0.474575 -3.53024 0
M  V30 1115 O 107.391 0.976408 -5.37707 0
M  V30 1116 H 104.485 0.182598 -0.80659 0
M  V30 1117 H 107.031 -0.389141 -1.65178 0
M  V30 1118 H 105.803 -0.570702 -3.87116 0
M  V30 1119 H 105.426 1.14316 -3.80812 0
M  V30 1120 N 106.423 1.57458 -0.0668435 0
M  V30 1121 C 107.386 2.11323 0.887422 0
M  V30 1122 C 108.386 1.03618 1.22964 0
M  V30 1123 O 109.576 1.29626 1.16373 0
M  V30 1124 C 106.708 2.61048 2.19242 0
M  V30 1125 H 107.901 2.96942 0.420194 0
M  V30 1126 H 105.454 1.55239 0.181793 0
M  V30 1127 H 106.189 1.78868 2.70512 0
M  V30 1128 H 105.974 3.39769 1.95702 0
M  V30 1129 H 107.464 3.02814 2.87565 0
M  V30 1130 N 107.901 -0.206675 1.56239 0
M  V30 1131 C 109.148 -0.928842 1.79941 0
M  V30 1132 C 109.476 -1.83734 0.638131 0
M  V30 1133 O 108.731 -1.92039 -0.376746 0
M  V30 1134 C 109.03 -1.78675 3.09532 0
M  V30 1135 C 108.696 -1.03022 4.38973 0
M  V30 1136 C 107.358 -0.821302 4.74139 0
M  V30 1137 C 109.71 -0.497081 5.18824 0
M  V30 1138 C 107.038 -0.0675719 5.86661 0
M  V30 1139 C 109.39 0.24338 6.32132 0
M  V30 1140 C 108.054 0.463422 6.65889 0
M  V30 1141 H 107.324 -0.339887 0.658451 0
M  V30 1142 H 109.971 -0.195977 1.90495 0
M  V30 1143 H 108.276 -2.58794 2.94165 0
M  V30 1144 H 109.973 -2.34792 3.25075 0
M  V30 1145 H 106.563 -1.20306 4.11369 0
M  V30 1146 H 110.747 -0.645921 4.92079 0
M  V30 1147 H 106.003 0.112995 6.11296 0
M  V30 1148 H 110.177 0.66393 6.93228 0
M  V30 1149 H 107.804 1.04938 7.52922 0
M  V30 1150 N 109.379 -1.50304 -0.473955 0
M  V30 1151 C 110.628 -1.60392 -1.22301 0
M  V30 1152 C 110.941 -0.308411 -1.93153 0
M  V30 1153 O 112.147 -0.288156 -2.69966 0
M  V30 1154 C 110.603 -2.83109 -2.2221 0
M  V30 1155 C 110.211 -4.19524 -1.57173 0
M  V30 1156 C 111.955 -3.0254 -2.97775 0
M  V30 1157 C 109.862 -5.33431 -2.55353 0
M  V30 1158 H 108.792 -0.597286 -0.460179 0
M  V30 1159 H 111.443 -1.76731 -0.493803 0
M  V30 1160 H 109.825 -2.60322 -2.9841 0
M  V30 1161 H 110.999 -4.52554 -0.867824 0
M  V30 1162 H 109.314 -4.05674 -0.939002 0
M  V30 1163 H 111.911 -3.84811 -3.71248 0
M  V30 1164 H 112.254 -2.14154 -3.56992 0
M  V30 1165 H 112.787 -3.25494 -2.28688 0
M  V30 1166 H 109.526 -6.23962 -2.00878 0
M  V30 1167 H 109.046 -5.04823 -3.23904 0
M  V30 1168 H 110.725 -5.63887 -3.17239 0
M  V30 1169 N 110.857 0.726932 -1.39834 0
M  V30 1170 C 111.789 1.85147 -1.35104 0
M  V30 1171 C 112.802 1.60736 -0.258392 0
M  V30 1172 O 113.991 1.70821 -0.517931 0
M  V30 1173 C 111.091 3.21332 -1.07697 0
M  V30 1174 C 110.264 3.73033 -2.28396 0
M  V30 1175 C 109.323 4.87802 -1.97322 0
M  V30 1176 O 108.349 5.01043 -2.70083 0
M  V30 1177 N 109.551 5.72768 -0.944273 0
M  V30 1178 H 112.316 1.89706 -2.32017 0
M  V30 1179 H 109.877 0.908006 -1.3404 0
M  V30 1180 H 111.869 3.95691 -0.849144 0
M  V30 1181 H 110.439 3.11992 -0.194909 0
M  V30 1182 H 109.659 2.89934 -2.6708 0
M  V30 1183 H 110.947 4.0431 -3.08887 0
M  V30 1184 H 110.345 5.64669 -0.341427 0
M  V30 1185 H 108.902 6.4716 -0.776346 0
M  V30 1186 N 112.336 1.25143 0.95797 0
M  V30 1187 C 113.566 1.12261 1.73439 0
M  V30 1188 C 113.974 -0.326715 1.86358 0
M  V30 1189 O 113.317 -1.2367 1.35836 0
M  V30 1190 C 113.379 1.69966 3.16784 0
M  V30 1191 C 113.043 3.18936 3.27305 0
M  V30 1192 C 114.04 4.15968 3.11877 0
M  V30 1193 C 111.725 3.59083 3.51234 0
M  V30 1194 C 113.719 5.51126 3.20217 0
M  V30 1195 C 111.406 4.9438 3.5921 0
M  V30 1196 C 112.404 5.90211 3.43716 0
M  V30 1197 O 112.092 7.23046 3.51368 0
M  V30 1198 H 111.824 0.392476 0.550399 0
M  V30 1199 H 114.378 1.65927 1.21068 0
M  V30 1200 H 112.608 1.10744 3.70503 0
M  V30 1201 H 114.297 1.52232 3.76272 0
M  V30 1202 H 115.063 3.86292 2.93264 0
M  V30 1203 H 110.942 2.84989 3.62356 0
M  V30 1204 H 114.486 6.25905 3.0804 0
M  V30 1205 H 110.383 5.23723 3.77339 0
M  V30 1206 H 111.151 7.31097 3.6802 0
M  V30 1207 N 113.814 -1.1601 1.06675 0
M  V30 1208 C 115.062 -1.86264 0.784229 0
M  V30 1209 C 115.383 -1.82328 -0.691488 0
M  V30 1210 O 114.653 -1.25947 -1.50047 0
M  V30 1211 H 113.233 -0.689621 0.28711 0
M  V30 1212 H 115.895 -1.40664 1.34906 0
M  V30 1213 H 114.991 -2.91595 1.11259 0
M  V30 1214 N 115.292 -0.849877 -1.32721 0
M  V30 1215 C 116.541 -0.447175 -1.96681 0
M  V30 1216 C 116.854 1.00135 -1.68025 0
M  V30 1217 O 118.06 1.50926 -2.25685 0
M  V30 1218 C 116.516 -0.7487 -3.52026 0
M  V30 1219 C 116.124 -2.21264 -3.89546 0
M  V30 1220 C 117.868 -0.413487 -4.22481 0
M  V30 1221 C 115.775 -2.45763 -5.37917 0
M  V30 1222 H 114.705 -0.163486 -0.736063 0
M  V30 1223 H 117.356 -1.03999 -1.51183 0
M  V30 1224 H 115.738 -0.0853727 -3.95908 0
M  V30 1225 H 116.912 -2.91736 -3.56689 0
M  V30 1226 H 115.227 -2.5119 -3.32103 0
M  V30 1227 H 117.824 -0.574017 -5.3161 0
M  V30 1228 H 118.167 0.644492 -4.11281 0
M  V30 1229 H 118.7 -1.03251 -3.84167 0
M  V30 1230 H 115.439 -3.50168 -5.54132 0
M  V30 1231 H 114.959 -1.79864 -5.72197 0
M  V30 1232 H 116.638 -2.29471 -6.0494 0
M  V30 1233 N 116.77 1.45427 -0.607355 0
M  V30 1234 C 118.016 2.0254 -0.102607 0
M  V30 1235 C 118.349 1.47478 1.26348 0
M  V30 1236 O 117.624 0.64939 1.83339 0
M  V30 1237 C 117.907 3.60044 -0.0634347 0
M  V30 1238 C 117.76 4.2544 -1.46017 0
M  V30 1239 C 119.079 4.35646 0.624514 0
M  V30 1240 H 116.198 0.73598 -0.0387607 0
M  V30 1241 H 118.84 1.73284 -0.779282 0
M  V30 1242 H 116.99 3.85101 0.512808 0
M  V30 1243 H 118.662 4.11569 -2.08347 0
M  V30 1244 H 116.905 3.83849 -2.02094 0
M  V30 1245 H 117.576 5.34342 -1.385 0
M  V30 1246 H 120.052 4.15882 0.134723 0
M  V30 1247 H 118.928 5.45376 0.621028 0
M  V30 1248 H 119.189 4.08501 1.69055 0
M  V30 1249 N 118.248 0.346503 1.53744 0
M  V30 1250 C 119.211 -0.496439 2.23759 0
M  V30 1251 C 120.211 -1.0252 1.2388 0
M  V30 1252 O 121.401 -0.913974 1.48297 0
M  V30 1253 C 118.533 -1.69187 2.95954 0
M  V30 1254 H 119.726 0.115952 2.99676 0
M  V30 1255 H 117.279 0.0978939 1.55993 0
M  V30 1256 H 118.014 -2.34288 2.24231 0
M  V30 1257 H 117.799 -1.31989 3.69217 0
M  V30 1258 H 119.289 -2.28969 3.49232 0
M  V30 1259 N 119.726 -1.57421 0.075193 0
M  V30 1260 C 120.974 -1.93236 -0.591974 0
M  V30 1261 C 121.295 -0.956241 -1.69944 0
M  V30 1262 O 120.565 -0.00494792 -1.95899 0
M  V30 1263 H 119.145 -0.713355 -0.22166 0
M  V30 1264 H 121.807 -1.9444 0.133848 0
M  V30 1265 H 120.903 -2.95131 -1.01509 0
M  V30 1266 N 121.204 0.198386 -1.56346 0
M  V30 1267 C 122.45 0.920648 -1.80698 0
M  V30 1268 C 122.783 1.83045 -0.648697 0
M  V30 1269 O 122.058 1.91308 0.350925 0
M  V30 1270 C 122.341 1.73971 -3.15287 0
M  V30 1271 C 122.194 0.85485 -4.41602 0
M  V30 1272 C 123.513 2.71296 -3.46535 0
M  V30 1273 H 120.632 0.333261 -0.657348 0
M  V30 1274 H 123.274 0.188198 -1.89066 0
M  V30 1275 H 121.424 2.36416 -3.08285 0
M  V30 1276 H 123.096 0.245362 -4.60647 0
M  V30 1277 H 121.339 0.161398 -4.335 0
M  V30 1278 H 122.01 1.46286 -5.32264 0
M  V30 1279 H 124.486 2.18983 -3.53816 0
M  V30 1280 H 123.362 3.2569 -4.41834 0
M  V30 1281 H 123.623 3.5018 -2.69864 0
M  V30 1282 N 122.682 1.50554 0.465978 0
M  V30 1283 C 123.614 1.65949 1.58093 0
M  V30 1284 C 124.627 0.540827 1.53554 0
M  V30 1285 O 125.816 0.814187 1.5885 0
M  V30 1286 C 122.916 1.63261 2.96983 0
M  V30 1287 C 122.089 2.91245 3.26336 0
M  V30 1288 C 121.148 2.8113 4.44806 0
M  V30 1289 O 120.174 3.55086 4.44862 0
M  V30 1290 N 121.376 1.95032 5.46756 0
M  V30 1291 H 124.141 2.62122 1.45301 0
M  V30 1292 H 121.702 1.48082 0.65448 0
M  V30 1293 H 123.694 1.54101 3.74212 0
M  V30 1294 H 122.264 0.748032 3.03518 0
M  V30 1295 H 121.484 3.14493 2.37672 0
M  V30 1296 H 122.772 3.76022 3.42761 0
M  V30 1297 H 122.17 1.3427 5.49534 0
M  V30 1298 H 120.727 1.91772 6.2295 0
M  V30 1299 N 124.16 -0.719506 1.40217 0
M  V30 1300 C 125.123 -1.8153 1.39927 0
M  V30 1301 C 126.123 -1.58095 0.293723 0
M  V30 1302 O 127.313 -1.65209 0.552429 0
M  V30 1303 C 124.445 -3.19561 1.18716 0
M  V30 1304 H 125.638 -1.83186 2.37451 0
M  V30 1305 H 123.191 -0.924746 1.26008 0
M  V30 1306 H 123.926 -3.23557 0.219366 0
M  V30 1307 H 123.711 -3.3797 1.98793 0
M  V30 1308 H 125.201 -3.99598 1.21291 0
M  V30 1309 N 125.638 -1.25649 -0.95132 0
M  V30 1310 C 126.571 -1.00644 -2.04807 0
M  V30 1311 C 127.549 0.0654271 -1.62468 0
M  V30 1312 O 128.733 -0.074911 -1.88351 0
M  V30 1313 C 125.86 -0.522052 -3.34653 0
M  V30 1314 C 124.906 -1.58495 -3.95957 0
M  V30 1315 S 125.739 -3.17108 -4.31512 0
M  V30 1316 C 126.895 -2.70412 -5.64471 0
M  V30 1317 H 127.128 -1.93508 -2.25703 0
M  V30 1318 H 124.661 -1.09216 -1.09139 0
M  V30 1319 H 126.619 -0.24923 -4.09743 0
M  V30 1320 H 125.28 0.386146 -3.11717 0
M  V30 1321 H 124.473 -1.1968 -4.89584 0
M  V30 1322 H 124.075 -1.80862 -3.2736 0
M  V30 1323 H 126.367 -2.14245 -6.42733 0
M  V30 1324 H 127.31 -3.62693 -6.08161 0
M  V30 1325 H 127.718 -2.10302 -5.23864 0
M  V30 1326 N 127.117 1.15442 -1.07289 0
M  V30 1327 C 128.049 2.19773 -0.650585 0
M  V30 1328 C 129.062 1.60076 0.296572 0
M  V30 1329 O 130.251 1.78293 0.0859905 0
M  V30 1330 C 127.351 3.38838 0.0650398 0
M  V30 1331 C 126.524 4.2808 -0.898141 0
M  V30 1332 C 125.583 5.2574 -0.219926 0
M  V30 1333 O 124.609 5.62654 -0.860773 0
M  V30 1334 N 125.811 5.71205 1.03466 0
M  V30 1335 H 128.576 2.56622 -1.54808 0
M  V30 1336 H 126.137 1.30551 -0.957494 0
M  V30 1337 H 128.129 4.01222 0.529415 0
M  V30 1338 H 126.699 3.00409 0.864466 0
M  V30 1339 H 125.919 3.62804 -1.54165 0
M  V30 1340 H 127.207 4.84577 -1.5512 0
M  V30 1341 H 126.605 5.43325 1.57526 0
M  V30 1342 H 125.162 6.35633 1.44272 0
M  V30 1343 N 128.595 0.856903 1.32268 0
M  V30 1344 C 129.872 0.382583 1.91822 0
M  V30 1345 C 130.252 -1.13407 1.78051 0
M  V30 1346 O 129.6 -1.95673 1.18001 0
M  V30 1347 C 129.81 0.849446 3.38505 0
M  V30 1348 C 131.158 0.867936 4.15634 0
M  V30 1349 O 132.182 0.794232 3.47232 0
M  V30 1350 O 131.041 0.972286 5.37781 0
M  V30 1351 H 128.135 0.112014 0.819379 0
M  V30 1352 H 130.681 0.943952 1.41024 0
M  V30 1353 H 129.453 1.89267 3.42482 0
M  V30 1354 H 129.076 0.265652 3.96712 0
M  V30 1355 N 130.073 -1.45103 0.615059 0
M  V30 1356 C 131.298 -2.07064 0.117988 0
M  V30 1357 C 131.723 -1.4554 -1.19163 0
M  V30 1358 O 131.081 -0.550855 -1.72729 0
M  V30 1359 C 131.129 -3.606 -0.000288387 0
M  V30 1360 O 130.233 -3.98847 -1.04856 0
M  V30 1361 H 129.574 -0.659467 0.0774581 0
M  V30 1362 H 132.104 -1.86236 0.847186 0
M  V30 1363 H 132.114 -4.07529 -0.196091 0
M  V30 1364 H 130.789 -4.04765 0.955932 0
M  V30 1365 H 129.366 -3.63577 -0.828619 0
M  V30 1366 N 131.551 -0.354651 -1.53558 0
M  V30 1367 C 132.799 0.237972 -2.00694 0
M  V30 1368 C 133.12 1.50173 -1.24391 0
M  V30 1369 O 132.39 1.92673 -0.354135 0
M  V30 1370 H 130.97 0.0909256 -0.741446 0
M  V30 1371 H 133.632 -0.478368 -1.88938 0
M  V30 1372 H 132.728 0.47264 -3.085 0
M  V30 1373 N 133.029 1.57378 -0.0835403 0
M  V30 1374 C 133.959 2.1641 0.87686 0
M  V30 1375 C 134.94 1.09429 1.30228 0
M  V30 1376 O 136.125 1.37516 1.37124 0
M  V30 1377 C 133.255 2.73517 2.14022 0
M  V30 1378 C 132.209 3.85769 1.85381 0
M  V30 1379 C 131.535 4.29529 3.18448 0
M  V30 1380 C 132.835 5.09486 1.14984 0
M  V30 1381 H 134.529 2.96914 0.385059 0
M  V30 1382 H 132.075 1.42823 0.18377 0
M  V30 1383 H 134.028 3.13463 2.81636 0
M  V30 1384 H 132.752 1.90252 2.65465 0
M  V30 1385 H 131.411 3.46345 1.20169 0
M  V30 1386 H 131.059 3.43169 3.67755 0
M  V30 1387 H 130.759 5.05204 3.00071 0
M  V30 1388 H 132.283 4.72099 3.8724 0
M  V30 1389 H 133.697 5.46674 1.72687 0
M  V30 1390 H 132.094 5.90515 1.06826 0
M  V30 1391 H 133.164 4.84724 0.130749 0
M  V30 1392 N 134.507 -0.190092 1.56449 0
M  V30 1393 C 135.417 -1.25591 1.98152 0
M  V30 1394 C 136.433 -1.49519 0.889944 0
M  V30 1395 O 137.609 -1.62036 1.19609 0
M  V30 1396 C 134.674 -2.57916 2.3169 0
M  V30 1397 C 133.735 -2.42015 3.5458 0
M  V30 1398 C 132.968 -3.6803 3.8651 0
M  V30 1399 O 133.191 -4.72413 3.1966 0
M  V30 1400 O 132.125 -3.6326 4.79923 0
M  V30 1401 H 135.951 -0.931988 2.89046 0
M  V30 1402 H 133.536 -0.395488 1.4407 0
M  V30 1403 H 135.418 -3.36008 2.54316 0
M  V30 1404 H 134.093 -2.89925 1.43963 0
M  V30 1405 H 133 -1.62017 3.37196 0
M  V30 1406 H 134.333 -2.14937 4.4279 0
M  V30 1407 N 135.985 -1.50799 -0.457987 0
M  V30 1408 C 137.234 -1.6168 -1.20593 0
M  V30 1409 C 137.547 -0.32888 -1.92815 0
M  V30 1410 O 138.753 -0.316773 -2.69646 0
M  V30 1411 C 137.209 -2.8545 -2.19195 0
M  V30 1412 C 136.817 -4.21168 -1.52715 0
M  V30 1413 C 138.561 -3.05681 -2.94549 0
M  V30 1414 C 136.468 -5.3611 -2.4968 0
M  V30 1415 H 135.398 -0.602134 -0.453818 0
M  V30 1416 H 138.049 -1.77245 -0.475031 0
M  V30 1417 H 136.431 -2.63472 -2.95632 0
M  V30 1418 H 137.605 -4.53449 -0.819775 0
M  V30 1419 H 135.92 -4.06648 -0.895922 0
M  V30 1420 H 138.517 -3.88727 -3.67145 0
M  V30 1421 H 138.86 -2.17929 -3.54701 0
M  V30 1422 H 139.393 -3.27901 -2.25223 0
M  V30 1423 H 136.132 -6.26057 -1.94249 0
M  V30 1424 H 135.652 -5.0823 -3.18532 0
M  V30 1425 H 137.331 -5.6722 -3.11241 0
M  V30 1426 N 137.463 0.71206 -1.40597 0
M  V30 1427 C 138.691 1.50111 -1.42388 0
M  V30 1428 C 139.106 1.88784 -0.0245395 0
M  V30 1429 O 138.463 1.55681 0.952351 0
M  V30 1430 C 138.514 2.7742 -2.31776 0
M  V30 1431 O 138.235 2.40382 -3.66262 0
M  V30 1432 C 139.736 3.7129 -2.42196 0
M  V30 1433 H 136.956 0.46314 -0.485533 0
M  V30 1434 H 139.5 0.878068 -1.8469 0
M  V30 1435 H 137.655 3.36001 -1.92827 0
M  V30 1436 H 138.069 3.22324 -4.13772 0
M  V30 1437 H 139.543 4.57448 -3.08943 0
M  V30 1438 H 140.02 4.14641 -1.44809 0
M  V30 1439 H 140.626 3.18619 -2.81712 0
M  V30 1440 N 138.941 1.26152 0.944643 0
M  V30 1441 C 139.851 1.09176 2.07648 0
M  V30 1442 C 140.867 0.0261935 1.7398 0
M  V30 1443 O 142.043 0.229208 2.00091 0
M  V30 1444 C 139.108 0.722915 3.39079 0
M  V30 1445 C 138.169 1.86752 3.86552 0
M  V30 1446 C 137.402 1.51617 5.11711 0
M  V30 1447 O 137.625 0.416331 5.68879 0
M  V30 1448 O 136.559 2.34975 5.54139 0
M  V30 1449 H 140.385 2.0412 2.24875 0
M  V30 1450 H 137.97 1.05182 1.061 0
M  V30 1451 H 139.852 0.529787 4.18056 0
M  V30 1452 H 138.527 -0.197159 3.23099 0
M  V30 1453 H 137.434 2.11558 3.08535 0
M  V30 1454 H 138.767 2.76719 4.07047 0
M  V30 1455 N 140.419 -1.14872 1.07899 0
M  V30 1456 C 141.329 -2.2341 0.715915 0
M  V30 1457 C 142.345 -1.71808 -0.275306 0
M  V30 1458 O 143.521 -2.01039 -0.120545 0
M  V30 1459 C 140.586 -3.46474 0.125168 0
M  V30 1460 C 139.647 -4.13039 1.17034 0
M  V30 1461 C 138.88 -5.30229 0.607688 0
M  V30 1462 O 139.103 -5.675 -0.574497 0
M  V30 1463 O 138.037 -5.86444 1.35526 0
M  V30 1464 H 141.863 -2.56808 1.62121 0
M  V30 1465 H 139.448 -1.22702 0.852322 0
M  V30 1466 H 141.33 -4.20917 -0.201729 0
M  V30 1467 H 140.005 -3.14811 -0.753364 0
M  V30 1468 H 138.912 -3.40493 1.54968 0
M  V30 1469 H 140.245 -4.48796 2.02097 0
M  V30 1470 N 141.898 -0.863906 -1.31812 0
M  V30 1471 C 142.846 -0.30422 -2.30602 0
M  V30 1472 C 143.84 0.577419 -1.59255 0
M  V30 1473 O 145.046 0.464194 -1.73912 0
M  V30 1474 H 141.421 -0.0796877 -0.747766 0
M  V30 1475 H 143.392 -1.15148 -2.75288 0
M  V30 1476 C 142.141 0.484617 -3.44306 0
M  V30 1477 H 141.464 -0.18451 -3.99374 0
M  V30 1478 H 142.904 0.841664 -4.15562 0
M  V30 1479 C 141.363 1.6735 -2.92396 0
M  V30 1480 O 141.893 2.77273 -2.90659 0
M  V30 1481 N 140.099 1.50362 -2.48676 0
M  V30 1482 H 139.646 0.609402 -2.50288 0
M  V30 1483 H 139.604 2.30051 -2.14299 0
M  V30 1484 N 143.376 1.44774 -0.622745 0
M  V30 1485 C 144.339 2.29069 0.0774015 0
M  V30 1486 C 145.339 1.4059 0.780461 0
M  V30 1487 O 146.529 1.62551 0.626322 0
M  V30 1488 C 143.661 3.21974 1.12006 0
M  V30 1489 H 144.854 2.92459 -0.663901 0
M  V30 1490 H 142.407 1.51548 -0.382486 0
M  V30 1491 H 143.142 2.63417 1.89162 0
M  V30 1492 H 142.927 3.87168 0.619951 0
M  V30 1493 H 144.417 3.85318 1.60995 0
M  V30 1494 N 144.854 0.36279 1.53368 0
M  V30 1495 C 146.082 -0.228613 2.05633 0
M  V30 1496 C 146.497 -1.42676 1.23649 0
M  V30 1497 O 145.854 -1.80394 0.27647 0
M  V30 1498 C 145.905 -0.624845 3.56059 0
M  V30 1499 O 145.626 0.525675 4.34935 0
M  V30 1500 C 147.127 -1.27493 4.24571 0
M  V30 1501 H 144.347 -0.0407183 0.669763 0
M  V30 1502 H 146.891 0.520352 1.97769 0
M  V30 1503 H 145.046 -1.32373 3.64083 0
M  V30 1504 H 145.46 0.205969 5.24095 0
M  V30 1505 H 146.934 -1.50277 5.31151 0
M  V30 1506 H 147.411 -2.23439 3.78116 0
M  V30 1507 H 148.017 -0.617558 4.20792 0
M  V30 1508 N 146.332 -1.57332 0.0918853 0
M  V30 1509 C 147.748 -1.57389 -0.264766 0
M  V30 1510 C 147.948 -1.10281 -1.68643 0
M  V30 1511 O 147.004 -0.777801 -2.40222 0
M  V30 1512 C 148.317 -3.00648 -0.0561195 0
M  V30 1513 C 149.865 -3.12754 -0.124116 0
M  V30 1514 C 150.34 -4.57965 0.0564972 0
M  V30 1515 N 151.831 -4.632 0.00155611 0
M  V30 1516 C 152.566 -5.73281 0.116598 0
M  V30 1517 N 152.062 -6.92208 0.286294 0
M  V30 1518 N 153.855 -5.6207 0.0580973 0
M  V30 1519 H 146.006 -1.86262 1.02079 0
M  V30 1520 H 148.269 -0.859579 0.399786 0
M  V30 1521 H 147.975 -3.393 0.925669 0
M  V30 1522 H 147.849 -3.68623 -0.799823 0
M  V30 1523 H 150.236 -2.73976 -1.09641 0
M  V30 1524 H 150.317 -2.47377 0.651024 0
M  V30 1525 H 149.961 -4.97436 1.02564 0
M  V30 1526 H 149.891 -5.21399 -0.738297 0
M  V30 1527 H 152.382 -3.77686 -0.127192 0
M  V30 1528 H 152.695 -7.71934 0.365676 0
M  V30 1529 H 151.04 -6.94254 0.32192 0
M  V30 1530 H 154.231 -4.68043 -0.0733204 0
M  V30 1531 H 154.404 -6.47824 0.151203 0
M  V30 1532 N 147.81 0.181792 -1.56548 0
M  V30 1533 C 149.059 0.898348 -1.8059 0
M  V30 1534 C 149.372 1.83862 -0.667379 0
M  V30 1535 O 150.578 2.59678 -0.792446 0
M  V30 1536 C 149.034 1.64791 -3.19956 0
M  V30 1537 C 148.642 0.751789 -4.41647 0
M  V30 1538 C 150.386 2.35331 -3.53298 0
M  V30 1539 C 148.293 1.50098 -5.72035 0
M  V30 1540 H 147.223 0.339194 -0.673397 0
M  V30 1541 H 149.874 0.151413 -1.82874 0
M  V30 1542 H 148.256 2.43921 -3.11959 0
M  V30 1543 H 149.43 -0.0018076 -4.608 0
M  V30 1544 H 147.745 0.156562 -4.16106 0
M  V30 1545 H 150.342 2.91958 -4.47956 0
M  V30 1546 H 150.685 3.10164 -2.77676 0
M  V30 1547 H 151.218 1.63154 -3.62803 0
M  V30 1548 H 147.957 0.795175 -6.50659 0
M  V30 1549 H 147.477 2.22817 -5.56878 0
M  V30 1550 H 149.156 2.05125 -6.13622 0
M  V30 1551 N 149.288 1.51039 0.449983 0
M  V30 1552 C 150.536 1.62759 1.19808 0
M  V30 1553 C 150.857 0.339981 1.92013 0
M  V30 1554 O 150.127 -0.643606 1.85026 0
M  V30 1555 H 148.707 0.599811 0.445237 0
M  V30 1556 H 151.369 1.87914 0.517138 0
M  V30 1557 H 150.465 2.44911 1.93455 0
M  V30 1558 N 150.766 -0.704594 1.40972 0
M  V30 1559 C 151.729 -1.80035 1.41845 0
M  V30 1560 C 152.729 -1.57774 0.310474 0
M  V30 1561 O 153.919 -1.64613 0.56992 0
M  V30 1562 C 151.051 -3.18284 1.22098 0
M  V30 1563 H 152.244 -1.80658 2.3938 0
M  V30 1564 H 149.797 -0.911329 1.26982 0
M  V30 1565 H 150.532 -3.23306 0.253672 0
M  V30 1566 H 150.317 -3.35843 2.02366 0
M  V30 1567 H 151.807 -3.98289 1.25522 0
M  V30 1568 N 152.244 -1.26651 -0.937939 0
M  V30 1569 C 153.207 -1.08546 -2.01867 0
M  V30 1570 C 154.207 -0.0327327 -1.60767 0
M  V30 1571 O 155.397 -0.276427 -1.71993 0
M  V30 1572 C 152.529 -0.651711 -3.34613 0
M  V30 1573 H 153.722 -2.04502 -2.1936 0
M  V30 1574 H 151.275 -1.09294 -1.11734 0
M  V30 1575 H 152.01 0.309696 -3.22818 0
M  V30 1576 H 151.795 -1.41189 -3.65798 0
M  V30 1577 H 153.285 -0.546973 -4.14002 0
M  V30 1578 N 153.722 1.14298 -1.08507 0
M  V30 1579 C 154.971 1.84708 -0.810305 0
M  V30 1580 C 155.284 1.83903 0.666271 0
M  V30 1581 O 156.49 2.50112 1.05624 0
M  V30 1582 C 154.946 3.31572 -1.39957 0
M  V30 1583 C 154.554 3.40791 -2.90801 0
M  V30 1584 C 156.298 4.07087 -1.20334 0
M  V30 1585 C 154.205 4.81872 -3.4286 0
M  V30 1586 H 153.135 0.691985 -0.299454 0
M  V30 1587 H 155.786 1.28841 -1.30661 0
M  V30 1588 H 154.168 3.87183 -0.830976 0
M  V30 1589 H 155.342 2.95225 -3.53806 0
M  V30 1590 H 153.657 2.78732 -3.0935 0
M  V30 1591 H 156.254 5.11225 -1.56693 0
M  V30 1592 H 156.597 4.16054 -0.143237 0
M  V30 1593 H 157.13 3.57779 -1.73893 0
M  V30 1594 H 153.869 4.78094 -4.48449 0
M  V30 1595 H 153.389 5.27972 -2.84615 0
M  V30 1596 H 155.068 5.50765 -3.39509 0
M  V30 1597 N 155.201 0.870884 1.31352 0
M  V30 1598 C 156.449 0.48132 1.96285 0
M  V30 1599 C 156.77 -0.969813 1.69173 0
M  V30 1600 O 156.04 -1.67998 1.00764 0
M  V30 1601 H 154.62 0.175002 0.726212 0
M  V30 1602 H 157.282 1.11087 1.60143 0
M  V30 1603 H 156.378 0.639825 3.05471 0
M  V30 1604 N 156.679 -1.44442 0.630414 0
M  V30 1605 C 157.904 -2.06927 0.139944 0
M  V30 1606 C 158.329 -1.46795 -1.17613 0
M  V30 1607 O 157.687 -0.569144 -1.72135 0
M  V30 1608 C 157.735 -3.6058 0.0379581 0
M  V30 1609 O 156.839 -3.99937 -1.0062 0
M  V30 1610 H 156.18 -0.658608 0.0844483 0
M  V30 1611 H 158.71 -1.85327 0.866891 0
M  V30 1612 H 158.72 -4.07714 -0.152856 0
M  V30 1613 H 157.395 -4.03728 0.998809 0
M  V30 1614 H 155.972 -3.64436 -0.79001 0
M  V30 1615 N 158.157 -0.370918 -1.53173 0
M  V30 1616 C 159.405 0.216673 -2.00935 0
M  V30 1617 C 159.726 1.48845 -1.25977 0
M  V30 1618 O 158.996 1.92286 -0.374551 0
M  V30 1619 H 157.576 0.0830565 -0.742368 0
M  V30 1620 H 160.238 -0.49838 -1.8842 0
M  V30 1621 H 159.334 0.439893 -3.08984 0
M  V30 1622 N 159.635 1.57281 -0.100228 0
M  V30 1623 C 160.884 1.93713 0.561984 0
M  V30 1624 C 161.197 0.984492 1.69018 0
M  V30 1625 O 162.403 1.24273 2.41389 0
M  V30 1626 C 160.859 3.4421 1.05106 0
M  V30 1627 C 160.467 4.47975 -0.0476628 0
M  V30 1628 C 162.211 3.89595 1.68571 0
M  V30 1629 C 160.118 5.89631 0.457055 0
M  V30 1630 H 159.048 0.723082 0.2137 0
M  V30 1631 H 161.699 1.82644 -0.177057 0
M  V30 1632 H 160.081 3.50449 1.84395 0
M  V30 1633 H 161.255 4.53385 -0.823333 0
M  V30 1634 H 159.57 4.1223 -0.587816 0
M  V30 1635 H 162.167 4.92832 2.07414 0
M  V30 1636 H 162.51 3.28526 2.55688 0
M  V30 1637 H 163.043 3.86078 0.958562 0
M  V30 1638 H 159.782 6.54411 -0.377616 0
M  V30 1639 H 159.302 5.87681 1.19962 0
M  V30 1640 H 160.981 6.40363 0.92437 0
M  V30 1641 N 161.113 -0.173488 1.56642 0
M  V30 1642 C 162.361 -0.888706 1.81512 0
M  V30 1643 C 162.682 -1.82875 0.676872 0
M  V30 1644 O 161.952 -1.93536 -0.303414 0
M  V30 1645 H 160.532 -0.331164 0.669582 0
M  V30 1646 H 163.194 -0.173823 1.94123 0
M  V30 1647 H 162.29 -1.46691 2.75478 0
M  V30 1648 N 162.591 -1.51276 -0.441967 0
M  V30 1649 C 163.839 -1.63392 -1.18943 0
M  V30 1650 C 164.16 -0.350159 -1.9183 0
M  V30 1651 O 163.43 0.633784 -1.85364 0
M  V30 1652 H 162.01 -0.602164 -0.442049 0
M  V30 1653 H 164.672 -1.88186 -0.507165 0
M  V30 1654 H 163.768 -2.45934 -1.92154 0
M  V30 1655 N 164.069 0.697108 -1.41344 0
M  V30 1656 C 164.999 1.82353 -1.45841 0
M  V30 1657 C 165.98 1.67115 -0.317247 0
M  V30 1658 O 167.165 1.86871 -0.528474 0
M  V30 1659 C 164.295 3.20476 -1.33838 0
M  V30 1660 C 163.249 3.50415 -2.4575 0
M  V30 1661 C 162.575 4.87878 -2.18813 0
M  V30 1662 C 163.875 3.49546 -3.88091 0
M  V30 1663 H 165.569 1.78846 -2.40113 0
M  V30 1664 H 163.115 0.859028 -1.15571 0
M  V30 1665 H 165.068 3.98988 -1.35596 0
M  V30 1666 H 163.792 3.24604 -0.360498 0
M  V30 1667 H 162.451 2.74253 -2.43271 0
M  V30 1668 H 162.099 4.8863 -1.19371 0
M  V30 1669 H 161.799 5.08875 -2.93803 0
M  V30 1670 H 163.323 5.68702 -2.22284 0
M  V30 1671 H 164.737 4.18066 -3.92293 0
M  V30 1672 H 163.134 3.82075 -4.62751 0
M  V30 1673 H 164.204 2.48552 -4.16353 0
M  V30 1674 N 165.547 1.27147 0.931209 0
M  V30 1675 C 166.795 1.13055 1.6752 0
M  V30 1676 C 167.116 -0.324791 1.92276 0
M  V30 1677 O 166.386 -1.22775 1.52654 0
M  V30 1678 H 164.966 0.415391 0.620854 0
M  V30 1679 H 167.628 1.59623 1.11833 0
M  V30 1680 H 166.724 1.65694 2.64485 0
M  V30 1681 N 167.025 -1.13721 1.09112 0
M  V30 1682 C 167.955 -2.21148 0.749385 0
M  V30 1683 C 168.936 -1.6792 -0.271475 0
M  V30 1684 O 170.121 -1.93693 -0.140251 0
M  V30 1685 C 167.251 -3.46905 0.165659 0
M  V30 1686 C 166.205 -4.13203 1.11567 0
M  V30 1687 C 165.531 -5.33248 0.393809 0
M  V30 1688 C 166.831 -4.60912 2.45678 0
M  V30 1689 H 168.525 -2.4999 1.64758 0
M  V30 1690 H 166.071 -1.20156 0.793626 0
M  V30 1691 H 168.024 -4.21313 -0.085466 0
M  V30 1692 H 166.748 -3.17449 -0.767714 0
M  V30 1693 H 165.407 -3.40758 1.35202 0
M  V30 1694 H 165.055 -5.00054 -0.543599 0
M  V30 1695 H 164.755 -5.78552 1.02721 0
M  V30 1696 H 166.279 -6.10413 0.150908 0
M  V30 1697 H 167.693 -5.26759 2.26269 0
M  V30 1698 H 166.09 -5.16944 3.04776 0
M  V30 1699 H 167.16 -3.75603 3.06677 0
M  V30 1700 N 168.503 -0.877838 -1.30888 0
M  V30 1701 C 169.752 -0.488793 -1.95688 0
M  V30 1702 C 170.065 0.965485 -1.70111 0
M  V30 1703 O 171.271 1.46104 -2.28836 0
M  V30 1704 C 169.727 -0.823201 -3.50359 0
M  V30 1705 C 169.335 -2.29477 -3.84765 0
M  V30 1706 C 171.079 -0.503009 -4.21509 0
M  V30 1707 C 168.986 -2.57118 -5.32583 0
M  V30 1708 H 167.916 -0.179062 -0.732429 0
M  V30 1709 H 170.567 -1.07183 -1.48943 0
M  V30 1710 H 168.949 -0.169331 -3.95638 0
M  V30 1711 H 170.123 -2.99236 -3.5042 0
M  V30 1712 H 168.438 -2.58178 -3.267 0
M  V30 1713 H 171.035 -0.68665 -5.30273 0
M  V30 1714 H 171.378 0.557109 -4.12555 0
M  V30 1715 H 171.911 -1.11376 -3.8189 0
M  V30 1716 H 168.65 -3.61843 -5.4658 0
M  V30 1717 H 168.17 -1.91961 -5.68253 0
M  V30 1718 H 169.849 -2.42251 -5.99936 0
M  V30 1719 N 169.982 1.44106 -0.638065 0
M  V30 1720 C 170.892 2.34513 0.0637334 0
M  V30 1721 C 171.908 1.53018 0.828346 0
M  V30 1722 O 173.084 1.85723 0.779036 0
M  V30 1723 C 170.149 3.31095 1.02844 0
M  V30 1724 C 169.21 4.28497 0.26244 0
M  V30 1725 C 168.443 5.20465 1.1812 0
M  V30 1726 O 168.666 5.16514 2.42011 0
M  V30 1727 O 167.6 5.98251 0.661774 0
M  V30 1728 H 171.426 2.95989 -0.68003 0
M  V30 1729 H 169.011 1.43994 -0.398252 0
M  V30 1730 H 170.893 3.90526 1.58327 0
M  V30 1731 H 169.568 2.72144 1.7527 0
M  V30 1732 H 168.475 3.72592 -0.335602 0
M  V30 1733 H 169.808 4.90388 -0.421936 0
M  V30 1734 N 171.46 0.379036 1.52974 0
M  V30 1735 C 172.37 -0.468639 2.29872 0
M  V30 1736 C 173.386 -1.08067 1.36373 0
M  V30 1737 O 174.562 -1.08871 1.69438 0
M  V30 1738 C 171.627 -1.58594 3.083 0
M  V30 1739 C 170.688 -1.00007 4.17489 0
M  V30 1740 C 169.921 -2.06413 4.92168 0
M  V30 1741 O 170.144 -3.27751 4.66835 0
M  V30 1742 O 169.078 -1.68717 5.7777 0
M  V30 1743 H 172.904 0.157508 3.03291 0
M  V30 1744 H 170.489 0.143035 1.48714 0
M  V30 1745 H 172.371 -2.23525 3.57232 0
M  V30 1746 H 171.046 -2.19724 2.37703 0
M  V30 1747 H 169.953 -0.314299 3.72777 0
M  V30 1748 H 171.286 -0.433135 4.90291 0
M  V30 1749 N 172.938 -1.57226 0.108567 0
M  V30 1750 C 173.886 -2.16002 -0.862885 0
M  V30 1751 C 174.88 -1.10644 -1.28274 0
M  V30 1752 O 176.086 -1.28966 -1.2557 0
M  V30 1753 H 172.461 -0.691148 -0.296342 0
M  V30 1754 H 174.432 -2.96427 -0.342575 0
M  V30 1755 C 173.181 -2.76576 -2.10716 0
M  V30 1756 H 172.504 -3.5734 -1.793 0
M  V30 1757 H 173.944 -3.21253 -2.76717 0
M  V30 1758 C 172.403 -1.73137 -2.89007 0
M  V30 1759 O 172.933 -1.17842 -3.84026 0
M  V30 1760 N 171.139 -1.43317 -2.52801 0
M  V30 1761 H 170.686 -1.88473 -1.75601 0
M  V30 1762 H 170.644 -0.743485 -3.05483 0
M  V30 1763 N 174.416 0.165178 -1.56732 0
M  V30 1764 C 175.366 1.20917 -1.93295 0
M  V30 1765 C 176.35 1.39488 -0.801985 0
M  V30 1766 O 177.542 1.41356 -1.06525 0
M  V30 1767 C 174.671 2.54718 -2.3016 0
M  V30 1768 C 173.757 2.39815 -3.49785 0
M  V30 1769 N 174.148 1.94637 -4.66851 0
M  V30 1770 C 172.446 2.70623 -3.54513 0
M  V30 1771 C 173.147 1.92344 -5.4898 0
M  V30 1772 N 172.123 2.34978 -4.9019 0
M  V30 1773 H 175.925 0.851675 -2.81289 0
M  V30 1774 H 173.439 0.373399 -1.58049 0
M  V30 1775 H 175.436 3.30165 -2.54552 0
M  V30 1776 H 174.096 2.91265 -1.43508 0
M  V30 1777 H 175.107 1.6488 -4.90953 0
M  V30 1778 H 171.784 3.11167 -2.78354 0
M  V30 1779 H 173.174 1.5906 -6.52801 0
M  V30 1780 N 175.894 1.51508 0.433938 0
M  V30 1781 C 177.122 1.68157 1.20543 0
M  V30 1782 C 177.537 0.380362 1.84929 0
M  V30 1783 O 176.894 -0.641446 1.70856 0
M  V30 1784 C 176.945 2.79965 2.28696 0
M  V30 1785 O 176.666 4.05045 1.66943 0
M  V30 1786 C 178.167 3.07912 3.18912 0
M  V30 1787 H 175.387 0.56421 0.363191 0
M  V30 1788 H 177.931 1.97941 0.513754 0
M  V30 1789 H 176.086 2.5277 2.93574 0
M  V30 1790 H 176.5 4.67165 2.38448 0
M  V30 1791 H 177.974 3.89719 3.90926 0
M  V30 1792 H 178.451 2.20456 3.79863 0
M  V30 1793 H 179.057 3.36779 2.59731 0
M  V30 1794 N 177.372 -0.689602 1.41712 0
M  V30 1795 C 178.597 -1.48329 1.44959 0
M  V30 1796 C 179.022 -1.8801 0.0581283 0
M  V30 1797 O 178.38 -1.55026 -0.940035 0
M  V30 1798 C 178.428 -2.71835 2.36935 0
M  V30 1799 O 177.532 -3.69549 1.8305 0
M  V30 1800 H 176.873 -0.446199 0.491734 0
M  V30 1801 H 179.403 -0.847127 1.86239 0
M  V30 1802 H 179.413 -3.20076 2.53013 0
M  V30 1803 H 178.088 -2.42291 3.38035 0
M  V30 1804 H 176.665 -3.2851 1.76452 0
M  V30 1805 N 178.85 -1.27639 -0.924453 0
M  V30 1806 C 179.78 -1.13166 -2.04244 0
M  V30 1807 C 180.761 -0.032256 -1.70069 0
M  V30 1808 O 181.946 -0.207328 -1.9309 0
M  V30 1809 C 179.076 -0.781496 -3.38393 0
M  V30 1810 C 178.03 -1.83449 -3.86692 0
M  V30 1811 C 177.356 -1.33822 -5.17683 0
M  V30 1812 C 178.656 -3.23917 -4.09726 0
M  V30 1813 H 180.35 -2.06689 -2.1661 0
M  V30 1814 H 177.896 -0.995136 -1.04082 0
M  V30 1815 H 179.849 -0.667057 -4.16087 0
M  V30 1816 H 178.573 0.189439 -3.2605 0
M  V30 1817 H 177.232 -1.93789 -3.11193 0
M  V30 1818 H 176.88 -0.35665 -5.01734 0
M  V30 1819 H 176.58 -2.04224 -5.50968 0
M  V30 1820 H 178.104 -1.23679 -5.97943 0
M  V30 1821 H 179.518 -3.16559 -4.77978 0
M  V30 1822 H 177.915 -3.92059 -4.54324 0
M  V30 1823 H 178.985 -3.68729 -3.14908 0
M  V30 1824 N 180.328 1.1314 -1.09713 0
M  V30 1825 C 181.261 2.17735 -0.683137 0
M  V30 1826 C 182.239 1.59582 0.311841 0
M  V30 1827 O 183.423 1.87298 0.212514 0
M  V30 1828 C 180.55 3.38699 -0.00684324 0
M  V30 1829 C 179.596 4.1546 -0.964102 0
M  V30 1830 S 180.429 4.74733 -2.47767 0
M  V30 1831 C 181.585 5.9904 -1.81387 0
M  V30 1832 H 181.818 2.52515 -1.56918 0
M  V30 1833 H 179.351 1.24484 -0.913404 0
M  V30 1834 H 181.309 4.08765 0.377044 0
M  V30 1835 H 179.97 3.02214 0.85589 0
M  V30 1836 H 179.163 5.02093 -0.43803 0
M  V30 1837 H 178.765 3.51066 -1.28953 0
M  V30 1838 H 181.057 6.67846 -1.13967 0
M  V30 1839 H 182 6.56261 -2.65947 0
M  V30 1840 H 182.408 5.4976 -1.28155 0
M  V30 1841 N 181.806 0.884767 1.30421 0
M  V30 1842 C 182.754 0.340869 2.30089 0
M  V30 1843 C 183.748 -0.55201 1.60154 0
M  V30 1844 O 184.954 -0.436467 1.74628 0
M  V30 1845 H 181.329 0.0915739 0.746404 0
M  V30 1846 H 183.3 1.19513 2.73421 0
M  V30 1847 C 182.049 -0.429779 3.45034 0
M  V30 1848 H 181.372 0.248024 3.9903 0
M  V30 1849 H 182.812 -0.775445 4.16849 0
M  V30 1850 C 181.271 -1.62677 2.95022 0
M  V30 1851 O 181.801 -2.72614 2.95033 0
M  V30 1852 N 180.007 -1.46387 2.51036 0
M  V30 1853 H 179.554 -0.569506 2.51226 0
M  V30 1854 H 179.512 -2.26612 2.17932 0
M  V30 1855 N 183.284 -1.43765 0.645699 0
M  V30 1856 C 184.532 -2.01499 0.155731 0
M  V30 1857 C 184.853 -1.51151 -1.232 0
M  V30 1858 O 184.123 -0.721044 -1.82148 0
M  V30 1859 H 182.703 -0.745003 0.0545817 0
M  V30 1860 H 185.365 -1.76075 0.835677 0
M  V30 1861 H 184.461 -3.1181 0.134577 0
M  V30 1862 N 184.763 -0.387143 -1.52771 0
M  V30 1863 C 186.011 0.195349 -2.01154 0
M  V30 1864 C 186.332 1.475 -1.27549 0
M  V30 1865 O 185.602 1.91878 -0.394924 0
M  V30 1866 H 184.182 0.075178 -0.743207 0
M  V30 1867 H 186.844 -0.518337 -1.87881 0
M  V30 1868 H 185.94 0.407096 -3.09434 0
M  V30 1869 N 186.241 1.57166 -0.116904 0
M  V30 1870 C 187.652 1.82169 0.408809 0
M  V30 1871 C 188.003 1.03393 1.66746 0
M  V30 1872 O 187.128 0.269886 2.1471 0
M  V30 1873 C 187.723 3.30429 0.748466 0
M  V30 1874 C 186.282 3.5612 1.21882 0
M  V30 1875 C 185.429 2.76374 0.226452 0
M  V30 1876 H 188.38 1.5497 -0.342063 0
M  V30 1877 H 188.401 3.44943 1.60607 0
M  V30 1878 H 187.913 3.87737 -0.167784 0
M  V30 1879 H 186.014 3.04168 2.15204 0
M  V30 1880 H 186.127 4.64705 1.16559 0
M  V30 1881 H 184.491 2.44515 0.713063 0
M  V30 1882 H 185.274 3.3644 -0.682859 0
M  V30 1883 N 187.719 -0.156864 1.56817 0
M  V30 1884 C 189.135 -0.50916 1.5126 0
M  V30 1885 C 189.335 -1.83897 0.823658 0
M  V30 1886 O 188.391 -2.49469 0.390055 0
M  V30 1887 C 189.704 -0.52857 2.96018 0
M  V30 1888 C 191.252 -0.614771 3.06903 0
M  V30 1889 C 191.727 -0.664938 4.53147 0
M  V30 1890 N 193.218 -0.727433 4.57452 0
M  V30 1891 C 193.953 -0.787067 5.67973 0
M  V30 1892 N 193.449 -0.806649 6.88088 0
M  V30 1893 N 195.242 -0.827195 5.5598 0
M  V30 1894 H 187.393 0.714935 2.00006 0
M  V30 1895 H 189.656 0.259526 0.911784 0
M  V30 1896 H 189.362 0.380154 3.49639 0
M  V30 1897 H 189.236 -1.36998 3.51442 0
M  V30 1898 H 191.623 -1.51392 2.53307 0
M  V30 1899 H 191.704 0.253597 2.5454 0
M  V30 1900 H 191.348 0.230011 5.07379 0
M  V30 1901 H 191.278 -1.54966 5.03282 0
M  V30 1902 H 193.769 -0.719998 3.70978 0
M  V30 1903 H 194.082 -0.853727 7.6807 0
M  V30 1904 H 192.427 -0.774687 6.90669 0
M  V30 1905 H 195.618 -0.808998 4.61056 0
M  V30 1906 H 195.791 -0.870206 6.4213 0
M  V30 1907 N 189.197 -1.51736 -0.425897 0
M  V30 1908 C 190.144 -1.73875 -1.51776 0
M  V30 1909 C 191.114 -0.580702 -1.55618 0
M  V30 1910 O 192.299 -0.81641 -1.72451 0
M  V30 1911 C 189.439 -1.88012 -2.89388 0
M  V30 1912 C 188.552 -3.15606 -2.94986 0
M  V30 1913 C 187.687 -3.20271 -4.23793 0
M  V30 1914 C 186.726 -4.42134 -4.23302 0
M  V30 1915 N 185.863 -4.44284 -5.43651 0
M  V30 1916 H 190.703 -2.67071 -1.32201 0
M  V30 1917 H 188.24 -1.32351 -0.642008 0
M  V30 1918 H 190.198 -1.9419 -3.69251 0
M  V30 1919 H 188.828 -0.98213 -3.07496 0
M  V30 1920 H 187.88 -3.18681 -2.07717 0
M  V30 1921 H 189.192 -4.05486 -2.90486 0
M  V30 1922 H 188.346 -3.25428 -5.12036 0
M  V30 1923 H 187.085 -2.28299 -4.30965 0
M  V30 1924 H 186.09 -4.3714 -3.3345 0
M  V30 1925 H 187.315 -5.35382 -4.17783 0
M  V30 1926 H 185.261 -3.55188 -5.51523 0
M  V30 1927 H 185.178 -5.27988 -5.41078 0
M  V30 1928 H 186.446 -4.53649 -6.33895 0
M  V30 1929 N 190.675 0.682077 -1.42076 0
M  V30 1930 C 191.924 1.43786 -1.41451 0
M  V30 1931 C 192.237 1.95574 -0.0317074 0
M  V30 1932 O 193.443 2.71326 0.0971462 0
M  V30 1933 C 191.899 2.60071 -2.48779 0
M  V30 1934 C 191.507 2.15013 -3.93031 0
M  V30 1935 C 193.251 3.37626 -2.57311 0
M  V30 1936 C 191.158 3.28336 -4.91883 0
M  V30 1937 H 190.088 0.540143 -0.526082 0
M  V30 1938 H 192.739 0.739157 -1.67955 0
M  V30 1939 H 191.121 3.32275 -2.15429 0
M  V30 1940 H 192.295 1.5001 -4.35699 0
M  V30 1941 H 190.61 1.50416 -3.88284 0
M  V30 1942 H 193.207 4.22012 -3.28345 0
M  V30 1943 H 193.55 3.83727 -1.61429 0
M  V30 1944 H 194.083 2.72488 -2.89819 0
M  V30 1945 H 190.822 2.87234 -5.89217 0
M  V30 1946 H 190.342 3.92145 -4.53853 0
M  V30 1947 H 192.021 3.93913 -5.13265 0
M  V30 1948 N 192.153 1.28127 0.917671 0
M  V30 1949 C 193.378 1.18007 1.70555 0
M  V30 1950 C 193.803 -0.258257 1.86319 0
M  V30 1951 O 193.161 -1.1869 1.37049 0
M  V30 1952 C 193.209 1.87948 3.07746 0
M  V30 1953 O 192.313 1.18427 3.9503 0
M  V30 1954 H 191.654 0.409867 0.522403 0
M  V30 1955 H 194.184 1.69379 1.1477 0
M  V30 1956 H 194.194 1.95701 3.58001 0
M  V30 1957 H 192.869 2.92573 2.95591 0
M  V30 1958 H 191.446 1.18811 3.53466 0
M  V30 1959 N 193.631 -1.12557 1.10312 0
M  V30 1960 C 195.042 -1.65574 0.862678 0
M  V30 1961 C 195.393 -1.86566 -0.607256 0
M  V30 1962 O 194.518 -1.59121 -1.46662 0
M  V30 1963 C 195.113 -3.00776 1.55947 0
M  V30 1964 C 193.672 -3.50748 1.36576 0
M  V30 1965 C 192.819 -2.25797 1.60968 0
M  V30 1966 H 195.77 -0.963552 1.26101 0
M  V30 1967 H 195.791 -3.67185 0.997753 0
M  V30 1968 H 195.303 -2.85465 2.62928 0
M  V30 1969 H 193.404 -3.71245 0.317531 0
M  V30 1970 H 193.517 -4.30289 2.10686 0
M  V30 1971 H 191.881 -2.32841 1.03234 0
M  V30 1972 H 192.664 -2.13043 2.69198 0
M  V30 1973 N 195.109 -0.891671 -1.2995 0
M  V30 1974 C 196.356 -0.513501 -1.95881 0
M  V30 1975 C 196.684 0.938655 -1.70351 0
M  V30 1976 O 195.939 1.67936 -1.00478 0
M  V30 1977 C 196.238 -0.742868 -3.49594 0
M  V30 1978 C 195.904 -2.17114 -3.95186 0
M  V30 1979 C 194.566 -2.56169 -4.07346 0
M  V30 1980 C 196.918 -3.10162 -4.18866 0
M  V30 1981 C 194.246 -3.87469 -4.4055 0
M  V30 1982 C 196.598 -4.41001 -4.53542 0
M  V30 1983 C 195.262 -4.79941 -4.63911 0
M  V30 1984 H 194.532 -0.187903 -0.71678 0
M  V30 1985 H 197.179 -1.1288 -1.54694 0
M  V30 1986 H 195.484 -0.044586 -3.91775 0
M  V30 1987 H 197.181 -0.429767 -3.9869 0
M  V30 1988 H 193.771 -1.85801 -3.86233 0
M  V30 1989 H 197.955 -2.81206 -4.08946 0
M  V30 1990 H 193.211 -4.17371 -4.46779 0
M  V30 1991 H 197.385 -5.13133 -4.70815 0
M  V30 1992 H 195.012 -5.81719 -4.89395 0
M  V30 1993 N 196.587 1.43421 -0.653314 0
M  V30 1994 C 197.834 2.01812 -0.166745 0
M  V30 1995 C 198.162 1.51535 1.21931 0
M  V30 1996 O 197.417 0.698975 1.82792 0
M  V30 1997 C 197.716 3.57176 -0.126623 0
M  V30 1998 C 197.382 4.26798 -1.45444 0
M  V30 1999 C 196.044 4.45534 -1.81805 0
M  V30 2000 C 198.396 4.66225 -2.32989 0
M  V30 2001 C 195.724 5.00961 -3.05377 0
M  V30 2002 C 198.076 5.23021 -3.55853 0
M  V30 2003 C 196.74 5.39973 -3.9241 0
M  V30 2004 H 196.01 0.738484 -0.0610162 0
M  V30 2005 H 198.657 1.71896 -0.84404 0
M  V30 2006 H 196.962 3.86634 0.634123 0
M  V30 2007 H 198.659 4.00112 0.266723 0
M  V30 2008 H 195.249 4.12561 -1.16153 0
M  V30 2009 H 199.433 4.51443 -2.06187 0
M  V30 2010 H 194.689 5.12271 -3.3375 0
M  V30 2011 H 198.863 5.52518 -4.23907 0
M  V30 2012 H 196.49 5.82687 -4.88242 0
M  V30 2013 N 198.065 0.39524 1.52563 0
M  V30 2014 C 199.311 -0.185318 2.01952 0
M  V30 2015 C 199.644 -1.45964 1.28095 0
M  V30 2016 O 198.919 -1.90689 0.38315 0
M  V30 2017 C 199.202 -0.447193 3.57312 0
M  V30 2018 C 199.055 0.842828 4.41833 0
M  V30 2019 C 200.374 -1.23529 4.22408 0
M  V30 2020 H 197.493 -0.0658788 0.73405 0
M  V30 2021 H 200.135 0.525975 1.82575 0
M  V30 2022 H 198.285 -1.05312 3.73954 0
M  V30 2023 H 199.957 1.4795 4.36931 0
M  V30 2024 H 198.2 1.45686 4.08605 0
M  V30 2025 H 198.871 0.614165 5.48573 0
M  V30 2026 H 201.347 -0.722445 4.0978 0
M  V30 2027 H 200.223 -1.38727 5.3108 0
M  V30 2028 H 200.484 -2.25213 3.80436 0
M  V30 2029 N 199.544 -1.57102 0.125237 0
M  V30 2030 C 200.955 -1.82384 -0.399142 0
M  V30 2031 C 201.306 -1.04276 -1.66195 0
M  V30 2032 O 200.431 -0.281269 -2.14564 0
M  V30 2033 C 201.026 -3.30821 -0.730932 0
M  V30 2034 C 199.585 -3.56762 -1.19992 0
M  V30 2035 C 198.732 -2.7649 -0.211792 0
M  V30 2036 H 201.683 -1.54786 0.350277 0
M  V30 2037 H 201.704 -3.4579 -1.58775 0
M  V30 2038 H 201.216 -3.87643 0.188345 0
M  V30 2039 H 199.317 -3.05305 -2.13588 0
M  V30 2040 H 199.43 -4.65317 -1.14093 0
M  V30 2041 H 197.794 -2.4489 -0.700085 0
M  V30 2042 H 198.577 -3.36073 0.700691 0
M  V30 2043 N 201.022 0.148545 -1.56898 0
M  V30 2044 C 202.247 0.880385 -1.87787 0
M  V30 2045 C 202.672 1.74018 -0.714093 0
M  V30 2046 O 202.03 1.78153 0.336343 0
M  V30 2047 C 202.078 1.71422 -3.17249 0
M  V30 2048 O 201.182 2.8183 -3.01074 0
M  V30 2049 H 200.523 0.245301 -0.617028 0
M  V30 2050 H 203.053 0.139826 -2.04122 0
M  V30 2051 H 203.063 2.10954 -3.49231 0
M  V30 2052 H 201.738 1.08284 -4.01556 0
M  V30 2053 H 200.315 2.45715 -2.80497 0
M  V30 2054 N 202.5 1.5196 0.417844 0
M  V30 2055 C 203.728 1.69426 1.18753 0
M  V30 2056 C 204.143 0.399955 1.84515 0
M  V30 2057 O 203.5 -0.623288 1.71527 0
M  V30 2058 C 203.551 2.82375 2.25714 0
M  V30 2059 O 203.272 4.06793 1.62638 0
M  V30 2060 C 204.773 3.11277 3.15628 0
M  V30 2061 H 201.993 0.568031 0.357186 0
M  V30 2062 H 204.537 1.98475 0.49273 0
M  V30 2063 H 202.692 2.5587 2.90877 0
M  V30 2064 H 203.106 4.69667 2.3348 0
M  V30 2065 H 204.58 3.93843 3.86771 0
M  V30 2066 H 205.057 2.24473 3.77503 0
M  V30 2067 H 205.663 3.39515 2.56144 0
M  V30 2068 N 203.978 -0.674533 1.42435 0
M  V30 2069 C 205.227 -1.43034 1.42212 0
M  V30 2070 C 205.54 -1.95555 0.0420788 0
M  V30 2071 O 206.746 -2.71374 -0.0827558 0
M  V30 2072 C 205.202 -2.58748 2.50155 0
M  V30 2073 C 204.81 -2.12925 3.94166 0
M  V30 2074 C 206.554 -3.36257 2.59098 0
M  V30 2075 C 204.461 -3.25723 4.93618 0
M  V30 2076 H 203.391 -0.537345 0.528939 0
M  V30 2077 H 206.042 -0.73024 1.68344 0
M  V30 2078 H 204.424 -3.31128 2.17188 0
M  V30 2079 H 205.598 -1.47697 4.36488 0
M  V30 2080 H 203.913 -1.48354 3.89076 0
M  V30 2081 H 206.51 -4.20264 3.30578 0
M  V30 2082 H 206.853 -3.82866 1.63461 0
M  V30 2083 H 207.386 -2.70947 2.9126 0
M  V30 2084 H 204.125 -2.84105 5.90732 0
M  V30 2085 H 203.645 -3.89732 4.55926 0
M  V30 2086 H 205.324 -3.91186 5.15347 0
M  V30 2087 N 205.456 -1.28612 -0.910864 0
M  V30 2088 C 206.702 -1.16106 -1.66274 0
M  V30 2089 C 207.035 0.289113 -1.92036 0
M  V30 2090 O 206.31 1.21 -1.52281 0
M  V30 2091 C 206.593 -1.96309 -3.01885 0
M  V30 2092 C 206.446 -3.49405 -2.8326 0
M  V30 2093 C 207.765 -1.78076 -4.02463 0
M  V30 2094 H 204.884 -0.423152 -0.603417 0
M  V30 2095 H 207.526 -1.57961 -1.05586 0
M  V30 2096 H 205.676 -1.60742 -3.53687 0
M  V30 2097 H 207.348 -3.94894 -2.38446 0
M  V30 2098 H 205.591 -3.74893 -2.18261 0
M  V30 2099 H 206.262 -4.00784 -3.79574 0
M  V30 2100 H 208.738 -2.0912 -3.59733 0
M  V30 2101 H 207.614 -2.36561 -4.95308 0
M  V30 2102 H 207.875 -0.733008 -4.35981 0
M  V30 2103 N 206.934 1.1197 -1.10907 0
M  V30 2104 C 207.882 2.19927 -0.757303 0
M  V30 2105 C 208.876 1.67564 0.248747 0
M  V30 2106 O 210.082 1.79672 0.108605 0
M  V30 2107 H 206.457 0.716925 -0.226987 0
M  V30 2108 H 208.428 2.46847 -1.67658 0
M  V30 2109 C 207.177 3.47061 -0.210671 0
M  V30 2110 H 206.5 3.87703 -0.976049 0
M  V30 2111 H 207.94 4.24 -0.0026584 0
M  V30 2112 C 206.399 3.19864 1.05777 0
M  V30 2113 O 206.929 3.40049 2.13845 0
M  V30 2114 N 205.135 2.73636 0.978349 0
M  V30 2115 H 204.682 2.5741 0.0988246 0
M  V30 2116 H 204.64 2.55815 1.82773 0
M  V30 2117 N 208.412 0.89855 1.29475 0
M  V30 2118 C 209.345 0.319981 2.25945 0
M  V30 2119 C 210.323 -0.567189 1.52387 0
M  V30 2120 O 211.507 -0.514254 1.8135 0
M  V30 2121 C 208.634 -0.544013 3.34303 0
M  V30 2122 C 207.68 0.275682 4.25608 0
M  V30 2123 S 208.513 1.67272 5.08704 0
M  V30 2124 C 209.669 0.815621 6.20563 0
M  V30 2125 H 209.902 1.13767 2.74671 0
M  V30 2126 H 207.435 0.69882 1.3768 0
M  V30 2127 H 209.393 -1.03673 3.97193 0
M  V30 2128 H 208.054 -1.33593 2.84274 0
M  V30 2129 H 207.247 -0.384263 5.02533 0
M  V30 2130 H 206.849 0.701496 3.67362 0
M  V30 2131 H 209.141 0.0385042 6.77489 0
M  V30 2132 H 210.084 1.55691 6.90772 0
M  V30 2133 H 210.492 0.370516 5.63283 0
M  V30 2134 N 209.89 -1.43072 0.660911 0
M  V30 2135 C 211.136 -2.0202 0.177708 0
M  V30 2136 C 211.469 -1.52066 -1.20787 0
M  V30 2137 O 210.744 -0.716987 -1.80802 0
M  V30 2138 C 211.027 -3.59561 0.197019 0
M  V30 2139 C 210.88 -4.19727 1.61706 0
M  V30 2140 C 212.199 -4.37664 -0.462396 0
M  V30 2141 H 209.318 -0.734034 0.0660494 0
M  V30 2142 H 211.96 -1.70272 0.843058 0
M  V30 2143 H 210.11 -3.86739 -0.369527 0
M  V30 2144 H 211.782 -4.03553 2.23479 0
M  V30 2145 H 210.025 -3.76084 2.16201 0
M  V30 2146 H 210.696 -5.28834 1.58237 0
M  V30 2147 H 213.172 -4.16095 0.0197215 0
M  V30 2148 H 212.048 -5.47305 -0.418188 0
M  V30 2149 H 212.309 -4.14493 -1.53778 0
M  V30 2150 N 211.368 -0.403325 -1.52352 0
M  V30 2151 C 212.331 0.413051 -2.25447 0
M  V30 2152 C 213.331 0.978513 -1.276 0
M  V30 2153 O 214.521 0.858305 -1.51587 0
M  V30 2154 C 211.653 1.58087 -3.02029 0
M  V30 2155 H 212.846 -0.227094 -2.99039 0
M  V30 2156 H 210.399 -0.155722 -1.55522 0
M  V30 2157 H 211.134 2.25804 -2.32772 0
M  V30 2158 H 210.919 1.18195 -3.73861 0
M  V30 2159 H 212.409 2.1585 -3.57489 0
M  V30 2160 N 212.846 1.57033 -0.133567 0
M  V30 2161 C 214.094 1.953 0.519848 0
M  V30 2162 C 214.415 1.01866 1.66278 0
M  V30 2163 O 213.685 0.0776513 1.95746 0
M  V30 2164 H 212.265 0.721091 0.195032 0
M  V30 2165 H 214.927 1.93809 -0.205921 0
M  V30 2166 H 214.023 2.98695 0.904854 0
M  V30 2167 N 214.325 -0.140222 1.56975 0
M  V30 2168 C 215.275 -1.17827 1.95194 0
M  V30 2169 C 216.259 -1.38195 0.824075 0
M  V30 2170 O 217.451 -1.39643 1.0876 0
M  V30 2171 C 214.58 -2.51024 2.34184 0
M  V30 2172 C 213.666 -2.3422 3.53556 0
M  V30 2173 N 214.057 -1.87185 4.69889 0
M  V30 2174 C 212.355 -2.64949 3.58773 0
M  V30 2175 C 213.056 -1.83586 5.5197 0
M  V30 2176 N 212.032 -2.2715 4.93866 0
M  V30 2177 H 215.834 -0.806817 2.82609 0
M  V30 2178 H 213.348 -0.348208 1.58623 0
M  V30 2179 H 215.345 -3.26074 2.59772 0
M  V30 2180 H 214.005 -2.88945 1.48124 0
M  V30 2181 H 215.016 -1.57048 4.93514 0
M  V30 2182 H 211.693 -3.067 2.8327 0
M  V30 2183 H 213.083 -1.48655 6.55249 0
M  V30 2184 N 215.803 -1.52179 -0.40978 0
M  V30 2185 C 216.733 -1.78435 -1.5061 0
M  V30 2186 C 217.714 -0.635295 -1.57791 0
M  V30 2187 O 218.899 -0.880823 -1.73076 0
M  V30 2188 C 216.029 -1.93444 -2.88439 0
M  V30 2189 C 214.983 -3.09038 -2.96108 0
M  V30 2190 C 214.309 -3.09268 -4.36185 0
M  V30 2191 C 215.609 -4.48508 -2.67652 0
M  V30 2192 H 217.303 -2.70237 -1.28889 0
M  V30 2193 H 214.849 -1.30036 -0.618605 0
M  V30 2194 H 216.802 -2.10394 -3.65119 0
M  V30 2195 H 215.526 -0.983129 -3.11452 0
M  V30 2196 H 214.185 -2.91837 -2.21872 0
M  V30 2197 H 213.833 -2.11861 -4.56206 0
M  V30 2198 H 213.533 -3.86907 -4.42241 0
M  V30 2199 H 215.057 -3.28348 -5.14801 0
M  V30 2200 H 216.471 -4.65918 -3.34056 0
M  V30 2201 H 214.868 -5.28059 -2.85085 0
M  V30 2202 H 215.938 -4.56649 -1.63095 0
M  V30 2203 N 217.281 0.66697 -1.42791 0
M  V30 2204 C 218.509 1.45505 -1.47091 0
M  V30 2205 C 218.924 1.8861 -0.0845873 0
M  V30 2206 O 218.281 1.58632 0.90234 0
M  V30 2207 C 218.332 2.69906 -2.40485 0
M  V30 2208 O 218.053 2.28608 -3.73725 0
M  V30 2209 C 219.554 3.63396 -2.53886 0
M  V30 2210 H 216.774 0.447459 -0.500022 0
M  V30 2211 H 219.318 0.818866 -1.8739 0
M  V30 2212 H 217.473 3.29696 -2.03419 0
M  V30 2213 H 217.887 3.08997 -4.23817 0
M  V30 2214 H 219.361 4.47387 -3.2334 0
M  V30 2215 H 219.838 4.09824 -1.57927 0
M  V30 2216 H 220.444 3.09495 -2.91706 0
M  V30 2217 N 218.759 1.29093 0.90403 0
M  V30 2218 C 220.008 1.16187 1.64874 0
M  V30 2219 C 220.321 -0.286742 1.93487 0
M  V30 2220 O 221.527 -0.537062 2.66135 0
M  V30 2221 C 219.983 2.03177 2.97064 0
M  V30 2222 C 219.591 3.52836 2.76062 0
M  V30 2223 C 221.335 1.98984 3.74974 0
M  V30 2224 C 219.242 4.31945 4.03952 0
M  V30 2225 H 218.172 0.431246 0.618501 0
M  V30 2226 H 220.823 1.53699 1.00243 0
M  V30 2227 H 219.205 1.5853 3.62883 0
M  V30 2228 H 220.379 4.05507 2.18863 0
M  V30 2229 H 218.694 3.58656 2.11553 0
M  V30 2230 H 221.291 2.55351 4.69787 0
M  V30 2231 H 221.634 0.968815 4.0487 0
M  V30 2232 H 222.167 2.41652 3.15989 0
M  V30 2233 H 218.906 5.34667 3.79225 0
M  V30 2234 H 218.426 3.84045 4.60727 0
M  V30 2235 H 220.105 4.42379 4.72133 0
M  V30 2236 N 220.237 -1.11381 1.11499 0
M  V30 2237 C 221.17 -2.16621 0.71769 0
M  V30 2238 C 222.148 -1.60058 -0.286413 0
M  V30 2239 O 223.332 -1.87613 -0.182689 0
M  V30 2240 C 220.459 -3.38646 0.0607265 0
M  V30 2241 C 219.505 -4.13874 1.03008 0
M  V30 2242 S 220.338 -4.70731 2.55289 0
M  V30 2243 C 221.494 -5.96079 1.90895 0
M  V30 2244 H 221.727 -2.49987 1.60915 0
M  V30 2245 H 219.26 -1.23015 0.933092 0
M  V30 2246 H 221.218 -4.09313 -0.311965 0
M  V30 2247 H 219.879 -3.03537 -0.807702 0
M  V30 2248 H 219.072 -5.01333 0.517853 0
M  V30 2249 H 218.674 -3.4897 1.34522 0
M  V30 2250 H 220.966 -6.65948 1.24577 0
M  V30 2251 H 221.909 -6.51946 2.76354 0
M  V30 2252 H 222.317 -5.47652 1.36885 0
M  V30 2253 N 221.715 -0.905404 -1.28997 0
M  V30 2254 C 222.945 -0.549049 -1.99171 0
M  V30 2255 C 223.353 0.87203 -1.67906 0
M  V30 2256 O 222.696 1.58796 -0.923561 0
M  V30 2257 C 222.758 -0.668306 -3.53234 0
M  V30 2258 C 222.422 -2.0574 -4.08069 0
M  V30 2259 C 223.419 -3.0292 -4.22534 0
M  V30 2260 C 221.104 -2.36833 -4.42962 0
M  V30 2261 C 223.098 -4.29314 -4.71135 0
M  V30 2262 C 220.785 -3.63467 -4.91258 0
M  V30 2263 C 221.783 -4.59522 -5.053 0
M  V30 2264 O 221.471 -5.83907 -5.52546 0
M  V30 2265 H 221.203 -0.208784 -0.64295 0
M  V30 2266 H 223.757 -1.21836 -1.65363 0
M  V30 2267 H 221.987 0.0580547 -3.86656 0
M  V30 2268 H 223.676 -0.320273 -4.04634 0
M  V30 2269 H 224.442 -2.80216 -3.95859 0
M  V30 2270 H 220.321 -1.62824 -4.31288 0
M  V30 2271 H 223.865 -5.04293 -4.8201 0
M  V30 2272 H 219.762 -3.86 -5.17372 0
M  V30 2273 H 220.53 -5.86578 -5.70849 0
M  V30 2274 N 223.193 1.4272 -0.668489 0
M  V30 2275 C 224.441 2.01226 -0.187769 0
M  V30 2276 C 224.762 1.53092 1.2078 0
M  V30 2277 O 224.032 0.74993 1.80977 0
M  V30 2278 H 222.612 0.744041 -0.0664272 0
M  V30 2279 H 225.274 1.74723 -0.863583 0
M  V30 2280 H 224.37 3.11556 -0.184166 0
M  V30 2281 N 224.671 0.411399 1.52136 0
M  V30 2282 C 225.601 -0.404015 2.29978 0
M  V30 2283 C 226.582 -1.04412 1.34284 0
M  V30 2284 O 227.767 -1.0527 1.63192 0
M  V30 2285 C 224.897 -1.5197 3.12286 0
M  V30 2286 C 223.851 -1.00448 4.16046 0
M  V30 2287 C 223.177 -2.21393 4.86712 0
M  V30 2288 C 224.477 -0.0569336 5.22269 0
M  V30 2289 H 226.171 0.245529 2.98392 0
M  V30 2290 H 223.717 0.119525 1.43503 0
M  V30 2291 H 225.67 -2.09715 3.6551 0
M  V30 2292 H 224.394 -2.19716 2.41646 0
M  V30 2293 H 223.053 -0.449421 3.63835 0
M  V30 2294 H 222.701 -2.87699 4.12599 0
M  V30 2295 H 222.401 -1.87571 5.56858 0
M  V30 2296 H 223.925 -2.7974 5.4275 0
M  V30 2297 H 225.339 -0.54325 5.7072 0
M  V30 2298 H 223.736 0.192594 5.99791 0
M  V30 2299 H 224.806 0.887663 4.76706 0
M  V30 2300 N 226.149 -1.5696 0.141893 0
M  V30 2301 C 227.565 -1.58151 -0.21456 0
M  V30 2302 C 227.765 -1.1559 -1.65049 0
M  V30 2303 O 226.821 -0.853832 -2.37626 0
M  V30 2304 C 228.134 -3.00674 0.0395576 0
M  V30 2305 C 229.682 -3.1299 -0.0245529 0
M  V30 2306 C 230.157 -4.57554 0.202167 0
M  V30 2307 N 231.648 -4.62961 0.148919 0
M  V30 2308 C 232.383 -5.7262 0.298924 0
M  V30 2309 N 231.879 -6.90947 0.50637 0
M  V30 2310 N 233.672 -5.61601 0.236886 0
M  V30 2311 H 225.823 -1.8292 1.07953 0
M  V30 2312 H 228.086 -0.846425 0.42693 0
M  V30 2313 H 227.792 -3.36183 1.03315 0
M  V30 2314 H 227.666 -3.70981 -0.682143 0
M  V30 2315 H 230.053 -2.77326 -1.00869 0
M  V30 2316 H 230.134 -2.4518 0.729396 0
M  V30 2317 H 229.778 -4.93922 1.18338 0
M  V30 2318 H 229.708 -5.23484 -0.572044 0
M  V30 2319 H 232.199 -3.77899 -0.00697015 0
M  V30 2320 H 232.512 -7.7038 0.611076 0
M  V30 2321 H 230.857 -6.92878 0.542628 0
M  V30 2322 H 234.048 -4.68039 0.0756209 0
M  V30 2323 H 234.221 -6.47015 0.357227 0
M  V30 2324 N 227.627 0.131896 -1.57047 0
M  V30 2325 C 228.875 0.840269 -1.83804 0
M  V30 2326 C 229.196 1.81017 -0.72512 0
M  V30 2327 O 228.466 1.94272 0.251995 0
M  V30 2328 H 227.046 0.313294 -0.678127 0
M  V30 2329 H 229.708 0.122294 -1.94516 0
M  V30 2330 H 228.804 1.39335 -2.79271 0
M  V30 2331 N 229.106 1.52395 0.401703 0
M  V30 2332 C 230.517 1.58899 0.980202 0
M  V30 2333 C 230.868 0.434032 1.91339 0
M  V30 2334 O 229.993 -0.444619 2.11783 0
M  V30 2335 C 230.588 2.87994 1.78451 0
M  V30 2336 C 229.147 2.96953 2.31292 0
M  V30 2337 C 228.294 2.53903 1.11483 0
M  V30 2338 H 231.245 1.57657 0.18168 0
M  V30 2339 H 231.266 2.73765 2.64259 0
M  V30 2340 H 230.778 3.72035 1.10506 0
M  V30 2341 H 228.879 2.17422 3.02586 0
M  V30 2342 H 228.992 4.01344 2.61649 0
M  V30 2343 H 227.356 2.07925 1.47104 0
M  V30 2344 H 228.139 3.40326 0.450928 0
M  V30 2345 N 230.584 -0.659388 1.43143 0
M  V30 2346 C 231.809 -1.45221 1.48073 0
M  V30 2347 C 232.234 -1.87845 0.097995 0
M  V30 2348 O 231.592 -1.56985 -0.90694 0
M  V30 2349 C 231.64 -2.66748 2.42647 0
M  V30 2350 O 230.744 -3.65583 1.90848 0
M  V30 2351 H 230.085 -0.435669 0.501088 0
M  V30 2352 H 232.615 -0.807432 1.87994 0
M  V30 2353 H 232.625 -3.14637 2.59745 0
M  V30 2354 H 231.3 -2.35067 3.43098 0
M  V30 2355 H 229.877 -3.24693 1.83381 0
M  V30 2356 N 232.062 -1.29571 -0.897171 0
M  V30 2357 C 233.311 -1.1706 -1.64256 0
M  V30 2358 C 233.624 0.276476 -1.93636 0
M  V30 2359 O 234.83 0.52294 -2.66416 0
M  V30 2360 C 233.286 -2.0475 -2.95982 0
M  V30 2361 C 232.894 -3.54295 -2.74187 0
M  V30 2362 C 234.638 -2.0097 -3.73914 0
M  V30 2363 C 232.545 -4.34081 -4.01656 0
M  V30 2364 H 231.475 -0.43452 -0.616205 0
M  V30 2365 H 234.126 -1.54229 -0.994268 0
M  V30 2366 H 232.508 -1.60452 -3.62038 0
M  V30 2367 H 233.682 -4.06662 -2.1671 0
M  V30 2368 H 231.997 -3.59773 -2.09648 0
M  V30 2369 H 234.594 -2.57838 -4.68427 0
M  V30 2370 H 234.937 -0.990273 -4.0435 0
M  V30 2371 H 235.47 -2.43325 -3.14703 0
M  V30 2372 H 232.209 -5.36671 -3.76384 0
M  V30 2373 H 231.729 -3.86483 -4.58684 0
M  V30 2374 H 233.408 -4.44877 -4.69781 0
M  V30 2375 N 233.54 1.10788 -1.12088 0
M  V30 2376 C 234.765 1.87002 -0.896949 0
M  V30 2377 C 235.19 1.79933 0.548261 0
M  V30 2378 O 234.548 1.16662 1.38779 0
M  V30 2379 C 234.596 3.3349 -1.37174 0
M  V30 2380 O 233.7 4.08745 -0.547831 0
M  V30 2381 H 233.041 0.580397 -0.322545 0
M  V30 2382 H 235.571 1.39996 -1.49206 0
M  V30 2383 H 235.581 3.84339 -1.36922 0
M  V30 2384 H 234.256 3.37951 -2.42408 0
M  V30 2385 H 232.833 3.6776 -0.617034 0
M  V30 2386 N 235.018 0.912232 1.28515 0
M  V30 2387 C 236.267 0.540504 1.94323 0
M  V30 2388 C 236.58 -0.920044 1.72611 0
M  V30 2389 O 237.786 -1.39986 2.32629 0
M  V30 2390 C 236.242 0.915803 3.48053 0
M  V30 2391 C 235.85 2.39598 3.78546 0
M  V30 2392 C 237.594 0.614588 4.20027 0
M  V30 2393 C 235.501 2.71148 5.25578 0
M  V30 2394 H 234.431 0.198418 0.727424 0
M  V30 2395 H 237.082 1.11094 1.46049 0
M  V30 2396 H 235.464 0.274168 3.9505 0
M  V30 2397 H 236.638 3.08422 3.42364 0
M  V30 2398 H 234.953 2.66749 3.1974 0
M  V30 2399 H 237.55 0.827002 5.28266 0
M  V30 2400 H 237.893 -0.447531 4.13887 0
M  V30 2401 H 238.426 1.21462 3.78803 0
M  V30 2402 H 235.165 3.76207 5.36794 0
M  V30 2403 H 234.685 2.0696 5.62963 0
M  V30 2404 H 236.364 2.58072 5.93302 0
M  V30 2405 N 236.496 -1.42363 0.676048 0
M  V30 2406 C 237.459 -2.29199 0.00766941 0
M  V30 2407 C 238.459 -1.43389 -0.727745 0
M  V30 2408 O 239.649 -1.64764 -0.56556 0
M  V30 2409 C 236.781 -3.2591 -0.999785 0
M  V30 2410 H 237.974 -2.89794 0.771988 0
M  V30 2411 H 235.527 -1.50024 0.438468 0
M  V30 2412 H 236.262 -2.70256 -1.79255 0
M  V30 2413 H 236.047 -3.89202 -0.475829 0
M  V30 2414 H 237.537 -3.91028 -1.46583 0
M  V30 2415 N 237.974 -0.419461 -1.51915 0
M  V30 2416 C 239.202 0.152136 -2.0634 0
M  V30 2417 C 239.617 1.37988 -1.28859 0
M  V30 2418 O 238.974 1.79243 -0.343232 0
M  V30 2419 C 239.025 0.492266 -3.58133 0
M  V30 2420 O 238.746 -0.686736 -4.32684 0
M  V30 2421 C 240.247 1.11648 -4.2901 0
M  V30 2422 H 237.467 0.0158325 -0.670813 0
M  V30 2423 H 240.011 -0.593394 -1.95702 0
M  V30 2424 H 238.166 1.18769 -3.68745 0
M  V30 2425 H 238.58 -0.400341 -5.2297 0
M  V30 2426 H 240.054 1.3046 -5.36362 0
M  V30 2427 H 240.531 2.09251 -3.86148 0
M  V30 2428 H 241.137 0.460958 -4.22795 0
M  V30 2429 N 239.452 1.56882 -0.150215 0
M  V30 2430 C 240.415 2.1573 0.774157 0
M  V30 2431 C 241.415 1.0999 1.17298 0
M  V30 2432 O 242.605 1.35613 1.09338 0
M  V30 2433 C 239.737 2.72302 2.05096 0
M  V30 2434 H 240.93 2.98752 0.262201 0
M  V30 2435 H 238.483 1.55985 0.099248 0
M  V30 2436 H 239.218 1.92956 2.6065 0
M  V30 2437 H 239.003 3.49665 1.77416 0
M  V30 2438 H 240.493 3.17632 2.71109 0
M  V30 2439 N 240.93 -0.123565 1.57115 0
M  V30 2440 C 242.17 -0.838097 1.86428 0
M  V30 2441 C 242.534 -1.77266 0.737611 0
M  V30 2442 O 243.735 -2.52842 0.912389 0
M  V30 2443 C 242.006 -1.57219 3.20962 0
M  V30 2444 S 243.565 -2.32893 3.71896 0
M  V30 2445 H 240.383 -0.279811 0.653626 0
M  V30 2446 H 242.985 -0.0967034 1.95261 0
M  V30 2447 H 241.689 -0.877522 4.00909 0
M  V30 2448 H 241.22 -2.35405 3.15195 0
M  V30 2449 H 243.235 -3.5853 3.43032 0
M  V30 2450 N 242.408 -1.52605 -0.393616 0
M  V30 2451 C 243.636 -1.71294 -1.16043 0
M  V30 2452 C 244.051 -0.429259 -1.83855 0
M  V30 2453 O 243.408 0.595921 -1.72496 0
M  V30 2454 C 243.459 -2.8593 -2.21193 0
M  V30 2455 O 243.18 -4.09329 -1.56146 0
M  V30 2456 C 244.681 -3.16259 -3.10636 0
M  V30 2457 H 241.901 -0.573641 -0.348104 0
M  V30 2458 H 244.445 -1.99234 -0.461092 0
M  V30 2459 H 242.6 -2.60465 -2.86769 0
M  V30 2460 H 243.014 -4.73323 -2.25978 0
M  V30 2461 H 244.488 -3.99946 -3.80456 0
M  V30 2462 H 244.965 -2.3045 -3.73884 0
M  V30 2463 H 245.571 -3.43547 -2.50711 0
M  V30 2464 N 243.887 0.651787 -1.4349 0
M  V30 2465 C 245.112 1.44434 -1.48841 0
M  V30 2466 C 245.537 1.8779 -0.107955 0
M  V30 2467 O 244.895 1.57464 0.898602 0
M  V30 2468 C 244.943 2.65458 -2.44059 0
M  V30 2469 O 244.047 3.64566 -1.92784 0
M  V30 2470 H 243.388 0.433005 -0.503391 0
M  V30 2471 H 245.918 0.797451 -1.88419 0
M  V30 2472 H 245.928 3.13255 -2.6141 0
M  V30 2473 H 244.603 2.33244 -3.4434 0
M  V30 2474 H 243.18 3.23716 -1.851 0
M  V30 2475 N 245.365 1.30045 0.890287 0
M  V30 2476 C 246.613 1.18327 1.63839 0
M  V30 2477 C 246.934 -0.263455 1.93212 0
M  V30 2478 O 246.204 -1.17856 1.56482 0
M  V30 2479 H 244.784 0.434933 0.607324 0
M  V30 2480 H 247.446 1.631 1.06698 0
M  V30 2481 H 246.542 1.74024 2.59079 0
M  V30 2482 N 246.843 -1.10192 1.12674 0
M  V30 2483 C 248.089 -1.82475 0.884915 0
M  V30 2484 C 248.422 -1.85093 -0.58773 0
M  V30 2485 O 247.697 -1.3134 -1.43457 0
M  V30 2486 C 247.98 -3.29018 1.46353 0
M  V30 2487 C 247.833 -3.34718 3.00473 0
M  V30 2488 C 249.152 -4.25473 1.12519 0
M  V30 2489 H 246.271 -0.662492 0.322915 0
M  V30 2490 H 248.913 -1.2913 1.39375 0
M  V30 2491 H 247.063 -3.74576 1.03077 0
M  V30 2492 H 248.735 -2.97622 3.52447 0
M  V30 2493 H 246.978 -2.74541 3.35872 0
M  V30 2494 H 247.649 -4.37918 3.36053 0
M  V30 2495 H 250.125 -3.88161 1.499 0
M  V30 2496 H 249.001 -5.26365 1.55663 0
M  V30 2497 H 249.262 -4.42084 0.0377407 0
M  V30 2498 N 248.321 -0.919034 -1.28029 0
M  V30 2499 C 249.271 -0.382574 -2.24767 0
M  V30 2500 C 250.255 0.508286 -1.52661 0
M  V30 2501 O 251.447 0.347145 -1.73562 0
M  V30 2502 C 248.576 0.371432 -3.41285 0
M  V30 2503 C 247.662 -0.535449 -4.20706 0
M  V30 2504 N 248.053 -1.65141 -4.78082 0
M  V30 2505 C 246.351 -0.336824 -4.44726 0
M  V30 2506 C 247.052 -2.21475 -5.37888 0
M  V30 2507 N 246.028 -1.50537 -5.22341 0
M  V30 2508 H 249.83 -1.23477 -2.66703 0
M  V30 2509 H 247.344 -0.772299 -1.42861 0
M  V30 2510 H 249.341 0.772638 -4.09678 0
M  V30 2511 H 248.001 1.22066 -3.00882 0
M  V30 2512 H 249.012 -2.03392 -4.7629 0
M  V30 2513 H 245.689 0.47246 -4.14818 0
M  V30 2514 H 247.079 -3.15379 -5.93284 0
M  V30 2515 N 249.799 1.42003 -0.683588 0
M  V30 2516 C 250.747 2.326 0.000815408 0
M  V30 2517 C 251.741 1.50308 0.781278 0
M  V30 2518 O 252.947 1.66322 0.688251 0
M  V30 2519 H 249.322 0.751758 0.0190616 0
M  V30 2520 H 251.293 2.88011 -0.780528 0
M  V30 2521 C 250.042 3.34978 0.93195 0
M  V30 2522 H 249.365 3.98345 0.340817 0
M  V30 2523 H 250.805 4.00936 1.37936 0
M  V30 2524 C 249.264 2.67925 2.04249 0
M  V30 2525 O 249.794 2.51788 3.12995 0
M  V30 2526 N 248 2.2681 1.81675 0
M  V30 2527 H 247.547 2.40135 0.932363 0
M  V30 2528 H 247.505 1.8228 2.56167 0
M  V30 2529 N 251.277 0.427512 1.51691 0
M  V30 2530 C 252.526 -0.143679 2.01188 0
M  V30 2531 C 252.839 -1.44642 1.31674 0
M  V30 2532 O 254.045 -2.09997 1.72086 0
M  V30 2533 C 252.501 -0.306602 3.58592 0
M  V30 2534 C 252.109 0.985125 4.37035 0
M  V30 2535 C 253.853 -0.832091 4.16265 0
M  V30 2536 C 251.76 0.788382 5.86122 0
M  V30 2537 H 250.69 -0.0574701 0.751807 0
M  V30 2538 H 253.341 0.555772 1.74881 0
M  V30 2539 H 251.723 -1.06882 3.81303 0
M  V30 2540 H 252.897 1.75492 4.26074 0
M  V30 2541 H 251.212 1.4384 3.90767 0
M  V30 2542 H 253.809 -0.995617 5.25349 0
M  V30 2543 H 254.152 -1.81186 3.74803 0
M  V30 2544 H 254.685 -0.128444 3.97593 0
M  V30 2545 H 251.424 1.74025 6.31978 0
M  V30 2546 H 250.944 0.0582143 5.99772 0
M  V30 2547 H 252.623 0.437722 6.45518 0
M  V30 2548 N 252.755 -1.56801 0.158532 0
M  V30 2549 C 254.003 -1.96102 -0.488712 0
M  V30 2550 C 254.324 -1.04498 -1.64636 0
M  V30 2551 O 253.594 -0.108783 -1.95598 0
M  V30 2552 H 252.174 -0.724102 -0.183535 0
M  V30 2553 H 254.836 -1.93457 0.236728 0
M  V30 2554 H 253.932 -3.00097 -0.857219 0
M  V30 2555 N 254.233 0.115231 -1.57178 0
M  V30 2556 C 255.183 1.14707 -1.97044 0
M  V30 2557 C 256.167 1.36866 -0.845957 0
M  V30 2558 O 257.359 1.37895 -1.10968 0
M  V30 2559 C 254.488 2.47266 -2.38148 0
M  V30 2560 C 253.574 2.28566 -3.57237 0
M  V30 2561 N 253.965 1.79685 -4.72807 0
M  V30 2562 C 252.263 2.59208 -3.62943 0
M  V30 2563 C 252.964 1.74781 -5.54821 0
M  V30 2564 N 251.94 2.19264 -4.97417 0
M  V30 2565 H 255.742 0.761754 -2.83857 0
M  V30 2566 H 253.256 0.322928 -1.59157 0
M  V30 2567 H 255.253 3.219 -2.64927 0
M  V30 2568 H 253.913 2.86552 -1.52702 0
M  V30 2569 H 254.924 1.49177 -4.9595 0
M  V30 2570 H 251.601 3.02154 -2.88113 0
M  V30 2571 H 252.991 1.38212 -6.57531 0
M  V30 2572 N 255.711 1.52812 0.385517 0
M  V30 2573 C 256.674 1.77188 1.45386 0
M  V30 2574 C 257.674 0.641953 1.4743 0
M  V30 2575 O 258.864 0.910033 1.4854 0
M  V30 2576 C 255.996 1.87582 2.8465 0
M  V30 2577 H 257.189 2.72583 1.25054 0
M  V30 2578 H 254.742 1.43586 0.617467 0
M  V30 2579 H 255.477 0.941849 3.10322 0
M  V30 2580 H 255.262 2.69748 2.84567 0
M  V30 2581 H 256.752 2.08102 3.62054 0
M  V30 2582 N 257.189 -0.644168 1.43834 0
M  V30 2583 C 258.152 -1.73857 1.49353 0
M  V30 2584 C 259.152 -1.56315 0.377112 0
M  V30 2585 O 260.342 -1.62048 0.639226 0
M  V30 2586 C 257.474 -3.12819 1.35488 0
M  V30 2587 H 258.667 -1.70342 2.46827 0
M  V30 2588 H 256.22 -0.856652 1.30733 0
M  V30 2589 H 256.955 -3.2194 0.390569 0
M  V30 2590 H 256.74 -3.26958 2.16428 0
M  V30 2591 H 258.23 -3.92606 1.42302 0
M  V30 2592 N 258.668 -1.30515 -0.883378 0
M  V30 2593 C 260.084 -1.08881 -1.16692 0
M  V30 2594 C 260.284 0.149409 -2.00945 0
M  V30 2595 O 259.34 0.84257 -2.38027 0
M  V30 2596 C 260.653 -2.35319 -1.87204 0
M  V30 2597 C 262.201 -2.40799 -1.99962 0
M  V30 2598 C 262.676 -3.67083 -2.73887 0
M  V30 2599 N 264.167 -3.679 -2.81432 0
M  V30 2600 C 264.902 -4.62303 -3.3921 0
M  V30 2601 N 264.398 -5.67052 -3.98025 0
M  V30 2602 N 266.191 -4.49845 -3.3704 0
M  V30 2603 H 258.342 -2.09951 -0.321633 0
M  V30 2604 H 260.605 -0.92556 -0.205043 0
M  V30 2605 H 260.311 -3.25689 -1.3274 0
M  V30 2606 H 260.185 -2.44089 -2.87577 0
M  V30 2607 H 262.572 -1.50907 -2.53597 0
M  V30 2608 H 262.653 -2.36003 -0.98673 0
M  V30 2609 H 262.297 -4.57334 -2.20925 0
M  V30 2610 H 262.227 -3.69141 -3.75556 0
M  V30 2611 H 264.718 -2.92171 -2.39676 0
M  V30 2612 H 265.031 -6.35184 -4.40183 0
M  V30 2613 H 263.376 -5.70842 -3.96439 0
M  V30 2614 H 266.567 -3.67194 -2.90321 0
M  V30 2615 H 266.74 -5.23597 -3.81772 0
M  V30 2616 N 260.146 1.09593 -1.13257 0
M  V30 2617 C 261.395 1.81105 -0.887917 0
M  V30 2618 C 261.708 1.86563 0.587672 0
M  V30 2619 O 262.914 2.54367 0.949204 0
M  V30 2620 C 261.37 3.25338 -1.53895 0
M  V30 2621 C 260.978 3.28151 -3.04994 0
M  V30 2622 C 262.722 4.01617 -1.37492 0
M  V30 2623 C 260.629 4.66897 -3.6299 0
M  V30 2624 H 259.559 0.678661 -0.328534 0
M  V30 2625 H 262.21 1.23183 -1.36008 0
M  V30 2626 H 260.592 3.8331 -0.994446 0
M  V30 2627 H 261.766 2.79953 -3.66009 0
M  V30 2628 H 260.081 2.65361 -3.20893 0
M  V30 2629 H 262.678 5.04119 -1.78235 0
M  V30 2630 H 263.021 4.15072 -0.31957 0
M  V30 2631 H 263.554 3.50082 -1.88912 0
M  V30 2632 H 260.293 4.58643 -4.68323 0
M  V30 2633 H 259.813 5.15426 -3.06752 0
M  V30 2634 H 261.492 5.3587 -3.62563 0
M  V30 2635 N 261.624 0.925811 1.2754 0
M  V30 2636 C 262.873 0.561084 1.93739 0
M  V30 2637 C 263.186 -0.901685 1.73577 0
M  V30 2638 O 264.392 -1.37511 2.34101 0
M  V30 2639 C 262.848 0.952668 3.47062 0
M  V30 2640 C 262.456 2.43599 3.75983 0
M  V30 2641 C 264.2 0.659103 4.19352 0
M  V30 2642 C 262.107 2.76707 5.22673 0
M  V30 2643 H 261.037 0.206122 0.725279 0
M  V30 2644 H 263.688 1.12637 1.44863 0
M  V30 2645 H 262.07 0.316053 3.94737 0
M  V30 2646 H 263.244 3.12035 3.39073 0
M  V30 2647 H 261.559 2.70125 3.16893 0
M  V30 2648 H 264.156 0.882985 5.27359 0
M  V30 2649 H 264.499 -0.403607 4.14339 0
M  V30 2650 H 265.032 1.25473 3.77494 0
M  V30 2651 H 261.771 3.8188 5.32774 0
M  V30 2652 H 261.291 2.12919 5.60737 0
M  V30 2653 H 262.97 2.6435 5.90532 0
M  V30 2654 N 263.102 -1.41638 0.69111 0
M  V30 2655 C 264.065 -2.29178 0.0319786 0
M  V30 2656 C 265.065 -1.44153 -0.712496 0
M  V30 2657 O 266.255 -1.65354 -0.548053 0
M  V30 2658 C 263.387 -3.26952 -0.965161 0
M  V30 2659 H 264.58 -2.88959 0.802681 0
M  V30 2660 H 262.133 -1.4955 0.454356 0
M  V30 2661 H 262.868 -2.72142 -1.76378 0
M  V30 2662 H 262.653 -3.89685 -0.434522 0
M  V30 2663 H 264.143 -3.92561 -1.42428 0
M  V30 2664 N 264.58 -0.43555 -1.51462 0
M  V30 2665 C 265.81 0.130053 -2.0619 0
M  V30 2666 C 266.218 1.37164 -1.30317 0
M  V30 2667 O 265.561 1.80225 -0.355598 0
M  V30 2668 C 265.623 0.519418 -3.55728 0
M  V30 2669 C 265.287 -0.615119 -4.52841 0
M  V30 2670 C 266.284 -1.48671 -4.9819 0
M  V30 2671 C 263.969 -0.795341 -4.95963 0
M  V30 2672 C 265.963 -2.52324 -5.8533 0
M  V30 2673 C 263.65 -1.83514 -5.82894 0
M  V30 2674 C 264.648 -2.69748 -6.27475 0
M  V30 2675 O 264.336 -3.71944 -7.1268 0
M  V30 2676 H 264.068 0.0121612 -0.675891 0
M  V30 2677 H 266.622 -0.6129 -1.96043 0
M  V30 2678 H 264.852 1.31505 -3.63653 0
M  V30 2679 H 266.541 1.01597 -3.92979 0
M  V30 2680 H 267.307 -1.359 -4.65571 0
M  V30 2681 H 263.186 -0.133713 -4.60806 0
M  V30 2682 H 266.73 -3.19665 -6.20048 0
M  V30 2683 H 262.627 -1.96306 -6.14926 0
M  V30 2684 H 263.395 -3.68503 -7.30854 0
M  V30 2685 N 266.058 1.56714 -0.166846 0
M  V30 2686 C 267.306 1.96358 0.478305 0
M  V30 2687 C 267.627 1.0537 1.6408 0
M  V30 2688 O 266.897 0.119154 1.95537 0
M  V30 2689 H 265.477 0.725065 0.179692 0
M  V30 2690 H 268.139 1.93329 -0.246985 0
M  V30 2691 H 267.235 3.00547 0.841292 0
M  V30 2692 N 267.536 -0.106894 1.57237 0
M  V30 2693 C 268.813 -0.843526 1.76477 0
M  V30 2694 C 269.193 -1.97499 0.745464 0
M  V30 2695 O 268.541 -2.27357 -0.228306 0
M  V30 2696 C 268.751 -1.34903 3.21873 0
M  V30 2697 C 270.099 -1.79654 3.8472 0
M  V30 2698 O 271.123 -1.44554 3.2555 0
M  V30 2699 O 269.982 -2.44515 4.88748 0
M  V30 2700 H 267.076 -0.401468 0.723016 0
M  V30 2701 H 269.622 -0.0896927 1.69463 0
M  V30 2702 H 268.394 -0.53781 3.87586 0
M  V30 2703 H 268.017 -2.16522 3.33473 0
M  V30 2704 N 269.014 -1.53014 -0.377408 0
M  V30 2705 C 269.977 -1.77957 -1.44444 0
M  V30 2706 C 270.977 -0.649763 -1.47087 0
M  V30 2707 O 272.167 -0.917897 -1.48055 0
M  V30 2708 C 269.299 -1.89089 -2.83651 0
M  V30 2709 H 270.492 -2.73243 -1.23606 0
M  V30 2710 H 268.045 -1.43912 -0.609844 0
M  V30 2711 H 268.78 -0.958293 -3.09818 0
M  V30 2712 H 268.565 -2.71254 -2.83132 0
M  V30 2713 H 270.055 -2.1002 -3.60945 0
M  V30 2714 N 270.492 0.636531 -1.44174 0
M  V30 2715 C 271.769 1.39463 -1.37148 0
M  V30 2716 C 272.149 2.11082 -0.027507 0
M  V30 2717 O 271.497 2.05954 0.989716 0
M  V30 2718 C 271.707 2.36552 -2.56601 0
M  V30 2719 C 273.055 3.00048 -3.00427 0
M  V30 2720 O 274.079 2.46878 -2.56767 0
M  V30 2721 O 272.938 3.96488 -3.76111 0
M  V30 2722 H 270.032 0.623903 -0.542839 0
M  V30 2723 H 272.578 0.662039 -1.56253 0
M  V30 2724 H 271.35 1.82692 -3.46034 0
M  V30 2725 H 270.973 3.17236 -2.39681 0
M  V30 2726 N 271.97 1.30982 0.876444 0
M  V30 2727 C 273.216 1.20474 1.63138 0
M  V30 2728 C 273.549 -0.238096 1.92735 0
M  V30 2729 O 272.824 -1.1692 1.55435 0
M  V30 2730 C 273.107 2.04244 2.96574 0
M  V30 2731 C 272.96 3.56793 2.73896 0
M  V30 2732 C 274.279 1.88684 3.97601 0
M  V30 2733 H 271.398 0.439001 0.591985 0
M  V30 2734 H 274.04 1.60704 1.01361 0
M  V30 2735 H 272.19 1.70063 3.493 0
M  V30 2736 H 273.862 4.01077 2.27892 0
M  V30 2737 H 272.105 3.80548 2.08245 0
M  V30 2738 H 272.776 4.10706 3.68815 0
M  V30 2739 H 275.252 2.18584 3.54062 0
M  V30 2740 H 274.128 2.4961 4.88862 0
M  V30 2741 H 274.389 0.848343 4.33884 0
M  V30 2742 N 273.449 -1.08991 1.13837 0
M  V30 2743 C 274.382 -2.15049 0.763477 0
M  V30 2744 C 275.36 -1.60629 -0.252398 0
M  V30 2745 O 276.544 -1.87958 -0.142853 0
M  V30 2746 C 273.671 -3.38441 0.132545 0
M  V30 2747 C 272.717 -4.11596 1.11763 0
M  V30 2748 S 273.55 -4.6521 2.65216 0
M  V30 2749 C 274.706 -5.91896 2.03495 0
M  V30 2750 H 274.939 -2.46518 1.66182 0
M  V30 2751 H 272.472 -1.21008 0.958976 0
M  V30 2752 H 274.43 -4.09883 -0.225074 0
M  V30 2753 H 273.091 -3.05182 -0.743135 0
M  V30 2754 H 272.284 -5.00121 0.624076 0
M  V30 2755 H 271.886 -3.46038 1.41894 0
M  V30 2756 H 274.178 -6.63156 1.38675 0
M  V30 2757 H 275.121 -6.45938 2.9012 0
M  V30 2758 H 275.529 -5.44625 1.48471 0
M  V30 2759 N 274.927 -0.932562 -1.27047 0
M  V30 2760 C 276.173 -0.576412 -1.94436 0
M  V30 2761 C 276.506 0.880891 -1.73072 0
M  V30 2762 O 275.781 1.62905 -1.06264 0
M  V30 2763 C 276.064 -0.909031 -3.48437 0
M  V30 2764 C 275.917 -2.42044 -3.79123 0
M  V30 2765 C 277.236 -0.418341 -4.38107 0
M  V30 2766 H 274.355 -0.210888 -0.706184 0
M  V30 2767 H 276.997 -1.16522 -1.50075 0
M  V30 2768 H 275.147 -0.407947 -3.86352 0
M  V30 2769 H 276.819 -2.99359 -3.50973 0
M  V30 2770 H 275.062 -2.86758 -3.25503 0
M  V30 2771 H 275.733 -2.6037 -4.86736 0
M  V30 2772 H 278.209 -0.847856 -4.0737 0
M  V30 2773 H 277.085 -0.679981 -5.44672 0
M  V30 2774 H 277.346 0.681642 -4.36814 0
M  V30 2775 N 276.405 1.4127 -0.698611 0
M  V30 2776 C 277.368 2.29158 -0.044132 0
M  V30 2777 C 278.368 1.44529 0.704841 0
M  V30 2778 O 279.558 1.65643 0.539276 0
M  V30 2779 C 276.69 3.27459 0.947809 0
M  V30 2780 H 277.883 2.88529 -0.817994 0
M  V30 2781 H 275.436 1.49307 -0.46228 0
M  V30 2782 H 276.171 2.73073 1.74933 0
M  V30 2783 H 275.956 3.8991 0.41385 0
M  V30 2784 H 277.446 3.93311 1.40344 0
M  V30 2785 N 277.883 0.443576 1.51229 0
M  V30 2786 C 279.131 -0.120557 2.0174 0
M  V30 2787 C 279.452 -1.42665 1.32935 0
M  V30 2788 O 278.722 -1.9028 0.465866 0
M  V30 2789 H 277.302 -0.0475426 0.745486 0
M  V30 2790 H 279.964 0.587711 1.85828 0
M  V30 2791 H 279.06 -0.291972 3.10731 0
M  V30 2792 N 279.361 -1.56624 0.175154 0
M  V30 2793 C 280.609 -1.96609 -0.467885 0
M  V30 2794 C 280.93 -1.06238 -1.63519 0
M  V30 2795 O 280.2 -0.129523 -1.95471 0
M  V30 2796 H 278.78 -0.726008 -0.175845 0
M  V30 2797 H 281.442 -1.93195 0.257234 0
M  V30 2798 H 280.538 -3.00989 -0.825342 0
M  V30 2799 N 280.839 0.0985539 -1.57292 0
M  V30 2800 C 281.802 1.10402 -2.00858 0
M  V30 2801 C 282.802 1.33146 -0.901593 0
M  V30 2802 O 283.992 1.29318 -1.16716 0
M  V30 2803 C 281.124 2.45394 -2.36632 0
M  V30 2804 H 282.317 0.729099 -2.90902 0
M  V30 2805 H 279.87 0.343495 -1.52479 0
M  V30 2806 H 280.605 2.87769 -1.49531 0
M  V30 2807 H 280.39 2.30235 -3.17387 0
M  V30 2808 H 281.88 3.17718 -2.71007 0
M  V30 2809 N 282.317 1.53212 0.369288 0
M  V30 2810 C 283.227 1.82342 1.47609 0
M  V30 2811 C 284.243 0.711532 1.58787 0
M  V30 2812 O 285.419 1.0012 1.74751 0
M  V30 2813 C 282.484 2.00393 2.8292 0
M  V30 2814 C 281.545 3.24297 2.81301 0
M  V30 2815 C 280.778 3.41478 4.10157 0
M  V30 2816 O 281.001 2.63033 5.06132 0
M  V30 2817 O 279.935 4.34817 4.16194 0
M  V30 2818 H 283.761 2.76366 1.25918 0
M  V30 2819 H 281.346 1.38547 0.559034 0
M  V30 2820 H 283.228 2.13859 3.63101 0
M  V30 2821 H 281.903 1.09559 3.04596 0
M  V30 2822 H 280.81 3.16257 1.99831 0
M  V30 2823 H 282.143 4.15041 2.64578 0
M  V30 2824 N 283.795 -0.628877 1.44509 0
M  V30 2825 C 284.742 -1.74074 1.51549 0
M  V30 2826 C 285.712 -1.62084 0.363021 0
M  V30 2827 O 286.897 -1.81975 0.573567 0
M  V30 2828 C 284.037 -3.12328 1.46784 0
M  V30 2829 C 283.15 -3.35277 2.72422 0
M  V30 2830 C 282.285 -4.63515 2.59475 0
M  V30 2831 C 281.324 -4.7965 3.80266 0
M  V30 2832 N 280.461 -5.99168 3.65981 0
M  V30 2833 H 285.301 -1.67392 2.46544 0
M  V30 2834 H 282.838 -0.816527 1.22357 0
M  V30 2835 H 284.796 -3.92286 1.42012 0
M  V30 2836 H 283.426 -3.18018 0.553544 0
M  V30 2837 H 282.478 -2.49242 2.87372 0
M  V30 2838 H 283.79 -3.43078 3.62076 0
M  V30 2839 H 282.944 -5.51638 2.52548 0
M  V30 2840 H 281.683 -4.58076 1.67384 0
M  V30 2841 H 280.688 -3.89957 3.87574 0
M  V30 2842 H 281.913 -4.86902 4.73395 0
M  V30 2843 H 279.859 -5.94814 2.76644 0
M  V30 2844 H 279.776 -6.08035 4.49254 0
M  V30 2845 H 281.044 -6.89846 3.6295 0
M  V30 2846 N 285.273 -1.31445 -0.869486 0
M  V30 2847 C 286.236 -1.19094 -1.9583 0
M  V30 2848 C 287.236 -0.117906 -1.60367 0
M  V30 2849 O 288.426 -0.367208 -1.70286 0
M  V30 2850 C 285.558 -0.828165 -3.30688 0
M  V30 2851 H 286.751 -2.15842 -2.08212 0
M  V30 2852 H 284.304 -1.15063 -1.05784 0
M  V30 2853 H 285.039 0.138142 -3.24006 0
M  V30 2854 H 284.824 -1.6038 -3.578 0
M  V30 2855 H 286.314 -0.765658 -4.10521 0
M  V30 2856 N 286.751 1.08385 -1.14413 0
M  V30 2857 C 287.976 1.85057 -0.936413 0
M  V30 2858 C 288.401 1.81055 0.509971 0
M  V30 2859 O 287.759 1.1958 1.36273 0
M  V30 2860 C 287.807 3.30505 -1.44217 0
M  V30 2861 O 286.911 4.07491 -0.634409 0
M  V30 2862 H 286.252 0.573425 -0.334784 0
M  V30 2863 H 288.782 1.36799 -1.52142 0
M  V30 2864 H 288.792 3.81348 -1.45043 0
M  V30 2865 H 287.467 3.32734 -2.49522 0
M  V30 2866 H 286.044 3.66368 -0.694902 0
M  V30 2867 N 288.23 0.939286 1.26551 0
M  V30 2868 C 289.458 0.602536 1.97932 0
M  V30 2869 C 289.873 -0.82206 1.69964 0
M  V30 2870 O 289.23 -1.54789 0.966784 0
M  V30 2871 C 289.281 0.832946 3.51773 0
M  V30 2872 O 289.002 2.20151 3.78768 0
M  V30 2873 C 290.503 0.506483 4.40397 0
M  V30 2874 H 287.723 0.227248 0.631347 0
M  V30 2875 H 290.267 1.25948 1.61113 0
M  V30 2876 H 288.422 0.222644 3.8676 0
M  V30 2877 H 288.836 2.26013 4.73306 0
M  V30 2878 H 290.31 0.718333 5.47306 0
M  V30 2879 H 290.787 -0.558451 4.35635 0
M  V30 2880 H 291.393 1.09543 4.10951 0
M  V30 2881 N 289.708 -1.40897 0.706093 0
M  V30 2882 C 291.119 -1.84023 0.315052 0
M  V30 2883 C 291.47 -1.5906 -1.14866 0
M  V30 2884 O 290.595 -1.06651 -1.88293 0
M  V30 2885 C 291.19 -3.34055 0.565038 0
M  V30 2886 C 289.749 -3.7571 0.227806 0
M  V30 2887 C 288.896 -2.64204 0.842122 0
M  V30 2888 H 291.847 -1.303 0.905963 0
M  V30 2889 H 291.868 -3.80107 -0.172843 0
M  V30 2890 H 291.38 -3.52192 1.63042 0
M  V30 2891 H 289.481 -3.63172 -0.832895 0
M  V30 2892 H 289.594 -4.74103 0.690174 0
M  V30 2893 H 287.958 -2.53255 0.270893 0
M  V30 2894 H 288.741 -2.85155 1.91158 0
M  V30 2895 N 291.186 -0.45159 -1.50991 0
M  V30 2896 C 292.116 0.342898 -2.30969 0
M  V30 2897 C 293.097 1.00815 -1.37005 0
M  V30 2898 O 294.282 1.00907 -1.65926 0
M  V30 2899 C 291.412 1.43637 -3.16205 0
M  V30 2900 C 290.366 0.893818 -4.18563 0
M  V30 2901 C 289.692 2.08411 -4.92411 0
M  V30 2902 C 290.992 -0.0815568 -5.22236 0
M  V30 2903 H 292.686 -0.324556 -2.97636 0
M  V30 2904 H 290.232 -0.157531 -1.43136 0
M  V30 2905 H 292.185 1.9995 -3.70942 0
M  V30 2906 H 290.909 2.13232 -2.47386 0
M  V30 2907 H 289.568 0.352798 -3.64898 0
M  V30 2908 H 289.216 2.76658 -4.20082 0
M  V30 2909 H 288.916 1.72741 -5.61636 0
M  V30 2910 H 290.44 2.65251 -5.49976 0
M  V30 2911 H 291.854 0.391742 -5.7196 0
M  V30 2912 H 290.251 -0.351551 -5.99069 0
M  V30 2913 H 291.321 -1.01374 -4.74185 0
M  V30 2914 N 292.664 1.56529 -0.183458 0
M  V30 2915 C 293.912 1.96855 0.457452 0
M  V30 2916 C 294.233 1.07104 1.62953 0
M  V30 2917 O 293.503 0.139887 1.954 0
M  V30 2918 H 292.083 0.72693 0.171992 0
M  V30 2919 H 294.745 1.93056 -0.267476 0
M  V30 2920 H 293.841 3.01423 0.809368 0
M  V30 2921 N 294.142 -0.090211 1.57342 0
M  V30 2922 C 295.388 -0.793982 1.86611 0
M  V30 2923 C 295.721 -1.78142 0.773252 0
M  V30 2924 O 294.996 -1.93271 -0.218304 0
M  V30 2925 C 295.279 -1.51839 3.26523 0
M  V30 2926 C 295.132 -0.548609 4.46442 0
M  V30 2927 C 296.451 -2.46779 3.64401 0
M  V30 2928 H 293.57 -0.287186 0.678744 0
M  V30 2929 H 296.212 -0.0575076 1.89913 0
M  V30 2930 H 294.362 -2.14617 3.23839 0
M  V30 2931 H 296.034 0.0725513 4.61243 0
M  V30 2932 H 294.277 0.137614 4.33582 0
M  V30 2933 H 294.948 -1.09271 5.41076 0
M  V30 2934 H 297.424 -1.94089 3.68061 0
M  V30 2935 H 296.3 -2.94479 4.63221 0
M  V30 2936 H 296.561 -3.30758 2.93346 0
M  V30 2937 N 295.62 -1.53406 -0.361157 0
M  V30 2938 C 296.868 -1.69467 -1.10115 0
M  V30 2939 C 297.189 -0.451352 -1.89705 0
M  V30 2940 O 296.459 0.534636 -1.88463 0
M  V30 2941 H 295.039 -0.624749 -0.409508 0
M  V30 2942 H 297.701 -1.90609 -0.406699 0
M  V30 2943 H 296.797 -2.55774 -1.78847 0
M  V30 2944 N 297.098 0.621204 -1.44841 0
M  V30 2945 C 298.346 1.37783 -1.47852 0
M  V30 2946 C 298.667 1.94653 -0.116224 0
M  V30 2947 O 297.937 1.76367 0.852737 0
M  V30 2948 H 296.517 0.511453 -0.544449 0
M  V30 2949 H 299.179 0.730446 -1.80694 0
M  V30 2950 H 298.275 2.20414 -2.20961 0
M  V30 2951 N 298.576 1.31904 0.862503 0
M  V30 2952 C 299.823 1.22017 1.61611 0
M  V30 2953 C 300.151 -0.21991 1.93253 0
M  V30 2954 O 299.406 -1.17076 1.56817 0
M  V30 2955 C 299.705 2.01713 2.95037 0
M  V30 2956 C 299.371 3.51145 2.82857 0
M  V30 2957 C 298.033 3.91889 2.79243 0
M  V30 2958 C 300.385 4.46204 2.69353 0
M  V30 2959 C 297.713 5.25947 2.59993 0
M  V30 2960 C 300.065 5.80397 2.5164 0
M  V30 2961 C 298.729 6.20352 2.46413 0
M  V30 2962 H 297.999 0.44649 0.591378 0
M  V30 2963 H 300.646 1.63248 1.00111 0
M  V30 2964 H 298.951 1.53185 3.60613 0
M  V30 2965 H 300.648 1.91437 3.52353 0
M  V30 2966 H 297.238 3.1878 2.86491 0
M  V30 2967 H 301.422 4.15652 2.71196 0
M  V30 2968 H 296.678 5.5597 2.54376 0
M  V30 2969 H 300.852 6.53676 2.40169 0
M  V30 2970 H 298.479 7.24172 2.31256 0
M  V30 2971 N 300.054 -1.07777 1.14986 0
M  V30 2972 C 301.302 -1.79934 0.920235 0
M  V30 2973 C 301.623 -1.86955 -0.554336 0
M  V30 2974 O 300.893 -1.36731 -1.40291 0
M  V30 2975 H 299.473 -0.666424 0.337473 0
M  V30 2976 H 302.135 -1.3027 1.44968 0
M  V30 2977 H 301.231 -2.82539 1.32583 0
M  V30 2978 N 301.532 -0.945985 -1.26051 0
M  V30 2979 C 302.495 -0.463897 -2.24456 0
M  V30 2980 C 303.495 0.427655 -1.55009 0
M  V30 2981 O 304.685 0.226157 -1.72726 0
M  V30 2982 C 301.817 0.330812 -3.39291 0
M  V30 2983 H 303.01 -1.33357 -2.68619 0
M  V30 2984 H 300.563 -0.728416 -1.38289 0
M  V30 2985 H 301.298 1.21852 -3.00537 0
M  V30 2986 H 301.083 -0.308679 -3.90883 0
M  V30 2987 H 302.573 0.657865 -4.12386 0
M  V30 2988 N 303.011 1.40521 -0.713556 0
M  V30 2989 C 303.974 2.29098 -0.0684347 0
M  V30 2990 C 304.974 1.45268 0.689472 0
M  V30 2991 O 306.164 1.66205 0.521677 0
M  V30 2992 C 303.296 3.28446 0.913024 0
M  V30 2993 H 304.489 2.87645 -0.84855 0
M  V30 2994 H 302.042 1.48809 -0.47809 0
M  V30 2995 H 302.777 2.74913 1.72027 0
M  V30 2996 H 302.562 3.90327 0.372472 0
M  V30 2997 H 304.052 3.94777 1.36165 0
M  V30 2998 N 304.489 0.459591 1.5075 0
M  V30 2999 C 305.905 0.113092 1.59199 0
M  V30 3000 C 306.105 -1.37951 1.46874 0
M  V30 3001 O 305.161 -2.15168 1.32132 0
M  V30 3002 C 306.474 0.653043 2.93523 0
M  V30 3003 C 308.022 0.615449 3.0689 0
M  V30 3004 C 308.497 1.13275 4.43771 0
M  V30 3005 N 309.988 1.09167 4.50152 0
M  V30 3006 C 310.723 1.46256 5.54434 0
M  V30 3007 N 310.219 1.90739 6.66026 0
M  V30 3008 N 312.012 1.37932 5.44914 0
M  V30 3009 H 304.163 1.43049 1.57005 0
M  V30 3010 H 306.426 0.590861 0.741341 0
M  V30 3011 H 306.132 1.69822 3.07983 0
M  V30 3012 H 306.006 0.0902132 3.77092 0
M  V30 3013 H 308.393 -0.420793 2.92084 0
M  V30 3014 H 308.474 1.21495 2.25106 0
M  V30 3015 H 308.118 2.16757 4.59324 0
M  V30 3016 H 308.048 0.509576 5.24129 0
M  V30 3017 H 310.539 0.76528 3.7007 0
M  V30 3018 H 310.852 2.17218 7.41644 0
M  V30 3019 H 309.197 1.94683 6.67176 0
M  V30 3020 H 312.388 1.0303 4.56621 0
M  V30 3021 H 312.561 1.67164 6.26067 0
M  V30 3022 N 305.967 -1.56429 0.191757 0
M  V30 3023 C 306.93 -2.17707 -0.716688 0
M  V30 3024 C 307.93 -1.13061 -1.14341 0
M  V30 3025 O 309.12 -1.38464 -1.05704 0
M  V30 3026 C 306.252 -2.77644 -1.97804 0
M  V30 3027 H 307.445 -2.99342 -0.1829 0
M  V30 3028 H 304.998 -1.56193 -0.0578566 0
M  V30 3029 H 305.733 -1.99799 -2.55443 0
M  V30 3030 H 305.518 -3.54246 -1.68083 0
M  V30 3031 H 307.008 -3.24708 -2.62592 0
M  V30 3032 N 307.445 0.0818655 -1.57387 0
M  V30 3033 C 308.375 1.09885 -2.06028 0
M  V30 3034 C 309.356 1.4098 -0.951774 0
M  V30 3035 O 310.541 1.50781 -1.22387 0
M  V30 3036 C 307.671 2.4151 -2.4958 0
M  V30 3037 C 306.625 2.24792 -3.64215 0
M  V30 3038 C 305.951 3.61712 -3.93787 0
M  V30 3039 C 307.251 1.67749 -4.94629 0
M  V30 3040 H 308.945 0.694128 -2.91243 0
M  V30 3041 H 306.491 0.332448 -1.4011 0
M  V30 3042 H 308.444 3.12939 -2.82219 0
M  V30 3043 H 307.168 2.83943 -1.61381 0
M  V30 3044 H 305.827 1.55807 -3.31843 0
M  V30 3045 H 305.475 4.01697 -3.02735 0
M  V30 3046 H 305.175 3.51368 -4.70971 0
M  V30 3047 H 306.699 4.34587 -4.28913 0
M  V30 3048 H 308.113 2.29032 -5.25564 0
M  V30 3049 H 306.51 1.68128 -5.76067 0
M  V30 3050 H 307.58 0.638059 -4.80684 0
M  V30 3051 N 308.923 1.53595 0.353017 0
M  V30 3052 C 310.148 1.7462 1.11904 0
M  V30 3053 C 310.573 0.479721 1.8188 0
M  V30 3054 O 309.931 -0.567066 1.72204 0
M  V30 3055 C 309.979 2.92029 2.11545 0
M  V30 3056 O 309.083 2.61516 3.18878 0
M  V30 3057 H 308.424 0.579531 0.324099 0
M  V30 3058 H 310.954 2.00525 0.406301 0
M  V30 3059 H 310.964 3.18551 2.5493 0
M  V30 3060 H 309.639 3.83888 1.60008 0
M  V30 3061 H 308.216 2.45852 2.80377 0
M  V30 3062 N 310.401 -0.613514 1.45168 0
M  V30 3063 C 311.629 -1.39946 1.5239 0
M  V30 3064 C 312.044 -1.88167 0.154531 0
M  V30 3065 O 311.401 -1.61872 -0.842843 0
M  V30 3066 C 311.452 -2.60795 2.50337 0
M  V30 3067 O 311.173 -2.1458 3.81952 0
M  V30 3068 C 312.674 -3.53723 2.67198 0
M  V30 3069 H 309.894 -0.428593 0.516284 0
M  V30 3070 H 312.438 -0.748753 1.903 0
M  V30 3071 H 310.593 -3.21919 2.15515 0
M  V30 3072 H 311.007 -2.93055 4.34993 0
M  V30 3073 H 312.481 -4.35079 3.39721 0
M  V30 3074 H 312.958 -4.0368 1.73029 0
M  V30 3075 H 313.564 -2.98456 3.02992 0
M  V30 3076 N 311.879 -1.3236 -0.855495 0
M  V30 3077 C 313.295 -1.11332 -1.14356 0
M  V30 3078 C 313.495 0.106751 -2.01217 0
M  V30 3079 O 312.551 0.791891 -2.39761 0
M  V30 3080 C 313.864 -2.39237 -1.82171 0
M  V30 3081 C 315.412 -2.44986 -1.9481 0
M  V30 3082 C 315.887 -3.7281 -2.66039 0
M  V30 3083 N 317.378 -3.73787 -2.73565 0
M  V30 3084 C 318.113 -4.69394 -3.29327 0
M  V30 3085 N 317.609 -5.75367 -3.85907 0
M  V30 3086 N 319.402 -4.56893 -3.27423 0
M  V30 3087 H 311.553 -2.10586 -0.277027 0
M  V30 3088 H 313.816 -0.929701 -0.185364 0
M  V30 3089 H 313.522 -3.28431 -1.25802 0
M  V30 3090 H 313.396 -2.50134 -2.82335 0
M  V30 3091 H 315.783 -1.56252 -2.50338 0
M  V30 3092 H 315.864 -2.38043 -0.936448 0
M  V30 3093 H 315.508 -4.61918 -2.11174 0
M  V30 3094 H 315.438 -3.77024 -3.67642 0
M  V30 3095 H 317.929 -2.97189 -2.33424 0
M  V30 3096 H 318.242 -6.44378 -4.26611 0
M  V30 3097 H 316.587 -5.79123 -3.84242 0
M  V30 3098 H 319.778 -3.73269 -2.82467 0
M  V30 3099 H 319.951 -5.31577 -3.7058 0
M  V30 3100 N 313.357 1.07166 -1.15556 0
M  V30 3101 C 314.305 2.16517 -0.8499 0
M  V30 3102 C 315.299 1.68468 0.177454 0
M  V30 3103 O 316.505 1.79971 0.0323026 0
M  V30 3104 H 312.88 0.706652 -0.25719 0
M  V30 3105 H 314.851 2.39514 -1.77976 0
M  V30 3106 C 313.6 3.45855 -0.357682 0
M  V30 3107 H 312.923 3.83214 -1.13961 0
M  V30 3108 H 314.363 4.23607 -0.182489 0
M  V30 3109 C 312.822 3.24062 0.921152 0
M  V30 3110 O 313.352 3.48813 1.9923 0
M  V30 3111 N 311.558 2.77539 0.86141 0
M  V30 3112 H 311.105 2.57598 -0.0104408 0
M  V30 3113 H 311.063 2.63337 1.71758 0
M  V30 3114 N 314.835 0.952656 1.25548 0
M  V30 3115 C 316.112 0.523818 1.88456 0
M  V30 3116 C 316.492 -0.998871 1.85973 0
M  V30 3117 O 315.84 -1.86381 1.3219 0
M  V30 3118 C 316.05 1.0982 3.31271 0
M  V30 3119 C 317.398 1.17385 4.08051 0
M  V30 3120 O 318.422 1.04961 3.40384 0
M  V30 3121 O 317.281 1.36852 5.29088 0
M  V30 3122 H 314.375 0.172485 0.808813 0
M  V30 3123 H 316.921 1.04596 1.33633 0
M  V30 3124 H 315.693 2.1415 3.27499 0
M  V30 3125 H 315.316 0.559191 3.93648 0
M  V30 3126 N 316.313 -1.40141 0.720998 0
M  V30 3127 C 317.261 -2.3252 0.0608547 0
M  V30 3128 C 318.255 -1.52326 -0.741152 0
M  V30 3129 O 319.461 -1.68089 -0.643911 0
M  V30 3130 H 315.836 -0.751999 0.000876664 0
M  V30 3131 H 317.807 -2.8584 0.856614 0
M  V30 3132 C 316.556 -3.37331 -0.842809 0
M  V30 3133 H 315.879 -3.99108 -0.235084 0
M  V30 3134 H 317.319 -4.04452 -1.27257 0
M  V30 3135 C 315.778 -2.73246 -1.97074 0
M  V30 3136 O 316.308 -2.59998 -3.06209 0
M  V30 3137 N 314.514 -2.31547 -1.75597 0
M  V30 3138 H 314.061 -2.42522 -0.868368 0
M  V30 3139 H 314.019 -1.89007 -2.51244 0
M  V30 3140 N 317.792 -0.46758 -1.50504 0
M  V30 3141 C 319.203 -0.0116166 -1.86696 0
M  V30 3142 C 319.554 1.39202 -1.38265 0
M  V30 3143 O 318.679 2.0313 -0.746132 0
M  V30 3144 C 319.274 -0.0143044 -3.38797 0
M  V30 3145 C 317.833 0.386175 -3.74414 0
M  V30 3146 C 316.98 -0.401287 -2.74381 0
M  V30 3147 H 319.931 -0.682022 -1.43297 0
M  V30 3148 H 319.952 0.788641 -3.72237 0
M  V30 3149 H 319.464 -1.03602 -3.74016 0
M  V30 3150 H 317.565 1.41237 -3.44794 0
M  V30 3151 H 317.678 0.0899596 -4.79016 0
M  V30 3152 H 316.042 0.144536 -2.5429 0
M  V30 3153 H 316.825 -1.42244 -3.12444 0
M  V30 3154 N 319.27 1.56325 -0.20005 0
M  V30 3155 C 320.202 2.16555 0.750771 0
M  V30 3156 C 321.215 1.12871 1.1732 0
M  V30 3157 O 322.404 1.39943 1.10807 0
M  V30 3158 C 319.504 2.71684 2.02586 0
M  V30 3159 C 318.677 4.00321 1.76244 0
M  V30 3160 C 317.736 4.40227 2.88248 0
M  V30 3161 O 316.762 5.07552 2.57642 0
M  V30 3162 N 317.964 4.04138 4.16717 0
M  V30 3163 H 320.729 2.98772 0.235685 0
M  V30 3164 H 318.29 1.6189 -0.0182594 0
M  V30 3165 H 320.282 2.95363 2.76664 0
M  V30 3166 H 318.852 1.93893 2.45202 0
M  V30 3167 H 318.072 3.84723 0.85919 0
M  V30 3168 H 319.36 4.84279 1.56048 0
M  V30 3169 H 318.758 3.49993 4.44434 0
M  V30 3170 H 317.315 4.32756 4.87407 0
M  V30 3171 N 320.748 -0.0735177 1.57428 0
M  V30 3172 C 321.711 -1.07192 2.02589 0
M  V30 3173 C 322.711 -1.31695 0.922661 0
M  V30 3174 O 323.901 -1.27445 1.18758 0
M  V30 3175 C 321.033 -2.41599 2.40506 0
M  V30 3176 H 322.226 -0.682727 2.92025 0
M  V30 3177 H 319.779 -0.319193 1.53006 0
M  V30 3178 H 320.514 -2.85354 1.5409 0
M  V30 3179 H 320.299 -2.25156 3.21009 0
M  V30 3180 H 321.789 -3.13367 2.76027 0
M  V30 3181 N 322.226 -1.5378 -0.344866 0
M  V30 3182 C 323.189 -1.80981 -1.40637 0
M  V30 3183 C 324.189 -0.680816 -1.45676 0
M  V30 3184 O 325.379 -0.949095 -1.46075 0
M  V30 3185 C 322.511 -1.95063 -2.79577 0
M  V30 3186 H 323.704 -2.75803 -1.17783 0
M  V30 3187 H 321.257 -1.45173 -0.579181 0
M  V30 3188 H 321.992 -1.02379 -3.07716 0
M  V30 3189 H 321.777 -2.77198 -2.77315 0
M  V30 3190 H 323.267 -2.17629 -3.56409 0
M  V30 3191 N 323.704 0.605807 -1.45491 0
M  V30 3192 C 324.929 1.39625 -1.53361 0
M  V30 3193 C 325.354 1.87351 -0.167645 0
M  V30 3194 O 324.712 1.60243 0.848051 0
M  V30 3195 C 324.76 2.57559 -2.5238 0
M  V30 3196 O 323.864 3.58248 -2.04285 0
M  V30 3197 H 323.205 0.416771 -0.516912 0
M  V30 3198 H 325.735 0.737103 -1.90861 0
M  V30 3199 H 325.745 3.0478 -2.71244 0
M  V30 3200 H 324.42 2.22171 -3.51586 0
M  V30 3201 H 322.997 3.17664 -1.95305 0
M  V30 3202 N 325.182 1.32811 0.848464 0
M  V30 3203 C 326.598 1.11937 1.13764 0
M  V30 3204 C 326.798 -0.0960789 2.01271 0
M  V30 3205 O 325.854 -0.779165 2.40178 0
M  V30 3206 C 327.167 2.402 1.809 0
M  V30 3207 C 328.715 2.46016 1.93508 0
M  V30 3208 C 329.19 3.74215 2.64059 0
M  V30 3209 N 330.681 3.75232 2.71579 0
M  V30 3210 C 331.416 4.71134 3.26833 0
M  V30 3211 N 330.912 5.77406 3.8285 0
M  V30 3212 N 332.705 4.58623 3.24995 0
M  V30 3213 H 324.856 2.1073 0.265855 0
M  V30 3214 H 327.119 0.930671 0.180431 0
M  V30 3215 H 326.825 3.29093 1.24058 0
M  V30 3216 H 326.699 2.51628 2.81004 0
M  V30 3217 H 329.086 1.57577 2.49506 0
M  V30 3218 H 329.167 2.38536 0.923811 0
M  V30 3219 H 328.811 4.63031 2.08722 0
M  V30 3220 H 328.741 3.78968 3.65637 0
M  V30 3221 H 331.232 2.98423 2.31845 0
M  V30 3222 H 331.545 6.46632 4.23187 0
M  V30 3223 H 329.89 5.81152 3.81165 0
M  V30 3224 H 333.081 3.74762 2.80484 0
M  V30 3225 H 333.254 5.33535 3.67756 0
M  V30 3226 N 326.66 -1.06551 1.16123 0
M  V30 3227 C 328.071 -1.60768 0.949232 0
M  V30 3228 C 328.422 -1.89523 -0.507508 0
M  V30 3229 O 327.547 -1.66671 -1.38021 0
M  V30 3230 C 328.142 -2.92086 1.71671 0
M  V30 3231 C 326.701 -3.43015 1.54977 0
M  V30 3232 C 325.848 -2.16947 1.72711 0
M  V30 3233 H 328.799 -0.895354 1.31031 0
M  V30 3234 H 328.82 -3.6138 1.19099 0
M  V30 3235 H 328.332 -2.71127 2.7769 0
M  V30 3236 H 326.433 -3.69039 0.513873 0
M  V30 3237 H 326.546 -4.18516 2.33198 0
M  V30 3238 H 324.91 -2.27041 1.15431 0
M  V30 3239 H 325.693 -1.98473 2.80113 0
M  V30 3240 N 328.138 -0.959301 -1.25041 0
M  V30 3241 C 329.384 -0.627096 -1.93492 0
M  V30 3242 C 329.739 0.827484 -1.73696 0
M  V30 3243 O 329.032 1.58651 -1.07427 0
M  V30 3244 C 329.226 -0.927136 -3.45165 0
M  V30 3245 C 329.055 -2.40933 -3.79712 0
M  V30 3246 C 327.825 -3.0677 -4.01522 0
M  V30 3247 C 330.023 -3.38894 -3.86853 0
M  V30 3248 N 328.005 -4.44815 -4.231 0
M  V30 3249 C 329.376 -4.62263 -4.13174 0
M  V30 3250 C 331.431 -3.33668 -3.69554 0
M  V30 3251 C 330.134 -5.81052 -4.23995 0
M  V30 3252 C 332.16 -4.518 -3.81616 0
M  V30 3253 C 331.522 -5.73957 -4.08354 0
M  V30 3254 H 327.621 -0.280166 -0.73009 0
M  V30 3255 H 330.205 -1.23244 -1.50729 0
M  V30 3256 H 328.376 -0.350685 -3.86814 0
M  V30 3257 H 330.108 -0.554361 -4.00885 0
M  V30 3258 H 326.863 -2.57327 -3.97593 0
M  V30 3259 H 327.287 -5.16319 -4.37885 0
M  V30 3260 H 331.929 -2.40268 -3.47895 0
M  V30 3261 H 329.647 -6.74888 -4.44468 0
M  V30 3262 H 333.233 -4.49309 -3.69612 0
M  V30 3263 H 332.113 -6.6384 -4.17475 0
M  V30 3264 N 329.616 1.39756 -0.72842 0
M  V30 3265 C 330.893 1.94574 -0.200079 0
M  V30 3266 C 331.273 1.66569 1.29684 0
M  V30 3267 O 330.621 0.990326 2.05924 0
M  V30 3268 C 330.831 3.45004 -0.526608 0
M  V30 3269 C 332.179 4.21965 -0.472318 0
M  V30 3270 O 333.203 3.53173 -0.463413 0
M  V30 3271 O 332.062 5.44552 -0.461075 0
M  V30 3272 H 329.156 0.826289 -0.0342851 0
M  V30 3273 H 331.702 1.49293 -0.806829 0
M  V30 3274 H 330.474 3.58796 -1.56144 0
M  V30 3275 H 330.097 3.97449 0.109449 0
M  V30 3276 N 331.094 0.475555 1.50254 0
M  V30 3277 C 332.041 -0.316293 2.28622 0
M  V30 3278 C 333.011 -0.983227 1.33873 0
M  V30 3279 O 334.196 -0.994805 1.62814 0
M  V30 3280 C 331.336 -1.38975 3.1588 0
M  V30 3281 C 330.449 -0.737146 4.25664 0
M  V30 3282 C 329.584 -1.78887 5.00173 0
M  V30 3283 C 328.623 -1.11676 6.01826 0
M  V30 3284 N 327.76 -2.11154 6.69596 0
M  V30 3285 H 332.6 0.358297 2.95838 0
M  V30 3286 H 330.137 0.188541 1.45887 0
M  V30 3287 H 332.095 -2.02383 3.64825 0
M  V30 3288 H 330.725 -2.03344 2.50701 0
M  V30 3289 H 329.777 0.0096065 3.80399 0
M  V30 3290 H 331.089 -0.206816 4.98371 0
M  V30 3291 H 330.243 -2.49865 5.52859 0
M  V30 3292 H 328.982 -2.35302 4.27182 0
M  V30 3293 H 327.987 -0.392633 5.48396 0
M  V30 3294 H 329.212 -0.55945 6.76792 0
M  V30 3295 H 327.158 -2.66577 5.99394 0
M  V30 3296 H 327.075 -1.63118 7.38193 0
M  V30 3297 H 328.343 -2.81497 7.26897 0
M  V30 3298 N 332.573 -1.56217 0.208337 0
M  V30 3299 C 333.483 -2.23316 -0.718836 0
M  V30 3300 C 334.499 -1.23648 -1.22422 0
M  V30 3301 O 335.675 -1.56423 -1.26861 0
M  V30 3302 C 332.74 -2.88968 -1.91568 0
M  V30 3303 C 331.801 -4.03943 -1.45357 0
M  V30 3304 C 331.034 -4.66455 -2.59337 0
M  V30 3305 O 331.257 -4.27919 -3.77149 0
M  V30 3306 O 330.191 -5.55686 -2.31293 0
M  V30 3307 H 334.017 -3.03182 -0.177315 0
M  V30 3308 H 331.602 -1.49384 -0.0215402 0
M  V30 3309 H 333.484 -3.30455 -2.61491 0
M  V30 3310 H 332.159 -2.12071 -2.44556 0
M  V30 3311 H 331.066 -3.67052 -0.722746 0
M  V30 3312 H 332.399 -4.82543 -0.970219 0
M  V30 3313 N 334.051 0.0651679 -1.57465 0
M  V30 3314 C 335.467 0.420105 -1.53972 0
M  V30 3315 C 335.667 1.78782 -0.929474 0
M  V30 3316 O 334.723 2.46771 -0.534839 0
M  V30 3317 C 336.036 0.355084 -2.98596 0
M  V30 3318 C 337.584 0.434792 -3.09965 0
M  V30 3319 C 338.059 0.399609 -4.56253 0
M  V30 3320 N 339.55 0.459488 -4.60915 0
M  V30 3321 C 340.285 0.454584 -5.71595 0
M  V30 3322 N 339.781 0.404102 -6.9162 0
M  V30 3323 N 341.574 0.501635 -5.59857 0
M  V30 3324 H 333.725 -0.830328 -1.95498 0
M  V30 3325 H 335.988 -0.312244 -0.895102 0
M  V30 3326 H 335.694 -0.583357 -3.46828 0
M  V30 3327 H 335.568 1.16275 -3.58831 0
M  V30 3328 H 337.955 1.36366 -2.61703 0
M  V30 3329 H 338.036 -0.40157 -2.52628 0
M  V30 3330 H 337.68 -0.525436 -5.05175 0
M  V30 3331 H 337.61 1.25359 -5.11461 0
M  V30 3332 H 340.101 0.502482 -3.74544 0
M  V30 3333 H 340.414 0.404468 -7.71741 0
M  V30 3334 H 338.759 0.37069 -6.94011 0
M  V30 3335 H 341.95 0.538812 -4.64989 0
M  V30 3336 H 342.123 0.494345 -6.46112 0
M  V30 3337 N 335.529 1.53961 0.336706 0
M  V30 3338 C 336.806 1.62171 1.09361 0
M  V30 3339 C 337.186 0.447263 2.06307 0
M  V30 3340 O 336.534 -0.559802 2.21537 0
M  V30 3341 C 336.744 2.98565 1.80721 0
M  V30 3342 C 338.092 3.54157 2.34218 0
M  V30 3343 O 339.116 3.00784 1.90807 0
M  V30 3344 O 337.975 4.47528 3.13657 0
M  V30 3345 H 335.069 0.6562 0.503319 0
M  V30 3346 H 337.615 1.66307 0.33765 0
M  V30 3347 H 336.387 3.75482 1.10132 0
M  V30 3348 H 336.01 2.9805 2.63158 0
M  V30 3349 N 337.007 -0.598083 1.45811 0
M  V30 3350 C 338.255 -1.35413 1.50026 0
M  V30 3351 C 338.576 -1.94444 0.147177 0
M  V30 3352 O 337.846 -1.77701 -0.824571 0
M  V30 3353 H 336.426 -0.502727 0.552517 0
M  V30 3354 H 339.088 -0.701606 1.81834 0
M  V30 3355 H 338.184 -2.16871 2.2444 0
M  V30 3356 N 338.485 -1.33259 -0.841409 0
M  V30 3357 C 339.732 -1.24572 -1.5965 0
M  V30 3358 C 340.06 0.189137 -1.93578 0
M  V30 3359 O 339.315 1.14566 -1.5866 0
M  V30 3360 C 339.614 -2.06381 -2.9179 0
M  V30 3361 C 339.28 -3.556 -2.77235 0
M  V30 3362 C 337.942 -3.96282 -2.72973 0
M  V30 3363 C 340.294 -4.50433 -2.62221 0
M  V30 3364 C 337.622 -5.30017 -2.51592 0
M  V30 3365 C 339.974 -5.84327 -2.42374 0
M  V30 3366 C 338.638 -6.24194 -2.36512 0
M  V30 3367 H 337.908 -0.455842 -0.5842 0
M  V30 3368 H 340.555 -1.6482 -0.975016 0
M  V30 3369 H 338.86 -1.58903 -3.5813 0
M  V30 3370 H 340.557 -1.97019 -3.49263 0
M  V30 3371 H 337.147 -3.23298 -2.81384 0
M  V30 3372 H 341.331 -4.19914 -2.64549 0
M  V30 3373 H 336.587 -5.59947 -2.45499 0
M  V30 3374 H 340.761 -6.57414 -2.29739 0
M  V30 3375 H 338.388 -7.27759 -2.19706 0
M  V30 3376 N 339.963 1.05934 -1.16686 0
M  V30 3377 C 341.209 1.79065 -0.95203 0
M  V30 3378 C 341.542 1.87147 0.518629 0
M  V30 3379 O 340.817 1.36574 1.38484 0
M  V30 3380 C 341.1 3.23359 -1.58464 0
M  V30 3381 C 340.953 3.23336 -3.12689 0
M  V30 3382 C 342.272 4.21004 -1.28232 0
M  V30 3383 H 339.391 0.65005 -0.34728 0
M  V30 3384 H 342.033 1.23868 -1.44072 0
M  V30 3385 H 340.183 3.70493 -1.16908 0
M  V30 3386 H 341.855 2.84336 -3.6325 0
M  V30 3387 H 340.098 2.61886 -3.4583 0
M  V30 3388 H 340.769 4.25144 -3.52075 0
M  V30 3389 H 343.245 3.8233 -1.64203 0
M  V30 3390 H 342.121 5.20225 -1.75092 0
M  V30 3391 H 342.382 4.41639 -0.201791 0
M  V30 3392 N 341.441 0.965919 1.2453 0
M  V30 3393 C 342.371 0.513476 2.27784 0
M  V30 3394 C 343.352 -0.445974 1.6415 0
M  V30 3395 O 344.537 -0.342485 1.91156 0
M  V30 3396 C 341.667 -0.198839 3.4673 0
M  V30 3397 C 340.621 0.676456 4.2262 0
M  V30 3398 C 339.947 -0.167248 5.34438 0
M  V30 3399 C 341.247 1.96017 4.84123 0
M  V30 3400 H 342.941 1.3765 2.65881 0
M  V30 3401 H 340.487 0.663321 1.27813 0
M  V30 3402 H 342.44 -0.526567 4.18097 0
M  V30 3403 H 341.164 -1.0962 3.07654 0
M  V30 3404 H 339.823 0.98743 3.53052 0
M  V30 3405 H 339.471 -1.0647 4.91603 0
M  V30 3406 H 339.171 0.415181 5.86131 0
M  V30 3407 H 340.695 -0.489688 6.08633 0
M  V30 3408 H 342.109 1.69814 5.47573 0
M  V30 3409 H 340.506 2.48918 5.4604 0
M  V30 3410 H 341.576 2.65622 4.05676 0
M  V30 3411 N 342.919 -1.39368 0.735821 0
M  V30 3412 C 344.167 -2.00101 0.283562 0
M  V30 3413 C 344.488 -1.5868 -1.13338 0
M  V30 3414 O 343.758 -0.835423 -1.77193 0
M  V30 3415 H 342.338 -0.740024 0.101851 0
M  V30 3416 H 345 -1.70404 0.945962 0
M  V30 3417 H 344.096 -3.10323 0.332604 0
M  V30 3418 N 344.397 -0.483516 -1.5 0
M  V30 3419 C 345.674 0.129337 -1.95172 0
M  V30 3420 C 346.054 1.55802 -1.4244 0
M  V30 3421 O 345.402 2.19625 -0.630649 0
M  V30 3422 C 345.612 0.0599251 -3.48949 0
M  V30 3423 C 346.96 0.242617 -4.23906 0
M  V30 3424 O 347.984 0.135933 -3.55941 0
M  V30 3425 O 346.843 0.459454 -5.44565 0
M  V30 3426 H 343.937 0.104887 -0.820322 0
M  V30 3427 H 346.483 -0.544807 -1.60717 0
M  V30 3428 H 345.255 -0.937079 -3.79914 0
M  V30 3429 H 344.878 0.774984 -3.89974 0
M  V30 3430 N 345.875 1.56104 -0.216619 0
M  V30 3431 C 347.123 1.97781 0.415593 0
M  V30 3432 C 347.444 1.10536 1.60645 0
M  V30 3433 O 346.714 0.181303 1.95059 0
M  V30 3434 H 345.294 0.730415 0.156534 0
M  V30 3435 H 347.956 1.92445 -0.308366 0
M  V30 3436 H 347.052 3.03072 0.74525 0
M  V30 3437 N 347.353 -0.0568162 1.57498 0
M  V30 3438 C 348.316 -1.05038 2.03715 0
M  V30 3439 C 349.316 -1.30709 0.936577 0
M  V30 3440 O 350.506 -1.26178 1.20103 0
M  V30 3441 C 347.638 -2.39034 2.43055 0
M  V30 3442 H 348.831 -0.651715 2.92733 0
M  V30 3443 H 346.384 -0.302947 1.53336 0
M  V30 3444 H 347.119 -2.83703 1.57108 0
M  V30 3445 H 346.904 -2.21739 3.2338 0
M  V30 3446 H 348.394 -3.10421 2.79336 0
M  V30 3447 N 348.832 -1.54138 -0.328536 0
M  V30 3448 C 350.08 -1.71765 -1.06496 0
M  V30 3449 C 350.401 -0.49149 -1.88704 0
M  V30 3450 O 349.671 0.494539 -1.89555 0
M  V30 3451 H 348.251 -0.633295 -0.396164 0
M  V30 3452 H 350.913 -1.91429 -0.366176 0
M  V30 3453 H 350.009 -2.5951 -1.73381 0
M  V30 3454 N 350.31 0.590341 -1.46126 0
M  V30 3455 C 351.243 1.71434 -1.50617 0
M  V30 3456 C 352.221 1.58543 -0.360948 0
M  V30 3457 O 353.405 1.79865 -0.563985 0
M  V30 3458 C 350.532 3.09422 -1.37753 0
M  V30 3459 C 349.578 3.40854 -2.5636 0
M  V30 3460 S 350.411 3.33773 -4.18755 0
M  V30 3461 C 351.567 4.74312 -4.08386 0
M  V30 3462 H 351.8 1.67364 -2.45717 0
M  V30 3463 H 349.333 0.76845 -1.33919 0
M  V30 3464 H 351.291 3.8903 -1.31018 0
M  V30 3465 H 349.952 3.10989 -0.440949 0
M  V30 3466 H 349.145 4.41368 -2.43332 0
M  V30 3467 H 348.747 2.68798 -2.60046 0
M  V30 3468 H 351.039 5.64522 -3.74595 0
M  V30 3469 H 351.982 4.92397 -5.08872 0
M  V30 3470 H 352.39 4.50803 -3.3976 0
M  V30 3471 N 351.788 1.33704 0.83433 0
M  V30 3472 C 352.718 1.26967 1.95963 0
M  V30 3473 C 353.699 0.149337 1.69443 0
M  V30 3474 O 354.884 0.339852 1.91203 0
M  V30 3475 C 352.014 1.01275 3.32206 0
M  V30 3476 C 350.968 2.09652 3.73136 0
M  V30 3477 C 350.294 1.69166 5.07235 0
M  V30 3478 C 351.594 3.51372 3.86439 0
M  V30 3479 H 353.288 2.2112 2.01857 0
M  V30 3480 H 350.834 1.06447 0.969793 0
M  V30 3481 H 352.787 0.952106 4.10503 0
M  V30 3482 H 351.511 0.0356203 3.26581 0
M  V30 3483 H 350.17 2.14766 2.97104 0
M  V30 3484 H 349.818 0.701437 4.98085 0
M  V30 3485 H 349.518 2.41694 5.35591 0
M  V30 3486 H 351.042 1.64576 5.88003 0
M  V30 3487 H 352.456 3.48734 4.55036 0
M  V30 3488 H 350.853 4.22425 4.26236 0
M  V30 3489 H 351.923 3.89546 2.88759 0
M  V30 3490 N 353.266 -1.05314 1.17247 0
M  V30 3491 C 354.512 -1.78557 0.961513 0
M  V30 3492 C 354.845 -1.87419 -0.508697 0
M  V30 3493 O 354.12 -1.37307 -1.37757 0
M  V30 3494 C 354.403 -3.22514 1.60176 0
M  V30 3495 C 354.256 -3.21673 3.14399 0
M  V30 3496 C 355.575 -4.20318 1.30463 0
M  V30 3497 H 352.694 -0.6482 0.350723 0
M  V30 3498 H 355.336 -1.23102 1.44727 0
M  V30 3499 H 353.486 -3.69867 1.18871 0
M  V30 3500 H 355.158 -2.82405 3.64753 0
M  V30 3501 H 353.401 -2.60048 3.47214 0
M  V30 3502 H 354.072 -4.23271 3.54324 0
M  V30 3503 H 356.548 -3.81454 1.66229 0
M  V30 3504 H 355.424 -5.19289 1.77848 0
M  V30 3505 H 355.685 -4.41526 0.22521 0
M  V30 3506 N 354.744 -0.972509 -1.24016 0
M  V30 3507 C 355.674 -0.525548 -2.27509 0
M  V30 3508 C 356.655 0.437262 -1.64384 0
M  V30 3509 O 357.84 0.332343 -1.91335 0
M  V30 3510 C 354.97 0.180448 -3.46831 0
M  V30 3511 C 353.924 -0.698859 -4.22256 0
M  V30 3512 C 353.25 0.138903 -5.3452 0
M  V30 3513 C 354.55 -1.98582 -4.83076 0
M  V30 3514 H 356.244 -1.39058 -2.65148 0
M  V30 3515 H 353.79 -0.67009 -1.27459 0
M  V30 3516 H 355.743 0.504387 -4.18371 0
M  V30 3517 H 354.467 1.07987 -3.08231 0
M  V30 3518 H 353.126 -1.00614 -3.52523 0
M  V30 3519 H 352.774 1.03862 -4.9216 0
M  V30 3520 H 352.474 -0.446259 -5.85903 0
M  V30 3521 H 353.998 0.457404 -6.08884 0
M  V30 3522 H 355.412 -1.72715 -5.46665 0
M  V30 3523 H 353.809 -2.5181 -5.44713 0
M  V30 3524 H 354.879 -2.67769 -4.04262 0
M  V30 3525 N 356.222 1.38976 -0.743202 0
M  V30 3526 C 357.132 2.3434 -0.110399 0
M  V30 3527 C 358.148 1.58741 0.712559 0
M  V30 3528 O 359.324 1.9099 0.639125 0
M  V30 3529 C 356.389 3.37812 0.780012 0
M  V30 3530 C 355.45 4.29263 -0.0561319 0
M  V30 3531 C 354.683 5.27793 0.791875 0
M  V30 3532 O 354.906 5.33043 2.03031 0
M  V30 3533 O 353.84 6.01512 0.216183 0
M  V30 3534 H 357.666 2.90129 -0.897714 0
M  V30 3535 H 355.251 1.40643 -0.503966 0
M  V30 3536 H 357.133 4.01194 1.28923 0
M  V30 3537 H 355.808 2.84395 1.546 0
M  V30 3538 H 354.715 3.69076 -0.611056 0
M  V30 3539 H 356.048 4.85907 -0.784531 0
M  V30 3540 N 357.7 0.491464 1.49741 0
M  V30 3541 C 358.61 -0.296835 2.32715 0
M  V30 3542 C 359.626 -0.976536 1.44013 0
M  V30 3543 O 360.802 -0.960023 1.77047 0
M  V30 3544 C 357.867 -1.35288 3.19215 0
M  V30 3545 C 356.928 -0.687632 4.23757 0
M  V30 3546 C 356.161 -1.69336 5.06123 0
M  V30 3547 O 356.384 -2.92219 4.89861 0
M  V30 3548 O 355.318 -1.25394 5.88693 0
M  V30 3549 H 359.144 0.382048 3.01287 0
M  V30 3550 H 356.729 0.252953 1.47243 0
M  V30 3551 H 358.611 -1.96411 3.72828 0
M  V30 3552 H 357.286 -2.01487 2.53347 0
M  V30 3553 H 356.193 -0.0369159 3.74082 0
M  V30 3554 H 357.526 -0.0682566 4.92153 0
M  V30 3555 N 359.178 -1.55987 0.224894 0
M  V30 3556 C 360.408 -2.02489 -0.41007 0
M  V30 3557 C 360.816 -1.10391 -1.53657 0
M  V30 3558 O 360.159 -0.106458 -1.83391 0
M  V30 3559 C 360.221 -3.45319 -0.999757 0
M  V30 3560 C 359.885 -4.56999 -0.00827976 0
M  V30 3561 C 360.882 -5.13812 0.793314 0
M  V30 3562 C 358.567 -5.02176 0.111442 0
M  V30 3563 C 360.561 -6.14276 1.7013 0
M  V30 3564 C 358.248 -6.02477 1.02296 0
M  V30 3565 C 359.246 -6.58403 1.81643 0
M  V30 3566 O 358.934 -7.56751 2.71262 0
M  V30 3567 H 358.666 -0.667915 -0.104235 0
M  V30 3568 H 361.22 -2.0257 0.339782 0
M  V30 3569 H 359.45 -3.42318 -1.79876 0
M  V30 3570 H 361.139 -3.7545 -1.54248 0
M  V30 3571 H 361.905 -4.79756 0.711288 0
M  V30 3572 H 357.784 -4.58323 -0.49605 0
M  V30 3573 H 361.328 -6.57854 2.32107 0
M  V30 3574 H 357.225 -6.35954 1.10599 0
M  V30 3575 H 357.993 -7.74286 2.65375 0
M  V30 3576 N 360.656 0.0484629 -1.57525 0
M  V30 3577 C 361.566 1.07241 -2.08654 0
M  V30 3578 C 362.582 1.409 -1.02095 0
M  V30 3579 O 363.758 1.50609 -1.33712 0
M  V30 3580 C 360.823 2.36008 -2.5397 0
M  V30 3581 C 359.884 2.09108 -3.7493 0
M  V30 3582 C 359.117 3.31736 -4.18075 0
M  V30 3583 O 359.34 4.41714 -3.60895 0
M  V30 3584 O 358.274 3.18576 -5.10679 0
M  V30 3585 H 362.1 0.667965 -2.96263 0
M  V30 3586 H 359.685 0.26417 -1.47046 0
M  V30 3587 H 361.567 3.11747 -2.83535 0
M  V30 3588 H 360.242 2.75786 -1.69481 0
M  V30 3589 H 359.149 1.31 -3.50414 0
M  V30 3590 H 360.482 1.74198 -4.60343 0
M  V30 3591 N 362.134 1.5431 0.320358 0
M  V30 3592 C 363.084 1.803 1.39556 0
M  V30 3593 C 364.068 0.659166 1.46778 0
M  V30 3594 O 365.26 0.91926 1.51257 0
M  V30 3595 C 362.389 2.03665 2.76361 0
M  V30 3596 C 361.475 3.24178 2.73439 0
M  V30 3597 N 361.866 4.4516 2.40137 0
M  V30 3598 C 360.164 3.25816 3.04565 0
M  V30 3599 C 360.865 5.27109 2.4603 0
M  V30 3600 N 359.841 4.64368 2.82601 0
M  V30 3601 H 363.643 2.71416 1.12742 0
M  V30 3602 H 361.157 1.53548 0.528856 0
M  V30 3603 H 363.154 2.20425 3.53862 0
M  V30 3604 H 361.814 1.13805 3.04103 0
M  V30 3605 H 362.825 4.72104 2.12927 0
M  V30 3606 H 359.502 2.46001 3.37328 0
M  V30 3607 H 360.892 6.33728 2.23246 0
M  V30 3608 N 363.613 -0.582584 1.46437 0
M  V30 3609 C 364.576 -1.67366 1.56592 0
M  V30 3610 C 365.576 -1.54575 0.443072 0
M  V30 3611 O 366.766 -1.59191 0.707381 0
M  V30 3612 C 363.898 -3.06791 1.48634 0
M  V30 3613 H 365.091 -1.5972 2.5383 0
M  V30 3614 H 362.644 -0.800432 1.34249 0
M  V30 3615 H 363.379 -3.19993 0.526763 0
M  V30 3616 H 363.164 -3.17484 2.30101 0
M  V30 3617 H 364.654 -3.86218 1.58826 0
M  V30 3618 N 365.091 -1.34144 -0.827227 0
M  V30 3619 C 366.038 -1.25364 -1.93785 0
M  V30 3620 C 367.008 -0.129774 -1.65592 0
M  V30 3621 O 368.193 -0.310024 -1.88264 0
M  V30 3622 C 365.333 -1.01064 -3.2997 0
M  V30 3623 C 364.446 -2.22185 -3.70484 0
M  V30 3624 C 363.581 -1.91203 -4.95595 0
M  V30 3625 C 362.62 -3.08491 -5.28677 0
M  V30 3626 N 361.757 -2.77421 -6.44967 0
M  V30 3627 H 366.597 -2.20347 -2.00627 0
M  V30 3628 H 364.134 -1.09558 -0.981608 0
M  V30 3629 H 366.092 -0.850139 -4.08446 0
M  V30 3630 H 364.722 -0.0975026 -3.22653 0
M  V30 3631 H 363.774 -2.4917 -2.87434 0
M  V30 3632 H 365.086 -3.0983 -3.90905 0
M  V30 3633 H 364.24 -1.71864 -5.81848 0
M  V30 3634 H 362.979 -1.00812 -4.77167 0
M  V30 3635 H 361.984 -3.28431 -4.40923 0
M  V30 3636 H 363.209 -3.99655 -5.49047 0
M  V30 3637 H 361.155 -1.89601 -6.28003 0
M  V30 3638 H 361.072 -3.58598 -6.6554 0
M  V30 3639 H 362.34 -2.61577 -7.34301 0
M  V30 3640 N 366.569 1.04691 -1.17803 0
M  V30 3641 C 367.516 2.12557 -0.899343 0
M  V30 3642 C 368.486 1.65339 0.158771 0
M  V30 3643 O 369.671 1.90789 0.0204797 0
M  V30 3644 C 366.811 3.42481 -0.424315 0
M  V30 3645 C 365.924 4.03346 -1.54713 0
M  V30 3646 C 365.059 5.21208 -1.02546 0
M  V30 3647 C 364.098 5.74089 -2.12339 0
M  V30 3648 N 363.235 6.83247 -1.61612 0
M  V30 3649 H 368.075 2.35734 -1.823 0
M  V30 3650 H 365.612 1.1564 -0.909159 0
M  V30 3651 H 367.57 4.16996 -0.130421 0
M  V30 3652 H 366.2 3.19471 0.462377 0
M  V30 3653 H 365.252 3.2622 -1.95664 0
M  V30 3654 H 366.564 4.38628 -2.37501 0
M  V30 3655 H 365.718 6.02812 -0.685718 0
M  V30 3656 H 364.457 4.87414 -0.167084 0
M  V30 3657 H 363.462 4.91111 -2.47165 0
M  V30 3658 H 364.687 6.0993 -2.98601 0
M  V30 3659 H 362.633 6.5134 -0.780533 0
M  V30 3660 H 362.55 7.17559 -2.38003 0
M  V30 3661 H 363.818 7.68491 -1.30545 0
M  V30 3662 N 368.047 0.979072 1.23499 0
M  V30 3663 C 369.463 0.687475 1.44034 0
M  V30 3664 C 369.663 -0.746801 1.8715 0
M  V30 3665 O 368.719 -1.51939 2.0167 0
M  V30 3666 C 370.032 1.68127 2.49307 0
M  V30 3667 C 371.58 1.69516 2.63122 0
M  V30 3668 C 372.055 2.67723 3.71603 0
M  V30 3669 N 373.546 2.66233 3.79044 0
M  V30 3670 C 374.281 3.38891 4.62537 0
M  V30 3671 N 373.777 4.21103 5.50131 0
M  V30 3672 N 375.57 3.27661 4.56721 0
M  V30 3673 H 367.721 1.90559 0.938135 0
M  V30 3674 H 369.984 0.821051 0.473897 0
M  V30 3675 H 369.69 2.70693 2.2454 0
M  V30 3676 H 369.564 1.46306 3.4767 0
M  V30 3677 H 371.951 0.676561 2.8724 0
M  V30 3678 H 372.032 1.95404 1.65079 0
M  V30 3679 H 371.676 3.69724 3.48233 0
M  V30 3680 H 371.606 2.39111 4.69184 0
M  V30 3681 H 374.097 2.06568 3.16446 0
M  V30 3682 H 374.41 4.73403 6.10827 0
M  V30 3683 H 372.755 4.25195 5.49759 0
M  V30 3684 H 375.946 2.62887 3.87309 0
M  V30 3685 H 376.119 3.84547 5.21562 0
M  V30 3686 N 369.525 -1.3858 0.750561 0
M  V30 3687 C 370.773 -1.99789 0.30477 0
M  V30 3688 C 371.094 -1.59874 -1.11649 0
M  V30 3689 O 370.364 -0.85417 -1.76297 0
M  V30 3690 H 368.944 -0.738902 0.109694 0
M  V30 3691 H 371.606 -1.69391 0.963983 0
M  V30 3692 H 370.702 -3.09952 0.365499 0
M  V30 3693 N 371.003 -0.499398 -1.49478 0
M  V30 3694 C 371.966 0.268838 -2.27618 0
M  V30 3695 C 372.966 0.895383 -1.33565 0
M  V30 3696 O 374.156 0.760164 -1.56739 0
M  V30 3697 C 371.288 1.38559 -3.11471 0
M  V30 3698 H 372.481 -0.416812 -2.96989 0
M  V30 3699 H 370.034 -0.254313 -1.54217 0
M  V30 3700 H 370.769 2.10544 -2.46661 0
M  V30 3701 H 370.554 0.941797 -3.80621 0
M  V30 3702 H 372.044 1.92678 -3.70493 0
M  V30 3703 N 372.481 1.55866 -0.233164 0
M  V30 3704 C 373.428 2.20796 0.67215 0
M  V30 3705 C 374.398 1.16731 1.18166 0
M  V30 3706 O 375.583 1.45129 1.23864 0
M  V30 3707 C 372.723 2.90072 1.86955 0
M  V30 3708 C 371.836 4.08759 1.39786 0
M  V30 3709 C 370.971 4.65787 2.55374 0
M  V30 3710 C 370.01 5.76752 2.04998 0
M  V30 3711 N 369.147 6.28021 3.13901 0
M  V30 3712 H 373.987 2.9779 0.111749 0
M  V30 3713 H 371.524 1.47036 0.0434007 0
M  V30 3714 H 373.482 3.28428 2.57276 0
M  V30 3715 H 372.112 2.15575 2.40265 0
M  V30 3716 H 371.164 3.7581 0.589173 0
M  V30 3717 H 372.476 4.88906 0.98856 0
M  V30 3718 H 371.63 5.06646 3.33758 0
M  V30 3719 H 370.369 3.84828 2.99598 0
M  V30 3720 H 369.374 5.35383 1.25079 0
M  V30 3721 H 370.599 6.59553 1.61759 0
M  V30 3722 H 368.545 5.49971 3.57586 0
M  V30 3723 H 368.462 7.03323 2.7726 0
M  V30 3724 H 369.73 6.73538 3.92386 0
M  V30 3725 N 373.959 -0.0401083 1.57549 0
M  V30 3726 C 375.208 -0.732108 1.87944 0
M  V30 3727 C 375.521 -1.77107 0.830206 0
M  V30 3728 O 376.727 -2.51488 1.02302 0
M  V30 3729 C 375.183 -1.35315 3.33494 0
M  V30 3730 C 374.791 -0.351105 4.46622 0
M  V30 3731 C 376.535 -2.02566 3.73051 0
M  V30 3732 C 374.442 -0.979859 5.83226 0
M  V30 3733 H 373.372 -0.277188 0.701201 0
M  V30 3734 H 376.023 0.0138501 1.83495 0
M  V30 3735 H 374.405 -2.14844 3.32653 0
M  V30 3736 H 375.579 0.416674 4.58912 0
M  V30 3737 H 373.894 0.218708 4.15825 0
M  V30 3738 H 376.491 -2.50441 4.72423 0
M  V30 3739 H 376.834 -2.83904 3.04474 0
M  V30 3740 H 377.367 -1.29827 3.76018 0
M  V30 3741 H 374.106 -0.206135 6.55176 0
M  V30 3742 H 373.626 -1.71774 5.74677 0
M  V30 3743 H 375.305 -1.49046 6.29599 0
M  V30 3744 N 375.437 -1.54477 -0.31217 0
M  V30 3745 C 376.667 -1.76948 -1.06645 0
M  V30 3746 C 377.075 -0.523593 -1.81811 0
M  V30 3747 O 376.418 0.51578 -1.76311 0
M  V30 3748 C 376.48 -2.91668 -2.10166 0
M  V30 3749 C 376.144 -4.30165 -1.54296 0
M  V30 3750 C 377.141 -5.10603 -0.978793 0
M  V30 3751 C 374.826 -4.76738 -1.58196 0
M  V30 3752 C 376.82 -6.3573 -0.461048 0
M  V30 3753 C 374.507 -6.01831 -1.06034 0
M  V30 3754 C 375.505 -6.81161 -0.500844 0
M  V30 3755 O 375.193 -8.03899 0.0128958 0
M  V30 3756 H 374.925 -0.594088 -0.322546 0
M  V30 3757 H 377.479 -2.02213 -0.360441 0
M  V30 3758 H 375.709 -2.62001 -2.84416 0
M  V30 3759 H 377.398 -3.01817 -2.71406 0
M  V30 3760 H 378.164 -4.75771 -0.941651 0
M  V30 3761 H 374.043 -4.15027 -2.00683 0
M  V30 3762 H 377.587 -6.97596 -0.0236894 0
M  V30 3763 H 373.484 -6.36152 -1.09459 0
M  V30 3764 H 374.252 -8.18437 -0.101457 0
M  V30 3765 N 376.915 0.57481 -1.46744 0
M  V30 3766 C 377.878 1.66533 -1.57478 0
M  V30 3767 C 378.878 1.54338 -0.451263 0
M  V30 3768 O 380.068 1.58814 -0.715813 0
M  V30 3769 C 377.2 3.05999 -1.50259 0
M  V30 3770 H 378.393 1.58372 -2.54673 0
M  V30 3771 H 375.946 0.793301 -1.34672 0
M  V30 3772 H 376.681 3.19709 -0.543725 0
M  V30 3773 H 376.466 3.16259 -2.31781 0
M  V30 3774 H 377.956 3.8537 -1.60872 0
M  V30 3775 N 378.394 1.34581 0.820102 0
M  V30 3776 C 379.304 1.28471 1.96297 0
M  V30 3777 C 380.32 0.191902 1.72939 0
M  V30 3778 O 381.496 0.418879 1.96996 0
M  V30 3779 C 378.561 1.04281 3.30645 0
M  V30 3780 C 377.622 2.22745 3.66992 0
M  V30 3781 C 376.855 1.997 4.9493 0
M  V30 3782 O 377.078 0.956656 5.6232 0
M  V30 3783 O 376.012 2.86723 5.2922 0
M  V30 3784 H 379.838 2.24624 2.04396 0
M  V30 3785 H 377.423 1.14816 0.955913 0
M  V30 3786 H 379.305 0.925841 4.11104 0
M  V30 3787 H 377.98 0.111697 3.23507 0
M  V30 3788 H 376.887 2.40003 2.86966 0
M  V30 3789 H 378.22 3.14257 3.78819 0
M  V30 3790 N 379.872 -1.04064 1.18357 0
M  V30 3791 C 380.802 -2.14001 0.934113 0
M  V30 3792 C 381.783 -1.69616 -0.128186 0
M  V30 3793 O 382.968 -1.94185 0.0244093 0
M  V30 3794 C 380.098 -3.44253 0.459066 0
M  V30 3795 C 379.052 -4.02261 1.46185 0
M  V30 3796 C 378.378 -5.27992 0.844322 0
M  V30 3797 C 379.678 -4.38432 2.83856 0
M  V30 3798 H 381.372 -2.35127 1.85352 0
M  V30 3799 H 378.918 -1.12998 0.892604 0
M  V30 3800 H 380.871 -4.20522 0.271907 0
M  V30 3801 H 379.595 -3.22813 -0.495912 0
M  V30 3802 H 378.254 -3.28074 1.63595 0
M  V30 3803 H 377.902 -5.02862 -0.117845 0
M  V30 3804 H 377.602 -5.67765 1.51384 0
M  V30 3805 H 379.126 -6.06938 0.667693 0
M  V30 3806 H 380.54 -5.05688 2.70098 0
M  V30 3807 H 378.937 -4.89254 3.47491 0
M  V30 3808 H 380.007 -3.4826 3.37406 0
M  V30 3809 N 381.35 -0.985608 -1.22978 0
M  V30 3810 C 382.596 -0.65836 -1.91816 0
M  V30 3811 C 382.929 0.806692 -1.76653 0
M  V30 3812 O 382.204 1.58252 -1.13078 0
M  V30 3813 C 382.487 -1.056 -3.44268 0
M  V30 3814 C 382.34 -2.57906 -3.68516 0
M  V30 3815 C 383.659 -0.603781 -4.35939 0
M  V30 3816 H 380.778 -0.24065 -0.696604 0
M  V30 3817 H 383.42 -1.22783 -1.44998 0
M  V30 3818 H 381.57 -0.571445 -3.84274 0
M  V30 3819 H 383.242 -3.13976 -3.3796 0
M  V30 3820 H 381.485 -3.00305 -3.13048 0
M  V30 3821 H 382.156 -2.80779 -4.75255 0
M  V30 3822 H 384.632 -1.01987 -4.03408 0
M  V30 3823 H 383.508 -0.910383 -5.41298 0
M  V30 3824 H 383.769 0.495761 -4.39312 0
M  V30 3825 N 382.828 1.3818 -0.7579 0
M  V30 3826 C 384.076 1.99624 -0.315361 0
M  V30 3827 C 384.397 1.60464 1.10799 0
M  V30 3828 O 383.667 0.863507 1.75842 0
M  V30 3829 H 382.247 0.73831 -0.113611 0
M  V30 3830 H 384.909 1.68878 -0.972952 0
M  V30 3831 H 384.005 3.09754 -0.381931 0
M  V30 3832 N 384.306 0.507319 1.49211 0
M  V30 3833 C 385.553 -0.0349529 2.0247 0
M  V30 3834 C 385.881 -1.36409 1.38647 0
M  V30 3835 O 385.136 -1.88841 0.513566 0
M  V30 3836 C 385.435 -0.229513 3.56662 0
M  V30 3837 C 385.101 1.02241 4.39156 0
M  V30 3838 C 383.763 1.36557 4.61417 0
M  V30 3839 C 386.115 1.85428 4.871 0
M  V30 3840 C 383.443 2.53999 5.28868 0
M  V30 3841 C 385.795 3.02028 5.55843 0
M  V30 3842 C 384.459 3.36717 5.76349 0
M  V30 3843 H 383.729 -0.0127902 0.74089 0
M  V30 3844 H 386.376 0.668756 1.79443 0
M  V30 3845 H 384.681 -1.0158 3.78403 0
M  V30 3846 H 386.378 -0.663641 3.9547 0
M  V30 3847 H 382.968 0.745124 4.22073 0
M  V30 3848 H 387.152 1.6023 4.69723 0
M  V30 3849 H 382.408 2.81105 5.42946 0
M  V30 3850 H 386.582 3.66808 5.91967 0
M  V30 3851 H 384.209 4.27821 6.28389 0
M  V30 3852 N 385.784 -1.5574 0.241426 0
M  V30 3853 C 387.032 -1.98417 -0.384075 0
M  V30 3854 C 387.353 -1.13078 -1.58866 0
M  V30 3855 O 386.623 -0.212312 -1.94746 0
M  V30 3856 H 385.203 -0.732813 -0.144894 0
M  V30 3857 H 387.865 -1.9193 0.338943 0
M  V30 3858 H 386.961 -3.04219 -0.696939 0
M  V30 3859 N 387.262 0.0317525 -1.57568 0
M  V30 3860 C 388.195 1.06621 -2.0176 0
M  V30 3861 C 389.173 1.35323 -0.901462 0
M  V30 3862 O 390.357 1.48025 -1.16708 0
M  V30 3863 C 387.484 2.40155 -2.38837 0
M  V30 3864 C 386.53 2.27327 -3.60867 0
M  V30 3865 S 387.363 1.62925 -5.10113 0
M  V30 3866 C 388.519 2.97955 -5.5043 0
M  V30 3867 H 388.752 0.689781 -2.89187 0
M  V30 3868 H 386.285 0.24164 -1.52497 0
M  V30 3869 H 388.243 3.1695 -2.6087 0
M  V30 3870 H 386.904 2.74946 -1.51867 0
M  V30 3871 H 386.097 3.25898 -3.84456 0
M  V30 3872 H 385.699 1.58675 -3.38671 0
M  V30 3873 H 387.991 3.94285 -5.5095 0
M  V30 3874 H 388.934 2.79102 -6.50775 0
M  V30 3875 H 389.342 3.00404 -4.77931 0
M  V30 3876 N 388.74 1.54641 0.303973 0
M  V30 3877 C 389.965 1.78092 1.06292 0
M  V30 3878 C 390.39 0.537342 1.80262 0
M  V30 3879 O 389.748 -0.511993 1.7392 0
M  V30 3880 C 389.796 2.98612 2.02147 0
M  V30 3881 O 388.9 2.71528 3.10397 0
M  V30 3882 H 388.241 0.589548 0.305497 0
M  V30 3883 H 390.771 2.01716 0.3423 0
M  V30 3884 H 390.781 3.265 2.44667 0
M  V30 3885 H 389.456 3.88785 1.47714 0
M  V30 3886 H 388.033 2.54648 2.72413 0
M  V30 3887 N 390.218 -0.567019 1.47046 0
M  V30 3888 C 391.443 -1.3551 1.57009 0
M  V30 3889 C 391.868 -1.86841 0.217259 0
M  V30 3890 O 391.226 -1.62435 -0.805268 0
M  V30 3891 C 391.274 -2.50777 2.5912 0
M  V30 3892 O 390.378 -3.52706 2.13711 0
M  V30 3893 H 389.719 -0.402919 0.52778 0
M  V30 3894 H 392.249 -0.686241 1.92748 0
M  V30 3895 H 392.259 -2.97481 2.79229 0
M  V30 3896 H 390.934 -2.12771 3.57353 0
M  V30 3897 H 389.511 -3.12374 2.03659 0
M  V30 3898 N 391.696 -1.35014 -0.812953 0
M  V30 3899 C 392.973 -1.18502 -1.55617 0
M  V30 3900 C 393.353 0.238421 -2.09749 0
M  V30 3901 O 392.701 1.2411 -1.91857 0
M  V30 3902 C 392.911 -2.24783 -2.66971 0
M  V30 3903 C 394.259 -2.60268 -3.35478 0
M  V30 3904 O 395.283 -2.23648 -2.77236 0
M  V30 3905 O 394.142 -3.2321 -4.40678 0
M  V30 3906 H 391.236 -0.459984 -0.687272 0
M  V30 3907 H 393.782 -1.46677 -0.853464 0
M  V30 3908 H 392.554 -3.20284 -2.24798 0
M  V30 3909 H 392.177 -1.97841 -3.44884 0
M  V30 3910 N 393.175 1.03435 -1.18907 0
M  V30 3911 C 394.138 2.09756 -0.923844 0
M  V30 3912 C 395.138 1.60528 0.093416 0
M  V30 3913 O 396.328 1.73631 -0.140727 0
M  V30 3914 C 393.46 3.38692 -0.387354 0
M  V30 3915 H 394.653 2.34719 -1.86674 0
M  V30 3916 H 392.206 1.19959 -1.00197 0
M  V30 3917 H 392.941 3.19396 0.561845 0
M  V30 3918 H 392.726 3.75742 -1.12074 0
M  V30 3919 H 394.216 4.17016 -0.220694 0
M  V30 3920 N 394.653 0.992116 1.22453 0
M  V30 3921 C 395.883 0.684949 1.94915 0
M  V30 3922 C 396.291 -0.754292 1.73514 0
M  V30 3923 O 395.634 -1.52056 1.03076 0
M  V30 3924 C 395.696 0.910054 3.47791 0
M  V30 3925 C 395.36 2.33363 3.92926 0
M  V30 3926 C 396.357 3.31308 4.00663 0
M  V30 3927 C 394.042 2.66785 4.25595 0
M  V30 3928 C 396.036 4.6075 4.40441 0
M  V30 3929 C 393.723 3.96446 4.65053 0
M  V30 3930 C 394.721 4.9324 4.72444 0
M  V30 3931 O 394.409 6.20584 5.1101 0
M  V30 3932 H 394.141 0.25258 0.62704 0
M  V30 3933 H 396.695 1.32939 1.56577 0
M  V30 3934 H 394.925 0.208443 3.86138 0
M  V30 3935 H 396.614 0.598257 4.01467 0
M  V30 3936 H 397.38 3.0682 3.75615 0
M  V30 3937 H 393.259 1.92148 4.19047 0
M  V30 3938 H 396.803 5.363 4.46126 0
M  V30 3939 H 392.7 4.20724 4.89552 0
M  V30 3940 H 393.468 6.24509 5.29085 0
M  V30 3941 N 396.131 -1.37776 0.765217 0
M  V30 3942 C 397.081 -2.2768 0.12075 0
M  V30 3943 C 398.065 -1.45778 -0.680988 0
M  V30 3944 O 399.257 -1.684 -0.545033 0
M  V30 3945 C 396.386 -3.34722 -0.762626 0
M  V30 3946 C 395.472 -4.24074 0.0465881 0
M  V30 3947 N 395.863 -4.93939 1.08892 0
M  V30 3948 C 394.161 -4.45643 -0.178418 0
M  V30 3949 C 394.862 -5.59845 1.57951 0
M  V30 3950 N 393.838 -5.36218 0.892797 0
M  V30 3951 H 397.64 -2.79166 0.918889 0
M  V30 3952 H 395.154 -1.50816 0.602353 0
M  V30 3953 H 397.151 -3.98031 -1.24005 0
M  V30 3954 H 395.811 -2.84793 -1.55959 0
M  V30 3955 H 396.822 -4.96572 1.47095 0
M  V30 3956 H 393.499 -4.06599 -0.9478 0
M  V30 3957 H 394.889 -6.25703 2.44838 0
M  V30 3958 N 397.609 -0.515225 -1.4894 0
M  V30 3959 C 398.542 0.302518 -2.26186 0
M  V30 3960 C 399.52 0.957895 -1.31389 0
M  V30 3961 O 400.704 0.985198 -1.60705 0
M  V30 3962 C 397.831 1.42719 -3.07163 0
M  V30 3963 C 396.877 0.884736 -4.17223 0
M  V30 3964 S 397.71 -0.235767 -5.34981 0
M  V30 3965 C 398.866 0.891731 -6.19515 0
M  V30 3966 H 399.099 -0.353076 -2.95196 0
M  V30 3967 H 396.632 -0.300753 -1.51443 0
M  V30 3968 H 398.59 2.07152 -3.54398 0
M  V30 3969 H 397.251 2.05445 -2.37595 0
M  V30 3970 H 396.444 1.72801 -4.73451 0
M  V30 3971 H 396.046 0.317362 -3.72651 0
M  V30 3972 H 398.338 1.79377 -6.53322 0
M  V30 3973 H 399.281 0.367751 -7.07144 0
M  V30 3974 H 399.689 1.16548 -5.52338 0
M  V30 3975 N 399.087 1.5561 -0.249682 0
M  V30 3976 C 400.315 2.03411 0.378352 0
M  V30 3977 C 400.73 1.12886 1.51335 0
M  V30 3978 O 400.087 0.143833 1.81932 0
M  V30 3979 C 400.138 3.50537 0.88351 0
M  V30 3980 O 399.859 4.37614 -0.20626 0
M  V30 3981 C 401.36 4.14113 1.58195 0
M  V30 3982 H 398.58 0.664994 0.08958 0
M  V30 3983 H 401.124 2.01044 -0.374357 0
M  V30 3984 H 399.279 3.5343 1.58639 0
M  V30 3985 H 399.693 5.24199 0.177782 0
M  V30 3986 H 401.167 5.18741 1.8871 0
M  V30 3987 H 401.644 3.60767 2.50487 0
M  V30 3988 H 402.25 4.15151 0.923573 0
M  V30 3989 N 400.565 -0.0233959 1.57583 0
M  V30 3990 C 401.79 -0.728376 1.94189 0
M  V30 3991 C 402.215 -1.67793 0.850119 0
M  V30 3992 O 401.573 -1.80262 -0.19371 0
M  V30 3993 C 401.621 -1.45669 3.29868 0
M  V30 3994 O 400.725 -2.57013 3.22518 0
M  V30 3995 H 400.066 -0.195493 0.63457 0
M  V30 3996 H 402.596 0.0228214 2.04587 0
M  V30 3997 H 402.606 -1.82535 3.6489 0
M  V30 3998 H 401.281 -0.760314 4.08891 0
M  V30 3999 H 399.858 -2.22648 2.99136 0
M  V30 4000 N 402.043 -1.548 -0.295768 0
M  V30 4001 C 403.454 -1.65274 -0.868411 0
M  V30 4002 C 403.805 -0.56481 -1.87894 0
M  V30 4003 O 402.93 0.29767 -2.14343 0
M  V30 4004 C 403.525 -2.99603 -1.58188 0
M  V30 4005 C 402.084 -3.12181 -2.10286 0
M  V30 4006 C 401.231 -2.6098 -0.93727 0
M  V30 4007 H 404.182 -1.58534 -0.0726422 0
M  V30 4008 H 404.203 -2.91319 -2.44772 0
M  V30 4009 H 403.715 -3.78764 -0.846151 0
M  V30 4010 H 401.816 -2.3775 -2.8689 0
M  V30 4011 H 401.929 -4.18415 -2.33379 0
M  V30 4012 H 400.293 -2.17564 -1.32431 0
M  V30 4013 H 401.076 -3.42623 -0.215414 0
M  V30 4014 N 403.521 0.559213 -1.47345 0
M  V30 4015 C 404.932 1.14134 -1.47751 0
M  V30 4016 C 405.283 1.94834 -0.231103 0
M  V30 4017 O 404.408 2.05957 0.664137 0
M  V30 4018 C 405.003 2.07653 -2.67705 0
M  V30 4019 C 403.562 2.61141 -2.71076 0
M  V30 4020 C 402.709 1.3748 -2.40821 0
M  V30 4021 H 405.66 0.345917 -1.54884 0
M  V30 4022 H 405.681 2.91497 -2.44561 0
M  V30 4023 H 405.193 1.4889 -3.58404 0
M  V30 4024 H 403.294 3.23707 -1.84511 0
M  V30 4025 H 403.407 3.02272 -3.7171 0
M  V30 4026 H 401.771 1.68086 -1.91362 0
M  V30 4027 H 402.554 0.805135 -3.33725 0
M  V30 4028 N 404.999 1.35443 0.805782 0
M  V30 4029 C 405.909 1.30546 1.94923 0
M  V30 4030 C 406.925 0.210233 1.72725 0
M  V30 4031 O 408.101 0.43975 1.9654 0
M  V30 4032 C 405.166 1.07782 3.29521 0
M  V30 4033 C 404.227 2.26625 3.64609 0
M  V30 4034 C 403.46 2.04938 4.92784 0
M  V30 4035 O 403.683 1.01624 5.61274 0
M  V30 4036 O 402.617 2.9232 5.26149 0
M  V30 4037 H 406.443 2.26779 2.02002 0
M  V30 4038 H 404.028 1.15823 0.943682 0
M  V30 4039 H 405.91 0.969392 4.10098 0
M  V30 4040 H 404.585 0.146003 3.23371 0
M  V30 4041 H 403.492 2.43033 2.84404 0
M  V30 4042 H 404.825 3.18257 3.75464 0
M  V30 4043 N 406.477 -1.02803 1.19454 0
M  V30 4044 C 407.425 -2.13213 0.929673 0
M  V30 4045 C 408.419 -1.69011 -0.114806 0
M  V30 4046 O 409.625 -1.79967 0.0345147 0
M  V30 4047 H 406 -0.69662 0.28324 0
M  V30 4048 H 407.971 -2.32744 1.86743 0
M  V30 4049 C 406.72 -3.4429 0.485797 0
M  V30 4050 H 406.043 -3.7872 1.28105 0
M  V30 4051 H 407.483 -4.22638 0.339582 0
M  V30 4052 C 405.942 -3.27258 -0.800244 0
M  V30 4053 O 406.472 -3.55967 -1.86146 0
M  V30 4054 N 404.678 -2.80545 -0.75781 0
M  V30 4055 H 404.225 -2.57382 0.106039 0
M  V30 4056 H 404.183 -2.6953 -1.61867 0
M  V30 4057 N 407.956 -0.998596 -1.21925 0
M  V30 4058 C 409.204 -0.676325 -1.90448 0
M  V30 4059 C 409.525 0.794719 -1.78071 0
M  V30 4060 O 408.795 1.5701 -1.17152 0
M  V30 4061 H 407.375 -0.247165 -0.704925 0
M  V30 4062 H 410.037 -1.26633 -1.48156 0
M  V30 4063 H 409.133 -0.943858 -2.97486 0
M  V30 4064 N 409.434 1.37368 -0.772513 0
M  V30 4065 C 410.397 2.28601 -0.165541 0
M  V30 4066 C 411.397 1.48062 0.627238 0
M  V30 4067 O 412.587 1.68268 0.450715 0
M  V30 4068 C 409.719 3.32023 0.772897 0
M  V30 4069 H 410.912 2.83787 -0.969787 0
M  V30 4070 H 408.465 1.46647 -0.540775 0
M  V30 4071 H 409.2 2.81962 1.60212 0
M  V30 4072 H 408.985 3.91555 0.206585 0
M  V30 4073 H 410.475 4.00197 1.19298 0
M  V30 4074 N 410.912 0.523116 1.48665 0
M  V30 4075 C 412.16 -0.0134497 2.02096 0
M  V30 4076 C 412.481 -1.35418 1.40311 0
M  V30 4077 O 411.751 -1.87543 0.566074 0
M  V30 4078 H 410.331 -0.00795915 0.746958 0
M  V30 4079 H 412.993 0.685388 1.82451 0
M  V30 4080 H 412.089 -0.126849 3.11842 0
M  V30 4081 N 412.39 -1.55475 0.257931 0
M  V30 4082 C 413.353 -2.20551 -0.623706 0
M  V30 4083 C 414.353 -1.17809 -1.09443 0
M  V30 4084 O 415.543 -1.42823 -0.997362 0
M  V30 4085 C 412.675 -2.85784 -1.8585 0
M  V30 4086 H 413.868 -2.99848 -0.0557743 0
M  V30 4087 H 411.421 -1.56298 0.0084422 0
M  V30 4088 H 412.156 -2.10453 -2.46739 0
M  V30 4089 H 411.941 -3.61057 -1.52907 0
M  V30 4090 H 413.431 -3.35553 -2.48584 0
M  V30 4091 N 413.868 0.0150385 -1.57593 0
M  V30 4092 C 414.831 0.995996 -2.06428 0
M  V30 4093 C 415.831 1.2818 -0.970903 0
M  V30 4094 O 417.021 1.22949 -1.23406 0
M  V30 4095 C 414.153 2.32506 -2.49307 0
M  V30 4096 H 415.346 0.573873 -2.94358 0
M  V30 4097 H 412.899 0.262186 -1.54085 0
M  V30 4098 H 413.634 2.79438 -1.64575 0
M  V30 4099 H 413.419 2.13087 -3.29145 0
M  V30 4100 H 414.909 3.02906 -2.87468 0
M  V30 4101 N 415.346 1.54954 0.287554 0
M  V30 4102 C 416.276 1.89839 1.35954 0
M  V30 4103 C 417.257 0.758675 1.52244 0
M  V30 4104 O 418.442 1.01557 1.65529 0
M  V30 4105 C 415.572 2.15753 2.72154 0
M  V30 4106 C 414.526 3.3159 2.70614 0
M  V30 4107 C 413.852 3.42952 4.10229 0
M  V30 4108 C 415.152 4.68359 2.31165 0
M  V30 4109 H 416.846 2.79625 1.07007 0
M  V30 4110 H 414.392 1.3454 0.513316 0
M  V30 4111 H 416.345 2.38743 3.47246 0
M  V30 4112 H 415.069 1.22752 3.02654 0
M  V30 4113 H 413.728 3.08545 1.97979 0
M  V30 4114 H 413.376 2.47443 4.37928 0
M  V30 4115 H 413.076 4.20826 4.10097 0
M  V30 4116 H 414.6 3.68218 4.87081 0
M  V30 4117 H 416.014 4.9099 2.95976 0
M  V30 4118 H 414.411 5.49044 2.42221 0
M  V30 4119 H 415.481 4.68165 1.26291 0
M  V30 4120 N 416.824 -0.551391 1.4764 0
M  V30 4121 C 417.787 -1.64007 1.60107 0
M  V30 4122 C 418.787 -1.53601 0.47576 0
M  V30 4123 O 419.977 -1.57655 0.740988 0
M  V30 4124 C 417.109 -3.03569 1.55108 0
M  V30 4125 H 418.302 -1.543 2.57161 0
M  V30 4126 H 415.855 -0.771776 1.35917 0
M  V30 4127 H 416.59 -3.18804 0.594519 0
M  V30 4128 H 416.375 -3.12532 2.36783 0
M  V30 4129 H 417.865 -3.82762 1.66982 0
M  V30 4130 N 418.302 -1.35869 -0.798587 0
M  V30 4131 C 419.235 -1.23801 -1.91699 0
M  V30 4132 C 420.213 -0.124143 -1.62125 0
M  V30 4133 O 421.397 -0.293656 -1.86199 0
M  V30 4134 C 418.524 -0.908063 -3.263 0
M  V30 4135 C 417.57 -2.0351 -3.74815 0
M  V30 4136 S 418.403 -3.65183 -3.91665 0
M  V30 4137 C 419.559 -3.34283 -5.29156 0
M  V30 4138 H 419.792 -2.18466 -2.01643 0
M  V30 4139 H 417.325 -1.21178 -0.956833 0
M  V30 4140 H 419.283 -0.724506 -4.04056 0
M  V30 4141 H 417.944 0.0206584 -3.14093 0
M  V30 4142 H 417.137 -1.75858 -4.72324 0
M  V30 4143 H 416.739 -2.1774 -3.04081 0
M  V30 4144 H 419.031 -2.87607 -6.13424 0
M  V30 4145 H 419.974 -4.31022 -5.61806 0
M  V30 4146 H 420.382 -2.69854 -4.95822 0
M  V30 4147 N 419.78 1.02168 -1.19998 0
M  V30 4148 C 420.743 2.08765 -0.94604 0
M  V30 4149 C 421.743 1.60618 0.0763846 0
M  V30 4150 O 422.933 1.73472 -0.159135 0
M  V30 4151 C 420.065 3.38262 -0.423255 0
M  V30 4152 H 421.258 2.32726 -1.89153 0
M  V30 4153 H 418.811 1.1889 -1.01464 0
M  V30 4154 H 419.546 3.19974 0.527938 0
M  V30 4155 H 419.331 3.74532 -1.16053 0
M  V30 4156 H 420.821 4.16759 -0.264911 0
M  V30 4157 N 421.258 1.00505 1.21394 0
M  V30 4158 C 422.206 0.558623 2.25792 0
M  V30 4159 C 423.2 -0.396848 1.64686 0
M  V30 4160 O 424.406 -0.268035 1.77993 0
M  V30 4161 H 420.781 0.1623 0.734277 0
M  V30 4162 H 422.752 1.4503 2.60785 0
M  V30 4163 C 421.501 -0.0989574 3.47559 0
M  V30 4164 H 420.824 0.627225 3.94849 0
M  V30 4165 H 422.264 -0.3746 4.22342 0
M  V30 4166 C 420.723 -1.33817 3.09184 0
M  V30 4167 O 421.253 -2.43252 3.19674 0
M  V30 4168 N 419.459 -1.21793 2.63846 0
M  V30 4169 H 419.006 -0.32746 2.5551 0
M  V30 4170 H 418.964 -2.04809 2.38539 0
M  V30 4171 N 422.737 -1.36956 0.779787 0
M  V30 4172 C 423.7 -2.2851 0.177662 0
M  V30 4173 C 424.7 -1.48393 -0.619377 0
M  V30 4174 O 425.89 -1.68505 -0.441785 0
M  V30 4175 C 423.022 -3.32428 -0.755279 0
M  V30 4176 H 424.215 -2.83269 0.984823 0
M  V30 4177 H 421.768 -1.46358 0.548544 0
M  V30 4178 H 422.503 -2.82808 -1.58714 0
M  V30 4179 H 422.288 -3.91659 -0.185817 0
M  V30 4180 H 423.778 -4.00824 -1.17174 0
M  V30 4181 N 424.215 -0.530993 -1.48385 0
M  V30 4182 C 425.145 0.219985 -2.32461 0
M  V30 4183 C 426.126 0.934111 -1.42156 0
M  V30 4184 O 427.311 0.919694 -1.71042 0
M  V30 4185 C 424.441 1.26674 -3.23375 0
M  V30 4186 C 423.395 0.67069 -4.22712 0
M  V30 4187 C 422.721 1.82017 -5.02766 0
M  V30 4188 C 424.021 -0.358268 -5.2107 0
M  V30 4189 H 425.715 -0.48187 -2.95497 0
M  V30 4190 H 423.261 -0.233182 -1.42099 0
M  V30 4191 H 425.214 1.80006 -3.81019 0
M  V30 4192 H 423.938 1.99818 -2.58341 0
M  V30 4193 H 422.597 0.158878 -3.66256 0
M  V30 4194 H 422.245 2.54002 -4.34157 0
M  V30 4195 H 421.945 1.42727 -5.70003 0
M  V30 4196 H 423.469 2.35725 -5.63264 0
M  V30 4197 H 424.883 0.0880081 -5.73232 0
M  V30 4198 H 423.28 -0.66861 -5.96364 0
M  V30 4199 H 424.35 -1.26367 -4.68145 0
M  V30 4200 N 425.693 1.55336 -0.266172 0
M  V30 4201 C 427.109 1.59356 0.0882065 0
M  V30 4202 C 427.309 1.2834 1.55342 0
M  V30 4203 O 426.365 1.03996 2.30089 0
M  V30 4204 C 427.678 2.99409 -0.278364 0
M  V30 4205 C 429.226 3.12196 -0.224243 0
M  V30 4206 C 429.701 4.545 -0.565123 0
M  V30 4207 N 431.192 4.60313 -0.51634 0
M  V30 4208 C 431.927 5.68434 -0.753013 0
M  V30 4209 N 431.423 6.84738 -1.05383 0
M  V30 4210 N 433.216 5.57942 -0.682414 0
M  V30 4211 H 425.367 1.73764 -1.22147 0
M  V30 4212 H 427.63 0.809822 -0.492841 0
M  V30 4213 H 427.336 3.2691 -1.29703 0
M  V30 4214 H 427.21 3.75228 0.385186 0
M  V30 4215 H 429.597 2.84464 0.78512 0
M  V30 4216 H 429.678 2.38609 -0.921922 0
M  V30 4217 H 429.322 4.82956 -1.57213 0
M  V30 4218 H 429.252 5.26374 0.154248 0
M  V30 4219 H 431.743 3.7676 -0.29335 0
M  V30 4220 H 432.056 7.63088 -1.22133 0
M  V30 4221 H 430.401 6.86375 -1.09151 0
M  V30 4222 H 433.592 4.65958 -0.44731 0
M  V30 4223 H 433.765 6.4213 -0.870248 0
M  V30 4224 N 427.171 -0.0066808 1.57599 0
M  V30 4225 C 428.448 -0.729586 1.81484 0
M  V30 4226 C 428.828 -1.92359 0.869558 0
M  V30 4227 O 428.176 -2.28348 -0.0832533 0
M  V30 4228 C 428.386 -1.1416 3.29801 0
M  V30 4229 C 429.734 -1.54823 3.95367 0
M  V30 4230 O 430.758 -1.23558 3.34084 0
M  V30 4231 O 429.617 -2.12937 5.03309 0
M  V30 4232 H 426.711 -0.354674 0.747085 0
M  V30 4233 H 429.257 0.0182609 1.6969 0
M  V30 4234 H 428.029 -0.290231 3.90222 0
M  V30 4235 H 427.652 -1.94876 3.46568 0
M  V30 4236 N 428.649 -1.55105 -0.279332 0
M  V30 4237 C 429.612 -1.86783 -1.32834 0
M  V30 4238 C 430.612 -0.74199 -1.42657 0
M  V30 4239 O 431.802 -1.0102 -1.41918 0
M  V30 4240 C 428.934 -2.06746 -2.71052 0
M  V30 4241 H 430.127 -2.8055 -1.05979 0
M  V30 4242 H 427.68 -1.47499 -0.517087 0
M  V30 4243 H 428.415 -1.15339 -3.03097 0
M  V30 4244 H 428.2 -2.88711 -2.65309 0
M  V30 4245 H 429.69 -2.32549 -3.46858 0
M  V30 4246 N 430.127 0.543554 -1.4793 0
M  V30 4247 C 431.375 1.29752 -1.54948 0
M  V30 4248 C 431.696 1.93764 -0.219242 0
M  V30 4249 O 430.966 1.80639 0.75805 0
M  V30 4250 H 429.546 0.481874 -0.570795 0
M  V30 4251 H 432.208 0.633636 -1.84312 0
M  V30 4252 H 431.304 2.08392 -2.32334 0
M  V30 4253 N 431.605 1.3629 0.791371 0
M  V30 4254 C 432.854 1.29742 1.54434 0
M  V30 4255 C 433.167 -0.121729 1.95221 0
M  V30 4256 O 434.373 -0.309579 2.69729 0
M  V30 4257 C 432.829 2.27623 2.78776 0
M  V30 4258 C 432.437 3.74963 2.45166 0
M  V30 4259 C 434.181 2.30047 3.56761 0
M  V30 4260 C 432.088 4.64626 3.65891 0
M  V30 4261 H 431.018 0.482113 0.579727 0
M  V30 4262 H 433.669 1.61642 0.868565 0
M  V30 4263 H 432.051 1.88714 3.48142 0
M  V30 4264 H 433.225 4.22596 1.83709 0
M  V30 4265 H 431.54 3.75295 1.80396 0
M  V30 4266 H 434.137 2.94247 4.46456 0
M  V30 4267 H 434.48 1.30846 3.95203 0
M  V30 4268 H 435.013 2.67563 2.94372 0
M  V30 4269 H 431.752 5.64883 3.32547 0
M  V30 4270 H 431.272 4.2171 4.26521 0
M  V30 4271 H 432.951 4.80801 4.32943 0
M  V30 4272 N 433.083 -1.0153 1.20538 0
M  V30 4273 C 433.993 -2.13557 0.971113 0
M  V30 4274 C 435.009 -1.73845 -0.0734366 0
M  V30 4275 O 436.185 -2.01075 0.114299 0
M  V30 4276 C 433.25 -3.42661 0.527639 0
M  V30 4277 C 432.311 -3.96608 1.64319 0
M  V30 4278 C 431.544 -5.1955 1.22078 0
M  V30 4279 O 431.767 -5.70329 0.0900198 0
M  V30 4280 O 430.701 -5.66681 2.02871 0
M  V30 4281 H 434.527 -2.3619 1.90913 0
M  V30 4282 H 432.112 -1.11946 0.989362 0
M  V30 4283 H 433.994 -4.20404 0.289621 0
M  V30 4284 H 432.669 -3.21441 -0.381779 0
M  V30 4285 H 431.576 -3.20139 1.93551 0
M  V30 4286 H 432.909 -4.22219 2.52966 0
M  V30 4287 N 434.561 -1.01147 -1.20859 0
M  V30 4288 C 435.524 -0.582224 -2.21682 0
M  V30 4289 C 436.524 0.344887 -1.57058 0
M  V30 4290 O 437.714 0.134281 -1.73682 0
M  V30 4291 C 434.846 0.150496 -3.40568 0
M  V30 4292 H 436.039 -1.47408 -2.61172 0
M  V30 4293 H 433.592 -0.800695 -1.34233 0
M  V30 4294 H 434.327 1.0575 -3.06574 0
M  V30 4295 H 434.112 -0.515444 -3.88697 0
M  V30 4296 H 435.602 0.438344 -4.15293 0
M  V30 4297 N 436.039 1.36541 -0.78704 0
M  V30 4298 C 437.264 2.0409 -0.369053 0
M  V30 4299 C 437.689 1.58957 1.00569 0
M  V30 4300 O 437.047 0.756926 1.64743 0
M  V30 4301 C 437.095 3.57924 -0.438466 0
M  V30 4302 O 436.199 4.08642 0.555479 0
M  V30 4303 H 435.54 0.645142 -0.157122 0
M  V30 4304 H 438.07 1.74545 -1.06749 0
M  V30 4305 H 438.08 4.06887 -0.301218 0
M  V30 4306 H 436.755 3.90127 -1.44132 0
M  V30 4307 H 435.332 3.70958 0.380088 0
M  V30 4308 N 437.518 0.538854 1.48102 0
M  V30 4309 C 438.45 -0.256278 2.27763 0
M  V30 4310 C 439.463 -0.89633 1.35904 0
M  V30 4311 O 440.652 -0.773275 1.60881 0
M  V30 4312 C 437.752 -1.37896 3.09577 0
M  V30 4313 C 436.925 -0.839159 4.29275 0
M  V30 4314 C 435.984 -1.84405 4.9283 0
M  V30 4315 O 435.01 -1.39746 5.51779 0
M  V30 4316 N 436.212 -3.17666 4.85869 0
M  V30 4317 H 438.977 0.426968 2.96643 0
M  V30 4318 H 436.538 0.373747 1.57527 0
M  V30 4319 H 438.53 -2.04955 3.48963 0
M  V30 4320 H 437.1 -1.96572 2.4306 0
M  V30 4321 H 436.32 0.00769287 3.94199 0
M  V30 4322 H 437.608 -0.457548 5.06739 0
M  V30 4323 H 437.006 -3.56609 4.39143 0
M  V30 4324 H 435.563 -3.80334 5.29329 0
M  V30 4325 N 438.996 -1.55193 0.274407 0
M  V30 4326 C 440.245 -1.98758 -0.343213 0
M  V30 4327 C 440.558 -1.16624 -1.5703 0
M  V30 4328 O 441.764 -1.5033 -2.26082 0
M  V30 4329 C 440.22 -3.53759 -0.661996 0
M  V30 4330 C 439.828 -4.4467 0.54524 0
M  V30 4331 C 441.572 -4.05916 -1.24228 0
M  V30 4332 C 439.479 -5.91058 0.201084 0
M  V30 4333 H 438.409 -0.742353 -0.132014 0
M  V30 4334 H 441.06 -1.79545 0.378948 0
M  V30 4335 H 439.442 -3.68772 -1.44304 0
M  V30 4336 H 440.616 -4.41426 1.32212 0
M  V30 4337 H 438.931 -4.03143 1.04232 0
M  V30 4338 H 441.528 -5.12831 -1.51357 0
M  V30 4339 H 441.871 -3.54908 -2.17592 0
M  V30 4340 H 442.404 -3.9434 -0.523542 0
M  V30 4341 H 439.143 -6.46161 1.10258 0
M  V30 4342 H 438.663 -5.97373 -0.539045 0
M  V30 4343 H 440.342 -6.46669 -0.206954 0
M  V30 4344 N 440.474 -0.00167713 -1.576 0
M  V30 4345 C 441.722 0.681471 -1.90264 0
M  V30 4346 C 442.043 1.7422 -0.875924 0
M  V30 4347 O 441.313 1.95709 0.0864412 0
M  V30 4348 H 439.893 0.254696 -0.702239 0
M  V30 4349 H 442.555 -0.0429996 -1.94853 0
M  V30 4350 H 441.651 1.15166 -2.90075 0
M  V30 4351 N 441.952 1.55251 0.271103 0
M  V30 4352 C 443.182 1.79713 1.01916 0
M  V30 4353 C 443.59 0.571613 1.80359 0
M  V30 4354 O 442.933 -0.468853 1.77616 0
M  V30 4355 C 442.995 2.97138 2.02359 0
M  V30 4356 C 442.659 4.34104 1.42837 0
M  V30 4357 C 443.656 5.13019 0.843071 0
M  V30 4358 C 441.341 4.80765 1.455 0
M  V30 4359 C 443.335 6.36729 0.292333 0
M  V30 4360 C 441.022 6.0443 0.900402 0
M  V30 4361 C 442.02 6.8225 0.32007 0
M  V30 4362 O 441.708 8.03582 -0.226031 0
M  V30 4363 H 441.44 0.602431 0.306681 0
M  V30 4364 H 443.994 2.03097 0.306701 0
M  V30 4365 H 442.224 2.6945 2.77369 0
M  V30 4366 H 443.913 3.08907 2.63309 0
M  V30 4367 H 444.679 4.781 0.815178 0
M  V30 4368 H 440.558 4.20202 1.89609 0
M  V30 4369 H 444.102 6.97414 -0.161274 0
M  V30 4370 H 439.999 6.3883 0.925541 0
M  V30 4371 H 440.767 8.18418 -0.115572 0
M  V30 4372 N 443.43 -0.535701 1.48216 0
M  V30 4373 C 444.676 -1.29375 1.56173 0
M  V30 4374 C 445.009 -1.92804 0.232429 0
M  V30 4375 O 444.284 -1.78992 -0.761048 0
M  V30 4376 C 444.567 -2.38747 2.69577 0
M  V30 4377 C 444.42 -1.80046 4.12193 0
M  V30 4378 C 445.739 -3.40551 2.78771 0
M  V30 4379 H 442.858 -0.469027 0.568491 0
M  V30 4380 H 445.5 -0.597358 1.80365 0
M  V30 4381 H 443.65 -2.98147 2.4908 0
M  V30 4382 H 445.322 -1.24742 4.44114 0
M  V30 4383 H 443.565 -1.10609 4.19462 0
M  V30 4384 H 444.236 -2.59212 4.87353 0
M  V30 4385 H 446.712 -2.91099 2.97322 0
M  V30 4386 H 445.588 -4.1448 3.59857 0
M  V30 4387 H 445.849 -4.00746 1.86696 0
M  V30 4388 N 444.908 -1.36708 -0.784132 0
M  V30 4389 C 445.856 -1.31533 -1.91838 0
M  V30 4390 C 446.85 -0.206205 -1.6814 0
M  V30 4391 O 448.056 -0.373519 -1.76082 0
M  V30 4392 H 444.431 -0.409613 -0.630651 0
M  V30 4393 H 446.402 -2.2731 -1.9332 0
M  V30 4394 C 445.151 -1.12679 -3.28936 0
M  V30 4395 H 444.474 -1.97274 -3.4774 0
M  V30 4396 H 445.914 -1.13106 -4.08636 0
M  V30 4397 C 444.373 0.168281 -3.36479 0
M  V30 4398 O 444.903 1.15625 -3.84699 0
M  V30 4399 N 443.109 0.214762 -2.89805 0
M  V30 4400 H 442.656 -0.589852 -2.50756 0
M  V30 4401 H 442.614 1.08094 -2.95234 0
M  V30 4402 N 446.386 1.0089 -1.21074 0
M  V30 4403 C 447.349 2.0775 -0.968129 0
M  V30 4404 C 448.349 1.6069 0.0593445 0
M  V30 4405 O 449.539 1.73293 -0.177525 0
M  V30 4406 C 446.671 3.37794 -0.459108 0
M  V30 4407 H 447.864 2.30707 -1.9161 0
M  V30 4408 H 445.417 1.17807 -1.02719 0
M  V30 4409 H 446.152 3.20516 0.49397 0
M  V30 4410 H 445.937 3.7328 -1.20019 0
M  V30 4411 H 447.427 4.16454 -0.309099 0
M  V30 4412 N 447.864 1.01787 1.20321 0
M  V30 4413 C 448.814 0.559976 2.21016 0
M  V30 4414 C 449.798 -0.385366 1.56217 0
M  V30 4415 O 450.99 -0.208126 1.75772 0
M  V30 4416 C 448.119 -0.0990553 3.43157 0
M  V30 4417 C 447.205 0.86807 4.15121 0
M  V30 4418 N 447.596 2.0261 4.63447 0
M  V30 4419 C 445.894 0.689162 4.40643 0
M  V30 4420 C 446.595 2.63518 5.18588 0
M  V30 4421 N 445.571 1.91569 5.08726 0
M  V30 4422 H 449.373 1.44281 2.56048 0
M  V30 4423 H 446.887 0.883381 1.36272 0
M  V30 4424 H 448.884 -0.444643 4.14522 0
M  V30 4425 H 447.544 -0.977709 3.0963 0
M  V30 4426 H 448.555 2.40598 4.58621 0
M  V30 4427 H 445.232 -0.14133 4.17261 0
M  V30 4428 H 446.622 3.61527 5.66346 0
M  V30 4429 N 449.342 -1.36122 0.79427 0
M  V30 4430 C 450.59 -1.98718 0.368177 0
M  V30 4431 C 450.911 -1.63345 -1.06506 0
M  V30 4432 O 450.181 -0.909825 -1.73491 0
M  V30 4433 H 448.761 -0.735038 0.133146 0
M  V30 4434 H 451.423 -1.66239 1.01739 0
M  V30 4435 H 450.519 -3.08633 0.463923 0
M  V30 4436 N 450.82 -0.546701 -1.47814 0
M  V30 4437 C 452.048 -0.0232857 -2.06887 0
M  V30 4438 C 452.463 1.26571 -1.4009 0
M  V30 4439 O 451.82 1.7569 -0.493906 0
M  V30 4440 C 451.871 0.186975 -3.61016 0
M  V30 4441 O 451.592 -1.05097 -4.25307 0
M  V30 4442 C 453.093 0.748872 -4.36929 0
M  V30 4443 H 450.313 -0.0410763 -0.669742 0
M  V30 4444 H 452.857 -0.757117 -1.89968 0
M  V30 4445 H 451.012 0.870903 -3.77484 0
M  V30 4446 H 451.426 -0.842121 -5.17695 0
M  V30 4447 H 452.9 0.845334 -5.45489 0
M  V30 4448 H 453.377 1.75772 -4.02493 0
M  V30 4449 H 453.983 0.100979 -4.2518 0
M  V30 4450 N 452.299 1.55045 -0.282633 0
M  V30 4451 C 453.524 2.04628 0.337977 0
M  V30 4452 C 453.949 1.15937 1.48123 0
M  V30 4453 O 453.307 0.159532 1.80597 0
M  V30 4454 C 453.355 3.51854 0.78936 0
M  V30 4455 O 452.459 3.66236 1.89592 0
M  V30 4456 H 451.8 0.660434 0.0687261 0
M  V30 4457 H 454.33 2.00261 -0.419124 0
M  V30 4458 H 454.34 3.93361 1.08311 0
M  V30 4459 H 453.015 4.15873 -0.0470419 0
M  V30 4460 H 451.592 3.36633 1.60413 0
M  V30 4461 N 453.777 0.010035 1.57597 0
M  V30 4462 C 455.005 -0.683413 1.95287 0
M  V30 4463 C 455.42 -1.66747 0.885481 0
M  V30 4464 O 454.777 -1.82003 -0.134629 0
M  V30 4465 C 454.828 -1.40652 3.33015 0
M  V30 4466 O 454.549 -0.461916 4.35658 0
M  V30 4467 C 456.05 -2.19356 3.85225 0
M  V30 4468 H 453.27 -0.189708 0.643624 0
M  V30 4469 H 455.814 0.0641359 2.04399 0
M  V30 4470 H 453.969 -2.10562 3.2518 0
M  V30 4471 H 454.383 -0.973215 5.15392 0
M  V30 4472 H 455.857 -2.65433 4.83993 0
M  V30 4473 H 456.334 -3.02457 3.18459 0
M  V30 4474 H 456.94 -1.54442 3.96267 0
M  V30 4475 N 455.255 -1.55392 -0.262866 0
M  V30 4476 C 456.666 -1.67079 -0.833158 0
M  V30 4477 C 457.017 -0.604539 -1.86654 0
M  V30 4478 O 456.142 0.252138 -2.14926 0
M  V30 4479 C 456.737 -3.02891 -1.51797 0
M  V30 4480 C 455.296 -3.16571 -2.03617 0
M  V30 4481 C 454.443 -2.62909 -0.881701 0
M  V30 4482 H 457.394 -1.58652 -0.0389986 0
M  V30 4483 H 457.415 -2.96445 -2.38538 0
M  V30 4484 H 456.927 -3.80473 -0.765619 0
M  V30 4485 H 455.028 -2.43782 -2.81782 0
M  V30 4486 H 455.141 -4.23271 -2.24452 0
M  V30 4487 H 453.505 -2.20324 -1.27786 0
M  V30 4488 H 454.288 -3.43003 -0.14269 0
M  V30 4489 N 456.733 0.527833 -1.48498 0
M  V30 4490 C 457.696 1.61439 -1.62696 0
M  V30 4491 C 458.696 1.52824 -0.500136 0
M  V30 4492 O 459.886 1.56456 -0.765976 0
M  V30 4493 C 457.018 3.01063 -1.59918 0
M  V30 4494 H 458.211 1.50189 -2.59583 0
M  V30 4495 H 455.764 0.750055 -1.37127 0
M  V30 4496 H 456.499 3.17818 -0.645163 0
M  V30 4497 H 456.284 3.08725 -2.41726 0
M  V30 4498 H 457.774 3.80057 -1.73051 0
M  V30 4499 N 458.211 1.37122 0.776871 0
M  V30 4500 C 459.459 1.31787 1.53221 0
M  V30 4501 C 459.78 -0.0987589 1.9475 0
M  V30 4502 O 459.05 -1.0417 1.65908 0
M  V30 4503 H 457.63 0.484839 0.568278 0
M  V30 4504 H 460.292 1.71556 0.924917 0
M  V30 4505 H 459.388 1.95355 2.43398 0
M  V30 4506 N 459.689 -1.00246 1.21608 0
M  V30 4507 C 460.966 -1.71336 0.943568 0
M  V30 4508 C 461.346 -2.03972 -0.543943 0
M  V30 4509 O 460.694 -1.71545 -1.50946 0
M  V30 4510 C 460.904 -2.97094 1.83128 0
M  V30 4511 C 462.252 -3.70071 2.08165 0
M  V30 4512 O 463.276 -3.07081 1.80498 0
M  V30 4513 O 462.135 -4.83376 2.54971 0
M  V30 4514 H 459.229 -0.747386 0.354039 0
M  V30 4515 H 461.775 -1.05967 1.32549 0
M  V30 4516 H 460.547 -2.69407 2.83788 0
M  V30 4517 H 460.17 -3.70204 1.45034 0
M  V30 4518 N 461.167 -1.02423 -1.1978 0
M  V30 4519 C 462.114 -0.601023 -2.22837 0
M  V30 4520 C 463.084 0.382801 -1.61629 0
M  V30 4521 O 464.269 0.280514 -1.88727 0
M  V30 4522 C 461.409 0.0467755 -3.45068 0
M  V30 4523 C 460.522 -0.98253 -4.20678 0
M  V30 4524 C 459.657 -0.304982 -5.30324 0
M  V30 4525 C 458.696 -1.32052 -5.97686 0
M  V30 4526 N 457.833 -0.669105 -6.98904 0
M  V30 4527 H 462.673 -1.48444 -2.58396 0
M  V30 4528 H 460.21 -0.742936 -1.2696 0
M  V30 4529 H 462.168 0.439556 -4.14878 0
M  V30 4530 H 460.798 0.893796 -3.10179 0
M  V30 4531 H 459.85 -1.49341 -3.49859 0
M  V30 4532 H 461.162 -1.75455 -4.66923 0
M  V30 4533 H 460.316 0.142893 -6.06532 0
M  V30 4534 H 459.055 0.499283 -4.85138 0
M  V30 4535 H 458.06 -1.7787 -5.20233 0
M  V30 4536 H 459.285 -2.1262 -6.44957 0
M  V30 4537 H 457.231 0.115152 -6.55899 0
M  V30 4538 H 457.148 -1.37908 -7.43315 0
M  V30 4539 H 458.416 -0.245076 -7.79115 0
M  V30 4540 N 462.645 1.35699 -0.801477 0
M  V30 4541 C 463.608 2.28199 -0.213994 0
M  V30 4542 C 464.608 1.49359 0.595691 0
M  V30 4543 O 465.798 1.69186 0.414921 0
M  V30 4544 C 462.93 3.33587 0.702297 0
M  V30 4545 H 464.123 2.81666 -1.02976 0
M  V30 4546 H 461.676 1.45467 -0.571759 0
M  V30 4547 H 462.411 2.85297 1.54195 0
M  V30 4548 H 462.196 3.91906 0.123484 0
M  V30 4549 H 463.686 4.02638 1.10783 0
M  V30 4550 N 464.123 0.554532 1.47522 0
M  V30 4551 C 465.033 -0.197865 2.33764 0
M  V30 4552 C 466.049 -0.914576 1.48025 0
M  V30 4553 O 467.225 -0.884067 1.80959 0
M  V30 4554 C 464.29 -1.21628 3.24665 0
M  V30 4555 C 463.351 -0.507283 4.26292 0
M  V30 4556 C 462.584 -1.47718 5.1285 0
M  V30 4557 O 462.807 -2.7118 5.01814 0
M  V30 4558 O 461.741 -1.00313 5.93482 0
M  V30 4559 H 465.567 0.50949 2.99396 0
M  V30 4560 H 463.152 0.315176 1.46038 0
M  V30 4561 H 465.034 -1.80421 3.80823 0
M  V30 4562 H 463.709 -1.9056 2.61665 0
M  V30 4563 H 462.616 0.121778 3.73902 0
M  V30 4564 H 463.949 0.140544 4.91999 0
M  V30 4565 N 465.601 -1.54893 0.290851 0
M  V30 4566 C 466.564 -2.21824 -0.576784 0
M  V30 4567 C 467.564 -1.20104 -1.06919 0
M  V30 4568 O 468.754 -1.44906 -0.966843 0
M  V30 4569 C 465.886 -2.89662 -1.79747 0
M  V30 4570 H 467.079 -2.99899 0.00784051 0
M  V30 4571 H 464.632 -1.56245 0.0415934 0
M  V30 4572 H 465.367 -2.15639 -2.42219 0
M  V30 4573 H 465.152 -3.64219 -1.45214 0
M  V30 4574 H 466.642 -3.4075 -2.4141 0
M  V30 4575 N 467.08 -0.0183926 -1.57589 0
M  V30 4576 C 468.012 0.995557 -2.06449 0
M  V30 4577 C 469.025 1.29556 -0.985849 0
M  V30 4578 O 470.214 1.2621 -1.26227 0
M  V30 4579 C 467.314 2.32572 -2.46502 0
M  V30 4580 C 466.487 2.21245 -3.77319 0
M  V30 4581 C 465.546 3.37104 -4.04039 0
M  V30 4582 O 464.572 3.14468 -4.74445 0
M  V30 4583 N 465.774 4.60553 -3.53372 0
M  V30 4584 H 468.539 0.578746 -2.94059 0
M  V30 4585 H 466.1 0.168603 -1.6102 0
M  V30 4586 H 468.092 3.08887 -2.61478 0
M  V30 4587 H 466.662 2.65931 -1.64315 0
M  V30 4588 H 465.882 1.29723 -3.72244 0
M  V30 4589 H 467.17 2.10868 -4.63047 0
M  V30 4590 H 466.568 4.81839 -2.96391 0
M  V30 4591 H 465.125 5.34072 -3.73644 0
M  V30 4592 N 468.558 1.5553 0.254621 0
M  V30 4593 C 469.521 1.88872 1.29846 0
M  V30 4594 C 470.521 0.764591 1.41459 0
M  V30 4595 O 471.711 1.03265 1.40293 0
M  V30 4596 C 468.843 2.11032 2.67728 0
M  V30 4597 H 470.036 2.82201 1.01502 0
M  V30 4598 H 467.589 1.48303 0.493556 0
M  V30 4599 H 468.324 1.20146 3.01223 0
M  V30 4600 H 468.109 2.92895 2.60682 0
M  V30 4601 H 469.599 2.38038 3.43115 0
M  V30 4602 N 470.036 -0.519951 1.48776 0
M  V30 4603 C 471.282 -1.27711 1.57536 0
M  V30 4604 C 471.615 -1.92547 0.252866 0
M  V30 4605 O 470.89 -1.7979 -0.742021 0
M  V30 4606 C 471.173 -2.35875 2.72094 0
M  V30 4607 C 471.026 -1.75664 4.1408 0
M  V30 4608 C 472.345 -3.37575 2.82367 0
M  V30 4609 H 469.464 -0.462971 0.573434 0
M  V30 4610 H 472.106 -0.578194 1.80989 0
M  V30 4611 H 470.256 -2.95488 2.52228 0
M  V30 4612 H 471.928 -1.20025 4.45412 0
M  V30 4613 H 470.171 -1.06154 4.20611 0
M  V30 4614 H 470.842 -2.54029 4.90075 0
M  V30 4615 H 473.318 -2.87929 3.00393 0
M  V30 4616 H 472.194 -4.1064 3.64233 0
M  V30 4617 H 472.455 -3.98743 1.90936 0
M  V30 4618 N 471.514 -1.37532 -0.769588 0
M  V30 4619 C 472.461 -1.3347 -1.88293 0
M  V30 4620 C 473.431 -0.199891 -1.64893 0
M  V30 4621 O 474.616 -0.389594 -1.8678 0
M  V30 4622 C 471.756 -1.14968 -3.25387 0
M  V30 4623 C 470.869 -2.37698 -3.60727 0
M  V30 4624 C 470.004 -2.12051 -4.8704 0
M  V30 4625 C 469.043 -3.30636 -5.15117 0
M  V30 4626 N 468.18 -3.04527 -6.3262 0
M  V30 4627 H 473.02 -2.28658 -1.911 0
M  V30 4628 H 470.557 -1.13622 -0.934257 0
M  V30 4629 H 472.515 -1.02261 -4.04473 0
M  V30 4630 H 471.145 -0.234263 -3.21949 0
M  V30 4631 H 470.197 -2.61137 -2.76608 0
M  V30 4632 H 471.509 -3.26131 -3.77413 0
M  V30 4633 H 470.663 -1.96388 -5.74035 0
M  V30 4634 H 469.402 -1.20959 -4.72462 0
M  V30 4635 H 468.407 -3.46836 -4.26597 0
M  V30 4636 H 469.632 -4.22582 -5.31603 0
M  V30 4637 H 467.578 -2.16067 -6.19396 0
M  V30 4638 H 467.495 -3.86503 -6.49732 0
M  V30 4639 H 468.763 -2.92485 -7.22546 0
M  V30 4640 N 472.992 0.995999 -1.22138 0
M  V30 4641 C 474.22 1.77066 -1.07029 0
M  V30 4642 C 474.635 1.8495 0.379357 0
M  V30 4643 O 473.992 1.3174 1.26297 0
M  V30 4644 C 474.043 3.20533 -1.67155 0
M  V30 4645 O 473.764 3.13082 -3.06449 0
M  V30 4646 C 475.265 4.14461 -1.5728 0
M  V30 4647 H 472.485 0.556179 -0.375374 0
M  V30 4648 H 475.029 1.25238 -1.61666 0
M  V30 4649 H 473.184 3.6944 -1.16589 0
M  V30 4650 H 473.598 4.03283 -3.35355 0
M  V30 4651 H 475.072 5.1289 -2.04078 0
M  V30 4652 H 475.549 4.36005 -0.528795 0
M  V30 4653 H 476.155 3.71449 -2.07136 0
M  V30 4654 N 474.47 1.03057 1.19235 0
M  V30 4655 C 475.719 0.72326 1.88287 0
M  V30 4656 C 476.032 -0.751333 1.80594 0
M  V30 4657 O 477.238 -1.17176 2.44912 0
M  V30 4658 C 475.694 1.24338 3.3774 0
M  V30 4659 C 475.302 2.74587 3.53986 0
M  V30 4660 C 477.046 1.01213 4.12257 0
M  V30 4661 C 474.953 3.20009 4.97341 0
M  V30 4662 H 473.883 0.266848 0.705201 0
M  V30 4663 H 476.534 1.24509 1.34795 0
M  V30 4664 H 474.916 0.649457 3.90638 0
M  V30 4665 H 476.09 3.39649 3.11408 0
M  V30 4666 H 474.405 2.9601 2.9286 0
M  V30 4667 H 477.002 1.32675 5.17978 0
M  V30 4668 H 477.345 -0.051001 4.16269 0
M  V30 4669 H 477.878 1.57014 3.65501 0
M  V30 4670 H 474.617 4.25659 4.98493 0
M  V30 4671 H 474.137 2.59676 5.40674 0
M  V30 4672 H 475.816 3.13447 5.66003 0
M  V30 4673 N 475.948 -1.35272 0.808662 0
M  V30 4674 C 477.195 -1.98709 0.390003 0
M  V30 4675 C 477.523 -1.64148 -1.04335 0
M  V30 4676 O 476.778 -0.897797 -1.73891 0
M  V30 4677 C 477.077 -3.53556 0.522798 0
M  V30 4678 C 476.743 -4.0799 1.91977 0
M  V30 4679 C 475.405 -4.22568 2.30195 0
M  V30 4680 C 477.757 -4.37442 2.83361 0
M  V30 4681 C 475.085 -4.63918 3.59162 0
M  V30 4682 C 477.437 -4.80232 4.11776 0
M  V30 4683 C 476.101 -4.93016 4.49991 0
M  V30 4684 H 475.371 -0.727127 0.142712 0
M  V30 4685 H 478.018 -1.6145 1.02985 0
M  V30 4686 H 476.323 -3.91287 -0.200494 0
M  V30 4687 H 478.02 -4.00598 0.179608 0
M  V30 4688 H 474.61 -3.97096 1.61284 0
M  V30 4689 H 478.794 -4.25731 2.55083 0
M  V30 4690 H 474.05 -4.72005 3.88615 0
M  V30 4691 H 478.224 -5.01982 4.82687 0
M  V30 4692 H 475.851 -5.24814 5.49976 0
M  V30 4693 N 477.426 -0.562348 -1.47226 0
M  V30 4694 C 478.674 -0.0401371 -2.0206 0
M  V30 4695 C 478.995 1.3165 -1.43852 0
M  V30 4696 O 478.265 1.85976 -0.615599 0
M  V30 4697 H 476.845 -0.0118479 -0.746906 0
M  V30 4698 H 479.507 -0.73352 -1.8057 0
M  V30 4699 H 478.603 0.0441254 -3.12069 0
M  V30 4700 N 478.904 1.54736 -0.299062 0
M  V30 4701 C 479.814 2.27127 0.587413 0
M  V30 4702 C 480.83 1.30575 1.15005 0
M  V30 4703 O 482.006 1.63554 1.17525 0
M  V30 4704 C 479.071 2.99645 1.74395 0
M  V30 4705 C 478.132 4.11731 1.21559 0
M  V30 4706 C 477.365 4.80781 2.317 0
M  V30 4707 O 477.588 4.4918 3.51558 0
M  V30 4708 O 476.522 5.68226 1.98501 0
M  V30 4709 H 480.348 3.037 0.000250109 0
M  V30 4710 H 477.933 1.49256 -0.0655919 0
M  V30 4711 H 479.815 3.45138 2.4178 0
M  V30 4712 H 478.49 2.25969 2.31775 0
M  V30 4713 H 477.397 3.70641 0.507514 0
M  V30 4714 H 478.73 4.87379 0.687233 0
M  V30 4715 N 480.382 0.0267497 1.57577 0
M  V30 4716 C 481.345 -0.940916 2.08996 0
M  V30 4717 C 482.345 -1.25561 1.00455 0
M  V30 4718 O 483.535 -1.19634 1.26623 0
M  V30 4719 C 480.667 -2.25814 2.55384 0
M  V30 4720 H 481.86 -0.495628 2.95776 0
M  V30 4721 H 479.413 -0.221241 1.54726 0
M  V30 4722 H 480.148 -2.74976 1.71926 0
M  V30 4723 H 479.933 -2.04285 3.34679 0
M  V30 4724 H 481.423 -2.95178 2.95398 0
M  V30 4725 N 481.861 -1.55662 -0.24637 0
M  V30 4726 C 482.824 -1.89558 -1.28842 0
M  V30 4727 C 483.824 -0.772082 -1.41052 0
M  V30 4728 O 485.014 -1.04007 -1.39743 0
M  V30 4729 C 482.146 -2.12449 -2.66605 0
M  V30 4730 H 483.339 -2.82735 -1.00004 0
M  V30 4731 H 480.892 -1.48562 -0.485684 0
M  V30 4732 H 481.627 -1.21742 -3.00582 0
M  V30 4733 H 481.412 -2.94273 -2.59125 0
M  V30 4734 H 482.902 -2.39854 -3.41847 0
M  V30 4735 N 483.339 0.512053 -1.4905 0
M  V30 4736 C 484.564 1.2959 -1.6193 0
M  V30 4737 C 484.989 1.85906 -0.286454 0
M  V30 4738 O 484.347 1.65312 0.744426 0
M  V30 4739 C 484.395 2.40987 -2.68249 0
M  V30 4740 O 483.499 3.44531 -2.26654 0
M  V30 4741 H 482.84 0.383053 -0.542371 0
M  V30 4742 H 485.37 0.614231 -1.95162 0
M  V30 4743 H 485.38 2.86913 -2.90078 0
M  V30 4744 H 484.055 1.99361 -3.65004 0
M  V30 4745 H 482.632 3.046 -2.15112 0
M  V30 4746 N 484.817 1.37938 0.762283 0
M  V30 4747 C 486.233 1.18945 1.06415 0
M  V30 4748 C 486.433 0.0321163 2.01474 0
M  V30 4749 O 485.489 -0.624844 2.44647 0
M  V30 4750 C 486.802 2.51218 1.65258 0
M  V30 4751 C 488.35 2.57824 1.7747 0
M  V30 4752 C 488.825 3.90251 2.39725 0
M  V30 4753 N 490.316 3.91744 2.47166 0
M  V30 4754 C 491.051 4.90966 2.96209 0
M  V30 4755 N 490.547 6.00585 3.45354 0
M  V30 4756 N 492.34 4.78363 2.9517 0
M  V30 4757 H 484.491 2.11994 0.131301 0
M  V30 4758 H 486.754 0.940262 0.120879 0
M  V30 4759 H 486.46 3.36317 1.02878 0
M  V30 4760 H 486.334 2.68989 2.64433 0
M  V30 4761 H 488.721 1.73126 2.3898 0
M  V30 4762 H 488.802 2.43928 0.770241 0
M  V30 4763 H 488.446 4.75368 1.78852 0
M  V30 4764 H 488.376 4.01454 3.40796 0
M  V30 4765 H 490.867 3.12563 2.12397 0
M  V30 4766 H 491.18 6.72236 3.81207 0
M  V30 4767 H 489.525 6.04217 3.43434 0
M  V30 4768 H 492.716 3.91841 2.56082 0
M  V30 4769 H 492.889 5.55843 3.33081 0
M  V30 4770 N 486.295 -0.989507 1.22664 0
M  V30 4771 C 487.541 -1.7321 1.05481 0
M  V30 4772 C 487.874 -1.89852 -0.408635 0
M  V30 4773 O 487.149 -1.44416 -1.30285 0
M  V30 4774 C 487.432 -3.1357 1.77047 0
M  V30 4775 C 487.285 -3.04555 3.31008 0
M  V30 4776 C 488.604 -4.12812 1.5256 0
M  V30 4777 H 485.723 -0.628697 0.384589 0
M  V30 4778 H 488.365 -1.15258 1.51049 0
M  V30 4779 H 486.515 -3.63046 1.3831 0
M  V30 4780 H 488.187 -2.62674 3.7921 0
M  V30 4781 H 486.43 -2.41278 3.6051 0
M  V30 4782 H 487.101 -4.03894 3.76263 0
M  V30 4783 H 489.577 -3.72106 1.86215 0
M  V30 4784 H 488.453 -5.09132 2.05124 0
M  V30 4785 H 488.714 -4.39711 0.458936 0
M  V30 4786 N 487.773 -1.03688 -1.18687 0
M  V30 4787 C 488.703 -0.645407 -2.24403 0
M  V30 4788 C 489.684 0.349511 -1.66471 0
M  V30 4789 O 490.869 0.230453 -1.92828 0
M  V30 4790 C 487.999 -0.00365337 -3.473 0
M  V30 4791 C 486.953 -0.921705 -4.17958 0
M  V30 4792 C 486.279 -0.144629 -5.34504 0
M  V30 4793 C 487.579 -2.23909 -4.71871 0
M  V30 4794 H 489.273 -1.52917 -2.57404 0
M  V30 4795 H 486.819 -0.736711 -1.23728 0
M  V30 4796 H 488.772 0.281908 -4.20456 0
M  V30 4797 H 487.496 0.914963 -3.13522 0
M  V30 4798 H 486.155 -1.19159 -3.46694 0
M  V30 4799 H 485.803 0.776274 -4.96974 0
M  V30 4800 H 485.503 -0.756206 -5.82714 0
M  V30 4801 H 487.027 0.134004 -6.10453 0
M  V30 4802 H 488.441 -2.0145 -5.36741 0
M  V30 4803 H 486.838 -2.8033 -5.30599 0
M  V30 4804 H 487.908 -2.88822 -3.895 0
M  V30 4805 N 489.251 1.34841 -0.815825 0
M  V30 4806 C 490.497 1.98793 -0.401129 0
M  V30 4807 C 490.83 1.64548 1.03139 0
M  V30 4808 O 490.105 0.913487 1.71714 0
M  V30 4809 C 490.388 3.55143 -0.595409 0
M  V30 4810 C 490.241 3.99155 -2.07352 0
M  V30 4811 C 491.56 4.40092 -0.0268823 0
M  V30 4812 H 488.679 0.722146 -0.14722 0
M  V30 4813 H 491.321 1.59847 -1.02707 0
M  V30 4814 H 489.471 3.8845 -0.0625779 0
M  V30 4815 H 491.143 3.76216 -2.66945 0
M  V30 4816 H 489.386 3.49726 -2.56659 0
M  V30 4817 H 490.057 5.07971 -2.1603 0
M  V30 4818 H 492.533 4.13298 -0.482042 0
M  V30 4819 H 491.409 5.48562 -0.19267 0
M  V30 4820 H 491.67 4.29016 1.06759 0
M  V30 4821 N 490.729 0.570148 1.46925 0
M  V30 4822 C 491.954 0.0542592 2.07329 0
M  V30 4823 C 492.379 -1.23582 1.41806 0
M  V30 4824 O 491.737 -1.74341 0.497479 0
M  V30 4825 C 491.785 -0.111175 3.60429 0
M  V30 4826 O 490.889 -1.17071 3.95434 0
M  V30 4827 H 490.23 0.0571425 0.661537 0
M  V30 4828 H 492.76 0.789516 1.88753 0
M  V30 4829 H 492.77 -0.321315 4.06733 0
M  V30 4830 H 491.445 0.831012 4.07513 0
M  V30 4831 H 490.022 -0.940029 3.60857 0
M  V30 4832 N 492.207 -1.54576 0.307264 0
M  V30 4833 C 493.432 -2.05139 -0.305379 0
M  V30 4834 C 493.857 -1.18278 -1.46259 0
M  V30 4835 O 493.215 -0.188243 -1.8032 0
M  V30 4836 C 493.263 -3.53066 -0.733283 0
M  V30 4837 O 492.367 -3.69206 -1.83741 0
M  V30 4838 H 491.708 -0.661444 -0.0582105 0
M  V30 4839 H 494.238 -1.99569 0.450931 0
M  V30 4840 H 494.248 -3.95034 -1.02039 0
M  V30 4841 H 492.923 -4.15746 0.113198 0
M  V30 4842 H 491.5 -3.39143 -1.55037 0
M  V30 4843 N 493.685 -0.035106 -1.57561 0
M  V30 4844 C 494.913 0.652258 -1.9635 0
M  V30 4845 C 495.328 1.65317 -0.911897 0
M  V30 4846 O 494.685 1.82194 0.105657 0
M  V30 4847 C 494.736 1.35337 -3.35211 0
M  V30 4848 O 494.457 0.392548 -4.36338 0
M  V30 4849 C 495.958 2.13199 -3.88666 0
M  V30 4850 H 493.178 0.179444 -0.646561 0
M  V30 4851 H 495.722 -0.0966459 -2.04271 0
M  V30 4852 H 493.877 2.05362 -3.28489 0
M  V30 4853 H 494.291 0.891097 -5.16875 0
M  V30 4854 H 495.765 2.577 -4.88154 0
M  V30 4855 H 496.242 2.97353 -3.23231 0
M  V30 4856 H 496.848 1.48118 -3.98674 0
M  V30 4857 N 495.163 1.55791 0.238111 0
M  V30 4858 C 496.11 1.9105 1.29493 0
M  V30 4859 C 497.08 0.765733 1.47397 0
M  V30 4860 O 498.265 1.02017 1.61236 0
M  V30 4861 C 495.405 2.21826 2.64362 0
M  V30 4862 C 494.518 3.49153 2.54394 0
M  V30 4863 C 493.653 3.69455 3.81676 0
M  V30 4864 C 492.692 4.90353 3.66361 0
M  V30 4865 N 491.829 5.07131 4.85554 0
M  V30 4866 H 496.669 2.81172 0.987233 0
M  V30 4867 H 494.206 1.39179 0.476203 0
M  V30 4868 H 496.164 2.37675 3.4288 0
M  V30 4869 H 494.794 1.34897 2.93262 0
M  V30 4870 H 493.846 3.41587 1.67399 0
M  V30 4871 H 495.158 4.37818 2.38991 0
M  V30 4872 H 494.312 3.85311 4.68636 0
M  V30 4873 H 493.051 2.7904 3.99985 0
M  V30 4874 H 492.056 4.74464 2.77784 0
M  V30 4875 H 493.281 5.82237 3.49538 0
M  V30 4876 H 491.227 4.19654 5.04209 0
M  V30 4877 H 491.144 5.89899 4.72816 0
M  V30 4878 H 492.412 5.27407 5.73988 0
M  V30 4879 N 496.642 -0.504142 1.49319 0
M  V30 4880 C 497.867 -1.28729 1.62615 0
M  V30 4881 C 498.292 -1.85752 0.296309 0
M  V30 4882 O 497.65 -1.65704 -0.735649 0
M  V30 4883 C 497.698 -2.39561 2.69524 0
M  V30 4884 O 496.802 -3.43324 2.28478 0
M  V30 4885 H 496.143 -0.380172 0.544395 0
M  V30 4886 H 498.673 -0.603872 1.95485 0
M  V30 4887 H 498.683 -2.8537 2.91595 0
M  V30 4888 H 497.358 -1.97423 3.66056 0
M  V30 4889 H 495.935 -3.03455 2.16725 0
M  V30 4890 N 498.12 -1.38341 -0.754957 0
M  V30 4891 C 499.053 -1.29837 -1.87663 0
M  V30 4892 C 500.031 -0.175659 -1.61648 0
M  V30 4893 O 501.215 -0.352745 -1.8517 0
M  V30 4894 C 498.342 -1.01141 -3.23246 0
M  V30 4895 C 497.388 -2.15331 -3.6815 0
M  V30 4896 S 498.221 -3.77459 -3.79849 0
M  V30 4897 C 499.377 -3.50948 -5.18253 0
M  V30 4898 H 499.61 -2.24771 -1.9459 0
M  V30 4899 H 497.143 -1.24161 -0.917796 0
M  V30 4900 H 499.101 -0.852687 -4.01546 0
M  V30 4901 H 497.762 -0.0792784 -3.14 0
M  V30 4902 H 496.955 -1.90795 -4.6649 0
M  V30 4903 H 496.557 -2.27304 -2.97 0
M  V30 4904 H 498.849 -3.06977 -6.03963 0
M  V30 4905 H 499.792 -4.48677 -5.47809 0
M  V30 4906 H 500.2 -2.85492 -4.86985 0
M  V30 4907 N 499.598 0.982988 -1.23187 0
M  V30 4908 C 500.826 1.75921 -1.08901 0
M  V30 4909 C 501.241 1.85341 0.359719 0
M  V30 4910 O 500.598 1.33072 1.24892 0
M  V30 4911 C 500.649 3.18742 -1.70545 0
M  V30 4912 O 500.37 3.09814 -3.09753 0
M  V30 4913 C 501.871 4.1277 -1.61667 0
M  V30 4914 H 499.091 0.552166 -0.381252 0
M  V30 4915 H 501.635 1.23516 -1.62985 0
M  V30 4916 H 499.79 3.68182 -1.20501 0
M  V30 4917 H 500.204 3.99703 -3.39614 0
M  V30 4918 H 501.678 5.10697 -2.09506 0
M  V30 4919 H 502.155 4.3542 -0.575009 0
M  V30 4920 H 502.761 3.69232 -2.11064 0
M  V30 4921 N 501.076 1.04316 1.18135 0
M  V30 4922 C 502.324 0.746542 1.87806 0
M  V30 4923 C 502.645 -0.728082 1.80898 0
M  V30 4924 O 501.915 -1.52554 1.22899 0
M  V30 4925 H 500.495 0.273157 0.695265 0
M  V30 4926 H 503.157 1.32044 1.43354 0
M  V30 4927 H 502.253 1.05362 2.93778 0
M  V30 4928 N 502.554 -1.34406 0.822964 0
M  V30 4929 C 503.504 -2.26963 0.217208 0
M  V30 4930 C 504.488 -1.48536 -0.618545 0
M  V30 4931 O 505.68 -1.7056 -0.473118 0
M  V30 4932 C 502.809 -3.37655 -0.619973 0
M  V30 4933 C 501.895 -4.23495 0.226411 0
M  V30 4934 N 502.286 -4.88876 1.29744 0
M  V30 4935 C 500.584 -4.45999 0.0107554 0
M  V30 4936 C 501.285 -5.52642 1.81553 0
M  V30 4937 N 500.261 -5.31949 1.11942 0
M  V30 4938 H 504.063 -2.75017 1.03647 0
M  V30 4939 H 501.577 -1.48126 0.665777 0
M  V30 4940 H 503.574 -4.02932 -1.07011 0
M  V30 4941 H 502.234 -2.91151 -1.43739 0
M  V30 4942 H 503.245 -4.89886 1.68024 0
M  V30 4943 H 499.922 -4.10253 -0.774495 0
M  V30 4944 H 501.312 -6.14755 2.71156 0
M  V30 4945 N 504.032 -0.577932 -1.46621 0
M  V30 4946 C 504.962 0.145917 -2.33044 0
M  V30 4947 C 505.943 0.888412 -1.45056 0
M  V30 4948 O 507.128 0.864812 -1.73881 0
M  V30 4949 C 504.258 1.16322 -3.27241 0
M  V30 4950 C 503.212 0.535868 -4.24632 0
M  V30 4951 C 502.538 1.65929 -5.08303 0
M  V30 4952 C 503.838 -0.523861 -5.19666 0
M  V30 4953 H 505.532 -0.575636 -2.93814 0
M  V30 4954 H 503.078 -0.278272 -1.41286 0
M  V30 4955 H 505.031 1.67793 -3.86553 0
M  V30 4956 H 503.755 1.91498 -2.64567 0
M  V30 4957 H 502.414 0.0422759 -3.66576 0
M  V30 4958 H 502.062 2.40061 -4.42018 0
M  V30 4959 H 501.762 1.2452 -5.74255 0
M  V30 4960 H 503.286 2.17686 -5.70478 0
M  V30 4961 H 504.7 -0.0944059 -5.73222 0
M  V30 4962 H 503.097 -0.858 -5.93935 0
M  V30 4963 H 504.167 -1.41197 -4.63887 0
M  V30 4964 N 505.51 1.54411 -0.315457 0
M  V30 4965 C 506.44 2.27002 0.547039 0
M  V30 4966 C 507.421 1.27492 1.12605 0
M  V30 4967 O 508.606 1.5629 1.15269 0
M  V30 4968 C 505.736 3.02171 1.71201 0
M  V30 4969 C 504.69 4.0895 1.26268 0
M  V30 4970 C 504.016 4.71915 2.51396 0
M  V30 4971 C 505.316 5.20891 0.383419 0
M  V30 4972 H 507.01 2.99343 -0.0584517 0
M  V30 4973 H 504.556 1.4397 -0.0295527 0
M  V30 4974 H 506.509 3.51681 2.32161 0
M  V30 4975 H 505.233 2.27433 2.34397 0
M  V30 4976 H 503.892 3.60312 0.676062 0
M  V30 4977 H 503.54 3.93801 3.12937 0
M  V30 4978 H 503.24 5.44039 2.22026 0
M  V30 4979 H 504.764 5.24195 3.13133 0
M  V30 4980 H 506.178 5.66206 0.899082 0
M  V30 4981 H 504.575 5.99821 0.182857 0
M  V30 4982 H 505.645 4.81324 -0.587821 0
M  V30 4983 N 506.988 0.0434614 1.5754 0
M  V30 4984 C 508.236 -0.630786 1.92004 0
M  V30 4985 C 508.557 -1.71836 0.921807 0
M  V30 4986 O 507.827 -1.9587 -0.034522 0
M  V30 4987 H 506.407 -0.235988 0.708745 0
M  V30 4988 H 509.069 0.0946462 1.9467 0
M  V30 4989 H 508.165 -1.07434 2.93026 0
M  V30 4990 N 508.466 -1.55915 -0.229846 0
M  V30 4991 C 509.429 -1.90914 -1.26824 0
M  V30 4992 C 510.429 -0.786999 -1.40225 0
M  V30 4993 O 511.619 -1.05484 -1.38632 0
M  V30 4994 C 508.751 -2.15264 -2.64337 0
M  V30 4995 H 509.944 -2.8378 -0.969998 0
M  V30 4996 H 507.497 -1.49069 -0.4699 0
M  V30 4997 H 508.232 -1.24923 -2.99274 0
M  V30 4998 H 508.017 -2.97005 -2.55989 0
M  V30 4999 H 509.507 -2.43467 -3.39284 0
M  V30 5000 N 509.944 0.496216 -1.49584 0
M  V30 5001 C 510.907 1.57952 -1.66084 0
M  V30 5002 C 511.907 1.51729 -0.53244 0
M  V30 5003 O 513.097 1.54796 -0.79899 0
M  V30 5004 C 510.229 2.97604 -1.66268 0
M  V30 5005 H 511.422 1.44649 -2.6271 0
M  V30 5006 H 508.975 0.7208 -1.38687 0
M  V30 5007 H 509.71 3.16378 -0.712432 0
M  V30 5008 H 509.495 3.03528 -2.4822 0
M  V30 5009 H 510.985 3.76301 -1.81073 0
M  V30 5010 N 511.423 1.38739 0.74761 0
M  V30 5011 C 512.671 1.35007 1.50391 0
M  V30 5012 C 512.992 -0.0574274 1.94915 0
M  V30 5013 O 512.262 -1.00628 1.6808 0
M  V30 5014 H 510.842 0.496784 0.557866 0
M  V30 5015 H 513.504 1.73479 0.888319 0
M  V30 5016 H 512.6 2.00474 2.392 0
M  V30 5017 N 512.901 -0.976442 1.23707 0
M  V30 5018 C 513.864 -2.0511 1.02287 0
M  V30 5019 C 514.864 -1.60791 -0.0167195 0
M  V30 5020 O 516.054 -1.72761 0.223408 0
M  V30 5021 C 513.186 -3.36458 0.548507 0
M  V30 5022 H 514.379 -2.25545 1.9766 0
M  V30 5023 H 511.932 -1.15042 1.05806 0
M  V30 5024 H 512.667 -3.21713 -0.408818 0
M  V30 5025 H 512.452 -3.69967 1.29874 0
M  V30 5026 H 513.942 -4.15489 0.419406 0
M  V30 5027 N 514.379 -1.04941 -1.1758 0
M  V30 5028 C 515.625 -0.759112 -1.88057 0
M  V30 5029 C 515.958 0.711918 -1.8068 0
M  V30 5030 O 515.233 1.52035 -1.21308 0
M  V30 5031 C 515.516 -1.237 -3.38187 0
M  V30 5032 C 515.369 -2.77078 -3.54327 0
M  V30 5033 C 516.688 -0.834014 -4.32125 0
M  V30 5034 H 513.807 -0.277237 -0.682868 0
M  V30 5035 H 516.449 -1.30296 -1.38286 0
M  V30 5036 H 514.599 -0.774337 -3.80705 0
M  V30 5037 H 516.271 -3.31449 -3.20842 0
M  V30 5038 H 514.514 -3.16477 -2.96689 0
M  V30 5039 H 515.185 -3.05577 -4.59703 0
M  V30 5040 H 517.661 -1.23228 -3.97434 0
M  V30 5041 H 516.537 -1.19603 -5.35711 0
M  V30 5042 H 516.798 0.262195 -4.41322 0
M  V30 5043 N 515.857 1.33968 -0.830081 0
M  V30 5044 C 516.767 2.33164 -0.259207 0
M  V30 5045 C 517.783 1.62951 0.610164 0
M  V30 5046 O 518.959 1.94668 0.516369 0
M  V30 5047 C 516.024 3.42088 0.563598 0
M  V30 5048 C 515.085 4.28037 -0.329014 0
M  V30 5049 C 514.318 5.3176 0.454616 0
M  V30 5050 O 514.541 5.44876 1.6872 0
M  V30 5051 O 513.475 6.01669 -0.166794 0
M  V30 5052 H 517.301 2.83832 -1.08041 0
M  V30 5053 H 514.886 1.37154 -0.59239 0
M  V30 5054 H 516.768 4.08581 1.03147 0
M  V30 5055 H 515.443 2.93651 1.36201 0
M  V30 5056 H 514.35 3.64443 -0.844538 0
M  V30 5057 H 515.683 4.79934 -1.09196 0
M  V30 5058 N 517.335 0.585699 1.46312 0
M  V30 5059 C 518.56 0.0762461 2.0726 0
M  V30 5060 C 518.985 -1.22071 1.43109 0
M  V30 5061 O 518.343 -1.73804 0.515942 0
M  V30 5062 C 518.391 -0.0729404 3.60526 0
M  V30 5063 O 517.495 -1.1287 3.96654 0
M  V30 5064 H 516.836 0.0641558 0.660893 0
M  V30 5065 H 519.366 0.809492 1.87905 0
M  V30 5066 H 519.376 -0.278158 4.07051 0
M  V30 5067 H 518.051 0.874188 4.06609 0
M  V30 5068 H 516.628 -0.901703 3.61834 0
M  V30 5069 N 518.813 -1.54241 0.323641 0
M  V30 5070 C 520.062 -1.9975 -0.279806 0
M  V30 5071 C 520.375 -1.2156 -1.5324 0
M  V30 5072 O 521.581 -1.57447 -2.21185 0
M  V30 5073 C 520.037 -3.55686 -0.549115 0
M  V30 5074 C 519.645 -4.4271 0.686432 0
M  V30 5075 C 521.389 -4.09663 -1.11251 0
M  V30 5076 C 519.296 -5.90119 0.389022 0
M  V30 5077 H 518.226 -0.746177 -0.10833 0
M  V30 5078 H 520.877 -1.78248 0.435877 0
M  V30 5079 H 519.259 -3.73176 -1.32499 0
M  V30 5080 H 520.433 -4.36996 1.46188 0
M  V30 5081 H 518.748 -3.99623 1.17005 0
M  V30 5082 H 521.345 -5.17386 -1.34965 0
M  V30 5083 H 521.688 -3.61651 -2.06191 0
M  V30 5084 H 522.221 -3.95806 -0.39782 0
M  V30 5085 H 518.96 -6.42326 1.30759 0
M  V30 5086 H 518.48 -5.98785 -0.348722 0
M  V30 5087 H 520.159 -6.47 -0.0011164 0
M  V30 5088 N 520.291 -0.0518155 -1.57515 0
M  V30 5089 C 521.521 0.63048 -1.96745 0
M  V30 5090 C 521.929 1.64875 -0.928054 0
M  V30 5091 O 521.272 1.83449 0.0960678 0
M  V30 5092 C 521.334 1.37381 -3.32215 0
M  V30 5093 C 520.998 0.511298 -4.54131 0
M  V30 5094 C 521.995 -0.222884 -5.19422 0
M  V30 5095 C 519.68 0.442035 -5.00351 0
M  V30 5096 C 521.674 -1.01476 -6.2927 0
M  V30 5097 C 519.361 -0.35353 -6.10077 0
M  V30 5098 C 520.359 -1.08062 -6.74397 0
M  V30 5099 O 520.047 -1.8631 -7.82013 0
M  V30 5100 H 519.779 0.177126 -0.652382 0
M  V30 5101 H 522.333 -0.114726 -2.05079 0
M  V30 5102 H 520.563 2.16466 -3.20436 0
M  V30 5103 H 522.252 1.9464 -3.56188 0
M  V30 5104 H 523.018 -0.178846 -4.8467 0
M  V30 5105 H 518.897 0.997562 -4.50077 0
M  V30 5106 H 522.441 -1.58279 -6.79407 0
M  V30 5107 H 518.338 -0.399205 -6.44264 0
M  V30 5108 H 519.106 -1.78528 -7.98793 0
M  V30 5109 N 521.769 1.56035 0.221574 0
M  V30 5110 C 522.994 1.83476 0.967026 0
M  V30 5111 C 523.419 0.632139 1.7716 0
M  V30 5112 O 522.777 -0.419082 1.7639 0
M  V30 5113 C 522.825 3.08907 1.86034 0
M  V30 5114 O 521.929 2.876 2.95567 0
M  V30 5115 H 521.27 0.604913 0.273817 0
M  V30 5116 H 523.8 2.03247 0.234893 0
M  V30 5117 H 523.81 3.3901 2.27016 0
M  V30 5118 H 522.485 3.96068 1.26898 0
M  V30 5119 H 521.062 2.6873 2.58532 0
M  V30 5120 N 523.247 -0.488276 1.49845 0
M  V30 5121 C 524.496 -1.23826 1.59217 0
M  V30 5122 C 524.809 -1.93439 0.289966 0
M  V30 5123 O 526.015 -2.70229 0.262382 0
M  V30 5124 C 524.471 -2.24902 2.80976 0
M  V30 5125 C 524.079 -1.6117 4.18005 0
M  V30 5126 C 525.823 -3.00648 2.99685 0
M  V30 5127 C 523.73 -2.60431 5.3097 0
M  V30 5128 H 522.66 -0.465858 0.592868 0
M  V30 5129 H 525.311 -0.510645 1.76252 0
M  V30 5130 H 523.693 -3.0088 2.57463 0
M  V30 5131 H 524.867 -0.910968 4.51706 0
M  V30 5132 H 523.182 -0.97767 4.0476 0
M  V30 5133 H 525.779 -3.74903 3.81251 0
M  V30 5134 H 526.122 -3.5902 2.10738 0
M  V30 5135 H 526.655 -2.31784 3.23297 0
M  V30 5136 H 523.394 -2.06823 6.22017 0
M  V30 5137 H 522.914 -3.28707 5.01709 0
M  V30 5138 H 524.593 -3.22606 5.60834 0
M  V30 5139 N 524.725 -1.39134 -0.740242 0
M  V30 5140 C 525.655 -1.40165 -1.86751 0
M  V30 5141 C 526.636 -0.265708 -1.68012 0
M  V30 5142 O 527.821 -0.47076 -1.88408 0
M  V30 5143 C 524.951 -1.2392 -3.2444 0
M  V30 5144 C 523.905 -2.34858 -3.57807 0
M  V30 5145 C 523.231 -2.03707 -4.94376 0
M  V30 5146 C 524.531 -3.77159 -3.61315 0
M  V30 5147 H 526.225 -2.345 -1.86145 0
M  V30 5148 H 523.771 -1.12875 -0.89416 0
M  V30 5149 H 525.724 -1.23263 -4.02969 0
M  V30 5150 H 524.448 -0.26051 -3.25559 0
M  V30 5151 H 523.107 -2.34723 -2.81604 0
M  V30 5152 H 522.755 -1.04289 -4.9207 0
M  V30 5153 H 522.455 -2.78016 -5.17669 0
M  V30 5154 H 523.979 -2.04691 -5.75268 0
M  V30 5155 H 525.393 -3.79252 -4.29931 0
M  V30 5156 H 523.79 -4.50784 -3.96124 0
M  V30 5157 H 524.86 -4.08513 -2.61238 0
M  V30 5158 N 526.204 0.969867 -1.24223 0
M  V30 5159 C 527.167 2.04564 -1.03373 0
M  V30 5160 C 528.167 1.60798 0.00819206 0
M  V30 5161 O 529.357 1.72641 -0.232567 0
M  V30 5162 C 526.489 3.36163 -0.566343 0
M  V30 5163 H 527.682 2.24494 -1.98853 0
M  V30 5164 H 525.235 1.1448 -1.06415 0
M  V30 5165 H 525.97 3.21925 0.391751 0
M  V30 5166 H 525.755 3.69273 -1.31834 0
M  V30 5167 H 527.245 4.1526 -0.441435 0
M  V30 5168 N 527.682 1.05563 1.17022 0
M  V30 5169 C 528.612 0.681026 2.23348 0
M  V30 5170 C 529.593 -0.322983 1.67005 0
M  V30 5171 O 530.778 -0.199746 1.9317 0
M  V30 5172 C 527.908 0.0589053 3.4725 0
M  V30 5173 C 526.862 0.988082 4.16438 0
M  V30 5174 C 526.188 0.229646 5.34207 0
M  V30 5175 C 527.488 2.31388 4.68249 0
M  V30 5176 H 529.182 1.56993 2.54938 0
M  V30 5177 H 526.728 0.756302 1.2254 0
M  V30 5178 H 528.681 -0.214982 4.20851 0
M  V30 5179 H 527.405 -0.864968 3.14938 0
M  V30 5180 H 526.064 1.24659 3.44754 0
M  V30 5181 H 525.712 -0.697111 4.98146 0
M  V30 5182 H 525.412 0.848815 5.81437 0
M  V30 5183 H 526.936 -0.0368694 6.10589 0
M  V30 5184 H 528.35 2.09964 5.33468 0
M  V30 5185 H 526.747 2.88736 5.26072 0
M  V30 5186 H 527.817 2.94982 3.84855 0
M  V30 5187 N 529.16 -1.33526 0.837174 0
M  V30 5188 C 530.576 -1.50727 0.524743 0
M  V30 5189 C 530.776 -1.77792 -0.948279 0
M  V30 5190 O 529.832 -1.83719 -1.73216 0
M  V30 5191 C 531.145 -2.66299 1.39661 0
M  V30 5192 C 532.693 -2.80183 1.39521 0
M  V30 5193 C 533.168 -3.98815 2.25189 0
M  V30 5194 N 534.659 -4.06047 2.2289 0
M  V30 5195 C 535.394 -4.97032 2.85915 0
M  V30 5196 N 534.89 -5.93143 3.57985 0
M  V30 5197 N 536.683 -4.90015 2.75394 0
M  V30 5198 H 528.834 -1.1422 1.79074 0
M  V30 5199 H 531.097 -0.561399 0.763894 0
M  V30 5200 H 530.803 -2.52974 2.4433 0
M  V30 5201 H 530.677 -3.61663 1.07145 0
M  V30 5202 H 533.064 -2.92942 0.356253 0
M  V30 5203 H 533.145 -1.85586 1.76044 0
M  V30 5204 H 532.789 -3.86817 3.29143 0
M  V30 5205 H 532.719 -4.92654 1.86009 0
M  V30 5206 H 535.21 -3.37262 1.70478 0
M  V30 5207 H 535.523 -6.59227 4.03286 0
M  V30 5208 H 533.868 -5.93223 3.62093 0
M  V30 5209 H 537.059 -4.13894 2.18654 0
M  V30 5210 H 537.232 -5.60724 3.24796 0
M  V30 5211 N 530.638 -0.59345 -1.46 0
M  V30 5212 C 531.915 -0.0157933 -1.95594 0
M  V30 5213 C 532.295 1.44807 -1.53604 0
M  V30 5214 O 531.643 2.14342 -0.791824 0
M  V30 5215 C 531.853 -0.199081 -3.48432 0
M  V30 5216 C 533.201 -0.0724943 -4.24538 0
M  V30 5217 O 534.225 -0.128469 -3.55968 0
M  V30 5218 O 533.084 0.0542426 -5.46473 0
M  V30 5219 H 530.178 0.043749 -0.825842 0
M  V30 5220 H 532.724 -0.662522 -1.56233 0
M  V30 5221 H 531.496 -1.21631 -3.71916 0
M  V30 5222 H 531.119 0.483576 -3.94648 0
M  V30 5223 N 532.116 1.54067 -0.331816 0
M  V30 5224 C 533.048 2.22139 0.564538 0
M  V30 5225 C 534.061 1.22408 1.07332 0
M  V30 5226 O 535.25 1.4883 0.985481 0
M  V30 5227 C 532.35 2.87876 1.78831 0
M  V30 5228 C 531.523 4.13817 1.41682 0
M  V30 5229 C 530.582 4.63072 2.49901 0
M  V30 5230 O 529.608 5.27562 2.13699 0
M  V30 5231 N 530.81 4.38001 3.80967 0
M  V30 5232 H 533.575 2.99694 -0.0183736 0
M  V30 5233 H 531.136 1.61153 -0.155396 0
M  V30 5234 H 533.128 3.17747 2.50637 0
M  V30 5235 H 531.698 2.13977 2.27887 0
M  V30 5236 H 530.918 3.9062 0.530044 0
M  V30 5237 H 532.206 4.95762 1.14443 0
M  V30 5238 H 531.604 3.864 4.13173 0
M  V30 5239 H 530.161 4.72507 4.48977 0
M  V30 5240 N 533.594 0.0601682 1.57485 0
M  V30 5241 C 534.557 -0.896373 2.10945 0
M  V30 5242 C 535.557 -1.23402 1.03095 0
M  V30 5243 O 536.747 -1.16921 1.29132 0
M  V30 5244 C 533.879 -2.20346 2.60116 0
M  V30 5245 H 535.072 -0.432778 2.96761 0
M  V30 5246 H 532.625 -0.188372 1.55161 0
M  V30 5247 H 533.36 -2.71268 1.7772 0
M  V30 5248 H 533.145 -1.9714 3.38937 0
M  V30 5249 H 534.635 -2.88846 3.01592 0
M  V30 5250 N 535.072 -1.5615 -0.213296 0
M  V30 5251 C 536.318 -1.79812 -0.937849 0
M  V30 5252 C 536.651 -0.631201 -1.83656 0
M  V30 5253 O 535.926 0.369165 -1.90964 0
M  V30 5254 C 536.209 -3.13613 -1.76972 0
M  V30 5255 C 536.062 -4.40766 -0.89695 0
M  V30 5256 C 537.381 -3.43931 -2.7459 0
M  V30 5257 H 534.5 -0.654138 -0.339518 0
M  V30 5258 H 537.142 -1.88877 -0.20623 0
M  V30 5259 H 535.292 -3.06015 -2.39347 0
M  V30 5260 H 536.964 -4.60392 -0.289306 0
M  V30 5261 H 535.207 -4.33326 -0.202756 0
M  V30 5262 H 535.878 -5.30843 -1.51358 0
M  V30 5263 H 538.354 -3.5171 -2.22349 0
M  V30 5264 H 537.23 -4.38706 -3.29891 0
M  V30 5265 H 537.491 -2.6651 -3.52739 0
M  V30 5266 N 536.55 0.480323 -1.50102 0
M  V30 5267 C 537.961 1.06142 -1.53593 0
M  V30 5268 C 538.312 1.93335 -0.334055 0
M  V30 5269 O 537.437 2.09188 0.55403 0
M  V30 5270 C 538.032 1.9317 -2.78336 0
M  V30 5271 C 536.591 2.46405 -2.84538 0
M  V30 5272 C 535.738 1.24521 -2.4777 0
M  V30 5273 H 538.689 0.26333 -1.565 0
M  V30 5274 H 538.71 2.78123 -2.59669 0
M  V30 5275 H 538.222 1.29683 -3.65792 0
M  V30 5276 H 536.323 3.13472 -2.01411 0
M  V30 5277 H 536.436 2.82143 -3.87211 0
M  V30 5278 H 534.8 1.57706 -2.00003 0
M  V30 5279 H 535.583 0.627102 -3.37524 0
M  V30 5280 N 538.028 1.39524 0.732853 0
M  V30 5281 C 539.439 1.32905 1.31122 0
M  V30 5282 C 539.79 -0.00558708 1.96199 0
M  V30 5283 O 538.915 -0.907706 1.96443 0
M  V30 5284 C 539.51 2.40704 2.38426 0
M  V30 5285 C 538.069 2.37599 2.91931 0
M  V30 5286 C 537.216 2.2248 1.65523 0
M  V30 5287 H 540.167 1.49581 0.530207 0
M  V30 5288 H 540.188 2.07616 3.18867 0
M  V30 5289 H 539.7 3.37829 1.91033 0
M  V30 5290 H 537.801 1.44119 3.43599 0
M  V30 5291 H 537.914 3.32538 3.44899 0
M  V30 5292 H 536.278 1.69691 1.8994 0
M  V30 5293 H 537.061 3.21577 1.20178 0
M  V30 5294 N 539.506 -0.963266 1.24736 0
M  V30 5295 C 540.734 -1.74166 1.11686 0
M  V30 5296 C 541.149 -1.8589 -0.330187 0
M  V30 5297 O 540.506 -1.35042 -1.2276 0
M  V30 5298 C 540.557 -3.15989 1.75595 0
M  V30 5299 O 540.278 -3.04847 3.14642 0
M  V30 5300 C 541.779 -4.10145 1.68213 0
M  V30 5301 H 538.999 -0.546031 0.389989 0
M  V30 5302 H 541.543 -1.20907 1.64929 0
M  V30 5303 H 539.698 -3.66219 1.26343 0
M  V30 5304 H 540.112 -3.9425 3.4593 0
M  V30 5305 H 541.586 -5.07299 2.17604 0
M  V30 5306 H 542.063 -4.3445 0.644208 0
M  V30 5307 H 542.669 -3.65827 2.16912 0
M  V30 5308 N 540.985 -1.06182 -1.16461 0
M  V30 5309 C 542.234 -0.772927 -1.86303 0
M  V30 5310 C 542.547 0.703187 -1.82523 0
M  V30 5311 O 543.753 1.10641 -2.47933 0
M  V30 5312 C 542.209 -1.33249 -3.34324 0
M  V30 5313 C 541.817 -2.83876 -3.46581 0
M  V30 5314 C 543.561 -1.12108 -4.09429 0
M  V30 5315 C 541.468 -3.33082 -4.88682 0
M  V30 5316 H 540.398 -0.285452 -0.697878 0
M  V30 5317 H 543.049 -1.28039 -1.31447 0
M  V30 5318 H 541.431 -0.7528 -3.88779 0
M  V30 5319 H 542.605 -3.47786 -3.02293 0
M  V30 5320 H 540.92 -3.03671 -2.84909 0
M  V30 5321 H 543.517 -1.46361 -5.14279 0
M  V30 5322 H 543.86 -0.0593832 -4.16258 0
M  V30 5323 H 544.393 -1.6665 -3.6121 0
M  V30 5324 H 541.132 -4.38726 -4.87032 0
M  V30 5325 H 540.652 -2.73919 -5.33599 0
M  V30 5326 H 542.331 -3.28344 -5.57494 0
M  V30 5327 N 542.463 1.3308 -0.844243 0
M  V30 5328 C 543.411 2.31028 -0.269954 0
M  V30 5329 C 544.405 1.58381 0.600997 0
M  V30 5330 O 545.611 1.73203 0.48996 0
M  V30 5331 H 541.986 0.748866 -0.0685782 0
M  V30 5332 H 543.957 2.76967 -1.11049 0
M  V30 5333 C 542.706 3.43549 0.535676 0
M  V30 5334 H 542.029 3.99604 -0.125202 0
M  V30 5335 H 543.469 4.14267 0.903262 0
M  V30 5336 C 541.928 2.8988 1.71672 0
M  V30 5337 O 542.458 2.86511 2.81557 0
M  V30 5338 N 540.664 2.46416 1.54037 0
M  V30 5339 H 540.211 2.49356 0.64649 0
M  V30 5340 H 540.169 2.1086 2.33207 0
M  V30 5341 N 543.941 0.601185 1.45683 0
M  V30 5342 C 544.871 -0.108824 2.33246 0
M  V30 5343 C 545.852 -0.865223 1.46451 0
M  V30 5344 O 547.037 -0.83704 1.75235 0
M  V30 5345 C 544.167 -1.11101 3.2905 0
M  V30 5346 C 543.121 -0.468244 4.25431 0
M  V30 5347 C 542.447 -1.57822 5.10878 0
M  V30 5348 C 543.747 0.606469 5.18767 0
M  V30 5349 H 545.441 0.622306 2.92861 0
M  V30 5350 H 542.987 0.300714 1.40825 0
M  V30 5351 H 544.94 -1.61622 3.89174 0
M  V30 5352 H 543.664 -1.87265 2.67581 0
M  V30 5353 H 542.323 0.0160484 3.66596 0
M  V30 5354 H 541.971 -2.32998 4.45781 0
M  V30 5355 H 541.671 -1.15369 5.76163 0
M  V30 5356 H 543.195 -2.08583 5.73869 0
M  V30 5357 H 544.609 0.185589 5.73 0
M  V30 5358 H 543.006 0.952381 5.92494 0
M  V30 5359 H 544.076 1.48559 4.61582 0
M  V30 5360 N 545.419 -1.53889 0.339982 0
M  V30 5361 C 546.696 -1.93084 -0.312719 0
M  V30 5362 C 547.076 -1.2712 -1.68534 0
M  V30 5363 O 546.424 -0.420835 -2.24591 0
M  V30 5364 C 546.634 -3.4683 -0.388558 0
M  V30 5365 C 547.982 -4.19732 -0.641088 0
M  V30 5366 O 549.006 -3.53075 -0.470818 0
M  V30 5367 O 547.865 -5.3781 -0.970685 0
M  V30 5368 H 544.959 -0.806784 -0.18174 0
M  V30 5369 H 547.505 -1.65137 0.390898 0
M  V30 5370 H 546.277 -3.87055 0.574821 0
M  V30 5371 H 545.9 -3.80933 -1.1391 0
M  V30 5372 N 546.897 -0.0685191 -1.57451 0
M  V30 5373 C 547.845 0.917577 -2.13736 0
M  V30 5374 C 548.839 1.31049 -1.07344 0
M  V30 5375 O 550.045 1.28811 -1.25728 0
M  V30 5376 H 546.42 0.313835 -0.683382 0
M  V30 5377 H 548.391 0.417903 -2.95459 0
M  V30 5378 C 547.14 2.17686 -2.71123 0
M  V30 5379 H 546.463 1.88336 -3.52661 0
M  V30 5380 H 547.903 2.84803 -3.14107 0
M  V30 5381 C 546.362 2.9332 -1.65726 0
M  V30 5382 O 546.892 3.86901 -1.08031 0
M  V30 5383 N 545.098 2.56367 -1.36837 0
M  V30 5384 H 544.645 1.80341 -1.83943 0
M  V30 5385 H 544.603 3.07276 -0.665501 0
M  V30 5386 N 548.375 1.56261 0.205012 0
M  V30 5387 C 549.786 1.70056 0.770574 0
M  V30 5388 C 550.137 0.673398 1.84282 0
M  V30 5389 O 549.262 -0.172196 2.15714 0
M  V30 5390 C 549.857 3.08316 1.40451 0
M  V30 5391 C 548.416 3.2391 1.91727 0
M  V30 5392 C 547.563 2.66001 0.783516 0
M  V30 5393 H 550.514 1.58688 -0.019911 0
M  V30 5394 H 550.535 3.05094 2.27371 0
M  V30 5395 H 550.047 3.83053 0.623882 0
M  V30 5396 H 548.148 2.54072 2.7254 0
M  V30 5397 H 548.261 4.3131 2.08588 0
M  V30 5398 H 546.625 2.24915 1.19521 0
M  V30 5399 H 547.408 3.43297 0.0152883 0
M  V30 5400 N 549.853 -0.472356 1.50355 0
M  V30 5401 C 551.13 -1.23356 1.51798 0
M  V30 5402 C 551.51 -2.09469 0.26193 0
M  V30 5403 O 550.858 -2.15677 -0.754691 0
M  V30 5404 C 551.068 -2.06568 2.81302 0
M  V30 5405 C 552.416 -2.648 3.31913 0
M  V30 5406 O 553.44 -2.16812 2.82614 0
M  V30 5407 O 552.299 -3.52231 4.17846 0
M  V30 5408 H 549.393 -0.559707 0.608816 0
M  V30 5409 H 551.939 -0.48428 1.62643 0
M  V30 5410 H 550.711 -1.43103 3.64194 0
M  V30 5411 H 550.334 -2.88633 2.73454 0
M  V30 5412 N 551.331 -1.39911 -0.725443 0
M  V30 5413 C 552.241 -1.41688 -1.8698 0
M  V30 5414 C 553.257 -0.310579 -1.71206 0
M  V30 5415 O 554.433 -0.55359 -1.93642 0
M  V30 5416 C 551.498 -1.26811 -3.22676 0
M  V30 5417 C 550.559 -2.47497 -3.50776 0
M  V30 5418 C 549.792 -2.3332 -4.79997 0
M  V30 5419 O 550.015 -1.34175 -5.54394 0
M  V30 5420 O 548.949 -3.22498 -5.08211 0
M  V30 5421 H 552.775 -2.38171 -1.88436 0
M  V30 5422 H 550.36 -1.21128 -0.874548 0
M  V30 5423 H 552.242 -1.20684 -4.03749 0
M  V30 5424 H 550.917 -0.334289 -3.21969 0
M  V30 5425 H 549.824 -2.59201 -2.69751 0
M  V30 5426 H 551.157 -3.39606 -3.5627 0
M  V30 5427 N 552.809 0.956637 -1.25245 0
M  V30 5428 C 554.057 1.69764 -1.09657 0
M  V30 5429 C 554.378 1.91583 0.363464 0
M  V30 5430 O 553.648 1.50149 1.25825 0
M  V30 5431 H 552.228 0.629097 -0.402798 0
M  V30 5432 H 554.89 1.15026 -1.57337 0
M  V30 5433 H 553.986 2.67769 -1.60331 0
M  V30 5434 N 554.287 1.06798 1.15896 0
M  V30 5435 C 555.527 0.797041 1.8822 0
M  V30 5436 C 555.891 -0.664549 1.80133 0
M  V30 5437 O 557.092 -1.0503 2.47431 0
M  V30 5438 C 555.363 1.28431 3.33527 0
M  V30 5439 S 556.922 1.14319 4.23647 0
M  V30 5440 H 553.74 0.288988 0.649621 0
M  V30 5441 H 556.342 1.36594 1.39865 0
M  V30 5442 H 555.046 2.34286 3.36954 0
M  V30 5443 H 554.577 0.710371 3.86933 0
M  V30 5444 H 556.592 0.0772467 4.9614 0
M  V30 5445 N 555.766 -1.3263 0.851289 0
M  V30 5446 C 557.043 -1.91982 0.374448 0
M  V30 5447 C 557.423 -1.77568 -1.14161 0
M  V30 5448 O 556.771 -1.1717 -1.96172 0
M  V30 5449 C 556.981 -3.38862 0.835088 0
M  V30 5450 C 558.329 -4.15999 0.850309 0
M  V30 5451 O 559.353 -3.47566 0.779505 0
M  V30 5452 O 558.212 -5.38189 0.949481 0
M  V30 5453 H 555.306 -0.819846 0.10854 0
M  V30 5454 H 557.852 -1.41422 0.937966 0
M  V30 5455 H 556.624 -3.43281 1.87814 0
M  V30 5456 H 556.247 -3.96821 0.248833 0
M  V30 5457 N 557.244 -0.608902 -1.45362 0
M  V30 5458 C 558.174 0.0964526 -2.33301 0
M  V30 5459 C 559.155 0.857444 -1.46908 0
M  V30 5460 O 560.34 0.827735 -1.75676 0
M  V30 5461 C 557.47 1.09354 -3.29635 0
M  V30 5462 C 556.424 0.445676 -4.25673 0
M  V30 5463 C 555.75 1.5511 -5.11708 0
M  V30 5464 C 557.05 -0.633972 -5.18438 0
M  V30 5465 H 558.744 -0.637829 -2.92527 0
M  V30 5466 H 556.29 -0.308178 -1.40664 0
M  V30 5467 H 558.243 1.59556 -3.90025 0
M  V30 5468 H 556.967 1.85843 -2.6857 0
M  V30 5469 H 555.626 -0.0354897 -3.66583 0
M  V30 5470 H 555.274 2.30631 -4.4701 0
M  V30 5471 H 554.974 1.12311 -5.76767 0
M  V30 5472 H 556.498 2.05537 -5.74967 0
M  V30 5473 H 557.912 -0.215974 -5.72893 0
M  V30 5474 H 556.309 -0.983789 -5.91981 0
M  V30 5475 H 557.379 -1.51005 -4.60788 0
M  V30 5476 N 558.722 1.53707 -0.348139 0
M  V30 5477 C 559.999 1.93247 0.302475 0
M  V30 5478 C 560.379 1.28012 1.67857 0
M  V30 5479 O 559.727 0.43274 2.24365 0
M  V30 5480 C 559.937 3.47031 0.370159 0
M  V30 5481 C 561.285 4.20066 0.61882 0
M  V30 5482 O 562.309 3.53319 0.452087 0
M  V30 5483 O 561.168 5.38318 0.94215 0
M  V30 5484 H 558.262 0.807736 0.177458 0
M  V30 5485 H 560.808 1.64927 -0.399651 0
M  V30 5486 H 559.58 3.86745 -0.59534 0
M  V30 5487 H 559.203 3.81532 1.11888 0
M  V30 5488 N 560.2 0.0768682 1.57412 0
M  V30 5489 C 561.447 -0.591085 1.93681 0
M  V30 5490 C 561.775 -1.69311 0.957286 0
M  V30 5491 O 561.03 -1.95682 -0.0262428 0
M  V30 5492 C 561.329 -1.20268 3.36557 0
M  V30 5493 C 560.995 -0.226286 4.50332 0
M  V30 5494 C 559.657 0.0423142 4.81181 0
M  V30 5495 C 562.009 0.441415 5.19327 0
M  V30 5496 C 559.337 0.985616 5.78362 0
M  V30 5497 C 561.689 1.37307 6.17519 0
M  V30 5498 C 560.353 1.65009 6.46783 0
M  V30 5499 H 559.623 -0.216293 0.70873 0
M  V30 5500 H 562.27 0.148824 1.90921 0
M  V30 5501 H 560.575 -2.01844 3.35807 0
M  V30 5502 H 562.272 -1.72688 3.61911 0
M  V30 5503 H 558.862 -0.445821 4.26275 0
M  V30 5504 H 563.046 0.247023 4.95685 0
M  V30 5505 H 558.302 1.20743 5.99359 0
M  V30 5506 H 562.476 1.89637 6.70083 0
M  V30 5507 H 560.103 2.38263 7.21897 0
M  V30 5508 N 561.678 -1.56367 -0.196722 0
M  V30 5509 C 562.924 -1.80796 -0.918725 0
M  V30 5510 C 563.257 -0.650645 -1.82976 0
M  V30 5511 O 562.532 0.348889 -1.91345 0
M  V30 5512 C 562.815 -3.15472 -1.73636 0
M  V30 5513 C 562.668 -4.41693 -0.85015 0
M  V30 5514 C 563.987 -3.46824 -2.70927 0
M  V30 5515 H 561.106 -0.657702 -0.332561 0
M  V30 5516 H 563.748 -1.89086 -0.186186 0
M  V30 5517 H 561.898 -3.08536 -2.36088 0
M  V30 5518 H 563.57 -4.60673 -0.240459 0
M  V30 5519 H 561.813 -4.33517 -0.156785 0
M  V30 5520 H 562.484 -5.32419 -1.45719 0
M  V30 5521 H 564.96 -3.54049 -2.18607 0
M  V30 5522 H 563.836 -4.4218 -3.25219 0
M  V30 5523 H 564.097 -2.70236 -3.49893 0
M  V30 5524 N 563.156 0.464375 -1.50603 0
M  V30 5525 C 564.567 1.04507 -1.5471 0
M  V30 5526 C 564.918 1.9297 -0.354542 0
M  V30 5527 O 564.043 2.09763 0.531812 0
M  V30 5528 C 564.638 1.90207 -2.80369 0
M  V30 5529 C 563.197 2.43373 -2.87135 0
M  V30 5530 C 562.344 1.21886 -2.49076 0
M  V30 5531 H 565.295 0.246716 -1.56771 0
M  V30 5532 H 565.316 2.75353 -2.62604 0
M  V30 5533 H 564.828 1.25796 -3.67147 0
M  V30 5534 H 562.929 3.11318 -2.04724 0
M  V30 5535 H 563.042 2.7802 -3.90181 0
M  V30 5536 H 561.406 1.55575 -2.01664 0
M  V30 5537 H 562.189 0.591268 -3.3817 0
M  V30 5538 N 564.634 1.40294 0.718013 0
M  V30 5539 C 565.584 1.36847 1.82365 0
M  V30 5540 C 566.568 0.246424 1.59002 0
M  V30 5541 O 567.76 0.485336 1.70216 0
M  V30 5542 C 564.889 1.23105 3.20469 0
M  V30 5543 C 563.975 2.4008 3.49603 0
M  V30 5544 N 564.366 3.65562 3.49568 0
M  V30 5545 C 562.664 2.33407 3.80049 0
M  V30 5546 C 563.365 4.43015 3.76978 0
M  V30 5547 N 562.341 3.72823 3.95606 0
M  V30 5548 H 566.143 2.31811 1.80668 0
M  V30 5549 H 563.657 1.34031 0.91703 0
M  V30 5550 H 565.654 1.18718 3.9964 0
M  V30 5551 H 564.314 0.291056 3.23393 0
M  V30 5552 H 565.325 3.98756 3.30476 0
M  V30 5553 H 562.002 1.47762 3.90478 0
M  V30 5554 H 563.392 5.51859 3.83276 0
M  V30 5555 N 566.112 -0.949982 1.2575 0
M  V30 5556 C 567.022 -2.08109 1.08295 0
M  V30 5557 C 568.038 -1.7399 0.0188181 0
M  V30 5558 O 569.214 -2.00187 0.220724 0
M  V30 5559 C 566.279 -3.39383 0.708534 0
M  V30 5560 C 565.34 -3.8734 1.85111 0
M  V30 5561 C 564.573 -5.12349 1.49447 0
M  V30 5562 O 564.796 -5.6905 0.392212 0
M  V30 5563 O 563.73 -5.5513 2.32624 0
M  V30 5564 H 567.556 -2.25738 2.03165 0
M  V30 5565 H 565.141 -1.06545 1.04731 0
M  V30 5566 H 567.023 -4.18277 0.512061 0
M  V30 5567 H 565.698 -3.23013 -0.210854 0
M  V30 5568 H 564.605 -3.09429 2.10248 0
M  V30 5569 H 565.938 -4.08216 2.74991 0
M  V30 5570 N 567.59 -1.07411 -1.15328 0
M  V30 5571 C 568.553 -0.698914 -2.18284 0
M  V30 5572 C 569.553 0.261149 -1.58665 0
M  V30 5573 O 570.743 0.0420277 -1.74149 0
M  V30 5574 C 567.875 -0.0302427 -3.40887 0
M  V30 5575 H 569.068 -1.61045 -2.52991 0
M  V30 5576 H 566.621 -0.870724 -1.298 0
M  V30 5577 H 567.356 0.893505 -3.11748 0
M  V30 5578 H 567.141 -0.720759 -3.85419 0
M  V30 5579 H 568.631 0.21759 -4.17033 0
M  V30 5580 N 569.068 1.32177 -0.85831 0
M  V30 5581 C 570.484 1.49873 -0.548656 0
M  V30 5582 C 570.684 1.79278 0.919874 0
M  V30 5583 O 569.74 1.86451 1.70271 0
M  V30 5584 C 571.053 2.64043 -1.4388 0
M  V30 5585 C 572.601 2.77928 -1.43961 0
M  V30 5586 C 573.076 3.95182 -2.31506 0
M  V30 5587 N 574.567 4.0245 -2.29321 0
M  V30 5588 C 575.302 4.9242 -2.93786 0
M  V30 5589 N 574.798 5.87373 -3.67376 0
M  V30 5590 N 576.591 4.85572 -2.83155 0
M  V30 5591 H 568.742 1.11357 -1.80868 0
M  V30 5592 H 571.005 0.549175 -0.772729 0
M  V30 5593 H 570.711 2.49055 -2.48324 0
M  V30 5594 H 570.585 3.59912 -1.12885 0
M  V30 5595 H 572.972 2.92338 -0.402813 0
M  V30 5596 H 573.053 1.82762 -1.78974 0
M  V30 5597 H 572.697 3.81531 -3.35256 0
M  V30 5598 H 572.627 4.89633 -1.93823 0
M  V30 5599 H 575.118 3.34507 -1.75822 0
M  V30 5600 H 575.431 6.52728 -4.13722 0
M  V30 5601 H 573.776 5.87388 -3.71484 0
M  V30 5602 H 576.967 4.10363 -2.25211 0
M  V30 5603 H 577.14 5.55486 -3.33676 0
M  V30 5604 N 570.547 0.616602 1.45037 0
M  V30 5605 C 571.479 -0.135186 2.28801 0
M  V30 5606 C 572.492 -0.82303 1.40464 0
M  V30 5607 O 573.681 -0.686909 1.64754 0
M  V30 5608 C 570.781 -1.21292 3.16451 0
M  V30 5609 C 569.954 -0.61043 4.3312 0
M  V30 5610 C 569.013 -1.58022 5.01912 0
M  V30 5611 O 568.039 -1.10301 5.58411 0
M  V30 5612 N 569.241 -2.91464 5.02025 0
M  V30 5613 H 572.006 0.583612 2.93963 0
M  V30 5614 H 569.567 0.456723 1.55324 0
M  V30 5615 H 571.559 -1.86169 3.59337 0
M  V30 5616 H 570.129 -1.83412 2.53138 0
M  V30 5617 H 569.349 0.216638 3.93604 0
M  V30 5618 H 570.637 -0.188293 5.08451 0
M  V30 5619 H 570.035 -3.32829 4.57429 0
M  V30 5620 H 568.592 -3.51741 5.48745 0
M  V30 5621 N 572.025 -1.5352 0.356285 0
M  V30 5622 C 573.271 -2.01414 -0.236653 0
M  V30 5623 C 573.604 -1.24339 -1.49176 0
M  V30 5624 O 572.879 -0.334496 -1.91602 0
M  V30 5625 C 573.162 -3.56059 -0.537982 0
M  V30 5626 C 573.015 -4.43835 0.730112 0
M  V30 5627 C 574.334 -4.19127 -1.34239 0
M  V30 5628 H 571.453 -0.732135 -0.0845386 0
M  V30 5629 H 574.095 -1.83854 0.479341 0
M  V30 5630 H 572.245 -3.71153 -1.14795 0
M  V30 5631 H 573.917 -4.40555 1.36782 0
M  V30 5632 H 572.16 -4.1218 1.3524 0
M  V30 5633 H 572.831 -5.49958 0.474358 0
M  V30 5634 H 575.307 -4.07809 -0.826498 0
M  V30 5635 H 574.183 -5.27378 -1.52198 0
M  V30 5636 H 574.444 -3.74581 -2.34822 0
M  V30 5637 N 573.503 -0.0852151 -1.57369 0
M  V30 5638 C 574.728 0.592872 -1.98746 0
M  V30 5639 C 575.153 1.61538 -0.963689 0
M  V30 5640 O 574.511 1.81168 0.069071 0
M  V30 5641 C 574.559 1.22599 -3.39119 0
M  V30 5642 O 573.663 2.34185 -3.39457 0
M  V30 5643 H 573.004 0.151314 -0.646529 0
M  V30 5644 H 575.534 -0.163703 -2.03944 0
M  V30 5645 H 575.544 1.56965 -3.76598 0
M  V30 5646 H 574.219 0.476831 -4.13158 0
M  V30 5647 H 572.796 2.01512 -3.13763 0
M  V30 5648 N 574.981 1.5647 0.188427 0
M  V30 5649 C 576.229 1.80655 0.905986 0
M  V30 5650 C 576.55 0.659391 1.83513 0
M  V30 5651 O 575.82 -0.321868 1.93238 0
M  V30 5652 H 574.4 0.666391 0.337538 0
M  V30 5653 H 577.062 1.93949 0.192339 0
M  V30 5654 H 576.158 2.74066 1.49313 0
M  V30 5655 N 576.459 -0.456382 1.50847 0
M  V30 5656 C 577.392 -1.57177 1.65441 0
M  V30 5657 C 578.37 -1.54649 0.502224 0
M  V30 5658 O 579.554 -1.74057 0.723633 0
M  V30 5659 C 576.681 -2.95763 1.65052 0
M  V30 5660 C 575.727 -3.16389 2.86007 0
M  V30 5661 S 576.56 -2.94716 4.47105 0
M  V30 5662 C 577.716 -4.35617 4.49432 0
M  V30 5663 H 577.949 -1.44561 2.59787 0
M  V30 5664 H 575.482 -0.644758 1.40293 0
M  V30 5665 H 577.44 -3.75654 1.65512 0
M  V30 5666 H 576.101 -3.05756 0.719153 0
M  V30 5667 H 575.294 -4.17667 2.82081 0
M  V30 5668 H 574.896 -2.44293 2.8319 0
M  V30 5669 H 577.188 -5.28503 4.239 0
M  V30 5670 H 578.131 -4.44582 5.51137 0
M  V30 5671 H 578.539 -4.18382 3.78967 0
M  V30 5672 N 577.937 -1.40673 -0.710563 0
M  V30 5673 C 578.847 -1.43663 -1.85467 0
M  V30 5674 C 579.863 -0.328721 -1.70867 0
M  V30 5675 O 581.039 -0.574098 -1.93044 0
M  V30 5676 C 578.104 -1.30226 -3.21313 0
M  V30 5677 C 577.165 -2.51204 -3.48131 0
M  V30 5678 C 576.398 -2.38398 -4.77495 0
M  V30 5679 O 576.621 -1.40048 -5.5294 0
M  V30 5680 O 575.555 -3.2787 -5.04762 0
M  V30 5681 H 579.381 -2.40156 -1.859 0
M  V30 5682 H 576.966 -1.22049 -0.861652 0
M  V30 5683 H 578.848 -1.2496 -4.02446 0
M  V30 5684 H 577.523 -0.368419 -3.21597 0
M  V30 5685 H 576.43 -2.62048 -2.66987 0
M  V30 5686 H 577.763 -3.43366 -3.52648 0
M  V30 5687 N 579.415 0.9433 -1.26252 0
M  V30 5688 C 580.645 1.72117 -1.14277 0
M  V30 5689 C 581.053 1.86726 0.304944 0
M  V30 5690 O 580.396 1.3727 1.22076 0
M  V30 5691 C 580.458 3.14778 -1.73651 0
M  V30 5692 C 580.122 3.23561 -3.22734 0
M  V30 5693 C 581.119 3.07001 -4.19579 0
M  V30 5694 C 578.804 3.47019 -3.63157 0
M  V30 5695 C 580.798 3.13763 -5.54826 0
M  V30 5696 C 578.485 3.53416 -4.98538 0
M  V30 5697 C 579.483 3.36804 -5.94182 0
M  V30 5698 O 579.171 3.42906 -7.27098 0
M  V30 5699 H 578.903 0.545781 -0.398873 0
M  V30 5700 H 581.457 1.19123 -1.67328 0
M  V30 5701 H 579.687 3.69186 -1.1506 0
M  V30 5702 H 581.376 3.74469 -1.56613 0
M  V30 5703 H 582.142 2.88736 -3.89688 0
M  V30 5704 H 578.021 3.59006 -2.89199 0
M  V30 5705 H 581.565 3.00714 -6.29458 0
M  V30 5706 H 577.462 3.71201 -5.28091 0
M  V30 5707 H 578.23 3.59463 -7.35342 0
M  V30 5708 N 580.893 1.08022 1.14757 0
M  V30 5709 C 582.121 0.828847 1.89572 0
M  V30 5710 C 582.536 -0.618621 1.78377 0
M  V30 5711 O 581.893 -1.42482 1.1404 0
M  V30 5712 C 581.944 1.23677 3.39685 0
M  V30 5713 O 581.665 2.62746 3.50566 0
M  V30 5714 C 583.166 1.01569 4.31507 0
M  V30 5715 H 580.386 0.299196 0.600602 0
M  V30 5716 H 582.93 1.43846 1.45357 0
M  V30 5717 H 581.085 0.671347 3.81539 0
M  V30 5718 H 581.499 2.79573 4.43778 0
M  V30 5719 H 582.973 1.35055 5.35223 0
M  V30 5720 H 583.45 -0.0475433 4.39174 0
M  V30 5721 H 584.056 1.56636 3.95405 0
M  V30 5722 N 582.371 -1.3172 0.865308 0
M  V30 5723 C 583.301 -2.31109 0.333302 0
M  V30 5724 C 584.282 -1.60148 -0.573301 0
M  V30 5725 O 585.467 -1.87882 -0.491305 0
M  V30 5726 C 582.597 -3.44104 -0.470078 0
M  V30 5727 C 581.551 -4.26623 0.343021 0
M  V30 5728 C 580.877 -5.31482 -0.585756 0
M  V30 5729 C 582.177 -4.98001 1.57456 0
M  V30 5730 H 583.871 -2.75855 1.1638 0
M  V30 5731 H 581.417 -1.3262 0.561069 0
M  V30 5732 H 583.37 -4.12682 -0.852752 0
M  V30 5733 H 582.094 -2.98112 -1.33404 0
M  V30 5734 H 580.753 -3.59707 0.707583 0
M  V30 5735 H 580.401 -4.81741 -1.44686 0
M  V30 5736 H 580.101 -5.87582 -0.0456494 0
M  V30 5737 H 581.625 -6.0292 -0.965375 0
M  V30 5738 H 583.039 -5.59201 1.26359 0
M  V30 5739 H 581.436 -5.63876 2.05339 0
M  V30 5740 H 582.506 -4.25253 2.32997 0
M  V30 5741 N 583.85 -0.624285 -1.44708 0
M  V30 5742 C 585.09 -0.129273 -2.03991 0
M  V30 5743 C 585.454 1.22321 -1.47992 0
M  V30 5744 O 586.654 1.80993 -1.98734 0
M  V30 5745 C 584.926 -0.108231 -3.57236 0
M  V30 5746 S 586.485 0.323158 -4.37608 0
M  V30 5747 H 583.303 -0.0577318 -0.708652 0
M  V30 5748 H 585.904 -0.826139 -1.77187 0
M  V30 5749 H 584.609 -1.0958 -3.955 0
M  V30 5750 H 584.139 0.610101 -3.8864 0
M  V30 5751 H 586.154 1.56894 -4.70743 0
M  V30 5752 N 585.328 1.53329 -0.364422 0
M  V30 5753 C 586.276 2.27212 0.497737 0
M  V30 5754 C 587.27 1.30146 1.08437 0
M  V30 5755 O 588.476 1.47778 1.0277 0
M  V30 5756 H 584.851 0.730329 0.179232 0
M  V30 5757 H 586.822 2.98037 -0.147182 0
M  V30 5758 C 585.571 3.07333 1.6261 0
M  V30 5759 H 584.894 3.81866 1.184 0
M  V30 5760 H 586.334 3.62209 2.20409 0
M  V30 5761 C 584.793 2.18102 2.56775 0
M  V30 5762 O 585.323 1.79104 3.59562 0
M  V30 5763 N 583.529 1.82759 2.25937 0
M  V30 5764 H 583.076 2.14671 1.42387 0
M  V30 5765 H 583.034 1.23342 2.89196 0
M  V30 5766 N 586.806 0.0935595 1.57322 0
M  V30 5767 C 588.031 -0.582324 1.99057 0
M  V30 5768 C 588.456 -1.61025 0.972242 0
M  V30 5769 O 587.814 -1.81202 -0.0594622 0
M  V30 5770 C 587.862 -1.20799 3.39765 0
M  V30 5771 O 586.966 -2.32382 3.40694 0
M  V30 5772 H 586.307 -0.147884 0.647323 0
M  V30 5773 H 588.837 0.174516 2.03854 0
M  V30 5774 H 588.847 -1.54966 3.77425 0
M  V30 5775 H 587.522 -0.454914 4.13405 0
M  V30 5776 H 586.099 -1.99845 3.14827 0
M  V30 5777 N 588.284 -1.56567 -0.180126 0
M  V30 5778 C 589.531 -1.81492 -0.898167 0
M  V30 5779 C 589.859 -0.669225 -1.82624 0
M  V30 5780 O 589.114 0.344096 -1.92651 0
M  V30 5781 C 589.413 -3.1252 -1.73395 0
M  V30 5782 C 589.079 -4.40658 -0.955567 0
M  V30 5783 C 587.741 -4.75465 -0.740707 0
M  V30 5784 C 590.093 -5.19593 -0.408948 0
M  V30 5785 C 587.421 -5.86691 0.0320128 0
M  V30 5786 C 589.773 -6.31627 0.350638 0
M  V30 5787 C 588.437 -6.65007 0.576378 0
M  V30 5788 H 587.707 -0.664125 -0.328662 0
M  V30 5789 H 590.354 -1.908 -0.163616 0
M  V30 5790 H 588.659 -2.98515 -2.53763 0
M  V30 5791 H 590.356 -3.29013 -2.29241 0
M  V30 5792 H 586.946 -4.13352 -1.13306 0
M  V30 5793 H 591.13 -4.93104 -0.562307 0
M  V30 5794 H 586.386 -6.11016 0.216735 0
M  V30 5795 H 590.56 -6.92001 0.781497 0
M  V30 5796 H 588.187 -7.51033 1.17703 0
M  V30 5797 N 589.762 0.448376 -1.51087 0
M  V30 5798 C 591.01 1.19635 -1.62886 0
M  V30 5799 C 591.331 1.91977 -0.342024 0
M  V30 5800 O 590.601 1.85094 0.641636 0
M  V30 5801 H 589.181 0.444598 -0.600285 0
M  V30 5802 H 591.843 0.515138 -1.87969 0
M  V30 5803 H 590.939 1.93194 -2.45117 0
M  V30 5804 N 591.24 1.41047 0.703093 0
M  V30 5805 C 592.487 1.4 1.46309 0
M  V30 5806 C 592.815 0.00654574 1.94499 0
M  V30 5807 O 592.07 -0.980255 1.6938 0
M  V30 5808 C 592.369 2.34686 2.6955 0
M  V30 5809 C 592.035 3.81684 2.40058 0
M  V30 5810 C 590.697 4.21731 2.31725 0
M  V30 5811 C 593.049 4.74525 2.15581 0
M  V30 5812 C 590.377 5.52637 1.97001 0
M  V30 5813 C 592.729 6.05744 1.82366 0
M  V30 5814 C 591.393 6.44819 1.72524 0
M  V30 5815 H 590.663 0.512295 0.535382 0
M  V30 5816 H 593.31 1.73792 0.804275 0
M  V30 5817 H 591.615 1.94122 3.40329 0
M  V30 5818 H 593.312 2.31152 3.27673 0
M  V30 5819 H 589.902 3.49963 2.47435 0
M  V30 5820 H 594.086 4.44395 2.20968 0
M  V30 5821 H 589.342 5.81802 1.87928 0
M  V30 5822 H 593.516 6.77189 1.62444 0
M  V30 5823 H 591.143 7.46168 1.45385 0
M  V30 5824 N 592.718 -0.936591 1.26751 0
M  V30 5825 C 593.966 -1.67998 1.12343 0
M  V30 5826 C 594.287 -1.92137 -0.332938 0
M  V30 5827 O 593.557 -1.52132 -1.23421 0
M  V30 5828 H 592.137 -0.622609 0.412756 0
M  V30 5829 H 594.799 -1.12509 1.59147 0
M  V30 5830 H 593.895 -2.65185 1.64571 0
M  V30 5831 N 594.196 -1.08629 -1.14182 0
M  V30 5832 C 595.444 -0.815731 -1.84906 0
M  V30 5833 C 595.765 0.660441 -1.83475 0
M  V30 5834 O 595.035 1.47888 -1.28476 0
M  V30 5835 H 593.615 -0.298773 -0.684648 0
M  V30 5836 H 596.277 -1.37274 -1.38354 0
M  V30 5837 H 595.373 -1.16193 -2.89665 0
M  V30 5838 N 595.674 1.31259 -0.872281 0
M  V30 5839 C 596.902 2.00795 -0.498907 0
M  V30 5840 C 597.317 1.65464 0.909238 0
M  V30 5841 O 596.674 0.885073 1.59602 0
M  V30 5842 C 596.725 3.55625 -0.649092 0
M  V30 5843 O 596.446 3.89692 -2.00179 0
M  V30 5844 C 597.947 4.42434 -0.277034 0
M  V30 5845 H 595.167 0.642299 -0.194145 0
M  V30 5846 H 597.711 1.67438 -1.17408 0
M  V30 5847 H 595.866 3.87394 -0.0214402 0
M  V30 5848 H 596.28 4.84407 -2.01122 0
M  V30 5849 H 597.754 5.50299 -0.433064 0
M  V30 5850 H 598.231 4.32146 0.783989 0
M  V30 5851 H 598.837 4.16086 -0.880483 0
M  V30 5852 N 597.152 0.631951 1.44375 0
M  V30 5853 C 598.1 -0.0846693 2.32446 0
M  V30 5854 C 599.094 -0.834957 1.47393 0
M  V30 5855 O 600.3 -0.747764 1.63733 0
M  V30 5856 H 596.675 -0.0461508 0.750583 0
M  V30 5857 H 598.646 0.67619 2.90638 0
M  V30 5858 C 597.395 -1.05211 3.314 0
M  V30 5859 H 596.718 -0.484203 3.96857 0
M  V30 5860 H 598.158 -1.523 3.95703 0
M  V30 5861 C 596.617 -2.13776 2.60387 0
M  V30 5862 O 597.147 -3.21869 2.4034 0
M  V30 5863 N 595.353 -1.89733 2.20113 0
M  V30 5864 H 594.9 -1.01833 2.36618 0
M  V30 5865 H 594.858 -2.62572 1.72926 0
M  V30 5866 N 598.631 -1.53133 0.372548 0
M  V30 5867 C 599.879 -2.00958 -0.214534 0
M  V30 5868 C 600.2 -1.26135 -1.48711 0
M  V30 5869 O 599.47 -0.376597 -1.92246 0
M  V30 5870 H 598.05 -0.742456 -0.0822664 0
M  V30 5871 H 600.712 -1.88367 0.500385 0
M  V30 5872 H 599.808 -3.09031 -0.436605 0
M  V30 5873 N 600.109 -0.101901 -1.5727 0
M  V30 5874 C 601.334 0.571759 -1.99363 0
M  V30 5875 C 601.759 1.60507 -0.980768 0
M  V30 5876 O 601.117 1.81231 0.0498517 0
M  V30 5877 C 601.165 1.18996 -3.404 0
M  V30 5878 O 600.269 2.30572 -3.41922 0
M  V30 5879 H 599.61 0.144449 -0.648098 0
M  V30 5880 H 602.14 -0.185325 -2.03759 0
M  V30 5881 H 602.15 1.52962 -3.78241 0
M  V30 5882 H 600.825 0.432984 -4.1364 0
M  V30 5883 H 599.402 1.98173 -3.15883 0
M  V30 5884 N 601.587 1.56661 0.17182 0
M  V30 5885 C 602.517 1.99401 1.21498 0
M  V30 5886 C 603.498 0.869516 1.46197 0
M  V30 5887 O 604.683 1.13556 1.57539 0
M  V30 5888 C 601.813 2.35346 2.55401 0
M  V30 5889 C 600.767 3.5075 2.45272 0
M  V30 5890 C 600.093 3.72437 3.8366 0
M  V30 5891 C 601.393 4.84216 1.95787 0
M  V30 5892 H 603.087 2.86792 0.859699 0
M  V30 5893 H 600.633 1.37977 0.412103 0
M  V30 5894 H 602.586 2.63843 3.2858 0
M  V30 5895 H 601.31 1.44864 2.92715 0
M  V30 5896 H 599.969 3.2238 1.74547 0
M  V30 5897 H 599.617 2.79246 4.18367 0
M  V30 5898 H 599.317 4.50087 3.77751 0
M  V30 5899 H 600.841 4.03334 4.58426 0
M  V30 5900 H 602.255 5.11592 2.5874 0
M  V30 5901 H 600.652 5.65498 2.00827 0
M  V30 5902 H 601.722 4.76243 0.912159 0
M  V30 5903 N 603.065 -0.440357 1.51323 0
M  V30 5904 C 604.314 -1.18697 1.63076 0
M  V30 5905 C 604.627 -1.92418 0.35136 0
M  V30 5906 O 605.833 -2.69258 0.348221 0
M  V30 5907 C 604.289 -2.15849 2.87988 0
M  V30 5908 C 603.897 -1.47789 4.22921 0
M  V30 5909 C 605.641 -2.90962 3.09098 0
M  V30 5910 C 603.548 -2.43407 5.38987 0
M  V30 5911 H 602.478 -0.44676 0.607389 0
M  V30 5912 H 605.129 -0.454313 1.77787 0
M  V30 5913 H 603.511 -2.92537 2.66905 0
M  V30 5914 H 604.685 -0.7668 4.54375 0
M  V30 5915 H 603 -0.848404 4.07665 0
M  V30 5916 H 605.597 -3.62584 3.92985 0
M  V30 5917 H 605.94 -3.52133 2.22053 0
M  V30 5918 H 606.473 -2.21381 3.30507 0
M  V30 5919 H 603.212 -1.86929 6.28282 0
M  V30 5920 H 602.732 -3.12579 5.11913 0
M  V30 5921 H 604.411 -3.046 5.70813 0
M  V30 5922 N 604.543 -1.41418 -0.695603 0
M  V30 5923 C 605.79 -1.40774 -1.45564 0
M  V30 5924 C 606.118 -0.0168604 -1.94493 0
M  V30 5925 O 605.373 0.971259 -1.69897 0
M  V30 5926 C 605.672 -2.36112 -2.68302 0
M  V30 5927 C 605.338 -3.82952 -2.38031 0
M  V30 5928 C 604 -4.22954 -2.29486 0
M  V30 5929 C 606.352 -4.75662 -2.13061 0
M  V30 5930 C 603.68 -5.53674 -1.94067 0
M  V30 5931 C 606.032 -6.06702 -1.79151 0
M  V30 5932 C 604.696 -6.45725 -1.69102 0
M  V30 5933 H 603.966 -0.515128 -0.532658 0
M  V30 5934 H 606.613 -1.74216 -0.795047 0
M  V30 5935 H 604.918 -1.95924 -3.39295 0
M  V30 5936 H 606.615 -2.32887 -3.26442 0
M  V30 5937 H 603.205 -3.5127 -2.45576 0
M  V30 5938 H 607.389 -4.45561 -2.18608 0
M  V30 5939 H 602.645 -5.8279 -1.8484 0
M  V30 5940 H 606.819 -6.78041 -1.5885 0
M  V30 5941 H 604.446 -7.46929 -1.41426 0
M  V30 5942 N 606.021 0.929856 -1.27246 0
M  V30 5943 C 606.968 2.03017 -1.09785 0
M  V30 5944 C 607.938 1.661 0.000456744 0
M  V30 5945 O 609.123 1.90116 -0.161462 0
M  V30 5946 C 606.263 3.36878 -0.748816 0
M  V30 5947 C 605.376 3.86763 -1.92453 0
M  V30 5948 C 604.511 5.09061 -1.51758 0
M  V30 5949 C 603.55 5.51237 -2.66091 0
M  V30 5950 N 602.687 6.64732 -2.25999 0
M  V30 5951 H 607.527 2.17285 -2.03939 0
M  V30 5952 H 605.064 1.06448 -1.01524 0
M  V30 5953 H 607.022 4.13855 -0.527283 0
M  V30 5954 H 605.652 3.22424 0.155771 0
M  V30 5955 H 604.704 3.06086 -2.25867 0
M  V30 5956 H 606.016 4.13994 -2.78227 0
M  V30 5957 H 605.17 5.93532 -1.25716 0
M  V30 5958 H 603.909 4.83602 -0.630896 0
M  V30 5959 H 602.914 4.65316 -2.92849 0
M  V30 5960 H 604.139 5.78692 -3.55377 0
M  V30 5961 H 602.085 6.40935 -1.3978 0
M  V30 5962 H 602.002 6.91607 -3.05313 0
M  V30 5963 H 603.27 7.52549 -2.03199 0
M  V30 5964 N 607.499 1.09233 1.13605 0
M  V30 5965 C 608.446 0.729921 2.18954 0
M  V30 5966 C 609.416 -0.287916 1.63586 0
M  V30 5967 O 610.601 -0.170003 1.90041 0
M  V30 5968 C 607.741 0.154489 3.44754 0
M  V30 5969 C 606.854 1.22613 4.14234 0
M  V30 5970 C 605.989 0.613657 5.27644 0
M  V30 5971 C 605.028 1.66674 5.8897 0
M  V30 5972 N 604.165 1.07545 6.93814 0
M  V30 5973 H 609.005 1.63257 2.49302 0
M  V30 5974 H 606.542 0.815693 1.22413 0
M  V30 5975 H 608.5 -0.196923 4.16735 0
M  V30 5976 H 607.13 -0.711433 3.14863 0
M  V30 5977 H 606.182 1.69485 3.40557 0
M  V30 5978 H 607.494 2.0238 4.55899 0
M  V30 5979 H 606.648 0.210976 6.06333 0
M  V30 5980 H 605.387 -0.215584 4.87223 0
M  V30 5981 H 604.392 2.07899 5.08978 0
M  V30 5982 H 605.617 2.49861 6.31464 0
M  V30 5983 H 603.563 0.267451 6.55455 0
M  V30 5984 H 603.48 1.81011 7.3401 0
M  V30 5985 H 604.748 0.698906 7.7636 0
M  V30 5986 N 608.977 -1.30795 0.87923 0
M  V30 5987 C 610.226 -1.95636 0.490875 0
M  V30 5988 C 610.539 -1.70214 -0.963674 0
M  V30 5989 O 611.745 -2.28991 -1.45861 0
M  V30 5990 C 610.201 -3.50271 0.826929 0
M  V30 5991 C 609.809 -3.84521 2.29886 0
M  V30 5992 C 611.553 -4.21456 0.507494 0
M  V30 5993 C 609.46 -5.32309 2.57685 0
M  V30 5994 H 608.39 -0.732238 0.179841 0
M  V30 5995 H 611.041 -1.48829 1.07341 0
M  V30 5996 H 609.423 -3.9562 0.173542 0
M  V30 5997 H 610.597 -3.50102 2.99609 0
M  V30 5998 H 608.912 -3.26425 2.58526 0
M  V30 5999 H 611.509 -5.30199 0.692293 0
M  V30 6000 H 611.852 -4.12614 -0.552718 0
M  V30 6001 H 612.385 -3.81772 1.11782 0
M  V30 6002 H 609.124 -5.46195 3.62424 0
M  V30 6003 H 608.644 -5.68048 1.92566 0
M  V30 6004 H 610.323 -5.99678 2.42889 0
M  V30 6005 O 610.494 -0.779418 -1.41447 0
M  V30 6006 H 611.185 -0.346083 -1.90583 0
M  V30 END ATOM
M  V30 BEGIN BOND
M  V30 END BOND
M  V30 END CTAB
M  END
$$$$
