drugbank_target|Q8N1C3 Gamma-aminobutyric acid receptor subunit gamma-1 (DB00186; DB00189; DB00228; DB00231; DB00237; DB00241; DB00252; DB00292; DB00306; DB00312; DB00349; DB00371; DB00402; DB00404; DB00463; DB00475; DB00543; DB00546; DB00555; DB00603; DB00628; DB00659; DB00683; DB00690; DB00753; DB00794; DB00801; DB00818; DB00829; DB00842; DB00897; DB01028; DB01043; DB01068; DB01107; DB01159; DB01189; DB01205; DB01215; DB01236; DB01437; DB01489; DB01511; DB01544; DB01545; DB01553; DB01558; DB01559; DB01587; DB01588; DB01589; DB01594; DB01595; DB01708; DB01956; DB09017; DB09118; DB09166; DB11582; DB11859; DB11901; DB12404; DB12537; DB13335; DB13437; DB13643; DB13837; DB13872; DB14028; DB14672; DB14715; DB14719; DB15489)
 OpenBabel12092120353D

  0  0  0     0  0            999 V3000
M  V30 BEGIN CTAB
M  V30 COUNTS 7546 7649 0 0 0
M  V30 BEGIN ATOM
M  V30 1 H -0.908 1.98254 -0.117106 0
M  V30 2 N 0 1.576 0 0
M  V30 3 C 0.933 2.03868 1.02534 0
M  V30 4 C 1.911 0.928543 1.3348 0
M  V30 5 O 3.095 1.19667 1.45644 0
M  V30 6 C 0.222 2.43627 2.35294 0
M  V30 7 C -0.732 3.65373 2.2001 0
M  V30 8 S 0.101 5.13292 1.52614 0
M  V30 9 C 1.257 5.56322 2.86805 0
M  V30 10 H 1.49 2.90518 0.631377 0
M  V30 11 H -0.977 1.52953 0.210867 0
M  V30 12 H 0.981 2.67203 3.11629 0
M  V30 13 H -0.358 1.57376 2.7183 0
M  V30 14 H -1.165 3.90944 3.18086 0
M  V30 15 H -1.563 3.418 1.51819 0
M  V30 16 H 0.729 5.58782 3.83104 0
M  V30 17 H 1.672 6.56266 2.65933 0
M  V30 18 H 2.08 4.83886 2.90714 0
M  V30 19 N 1.4781 -0.272755 1.55222 0
M  V30 20 C 2.7261 -1.00234 1.75492 0
M  V30 21 C 3.0471 -1.8681 0.5592 0
M  V30 22 O 2.3171 -1.91215 -0.425882 0
M  V30 23 H 0.8971 -0.373076 0.647166 0
M  V30 24 H 3.5591 -0.296926 1.92625 0
M  V30 25 H 2.6551 -1.63913 2.65592 0
M  V30 26 N 2.9562 -1.48159 -0.537278 0
M  V30 27 C 4.3672 -1.49429 -1.11928 0
M  V30 28 C 4.7182 -0.26 -1.9447 0
M  V30 29 O 3.8432 0.633489 -2.0692 0
M  V30 30 C 4.4382 -2.70758 -2.03656 0
M  V30 31 C 2.9972 -2.74923 -2.57088 0
M  V30 32 C 2.1442 -2.42835 -1.3389 0
M  V30 33 H 5.0952 -1.55381 -0.322886 0
M  V30 34 H 5.1162 -2.48861 -2.87834 0
M  V30 35 H 4.6282 -3.60575 -1.43553 0
M  V30 36 H 2.7292 -1.89296 -3.20933 0
M  V30 37 H 2.8422 -3.76157 -2.9672 0
M  V30 38 H 1.2062 -1.93836 -1.65226 0
M  V30 39 H 1.9892 -3.34884 -0.755504 0
M  V30 40 N 4.4343 0.785586 -1.36625 0
M  V30 41 C 5.3643 1.91259 -1.33949 0
M  V30 42 C 6.3453 1.68795 -0.210325 0
M  V30 43 O 7.5303 1.89854 -0.408561 0
M  V30 44 C 4.6603 3.28339 -1.13186 0
M  V30 45 C 3.6143 3.65335 -2.22967 0
M  V30 46 C 2.9403 5.00806 -1.87342 0
M  V30 47 C 4.2403 3.7352 -3.65075 0
M  V30 48 H 5.9343 1.93755 -2.28253 0
M  V30 49 H 3.4803 0.930788 -1.09874 0
M  V30 50 H 5.4333 4.06804 -1.09948 0
M  V30 51 H 4.1573 3.2624 -0.153332 0
M  V30 52 H 2.8163 2.89169 -2.25337 0
M  V30 53 H 2.4643 4.95233 -0.880545 0
M  V30 54 H 2.1643 5.26529 -2.60846 0
M  V30 55 H 3.6883 5.81687 -1.85667 0
M  V30 56 H 5.1023 4.42168 -3.64911 0
M  V30 57 H 3.4993 4.10731 -4.37516 0
M  V30 58 H 4.5693 2.74527 -3.99703 0
M  V30 59 N 5.9124 1.20967 1.01018 0
M  V30 60 C 6.8594 0.964281 2.09691 0
M  V30 61 C 7.8294 -0.107853 1.65749 0
M  V30 62 O 9.0144 0.0381987 1.90762 0
M  V30 63 C 6.1544 0.52943 3.41015 0
M  V30 64 C 5.2674 1.67043 3.98398 0
M  V30 65 C 4.4024 1.18525 5.17808 0
M  V30 66 C 3.4414 2.29892 5.67288 0
M  V30 67 N 2.5784 1.82546 6.77954 0
M  V30 68 H 7.4184 1.89463 2.30017 0
M  V30 69 H 4.9554 0.944289 1.1279 0
M  V30 70 H 6.9134 0.258588 4.16398 0
M  V30 71 H 5.5434 -0.363919 3.20742 0
M  V30 72 H 4.5954 2.05603 3.20049 0
M  V30 73 H 5.9074 2.50877 4.31117 0
M  V30 74 H 5.0614 0.870762 6.00419 0
M  V30 75 H 3.8004 0.316887 4.86669 0
M  V30 76 H 2.8054 2.6215 4.83278 0
M  V30 77 H 4.0304 3.17216 6.00459 0
M  V30 78 H 1.9764 0.980454 6.48632 0
M  V30 79 H 1.8934 2.59956 7.09901 0
M  V30 80 H 3.1614 1.54115 7.64113 0
M  V30 81 N 7.3905 -1.2043 1.01659 0
M  V30 82 C 8.3535 -2.21433 0.591616 0
M  V30 83 C 9.3535 -1.57203 -0.338226 0
M  V30 84 O 10.5435 -1.73737 -0.126918 0
M  V30 85 C 7.6755 -3.40628 -0.136058 0
M  V30 86 H 8.8685 -2.60545 1.48514 0
M  V30 87 H 6.4215 -1.33893 0.806379 0
M  V30 88 H 7.1565 -3.07019 -1.04449 0
M  V30 89 H 6.9415 -3.88475 0.531917 0
M  V30 90 H 8.4315 -4.15475 -0.420735 0
M  V30 91 N 8.8686 -0.792821 -1.36206 0
M  V30 92 C 10.1156 -0.366786 -1.99151 0
M  V30 93 C 10.4436 1.06243 -1.62919 0
M  V30 94 O 9.6986 1.74927 -0.877442 0
M  V30 95 C 9.9976 -0.481501 -3.54142 0
M  V30 96 C 9.6636 -1.87202 -4.10203 0
M  V30 97 C 8.3256 -2.25248 -4.25226 0
M  V30 98 C 10.6776 -2.78237 -4.40719 0
M  V30 99 C 8.0056 -3.53723 -4.68078 0
M  V30 100 C 10.3576 -4.06144 -4.85005 0
M  V30 101 C 9.0216 -4.44207 -4.98234 0
M  V30 102 H 8.2916 -0.134217 -0.728743 0
M  V30 103 H 10.9386 -1.01094 -1.62641 0
M  V30 104 H 9.2436 0.246146 -3.91026 0
M  V30 105 H 10.9406 -0.132844 -4.0078 0
M  V30 106 H 7.5306 -1.56639 -3.98951 0
M  V30 107 H 11.7146 -2.50097 -4.28679 0
M  V30 108 H 6.9706 -3.8308 -4.76508 0
M  V30 109 H 11.1446 -4.76796 -5.07581 0
M  V30 110 H 8.7716 -5.43814 -5.31197 0
M  V30 111 N 10.3467 1.47872 -0.545128 0
M  V30 112 C 11.2767 2.32661 0.197793 0
M  V30 113 C 12.2577 1.43041 0.920504 0
M  V30 114 O 13.4427 1.71912 0.90333 0
M  V30 115 C 10.5727 3.24569 1.23582 0
M  V30 116 C 9.5267 4.23333 0.630323 0
M  V30 117 C 8.8527 5.0448 1.77211 0
M  V30 118 C 10.1527 5.20704 -0.407974 0
M  V30 119 H 11.8467 2.95024 -0.510045 0
M  V30 120 H 9.3927 1.4187 -0.246731 0
M  V30 121 H 11.3457 3.8272 1.76362 0
M  V30 122 H 10.0697 2.60236 1.97344 0
M  V30 123 H 8.7287 3.6639 0.123922 0
M  V30 124 H 8.3767 4.36561 2.49847 0
M  V30 125 H 8.0767 5.71339 1.37281 0
M  V30 126 H 9.6007 5.65487 2.3034 0
M  V30 127 H 11.0147 5.7329 0.033305 0
M  V30 128 H 9.4117 5.95699 -0.725486 0
M  V30 129 H 10.4817 4.66917 -1.30828 0
M  V30 130 N 11.8248 0.280983 1.55075 0
M  V30 131 C 13.0718 -0.334115 1.99725 0
M  V30 132 C 13.3998 -1.5542 1.1694 0
M  V30 133 O 12.6548 -1.94361 0.228531 0
M  V30 134 C 12.9538 -0.754656 3.49342 0
M  V30 135 C 12.6198 0.361445 4.49449 0
M  V30 136 C 11.2818 0.667893 4.76542 0
M  V30 137 C 13.6338 1.11322 5.09173 0
M  V30 138 C 10.9618 1.7296 5.60626 0
M  V30 139 C 13.3138 2.1647 5.9441 0
M  V30 140 C 11.9778 2.47742 6.19822 0
M  V30 141 H 11.2478 -0.122261 0.730844 0
M  V30 142 H 13.8948 0.395917 1.87363 0
M  V30 143 H 12.1998 -1.56446 3.5921 0
M  V30 144 H 13.8968 -1.24142 3.813 0
M  V30 145 H 10.4868 0.112481 4.28452 0
M  V30 146 H 14.6708 0.88973 4.8826 0
M  V30 147 H 9.9268 1.97684 5.78559 0
M  V30 148 H 14.1008 2.75193 6.3972 0
M  V30 149 H 11.7278 3.30145 6.84769 0
M  V30 150 N 13.3029 -1.57598 0.00835791 0
M  V30 151 C 14.5279 -1.95617 -0.689103 0
M  V30 152 C 14.9529 -0.883753 -1.66046 0
M  V30 153 O 14.3109 0.157352 -1.80616 0
M  V30 154 C 14.3589 -3.32736 -1.38994 0
M  V30 155 O 13.4629 -3.27631 -2.50463 0
M  V30 156 H 12.8039 -0.638379 -0.182668 0
M  V30 157 H 15.3339 -2.045 0.064036 0
M  V30 158 H 15.3439 -3.68494 -1.75147 0
M  V30 159 H 14.0189 -4.1034 -0.677778 0
M  V30 160 H 12.5959 -3.03561 -2.16576 0
M  V30 161 N 14.781 0.264519 -1.55364 0
M  V30 162 C 16.192 0.834936 -1.6699 0
M  V30 163 C 16.543 1.86718 -0.602552 0
M  V30 164 O 15.668 2.14899 0.254425 0
M  V30 165 C 16.263 1.5212 -3.02729 0
M  V30 166 C 14.822 2.03954 -3.16354 0
M  V30 167 C 13.969 0.884498 -2.62815 0
M  V30 168 H 16.92 0.0406869 -1.58648 0
M  V30 169 H 16.941 2.38853 -2.96191 0
M  V30 170 H 16.453 0.769668 -3.80392 0
M  V30 171 H 14.554 2.82041 -2.43482 0
M  V30 172 H 14.667 2.24902 -4.23032 0
M  V30 173 H 13.031 1.2802 -2.20188 0
M  V30 174 H 13.814 0.14634 -3.42988 0
M  V30 175 N 16.2591 1.48442 0.529413 0
M  V30 176 C 17.5061 1.56488 1.28521 0
M  V30 177 C 17.8341 0.239042 1.93025 0
M  V30 178 O 17.0891 -0.770713 1.79885 0
M  V30 179 C 17.3881 2.6523 2.39558 0
M  V30 180 C 17.0541 4.07648 1.92702 0
M  V30 181 C 15.7161 4.46411 1.79641 0
M  V30 182 C 18.0681 4.96896 1.573 0
M  V30 183 C 15.3961 5.72226 1.29514 0
M  V30 184 C 17.7481 6.23202 1.08636 0
M  V30 185 C 16.4121 6.60821 0.941919 0
M  V30 186 H 15.6821 0.572631 0.470292 0
M  V30 187 H 18.3291 1.82161 0.59072 0
M  V30 188 H 16.6341 2.33419 3.14679 0
M  V30 189 H 18.3311 2.68671 2.97686 0
M  V30 190 H 14.9211 3.77036 2.03819 0
M  V30 191 H 19.1051 4.67626 1.66251 0
M  V30 192 H 14.3611 6.00097 1.17019 0
M  V30 193 H 18.5351 6.91753 0.803136 0
M  V30 194 H 16.1621 7.58198 0.5513 0
M  V30 195 N 17.7372 -0.778329 1.37039 0
M  V30 196 C 18.6672 -1.90546 1.34962 0
M  V30 197 C 19.6482 -1.68681 0.219274 0
M  V30 198 O 20.8332 -1.89634 0.418624 0
M  V30 199 C 17.9632 -3.27734 1.14925 0
M  V30 200 C 16.9172 -3.64147 2.24902 0
M  V30 201 C 16.2432 -4.99806 1.89996 0
M  V30 202 C 17.5432 -3.71579 3.67051 0
M  V30 203 H 19.2372 -1.92541 2.29277 0
M  V30 204 H 16.7832 -0.924948 1.10366 0
M  V30 205 H 18.7362 -4.06215 1.12104 0
M  V30 206 H 17.4602 -3.26154 0.170631 0
M  V30 207 H 16.1192 -2.8797 2.26868 0
M  V30 208 H 15.7672 -4.94759 0.906796 0
M  V30 209 H 15.4672 -5.25139 2.63634 0
M  V30 210 H 16.9912 -5.80694 1.88749 0
M  V30 211 H 18.4052 -4.40227 3.67251 0
M  V30 212 H 16.8022 -4.08405 4.39688 0
M  V30 213 H 17.8722 -2.72404 4.01154 0
M  V30 214 N 19.2153 -1.21501 -1.00376 0
M  V30 215 C 20.1453 -0.999478 -2.11028 0
M  V30 216 C 21.1263 0.0759671 -1.6993 0
M  V30 217 O 22.3113 -0.0841106 -1.94018 0
M  V30 218 C 19.4413 -0.564709 -3.42678 0
M  V30 219 C 18.3953 -1.58486 -3.97576 0
M  V30 220 C 17.7213 -1.00628 -5.25146 0
M  V30 221 C 19.0213 -2.97204 -4.29496 0
M  V30 222 H 20.7153 -1.92495 -2.29317 0
M  V30 223 H 18.2613 -0.92693 -1.102 0
M  V30 224 H 20.2143 -0.401091 -4.19487 0
M  V30 225 H 18.9383 0.396411 -3.24185 0
M  V30 226 H 17.5973 -1.73606 -3.22888 0
M  V30 227 H 17.2453 -0.0368439 -5.02987 0
M  V30 228 H 16.9453 -1.68771 -5.62841 0
M  V30 229 H 18.4693 -0.854015 -6.04598 0
M  V30 230 H 19.8833 -2.8552 -4.97143 0
M  V30 231 H 18.2803 -3.62372 -4.78338 0
M  V30 232 H 19.3503 -3.47956 -3.3772 0
M  V30 233 N 20.6934 1.19889 -1.02296 0
M  V30 234 C 22.1094 1.41462 -0.738954 0
M  V30 235 C 22.3094 1.89721 0.678846 0
M  V30 236 O 21.3654 2.07016 1.4457 0
M  V30 237 C 22.6784 2.43083 -1.77005 0
M  V30 238 C 24.2264 2.5684 -1.78892 0
M  V30 239 C 24.7014 3.61709 -2.80945 0
M  V30 240 N 26.1924 3.69199 -2.79725 0
M  V30 241 C 26.9274 4.50019 -3.55345 0
M  V30 242 N 26.4234 5.34592 -4.40662 0
M  V30 243 N 28.2164 4.44612 -3.43914 0
M  V30 244 H 20.3674 0.868827 -1.93817 0
M  V30 245 H 22.6304 0.44399 -0.837602 0
M  V30 246 H 22.3364 2.14636 -2.78612 0
M  V30 247 H 22.2104 3.4217 -1.58744 0
M  V30 248 H 24.5974 2.84614 -0.779674 0
M  V30 249 H 24.6784 1.57927 -2.01228 0
M  V30 250 H 24.3224 3.34678 -3.82038 0
M  V30 251 H 24.2524 4.60259 -2.5587 0
M  V30 252 H 26.7434 3.08794 -2.17842 0
M  V30 253 H 27.0564 5.93363 -4.95116 0
M  V30 254 H 25.4014 5.34073 -4.44737 0
M  V30 255 H 28.5924 3.7758 -2.76679 0
M  V30 256 H 28.7654 5.0736 -4.031 0
M  V30 257 N 22.1715 0.800033 1.35784 0
M  V30 258 C 23.3965 0.388511 2.03729 0
M  V30 259 C 23.8215 -0.990481 1.5991 0
M  V30 260 O 23.1795 -1.64013 0.772612 0
M  V30 261 C 23.2275 0.4726 3.5749 0
M  V30 262 O 22.3315 -0.51646 4.09153 0
M  V30 263 H 21.6725 0.163271 0.643614 0
M  V30 264 H 24.2025 1.0841 1.73518 0
M  V30 265 H 24.2125 0.34003 4.06581 0
M  V30 266 H 22.8875 1.47848 3.88734 0
M  V30 267 H 21.4645 -0.344673 3.71304 0
M  V30 268 N 23.6496 -1.47581 0.552962 0
M  V30 269 C 24.5816 -2.27997 -0.234533 0
M  V30 270 C 25.5946 -1.36753 -0.883321 0
M  V30 271 O 26.7836 -1.61612 -0.757889 0
M  V30 272 C 23.8836 -3.10879 -1.34935 0
M  V30 273 C 23.0566 -4.30056 -0.798158 0
M  V30 274 C 22.1156 -4.94567 -1.79694 0
M  V30 275 O 21.1416 -5.53087 -1.34474 0
M  V30 276 N 22.3436 -4.88878 -3.13015 0
M  V30 277 H 25.1086 -2.96222 0.455255 0
M  V30 278 H 22.6696 -1.57163 0.388761 0
M  V30 279 H 24.6616 -3.50903 -2.01616 0
M  V30 280 H 23.2316 -2.44924 -1.94244 0
M  V30 281 H 22.4516 -3.94174 0.0453079 0
M  V30 282 H 23.7396 -5.07152 -0.409173 0
M  V30 283 H 23.1376 -4.42526 -3.52402 0
M  V30 284 H 21.6946 -5.32934 -3.75266 0
M  V30 285 N 25.1277 -0.289203 -1.54924 0
M  V30 286 C 26.3527 0.329299 -2.04769 0
M  V30 287 C 26.7777 1.4763 -1.16564 0
M  V30 288 O 26.1357 1.80527 -0.167186 0
M  V30 289 C 26.1837 0.774438 -3.52186 0
M  V30 290 O 25.2877 1.88038 -3.67036 0
M  V30 291 H 24.6287 0.0659259 -0.660719 0
M  V30 292 H 27.1587 -0.42761 -2.00082 0
M  V30 293 H 27.1687 1.06642 -3.93816 0
M  V30 294 H 25.8437 -0.0646707 -4.1585 0
M  V30 295 H 24.4207 1.58985 -3.3731 0
M  V30 296 N 26.6058 1.57591 -0.0167156 0
M  V30 297 C 28.0218 1.55946 0.339557 0
M  V30 298 C 28.2218 1.02109 1.73713 0
M  V30 299 O 27.2778 0.662303 2.43659 0
M  V30 300 C 28.5908 3.00037 0.199499 0
M  V30 301 C 30.1388 3.11805 0.273193 0
M  V30 302 C 30.6138 4.57713 0.162068 0
M  V30 303 N 32.1048 4.6268 0.219444 0
M  V30 304 C 32.8398 5.73185 0.157054 0
M  V30 305 N 32.3358 6.92786 0.0442936 0
M  V30 306 N 34.1288 5.61707 0.21014 0
M  V30 307 H 26.2798 1.90921 -0.930758 0
M  V30 308 H 28.5428 0.877674 -0.358319 0
M  V30 309 H 28.2488 3.4333 -0.76273 0
M  V30 310 H 28.1228 3.64387 0.974786 0
M  V30 311 H 30.5098 2.68433 1.22587 0
M  V30 312 H 30.5908 2.50201 -0.532256 0
M  V30 313 H 30.2348 5.01763 -0.78714 0
M  V30 314 H 30.1648 5.17283 0.986222 0
M  V30 315 H 32.6558 3.76649 0.307246 0
M  V30 316 H 32.9688 7.728 0.00304069 0
M  V30 317 H 31.3138 6.94999 0.00968457 0
M  V30 318 H 34.5048 4.6716 0.296546 0
M  V30 319 H 34.6778 6.47807 0.158054 0
M  V30 320 N 28.0839 -0.256276 1.55502 0
M  V30 321 C 29.3319 -0.983672 1.76545 0
M  V30 322 C 29.6529 -1.86206 0.578982 0
M  V30 323 O 28.9229 -1.91656 -0.405577 0
M  V30 324 H 27.5029 -0.366191 0.651086 0
M  V30 325 H 30.1649 -0.276479 1.92929 0
M  V30 326 H 29.2609 -1.61087 2.67315 0
M  V30 327 N 29.562 -1.4872 -0.521534 0
M  V30 328 C 30.808 -1.574 -1.27879 0
M  V30 329 C 31.141 -0.250817 -1.92573 0
M  V30 330 O 30.416 0.743934 -1.79711 0
M  V30 331 C 30.699 -2.71843 -2.36164 0
M  V30 332 C 30.552 -4.13893 -1.76105 0
M  V30 333 C 31.871 -2.82008 -3.37875 0
M  V30 334 H 28.99 -0.572941 -0.463581 0
M  V30 335 H 31.632 -1.80927 -0.580119 0
M  V30 336 H 29.782 -2.51914 -2.95756 0
M  V30 337 H 31.454 -4.45284 -1.20499 0
M  V30 338 H 29.697 -4.20498 -1.06601 0
M  V30 339 H 30.368 -4.89804 -2.5455 0
M  V30 340 H 32.844 -3.00086 -2.88249 0
M  V30 341 H 31.72 -3.63796 -4.11028 0
M  V30 342 H 31.981 -1.90511 -3.98946 0
M  V30 343 N 31.0401 0.771051 -1.3745 0
M  V30 344 C 32.4561 1.07171 -1.18265 0
M  V30 345 C 32.6561 2.01491 -0.019287 0
M  V30 346 O 31.7121 2.44244 0.640408 0
M  V30 347 C 33.0251 1.66854 -2.50161 0
M  V30 348 C 34.5731 1.79109 -2.56689 0
M  V30 349 C 35.0481 2.42205 -3.88717 0
M  V30 350 N 36.5391 2.49655 -3.90162 0
M  V30 351 C 37.2741 2.9933 -4.8907 0
M  V30 352 N 36.7701 3.49172 -5.98374 0
M  V30 353 N 38.5631 2.9821 -4.76474 0
M  V30 354 H 30.7141 0.144796 -2.11906 0
M  V30 355 H 32.9771 0.126863 -0.939473 0
M  V30 356 H 32.6831 1.05017 -3.35655 0
M  V30 357 H 32.5571 2.6614 -2.673 0
M  V30 358 H 34.9441 2.40077 -1.71601 0
M  V30 359 H 35.0251 0.785757 -2.43433 0
M  V30 360 H 34.6691 1.81875 -4.74219 0
M  V30 361 H 34.5991 3.43345 -3.99276 0
M  V30 362 H 37.0901 2.14383 -3.11205 0
M  V30 363 H 37.4031 3.8548 -6.69795 0
M  V30 364 H 35.7481 3.47275 -6.02018 0
M  V30 365 H 38.9391 2.58572 -3.90203 0
M  V30 366 H 39.1121 3.36613 -5.53711 0
M  V30 367 N 32.5182 1.22032 0.997298 0
M  V30 368 C 33.4482 1.01065 2.10495 0
M  V30 369 C 34.4292 -0.0669542 1.69968 0
M  V30 370 O 35.6142 0.0943987 1.9397 0
M  V30 371 C 32.7442 0.582874 3.42374 0
M  V30 372 C 31.6982 1.60592 3.96729 0
M  V30 373 C 31.0242 1.03412 5.24605 0
M  V30 374 C 32.3242 2.99478 4.27914 0
M  V30 375 H 34.0182 1.93708 2.28292 0
M  V30 376 H 31.5642 0.932761 1.09707 0
M  V30 377 H 33.5172 0.423332 4.19268 0
M  V30 378 H 32.2412 -0.379213 3.24391 0
M  V30 379 H 30.9002 1.75316 3.21963 0
M  V30 380 H 30.5482 0.063518 5.0296 0
M  V30 381 H 30.2482 1.71754 5.61938 0
M  V30 382 H 31.7722 0.886066 6.04137 0
M  V30 383 H 33.1862 2.88153 4.95622 0
M  V30 384 H 31.5832 3.64903 4.76409 0
M  V30 385 H 32.6532 3.49742 3.3587 0
M  V30 386 N 33.9963 -1.19345 1.0293 0
M  V30 387 C 35.2423 -1.89318 0.727083 0
M  V30 388 C 35.5753 -1.79446 -0.742483 0
M  V30 389 O 34.8503 -1.1871 -1.54072 0
M  V30 390 C 35.1333 -3.40238 1.17942 0
M  V30 391 C 34.9863 -3.58979 2.71024 0
M  V30 392 C 36.3053 -4.33479 0.760548 0
M  V30 393 H 33.4243 -0.687475 0.265606 0
M  V30 394 H 36.0663 -1.40477 1.2793 0
M  V30 395 H 34.2163 -3.81964 0.709608 0
M  V30 396 H 35.8883 -3.26421 3.25955 0
M  V30 397 H 34.1313 -3.02018 3.11396 0
M  V30 398 H 34.8023 -4.64823 2.9773 0
M  V30 399 H 37.2783 -3.99469 1.16464 0
M  V30 400 H 36.1543 -5.37664 1.10493 0
M  V30 401 H 36.4153 -4.40813 -0.337063 0
M  V30 402 N 35.4744 -0.807222 -1.35358 0
M  V30 403 C 36.7214 -0.387888 -1.9875 0
M  V30 404 C 37.0494 1.04509 -1.64037 0
M  V30 405 O 36.3044 1.73986 -0.895946 0
M  V30 406 C 36.6034 -0.519036 -3.53611 0
M  V30 407 C 36.2694 -1.91542 -4.08194 0
M  V30 408 C 34.9314 -2.29745 -4.22813 0
M  V30 409 C 37.2834 -2.82896 -4.37744 0
M  V30 410 C 34.6114 -3.58668 -4.643 0
M  V30 411 C 36.9634 -4.11265 -4.8067 0
M  V30 412 C 35.6274 -4.49466 -4.93494 0
M  V30 413 H 34.8974 -0.141938 -0.727279 0
M  V30 414 H 37.5444 -1.02814 -1.6156 0
M  V30 415 H 35.8494 0.204658 -3.91265 0
M  V30 416 H 37.5464 -0.175345 -4.00616 0
M  V30 417 H 34.1364 -1.60862 -3.97268 0
M  V30 418 H 38.3204 -2.54629 -4.26002 0
M  V30 419 H 33.5764 -3.88113 -4.72418 0
M  V30 420 H 37.7504 -4.82153 -5.02496 0
M  V30 421 H 35.3774 -5.49418 -5.25399 0
M  V30 422 N 36.9525 1.47285 -0.560781 0
M  V30 423 C 37.8825 2.32857 0.173105 0
M  V30 424 C 38.8635 1.44009 0.905281 0
M  V30 425 O 40.0485 1.7286 0.885046 0
M  V30 426 C 37.1785 3.25861 1.20133 0
M  V30 427 C 36.1325 4.23978 0.585388 0
M  V30 428 C 35.4585 5.06332 1.7185 0
M  V30 429 C 36.7585 5.20242 -0.463178 0
M  V30 430 H 38.4525 2.94466 -0.541307 0
M  V30 431 H 35.9985 1.41601 -0.261764 0
M  V30 432 H 37.9515 3.84569 1.72293 0
M  V30 433 H 36.6755 2.62315 1.94573 0
M  V30 434 H 35.3345 3.66501 0.085054 0
M  V30 435 H 34.9825 4.39186 2.45203 0
M  V30 436 H 34.6825 5.72762 1.31213 0
M  V30 437 H 36.2065 5.67899 2.24329 0
M  V30 438 H 37.6205 5.73293 -0.027502 0
M  V30 439 H 36.0175 5.94896 -0.788627 0
M  V30 440 H 37.0875 4.65504 -1.35773 0
M  V30 441 N 38.4306 0.297415 1.54768 0
M  V30 442 C 39.3606 -0.573494 2.26348 0
M  V30 443 C 40.3416 -1.14085 1.26169 0
M  V30 444 O 41.5266 -1.17086 1.54934 0
M  V30 445 C 38.6566 -1.74716 3.00153 0
M  V30 446 C 37.6106 -1.31032 4.07449 0
M  V30 447 C 36.9366 -2.56887 4.68949 0
M  V30 448 C 38.2366 -0.444183 5.20408 0
M  V30 449 H 39.9306 0.0235131 2.99391 0
M  V30 450 H 37.4766 0.0127488 1.43994 0
M  V30 451 H 39.4296 -2.3625 3.48947 0
M  V30 452 H 38.1536 -2.37035 2.24682 0
M  V30 453 H 36.8126 -0.718066 3.59499 0
M  V30 454 H 36.4606 -3.17512 3.90122 0
M  V30 455 H 36.1606 -2.2836 5.41411 0
M  V30 456 H 37.6846 -3.19229 5.20505 0
M  V30 457 H 39.0986 -0.9651 5.65118 0
M  V30 458 H 37.4956 -0.252846 5.99567 0
M  V30 459 H 38.5656 0.531609 4.81977 0
M  V30 460 N 39.9087 -1.5758 0.0250728 0
M  V30 461 C 40.8387 -2.13007 -0.956575 0
M  V30 462 C 41.8197 -1.0452 -1.342 0
M  V30 463 O 43.0047 -1.32332 -1.42133 0
M  V30 464 C 40.1347 -2.65386 -2.24026 0
M  V30 465 C 39.0887 -3.78623 -1.99571 0
M  V30 466 C 38.4147 -4.17414 -3.3417 0
M  V30 467 C 39.7147 -5.04867 -1.33814 0
M  V30 468 H 41.4087 -2.9528 -0.494991 0
M  V30 469 H 38.9547 -1.42042 -0.236651 0
M  V30 470 H 40.9077 -3.02794 -2.93076 0
M  V30 471 H 39.6317 -1.80268 -2.72343 0
M  V30 472 H 38.2907 -3.41646 -1.32941 0
M  V30 473 H 37.9387 -3.29284 -3.80238 0
M  V30 474 H 37.6387 -4.93719 -3.18615 0
M  V30 475 H 39.1627 -4.57402 -4.04495 0
M  V30 476 H 40.5767 -5.39888 -1.92857 0
M  V30 477 H 38.9737 -5.86144 -1.28669 0
M  V30 478 H 40.0437 -4.83904 -0.310561 0
M  V30 479 N 41.3868 0.248026 -1.55636 0
M  V30 480 C 42.6148 0.993808 -1.81469 0
M  V30 481 C 43.0298 1.78991 -0.60064 0
M  V30 482 O 42.3868 1.77345 0.430682 0
M  V30 483 C 42.4378 1.93258 -3.05506 0
M  V30 484 O 42.1588 1.16869 -4.22224 0
M  V30 485 C 43.6598 2.79444 -3.4413 0
M  V30 486 H 40.8798 0.292486 -0.603898 0
M  V30 487 H 43.4238 0.271253 -2.02693 0
M  V30 488 H 41.5788 2.60943 -2.86335 0
M  V30 489 H 41.9928 1.80359 -4.92515 0
M  V30 490 H 43.4668 3.41066 -4.34026 0
M  V30 491 H 43.9438 3.50499 -2.64665 0
M  V30 492 H 44.5498 2.17214 -3.65648 0
M  V30 493 N 42.8649 1.48995 0.513639 0
M  V30 494 C 43.7949 1.67636 1.62544 0
M  V30 495 C 44.7759 0.525087 1.61793 0
M  V30 496 O 45.9609 0.759502 1.78732 0
M  V30 497 C 43.0909 1.73114 3.01079 0
M  V30 498 C 42.0449 2.87905 3.16693 0
M  V30 499 C 41.3709 2.78486 4.56453 0
M  V30 500 C 42.6709 4.29005 2.97913 0
M  V30 501 H 44.3649 2.60716 1.47198 0
M  V30 502 H 41.9109 1.25465 0.706714 0
M  V30 503 H 43.8639 1.84742 3.78746 0
M  V30 504 H 42.5879 0.766241 3.17484 0
M  V30 505 H 41.2469 2.75859 2.41448 0
M  V30 506 H 40.8949 1.7993 4.69717 0
M  V30 507 H 40.5949 3.55523 4.67843 0
M  V30 508 H 42.1189 2.92104 5.36197 0
M  V30 509 H 43.5329 4.41798 3.65359 0
M  V30 510 H 41.9299 5.07166 3.20785 0
M  V30 511 H 42.9999 4.44329 1.94165 0
M  V30 512 N 44.343 -0.763751 1.37857 0
M  V30 513 C 45.293 -1.86765 1.30777 0
M  V30 514 C 46.277 -1.59726 0.194015 0
M  V30 515 O 47.469 -1.7172 0.42911 0
M  V30 516 C 44.598 -3.24343 1.12502 0
M  V30 517 C 43.684 -3.57307 2.28456 0
M  V30 518 N 44.075 -3.61398 3.53871 0
M  V30 519 C 42.373 -3.87517 2.20786 0
M  V30 520 C 43.074 -3.91339 4.30382 0
M  V30 521 N 42.05 -4.07649 3.59615 0
M  V30 522 H 45.852 -1.88191 2.25746 0
M  V30 523 H 43.366 -0.9606 1.30944 0
M  V30 524 H 45.363 -4.03327 1.05514 0
M  V30 525 H 44.023 -3.24175 0.184574 0
M  V30 526 H 45.034 -3.43407 3.87675 0
M  V30 527 H 41.711 -3.95125 1.34844 0
M  V30 528 H 43.101 -4.01213 5.3896 0
M  V30 529 N 45.8211 -1.22559 -0.990812 0
M  V30 530 C 46.7511 -1.0218 -2.09956 0
M  V30 531 C 47.7321 0.0579394 -1.70001 0
M  V30 532 O 48.9171 -0.104684 -1.93918 0
M  V30 533 C 46.0471 -0.601023 -3.4206 0
M  V30 534 C 45.0011 -1.62694 -3.95872 0
M  V30 535 C 44.3271 -1.06193 -5.24049 0
M  V30 536 C 45.6271 -3.01743 -4.2632 0
M  V30 537 H 47.3211 -1.94916 -2.27262 0
M  V30 538 H 44.8671 -0.938566 -1.09211 0
M  V30 539 H 46.8201 -0.445561 -4.19038 0
M  V30 540 H 45.5441 0.362005 -3.24588 0
M  V30 541 H 44.2031 -1.77021 -3.21028 0
M  V30 542 H 43.8511 -0.0901903 -5.02919 0
M  V30 543 H 43.5511 -1.74732 -5.61019 0
M  V30 544 H 45.0751 -0.918092 -6.03658 0
M  V30 545 H 46.4891 -2.90777 -4.94087 0
M  V30 546 H 44.8861 -3.67425 -4.74467 0
M  V30 547 H 45.9561 -3.51518 -3.34011 0
M  V30 548 N 47.2992 1.18797 -1.03562 0
M  V30 549 C 48.5472 1.88278 -0.734569 0
M  V30 550 C 48.8682 1.8043 0.739586 0
M  V30 551 O 48.1382 1.21925 1.53333 0
M  V30 552 H 46.7182 0.696991 -0.268725 0
M  V30 553 H 49.3802 1.44192 -1.31129 0
M  V30 554 H 48.4762 2.94443 -1.03489 0
M  V30 555 N 48.7773 0.814389 1.34928 0
M  V30 556 C 49.7253 0.218424 2.31572 0
M  V30 557 C 50.7193 -0.636128 1.57002 0
M  V30 558 O 51.9253 -0.52842 1.72069 0
M  V30 559 H 48.3003 0.0518799 0.750208 0
M  V30 560 H 50.2713 1.04852 2.79372 0
M  V30 561 C 49.0203 -0.61207 3.4227 0
M  V30 562 H 48.3433 0.0361578 3.99784 0
M  V30 563 H 49.7833 -0.995317 4.12152 0
M  V30 564 C 48.2423 -1.78087 2.85984 0
M  V30 565 O 48.7723 -2.8787 2.80168 0
M  V30 566 N 46.9783 -1.59488 2.42924 0
M  V30 567 H 46.5253 -0.701874 2.47854 0
M  V30 568 H 46.4833 -2.37846 2.05613 0
M  V30 569 N 50.2554 -1.46986 0.568584 0
M  V30 570 C 51.4954 -2.04336 0.0512999 0
M  V30 571 C 51.8594 -1.43214 -1.27881 0
M  V30 572 O 53.0604 -1.91679 -1.88448 0
M  V30 573 C 51.3314 -3.57389 -0.0282328 0
M  V30 574 S 52.8904 -4.36056 -0.489991 0
M  V30 575 H 49.7084 -0.71034 0.0306349 0
M  V30 576 H 52.3104 -1.80212 0.757891 0
M  V30 577 H 51.0144 -3.99395 0.944011 0
M  V30 578 H 50.5454 -3.86028 -0.75803 0
M  V30 579 H 52.5604 -4.6441 -1.74752 0
M  V30 580 N 51.7335 -0.305618 -1.54608 0
M  V30 581 C 52.9795 0.302746 -2.00528 0
M  V30 582 C 53.3125 1.53184 -1.19367 0
M  V30 583 O 52.5875 1.92598 -0.271321 0
M  V30 584 C 52.8705 0.654756 -3.54097 0
M  V30 585 C 52.7235 -0.583793 -4.45995 0
M  V30 586 C 54.0425 1.47947 -4.14487 0
M  V30 587 H 51.1615 0.108564 -0.72896 0
M  V30 588 H 53.8035 -0.418634 -1.85331 0
M  V30 589 H 51.9535 1.26935 -3.67178 0
M  V30 590 H 53.6255 -1.22224 -4.44814 0
M  V30 591 H 51.8685 -1.21615 -4.16404 0
M  V30 592 H 52.5395 -0.293287 -5.5122 0
M  V30 593 H 55.0155 0.96013 -4.04871 0
M  V30 594 H 53.8915 1.69454 -5.22088 0
M  V30 595 H 54.1525 2.47011 -3.66658 0
M  V30 596 N 53.2116 1.57565 -0.0334293 0
M  V30 597 C 54.4886 1.83282 0.683163 0
M  V30 598 C 54.8686 0.91823 1.90084 0
M  V30 599 O 54.2166 -0.025113 2.28486 0
M  V30 600 C 54.4266 3.32599 1.0573 0
M  V30 601 C 55.7746 3.99179 1.44711 0
M  V30 602 O 56.7986 3.3712 1.15015 0
M  V30 603 O 55.6576 5.08565 2.0006 0
M  V30 604 H 52.7516 0.755869 0.335546 0
M  V30 605 H 55.2976 1.69589 -0.0614402 0
M  V30 606 H 54.0696 3.90834 0.190828 0
M  V30 607 H 53.6926 3.51415 1.85993 0
M  V30 608 N 54.6897 -0.239769 1.55765 0
M  V30 609 C 55.6367 -1.29696 1.90913 0
M  V30 610 C 56.6067 -1.47478 0.764164 0
M  V30 611 O 57.7917 -1.61345 1.01845 0
M  V30 612 C 54.9317 -2.64598 2.21544 0
M  V30 613 C 54.0447 -2.54765 3.48882 0
M  V30 614 C 53.1797 -3.82069 3.69049 0
M  V30 615 C 52.2187 -3.66883 4.89963 0
M  V30 616 N 51.3557 -4.86094 5.06614 0
M  V30 617 H 56.1957 -0.990224 2.81067 0
M  V30 618 H 53.7327 -0.477684 1.39128 0
M  V30 619 H 55.6907 -3.43132 2.3731 0
M  V30 620 H 54.3207 -2.93405 1.34585 0
M  V30 621 H 53.3727 -1.67763 3.41409 0
M  V30 622 H 54.6847 -2.39457 4.37563 0
M  V30 623 H 53.8387 -4.69046 3.84812 0
M  V30 624 H 52.5777 -4.00282 2.78614 0
M  V30 625 H 51.5827 -2.78289 4.74168 0
M  V30 626 H 52.8077 -3.50157 5.81865 0
M  V30 627 H 50.7537 -5.04655 4.19117 0
M  V30 628 H 50.6707 -4.73443 5.89396 0
M  V30 629 H 51.9387 -5.74549 5.26795 0
M  V30 630 N 56.1678 -1.49265 -0.50573 0
M  V30 631 C 57.1308 -1.65075 -1.59006 0
M  V30 632 C 58.1308 -0.522768 -1.52065 0
M  V30 633 O 59.3208 -0.789117 -1.55302 0
M  V30 634 C 56.4528 -1.64369 -2.98656 0
M  V30 635 H 57.6458 -2.61784 -1.46319 0
M  V30 636 H 55.1988 -1.38226 -0.729616 0
M  V30 637 H 55.9338 -0.692272 -3.16825 0
M  V30 638 H 55.7188 -2.46282 -3.05103 0
M  V30 639 H 57.2088 -1.78674 -3.77446 0
M  V30 640 N 57.6459 0.756429 -1.3826 0
M  V30 641 C 58.9229 1.50584 -1.24835 0
M  V30 642 C 59.3029 2.10556 0.151485 0
M  V30 643 O 58.6509 1.96825 1.1607 0
M  V30 644 C 58.8609 2.57448 -2.3563 0
M  V30 645 C 60.2089 3.24429 -2.73917 0
M  V30 646 O 61.2329 2.67751 -2.34921 0
M  V30 647 O 60.0919 4.26937 -3.41156 0
M  V30 648 H 57.1859 0.667664 -0.48801 0
M  V30 649 H 59.7319 0.792083 -1.5008 0
M  V30 650 H 58.5039 2.11362 -3.29305 0
M  V30 651 H 58.1269 3.36408 -2.11933 0
M  V30 652 N 59.124 1.23083 0.984299 0
M  V30 653 C 60.401 0.9689 1.69917 0
M  V30 654 C 60.781 -0.513604 2.04757 0
M  V30 655 O 60.129 -1.48383 1.73767 0
M  V30 656 C 60.339 1.87518 2.94343 0
M  V30 657 C 61.687 2.13636 3.6694 0
M  V30 658 O 62.711 1.85036 3.04368 0
M  V30 659 O 61.57 2.62119 4.79537 0
M  V30 660 H 58.664 0.365095 0.742048 0
M  V30 661 H 61.21 1.34107 1.03987 0
M  V30 662 H 59.982 2.87756 2.65164 0
M  V30 663 H 59.605 1.50514 3.6801 0
M  V30 664 N 60.6021 -1.18246 1.0419 0
M  V30 665 C 61.5121 -2.25574 0.644476 0
M  V30 666 C 62.5281 -1.70845 -0.329826 0
M  V30 667 O 63.7041 -2.00554 -0.184443 0
M  V30 668 C 60.7691 -3.46697 0.014877 0
M  V30 669 C 59.8301 -4.16554 1.03834 0
M  V30 670 C 59.0631 -5.31894 0.438692 0
M  V30 671 O 59.2861 -5.65385 -0.754752 0
M  V30 672 O 58.2201 -5.90459 1.168 0
M  V30 673 H 62.0461 -2.61836 1.53869 0
M  V30 674 H 59.6311 -1.25352 0.812854 0
M  V30 675 H 61.5131 -4.20062 -0.335538 0
M  V30 676 H 60.1881 -3.12255 -0.853138 0
M  V30 677 H 59.0951 -3.45251 1.44057 0
M  V30 678 H 60.4281 -4.54998 1.87716 0
M  V30 679 N 62.0802 -0.821533 -1.34494 0
M  V30 680 C 63.3572 -0.33159 -1.92769 0
M  V30 681 C 63.7372 1.18088 -1.74981 0
M  V30 682 O 63.0852 1.98733 -1.12772 0
M  V30 683 C 63.2952 -0.759398 -3.40638 0
M  V30 684 C 64.6432 -0.757433 -4.1779 0
M  V30 685 O 65.6672 -0.70189 -3.49216 0
M  V30 686 O 64.5262 -0.829361 -5.4017 0
M  V30 687 H 61.6202 -0.0902502 -0.822061 0
M  V30 688 H 64.1662 -0.906231 -1.43477 0
M  V30 689 H 62.9382 -1.8012 -3.47379 0
M  V30 690 H 62.5612 -0.160378 -3.97276 0
M  V30 691 N 63.5583 1.46682 -0.576371 0
M  V30 692 C 64.8353 1.95599 0.00703437 0
M  V30 693 C 65.2153 1.51904 1.46589 0
M  V30 694 O 64.5633 0.766755 2.15251 0
M  V30 695 C 64.7733 3.4864 -0.158404 0
M  V30 696 C 66.1213 4.24594 -0.0229439 0
M  V30 697 O 67.1453 3.56094 -0.0869173 0
M  V30 698 O 66.0043 5.46373 0.118015 0
M  V30 699 H 63.0983 0.825275 0.053384 0
M  V30 700 H 65.6443 1.56996 -0.644244 0
M  V30 701 H 64.4163 3.7331 -1.17282 0
M  V30 702 H 64.0393 3.94057 0.5296 0
M  V30 703 N 65.0364 0.313813 1.54444 0
M  V30 704 C 65.9464 -0.565714 2.27677 0
M  V30 705 C 66.9624 -1.13754 1.31666 0
M  V30 706 O 68.1384 -1.15959 1.64668 0
M  V30 707 C 65.2034 -1.71528 3.01296 0
M  V30 708 C 64.2644 -1.17624 4.12872 0
M  V30 709 C 63.4974 -2.27102 4.8297 0
M  V30 710 O 63.7204 -3.47256 4.52514 0
M  V30 711 O 62.6544 -1.9307 5.70094 0
M  V30 712 H 66.4804 0.0287296 3.03686 0
M  V30 713 H 64.0654 0.0798312 1.49187 0
M  V30 714 H 65.9474 -2.38476 3.4743 0
M  V30 715 H 64.6224 -2.29608 2.2817 0
M  V30 716 H 63.5294 -0.472124 3.71109 0
M  V30 717 H 64.8624 -0.640695 4.88012 0
M  V30 718 N 66.5145 -1.57545 0.0417849 0
M  V30 719 C 67.7915 -1.83642 -0.673433 0
M  V30 720 C 68.1715 -0.928298 -1.89594 0
M  V30 721 O 67.5195 0.0129955 -2.28496 0
M  V30 722 C 67.7295 -3.33155 -1.03964 0
M  V30 723 C 69.0775 -3.99941 -1.42592 0
M  V30 724 O 70.1015 -3.37725 -1.13226 0
M  V30 725 O 68.9605 -5.09619 -1.9736 0
M  V30 726 H 66.0545 -0.757638 -0.331533 0
M  V30 727 H 68.6005 -1.69554 0.070433 0
M  V30 728 H 67.3725 -3.9093 -0.170098 0
M  V30 729 H 66.9955 -3.52396 -1.84126 0
M  V30 730 N 67.9926 0.231505 -1.5589 0
M  V30 731 C 68.9226 1.29022 -1.94617 0
M  V30 732 C 69.9036 1.4941 -0.813067 0
M  V30 733 O 71.0886 1.6176 -1.07459 0
M  V30 734 C 68.2186 2.64199 -2.25424 0
M  V30 735 C 67.1726 2.58484 -3.41131 0
M  V30 736 C 66.4986 3.97599 -3.57518 0
M  V30 737 C 67.7986 2.1413 -4.76388 0
M  V30 738 H 69.4926 0.968563 -2.83301 0
M  V30 739 H 67.0386 0.464479 -1.36303 0
M  V30 740 H 68.9916 3.38413 -2.51107 0
M  V30 741 H 67.7156 2.98032 -1.33583 0
M  V30 742 H 66.3746 1.86727 -3.15481 0
M  V30 743 H 66.0226 4.28723 -2.6307 0
M  V30 744 H 65.7226 3.94659 -4.35337 0
M  V30 745 H 67.2466 4.7349 -3.85538 0
M  V30 746 H 68.6606 2.78083 -5.01341 0
M  V30 747 H 67.0576 2.2227 -5.57419 0
M  V30 748 H 68.1276 1.09331 -4.72414 0
M  V30 749 N 69.4707 1.49531 0.497807 0
M  V30 750 C 70.6987 1.62893 1.27567 0
M  V30 751 C 71.1137 0.301585 1.86376 0
M  V30 752 O 70.4707 -0.713335 1.67982 0
M  V30 753 C 70.5217 2.70013 2.40364 0
M  V30 754 O 70.2427 3.976 1.83972 0
M  V30 755 C 71.7437 2.94109 3.31685 0
M  V30 756 H 68.9637 0.548298 0.386794 0
M  V30 757 H 71.5077 1.95584 0.597245 0
M  V30 758 H 69.6627 2.40092 3.04031 0
M  V30 759 H 70.0767 4.56631 2.58047 0
M  V30 760 H 71.5507 3.72788 4.07104 0
M  V30 761 H 72.0277 2.04147 3.88871 0
M  V30 762 H 72.6337 3.2546 2.73781 0
M  V30 763 N 70.9488 -0.749086 1.3866 0
M  V30 764 C 72.1948 -1.51056 1.35314 0
M  V30 765 C 72.5278 -1.94121 -0.0553751 0
M  V30 766 O 71.8028 -1.65763 -1.01749 0
M  V30 767 C 72.0858 -2.76003 2.31288 0
M  V30 768 C 71.9388 -2.39047 3.8102 0
M  V30 769 C 73.2578 -3.78046 2.2532 0
M  V30 770 H 70.3768 -0.547972 0.492844 0
M  V30 771 H 73.0188 -0.857628 1.69543 0
M  V30 772 H 71.1688 -3.31716 2.02229 0
M  V30 773 H 72.8408 -1.89074 4.20771 0
M  V30 774 H 71.0838 -1.71449 3.98482 0
M  V30 775 H 71.7548 -3.28462 4.4364 0
M  V30 776 H 74.2308 -3.31884 2.50983 0
M  V30 777 H 73.1068 -4.63159 2.94576 0
M  V30 778 H 73.3678 -4.23957 1.25352 0
M  V30 779 N 72.4269 -1.23603 -0.977757 0
M  V30 780 C 73.3749 -1.01704 -2.09187 0
M  V30 781 C 74.3689 0.0448214 -1.69341 0
M  V30 782 O 75.5749 -0.108902 -1.7967 0
M  V30 783 H 71.9499 -0.311803 -0.684312 0
M  V30 784 H 73.9209 -1.96207 -2.24823 0
M  V30 785 C 72.6699 -0.627746 -3.41986 0
M  V30 786 H 71.9929 -1.43656 -3.73099 0
M  V30 787 H 73.4329 -0.514053 -4.20872 0
M  V30 788 C 71.8919 0.664238 -3.30287 0
M  V30 789 O 72.4219 1.71268 -3.6336 0
M  V30 790 N 70.6279 0.641156 -2.83439 0
M  V30 791 H 70.1749 -0.212376 -2.56723 0
M  V30 792 H 70.1329 1.50583 -2.75993 0
M  V30 793 N 73.905 1.17692 -1.04816 0
M  V30 794 C 74.852 2.21581 -0.645797 0
M  V30 795 C 75.822 1.62367 0.350159 0
M  V30 796 O 77.007 1.89254 0.242433 0
M  V30 797 C 74.147 3.45092 -0.0227568 0
M  V30 798 C 73.26 4.18613 -1.06709 0
M  V30 799 C 72.395 5.29602 -0.411767 0
M  V30 800 C 71.434 5.94904 -1.44067 0
M  V30 801 N 70.571 6.97414 -0.809781 0
M  V30 802 H 75.411 2.55353 -1.5362 0
M  V30 803 H 72.948 1.25438 -0.768364 0
M  V30 804 H 74.906 4.15679 0.35588 0
M  V30 805 H 73.536 3.11917 0.831122 0
M  V30 806 H 72.588 3.46779 -1.5636 0
M  V30 807 H 73.9 4.63293 -1.84827 0
M  V30 808 H 73.054 6.06696 0.0206623 0
M  V30 809 H 71.793 4.86045 0.401438 0
M  V30 810 H 70.798 5.16544 -1.88316 0
M  V30 811 H 72.023 6.40542 -2.25571 0
M  V30 812 H 69.969 6.55998 -0.0170186 0
M  V30 813 H 69.886 7.40386 -1.52856 0
M  V30 814 H 71.154 7.78463 -0.401999 0
M  V30 815 N 75.3831 0.828654 1.34056 0
M  V30 816 C 76.6111 0.43262 2.02326 0
M  V30 817 C 77.0261 -0.963147 1.62385 0
M  V30 818 O 76.3831 -1.62425 0.832121 0
M  V30 819 C 76.4341 0.53182 3.57567 0
M  V30 820 O 76.1551 1.87258 3.96063 0
M  V30 821 C 77.6561 0.131422 4.43105 0
M  V30 822 H 74.8761 0.172923 0.648335 0
M  V30 823 H 77.4201 1.1184 1.71208 0
M  V30 824 H 75.5751 -0.105938 3.87255 0
M  V30 825 H 75.9891 1.85087 4.90758 0
M  V30 826 H 77.4631 0.251904 5.51425 0
M  V30 827 H 77.9401 -0.925645 4.29335 0
M  V30 828 H 78.5461 0.743207 4.18756 0
M  V30 829 N 76.8612 -1.46375 0.584142 0
M  V30 830 C 78.1072 -2.03248 0.0787103 0
M  V30 831 C 78.4622 -1.44737 -1.26763 0
M  V30 832 O 77.7552 -0.603625 -1.81843 0
M  V30 833 C 77.9492 -3.57373 -0.0439342 0
M  V30 834 C 77.7782 -4.30831 1.28897 0
M  V30 835 C 76.5482 -4.69683 1.8635 0
M  V30 836 C 78.7462 -4.64278 2.21248 0
M  V30 837 N 76.7282 -5.27898 3.13365 0
M  V30 838 C 78.0992 -5.23078 3.32851 0
M  V30 839 C 80.1542 -4.46209 2.20911 0
M  V30 840 C 78.8572 -5.65715 4.44251 0
M  V30 841 C 80.8832 -4.89864 3.31341 0
M  V30 842 C 80.2452 -5.48736 4.41665 0
M  V30 843 H 76.3442 -0.778714 0.0716144 0
M  V30 844 H 78.9282 -1.78509 0.777355 0
M  V30 845 H 77.0992 -3.81823 -0.711749 0
M  V30 846 H 78.8312 -4.00892 -0.553881 0
M  V30 847 H 75.5862 -4.52488 1.39826 0
M  V30 848 H 76.0102 -5.61525 3.78178 0
M  V30 849 H 80.6522 -4.00027 1.36888 0
M  V30 850 H 78.3702 -6.10875 5.29015 0
M  V30 851 H 81.9562 -4.77634 3.322 0
M  V30 852 H 80.8362 -5.81898 5.25704 0
M  V30 853 N 78.3393 -0.321999 -1.54275 0
M  V30 854 C 79.5853 0.281461 -2.00837 0
M  V30 855 C 79.9183 1.51909 -1.20985 0
M  V30 856 O 79.1933 1.923 -0.291733 0
M  V30 857 C 79.4763 0.617162 -3.54772 0
M  V30 858 C 79.3293 -0.631064 -4.45351 0
M  V30 859 C 80.6483 1.43542 -4.16033 0
M  V30 860 H 77.7673 0.100826 -0.730071 0
M  V30 861 H 80.4093 -0.438268 -1.84876 0
M  V30 862 H 78.5593 1.23034 -3.68504 0
M  V30 863 H 80.2313 -1.26934 -4.43492 0
M  V30 864 H 78.4743 -1.26025 -4.15091 0
M  V30 865 H 79.1453 -0.351735 -5.50878 0
M  V30 866 H 81.6213 0.917134 -4.05867 0
M  V30 867 H 80.4973 1.63907 -5.23856 0
M  V30 868 H 80.7583 2.43108 -3.69257 0
M  V30 869 N 79.8174 1.5752 -0.0501392 0
M  V30 870 C 80.7474 2.14502 0.922566 0
M  V30 871 C 81.7284 1.06642 1.3252 0
M  V30 872 O 82.9134 1.34577 1.4001 0
M  V30 873 C 80.0434 2.68916 2.19776 0
M  V30 874 C 78.9974 3.8175 1.93523 0
M  V30 875 C 78.3234 4.22677 3.27487 0
M  V30 876 C 79.6234 5.06932 1.25765 0
M  V30 877 H 81.3174 2.9603 0.447952 0
M  V30 878 H 78.8634 1.42401 0.214024 0
M  V30 879 H 80.8164 3.07419 2.88222 0
M  V30 880 H 79.5404 1.84578 2.69441 0
M  V30 881 H 78.1994 3.43718 1.27489 0
M  V30 882 H 77.8474 3.35291 3.74952 0
M  V30 883 H 77.5474 4.98725 3.1072 0
M  V30 884 H 79.0714 4.63779 3.97166 0
M  V30 885 H 80.4854 5.42888 1.84244 0
M  V30 886 H 78.8824 5.88116 1.19328 0
M  V30 887 H 79.9524 4.84337 0.233536 0
M  V30 888 N 81.2955 -0.223234 1.56011 0
M  V30 889 C 82.2585 -1.26014 1.9145 0
M  V30 890 C 83.2585 -1.3989 0.792937 0
M  V30 891 O 84.4485 -1.38184 1.0607 0
M  V30 892 C 81.5805 -2.63422 2.16383 0
M  V30 893 H 82.7735 -0.95796 2.84189 0
M  V30 894 H 80.3265 -0.463576 1.49267 0
M  V30 895 H 81.0615 -2.98741 1.2619 0
M  V30 896 H 80.8465 -2.54728 2.98088 0
M  V30 897 H 82.3365 -3.38249 2.44903 0
M  V30 898 N 82.7736 -1.49793 -0.48987 0
M  V30 899 C 84.1846 -1.52914 -1.07118 0
M  V30 900 C 84.5356 -0.321738 -1.93544 0
M  V30 901 O 83.6606 0.567338 -2.08831 0
M  V30 902 C 84.2556 -2.771 -1.94938 0
M  V30 903 C 82.8146 -2.82963 -2.48212 0
M  V30 904 C 81.9616 -2.46972 -1.26096 0
M  V30 905 H 84.9126 -1.56329 -0.273289 0
M  V30 906 H 84.9336 -2.57892 -2.79771 0
M  V30 907 H 84.4456 -3.64959 -1.32009 0
M  V30 908 H 82.5466 -1.99411 -3.14748 0
M  V30 909 H 82.6596 -3.85406 -2.84603 0
M  V30 910 H 81.0236 -1.98994 -1.58976 0
M  V30 911 H 81.8066 -3.37118 -0.648581 0
M  V30 912 N 84.2517 0.741722 -1.39055 0
M  V30 913 C 85.1987 1.85566 -1.37237 0
M  V30 914 C 86.1687 1.64457 -0.233072 0
M  V30 915 O 87.3537 1.85957 -0.427147 0
M  V30 916 C 84.4937 3.23004 -1.215 0
M  V30 917 C 83.6067 3.55864 -2.44918 0
M  V30 918 C 82.7417 4.82669 -2.21821 0
M  V30 919 C 81.7807 5.08351 -3.40948 0
M  V30 920 N 80.9177 6.26356 -3.17211 0
M  V30 921 H 85.7577 1.86455 -2.32462 0
M  V30 922 H 83.2947 0.911176 -1.15482 0
M  V30 923 H 85.2527 4.02331 -1.10389 0
M  V30 924 H 83.8827 3.21411 -0.29908 0
M  V30 925 H 82.9347 2.7129 -2.66657 0
M  V30 926 H 84.2467 3.70765 -3.33668 0
M  V30 927 H 83.4007 5.69962 -2.07914 0
M  V30 928 H 82.1397 4.69929 -1.30454 0
M  V30 929 H 81.1447 4.19522 -3.55361 0
M  V30 930 H 82.3697 5.22981 -4.33207 0
M  V30 931 H 80.3157 6.14917 -2.28502 0
M  V30 932 H 80.2327 6.41813 -3.99515 0
M  V30 933 H 81.5007 7.16506 -3.06984 0
M  V30 934 N 85.7298 1.2412 0.971189 0
M  V30 935 C 86.9788 1.07284 1.70801 0
M  V30 936 C 87.2918 -0.388902 1.91695 0
M  V30 937 O 88.4978 -0.677379 2.62914 0
M  V30 938 C 86.9538 1.87145 3.07416 0
M  V30 939 C 86.5618 3.37707 2.94377 0
M  V30 940 C 88.3058 1.78828 3.84995 0
M  V30 941 C 86.2128 4.09925 4.26281 0
M  V30 942 H 85.1428 0.397854 0.64049 0
M  V30 943 H 87.7938 1.4817 1.0825 0
M  V30 944 H 86.1758 1.39071 3.70777 0
M  V30 945 H 87.3498 3.93335 2.4005 0
M  V30 946 H 85.6648 3.46938 2.30267 0
M  V30 947 H 88.2618 2.30089 4.82662 0
M  V30 948 H 88.6048 0.75284 4.09436 0
M  V30 949 H 89.1378 2.24563 3.28354 0
M  V30 950 H 85.8768 5.13813 4.07033 0
M  V30 951 H 85.3968 3.59083 4.80437 0
M  V30 952 H 87.0758 4.1673 4.94919 0
M  V30 953 N 87.2079 -1.17134 1.05439 0
M  V30 954 C 88.1579 -2.1919 0.627675 0
M  V30 955 C 89.1419 -1.57328 -0.337147 0
M  V30 956 O 90.3339 -1.76329 -0.153976 0
M  V30 957 C 87.4629 -3.43299 0.00651435 0
M  V30 958 C 86.5489 -4.12255 0.995312 0
M  V30 959 N 86.9399 -4.56997 2.16765 0
M  V30 960 C 85.2379 -4.38316 0.824336 0
M  V30 961 C 85.9389 -5.10239 2.7934 0
M  V30 962 N 84.9149 -5.02595 2.07122 0
M  V30 963 H 88.7169 -2.5149 1.52086 0
M  V30 964 H 86.2309 -1.33491 0.924868 0
M  V30 965 H 88.2279 -4.15693 -0.316965 0
M  V30 966 H 86.8879 -3.1249 -0.882033 0
M  V30 967 H 87.8989 -4.51006 2.54587 0
M  V30 968 H 84.5759 -4.17498 -0.0129526 0
M  V30 969 H 85.9659 -5.54961 3.78772 0
M  V30 970 N 88.686 -0.835752 -1.33615 0
M  V30 971 C 89.596 -0.269088 -2.33052 0
M  V30 972 C 90.612 0.603251 -1.63208 0
M  V30 973 O 91.788 0.508112 -1.94885 0
M  V30 974 C 88.853 0.549091 -3.42324 0
M  V30 975 C 87.914 -0.347156 -4.27894 0
M  V30 976 C 87.147 0.43207 -5.31948 0
M  V30 977 O 87.37 1.66409 -5.45586 0
M  V30 978 O 86.304 -0.192298 -6.01593 0
M  V30 979 H 90.13 -1.09243 -2.83372 0
M  V30 980 H 87.715 -0.598198 -1.36901 0
M  V30 981 H 89.597 1.01414 -4.09015 0
M  V30 982 H 88.272 1.34955 -2.94226 0
M  V30 983 H 87.179 -0.859979 -3.64081 0
M  V30 984 H 88.512 -1.1123 -4.79467 0
M  V30 985 N 90.1641 1.46063 -0.591896 0
M  V30 986 C 91.4121 2.01938 -0.0808391 0
M  V30 987 C 91.7331 1.46475 1.28725 0
M  V30 988 O 91.0031 0.652944 1.84698 0
M  V30 989 H 89.5831 0.746516 -0.0268938 0
M  V30 990 H 92.2451 1.79055 -0.769752 0
M  V30 991 H 91.3411 3.12094 -0.0187578 0
M  V30 992 N 91.6422 0.330177 1.54103 0
M  V30 993 C 92.9192 -0.325007 1.92881 0
M  V30 994 C 93.2992 -1.6934 1.26045 0
M  V30 995 O 92.6472 -2.24855 0.406526 0
M  V30 996 C 92.8572 -0.410634 3.46576 0
M  V30 997 C 94.2052 -0.667801 4.19316 0
M  V30 998 O 95.2292 -0.49329 3.52768 0
M  V30 999 O 94.0882 -1.00491 5.37181 0
M  V30 1000 H 91.1822 -0.186873 0.80561 0
M  V30 1001 H 93.7282 0.380376 1.65382 0
M  V30 1002 H 92.5002 0.550164 3.87413 0
M  V30 1003 H 92.1232 -1.16333 3.802 0
M  V30 1004 N 93.1203 -1.57491 0.0584922 0
M  V30 1005 C 94.3693 -1.92155 -0.613146 0
M  V30 1006 C 94.6823 -0.939334 -1.71569 0
M  V30 1007 O 95.8883 -1.17829 -2.44599 0
M  V30 1008 C 94.3443 -3.41303 -1.14195 0
M  V30 1009 C 93.9523 -4.47944 -0.0711265 0
M  V30 1010 C 95.6963 -3.84988 -1.78841 0
M  V30 1011 C 93.6033 -5.88212 -0.613225 0
M  V30 1012 H 92.5333 -0.717162 -0.232796 0
M  V30 1013 H 95.1843 -1.83049 0.12857 0
M  V30 1014 H 93.5663 -3.45437 -1.93621 0
M  V30 1015 H 94.7403 -4.55408 0.702836 0
M  V30 1016 H 93.0553 -4.13644 0.478313 0
M  V30 1017 H 95.6523 -4.87159 -2.20408 0
M  V30 1018 H 95.9953 -3.21632 -2.64308 0
M  V30 1019 H 96.5283 -3.83401 -1.06059 0
M  V30 1020 H 93.2673 -6.55183 0.203978 0
M  V30 1021 H 92.7873 -5.84294 -1.35501 0
M  V30 1022 H 94.4663 -6.37687 -1.09383 0
M  V30 1023 N 94.5984 0.214957 -1.56127 0
M  V30 1024 C 95.8264 0.955092 -1.83536 0
M  V30 1025 C 96.2414 1.77677 -0.638472 0
M  V30 1026 O 95.5984 1.78219 0.392968 0
M  V30 1027 C 95.6494 1.86734 -3.09536 0
M  V30 1028 O 95.3704 1.07887 -4.24608 0
M  V30 1029 C 96.8714 2.72082 -3.4998 0
M  V30 1030 H 94.0914 0.279611 -0.609966 0
M  V30 1031 H 96.6354 0.228197 -2.03223 0
M  V30 1032 H 94.7904 2.5481 -2.91806 0
M  V30 1033 H 95.2044 1.69872 -4.9623 0
M  V30 1034 H 96.6784 3.31782 -4.41163 0
M  V30 1035 H 97.1554 3.44806 -2.7204 0
M  V30 1036 H 97.7614 2.09409 -3.70173 0
M  V30 1037 N 96.0765 1.50051 0.48192 0
M  V30 1038 C 97.0085 1.64263 1.59844 0
M  V30 1039 C 98.0215 0.52451 1.54119 0
M  V30 1040 O 99.2105 0.797293 1.59704 0
M  V30 1041 C 96.3105 1.60102 2.98698 0
M  V30 1042 C 95.4835 2.87767 3.29407 0
M  V30 1043 C 94.5425 2.76397 4.47762 0
M  V30 1044 O 93.5685 3.50348 4.48603 0
M  V30 1045 N 94.7705 1.89222 5.48794 0
M  V30 1046 H 97.5355 2.60566 1.48073 0
M  V30 1047 H 95.0965 1.47379 0.670149 0
M  V30 1048 H 97.0885 1.50123 3.75826 0
M  V30 1049 H 95.6585 0.715798 3.04294 0
M  V30 1050 H 94.8785 3.11954 2.40994 0
M  V30 1051 H 96.1665 3.72365 3.4673 0
M  V30 1052 H 95.5645 1.28434 5.50928 0
M  V30 1053 H 94.1215 1.85154 6.24949 0
M  V30 1054 N 97.5546 -0.734337 1.39446 0
M  V30 1055 C 98.8036 -1.48937 1.36017 0
M  V30 1056 C 99.1166 -1.95557 -0.0409005 0
M  V30 1057 O 100.323 -2.70779 -0.19778 0
M  V30 1058 C 98.7786 -2.69125 2.38955 0
M  V30 1059 C 98.3866 -2.29452 3.8478 0
M  V30 1060 C 100.131 -3.46944 2.44603 0
M  V30 1061 C 98.0376 -3.46366 4.79358 0
M  V30 1062 H 96.9676 -0.559296 0.505672 0
M  V30 1063 H 99.6186 -0.800983 1.65095 0
M  V30 1064 H 98.0006 -3.40041 2.02948 0
M  V30 1065 H 99.1746 -1.66077 4.29831 0
M  V30 1066 H 97.4896 -1.64723 3.82433 0
M  V30 1067 H 100.087 -4.33907 3.12456 0
M  V30 1068 H 100.43 -3.89454 1.47076 0
M  V30 1069 H 100.963 -2.83056 2.79507 0
M  V30 1070 H 97.7016 -3.08905 5.78151 0
M  V30 1071 H 97.2216 -4.08719 4.38986 0
M  V30 1072 H 98.9006 -4.12691 4.98292 0
M  V30 1073 N 99.0327 -1.24633 -0.964593 0
M  V30 1074 C 99.9627 -1.06611 -2.07741 0
M  V30 1075 C 100.944 0.0218666 -1.70086 0
M  V30 1076 O 102.129 -0.145793 -1.93652 0
M  V30 1077 C 99.2587 -0.673444 -3.40708 0
M  V30 1078 C 98.2127 -1.71054 -3.92332 0
M  V30 1079 C 97.5387 -1.17285 -5.21678 0
M  V30 1080 C 98.8387 -3.10718 -4.19824 0
M  V30 1081 H 100.533 -1.99693 -2.23076 0
M  V30 1082 H 98.0787 -0.96152 -1.07195 0
M  V30 1083 H 100.032 -0.534345 -4.17998 0
M  V30 1084 H 98.7557 0.293073 -3.25282 0
M  V30 1085 H 97.4147 -1.83791 -3.17201 0
M  V30 1086 H 97.0627 -0.196847 -5.02615 0
M  V30 1087 H 96.7627 -1.86592 -5.57187 0
M  V30 1088 H 98.2867 -1.04593 -6.01575 0
M  V30 1089 H 99.7007 -3.01192 -4.87808 0
M  V30 1090 H 98.0977 -3.77406 -4.66567 0
M  V30 1091 H 99.1677 -3.58524 -3.26479 0
M  V30 1092 N 100.511 1.16574 -1.06058 0
M  V30 1093 C 101.459 2.22941 -0.663343 0
M  V30 1094 C 102.453 1.66358 0.319593 0
M  V30 1095 O 103.659 1.7905 0.184713 0
M  V30 1096 H 100.034 0.725907 -0.196376 0
M  V30 1097 H 102.005 2.53736 -1.57037 0
M  V30 1098 C 100.754 3.47642 -0.0632808 0
M  V30 1099 H 100.077 3.91493 -0.810733 0
M  V30 1100 H 101.517 4.2363 0.177177 0
M  V30 1101 C 99.9758 3.1509 1.19248 0
M  V30 1102 O 100.506 3.30673 2.28075 0
M  V30 1103 N 98.7118 2.6924 1.09353 0
M  V30 1104 H 98.2588 2.5676 0.207912 0
M  V30 1105 H 98.2168 2.47833 1.93458 0
M  V30 1106 N 101.989 0.842826 1.3317 0
M  V30 1107 C 103.214 0.453129 2.02389 0
M  V30 1108 C 103.639 -0.939105 1.6298 0
M  V30 1109 O 102.997 -1.61472 0.8244 0
M  V30 1110 C 103.045 0.586094 3.55805 0
M  V30 1111 O 102.149 -0.386029 4.10589 0
M  V30 1112 H 101.49 0.183664 0.638094 0
M  V30 1113 H 104.02 1.13875 1.69981 0
M  V30 1114 H 104.03 0.469209 4.05293 0
M  V30 1115 H 102.705 1.6014 3.83833 0
M  V30 1116 H 101.282 -0.226371 3.72212 0
M  V30 1117 N 103.467 -1.45747 0.599634 0
M  V30 1118 C 104.397 -2.33235 -0.111306 0
M  V30 1119 C 105.378 -1.46359 -0.866781 0
M  V30 1120 O 106.563 -1.75146 -0.838904 0
M  V30 1121 C 103.693 -3.28932 -1.11451 0
M  V30 1122 C 102.647 -4.25381 -0.472772 0
M  V30 1123 C 101.973 -5.1071 -1.58365 0
M  V30 1124 C 103.273 -5.18831 0.600948 0
M  V30 1125 H 104.967 -2.92927 0.61919 0
M  V30 1126 H 102.513 -1.40857 0.299215 0
M  V30 1127 H 104.466 -3.89002 -1.62036 0
M  V30 1128 H 103.19 -2.67381 -1.8755 0
M  V30 1129 H 101.849 -3.66598 0.0121472 0
M  V30 1130 H 101.497 -4.45533 -2.33473 0
M  V30 1131 H 101.197 -5.7604 -1.15982 0
M  V30 1132 H 102.721 -5.73647 -2.09194 0
M  V30 1133 H 104.135 -5.73019 0.179491 0
M  V30 1134 H 102.532 -5.92595 0.946076 0
M  V30 1135 H 103.602 -4.6174 1.48068 0
M  V30 1136 N 104.945 -0.338344 -1.53925 0
M  V30 1137 C 105.875 0.51328 -2.27789 0
M  V30 1138 C 106.856 1.107 -1.29149 0
M  V30 1139 O 108.041 1.12937 -1.57984 0
M  V30 1140 C 105.171 1.66697 -3.04679 0
M  V30 1141 C 104.125 1.20183 -4.1078 0
M  V30 1142 C 103.451 2.44363 -4.75595 0
M  V30 1143 C 104.751 0.30605 -5.21403 0
M  V30 1144 H 106.445 -0.102883 -2.99223 0
M  V30 1145 H 103.991 -0.0509219 -1.4391 0
M  V30 1146 H 105.944 2.26915 -3.55088 0
M  V30 1147 H 104.668 2.30995 -2.30887 0
M  V30 1148 H 103.327 0.622499 -3.61276 0
M  V30 1149 H 102.975 3.07057 -3.98403 0
M  V30 1150 H 102.675 2.13925 -5.47275 0
M  V30 1151 H 104.199 3.05317 -5.28786 0
M  V30 1152 H 105.613 0.814929 -5.67478 0
M  V30 1153 H 104.01 0.0937929 -6.00027 0
M  V30 1154 H 105.08 -0.65921 -4.80398 0
M  V30 1155 N 106.423 1.57458 -0.0668435 0
M  V30 1156 C 107.355 2.09413 0.931601 0
M  V30 1157 C 108.368 1.02522 1.26464 0
M  V30 1158 O 109.557 1.30049 1.22269 0
M  V30 1159 C 106.657 2.53537 2.24882 0
M  V30 1160 C 105.83 3.83944 2.09537 0
M  V30 1161 C 104.889 4.14214 3.2452 0
M  V30 1162 O 103.915 4.83891 2.9973 0
M  V30 1163 N 105.117 3.67367 4.49469 0
M  V30 1164 H 107.882 2.95699 0.488048 0
M  V30 1165 H 105.443 1.61462 0.119009 0
M  V30 1166 H 107.435 2.70853 3.00701 0
M  V30 1167 H 106.005 1.72415 2.60753 0
M  V30 1168 H 105.225 3.76057 1.18215 0
M  V30 1169 H 106.513 4.69312 1.96529 0
M  V30 1170 H 105.911 3.11068 4.72497 0
M  V30 1171 H 104.468 3.89891 5.2233 0
M  V30 1172 N 107.901 -0.206675 1.56239 0
M  V30 1173 C 109.149 -0.927007 1.79586 0
M  V30 1174 C 109.47 -1.8427 0.637929 0
M  V30 1175 O 108.74 -1.92849 -0.344398 0
M  V30 1176 H 107.32 -0.345292 0.662407 0
M  V30 1177 H 109.982 -0.21496 1.93711 0
M  V30 1178 H 109.078 -1.52501 2.72305 0
M  V30 1179 N 109.379 -1.50304 -0.473955 0
M  V30 1180 C 110.609 -1.64663 -1.24778 0
M  V30 1181 C 111.017 -0.328174 -1.86332 0
M  V30 1182 O 110.36 0.699536 -1.69859 0
M  V30 1183 C 110.422 -2.6778 -2.39863 0
M  V30 1184 C 110.086 -4.11413 -1.98969 0
M  V30 1185 C 111.083 -4.97372 -1.51385 0
M  V30 1186 C 108.768 -4.57312 -2.07777 0
M  V30 1187 C 110.762 -6.27277 -1.13148 0
M  V30 1188 C 108.449 -5.87223 -1.69152 0
M  V30 1189 C 109.447 -6.72031 -1.21915 0
M  V30 1190 O 109.135 -7.99518 -0.838237 0
M  V30 1191 H 108.867 -0.556602 -0.383627 0
M  V30 1192 H 111.421 -1.9726 -0.572491 0
M  V30 1193 H 109.651 -2.30419 -3.10554 0
M  V30 1194 H 111.34 -2.71388 -3.01833 0
M  V30 1195 H 112.106 -4.63128 -1.44004 0
M  V30 1196 H 107.985 -3.91449 -2.43493 0
M  V30 1197 H 111.529 -6.93425 -0.762077 0
M  V30 1198 H 107.426 -6.20989 -1.76191 0
M  V30 1199 H 108.194 -8.12764 -0.967339 0
M  V30 1200 N 110.857 0.726932 -1.39834 0
M  V30 1201 C 112.134 1.47902 -1.28001 0
M  V30 1202 C 112.514 2.1083 0.106789 0
M  V30 1203 O 111.862 1.99242 1.11869 0
M  V30 1204 C 112.072 2.52392 -2.41038 0
M  V30 1205 C 113.42 3.18546 -2.80737 0
M  V30 1206 O 114.444 2.62708 -2.40547 0
M  V30 1207 O 113.303 4.19604 -3.50135 0
M  V30 1208 H 110.397 0.657163 -0.502062 0
M  V30 1209 H 112.943 0.760071 -1.51727 0
M  V30 1210 H 111.715 2.04329 -3.33715 0
M  V30 1211 H 111.338 3.31837 -2.19021 0
M  V30 1212 N 112.336 1.25143 0.95797 0
M  V30 1213 C 113.284 1.05019 2.07542 0
M  V30 1214 C 114.278 -0.0178751 1.69391 0
M  V30 1215 O 115.484 0.137472 1.79474 0
M  V30 1216 H 111.859 0.32265 0.679265 0
M  V30 1217 H 113.83 1.99759 2.21673 0
M  V30 1218 C 112.579 0.682074 3.40944 0
M  V30 1219 H 111.902 1.49573 3.70767 0
M  V30 1220 H 113.342 0.580945 4.20001 0
M  V30 1221 C 111.801 -0.611608 3.31302 0
M  V30 1222 O 112.331 -1.65465 3.66038 0
M  V30 1223 N 110.537 -0.595982 2.84423 0
M  V30 1224 H 110.084 0.253192 2.56353 0
M  V30 1225 H 110.042 -1.46173 2.78354 0
M  V30 1226 N 113.814 -1.1601 1.06675 0
M  V30 1227 C 114.761 -2.20525 0.680967 0
M  V30 1228 C 115.731 -1.62904 -0.324283 0
M  V30 1229 O 116.916 -1.89615 -0.212294 0
M  V30 1230 C 114.056 -3.45013 0.0776551 0
M  V30 1231 C 113.169 -4.16863 1.13355 0
M  V30 1232 C 112.304 -5.2888 0.49597 0
M  V30 1233 C 111.343 -5.92537 1.53513 0
M  V30 1234 N 110.48 -6.96038 0.920631 0
M  V30 1235 H 115.32 -2.52876 1.57663 0
M  V30 1236 H 112.857 -1.24199 0.788223 0
M  V30 1237 H 114.815 -4.16193 -0.289704 0
M  V30 1238 H 113.445 -3.132 -0.781393 0
M  V30 1239 H 112.497 -3.44248 1.61857 0
M  V30 1240 H 113.809 -4.60294 1.92174 0
M  V30 1241 H 112.963 -6.06653 0.0758604 0
M  V30 1242 H 111.702 -4.86622 -0.324062 0
M  V30 1243 H 110.707 -5.13482 1.9651 0
M  V30 1244 H 111.932 -6.36873 2.35733 0
M  V30 1245 H 109.878 -6.55888 0.12138 0
M  V30 1246 H 109.795 -7.3786 1.64616 0
M  V30 1247 H 111.063 -7.77725 0.525795 0
M  V30 1248 N 115.292 -0.849877 -1.32721 0
M  V30 1249 C 116.222 -0.306308 -2.31482 0
M  V30 1250 C 117.203 0.591952 -1.59468 0
M  V30 1251 O 118.388 0.513199 -1.87296 0
M  V30 1252 C 115.518 0.510204 -3.43532 0
M  V30 1253 C 114.472 -0.293209 -4.26994 0
M  V30 1254 C 113.798 0.647743 -5.30762 0
M  V30 1255 C 115.098 -1.51634 -4.99804 0
M  V30 1256 H 116.792 -1.13153 -2.77195 0
M  V30 1257 H 114.338 -0.545553 -1.33266 0
M  V30 1258 H 116.291 0.900856 -4.11658 0
M  V30 1259 H 115.015 1.36874 -2.96535 0
M  V30 1260 H 113.674 -0.665555 -3.60508 0
M  V30 1261 H 113.322 1.50299 -4.8002 0
M  V30 1262 H 113.022 0.11422 -5.87489 0
M  V30 1263 H 114.546 1.03567 -6.01753 0
M  V30 1264 H 115.96 -1.19824 -5.60638 0
M  V30 1265 H 114.357 -1.98745 -5.66234 0
M  V30 1266 H 115.427 -2.28018 -4.27943 0
M  V30 1267 N 116.77 1.45427 -0.607355 0
M  V30 1268 C 118.186 1.57283 -0.270985 0
M  V30 1269 C 118.386 1.59875 1.22647 0
M  V30 1270 O 117.442 1.52893 2.00948 0
M  V30 1271 C 118.755 2.85566 -0.941952 0
M  V30 1272 C 120.303 2.9924 -0.917849 0
M  V30 1273 C 120.778 4.30293 -1.56882 0
M  V30 1274 N 122.269 4.37051 -1.5343 0
M  V30 1275 C 123.004 5.37123 -2.00715 0
M  V30 1276 N 122.5 6.43734 -2.56084 0
M  V30 1277 N 124.293 5.28479 -1.91484 0
M  V30 1278 H 116.444 1.41988 -1.57966 0
M  V30 1279 H 118.707 0.67885 -0.661715 0
M  V30 1280 H 118.413 2.8955 -1.99633 0
M  V30 1281 H 118.287 3.74322 -0.465096 0
M  V30 1282 H 120.674 2.94822 0.127984 0
M  V30 1283 H 120.755 2.11895 -1.43297 0
M  V30 1284 H 120.399 4.35469 -2.61398 0
M  V30 1285 H 120.329 5.16454 -1.02873 0
M  V30 1286 H 122.82 3.60615 -1.12982 0
M  V30 1287 H 123.133 7.16341 -2.89958 0
M  V30 1288 H 121.478 6.44485 -2.60122 0
M  V30 1289 H 124.669 4.44098 -1.47967 0
M  V30 1290 H 124.842 6.0632 -2.28648 0
M  V30 1291 N 118.248 0.346503 1.53744 0
M  V30 1292 C 119.659 -0.136779 1.86198 0
M  V30 1293 C 120.01 -1.49749 1.26766 0
M  V30 1294 O 119.135 -2.08417 0.582355 0
M  V30 1295 C 119.73 -0.254966 3.37839 0
M  V30 1296 C 118.289 -0.682482 3.70161 0
M  V30 1297 C 117.436 0.181981 2.76702 0
M  V30 1298 H 120.387 0.565994 1.48264 0
M  V30 1299 H 120.408 -1.08195 3.64793 0
M  V30 1300 H 119.92 0.735526 3.81066 0
M  V30 1301 H 118.021 -1.68189 3.3248 0
M  V30 1302 H 118.134 -0.470326 4.76786 0
M  V30 1303 H 116.498 -0.34615 2.52337 0
M  V30 1304 H 117.281 1.16966 3.2276 0
M  V30 1305 N 119.726 -1.57421 0.075193 0
M  V30 1306 C 121.003 -1.85029 -0.634329 0
M  V30 1307 C 121.383 -0.968305 -1.87582 0
M  V30 1308 O 120.731 -0.0354749 -2.28472 0
M  V30 1309 C 120.941 -3.35286 -0.968742 0
M  V30 1310 C 122.289 -4.02875 -1.34077 0
M  V30 1311 O 123.313 -3.40051 -1.06037 0
M  V30 1312 O 122.172 -5.13691 -1.86506 0
M  V30 1313 H 119.266 -0.7645 -0.315387 0
M  V30 1314 H 121.812 -1.69366 0.106382 0
M  V30 1315 H 120.584 -3.91203 -0.0871376 0
M  V30 1316 H 120.207 -3.56223 -1.7661 0
M  V30 1317 N 121.204 0.198386 -1.56346 0
M  V30 1318 C 122.453 0.917451 -1.79627 0
M  V30 1319 C 122.766 1.8456 -0.64784 0
M  V30 1320 O 123.972 2.60504 -0.764859 0
M  V30 1321 C 122.428 1.68175 -3.18191 0
M  V30 1322 C 122.036 0.798589 -4.40825 0
M  V30 1323 C 123.78 2.39065 -3.50782 0
M  V30 1324 C 121.687 1.56157 -5.70411 0
M  V30 1325 H 120.617 0.346317 -0.669762 0
M  V30 1326 H 123.268 0.170801 -1.82703 0
M  V30 1327 H 121.65 2.47216 -3.09354 0
M  V30 1328 H 122.824 0.0470665 -4.60776 0
M  V30 1329 H 121.139 0.200686 -4.15916 0
M  V30 1330 H 123.736 2.96692 -4.44835 0
M  V30 1331 H 124.079 3.13091 -2.74371 0
M  V30 1332 H 124.612 1.66993 -3.61052 0
M  V30 1333 H 121.351 0.864142 -6.49779 0
M  V30 1334 H 120.871 2.2871 -5.54483 0
M  V30 1335 H 122.55 2.11622 -6.11412 0
M  V30 1336 N 122.682 1.50554 0.465978 0
M  V30 1337 C 123.93 1.61479 1.21528 0
M  V30 1338 C 124.251 0.319596 1.92363 0
M  V30 1339 O 123.521 -0.663194 1.84333 0
M  V30 1340 H 122.101 0.595055 0.451573 0
M  V30 1341 H 124.763 1.87355 0.53704 0
M  V30 1342 H 123.859 2.42846 1.96042 0
M  V30 1343 N 124.16 -0.719506 1.40217 0
M  V30 1344 C 125.406 -1.48152 1.38488 0
M  V30 1345 C 125.739 -1.94195 -0.0141867 0
M  V30 1346 O 125.014 -1.67884 -0.982096 0
M  V30 1347 C 125.297 -2.71035 2.37091 0
M  V30 1348 C 125.15 -2.30912 3.86005 0
M  V30 1349 C 126.469 -3.73182 2.33288 0
M  V30 1350 H 123.588 -0.537395 0.504357 0
M  V30 1351 H 126.23 -0.821472 1.71324 0
M  V30 1352 H 124.38 -3.27352 2.0922 0
M  V30 1353 H 126.052 -1.80107 4.24687 0
M  V30 1354 H 124.295 -1.62958 4.02029 0
M  V30 1355 H 124.966 -3.18978 4.50508 0
M  V30 1356 H 127.442 -3.26485 2.57966 0
M  V30 1357 H 126.318 -4.56806 3.04334 0
M  V30 1358 H 126.579 -4.21202 1.34317 0
M  V30 1359 N 125.638 -1.25649 -0.95132 0
M  V30 1360 C 127.054 -1.02542 -1.223 0
M  V30 1361 C 127.254 0.255715 -1.99871 0
M  V30 1362 O 126.31 0.967558 -2.33226 0
M  V30 1363 C 127.623 -2.25065 -1.99415 0
M  V30 1364 C 129.171 -2.29861 -2.12446 0
M  V30 1365 C 129.646 -3.52048 -2.92961 0
M  V30 1366 N 131.137 -3.52465 -3.00538 0
M  V30 1367 C 131.872 -4.43672 -3.63239 0
M  V30 1368 N 131.368 -5.45157 -4.27523 0
M  V30 1369 N 133.161 -4.31346 -3.60412 0
M  V30 1370 H 125.312 -2.07951 -0.432471 0
M  V30 1371 H 127.575 -0.91339 -0.253816 0
M  V30 1372 H 127.281 -3.18194 -1.49817 0
M  V30 1373 H 127.155 -2.28502 -3.00111 0
M  V30 1374 H 129.542 -1.37252 -2.61239 0
M  V30 1375 H 129.623 -2.3044 -1.11044 0
M  V30 1376 H 129.267 -4.44981 -2.44856 0
M  V30 1377 H 129.197 -3.48715 -3.94596 0
M  V30 1378 H 131.688 -2.79056 -2.54826 0
M  V30 1379 H 132.001 -6.10958 -4.73234 0
M  V30 1380 H 130.346 -5.49025 -4.26141 0
M  V30 1381 H 133.537 -3.51288 -3.09377 0
M  V30 1382 H 133.71 -5.02624 -4.0899 0
M  V30 1383 N 127.117 1.15442 -1.07289 0
M  V30 1384 C 128.528 1.67803 -0.818475 0
M  V30 1385 C 128.879 1.8489 0.656507 0
M  V30 1386 O 128.004 1.55176 1.50829 0
M  V30 1387 C 128.599 3.04805 -1.47917 0
M  V30 1388 C 127.158 3.54245 -1.27229 0
M  V30 1389 C 126.305 2.29986 -1.54925 0
M  V30 1390 H 129.256 0.996646 -1.23502 0
M  V30 1391 H 129.277 3.69702 -0.90005 0
M  V30 1392 H 128.789 2.92336 -2.55267 0
M  V30 1393 H 126.89 3.71956 -0.21899 0
M  V30 1394 H 127.003 4.35723 -1.99203 0
M  V30 1395 H 125.367 2.35496 -0.970242 0
M  V30 1396 H 126.15 2.20105 -2.63455 0
M  V30 1397 N 128.595 0.856903 1.32268 0
M  V30 1398 C 129.823 0.475439 2.01363 0
M  V30 1399 C 130.238 -0.928486 1.64392 0
M  V30 1400 O 129.595 -1.60624 0.866387 0
M  V30 1401 C 129.646 0.607545 3.56358 0
M  V30 1402 O 129.367 1.95617 3.92002 0
M  V30 1403 C 130.868 0.225382 4.42727 0
M  V30 1404 H 128.088 0.186636 0.644521 0
M  V30 1405 H 130.632 1.15446 1.68797 0
M  V30 1406 H 128.787 -0.0237719 3.87393 0
M  V30 1407 H 129.201 1.95455 4.86721 0
M  V30 1408 H 130.675 0.368813 5.50767 0
M  V30 1409 H 131.152 -0.834369 4.31202 0
M  V30 1410 H 131.758 0.831864 4.17085 0
M  V30 1411 N 130.073 -1.45103 0.615059 0
M  V30 1412 C 131.319 -2.02483 0.113347 0
M  V30 1413 C 131.652 -1.48146 -1.25564 0
M  V30 1414 O 130.927 -0.659104 -1.82992 0
M  V30 1415 C 131.21 -3.60005 0.0825278 0
M  V30 1416 C 131.063 -4.2466 1.48271 0
M  V30 1417 C 132.382 -4.35972 -0.601401 0
M  V30 1418 H 129.501 -0.735764 0.0426632 0
M  V30 1419 H 132.143 -1.72868 0.788461 0
M  V30 1420 H 130.293 -3.85367 -0.492378 0
M  V30 1421 H 131.965 -4.10458 2.10527 0
M  V30 1422 H 130.208 -3.82772 2.04127 0
M  V30 1423 H 130.879 -5.336 1.41332 0
M  V30 1424 H 133.355 -4.15947 -0.112666 0
M  V30 1425 H 132.231 -5.45697 -0.592097 0
M  V30 1426 H 132.492 -4.09391 -1.66887 0
M  V30 1427 N 131.551 -0.354651 -1.53558 0
M  V30 1428 C 132.8 0.239504 -2.00273 0
M  V30 1429 C 133.113 1.50759 -1.24623 0
M  V30 1430 O 134.319 2.17968 -1.61871 0
M  V30 1431 C 132.775 0.477341 -3.5672 0
M  V30 1432 C 132.383 -0.775488 -4.41237 0
M  V30 1433 C 134.127 1.02975 -4.11821 0
M  V30 1434 C 132.034 -0.507838 -5.89216 0
M  V30 1435 H 130.964 0.0932743 -0.748208 0
M  V30 1436 H 133.615 -0.471701 -1.77334 0
M  V30 1437 H 131.997 1.24953 -3.7577 0
M  V30 1438 H 133.171 -1.54963 -4.33962 0
M  V30 1439 H 131.486 -1.25033 -3.97185 0
M  V30 1440 H 134.083 1.24513 -5.2 0
M  V30 1441 H 134.426 1.98862 -3.65731 0
M  V30 1442 H 134.959 0.317994 -3.96527 0
M  V30 1443 H 131.698 -1.43674 -6.39561 0
M  V30 1444 H 131.218 0.228011 -5.99366 0
M  V30 1445 H 132.897 -0.129238 -6.46871 0
M  V30 1446 N 133.029 1.57378 -0.0835403 0
M  V30 1447 C 133.939 2.16897 0.894021 0
M  V30 1448 C 134.955 1.13528 1.31861 0
M  V30 1449 O 136.131 1.45848 1.3889 0
M  V30 1450 C 133.196 2.72831 2.13925 0
M  V30 1451 C 132.257 3.91115 1.76997 0
M  V30 1452 C 131.49 4.44371 2.95584 0
M  V30 1453 O 131.713 3.96596 4.09961 0
M  V30 1454 O 130.647 5.35549 2.74719 0
M  V30 1455 H 134.473 3.00814 0.417679 0
M  V30 1456 H 132.058 1.48741 0.140181 0
M  V30 1457 H 133.94 3.0863 2.86924 0
M  V30 1458 H 132.615 1.91967 2.60635 0
M  V30 1459 H 131.522 3.60148 1.01214 0
M  V30 1460 H 132.855 4.73307 1.3506 0
M  V30 1461 N 134.507 -0.190092 1.56449 0
M  V30 1462 C 135.735 -0.925772 1.85033 0
M  V30 1463 C 136.15 -1.76638 0.666658 0
M  V30 1464 O 135.507 -1.78822 -0.364565 0
M  V30 1465 C 135.558 -1.81786 3.12468 0
M  V30 1466 O 135.279 -1.01118 4.26271 0
M  V30 1467 C 136.78 -2.6648 3.54265 0
M  V30 1468 H 134 -0.269872 0.614337 0
M  V30 1469 H 136.544 -0.195837 2.0356 0
M  V30 1470 H 134.699 -2.50136 2.95822 0
M  V30 1471 H 135.113 -1.61956 4.98869 0
M  V30 1472 H 136.587 -3.24722 4.46385 0
M  V30 1473 H 137.064 -3.40434 2.77491 0
M  V30 1474 H 137.67 -2.03493 3.73458 0
M  V30 1475 N 135.985 -1.50799 -0.457987 0
M  V30 1476 C 137.262 -1.52968 -1.21902 0
M  V30 1477 C 137.642 -0.281906 -2.09209 0
M  V30 1478 O 136.99 0.734076 -2.16388 0
M  V30 1479 C 137.2 -2.8326 -2.03875 0
M  V30 1480 C 138.548 -3.34425 -2.6162 0
M  V30 1481 O 139.572 -2.8467 -2.14106 0
M  V30 1482 O 138.431 -4.21188 -3.48228 0
M  V30 1483 H 135.525 -0.614129 -0.553873 0
M  V30 1484 H 138.071 -1.63098 -0.468739 0
M  V30 1485 H 136.843 -3.65543 -1.39621 0
M  V30 1486 H 136.466 -2.76195 -2.8601 0
M  V30 1487 N 137.463 0.71206 -1.40597 0
M  V30 1488 C 138.709 1.47416 -1.39271 0
M  V30 1489 C 139.042 1.942 0.00388791 0
M  V30 1490 O 138.317 1.68403 0.973179 0
M  V30 1491 C 138.6 2.69774 -2.38525 0
M  V30 1492 C 138.453 2.28861 -3.87224 0
M  V30 1493 C 139.772 3.71939 -2.35264 0
M  V30 1494 H 136.891 0.534713 -0.5072 0
M  V30 1495 H 139.533 0.812375 -1.71757 0
M  V30 1496 H 137.683 3.26238 -2.10953 0
M  V30 1497 H 139.355 1.77852 -4.25636 0
M  V30 1498 H 137.598 1.60824 -4.02887 0
M  V30 1499 H 138.269 3.16584 -4.52193 0
M  V30 1500 H 140.745 3.25113 -2.59694 0
M  V30 1501 H 139.621 4.55186 -3.06753 0
M  V30 1502 H 139.882 4.20484 -1.36549 0
M  V30 1503 N 138.941 1.26152 0.944643 0
M  V30 1504 C 140.171 1.14094 1.72239 0
M  V30 1505 C 140.579 -0.306931 1.86694 0
M  V30 1506 O 139.922 -1.22222 1.3714 0
M  V30 1507 C 139.984 1.73316 3.14963 0
M  V30 1508 C 139.648 3.2239 3.23904 0
M  V30 1509 C 140.645 4.19252 3.07447 0
M  V30 1510 C 138.33 3.62788 3.47405 0
M  V30 1511 C 140.324 5.54491 3.14353 0
M  V30 1512 C 138.011 4.98162 3.53947 0
M  V30 1513 C 139.009 5.93823 3.37436 0
M  V30 1514 O 138.697 7.26732 3.43679 0
M  V30 1515 H 138.429 0.398292 0.546205 0
M  V30 1516 H 140.983 1.67201 1.19301 0
M  V30 1517 H 139.213 1.14667 3.69308 0
M  V30 1518 H 140.902 1.56214 3.74636 0
M  V30 1519 H 141.668 3.8938 2.8915 0
M  V30 1520 H 137.547 2.88816 3.59313 0
M  V30 1521 H 141.091 6.29137 3.01384 0
M  V30 1522 H 136.988 5.27695 3.71763 0
M  V30 1523 H 137.756 7.3496 3.60245 0
M  V30 1524 N 140.419 -1.14872 1.07899 0
M  V30 1525 C 141.665 -1.86064 0.806725 0
M  V30 1526 C 141.998 -1.82434 -0.665706 0
M  V30 1527 O 141.273 -1.25138 -1.48899 0
M  V30 1528 C 141.556 -3.34929 1.32267 0
M  V30 1529 C 141.409 -3.47161 2.86006 0
M  V30 1530 C 142.728 -4.29863 0.943717 0
M  V30 1531 H 139.847 -0.675591 0.294526 0
M  V30 1532 H 142.489 -1.34925 1.33773 0
M  V30 1533 H 140.639 -3.78611 0.870974 0
M  V30 1534 H 142.311 -3.12302 3.39507 0
M  V30 1535 H 140.554 -2.88539 3.23925 0
M  V30 1536 H 141.225 -4.51777 3.17177 0
M  V30 1537 H 143.701 -3.9417 1.33302 0
M  V30 1538 H 142.577 -5.32494 1.33198 0
M  V30 1539 H 142.838 -4.41846 -0.149796 0
M  V30 1540 N 141.898 -0.863906 -1.31812 0
M  V30 1541 C 142.846 -0.30422 -2.30602 0
M  V30 1542 C 143.84 0.577419 -1.59255 0
M  V30 1543 O 145.046 0.464194 -1.73912 0
M  V30 1544 H 141.421 -0.0796877 -0.747766 0
M  V30 1545 H 143.392 -1.15148 -2.75288 0
M  V30 1546 C 142.141 0.484617 -3.44306 0
M  V30 1547 H 141.464 -0.18451 -3.99374 0
M  V30 1548 H 142.904 0.841664 -4.15562 0
M  V30 1549 C 141.363 1.6735 -2.92396 0
M  V30 1550 O 141.893 2.77273 -2.90659 0
M  V30 1551 N 140.099 1.50362 -2.48676 0
M  V30 1552 H 139.646 0.609402 -2.50288 0
M  V30 1553 H 139.604 2.30051 -2.14299 0
M  V30 1554 N 143.376 1.44774 -0.622745 0
M  V30 1555 C 144.601 2.06999 -0.128968 0
M  V30 1556 C 145.026 1.4617 1.1839 0
M  V30 1557 O 144.384 0.560007 1.72434 0
M  V30 1558 C 144.432 3.60595 -0.0188351 0
M  V30 1559 O 143.536 3.99398 1.02739 0
M  V30 1560 H 142.877 0.659047 -0.0809544 0
M  V30 1561 H 145.407 1.85784 -0.85705 0
M  V30 1562 H 145.417 4.07627 0.174476 0
M  V30 1563 H 144.092 4.04252 -0.977384 0
M  V30 1564 H 142.669 3.64011 0.809326 0
M  V30 1565 N 144.854 0.36279 1.53368 0
M  V30 1566 C 146.103 -0.22888 2.00397 0
M  V30 1567 C 146.416 -1.50096 1.25421 0
M  V30 1568 O 147.622 -2.17106 1.63025 0
M  V30 1569 C 146.078 -0.458417 3.56969 0
M  V30 1570 C 145.686 0.798877 4.4082 0
M  V30 1571 C 147.43 -1.00789 4.12361 0
M  V30 1572 C 145.337 0.539078 5.88938 0
M  V30 1573 H 144.267 -0.089305 0.748693 0
M  V30 1574 H 146.918 0.481099 1.77081 0
M  V30 1575 H 145.3 -1.22959 3.76427 0
M  V30 1576 H 146.474 1.57262 4.33134 0
M  V30 1577 H 144.789 1.27137 3.96516 0
M  V30 1578 H 147.386 -1.21754 5.20653 0
M  V30 1579 H 147.729 -1.9692 3.66781 0
M  V30 1580 H 148.262 -0.296961 3.9669 0
M  V30 1581 H 145.001 1.47064 6.3879 0
M  V30 1582 H 144.521 -0.196222 5.99479 0
M  V30 1583 H 146.2 0.163542 6.46793 0
M  V30 1584 N 146.332 -1.57332 0.0918853 0
M  V30 1585 C 147.58 -1.93853 -0.571446 0
M  V30 1586 C 147.901 -0.974212 -1.6892 0
M  V30 1587 O 147.171 -0.0257254 -1.95883 0
M  V30 1588 H 145.751 -0.715666 -0.214082 0
M  V30 1589 H 148.413 -1.94287 0.154464 0
M  V30 1590 H 147.509 -2.96191 -0.983729 0
M  V30 1591 N 147.81 0.181792 -1.56548 0
M  V30 1592 C 149.221 0.745244 -1.71181 0
M  V30 1593 C 149.572 1.83262 -0.70068 0
M  V30 1594 O 148.697 2.15946 0.140154 0
M  V30 1595 C 149.292 1.35859 -3.10367 0
M  V30 1596 C 147.851 1.86898 -3.2672 0
M  V30 1597 C 146.998 0.743942 -2.67134 0
M  V30 1598 H 149.949 -0.0434661 -1.5864 0
M  V30 1599 H 149.97 2.22817 -3.08436 0
M  V30 1600 H 149.482 0.566948 -3.83937 0
M  V30 1601 H 147.583 2.68738 -2.5809 0
M  V30 1602 H 147.696 2.02162 -4.34359 0
M  V30 1603 H 146.06 1.16169 -2.26665 0
M  V30 1604 H 146.843 -0.035676 -3.43281 0
M  V30 1605 N 149.288 1.51039 0.449983 0
M  V30 1606 C 150.534 1.63322 1.20223 0
M  V30 1607 C 150.867 0.34241 1.91158 0
M  V30 1608 O 150.142 -0.657344 1.83055 0
M  V30 1609 C 150.425 2.82801 2.22925 0
M  V30 1610 C 150.278 4.21823 1.56157 0
M  V30 1611 C 151.597 2.97807 3.24035 0
M  V30 1612 H 148.716 0.594407 0.435718 0
M  V30 1613 H 151.358 1.83489 0.493136 0
M  V30 1614 H 149.508 2.65738 2.834 0
M  V30 1615 H 151.18 4.50526 0.991162 0
M  V30 1616 H 149.423 4.25105 0.864172 0
M  V30 1617 H 150.094 5.01391 2.30891 0
M  V30 1618 H 152.57 3.13497 2.73603 0
M  V30 1619 H 151.446 3.82992 3.93202 0
M  V30 1620 H 151.707 2.09328 3.89402 0
M  V30 1621 N 150.766 -0.704594 1.40972 0
M  V30 1622 C 152.043 -1.45847 1.30338 0
M  V30 1623 C 152.423 -2.10973 -0.0732344 0
M  V30 1624 O 151.771 -2.00997 -1.08685 0
M  V30 1625 C 151.981 -2.48525 2.45023 0
M  V30 1626 C 153.329 -3.1404 2.8577 0
M  V30 1627 O 154.353 -2.58848 2.44696 0
M  V30 1628 O 153.212 -4.13981 3.56766 0
M  V30 1629 H 150.306 -0.649092 0.512454 0
M  V30 1630 H 152.852 -0.735836 1.52917 0
M  V30 1631 H 151.624 -1.98994 3.36923 0
M  V30 1632 H 151.247 -3.2831 2.24272 0
M  V30 1633 N 152.244 -1.26651 -0.937939 0
M  V30 1634 C 153.655 -1.1125 -1.49934 0
M  V30 1635 C 154.006 0.306077 -1.93798 0
M  V30 1636 O 153.131 1.19792 -1.80219 0
M  V30 1637 C 153.726 -2.01339 -2.72485 0
M  V30 1638 C 152.285 -1.90074 -3.24883 0
M  V30 1639 C 151.432 -1.94498 -1.97651 0
M  V30 1640 H 154.383 -1.39693 -0.753091 0
M  V30 1641 H 154.404 -1.56319 -3.46907 0
M  V30 1642 H 153.916 -3.04577 -2.40529 0
M  V30 1643 H 152.017 -0.897827 -3.61621 0
M  V30 1644 H 152.13 -2.75778 -3.9177 0
M  V30 1645 H 150.494 -1.38591 -2.13693 0
M  V30 1646 H 151.277 -2.99372 -1.68022 0
M  V30 1647 N 153.722 1.14298 -1.08507 0
M  V30 1648 C 154.971 1.84708 -0.810305 0
M  V30 1649 C 155.284 1.83903 0.666271 0
M  V30 1650 O 156.49 2.50112 1.05624 0
M  V30 1651 C 154.946 3.31572 -1.39957 0
M  V30 1652 C 154.554 3.40791 -2.90801 0
M  V30 1653 C 156.298 4.07087 -1.20334 0
M  V30 1654 C 154.205 4.81872 -3.4286 0
M  V30 1655 H 153.135 0.691985 -0.299454 0
M  V30 1656 H 155.786 1.28841 -1.30661 0
M  V30 1657 H 154.168 3.87183 -0.830976 0
M  V30 1658 H 155.342 2.95225 -3.53806 0
M  V30 1659 H 153.657 2.78732 -3.0935 0
M  V30 1660 H 156.254 5.11225 -1.56693 0
M  V30 1661 H 156.597 4.16054 -0.143237 0
M  V30 1662 H 157.13 3.57779 -1.73893 0
M  V30 1663 H 153.869 4.78094 -4.48449 0
M  V30 1664 H 153.389 5.27972 -2.84615 0
M  V30 1665 H 155.068 5.50765 -3.39509 0
M  V30 1666 N 155.201 0.870884 1.31352 0
M  V30 1667 C 156.149 0.316445 2.30437 0
M  V30 1668 C 157.143 -0.568965 1.59559 0
M  V30 1669 O 158.349 -0.454964 1.74155 0
M  V30 1670 H 154.724 0.0836521 0.747333 0
M  V30 1671 H 156.695 1.16606 2.74673 0
M  V30 1672 C 155.444 -0.46635 3.44558 0
M  V30 1673 H 154.767 0.205687 3.99271 0
M  V30 1674 H 156.207 -0.819614 4.16003 0
M  V30 1675 C 154.666 -1.65797 2.9328 0
M  V30 1676 O 155.196 -2.75728 2.92125 0
M  V30 1677 N 153.402 -1.49041 2.4947 0
M  V30 1678 H 152.949 -0.59612 2.50608 0
M  V30 1679 H 152.907 -2.28911 2.15516 0
M  V30 1680 N 156.679 -1.44442 0.630414 0
M  V30 1681 C 157.612 -2.27862 -0.124247 0
M  V30 1682 C 158.59 -1.38495 -0.851931 0
M  V30 1683 O 159.774 -1.67935 -0.856166 0
M  V30 1684 C 156.901 -3.17407 -1.18197 0
M  V30 1685 C 155.947 -4.22875 -0.554892 0
M  V30 1686 S 156.78 -5.31485 0.654489 0
M  V30 1687 C 157.936 -6.246 -0.40326 0
M  V30 1688 H 158.169 -2.91519 0.583435 0
M  V30 1689 H 155.702 -1.48618 0.418565 0
M  V30 1690 H 157.66 -3.69549 -1.78728 0
M  V30 1691 H 156.321 -2.52971 -1.86184 0
M  V30 1692 H 155.514 -4.85542 -1.35148 0
M  V30 1693 H 155.116 -3.73992 -0.0242105 0
M  V30 1694 H 157.408 -6.65375 -1.27602 0
M  V30 1695 H 158.351 -7.07851 0.187813 0
M  V30 1696 H 158.759 -5.59775 -0.728837 0
M  V30 1697 N 158.157 -0.370918 -1.53173 0
M  V30 1698 C 159.067 0.480823 -2.2962 0
M  V30 1699 C 160.083 1.08789 -1.35798 0
M  V30 1700 O 161.259 1.09768 -1.68858 0
M  V30 1701 C 158.324 1.60227 -3.07454 0
M  V30 1702 C 157.385 1.0222 -4.16953 0
M  V30 1703 C 156.618 2.0902 -4.91066 0
M  V30 1704 O 156.841 3.30222 -4.65091 0
M  V30 1705 O 155.775 1.71778 -5.76867 0
M  V30 1706 H 159.601 -0.141421 -3.03371 0
M  V30 1707 H 157.186 -0.135146 -1.48787 0
M  V30 1708 H 159.068 2.25417 -3.56041 0
M  V30 1709 H 157.743 2.20982 -2.36535 0
M  V30 1710 H 156.65 0.334064 -3.72605 0
M  V30 1711 H 157.983 0.459131 -4.90054 0
M  V30 1712 N 159.635 1.57281 -0.100228 0
M  V30 1713 C 160.865 1.98591 0.569681 0
M  V30 1714 C 161.273 0.978315 1.61943 0
M  V30 1715 O 160.616 -0.0396108 1.83657 0
M  V30 1716 C 160.678 3.36282 1.271 0
M  V30 1717 C 160.342 4.55488 0.371409 0
M  V30 1718 C 161.339 5.18491 -0.382504 0
M  V30 1719 C 159.024 5.01474 0.287965 0
M  V30 1720 C 161.018 6.25852 -1.20779 0
M  V30 1721 C 158.705 6.08701 -0.540965 0
M  V30 1722 C 159.703 6.70755 -1.28749 0
M  V30 1723 O 159.391 7.75914 -2.10269 0
M  V30 1724 H 159.123 0.65752 0.156982 0
M  V30 1725 H 161.677 2.0463 -0.177734 0
M  V30 1726 H 159.907 3.26941 2.0651 0
M  V30 1727 H 161.596 3.62005 1.83595 0
M  V30 1728 H 162.362 4.83891 -0.3278 0
M  V30 1729 H 158.241 4.52932 0.858689 0
M  V30 1730 H 161.785 6.74218 -1.79096 0
M  V30 1731 H 157.682 6.42732 -0.597131 0
M  V30 1732 H 158.45 7.92925 -2.03007 0
M  V30 1733 N 161.113 -0.173488 1.56642 0
M  V30 1734 C 162.341 -0.906095 1.86004 0
M  V30 1735 C 162.756 -1.75921 0.685355 0
M  V30 1736 O 162.113 -1.79198 -0.345578 0
M  V30 1737 C 162.164 -1.78462 3.14378 0
M  V30 1738 O 161.885 -0.965914 4.27319 0
M  V30 1739 C 163.386 -2.62707 3.57071 0
M  V30 1740 H 160.606 -0.263341 0.617165 0
M  V30 1741 H 163.15 -0.174236 2.03756 0
M  V30 1742 H 161.305 -2.46984 2.98459 0
M  V30 1743 H 161.719 -1.56655 5.00559 0
M  V30 1744 H 163.193 -3.19969 4.49804 0
M  V30 1745 H 163.67 -3.37472 2.81086 0
M  V30 1746 H 164.276 -1.99521 3.75595 0
M  V30 1747 N 162.591 -1.51276 -0.441967 0
M  V30 1748 C 163.84 -1.6295 -1.18871 0
M  V30 1749 C 164.153 -0.349312 -1.92456 0
M  V30 1750 O 165.359 -0.345355 -2.69295 0
M  V30 1751 C 163.815 -2.87759 -2.16155 0
M  V30 1752 C 163.423 -4.22764 -1.48239 0
M  V30 1753 C 165.167 -3.08788 -2.91291 0
M  V30 1754 C 163.074 -5.38728 -2.4398 0
M  V30 1755 H 162.004 -0.606913 -0.447406 0
M  V30 1756 H 164.655 -1.77739 -0.456205 0
M  V30 1757 H 163.037 -2.66593 -2.92821 0
M  V30 1758 H 164.211 -4.54293 -0.771635 0
M  V30 1759 H 162.526 -4.07575 -0.852741 0
M  V30 1760 H 165.123 -3.92599 -3.63002 0
M  V30 1761 H 165.466 -2.21679 -3.5237 0
M  V30 1762 H 165.999 -3.30272 -2.21733 0
M  V30 1763 H 162.738 -6.28082 -1.87598 0
M  V30 1764 H 162.258 -5.1158 -3.13123 0
M  V30 1765 H 163.937 -5.70489 -3.05207 0
M  V30 1766 N 164.069 0.697108 -1.41344 0
M  V30 1767 C 165.346 1.45154 -1.31109 0
M  V30 1768 C 165.726 2.11009 0.0620449 0
M  V30 1769 O 165.074 2.01571 1.07618 0
M  V30 1770 C 165.284 2.47223 -2.46337 0
M  V30 1771 C 166.632 3.1252 -2.87431 0
M  V30 1772 O 167.656 2.57547 -2.46065 0
M  V30 1773 O 166.515 4.12083 -3.58957 0
M  V30 1774 H 163.609 0.646365 -0.515889 0
M  V30 1775 H 166.155 0.727716 -1.53305 0
M  V30 1776 H 164.927 1.97204 -3.37974 0
M  V30 1777 H 164.55 3.27116 -2.2601 0
M  V30 1778 N 165.547 1.27147 0.931209 0
M  V30 1779 C 166.796 1.12664 1.67302 0
M  V30 1780 C 167.109 -0.327718 1.92835 0
M  V30 1781 O 168.315 -0.593392 2.64936 0
M  V30 1782 C 166.771 1.9683 3.01307 0
M  V30 1783 C 166.379 3.46901 2.83485 0
M  V30 1784 C 168.123 1.90985 3.79111 0
M  V30 1785 C 166.03 4.23279 4.13024 0
M  V30 1786 H 164.96 0.41803 0.627509 0
M  V30 1787 H 167.611 1.51539 1.03481 0
M  V30 1788 H 165.993 1.50797 3.66164 0
M  V30 1789 H 167.167 4.00773 2.27415 0
M  V30 1790 H 165.482 3.54088 2.19113 0
M  V30 1791 H 168.079 2.45328 4.75098 0
M  V30 1792 H 168.422 0.882718 4.06834 0
M  V30 1793 H 168.955 2.34895 3.21044 0
M  V30 1794 H 165.694 5.26503 3.90481 0
M  V30 1795 H 165.214 3.74186 4.6877 0
M  V30 1796 H 166.893 4.32265 4.81411 0
M  V30 1797 N 167.025 -1.13721 1.09112 0
M  V30 1798 C 168.274 -1.84275 0.82009 0
M  V30 1799 C 168.587 -1.84253 -0.656509 0
M  V30 1800 O 169.793 -2.50668 -1.04296 0
M  V30 1801 C 168.249 -3.30825 1.41714 0
M  V30 1802 C 167.857 -3.39244 2.92605 0
M  V30 1803 C 169.601 -4.06443 1.22492 0
M  V30 1804 C 167.508 -4.80047 3.45411 0
M  V30 1805 H 166.438 -0.690387 0.30312 0
M  V30 1806 H 169.089 -1.28146 1.31343 0
M  V30 1807 H 167.471 -3.86737 0.851498 0
M  V30 1808 H 168.645 -2.93344 3.55367 0
M  V30 1809 H 166.96 -2.77088 3.10823 0
M  V30 1810 H 169.557 -5.10387 1.59402 0
M  V30 1811 H 169.9 -4.15972 0.165299 0
M  V30 1812 H 170.433 -3.56852 1.75788 0
M  V30 1813 H 167.172 -4.75709 4.50978 0
M  V30 1814 H 166.692 -5.26455 2.87411 0
M  V30 1815 H 168.371 -5.48957 3.42425 0
M  V30 1816 N 168.503 -0.877838 -1.30888 0
M  V30 1817 C 169.75 -0.492696 -1.96415 0
M  V30 1818 C 170.078 0.956671 -1.69346 0
M  V30 1819 O 169.333 1.68993 -0.986913 0
M  V30 1820 C 169.632 -0.705748 -3.50363 0
M  V30 1821 C 169.298 -2.1291 -3.97467 0
M  V30 1822 C 167.96 -2.51834 -4.1004 0
M  V30 1823 C 170.312 -3.05702 -4.22132 0
M  V30 1824 C 167.64 -3.82775 -4.44635 0
M  V30 1825 C 169.992 -4.36166 -4.58194 0
M  V30 1826 C 168.656 -4.74993 -4.68975 0
M  V30 1827 H 167.926 -0.18029 -0.718733 0
M  V30 1828 H 170.573 -1.11233 -1.55883 0
M  V30 1829 H 168.878 -0.00303058 -3.918 0
M  V30 1830 H 170.575 -0.387456 -3.99124 0
M  V30 1831 H 167.165 -1.81694 -3.88182 0
M  V30 1832 H 171.349 -2.76853 -4.11906 0
M  V30 1833 H 166.605 -4.12609 -4.51181 0
M  V30 1834 H 170.779 -5.08111 -4.76231 0
M  V30 1835 H 168.406 -5.76495 -4.95537 0
M  V30 1836 N 169.982 1.44106 -0.638065 0
M  V30 1837 C 170.945 2.29138 0.0531013 0
M  V30 1838 C 171.945 1.41409 0.765506 0
M  V30 1839 O 173.135 1.63206 0.609046 0
M  V30 1840 C 170.267 3.23144 1.08584 0
M  V30 1841 H 171.46 2.91739 -0.694883 0
M  V30 1842 H 169.013 1.51134 -0.398538 0
M  V30 1843 H 169.748 2.65408 1.86357 0
M  V30 1844 H 169.533 3.87804 0.578852 0
M  V30 1845 H 171.023 3.87004 1.56899 0
M  V30 1846 N 171.46 0.379036 1.52974 0
M  V30 1847 C 172.392 -0.495963 2.2377 0
M  V30 1848 C 173.405 -1.03517 1.25651 0
M  V30 1849 O 174.594 -0.939249 1.51791 0
M  V30 1850 C 171.694 -1.69894 2.93239 0
M  V30 1851 C 170.867 -1.2889 4.17979 0
M  V30 1852 C 169.926 -2.35543 4.70538 0
M  V30 1853 O 168.952 -1.97375 5.33883 0
M  V30 1854 N 170.154 -3.67318 4.49508 0
M  V30 1855 H 172.919 0.110523 2.99496 0
M  V30 1856 H 170.48 0.204878 1.60598 0
M  V30 1857 H 172.472 -2.40747 3.25304 0
M  V30 1858 H 171.042 -2.212 2.20883 0
M  V30 1859 H 170.262 -0.409676 3.92065 0
M  V30 1860 H 171.55 -0.991443 4.99047 0
M  V30 1861 H 170.948 -4.01095 3.98923 0
M  V30 1862 H 169.505 -4.34235 4.8609 0
M  V30 1863 N 172.938 -1.57226 0.108567 0
M  V30 1864 C 174.166 -1.99179 -0.559954 0
M  V30 1865 C 174.581 -0.988022 -1.60884 0
M  V30 1866 O 173.938 0.0205512 -1.82488 0
M  V30 1867 C 173.989 -3.41159 -1.19552 0
M  V30 1868 O 173.71 -4.37694 -0.188577 0
M  V30 1869 C 175.211 -3.98188 -1.94837 0
M  V30 1870 H 172.431 -0.654228 -0.149088 0
M  V30 1871 H 174.975 -2.03598 0.19183 0
M  V30 1872 H 173.13 -3.37711 -1.89815 0
M  V30 1873 H 173.544 -5.20469 -0.649014 0
M  V30 1874 H 175.018 -4.99644 -2.34648 0
M  V30 1875 H 175.495 -3.3675 -2.81951 0
M  V30 1876 H 176.101 -4.0515 -1.2936 0
M  V30 1877 N 174.416 0.165178 -1.56732 0
M  V30 1878 C 175.662 0.877389 -1.83503 0
M  V30 1879 C 176.017 1.79602 -0.689996 0
M  V30 1880 O 175.31 1.89023 0.313205 0
M  V30 1881 C 175.504 1.70405 -3.1416 0
M  V30 1882 C 175.333 0.866961 -4.41264 0
M  V30 1883 C 174.103 0.539646 -5.0241 0
M  V30 1884 C 176.301 0.205671 -5.13889 0
M  V30 1885 N 174.283 -0.312946 -6.13102 0
M  V30 1886 C 175.654 -0.507823 -6.17917 0
M  V30 1887 C 177.709 0.124468 -4.97744 0
M  V30 1888 C 176.412 -1.29483 -7.0755 0
M  V30 1889 C 178.438 -0.649222 -5.87826 0
M  V30 1890 C 177.8 -1.35106 -6.91322 0
M  V30 1891 H 173.899 0.299477 -0.722383 0
M  V30 1892 H 176.483 0.143949 -1.94167 0
M  V30 1893 H 174.654 2.40887 -3.04677 0
M  V30 1894 H 176.386 2.35804 -3.28905 0
M  V30 1895 H 173.141 0.871176 -4.65519 0
M  V30 1896 H 173.565 -0.729731 -6.73056 0
M  V30 1897 H 178.207 0.652724 -4.17731 0
M  V30 1898 H 175.925 -1.83441 -7.87004 0
M  V30 1899 H 179.511 -0.713804 -5.77405 0
M  V30 1900 H 178.391 -1.94013 -7.59821 0
M  V30 1901 N 175.894 1.51508 0.433938 0
M  V30 1902 C 177.141 1.64345 1.18309 0
M  V30 1903 C 177.469 0.361315 1.91115 0
M  V30 1904 O 176.724 -0.654753 1.84422 0
M  V30 1905 C 177.023 2.79928 2.22205 0
M  V30 1906 C 176.689 4.19078 1.66387 0
M  V30 1907 C 175.351 4.56932 1.50887 0
M  V30 1908 C 177.703 5.05894 1.25381 0
M  V30 1909 C 175.031 5.79305 0.928608 0
M  V30 1910 C 177.383 6.2885 0.687823 0
M  V30 1911 C 176.047 6.65473 0.519755 0
M  V30 1912 H 175.317 0.601381 0.432923 0
M  V30 1913 H 177.964 1.85549 0.473676 0
M  V30 1914 H 176.269 2.52959 2.99197 0
M  V30 1915 H 177.966 2.87059 2.79997 0
M  V30 1916 H 174.556 3.89234 1.79428 0
M  V30 1917 H 178.74 4.77253 1.36175 0
M  V30 1918 H 173.996 6.06324 0.786186 0
M  V30 1919 H 178.17 6.95461 0.361581 0
M  V30 1920 H 175.797 7.6017 0.0679979 0
M  V30 1921 N 177.372 -0.689602 1.41712 0
M  V30 1922 C 178.649 -1.44457 1.31877 0
M  V30 1923 C 179.029 -2.11039 -0.0508537 0
M  V30 1924 O 178.377 -2.02138 -1.06547 0
M  V30 1925 C 178.587 -2.45913 2.47645 0
M  V30 1926 C 179.935 -3.10991 2.89084 0
M  V30 1927 O 180.959 -2.56238 2.47428 0
M  V30 1928 O 179.818 -4.10174 3.61137 0
M  V30 1929 H 176.912 -0.64362 0.519309 0
M  V30 1930 H 179.458 -0.719576 1.53689 0
M  V30 1931 H 178.23 -1.95409 3.39015 0
M  V30 1932 H 177.853 -3.25913 2.27742 0
M  V30 1933 N 178.85 -1.27639 -0.924453 0
M  V30 1934 C 180.075 -1.17101 -1.71179 0
M  V30 1935 C 180.5 0.268134 -1.86179 0
M  V30 1936 O 179.858 1.19415 -1.36418 0
M  V30 1937 C 179.906 -1.86313 -3.08739 0
M  V30 1938 O 179.01 -1.16331 -3.95652 0
M  V30 1939 H 178.351 -0.407091 -0.524569 0
M  V30 1940 H 180.881 -1.68767 -1.15666 0
M  V30 1941 H 180.891 -1.938 -3.59034 0
M  V30 1942 H 179.566 -2.91001 -2.97138 0
M  V30 1943 H 178.143 -1.16935 -3.54091 0
M  V30 1944 N 180.328 1.1314 -1.09713 0
M  V30 1945 C 181.744 1.36477 -0.827423 0
M  V30 1946 C 181.944 1.93654 0.556817 0
M  V30 1947 O 181 2.15791 1.31112 0
M  V30 1948 C 182.313 2.31334 -1.92106 0
M  V30 1949 C 183.861 2.44943 -1.94864 0
M  V30 1950 C 184.336 3.4311 -3.0338 0
M  V30 1951 N 185.827 3.50662 -3.02639 0
M  V30 1952 C 186.562 4.2651 -3.83246 0
M  V30 1953 N 186.058 5.05485 -4.73768 0
M  V30 1954 N 187.851 4.2184 -3.71493 0
M  V30 1955 H 180.002 0.743807 -1.9895 0
M  V30 1956 H 182.265 0.389823 -0.864143 0
M  V30 1957 H 181.971 1.96483 -2.91698 0
M  V30 1958 H 181.845 3.31381 -1.80184 0
M  V30 1959 H 184.232 2.79079 -0.959099 0
M  V30 1960 H 184.313 1.4481 -2.10864 0
M  V30 1961 H 183.957 3.09704 -4.02549 0
M  V30 1962 H 183.887 4.43055 -2.84622 0
M  V30 1963 H 186.378 2.94315 -2.37039 0
M  V30 1964 H 186.691 5.60675 -5.3185 0
M  V30 1965 H 185.036 5.04708 -4.77802 0
M  V30 1966 H 188.227 3.5922 -3.00131 0
M  V30 1967 H 188.4 4.80697 -4.3455 0
M  V30 1968 N 181.806 0.884767 1.30421 0
M  V30 1969 C 182.736 0.367574 2.30589 0
M  V30 1970 C 183.717 -0.549464 1.60981 0
M  V30 1971 O 184.902 -0.46336 1.88591 0
M  V30 1972 C 182.032 -0.418944 3.44764 0
M  V30 1973 C 180.986 0.406316 4.26067 0
M  V30 1974 C 180.312 -0.506793 5.32293 0
M  V30 1975 C 181.612 1.64832 4.95608 0
M  V30 1976 H 183.306 1.20462 2.74097 0
M  V30 1977 H 180.852 0.580695 1.31772 0
M  V30 1978 H 182.805 -0.791395 4.13902 0
M  V30 1979 H 181.529 -1.28964 3.0006 0
M  V30 1980 H 180.188 0.760903 3.58617 0
M  V30 1981 H 179.836 -1.37519 4.83836 0
M  V30 1982 H 179.536 0.0415828 5.87585 0
M  V30 1983 H 181.06 -0.875764 6.04287 0
M  V30 1984 H 182.474 1.34646 5.57264 0
M  V30 1985 H 180.871 2.13688 5.60765 0
M  V30 1986 H 181.941 2.39284 4.21748 0
M  V30 1987 N 183.284 -1.43765 0.645699 0
M  V30 1988 C 184.231 -2.30745 -0.0504648 0
M  V30 1989 C 185.201 -1.4432 -0.822241 0
M  V30 1990 O 186.386 -1.73202 -0.800358 0
M  V30 1991 C 183.526 -3.29802 -1.0161 0
M  V30 1992 C 182.639 -4.31326 -0.241219 0
M  V30 1993 C 181.774 -5.17469 -1.19998 0
M  V30 1994 C 180.813 -6.10691 -0.415094 0
M  V30 1995 N 179.95 -6.89483 -1.32506 0
M  V30 1996 H 184.79 -2.8973 0.697155 0
M  V30 1997 H 182.327 -1.42738 0.355563 0
M  V30 1998 H 184.285 -3.85734 -1.58949 0
M  V30 1999 H 182.915 -2.72483 -1.73069 0
M  V30 2000 H 181.967 -3.77749 0.448334 0
M  V30 2001 H 183.279 -4.9743 0.369437 0
M  V30 2002 H 182.433 -5.7799 -1.84424 0
M  V30 2003 H 181.172 -4.51473 -1.84455 0
M  V30 2004 H 180.177 -5.49265 0.242565 0
M  V30 2005 H 181.402 -6.78727 0.224966 0
M  V30 2006 H 179.348 -6.26142 -1.95657 0
M  V30 2007 H 179.265 -7.52081 -0.768783 0
M  V30 2008 H 180.533 -7.54516 -1.9577 0
M  V30 2009 N 184.763 -0.387143 -1.52771 0
M  V30 2010 C 186.01 0.195735 -2.01552 0
M  V30 2011 C 186.338 1.46995 -1.27369 0
M  V30 2012 O 185.593 1.92325 -0.361879 0
M  V30 2013 C 185.892 0.512209 -3.53711 0
M  V30 2014 C 185.558 -0.670202 -4.45891 0
M  V30 2015 C 184.22 -0.994586 -4.70809 0
M  V30 2016 C 186.572 -1.46134 -5.00294 0
M  V30 2017 C 183.9 -2.11169 -5.4738 0
M  V30 2018 C 186.252 -2.56903 -5.78086 0
M  V30 2019 C 184.916 -2.89852 -6.01284 0
M  V30 2020 H 184.186 0.0716246 -0.73753 0
M  V30 2021 H 186.833 -0.524046 -1.8419 0
M  V30 2022 H 185.138 1.31329 -3.69134 0
M  V30 2023 H 186.835 0.975804 -3.88946 0
M  V30 2024 H 183.425 -0.407366 -4.2666 0
M  V30 2025 H 187.609 -1.22397 -4.80971 0
M  V30 2026 H 182.865 -2.3707 -5.63567 0
M  V30 2027 H 187.039 -3.18608 -6.19243 0
M  V30 2028 H 184.666 -3.76533 -6.60399 0
M  V30 2029 N 186.241 1.57166 -0.116904 0
M  V30 2030 C 187.189 2.16457 0.851418 0
M  V30 2031 C 188.183 1.11323 1.27686 0
M  V30 2032 O 189.389 1.2963 1.24884 0
M  V30 2033 H 185.764 0.69271 0.292672 0
M  V30 2034 H 187.735 2.96605 0.32685 0
M  V30 2035 C 186.484 2.77689 2.09246 0
M  V30 2036 H 185.807 3.58285 1.77402 0
M  V30 2037 H 187.247 3.22716 2.7501 0
M  V30 2038 C 185.706 1.74667 2.88085 0
M  V30 2039 O 186.236 1.19877 3.83396 0
M  V30 2040 N 184.442 1.44656 2.52038 0
M  V30 2041 H 183.989 1.89402 1.74599 0
M  V30 2042 H 183.947 0.759675 3.05084 0
M  V30 2043 N 187.719 -0.156864 1.56817 0
M  V30 2044 C 188.944 -0.890331 1.87318 0
M  V30 2045 C 189.369 -1.74394 0.704855 0
M  V30 2046 O 188.727 -1.77972 -0.345786 0
M  V30 2047 C 188.775 -1.73102 3.16336 0
M  V30 2048 O 187.879 -2.83422 2.99576 0
M  V30 2049 H 187.22 -0.24857 0.615718 0
M  V30 2050 H 189.75 -0.150649 2.04045 0
M  V30 2051 H 189.76 -2.12803 3.48107 0
M  V30 2052 H 188.435 -1.10412 4.00976 0
M  V30 2053 H 187.012 -2.47199 2.7919 0
M  V30 2054 N 189.197 -1.51736 -0.425897 0
M  V30 2055 C 190.425 -1.68794 -1.1965 0
M  V30 2056 C 190.84 -0.390164 -1.84725 0
M  V30 2057 O 190.197 0.632376 -1.71194 0
M  V30 2058 C 190.248 -2.81174 -2.27208 0
M  V30 2059 O 189.969 -4.05925 -1.64793 0
M  V30 2060 C 191.47 -3.09599 -3.17275 0
M  V30 2061 H 188.69 -0.566128 -0.360194 0
M  V30 2062 H 191.234 -1.98211 -0.503249 0
M  V30 2063 H 189.389 -2.54324 -2.9223 0
M  V30 2064 H 189.803 -4.68423 -2.35967 0
M  V30 2065 H 191.277 -3.91786 -3.88854 0
M  V30 2066 H 191.754 -2.22468 -3.78688 0
M  V30 2067 H 192.36 -3.38151 -2.57941 0
M  V30 2068 N 190.675 0.682077 -1.42076 0
M  V30 2069 C 191.608 1.80666 -1.3941 0
M  V30 2070 C 192.586 1.60518 -0.25939 0
M  V30 2071 O 193.77 1.83088 -0.448456 0
M  V30 2072 C 190.897 3.17556 -1.17796 0
M  V30 2073 C 189.943 3.56468 -2.34164 0
M  V30 2074 S 190.776 3.59729 -3.96681 0
M  V30 2075 C 191.932 4.99323 -3.77395 0
M  V30 2076 H 192.165 1.82652 -2.34575 0
M  V30 2077 H 189.698 0.852062 -1.2876 0
M  V30 2078 H 191.656 3.96575 -1.06012 0
M  V30 2079 H 190.317 3.13164 -0.242279 0
M  V30 2080 H 189.51 4.5595 -2.1477 0
M  V30 2081 H 189.112 2.84792 -2.42425 0
M  V30 2082 H 191.404 5.87202 -3.37935 0
M  V30 2083 H 192.347 5.23763 -4.76527 0
M  V30 2084 H 192.755 4.71498 -3.10403 0
M  V30 2085 N 192.153 1.28127 0.917671 0
M  V30 2086 C 193.1 1.11717 2.0196 0
M  V30 2087 C 194.07 0.0153929 1.66093 0
M  V30 2088 O 195.255 0.179596 1.89953 0
M  V30 2089 C 192.395 0.780927 3.36148 0
M  V30 2090 C 191.508 1.96135 3.84909 0
M  V30 2091 C 190.643 1.56609 5.0759 0
M  V30 2092 C 189.682 2.71339 5.48673 0
M  V30 2093 N 188.819 2.32332 6.62545 0
M  V30 2094 H 193.659 2.06003 2.15329 0
M  V30 2095 H 191.196 1.02535 1.05475 0
M  V30 2096 H 193.154 0.56675 4.13333 0
M  V30 2097 H 191.784 -0.124998 3.22558 0
M  V30 2098 H 190.836 2.28777 3.03916 0
M  V30 2099 H 192.148 2.82165 4.1132 0
M  V30 2100 H 191.302 1.31374 5.92305 0
M  V30 2101 H 190.041 0.677014 4.82978 0
M  V30 2102 H 189.046 2.97276 4.62501 0
M  V30 2103 H 190.271 3.60882 5.75274 0
M  V30 2104 H 188.217 1.45889 6.39572 0
M  V30 2105 H 188.134 3.11899 6.88662 0
M  V30 2106 H 189.402 2.10371 7.50576 0
M  V30 2107 N 193.631 -1.12557 1.10312 0
M  V30 2108 C 194.877 -1.84311 0.846011 0
M  V30 2109 C 195.21 -1.83805 -0.626859 0
M  V30 2110 O 194.485 -1.28268 -1.46211 0
M  V30 2111 C 194.768 -3.32048 1.39341 0
M  V30 2112 C 194.621 -3.41016 2.93305 0
M  V30 2113 C 195.94 -4.27764 1.03468 0
M  V30 2114 H 193.059 -0.669192 0.30879 0
M  V30 2115 H 195.701 -1.32057 1.36605 0
M  V30 2116 H 193.851 -3.76678 0.951087 0
M  V30 2117 H 195.523 -3.05031 3.46055 0
M  V30 2118 H 193.766 -2.81603 3.29973 0
M  V30 2119 H 194.437 -4.44948 3.26689 0
M  V30 2120 H 196.913 -3.91253 1.41633 0
M  V30 2121 H 195.789 -5.29549 1.44463 0
M  V30 2122 H 196.05 -4.42064 -0.0560404 0
M  V30 2123 N 195.109 -0.891671 -1.2995 0
M  V30 2124 C 196.039 -0.379797 -2.30391 0
M  V30 2125 C 197.02 0.540919 -1.6127 0
M  V30 2126 O 198.205 0.453352 -1.88834 0
M  V30 2127 C 195.335 0.400654 -3.44981 0
M  V30 2128 C 194.289 -0.428905 -4.25846 0
M  V30 2129 C 193.615 0.478557 -5.32554 0
M  V30 2130 C 194.915 -1.67458 -4.94727 0
M  V30 2131 H 196.609 -1.21914 -2.73454 0
M  V30 2132 H 194.155 -0.587675 -1.31462 0
M  V30 2133 H 196.108 0.769434 -4.14316 0
M  V30 2134 H 194.832 1.27371 -3.0074 0
M  V30 2135 H 193.491 -0.779911 -3.58208 0
M  V30 2136 H 193.139 1.34951 -4.84559 0
M  V30 2137 H 192.839 -0.0727433 -5.87555 0
M  V30 2138 H 194.363 0.843705 -6.04743 0
M  V30 2139 H 195.777 -1.376 -5.56542 0
M  V30 2140 H 194.174 -2.16659 -5.59624 0
M  V30 2141 H 195.244 -2.41518 -4.20473 0
M  V30 2142 N 196.587 1.43421 -0.653314 0
M  V30 2143 C 197.52 2.2803 0.0879804 0
M  V30 2144 C 198.498 1.39833 0.82979 0
M  V30 2145 O 199.682 1.69275 0.829341 0
M  V30 2146 C 196.809 3.19247 1.13132 0
M  V30 2147 C 195.855 4.23704 0.487546 0
M  V30 2148 S 196.688 5.30377 -0.738961 0
M  V30 2149 C 197.844 6.25162 0.30384 0
M  V30 2150 H 198.077 2.90554 -0.629739 0
M  V30 2151 H 195.61 1.47934 -0.442156 0
M  V30 2152 H 197.568 3.72346 1.72827 0
M  V30 2153 H 196.229 2.55901 1.82136 0
M  V30 2154 H 195.422 4.87631 1.27407 0
M  V30 2155 H 195.024 3.73983 -0.0352915 0
M  V30 2156 H 197.316 6.67321 1.17 0
M  V30 2157 H 198.259 7.07463 -0.300402 0
M  V30 2158 H 198.667 5.60864 0.63969 0
M  V30 2159 N 198.065 0.39524 1.52563 0
M  V30 2160 C 198.995 -0.428384 2.29537 0
M  V30 2161 C 199.976 -1.05831 1.33169 0
M  V30 2162 O 201.161 -1.06995 1.62067 0
M  V30 2163 C 198.291 -1.55274 3.10656 0
M  V30 2164 C 197.245 -1.04855 4.14957 0
M  V30 2165 C 196.571 -2.26543 4.84337 0
M  V30 2166 C 197.871 -0.112324 5.22179 0
M  V30 2167 H 199.565 0.213867 2.98635 0
M  V30 2168 H 197.111 0.104298 1.43622 0
M  V30 2169 H 199.064 -2.1358 3.63265 0
M  V30 2170 H 197.788 -2.22266 2.39302 0
M  V30 2171 H 196.447 -0.487985 3.63338 0
M  V30 2172 H 196.095 -2.92059 4.09525 0
M  V30 2173 H 195.795 -1.93466 5.54837 0
M  V30 2174 H 197.319 -2.85481 5.39753 0
M  V30 2175 H 198.733 -0.603752 5.70112 0
M  V30 2176 H 197.13 0.128968 5.99961 0
M  V30 2177 H 198.2 0.837052 4.77621 0
M  V30 2178 N 199.544 -1.57102 0.125237 0
M  V30 2179 C 200.492 -2.16905 -0.839927 0
M  V30 2180 C 201.486 -1.11998 -1.27094 0
M  V30 2181 O 202.692 -1.3029 -1.24195 0
M  V30 2182 H 199.067 -0.694252 -0.288995 0
M  V30 2183 H 201.038 -2.96774 -0.311115 0
M  V30 2184 C 199.787 -2.78795 -2.07771 0
M  V30 2185 H 199.11 -3.59221 -1.755 0
M  V30 2186 H 200.55 -3.2417 -2.73295 0
M  V30 2187 C 199.009 -1.76193 -2.87155 0
M  V30 2188 O 199.539 -1.21909 -3.82755 0
M  V30 2189 N 197.745 -1.45991 -2.51267 0
M  V30 2190 H 197.292 -1.90325 -1.73592 0
M  V30 2191 H 197.25 -0.775844 -3.04677 0
M  V30 2192 N 201.022 0.148545 -1.56898 0
M  V30 2193 C 202.247 0.880385 -1.87787 0
M  V30 2194 C 202.672 1.74018 -0.714093 0
M  V30 2195 O 202.03 1.78153 0.336343 0
M  V30 2196 C 202.078 1.71422 -3.17249 0
M  V30 2197 O 201.182 2.8183 -3.01074 0
M  V30 2198 H 200.523 0.245301 -0.617028 0
M  V30 2199 H 203.053 0.139826 -2.04122 0
M  V30 2200 H 203.063 2.10954 -3.49231 0
M  V30 2201 H 201.738 1.08284 -4.01556 0
M  V30 2202 H 200.315 2.45715 -2.80497 0
M  V30 2203 N 202.5 1.5196 0.417844 0
M  V30 2204 C 203.448 1.75278 1.52907 0
M  V30 2205 C 204.442 0.619611 1.57662 0
M  V30 2206 O 205.648 0.801457 1.61173 0
M  V30 2207 H 202.023 0.554141 0.508362 0
M  V30 2208 H 203.994 2.68389 1.30422 0
M  V30 2209 C 202.743 1.91262 2.90369 0
M  V30 2210 H 202.066 2.77872 2.8745 0
M  V30 2211 H 203.506 2.11581 3.67436 0
M  V30 2212 C 201.965 0.677431 3.30019 0
M  V30 2213 O 202.495 -0.158799 4.01386 0
M  V30 2214 N 200.701 0.515851 2.85985 0
M  V30 2215 H 200.248 1.19744 2.28077 0
M  V30 2216 H 200.206 -0.309315 3.12875 0
M  V30 2217 N 203.978 -0.674533 1.42435 0
M  V30 2218 C 204.911 -1.79924 1.40366 0
M  V30 2219 C 205.889 -1.60378 0.267899 0
M  V30 2220 O 207.073 -1.82847 0.458159 0
M  V30 2221 C 204.2 -3.16927 1.19478 0
M  V30 2222 C 203.246 -3.55221 2.36051 0
M  V30 2223 S 204.079 -3.5762 3.98583 0
M  V30 2224 C 205.235 -4.97315 3.80038 0
M  V30 2225 H 205.468 -1.81405 2.35541 0
M  V30 2226 H 203.001 -0.845221 1.29211 0
M  V30 2227 H 204.959 -3.96007 1.08114 0
M  V30 2228 H 203.62 -3.13031 0.258883 0
M  V30 2229 H 202.813 -4.54804 2.17185 0
M  V30 2230 H 202.415 -2.83502 2.43932 0
M  V30 2231 H 204.707 -5.85401 3.41045 0
M  V30 2232 H 205.65 -5.21228 4.79298 0
M  V30 2233 H 206.058 -4.69845 3.12899 0
M  V30 2234 N 205.456 -1.28612 -0.910864 0
M  V30 2235 C 206.702 -1.16106 -1.66274 0
M  V30 2236 C 207.035 0.289113 -1.92036 0
M  V30 2237 O 206.31 1.21 -1.52281 0
M  V30 2238 C 206.593 -1.96309 -3.01885 0
M  V30 2239 C 206.446 -3.49405 -2.8326 0
M  V30 2240 C 207.765 -1.78076 -4.02463 0
M  V30 2241 H 204.884 -0.423152 -0.603417 0
M  V30 2242 H 207.526 -1.57961 -1.05586 0
M  V30 2243 H 205.676 -1.60742 -3.53687 0
M  V30 2244 H 207.348 -3.94894 -2.38446 0
M  V30 2245 H 205.591 -3.74893 -2.18261 0
M  V30 2246 H 206.262 -4.00784 -3.79574 0
M  V30 2247 H 208.738 -2.0912 -3.59733 0
M  V30 2248 H 207.614 -2.36561 -4.95308 0
M  V30 2249 H 207.875 -0.733008 -4.35981 0
M  V30 2250 N 206.934 1.1197 -1.10907 0
M  V30 2251 C 208.182 1.83225 -0.852819 0
M  V30 2252 C 208.503 1.84769 0.623341 0
M  V30 2253 O 207.773 1.3143 1.45269 0
M  V30 2254 H 206.353 0.67849 -0.312507 0
M  V30 2255 H 209.015 1.3556 -1.40033 0
M  V30 2256 H 208.111 2.87265 -1.22005 0
M  V30 2257 N 208.412 0.89855 1.29475 0
M  V30 2258 C 209.359 0.373819 2.27753 0
M  V30 2259 C 210.329 -0.543444 1.56958 0
M  V30 2260 O 211.514 -0.468934 1.84948 0
M  V30 2261 C 208.654 -0.393648 3.42848 0
M  V30 2262 C 207.767 0.554379 4.28428 0
M  V30 2263 C 206.902 -0.230026 5.30702 0
M  V30 2264 C 205.941 0.712599 6.07938 0
M  V30 2265 N 205.078 -0.0373283 7.0209 0
M  V30 2266 H 209.918 1.21699 2.72017 0
M  V30 2267 H 207.455 0.611456 1.33789 0
M  V30 2268 H 209.413 -0.85466 4.08352 0
M  V30 2269 H 208.043 -1.20128 2.99615 0
M  V30 2270 H 207.095 1.13391 3.63107 0
M  V30 2271 H 208.407 1.27597 4.82204 0
M  V30 2272 H 207.561 -0.752288 6.02018 0
M  V30 2273 H 206.3 -0.984758 4.77654 0
M  V30 2274 H 205.305 1.24637 5.35486 0
M  V30 2275 H 206.53 1.46664 6.63074 0
M  V30 2276 H 204.476 -0.774348 6.51414 0
M  V30 2277 H 204.393 0.624374 7.53417 0
M  V30 2278 H 205.661 -0.539891 7.77628 0
M  V30 2279 N 209.89 -1.43072 0.660911 0
M  V30 2280 C 211.139 -2.00942 0.174735 0
M  V30 2281 C 211.452 -1.52797 -1.22117 0
M  V30 2282 O 212.658 -2.02991 -1.80297 0
M  V30 2283 C 211.114 -3.58948 0.261559 0
M  V30 2284 C 210.722 -4.16085 1.66064 0
M  V30 2285 C 212.466 -4.24173 -0.166617 0
M  V30 2286 C 210.373 -5.6641 1.70098 0
M  V30 2287 H 209.303 -0.751483 0.0615631 0
M  V30 2288 H 211.954 -1.63955 0.824069 0
M  V30 2289 H 210.336 -3.93372 -0.455421 0
M  V30 2290 H 211.51 -3.93147 2.40359 0
M  V30 2291 H 209.825 -3.6326 2.03546 0
M  V30 2292 H 212.422 -5.34471 -0.156433 0
M  V30 2293 H 212.765 -3.98647 -1.19943 0
M  V30 2294 H 213.298 -3.94659 0.498875 0
M  V30 2295 H 210.037 -5.96715 2.71315 0
M  V30 2296 H 209.557 -5.91382 1.00139 0
M  V30 2297 H 211.236 -6.30585 1.44816 0
M  V30 2298 N 211.368 -0.403325 -1.52352 0
M  V30 2299 C 212.614 0.167015 -2.02713 0
M  V30 2300 C 212.969 1.43296 -1.28391 0
M  V30 2301 O 212.262 1.87796 -0.379885 0
M  V30 2302 C 212.456 0.474665 -3.54234 0
M  V30 2303 C 212.285 -0.759909 -4.43233 0
M  V30 2304 C 211.055 -1.28338 -4.88731 0
M  V30 2305 C 213.253 -1.63634 -4.87574 0
M  V30 2306 N 211.235 -2.47404 -5.6184 0
M  V30 2307 C 212.606 -2.67329 -5.59406 0
M  V30 2308 C 214.661 -1.65478 -4.69597 0
M  V30 2309 C 213.364 -3.72773 -6.15169 0
M  V30 2310 C 215.39 -2.69837 -5.26253 0
M  V30 2311 C 214.752 -3.72253 -5.98002 0
M  V30 2312 H 210.851 0.0228343 -0.781667 0
M  V30 2313 H 213.435 -0.556368 -1.86581 0
M  V30 2314 H 211.606 1.16709 -3.7045 0
M  V30 2315 H 213.338 1.03338 -3.91284 0
M  V30 2316 H 210.093 -0.842273 -4.6605 0
M  V30 2317 H 210.517 -3.07688 -6.0304 0
M  V30 2318 H 215.159 -0.876389 -4.13617 0
M  V30 2319 H 212.877 -4.51471 -6.70223 0
M  V30 2320 H 216.463 -2.72164 -5.14216 0
M  V30 2321 H 215.343 -4.51679 -6.41058 0
M  V30 2322 N 212.846 1.57033 -0.133567 0
M  V30 2323 C 214.095 1.94861 0.520768 0
M  V30 2324 C 214.408 1.02012 1.66892 0
M  V30 2325 O 215.614 1.29365 2.38699 0
M  V30 2326 C 214.07 3.46362 0.977809 0
M  V30 2327 C 213.678 4.47773 -0.142674 0
M  V30 2328 C 215.422 3.93083 1.60269 0
M  V30 2329 C 213.329 5.90468 0.331883 0
M  V30 2330 H 212.259 0.727453 0.198315 0
M  V30 2331 H 214.91 1.82227 -0.215759 0
M  V30 2332 H 213.292 3.54282 1.7692 0
M  V30 2333 H 214.466 4.51536 -0.919317 0
M  V30 2334 H 212.781 4.10891 -0.675124 0
M  V30 2335 H 215.378 4.97121 1.96914 0
M  V30 2336 H 215.721 3.33876 2.48662 0
M  V30 2337 H 216.254 3.88025 0.876453 0
M  V30 2338 H 212.993 6.53463 -0.516341 0
M  V30 2339 H 212.513 5.90094 1.07469 0
M  V30 2340 H 214.192 6.42179 0.788332 0
M  V30 2341 N 214.325 -0.140222 1.56975 0
M  V30 2342 C 215.736 -0.699596 1.73097 0
M  V30 2343 C 216.087 -1.8134 0.749022 0
M  V30 2344 O 215.212 -2.16241 -0.0828503 0
M  V30 2345 C 215.807 -1.27582 3.1386 0
M  V30 2346 C 214.366 -1.78169 3.31561 0
M  V30 2347 C 213.513 -0.672855 2.69013 0
M  V30 2348 H 216.464 0.0855115 1.58469 0
M  V30 2349 H 216.485 -2.14561 3.14235 0
M  V30 2350 H 215.997 -0.464955 3.85305 0
M  V30 2351 H 214.098 -2.61801 2.65124 0
M  V30 2352 H 214.211 -1.90574 4.39566 0
M  V30 2353 H 212.575 -1.10118 2.29665 0
M  V30 2354 H 213.358 0.126679 3.43066 0
M  V30 2355 N 215.803 -1.52179 -0.40978 0
M  V30 2356 C 217.08 -1.56769 -1.16974 0
M  V30 2357 C 217.46 -0.348322 -2.08206 0
M  V30 2358 O 216.808 0.664862 -2.18613 0
M  V30 2359 C 217.018 -2.89603 -1.9476 0
M  V30 2360 C 218.366 -3.42579 -2.50849 0
M  V30 2361 O 219.39 -2.91338 -2.04941 0
M  V30 2362 O 218.249 -4.32054 -3.34652 0
M  V30 2363 H 215.343 -0.631439 -0.534054 0
M  V30 2364 H 217.889 -1.64507 -0.416613 0
M  V30 2365 H 216.661 -3.698 -1.27921 0
M  V30 2366 H 216.284 -2.85155 -2.77079 0
M  V30 2367 N 217.281 0.66697 -1.42791 0
M  V30 2368 C 218.509 1.45505 -1.47091 0
M  V30 2369 C 218.924 1.8861 -0.0845873 0
M  V30 2370 O 218.281 1.58632 0.90234 0
M  V30 2371 C 218.332 2.69906 -2.40485 0
M  V30 2372 O 218.053 2.28608 -3.73725 0
M  V30 2373 C 219.554 3.63396 -2.53886 0
M  V30 2374 H 216.774 0.447459 -0.500022 0
M  V30 2375 H 219.318 0.818866 -1.8739 0
M  V30 2376 H 217.473 3.29696 -2.03419 0
M  V30 2377 H 217.887 3.08997 -4.23817 0
M  V30 2378 H 219.361 4.47387 -3.2334 0
M  V30 2379 H 219.838 4.09824 -1.57927 0
M  V30 2380 H 220.444 3.09495 -2.91706 0
M  V30 2381 N 218.759 1.29093 0.90403 0
M  V30 2382 C 220.006 1.16813 1.65411 0
M  V30 2383 C 220.334 -0.28128 1.92455 0
M  V30 2384 O 219.589 -1.22006 1.53013 0
M  V30 2385 C 219.888 1.92224 3.01305 0
M  V30 2386 C 219.554 3.41968 2.93885 0
M  V30 2387 C 218.216 3.82807 2.91569 0
M  V30 2388 C 220.568 4.37409 2.83413 0
M  V30 2389 C 217.896 5.1741 2.76594 0
M  V30 2390 C 220.248 5.72097 2.69977 0
M  V30 2391 C 218.912 6.12199 2.66024 0
M  V30 2392 H 218.182 0.42745 0.605283 0
M  V30 2393 H 220.829 1.59981 1.05254 0
M  V30 2394 H 219.134 1.41635 3.65304 0
M  V30 2395 H 220.831 1.80131 3.58265 0
M  V30 2396 H 217.421 3.09504 2.96488 0
M  V30 2397 H 221.605 4.06813 2.84283 0
M  V30 2398 H 216.861 5.47596 2.71935 0
M  V30 2399 H 221.035 6.45704 2.60844 0
M  V30 2400 H 218.662 7.16448 2.54178 0
M  V30 2401 N 220.237 -1.11381 1.11499 0
M  V30 2402 C 221.484 -1.83132 0.864231 0
M  V30 2403 C 221.812 -1.84683 -0.610114 0
M  V30 2404 O 221.067 -1.29589 -1.46646 0
M  V30 2405 C 221.366 -3.30026 1.37177 0
M  V30 2406 C 221.032 -3.48634 2.85946 0
M  V30 2407 C 219.694 -3.53421 3.26569 0
M  V30 2408 C 222.046 -3.54837 3.81759 0
M  V30 2409 C 219.374 -3.61967 4.61733 0
M  V30 2410 C 221.726 -3.64915 5.1674 0
M  V30 2411 C 220.39 -3.67962 5.5692 0
M  V30 2412 H 219.66 -0.670127 0.316245 0
M  V30 2413 H 222.307 -1.31354 1.3935 0
M  V30 2414 H 220.612 -3.84304 0.762753 0
M  V30 2415 H 222.309 -3.84034 1.15408 0
M  V30 2416 H 218.899 -3.45579 2.53521 0
M  V30 2417 H 223.083 -3.50399 3.51474 0
M  V30 2418 H 218.339 -3.62603 4.92269 0
M  V30 2419 H 222.513 -3.68658 5.90816 0
M  V30 2420 H 220.14 -3.74336 6.61647 0
M  V30 2421 N 221.715 -0.905404 -1.28997 0
M  V30 2422 C 223.131 -0.60233 -1.47798 0
M  V30 2423 C 223.331 0.854645 -1.82478 0
M  V30 2424 O 222.387 1.63439 -1.92468 0
M  V30 2425 C 223.7 -1.53306 -2.58685 0
M  V30 2426 C 225.248 -1.53887 -2.72558 0
M  V30 2427 C 225.723 -2.45602 -3.86579 0
M  V30 2428 N 227.214 -2.43681 -3.93921 0
M  V30 2429 C 227.949 -3.11347 -4.81509 0
M  V30 2430 N 227.445 -3.88313 -5.73746 0
M  V30 2431 N 229.238 -3.00476 -4.75048 0
M  V30 2432 H 221.389 -1.84765 -1.04764 0
M  V30 2433 H 223.652 -0.792025 -0.520961 0
M  V30 2434 H 223.358 -2.57141 -2.39941 0
M  V30 2435 H 223.232 -1.25787 -3.55609 0
M  V30 2436 H 225.619 -0.507941 -2.90696 0
M  V30 2437 H 225.7 -1.85447 -1.76191 0
M  V30 2438 H 225.344 -3.48792 -3.69197 0
M  V30 2439 H 225.274 -2.11349 -4.82327 0
M  V30 2440 H 227.765 -1.87767 -3.27951 0
M  V30 2441 H 228.078 -4.36985 -6.37389 0
M  V30 2442 H 226.423 -3.92419 -5.73614 0
M  V30 2443 H 229.614 -2.39858 -4.01977 0
M  V30 2444 H 229.787 -3.53485 -5.43095 0
M  V30 2445 N 223.193 1.4272 -0.668489 0
M  V30 2446 C 224.141 2.32586 0.0254857 0
M  V30 2447 C 225.135 1.49471 0.797176 0
M  V30 2448 O 226.341 1.65583 0.705853 0
M  V30 2449 H 222.716 0.751514 0.0270339 0
M  V30 2450 H 224.687 2.88823 -0.749936 0
M  V30 2451 C 223.436 3.3397 0.967427 0
M  V30 2452 H 222.759 3.97961 0.383048 0
M  V30 2453 H 224.199 3.9945 1.42181 0
M  V30 2454 C 222.658 2.65744 2.0708 0
M  V30 2455 O 223.188 2.48454 3.15648 0
M  V30 2456 N 221.394 2.2487 1.8407 0
M  V30 2457 H 220.941 2.39132 0.95778 0
M  V30 2458 H 220.899 1.79552 2.58086 0
M  V30 2459 N 224.671 0.411399 1.52136 0
M  V30 2460 C 225.896 -0.165538 2.06738 0
M  V30 2461 C 226.321 -1.379 1.27926 0
M  V30 2462 O 225.679 -1.78628 0.310114 0
M  V30 2463 C 225.727 -0.492124 3.57226 0
M  V30 2464 O 224.831 -1.58276 3.80818 0
M  V30 2465 H 224.172 -0.0132132 0.663869 0
M  V30 2466 H 226.702 0.585253 1.96051 0
M  V30 2467 H 226.712 -0.750104 4.01045 0
M  V30 2468 H 225.387 0.394922 4.14021 0
M  V30 2469 H 223.964 -1.31677 3.48877 0
M  V30 2470 N 226.149 -1.5696 0.141893 0
M  V30 2471 C 227.565 -1.58151 -0.21456 0
M  V30 2472 C 227.765 -1.1559 -1.65049 0
M  V30 2473 O 226.821 -0.853832 -2.37626 0
M  V30 2474 C 228.134 -3.00674 0.0395576 0
M  V30 2475 C 229.682 -3.1299 -0.0245529 0
M  V30 2476 C 230.157 -4.57554 0.202167 0
M  V30 2477 N 231.648 -4.62961 0.148919 0
M  V30 2478 C 232.383 -5.7262 0.298924 0
M  V30 2479 N 231.879 -6.90947 0.50637 0
M  V30 2480 N 233.672 -5.61601 0.236886 0
M  V30 2481 H 225.823 -1.8292 1.07953 0
M  V30 2482 H 228.086 -0.846425 0.42693 0
M  V30 2483 H 227.792 -3.36183 1.03315 0
M  V30 2484 H 227.666 -3.70981 -0.682143 0
M  V30 2485 H 230.053 -2.77326 -1.00869 0
M  V30 2486 H 230.134 -2.4518 0.729396 0
M  V30 2487 H 229.778 -4.93922 1.18338 0
M  V30 2488 H 229.708 -5.23484 -0.572044 0
M  V30 2489 H 232.199 -3.77899 -0.00697015 0
M  V30 2490 H 232.512 -7.7038 0.611076 0
M  V30 2491 H 230.857 -6.92878 0.542628 0
M  V30 2492 H 234.048 -4.68039 0.0756209 0
M  V30 2493 H 234.221 -6.47015 0.357227 0
M  V30 2494 N 227.627 0.131896 -1.57047 0
M  V30 2495 C 228.574 1.16236 -1.99393 0
M  V30 2496 C 229.544 1.41863 -0.863943 0
M  V30 2497 O 230.729 1.53946 -1.12718 0
M  V30 2498 C 227.869 2.48708 -2.39245 0
M  V30 2499 C 226.982 2.30127 -3.65603 0
M  V30 2500 C 226.117 3.55738 -3.94492 0
M  V30 2501 C 225.156 3.32259 -5.14073 0
M  V30 2502 N 224.293 4.50039 -5.38896 0
M  V30 2503 H 229.133 0.794251 -2.87221 0
M  V30 2504 H 226.67 0.380707 -1.42088 0
M  V30 2505 H 228.628 3.25969 -2.60384 0
M  V30 2506 H 227.258 2.83437 -1.54478 0
M  V30 2507 H 226.31 1.43845 -3.52154 0
M  V30 2508 H 227.622 2.08746 -4.5302 0
M  V30 2509 H 226.776 4.41423 -4.1621 0
M  V30 2510 H 225.515 3.80138 -3.05526 0
M  V30 2511 H 224.52 2.44963 -4.92212 0
M  V30 2512 H 225.745 3.09242 -6.04604 0
M  V30 2513 H 223.691 4.74584 -4.52886 0
M  V30 2514 H 223.608 4.31716 -6.2061 0
M  V30 2515 H 224.876 5.36895 -5.65123 0
M  V30 2516 N 229.106 1.52395 0.401703 0
M  V30 2517 C 230.331 1.70972 1.17403 0
M  V30 2518 C 230.756 0.421615 1.83314 0
M  V30 2519 O 230.114 -0.621564 1.70312 0
M  V30 2520 C 230.162 2.85151 2.20728 0
M  V30 2521 O 229.266 2.51238 3.27037 0
M  V30 2522 H 228.607 0.568927 0.342372 0
M  V30 2523 H 231.137 1.99131 0.469891 0
M  V30 2524 H 231.147 3.10279 2.64936 0
M  V30 2525 H 229.822 3.78603 1.7214 0
M  V30 2526 H 228.399 2.36808 2.88057 0
M  V30 2527 N 230.584 -0.659388 1.43143 0
M  V30 2528 C 231.861 -1.41627 1.34912 0
M  V30 2529 C 232.241 -2.11099 -0.00607785 0
M  V30 2530 O 231.589 -2.04353 -1.02236 0
M  V30 2531 C 231.799 -2.40604 2.52805 0
M  V30 2532 C 233.147 -3.04789 2.95616 0
M  V30 2533 O 234.171 -2.50932 2.52807 0
M  V30 2534 O 233.03 -4.02421 3.69756 0
M  V30 2535 H 230.124 -0.63246 0.532844 0
M  V30 2536 H 232.67 -0.686814 1.5518 0
M  V30 2537 H 231.442 -1.88174 3.43083 0
M  V30 2538 H 231.065 -3.21009 2.34604 0
M  V30 2539 N 232.062 -1.29571 -0.897171 0
M  V30 2540 C 233.025 -1.14913 -1.98312 0
M  V30 2541 C 234.025 -0.0838629 -1.60581 0
M  V30 2542 O 235.215 -0.331006 -1.71026 0
M  V30 2543 C 232.347 -0.757835 -3.3237 0
M  V30 2544 H 233.54 -2.11377 -2.12743 0
M  V30 2545 H 231.093 -1.12793 -1.08201 0
M  V30 2546 H 231.828 0.206837 -3.2364 0
M  V30 2547 H 231.613 -1.52755 -3.61121 0
M  V30 2548 H 233.103 -0.678408 -4.12053 0
M  V30 2549 N 233.54 1.10788 -1.12088 0
M  V30 2550 C 234.49 2.15158 -0.754401 0
M  V30 2551 C 235.474 1.59026 0.244846 0
M  V30 2552 O 236.666 1.76927 0.0509097 0
M  V30 2553 C 233.795 3.42677 -0.206657 0
M  V30 2554 C 232.881 4.05751 -1.23398 0
M  V30 2555 N 233.272 4.43582 -2.43041 0
M  V30 2556 C 231.57 4.32764 -1.07848 0
M  V30 2557 C 232.271 4.93085 -3.08613 0
M  V30 2558 N 231.247 4.89664 -2.36072 0
M  V30 2559 H 235.049 2.42195 -1.6649 0
M  V30 2560 H 232.563 1.27872 -1.00112 0
M  V30 2561 H 234.56 4.16834 0.0740646 0
M  V30 2562 H 233.22 3.17101 0.698342 0
M  V30 2563 H 234.231 4.35395 -2.80449 0
M  V30 2564 H 230.908 4.16863 -0.230483 0
M  V30 2565 H 232.298 5.31933 -4.10483 0
M  V30 2566 N 235.018 0.912232 1.28515 0
M  V30 2567 C 236.264 0.554851 1.95686 0
M  V30 2568 C 236.619 -0.89138 1.70506 0
M  V30 2569 O 235.912 -1.62529 1.01464 0
M  V30 2570 C 236.106 0.798392 3.48368 0
M  V30 2571 C 235.935 2.26674 3.88393 0
M  V30 2572 C 234.705 2.91657 4.12631 0
M  V30 2573 C 236.903 3.24303 3.99164 0
M  V30 2574 N 234.885 4.28805 4.39317 0
M  V30 2575 C 236.256 4.4661 4.30046 0
M  V30 2576 C 238.311 3.19723 3.81683 0
M  V30 2577 C 237.014 5.64915 4.45268 0
M  V30 2578 C 239.04 4.37325 3.98121 0
M  V30 2579 C 238.402 5.58406 4.29375 0
M  V30 2580 H 234.501 0.252876 0.739985 0
M  V30 2581 H 237.085 1.17565 1.55199 0
M  V30 2582 H 235.256 0.20688 3.87849 0
M  V30 2583 H 236.988 0.405193 4.02666 0
M  V30 2584 H 233.743 2.42393 4.06869 0
M  V30 2585 H 234.167 4.99712 4.56746 0
M  V30 2586 H 238.809 2.27191 3.56573 0
M  V30 2587 H 236.527 6.57927 4.6921 0
M  V30 2588 H 240.113 4.35282 3.86033 0
M  V30 2589 H 238.993 6.47889 4.41825 0
M  V30 2590 N 236.496 -1.42363 0.676048 0
M  V30 2591 C 237.745 -2.00745 0.196037 0
M  V30 2592 C 238.058 -1.54083 -1.20489 0
M  V30 2593 O 239.264 -2.04891 -1.78134 0
M  V30 2594 C 237.72 -3.58651 0.299616 0
M  V30 2595 C 237.328 -4.143 1.70468 0
M  V30 2596 C 239.072 -4.24326 -0.121619 0
M  V30 2597 C 236.979 -5.64574 1.76096 0
M  V30 2598 H 235.909 -0.750787 0.0695301 0
M  V30 2599 H 238.56 -1.63072 0.841412 0
M  V30 2600 H 236.942 -3.93833 -0.413673 0
M  V30 2601 H 238.116 -3.90575 2.44515 0
M  V30 2602 H 236.431 -3.61081 2.07387 0
M  V30 2603 H 239.028 -5.34607 -0.0997362 0
M  V30 2604 H 239.371 -3.99897 -1.15708 0
M  V30 2605 H 239.904 -3.94108 0.540706 0
M  V30 2606 H 236.643 -5.93804 2.77628 0
M  V30 2607 H 236.163 -5.90286 1.06406 0
M  V30 2608 H 237.842 -6.29013 1.51496 0
M  V30 2609 N 237.974 -0.419461 -1.51915 0
M  V30 2610 C 239.202 0.152136 -2.0634 0
M  V30 2611 C 239.617 1.37988 -1.28859 0
M  V30 2612 O 238.974 1.79243 -0.343232 0
M  V30 2613 C 239.025 0.492266 -3.58133 0
M  V30 2614 O 238.746 -0.686736 -4.32684 0
M  V30 2615 C 240.247 1.11648 -4.2901 0
M  V30 2616 H 237.467 0.0158325 -0.670813 0
M  V30 2617 H 240.011 -0.593394 -1.95702 0
M  V30 2618 H 238.166 1.18769 -3.68745 0
M  V30 2619 H 238.58 -0.400341 -5.2297 0
M  V30 2620 H 240.054 1.3046 -5.36362 0
M  V30 2621 H 240.531 2.09251 -3.86148 0
M  V30 2622 H 241.137 0.460958 -4.22795 0
M  V30 2623 N 239.452 1.56882 -0.150215 0
M  V30 2624 C 240.68 2.00593 0.506948 0
M  V30 2625 C 241.095 1.03033 1.58208 0
M  V30 2626 O 240.452 0.0278396 1.82479 0
M  V30 2627 C 240.503 3.44209 1.10465 0
M  V30 2628 O 240.224 4.3804 0.0724636 0
M  V30 2629 C 241.725 4.03214 1.84211 0
M  V30 2630 H 238.945 0.65795 0.13169 0
M  V30 2631 H 241.489 2.03018 -0.245743 0
M  V30 2632 H 239.644 3.42625 1.80795 0
M  V30 2633 H 240.058 5.22007 0.510793 0
M  V30 2634 H 241.532 5.0569 2.21318 0
M  V30 2635 H 242.009 3.44107 2.72923 0
M  V30 2636 H 242.615 4.08437 1.18572 0
M  V30 2637 N 240.93 -0.123565 1.57115 0
M  V30 2638 C 242.341 -0.681198 1.73829 0
M  V30 2639 C 242.692 -1.80535 0.768214 0
M  V30 2640 O 241.817 -2.16317 -0.0599103 0
M  V30 2641 C 242.412 -1.24246 3.15196 0
M  V30 2642 C 240.971 -1.74643 3.33432 0
M  V30 2643 C 240.118 -0.644284 2.69711 0
M  V30 2644 H 243.069 0.102315 1.5837 0
M  V30 2645 H 243.09 -2.11216 3.16493 0
M  V30 2646 H 242.602 -0.424062 3.85776 0
M  V30 2647 H 240.703 -2.58974 2.67886 0
M  V30 2648 H 240.816 -1.85902 4.41562 0
M  V30 2649 H 239.18 -1.07676 2.3082 0
M  V30 2650 H 239.963 0.163058 3.42913 0
M  V30 2651 N 242.408 -1.52605 -0.393616 0
M  V30 2652 C 243.356 -1.77688 -1.50099 0
M  V30 2653 C 244.35 -0.644615 -1.56656 0
M  V30 2654 O 245.556 -0.826997 -1.59877 0
M  V30 2655 H 241.931 -0.562159 -0.499481 0
M  V30 2656 H 243.902 -2.7043 -1.26135 0
M  V30 2657 C 242.651 -1.95858 -2.87289 0
M  V30 2658 H 241.974 -2.8241 -2.82992 0
M  V30 2659 H 243.414 -2.174 -3.64024 0
M  V30 2660 C 241.873 -0.729848 -3.28899 0
M  V30 2661 O 242.403 0.0949217 -4.01588 0
M  V30 2662 N 240.609 -0.561283 -2.85128 0
M  V30 2663 H 240.156 -1.23357 -2.26143 0
M  V30 2664 H 240.114 0.2595 -3.13327 0
M  V30 2665 N 243.887 0.651787 -1.4349 0
M  V30 2666 C 245.303 0.96762 -1.26922 0
M  V30 2667 C 245.503 2.00602 -0.189982 0
M  V30 2668 O 244.559 2.48793 0.431107 0
M  V30 2669 C 245.872 1.45052 -2.63401 0
M  V30 2670 C 247.42 1.5671 -2.70945 0
M  V30 2671 C 247.895 2.0839 -4.07845 0
M  V30 2672 N 249.386 2.1569 -4.09917 0
M  V30 2673 C 250.121 2.56804 -5.12679 0
M  V30 2674 N 249.617 2.97203 -6.25813 0
M  V30 2675 N 251.41 2.56756 -5.00033 0
M  V30 2676 H 243.561 -0.0353158 -2.12371 0
M  V30 2677 H 245.824 0.0467858 -0.946845 0
M  V30 2678 H 245.53 0.761926 -3.43348 0
M  V30 2679 H 245.404 2.42529 -2.88894 0
M  V30 2680 H 247.791 2.2467 -1.9133 0
M  V30 2681 H 247.872 0.57662 -2.49216 0
M  V30 2682 H 247.516 1.41031 -4.87927 0
M  V30 2683 H 247.446 3.08271 -4.26938 0
M  V30 2684 H 249.937 1.87237 -3.28254 0
M  V30 2685 H 250.25 3.27328 -7.00055 0
M  V30 2686 H 248.595 2.95004 -6.29283 0
M  V30 2687 H 251.786 2.24572 -4.10713 0
M  V30 2688 H 251.959 2.88475 -5.80247 0
M  V30 2689 N 245.365 1.30045 0.890287 0
M  V30 2690 C 246.295 1.18541 2.01172 0
M  V30 2691 C 247.276 0.0773356 1.69924 0
M  V30 2692 O 248.461 0.25845 1.92473 0
M  V30 2693 C 245.591 0.870941 3.36202 0
M  V30 2694 C 244.545 1.93637 3.81692 0
M  V30 2695 C 243.871 1.475 5.13953 0
M  V30 2696 C 245.171 3.34666 4.00994 0
M  V30 2697 H 246.865 2.12359 2.11054 0
M  V30 2698 H 244.411 1.02238 1.01407 0
M  V30 2699 H 246.364 0.777141 4.14172 0
M  V30 2700 H 245.088 -0.102926 3.26438 0
M  V30 2701 H 243.747 2.01972 3.05946 0
M  V30 2702 H 243.395 0.489551 5.00612 0
M  V30 2703 H 243.095 2.1876 5.4536 0
M  V30 2704 H 244.619 1.39489 5.94454 0
M  V30 2705 H 246.033 3.2912 4.69417 0
M  V30 2706 H 244.43 4.03966 4.43769 0
M  V30 2707 H 245.5 3.76949 3.05021 0
M  V30 2708 N 246.843 -1.10192 1.12674 0
M  V30 2709 C 247.773 -2.18652 0.819362 0
M  V30 2710 C 248.754 -1.68698 -0.217915 0
M  V30 2711 O 249.939 -1.94041 -0.0785581 0
M  V30 2712 C 247.069 -3.46202 0.27594 0
M  V30 2713 C 246.023 -4.09444 1.24656 0
M  V30 2714 C 245.349 -5.31725 0.563258 0
M  V30 2715 C 246.649 -4.52863 2.60217 0
M  V30 2716 H 248.343 -2.44622 1.72628 0
M  V30 2717 H 245.889 -1.17571 0.831451 0
M  V30 2718 H 247.842 -4.21372 0.0486149 0
M  V30 2719 H 246.566 -3.1973 -0.666331 0
M  V30 2720 H 245.225 -3.36284 1.45974 0
M  V30 2721 H 244.873 -5.0153 -0.384235 0
M  V30 2722 H 244.573 -5.74991 1.21075 0
M  V30 2723 H 246.097 -6.09624 0.34503 0
M  V30 2724 H 247.511 -5.19294 2.42913 0
M  V30 2725 H 245.908 -5.06986 3.21068 0
M  V30 2726 H 246.978 -3.65656 3.18471 0
M  V30 2727 N 248.321 -0.919034 -1.28029 0
M  V30 2728 C 249.737 -0.617972 -1.4715 0
M  V30 2729 C 249.937 0.835242 -1.83374 0
M  V30 2730 O 248.993 1.61388 -1.94191 0
M  V30 2731 C 250.306 -1.56041 -2.57044 0
M  V30 2732 C 251.854 -1.56769 -2.7091 0
M  V30 2733 C 252.329 -2.49688 -3.83953 0
M  V30 2734 N 253.82 -2.47845 -3.91314 0
M  V30 2735 C 254.555 -3.16437 -4.78179 0
M  V30 2736 N 254.051 -3.94376 -5.69596 0
M  V30 2737 N 255.844 -3.05498 -4.71834 0
M  V30 2738 H 247.995 -1.85866 -1.02798 0
M  V30 2739 H 250.258 -0.797506 -0.512531 0
M  V30 2740 H 249.964 -2.59671 -2.372 0
M  V30 2741 H 249.838 -1.29551 -3.54255 0
M  V30 2742 H 252.225 -0.538745 -2.90141 0
M  V30 2743 H 252.306 -1.87305 -1.74214 0
M  V30 2744 H 251.95 -3.52688 -3.65477 0
M  V30 2745 H 251.88 -2.16453 -4.80058 0
M  V30 2746 H 254.371 -1.91234 -3.25941 0
M  V30 2747 H 254.684 -4.43721 -6.32718 0
M  V30 2748 H 253.029 -3.98481 -5.69419 0
M  V30 2749 H 256.22 -2.44108 -3.99411 0
M  V30 2750 H 256.393 -3.59225 -5.39316 0
M  V30 2751 N 249.799 1.42003 -0.683588 0
M  V30 2752 C 251.048 2.00638 -0.206681 0
M  V30 2753 C 251.361 1.5472 1.19671 0
M  V30 2754 O 252.567 2.05833 1.77045 0
M  V30 2755 C 251.023 3.58487 -0.318632 0
M  V30 2756 C 250.631 4.1339 -1.72663 0
M  V30 2757 C 252.375 4.24384 0.0991141 0
M  V30 2758 C 250.282 5.63633 -1.79087 0
M  V30 2759 H 249.212 0.750408 -0.0735107 0
M  V30 2760 H 251.863 1.62624 -0.850048 0
M  V30 2761 H 250.245 3.94047 0.392781 0
M  V30 2762 H 251.419 3.89273 -2.46583 0
M  V30 2763 H 249.734 3.59976 -2.09299 0
M  V30 2764 H 252.331 5.34652 0.0713833 0
M  V30 2765 H 252.674 4.00505 1.13586 0
M  V30 2766 H 253.207 3.93816 -0.561599 0
M  V30 2767 H 249.946 5.92323 -2.80774 0
M  V30 2768 H 249.466 5.89714 -1.09535 0
M  V30 2769 H 251.145 6.28201 -1.5483 0
M  V30 2770 N 251.277 0.427512 1.51691 0
M  V30 2771 C 252.523 -0.134744 2.02953 0
M  V30 2772 C 252.878 -1.41235 1.30654 0
M  V30 2773 O 252.171 -1.87168 0.409713 0
M  V30 2774 C 252.365 -0.418249 3.54944 0
M  V30 2775 C 252.194 0.830327 4.41968 0
M  V30 2776 C 250.964 1.36097 4.86627 0
M  V30 2777 C 253.162 1.7137 4.84909 0
M  V30 2778 N 251.144 2.56311 5.57833 0
M  V30 2779 C 252.515 2.76195 5.55082 0
M  V30 2780 C 254.57 1.72928 4.66905 0
M  V30 2781 C 253.273 3.82512 6.09161 0
M  V30 2782 C 255.299 2.78175 5.21894 0
M  V30 2783 C 254.661 3.8172 5.92004 0
M  V30 2784 H 250.76 -0.0103958 0.781931 0
M  V30 2785 H 253.344 0.585981 1.85673 0
M  V30 2786 H 251.515 -1.10801 3.7226 0
M  V30 2787 H 253.247 -0.970999 3.92879 0
M  V30 2788 H 250.002 0.916311 4.64651 0
M  V30 2789 H 250.426 3.17242 5.98069 0
M  V30 2790 H 255.068 0.942081 4.12171 0
M  V30 2791 H 252.786 4.62077 6.62956 0
M  V30 2792 H 256.372 2.8031 5.09821 0
M  V30 2793 H 255.252 4.61821 6.33791 0
M  V30 2794 N 252.755 -1.56801 0.158532 0
M  V30 2795 C 253.703 -2.18638 -0.793729 0
M  V30 2796 C 254.697 -1.14669 -1.24689 0
M  V30 2797 O 255.903 -1.32895 -1.21403 0
M  V30 2798 H 252.278 -0.700226 -0.274204 0
M  V30 2799 H 254.249 -2.97367 -0.248095 0
M  V30 2800 C 252.998 -2.83139 -2.0181 0
M  V30 2801 H 252.321 -3.62863 -1.67841 0
M  V30 2802 H 253.761 -3.29894 -2.66357 0
M  V30 2803 C 252.22 -1.82244 -2.83353 0
M  V30 2804 O 252.75 -1.3 -3.80083 0
M  V30 2805 N 250.956 -1.51288 -2.48114 0
M  V30 2806 H 250.503 -1.93964 -1.69516 0
M  V30 2807 H 250.461 -0.840296 -3.02963 0
M  V30 2808 N 254.233 0.115231 -1.57178 0
M  V30 2809 C 255.51 0.852873 -1.76027 0
M  V30 2810 C 255.89 1.97892 -0.73498 0
M  V30 2811 O 255.238 2.27232 0.24036 0
M  V30 2812 C 255.448 1.36608 -3.21153 0
M  V30 2813 C 256.796 1.81692 -3.83762 0
M  V30 2814 O 257.82 1.46278 -3.24779 0
M  V30 2815 O 256.679 2.47104 -4.87444 0
M  V30 2816 H 253.773 0.405296 -0.720877 0
M  V30 2817 H 256.319 0.0986785 -1.69413 0
M  V30 2818 H 255.091 0.558357 -3.87296 0
M  V30 2819 H 254.714 2.18287 -3.3232 0
M  V30 2820 N 255.711 1.52812 0.385517 0
M  V30 2821 C 256.959 1.67694 1.12797 0
M  V30 2822 C 257.28 0.421115 1.90399 0
M  V30 2823 O 256.55 -0.564551 1.87589 0
M  V30 2824 H 255.13 0.618155 0.419396 0
M  V30 2825 H 257.792 1.89938 0.436972 0
M  V30 2826 H 256.888 2.52896 1.82894 0
M  V30 2827 N 257.189 -0.644168 1.43834 0
M  V30 2828 C 258.605 -0.960875 1.27434 0
M  V30 2829 C 258.805 -2.00499 0.200618 0
M  V30 2830 O 257.861 -2.49018 -0.417906 0
M  V30 2831 C 259.174 -1.43653 2.64167 0
M  V30 2832 C 260.722 -1.55271 2.71772 0
M  V30 2833 C 261.197 -2.06224 4.08944 0
M  V30 2834 N 262.688 -2.13513 4.11055 0
M  V30 2835 C 263.423 -2.54081 5.14033 0
M  V30 2836 N 262.919 -2.9388 6.27381 0
M  V30 2837 N 264.712 -2.54101 5.01387 0
M  V30 2838 H 256.863 0.0465779 2.12349 0
M  V30 2839 H 259.126 -0.0417638 0.94708 0
M  V30 2840 H 258.832 -0.743706 3.43747 0
M  V30 2841 H 258.706 -2.40993 2.90176 0
M  V30 2842 H 261.093 -2.23653 1.92519 0
M  V30 2843 H 261.174 -0.563395 2.49519 0
M  V30 2844 H 260.818 -1.38441 4.88668 0
M  V30 2845 H 260.748 -3.06003 4.28567 0
M  V30 2846 H 263.239 -1.85493 3.29242 0
M  V30 2847 H 263.552 -3.2361 7.01781 0
M  V30 2848 H 261.897 -2.91663 6.30839 0
M  V30 2849 H 265.088 -2.22391 4.11898 0
M  V30 2850 H 265.261 -2.85394 5.81768 0
M  V30 2851 N 258.668 -1.30515 -0.883378 0
M  V30 2852 C 259.914 -1.19607 -1.63774 0
M  V30 2853 C 260.247 0.248314 -1.92606 0
M  V30 2854 O 259.522 1.17742 -1.54813 0
M  V30 2855 C 259.805 -2.02669 -2.97653 0
M  V30 2856 C 259.658 -3.55335 -2.75784 0
M  V30 2857 C 260.977 -1.86573 -3.98596 0
M  V30 2858 H 258.096 -0.435856 -0.594305 0
M  V30 2859 H 260.738 -1.60165 -1.02212 0
M  V30 2860 H 258.888 -1.68208 -3.50197 0
M  V30 2861 H 260.56 -3.99863 -2.30016 0
M  V30 2862 H 258.803 -3.79438 -2.1026 0
M  V30 2863 H 259.474 -4.08745 -3.70988 0
M  V30 2864 H 261.95 -2.16703 -3.55217 0
M  V30 2865 H 260.826 -2.47014 -4.90179 0
M  V30 2866 H 261.087 -0.825321 -4.34328 0
M  V30 2867 N 260.146 1.09593 -1.13257 0
M  V30 2868 C 261.076 2.18214 -0.830946 0
M  V30 2869 C 262.057 1.68812 0.208966 0
M  V30 2870 O 263.242 1.9408 0.0682666 0
M  V30 2871 C 260.372 3.46051 -0.294296 0
M  V30 2872 C 259.326 4.08778 -1.26826 0
M  V30 2873 C 258.652 5.31419 -0.591449 0
M  V30 2874 C 259.952 4.51476 -2.62615 0
M  V30 2875 H 261.646 2.43703 -1.73923 0
M  V30 2876 H 259.192 1.17128 -0.837675 0
M  V30 2877 H 261.145 4.2134 -0.0709606 0
M  V30 2878 H 259.869 3.20079 0.649366 0
M  V30 2879 H 258.528 3.35505 -1.47756 0
M  V30 2880 H 258.176 5.01727 0.357633 0
M  V30 2881 H 257.876 5.74341 -1.24123 0
M  V30 2882 H 259.4 6.09433 -0.377355 0
M  V30 2883 H 260.814 5.17999 -2.45663 0
M  V30 2884 H 259.211 5.05277 -3.23752 0
M  V30 2885 H 260.281 3.63962 -3.20406 0
M  V30 2886 N 261.624 0.925811 1.2754 0
M  V30 2887 C 262.854 0.580666 1.98272 0
M  V30 2888 C 263.262 -0.845207 1.69272 0
M  V30 2889 O 262.605 -1.57306 0.948707 0
M  V30 2890 C 262.667 0.724418 3.52126 0
M  V30 2891 C 262.331 2.12206 4.04744 0
M  V30 2892 C 263.328 3.09604 4.17662 0
M  V30 2893 C 261.013 2.4385 4.39138 0
M  V30 2894 C 263.007 4.36755 4.64246 0
M  V30 2895 C 260.694 3.71237 4.85414 0
M  V30 2896 C 261.692 4.67503 4.97926 0
M  V30 2897 O 261.38 5.92624 5.43187 0
M  V30 2898 H 261.112 0.218987 0.639547 0
M  V30 2899 H 263.666 1.24452 1.63404 0
M  V30 2900 H 261.896 0.0034663 3.867 0
M  V30 2901 H 263.585 0.384607 4.04074 0
M  V30 2902 H 264.351 2.86478 3.91351 0
M  V30 2903 H 260.23 1.69665 4.28643 0
M  V30 2904 H 263.774 5.11898 4.73927 0
M  V30 2905 H 259.671 3.94182 5.11166 0
M  V30 2906 H 260.439 5.95585 5.61445 0
M  V30 2907 N 263.102 -1.41638 0.69111 0
M  V30 2908 C 264.33 -2.05628 0.22909 0
M  V30 2909 C 264.745 -1.51992 -1.11999 0
M  V30 2910 O 264.102 -0.666322 -1.69901 0
M  V30 2911 C 264.153 -3.61084 0.173283 0
M  V30 2912 O 263.874 -4.12735 1.46907 0
M  V30 2913 C 265.375 -4.42213 -0.310266 0
M  V30 2914 H 262.595 -0.662327 0.107534 0
M  V30 2915 H 265.139 -1.81489 0.942438 0
M  V30 2916 H 263.294 -3.84278 -0.490858 0
M  V30 2917 H 263.708 -5.06743 1.35322 0
M  V30 2918 H 265.182 -5.51194 -0.298196 0
M  V30 2919 H 265.659 -4.1799 -1.34838 0
M  V30 2920 H 266.265 -4.24074 0.322716 0
M  V30 2921 N 264.58 -0.43555 -1.51462 0
M  V30 2922 C 265.51 0.367376 -2.30592 0
M  V30 2923 C 266.491 1.02263 -1.35928 0
M  V30 2924 O 267.676 1.02661 -1.64847 0
M  V30 2925 C 264.806 1.46983 -3.14664 0
M  V30 2926 C 263.76 0.938161 -4.17591 0
M  V30 2927 C 263.086 2.13622 -4.90173 0
M  V30 2928 C 264.386 -0.0261621 -5.22293 0
M  V30 2929 H 266.08 -0.292969 -2.97963 0
M  V30 2930 H 263.626 -0.14234 -1.43295 0
M  V30 2931 H 265.579 2.03873 -3.688 0
M  V30 2932 H 264.303 2.15843 -2.4511 0
M  V30 2933 H 262.962 0.391481 -3.64504 0
M  V30 2934 H 262.61 2.81098 -4.17124 0
M  V30 2935 H 262.31 1.78688 -5.59772 0
M  V30 2936 H 263.834 2.7107 -5.47132 0
M  V30 2937 H 265.248 0.452384 -5.71512 0
M  V30 2938 H 263.645 -0.287992 -5.99409 0
M  V30 2939 H 264.715 -0.963391 -4.75233 0
M  V30 2940 N 266.058 1.56714 -0.166846 0
M  V30 2941 C 267.474 1.58473 0.189372 0
M  V30 2942 C 267.674 1.18201 1.63189 0
M  V30 2943 O 266.73 0.891528 2.36237 0
M  V30 2944 C 268.043 3.00573 -0.0873872 0
M  V30 2945 C 269.591 3.1299 -0.0252443 0
M  V30 2946 C 270.066 4.57174 -0.274934 0
M  V30 2947 N 271.557 4.62665 -0.222553 0
M  V30 2948 C 272.292 5.72072 -0.389985 0
M  V30 2949 N 271.788 6.90054 -0.616229 0
M  V30 2950 N 273.581 5.61153 -0.326202 0
M  V30 2951 H 265.732 1.8118 -1.10849 0
M  V30 2952 H 267.995 0.839525 -0.440342 0
M  V30 2953 H 267.701 3.34497 -1.0865 0
M  V30 2954 H 267.575 3.72019 0.623037 0
M  V30 2955 H 269.962 2.78895 0.96444 0
M  V30 2956 H 270.043 2.43989 -0.768309 0
M  V30 2957 H 269.687 4.91976 -1.26181 0
M  V30 2958 H 269.617 5.24328 0.48869 0
M  V30 2959 H 272.108 3.77863 -0.0531512 0
M  V30 2960 H 272.421 7.69311 -0.733559 0
M  V30 2961 H 270.766 6.91927 -0.652791 0
M  V30 2962 H 273.957 4.67859 -0.150072 0
M  V30 2963 H 274.13 6.46364 -0.460116 0
M  V30 2964 N 267.536 -0.106894 1.57237 0
M  V30 2965 C 268.466 -1.13148 2.04254 0
M  V30 2966 C 269.447 -1.42476 0.929224 0
M  V30 2967 O 270.632 -1.52709 1.19973 0
M  V30 2968 C 267.762 -2.4545 2.45706 0
M  V30 2969 C 266.716 -2.30558 3.60592 0
M  V30 2970 C 266.042 -3.67931 3.87983 0
M  V30 2971 C 267.342 -1.75597 4.91897 0
M  V30 2972 H 269.036 -0.740374 2.90101 0
M  V30 2973 H 266.582 -0.354696 1.39563 0
M  V30 2974 H 268.535 -3.17389 2.77205 0
M  V30 2975 H 267.259 -2.86475 1.56843 0
M  V30 2976 H 265.918 -1.61067 3.29322 0
M  V30 2977 H 265.566 -4.06462 2.96306 0
M  V30 2978 H 265.266 -3.58817 4.65322 0
M  V30 2979 H 266.79 -4.41356 4.21945 0
M  V30 2980 H 268.204 -2.37364 5.21854 0
M  V30 2981 H 266.601 -1.77272 5.73319 0
M  V30 2982 H 267.671 -0.714451 4.79608 0
M  V30 2983 N 269.014 -1.53014 -0.377408 0
M  V30 2984 C 270.242 -1.72515 -1.14219 0
M  V30 2985 C 270.657 -0.448735 -1.8339 0
M  V30 2986 O 270.014 0.577592 -1.73119 0
M  V30 2987 C 270.065 -2.8826 -2.18148 0
M  V30 2988 O 269.786 -4.10962 -1.51795 0
M  V30 2989 C 271.287 -3.19536 -3.07264 0
M  V30 2990 H 268.507 -0.577301 -0.342001 0
M  V30 2991 H 271.051 -1.99712 -0.439935 0
M  V30 2992 H 269.206 -2.63492 -2.83991 0
M  V30 2993 H 269.62 -4.75693 -2.20945 0
M  V30 2994 H 271.094 -4.03959 -3.76193 0
M  V30 2995 H 271.571 -2.34403 -3.71419 0
M  V30 2996 H 272.177 -3.46186 -2.47053 0
M  V30 2997 N 270.492 0.636531 -1.44174 0
M  V30 2998 C 271.741 1.39213 -1.45954 0
M  V30 2999 C 272.054 1.95374 -0.0939119 0
M  V30 3000 O 273.26 2.71498 0.0107767 0
M  V30 3001 C 271.716 2.52025 -2.56927 0
M  V30 3002 C 271.324 2.024 -3.99673 0
M  V30 3003 C 273.068 3.29269 -2.67922 0
M  V30 3004 C 270.975 3.12521 -5.0208 0
M  V30 3005 H 269.905 0.523132 -0.542999 0
M  V30 3006 H 272.556 0.685349 -1.70221 0
M  V30 3007 H 270.938 3.25253 -2.25891 0
M  V30 3008 H 272.112 1.36073 -4.40251 0
M  V30 3009 H 270.427 1.37987 -3.92872 0
M  V30 3010 H 273.024 4.11352 -3.41605 0
M  V30 3011 H 273.367 3.78397 -1.73555 0
M  V30 3012 H 273.9 2.63129 -2.98342 0
M  V30 3013 H 270.639 2.68343 -5.98057 0
M  V30 3014 H 270.159 3.77507 -4.66099 0
M  V30 3015 H 271.838 3.77385 -5.25538 0
M  V30 3016 N 271.97 1.30982 0.876444 0
M  V30 3017 C 272.918 1.18006 2.00443 0
M  V30 3018 C 273.912 0.0898871 1.69161 0
M  V30 3019 O 275.118 0.251333 1.78237 0
M  V30 3020 H 271.493 0.365196 0.65737 0
M  V30 3021 H 273.464 2.13453 2.0852 0
M  V30 3022 C 272.213 0.897521 3.35916 0
M  V30 3023 H 271.536 1.7285 3.60504 0
M  V30 3024 H 272.976 0.846874 4.15456 0
M  V30 3025 C 271.435 -0.399674 3.34521 0
M  V30 3026 O 271.965 -1.41852 3.7582 0
M  V30 3027 N 270.171 -0.413893 2.87637 0
M  V30 3028 H 269.718 0.41571 2.54224 0
M  V30 3029 H 269.676 -1.28175 2.87086 0
M  V30 3030 N 273.449 -1.08991 1.13837 0
M  V30 3031 C 274.412 -2.13925 0.822715 0
M  V30 3032 C 275.412 -1.599 -0.1699 0
M  V30 3033 O 276.602 -1.74104 0.0577251 0
M  V30 3034 C 273.734 -3.40155 0.225318 0
M  V30 3035 H 274.927 -2.43358 1.75262 0
M  V30 3036 H 272.48 -1.24603 0.943594 0
M  V30 3037 H 273.215 -3.16352 -0.713594 0
M  V30 3038 H 273 -3.80661 0.940193 0
M  V30 3039 H 274.49 -4.17594 0.0214784 0
M  V30 3040 N 274.927 -0.932562 -1.27047 0
M  V30 3041 C 275.837 -0.441219 -2.30414 0
M  V30 3042 C 276.853 0.480525 -1.67233 0
M  V30 3043 O 278.029 0.362151 -1.98117 0
M  V30 3044 C 275.094 0.293651 -3.45454 0
M  V30 3045 C 274.155 -0.663601 -4.2414 0
M  V30 3046 C 273.388 0.0362932 -5.33688 0
M  V30 3047 O 273.611 1.2548 -5.56427 0
M  V30 3048 O 272.545 -0.638015 -5.98509 0
M  V30 3049 H 276.371 -1.29962 -2.74488 0
M  V30 3050 H 273.956 -0.6981 -1.32087 0
M  V30 3051 H 275.838 0.707951 -4.15411 0
M  V30 3052 H 274.513 1.12758 -3.03426 0
M  V30 3053 H 273.42 -1.12768 -3.56699 0
M  V30 3054 H 274.753 -1.46489 -4.69896 0
M  V30 3055 N 276.405 1.4127 -0.698611 0
M  V30 3056 C 277.645 2.03044 -0.235062 0
M  V30 3057 C 278.009 1.54146 1.14468 0
M  V30 3058 O 279.21 2.07867 1.70425 0
M  V30 3059 C 277.481 3.56192 -0.293651 0
M  V30 3060 S 279.04 4.38696 0.0954053 0
M  V30 3061 H 275.858 0.704697 -0.0944648 0
M  V30 3062 H 278.46 1.72656 -0.917064 0
M  V30 3063 H 277.164 3.89274 -1.29977 0
M  V30 3064 H 276.695 3.91285 0.407397 0
M  V30 3065 H 278.71 4.78257 1.3223 0
M  V30 3066 N 277.883 0.443576 1.51229 0
M  V30 3067 C 279.113 -0.119117 2.06256 0
M  V30 3068 C 279.521 -1.36471 1.31043 0
M  V30 3069 O 278.864 -1.80034 0.365151 0
M  V30 3070 C 278.926 -0.500546 3.55998 0
M  V30 3071 C 278.59 0.639125 4.52509 0
M  V30 3072 C 279.587 1.51311 4.97394 0
M  V30 3073 C 277.272 0.821632 4.95535 0
M  V30 3074 C 279.266 2.55425 5.83984 0
M  V30 3075 C 276.953 1.86603 5.81913 0
M  V30 3076 C 277.951 2.73072 6.26036 0
M  V30 3077 O 277.639 3.75718 7.10698 0
M  V30 3078 H 277.371 -0.00857665 0.675946 0
M  V30 3079 H 279.925 0.623288 1.95715 0
M  V30 3080 H 278.155 -1.29575 3.64345 0
M  V30 3081 H 279.844 -0.995116 3.93513 0
M  V30 3082 H 280.61 1.38367 4.64844 0
M  V30 3083 H 276.489 0.158149 4.60729 0
M  V30 3084 H 280.033 3.22949 6.18344 0
M  V30 3085 H 275.93 1.99564 6.13876 0
M  V30 3086 H 276.698 3.72374 7.2889 0
M  V30 3087 N 279.361 -1.56624 0.175154 0
M  V30 3088 C 280.291 -2.21155 -0.749195 0
M  V30 3089 C 281.272 -1.16836 -1.23626 0
M  V30 3090 O 282.457 -1.45277 -1.28873 0
M  V30 3091 C 279.587 -2.8553 -1.97711 0
M  V30 3092 C 278.541 -3.95921 -1.62575 0
M  V30 3093 C 277.867 -4.47365 -2.92864 0
M  V30 3094 C 279.167 -5.15323 -0.850838 0
M  V30 3095 H 280.861 -2.98653 -0.211295 0
M  V30 3096 H 278.407 -1.43651 -0.100188 0
M  V30 3097 H 280.36 -3.2935 -2.62881 0
M  V30 3098 H 279.084 -2.05406 -2.53921 0
M  V30 3099 H 277.743 -3.52762 -0.997719 0
M  V30 3100 H 277.391 -3.64027 -3.47122 0
M  V30 3101 H 277.091 -5.21839 -2.70106 0
M  V30 3102 H 278.615 -4.93873 -3.59056 0
M  V30 3103 H 280.029 -5.55812 -1.40521 0
M  V30 3104 H 278.426 -5.95739 -0.722154 0
M  V30 3105 H 279.496 -4.84661 0.152082 0
M  V30 3106 N 280.839 0.0985539 -1.57292 0
M  V30 3107 C 281.771 1.14595 -1.98496 0
M  V30 3108 C 282.784 1.36512 -0.887031 0
M  V30 3109 O 283.973 1.35225 -1.16518 0
M  V30 3110 C 281.073 2.50216 -2.28572 0
M  V30 3111 C 280.246 2.48624 -3.59868 0
M  V30 3112 C 279.305 3.66146 -3.7792 0
M  V30 3113 O 278.331 3.48795 -4.49812 0
M  V30 3114 N 279.533 4.85496 -3.18235 0
M  V30 3115 H 282.298 0.795277 -2.88956 0
M  V30 3116 H 279.859 0.287579 -1.59325 0
M  V30 3117 H 281.851 3.27432 -2.37845 0
M  V30 3118 H 280.421 2.77387 -1.44136 0
M  V30 3119 H 279.641 1.56978 -3.61596 0
M  V30 3120 H 280.929 2.44635 -4.46129 0
M  V30 3121 H 280.327 5.02497 -2.59833 0
M  V30 3122 H 278.884 5.60317 -3.32999 0
M  V30 3123 N 282.317 1.53212 0.369288 0
M  V30 3124 C 283.247 1.82365 1.45826 0
M  V30 3125 C 284.228 0.676907 1.56051 0
M  V30 3126 O 285.413 0.926401 1.70679 0
M  V30 3127 C 282.543 2.01023 2.83208 0
M  V30 3128 C 281.497 3.1678 2.8781 0
M  V30 3129 C 280.823 3.20724 4.27832 0
M  V30 3130 C 282.123 4.55447 2.55667 0
M  V30 3131 H 283.817 2.73559 1.21678 0
M  V30 3132 H 281.363 1.3163 0.583911 0
M  V30 3133 H 283.316 2.20001 3.59413 0
M  V30 3134 H 282.04 1.06536 3.08736 0
M  V30 3135 H 280.699 2.97616 2.14056 0
M  V30 3136 H 280.347 2.23882 4.50429 0
M  V30 3137 H 280.047 3.98496 4.31827 0
M  V30 3138 H 281.571 3.41881 5.05915 0
M  V30 3139 H 282.985 4.74611 3.21586 0
M  V30 3140 H 281.382 5.35432 2.70984 0
M  V30 3141 H 282.452 4.60812 1.5093 0
M  V30 3142 N 283.795 -0.628877 1.44509 0
M  V30 3143 C 284.745 -1.7345 1.47983 0
M  V30 3144 C 285.729 -1.5715 0.345373 0
M  V30 3145 O 286.921 -1.66848 0.590829 0
M  V30 3146 C 284.05 -3.12143 1.42904 0
M  V30 3147 C 283.136 -3.33906 2.61472 0
M  V30 3148 N 283.527 -3.26024 3.86706 0
M  V30 3149 C 281.825 -3.64709 2.56716 0
M  V30 3150 C 282.526 -3.48536 4.65722 0
M  V30 3151 N 281.502 -3.71517 3.96832 0
M  V30 3152 H 285.304 -1.65818 2.42655 0
M  V30 3153 H 282.818 -0.831419 1.39503 0
M  V30 3154 H 284.815 -3.91433 1.43476 0
M  V30 3155 H 283.475 -3.2094 0.492717 0
M  V30 3156 H 284.486 -3.04893 4.18641 0
M  V30 3157 H 281.163 -3.80473 1.71891 0
M  V30 3158 H 282.553 -3.48016 5.74747 0
M  V30 3159 N 285.273 -1.31445 -0.869486 0
M  V30 3160 C 286.221 -1.19067 -1.99814 0
M  V30 3161 C 287.215 -0.0988569 -1.69111 0
M  V30 3162 O 288.421 -0.260781 -1.78101 0
M  V30 3163 H 284.796 -0.368677 -0.655425 0
M  V30 3164 H 286.767 -2.14555 -2.07385 0
M  V30 3165 C 285.516 -0.915323 -3.35436 0
M  V30 3166 H 284.839 -1.74759 -3.59582 0
M  V30 3167 H 286.279 -0.868895 -4.15001 0
M  V30 3168 C 284.738 0.381928 -3.34728 0
M  V30 3169 O 285.268 1.39857 -3.76567 0
M  V30 3170 N 283.474 0.398633 -2.87853 0
M  V30 3171 H 283.021 -0.429186 -2.54 0
M  V30 3172 H 282.979 1.26651 -2.87762 0
M  V30 3173 N 286.751 1.08385 -1.14413 0
M  V30 3174 C 287.998 1.80776 -0.912482 0
M  V30 3175 C 288.326 1.86236 0.560934 0
M  V30 3176 O 287.581 1.33431 1.43159 0
M  V30 3177 C 287.88 3.26273 -1.45879 0
M  V30 3178 C 287.546 3.4093 -2.95089 0
M  V30 3179 C 286.208 3.44638 -3.35824 0
M  V30 3180 C 288.56 3.44591 -3.91033 0
M  V30 3181 C 285.888 3.49597 -4.71167 0
M  V30 3182 C 288.24 3.51086 -5.26233 0
M  V30 3183 C 286.904 3.53067 -5.6648 0
M  V30 3184 H 286.174 0.661507 -0.333901 0
M  V30 3185 H 288.821 1.27613 -1.42784 0
M  V30 3186 H 287.126 3.82146 -0.864376 0
M  V30 3187 H 288.823 3.80839 -1.2555 0
M  V30 3188 H 285.413 3.38736 -2.62594 0
M  V30 3189 H 289.597 3.40957 -3.60641 0
M  V30 3190 H 284.853 3.49424 -5.0171 0
M  V30 3191 H 289.027 3.52864 -6.00383 0
M  V30 3192 H 286.654 3.56662 -6.71339 0
M  V30 3193 N 288.23 0.939286 1.26551 0
M  V30 3194 C 289.641 0.628782 1.75793 0
M  V30 3195 C 289.992 -0.856046 1.7654 0
M  V30 3196 O 289.117 -1.66994 1.3763 0
M  V30 3197 C 289.712 1.13465 3.19235 0
M  V30 3198 C 288.271 0.874601 3.66098 0
M  V30 3199 C 287.418 1.28667 2.45642 0
M  V30 3200 H 290.369 1.1178 1.12654 0
M  V30 3201 H 290.39 0.487609 3.77363 0
M  V30 3202 H 289.902 2.21535 3.1866 0
M  V30 3203 H 288.003 -0.191793 3.72106 0
M  V30 3204 H 288.116 1.50028 4.55004 0
M  V30 3205 H 286.48 0.705109 2.44745 0
M  V30 3206 H 287.263 2.37625 2.47769 0
M  V30 3207 N 289.708 -1.40897 0.706093 0
M  V30 3208 C 290.641 -2.282 -0.00328781 0
M  V30 3209 C 291.619 -1.42816 -0.77732 0
M  V30 3210 O 292.803 -1.72237 -0.765944 0
M  V30 3211 C 289.93 -3.23226 -1.01205 0
M  V30 3212 C 288.976 -4.25222 -0.329955 0
M  V30 3213 S 289.809 -5.27269 0.935298 0
M  V30 3214 C 290.965 -6.25859 -0.0716061 0
M  V30 3215 H 291.198 -2.88016 0.737143 0
M  V30 3216 H 288.731 -1.46191 0.496756 0
M  V30 3217 H 290.689 -3.78503 -1.58888 0
M  V30 3218 H 289.35 -2.62485 -1.72513 0
M  V30 3219 H 288.543 -4.92023 -1.09221 0
M  V30 3220 H 288.145 -3.73595 0.174069 0
M  V30 3221 H 290.437 -6.71204 -0.921521 0
M  V30 3222 H 291.38 -7.0586 0.562765 0
M  V30 3223 H 291.788 -5.62852 -0.431088 0
M  V30 3224 N 291.186 -0.45159 -1.50991 0
M  V30 3225 C 292.463 0.170707 -1.94854 0
M  V30 3226 C 292.843 1.58788 -1.39103 0
M  V30 3227 O 292.191 2.20913 -0.583921 0
M  V30 3228 C 292.401 0.133929 -3.48743 0
M  V30 3229 C 293.749 0.33248 -4.23296 0
M  V30 3230 O 294.773 0.211403 -3.55572 0
M  V30 3231 O 293.632 0.57486 -5.43468 0
M  V30 3232 H 290.726 0.122264 -0.817912 0
M  V30 3233 H 293.272 -0.510594 -1.61836 0
M  V30 3234 H 292.044 -0.856283 -3.81816 0
M  V30 3235 H 291.667 0.857529 -3.88242 0
M  V30 3236 N 292.664 1.56529 -0.183458 0
M  V30 3237 C 293.574 2.22144 0.754272 0
M  V30 3238 C 294.59 1.21684 1.24374 0
M  V30 3239 O 295.766 1.54385 1.29333 0
M  V30 3240 C 292.831 2.85884 1.96141 0
M  V30 3241 C 291.892 4.01579 1.51765 0
M  V30 3242 C 291.125 4.6227 2.66725 0
M  V30 3243 O 291.348 4.21865 3.83909 0
M  V30 3244 O 290.282 5.51936 2.40104 0
M  V30 3245 H 294.108 3.02861 0.225527 0
M  V30 3246 H 291.693 1.49331 0.0453032 0
M  V30 3247 H 293.575 3.26253 2.66715 0
M  V30 3248 H 292.25 2.08154 2.47899 0
M  V30 3249 H 291.157 3.65856 0.781049 0
M  V30 3250 H 292.49 4.80938 1.04686 0
M  V30 3251 N 294.142 -0.090211 1.57342 0
M  V30 3252 C 295.092 -1.11557 1.98844 0
M  V30 3253 C 296.076 -1.35503 0.867624 0
M  V30 3254 O 297.268 -1.36113 1.13148 0
M  V30 3255 C 294.397 -2.43446 2.42051 0
M  V30 3256 C 293.483 -2.22853 3.60828 0
M  V30 3257 N 293.874 -1.72141 4.75606 0
M  V30 3258 C 292.172 -2.53401 3.67021 0
M  V30 3259 C 292.873 -1.65932 5.57531 0
M  V30 3260 N 291.849 -2.11323 5.00843 0
M  V30 3261 H 295.651 -0.716499 2.85032 0
M  V30 3262 H 293.165 -0.297567 1.59651 0
M  V30 3263 H 295.162 -3.17644 2.70014 0
M  V30 3264 H 293.822 -2.84087 1.57241 0
M  V30 3265 H 294.833 -1.41268 4.98261 0
M  V30 3266 H 291.51 -2.97532 2.92884 0
M  V30 3267 H 292.9 -1.27733 6.59647 0
M  V30 3268 N 295.62 -1.53406 -0.361157 0
M  V30 3269 C 296.845 -1.74024 -1.12829 0
M  V30 3270 C 297.27 -0.470069 -1.82132 0
M  V30 3271 O 296.628 0.57619 -1.719 0
M  V30 3272 C 296.676 -2.90903 -2.13091 0
M  V30 3273 O 295.78 -2.59821 -3.20261 0
M  V30 3274 H 295.121 -0.577804 -0.327168 0
M  V30 3275 H 297.651 -2.00307 -0.41693 0
M  V30 3276 H 297.661 -3.17194 -2.56616 0
M  V30 3277 H 296.336 -3.83034 -1.62042 0
M  V30 3278 H 294.913 -2.44362 -2.81677 0
M  V30 3279 N 297.098 0.621204 -1.44841 0
M  V30 3280 C 298.338 1.39201 -1.49674 0
M  V30 3281 C 298.702 1.91561 -0.129764 0
M  V30 3282 O 299.903 2.68748 -0.0527814 0
M  V30 3283 C 298.174 2.519 -2.53537 0
M  V30 3284 S 299.733 3.39916 -2.77494 0
M  V30 3285 H 296.551 0.474758 -0.529269 0
M  V30 3286 H 299.153 0.718171 -1.81831 0
M  V30 3287 H 297.857 2.11761 -3.51547 0
M  V30 3288 H 297.388 3.241 -2.22986 0
M  V30 3289 H 299.403 4.49646 -2.0984 0
M  V30 3290 N 298.576 1.31904 0.862503 0
M  V30 3291 C 299.987 1.19803 1.43193 0
M  V30 3292 C 300.338 -0.192567 1.95253 0
M  V30 3293 O 299.463 -1.09081 1.86896 0
M  V30 3294 C 300.058 2.16883 2.60283 0
M  V30 3295 C 298.617 2.08692 3.13248 0
M  V30 3296 C 297.764 2.05691 1.85975 0
M  V30 3297 H 300.715 1.43846 0.670365 0
M  V30 3298 H 300.736 1.76278 3.37204 0
M  V30 3299 H 300.248 3.18083 2.22363 0
M  V30 3300 H 298.349 1.10713 3.55771 0
M  V30 3301 H 298.462 2.9815 3.75025 0
M  V30 3302 H 296.826 1.50814 2.05249 0
M  V30 3303 H 297.609 3.08659 1.50282 0
M  V30 3304 N 300.054 -1.07777 1.14986 0
M  V30 3305 C 300.984 -2.16865 0.865557 0
M  V30 3306 C 301.965 -1.69123 -0.182083 0
M  V30 3307 O 303.15 -1.94164 -0.0373815 0
M  V30 3308 C 300.28 -3.45539 0.349313 0
M  V30 3309 C 299.234 -4.06708 1.33313 0
M  V30 3310 C 298.56 -5.30411 0.675918 0
M  V30 3311 C 299.86 -4.47241 2.69764 0
M  V30 3312 H 301.554 -2.40905 1.77778 0
M  V30 3313 H 299.1 -1.15781 0.856203 0
M  V30 3314 H 301.053 -4.21174 0.137983 0
M  V30 3315 H 299.777 -3.21072 -0.598362 0
M  V30 3316 H 298.436 -3.33112 1.53075 0
M  V30 3317 H 298.084 -5.02232 -0.277767 0
M  V30 3318 H 297.784 -5.72293 1.33244 0
M  V30 3319 H 299.308 -6.08755 0.474262 0
M  V30 3320 H 300.722 -5.14025 2.53873 0
M  V30 3321 H 299.119 -5.00062 3.3175 0
M  V30 3322 H 300.189 -3.58818 3.26156 0
M  V30 3323 N 301.532 -0.945985 -1.26051 0
M  V30 3324 C 302.442 -0.465633 -2.29933 0
M  V30 3325 C 303.458 0.462761 -1.67733 0
M  V30 3326 O 304.634 0.341118 -1.9849 0
M  V30 3327 C 301.699 0.256994 -3.45746 0
M  V30 3328 C 300.76 -0.708549 -4.23412 0
M  V30 3329 C 299.993 -0.0203135 -5.33696 0
M  V30 3330 O 300.216 1.19571 -5.57726 0
M  V30 3331 O 299.15 -0.701459 -5.97799 0
M  V30 3332 H 302.976 -1.32866 -2.73094 0
M  V30 3333 H 300.561 -0.712071 -1.31339 0
M  V30 3334 H 302.443 0.663852 -4.16138 0
M  V30 3335 H 301.118 1.09533 -3.04605 0
M  V30 3336 H 300.025 -1.16545 -3.55483 0
M  V30 3337 H 301.358 -1.51465 -4.68315 0
M  V30 3338 N 303.011 1.40521 -0.713556 0
M  V30 3339 C 304.258 2.00923 -0.25219 0
M  V30 3340 C 304.586 1.56571 1.15395 0
M  V30 3341 O 303.841 0.775874 1.79663 0
M  V30 3342 C 304.14 3.56317 -0.278 0
M  V30 3343 C 303.806 4.20246 -1.63415 0
M  V30 3344 C 302.468 4.37422 -2.00538 0
M  V30 3345 C 304.82 4.55923 -2.52554 0
M  V30 3346 C 302.148 4.87558 -3.2635 0
M  V30 3347 C 304.5 5.07458 -3.77716 0
M  V30 3348 C 303.164 5.22843 -4.14959 0
M  V30 3349 H 302.434 0.735231 -0.0922829 0
M  V30 3350 H 305.081 1.68161 -0.916188 0
M  V30 3351 H 303.386 3.88976 0.469567 0
M  V30 3352 H 305.083 4.00883 0.0967819 0
M  V30 3353 H 301.673 4.07263 -1.33546 0
M  V30 3354 H 305.857 4.42291 -2.25149 0
M  V30 3355 H 301.113 4.97654 -3.55176 0
M  V30 3356 H 305.287 5.34041 -4.4696 0
M  V30 3357 H 302.914 5.61454 -5.12516 0
M  V30 3358 N 304.489 0.459591 1.5075 0
M  V30 3359 C 305.714 -0.0996819 2.0716 0
M  V30 3360 C 306.139 -1.33761 1.32249 0
M  V30 3361 O 305.497 -1.77551 0.366786 0
M  V30 3362 C 305.545 -0.378226 3.58611 0
M  V30 3363 O 304.649 -1.46081 3.85661 0
M  V30 3364 H 303.99 0.00791392 0.663953 0
M  V30 3365 H 306.52 0.647329 1.9409 0
M  V30 3366 H 306.53 -0.622135 4.03229 0
M  V30 3367 H 305.205 0.526439 4.12555 0
M  V30 3368 H 303.782 -1.20511 3.5289 0
M  V30 3369 N 305.967 -1.56429 0.191757 0
M  V30 3370 C 307.192 -2.02309 -0.456706 0
M  V30 3371 C 307.617 -1.07103 -1.5463 0
M  V30 3372 O 306.975 -0.0539677 -1.8122 0
M  V30 3373 C 307.023 -3.46654 -0.993159 0
M  V30 3374 O 306.127 -3.54559 -2.10622 0
M  V30 3375 H 305.468 -0.655303 -0.107114 0
M  V30 3376 H 307.998 -2.02364 0.301653 0
M  V30 3377 H 308.008 -3.86377 -1.31061 0
M  V30 3378 H 306.683 -4.1544 -0.195504 0
M  V30 3379 H 305.26 -3.26708 -1.79767 0
M  V30 3380 N 307.445 0.0818655 -1.57387 0
M  V30 3381 C 308.675 0.794954 -1.90694 0
M  V30 3382 C 309.083 1.72147 -0.784982 0
M  V30 3383 O 308.426 1.81974 0.251196 0
M  V30 3384 C 308.488 1.65042 -3.19376 0
M  V30 3385 C 308.152 0.894337 -4.48164 0
M  V30 3386 C 309.149 0.21813 -5.19442 0
M  V30 3387 C 306.834 0.864495 -4.94805 0
M  V30 3388 C 308.828 -0.477802 -6.35607 0
M  V30 3389 C 306.515 0.164785 -6.10878 0
M  V30 3390 C 307.513 -0.505173 -6.81129 0
M  V30 3391 O 307.201 -1.19363 -7.94989 0
M  V30 3392 H 306.933 0.231779 -0.635023 0
M  V30 3393 H 309.487 0.059493 -2.05314 0
M  V30 3394 H 307.717 2.42844 -3.00938 0
M  V30 3395 H 309.406 2.24127 -3.38411 0
M  V30 3396 H 310.172 0.232558 -4.84442 0
M  V30 3397 H 306.051 1.37542 -4.40004 0
M  V30 3398 H 309.595 -1.00129 -6.90377 0
M  V30 3399 H 305.492 0.148249 -6.4533 0
M  V30 3400 H 306.26 -1.10188 -8.11049 0
M  V30 3401 N 308.923 1.53595 0.353017 0
M  V30 3402 C 310.171 1.70049 1.09215 0
M  V30 3403 C 310.492 0.461406 1.89463 0
M  V30 3404 O 309.762 -0.524633 1.88744 0
M  V30 3405 H 308.342 0.626912 0.40619 0
M  V30 3406 H 311.004 1.90822 0.396585 0
M  V30 3407 H 310.1 2.56718 1.77488 0
M  V30 3408 N 310.401 -0.613514 1.45168 0
M  V30 3409 C 311.631 -1.39743 1.52169 0
M  V30 3410 C 312.039 -1.88596 0.151086 0
M  V30 3411 O 311.382 -1.6251 -0.856521 0
M  V30 3412 C 311.444 -2.64035 2.43979 0
M  V30 3413 C 311.108 -2.36861 3.90827 0
M  V30 3414 C 312.105 -1.97591 4.80889 0
M  V30 3415 C 309.79 -2.49956 4.35692 0
M  V30 3416 C 311.784 -1.71768 6.1382 0
M  V30 3417 C 309.471 -2.23747 5.68665 0
M  V30 3418 C 310.469 -1.84714 6.57548 0
M  V30 3419 O 310.157 -1.58809 7.88058 0
M  V30 3420 H 309.889 -0.434382 0.517966 0
M  V30 3421 H 312.443 -0.75587 1.90986 0
M  V30 3422 H 310.673 -3.3089 2.00122 0
M  V30 3423 H 312.362 -3.26069 2.41731 0
M  V30 3424 H 313.128 -1.87015 4.47493 0
M  V30 3425 H 309.007 -2.79305 3.66756 0
M  V30 3426 H 312.551 -1.41227 6.83155 0
M  V30 3427 H 308.448 -2.33938 6.01617 0
M  V30 3428 H 309.216 -1.7291 8.00028 0
M  V30 3429 N 311.879 -1.3236 -0.855495 0
M  V30 3430 C 313.29 -1.2056 -1.42556 0
M  V30 3431 C 313.641 0.182209 -1.95352 0
M  V30 3432 O 312.766 1.08088 -1.87472 0
M  V30 3433 C 313.361 -2.1826 -2.59129 0
M  V30 3434 C 311.92 -2.10351 -3.12137 0
M  V30 3435 C 311.067 -2.06674 -1.84882 0
M  V30 3436 H 314.018 -1.442 -0.662727 0
M  V30 3437 H 314.039 -1.78064 -3.36264 0
M  V30 3438 H 313.551 -3.19257 -2.20673 0
M  V30 3439 H 311.652 -1.12599 -3.55179 0
M  V30 3440 H 311.765 -3.00135 -3.73438 0
M  V30 3441 H 310.129 -1.51901 -2.04446 0
M  V30 3442 H 310.912 -3.09451 -1.48643 0
M  V30 3443 N 313.357 1.07166 -1.15556 0
M  V30 3444 C 314.304 2.14417 -0.854055 0
M  V30 3445 C 315.274 1.64965 0.193806 0
M  V30 3446 O 316.459 1.90703 0.0609443 0
M  V30 3447 C 313.599 3.43304 -0.351574 0
M  V30 3448 C 312.712 4.06537 -1.46123 0
M  V30 3449 C 311.847 5.23266 -0.914677 0
M  V30 3450 C 310.886 5.78464 -2.00114 0
M  V30 3451 N 310.023 6.86521 -1.47083 0
M  V30 3452 H 314.863 2.39548 -1.77259 0
M  V30 3453 H 312.4 1.17543 -0.884425 0
M  V30 3454 H 314.358 4.17179 -0.0419409 0
M  V30 3455 H 312.988 3.18419 0.530037 0
M  V30 3456 H 312.04 3.30297 -1.88701 0
M  V30 3457 H 313.352 4.43567 -2.28144 0
M  V30 3458 H 312.506 6.04131 -0.557698 0
M  V30 3459 H 311.245 4.87658 -0.0636583 0
M  V30 3460 H 310.25 4.96243 -2.36692 0
M  V30 3461 H 311.475 6.16126 -2.85597 0
M  V30 3462 H 309.421 6.52849 -0.642198 0
M  V30 3463 H 309.338 7.22446 -2.22729 0
M  V30 3464 H 310.606 7.71087 -1.14215 0
M  V30 3465 N 314.835 0.952656 1.25548 0
M  V30 3466 C 315.783 0.462354 2.27958 0
M  V30 3467 C 316.777 -0.46634 1.62855 0
M  V30 3468 O 317.983 -0.343287 1.76696 0
M  V30 3469 H 314.358 0.13101 0.7405 0
M  V30 3470 H 316.329 1.33839 2.66702 0
M  V30 3471 C 315.078 -0.24628 3.46827 0
M  V30 3472 H 314.401 0.459192 3.97154 0
M  V30 3473 H 315.841 -0.553393 4.20373 0
M  V30 3474 C 314.3 -1.4681 3.0323 0
M  V30 3475 O 314.83 -2.56591 3.09069 0
M  V30 3476 N 313.036 -1.32874 2.58443 0
M  V30 3477 H 312.583 -0.435536 2.53891 0
M  V30 3478 H 312.541 -2.14742 2.29637 0
M  V30 3479 N 316.313 -1.40141 0.720998 0
M  V30 3480 C 317.223 -2.34486 0.0731031 0
M  V30 3481 C 318.239 -1.57587 -0.737723 0
M  V30 3482 O 319.415 -1.89949 -0.669429 0
M  V30 3483 C 316.48 -3.36528 -0.833656 0
M  V30 3484 C 315.541 -4.29298 -0.0121673 0
M  V30 3485 C 314.774 -5.26466 -0.875742 0
M  V30 3486 O 314.997 -5.29745 -2.11485 0
M  V30 3487 O 313.931 -6.01092 -0.31185 0
M  V30 3488 H 317.757 -2.9152 0.851444 0
M  V30 3489 H 315.342 -1.41427 0.481527 0
M  V30 3490 H 317.224 -3.99093 -1.35289 0
M  V30 3491 H 315.899 -2.81899 -1.59105 0
M  V30 3492 H 314.806 -3.70001 0.552262 0
M  V30 3493 H 316.139 -4.87094 0.707129 0
M  V30 3494 N 317.792 -0.46758 -1.50504 0
M  V30 3495 C 319.041 0.0902868 -2.01498 0
M  V30 3496 C 319.354 1.411 -1.35463 0
M  V30 3497 O 320.56 2.0536 -1.77594 0
M  V30 3498 C 319.016 0.21142 -3.59278 0
M  V30 3499 C 318.624 -1.10065 -4.34269 0
M  V30 3500 C 320.368 0.721433 -4.18325 0
M  V30 3501 C 318.275 -0.943505 -5.83825 0
M  V30 3502 H 317.205 0.037517 -0.753066 0
M  V30 3503 H 319.856 -0.601943 -1.73346 0
M  V30 3504 H 318.238 0.967352 -3.84003 0
M  V30 3505 H 319.412 -1.86726 -4.21272 0
M  V30 3506 H 317.727 -1.5415 -3.86816 0
M  V30 3507 H 320.324 0.85598 -5.27804 0
M  V30 3508 H 320.667 1.71186 -3.79475 0
M  V30 3509 H 321.2 0.0229843 -3.97793 0
M  V30 3510 H 317.939 -1.90719 -6.27141 0
M  V30 3511 H 317.459 -0.217213 -5.99407 0
M  V30 3512 H 319.138 -0.608715 -6.4413 0
M  V30 3513 N 319.27 1.56325 -0.20005 0
M  V30 3514 C 320.18 2.22931 0.730668 0
M  V30 3515 C 321.196 1.22997 1.23076 0
M  V30 3516 O 322.372 1.55748 1.27689 0
M  V30 3517 C 319.437 2.87948 1.93098 0
M  V30 3518 C 318.498 4.03166 1.47497 0
M  V30 3519 C 317.731 4.65073 2.61807 0
M  V30 3520 O 317.954 4.25913 3.79413 0
M  V30 3521 O 316.888 5.54452 2.34237 0
M  V30 3522 H 320.714 3.03084 0.193391 0
M  V30 3523 H 318.299 1.49371 0.0294621 0
M  V30 3524 H 320.181 3.29063 2.6324 0
M  V30 3525 H 318.856 2.10771 2.45677 0
M  V30 3526 H 317.763 3.66664 0.742201 0
M  V30 3527 H 319.096 4.82022 0.995796 0
M  V30 3528 N 320.748 -0.0735177 1.57428 0
M  V30 3529 C 321.978 -0.78483 1.91112 0
M  V30 3530 C 322.386 -1.71729 0.7941 0
M  V30 3531 O 321.729 -1.82105 -0.241542 0
M  V30 3532 C 321.791 -1.63346 3.20247 0
M  V30 3533 C 321.455 -0.870557 4.48632 0
M  V30 3534 C 322.452 -0.19058 5.19551 0
M  V30 3535 C 320.137 -0.838242 4.95256 0
M  V30 3536 C 322.131 0.511503 6.35344 0
M  V30 3537 C 319.818 -0.132386 6.10957 0
M  V30 3538 C 320.816 0.541288 6.80852 0
M  V30 3539 O 320.504 1.23578 7.94345 0
M  V30 3540 H 320.236 -0.228408 0.636244 0
M  V30 3541 H 322.79 -0.0486039 2.05342 0
M  V30 3542 H 321.02 -2.41245 3.02222 0
M  V30 3543 H 322.709 -2.22329 3.39595 0
M  V30 3544 H 323.475 -0.206864 4.84559 0
M  V30 3545 H 319.354 -1.35206 4.40727 0
M  V30 3546 H 322.898 1.03789 6.89836 0
M  V30 3547 H 318.795 -0.114023 6.45399 0
M  V30 3548 H 319.563 1.14487 8.10454 0
M  V30 3549 N 322.226 -1.5378 -0.344866 0
M  V30 3550 C 323.173 -1.81676 -1.42346 0
M  V30 3551 C 324.143 -0.662376 -1.52321 0
M  V30 3552 O 325.328 -0.906675 -1.67881 0
M  V30 3553 C 322.468 -2.03087 -2.79015 0
M  V30 3554 C 321.581 -3.30799 -2.77842 0
M  V30 3555 C 320.716 -3.42285 -4.0622 0
M  V30 3556 C 319.755 -4.6395 -3.9927 0
M  V30 3557 N 318.892 -4.72477 -5.19336 0
M  V30 3558 H 323.732 -2.73703 -1.17858 0
M  V30 3559 H 321.269 -1.35568 -0.570949 0
M  V30 3560 H 323.227 -2.1349 -3.58438 0
M  V30 3561 H 321.857 -1.14375 -3.01858 0
M  V30 3562 H 320.909 -3.29244 -1.90533 0
M  V30 3563 H 322.221 -4.20314 -2.68584 0
M  V30 3564 H 321.375 -3.52113 -4.94066 0
M  V30 3565 H 320.114 -2.50823 -4.18258 0
M  V30 3566 H 319.119 -4.54201 -3.09809 0
M  V30 3567 H 320.344 -5.56775 -3.88817 0
M  V30 3568 H 318.29 -3.83924 -5.3192 0
M  V30 3569 H 318.207 -5.55927 -5.12329 0
M  V30 3570 H 319.475 -4.86613 -6.08957 0
M  V30 3571 N 323.704 0.605807 -1.45491 0
M  V30 3572 C 324.95 1.36481 -1.50813 0
M  V30 3573 C 325.305 1.91826 -0.148469 0
M  V30 3574 O 324.598 1.72211 0.839869 0
M  V30 3575 C 324.792 2.53012 -2.52428 0
M  V30 3576 C 324.621 2.09078 -3.98141 0
M  V30 3577 C 323.391 1.95167 -4.66088 0
M  V30 3578 C 325.589 1.66438 -4.86624 0
M  V30 3579 N 323.571 1.45062 -5.96515 0
M  V30 3580 C 324.942 1.27761 -6.06694 0
M  V30 3581 C 326.997 1.54046 -4.7347 0
M  V30 3582 C 325.7 0.779286 -7.15066 0
M  V30 3583 C 327.726 1.05618 -5.81892 0
M  V30 3584 C 327.088 0.67906 -7.01119 0
M  V30 3585 H 323.187 0.493267 -0.606805 0
M  V30 3586 H 325.771 0.692347 -1.81974 0
M  V30 3587 H 323.942 3.17851 -2.23215 0
M  V30 3588 H 325.674 3.19897 -2.47887 0
M  V30 3589 H 322.429 2.16407 -4.21266 0
M  V30 3590 H 322.853 1.22237 -6.65873 0
M  V30 3591 H 327.495 1.81827 -3.81705 0
M  V30 3592 H 325.213 0.489026 -8.06619 0
M  V30 3593 H 328.799 0.964529 -5.73749 0
M  V30 3594 H 327.679 0.310091 -7.83587 0
M  V30 3595 N 325.182 1.32811 0.848464 0
M  V30 3596 C 326.129 1.22265 1.95755 0
M  V30 3597 C 327.099 0.103413 1.65778 0
M  V30 3598 O 328.284 0.280033 1.88734 0
M  V30 3599 C 325.424 0.958014 3.31536 0
M  V30 3600 C 324.537 2.16262 3.73971 0
M  V30 3601 C 323.672 1.83295 4.98575 0
M  V30 3602 C 322.711 3.00041 5.33518 0
M  V30 3603 N 321.848 2.67125 6.49299 0
M  V30 3604 H 326.688 2.17128 2.04107 0
M  V30 3605 H 324.225 1.07982 0.998913 0
M  V30 3606 H 326.183 0.785052 4.09747 0
M  V30 3607 H 324.813 0.046159 3.22767 0
M  V30 3608 H 323.865 2.44565 2.91362 0
M  V30 3609 H 325.177 3.03572 3.95785 0
M  V30 3610 H 324.331 1.62586 5.84509 0
M  V30 3611 H 323.07 0.932078 4.7871 0
M  V30 3612 H 322.075 3.21374 4.46093 0
M  V30 3613 H 323.3 3.90869 5.55336 0
M  V30 3614 H 321.246 1.79586 6.3094 0
M  V30 3615 H 321.163 3.47965 6.71161 0
M  V30 3616 H 322.431 2.49861 7.3837 0
M  V30 3617 N 326.66 -1.06551 1.16123 0
M  V30 3618 C 327.607 -2.13961 0.865414 0
M  V30 3619 C 328.577 -1.65066 -0.185055 0
M  V30 3620 O 329.762 -1.90732 -0.05083 0
M  V30 3621 C 326.902 -3.43113 0.369776 0
M  V30 3622 C 326.015 -4.05756 1.48276 0
M  V30 3623 C 325.15 -5.22773 0.942414 0
M  V30 3624 C 324.189 -5.77395 2.03179 0
M  V30 3625 N 323.326 -6.85731 1.50721 0
M  V30 3626 H 328.166 -2.38605 1.78527 0
M  V30 3627 H 325.703 -1.17072 0.890646 0
M  V30 3628 H 327.661 -4.17151 0.0640643 0
M  V30 3629 H 326.291 -3.18695 -0.513143 0
M  V30 3630 H 325.343 -3.29292 1.9045 0
M  V30 3631 H 326.655 -4.42351 2.30493 0
M  V30 3632 H 325.809 -6.03827 0.589729 0
M  V30 3633 H 324.548 -4.87618 0.0895191 0
M  V30 3634 H 323.553 -4.94981 2.3932 0
M  V30 3635 H 324.778 -6.14603 2.8886 0
M  V30 3636 H 322.724 -6.52499 0.676811 0
M  V30 3637 H 322.641 -7.21254 2.26557 0
M  V30 3638 H 323.909 -7.7047 1.18303 0
M  V30 3639 N 328.138 -0.959301 -1.25041 0
M  V30 3640 C 329.549 -0.65667 -1.74771 0
M  V30 3641 C 329.9 0.827852 -1.77879 0
M  V30 3642 O 329.025 1.64783 -1.40269 0
M  V30 3643 C 329.62 -1.1853 -3.1739 0
M  V30 3644 C 328.179 -0.932734 -3.6466 0
M  V30 3645 C 327.326 -1.32558 -2.43564 0
M  V30 3646 H 330.277 -1.13558 -1.10862 0
M  V30 3647 H 330.298 -0.547582 -3.76539 0
M  V30 3648 H 329.81 -2.26576 -3.15095 0
M  V30 3649 H 327.911 0.13257 -3.72364 0
M  V30 3650 H 328.024 -1.57248 -4.52559 0
M  V30 3651 H 326.388 -0.743956 -2.43593 0
M  V30 3652 H 327.171 -2.41537 -2.43957 0
M  V30 3653 N 329.616 1.39756 -0.72842 0
M  V30 3654 C 330.841 2.05472 -0.282159 0
M  V30 3655 C 331.266 1.54549 1.07221 0
M  V30 3656 O 330.624 0.686372 1.67805 0
M  V30 3657 C 330.672 3.59462 -0.286264 0
M  V30 3658 O 329.776 4.05918 0.728298 0
M  V30 3659 H 329.117 0.651226 -0.129618 0
M  V30 3660 H 331.647 1.78915 -0.992499 0
M  V30 3661 H 331.657 4.07798 -0.128373 0
M  V30 3662 H 330.332 3.95889 -1.27456 0
M  V30 3663 H 328.909 3.69012 0.537081 0
M  V30 3664 N 331.094 0.475555 1.50254 0
M  V30 3665 C 332.34 -0.0780073 2.0265 0
M  V30 3666 C 332.673 -1.38968 1.35652 0
M  V30 3667 O 331.948 -1.8839 0.483691 0
M  V30 3668 C 332.231 -0.257161 3.59181 0
M  V30 3669 C 332.084 1.07585 4.36744 0
M  V30 3670 C 333.403 -1.00965 4.28362 0
M  V30 3671 H 330.522 -0.0268758 0.73651 0
M  V30 3672 H 333.164 0.622015 1.7953 0
M  V30 3673 H 331.314 -0.853412 3.79011 0
M  V30 3674 H 332.986 1.70902 4.28474 0
M  V30 3675 H 331.229 1.6714 4.00308 0
M  V30 3676 H 331.9 0.904088 5.44546 0
M  V30 3677 H 334.376 -0.504214 4.13034 0
M  V30 3678 H 333.252 -1.10381 5.37687 0
M  V30 3679 H 333.513 -2.04731 3.91839 0
M  V30 3680 N 332.573 -1.56217 0.208337 0
M  V30 3681 C 333.483 -2.23316 -0.718836 0
M  V30 3682 C 334.499 -1.23648 -1.22422 0
M  V30 3683 O 335.675 -1.56423 -1.26861 0
M  V30 3684 C 332.74 -2.88968 -1.91568 0
M  V30 3685 C 331.801 -4.03943 -1.45357 0
M  V30 3686 C 331.034 -4.66455 -2.59337 0
M  V30 3687 O 331.257 -4.27919 -3.77149 0
M  V30 3688 O 330.191 -5.55686 -2.31293 0
M  V30 3689 H 334.017 -3.03182 -0.177315 0
M  V30 3690 H 331.602 -1.49384 -0.0215402 0
M  V30 3691 H 333.484 -3.30455 -2.61491 0
M  V30 3692 H 332.159 -2.12071 -2.44556 0
M  V30 3693 H 331.066 -3.67052 -0.722746 0
M  V30 3694 H 332.399 -4.82543 -0.970219 0
M  V30 3695 N 334.051 0.0651679 -1.57465 0
M  V30 3696 C 335.297 0.764193 -1.87851 0
M  V30 3697 C 335.63 1.76889 -0.801495 0
M  V30 3698 O 334.905 1.93594 0.187528 0
M  V30 3699 C 335.188 1.46625 -3.28897 0
M  V30 3700 C 335.041 0.477515 -4.47258 0
M  V30 3701 C 336.36 2.4095 -3.68281 0
M  V30 3702 H 333.479 0.276351 -0.683227 0
M  V30 3703 H 336.121 0.0272868 -1.8998 0
M  V30 3704 H 334.271 2.09438 -3.27212 0
M  V30 3705 H 335.943 -0.145922 -4.61069 0
M  V30 3706 H 334.186 -0.206576 -4.33308 0
M  V30 3707 H 334.857 1.0065 -5.42746 0
M  V30 3708 H 337.333 1.88209 -3.71102 0
M  V30 3709 H 336.209 2.87072 -4.67847 0
M  V30 3710 H 336.47 3.26049 -2.98571 0
M  V30 3711 N 335.529 1.53961 0.336706 0
M  V30 3712 C 336.492 1.81724 1.39675 0
M  V30 3713 C 337.492 0.688532 1.45313 0
M  V30 3714 O 338.682 0.956829 1.45569 0
M  V30 3715 C 335.814 1.96543 2.78538 0
M  V30 3716 H 337.007 2.76424 1.16318 0
M  V30 3717 H 334.56 1.45478 0.571474 0
M  V30 3718 H 335.295 1.0401 3.07168 0
M  V30 3719 H 335.08 2.78665 2.75841 0
M  V30 3720 H 336.57 2.19516 3.5525 0
M  V30 3721 N 337.007 -0.598083 1.45811 0
M  V30 3722 C 338.284 -1.35777 1.40797 0
M  V30 3723 C 338.664 -2.10935 0.083462 0
M  V30 3724 O 338.012 -2.08505 -0.934763 0
M  V30 3725 C 338.222 -2.29666 2.62783 0
M  V30 3726 C 339.57 -2.91977 3.08277 0
M  V30 3727 O 340.594 -2.39984 2.63223 0
M  V30 3728 O 339.453 -3.86376 3.86491 0
M  V30 3729 H 336.547 -0.609291 0.55919 0
M  V30 3730 H 339.093 -0.620379 1.57954 0
M  V30 3731 H 337.865 -1.73454 3.50756 0
M  V30 3732 H 337.488 -3.1077 2.48008 0
M  V30 3733 N 338.485 -1.33259 -0.841409 0
M  V30 3734 C 339.896 -1.22066 -1.41269 0
M  V30 3735 C 340.247 0.161479 -1.95534 0
M  V30 3736 O 339.372 1.06094 -1.88608 0
M  V30 3737 C 339.967 -2.20996 -2.568 0
M  V30 3738 C 338.526 -2.13649 -3.09888 0
M  V30 3739 C 337.673 -2.08623 -1.82679 0
M  V30 3740 H 340.624 -1.44895 -0.647395 0
M  V30 3741 H 340.645 -1.81621 -3.34356 0
M  V30 3742 H 340.157 -3.2158 -2.17274 0
M  V30 3743 H 338.258 -1.16359 -3.53965 0
M  V30 3744 H 338.371 -3.04079 -3.70234 0
M  V30 3745 H 336.735 -1.54061 -2.02824 0
M  V30 3746 H 337.518 -3.1101 -1.45353 0
M  V30 3747 N 339.963 1.05934 -1.16686 0
M  V30 3748 C 340.91 2.13499 -0.876748 0
M  V30 3749 C 341.88 1.65162 0.176299 0
M  V30 3750 O 343.065 1.90757 0.0407143 0
M  V30 3751 C 340.205 3.42912 -0.387967 0
M  V30 3752 C 339.318 4.04964 -1.50426 0
M  V30 3753 C 338.453 5.22266 -0.970125 0
M  V30 3754 C 337.492 5.76309 -2.06238 0
M  V30 3755 N 336.629 6.84922 -1.54356 0
M  V30 3756 H 341.469 2.37654 -1.7979 0
M  V30 3757 H 339.006 1.16598 -0.896843 0
M  V30 3758 H 340.964 4.17111 -0.086186 0
M  V30 3759 H 339.594 3.18963 0.496235 0
M  V30 3760 H 338.646 3.28277 -1.92193 0
M  V30 3761 H 339.958 4.41122 -2.32836 0
M  V30 3762 H 339.112 6.03506 -0.621743 0
M  V30 3763 H 337.851 4.87564 -0.115377 0
M  V30 3764 H 336.856 4.93704 -2.41942 0
M  V30 3765 H 338.081 6.13062 -2.92115 0
M  V30 3766 H 336.027 6.52131 -0.711406 0
M  V30 3767 H 335.944 7.20043 -2.30379 0
M  V30 3768 H 337.212 7.69832 -1.22387 0
M  V30 3769 N 341.441 0.965919 1.2453 0
M  V30 3770 C 342.671 0.643451 1.96324 0
M  V30 3771 C 343.079 -0.790927 1.71875 0
M  V30 3772 O 342.422 -1.54208 0.998273 0
M  V30 3773 C 342.484 0.836078 3.49643 0
M  V30 3774 C 342.148 2.24975 3.97788 0
M  V30 3775 C 343.145 3.22735 4.07601 0
M  V30 3776 C 340.83 2.57697 4.31158 0
M  V30 3777 C 342.824 4.51303 4.50116 0
M  V30 3778 C 340.511 3.86492 4.73357 0
M  V30 3779 C 341.509 4.83107 4.828 0
M  V30 3780 O 341.197 6.09605 5.24058 0
M  V30 3781 H 340.929 0.239223 0.632257 0
M  V30 3782 H 343.483 1.29587 1.59362 0
M  V30 3783 H 341.713 0.12649 3.86493 0
M  V30 3784 H 343.402 0.512965 4.02646 0
M  V30 3785 H 344.168 2.98783 3.82039 0
M  V30 3786 H 340.047 1.83216 4.23028 0
M  V30 3787 H 343.591 5.26716 4.57401 0
M  V30 3788 H 339.488 4.10245 4.98366 0
M  V30 3789 H 340.256 6.13146 5.42213 0
M  V30 3790 N 342.919 -1.39368 0.735821 0
M  V30 3791 C 344.165 -2.01272 0.293439 0
M  V30 3792 C 344.52 -1.57344 -1.10728 0
M  V30 3793 O 343.813 -0.792744 -1.74431 0
M  V30 3794 C 344.007 -3.5583 0.334651 0
M  V30 3795 C 343.836 -4.14764 1.73784 0
M  V30 3796 C 342.606 -4.47315 2.35026 0
M  V30 3797 C 344.804 -4.38246 2.69157 0
M  V30 3798 N 342.786 -4.91756 3.6749 0
M  V30 3799 C 344.157 -4.849 3.86357 0
M  V30 3800 C 346.212 -4.20315 2.66908 0
M  V30 3801 C 344.915 -5.15505 5.01645 0
M  V30 3802 C 346.941 -4.52033 3.8134 0
M  V30 3803 C 346.303 -4.98895 4.97276 0
M  V30 3804 H 342.402 -0.766756 0.153652 0
M  V30 3805 H 344.986 -1.69276 0.961967 0
M  V30 3806 H 343.157 -3.87212 -0.303527 0
M  V30 3807 H 344.889 -4.04503 -0.126358 0
M  V30 3808 H 341.644 -4.35143 1.86943 0
M  V30 3809 H 342.068 -5.18333 4.35499 0
M  V30 3810 H 346.71 -3.83287 1.78468 0
M  V30 3811 H 344.428 -5.51437 5.90713 0
M  V30 3812 H 348.014 -4.39781 3.80899 0
M  V30 3813 H 346.894 -5.22973 5.84353 0
M  V30 3814 N 344.397 -0.483516 -1.5 0
M  V30 3815 C 345.813 -0.138404 -1.58999 0
M  V30 3816 C 346.013 1.35597 -1.4905 0
M  V30 3817 O 345.069 2.13039 -1.35539 0
M  V30 3818 C 346.382 -0.699658 -2.92447 0
M  V30 3819 C 347.93 -0.664195 -3.05872 0
M  V30 3820 C 348.405 -1.20321 -4.41913 0
M  V30 3821 N 349.896 -1.16315 -4.48358 0
M  V30 3822 C 350.631 -1.55058 -5.52037 0
M  V30 3823 N 350.127 -2.01311 -6.62907 0
M  V30 3824 N 351.92 -1.46584 -5.42651 0
M  V30 3825 H 344.071 -1.45529 -1.5471 0
M  V30 3826 H 346.334 -0.60258 -0.731848 0
M  V30 3827 H 346.04 -1.747 -3.05242 0
M  V30 3828 H 345.914 -0.150194 -3.76901 0
M  V30 3829 H 348.301 0.374272 -2.92717 0
M  V30 3830 H 348.382 -1.25061 -2.23144 0
M  V30 3831 H 348.026 -2.24037 -4.55818 0
M  V30 3832 H 347.956 -0.592896 -5.23252 0
M  V30 3833 H 350.447 -0.824058 -3.68806 0
M  V30 3834 H 350.76 -2.2899 -7.38095 0
M  V30 3835 H 349.105 -2.05273 -6.63994 0
M  V30 3836 H 352.296 -1.10281 -4.54924 0
M  V30 3837 H 352.469 -1.77103 -6.23329 0
M  V30 3838 N 345.875 1.56104 -0.216619 0
M  V30 3839 C 346.805 2.23063 0.690296 0
M  V30 3840 C 347.786 1.20072 1.20485 0
M  V30 3841 O 348.971 1.48643 1.24976 0
M  V30 3842 C 346.101 2.90672 1.90072 0
M  V30 3843 C 345.055 4.00092 1.5202 0
M  V30 3844 C 344.381 4.54972 2.80899 0
M  V30 3845 C 345.681 5.17398 0.71391 0
M  V30 3846 H 347.375 2.99109 0.132038 0
M  V30 3847 H 344.921 1.43866 0.0620664 0
M  V30 3848 H 346.874 3.36204 2.54057 0
M  V30 3849 H 345.598 2.12066 2.48386 0
M  V30 3850 H 344.257 3.55283 0.903839 0
M  V30 3851 H 343.905 3.73102 3.37348 0
M  V30 3852 H 343.605 5.28817 2.56176 0
M  V30 3853 H 345.129 5.0322 3.45836 0
M  V30 3854 H 346.543 5.59342 1.25735 0
M  V30 3855 H 344.94 5.97444 0.563951 0
M  V30 3856 H 346.01 4.84088 -0.280527 0
M  V30 3857 N 347.353 -0.0568162 1.57498 0
M  V30 3858 C 348.583 -0.764515 1.91934 0
M  V30 3859 C 348.991 -1.70877 0.81227 0
M  V30 3860 O 348.334 -1.82351 -0.222213 0
M  V30 3861 C 348.396 -1.5994 3.21962 0
M  V30 3862 C 348.06 -0.822925 4.4953 0
M  V30 3863 C 349.057 -0.135464 5.19723 0
M  V30 3864 C 346.742 -0.785666 4.96117 0
M  V30 3865 C 348.736 0.578861 6.34766 0
M  V30 3866 C 346.423 -0.0675784 6.11063 0
M  V30 3867 C 347.421 0.613471 6.80239 0
M  V30 3868 O 347.109 1.31996 7.92989 0
M  V30 3869 H 346.841 -0.221647 0.63863 0
M  V30 3870 H 349.395 -0.0268218 2.05382 0
M  V30 3871 H 347.625 -2.38026 3.04763 0
M  V30 3872 H 349.314 -2.18715 3.41934 0
M  V30 3873 H 350.08 -0.155458 4.84751 0
M  V30 3874 H 345.959 -1.30524 4.42136 0
M  V30 3875 H 349.503 1.111 6.88696 0
M  V30 3876 H 345.4 -0.0455636 6.45484 0
M  V30 3877 H 346.168 1.23077 8.09194 0
M  V30 3878 N 348.832 -1.54138 -0.328536 0
M  V30 3879 C 349.764 -1.79509 -1.4251 0
M  V30 3880 C 350.777 -0.67688 -1.48061 0
M  V30 3881 O 351.966 -0.953898 -1.50874 0
M  V30 3882 C 349.066 -1.89337 -2.81078 0
M  V30 3883 C 348.239 -3.19443 -2.98789 0
M  V30 3884 C 347.298 -3.20036 -4.17688 0
M  V30 3885 O 346.324 -3.93697 -4.11086 0
M  V30 3886 N 347.526 -2.43467 -5.26976 0
M  V30 3887 H 350.291 -2.74139 -1.21111 0
M  V30 3888 H 347.852 -1.53373 -0.518499 0
M  V30 3889 H 349.844 -1.87167 -3.58818 0
M  V30 3890 H 348.414 -1.01826 -2.95551 0
M  V30 3891 H 347.634 -3.34614 -2.08391 0
M  V30 3892 H 348.922 -4.05354 -3.07515 0
M  V30 3893 H 348.32 -1.83201 -5.35214 0
M  V30 3894 H 346.877 -2.4708 -6.03154 0
M  V30 3895 N 350.31 0.590341 -1.46126 0
M  V30 3896 C 351.557 1.34882 -1.5104 0
M  V30 3897 C 351.885 1.93849 -0.159021 0
M  V30 3898 O 351.14 1.76544 0.844436 0
M  V30 3899 C 351.439 2.5032 -2.55097 0
M  V30 3900 C 351.105 2.09394 -3.99331 0
M  V30 3901 C 349.767 1.97947 -4.38601 0
M  V30 3902 C 352.119 1.77712 -4.89967 0
M  V30 3903 C 349.447 1.53065 -5.66381 0
M  V30 3904 C 351.799 1.34312 -6.18177 0
M  V30 3905 C 350.463 1.21436 -6.56361 0
M  V30 3906 H 349.733 0.493568 -0.552695 0
M  V30 3907 H 352.38 0.665539 -1.79563 0
M  V30 3908 H 350.685 3.24062 -2.20207 0
M  V30 3909 H 352.382 3.08541 -2.56132 0
M  V30 3910 H 348.972 2.19235 -3.68285 0
M  V30 3911 H 353.156 1.85445 -4.60352 0
M  V30 3912 H 348.412 1.41733 -5.94745 0
M  V30 3913 H 352.586 1.08849 -6.87841 0
M  V30 3914 H 350.213 0.864345 -7.5527 0
M  V30 3915 N 351.788 1.33704 0.83433 0
M  V30 3916 C 352.751 1.24244 1.92603 0
M  V30 3917 C 353.751 0.160383 1.59998 0
M  V30 3918 O 354.941 0.412228 1.69252 0
M  V30 3919 C 352.073 0.91555 3.28376 0
M  V30 3920 H 353.266 2.21287 2.02416 0
M  V30 3921 H 350.819 1.17827 1.02696 0
M  V30 3922 H 351.554 -0.0521886 3.24258 0
M  V30 3923 H 351.339 1.69811 3.53422 0
M  V30 3924 H 352.829 0.874231 4.08347 0
M  V30 3925 N 353.266 -1.05314 1.17247 0
M  V30 3926 C 354.513 -1.78293 0.960091 0
M  V30 3927 C 354.841 -1.87658 -0.51136 0
M  V30 3928 O 354.096 -1.3718 -1.39571 0
M  V30 3929 C 354.395 -3.2229 1.54479 0
M  V30 3930 C 354.061 -3.32987 3.04024 0
M  V30 3931 C 352.723 -3.35613 3.44844 0
M  V30 3932 C 355.075 -3.34102 4.00031 0
M  V30 3933 C 352.403 -3.36982 4.8027 0
M  V30 3934 C 354.755 -3.3701 5.35357 0
M  V30 3935 C 353.419 -3.37923 5.75642 0
M  V30 3936 H 352.689 -0.652422 0.351322 0
M  V30 3937 H 355.336 -1.23782 1.46117 0
M  V30 3938 H 353.641 -3.7972 0.965391 0
M  V30 3939 H 355.338 -3.77376 1.35603 0
M  V30 3940 H 351.928 -3.31655 2.71483 0
M  V30 3941 H 356.112 -3.31276 3.69554 0
M  V30 3942 H 351.368 -3.35999 5.10798 0
M  V30 3943 H 355.542 -3.36822 6.09528 0
M  V30 3944 H 353.169 -3.38738 6.80559 0
M  V30 3945 N 354.744 -0.972509 -1.24016 0
M  V30 3946 C 355.99 -0.637978 -1.92504 0
M  V30 3947 C 356.323 0.825383 -1.75787 0
M  V30 3948 O 355.598 1.59442 -1.11393 0
M  V30 3949 C 355.881 -1.01942 -3.45369 0
M  V30 3950 C 355.734 -2.53983 -3.71231 0
M  V30 3951 C 357.053 -0.55751 -4.36555 0
M  V30 3952 H 354.172 -0.233248 -0.699117 0
M  V30 3953 H 356.814 -1.21238 -1.46292 0
M  V30 3954 H 354.964 -0.530656 -3.84859 0
M  V30 3955 H 356.636 -3.10374 -3.41271 0
M  V30 3956 H 354.879 -2.96968 -3.16216 0
M  V30 3957 H 355.55 -2.75723 -4.78206 0
M  V30 3958 H 358.026 -0.977029 -4.04467 0
M  V30 3959 H 356.902 -0.85292 -5.42233 0
M  V30 3960 H 357.163 0.542328 -4.38761 0
M  V30 3961 N 356.222 1.38976 -0.743202 0
M  V30 3962 C 357.47 1.99948 -0.29417 0
M  V30 3963 C 357.791 1.59279 1.12495 0
M  V30 3964 O 357.061 0.844808 1.76748 0
M  V30 3965 H 355.641 0.739473 -0.105774 0
M  V30 3966 H 358.303 1.699 -0.954986 0
M  V30 3967 H 357.399 3.10142 -0.349056 0
M  V30 3968 N 357.7 0.491464 1.49741 0
M  V30 3969 C 358.63 -0.28154 2.31796 0
M  V30 3970 C 359.611 -0.971473 1.3963 0
M  V30 3971 O 360.796 -0.964719 1.68543 0
M  V30 3972 C 357.926 -1.35203 3.19902 0
M  V30 3973 C 356.88 -0.782529 4.20786 0
M  V30 3974 C 356.206 -1.95283 4.97764 0
M  V30 3975 C 357.506 0.21999 5.21837 0
M  V30 3976 H 359.2 0.403355 2.96671 0
M  V30 3977 H 356.746 0.195425 1.42668 0
M  V30 3978 H 358.699 -1.90045 3.76113 0
M  V30 3979 H 357.423 -2.06598 2.52953 0
M  V30 3980 H 356.082 -0.255928 3.65706 0
M  V30 3981 H 355.73 -2.65423 4.2727 0
M  V30 3982 H 355.43 -1.57789 5.66018 0
M  V30 3983 H 356.954 -2.50577 5.56816 0
M  V30 3984 H 358.368 -0.23996 5.72798 0
M  V30 3985 H 356.765 0.51026 5.97927 0
M  V30 3986 H 357.835 1.13911 4.7133 0
M  V30 3987 N 359.178 -1.55987 0.224894 0
M  V30 3988 C 360.594 -1.59066 -0.130426 0
M  V30 3989 C 360.794 -1.24176 -1.5869 0
M  V30 3990 O 359.85 -0.978592 -2.32766 0
M  V30 3991 C 361.163 -3.00042 0.198883 0
M  V30 3992 C 362.711 -3.1268 0.141391 0
M  V30 3993 C 363.186 -4.55839 0.444422 0
M  V30 3994 N 364.677 -4.6152 0.394115 0
M  V30 3995 C 365.412 -5.70231 0.602038 0
M  V30 3996 N 364.908 -6.87291 0.871914 0
M  V30 3997 N 366.701 -5.59555 0.534245 0
M  V30 3998 H 358.852 -1.76941 1.17497 0
M  V30 3999 H 361.115 -0.822604 0.471197 0
M  V30 4000 H 360.821 -3.30234 1.2099 0
M  V30 4001 H 360.695 -3.74075 -0.484535 0
M  V30 4002 H 363.082 -2.82283 -0.860265 0
M  V30 4003 H 363.163 -2.40969 0.858335 0
M  V30 4004 H 362.807 -4.86954 1.44353 0
M  V30 4005 H 362.737 -5.2578 -0.293752 0
M  V30 4006 H 365.228 -3.77405 0.193356 0
M  V30 4007 H 365.541 -7.66058 1.01858 0
M  V30 4008 H 363.886 -6.89028 0.909145 0
M  V30 4009 H 367.077 -4.6698 0.323612 0
M  V30 4010 H 367.25 -6.44211 0.699693 0
M  V30 4011 N 360.656 0.0484629 -1.57525 0
M  V30 4012 C 361.604 1.07359 -2.06341 0
M  V30 4013 C 362.598 1.3865 -0.973269 0
M  V30 4014 O 363.804 1.37783 -1.15827 0
M  V30 4015 H 360.179 0.363662 -0.65822 0
M  V30 4016 H 362.15 0.635916 -2.91545 0
M  V30 4017 C 360.899 2.37198 -2.54229 0
M  V30 4018 H 360.222 2.13977 -3.37719 0
M  V30 4019 H 361.662 3.07319 -2.92115 0
M  V30 4020 C 360.121 3.04805 -1.43511 0
M  V30 4021 O 360.651 3.93848 -0.79034 0
M  V30 4022 N 358.857 2.65811 -1.17444 0
M  V30 4023 H 358.404 1.93488 -1.70059 0
M  V30 4024 H 358.362 3.11366 -0.435737 0
M  V30 4025 N 362.134 1.5431 0.320358 0
M  V30 4026 C 363.359 1.76954 1.08175 0
M  V30 4027 C 363.784 0.518193 1.80821 0
M  V30 4028 O 363.142 -0.530411 1.73368 0
M  V30 4029 C 363.19 2.96451 2.05303 0
M  V30 4030 O 362.294 2.68221 3.13259 0
M  V30 4031 H 361.635 0.586275 0.311733 0
M  V30 4032 H 364.165 2.01342 0.363676 0
M  V30 4033 H 364.175 3.23887 2.48116 0
M  V30 4034 H 362.85 3.87196 1.51829 0
M  V30 4035 H 361.427 2.51744 2.75099 0
M  V30 4036 N 363.613 -0.582584 1.46437 0
M  V30 4037 C 364.841 -1.36682 1.55324 0
M  V30 4038 C 365.256 -1.87796 0.194409 0
M  V30 4039 O 364.613 -1.63623 -0.808318 0
M  V30 4040 C 364.664 -2.55426 2.55812 0
M  V30 4041 O 364.385 -2.0643 3.86417 0
M  V30 4042 C 365.886 -3.47976 2.74641 0
M  V30 4043 H 363.106 -0.417545 0.525259 0
M  V30 4044 H 365.65 -0.708219 1.91845 0
M  V30 4045 H 363.805 -3.17275 2.22295 0
M  V30 4046 H 364.219 -2.83762 4.41111 0
M  V30 4047 H 365.693 -4.27775 3.48874 0
M  V30 4048 H 366.17 -3.99919 1.81553 0
M  V30 4049 H 366.776 -2.91962 3.09255 0
M  V30 4050 N 365.091 -1.34144 -0.827227 0
M  V30 4051 C 366.001 -1.27428 -1.96975 0
M  V30 4052 C 367.017 -0.182728 -1.73038 0
M  V30 4053 O 368.193 -0.408426 -1.97215 0
M  V30 4054 C 365.258 -1.02526 -3.31194 0
M  V30 4055 C 364.319 -2.20796 -3.68168 0
M  V30 4056 C 363.552 -1.97073 -4.95982 0
M  V30 4057 O 363.775 -0.926822 -5.6282 0
M  V30 4058 O 362.709 -2.83912 -5.30733 0
M  V30 4059 H 366.535 -2.23537 -2.05584 0
M  V30 4060 H 364.12 -1.14307 -0.961989 0
M  V30 4061 H 366.002 -0.904026 -4.11589 0
M  V30 4062 H 364.677 -0.0945389 -3.23562 0
M  V30 4063 H 363.584 -2.38477 -2.88235 0
M  V30 4064 H 364.917 -3.12243 -3.8048 0
M  V30 4065 N 366.569 1.04691 -1.17803 0
M  V30 4066 C 367.818 1.77176 -0.963931 0
M  V30 4067 C 368.131 1.88888 0.508015 0
M  V30 4068 O 369.337 2.58164 0.840465 0
M  V30 4069 C 367.793 3.18518 -1.67555 0
M  V30 4070 C 367.401 3.14919 -3.18637 0
M  V30 4071 C 369.145 3.95424 -1.54402 0
M  V30 4072 C 367.052 4.51081 -3.82466 0
M  V30 4073 H 365.982 0.664116 -0.357023 0
M  V30 4074 H 368.633 1.17303 -1.4111 0
M  V30 4075 H 367.015 3.78748 -1.15613 0
M  V30 4076 H 368.189 2.64178 -3.77554 0
M  V30 4077 H 366.504 2.51512 -3.31859 0
M  V30 4078 H 369.101 4.96106 -1.99456 0
M  V30 4079 H 369.444 4.13343 -0.495329 0
M  V30 4080 H 369.977 3.41754 -2.0359 0
M  V30 4081 H 366.716 4.38368 -4.87354 0
M  V30 4082 H 366.236 5.01951 -3.28337 0
M  V30 4083 H 367.915 5.2001 -3.84965 0
M  V30 4084 N 368.047 0.979072 1.23499 0
M  V30 4085 C 369.275 0.665202 1.95915 0
M  V30 4086 C 369.69 -0.767571 1.72493 0
M  V30 4087 O 369.047 -1.51635 1.01554 0
M  V30 4088 C 369.098 0.944438 3.48945 0
M  V30 4089 O 368.819 2.3209 3.71572 0
M  V30 4090 C 370.32 0.646336 4.38563 0
M  V30 4091 H 367.54 0.247218 0.623798 0
M  V30 4092 H 370.084 1.31009 1.57025 0
M  V30 4093 H 368.239 0.345575 3.85856 0
M  V30 4094 H 368.653 2.40957 4.65876 0
M  V30 4095 H 370.127 0.892091 5.44744 0
M  V30 4096 H 370.604 -0.419575 4.37191 0
M  V30 4097 H 371.21 1.22562 4.07258 0
M  V30 4098 N 369.525 -1.3858 0.750561 0
M  V30 4099 C 370.475 -2.27795 0.0965949 0
M  V30 4100 C 371.459 -1.45048 -0.696411 0
M  V30 4101 O 372.651 -1.67812 -0.562863 0
M  V30 4102 C 369.78 -3.33894 -0.798085 0
M  V30 4103 C 368.866 -4.241 0.0016067 0
M  V30 4104 N 369.257 -4.95067 1.03647 0
M  V30 4105 C 367.555 -4.45429 -0.225674 0
M  V30 4106 C 368.256 -5.61489 1.52004 0
M  V30 4107 N 367.232 -5.37135 0.835874 0
M  V30 4108 H 371.034 -2.80125 0.889228 0
M  V30 4109 H 368.548 -1.51446 0.586323 0
M  V30 4110 H 370.545 -3.96693 -1.28219 0
M  V30 4111 H 369.205 -2.83123 -1.5897 0
M  V30 4112 H 370.216 -4.98104 1.41819 0
M  V30 4113 H 366.893 -4.05571 -0.990872 0
M  V30 4114 H 368.283 -6.28264 2.38188 0
M  V30 4115 N 371.003 -0.499398 -1.49478 0
M  V30 4116 C 372.231 0.0425456 -2.06856 0
M  V30 4117 C 372.646 1.30964 -1.35992 0
M  V30 4118 O 372.003 1.77172 -0.437762 0
M  V30 4119 C 372.054 0.301735 -3.60239 0
M  V30 4120 O 371.775 -0.915127 -4.28436 0
M  V30 4121 C 373.276 0.887499 -4.34325 0
M  V30 4122 H 370.496 -0.0197482 -0.670709 0
M  V30 4123 H 373.04 -0.696297 -1.92281 0
M  V30 4124 H 371.195 0.990556 -3.74522 0
M  V30 4125 H 371.609 -0.676993 -5.20113 0
M  V30 4126 H 373.083 1.01845 -5.42523 0
M  V30 4127 H 373.56 1.88488 -3.96698 0
M  V30 4128 H 374.166 0.236196 -4.24644 0
M  V30 4129 N 372.481 1.55866 -0.233164 0
M  V30 4130 C 373.73 1.97779 0.39579 0
M  V30 4131 C 374.043 1.12419 1.60066 0
M  V30 4132 O 375.249 1.44283 2.29988 0
M  V30 4133 C 373.705 3.5188 0.755556 0
M  V30 4134 C 373.313 4.45959 -0.427152 0
M  V30 4135 C 375.057 4.02479 1.34946 0
M  V30 4136 C 372.964 5.91383 -0.0443043 0
M  V30 4137 H 371.894 0.738592 0.15165 0
M  V30 4138 H 374.545 1.80486 -0.331212 0
M  V30 4139 H 372.927 3.64816 1.5403 0
M  V30 4140 H 374.101 4.44776 -1.20462 0
M  V30 4141 H 372.416 4.05765 -0.935068 0
M  V30 4142 H 375.013 5.08637 1.649 0
M  V30 4143 H 375.356 3.49014 2.26925 0
M  V30 4144 H 375.889 3.92813 0.62791 0
M  V30 4145 H 372.628 6.48857 -0.930874 0
M  V30 4146 H 372.148 5.95734 0.697238 0
M  V30 4147 H 373.827 6.45893 0.378334 0
M  V30 4148 N 373.959 -0.0401083 1.57549 0
M  V30 4149 C 375.184 -0.748931 1.93406 0
M  V30 4150 C 375.609 -1.68686 0.832274 0
M  V30 4151 O 374.967 -1.80047 -0.212818 0
M  V30 4152 C 375.015 -1.4916 3.28304 0
M  V30 4153 O 374.119 -2.6042 3.19774 0
M  V30 4154 H 373.46 -0.202212 0.63246 0
M  V30 4155 H 375.99 0.00112086 2.046 0
M  V30 4156 H 376 -1.86395 3.62934 0
M  V30 4157 H 374.675 -0.80364 4.08062 0
M  V30 4158 H 373.252 -2.25808 2.96758 0
M  V30 4159 N 375.437 -1.54477 -0.31217 0
M  V30 4160 C 376.685 -1.72884 -1.04668 0
M  V30 4161 C 377.006 -0.511477 -1.88173 0
M  V30 4162 O 376.276 0.474407 -1.90069 0
M  V30 4163 H 374.856 -0.637461 -0.389425 0
M  V30 4164 H 377.518 -1.91807 -0.345852 0
M  V30 4165 H 376.614 -2.61334 -1.70619 0
M  V30 4166 N 376.915 0.57481 -1.46744 0
M  V30 4167 C 378.192 1.3352 -1.4294 0
M  V30 4168 C 378.572 2.10775 -0.117009 0
M  V30 4169 O 377.92 2.09966 0.901474 0
M  V30 4170 C 378.13 2.25456 -2.66403 0
M  V30 4171 C 379.478 2.87035 -3.12883 0
M  V30 4172 O 380.502 2.35766 -2.67007 0
M  V30 4173 O 379.361 3.80179 -3.92589 0
M  V30 4174 H 376.455 0.600318 -0.568812 0
M  V30 4175 H 379.001 0.595171 -1.58921 0
M  V30 4176 H 377.773 1.67851 -3.53471 0
M  V30 4177 H 377.396 3.06785 -2.52921 0
M  V30 4178 N 378.394 1.34581 0.820102 0
M  V30 4179 C 379.624 1.29991 1.6058 0
M  V30 4180 C 380.032 -0.127588 1.88769 0
M  V30 4181 O 379.375 -1.08595 1.48165 0
M  V30 4182 C 379.437 2.02548 2.9701 0
M  V30 4183 C 379.101 3.51794 2.91701 0
M  V30 4184 C 380.098 4.46647 2.66087 0
M  V30 4185 C 377.783 3.94249 3.11245 0
M  V30 4186 C 379.777 5.81929 2.60071 0
M  V30 4187 C 377.464 5.2963 3.04853 0
M  V30 4188 C 378.462 6.23282 2.793 0
M  V30 4189 O 378.15 7.56181 2.72847 0
M  V30 4190 H 377.882 0.448539 0.505756 0
M  V30 4191 H 380.436 1.77811 1.02822 0
M  V30 4192 H 378.666 1.49345 3.56697 0
M  V30 4193 H 380.355 1.91211 3.58041 0
M  V30 4194 H 381.121 4.15168 2.5072 0
M  V30 4195 H 377 3.21749 3.30149 0
M  V30 4196 H 380.544 6.54999 2.40046 0
M  V30 4197 H 376.441 5.60727 3.19774 0
M  V30 4198 H 377.209 7.6595 2.88553 0
M  V30 4199 N 379.872 -1.04064 1.18357 0
M  V30 4200 C 381.118 -1.77528 0.980397 0
M  V30 4201 C 381.451 -1.87948 -0.48879 0
M  V30 4202 O 380.726 -1.3876 -1.36293 0
M  V30 4203 C 381.009 -3.20797 1.63588 0
M  V30 4204 C 380.862 -3.1832 3.17793 0
M  V30 4205 C 382.181 -4.18911 1.34914 0
M  V30 4206 H 379.3 -0.644443 0.357578 0
M  V30 4207 H 381.942 -1.2156 1.46024 0
M  V30 4208 H 380.092 -3.68586 1.22788 0
M  V30 4209 H 381.764 -2.78521 3.67728 0
M  V30 4210 H 380.007 -2.56351 3.49952 0
M  V30 4211 H 380.678 -4.19489 3.58794 0
M  V30 4212 H 383.154 -3.7967 1.70265 0
M  V30 4213 H 382.03 -5.17374 1.83346 0
M  V30 4214 H 382.291 -4.41262 0.272027 0
M  V30 4215 N 381.35 -0.985608 -1.22978 0
M  V30 4216 C 382.599 -0.652881 -1.90841 0
M  V30 4217 C 382.912 0.817842 -1.77681 0
M  V30 4218 O 384.118 1.26185 -2.40395 0
M  V30 4219 C 382.574 -1.11717 -3.42122 0
M  V30 4220 C 382.182 -2.6126 -3.63933 0
M  V30 4221 C 383.926 -0.85843 -4.1573 0
M  V30 4222 C 381.833 -3.0133 -5.08876 0
M  V30 4223 H 380.763 -0.240491 -0.714619 0
M  V30 4224 H 383.414 -1.1942 -1.39324 0
M  V30 4225 H 381.796 -0.504027 -3.92779 0
M  V30 4226 H 382.97 -3.27858 -3.23799 0
M  V30 4227 H 381.285 -2.84937 -3.03644 0
M  V30 4228 H 383.882 -1.13359 -5.22546 0
M  V30 4229 H 384.225 0.205461 -4.15793 0
M  V30 4230 H 384.758 -1.43341 -3.71077 0
M  V30 4231 H 381.497 -4.06864 -5.13947 0
M  V30 4232 H 381.017 -2.3943 -5.49939 0
M  V30 4233 H 382.696 -2.92224 -5.77247 0
M  V30 4234 N 382.828 1.3818 -0.7579 0
M  V30 4235 C 383.761 2.28055 -0.0814093 0
M  V30 4236 C 384.739 1.45603 0.723779 0
M  V30 4237 O 385.923 1.74961 0.701491 0
M  V30 4238 C 383.05 3.2676 0.891394 0
M  V30 4239 C 382.096 4.26153 0.171909 0
M  V30 4240 S 382.929 5.23434 -1.13035 0
M  V30 4241 C 384.085 6.25694 -0.160727 0
M  V30 4242 H 384.318 2.85082 -0.84353 0
M  V30 4243 H 381.851 1.44246 -0.550671 0
M  V30 4244 H 383.809 3.8414 1.44731 0
M  V30 4245 H 382.47 2.68706 1.62652 0
M  V30 4246 H 381.663 4.95738 0.908843 0
M  V30 4247 H 381.265 3.72691 -0.312606 0
M  V30 4248 H 383.557 6.74161 0.671773 0
M  V30 4249 H 384.5 7.03285 -0.824353 0
M  V30 4250 H 384.908 5.64064 0.221892 0
M  V30 4251 N 384.306 0.507319 1.49211 0
M  V30 4252 C 385.534 -0.0315749 2.06876 0
M  V30 4253 C 385.949 -1.30241 1.36685 0
M  V30 4254 O 385.306 -1.76937 0.447152 0
M  V30 4255 C 385.357 -0.282627 3.60393 0
M  V30 4256 O 385.078 0.937835 4.27944 0
M  V30 4257 C 386.579 -0.864453 4.3479 0
M  V30 4258 H 383.799 0.0233048 0.670595 0
M  V30 4259 H 386.343 0.706484 1.91909 0
M  V30 4260 H 384.498 -0.97068 3.75042 0
M  V30 4261 H 384.912 0.704567 5.19746 0
M  V30 4262 H 386.386 -0.989664 5.43056 0
M  V30 4263 H 386.863 -1.86382 3.97692 0
M  V30 4264 H 387.469 -0.213672 4.24763 0
M  V30 4265 N 385.784 -1.5574 0.241426 0
M  V30 4266 C 387.033 -1.97986 -0.385295 0
M  V30 4267 C 387.346 -1.13267 -1.59468 0
M  V30 4268 O 388.552 -1.45501 -2.2922 0
M  V30 4269 C 387.008 -3.52275 -0.736884 0
M  V30 4270 C 386.616 -4.45726 0.450796 0
M  V30 4271 C 388.36 -4.03189 -1.3281 0
M  V30 4272 C 386.267 -5.91352 0.0756662 0
M  V30 4273 H 385.197 -0.739386 -0.147731 0
M  V30 4274 H 387.848 -1.80308 0.340779 0
M  V30 4275 H 386.23 -3.65628 -1.52094 0
M  V30 4276 H 387.404 -4.44131 1.22819 0
M  V30 4277 H 385.719 -4.05264 0.956573 0
M  V30 4278 H 388.316 -5.09505 -1.62201 0
M  V30 4279 H 388.659 -3.50212 -2.25071 0
M  V30 4280 H 389.192 -3.93141 -0.607069 0
M  V30 4281 H 385.931 -6.48354 0.965272 0
M  V30 4282 H 385.451 -5.96095 -0.665635 0
M  V30 4283 H 387.13 -6.46084 -0.344075 0
M  V30 4284 N 387.262 0.0317525 -1.57568 0
M  V30 4285 C 388.509 0.723104 -1.89149 0
M  V30 4286 C 388.837 1.75504 -0.838377 0
M  V30 4287 O 388.092 1.95037 0.160982 0
M  V30 4288 C 388.391 1.43167 -3.27472 0
M  V30 4289 C 388.057 0.535972 -4.47703 0
M  V30 4290 C 386.719 0.289262 -4.8033 0
M  V30 4291 C 389.071 -0.0826125 -5.21135 0
M  V30 4292 C 386.399 -0.584853 -5.83778 0
M  V30 4293 C 388.751 -0.944414 -6.25511 0
M  V30 4294 C 387.415 -1.20061 -6.56614 0
M  V30 4295 H 386.685 0.264602 -0.692146 0
M  V30 4296 H 389.332 -0.0169496 -1.91492 0
M  V30 4297 H 387.637 2.24497 -3.21105 0
M  V30 4298 H 389.334 1.97209 -3.49155 0
M  V30 4299 H 385.924 0.738414 -4.22191 0
M  V30 4300 H 390.108 0.0950302 -4.96209 0
M  V30 4301 H 385.364 -0.79168 -6.06253 0
M  V30 4302 H 389.538 -1.43026 -6.81554 0
M  V30 4303 H 387.165 -1.87967 -7.36595 0
M  V30 4304 N 388.74 1.54641 0.303973 0
M  V30 4305 C 389.987 1.7378 1.03955 0
M  V30 4306 C 390.315 0.521986 1.87365 0
M  V30 4307 O 389.57 -0.496099 1.89308 0
M  V30 4308 C 389.869 2.97753 1.97681 0
M  V30 4309 C 389.535 4.31671 1.30271 0
M  V30 4310 C 388.197 4.68075 1.11619 0
M  V30 4311 C 390.549 5.147 0.82055 0
M  V30 4312 C 387.877 5.8509 0.434304 0
M  V30 4313 C 390.229 6.32416 0.152395 0
M  V30 4314 C 388.893 6.67484 -0.0461067 0
M  V30 4315 H 388.163 0.635908 0.380398 0
M  V30 4316 H 390.81 1.88896 0.314718 0
M  V30 4317 H 389.115 2.77406 2.76682 0
M  V30 4318 H 390.812 3.09756 2.54661 0
M  V30 4319 H 387.402 4.03041 1.45795 0
M  V30 4320 H 391.586 4.87077 0.952374 0
M  V30 4321 H 386.842 6.10806 0.269495 0
M  V30 4322 H 391.016 6.96023 -0.229126 0
M  V30 4323 H 388.643 7.58011 -0.576494 0
M  V30 4324 N 390.218 -0.567019 1.47046 0
M  V30 4325 C 391.495 -1.3276 1.43646 0
M  V30 4326 C 391.875 -2.1071 0.128186 0
M  V30 4327 O 391.223 -2.10441 -0.890326 0
M  V30 4328 C 391.433 -2.2404 2.67595 0
M  V30 4329 C 392.781 -2.85372 3.14401 0
M  V30 4330 O 393.805 -2.34346 2.68254 0
M  V30 4331 O 392.664 -3.78091 3.946 0
M  V30 4332 H 389.758 -0.597293 0.571988 0
M  V30 4333 H 392.304 -0.586735 1.59234 0
M  V30 4334 H 391.076 -1.65975 3.54356 0
M  V30 4335 H 390.699 -3.05439 2.54544 0
M  V30 4336 N 391.696 -1.35014 -0.812953 0
M  V30 4337 C 392.626 -1.30069 -1.93919 0
M  V30 4338 C 393.607 -0.176275 -1.69184 0
M  V30 4339 O 394.792 -0.370227 -1.90638 0
M  V30 4340 C 391.922 -1.06547 -3.30552 0
M  V30 4341 C 390.876 -2.15561 -3.69753 0
M  V30 4342 C 390.202 -1.77214 -5.04479 0
M  V30 4343 C 391.502 -3.57476 -3.808 0
M  V30 4344 H 393.196 -2.24303 -1.98314 0
M  V30 4345 H 390.742 -1.07977 -0.952736 0
M  V30 4346 H 392.695 -1.01729 -4.08937 0
M  V30 4347 H 391.419 -0.0875719 -3.26483 0
M  V30 4348 H 390.078 -2.19466 -2.9365 0
M  V30 4349 H 389.726 -0.780589 -4.96906 0
M  V30 4350 H 389.426 -2.50184 -5.31678 0
M  V30 4351 H 390.95 -1.7391 -5.8531 0
M  V30 4352 H 392.364 -3.55929 -4.4943 0
M  V30 4353 H 390.761 -4.29152 -4.19462 0
M  V30 4354 H 391.831 -3.94091 -2.82525 0
M  V30 4355 N 393.175 1.03435 -1.18907 0
M  V30 4356 C 394.4 1.80919 -1.01406 0
M  V30 4357 C 394.825 1.83055 0.432721 0
M  V30 4358 O 394.183 1.25252 1.31079 0
M  V30 4359 C 394.231 3.24091 -1.58105 0
M  V30 4360 O 393.335 4.04434 -0.806669 0
M  V30 4361 H 392.676 0.558709 -0.358803 0
M  V30 4362 H 395.206 1.30223 -1.57807 0
M  V30 4363 H 395.216 3.74853 -1.61087 0
M  V30 4364 H 393.891 3.21851 -2.6341 0
M  V30 4365 H 392.468 3.63091 -0.849666 0
M  V30 4366 N 394.653 0.992116 1.22453 0
M  V30 4367 C 396.069 0.702713 1.43297 0
M  V30 4368 C 396.269 -0.726909 1.87932 0
M  V30 4369 O 395.325 -1.49792 2.0327 0
M  V30 4370 C 396.638 1.70762 2.47509 0
M  V30 4371 C 398.186 1.72298 2.61309 0
M  V30 4372 C 398.661 2.71649 3.68742 0
M  V30 4373 N 400.152 2.70239 3.76199 0
M  V30 4374 C 400.887 3.43778 4.58917 0
M  V30 4375 N 400.383 4.26914 5.45633 0
M  V30 4376 N 402.176 3.32487 4.5322 0
M  V30 4377 H 394.327 1.91543 0.917871 0
M  V30 4378 H 396.59 0.826031 0.465162 0
M  V30 4379 H 396.296 2.73059 2.21657 0
M  V30 4380 H 396.17 1.49985 3.46099 0
M  V30 4381 H 398.557 0.706989 2.86506 0
M  V30 4382 H 398.638 1.97143 1.62997 0
M  V30 4383 H 398.282 3.73397 3.44292 0
M  V30 4384 H 398.212 2.44074 4.66622 0
M  V30 4385 H 400.703 2.09912 3.14237 0
M  V30 4386 H 401.016 4.79855 6.05771 0
M  V30 4387 H 399.361 4.31002 5.45218 0
M  V30 4388 H 402.552 2.6698 3.84499 0
M  V30 4389 H 402.725 3.90058 5.17454 0
M  V30 4390 N 396.131 -1.37776 0.765217 0
M  V30 4391 C 397.547 -1.53297 0.444108 0
M  V30 4392 C 397.747 -1.72515 -1.04119 0
M  V30 4393 O 396.803 -1.74278 -1.82711 0
M  V30 4394 C 398.116 -2.73328 1.25349 0
M  V30 4395 C 399.664 -2.87185 1.24473 0
M  V30 4396 C 400.139 -4.10191 2.03733 0
M  V30 4397 N 401.63 -4.17291 2.01053 0
M  V30 4398 C 402.365 -5.11488 2.59166 0
M  V30 4399 N 401.861 -6.11285 3.26041 0
M  V30 4400 N 403.654 -5.03924 2.49032 0
M  V30 4401 H 395.805 -1.23552 1.72768 0
M  V30 4402 H 398.068 -0.601103 0.733062 0
M  V30 4403 H 397.774 -2.6557 2.30577 0
M  V30 4404 H 397.648 -3.66834 0.87823 0
M  V30 4405 H 400.035 -2.94418 0.20047 0
M  V30 4406 H 400.116 -1.94657 1.65959 0
M  V30 4407 H 399.76 -4.0372 3.08176 0
M  V30 4408 H 399.69 -5.01821 1.59633 0
M  V30 4409 H 402.181 -3.45825 1.5236 0
M  V30 4410 H 402.494 -6.79678 3.67774 0
M  V30 4411 H 400.839 -6.11583 3.30138 0
M  V30 4412 H 404.03 -4.24902 1.96407 0
M  V30 4413 H 404.203 -5.77152 2.94617 0
M  V30 4414 N 397.609 -0.515225 -1.4894 0
M  V30 4415 C 398.542 0.302518 -2.26186 0
M  V30 4416 C 399.52 0.957895 -1.31389 0
M  V30 4417 O 400.704 0.985198 -1.60705 0
M  V30 4418 C 397.831 1.42719 -3.07163 0
M  V30 4419 C 396.877 0.884736 -4.17223 0
M  V30 4420 S 397.71 -0.235767 -5.34981 0
M  V30 4421 C 398.866 0.891731 -6.19515 0
M  V30 4422 H 399.099 -0.353076 -2.95196 0
M  V30 4423 H 396.632 -0.300753 -1.51443 0
M  V30 4424 H 398.59 2.07152 -3.54398 0
M  V30 4425 H 397.251 2.05445 -2.37595 0
M  V30 4426 H 396.444 1.72801 -4.73451 0
M  V30 4427 H 396.046 0.317362 -3.72651 0
M  V30 4428 H 398.338 1.79377 -6.53322 0
M  V30 4429 H 399.281 0.367751 -7.07144 0
M  V30 4430 H 399.689 1.16548 -5.52338 0
M  V30 4431 N 399.087 1.5561 -0.249682 0
M  V30 4432 C 400.335 1.98618 0.373548 0
M  V30 4433 C 400.656 1.13919 1.58264 0
M  V30 4434 O 399.926 0.222637 1.94631 0
M  V30 4435 H 398.506 0.733571 0.141006 0
M  V30 4436 H 401.168 1.91748 -0.349117 0
M  V30 4437 H 400.264 3.04584 0.680796 0
M  V30 4438 N 400.565 -0.0233959 1.57583 0
M  V30 4439 C 401.795 -0.723631 1.93513 0
M  V30 4440 C 402.203 -1.69115 0.848333 0
M  V30 4441 O 401.546 -1.82781 -0.183484 0
M  V30 4442 C 401.608 -1.53075 3.25282 0
M  V30 4443 C 401.272 -0.727388 4.51174 0
M  V30 4444 C 402.269 -0.0251924 5.19894 0
M  V30 4445 C 399.954 -0.680256 4.97672 0
M  V30 4446 C 401.948 0.713374 6.33395 0
M  V30 4447 C 399.635 0.0620523 6.11068 0
M  V30 4448 C 400.633 0.757622 6.78785 0
M  V30 4449 O 400.321 1.48787 7.90011 0
M  V30 4450 H 400.053 -0.208051 0.643188 0
M  V30 4451 H 402.607 0.0167489 2.05393 0
M  V30 4452 H 400.837 -2.31508 3.09744 0
M  V30 4453 H 402.526 -2.11413 3.46496 0
M  V30 4454 H 403.292 -0.0526003 4.84971 0
M  V30 4455 H 399.171 -1.21116 4.44805 0
M  V30 4456 H 402.715 1.25683 6.86185 0
M  V30 4457 H 398.612 0.0913634 6.45435 0
M  V30 4458 H 399.38 1.40213 8.06401 0
M  V30 4459 N 402.043 -1.548 -0.295768 0
M  V30 4460 C 403.29 -1.74329 -1.03032 0
M  V30 4461 C 403.618 -0.531915 -1.87085 0
M  V30 4462 O 402.873 0.486052 -1.89568 0
M  V30 4463 C 403.172 -2.98797 -1.961 0
M  V30 4464 C 402.838 -4.32356 -1.2798 0
M  V30 4465 C 401.5 -4.68661 -1.09135 0
M  V30 4466 C 403.852 -5.15128 -0.793243 0
M  V30 4467 C 401.18 -5.85312 -0.403269 0
M  V30 4468 C 403.532 -6.32488 -0.118854 0
M  V30 4469 C 402.196 -6.6745 0.0815043 0
M  V30 4470 H 401.466 -0.637916 -0.37702 0
M  V30 4471 H 404.113 -1.8906 -0.304696 0
M  V30 4472 H 402.418 -2.78869 -2.75207 0
M  V30 4473 H 404.115 -3.11102 -2.53015 0
M  V30 4474 H 400.705 -4.03808 -1.43655 0
M  V30 4475 H 404.889 -4.87575 -0.92653 0
M  V30 4476 H 400.145 -6.1094 -0.237098 0
M  V30 4477 H 404.319 -6.95892 0.266035 0
M  V30 4478 H 401.946 -7.57695 0.616685 0
M  V30 4479 N 403.521 0.559213 -1.47345 0
M  V30 4480 C 404.749 1.34194 -1.57479 0
M  V30 4481 C 405.164 1.87463 -0.224261 0
M  V30 4482 O 404.521 1.64888 0.782185 0
M  V30 4483 C 404.572 2.51324 -2.59843 0
M  V30 4484 O 404.293 2.00256 -3.89653 0
M  V30 4485 C 405.794 3.43563 -2.80142 0
M  V30 4486 H 403.014 0.409136 -0.531835 0
M  V30 4487 H 405.558 0.677609 -1.92947 0
M  V30 4488 H 403.713 3.13699 -2.27314 0
M  V30 4489 H 404.127 2.76708 -4.4557 0
M  V30 4490 H 405.601 4.2217 -3.55635 0
M  V30 4491 H 406.078 3.9698 -1.87892 0
M  V30 4492 H 406.684 2.87005 -3.1386 0
M  V30 4493 N 404.999 1.35443 0.805782 0
M  V30 4494 C 406.248 1.28097 1.55801 0
M  V30 4495 C 406.561 -0.142428 1.95081 0
M  V30 4496 O 407.767 -0.33817 2.69386 0
M  V30 4497 C 406.223 2.24653 2.81174 0
M  V30 4498 C 405.831 3.72342 2.49129 0
M  V30 4499 C 407.575 2.2625 3.59181 0
M  V30 4500 C 405.482 4.60719 3.70799 0
M  V30 4501 H 404.412 0.475937 0.584808 0
M  V30 4502 H 407.063 1.60712 0.885661 0
M  V30 4503 H 405.445 1.85011 3.50124 0
M  V30 4504 H 406.619 4.20624 1.88181 0
M  V30 4505 H 404.934 3.73361 1.84366 0
M  V30 4506 H 407.531 2.89495 4.49552 0
M  V30 4507 H 407.874 1.26647 3.96568 0
M  V30 4508 H 408.407 2.64426 2.97193 0
M  V30 4509 H 405.146 5.61324 3.3852 0
M  V30 4510 H 404.666 4.17163 4.3097 0
M  V30 4511 H 406.345 4.76182 4.38018 0
M  V30 4512 N 406.477 -1.02803 1.19454 0
M  V30 4513 C 407.409 -2.11181 0.890807 0
M  V30 4514 C 408.422 -1.6238 -0.116829 0
M  V30 4515 O 409.611 -1.78144 0.112694 0
M  V30 4516 C 406.711 -3.37461 0.311942 0
M  V30 4517 C 405.884 -4.15446 1.36834 0
M  V30 4518 C 404.943 -5.20039 0.802864 0
M  V30 4519 O 403.969 -5.49602 1.48077 0
M  V30 4520 N 405.171 -5.79165 -0.393417 0
M  V30 4521 H 407.936 -2.37827 1.82369 0
M  V30 4522 H 405.497 -1.19101 1.09666 0
M  V30 4523 H 407.489 -4.0462 -0.0802225 0
M  V30 4524 H 406.059 -3.08156 -0.52524 0
M  V30 4525 H 405.279 -3.43423 1.93531 0
M  V30 4526 H 406.567 -4.64335 2.08015 0
M  V30 4527 H 405.965 -5.57466 -0.961658 0
M  V30 4528 H 404.522 -6.47729 -0.727351 0
M  V30 4529 N 407.956 -0.998596 -1.21925 0
M  V30 4530 C 409.184 -0.696286 -1.94832 0
M  V30 4531 C 409.599 0.740032 -1.73692 0
M  V30 4532 O 408.956 1.5 -1.03953 0
M  V30 4533 C 409.007 -0.999833 -3.47398 0
M  V30 4534 O 408.728 -2.37972 -3.67833 0
M  V30 4535 C 410.229 -0.716025 -4.37479 0
M  V30 4536 H 407.449 -0.257111 -0.619786 0
M  V30 4537 H 409.993 -1.33491 -1.54921 0
M  V30 4538 H 408.148 -0.406918 -3.85257 0
M  V30 4539 H 408.562 -2.48338 -4.61983 0
M  V30 4540 H 410.036 -0.978642 -5.43256 0
M  V30 4541 H 410.513 0.349968 -4.37803 0
M  V30 4542 H 411.119 -1.29025 -4.05256 0
M  V30 4543 N 409.434 1.37368 -0.772513 0
M  V30 4544 C 410.664 2.03647 -0.348082 0
M  V30 4545 C 411.072 1.58392 1.03482 0
M  V30 4546 O 410.415 0.760921 1.672 0
M  V30 4547 C 410.477 3.58131 -0.313404 0
M  V30 4548 C 410.141 4.2652 -1.64102 0
M  V30 4549 C 411.138 4.50587 -2.5936 0
M  V30 4550 C 408.823 4.64335 -1.91567 0
M  V30 4551 C 410.817 5.11526 -3.80289 0
M  V30 4552 C 408.504 5.24996 -3.12766 0
M  V30 4553 C 409.502 5.48529 -4.06946 0
M  V30 4554 O 409.19 6.07921 -5.26011 0
M  V30 4555 H 408.922 0.660538 -0.143753 0
M  V30 4556 H 411.476 1.76669 -1.04772 0
M  V30 4557 H 409.706 3.84159 0.442617 0
M  V30 4558 H 411.395 4.05813 0.0840613 0
M  V30 4559 H 412.161 4.21784 -2.39423 0
M  V30 4560 H 408.04 4.45353 -1.19088 0
M  V30 4561 H 411.584 5.29811 -4.53813 0
M  V30 4562 H 407.481 5.53223 -3.32588 0
M  V30 4563 H 408.249 6.26398 -5.26847 0
M  V30 4564 N 410.912 0.523116 1.48665 0
M  V30 4565 C 412.161 -0.01544 2.01694 0
M  V30 4566 C 412.474 -1.35975 1.40606 0
M  V30 4567 O 413.68 -1.98627 1.85093 0
M  V30 4568 C 412.136 -0.0779303 3.59816 0
M  V30 4569 C 411.744 1.26107 4.29885 0
M  V30 4570 C 413.488 -0.565678 4.20714 0
M  V30 4571 C 411.395 1.15954 5.79921 0
M  V30 4572 H 410.325 -0.00954163 0.75394 0
M  V30 4573 H 412.976 0.665865 1.70993 0
M  V30 4574 H 411.358 -0.824165 3.87329 0
M  V30 4575 H 412.532 2.02233 4.14051 0
M  V30 4576 H 410.847 1.68401 3.80828 0
M  V30 4577 H 413.444 -0.6595 5.30617 0
M  V30 4578 H 413.787 -1.56984 3.85567 0
M  V30 4579 H 414.32 0.12467 3.97605 0
M  V30 4580 H 411.059 2.13864 6.19631 0
M  V30 4581 H 410.579 0.439529 5.98187 0
M  V30 4582 H 412.258 0.847361 6.41427 0
M  V30 4583 N 412.39 -1.55475 0.257931 0
M  V30 4584 C 413.801 -1.8511 -0.243135 0
M  V30 4585 C 414.152 -1.17986 -1.5676 0
M  V30 4586 O 413.277 -0.462102 -2.11409 0
M  V30 4587 C 413.872 -3.35826 -0.447929 0
M  V30 4588 C 412.431 -3.65647 -0.893245 0
M  V30 4589 C 411.578 -2.7729 0.0232965 0
M  V30 4590 H 414.529 -1.51261 0.480199 0
M  V30 4591 H 414.55 -3.58002 -1.28898 0
M  V30 4592 H 414.062 -3.84652 0.516196 0
M  V30 4593 H 412.163 -3.22308 -1.86945 0
M  V30 4594 H 412.276 -4.73312 -0.742469 0
M  V30 4595 H 410.64 -2.49942 -0.490021 0
M  V30 4596 H 411.423 -3.28926 0.982994 0
M  V30 4597 N 413.868 0.0150385 -1.57593 0
M  V30 4598 C 415.108 0.70768 -1.91758 0
M  V30 4599 C 415.472 1.71764 -0.857974 0
M  V30 4600 O 416.673 2.45956 -1.0844 0
M  V30 4601 C 414.944 1.34736 -3.3103 0
M  V30 4602 S 416.503 2.06721 -3.87056 0
M  V30 4603 H 413.321 0.234119 -0.671349 0
M  V30 4604 H 415.923 -0.0380373 -1.95463 0
M  V30 4605 H 414.627 0.59926 -4.06001 0
M  V30 4606 H 414.158 2.13133 -3.30663 0
M  V30 4607 H 416.173 3.34047 -3.66915 0
M  V30 4608 N 415.346 1.54954 0.287554 0
M  V30 4609 C 416.595 1.74081 1.01877 0
M  V30 4610 C 416.908 0.541135 1.87966 0
M  V30 4611 O 418.114 0.614491 2.64455 0
M  V30 4612 C 416.57 3.08042 1.86113 0
M  V30 4613 C 416.178 4.35531 1.04961 0
M  V30 4614 C 417.922 3.36523 2.58752 0
M  V30 4615 C 415.829 5.60538 1.88551 0
M  V30 4616 H 414.759 0.64884 0.384087 0
M  V30 4617 H 417.41 1.81426 0.275101 0
M  V30 4618 H 415.792 2.94696 2.64519 0
M  V30 4619 H 416.966 4.59751 0.31074 0
M  V30 4620 H 415.281 4.14085 0.43843 0
M  V30 4621 H 417.878 4.27122 3.21668 0
M  V30 4622 H 418.221 2.56 3.28283 0
M  V30 4623 H 418.754 3.50901 1.87386 0
M  V30 4624 H 415.493 6.43767 1.23466 0
M  V30 4625 H 415.013 5.40483 2.60074 0
M  V30 4626 H 416.692 5.98297 2.46273 0
M  V30 4627 N 416.824 -0.551391 1.4764 0
M  V30 4628 C 417.754 -1.66757 1.63445 0
M  V30 4629 C 418.735 -1.63077 0.483742 0
M  V30 4630 O 419.92 -1.80607 0.71377 0
M  V30 4631 C 417.05 -3.05387 1.65396 0
M  V30 4632 C 416.004 -3.23918 2.79752 0
M  V30 4633 C 415.33 -4.63393 2.66779 0
M  V30 4634 C 416.63 -3.08735 4.21284 0
M  V30 4635 H 418.324 -1.53786 2.56886 0
M  V30 4636 H 415.87 -0.738415 1.23626 0
M  V30 4637 H 417.823 -3.83325 1.75043 0
M  V30 4638 H 416.547 -3.19332 0.685195 0
M  V30 4639 H 415.206 -2.48391 2.69625 0
M  V30 4640 H 414.854 -4.74144 1.67918 0
M  V30 4641 H 414.554 -4.7674 3.43501 0
M  V30 4642 H 416.078 -5.43458 2.78364 0
M  V30 4643 H 417.492 -3.76484 4.32357 0
M  V30 4644 H 415.889 -3.33588 4.98838 0
M  V30 4645 H 416.959 -2.0541 4.39243 0
M  V30 4646 N 418.302 -1.35869 -0.798587 0
M  V30 4647 C 419.53 -1.32722 -1.58722 0
M  V30 4648 C 419.945 0.0935631 -1.88568 0
M  V30 4649 O 419.302 1.04784 -1.49421 0
M  V30 4650 C 419.353 -2.13974 -2.91371 0
M  V30 4651 O 419.074 -3.50514 -2.62815 0
M  V30 4652 C 420.575 -2.18504 -3.85708 0
M  V30 4653 H 417.795 -0.45562 -0.492596 0
M  V30 4654 H 420.339 -1.78837 -0.991843 0
M  V30 4655 H 418.494 -1.71438 -3.47402 0
M  V30 4656 H 418.908 -3.92806 -3.47568 0
M  V30 4657 H 420.382 -2.79732 -4.75872 0
M  V30 4658 H 420.859 -1.18597 -4.22885 0
M  V30 4659 H 421.465 -2.61236 -3.35612 0
M  V30 4660 N 419.78 1.02168 -1.19998 0
M  V30 4661 C 421.026 1.75945 -1.00852 0
M  V30 4662 C 421.359 1.88702 0.458828 0
M  V30 4663 O 420.634 1.40911 1.34069 0
M  V30 4664 C 420.917 3.18154 -1.68671 0
M  V30 4665 C 420.77 3.13224 -3.22817 0
M  V30 4666 C 422.089 4.16711 -1.41561 0
M  V30 4667 H 419.208 0.638673 -0.367785 0
M  V30 4668 H 421.85 1.19222 -1.4794 0
M  V30 4669 H 420 3.66586 -1.28636 0
M  V30 4670 H 421.672 2.72635 -3.72112 0
M  V30 4671 H 419.915 2.50751 -3.53986 0
M  V30 4672 H 420.586 4.13728 -3.65422 0
M  V30 4673 H 423.062 3.76913 -1.76284 0
M  V30 4674 H 421.938 5.14391 -1.91553 0
M  V30 4675 H 422.199 4.40774 -0.342193 0
M  V30 4676 N 421.258 1.00505 1.21394 0
M  V30 4677 C 422.504 0.688793 1.90745 0
M  V30 4678 C 422.837 -0.778486 1.77914 0
M  V30 4679 O 422.112 -1.56433 1.15581 0
M  V30 4680 C 422.395 1.11063 3.42545 0
M  V30 4681 C 422.248 2.63737 3.64367 0
M  V30 4682 C 423.567 0.673059 4.34923 0
M  V30 4683 H 420.686 0.251702 0.692687 0
M  V30 4684 H 423.328 1.25074 1.43026 0
M  V30 4685 H 421.478 0.632508 3.83317 0
M  V30 4686 H 423.15 3.19313 3.32922 0
M  V30 4687 H 421.393 3.05248 3.08231 0
M  V30 4688 H 422.064 2.88305 4.70727 0
M  V30 4689 H 424.54 1.08392 4.01734 0
M  V30 4690 H 423.416 0.996383 5.39781 0
M  V30 4691 H 423.677 -0.425808 4.40045 0
M  V30 4692 N 422.737 -1.36956 0.779787 0
M  V30 4693 C 423.667 -2.32761 0.185651 0
M  V30 4694 C 424.648 -1.56177 -0.673989 0
M  V30 4695 O 425.833 -1.84378 -0.609797 0
M  V30 4696 C 422.963 -3.40418 -0.687964 0
M  V30 4697 C 421.917 -4.27941 0.0710102 0
M  V30 4698 C 421.243 -5.26681 -0.922573 0
M  V30 4699 C 422.543 -5.07006 1.25467 0
M  V30 4700 H 424.237 -2.82698 0.986008 0
M  V30 4701 H 421.783 -1.3592 0.475592 0
M  V30 4702 H 423.736 -4.06423 -1.11348 0
M  V30 4703 H 422.46 -2.89025 -1.52093 0
M  V30 4704 H 421.119 -3.63478 0.47739 0
M  V30 4705 H 420.767 -4.71565 -1.7503 0
M  V30 4706 H 420.467 -5.86103 -0.419237 0
M  V30 4707 H 421.991 -5.9556 -1.34686 0
M  V30 4708 H 423.405 -5.66105 0.905401 0
M  V30 4709 H 421.802 -5.75793 1.69063 0
M  V30 4710 H 422.872 -4.3921 2.05481 0
M  V30 4711 N 424.215 -0.530993 -1.48385 0
M  V30 4712 C 425.44 0.000729535 -2.074 0
M  V30 4713 C 425.865 1.27298 -1.3848 0
M  V30 4714 O 425.223 1.75599 -0.451081 0
M  V30 4715 C 425.271 0.206697 -3.60007 0
M  V30 4716 O 424.375 1.27514 -3.92191 0
M  V30 4717 H 423.716 -0.039583 -0.662819 0
M  V30 4718 H 426.246 -0.739194 -1.9078 0
M  V30 4719 H 426.256 0.42904 -4.05738 0
M  V30 4720 H 424.931 -0.722675 -4.09573 0
M  V30 4721 H 423.508 1.03537 -3.58238 0
M  V30 4722 N 425.693 1.55336 -0.266172 0
M  V30 4723 C 426.939 2.00423 0.346714 0
M  V30 4724 C 427.294 1.15132 1.54151 0
M  V30 4725 O 426.587 0.211289 1.90431 0
M  V30 4726 C 426.781 3.48606 0.787957 0
M  V30 4727 C 426.61 4.48236 -0.362535 0
M  V30 4728 C 425.38 4.98211 -0.843445 0
M  V30 4729 C 427.578 5.00199 -1.19603 0
M  V30 4730 N 425.56 5.81625 -1.96434 0
M  V30 4731 C 426.931 5.80973 -2.16497 0
M  V30 4732 C 428.986 4.82458 -1.2304 0
M  V30 4733 C 427.689 6.45896 -3.1656 0
M  V30 4734 C 429.715 5.48174 -2.21944 0
M  V30 4735 C 429.077 6.28751 -3.17571 0
M  V30 4736 H 425.176 0.776535 0.0922914 0
M  V30 4737 H 427.76 1.90792 -0.388154 0
M  V30 4738 H 425.931 3.58597 1.49207 0
M  V30 4739 H 427.663 3.80538 1.37742 0
M  V30 4740 H 424.418 4.71696 -0.424271 0
M  V30 4741 H 424.842 6.28025 -2.52813 0
M  V30 4742 H 429.484 4.19774 -0.504903 0
M  V30 4743 H 427.202 7.07734 -3.90048 0
M  V30 4744 H 430.788 5.36392 -2.25333 0
M  V30 4745 H 429.668 6.78703 -3.92851 0
M  V30 4746 N 427.171 -0.0066808 1.57599 0
M  V30 4747 C 428.417 -0.693947 1.90558 0
M  V30 4748 C 428.75 -1.73792 0.866594 0
M  V30 4749 O 428.025 -1.94156 -0.115548 0
M  V30 4750 C 428.308 -1.34317 3.34112 0
M  V30 4751 C 428.161 -0.311189 4.48722 0
M  V30 4752 C 429.48 -2.27116 3.7697 0
M  V30 4753 H 426.599 -0.250803 0.693013 0
M  V30 4754 H 429.241 0.043242 1.89951 0
M  V30 4755 H 427.391 -1.9715 3.3476 0
M  V30 4756 H 429.063 0.316944 4.6021 0
M  V30 4757 H 427.306 0.367253 4.32243 0
M  V30 4758 H 427.977 -0.804366 5.46108 0
M  V30 4759 H 430.453 -1.74306 3.77831 0
M  V30 4760 H 429.329 -2.69511 4.78179 0
M  V30 4761 H 429.59 -3.14743 3.10466 0
M  V30 4762 N 428.649 -1.55105 -0.279332 0
M  V30 4763 C 429.874 -1.7976 -1.03446 0
M  V30 4764 C 430.299 -0.565952 -1.79384 0
M  V30 4765 O 429.657 0.484259 -1.74713 0
M  V30 4766 C 429.705 -3.0179 -1.97371 0
M  V30 4767 O 428.809 -2.76432 -3.06038 0
M  V30 4768 H 428.15 -0.594334 -0.29608 0
M  V30 4769 H 430.68 -2.02235 -0.310165 0
M  V30 4770 H 430.69 -3.30351 -2.39441 0
M  V30 4771 H 429.365 -3.91085 -1.4151 0
M  V30 4772 H 427.942 -2.58949 -2.68328 0
M  V30 4773 N 430.127 0.543554 -1.4793 0
M  V30 4774 C 431.374 1.30008 -1.55255 0
M  V30 4775 C 431.702 1.93245 -0.220612 0
M  V30 4776 O 430.957 1.79141 0.787843 0
M  V30 4777 C 431.256 2.42078 -2.62932 0
M  V30 4778 C 430.922 1.96583 -4.0579 0
M  V30 4779 C 429.584 1.83893 -4.44676 0
M  V30 4780 C 431.936 1.62034 -4.95373 0
M  V30 4781 C 429.264 1.34969 -5.70964 0
M  V30 4782 C 431.616 1.14577 -6.22137 0
M  V30 4783 C 430.28 1.00493 -6.59892 0
M  V30 4784 H 429.55 0.475735 -0.568117 0
M  V30 4785 H 432.197 0.608075 -1.81589 0
M  V30 4786 H 430.502 3.16892 -2.30406 0
M  V30 4787 H 432.199 3.00236 -2.65818 0
M  V30 4788 H 428.789 2.07407 -3.75074 0
M  V30 4789 H 432.973 1.70705 -4.66019 0
M  V30 4790 H 428.229 1.2274 -5.98953 0
M  V30 4791 H 432.403 0.869109 -6.90955 0
M  V30 4792 H 430.03 0.623624 -7.57638 0
M  V30 4793 N 431.605 1.3629 0.791371 0
M  V30 4794 C 432.851 1.31613 1.5508 0
M  V30 4795 C 433.206 -0.104372 1.92117 0
M  V30 4796 O 432.499 -1.05845 1.5971 0
M  V30 4797 C 432.693 2.17068 2.8393 0
M  V30 4798 C 432.522 3.67285 2.59484 0
M  V30 4799 C 431.292 4.36469 2.54604 0
M  V30 4800 C 433.49 4.60595 2.28816 0
M  V30 4801 N 431.472 5.7234 2.22036 0
M  V30 4802 C 432.843 5.847 2.06218 0
M  V30 4803 C 434.898 4.4918 2.14806 0
M  V30 4804 C 433.601 6.98671 1.71028 0
M  V30 4805 C 435.627 5.63017 1.81014 0
M  V30 4806 C 434.989 6.86159 1.59263 0
M  V30 4807 H 431.088 0.536878 0.568582 0
M  V30 4808 H 433.672 1.71323 0.925007 0
M  V30 4809 H 431.843 1.79605 3.44378 0
M  V30 4810 H 433.575 2.03795 3.49642 0
M  V30 4811 H 430.33 3.89249 2.69782 0
M  V30 4812 H 430.754 6.44093 2.08503 0
M  V30 4813 H 435.396 3.54564 2.30313 0
M  V30 4814 H 433.114 7.9324 1.54259 0
M  V30 4815 H 436.7 5.56146 1.70861 0
M  V30 4816 H 435.58 7.72753 1.335 0
M  V30 4817 N 433.083 -1.0153 1.20538 0
M  V30 4818 C 434.332 -1.74558 1.01057 0
M  V30 4819 C 434.645 -1.90168 -0.457756 0
M  V30 4820 O 435.851 -2.60301 -0.771722 0
M  V30 4821 C 434.307 -3.13963 1.75941 0
M  V30 4822 C 433.915 -3.06361 3.26875 0
M  V30 4823 C 435.659 -3.91191 1.64832 0
M  V30 4824 C 433.566 -4.40782 3.94291 0
M  V30 4825 H 432.496 -0.654417 0.374505 0
M  V30 4826 H 435.147 -1.13521 1.44171 0
M  V30 4827 H 433.529 -3.75549 1.25614 0
M  V30 4828 H 434.703 -2.54074 3.84425 0
M  V30 4829 H 433.018 -2.42625 3.38411 0
M  V30 4830 H 435.615 -4.90644 2.12539 0
M  V30 4831 H 435.958 -4.11884 0.604745 0
M  V30 4832 H 436.491 -3.36236 2.12579 0
M  V30 4833 H 433.23 -4.25292 4.98805 0
M  V30 4834 H 432.75 -4.9307 3.41529 0
M  V30 4835 H 434.429 -5.09621 3.98617 0
M  V30 4836 N 434.561 -1.01147 -1.20859 0
M  V30 4837 C 435.509 -0.57059 -2.25493 0
M  V30 4838 C 436.503 0.388109 -1.64894 0
M  V30 4839 O 437.709 0.258592 -1.78133 0
M  V30 4840 H 434.084 -0.166191 -0.733406 0
M  V30 4841 H 436.055 -1.46411 -2.60012 0
M  V30 4842 C 434.804 0.0805241 -3.47607 0
M  V30 4843 H 434.127 -0.648156 -3.94511 0
M  V30 4844 H 435.567 0.352197 -4.22535 0
M  V30 4845 C 434.026 1.32175 -3.09889 0
M  V30 4846 O 434.556 2.41553 -3.20959 0
M  V30 4847 N 432.762 1.20392 -2.64488 0
M  V30 4848 H 432.309 0.313905 -2.5568 0
M  V30 4849 H 432.267 2.03541 -2.39621 0
M  V30 4850 N 436.039 1.36541 -0.78704 0
M  V30 4851 C 436.986 2.30082 -0.181901 0
M  V30 4852 C 437.956 1.5186 0.672896 0
M  V30 4853 O 439.141 1.80374 0.622072 0
M  V30 4854 C 436.281 3.3835 0.679197 0
M  V30 4855 C 435.394 4.31565 -0.193882 0
M  V30 4856 C 434.529 5.26915 0.673364 0
M  V30 4857 C 433.568 6.11769 -0.201315 0
M  V30 4858 N 432.705 6.99315 0.624777 0
M  V30 4859 H 437.545 2.81248 -0.985064 0
M  V30 4860 H 435.082 1.38437 -0.497342 0
M  V30 4861 H 437.04 3.99767 1.19341 0
M  V30 4862 H 435.67 2.8851 1.44781 0
M  V30 4863 H 434.722 3.71323 -0.826044 0
M  V30 4864 H 436.034 4.91191 -0.867937 0
M  V30 4865 H 435.188 5.9361 1.25348 0
M  V30 4866 H 433.927 4.67737 1.38105 0
M  V30 4867 H 432.932 5.44039 -0.793849 0
M  V30 4868 H 434.157 6.73022 -0.906568 0
M  V30 4869 H 432.103 6.42648 1.3168 0
M  V30 4870 H 432.02 7.56 0.00835237 0
M  V30 4871 H 433.288 7.70382 1.18879 0
M  V30 4872 N 437.518 0.538854 1.48102 0
M  V30 4873 C 438.795 -0.0568108 1.95517 0
M  V30 4874 C 439.175 -1.50408 1.48124 0
M  V30 4875 O 438.523 -2.17133 0.711727 0
M  V30 4876 C 438.733 0.0696262 3.48931 0
M  V30 4877 C 440.081 -0.0851202 4.24515 0
M  V30 4878 O 441.105 -0.0037347 3.562 0
M  V30 4879 O 439.964 -0.257025 5.45895 0
M  V30 4880 H 437.058 -0.0743695 0.823649 0
M  V30 4881 H 439.604 0.604081 1.58584 0
M  V30 4882 H 438.376 1.07744 3.76174 0
M  V30 4883 H 437.999 -0.629714 3.92582 0
M  V30 4884 N 438.996 -1.55193 0.274407 0
M  V30 4885 C 439.959 -2.212 -0.600279 0
M  V30 4886 C 440.959 -1.18963 -1.08187 0
M  V30 4887 O 442.149 -1.43873 -0.982158 0
M  V30 4888 C 439.281 -2.87739 -1.82809 0
M  V30 4889 H 440.474 -2.9989 -0.0239682 0
M  V30 4890 H 438.027 -1.5628 0.0250192 0
M  V30 4891 H 438.762 -2.13058 -2.44493 0
M  V30 4892 H 438.547 -3.62658 -1.49069 0
M  V30 4893 H 440.037 -3.38171 -2.45011 0
M  V30 4894 N 440.474 -0.00167713 -1.576 0
M  V30 4895 C 441.72 0.683832 -1.90923 0
M  V30 4896 C 442.053 1.7333 -0.875799 0
M  V30 4897 O 441.328 1.94215 0.10525 0
M  V30 4898 C 441.611 1.32543 -3.3482 0
M  V30 4899 C 441.464 0.287387 -4.48881 0
M  V30 4900 C 442.783 2.25114 -3.78169 0
M  V30 4901 H 439.902 0.247125 -0.694333 0
M  V30 4902 H 442.544 -0.0533149 -1.89925 0
M  V30 4903 H 440.694 1.95372 -3.35801 0
M  V30 4904 H 442.366 -0.341346 -4.60035 0
M  V30 4905 H 440.609 -0.39017 -4.32042 0
M  V30 4906 H 441.28 0.775393 -5.46527 0
M  V30 4907 H 443.756 1.723 -3.7875 0
M  V30 4908 H 442.632 2.66971 -4.79602 0
M  V30 4909 H 442.893 3.13092 -3.12131 0
M  V30 4910 N 441.952 1.55251 0.271103 0
M  V30 4911 C 443.363 1.66635 0.842007 0
M  V30 4912 C 443.714 0.594631 1.86972 0
M  V30 4913 O 442.839 -0.263532 2.14789 0
M  V30 4914 C 443.434 3.02082 1.53401 0
M  V30 4915 C 441.993 3.15487 2.05293 0
M  V30 4916 C 441.14 2.62438 0.895631 0
M  V30 4917 H 444.091 1.58629 0.0474117 0
M  V30 4918 H 444.112 2.95176 2.40107 0
M  V30 4919 H 443.624 3.80062 0.785786 0
M  V30 4920 H 441.725 2.42284 2.83071 0
M  V30 4921 H 441.838 4.22075 2.26693 0
M  V30 4922 H 440.202 2.19644 1.28953 0
M  V30 4923 H 440.985 3.42923 0.160878 0
M  V30 4924 N 443.43 -0.535701 1.48216 0
M  V30 4925 C 444.393 -1.623 1.61838 0
M  V30 4926 C 445.393 -1.53087 0.492024 0
M  V30 4927 O 446.583 -1.5686 0.757668 0
M  V30 4928 C 443.715 -3.01907 1.58319 0
M  V30 4929 H 444.908 -1.51564 2.58783 0
M  V30 4930 H 442.461 -0.757317 1.36727 0
M  V30 4931 H 443.196 -3.18155 0.628299 0
M  V30 4932 H 442.981 -3.10003 2.40085 0
M  V30 4933 H 444.471 -3.80969 1.71033 0
M  V30 4934 N 444.908 -1.36708 -0.784132 0
M  V30 4935 C 446.324 -1.17237 -1.08294 0
M  V30 4936 C 446.524 -5.93947e-05 -2.015 0
M  V30 4937 O 445.58 0.663686 -2.43622 0
M  V30 4938 C 446.893 -2.48557 -1.69233 0
M  V30 4939 C 448.441 -2.54968 -1.8155 0
M  V30 4940 C 448.916 -3.86388 -2.45904 0
M  V30 4941 N 450.407 -3.87762 -2.53367 0
M  V30 4942 C 451.142 -4.86191 -3.03983 0
M  V30 4943 N 450.638 -5.95015 -3.54866 0
M  V30 4944 N 452.431 -4.73606 -3.02743 0
M  V30 4945 H 444.582 -2.11758 -0.16501 0
M  V30 4946 H 446.845 -0.93822 -0.135822 0
M  V30 4947 H 446.551 -3.34638 -1.08215 0
M  V30 4948 H 446.425 -2.64748 -2.68679 0
M  V30 4949 H 448.812 -1.69302 -2.41704 0
M  V30 4950 H 448.893 -2.42672 -0.80895 0
M  V30 4951 H 448.537 -4.72462 -1.86392 0
M  V30 4952 H 448.467 -3.95982 -3.4714 0
M  V30 4953 H 450.958 -3.09145 -2.17343 0
M  V30 4954 H 451.271 -6.66086 -3.91854 0
M  V30 4955 H 449.616 -5.98676 -3.53003 0
M  V30 4956 H 452.807 -3.87717 -2.62284 0
M  V30 4957 H 452.98 -5.50473 -3.41881 0
M  V30 4958 N 446.386 1.0089 -1.21074 0
M  V30 4959 C 447.614 1.78191 -1.05145 0
M  V30 4960 C 448.029 1.84537 0.398952 0
M  V30 4961 O 447.386 1.30393 1.27687 0
M  V30 4962 C 447.437 3.22288 -1.63746 0
M  V30 4963 O 447.158 3.16315 -3.03111 0
M  V30 4964 C 448.659 4.16106 -1.52875 0
M  V30 4965 H 445.879 0.560129 -0.369454 0
M  V30 4966 H 448.423 1.26945 -1.60328 0
M  V30 4967 H 446.578 3.70655 -1.12664 0
M  V30 4968 H 446.992 4.06817 -3.31059 0
M  V30 4969 H 448.466 5.15026 -1.98626 0
M  V30 4970 H 448.943 4.36541 -0.482521 0
M  V30 4971 H 449.549 3.73625 -2.03185 0
M  V30 4972 N 447.864 1.01787 1.20321 0
M  V30 4973 C 449.089 0.727009 1.9424 0
M  V30 4974 C 449.514 -0.706179 1.74341 0
M  V30 4975 O 448.872 -1.48609 1.03852 0
M  V30 4976 C 448.92 1.06958 3.44372 0
M  V30 4977 O 448.024 0.181983 4.11998 0
M  V30 4978 H 447.365 0.269626 0.606793 0
M  V30 4979 H 449.895 1.36158 1.52716 0
M  V30 4980 H 449.905 1.02182 3.94997 0
M  V30 4981 H 448.58 2.11378 3.58179 0
M  V30 4982 H 447.157 0.287378 3.71791 0
M  V30 4983 N 449.342 -1.36122 0.79427 0
M  V30 4984 C 450.272 -2.32551 0.210328 0
M  V30 4985 C 451.253 -1.56884 -0.657386 0
M  V30 4986 O 452.438 -1.85014 -0.590207 0
M  V30 4987 C 449.568 -3.41128 -0.651819 0
M  V30 4988 C 448.522 -4.27842 0.116395 0
M  V30 4989 C 447.848 -5.2763 -0.86666 0
M  V30 4990 C 449.148 -5.05647 1.30837 0
M  V30 4991 H 450.842 -2.81636 1.01594 0
M  V30 4992 H 448.388 -1.35407 0.489981 0
M  V30 4993 H 450.341 -4.07581 -1.07031 0
M  V30 4994 H 449.065 -2.90622 -1.49019 0
M  V30 4995 H 447.724 -3.62952 0.515915 0
M  V30 4996 H 447.372 -4.73395 -1.70019 0
M  V30 4997 H 447.072 -5.86514 -0.35705 0
M  V30 4998 H 448.596 -5.96955 -1.28361 0
M  V30 4999 H 450.01 -5.65113 0.965393 0
M  V30 5000 H 448.407 -5.73967 1.75161 0
M  V30 5001 H 449.477 -4.37006 2.10128 0
M  V30 5002 N 450.82 -0.546701 -1.47814 0
M  V30 5003 C 452.068 -0.0187037 -2.02091 0
M  V30 5004 C 452.389 1.33168 -1.42447 0
M  V30 5005 O 451.659 1.86619 -0.595839 0
M  V30 5006 H 450.239 -0.00392531 -0.74699 0
M  V30 5007 H 452.901 -0.714327 -1.81338 0
M  V30 5008 H 451.997 0.0772219 -3.12004 0
M  V30 5009 N 452.299 1.55045 -0.282633 0
M  V30 5010 C 453.548 1.98938 0.332667 0
M  V30 5011 C 453.861 1.17455 1.56409 0
M  V30 5012 O 455.067 1.51527 2.25282 0
M  V30 5013 C 453.523 3.54105 0.643226 0
M  V30 5014 C 453.131 4.44374 -0.568814 0
M  V30 5015 C 454.875 4.06569 1.22074 0
M  V30 5016 C 452.782 5.90943 -0.232426 0
M  V30 5017 H 451.712 0.743043 0.128075 0
M  V30 5018 H 454.363 1.79341 -0.388464 0
M  V30 5019 H 452.745 3.69532 1.42346 0
M  V30 5020 H 453.919 4.40718 -1.34551 0
M  V30 5021 H 452.234 4.02585 -1.06369 0
M  V30 5022 H 454.831 5.13626 1.48635 0
M  V30 5023 H 455.174 3.56057 2.15707 0
M  V30 5024 H 455.707 3.94612 0.502621 0
M  V30 5025 H 452.446 6.45567 -1.13683 0
M  V30 5026 H 451.966 5.9765 0.507357 0
M  V30 5027 H 453.645 6.4677 0.172657 0
M  V30 5028 N 453.777 0.010035 1.57597 0
M  V30 5029 C 455.005 -0.683413 1.95287 0
M  V30 5030 C 455.42 -1.66747 0.885481 0
M  V30 5031 O 454.777 -1.82003 -0.134629 0
M  V30 5032 C 454.828 -1.40652 3.33015 0
M  V30 5033 O 454.549 -0.461916 4.35658 0
M  V30 5034 C 456.05 -2.19356 3.85225 0
M  V30 5035 H 453.27 -0.189708 0.643624 0
M  V30 5036 H 455.814 0.0641359 2.04399 0
M  V30 5037 H 453.969 -2.10562 3.2518 0
M  V30 5038 H 454.383 -0.973215 5.15392 0
M  V30 5039 H 455.857 -2.65433 4.83993 0
M  V30 5040 H 456.334 -3.02457 3.18459 0
M  V30 5041 H 456.94 -1.54442 3.96267 0
M  V30 5042 N 455.255 -1.55392 -0.262866 0
M  V30 5043 C 456.483 -1.80513 -1.01108 0
M  V30 5044 C 456.898 -0.583533 -1.79556 0
M  V30 5045 O 456.255 0.447585 -1.76926 0
M  V30 5046 C 456.306 -3.03648 -1.96164 0
M  V30 5047 O 456.027 -4.2109 -1.20893 0
M  V30 5048 C 457.528 -3.41448 -2.82715 0
M  V30 5049 H 454.748 -0.601079 -0.298236 0
M  V30 5050 H 457.292 -2.02425 -0.290582 0
M  V30 5051 H 455.447 -2.83832 -2.63663 0
M  V30 5052 H 455.861 -4.90771 -1.85051 0
M  V30 5053 H 457.335 -4.30751 -3.45192 0
M  V30 5054 H 457.812 -2.61308 -3.53008 0
M  V30 5055 H 458.418 -3.63559 -2.20693 0
M  V30 5056 N 456.733 0.527833 -1.48498 0
M  V30 5057 C 457.979 1.28545 -1.56857 0
M  V30 5058 C 458.312 1.92678 -0.242651 0
M  V30 5059 O 457.587 1.79394 0.751545 0
M  V30 5060 C 457.87 2.37314 -2.70839 0
M  V30 5061 C 457.723 1.77858 -4.13142 0
M  V30 5062 C 459.042 3.39068 -2.80573 0
M  V30 5063 H 456.161 0.466006 -0.570971 0
M  V30 5064 H 458.803 0.587784 -1.8068 0
M  V30 5065 H 456.953 2.96821 -2.50658 0
M  V30 5066 H 458.625 1.22385 -4.44769 0
M  V30 5067 H 456.868 1.08383 -4.20042 0
M  V30 5068 H 457.539 2.56624 -4.88721 0
M  V30 5069 H 460.015 2.89518 -2.98862 0
M  V30 5070 H 458.891 4.12566 -3.6205 0
M  V30 5071 H 459.152 3.9975 -1.88818 0
M  V30 5072 N 458.211 1.37122 0.776871 0
M  V30 5073 C 459.141 1.35164 1.90402 0
M  V30 5074 C 460.122 0.221069 1.68657 0
M  V30 5075 O 461.307 0.420642 1.8959 0
M  V30 5076 C 458.437 1.15274 3.27611 0
M  V30 5077 C 457.391 2.25289 3.63908 0
M  V30 5078 C 456.717 1.90527 4.99603 0
M  V30 5079 C 458.017 3.67446 3.71188 0
M  V30 5080 H 459.711 2.29482 1.92297 0
M  V30 5081 H 457.257 1.10465 0.923773 0
M  V30 5082 H 459.21 1.12536 4.06096 0
M  V30 5083 H 457.934 0.174102 3.26136 0
M  V30 5084 H 456.593 2.27174 2.87728 0
M  V30 5085 H 456.241 0.91206 4.94662 0
M  V30 5086 H 455.941 2.64193 5.24858 0
M  V30 5087 H 457.465 1.89367 5.80493 0
M  V30 5088 H 458.879 3.67719 4.39836 0
M  V30 5089 H 457.276 4.40123 4.07936 0
M  V30 5090 H 458.346 4.01443 2.71977 0
M  V30 5091 N 459.689 -1.00246 1.21608 0
M  V30 5092 C 460.917 -1.77631 1.06089 0
M  V30 5093 C 461.332 -1.84746 -0.38916 0
M  V30 5094 O 460.689 -1.31068 -1.26994 0
M  V30 5095 C 460.74 -3.21415 1.65453 0
M  V30 5096 O 460.461 -3.14703 3.04785 0
M  V30 5097 C 461.962 -4.15289 1.55079 0
M  V30 5098 H 459.182 -0.558162 0.37242 0
M  V30 5099 H 461.726 -1.26093 1.60999 0
M  V30 5100 H 459.881 -3.70053 1.14629 0
M  V30 5101 H 460.295 -4.05056 3.33212 0
M  V30 5102 H 461.769 -5.13965 2.01355 0
M  V30 5103 H 462.246 -4.36279 0.505665 0
M  V30 5104 H 462.852 -3.72543 2.05163 0
M  V30 5105 N 461.167 -1.02423 -1.1978 0
M  V30 5106 C 462.1 -0.545641 -2.21581 0
M  V30 5107 C 463.078 0.411024 -1.57319 0
M  V30 5108 O 464.262 0.329223 -1.85603 0
M  V30 5109 C 461.389 0.204973 -3.38079 0
M  V30 5110 C 460.435 -0.70241 -4.20676 0
M  V30 5111 S 461.268 -2.17595 -4.89298 0
M  V30 5112 C 462.424 -1.43572 -6.09211 0
M  V30 5113 H 462.657 -1.4082 -2.61834 0
M  V30 5114 H 460.19 -0.833771 -1.29952 0
M  V30 5115 H 462.148 0.631924 -4.05607 0
M  V30 5116 H 460.809 1.0432 -2.9627 0
M  V30 5117 H 460.002 -0.123193 -5.03849 0
M  V30 5118 H 459.604 -1.06747 -3.58442 0
M  V30 5119 H 461.896 -0.719806 -6.73665 0
M  V30 5120 H 462.839 -2.24388 -6.71607 0
M  V30 5121 H 463.247 -0.935252 -5.56699 0
M  V30 5122 N 462.645 1.35699 -0.801477 0
M  V30 5123 C 463.873 2.03157 -0.391768 0
M  V30 5124 C 464.288 1.60412 0.995668 0
M  V30 5125 O 463.645 0.799228 1.64069 0
M  V30 5126 C 463.696 3.58566 -0.459671 0
M  V30 5127 O 463.417 3.99756 -1.7924 0
M  V30 5128 C 464.918 4.4328 -0.0421205 0
M  V30 5129 H 462.138 0.651688 -0.159825 0
M  V30 5130 H 464.682 1.73426 -1.08368 0
M  V30 5131 H 462.837 3.86963 0.183939 0
M  V30 5132 H 463.251 4.94387 -1.75162 0
M  V30 5133 H 464.725 5.51821 -0.140754 0
M  V30 5134 H 465.202 4.27383 1.01196 0
M  V30 5135 H 465.808 4.20168 -0.658687 0
M  V30 5136 N 464.123 0.554532 1.47522 0
M  V30 5137 C 465.351 0.034257 2.06872 0
M  V30 5138 C 465.766 -1.25826 1.40759 0
M  V30 5139 O 465.123 -1.75425 0.503217 0
M  V30 5140 C 465.174 -0.167827 3.6111 0
M  V30 5141 O 464.895 1.07351 4.24744 0
M  V30 5142 C 466.396 -0.72569 4.3732 0
M  V30 5143 H 463.616 0.0446275 0.669514 0
M  V30 5144 H 466.16 0.767181 1.89564 0
M  V30 5145 H 464.315 -0.850872 3.7794 0
M  V30 5146 H 464.729 0.869563 5.17242 0
M  V30 5147 H 466.203 -0.816394 5.45929 0
M  V30 5148 H 466.68 -1.73635 4.0342 0
M  V30 5149 H 467.286 -0.0784292 4.25228 0
M  V30 5150 N 465.601 -1.54893 0.290851 0
M  V30 5151 C 466.531 -2.26103 -0.583084 0
M  V30 5152 C 467.512 -1.25684 -1.14619 0
M  V30 5153 O 468.697 -1.54436 -1.17741 0
M  V30 5154 C 465.827 -2.99409 -1.75987 0
M  V30 5155 C 464.781 -4.0689 -1.32758 0
M  V30 5156 C 464.107 -4.67856 -2.58872 0
M  V30 5157 C 465.407 -5.20215 -0.46624 0
M  V30 5158 H 467.101 -2.99398 0.0108214 0
M  V30 5159 H 464.647 -1.43998 0.00664468 0
M  V30 5160 H 466.6 -3.47943 -2.37727 0
M  V30 5161 H 465.324 -2.23675 -2.37985 0
M  V30 5162 H 463.983 -3.59191 -0.733299 0
M  V30 5163 H 463.631 -3.88772 -3.19163 0
M  V30 5164 H 463.331 -5.40438 -2.30653 0
M  V30 5165 H 464.855 -5.19147 -3.21433 0
M  V30 5166 H 466.269 -5.64704 -0.989047 0
M  V30 5167 H 464.666 -5.99455 -0.27826 0
M  V30 5168 H 465.736 -4.82198 0.511173 0
M  V30 5169 N 467.08 -0.0183926 -1.57589 0
M  V30 5170 C 468.305 0.676634 -1.96052 0
M  V30 5171 C 468.73 1.6548 -0.894307 0
M  V30 5172 O 468.088 1.80712 0.145849 0
M  V30 5173 C 468.136 1.36872 -3.33614 0
M  V30 5174 O 467.24 2.48372 -3.29219 0
M  V30 5175 H 466.581 0.1786 -0.63953 0
M  V30 5176 H 469.111 -0.077056 -2.04455 0
M  V30 5177 H 469.121 1.72797 -3.69601 0
M  V30 5178 H 467.796 0.651636 -4.10763 0
M  V30 5179 H 466.373 2.14639 -3.04934 0
M  V30 5180 N 468.558 1.5553 0.254621 0
M  V30 5181 C 469.786 1.81046 1.00149 0
M  V30 5182 C 470.201 0.593047 1.79244 0
M  V30 5183 O 469.558 -0.438196 1.77161 0
M  V30 5184 C 469.609 3.04684 1.94551 0
M  V30 5185 O 469.33 4.21725 1.18658 0
M  V30 5186 C 470.831 3.42943 2.80901 0
M  V30 5187 H 468.051 0.602653 0.295044 0
M  V30 5188 H 470.595 2.02576 0.279842 0
M  V30 5189 H 468.75 2.85226 2.62154 0
M  V30 5190 H 469.164 4.91746 1.82445 0
M  V30 5191 H 470.638 4.32576 3.42902 0
M  V30 5192 H 471.115 2.63176 3.51617 0
M  V30 5193 H 471.721 3.64724 2.18762 0
M  V30 5194 N 470.036 -0.519951 1.48776 0
M  V30 5195 C 471.285 -1.27175 1.56555 0
M  V30 5196 C 471.598 -1.9401 0.248869 0
M  V30 5197 O 472.804 -2.70725 0.205004 0
M  V30 5198 C 471.26 -2.30811 2.76142 0
M  V30 5199 C 470.868 -1.7 4.14493 0
M  V30 5200 C 472.612 -3.06937 2.9324 0
M  V30 5201 C 470.519 -2.71635 5.25327 0
M  V30 5202 H 469.449 -0.478329 0.582853 0
M  V30 5203 H 472.1 -0.547916 1.75129 0
M  V30 5204 H 470.482 -3.06274 2.51023 0
M  V30 5205 H 471.656 -1.00658 4.49672 0
M  V30 5206 H 469.971 -1.06331 4.02595 0
M  V30 5207 H 472.568 -3.82905 3.73213 0
M  V30 5208 H 472.911 -3.63409 2.03075 0
M  V30 5209 H 473.444 -2.38589 3.18308 0
M  V30 5210 H 470.183 -2.1997 6.1749 0
M  V30 5211 H 469.703 -3.39275 4.94624 0
M  V30 5212 H 471.382 -3.34429 5.53865 0
M  V30 5213 N 471.514 -1.37532 -0.769588 0
M  V30 5214 C 472.477 -1.33292 -1.86456 0
M  V30 5215 C 473.477 -0.236537 -1.59051 0
M  V30 5216 O 474.667 -0.492511 -1.67093 0
M  V30 5217 C 471.799 -1.07118 -3.23633 0
M  V30 5218 H 472.992 -2.30692 -1.91628 0
M  V30 5219 H 470.545 -1.22593 -0.969572 0
M  V30 5220 H 471.28 -0.102578 -3.24138 0
M  V30 5221 H 471.065 -1.86479 -3.44917 0
M  V30 5222 H 472.555 -1.06806 -4.03711 0
M  V30 5223 N 472.992 0.995999 -1.22138 0
M  V30 5224 C 474.408 1.25917 -0.980667 0
M  V30 5225 C 474.608 1.98819 0.327604 0
M  V30 5226 O 473.664 2.29587 1.05101 0
M  V30 5227 C 474.977 2.07399 -2.17729 0
M  V30 5228 C 476.525 2.20594 -2.22052 0
M  V30 5229 C 477 3.05462 -3.41258 0
M  V30 5230 N 478.491 3.13049 -3.41401 0
M  V30 5231 C 479.226 3.78997 -4.30289 0
M  V30 5232 N 478.722 4.46899 -5.2939 0
M  V30 5233 N 480.515 3.75728 -4.18073 0
M  V30 5234 H 472.666 0.507158 -2.06256 0
M  V30 5235 H 474.929 0.28658 -0.903646 0
M  V30 5236 H 474.635 1.61191 -3.12586 0
M  V30 5237 H 474.509 3.08154 -2.17534 0
M  V30 5238 H 476.896 2.66017 -1.27745 0
M  V30 5239 H 476.977 1.1928 -2.26287 0
M  V30 5240 H 476.621 2.60739 -4.35864 0
M  V30 5241 H 476.551 4.06911 -3.34262 0
M  V30 5242 H 479.042 2.64721 -2.69688 0
M  V30 5243 H 479.355 4.94952 -5.935 0
M  V30 5244 H 477.7 4.45657 -5.33306 0
M  V30 5245 H 480.891 3.2184 -3.39907 0
M  V30 5246 H 481.064 4.26845 -4.87553 0
M  V30 5247 N 474.47 1.03057 1.19235 0
M  V30 5248 C 475.417 0.612832 2.22515 0
M  V30 5249 C 476.387 -0.374224 1.61829 0
M  V30 5250 O 477.572 -0.270501 1.88873 0
M  V30 5251 C 474.712 -0.028475 3.45088 0
M  V30 5252 C 473.825 1.00483 4.20151 0
M  V30 5253 C 472.96 0.333102 5.30155 0
M  V30 5254 C 471.999 1.3522 5.96977 0
M  V30 5255 N 471.136 0.70616 6.9854 0
M  V30 5256 H 475.976 1.49812 2.57605 0
M  V30 5257 H 473.513 0.749658 1.26564 0
M  V30 5258 H 475.471 -0.417548 4.15105 0
M  V30 5259 H 474.101 -0.877334 3.10649 0
M  V30 5260 H 473.153 1.51194 3.49062 0
M  V30 5261 H 474.465 1.77929 4.65986 0
M  V30 5262 H 473.619 -0.110725 6.06599 0
M  V30 5263 H 472.358 -0.473547 4.85396 0
M  V30 5264 H 471.363 1.80627 5.19282 0
M  V30 5265 H 472.588 2.16037 6.4382 0
M  V30 5266 H 470.534 -0.0803667 6.55951 0
M  V30 5267 H 470.451 1.41848 7.42573 0
M  V30 5268 H 471.719 0.286391 7.78974 0
M  V30 5269 N 475.948 -1.35272 0.808662 0
M  V30 5270 C 477.173 -2.03477 0.401475 0
M  V30 5271 C 477.598 -1.60537 -0.980279 0
M  V30 5272 O 476.956 -0.78304 -1.63518 0
M  V30 5273 C 477.004 -3.57181 0.495354 0
M  V30 5274 O 476.108 -4.09474 -0.490397 0
M  V30 5275 H 475.449 -0.642561 0.167366 0
M  V30 5276 H 477.979 -1.72824 1.09512 0
M  V30 5277 H 477.989 -4.06356 0.365912 0
M  V30 5278 H 476.664 -3.87784 1.5032 0
M  V30 5279 H 475.241 -3.71516 -0.321023 0
M  V30 5280 N 477.426 -0.562348 -1.47226 0
M  V30 5281 C 478.356 0.170627 -2.32876 0
M  V30 5282 C 479.337 0.903748 -1.44106 0
M  V30 5283 O 480.522 0.883206 -1.72954 0
M  V30 5284 C 477.652 1.19786 -3.25989 0
M  V30 5285 C 476.606 0.580875 -4.2404 0
M  V30 5286 C 475.932 1.71311 -5.06514 0
M  V30 5287 C 477.232 -0.468714 -5.20193 0
M  V30 5288 H 478.926 -0.544441 -2.94408 0
M  V30 5289 H 476.472 -0.263271 -1.41573 0
M  V30 5290 H 478.425 1.71884 -3.84752 0
M  V30 5291 H 477.149 1.94294 -2.62521 0
M  V30 5292 H 475.808 0.0811538 -3.6651 0
M  V30 5293 H 475.456 2.44736 -4.39447 0
M  V30 5294 H 475.156 1.30604 -5.72902 0
M  V30 5295 H 476.68 2.23725 -5.68137 0
M  V30 5296 H 478.094 -0.0336028 -5.7329 0
M  V30 5297 H 476.491 -0.794957 -5.94811 0
M  V30 5298 H 477.561 -1.36269 -4.65359 0
M  V30 5299 N 478.904 1.54736 -0.299062 0
M  V30 5300 C 480.315 1.8569 0.193971 0
M  V30 5301 C 480.666 1.22101 1.53577 0
M  V30 5302 O 479.791 0.51799 2.10109 0
M  V30 5303 C 480.386 3.36895 0.358733 0
M  V30 5304 C 478.945 3.67887 0.795986 0
M  V30 5305 C 478.092 2.77131 -0.096807 0
M  V30 5306 H 481.043 1.49934 -0.520134 0
M  V30 5307 H 481.064 3.61294 1.19361 0
M  V30 5308 H 480.576 3.83148 -0.617998 0
M  V30 5309 H 478.677 3.27151 1.78334 0
M  V30 5310 H 478.79 4.75114 0.616718 0
M  V30 5311 H 477.154 2.51153 0.423581 0
M  V30 5312 H 477.937 3.26204 -1.06986 0
M  V30 5313 N 480.382 0.0267497 1.57577 0
M  V30 5314 C 481.329 -0.955894 2.10075 0
M  V30 5315 C 482.299 -1.32453 1.00226 0
M  V30 5316 O 483.484 -1.41826 1.27632 0
M  V30 5317 C 480.624 -2.2338 2.6305 0
M  V30 5318 C 479.737 -1.92183 3.86898 0
M  V30 5319 C 478.872 -3.14251 4.28275 0
M  V30 5320 C 477.911 -2.78862 5.44888 0
M  V30 5321 N 477.048 -3.93548 5.81433 0
M  V30 5322 H 481.888 -0.501303 2.93753 0
M  V30 5323 H 479.425 -0.235847 1.45197 0
M  V30 5324 H 481.383 -2.98124 2.91853 0
M  V30 5325 H 480.013 -2.6646 1.82205 0
M  V30 5326 H 479.065 -1.07692 3.64838 0
M  V30 5327 H 480.377 -1.62117 4.7172 0
M  V30 5328 H 479.531 -3.97317 4.58502 0
M  V30 5329 H 478.27 -3.47476 3.42215 0
M  V30 5330 H 477.275 -1.94208 5.14357 0
M  V30 5331 H 478.5 -2.46855 6.32645 0
M  V30 5332 H 476.446 -4.2662 4.98328 0
M  V30 5333 H 476.363 -3.67098 6.6089 0
M  V30 5334 H 477.631 -4.77325 6.16264 0
M  V30 5335 N 481.861 -1.55662 -0.24637 0
M  V30 5336 C 483.107 -1.77782 -0.975779 0
M  V30 5337 C 483.44 -0.592103 -1.84953 0
M  V30 5338 O 482.715 0.409588 -1.90138 0
M  V30 5339 C 482.998 -3.09788 -1.83584 0
M  V30 5340 C 482.851 -4.38764 -0.990241 0
M  V30 5341 C 484.17 -3.38029 -2.81823 0
M  V30 5342 H 481.289 -0.646789 -0.353317 0
M  V30 5343 H 483.931 -1.88398 -0.246248 0
M  V30 5344 H 482.081 -3.00869 -2.45784 0
M  V30 5345 H 483.753 -4.59675 -0.386897 0
M  V30 5346 H 481.996 -4.32798 -0.294626 0
M  V30 5347 H 482.667 -5.27514 -1.62584 0
M  V30 5348 H 485.143 -3.46915 -2.2976 0
M  V30 5349 H 484.019 -4.3161 -3.39122 0
M  V30 5350 H 484.28 -2.58968 -3.58313 0
M  V30 5351 N 483.339 0.512053 -1.4905 0
M  V30 5352 C 484.564 1.2959 -1.6193 0
M  V30 5353 C 484.989 1.85906 -0.286454 0
M  V30 5354 O 484.347 1.65312 0.744426 0
M  V30 5355 C 484.395 2.40987 -2.68249 0
M  V30 5356 O 483.499 3.44531 -2.26654 0
M  V30 5357 H 482.84 0.383053 -0.542371 0
M  V30 5358 H 485.37 0.614231 -1.95162 0
M  V30 5359 H 485.38 2.86913 -2.90078 0
M  V30 5360 H 484.055 1.99361 -3.65004 0
M  V30 5361 H 482.632 3.046 -2.15112 0
M  V30 5362 N 484.817 1.37938 0.762283 0
M  V30 5363 C 486.047 1.36685 1.54922 0
M  V30 5364 C 486.455 -0.0474099 1.89141 0
M  V30 5365 O 485.798 -1.02213 1.52638 0
M  V30 5366 C 485.86 2.14963 2.88152 0
M  V30 5367 C 485.524 3.6385 2.76518 0
M  V30 5368 C 486.521 4.57531 2.46904 0
M  V30 5369 C 484.206 4.07095 2.94243 0
M  V30 5370 C 486.2 5.92436 2.35156 0
M  V30 5371 C 483.887 5.42083 2.82116 0
M  V30 5372 C 484.885 6.34567 2.52614 0
M  V30 5373 O 484.573 7.67073 2.40529 0
M  V30 5374 H 484.305 0.469586 0.486276 0
M  V30 5375 H 486.859 1.82012 0.951876 0
M  V30 5376 H 485.089 1.6434 3.50042 0
M  V30 5377 H 486.778 2.06224 3.49609 0
M  V30 5378 H 487.544 4.25428 2.32886 0
M  V30 5379 H 483.423 3.35462 3.16206 0
M  V30 5380 H 486.967 6.64591 2.12049 0
M  V30 5381 H 482.864 5.73785 2.95704 0
M  V30 5382 H 483.632 7.77499 2.55807 0
M  V30 5383 N 486.295 -0.989507 1.22664 0
M  V30 5384 C 487.541 -1.7321 1.05481 0
M  V30 5385 C 487.874 -1.89852 -0.408635 0
M  V30 5386 O 487.149 -1.44416 -1.30285 0
M  V30 5387 C 487.432 -3.1357 1.77047 0
M  V30 5388 C 487.285 -3.04555 3.31008 0
M  V30 5389 C 488.604 -4.12812 1.5256 0
M  V30 5390 H 485.723 -0.628697 0.384589 0
M  V30 5391 H 488.365 -1.15258 1.51049 0
M  V30 5392 H 486.515 -3.63046 1.3831 0
M  V30 5393 H 488.187 -2.62674 3.7921 0
M  V30 5394 H 486.43 -2.41278 3.6051 0
M  V30 5395 H 487.101 -4.03894 3.76263 0
M  V30 5396 H 489.577 -3.72106 1.86215 0
M  V30 5397 H 488.453 -5.09132 2.05124 0
M  V30 5398 H 488.714 -4.39711 0.458936 0
M  V30 5399 N 487.773 -1.03688 -1.18687 0
M  V30 5400 C 489.001 -0.757918 -1.92518 0
M  V30 5401 C 489.416 0.684398 -1.75959 0
M  V30 5402 O 488.773 1.46617 -1.08673 0
M  V30 5403 C 488.824 -1.10985 -3.44042 0
M  V30 5404 O 488.545 -2.49554 -3.60076 0
M  V30 5405 C 490.046 -0.854844 -4.3498 0
M  V30 5406 H 487.266 -0.276699 -0.611293 0
M  V30 5407 H 489.81 -1.38352 -1.50595 0
M  V30 5408 H 487.965 -0.529279 -3.83767 0
M  V30 5409 H 488.379 -2.6291 -4.53849 0
M  V30 5410 H 489.853 -1.15098 -5.39867 0
M  V30 5411 H 490.33 0.210507 -4.38695 0
M  V30 5412 H 490.936 -1.41853 -4.00946 0
M  V30 5413 N 489.251 1.34841 -0.815825 0
M  V30 5414 C 490.214 2.27959 -0.238185 0
M  V30 5415 C 491.214 1.49983 0.579816 0
M  V30 5416 O 492.404 1.69617 0.396953 0
M  V30 5417 C 489.536 3.34314 0.666876 0
M  V30 5418 H 490.729 2.80558 -1.05958 0
M  V30 5419 H 488.282 1.44852 -0.587156 0
M  V30 5420 H 489.017 2.86916 1.5116 0
M  V30 5421 H 488.802 3.92014 0.0819106 0
M  V30 5422 H 490.292 4.0379 1.06506 0
M  V30 5423 N 490.729 0.570148 1.46925 0
M  V30 5424 C 491.662 -0.218362 2.27153 0
M  V30 5425 C 492.64 -0.90847 1.34854 0
M  V30 5426 O 493.824 -0.924875 1.64251 0
M  V30 5427 C 490.951 -1.3122 3.12248 0
M  V30 5428 C 489.997 -0.729277 4.20219 0
M  V30 5429 S 490.83 0.434159 5.33737 0
M  V30 5430 C 491.986 -0.661188 6.22398 0
M  V30 5431 H 492.219 0.462393 2.93682 0
M  V30 5432 H 489.752 0.356753 1.50222 0
M  V30 5433 H 491.71 -1.93856 3.61842 0
M  V30 5434 H 490.371 -1.96485 2.45056 0
M  V30 5435 H 489.564 -1.5511 4.79538 0
M  V30 5436 H 489.166 -0.178836 3.73572 0
M  V30 5437 H 491.458 -1.55006 6.5953 0
M  V30 5438 H 492.401 -0.105046 7.08022 0
M  V30 5439 H 492.809 -0.959682 5.56283 0
M  V30 5440 N 492.207 -1.54576 0.307264 0
M  V30 5441 C 493.484 -1.92377 -0.353605 0
M  V30 5442 C 493.864 -1.23517 -1.71192 0
M  V30 5443 O 493.212 -0.373101 -2.25433 0
M  V30 5444 C 493.422 -3.45928 -0.462039 0
M  V30 5445 C 494.77 -4.18278 -0.729975 0
M  V30 5446 O 495.794 -3.51997 -0.545605 0
M  V30 5447 O 494.653 -5.3563 -1.08454 0
M  V30 5448 H 491.747 -0.802747 -0.198812 0
M  V30 5449 H 494.293 -1.65929 0.355783 0
M  V30 5450 H 493.065 -3.88187 0.492592 0
M  V30 5451 H 492.688 -3.78431 -1.21965 0
M  V30 5452 N 493.685 -0.035106 -1.57561 0
M  V30 5453 C 494.615 0.942993 -2.13612 0
M  V30 5454 C 495.596 1.33531 -1.05373 0
M  V30 5455 O 496.781 1.41287 -1.33235 0
M  V30 5456 C 493.911 2.22332 -2.66807 0
M  V30 5457 C 492.865 1.97156 -3.79886 0
M  V30 5458 C 492.191 3.31506 -4.19533 0
M  V30 5459 C 493.491 1.30596 -5.05709 0
M  V30 5460 H 495.185 0.476179 -2.95589 0
M  V30 5461 H 492.731 0.227602 -1.4219 0
M  V30 5462 H 494.684 2.91142 -3.04654 0
M  V30 5463 H 493.408 2.7119 -1.81999 0
M  V30 5464 H 492.067 1.30763 -3.42486 0
M  V30 5465 H 491.715 3.78134 -3.31698 0
M  V30 5466 H 491.415 3.15465 -4.95738 0
M  V30 5467 H 492.939 4.01574 -4.59968 0
M  V30 5468 H 494.353 1.89416 -5.41105 0
M  V30 5469 H 492.75 1.24934 -5.86951 0
M  V30 5470 H 493.82 0.279742 -4.84092 0
M  V30 5471 N 495.163 1.55791 0.238111 0
M  V30 5472 C 496.41 1.78033 0.964907 0
M  V30 5473 C 496.738 0.600984 1.84982 0
M  V30 5474 O 495.993 -0.41536 1.91241 0
M  V30 5475 C 496.292 3.05869 1.84875 0
M  V30 5476 C 495.958 4.36808 1.11846 0
M  V30 5477 C 494.62 4.72388 0.916662 0
M  V30 5478 C 496.972 5.17717 0.60151 0
M  V30 5479 C 494.3 5.86406 0.185756 0
M  V30 5480 C 496.652 6.32494 -0.115972 0
M  V30 5481 C 495.316 6.66688 -0.329168 0
M  V30 5482 H 494.586 0.651469 0.353085 0
M  V30 5483 H 497.233 1.90061 0.234318 0
M  V30 5484 H 495.538 2.88891 2.64668 0
M  V30 5485 H 497.235 3.20278 2.41294 0
M  V30 5486 H 493.825 4.08862 1.28569 0
M  V30 5487 H 498.009 4.90678 0.744932 0
M  V30 5488 H 493.265 6.11399 0.0101886 0
M  V30 5489 H 497.439 6.94425 -0.524127 0
M  V30 5490 H 495.066 7.54884 -0.897474 0
M  V30 5491 N 496.642 -0.504142 1.49319 0
M  V30 5492 C 497.888 -1.26033 1.58882 0
M  V30 5493 C 498.221 -1.92268 0.273274 0
M  V30 5494 O 497.496 -1.80567 -0.72291 0
M  V30 5495 C 497.779 -2.32976 2.7458 0
M  V30 5496 C 497.632 -1.71263 4.1592 0
M  V30 5497 C 498.951 -3.34561 2.85932 0
M  V30 5498 H 496.07 -0.456863 0.578312 0
M  V30 5499 H 498.712 -0.558965 1.81592 0
M  V30 5500 H 496.862 -2.92796 2.55348 0
M  V30 5501 H 498.534 -1.15294 4.4666 0
M  V30 5502 H 496.777 -1.01686 4.21714 0
M  V30 5503 H 497.448 -2.48816 4.92742 0
M  V30 5504 H 499.924 -2.84727 3.0343 0
M  V30 5505 H 498.8 -4.06754 3.68568 0
M  V30 5506 H 499.061 -3.96695 1.95154 0
M  V30 5507 N 498.12 -1.38341 -0.754957 0
M  V30 5508 C 499.345 -1.37882 -1.5493 0
M  V30 5509 C 499.77 0.0296385 -1.88077 0
M  V30 5510 O 499.128 1.01133 -1.50472 0
M  V30 5511 C 499.176 -2.23996 -2.82592 0
M  V30 5512 O 498.28 -1.65612 -3.77686 0
M  V30 5513 H 497.621 -0.470384 -0.468652 0
M  V30 5514 H 500.151 -1.82084 -0.933082 0
M  V30 5515 H 500.161 -2.37806 -3.3153 0
M  V30 5516 H 498.836 -3.26365 -2.57796 0
M  V30 5517 H 497.413 -1.60936 -3.36384 0
M  V30 5518 N 499.598 0.982988 -1.23187 0
M  V30 5519 C 500.844 1.72648 -1.06398 0
M  V30 5520 C 501.177 1.90066 0.398561 0
M  V30 5521 O 500.452 1.45105 1.29518 0
M  V30 5522 C 500.735 3.12627 -1.78707 0
M  V30 5523 C 500.588 3.02795 -3.32618 0
M  V30 5524 C 501.907 4.11997 -1.54747 0
M  V30 5525 H 499.026 0.626649 -0.387918 0
M  V30 5526 H 501.668 1.14455 -1.51658 0
M  V30 5527 H 499.818 3.62308 -1.40234 0
M  V30 5528 H 501.49 2.60659 -3.80598 0
M  V30 5529 H 499.733 2.39362 -3.61785 0
M  V30 5530 H 500.404 4.01893 -3.78399 0
M  V30 5531 H 502.88 3.71114 -1.88186 0
M  V30 5532 H 501.756 5.08037 -2.07821 0
M  V30 5533 H 502.017 4.39462 -0.482249 0
M  V30 5534 N 501.076 1.04316 1.18135 0
M  V30 5535 C 502.316 0.756937 1.89868 0
M  V30 5536 C 502.68 -0.702609 1.78682 0
M  V30 5537 O 503.881 -1.10255 2.45148 0
M  V30 5538 C 502.152 1.21327 3.36176 0
M  V30 5539 S 503.711 1.05307 4.25976 0
M  V30 5540 H 500.529 0.275143 0.655604 0
M  V30 5541 H 503.131 1.33597 1.42731 0
M  V30 5542 H 501.835 2.27086 3.41848 0
M  V30 5543 H 501.366 0.628137 3.88353 0
M  V30 5544 H 503.381 -0.0280093 4.96192 0
M  V30 5545 N 502.554 -1.34406 0.822964 0
M  V30 5546 C 503.801 -1.98284 0.411057 0
M  V30 5547 C 504.129 -1.65245 -1.02588 0
M  V30 5548 O 503.384 -0.91619 -1.72929 0
M  V30 5549 C 503.683 -3.52981 0.560268 0
M  V30 5550 C 503.349 -4.05931 1.96293 0
M  V30 5551 C 502.011 -4.20103 2.34664 0
M  V30 5552 C 504.363 -4.34412 2.87985 0
M  V30 5553 C 501.691 -4.60082 3.64062 0
M  V30 5554 C 504.043 -4.75838 4.16847 0
M  V30 5555 C 502.707 -4.88215 4.55195 0
M  V30 5556 H 501.977 -0.725573 0.150416 0
M  V30 5557 H 504.624 -1.60349 1.04692 0
M  V30 5558 H 502.929 -3.91477 -0.158982 0
M  V30 5559 H 504.626 -4.00385 0.222087 0
M  V30 5560 H 501.216 -3.95363 1.65487 0
M  V30 5561 H 505.4 -4.23001 2.59584 0
M  V30 5562 H 500.656 -4.67856 3.93599 0
M  V30 5563 H 504.83 -4.96834 4.87984 0
M  V30 5564 H 502.457 -5.18952 5.55512 0
M  V30 5565 N 504.032 -0.577932 -1.46621 0
M  V30 5566 C 505.281 -0.0594281 -2.01612 0
M  V30 5567 C 505.594 1.30663 -1.45556 0
M  V30 5568 O 506.8 1.91621 -1.92337 0
M  V30 5569 C 505.256 -0.0556666 -3.59857 0
M  V30 5570 C 504.864 -1.41975 -4.24908 0
M  V30 5571 C 506.608 0.409143 -4.22524 0
M  V30 5572 C 504.515 -1.37397 -5.75218 0
M  V30 5573 H 503.445 -0.0184469 -0.753774 0
M  V30 5574 H 506.096 -0.728869 -1.68404 0
M  V30 5575 H 504.478 0.679843 -3.90121 0
M  V30 5576 H 505.652 -2.17461 -4.0626 0
M  V30 5577 H 503.967 -1.82419 -3.74316 0
M  V30 5578 H 506.564 0.46211 -5.32699 0
M  V30 5579 H 506.907 1.42565 -3.91128 0
M  V30 5580 H 507.44 -0.272152 -3.96868 0
M  V30 5581 H 504.179 -2.36714 -6.11267 0
M  V30 5582 H 503.699 -0.661239 -5.96144 0
M  V30 5583 H 505.378 -1.08484 -6.3784 0
M  V30 5584 N 505.51 1.54411 -0.315457 0
M  V30 5585 C 506.757 2.00419 0.289543 0
M  V30 5586 C 507.085 1.20373 1.52776 0
M  V30 5587 O 506.34 0.271769 1.93804 0
M  V30 5588 C 506.639 3.50936 0.676652 0
M  V30 5589 C 506.305 4.48532 -0.461472 0
M  V30 5590 C 504.967 4.74936 -0.773879 0
M  V30 5591 C 507.319 5.06567 -1.22637 0
M  V30 5592 C 504.647 5.56634 -1.85405 0
M  V30 5593 C 506.999 5.89441 -2.29657 0
M  V30 5594 C 505.663 6.1415 -2.61488 0
M  V30 5595 H 504.933 0.733386 0.105951 0
M  V30 5596 H 507.58 1.86434 -0.437554 0
M  V30 5597 H 505.885 3.62606 1.48405 0
M  V30 5598 H 507.582 3.83971 1.15618 0
M  V30 5599 H 504.172 4.28096 -0.207893 0
M  V30 5600 H 508.356 4.86157 -0.998271 0
M  V30 5601 H 503.612 5.74012 -2.10523 0
M  V30 5602 H 507.786 6.33432 -2.89374 0
M  V30 5603 H 505.413 6.77245 -3.45317 0
M  V30 5604 N 506.988 0.0434614 1.5754 0
M  V30 5605 C 508.234 -0.632971 1.92669 0
M  V30 5606 C 508.567 -1.70947 0.921446 0
M  V30 5607 O 507.842 -1.94426 -0.0537202 0
M  V30 5608 C 508.125 -1.23619 3.38216 0
M  V30 5609 C 507.978 -0.168274 4.49485 0
M  V30 5610 C 509.297 -2.15008 3.84005 0
M  V30 5611 H 506.416 -0.228629 0.700641 0
M  V30 5612 H 509.058 0.103651 1.89717 0
M  V30 5613 H 507.208 -1.864 3.40863 0
M  V30 5614 H 508.88 0.463196 4.58969 0
M  V30 5615 H 507.123 0.504581 4.30855 0
M  V30 5616 H 507.794 -0.630218 5.48391 0
M  V30 5617 H 510.27 -1.62198 3.83185 0
M  V30 5618 H 509.146 -2.54161 4.86511 0
M  V30 5619 H 509.407 -3.04707 3.20322 0
M  V30 5620 N 508.466 -1.55915 -0.229846 0
M  V30 5621 C 509.713 -1.78542 -0.955452 0
M  V30 5622 C 510.041 -0.610785 -1.84661 0
M  V30 5623 O 509.296 0.405213 -1.91459 0
M  V30 5624 C 509.595 -3.06845 -1.8325 0
M  V30 5625 C 509.261 -4.37395 -1.09528 0
M  V30 5626 C 507.923 -4.72868 -0.891598 0
M  V30 5627 C 510.275 -5.18029 -0.574046 0
M  V30 5628 C 507.603 -5.86496 -0.154655 0
M  V30 5629 C 509.955 -6.32423 0.149513 0
M  V30 5630 C 508.619 -6.66504 0.364519 0
M  V30 5631 H 507.889 -0.653333 -0.349625 0
M  V30 5632 H 510.536 -1.90183 -0.224235 0
M  V30 5633 H 508.841 -2.90291 -2.63132 0
M  V30 5634 H 510.538 -3.21553 -2.39592 0
M  V30 5635 H 507.128 -4.09538 -1.26399 0
M  V30 5636 H 511.312 -4.91066 -0.718899 0
M  V30 5637 H 506.568 -6.11396 0.0222356 0
M  V30 5638 H 510.742 -6.94137 0.560947 0
M  V30 5639 H 508.369 -7.54397 0.937495 0
M  V30 5640 N 509.944 0.496216 -1.49584 0
M  V30 5641 C 510.907 1.57952 -1.66084 0
M  V30 5642 C 511.907 1.51729 -0.53244 0
M  V30 5643 O 513.097 1.54796 -0.79899 0
M  V30 5644 C 510.229 2.97604 -1.66268 0
M  V30 5645 H 511.422 1.44649 -2.6271 0
M  V30 5646 H 508.975 0.7208 -1.38687 0
M  V30 5647 H 509.71 3.16378 -0.712432 0
M  V30 5648 H 509.495 3.03528 -2.4822 0
M  V30 5649 H 510.985 3.76301 -1.81073 0
M  V30 5650 N 511.423 1.38739 0.74761 0
M  V30 5651 C 512.386 1.36241 1.84312 0
M  V30 5652 C 513.386 0.261811 1.58654 0
M  V30 5653 O 514.576 0.519031 1.66288 0
M  V30 5654 C 511.708 1.12253 3.21888 0
M  V30 5655 H 512.901 2.33712 1.87933 0
M  V30 5656 H 510.454 1.2412 0.949946 0
M  V30 5657 H 511.189 0.154133 3.23934 0
M  V30 5658 H 510.974 1.91943 3.41907 0
M  V30 5659 H 512.464 1.13215 4.0196 0
M  V30 5660 N 512.901 -0.976442 1.23707 0
M  V30 5661 C 513.831 -2.08749 1.04624 0
M  V30 5662 C 514.812 -1.70057 -0.0380956 0
M  V30 5663 O 515.997 -1.93782 0.127308 0
M  V30 5664 C 513.127 -3.41335 0.640902 0
M  V30 5665 C 512.081 -3.93947 1.67302 0
M  V30 5666 C 511.407 -5.22774 1.12301 0
M  V30 5667 C 512.707 -4.22769 3.06697 0
M  V30 5668 H 514.401 -2.24972 1.97555 0
M  V30 5669 H 511.947 -1.08108 0.951247 0
M  V30 5670 H 513.9 -4.18489 0.494434 0
M  V30 5671 H 512.624 -3.24988 -0.324099 0
M  V30 5672 H 511.283 -3.18941 1.80755 0
M  V30 5673 H 510.931 -5.0278 0.148877 0
M  V30 5674 H 510.631 -5.58942 1.81267 0
M  V30 5675 H 512.155 -6.02546 0.988479 0
M  V30 5676 H 513.569 -4.90659 2.96524 0
M  V30 5677 H 511.966 -4.70147 3.72937 0
M  V30 5678 H 513.036 -3.29885 3.55392 0
M  V30 5679 N 514.379 -1.04941 -1.1758 0
M  V30 5680 C 515.312 -0.592518 -2.20373 0
M  V30 5681 C 516.29 0.377561 -1.58156 0
M  V30 5682 O 517.474 0.28978 -1.86259 0
M  V30 5683 C 514.601 0.133215 -3.38438 0
M  V30 5684 C 513.647 -0.791484 -4.19092 0
M  V30 5685 S 514.48 -2.27925 -4.84572 0
M  V30 5686 C 515.636 -1.56462 -6.06028 0
M  V30 5687 H 515.869 -1.46342 -2.58788 0
M  V30 5688 H 513.402 -0.861148 -1.28155 0
M  V30 5689 H 515.36 0.545746 -4.06856 0
M  V30 5690 H 514.021 0.980124 -2.98416 0
M  V30 5691 H 513.214 -0.230039 -5.03475 0
M  V30 5692 H 512.816 -1.14326 -3.56098 0
M  V30 5693 H 515.108 -0.862539 -6.71987 0
M  V30 5694 H 516.051 -2.38583 -6.66696 0
M  V30 5695 H 516.459 -1.05313 -5.5459 0
M  V30 5696 N 515.857 1.33968 -0.830081 0
M  V30 5697 C 516.767 2.33164 -0.259207 0
M  V30 5698 C 517.783 1.62951 0.610164 0
M  V30 5699 O 518.959 1.94668 0.516369 0
M  V30 5700 C 516.024 3.42088 0.563598 0
M  V30 5701 C 515.085 4.28037 -0.329014 0
M  V30 5702 C 514.318 5.3176 0.454616 0
M  V30 5703 O 514.541 5.44876 1.6872 0
M  V30 5704 O 513.475 6.01669 -0.166794 0
M  V30 5705 H 517.301 2.83832 -1.08041 0
M  V30 5706 H 514.886 1.37154 -0.59239 0
M  V30 5707 H 516.768 4.08581 1.03147 0
M  V30 5708 H 515.443 2.93651 1.36201 0
M  V30 5709 H 514.35 3.64443 -0.844538 0
M  V30 5710 H 515.683 4.79934 -1.09196 0
M  V30 5711 N 517.335 0.585699 1.46312 0
M  V30 5712 C 518.565 0.0780166 2.06453 0
M  V30 5713 C 518.973 -1.2336 1.43454 0
M  V30 5714 O 518.316 -1.75734 0.535086 0
M  V30 5715 C 518.378 -0.158951 3.59148 0
M  V30 5716 C 518.042 1.06752 4.44357 0
M  V30 5717 C 519.039 1.98031 4.80708 0
M  V30 5718 C 516.724 1.2902 4.85447 0
M  V30 5719 C 518.718 3.09924 5.5698 0
M  V30 5720 C 516.405 2.41218 5.61478 0
M  V30 5721 C 517.403 3.31499 5.97158 0
M  V30 5722 O 517.091 4.41747 6.71651 0
M  V30 5723 H 516.823 0.0558894 0.673686 0
M  V30 5724 H 519.377 0.806994 1.88883 0
M  V30 5725 H 517.607 -0.942575 3.75037 0
M  V30 5726 H 519.296 -0.615513 4.01206 0
M  V30 5727 H 520.062 1.82043 4.49539 0
M  V30 5728 H 515.941 0.596567 4.57124 0
M  V30 5729 H 519.485 3.80415 5.84748 0
M  V30 5730 H 515.382 2.57167 5.9206 0
M  V30 5731 H 516.15 4.40152 6.90079 0
M  V30 5732 N 518.813 -1.54241 0.323641 0
M  V30 5733 C 520.061 -2.00174 -0.278359 0
M  V30 5734 C 520.382 -1.2134 -1.52648 0
M  V30 5735 O 519.652 -0.315244 -1.93347 0
M  V30 5736 H 518.232 -0.739463 -0.105845 0
M  V30 5737 H 520.894 -1.89864 0.440204 0
M  V30 5738 H 519.99 -3.07486 -0.5347 0
M  V30 5739 N 520.291 -0.0518155 -1.57515 0
M  V30 5740 C 521.519 0.631395 -1.9703 0
M  V30 5741 C 521.934 1.64341 -0.92938 0
M  V30 5742 O 521.291 1.82296 0.0863266 0
M  V30 5743 C 521.342 1.31774 -3.36627 0
M  V30 5744 O 521.063 0.346247 -4.3673 0
M  V30 5745 C 522.564 2.09065 -3.90905 0
M  V30 5746 H 519.784 0.172576 -0.648428 0
M  V30 5747 H 522.328 -0.118306 -2.04158 0
M  V30 5748 H 520.483 2.01867 -3.30649 0
M  V30 5749 H 520.897 0.836226 -5.17791 0
M  V30 5750 H 522.371 2.52508 -4.9086 0
M  V30 5751 H 522.848 2.93908 -3.26366 0
M  V30 5752 H 523.454 1.43882 -4.00223 0
M  V30 5753 N 521.769 1.56035 0.221574 0
M  V30 5754 C 522.699 1.95434 1.2778 0
M  V30 5755 C 523.68 0.822564 1.48889 0
M  V30 5756 O 524.865 1.08486 1.61072 0
M  V30 5757 C 521.995 2.27102 2.62759 0
M  V30 5758 C 520.949 3.4277 2.56306 0
M  V30 5759 C 520.275 3.60043 3.95314 0
M  V30 5760 C 521.575 4.77742 2.11093 0
M  V30 5761 H 523.269 2.83912 0.950504 0
M  V30 5762 H 520.815 1.36596 0.455791 0
M  V30 5763 H 522.768 2.53256 3.36807 0
M  V30 5764 H 521.492 1.35478 2.97176 0
M  V30 5765 H 520.151 3.16664 1.84715 0
M  V30 5766 H 519.799 2.65794 4.27039 0
M  V30 5767 H 519.499 4.37841 3.91879 0
M  V30 5768 H 521.023 3.88545 4.71025 0
M  V30 5769 H 522.437 5.03102 2.74885 0
M  V30 5770 H 520.834 5.58823 2.18716 0
M  V30 5771 H 521.904 4.731 1.06321 0
M  V30 5772 N 523.247 -0.488276 1.49845 0
M  V30 5773 C 524.197 -1.58556 1.63842 0
M  V30 5774 C 525.181 -1.53142 0.493586 0
M  V30 5775 O 526.373 -1.60457 0.747169 0
M  V30 5776 C 523.502 -2.97101 1.72005 0
M  V30 5777 C 522.588 -3.07463 2.92108 0
M  V30 5778 N 522.979 -2.87681 4.16021 0
M  V30 5779 C 521.277 -3.3858 2.90309 0
M  V30 5780 C 521.978 -3.0256 4.96822 0
M  V30 5781 N 520.954 -3.32002 4.30437 0
M  V30 5782 H 524.756 -1.41935 2.57355 0
M  V30 5783 H 522.27 -0.694668 1.46793 0
M  V30 5784 H 524.267 -3.75976 1.80132 0
M  V30 5785 H 522.927 -3.14782 0.796375 0
M  V30 5786 H 523.938 -2.63603 4.45796 0
M  V30 5787 H 520.615 -3.62357 2.07372 0
M  V30 5788 H 522.005 -2.9165 6.05301 0
M  V30 5789 N 524.725 -1.39134 -0.740242 0
M  V30 5790 C 525.955 -1.39132 -1.52728 0
M  V30 5791 C 526.363 0.0173133 -1.89192 0
M  V30 5792 O 525.706 0.997715 -1.54244 0
M  V30 5793 C 525.768 -2.1952 -2.84695 0
M  V30 5794 C 525.432 -3.68203 -2.70695 0
M  V30 5795 C 526.429 -4.61401 -2.39593 0
M  V30 5796 C 524.114 -4.11724 -2.8773 0
M  V30 5797 C 526.108 -5.96102 -2.25701 0
M  V30 5798 C 523.795 -5.46503 -2.73456 0
M  V30 5799 C 524.793 -6.38506 -2.42486 0
M  V30 5800 O 524.481 -7.70803 -2.28295 0
M  V30 5801 H 524.213 -0.477263 -0.478744 0
M  V30 5802 H 526.767 -1.83504 -0.922799 0
M  V30 5803 H 524.997 -1.69888 -3.47383 0
M  V30 5804 H 526.686 -2.1176 -3.46284 0
M  V30 5805 H 527.452 -4.29079 -2.26088 0
M  V30 5806 H 523.331 -3.4045 -3.10829 0
M  V30 5807 H 526.875 -6.6788 -2.0145 0
M  V30 5808 H 522.772 -5.78417 -2.86538 0
M  V30 5809 H 523.54 -7.8147 -2.43405 0
M  V30 5810 N 526.204 0.969867 -1.24223 0
M  V30 5811 C 527.451 1.71256 -1.08063 0
M  V30 5812 C 527.779 1.90734 0.380872 0
M  V30 5813 O 527.034 1.46469 1.29789 0
M  V30 5814 C 527.333 3.10883 -1.76314 0
M  V30 5815 C 526.999 3.11252 -3.26241 0
M  V30 5816 C 525.661 3.1106 -3.67144 0
M  V30 5817 C 528.013 3.05751 -4.22097 0
M  V30 5818 C 525.341 3.03097 -5.02344 0
M  V30 5819 C 527.693 2.9933 -5.57301 0
M  V30 5820 C 526.357 2.97466 -5.97554 0
M  V30 5821 H 525.627 0.62667 -0.395431 0
M  V30 5822 H 528.274 1.13422 -1.54297 0
M  V30 5823 H 526.579 3.72168 -1.22468 0
M  V30 5824 H 528.276 3.67138 -1.61277 0
M  V30 5825 H 524.866 3.12165 -2.93685 0
M  V30 5826 H 529.05 3.05031 -3.91497 0
M  V30 5827 H 524.306 3.00013 -5.32731 0
M  V30 5828 H 528.48 2.94033 -6.31283 0
M  V30 5829 H 526.107 2.91051 -7.02277 0
M  V30 5830 N 527.682 1.05563 1.17022 0
M  V30 5831 C 528.91 0.78845 1.91288 0
M  V30 5832 C 529.325 -0.656318 1.77025 0
M  V30 5833 O 528.682 -1.44869 1.10992 0
M  V30 5834 C 528.733 1.16444 3.42232 0
M  V30 5835 O 528.454 2.5525 3.5606 0
M  V30 5836 C 529.955 0.923937 4.33565 0
M  V30 5837 H 527.175 0.286389 0.606813 0
M  V30 5838 H 529.719 1.4073 1.48375 0
M  V30 5839 H 527.874 0.590266 3.82877 0
M  V30 5840 H 528.288 2.70097 4.49609 0
M  V30 5841 H 529.762 1.23672 5.37968 0
M  V30 5842 H 530.239 -0.140688 4.38975 0
M  V30 5843 H 530.845 1.48214 3.98639 0
M  V30 5844 N 529.16 -1.33526 0.837174 0
M  V30 5845 C 530.385 -2.0258 0.444545 0
M  V30 5846 C 530.81 -1.6258 -0.946006 0
M  V30 5847 O 530.168 -0.817548 -1.6182 0
M  V30 5848 C 530.216 -3.5605 0.571006 0
M  V30 5849 O 529.32 -4.10422 -0.403431 0
M  V30 5850 H 528.661 -0.638866 0.180958 0
M  V30 5851 H 531.191 -1.70462 1.13154 0
M  V30 5852 H 531.201 -4.05488 0.452024 0
M  V30 5853 H 529.876 -3.84509 1.58512 0
M  V30 5854 H 528.453 -3.72113 -0.242147 0
M  V30 5855 N 530.638 -0.59345 -1.46 0
M  V30 5856 C 531.586 0.146268 -2.3214 0
M  V30 5857 C 532.58 0.873743 -1.45128 0
M  V30 5858 O 533.786 0.790912 -1.61693 0
M  V30 5859 H 530.161 0.0660349 -0.749095 0
M  V30 5860 H 532.132 -0.598895 -2.92328 0
M  V30 5861 C 530.881 1.1396 -3.28494 0
M  V30 5862 H 530.204 0.589252 -3.95434 0
M  V30 5863 H 531.644 1.62738 -3.91526 0
M  V30 5864 C 530.103 2.20604 -2.54628 0
M  V30 5865 O 530.633 3.28128 -2.31722 0
M  V30 5866 N 528.839 1.95502 -2.15005 0
M  V30 5867 H 528.386 1.0807 -2.33834 0
M  V30 5868 H 528.344 2.67064 -1.65904 0
M  V30 5869 N 532.116 1.54067 -0.331816 0
M  V30 5870 C 533.048 2.22139 0.564538 0
M  V30 5871 C 534.061 1.22408 1.07332 0
M  V30 5872 O 535.25 1.4883 0.985481 0
M  V30 5873 C 532.35 2.87876 1.78831 0
M  V30 5874 C 531.523 4.13817 1.41682 0
M  V30 5875 C 530.582 4.63072 2.49901 0
M  V30 5876 O 529.608 5.27562 2.13699 0
M  V30 5877 N 530.81 4.38001 3.80967 0
M  V30 5878 H 533.575 2.99694 -0.0183736 0
M  V30 5879 H 531.136 1.61153 -0.155396 0
M  V30 5880 H 533.128 3.17747 2.50637 0
M  V30 5881 H 531.698 2.13977 2.27887 0
M  V30 5882 H 530.918 3.9062 0.530044 0
M  V30 5883 H 532.206 4.95762 1.14443 0
M  V30 5884 H 531.604 3.864 4.13173 0
M  V30 5885 H 530.161 4.72507 4.48977 0
M  V30 5886 N 533.594 0.0601682 1.57485 0
M  V30 5887 C 534.541 -0.91112 2.12055 0
M  V30 5888 C 535.511 -1.30298 1.03013 0
M  V30 5889 O 536.696 -1.39087 1.30612 0
M  V30 5890 C 533.836 -2.1775 2.67729 0
M  V30 5891 C 532.949 -1.83933 3.90887 0
M  V30 5892 C 532.084 -3.05096 4.34845 0
M  V30 5893 C 531.123 -2.67241 5.5068 0
M  V30 5894 N 530.26 -3.81127 5.8965 0
M  V30 5895 H 535.1 -0.43888 2.9475 0
M  V30 5896 H 532.637 -0.204995 1.45665 0
M  V30 5897 H 534.595 -2.91866 2.98111 0
M  V30 5898 H 533.225 -2.62535 1.87816 0
M  V30 5899 H 532.277 -0.999287 3.6704 0
M  V30 5900 H 533.589 -1.52074 4.75052 0
M  V30 5901 H 532.743 -3.87502 4.66827 0
M  V30 5902 H 531.482 -3.40139 3.49509 0
M  V30 5903 H 530.487 -1.83254 5.18361 0
M  V30 5904 H 531.712 -2.3338 6.37738 0
M  V30 5905 H 529.658 -4.15954 5.07266 0
M  V30 5906 H 529.575 -3.52997 6.68528 0
M  V30 5907 H 530.843 -4.64145 6.2625 0
M  V30 5908 N 535.072 -1.5615 -0.213296 0
M  V30 5909 C 536.32 -1.79191 -0.934612 0
M  V30 5910 C 536.641 -0.630112 -1.84539 0
M  V30 5911 O 535.911 0.35257 -1.92701 0
M  V30 5912 H 534.491 -0.660937 -0.348097 0
M  V30 5913 H 537.153 -1.93618 -0.22317 0
M  V30 5914 H 536.249 -2.71656 -1.53654 0
M  V30 5915 N 536.55 0.480323 -1.50102 0
M  V30 5916 C 537.497 1.57946 -1.6829 0
M  V30 5917 C 538.467 1.57611 -0.524223 0
M  V30 5918 O 539.652 1.75282 -0.753709 0
M  V30 5919 C 536.792 2.95978 -1.77457 0
M  V30 5920 C 535.905 3.06173 -3.04766 0
M  V30 5921 C 535.04 4.35063 -3.04784 0
M  V30 5922 C 534.079 4.38966 -4.26586 0
M  V30 5923 N 533.216 5.59314 -4.24396 0
M  V30 5924 H 538.056 1.41743 -2.62131 0
M  V30 5925 H 535.593 0.689304 -1.2995 0
M  V30 5926 H 537.551 3.76011 -1.80752 0
M  V30 5927 H 536.181 3.10837 -0.870637 0
M  V30 5928 H 535.233 2.19071 -3.10986 0
M  V30 5929 H 536.545 3.04916 -3.9475 0
M  V30 5930 H 535.699 5.23436 -3.06757 0
M  V30 5931 H 534.438 4.38915 -2.12614 0
M  V30 5932 H 533.443 3.48992 -4.24835 0
M  V30 5933 H 534.668 4.36813 -5.19972 0
M  V30 5934 H 532.614 5.63969 -3.35074 0
M  V30 5935 H 532.531 5.5976 -5.08138 0
M  V30 5936 H 533.799 6.49837 -4.30502 0
M  V30 5937 N 538.028 1.39524 0.732853 0
M  V30 5938 C 539.256 1.40143 1.52209 0
M  V30 5939 C 539.671 -0.00348836 1.888 0
M  V30 5940 O 539.028 -0.975357 1.5425 0
M  V30 5941 C 539.079 2.27632 2.8083 0
M  V30 5942 O 538.8 3.62654 2.45792 0
M  V30 5943 C 540.301 2.36658 3.74844 0
M  V30 5944 H 537.521 0.478604 0.470297 0
M  V30 5945 H 540.065 1.83366 0.905388 0
M  V30 5946 H 538.22 1.87818 3.38826 0
M  V30 5947 H 538.634 4.08941 3.28431 0
M  V30 5948 H 540.108 3.02118 4.61984 0
M  V30 5949 H 540.585 1.38638 4.16745 0
M  V30 5950 H 541.191 2.76951 3.22766 0
M  V30 5951 N 539.506 -0.963266 1.24736 0
M  V30 5952 C 540.469 -2.04013 1.04457 0
M  V30 5953 C 541.469 -1.608 0.000335555 0
M  V30 5954 O 542.659 -1.72515 0.241719 0
M  V30 5955 C 539.791 -3.35858 0.584162 0
M  V30 5956 H 540.984 -2.23436 2.00041 0
M  V30 5957 H 538.537 -1.13914 1.07021 0
M  V30 5958 H 539.272 -3.22128 -0.374673 0
M  V30 5959 H 539.057 -3.68568 1.3379 0
M  V30 5960 H 540.547 -4.1502 0.463451 0
M  V30 5961 N 540.985 -1.06182 -1.16461 0
M  V30 5962 C 542.213 -0.798583 -1.90867 0
M  V30 5963 C 542.628 0.646921 -1.77371 0
M  V30 5964 O 541.985 1.44279 -1.11758 0
M  V30 5965 C 542.036 -1.18258 -3.4161 0
M  V30 5966 O 541.757 -2.57135 -3.54701 0
M  V30 5967 C 543.258 -0.946917 -4.33069 0
M  V30 5968 H 540.478 -0.289603 -0.605286 0
M  V30 5969 H 543.022 -1.41515 -1.47627 0
M  V30 5970 H 541.177 -0.610562 -3.82558 0
M  V30 5971 H 541.591 -2.72477 -4.4817 0
M  V30 5972 H 543.065 -1.26523 -5.37304 0
M  V30 5973 H 543.542 0.117406 -4.39043 0
M  V30 5974 H 544.148 -1.50326 -3.97847 0
M  V30 5975 N 542.463 1.3308 -0.844243 0
M  V30 5976 C 543.41 2.29104 -0.279323 0
M  V30 5977 C 544.38 1.54577 0.607882 0
M  V30 5978 O 545.565 1.8285 0.545009 0
M  V30 5979 C 542.705 3.40927 0.53508 0
M  V30 5980 C 541.818 4.30354 -0.376749 0
M  V30 5981 C 540.953 5.29297 0.449276 0
M  V30 5982 C 539.992 6.10365 -0.460606 0
M  V30 5983 N 539.129 7.01335 0.327612 0
M  V30 5984 H 543.969 2.76817 -1.10346 0
M  V30 5985 H 541.506 1.36203 -0.555611 0
M  V30 5986 H 543.464 4.04469 1.02278 0
M  V30 5987 H 542.094 2.94391 1.32414 0
M  V30 5988 H 541.146 3.67485 -0.982791 0
M  V30 5989 H 542.458 4.87067 -1.07549 0
M  V30 5990 H 541.612 5.98392 1.00058 0
M  V30 5991 H 540.351 4.73174 1.18143 0
M  V30 5992 H 539.356 5.40182 -1.02388 0
M  V30 5993 H 540.581 6.68571 -1.1912 0
M  V30 5994 H 538.527 6.47655 1.04305 0
M  V30 5995 H 538.444 7.55355 -0.3123 0
M  V30 5996 H 539.712 7.74731 0.86098 0
M  V30 5997 N 543.941 0.601185 1.45683 0
M  V30 5998 C 545.218 0.0261659 1.95582 0
M  V30 5999 C 545.598 -1.4399 1.5437 0
M  V30 6000 O 544.946 -2.13919 0.80318 0
M  V30 6001 C 545.156 0.217557 3.48321 0
M  V30 6002 C 546.504 0.0950076 4.24494 0
M  V30 6003 O 547.528 0.147345 3.55895 0
M  V30 6004 O 546.387 -0.025261 5.46494 0
M  V30 6005 H 543.481 -0.0393688 0.826062 0
M  V30 6006 H 546.027 0.670798 1.55879 0
M  V30 6007 H 544.799 1.23601 3.71266 0
M  V30 6008 H 544.422 -0.46264 3.94899 0
M  V30 6009 N 545.419 -1.53889 0.339982 0
M  V30 6010 C 546.835 -1.59595 -0.0120752 0
M  V30 6011 C 547.035 -1.35605 -1.49042 0
M  V30 6012 O 546.091 -1.14856 -2.24865 0
M  V30 6013 C 547.404 -2.9774 0.420898 0
M  V30 6014 C 548.952 -3.1077 0.37294 0
M  V30 6015 C 549.427 -4.51286 0.781327 0
M  V30 6016 N 550.918 -4.57325 0.735374 0
M  V30 6017 C 551.653 -5.64194 1.02336 0
M  V30 6018 N 551.149 -6.7893 1.37933 0
M  V30 6019 N 552.942 -5.54051 0.947838 0
M  V30 6020 H 545.093 -1.67738 1.30299 0
M  V30 6021 H 547.356 -0.785385 0.530918 0
M  V30 6022 H 547.062 -3.20349 1.45152 0
M  V30 6023 H 546.936 -3.76639 -0.205721 0
M  V30 6024 H 549.323 -2.87886 -0.648505 0
M  V30 6025 H 549.404 -2.33939 1.03472 0
M  V30 6026 H 549.048 -4.74905 1.80077 0
M  V30 6027 H 548.978 -5.26511 0.0970679 0
M  V30 6028 H 551.469 -3.74931 0.472773 0
M  V30 6029 H 551.782 -7.56392 1.58402 0
M  V30 6030 H 550.127 -6.80386 1.41774 0
M  V30 6031 H 553.318 -4.63293 0.669115 0
M  V30 6032 H 553.491 -6.37246 1.17563 0
M  V30 6033 N 546.897 -0.0685191 -1.57451 0
M  V30 6034 C 547.844 0.899861 -2.12535 0
M  V30 6035 C 548.814 1.29749 -1.03703 0
M  V30 6036 O 549.999 1.38392 -1.31348 0
M  V30 6037 C 547.139 2.16328 -2.6888 0
M  V30 6038 C 546.252 1.81857 -3.91857 0
M  V30 6039 C 545.387 3.02786 -4.36457 0
M  V30 6040 C 544.426 2.64317 -5.5209 0
M  V30 6041 N 543.563 3.77994 -5.91663 0
M  V30 6042 H 548.403 0.423243 -2.94979 0
M  V30 6043 H 545.94 0.197268 -1.45771 0
M  V30 6044 H 547.898 2.90281 -2.99655 0
M  V30 6045 H 546.528 2.61536 -1.89206 0
M  V30 6046 H 545.58 0.979808 -3.67565 0
M  V30 6047 H 546.892 1.49553 -4.75852 0
M  V30 6048 H 546.046 3.85021 -4.68875 0
M  V30 6049 H 544.785 3.38281 -3.51308 0
M  V30 6050 H 543.79 1.80503 -5.19325 0
M  V30 6051 H 545.015 2.29995 -6.38967 0
M  V30 6052 H 542.961 4.13258 -5.09464 0
M  V30 6053 H 542.878 3.49447 -6.7039 0
M  V30 6054 H 544.146 4.60818 -6.28703 0
M  V30 6055 N 548.375 1.56261 0.205012 0
M  V30 6056 C 549.305 1.96779 1.257 0
M  V30 6057 C 550.286 0.838309 1.48008 0
M  V30 6058 O 551.471 1.10189 1.59913 0
M  V30 6059 C 548.601 2.29876 2.60335 0
M  V30 6060 C 547.555 3.45469 2.52656 0
M  V30 6061 C 546.881 3.64215 3.91473 0
M  V30 6062 C 548.181 4.79954 2.06014 0
M  V30 6063 H 549.875 2.84904 0.920338 0
M  V30 6064 H 547.421 1.37072 0.441277 0
M  V30 6065 H 549.374 2.56814 3.34102 0
M  V30 6066 H 548.098 1.38622 2.95722 0
M  V30 6067 H 546.757 3.18605 1.81345 0
M  V30 6068 H 546.405 2.70309 4.24196 0
M  V30 6069 H 546.105 4.41973 3.87213 0
M  V30 6070 H 547.629 3.93519 4.66878 0
M  V30 6071 H 549.043 5.05989 2.69533 0
M  V30 6072 H 547.44 5.61111 2.12777 0
M  V30 6073 H 548.51 4.74201 1.01297 0
M  V30 6074 N 549.853 -0.472356 1.50355 0
M  V30 6075 C 550.8 -1.57051 1.69126 0
M  V30 6076 C 551.77 -1.5733 0.532574 0
M  V30 6077 O 552.955 -1.7488 0.762994 0
M  V30 6078 C 550.095 -2.95033 1.79024 0
M  V30 6079 C 549.208 -3.04552 3.06386 0
M  V30 6080 C 548.343 -4.33441 3.07087 0
M  V30 6081 C 547.382 -4.36697 4.28908 0
M  V30 6082 N 546.519 -5.57056 4.27356 0
M  V30 6083 H 551.359 -1.40351 2.62879 0
M  V30 6084 H 548.896 -0.682403 1.30314 0
M  V30 6085 H 550.854 -3.75048 1.82744 0
M  V30 6086 H 549.484 -3.10371 0.887109 0
M  V30 6087 H 548.536 -2.17419 3.12143 0
M  V30 6088 H 549.848 -3.02818 3.96362 0
M  V30 6089 H 549.002 -5.21801 3.09529 0
M  V30 6090 H 547.741 -4.37782 2.14939 0
M  V30 6091 H 546.746 -3.46734 4.2668 0
M  V30 6092 H 547.971 -4.34049 5.22282 0
M  V30 6093 H 545.917 -5.62184 3.3806 0
M  V30 6094 H 545.834 -5.57058 5.111 0
M  V30 6095 H 547.102 -6.47545 4.33942 0
M  V30 6096 N 551.331 -1.39911 -0.725443 0
M  V30 6097 C 552.279 -1.39552 -1.86086 0
M  V30 6098 C 553.273 -0.277334 -1.67114 0
M  V30 6099 O 554.479 -0.447865 -1.74339 0
M  V30 6100 H 550.854 -0.435993 -0.612711 0
M  V30 6101 H 552.825 -2.35305 -1.83505 0
M  V30 6102 C 551.574 -1.26529 -3.2386 0
M  V30 6103 H 550.897 -2.11845 -3.3906 0
M  V30 6104 H 552.337 -1.30336 -4.03471 0
M  V30 6105 C 550.796 0.0254168 -3.3689 0
M  V30 6106 O 551.326 0.992048 -3.89257 0
M  V30 6107 N 549.532 0.0916528 -2.90455 0
M  V30 6108 H 549.079 -0.695675 -2.48028 0
M  V30 6109 H 549.037 0.954745 -2.99553 0
M  V30 6110 N 552.809 0.956637 -1.25245 0
M  V30 6111 C 553.756 2.053 -1.05454 0
M  V30 6112 C 554.726 1.66062 0.0356889 0
M  V30 6113 O 555.911 1.90415 -0.121099 0
M  V30 6114 C 553.051 3.38391 -0.677191 0
M  V30 6115 C 552.164 3.90758 -1.84206 0
M  V30 6116 C 551.299 5.12165 -1.40926 0
M  V30 6117 C 550.338 5.56757 -2.54338 0
M  V30 6118 N 549.475 6.69376 -2.11848 0
M  V30 6119 H 554.315 2.21562 -1.99284 0
M  V30 6120 H 551.852 1.08578 -0.992434 0
M  V30 6121 H 553.81 4.1488 -0.43938 0
M  V30 6122 H 552.44 3.22021 0.224127 0
M  V30 6123 H 551.492 3.10808 -2.19323 0
M  V30 6124 H 552.804 4.19802 -2.69383 0
M  V30 6125 H 551.958 5.96065 -1.13098 0
M  V30 6126 H 550.697 4.84832 -0.528175 0
M  V30 6127 H 549.702 4.71423 -2.82913 0
M  V30 6128 H 550.927 5.861 -3.43022 0
M  V30 6129 H 548.873 6.43756 -1.26153 0
M  V30 6130 H 548.79 6.97927 -2.90574 0
M  V30 6131 H 550.058 7.5669 -1.87191 0
M  V30 6132 N 554.287 1.06798 1.15896 0
M  V30 6133 C 555.25 0.687328 2.18651 0
M  V30 6134 C 556.25 -0.269559 1.58524 0
M  V30 6135 O 557.44 -0.0512627 1.74125 0
M  V30 6136 C 554.572 0.0121642 3.40898 0
M  V30 6137 H 555.765 1.59701 2.53842 0
M  V30 6138 H 553.318 0.863828 1.3026 0
M  V30 6139 H 554.053 -0.910025 3.1127 0
M  V30 6140 H 553.838 0.700309 3.85795 0
M  V30 6141 H 555.328 -0.239703 4.16911 0
M  V30 6142 N 555.766 -1.3263 0.851289 0
M  V30 6143 C 556.991 -2.02097 0.466006 0
M  V30 6144 C 557.416 -1.63574 -0.928709 0
M  V30 6145 O 556.774 -0.834665 -1.60944 0
M  V30 6146 C 556.822 -3.55425 0.608737 0
M  V30 6147 O 555.926 -4.10827 -0.359878 0
M  V30 6148 H 555.267 -0.636911 0.187724 0
M  V30 6149 H 557.797 -1.69253 1.14955 0
M  V30 6150 H 557.807 -4.04986 0.495006 0
M  V30 6151 H 556.482 -3.82806 1.62581 0
M  V30 6152 H 555.059 -3.72349 -0.202666 0
M  V30 6153 N 557.244 -0.608902 -1.45362 0
M  V30 6154 C 558.177 0.158059 -2.27652 0
M  V30 6155 C 559.155 0.872397 -1.37215 0
M  V30 6156 O 560.339 0.881002 -1.66645 0
M  V30 6157 C 557.466 1.22896 -3.15617 0
M  V30 6158 C 556.512 0.617607 -4.22005 0
M  V30 6159 S 557.345 -0.575518 -5.32398 0
M  V30 6160 C 558.501 0.495938 -6.23932 0
M  V30 6161 H 558.734 -0.540095 -2.92353 0
M  V30 6162 H 556.267 -0.396456 -1.49223 0
M  V30 6163 H 558.225 1.84195 -3.66855 0
M  V30 6164 H 556.886 1.89919 -2.50179 0
M  V30 6165 H 556.079 1.42341 -4.83482 0
M  V30 6166 H 555.681 0.0797273 -3.73915 0
M  V30 6167 H 557.973 1.37465 -6.63408 0
M  V30 6168 H 558.916 -0.0827108 -7.08052 0
M  V30 6169 H 559.324 0.811856 -5.58631 0
M  V30 6170 N 558.722 1.53707 -0.348139 0
M  V30 6171 C 559.95 2.05406 0.248224 0
M  V30 6172 C 560.365 1.22282 1.43849 0
M  V30 6173 O 559.722 0.259244 1.80649 0
M  V30 6174 C 559.773 3.55446 0.658793 0
M  V30 6175 O 559.494 4.35417 -0.484149 0
M  V30 6176 C 560.995 4.23335 1.31539 0
M  V30 6177 H 558.215 0.669344 0.0471075 0
M  V30 6178 H 560.759 1.98257 -0.501456 0
M  V30 6179 H 558.914 3.62803 1.35841 0
M  V30 6180 H 559.328 5.24268 -0.155949 0
M  V30 6181 H 560.802 5.29692 1.55338 0
M  V30 6182 H 561.279 3.75967 2.27036 0
M  V30 6183 H 561.885 4.20184 0.657683 0
M  V30 6184 N 560.2 0.0768682 1.57412 0
M  V30 6185 C 561.611 -0.455037 1.8107 0
M  V30 6186 C 561.962 -1.69323 0.991162 0
M  V30 6187 O 561.087 -2.15328 0.215156 0
M  V30 6188 C 561.682 -0.832316 3.28417 0
M  V30 6189 C 560.241 -1.30906 3.52903 0
M  V30 6190 C 559.388 -0.296714 2.75708 0
M  V30 6191 H 562.339 0.302514 1.5579 0
M  V30 6192 H 562.36 -1.69333 3.40744 0
M  V30 6193 H 561.872 0.0690532 3.88039 0
M  V30 6194 H 559.973 -2.22875 2.98592 0
M  V30 6195 H 560.086 -1.28348 4.61588 0
M  V30 6196 H 558.45 -0.775059 2.42621 0
M  V30 6197 H 559.233 0.597015 3.38069 0
M  V30 6198 N 561.678 -1.56367 -0.196722 0
M  V30 6199 C 562.926 -1.80172 -0.915554 0
M  V30 6200 C 563.247 -0.649649 -1.8386 0
M  V30 6201 O 562.517 0.332111 -1.93064 0
M  V30 6202 H 561.097 -0.664592 -0.341067 0
M  V30 6203 H 563.759 -1.93844 -0.202622 0
M  V30 6204 H 562.855 -2.7327 -1.50764 0
M  V30 6205 N 563.156 0.464375 -1.50603 0
M  V30 6206 C 564.086 1.56944 -1.72889 0
M  V30 6207 C 565.067 1.59979 -0.577997 0
M  V30 6208 O 566.252 1.76138 -0.817855 0
M  V30 6209 C 563.382 2.95225 -1.8292 0
M  V30 6210 C 562.336 3.07056 -2.98162 0
M  V30 6211 C 561.662 4.47051 -2.93343 0
M  V30 6212 C 562.962 2.83648 -4.38567 0
M  V30 6213 H 564.656 1.38547 -2.65415 0
M  V30 6214 H 562.202 0.665082 -1.27721 0
M  V30 6215 H 564.155 3.72467 -1.97095 0
M  V30 6216 H 562.879 3.14793 -0.870209 0
M  V30 6217 H 561.538 2.32248 -2.83648 0
M  V30 6218 H 561.186 4.63547 -1.95276 0
M  V30 6219 H 560.886 4.55902 -3.70712 0
M  V30 6220 H 562.41 5.26304 -3.09575 0
M  V30 6221 H 563.824 3.50636 -4.53572 0
M  V30 6222 H 562.221 3.03937 -5.17438 0
M  V30 6223 H 563.291 1.79451 -4.50472 0
M  V30 6224 N 564.634 1.40294 0.718013 0
M  V30 6225 C 565.584 1.36847 1.82365 0
M  V30 6226 C 566.568 0.246424 1.59002 0
M  V30 6227 O 567.76 0.485336 1.70216 0
M  V30 6228 C 564.889 1.23105 3.20469 0
M  V30 6229 C 563.975 2.4008 3.49603 0
M  V30 6230 N 564.366 3.65562 3.49568 0
M  V30 6231 C 562.664 2.33407 3.80049 0
M  V30 6232 C 563.365 4.43015 3.76978 0
M  V30 6233 N 562.341 3.72823 3.95606 0
M  V30 6234 H 566.143 2.31811 1.80668 0
M  V30 6235 H 563.657 1.34031 0.91703 0
M  V30 6236 H 565.654 1.18718 3.9964 0
M  V30 6237 H 564.314 0.291056 3.23393 0
M  V30 6238 H 565.325 3.98756 3.30476 0
M  V30 6239 H 562.002 1.47762 3.90478 0
M  V30 6240 H 563.392 5.51859 3.83276 0
M  V30 6241 N 566.112 -0.949982 1.2575 0
M  V30 6242 C 567.523 -1.50989 1.09815 0
M  V30 6243 C 567.874 -1.93497 -0.324556 0
M  V30 6244 O 566.999 -1.79068 -1.21506 0
M  V30 6245 C 567.594 -2.74394 1.98729 0
M  V30 6246 C 566.153 -3.26682 1.86965 0
M  V30 6247 C 565.3 -1.99498 1.92603 0
M  V30 6248 H 568.251 -0.766387 1.38968 0
M  V30 6249 H 568.272 -3.48383 1.53001 0
M  V30 6250 H 567.784 -2.43425 3.02268 0
M  V30 6251 H 565.885 -3.62461 0.863279 0
M  V30 6252 H 565.998 -3.94383 2.72027 0
M  V30 6253 H 564.362 -2.15005 1.36546 0
M  V30 6254 H 565.145 -1.70871 2.97755 0
M  V30 6255 N 567.59 -1.07411 -1.15328 0
M  V30 6256 C 568.838 -0.796073 -1.85761 0
M  V30 6257 C 569.159 0.679864 -1.82764 0
M  V30 6258 O 568.429 1.49242 -1.269 0
M  V30 6259 H 567.009 -0.291495 -0.687779 0
M  V30 6260 H 569.671 -1.35799 -1.39802 0
M  V30 6261 H 568.767 -1.13114 -2.90881 0
M  V30 6262 N 569.068 1.32177 -0.85831 0
M  V30 6263 C 570.293 2.01847 -0.476718 0
M  V30 6264 C 570.718 1.64065 0.920021 0
M  V30 6265 O 570.076 0.843189 1.60499 0
M  V30 6266 C 570.124 3.55097 -0.627578 0
M  V30 6267 O 569.228 4.11012 0.338086 0
M  V30 6268 H 568.569 0.635907 -0.191099 0
M  V30 6269 H 571.099 1.68641 -1.15851 0
M  V30 6270 H 571.109 4.04718 -0.516476 0
M  V30 6271 H 569.784 3.81938 -1.64609 0
M  V30 6272 H 568.361 3.72451 0.182917 0
M  V30 6273 N 570.547 0.616602 1.45037 0
M  V30 6274 C 571.775 0.121968 2.0654 0
M  V30 6275 C 572.19 -1.19743 1.45969 0
M  V30 6276 O 571.547 -1.73133 0.577168 0
M  V30 6277 C 571.598 -0.0145171 3.61497 0
M  V30 6278 O 571.319 1.25269 4.19809 0
M  V30 6279 C 572.82 -0.539555 4.40004 0
M  V30 6280 H 570.04 0.0729837 0.667019 0
M  V30 6281 H 572.584 0.846891 1.8614 0
M  V30 6282 H 570.739 -0.689809 3.81209 0
M  V30 6283 H 571.153 1.08816 5.13088 0
M  V30 6284 H 572.627 -0.584112 5.48901 0
M  V30 6285 H 573.104 -1.56368 4.10421 0
M  V30 6286 H 573.71 0.101995 4.25178 0
M  V30 6287 N 572.025 -1.5352 0.356285 0
M  V30 6288 C 572.955 -2.28372 -0.486661 0
M  V30 6289 C 573.936 -1.30432 -1.09185 0
M  V30 6290 O 575.121 -1.59291 -1.11085 0
M  V30 6291 C 572.251 -3.06604 -1.63129 0
M  V30 6292 C 571.205 -4.12154 -1.15381 0
M  V30 6293 C 570.531 -4.78415 -2.38796 0
M  V30 6294 C 571.831 -5.21724 -0.245179 0
M  V30 6295 H 573.525 -2.99083 0.137797 0
M  V30 6296 H 571.071 -1.43841 0.0677134 0
M  V30 6297 H 573.024 -3.57712 -2.22755 0
M  V30 6298 H 571.748 -2.33568 -2.28284 0
M  V30 6299 H 570.407 -3.61978 -0.580294 0
M  V30 6300 H 570.055 -4.01959 -3.02387 0
M  V30 6301 H 569.755 -5.49734 -2.07524 0
M  V30 6302 H 571.279 -5.32313 -2.99125 0
M  V30 6303 H 572.693 -5.68391 -0.748646 0
M  V30 6304 H 571.09 -6.00095 -0.0237608 0
M  V30 6305 H 572.16 -4.79596 0.715229 0
M  V30 6306 N 573.503 -0.0852151 -1.57369 0
M  V30 6307 C 574.752 0.580443 -1.93168 0
M  V30 6308 C 575.065 1.6995 -0.968319 0
M  V30 6309 O 576.271 2.42564 -1.21963 0
M  V30 6310 C 574.727 1.08386 -3.43192 0
M  V30 6311 C 574.335 -0.00491388 -4.48 0
M  V30 6312 C 576.079 1.72281 -3.87968 0
M  V30 6313 C 573.986 0.513299 -5.89168 0
M  V30 6314 H 572.916 0.22059 -0.72101 0
M  V30 6315 H 575.567 -0.159621 -1.82804 0
M  V30 6316 H 573.949 1.8773 -3.48674 0
M  V30 6317 H 575.123 -0.780032 -4.5415 0
M  V30 6318 H 573.438 -0.548453 -4.12772 0
M  V30 6319 H 576.035 2.12108 -4.9083 0
M  V30 6320 H 576.378 2.58811 -3.26071 0
M  V30 6321 H 576.911 0.995359 -3.85146 0
M  V30 6322 H 573.65 -0.315153 -6.54742 0
M  V30 6323 H 573.17 1.25564 -5.8651 0
M  V30 6324 H 574.849 0.985433 -6.39451 0
M  V30 6325 N 574.981 1.5647 0.188427 0
M  V30 6326 C 576.392 1.70864 0.752494 0
M  V30 6327 C 576.743 0.692905 1.83557 0
M  V30 6328 O 575.868 -0.149307 2.15884 0
M  V30 6329 C 576.463 3.09789 1.37173 0
M  V30 6330 C 575.022 3.25925 1.88281 0
M  V30 6331 C 574.169 2.66817 0.755259 0
M  V30 6332 H 577.12 1.58657 -0.0367408 0
M  V30 6333 H 577.141 3.07489 2.24122 0
M  V30 6334 H 576.653 3.83693 0.583219 0
M  V30 6335 H 574.754 2.56948 2.6983 0
M  V30 6336 H 574.867 4.33498 2.04001 0
M  V30 6337 H 573.231 2.2617 1.17128 0
M  V30 6338 H 574.014 3.43294 -0.0211237 0
M  V30 6339 N 576.459 -0.456382 1.50847 0
M  V30 6340 C 577.392 -1.57177 1.65441 0
M  V30 6341 C 578.37 -1.54649 0.502224 0
M  V30 6342 O 579.554 -1.74057 0.723633 0
M  V30 6343 C 576.681 -2.95763 1.65052 0
M  V30 6344 C 575.727 -3.16389 2.86007 0
M  V30 6345 S 576.56 -2.94716 4.47105 0
M  V30 6346 C 577.716 -4.35617 4.49432 0
M  V30 6347 H 577.949 -1.44561 2.59787 0
M  V30 6348 H 575.482 -0.644758 1.40293 0
M  V30 6349 H 577.44 -3.75654 1.65512 0
M  V30 6350 H 576.101 -3.05756 0.719153 0
M  V30 6351 H 575.294 -4.17667 2.82081 0
M  V30 6352 H 574.896 -2.44293 2.8319 0
M  V30 6353 H 577.188 -5.28503 4.239 0
M  V30 6354 H 578.131 -4.44582 5.51137 0
M  V30 6355 H 578.539 -4.18382 3.78967 0
M  V30 6356 N 577.937 -1.40673 -0.710563 0
M  V30 6357 C 578.885 -1.41517 -1.84596 0
M  V30 6358 C 579.879 -0.295043 -1.66811 0
M  V30 6359 O 581.085 -0.466331 -1.73854 0
M  V30 6360 H 577.46 -0.442467 -0.608052 0
M  V30 6361 H 579.431 -2.37238 -1.80999 0
M  V30 6362 C 578.18 -1.29957 -3.225 0
M  V30 6363 H 577.503 -2.15429 -3.36794 0
M  V30 6364 H 578.943 -1.34608 -4.02066 0
M  V30 6365 C 577.402 -0.0103164 -3.36898 0
M  V30 6366 O 577.932 0.950707 -3.90288 0
M  V30 6367 N 576.138 0.0608409 -2.90536 0
M  V30 6368 H 575.685 -0.721943 -2.47277 0
M  V30 6369 H 575.643 0.92292 -3.00549 0
M  V30 6370 N 579.415 0.9433 -1.26252 0
M  V30 6371 C 580.363 2.06302 -1.07434 0
M  V30 6372 C 581.357 1.694 -0.00189471 0
M  V30 6373 O 582.563 1.79302 -0.158408 0
M  V30 6374 H 578.938 0.675453 -0.330556 0
M  V30 6375 H 580.909 2.19326 -2.02333 0
M  V30 6376 C 579.658 3.40125 -0.721817 0
M  V30 6377 H 578.981 3.68996 -1.5389 0
M  V30 6378 H 580.421 4.19295 -0.629922 0
M  V30 6379 C 578.88 3.31993 0.572902 0
M  V30 6380 O 579.41 3.67945 1.61182 0
M  V30 6381 N 577.616 2.85099 0.562748 0
M  V30 6382 H 577.163 2.5604 -0.283092 0
M  V30 6383 H 577.121 2.80041 1.42915 0
M  V30 6384 N 580.893 1.08022 1.14757 0
M  V30 6385 C 582.142 0.802468 1.8505 0
M  V30 6386 C 582.455 -0.674061 1.83619 0
M  V30 6387 O 583.661 -1.06683 2.49662 0
M  V30 6388 C 582.117 1.38551 3.32162 0
M  V30 6389 C 581.725 2.89354 3.42021 0
M  V30 6390 C 583.469 1.18608 4.07594 0
M  V30 6391 C 581.376 3.40815 4.83321 0
M  V30 6392 H 580.306 0.296518 0.693248 0
M  V30 6393 H 582.957 1.30114 1.29393 0
M  V30 6394 H 581.339 0.814556 3.87532 0
M  V30 6395 H 582.513 3.52552 2.96722 0
M  V30 6396 H 580.828 3.08165 2.80041 0
M  V30 6397 H 583.425 1.54525 5.11885 0
M  V30 6398 H 583.768 0.125599 4.1611 0
M  V30 6399 H 584.301 1.72375 3.58513 0
M  V30 6400 H 581.04 4.46418 4.79991 0
M  V30 6401 H 580.56 2.82374 5.29174 0
M  V30 6402 H 582.239 3.37171 5.522 0
M  V30 6403 N 582.371 -1.3172 0.865308 0
M  V30 6404 C 583.596 -2.01591 0.487415 0
M  V30 6405 C 584.021 -1.6455 -0.911307 0
M  V30 6406 O 583.379 -0.851689 -1.6005 0
M  V30 6407 C 583.427 -3.54759 0.646401 0
M  V30 6408 O 582.531 -4.11185 -0.316284 0
M  V30 6409 H 581.872 -0.634884 0.194468 0
M  V30 6410 H 584.402 -1.68024 1.16744 0
M  V30 6411 H 584.412 -4.04438 0.537932 0
M  V30 6412 H 583.087 -3.8106 1.66632 0
M  V30 6413 H 581.664 -3.72543 -0.163162 0
M  V30 6414 N 583.85 -0.624285 -1.44708 0
M  V30 6415 C 585.096 -0.126237 -2.02407 0
M  V30 6416 C 585.428 1.24618 -1.48943 0
M  V30 6417 O 584.704 1.82569 -0.670742 0
M  V30 6418 C 584.986 -0.105449 -3.59946 0
M  V30 6419 C 584.84 -1.50972 -4.23707 0
M  V30 6420 C 586.159 0.573629 -4.36346 0
M  V30 6421 H 583.278 -0.0473472 -0.735478 0
M  V30 6422 H 585.92 -0.799452 -1.72362 0
M  V30 6423 H 584.07 0.46783 -3.85673 0
M  V30 6424 H 585.742 -2.13136 -4.0911 0
M  V30 6425 H 583.985 -2.0656 -3.81465 0
M  V30 6426 H 584.656 -1.44727 -5.32689 0
M  V30 6427 H 587.132 0.0861787 -4.16011 0
M  V30 6428 H 586.008 0.557338 -5.46063 0
M  V30 6429 H 586.269 1.64276 -4.10446 0
M  V30 6430 N 585.328 1.53329 -0.364422 0
M  V30 6431 C 586.739 1.86345 0.115039 0
M  V30 6432 C 587.09 1.28505 1.4826 0
M  V30 6433 O 586.215 0.606639 2.07723 0
M  V30 6434 C 586.81 3.38114 0.215522 0
M  V30 6435 C 585.369 3.70932 0.639237 0
M  V30 6436 C 584.516 2.76471 -0.214261 0
M  V30 6437 H 587.467 1.47593 -0.583258 0
M  V30 6438 H 587.488 3.66031 1.0393 0
M  V30 6439 H 587 3.80182 -0.779948 0
M  V30 6440 H 585.101 3.3442 1.64298 0
M  V30 6441 H 585.214 4.77302 0.41465 0
M  V30 6442 H 583.578 2.52724 0.316678 0
M  V30 6443 H 584.361 3.21373 -1.20725 0
M  V30 6444 N 586.806 0.0935595 1.57322 0
M  V30 6445 C 587.738 -0.895923 2.10964 0
M  V30 6446 C 588.751 -1.24705 1.04654 0
M  V30 6447 O 589.94 -1.20044 1.32105 0
M  V30 6448 C 587.04 -2.20546 2.57318 0
M  V30 6449 C 586.213 -2.0299 3.87445 0
M  V30 6450 C 585.272 -3.17443 4.19662 0
M  V30 6451 O 584.298 -2.91474 4.88909 0
M  V30 6452 N 585.5 -4.43168 3.74943 0
M  V30 6453 H 588.265 -0.437788 2.96485 0
M  V30 6454 H 585.826 -0.0915863 1.61641 0
M  V30 6455 H 587.818 -2.9606 2.75917 0
M  V30 6456 H 586.388 -2.57789 1.76816 0
M  V30 6457 H 585.608 -1.11815 3.78009 0
M  V30 6458 H 586.896 -1.88535 4.7258 0
M  V30 6459 H 586.294 -4.67149 3.19043 0
M  V30 6460 H 584.851 -5.15637 3.987 0
M  V30 6461 N 588.284 -1.56567 -0.180126 0
M  V30 6462 C 589.194 -1.98947 -1.24327 0
M  V30 6463 C 590.21 -0.899446 -1.4895 0
M  V30 6464 O 591.386 -1.20639 -1.61271 0
M  V30 6465 C 588.451 -2.33328 -2.56435 0
M  V30 6466 C 587.512 -3.56114 -2.39752 0
M  V30 6467 C 586.745 -3.88845 -3.65561 0
M  V30 6468 O 586.968 -3.22662 -4.70368 0
M  V30 6469 O 585.902 -4.82226 -3.60197 0
M  V30 6470 H 589.728 -2.89634 -0.913565 0
M  V30 6471 H 587.313 -1.44319 -0.386306 0
M  V30 6472 H 589.195 -2.5645 -3.34382 0
M  V30 6473 H 587.87 -1.45806 -2.89002 0
M  V30 6474 H 586.777 -3.38221 -1.59866 0
M  V30 6475 H 588.11 -4.4415 -2.12113 0
M  V30 6476 N 589.762 0.448376 -1.51087 0
M  V30 6477 C 591.039 1.20926 -1.53741 0
M  V30 6478 C 591.419 2.09025 -0.295222 0
M  V30 6479 O 590.767 2.16851 0.720283 0
M  V30 6480 C 590.977 2.02067 -2.84552 0
M  V30 6481 C 592.325 2.59486 -3.36084 0
M  V30 6482 O 593.349 2.12289 -2.86028 0
M  V30 6483 O 592.208 3.45539 -4.23397 0
M  V30 6484 H 589.302 0.549951 -0.617643 0
M  V30 6485 H 591.848 0.458344 -1.63393 0
M  V30 6486 H 590.62 1.37291 -3.66425 0
M  V30 6487 H 590.243 2.84246 -2.78011 0
M  V30 6488 N 591.24 1.41047 0.703093 0
M  V30 6489 C 592.517 1.30493 1.45708 0
M  V30 6490 C 592.897 -0.0709892 2.10981 0
M  V30 6491 O 592.245 -1.08471 2.01113 0
M  V30 6492 C 592.455 2.45287 2.48265 0
M  V30 6493 C 593.803 2.86104 3.13735 0
M  V30 6494 O 594.827 2.44971 2.58587 0
M  V30 6495 O 593.686 3.57206 4.13601 0
M  V30 6496 H 590.78 0.513144 0.648546 0
M  V30 6497 H 593.326 1.52995 0.734208 0
M  V30 6498 H 592.098 3.37135 1.98635 0
M  V30 6499 H 591.721 2.24622 3.28071 0
M  V30 6500 N 592.718 -0.936591 1.26751 0
M  V30 6501 C 593.948 -1.71509 1.15188 0
M  V30 6502 C 594.356 -1.86885 -0.295037 0
M  V30 6503 O 593.699 -1.37915 -1.21347 0
M  V30 6504 C 593.761 -3.13853 1.75318 0
M  V30 6505 C 593.425 -3.21845 3.24445 0
M  V30 6506 C 594.422 -3.04771 4.21201 0
M  V30 6507 C 592.107 -3.45088 3.64992 0
M  V30 6508 C 594.101 -3.10816 5.56482 0
M  V30 6509 C 591.788 -3.50767 5.00405 0
M  V30 6510 C 592.786 -3.33648 5.9596 0
M  V30 6511 O 592.474 -3.39045 7.28906 0
M  V30 6512 H 592.206 -0.543658 0.401761 0
M  V30 6513 H 594.76 -1.18234 1.67958 0
M  V30 6514 H 592.99 -3.6857 1.17016 0
M  V30 6515 H 594.679 -3.73634 1.58596 0
M  V30 6516 H 595.445 -2.86665 3.91214 0
M  V30 6517 H 591.324 -3.57467 2.91098 0
M  V30 6518 H 594.868 -2.97372 6.31043 0
M  V30 6519 H 590.765 -3.68396 5.30052 0
M  V30 6520 H 591.533 -3.55558 7.37238 0
M  V30 6521 N 594.196 -1.08629 -1.14182 0
M  V30 6522 C 595.444 -0.815731 -1.84906 0
M  V30 6523 C 595.765 0.660441 -1.83475 0
M  V30 6524 O 595.035 1.47888 -1.28476 0
M  V30 6525 H 593.615 -0.298773 -0.684648 0
M  V30 6526 H 596.277 -1.37274 -1.38354 0
M  V30 6527 H 595.373 -1.16193 -2.89665 0
M  V30 6528 N 595.674 1.31259 -0.872281 0
M  V30 6529 C 596.904 2.00504 -0.498183 0
M  V30 6530 C 597.312 1.65632 0.914479 0
M  V30 6531 O 596.655 0.882849 1.61095 0
M  V30 6532 C 596.717 3.5482 -0.578194 0
M  V30 6533 C 596.381 4.13172 -1.95289 0
M  V30 6534 C 597.378 4.30107 -2.92069 0
M  V30 6535 C 595.063 4.48846 -2.25483 0
M  V30 6536 C 597.057 4.81908 -4.17185 0
M  V30 6537 C 594.744 5.00349 -3.50847 0
M  V30 6538 C 595.742 5.16831 -4.46514 0
M  V30 6539 O 595.43 5.67228 -5.69656 0
M  V30 6540 H 595.162 0.648055 -0.192354 0
M  V30 6541 H 597.716 1.6841 -1.17589 0
M  V30 6542 H 595.946 3.86383 0.156438 0
M  V30 6543 H 597.635 4.05318 -0.217192 0
M  V30 6544 H 598.401 4.02862 -2.7005 0
M  V30 6545 H 594.28 4.35292 -1.51795 0
M  V30 6546 H 597.824 4.94688 -4.91863 0
M  V30 6547 H 593.721 5.27028 -3.72708 0
M  V30 6548 H 594.489 5.85592 -5.7186 0
M  V30 6549 N 597.152 0.631951 1.44375 0
M  V30 6550 C 598.084 -0.110911 2.28931 0
M  V30 6551 C 599.097 -0.808086 1.41329 0
M  V30 6552 O 600.286 -0.669396 1.65473 0
M  V30 6553 C 597.386 -1.17928 3.1772 0
M  V30 6554 C 596.559 -0.564458 4.33743 0
M  V30 6555 C 595.618 -1.5269 5.0356 0
M  V30 6556 O 594.644 -1.04372 5.59549 0
M  V30 6557 N 595.846 -2.86123 5.05088 0
M  V30 6558 H 598.611 0.614758 2.93327 0
M  V30 6559 H 596.172 0.473171 1.54831 0
M  V30 6560 H 598.164 -1.82348 3.61291 0
M  V30 6561 H 596.734 -1.80717 2.55069 0
M  V30 6562 H 595.954 0.258373 3.93352 0
M  V30 6563 H 597.242 -0.134355 5.08623 0
M  V30 6564 H 596.64 -3.27959 4.60933 0
M  V30 6565 H 595.197 -3.45901 5.52445 0
M  V30 6566 N 598.631 -1.53133 0.372548 0
M  V30 6567 C 599.871 -2.03267 -0.214943 0
M  V30 6568 C 600.235 -1.25362 -1.45425 0
M  V30 6569 O 601.436 -1.65536 -2.11781 0
M  V30 6570 C 599.707 -3.53985 -0.492897 0
M  V30 6571 S 601.266 -4.25977 -1.05307 0
M  V30 6572 H 598.084 -0.708289 -0.062029 0
M  V30 6573 H 600.686 -1.88539 0.517025 0
M  V30 6574 H 599.39 -4.08282 0.416442 0
M  V30 6575 H 598.921 -3.72887 -1.25375 0
M  V30 6576 H 600.936 -4.37731 -2.33679 0
M  V30 6577 N 600.109 -0.101901 -1.5727 0
M  V30 6578 C 601.039 0.851544 -2.17419 0
M  V30 6579 C 602.02 1.28942 -1.10941 0
M  V30 6580 O 603.205 1.35509 -1.39107 0
M  V30 6581 C 600.335 2.10816 -2.75996 0
M  V30 6582 C 599.289 1.80867 -3.87906 0
M  V30 6583 C 598.615 3.13413 -4.33216 0
M  V30 6584 C 599.915 1.0903 -5.10793 0
M  V30 6585 H 601.609 0.350381 -2.97343 0
M  V30 6586 H 599.155 0.16709 -1.43027 0
M  V30 6587 H 601.108 2.77959 -3.16729 0
M  V30 6588 H 599.832 2.63227 -1.93337 0
M  V30 6589 H 598.491 1.16119 -3.47724 0
M  V30 6590 H 598.139 3.63725 -3.47438 0
M  V30 6591 H 597.839 2.94155 -5.08671 0
M  V30 6592 H 599.363 3.81704 -4.76586 0
M  V30 6593 H 600.777 1.66295 -5.48652 0
M  V30 6594 H 599.174 0.99927 -5.91722 0
M  V30 6595 H 600.244 0.0741704 -4.84843 0
M  V30 6596 N 601.587 1.56661 0.17182 0
M  V30 6597 C 602.497 1.99604 1.2327 0
M  V30 6598 C 603.513 0.907333 1.4847 0
M  V30 6599 O 604.689 1.21492 1.60629 0
M  V30 6600 C 601.754 2.34685 2.55194 0
M  V30 6601 C 600.815 3.57381 2.3786 0
M  V30 6602 C 600.048 3.90779 3.63494 0
M  V30 6603 O 600.271 3.25152 4.6865 0
M  V30 6604 O 599.205 4.84129 3.57634 0
M  V30 6605 H 603.031 2.90114 0.898192 0
M  V30 6606 H 600.616 1.44522 0.378647 0
M  V30 6607 H 602.498 2.5822 3.33017 0
M  V30 6608 H 601.173 1.47336 2.88225 0
M  V30 6609 H 600.08 3.39064 1.5807 0
M  V30 6610 H 601.413 4.45268 2.09754 0
M  V30 6611 N 603.065 -0.440357 1.51323 0
M  V30 6612 C 604.313 -1.18769 1.63518 0
M  V30 6613 C 604.634 -1.91793 0.352201 0
M  V30 6614 O 603.904 -1.85432 -0.631811 0
M  V30 6615 H 602.484 -0.441408 0.602634 0
M  V30 6616 H 605.146 -0.505162 1.8824 0
M  V30 6617 H 604.242 -1.91892 2.46138 0
M  V30 6618 N 604.543 -1.41418 -0.695603 0
M  V30 6619 C 605.49 -1.43264 -1.80954 0
M  V30 6620 C 606.46 -0.287016 -1.63601 0
M  V30 6621 O 607.645 -0.488054 -1.84452 0
M  V30 6622 C 604.785 -1.32054 -3.18835 0
M  V30 6623 C 603.898 -2.56485 -3.4762 0
M  V30 6624 C 603.033 -2.3757 -4.75115 0
M  V30 6625 C 602.072 -3.57477 -4.96867 0
M  V30 6626 N 601.209 -3.37632 -6.15588 0
M  V30 6627 H 606.049 -2.38467 -1.78711 0
M  V30 6628 H 603.586 -1.18415 -0.872715 0
M  V30 6629 H 605.544 -1.23558 -3.98484 0
M  V30 6630 H 604.174 -0.404592 -3.20254 0
M  V30 6631 H 603.226 -2.75432 -2.62376 0
M  V30 6632 H 604.538 -3.45678 -3.59594 0
M  V30 6633 H 603.692 -2.2654 -5.62818 0
M  V30 6634 H 602.431 -1.45834 -4.65386 0
M  V30 6635 H 601.436 -3.68961 -4.07612 0
M  V30 6636 H 602.661 -4.50167 -5.08455 0
M  V30 6637 H 600.607 -2.48596 -6.07072 0
M  V30 6638 H 600.524 -4.20401 -6.2833 0
M  V30 6639 H 601.792 -3.30375 -7.06026 0
M  V30 6640 N 606.021 0.929856 -1.27246 0
M  V30 6641 C 607.298 1.65544 -1.04186 0
M  V30 6642 C 607.678 2.06796 0.424097 0
M  V30 6643 O 607.026 1.80053 1.40688 0
M  V30 6644 C 607.236 2.85912 -2.00138 0
M  V30 6645 C 608.584 3.57305 -2.29387 0
M  V30 6646 O 609.608 2.96036 -1.98094 0
M  V30 6647 O 608.467 4.67688 -2.82719 0
M  V30 6648 H 605.561 0.725473 -0.397011 0
M  V30 6649 H 608.107 0.980583 -1.38501 0
M  V30 6650 H 606.879 2.52403 -2.99013 0
M  V30 6651 H 606.502 3.61118 -1.66371 0
M  V30 6652 N 607.499 1.09233 1.13605 0
M  V30 6653 C 608.739 0.836786 1.86487 0
M  V30 6654 C 609.103 -0.626191 1.81502 0
M  V30 6655 O 610.304 -0.99758 2.49603 0
M  V30 6656 C 608.575 1.35476 3.30728 0
M  V30 6657 S 610.134 1.2328 4.21126 0
M  V30 6658 H 606.952 0.302702 0.643345 0
M  V30 6659 H 609.554 1.3953 1.36936 0
M  V30 6660 H 608.258 2.41381 3.31909 0
M  V30 6661 H 607.789 0.792286 3.85339 0
M  V30 6662 H 609.804 0.182468 4.95864 0
M  V30 6663 N 608.977 -1.30795 0.87923 0
M  V30 6664 C 609.94 -2.26563 0.346676 0
M  V30 6665 C 610.94 -1.52578 -0.507597 0
M  V30 6666 O 612.13 -1.71318 -0.315575 0
M  V30 6667 C 609.262 -3.37115 -0.506611 0
M  V30 6668 H 610.455 -2.75183 1.19223 0
M  V30 6669 H 608.008 -1.41886 0.655598 0
M  V30 6670 H 608.743 -2.93802 -1.37299 0
M  V30 6671 H 608.528 -3.91959 0.105218 0
M  V30 6672 H 610.018 -4.08412 -0.871192 0
M  V30 6673 N 610.455 -0.639598 -1.44038 0
M  V30 6674 C 611.68 -0.153117 -2.06834 0
M  V30 6675 C 612.105 1.16676 -1.47541 0
M  V30 6676 O 611.463 1.71769 -0.580093 0
M  V30 6677 C 611.511 -0.0609169 -3.60549 0
M  V30 6678 O 610.615 0.98071 -4.00569 0
M  V30 6679 H 609.956 -0.0886402 -0.658057 0
M  V30 6680 H 612.486 -0.878674 -1.84771 0
M  V30 6681 H 612.496 0.126892 -4.07803 0
M  V30 6682 H 611.171 -1.0245 -4.03084 0
M  V30 6683 H 609.748 0.766789 -3.64931 0
M  V30 6684 N 611.933 1.52934 -0.380664 0
M  V30 6685 C 613.18 2.01467 0.204278 0
M  V30 6686 C 613.508 1.26744 1.47533 0
M  V30 6687 O 612.763 0.353723 1.92477 0
M  V30 6688 C 613.062 3.5349 0.527199 0
M  V30 6689 C 612.728 4.46171 -0.651295 0
M  V30 6690 C 611.39 4.71227 -0.974619 0
M  V30 6691 C 613.742 5.00909 -1.44012 0
M  V30 6692 C 611.07 5.4827 -2.08847 0
M  V30 6693 C 613.422 5.7917 -2.5445 0
M  V30 6694 C 612.086 6.02507 -2.87301 0
M  V30 6695 H 611.356 0.73722 0.0747504 0
M  V30 6696 H 614.003 1.84411 -0.516234 0
M  V30 6697 H 612.308 3.68574 1.32892 0
M  V30 6698 H 614.005 3.88529 0.992283 0
M  V30 6699 H 610.595 4.26829 -0.389276 0
M  V30 6700 H 614.779 4.81485 -1.20357 0
M  V30 6701 H 610.035 5.64567 -2.34679 0
M  V30 6702 H 614.209 6.20588 -3.1598 0
M  V30 6703 H 611.836 6.61989 -3.7373 0
M  V30 6704 N 613.412 0.11024 1.57214 0
M  V30 6705 C 614.659 -0.54987 1.94891 0
M  V30 6706 C 614.987 -1.67243 0.992984 0
M  V30 6707 O 614.242 -1.95694 0.0152703 0
M  V30 6708 C 614.541 -1.13102 3.39032 0
M  V30 6709 C 614.207 -0.130713 4.5071 0
M  V30 6710 C 612.869 0.14437 4.80983 0
M  V30 6711 C 615.221 0.551472 5.18274 0
M  V30 6712 C 612.549 1.10807 5.76141 0
M  V30 6713 C 614.901 1.50375 6.14467 0
M  V30 6714 C 613.565 1.78691 6.43138 0
M  V30 6715 H 612.835 -0.201212 0.713158 0
M  V30 6716 H 615.482 0.189288 1.90562 0
M  V30 6717 H 613.787 -1.94675 3.40013 0
M  V30 6718 H 615.484 -1.64973 3.65493 0
M  V30 6719 H 612.074 -0.355301 4.27125 0
M  V30 6720 H 616.258 0.35211 4.95049 0
M  V30 6721 H 611.514 1.3343 5.96663 0
M  V30 6722 H 615.688 2.03808 6.65909 0
M  V30 6723 H 613.315 2.53522 7.1668 0
M  V30 6724 N 614.89 -1.56749 -0.16351 0
M  V30 6725 C 616.13 -1.84234 -0.885271 0
M  V30 6726 C 616.494 -0.692259 -1.79086 0
M  V30 6727 O 617.695 -0.847747 -2.55082 0
M  V30 6728 C 615.966 -3.16857 -1.65337 0
M  V30 6729 S 617.525 -3.65848 -2.42282 0
M  V30 6730 H 614.343 -0.646293 -0.296354 0
M  V30 6731 H 616.945 -1.94951 -0.146365 0
M  V30 6732 H 615.649 -3.98546 -0.979266 0
M  V30 6733 H 615.18 -3.09102 -2.4335 0
M  V30 6734 H 617.195 -3.33796 -3.67143 0
M  V30 6735 N 616.368 0.432326 -1.51554 0
M  V30 6736 C 617.608 1.19076 -1.66133 0
M  V30 6737 C 617.972 1.88364 -0.371873 0
M  V30 6738 O 619.173 2.65904 -0.39349 0
M  V30 6739 C 617.444 2.1768 -2.83461 0
M  V30 6740 S 619.003 3.01943 -3.18396 0
M  V30 6741 H 615.821 0.403735 -0.585251 0
M  V30 6742 H 618.423 0.481554 -1.89476 0
M  V30 6743 H 617.127 1.65424 -3.75583 0
M  V30 6744 H 616.658 2.93174 -2.62322 0
M  V30 6745 H 618.673 4.19373 -2.65219 0
M  V30 6746 N 617.846 1.41785 0.688094 0
M  V30 6747 C 619.093 1.41544 1.44816 0
M  V30 6748 C 619.421 0.0271746 1.94481 0
M  V30 6749 O 618.676 -0.962235 1.7041 0
M  V30 6750 C 618.975 2.37532 2.67046 0
M  V30 6751 C 618.641 3.84209 2.35996 0
M  V30 6752 C 617.303 4.24165 2.27239 0
M  V30 6753 C 619.655 4.76785 2.10536 0
M  V30 6754 C 616.983 5.54695 1.91128 0
M  V30 6755 C 619.335 6.07644 1.75931 0
M  V30 6756 C 617.999 6.46613 1.65675 0
M  V30 6757 H 617.269 0.517945 0.529919 0
M  V30 6758 H 619.916 1.74635 0.785797 0
M  V30 6759 H 618.221 1.9772 3.38251 0
M  V30 6760 H 619.918 2.34615 3.25203 0
M  V30 6761 H 616.508 3.52567 2.4371 0
M  V30 6762 H 620.692 4.46714 2.16242 0
M  V30 6763 H 615.948 5.83762 1.81746 0
M  V30 6764 H 620.122 6.78874 1.55252 0
M  V30 6765 H 617.749 7.47668 1.37463 0
M  V30 6766 N 619.324 -0.923095 1.27737 0
M  V30 6767 C 620.234 -2.05765 1.12685 0
M  V30 6768 C 621.25 -1.73911 0.0557197 0
M  V30 6769 O 622.426 -1.99674 0.263137 0
M  V30 6770 C 619.491 -3.37804 0.780363 0
M  V30 6771 C 618.552 -3.83326 1.93286 0
M  V30 6772 C 617.785 -5.09064 1.60281 0
M  V30 6773 O 618.008 -5.6809 0.512828 0
M  V30 6774 O 616.942 -5.50071 2.44347 0
M  V30 6775 H 620.768 -2.21378 2.07907 0
M  V30 6776 H 618.353 -1.04299 1.06968 0
M  V30 6777 H 620.235 -4.17097 0.600668 0
M  V30 6778 H 618.91 -3.23387 -0.142291 0
M  V30 6779 H 617.817 -3.049 2.16764 0
M  V30 6780 H 619.15 -4.02292 2.83588 0
M  V30 6781 N 620.802 -1.09834 -1.13024 0
M  V30 6782 C 622.079 -0.749225 -1.80682 0
M  V30 6783 C 622.459 0.765171 -1.96744 0
M  V30 6784 O 621.807 1.68912 -1.53886 0
M  V30 6785 C 622.017 -1.49311 -3.15448 0
M  V30 6786 C 623.365 -1.66162 -3.90737 0
M  V30 6787 O 624.389 -1.45597 -3.25085 0
M  V30 6788 O 623.248 -2.00211 -5.08505 0
M  V30 6789 H 620.342 -0.269614 -0.781817 0
M  V30 6790 H 622.888 -1.20078 -1.19914 0
M  V30 6791 H 621.66 -2.52407 -2.99009 0
M  V30 6792 H 621.283 -1.034 -3.8392 0
M  V30 6793 N 622.28 1.30327 -0.886154 0
M  V30 6794 C 623.52 1.97886 -0.511912 0
M  V30 6795 C 623.884 1.68417 0.921944 0
M  V30 6796 O 625.085 2.29319 1.40237 0
M  V30 6797 C 623.356 3.48775 -0.780444 0
M  V30 6798 S 624.915 4.35844 -0.508482 0
M  V30 6799 H 621.733 0.685024 -0.190428 0
M  V30 6800 H 624.335 1.58413 -1.14567 0
M  V30 6801 H 623.039 3.67714 -1.82248 0
M  V30 6802 H 622.57 3.93171 -0.134284 0
M  V30 6803 H 624.585 4.91893 0.65239 0
M  V30 6804 N 623.758 0.647228 1.43697 0
M  V30 6805 C 625.174 0.314256 1.56476 0
M  V30 6806 C 625.374 -1.18191 1.63196 0
M  V30 6807 O 624.43 -1.96655 1.58376 0
M  V30 6808 C 625.743 1.02034 2.82859 0
M  V30 6809 C 627.291 1.00002 2.96595 0
M  V30 6810 C 627.766 1.68689 4.25803 0
M  V30 6811 N 629.257 1.65424 4.32654 0
M  V30 6812 C 629.992 2.1545 5.31384 0
M  V30 6813 N 629.488 2.73738 6.36427 0
M  V30 6814 N 631.281 2.05985 5.22998 0
M  V30 6815 H 623.432 1.61821 1.37578 0
M  V30 6816 H 625.695 0.680184 0.660344 0
M  V30 6817 H 625.401 2.07542 2.83935 0
M  V30 6818 H 625.275 0.568146 3.72897 0
M  V30 6819 H 627.662 -0.0466319 2.95063 0
M  V30 6820 H 627.743 1.49086 2.07863 0
M  V30 6821 H 627.387 2.73308 4.28095 0
M  V30 6822 H 627.317 1.17076 5.13421 0
M  V30 6823 H 629.808 1.22884 3.57363 0
M  V30 6824 H 630.121 3.09602 7.08072 0
M  V30 6825 H 628.466 2.77796 6.37067 0
M  V30 6826 H 631.657 1.60157 4.39849 0
M  V30 6827 H 631.83 2.45281 5.99784 0
M  V30 6828 N 625.236 -1.5273 0.388769 0
M  V30 6829 C 626.464 -2.05992 -0.193677 0
M  V30 6830 C 626.879 -1.26053 -1.40557 0
M  V30 6831 O 626.236 -0.307049 -1.79898 0
M  V30 6832 C 626.287 -3.57068 -0.564321 0
M  V30 6833 O 626.008 -4.3398 0.599422 0
M  V30 6834 C 627.509 -4.26674 -1.20269 0
M  V30 6835 H 624.729 -0.670358 -0.0293445 0
M  V30 6836 H 627.273 -1.96857 0.553844 0
M  V30 6837 H 625.428 -3.66277 -1.26174 0
M  V30 6838 H 625.842 -5.2367 0.294895 0
M  V30 6839 H 627.316 -5.33625 -1.4124 0
M  V30 6840 H 627.793 -3.81854 -2.16989 0
M  V30 6841 H 628.399 -4.2178 -0.546047 0
M  V30 6842 N 626.714 -0.118576 -1.57153 0
M  V30 6843 C 627.962 0.538461 -1.94795 0
M  V30 6844 C 628.283 1.67243 -1.00274 0
M  V30 6845 O 627.553 1.95811 -0.0589692 0
M  V30 6846 H 626.133 0.201904 -0.719197 0
M  V30 6847 H 628.795 -0.187418 -1.93997 0
M  V30 6848 H 627.891 0.933315 -2.97818 0
M  V30 6849 N 628.193 1.56834 0.155195 0
M  V30 6850 C 629.418 1.87412 0.888337 0
M  V30 6851 C 629.843 0.70671 1.74319 0
M  V30 6852 O 629.201 -0.343892 1.78009 0
M  V30 6853 C 629.249 3.1652 1.72765 0
M  V30 6854 O 628.353 2.99877 2.83103 0
M  V30 6855 H 627.694 0.615983 0.247914 0
M  V30 6856 H 630.224 2.04061 0.148478 0
M  V30 6857 H 630.234 3.48334 2.12433 0
M  V30 6858 H 628.909 4.01094 1.09985 0
M  V30 6859 H 627.486 2.79453 2.46902 0
M  V30 6860 N 629.671 -0.424282 1.51781 0
M  V30 6861 C 630.917 -1.17117 1.66298 0
M  V30 6862 C 631.272 -1.88595 0.380767 0
M  V30 6863 O 630.565 -1.81151 -0.624094 0
M  V30 6864 C 630.759 -2.20418 2.81337 0
M  V30 6865 C 630.588 -1.59081 4.20622 0
M  V30 6866 C 629.358 -1.37007 4.86371 0
M  V30 6867 C 631.556 -1.05992 5.0326 0
M  V30 6868 N 629.538 -0.714049 6.09733 0
M  V30 6869 C 630.909 -0.529933 6.17731 0
M  V30 6870 C 632.964 -0.952927 4.88696 0
M  V30 6871 C 631.667 0.0965457 7.19235 0
M  V30 6872 C 633.693 -0.340325 5.9042 0
M  V30 6873 C 633.055 0.179057 7.04172 0
M  V30 6874 H 629.154 -0.41577 0.662314 0
M  V30 6875 H 631.738 -0.46579 1.89046 0
M  V30 6876 H 629.909 -2.8833 2.60231 0
M  V30 6877 H 631.641 -2.8736 2.84968 0
M  V30 6878 H 628.396 -1.63543 4.44467 0
M  V30 6879 H 628.82 -0.403101 6.75799 0
M  V30 6880 H 633.462 -1.34033 4.00993 0
M  V30 6881 H 631.18 0.496044 8.06576 0
M  V30 6882 H 634.766 -0.259266 5.81222 0
M  V30 6883 H 633.646 0.645626 7.81538 0
M  V30 6884 N 631.149 -1.42148 -0.680565 0
M  V30 6885 C 632.565 -1.24947 -0.992995 0
M  V30 6886 C 632.765 -0.149527 -2.00944 0
M  V30 6887 O 631.821 0.481145 -2.47873 0
M  V30 6888 C 633.134 -2.60426 -1.5033 0
M  V30 6889 C 634.682 -2.67733 -1.62137 0
M  V30 6890 C 635.157 -4.03564 -2.16565 0
M  V30 6891 N 636.648 -4.05488 -2.23905 0
M  V30 6892 C 637.383 -5.07401 -2.67081 0
M  V30 6893 N 636.879 -6.19698 -3.09751 0
M  V30 6894 N 638.672 -4.94758 -2.66778 0
M  V30 6895 H 630.823 -2.12399 -0.0074788 0
M  V30 6896 H 633.086 -0.94571 -0.0658529 0
M  V30 6897 H 632.792 -3.41743 -0.830947 0
M  V30 6898 H 632.666 -2.83949 -2.483 0
M  V30 6899 H 635.053 -1.86765 -2.2848 0
M  V30 6900 H 635.134 -2.48004 -0.626713 0
M  V30 6901 H 634.778 -4.84987 -1.50833 0
M  V30 6902 H 634.708 -4.20641 -3.1681 0
M  V30 6903 H 637.199 -3.24415 -1.93812 0
M  V30 6904 H 637.512 -6.93318 -3.41365 0
M  V30 6905 H 635.857 -6.23212 -3.07623 0
M  V30 6906 H 639.048 -4.06105 -2.32801 0
M  V30 6907 H 639.221 -5.74317 -3.00107 0
M  V30 6908 N 632.627 0.916307 -1.28225 0
M  V30 6909 C 633.537 2.05165 -1.13775 0
M  V30 6910 C 634.553 1.73879 -0.0649418 0
M  V30 6911 O 635.729 1.99531 -0.273722 0
M  V30 6912 C 632.794 3.37385 -0.798267 0
M  V30 6913 C 631.855 3.82296 -1.95316 0
M  V30 6914 C 631.088 5.08206 -1.62978 0
M  V30 6915 O 631.311 5.6781 -0.542948 0
M  V30 6916 O 630.245 5.48768 -2.47261 0
M  V30 6917 H 634.071 2.20273 -2.09078 0
M  V30 6918 H 631.656 1.0373 -1.07519 0
M  V30 6919 H 633.538 4.16773 -0.62278 0
M  V30 6920 H 632.213 3.23458 0.125139 0
M  V30 6921 H 631.12 3.03746 -2.18378 0
M  V30 6922 H 632.453 4.00782 -2.85718 0
M  V30 6923 N 634.105 1.10431 1.1244 0
M  V30 6924 C 635.353 0.845045 1.83585 0
M  V30 6925 C 635.674 -0.631168 1.84503 0
M  V30 6926 O 634.944 -1.45825 1.30813 0
M  V30 6927 H 633.524 0.309628 0.679809 0
M  V30 6928 H 636.186 1.39458 1.36153 0
M  V30 6929 H 635.282 1.20786 2.8778 0
M  V30 6930 N 635.583 -1.29855 0.893053 0
M  V30 6931 C 636.999 -1.48366 0.588199 0
M  V30 6932 C 637.199 -1.81654 -0.872018 0
M  V30 6933 O 636.255 -1.909 -1.65268 0
M  V30 6934 C 637.568 -2.60136 1.5083 0
M  V30 6935 C 639.116 -2.74014 1.51279 0
M  V30 6936 C 639.591 -3.88905 2.41902 0
M  V30 6937 N 641.082 -3.96228 2.39911 0
M  V30 6938 C 641.817 -4.84458 3.06738 0
M  V30 6939 N 641.313 -5.77426 3.8282 0
M  V30 6940 N 643.106 -4.77894 2.95929 0
M  V30 6941 H 635.257 -1.06522 1.83757 0
M  V30 6942 H 637.52 -0.528495 0.787018 0
M  V30 6943 H 637.226 -2.42383 2.54839 0
M  V30 6944 H 637.1 -3.56793 1.22388 0
M  V30 6945 H 639.487 -2.91167 0.480179 0
M  V30 6946 H 639.568 -1.77952 1.83757 0
M  V30 6947 H 639.212 -3.72508 3.45253 0
M  V30 6948 H 639.142 -4.84322 2.06737 0
M  V30 6949 H 641.633 -3.29728 1.84629 0
M  V30 6950 H 641.946 -6.41529 4.30883 0
M  V30 6951 H 640.291 -5.77332 3.86927 0
M  V30 6952 H 643.482 -4.04248 2.36012 0
M  V30 6953 H 643.655 -5.46444 3.48286 0
M  V30 6954 N 637.061 -0.65484 -1.43351 0
M  V30 6955 C 638.31 -0.166215 -2.01014 0
M  V30 6956 C 638.623 1.22764 -1.52278 0
M  V30 6957 O 639.829 1.81156 -2.02224 0
M  V30 6958 C 638.285 -0.246341 -3.59056 0
M  V30 6959 C 637.893 -1.64299 -4.16785 0
M  V30 6960 C 639.637 0.184597 -4.24098 0
M  V30 6961 C 637.544 -1.67695 -5.67126 0
M  V30 6962 H 636.474 -0.0583769 -0.751737 0
M  V30 6963 H 639.125 -0.817111 -1.64303 0
M  V30 6964 H 637.507 0.472092 -3.93176 0
M  V30 6965 H 638.681 -2.3869 -3.94162 0
M  V30 6966 H 636.996 -2.02004 -3.6412 0
M  V30 6967 H 639.593 0.179088 -5.344 0
M  V30 6968 H 639.936 1.21632 -3.98135 0
M  V30 6969 H 640.469 -0.482141 -3.94867 0
M  V30 6970 H 637.208 -2.68783 -5.9786 0
M  V30 6971 H 636.728 -0.976313 -5.91801 0
M  V30 6972 H 638.407 -1.42142 -6.31193 0
M  V30 6973 N 638.539 1.52521 -0.396863 0
M  V30 6974 C 639.489 2.2348 0.451722 0
M  V30 6975 C 640.473 1.2415 1.0235 0
M  V30 6976 O 641.665 1.4945 0.948348 0
M  V30 6977 C 638.794 3.05067 1.57445 0
M  V30 6978 C 637.88 4.11799 1.01404 0
M  V30 6979 N 638.271 5.05482 0.179234 0
M  V30 6980 C 636.569 4.27064 1.28578 0
M  V30 6981 C 637.27 5.81552 -0.131202 0
M  V30 6982 N 636.246 5.41523 0.474735 0
M  V30 6983 H 640.048 2.93269 -0.192534 0
M  V30 6984 H 637.562 1.61081 -0.206591 0
M  V30 6985 H 639.559 3.54446 2.19485 0
M  V30 6986 H 638.219 2.36816 2.22145 0
M  V30 6987 H 639.23 5.17573 -0.18411 0
M  V30 6988 H 635.907 3.70042 1.93327 0
M  V30 6989 H 637.297 6.67023 -0.808061 0
M  V30 6990 N 640.017 0.126909 1.57088 0
M  V30 6991 C 641.266 -0.529024 1.94639 0
M  V30 6992 C 641.579 -1.67323 1.01304 0
M  V30 6993 O 642.785 -2.39245 1.28352 0
M  V30 6994 C 641.241 -0.992483 3.45945 0
M  V30 6995 C 640.849 0.123691 4.47829 0
M  V30 6996 C 642.593 -1.61934 3.924 0
M  V30 6997 C 640.5 -0.356911 5.90322 0
M  V30 6998 H 639.43 -0.201397 0.726605 0
M  V30 6999 H 642.081 0.208032 1.82317 0
M  V30 7000 H 640.463 -1.7842 3.53528 0
M  V30 7001 H 641.637 0.900168 4.51922 0
M  V30 7002 H 639.952 0.657699 4.11173 0
M  V30 7003 H 642.549 -1.9902 4.96281 0
M  V30 7004 H 642.892 -2.50075 3.32819 0
M  V30 7005 H 643.425 -0.892894 3.8765 0
M  V30 7006 H 640.164 0.488636 6.53676 0
M  V30 7007 H 639.684 -1.0997 5.89633 0
M  V30 7008 H 641.363 -0.815547 6.41839 0
M  V30 7009 N 641.495 -1.56914 -0.146875 0
M  V30 7010 C 642.911 -1.51582 -0.499518 0
M  V30 7011 C 643.111 -0.83535 -1.83369 0
M  V30 7012 O 642.167 -0.405932 -2.49216 0
M  V30 7013 C 643.48 -2.96349 -0.509711 0
M  V30 7014 C 645.028 -3.07288 -0.595217 0
M  V30 7015 C 645.503 -4.53562 -0.636071 0
M  V30 7016 N 646.994 -4.57906 -0.69829 0
M  V30 7017 C 647.729 -5.68462 -0.750886 0
M  V30 7018 N 647.225 -6.88588 -0.76282 0
M  V30 7019 N 649.018 -5.56496 -0.791777 0
M  V30 7020 H 641.169 -1.99547 0.727656 0
M  V30 7021 H 643.432 -0.910113 0.265327 0
M  V30 7022 H 643.138 -3.4939 0.402409 0
M  V30 7023 H 643.012 -3.52307 -1.34758 0
M  V30 7024 H 645.399 -2.54266 -1.49776 0
M  V30 7025 H 645.48 -2.54373 0.2698 0
M  V30 7026 H 645.124 -5.07222 0.262313 0
M  V30 7027 H 645.054 -5.04259 -1.51758 0
M  V30 7028 H 647.545 -3.71429 -0.696362 0
M  V30 7029 H 647.858 -7.68598 -0.804804 0
M  V30 7030 H 646.203 -6.91148 -0.730694 0
M  V30 7031 H 649.394 -4.61562 -0.779624 0
M  V30 7032 H 649.567 -6.42671 -0.829301 0
M  V30 7033 N 642.974 0.416227 -1.52004 0
M  V30 7034 C 644.223 1.16088 -1.64944 0
M  V30 7035 C 644.536 1.91835 -0.381928 0
M  V30 7036 O 645.742 2.6867 -0.391013 0
M  V30 7037 C 644.198 2.1124 -2.91386 0
M  V30 7038 C 643.806 1.41042 -4.25219 0
M  V30 7039 C 645.55 2.86008 -3.13688 0
M  V30 7040 C 643.457 2.34801 -5.42791 0
M  V30 7041 H 642.387 0.437041 -0.61442 0
M  V30 7042 H 645.038 0.425971 -1.78487 0
M  V30 7043 H 643.42 2.88254 -2.71525 0
M  V30 7044 H 644.594 0.694416 -4.55538 0
M  V30 7045 H 642.909 0.78344 -4.08964 0
M  V30 7046 H 645.506 3.56286 -3.98703 0
M  V30 7047 H 645.849 3.48556 -2.27628 0
M  V30 7048 H 646.382 2.16095 -3.33988 0
M  V30 7049 H 643.121 1.7691 -6.31176 0
M  V30 7050 H 642.641 3.04395 -5.16821 0
M  V30 7051 H 644.32 2.9548 -5.75587 0
M  V30 7052 N 644.452 1.42507 0.673017 0
M  V30 7053 C 645.415 1.4582 1.76831 0
M  V30 7054 C 646.415 0.345542 1.57043 0
M  V30 7055 O 647.605 0.606447 1.63303 0
M  V30 7056 C 644.737 1.29158 3.15485 0
M  V30 7057 H 645.93 2.43345 1.7528 0
M  V30 7058 H 643.483 1.28981 0.882817 0
M  V30 7059 H 644.218 0.325626 3.22661 0
M  V30 7060 H 644.003 2.09797 3.31252 0
M  V30 7061 H 645.493 1.34363 3.95394 0
M  V30 7062 N 645.93 -0.909495 1.28709 0
M  V30 7063 C 646.877 -2.01245 1.13 0
M  V30 7064 C 647.847 -1.6608 0.0259684 0
M  V30 7065 O 649.032 -1.89835 0.191687 0
M  V30 7066 C 646.172 -3.35644 0.802315 0
M  V30 7067 C 645.285 -3.83653 1.98582 0
M  V30 7068 C 644.42 -5.06582 1.59837 0
M  V30 7069 C 643.459 -5.46934 2.74827 0
M  V30 7070 N 642.596 -6.61053 2.36546 0
M  V30 7071 H 647.436 -2.14013 2.0737 0
M  V30 7072 H 644.973 -1.0482 1.03205 0
M  V30 7073 H 646.931 -4.12963 0.593057 0
M  V30 7074 H 645.561 -3.22631 -0.104457 0
M  V30 7075 H 644.613 -3.02454 2.30708 0
M  V30 7076 H 645.925 -4.09515 2.84779 0
M  V30 7077 H 645.079 -5.91457 1.35143 0
M  V30 7078 H 643.818 -4.82537 0.707753 0
M  V30 7079 H 642.823 -4.60599 3.00215 0
M  V30 7080 H 644.048 -5.72965 3.64538 0
M  V30 7081 H 641.994 -6.3863 1.49959 0
M  V30 7082 H 641.911 -6.86662 3.16277 0
M  V30 7083 H 643.179 -7.49221 2.15146 0
M  V30 7084 N 647.408 -1.11026 -1.11852 0
M  V30 7085 C 648.657 -0.851249 -1.82857 0
M  V30 7086 C 648.97 0.62514 -1.85341 0
M  V30 7087 O 650.176 1.00026 -2.52403 0
M  V30 7088 C 648.632 -1.47309 -3.28372 0
M  V30 7089 C 648.24 -2.9832 -3.34229 0
M  V30 7090 C 649.984 -1.29373 -4.04306 0
M  V30 7091 C 647.891 -3.53509 -4.74115 0
M  V30 7092 H 646.821 -0.314794 -0.685143 0
M  V30 7093 H 649.472 -1.33499 -1.25898 0
M  V30 7094 H 647.854 -0.917017 -3.85236 0
M  V30 7095 H 649.028 -3.60295 -2.87271 0
M  V30 7096 H 647.343 -3.15482 -2.71772 0
M  V30 7097 H 649.94 -1.68042 -5.07608 0
M  V30 7098 H 650.283 -0.235879 -4.15631 0
M  V30 7099 H 650.816 -1.8182 -3.53817 0
M  V30 7100 H 647.555 -4.58987 -4.67986 0
M  V30 7101 H 647.075 -2.96305 -5.21501 0
M  V30 7102 H 648.754 -3.51693 -5.43066 0
M  V30 7103 N 648.886 1.2938 -0.899927 0
M  V30 7104 C 650.163 1.9046 -0.445443 0
M  V30 7105 C 650.543 1.81683 1.07492 0
M  V30 7106 O 649.891 1.24371 1.91688 0
M  V30 7107 C 650.101 3.35529 -0.960279 0
M  V30 7108 C 651.449 4.12556 -1.00412 0
M  V30 7109 O 652.473 3.44434 -0.907965 0
M  V30 7110 O 651.332 5.34294 -1.14857 0
M  V30 7111 H 648.426 0.815253 -0.138893 0
M  V30 7112 H 650.972 1.37844 -0.989808 0
M  V30 7113 H 649.744 3.36074 -2.00425 0
M  V30 7114 H 649.367 3.95624 -0.395939 0
M  V30 7115 N 650.364 0.662433 1.43002 0
M  V30 7116 C 651.589 0.186003 2.06564 0
M  V30 7117 C 652.014 -1.14314 1.49379 0
M  V30 7118 O 651.372 -1.70824 0.607346 0
M  V30 7119 C 651.42 0.118269 3.60406 0
M  V30 7120 O 650.524 -0.916859 4.02079 0
M  V30 7121 H 649.865 0.0990981 0.656563 0
M  V30 7122 H 652.395 0.907958 1.8335 0
M  V30 7123 H 652.405 -0.0619981 4.07953 0
M  V30 7124 H 651.08 1.08849 4.01403 0
M  V30 7125 H 649.657 -0.708635 3.66105 0
M  V30 7126 N 651.842 -1.52309 0.404946 0
M  V30 7127 C 653.072 -2.05886 -0.171569 0
M  V30 7128 C 653.48 -1.27527 -1.39762 0
M  V30 7129 O 652.823 -0.319215 -1.80905 0
M  V30 7130 C 652.885 -3.54609 -0.590983 0
M  V30 7131 C 652.549 -4.53989 0.523757 0
M  V30 7132 C 653.546 -5.01084 1.38604 0
M  V30 7133 C 651.231 -4.97465 0.695255 0
M  V30 7134 C 653.225 -5.90295 2.4048 0
M  V30 7135 C 650.912 -5.86473 1.71733 0
M  V30 7136 C 651.91 -6.32782 2.57051 0
M  V30 7137 O 651.598 -7.20029 3.57509 0
M  V30 7138 H 651.33 -0.675508 -0.0257763 0
M  V30 7139 H 653.884 -1.97238 0.573278 0
M  V30 7140 H 652.114 -3.60929 -1.38805 0
M  V30 7141 H 653.803 -3.90853 -1.09494 0
M  V30 7142 H 654.569 -4.68214 1.26492 0
M  V30 7143 H 650.448 -4.60982 0.0408447 0
M  V30 7144 H 653.992 -6.26363 3.07108 0
M  V30 7145 H 649.889 -6.18756 1.83877 0
M  V30 7146 H 650.657 -7.3813 3.53703 0
M  V30 7147 N 653.32 -0.135238 -1.57019 0
M  V30 7148 C 654.545 0.529343 -2.00531 0
M  V30 7149 C 654.97 1.58391 -1.01459 0
M  V30 7150 O 654.328 1.81296 0.0113986 0
M  V30 7151 C 654.376 1.11748 -3.42848 0
M  V30 7152 O 653.48 2.23267 -3.46736 0
M  V30 7153 H 652.821 0.130669 -0.651016 0
M  V30 7154 H 655.351 -0.228503 -2.0332 0
M  V30 7155 H 655.361 1.44905 -3.81401 0
M  V30 7156 H 654.036 0.345147 -4.14465 0
M  V30 7157 H 652.613 1.91428 -3.20015 0
M  V30 7158 N 654.798 1.5699 0.138552 0
M  V30 7159 C 656.214 1.51844 0.491472 0
M  V30 7160 C 656.414 0.845063 1.82923 0
M  V30 7161 O 655.47 0.419143 2.48997 0
M  V30 7162 C 656.783 2.96615 0.493987 0
M  V30 7163 C 658.331 3.076 0.578913 0
M  V30 7164 C 658.806 4.53893 0.612009 0
M  V30 7165 N 660.297 4.5827 0.673997 0
M  V30 7166 C 661.032 5.68852 0.720729 0
M  V30 7167 N 660.528 6.88982 0.726292 0
M  V30 7168 N 662.321 5.56908 0.762253 0
M  V30 7169 H 654.472 1.99158 -0.738228 0
M  V30 7170 H 656.735 0.908693 -0.270149 0
M  V30 7171 H 656.441 3.49172 -0.420933 0
M  V30 7172 H 656.315 3.53017 1.32887 0
M  V30 7173 H 658.702 2.55057 1.48425 0
M  V30 7174 H 658.783 2.54227 -0.283286 0
M  V30 7175 H 658.427 5.07076 -0.289208 0
M  V30 7176 H 658.357 5.05057 1.49082 0
M  V30 7177 H 660.848 3.71793 0.676654 0
M  V30 7178 H 661.161 7.69014 0.764032 0
M  V30 7179 H 659.506 6.91526 0.69403 0
M  V30 7180 H 662.697 4.61969 0.755135 0
M  V30 7181 H 662.87 6.43102 0.795207 0
M  V30 7182 N 656.276 -0.40816 1.52223 0
M  V30 7183 C 657.525 -1.15212 1.65557 0
M  V30 7184 C 657.838 -1.9163 0.392096 0
M  V30 7185 O 659.044 -2.68458 0.405256 0
M  V30 7186 C 657.5 -2.09691 2.92502 0
M  V30 7187 C 657.108 -1.38785 4.25961 0
M  V30 7188 C 658.852 -2.8434 3.152 0
M  V30 7189 C 656.759 -2.31919 5.44029 0
M  V30 7190 H 655.689 -0.433776 0.616729 0
M  V30 7191 H 658.34 -0.4165 1.78711 0
M  V30 7192 H 656.722 -2.8681 2.7305 0
M  V30 7193 H 657.896 -0.670248 4.55899 0
M  V30 7194 H 656.211 -0.761741 4.09373 0
M  V30 7195 H 658.808 -3.54166 4.00587 0
M  V30 7196 H 659.151 -3.47344 2.29473 0
M  V30 7197 H 659.684 -2.14321 3.35129 0
M  V30 7198 H 656.423 -1.7356 6.32105 0
M  V30 7199 H 655.943 -3.0165 5.18428 0
M  V30 7200 H 657.622 -2.92424 5.77146 0
M  V30 7201 N 657.755 -1.42862 -0.66545 0
M  V30 7202 C 659.002 -1.4383 -1.42546 0
M  V30 7203 C 659.33 -0.0581114 -1.94413 0
M  V30 7204 O 658.585 0.935002 -1.71919 0
M  V30 7205 C 658.884 -2.4175 -2.63233 0
M  V30 7206 C 658.55 -3.87915 -2.29854 0
M  V30 7207 C 657.212 -4.27726 -2.20463 0
M  V30 7208 C 659.564 -4.80074 -2.02924 0
M  V30 7209 C 656.892 -5.57666 -1.82279 0
M  V30 7210 C 659.244 -6.10366 -1.66242 0
M  V30 7211 C 657.908 -6.49167 -1.55367 0
M  V30 7212 H 657.178 -0.52631 -0.521612 0
M  V30 7213 H 659.825 -1.75863 -0.757914 0
M  V30 7214 H 658.13 -2.03077 -3.35063 0
M  V30 7215 H 659.827 -2.39759 -3.21429 0
M  V30 7216 H 656.417 -3.564 -2.3807 0
M  V30 7217 H 660.601 -4.50097 -2.09108 0
M  V30 7218 H 655.857 -5.8658 -1.72436 0
M  V30 7219 H 660.031 -6.81258 -1.44432 0
M  V30 7220 H 657.658 -7.49761 -1.2555 0
M  V30 7221 N 659.233 0.902656 -1.29189 0
M  V30 7222 C 660.48 1.65287 -1.16989 0
M  V30 7223 C 660.808 1.92485 0.279232 0
M  V30 7224 O 660.063 1.53143 1.21843 0
M  V30 7225 C 660.362 3.011 -1.92545 0
M  V30 7226 C 660.028 2.93521 -3.42281 0
M  V30 7227 C 658.69 2.91161 -3.83117 0
M  V30 7228 C 661.042 2.82947 -4.3771 0
M  V30 7229 C 658.37 2.76043 -5.17704 0
M  V30 7230 C 660.722 2.69368 -5.72384 0
M  V30 7231 C 659.386 2.65373 -6.12482 0
M  V30 7232 H 658.656 0.604828 -0.428094 0
M  V30 7233 H 661.303 1.05084 -1.60092 0
M  V30 7234 H 659.608 3.65153 -1.42024 0
M  V30 7235 H 661.305 3.58073 -1.80512 0
M  V30 7236 H 657.895 2.96158 -3.09819 0
M  V30 7237 H 662.079 2.83849 -4.07116 0
M  V30 7238 H 657.335 2.71352 -5.47885 0
M  V30 7239 H 661.509 2.60156 -6.45981 0
M  V30 7240 H 659.136 2.53415 -7.16718 0
M  V30 7241 N 660.711 1.11618 1.11262 0
M  V30 7242 C 662.122 0.881942 1.64556 0
M  V30 7243 C 662.473 -0.585442 1.87262 0
M  V30 7244 O 661.598 -1.44795 1.60821 0
M  V30 7245 C 662.193 1.59446 2.98935 0
M  V30 7246 C 660.752 1.40661 3.4913 0
M  V30 7247 C 659.899 1.63593 2.23903 0
M  V30 7248 H 662.85 1.27217 0.94877 0
M  V30 7249 H 662.871 1.04054 3.65996 0
M  V30 7250 H 662.383 2.66241 2.82378 0
M  V30 7251 H 660.484 0.360835 3.70849 0
M  V30 7252 H 660.597 2.15693 4.27801 0
M  V30 7253 H 658.961 1.05944 2.3162 0
M  V30 7254 H 659.744 2.71666 2.09886 0
M  V30 7255 N 662.189 -1.289 0.906776 0
M  V30 7256 C 663.417 -1.99401 0.551969 0
M  V30 7257 C 663.832 -1.67816 -0.865048 0
M  V30 7258 O 663.189 -0.927078 -1.57199 0
M  V30 7259 C 663.24 -3.53779 0.743152 0
M  V30 7260 O 662.961 -3.84248 2.1044 0
M  V30 7261 C 664.462 -4.41543 0.39424 0
M  V30 7262 H 661.682 -0.636926 0.211106 0
M  V30 7263 H 664.226 -1.64266 1.21807 0
M  V30 7264 H 662.381 -3.87201 0.124143 0
M  V30 7265 H 662.795 -4.78904 2.13895 0
M  V30 7266 H 664.269 -5.48957 0.578814 0
M  V30 7267 H 664.746 -4.34073 -0.669137 0
M  V30 7268 H 665.352 -4.13605 0.990491 0
M  V30 7269 N 663.667 -0.670007 -1.42649 0
M  V30 7270 C 664.63 0.00204659 -2.292 0
M  V30 7271 C 665.63 0.733817 -1.4308 0
M  V30 7272 O 666.82 0.57254 -1.64522 0
M  V30 7273 C 663.952 1.01359 -3.25483 0
M  V30 7274 H 665.145 -0.759696 -2.90118 0
M  V30 7275 H 662.698 -0.432105 -1.50208 0
M  V30 7276 H 663.433 1.80399 -2.69493 0
M  V30 7277 H 663.218 0.492323 -3.88997 0
M  V30 7278 H 664.708 1.4824 -3.90403 0
M  V30 7279 N 665.145 1.52092 -0.413018 0
M  V30 7280 C 666.392 2.01855 0.161497 0
M  V30 7281 C 666.72 1.29845 1.44812 0
M  V30 7282 O 665.975 0.394471 1.91683 0
M  V30 7283 C 666.274 3.54529 0.4521 0
M  V30 7284 C 665.94 4.4469 -0.745788 0
M  V30 7285 C 664.602 4.69053 -1.07435 0
M  V30 7286 C 666.954 4.97742 -1.54604 0
M  V30 7287 C 664.282 5.43717 -2.20429 0
M  V30 7288 C 666.634 5.73642 -2.66678 0
M  V30 7289 C 665.298 5.96277 -3.00016 0
M  V30 7290 H 664.568 0.73864 0.0590961 0
M  V30 7291 H 667.215 1.83274 -0.555234 0
M  V30 7292 H 665.52 3.7131 1.25045 0
M  V30 7293 H 667.217 3.90546 0.909647 0
M  V30 7294 H 663.807 4.25907 -0.479725 0
M  V30 7295 H 667.991 4.78824 -1.30543 0
M  V30 7296 H 663.247 5.59462 -2.46602 0
M  V30 7297 H 667.421 6.13746 -3.29072 0
M  V30 7298 H 665.048 6.53913 -3.87688 0
M  V30 7299 N 666.623 0.143563 1.56945 0
M  V30 7300 C 667.586 -0.783295 2.154 0
M  V30 7301 C 668.586 -1.17763 1.09492 0
M  V30 7302 O 669.776 -1.09912 1.35148 0
M  V30 7303 C 666.908 -2.06248 2.7143 0
M  V30 7304 H 668.101 -0.274863 2.98638 0
M  V30 7305 H 665.654 -0.105859 1.55941 0
M  V30 7306 H 666.389 -2.61466 1.91849 0
M  V30 7307 H 666.174 -1.78897 3.4891 0
M  V30 7308 H 667.664 -2.72453 3.16479 0
M  V30 7309 N 668.101 -1.57061 -0.130224 0
M  V30 7310 C 669.031 -2.02552 -1.16168 0
M  V30 7311 C 670.012 -0.907971 -1.4384 0
M  V30 7312 O 671.197 -1.17693 -1.54473 0
M  V30 7313 C 668.327 -2.42035 -2.49071 0
M  V30 7314 C 667.281 -3.5713 -2.35886 0
M  V30 7315 C 666.607 -3.82478 -3.7365 0
M  V30 7316 C 667.907 -4.89236 -1.8288 0
M  V30 7317 H 669.601 -2.8897 -0.783359 0
M  V30 7318 H 667.147 -1.39021 -0.375376 0
M  V30 7319 H 669.1 -2.72462 -3.21469 0
M  V30 7320 H 667.824 -1.52573 -2.88771 0
M  V30 7321 H 666.483 -3.26895 -1.65938 0
M  V30 7322 H 666.131 -2.9024 -4.10816 0
M  V30 7323 H 665.831 -4.59944 -3.65685 0
M  V30 7324 H 667.355 -4.15347 -4.47571 0
M  V30 7325 H 668.769 -5.18272 -2.45085 0
M  V30 7326 H 667.166 -5.70624 -1.85763 0
M  V30 7327 H 668.236 -4.78494 -0.785571 0
M  V30 7328 N 669.579 0.400081 -1.52437 0
M  V30 7329 C 670.826 1.14619 -1.6694 0
M  V30 7330 C 671.154 1.90262 -0.403797 0
M  V30 7331 O 670.409 1.85835 0.61351 0
M  V30 7332 C 670.708 2.15914 -2.84808 0
M  V30 7333 C 670.374 1.57011 -4.2268 0
M  V30 7334 C 669.036 1.40672 -4.60179 0
M  V30 7335 C 671.388 1.14081 -5.08562 0
M  V30 7336 C 668.716 0.799335 -5.81229 0
M  V30 7337 C 671.068 0.547573 -6.30226 0
M  V30 7338 C 669.732 0.371389 -6.66466 0
M  V30 7339 H 669.002 0.419419 -0.610875 0
M  V30 7340 H 671.649 0.432227 -1.86558 0
M  V30 7341 H 669.954 2.93488 -2.59561 0
M  V30 7342 H 671.651 2.73533 -2.93225 0
M  V30 7343 H 668.241 1.70713 -3.93135 0
M  V30 7344 H 672.425 1.2551 -4.80168 0
M  V30 7345 H 667.681 0.65093 -6.07925 0
M  V30 7346 H 671.855 0.206575 -6.96094 0
M  V30 7347 H 669.482 -0.10135 -7.60132 0
M  V30 7348 N 671.057 1.43213 0.657864 0
M  V30 7349 C 672.005 1.48271 1.79216 0
M  V30 7350 C 672.999 0.35675 1.65601 0
M  V30 7351 O 674.205 0.530535 1.72004 0
M  V30 7352 H 670.58 0.464729 0.591211 0
M  V30 7353 H 672.551 2.43792 1.7207 0
M  V30 7354 C 671.3 1.41837 3.17455 0
M  V30 7355 H 670.623 2.27781 3.28567 0
M  V30 7356 H 672.063 1.49438 3.96793 0
M  V30 7357 C 670.522 0.135347 3.36628 0
M  V30 7358 O 671.052 -0.805199 3.93547 0
M  V30 7359 N 669.258 0.0470316 2.90562 0
M  V30 7360 H 668.805 0.813221 2.44427 0
M  V30 7361 H 668.763 -0.810737 3.03767 0
M  V30 7362 N 672.536 -0.895792 1.29666 0
M  V30 7363 C 673.466 -2.01673 1.17688 0
M  V30 7364 C 674.447 -1.69955 0.0701317 0
M  V30 7365 O 675.632 -1.9258 0.250289 0
M  V30 7366 C 672.762 -3.36568 0.856681 0
M  V30 7367 C 671.716 -3.82509 1.92017 0
M  V30 7368 C 671.042 -5.14574 1.4532 0
M  V30 7369 C 672.342 -4.02409 3.32963 0
M  V30 7370 H 674.036 -2.11953 2.11463 0
M  V30 7371 H 671.582 -1.01839 1.01807 0
M  V30 7372 H 673.535 -4.14498 0.759577 0
M  V30 7373 H 672.259 -3.26391 -0.116763 0
M  V30 7374 H 670.918 -3.068 2.00673 0
M  V30 7375 H 670.566 -5.00815 0.468325 0
M  V30 7376 H 670.266 -5.46283 2.16447 0
M  V30 7377 H 671.79 -5.9504 1.36968 0
M  V30 7378 H 673.204 -4.70808 3.27127 0
M  V30 7379 H 671.601 -4.45478 4.02082 0
M  V30 7380 H 672.671 -3.06616 3.75652 0
M  V30 7381 N 674.014 -1.12206 -1.10668 0
M  V30 7382 C 675.26 -0.877172 -1.82848 0
M  V30 7383 C 675.593 0.595571 -1.84842 0
M  V30 7384 O 674.868 1.44013 -1.30731 0
M  V30 7385 C 675.151 -1.44957 -3.29635 0
M  V30 7386 C 675.004 -2.99051 -3.35989 0
M  V30 7387 C 676.323 -1.10714 -4.25946 0
M  V30 7388 H 673.442 -0.320103 -0.663854 0
M  V30 7389 H 676.084 -1.38827 -1.2972 0
M  V30 7390 H 674.234 -1.01488 -3.7501 0
M  V30 7391 H 675.906 -3.51182 -2.99113 0
M  V30 7392 H 674.149 -3.34705 -2.75962 0
M  V30 7393 H 674.82 -3.34194 -4.39339 0
M  V30 7394 H 677.296 -1.48254 -3.88793 0
M  V30 7395 H 676.172 -1.5343 -5.2702 0
M  V30 7396 H 676.433 -0.019 -4.42096 0
M  V30 7397 N 675.492 1.28418 -0.913599 0
M  V30 7398 C 676.722 1.98817 -0.56172 0
M  V30 7399 C 677.13 1.68457 0.861321 0
M  V30 7400 O 676.473 0.933653 1.58204 0
M  V30 7401 C 676.535 3.52801 -0.690785 0
M  V30 7402 C 676.199 4.0675 -2.08334 0
M  V30 7403 C 677.196 4.20597 -3.05604 0
M  V30 7404 C 674.881 4.41445 -2.39648 0
M  V30 7405 C 676.875 4.68392 -4.32305 0
M  V30 7406 C 674.562 4.88934 -3.66588 0
M  V30 7407 C 675.56 5.02364 -4.6273 0
M  V30 7408 O 675.248 5.48817 -5.87414 0
M  V30 7409 H 674.98 0.641608 -0.212874 0
M  V30 7410 H 677.534 1.64584 -1.22887 0
M  V30 7411 H 675.764 3.86686 0.0334336 0
M  V30 7412 H 677.453 4.04422 -0.346031 0
M  V30 7413 H 678.219 3.94067 -2.8273 0
M  V30 7414 H 674.098 4.30242 -1.65567 0
M  V30 7415 H 677.642 4.7879 -5.07352 0
M  V30 7416 H 673.539 5.14904 -3.89287 0
M  V30 7417 H 674.307 5.67103 -5.90201 0
M  V30 7418 N 676.97 0.677563 1.42291 0
M  V30 7419 C 678.216 0.209962 2.02313 0
M  V30 7420 C 678.571 -1.1714 1.52631 0
M  V30 7421 O 677.864 -1.7756 0.719938 0
M  V30 7422 C 678.058 0.187229 3.56909 0
M  V30 7423 C 677.887 1.56484 4.21595 0
M  V30 7424 C 676.657 2.16329 4.56651 0
M  V30 7425 C 678.855 2.50805 4.49 0
M  V30 7426 N 676.837 3.46842 5.06531 0
M  V30 7427 C 678.208 3.65976 5.00461 0
M  V30 7428 C 680.263 2.493 4.30992 0
M  V30 7429 C 678.966 4.79899 5.35807 0
M  V30 7430 C 680.992 3.62322 4.67415 0
M  V30 7431 C 680.354 4.76221 5.19031 0
M  V30 7432 H 676.453 0.121815 0.772454 0
M  V30 7433 H 679.037 0.891148 1.73109 0
M  V30 7434 H 677.208 -0.46338 3.85626 0
M  V30 7435 H 678.94 -0.293512 4.03634 0
M  V30 7436 H 675.695 1.6879 4.42501 0
M  V30 7437 H 676.119 4.13694 5.35898 0
M  V30 7438 H 680.761 1.62467 3.90339 0
M  V30 7439 H 678.479 5.67406 5.75392 0
M  V30 7440 H 682.065 3.62388 4.55155 0
M  V30 7441 H 680.945 5.62228 5.46689 0
M  V30 7442 N 678.448 -1.51871 0.421078 0
M  V30 7443 C 679.694 -2.02237 -0.151014 0
M  V30 7444 C 680.027 -1.30554 -1.43768 0
M  V30 7445 O 679.302 -0.41546 -1.90011 0
M  V30 7446 C 679.585 -3.5802 -0.386482 0
M  V30 7447 C 679.438 -4.40339 0.9177 0
M  V30 7448 C 680.757 -4.24444 -1.16342 0
M  V30 7449 H 677.876 -0.735062 -0.0534102 0
M  V30 7450 H 680.518 -1.81656 0.556888 0
M  V30 7451 H 678.668 -3.75688 -0.989494 0
M  V30 7452 H 680.34 -4.34357 1.55344 0
M  V30 7453 H 678.583 -4.06073 1.526 0
M  V30 7454 H 679.254 -5.47451 0.707187 0
M  V30 7455 H 681.73 -4.10948 -0.652788 0
M  V30 7456 H 680.606 -5.33358 -1.29693 0
M  V30 7457 H 680.867 -3.84204 -2.18724 0
M  V30 7458 N 679.926 -0.151884 -1.56866 0
M  V30 7459 C 681.174 0.497021 -1.95893 0
M  V30 7460 C 681.495 1.65078 -1.03799 0
M  V30 7461 O 680.765 1.95642 -0.10049 0
M  V30 7462 H 679.345 0.186603 -0.723318 0
M  V30 7463 H 682.007 -0.228525 -1.93556 0
M  V30 7464 H 681.103 0.869933 -2.99731 0
M  V30 7465 N 681.404 1.57128 0.121893 0
M  V30 7466 C 682.634 1.88609 0.843227 0
M  V30 7467 C 683.042 0.740917 1.74089 0
M  V30 7468 O 682.385 -0.297426 1.81276 0
M  V30 7469 C 682.447 3.15073 1.73117 0
M  V30 7470 C 682.111 4.45742 1.0081 0
M  V30 7471 C 683.108 5.18719 0.350255 0
M  V30 7472 C 680.793 4.92444 0.99014 0
M  V30 7473 C 682.787 6.36617 -0.315889 0
M  V30 7474 C 680.474 6.10261 0.320196 0
M  V30 7475 C 681.472 6.82194 -0.331666 0
M  V30 7476 O 681.16 7.97769 -0.990927 0
M  V30 7477 H 680.892 0.628919 0.247865 0
M  V30 7478 H 683.446 2.05096 0.111725 0
M  V30 7479 H 681.676 2.9466 2.50424 0
M  V30 7480 H 683.365 3.32597 2.32667 0
M  V30 7481 H 684.131 4.83693 0.35577 0
M  V30 7482 H 680.01 4.36361 1.48695 0
M  V30 7483 H 683.554 6.92701 -0.825272 0
M  V30 7484 H 679.451 6.44743 0.312433 0
M  V30 7485 H 680.219 8.13591 -0.895113 0
M  V30 7486 N 682.882 -0.391992 1.52647 0
M  V30 7487 C 683.812 -1.48517 1.8018 0
M  V30 7488 C 684.793 -1.57039 0.653667 0
M  V30 7489 O 685.978 -1.72036 0.900962 0
M  V30 7490 C 683.108 -2.86161 1.96797 0
M  V30 7491 C 682.062 -2.92481 3.12472 0
M  V30 7492 C 681.388 -4.32546 3.14338 0
M  V30 7493 C 682.688 -2.624 4.51601 0
M  V30 7494 H 684.382 -1.25726 2.71723 0
M  V30 7495 H 681.928 -0.603387 1.30749 0
M  V30 7496 H 683.881 -3.62639 2.14641 0
M  V30 7497 H 682.605 -3.10283 1.01941 0
M  V30 7498 H 681.264 -2.18451 2.94406 0
M  V30 7499 H 680.912 -4.53703 2.1717 0
M  V30 7500 H 680.612 -4.37695 3.92042 0
M  V30 7501 H 682.136 -5.10934 3.34333 0
M  V30 7502 H 683.55 -3.28596 4.69785 0
M  V30 7503 H 681.947 -2.78903 5.3135 0
M  V30 7504 H 683.017 -1.57754 4.58521 0
M  V30 7505 N 684.36 -1.4356 -0.65026 0
M  V30 7506 C 685.59 -1.48563 -1.4357 0
M  V30 7507 C 685.998 -0.103041 -1.88919 0
M  V30 7508 O 685.341 0.897602 -1.60277 0
M  V30 7509 C 685.403 -2.37181 -2.70158 0
M  V30 7510 C 685.067 -3.84673 -2.4673 0
M  V30 7511 C 686.064 -4.75704 -2.09765 0
M  V30 7512 C 683.749 -4.29189 -2.60963 0
M  V30 7513 C 685.743 -6.09249 -1.87334 0
M  V30 7514 C 683.43 -5.62787 -2.38147 0
M  V30 7515 C 684.428 -6.52634 -2.01389 0
M  V30 7516 O 684.116 -7.83761 -1.78813 0
M  V30 7517 H 683.848 -0.506743 -0.447423 0
M  V30 7518 H 686.402 -1.89001 -0.80423 0
M  V30 7519 H 684.632 -1.91636 -3.35876 0
M  V30 7520 H 686.321 -2.33354 -3.32116 0
M  V30 7521 H 687.087 -4.42589 -1.98343 0
M  V30 7522 H 682.966 -3.59529 -2.88548 0
M  V30 7523 H 686.51 -6.7934 -1.58567 0
M  V30 7524 H 682.407 -5.95469 -2.49173 0
M  V30 7525 H 683.175 -7.95368 -1.93214 0
M  V30 7526 N 685.838 0.888903 -1.30139 0
M  V30 7527 C 686.768 2.01046 -1.18755 0
M  V30 7528 C 687.749 1.69916 -0.0791438 0
M  V30 7529 O 688.934 1.92445 -0.260498 0
M  V30 7530 C 686.064 3.36109 -0.874518 0
M  V30 7531 C 685.018 3.81486 -1.94043 0
M  V30 7532 C 684.344 5.13796 -1.48047 0
M  V30 7533 C 685.644 4.00637 -3.35093 0
M  V30 7534 H 687.338 2.10828 -2.12584 0
M  V30 7535 H 684.884 1.01298 -1.02346 0
M  V30 7536 H 686.837 4.14089 -0.781548 0
M  V30 7537 H 685.561 3.26449 0.0994519 0
M  V30 7538 H 684.22 3.05731 -2.02297 0
M  V30 7539 H 683.868 5.0056 -0.494878 0
M  V30 7540 H 683.568 5.45127 -2.19341 0
M  V30 7541 H 685.092 5.94305 -1.40121 0
M  V30 7542 H 686.506 4.69067 -3.2962 0
M  V30 7543 H 684.903 4.43339 -4.04438 0
M  V30 7544 H 685.973 3.0462 -3.77273 0
M  V30 7545 O 687.355 1.24817 1.02483 0
M  V30 7546 H 688.046 1.02783 1.64181 0
M  V30 END ATOM
M  V30 BEGIN BOND
M  V30 END BOND
M  V30 END CTAB
M  END
$$$$
