drugbank_target|P34969 5-hydroxytryptamine receptor 7 (DB00246; DB00247; DB00248; DB00315; DB00321; DB00363; DB00408; DB00434; DB00458; DB00477; DB00502; DB00543; DB00589; DB00734; DB00751; DB00924; DB00934; DB00988; DB01200; DB01224; DB01238; DB01267; DB04946; DB04948; DB06148; DB06216; DB06288; DB08815; DB09068; DB09225; DB13988; DB14185)
 OpenBabel12092119363D

  0  0  0     0  0            999 V3000
M  V30 BEGIN CTAB
M  V30 COUNTS 7617 7713 0 0 0
M  V30 BEGIN ATOM
M  V30 1 H -0.908 1.98254 -0.117106 0
M  V30 2 N 0 1.576 0 0
M  V30 3 C 0.933 2.03868 1.02534 0
M  V30 4 C 1.911 0.928543 1.3348 0
M  V30 5 O 3.095 1.19667 1.45644 0
M  V30 6 C 0.222 2.43627 2.35294 0
M  V30 7 C -0.732 3.65373 2.2001 0
M  V30 8 S 0.101 5.13292 1.52614 0
M  V30 9 C 1.257 5.56322 2.86805 0
M  V30 10 H 1.49 2.90518 0.631377 0
M  V30 11 H -0.977 1.52953 0.210867 0
M  V30 12 H 0.981 2.67203 3.11629 0
M  V30 13 H -0.358 1.57376 2.7183 0
M  V30 14 H -1.165 3.90944 3.18086 0
M  V30 15 H -1.563 3.418 1.51819 0
M  V30 16 H 0.729 5.58782 3.83104 0
M  V30 17 H 1.672 6.56266 2.65933 0
M  V30 18 H 2.08 4.83886 2.90714 0
M  V30 19 N 1.4781 -0.272755 1.55222 0
M  V30 20 C 2.4111 -1.3627 1.83046 0
M  V30 21 C 3.3891 -1.47536 0.683521 0
M  V30 22 O 4.5731 -1.64157 0.926545 0
M  V30 23 C 1.7001 -2.73908 1.99229 0
M  V30 24 C 0.7461 -2.79925 3.21783 0
M  V30 25 S 1.5791 -2.39146 4.79134 0
M  V30 26 C 2.7351 -3.78758 4.9829 0
M  V30 27 H 2.9681 -1.12464 2.75207 0
M  V30 28 H 0.5011 -0.472398 1.46996 0
M  V30 29 H 2.4591 -3.53171 2.09238 0
M  V30 30 H 1.1201 -2.94965 1.07956 0
M  V30 31 H 0.3131 -3.80946 3.29994 0
M  V30 32 H -0.0849 -2.08683 3.10367 0
M  V30 33 H 2.2071 -4.7403 4.84047 0
M  V30 34 H 3.1501 -3.75499 6.00338 0
M  V30 35 H 3.5581 -3.70072 4.26271 0
M  V30 36 N 2.9562 -1.48159 -0.537278 0
M  V30 37 C 4.2332 -1.46291 -1.29839 0
M  V30 38 C 4.6132 -0.170613 -2.10409 0
M  V30 39 O 3.9612 0.847746 -2.12192 0
M  V30 40 C 4.1712 -2.72055 -2.18603 0
M  V30 41 C 5.5192 -3.20087 -2.7898 0
M  V30 42 O 6.5432 -2.72921 -2.28894 0
M  V30 43 O 5.4022 -4.02138 -3.70064 0
M  V30 44 H 2.4962 -0.583906 -0.585647 0
M  V30 45 H 5.0422 -1.60384 -0.554534 0
M  V30 46 H 3.8142 -3.57628 -1.58801 0
M  V30 47 H 3.4372 -2.60646 -3.00249 0
M  V30 48 N 4.4343 0.785586 -1.36625 0
M  V30 49 C 5.6803 1.54591 -1.31261 0
M  V30 50 C 6.0133 1.93906 0.106823 0
M  V30 51 O 5.2883 1.63007 1.06108 0
M  V30 52 C 5.5713 2.82038 -2.23889 0
M  V30 53 C 5.4243 2.49066 -3.74548 0
M  V30 54 C 6.7433 3.83887 -2.15217 0
M  V30 55 H 3.8623 0.560846 -0.478143 0
M  V30 56 H 6.5043 0.902278 -1.67209 0
M  V30 57 H 4.6543 3.36961 -1.93363 0
M  V30 58 H 6.3263 2.00164 -4.15611 0
M  V30 59 H 4.5693 1.81954 -3.93796 0
M  V30 60 H 5.2403 3.40109 -4.34776 0
M  V30 61 H 7.7163 3.38421 -2.42096 0
M  V30 62 H 6.5923 4.70806 -2.82193 0
M  V30 63 H 6.8533 4.27131 -1.14068 0
M  V30 64 N 5.9124 1.20967 1.01018 0
M  V30 65 C 6.8604 0.961223 2.1181 0
M  V30 66 C 7.8544 -0.0897034 1.69162 0
M  V30 67 O 9.0604 0.0612271 1.79896 0
M  V30 68 H 5.4354 0.29355 0.692338 0
M  V30 69 H 7.4064 1.90178 2.29946 0
M  V30 70 C 6.1554 0.536854 3.4353 0
M  V30 71 H 5.4784 1.33713 3.76777 0
M  V30 72 H 6.9184 0.402286 4.22087 0
M  V30 73 C 5.3774 -0.751574 3.2841 0
M  V30 74 O 5.9074 -1.80841 3.58691 0
M  V30 75 N 4.1134 -0.716079 2.81639 0
M  V30 76 H 3.6604 0.144236 2.57196 0
M  V30 77 H 3.6184 -1.57847 2.71904 0
M  V30 78 N 7.3905 -1.2043 1.01659 0
M  V30 79 C 8.6155 -1.94318 0.724942 0
M  V30 80 C 9.0405 -1.74266 -0.708034 0
M  V30 81 O 8.3985 -1.03694 -1.48719 0
M  V30 82 C 8.4465 -3.44486 1.06591 0
M  V30 83 O 7.5505 -4.12017 0.177599 0
M  V30 84 H 6.8915 -0.60708 0.26898 0
M  V30 85 H 9.4215 -1.52861 1.35995 0
M  V30 86 H 9.4315 -3.95106 1.01762 0
M  V30 87 H 8.1065 -3.58404 2.10997 0
M  V30 88 H 6.6835 -3.71821 0.283421 0
M  V30 89 N 8.8686 -0.792821 -1.36206 0
M  V30 90 C 10.0936 -0.377701 -2.03932 0
M  V30 91 C 10.5186 0.998947 -1.59382 0
M  V30 92 O 9.8766 1.64421 -0.763903 0
M  V30 93 C 9.9246 -0.453635 -3.57735 0
M  V30 94 O 9.0286 0.538151 -4.08874 0
M  V30 95 H 8.3696 -0.159855 -0.644471 0
M  V30 96 H 10.8996 -1.07488 -1.7409 0
M  V30 97 H 10.9096 -0.318464 -4.06755 0
M  V30 98 H 9.5846 -1.45784 -3.89512 0
M  V30 99 H 8.1616 0.364359 -3.71116 0
M  V30 100 N 10.3467 1.47872 -0.545128 0
M  V30 101 C 11.5947 2.02093 -0.016553 0
M  V30 102 C 11.9157 1.42305 1.3332 0
M  V30 103 O 11.1857 0.593853 1.86682 0
M  V30 104 H 9.7657 0.746993 -0.00313038 0
M  V30 105 H 12.4277 1.81414 -0.712397 0
M  V30 106 H 11.5237 3.11996 0.0805422 0
M  V30 107 N 11.8248 0.280983 1.55075 0
M  V30 108 C 13.2408 -0.0729964 1.59433 0
M  V30 109 C 13.4408 -1.5411 1.29817 0
M  V30 110 O 12.4968 -2.29086 1.06187 0
M  V30 111 C 13.8098 0.306921 2.9913 0
M  V30 112 C 15.3578 0.254023 3.11968 0
M  V30 113 C 15.8328 0.608467 4.5394 0
M  V30 114 N 17.3238 0.560241 4.59799 0
M  V30 115 C 18.0588 0.80722 5.6769 0
M  V30 116 N 17.5548 1.11912 6.83701 0
M  V30 117 N 19.3478 0.735623 5.57266 0
M  V30 118 H 11.4988 1.238 1.7259 0
M  V30 119 H 13.7618 0.500547 0.805082 0
M  V30 120 H 13.4678 1.32816 3.25657 0
M  V30 121 H 13.3418 -0.349363 3.75579 0
M  V30 122 H 15.7288 -0.75794 2.852 0
M  V30 123 H 15.8098 0.944649 2.37718 0
M  V30 124 H 15.4538 1.61814 4.81434 0
M  V30 125 H 15.3838 -0.104013 5.26497 0
M  V30 126 H 17.8748 0.329288 3.76463 0
M  V30 127 H 18.1878 1.29409 7.61888 0
M  V30 128 H 16.5328 1.15695 6.85303 0
M  V30 129 H 19.7238 0.491752 4.6551 0
M  V30 130 H 19.8968 0.931482 6.4127 0
M  V30 131 N 13.3029 -1.57598 0.00835791 0
M  V30 132 C 14.7139 -1.7892 -0.53333 0
M  V30 133 C 15.0649 -0.916609 -1.73473 0
M  V30 134 O 14.1899 -0.121336 -2.1606 0
M  V30 135 C 14.7849 -3.24488 -0.974313 0
M  V30 136 C 13.3439 -3.46878 -1.46125 0
M  V30 137 C 12.4909 -2.74157 -0.416302 0
M  V30 138 H 15.4419 -1.56958 0.234495 0
M  V30 139 H 15.4629 -3.3306 -1.83988 0
M  V30 140 H 14.9749 -3.87972 -0.099718 0
M  V30 141 H 13.0759 -2.8862 -2.35646 0
M  V30 142 H 13.1889 -4.55572 -1.48295 0
M  V30 143 H 11.5529 -2.39022 -0.87981 0
M  V30 144 H 12.3359 -3.40345 0.44947 0
M  V30 145 N 14.781 0.264519 -1.55364 0
M  V30 146 C 16.058 1.01677 -1.67096 0
M  V30 147 C 16.438 2.03996 -0.543015 0
M  V30 148 O 15.786 2.23907 0.45585 0
M  V30 149 C 15.996 1.66596 -3.0667 0
M  V30 150 C 17.344 2.17442 -3.64697 0
M  V30 151 O 18.368 1.76568 -3.09358 0
M  V30 152 O 17.227 2.92439 -4.61673 0
M  V30 153 H 14.321 0.472161 -0.678965 0
M  V30 154 H 16.867 0.259703 -1.67701 0
M  V30 155 H 15.639 0.924962 -3.80211 0
M  V30 156 H 15.262 2.48968 -3.10001 0
M  V30 157 N 16.2591 1.48442 0.529413 0
M  V30 158 C 17.1891 1.65902 1.64313 0
M  V30 159 C 18.1701 0.507897 1.6234 0
M  V30 160 O 19.3551 0.740503 1.79528 0
M  V30 161 C 16.4851 1.69911 3.02898 0
M  V30 162 C 15.4391 2.8453 3.19729 0
M  V30 163 C 14.7651 2.73629 4.59381 0
M  V30 164 C 16.0651 4.25821 3.02447 0
M  V30 165 H 17.7591 2.5914 1.49955 0
M  V30 166 H 15.3051 1.24709 0.719982 0
M  V30 167 H 17.2581 1.80715 3.80684 0
M  V30 168 H 15.9821 0.732524 3.18279 0
M  V30 169 H 14.6411 2.73283 2.44361 0
M  V30 170 H 14.2891 1.74938 4.71599 0
M  V30 171 H 13.9891 3.50541 4.71588 0
M  V30 172 H 15.5131 2.86401 5.39265 0
M  V30 173 H 16.9271 4.37898 3.70024 0
M  V30 174 H 15.3241 5.03735 3.26146 0
M  V30 175 H 16.3941 4.42244 1.98867 0
M  V30 176 N 17.7372 -0.778329 1.37039 0
M  V30 177 C 18.9672 -1.56507 1.34868 0
M  V30 178 C 19.3752 -1.89072 -0.0694802 0
M  V30 179 O 18.7182 -1.51434 -1.03987 0
M  V30 180 C 18.7802 -2.90641 2.11585 0
M  V30 181 C 18.4442 -2.80746 3.60598 0
M  V30 182 C 19.4412 -2.52226 4.54618 0
M  V30 183 C 17.1262 -2.98974 4.03633 0
M  V30 184 C 19.1202 -2.42054 5.89651 0
M  V30 185 C 16.8072 -2.88423 5.38754 0
M  V30 186 C 17.8052 -2.60002 6.31576 0
M  V30 187 O 17.4932 -2.49465 7.64214 0
M  V30 188 H 17.2252 -0.491723 0.463879 0
M  V30 189 H 19.7792 -0.973053 1.80889 0
M  V30 190 H 18.0092 -3.51936 1.60243 0
M  V30 191 H 19.6982 -3.51992 2.0213 0
M  V30 192 H 20.4642 -2.37835 4.22681 0
M  V30 193 H 16.3432 -3.20099 3.31749 0
M  V30 194 H 19.8872 -2.19791 6.62071 0
M  V30 195 H 15.7842 -3.0238 5.70295 0
M  V30 196 H 16.5522 -2.64864 7.74461 0
M  V30 197 N 19.2153 -1.21501 -1.00376 0
M  V30 198 C 20.4633 -1.03095 -1.73827 0
M  V30 199 C 20.7843 0.436341 -1.90055 0
M  V30 200 O 20.0543 1.31466 -1.45236 0
M  V30 201 H 18.6343 -0.378487 -0.644016 0
M  V30 202 H 21.2963 -1.52831 -1.20949 0
M  V30 203 H 20.3923 -1.49991 -2.73695 0
M  V30 204 N 20.6934 1.19889 -1.02296 0
M  V30 205 C 21.6434 2.20777 -0.56934 0
M  V30 206 C 22.6274 1.56379 0.378741 0
M  V30 207 O 23.8194 1.75859 0.200673 0
M  V30 208 C 20.9484 3.43196 0.0845077 0
M  V30 209 C 20.0344 4.14749 -0.88566 0
M  V30 210 N 20.4254 4.62584 -2.04573 0
M  V30 211 C 18.7234 4.40347 -0.707835 0
M  V30 212 C 19.4244 5.17466 -2.65714 0
M  V30 213 N 18.4004 5.0791 -1.93723 0
M  V30 214 H 22.2024 2.55434 -1.45365 0
M  V30 215 H 19.7164 1.35897 -0.88915 0
M  V30 216 H 21.7134 4.14707 0.427067 0
M  V30 217 H 20.3734 3.10042 0.964574 0
M  V30 218 H 21.3844 4.57597 -2.4254 0
M  V30 219 H 18.0614 4.17317 0.12364 0
M  V30 220 H 19.4514 5.64808 -3.63925 0
M  V30 221 N 22.1715 0.800033 1.35784 0
M  V30 222 C 23.1015 0.220184 2.3246 0
M  V30 223 C 24.0825 -0.65073 1.57161 0
M  V30 224 O 25.2675 -0.582359 1.85263 0
M  V30 225 C 22.3975 -0.637353 3.41402 0
M  V30 226 C 21.3515 0.134531 4.27789 0
M  V30 227 C 20.6775 -0.844285 5.27992 0
M  V30 228 C 21.9775 1.32979 5.05088 0
M  V30 229 H 23.6715 1.02787 2.81203 0
M  V30 230 H 21.2175 0.495717 1.35199 0
M  V30 231 H 23.1705 -1.05302 4.08031 0
M  V30 232 H 21.8945 -1.47785 2.91251 0
M  V30 233 H 20.5535 0.531296 3.6273 0
M  V30 234 H 20.2015 -1.68011 4.74111 0
M  V30 235 H 19.9015 -0.332184 5.8666 0
M  V30 236 H 21.4255 -1.2583 5.97494 0
M  V30 237 H 22.8395 0.98934 5.64699 0
M  V30 238 H 21.2365 1.77593 5.7322 0
M  V30 239 H 22.3065 2.11978 4.36111 0
M  V30 240 N 23.6496 -1.47581 0.552962 0
M  V30 241 C 25.0656 -1.5818 0.212424 0
M  V30 242 C 25.2656 -1.55213 -1.28496 0
M  V30 243 O 24.3216 -1.45329 -2.06484 0
M  V30 244 C 25.6346 -2.88865 0.835318 0
M  V30 245 C 27.1826 -3.0244 0.806156 0
M  V30 246 C 27.6576 -4.35819 1.40804 0
M  V30 247 N 29.1486 -4.42444 1.37103 0
M  V30 248 C 29.8836 -5.44202 1.80641 0
M  V30 249 N 29.3796 -6.52795 2.32015 0
M  V30 250 N 31.1726 -5.35222 1.71738 0
M  V30 251 H 23.3236 -1.47753 1.52587 0
M  V30 252 H 25.5866 -0.702941 0.636064 0
M  V30 253 H 25.2926 -2.9676 1.88749 0
M  V30 254 H 25.1666 -3.7579 0.325848 0
M  V30 255 H 27.5536 -2.94144 -0.237317 0
M  V30 256 H 27.6346 -2.17068 1.35334 0
M  V30 257 H 27.2786 -4.44871 2.45056 0
M  V30 258 H 27.2086 -5.19916 0.836338 0
M  V30 259 H 29.6996 -3.6456 0.995202 0
M  V30 260 H 30.0126 -7.26609 2.63171 0
M  V30 261 H 28.3576 -6.53696 2.36023 0
M  V30 262 H 31.5486 -4.49284 1.31382 0
M  V30 263 H 31.7216 -6.14389 2.05987 0
M  V30 264 N 25.1277 -0.289203 -1.54924 0
M  V30 265 C 26.3527 0.329299 -2.04769 0
M  V30 266 C 26.7777 1.4763 -1.16564 0
M  V30 267 O 26.1357 1.80527 -0.167186 0
M  V30 268 C 26.1837 0.774438 -3.52186 0
M  V30 269 O 25.2877 1.88038 -3.67036 0
M  V30 270 H 24.6287 0.0659259 -0.660719 0
M  V30 271 H 27.1587 -0.42761 -2.00082 0
M  V30 272 H 27.1687 1.06642 -3.93816 0
M  V30 273 H 25.8437 -0.0646707 -4.1585 0
M  V30 274 H 24.4207 1.58985 -3.3731 0
M  V30 275 N 26.6058 1.57591 -0.0167156 0
M  V30 276 C 27.8528 1.91283 0.664597 0
M  V30 277 C 28.1808 0.891949 1.72842 0
M  V30 278 O 27.4358 -0.100931 1.9544 0
M  V30 279 C 27.7348 3.3172 1.33029 0
M  V30 280 C 27.4008 4.4914 0.398047 0
M  V30 281 C 26.0628 4.80992 0.141421 0
M  V30 282 C 28.4148 5.20634 -0.242825 0
M  V30 283 C 25.7428 5.81703 -0.764092 0
M  V30 284 C 28.0948 6.22311 -1.13632 0
M  V30 285 C 26.7588 6.52611 -1.40196 0
M  V30 286 H 26.0288 0.699956 0.243193 0
M  V30 287 H 28.6758 1.9135 -0.0758267 0
M  V30 288 H 26.9808 3.27856 2.14517 0
M  V30 289 H 28.6778 3.55055 1.86379 0
M  V30 290 H 25.2678 4.24262 0.608238 0
M  V30 291 H 29.4518 4.96267 -0.0576019 0
M  V30 292 H 24.7078 6.03532 -0.977732 0
M  V30 293 H 28.8818 6.76834 -1.63917 0
M  V30 294 H 26.5088 7.30467 -2.10529 0
M  V30 295 N 28.0839 -0.256276 1.55502 0
M  V30 296 C 29.0139 -1.32102 1.92539 0
M  V30 297 C 29.9949 -1.50684 0.789194 0
M  V30 298 O 31.1799 -1.63449 1.04872 0
M  V30 299 C 28.3099 -2.67752 2.21192 0
M  V30 300 C 27.2639 -2.63878 3.36975 0
M  V30 301 C 26.5899 -4.03236 3.51147 0
M  V30 302 C 27.8899 -2.21682 4.72921 0
M  V30 303 H 29.5839 -1.01351 2.81724 0
M  V30 304 H 27.1299 -0.486105 1.35547 0
M  V30 305 H 29.0829 -3.42365 2.45691 0
M  V30 306 H 27.8069 -3.0012 1.28824 0
M  V30 307 H 26.4659 -1.91722 3.12471 0
M  V30 308 H 26.1139 -4.32854 2.56216 0
M  V30 309 H 25.8139 -4.01535 4.29003 0
M  V30 310 H 27.3379 -4.79563 3.77957 0
M  V30 311 H 28.7519 -2.86023 4.96854 0
M  V30 312 H 27.1489 -2.3111 5.53812 0
M  V30 313 H 28.2189 -1.16833 4.70615 0
M  V30 314 N 29.562 -1.4872 -0.521534 0
M  V30 315 C 30.492 -1.66771 -1.63431 0
M  V30 316 C 31.473 -0.516499 -1.62069 0
M  V30 317 O 32.658 -0.750013 -1.79132 0
M  V30 318 C 29.788 -1.71515 -3.01993 0
M  V30 319 C 28.742 -2.86222 -3.18216 0
M  V30 320 C 28.068 -2.76061 -4.57924 0
M  V30 321 C 29.368 -4.27419 -3.00184 0
M  V30 322 H 31.062 -2.59932 -1.48579 0
M  V30 323 H 28.608 -1.25089 -0.713358 0
M  V30 324 H 30.561 -1.82731 -3.7972 0
M  V30 325 H 29.285 -0.749393 -3.17886 0
M  V30 326 H 27.944 -2.74575 -2.42908 0
M  V30 327 H 27.592 -1.77437 -4.70665 0
M  V30 328 H 27.292 -3.53037 -4.69722 0
M  V30 329 H 28.816 -2.89256 -5.37739 0
M  V30 330 H 30.23 -4.39855 -3.67697 0
M  V30 331 H 28.627 -5.05458 -3.2347 0
M  V30 332 H 29.697 -4.43293 -1.96518 0
M  V30 333 N 31.0401 0.771051 -1.3745 0
M  V30 334 C 32.4511 1.34737 -1.29239 0
M  V30 335 C 32.8021 1.96109 0.0596908 0
M  V30 336 O 31.9271 1.93865 0.961534 0
M  V30 337 C 32.5221 2.44973 -2.34037 0
M  V30 338 C 31.0811 2.98372 -2.29458 0
M  V30 339 C 30.2281 1.71595 -2.17831 0
M  V30 340 H 33.1791 0.571256 -1.48062 0
M  V30 341 H 33.2001 3.24471 -1.98744 0
M  V30 342 H 32.7121 2.00276 -3.32432 0
M  V30 343 H 30.8131 3.47443 -1.34589 0
M  V30 344 H 30.9261 3.53939 -3.229 0
M  V30 345 H 29.2901 1.94547 -1.64388 0
M  V30 346 H 30.0731 1.29001 -3.18141 0
M  V30 347 N 32.5182 1.22032 0.997298 0
M  V30 348 C 33.4282 1.00271 2.12092 0
M  V30 349 C 34.4442 -0.047621 1.73935 0
M  V30 350 O 35.6202 0.144136 2.00884 0
M  V30 351 C 32.6852 0.578449 3.4184 0
M  V30 352 C 31.7462 1.70189 3.94125 0
M  V30 353 C 30.9792 1.29778 5.17681 0
M  V30 354 O 31.2022 0.174676 5.70132 0
M  V30 355 O 30.1362 2.11261 5.63607 0
M  V30 356 H 33.9622 1.94398 2.3333 0
M  V30 357 H 31.5472 1.00587 1.10465 0
M  V30 358 H 33.4292 0.351998 4.19927 0
M  V30 359 H 32.1042 -0.334019 3.21972 0
M  V30 360 H 31.0112 1.98282 3.1723 0
M  V30 361 H 32.3442 2.59206 4.18417 0
M  V30 362 N 33.9963 -1.19345 1.0293 0
M  V30 363 C 35.2423 -1.89318 0.727083 0
M  V30 364 C 35.5753 -1.79446 -0.742483 0
M  V30 365 O 34.8503 -1.1871 -1.54072 0
M  V30 366 C 35.1333 -3.40238 1.17942 0
M  V30 367 C 34.9863 -3.58979 2.71024 0
M  V30 368 C 36.3053 -4.33479 0.760548 0
M  V30 369 H 33.4243 -0.687475 0.265606 0
M  V30 370 H 36.0663 -1.40477 1.2793 0
M  V30 371 H 34.2163 -3.81964 0.709608 0
M  V30 372 H 35.8883 -3.26421 3.25955 0
M  V30 373 H 34.1313 -3.02018 3.11396 0
M  V30 374 H 34.8023 -4.64823 2.9773 0
M  V30 375 H 37.2783 -3.99469 1.16464 0
M  V30 376 H 36.1543 -5.37664 1.10493 0
M  V30 377 H 36.4153 -4.40813 -0.337063 0
M  V30 378 N 35.4744 -0.807222 -1.35358 0
M  V30 379 C 36.7224 -0.387122 -1.98358 0
M  V30 380 C 37.0434 1.04942 -1.64354 0
M  V30 381 O 36.3134 1.72615 -0.926339 0
M  V30 382 H 34.8934 -0.140154 -0.733734 0
M  V30 383 H 37.5554 -1.0332 -1.6526 0
M  V30 384 H 36.6514 -0.493352 -3.08176 0
M  V30 385 N 36.9525 1.47285 -0.560781 0
M  V30 386 C 38.3685 1.58065 -0.22081 0
M  V30 387 C 38.5685 1.55892 1.27671 0
M  V30 388 O 37.6245 1.46422 2.0571 0
M  V30 389 C 38.9375 2.88418 -0.850625 0
M  V30 390 C 40.4855 3.02009 -0.822184 0
M  V30 391 C 40.9605 4.35066 -1.43113 0
M  V30 392 N 42.4515 4.41711 -1.39448 0
M  V30 393 C 43.1865 5.43237 -1.83525 0
M  V30 394 N 42.6825 6.51555 -2.35474 0
M  V30 395 N 44.4755 5.34304 -1.74574 0
M  V30 396 H 36.6265 1.46941 -1.53369 0
M  V30 397 H 38.8895 0.699558 -0.639783 0
M  V30 398 H 38.5955 2.95755 -1.9032 0
M  V30 399 H 38.4695 3.75612 -0.345773 0
M  V30 400 H 40.8565 2.94266 0.221714 0
M  V30 401 H 40.9375 2.16347 -1.36483 0
M  V30 402 H 40.5815 4.43565 -2.47412 0
M  V30 403 H 40.5115 5.19465 -0.863899 0
M  V30 404 H 43.0025 3.64027 -1.01452 0
M  V30 405 H 43.3155 7.25203 -2.67021 0
M  V30 406 H 41.6605 6.52435 -2.39487 0
M  V30 407 H 44.8515 4.48581 -1.33763 0
M  V30 408 H 45.0245 6.13288 -2.09242 0
M  V30 409 N 38.4306 0.297415 1.54768 0
M  V30 410 C 39.6786 -0.312295 1.99673 0
M  V30 411 C 39.9996 -1.54686 1.18732 0
M  V30 412 O 39.2696 -1.93854 0.282382 0
M  V30 413 H 37.8496 -0.118381 0.73756 0
M  V30 414 H 40.5116 0.407915 1.90583 0
M  V30 415 H 39.6076 -0.586813 3.06534 0
M  V30 416 N 39.9087 -1.5758 0.0250728 0
M  V30 417 C 40.8387 -2.13007 -0.956575 0
M  V30 418 C 41.8197 -1.0452 -1.342 0
M  V30 419 O 43.0047 -1.32332 -1.42133 0
M  V30 420 C 40.1347 -2.65386 -2.24026 0
M  V30 421 C 39.0887 -3.78623 -1.99571 0
M  V30 422 C 38.4147 -4.17414 -3.3417 0
M  V30 423 C 39.7147 -5.04867 -1.33814 0
M  V30 424 H 41.4087 -2.9528 -0.494991 0
M  V30 425 H 38.9547 -1.42042 -0.236651 0
M  V30 426 H 40.9077 -3.02794 -2.93076 0
M  V30 427 H 39.6317 -1.80268 -2.72343 0
M  V30 428 H 38.2907 -3.41646 -1.32941 0
M  V30 429 H 37.9387 -3.29284 -3.80238 0
M  V30 430 H 37.6387 -4.93719 -3.18615 0
M  V30 431 H 39.1627 -4.57402 -4.04495 0
M  V30 432 H 40.5767 -5.39888 -1.92857 0
M  V30 433 H 38.9737 -5.86144 -1.28669 0
M  V30 434 H 40.0437 -4.83904 -0.310561 0
M  V30 435 N 41.3868 0.248026 -1.55636 0
M  V30 436 C 42.7978 0.817177 -1.67866 0
M  V30 437 C 43.1488 1.86069 -0.622322 0
M  V30 438 O 42.2738 2.15157 0.231618 0
M  V30 439 C 42.8688 1.489 -3.04326 0
M  V30 440 C 41.4278 2.00587 -3.185 0
M  V30 441 C 40.5748 0.856573 -2.63739 0
M  V30 442 H 43.5258 0.0238579 -1.58682 0
M  V30 443 H 43.5468 2.35698 -2.98708 0
M  V30 444 H 43.0588 0.729279 -3.81186 0
M  V30 445 H 41.1598 2.79443 -2.4646 0
M  V30 446 H 41.2728 2.20402 -4.25393 0
M  V30 447 H 39.6368 1.25678 -2.21534 0
M  V30 448 H 40.4198 0.109953 -3.43124 0
M  V30 449 N 42.8649 1.48995 0.513639 0
M  V30 450 C 44.1419 1.48338 1.27495 0
M  V30 451 C 44.5219 0.204065 2.10111 0
M  V30 452 O 43.8699 -0.813881 2.13514 0
M  V30 453 C 44.0799 2.75498 2.14247 0
M  V30 454 C 45.4279 3.24484 2.73852 0
M  V30 455 O 46.4519 2.76528 2.24523 0
M  V30 456 O 45.3109 4.07974 3.6362 0
M  V30 457 H 42.4049 0.593149 0.576284 0
M  V30 458 H 44.9509 1.61246 0.528948 0
M  V30 459 H 43.7229 3.60109 1.53092 0
M  V30 460 H 43.3459 2.6539 2.96064 0
M  V30 461 N 44.343 -0.763751 1.37857 0
M  V30 462 C 45.273 -1.89103 1.36975 0
M  V30 463 C 46.254 -1.68439 0.237152 0
M  V30 464 O 47.439 -1.8918 0.438713 0
M  V30 465 C 44.569 -3.26496 1.18395 0
M  V30 466 C 43.523 -3.61741 2.28751 0
M  V30 467 C 42.849 -4.97762 1.95286 0
M  V30 468 C 44.149 -3.67665 3.70972 0
M  V30 469 H 45.843 -1.90099 2.31307 0
M  V30 470 H 43.389 -0.91319 1.11341 0
M  V30 471 H 45.342 -4.05003 1.16406 0
M  V30 472 H 44.066 -3.25955 0.205215 0
M  V30 473 H 42.725 -2.85547 2.29909 0
M  V30 474 H 42.373 -4.93769 0.959221 0
M  V30 475 H 42.073 -5.22313 2.69189 0
M  V30 476 H 43.597 -5.7866 1.94898 0
M  V30 477 H 45.011 -4.36307 3.719 0
M  V30 478 H 43.408 -4.03718 4.43995 0
M  V30 479 H 44.478 -2.68134 4.0402 0
M  V30 480 N 45.8211 -1.22559 -0.990812 0
M  V30 481 C 47.0461 -1.07862 -1.77145 0
M  V30 482 C 47.4711 0.366447 -1.84496 0
M  V30 483 O 46.8291 1.26478 -1.29896 0
M  V30 484 C 46.8771 -1.69686 -3.18181 0
M  V30 485 O 45.9811 -0.951946 -4.01263 0
M  V30 486 H 45.3221 -0.378712 -0.545411 0
M  V30 487 H 47.8521 -1.62399 -1.2445 0
M  V30 488 H 47.8621 -1.74496 -3.68802 0
M  V30 489 H 46.5371 -2.74841 -3.12146 0
M  V30 490 H 45.1141 -0.980011 -3.59792 0
M  V30 491 N 47.2992 1.18797 -1.03562 0
M  V30 492 C 48.7102 1.70322 -0.764676 0
M  V30 493 C 49.0612 1.82708 0.714996 0
M  V30 494 O 48.1862 1.50299 1.55689 0
M  V30 495 C 48.7812 3.09356 -1.38145 0
M  V30 496 C 47.3402 3.58114 -1.15895 0
M  V30 497 C 46.4872 2.34798 -1.4753 0
M  V30 498 H 49.4382 1.03543 -1.20268 0
M  V30 499 H 49.4592 3.72378 -0.781977 0
M  V30 500 H 48.9712 3.00309 -2.45837 0
M  V30 501 H 47.0722 3.72464 -0.100544 0
M  V30 502 H 47.1852 4.4184 -1.8524 0
M  V30 503 H 45.5492 2.38464 -0.894829 0
M  V30 504 H 46.3322 2.28375 -2.56319 0
M  V30 505 N 48.7773 0.814389 1.34928 0
M  V30 506 C 50.0543 0.321363 1.92942 0
M  V30 507 C 50.4343 -1.19014 1.74353 0
M  V30 508 O 49.7823 -1.99328 1.11716 0
M  V30 509 C 49.9923 0.741323 3.41036 0
M  V30 510 C 51.3403 0.735266 4.18185 0
M  V30 511 O 52.3643 0.68336 3.49584 0
M  V30 512 O 51.2233 0.800703 5.40602 0
M  V30 513 H 48.3173 0.0858893 0.822528 0
M  V30 514 H 50.8633 0.898609 1.43955 0
M  V30 515 H 49.6353 1.78276 3.4833 0
M  V30 516 H 49.2583 0.139307 3.97356 0
M  V30 517 N 50.2554 -1.46986 0.568584 0
M  V30 518 C 51.5034 -2.02041 0.0487022 0
M  V30 519 C 51.8244 -1.44408 -1.31039 0
M  V30 520 O 51.0944 -0.623477 -1.85714 0
M  V30 521 H 49.6744 -0.746849 0.015014 0
M  V30 522 H 52.3364 -1.80257 0.741168 0
M  V30 523 H 51.4324 -3.12085 -0.0308961 0
M  V30 524 N 51.7335 -0.305618 -1.54608 0
M  V30 525 C 52.9815 0.301701 -1.99835 0
M  V30 526 C 53.3025 1.54054 -1.19551 0
M  V30 527 O 52.5725 1.93702 -0.292658 0
M  V30 528 H 51.1525 0.114468 -0.738178 0
M  V30 529 H 53.8145 -0.418016 -1.90364 0
M  V30 530 H 52.9105 0.570548 -3.06841 0
M  V30 531 N 53.2116 1.57565 -0.0334293 0
M  V30 532 C 54.1746 2.09393 0.932048 0
M  V30 533 C 55.1746 1.00986 1.25134 0
M  V30 534 O 56.3646 1.27129 1.19096 0
M  V30 535 C 53.4966 2.56338 2.2473 0
M  V30 536 H 54.6896 2.95984 0.483085 0
M  V30 537 H 52.2426 1.54819 0.21468 0
M  V30 538 H 52.9776 1.7309 2.74245 0
M  V30 539 H 52.7626 3.35542 2.02865 0
M  V30 540 H 54.2526 2.96646 2.93923 0
M  V30 541 N 54.6897 -0.239769 1.55765 0
M  V30 542 C 55.9667 -0.990056 1.68693 0
M  V30 543 C 56.3467 -2.03107 0.5754 0
M  V30 544 O 55.6947 -2.24604 -0.42017 0
M  V30 545 C 55.9047 -1.61696 3.09282 0
M  V30 546 C 57.2527 -2.11613 3.6811 0
M  V30 547 O 58.2767 -1.71624 3.12127 0
M  V30 548 O 57.1357 -2.85057 4.66267 0
M  V30 549 H 54.2297 -0.461299 0.686391 0
M  V30 550 H 56.7757 -0.232991 1.68093 0
M  V30 551 H 55.5477 -0.864357 3.81634 0
M  V30 552 H 55.1707 -2.44005 3.13923 0
M  V30 553 N 56.1678 -1.49265 -0.50573 0
M  V30 554 C 57.5788 -1.51769 -1.08734 0
M  V30 555 C 57.9298 -0.301192 -1.93874 0
M  V30 556 O 57.0548 0.589456 -2.08217 0
M  V30 557 C 57.6498 -2.75017 -1.97867 0
M  V30 558 C 56.2088 -2.80314 -2.51199 0
M  V30 559 C 55.3558 -2.4562 -1.28709 0
M  V30 560 H 58.3068 -1.56031 -0.289855 0
M  V30 561 H 58.3278 -2.5491 -2.82491 0
M  V30 562 H 57.8398 -3.63539 -1.35873 0
M  V30 563 H 55.9408 -1.96061 -3.16845 0
M  V30 564 H 56.0538 -3.82366 -2.88675 0
M  V30 565 H 54.4178 -1.97297 -1.61078 0
M  V30 566 H 55.2008 -3.36411 -0.6843 0
M  V30 567 N 57.6459 0.756429 -1.3826 0
M  V30 568 C 58.8919 1.51772 -1.34511 0
M  V30 569 C 59.2249 1.94089 0.0656691 0
M  V30 570 O 58.4999 1.65221 1.02626 0
M  V30 571 C 58.7829 2.77226 -2.29821 0
M  V30 572 C 58.6359 2.41065 -3.79747 0
M  V30 573 C 59.9549 3.79236 -2.23312 0
M  V30 574 H 57.0739 0.550578 -0.489931 0
M  V30 575 H 59.7159 0.866607 -1.69086 0
M  V30 576 H 57.8659 3.32784 -2.00467 0
M  V30 577 H 59.5379 1.91303 -4.19763 0
M  V30 578 H 57.7809 1.7356 -3.97567 0
M  V30 579 H 58.4519 3.3081 -4.41892 0
M  V30 580 H 60.9279 3.3321 -2.49219 0
M  V30 581 H 59.8039 4.64714 -2.92116 0
M  V30 582 H 60.0649 4.24615 -1.23102 0
M  V30 583 N 59.124 1.23083 0.984299 0
M  V30 584 C 60.087 1.00979 2.05757 0
M  V30 585 C 61.087 -0.0269573 1.60777 0
M  V30 586 O 62.277 0.212403 1.729 0
M  V30 587 C 59.409 0.527072 3.36801 0
M  V30 588 H 60.602 1.9622 2.26799 0
M  V30 589 H 58.155 1.05072 1.15714 0
M  V30 590 H 58.89 -0.429294 3.21446 0
M  V30 591 H 58.675 1.27515 3.70786 0
M  V30 592 H 60.165 0.392942 4.15747 0
M  V30 593 N 60.6021 -1.18246 1.0419 0
M  V30 594 C 61.8501 -1.87886 0.744543 0
M  V30 595 C 62.1711 -1.8082 -0.730006 0
M  V30 596 O 61.4411 -1.22736 -1.52685 0
M  V30 597 H 60.0211 -0.695556 0.272417 0
M  V30 598 H 62.6831 -1.43494 1.31892 0
M  V30 599 H 61.7791 -2.9389 1.05049 0
M  V30 600 N 62.0802 -0.821533 -1.34494 0
M  V30 601 C 63.3052 -0.420873 -2.03085 0
M  V30 602 C 63.7302 0.964915 -1.61465 0
M  V30 603 O 63.0882 1.62763 -0.798607 0
M  V30 604 C 63.1362 -0.529414 -3.56693 0
M  V30 605 O 62.2402 0.451302 -4.09923 0
M  V30 606 H 61.5812 -0.173489 -0.640935 0
M  V30 607 H 64.1112 -1.11157 -1.71771 0
M  V30 608 H 64.1212 -0.404671 -4.05988 0
M  V30 609 H 62.7962 -1.54014 -3.86332 0
M  V30 610 H 61.3732 0.285558 -3.71805 0
M  V30 611 N 63.5583 1.46682 -0.576371 0
M  V30 612 C 64.8043 2.03287 -0.0679305 0
M  V30 613 C 65.1593 1.44063 1.27529 0
M  V30 614 O 64.4523 0.593973 1.82161 0
M  V30 615 C 64.6463 3.57345 0.062886 0
M  V30 616 C 64.4753 4.31509 -1.26611 0
M  V30 617 C 63.2453 4.70664 -1.83856 0
M  V30 618 C 65.4433 4.65444 -2.18783 0
M  V30 619 N 63.4253 5.29552 -3.10561 0
M  V30 620 C 64.7963 5.24835 -3.30072 0
M  V30 621 C 66.8513 4.47375 -2.18542 0
M  V30 622 C 65.5543 5.68063 -4.41244 0
M  V30 623 C 67.5803 4.91614 -3.28739 0
M  V30 624 C 66.9423 5.51071 -4.38748 0
M  V30 625 H 63.0413 0.779083 -0.0674836 0
M  V30 626 H 65.6253 1.78918 -0.767877 0
M  V30 627 H 63.7963 3.8144 0.731988 0
M  V30 628 H 65.5283 4.00592 0.575134 0
M  V30 629 H 62.2833 4.53224 -1.37424 0
M  V30 630 H 62.7073 5.63523 -3.75195 0
M  V30 631 H 67.3493 4.00747 -1.34765 0
M  V30 632 H 65.0673 6.13672 -5.25768 0
M  V30 633 H 68.6533 4.79389 -3.29662 0
M  V30 634 H 67.5333 5.84678 -5.22611 0
M  V30 635 N 65.0364 0.313813 1.54444 0
M  V30 636 C 65.9994 -0.54379 2.22656 0
M  V30 637 C 66.9994 -1.05124 1.21678 0
M  V30 638 O 68.1894 -0.945225 1.46325 0
M  V30 639 C 65.3214 -1.75427 2.92298 0
M  V30 640 H 66.5144 0.0523599 2.99854 0
M  V30 641 H 64.0674 0.0647834 1.56166 0
M  V30 642 H 64.8024 -2.38991 2.19211 0
M  V30 643 H 64.5874 -1.39791 3.66334 0
M  V30 644 H 66.0774 -2.36325 3.44297 0
M  V30 645 N 66.5145 -1.57545 0.0417849 0
M  V30 646 C 67.9255 -1.80011 -0.495259 0
M  V30 647 C 68.2765 -0.953199 -1.71489 0
M  V30 648 O 67.4015 -0.167138 -2.15754 0
M  V30 649 C 67.9965 -3.26482 -0.905265 0
M  V30 650 C 66.5555 -3.499 -1.38734 0
M  V30 651 C 65.7025 -2.74979 -0.358056 0
M  V30 652 H 68.6535 -1.56425 0.267736 0
M  V30 653 H 68.6745 -3.36887 -1.76882 0
M  V30 654 H 68.1865 -3.88096 -0.017401 0
M  V30 655 H 66.2875 -2.93553 -2.29471 0
M  V30 656 H 66.4005 -4.58615 -1.38598 0
M  V30 657 H 64.7645 -2.40834 -0.828912 0
M  V30 658 H 65.5475 -3.39315 0.521561 0
M  V30 659 N 67.9926 0.231505 -1.5589 0
M  V30 660 C 68.9426 1.29007 -1.87993 0
M  V30 661 C 69.9266 1.42764 -0.742102 0
M  V30 662 O 71.1186 1.45747 -1.00433 0
M  V30 663 C 68.2476 2.6425 -2.1915 0
M  V30 664 C 67.3336 2.54435 -3.39299 0
M  V30 665 N 67.7246 2.14262 -4.58176 0
M  V30 666 C 66.0226 2.85416 -3.42715 0
M  V30 667 C 66.7236 2.15455 -5.40328 0
M  V30 668 N 65.6996 2.55558 -4.79783 0
M  V30 669 H 69.5016 0.970213 -2.77424 0
M  V30 670 H 67.0156 0.440097 -1.56323 0
M  V30 671 H 69.0126 3.40665 -2.40319 0
M  V30 672 H 67.6726 2.9709 -1.31025 0
M  V30 673 H 68.6836 1.85554 -4.83518 0
M  V30 674 H 65.3606 3.22693 -2.64906 0
M  V30 675 H 66.7506 1.86605 -6.45467 0
M  V30 676 N 69.4707 1.49531 0.497807 0
M  V30 677 C 70.4007 1.6935 1.60757 0
M  V30 678 C 71.3817 0.542218 1.61227 0
M  V30 679 O 72.5667 0.778417 1.77917 0
M  V30 680 C 69.6967 1.76298 2.99226 0
M  V30 681 C 68.6507 2.91248 3.13622 0
M  V30 682 C 67.9767 2.83312 4.53474 0
M  V30 683 C 69.2767 4.3214 2.93346 0
M  V30 684 H 70.9707 2.62263 1.44425 0
M  V30 685 H 68.5167 1.26208 0.693367 0
M  V30 686 H 70.4697 1.88749 3.76765 0
M  V30 687 H 69.1937 0.799871 3.16654 0
M  V30 688 H 67.8527 2.78404 2.38509 0
M  V30 689 H 67.5007 1.84902 4.67782 0
M  V30 690 H 67.2007 3.60465 4.64046 0
M  V30 691 H 68.7247 2.97775 5.33069 0
M  V30 692 H 70.1387 4.45649 3.60652 0
M  V30 693 H 68.5357 5.1054 3.15387 0
M  V30 694 H 69.6057 4.46363 1.89441 0
M  V30 695 N 70.9488 -0.749086 1.3866 0
M  V30 696 C 71.8788 -1.8764 1.38973 0
M  V30 697 C 72.8598 -1.68178 0.255004 0
M  V30 698 O 74.0448 -1.88704 0.458754 0
M  V30 699 C 71.1748 -3.25222 1.21851 0
M  V30 700 C 70.1288 -3.59295 2.32575 0
M  V30 701 C 69.4548 -4.95663 2.00555 0
M  V30 702 C 70.7548 -3.63709 3.7485 0
M  V30 703 H 72.4488 -1.87635 2.3331 0
M  V30 704 H 69.9948 -0.901329 1.12303 0
M  V30 705 H 71.9478 -4.03746 1.20695 0
M  V30 706 H 70.6718 -3.25719 0.239775 0
M  V30 707 H 69.3308 -2.83093 2.32925 0
M  V30 708 H 68.9788 -4.92724 1.01154 0
M  V30 709 H 68.6788 -5.19429 2.74714 0
M  V30 710 H 70.2028 -5.7656 2.01024 0
M  V30 711 H 71.6168 -4.32338 3.76506 0
M  V30 712 H 70.0138 -3.98986 4.48252 0
M  V30 713 H 71.0838 -2.63834 4.06841 0
M  V30 714 N 72.4269 -1.23603 -0.977757 0
M  V30 715 C 73.6519 -1.09735 -1.75991 0
M  V30 716 C 74.0769 0.346858 -1.84874 0
M  V30 717 O 73.4349 1.25093 -1.3123 0
M  V30 718 C 73.4829 -1.73051 -3.16363 0
M  V30 719 O 72.5869 -0.994452 -4.0023 0
M  V30 720 H 71.9279 -0.384476 -0.541364 0
M  V30 721 H 74.4579 -1.6371 -1.2272 0
M  V30 722 H 74.4679 -1.78398 -3.66931 0
M  V30 723 H 73.1429 -2.78137 -3.09213 0
M  V30 724 H 71.7199 -1.01812 -3.58732 0
M  V30 725 N 73.905 1.17692 -1.04816 0
M  V30 726 C 74.815 2.25229 -0.65643 0
M  V30 727 C 75.831 1.71018 0.320761 0
M  V30 728 O 77.007 2.00649 0.173805 0
M  V30 729 C 74.072 3.46684 -0.0332629 0
M  V30 730 C 73.133 4.15997 -1.06042 0
M  V30 731 C 72.366 5.31654 -0.466893 0
M  V30 732 O 72.589 5.65777 0.724758 0
M  V30 733 O 71.523 5.89831 -1.1993 0
M  V30 734 H 75.349 2.61016 -1.55255 0
M  V30 735 H 72.934 1.24919 -0.81949 0
M  V30 736 H 74.816 4.20234 0.313256 0
M  V30 737 H 73.491 3.12703 0.836566 0
M  V30 738 H 72.398 3.44482 -1.45886 0
M  V30 739 H 73.731 4.53996 -1.90127 0
M  V30 740 N 75.3831 0.828654 1.34056 0
M  V30 741 C 76.6291 0.42008 1.98402 0
M  V30 742 C 76.9621 -1.01564 1.65525 0
M  V30 743 O 76.2371 -1.70834 0.929831 0
M  V30 744 C 76.5201 0.62927 3.54559 0
M  V30 745 C 76.3731 2.11152 3.97159 0
M  V30 746 C 77.6921 0.0688756 4.40046 0
M  V30 747 H 74.8111 0.154104 0.720709 0
M  V30 748 H 77.4531 1.04228 1.5886 0
M  V30 749 H 75.6031 0.0996418 3.88372 0
M  V30 750 H 77.2751 2.70522 3.73651 0
M  V30 751 H 75.5181 2.59985 3.47261 0
M  V30 752 H 76.1891 2.20868 5.05887 0
M  V30 753 H 78.6651 0.521458 4.1282 0
M  V30 754 H 77.5411 0.245006 5.48353 0
M  V30 755 H 77.8021 -1.0266 4.30015 0
M  V30 756 N 76.8612 -1.46375 0.584142 0
M  V30 757 C 78.0892 -2.06761 0.0759296 0
M  V30 758 C 78.5042 -1.43266 -1.22965 0
M  V30 759 O 77.8612 -0.538458 -1.74376 0
M  V30 760 C 77.9122 -3.61375 -0.0950384 0
M  V30 761 O 77.6332 -4.22495 1.15887 0
M  V30 762 C 79.1342 -4.38693 -0.637434 0
M  V30 763 H 76.3542 -0.668479 0.0581075 0
M  V30 764 H 78.8982 -1.8798 0.805218 0
M  V30 765 H 77.0532 -3.79578 -0.774554 0
M  V30 766 H 77.4672 -5.15385 0.973598 0
M  V30 767 H 78.9412 -5.47464 -0.706237 0
M  V30 768 H 79.4182 -4.06836 -1.65472 0
M  V30 769 H 80.0242 -4.25299 0.00725967 0
M  V30 770 N 78.3393 -0.321999 -1.54275 0
M  V30 771 C 79.3023 0.531975 -2.22941 0
M  V30 772 C 80.3023 1.04478 -1.22234 0
M  V30 773 O 81.4923 0.937452 -1.46825 0
M  V30 774 C 78.6243 1.73874 -2.93224 0
M  V30 775 H 79.8173 -0.0682612 -2.99822 0
M  V30 776 H 77.3703 -0.0730644 -1.56129 0
M  V30 777 H 78.1053 2.37825 -2.20476 0
M  V30 778 H 77.8903 1.37847 -3.6707 0
M  V30 779 H 79.3803 2.34496 -3.45545 0
M  V30 780 N 79.8174 1.5752 -0.0501392 0
M  V30 781 C 81.0424 1.97376 0.636997 0
M  V30 782 C 81.4674 0.927466 1.63645 0
M  V30 783 O 80.8254 -0.10941 1.8097 0
M  V30 784 C 80.8734 3.36304 1.30123 0
M  V30 785 O 79.9774 3.34156 2.41689 0
M  V30 786 H 79.3184 0.642998 0.165679 0
M  V30 787 H 81.8484 2.04258 -0.118233 0
M  V30 788 H 81.8584 3.73008 1.65315 0
M  V30 789 H 80.5334 4.11993 0.568746 0
M  V30 790 H 79.1104 3.09196 2.08451 0
M  V30 791 N 81.2955 -0.223234 1.56011 0
M  V30 792 C 82.7065 -0.790368 1.69145 0
M  V30 793 C 83.0575 -1.85055 0.651845 0
M  V30 794 O 82.1825 -2.15498 -0.197359 0
M  V30 795 C 82.7775 -1.4404 3.06656 0
M  V30 796 C 81.3365 -1.95494 3.2165 0
M  V30 797 C 80.4835 -0.814506 2.65068 0
M  V30 798 H 83.4345 0.00139011 1.587 0
M  V30 799 H 83.4555 -2.30916 3.0242 0
M  V30 800 H 82.9675 -0.668543 3.82298 0
M  V30 801 H 81.0685 -2.75487 2.50874 0
M  V30 802 H 81.1815 -2.13607 4.28846 0
M  V30 803 H 79.5455 -1.22137 2.23505 0
M  V30 804 H 80.3285 -0.0553515 3.43255 0
M  V30 805 N 82.7736 -1.49793 -0.48987 0
M  V30 806 C 83.7366 -1.66752 -1.57246 0
M  V30 807 C 84.7366 -0.538867 -1.51502 0
M  V30 808 O 85.9266 -0.805545 -1.54456 0
M  V30 809 C 83.0586 -1.67528 -2.96896 0
M  V30 810 H 84.2516 -2.63321 -1.43534 0
M  V30 811 H 81.8046 -1.38992 -0.714914 0
M  V30 812 H 82.5396 -0.725837 -3.16073 0
M  V30 813 H 82.3246 -2.49504 -3.02473 0
M  V30 814 H 83.8146 -1.82667 -3.7553 0
M  V30 815 N 84.2517 0.741722 -1.39055 0
M  V30 816 C 85.6627 1.31966 -1.32068 0
M  V30 817 C 86.0137 1.96192 0.0180797 0
M  V30 818 O 85.1387 1.95861 0.920196 0
M  V30 819 C 85.7337 2.39954 -2.39181 0
M  V30 820 C 84.2927 2.93438 -2.35735 0
M  V30 821 C 83.4397 1.66936 -2.21422 0
M  V30 822 H 86.3907 0.539721 -1.4924 0
M  V30 823 H 86.4117 3.20182 -2.05581 0
M  V30 824 H 85.9237 1.9318 -3.36605 0
M  V30 825 H 84.0247 3.4451 -1.41929 0
M  V30 826 H 84.1377 3.4701 -3.30335 0
M  V30 827 H 82.5017 1.91016 -1.68478 0
M  V30 828 H 83.2847 1.22224 -3.20806 0
M  V30 829 N 85.7298 1.2412 0.971189 0
M  V30 830 C 86.9578 1.10575 1.74874 0
M  V30 831 C 87.3728 -0.342017 1.85676 0
M  V30 832 O 86.7298 -1.23617 1.34258 0
M  V30 833 C 86.7808 1.73579 3.171 0
M  V30 834 O 86.5018 3.12695 3.06844 0
M  V30 835 C 88.0028 1.65598 4.11208 0
M  V30 836 H 85.2228 0.386504 0.548503 0
M  V30 837 H 87.7668 1.64156 1.21955 0
M  V30 838 H 85.9218 1.24009 3.67016 0
M  V30 839 H 86.3358 3.43412 3.96445 0
M  V30 840 H 87.8098 2.1437 5.08674 0
M  V30 841 H 88.2868 0.616532 4.34851 0
M  V30 842 H 88.8928 2.14578 3.67201 0
M  V30 843 N 87.2079 -1.17134 1.05439 0
M  V30 844 C 88.4539 -1.87979 0.776872 0
M  V30 845 C 88.8089 -1.7965 -0.688751 0
M  V30 846 O 88.1019 -1.19535 -1.4974 0
M  V30 847 C 88.2959 -3.36833 1.19491 0
M  V30 848 C 88.1249 -3.59653 2.69963 0
M  V30 849 C 86.8949 -3.76234 3.37307 0
M  V30 850 C 89.0929 -3.59091 3.68182 0
M  V30 851 N 87.0749 -3.86922 4.76618 0
M  V30 852 C 88.4459 -3.75659 4.93235 0
M  V30 853 C 90.5009 -3.42255 3.61616 0
M  V30 854 C 89.2039 -3.77133 6.12506 0
M  V30 855 C 91.2299 -3.45018 4.8033 0
M  V30 856 C 90.5919 -3.62096 6.04207 0
M  V30 857 H 86.6909 -0.705876 0.336546 0
M  V30 858 H 89.2749 -1.40602 1.34682 0
M  V30 859 H 87.4459 -3.82873 0.652884 0
M  V30 860 H 89.1779 -3.95305 0.866966 0
M  V30 861 H 85.9329 -3.76193 2.87708 0
M  V30 862 H 86.3569 -3.96055 5.49062 0
M  V30 863 H 90.9989 -3.27986 2.66805 0
M  V30 864 H 88.7169 -3.90186 7.07659 0
M  V30 865 H 92.3029 -3.33246 4.76905 0
M  V30 866 H 91.1829 -3.64142 6.94529 0
M  V30 867 N 88.686 -0.835752 -1.33615 0
M  V30 868 C 89.963 -0.352017 -1.92406 0
M  V30 869 C 90.343 1.16225 -1.76224 0
M  V30 870 O 89.691 1.97526 -1.14873 0
M  V30 871 C 89.901 -0.795485 -3.39813 0
M  V30 872 C 91.249 -0.801703 -4.16963 0
M  V30 873 O 92.273 -0.738889 -3.48452 0
M  V30 874 O 91.132 -0.886607 -5.3926 0
M  V30 875 H 88.226 -0.0989641 -0.821057 0
M  V30 876 H 90.772 -0.921397 -1.42507 0
M  V30 877 H 89.544 -1.83795 -3.45449 0
M  V30 878 H 89.167 -0.202505 -3.97084 0
M  V30 879 N 90.1641 1.46063 -0.591896 0
M  V30 880 C 91.1271 2.28854 0.125973 0
M  V30 881 C 92.1271 1.38903 0.810107 0
M  V30 882 O 93.3171 1.61186 0.66066 0
M  V30 883 C 90.4491 3.19526 1.1881 0
M  V30 884 H 91.6421 2.93802 -0.601717 0
M  V30 885 H 89.1951 1.52325 -0.350254 0
M  V30 886 H 89.9301 2.59345 1.94707 0
M  V30 887 H 89.7151 3.85766 0.701936 0
M  V30 888 H 91.2051 3.81817 1.69132 0
M  V30 889 N 91.6422 0.330177 1.54103 0
M  V30 890 C 93.0532 -0.15652 1.86043 0
M  V30 891 C 93.4042 -1.51086 1.2517 0
M  V30 892 O 92.5292 -2.09023 0.560217 0
M  V30 893 C 93.1242 -0.290784 3.3755 0
M  V30 894 C 91.6832 -0.721705 3.69416 0
M  V30 895 C 90.8302 0.152622 2.7688 0
M  V30 896 H 93.7812 0.550237 1.48856 0
M  V30 897 H 93.8022 -1.12058 3.63625 0
M  V30 898 H 93.3142 0.695068 3.81825 0
M  V30 899 H 91.4152 -1.71706 3.30678 0
M  V30 900 H 91.5282 -0.520869 4.7626 0
M  V30 901 H 89.8922 -0.372894 2.51956 0
M  V30 902 H 90.6752 1.13536 3.23982 0
M  V30 903 N 93.1203 -1.57491 0.0584922 0
M  V30 904 C 94.5313 -1.80526 -0.476138 0
M  V30 905 C 94.8823 -0.971334 -1.70469 0
M  V30 906 O 94.0073 -0.190012 -2.15564 0
M  V30 907 C 94.6023 -3.27424 -0.870587 0
M  V30 908 C 93.1613 -3.51351 -1.35015 0
M  V30 909 C 92.3083 -2.75343 -0.32887 0
M  V30 910 H 95.2593 -1.56133 0.284312 0
M  V30 911 H 95.2803 -3.38745 -1.73299 0
M  V30 912 H 94.7923 -3.88093 0.0237627 0
M  V30 913 H 92.8933 -2.95971 -2.26345 0
M  V30 914 H 93.0063 -4.60059 -1.33726 0
M  V30 915 H 91.3703 -2.417 -0.803321 0
M  V30 916 H 92.1533 -3.38743 0.557521 0
M  V30 917 N 94.5984 0.214957 -1.56127 0
M  V30 918 C 95.8754 0.963093 -1.70247 0
M  V30 919 C 96.2554 2.02166 -0.60764 0
M  V30 920 O 95.6034 2.25244 0.384385 0
M  V30 921 C 95.8134 1.56756 -3.11815 0
M  V30 922 C 97.1614 2.0573 -3.7143 0
M  V30 923 O 98.1854 1.66637 -3.14818 0
M  V30 924 O 97.0444 2.77603 -4.70743 0
M  V30 925 H 94.1384 0.450321 -0.693643 0
M  V30 926 H 96.6844 0.206219 -1.68442 0
M  V30 927 H 95.4564 0.803533 -3.82961 0
M  V30 928 H 95.0794 2.3898 -3.17765 0
M  V30 929 N 96.0765 1.50051 0.48192 0
M  V30 930 C 97.0245 1.68635 1.60203 0
M  V30 931 C 98.0185 0.552184 1.60148 0
M  V30 932 O 99.2245 0.732377 1.64427 0
M  V30 933 H 95.5995 0.532081 0.531407 0
M  V30 934 H 97.5705 2.62616 1.41688 0
M  V30 935 C 96.3195 1.78775 2.9822 0
M  V30 936 H 95.6425 2.6543 2.98976 0
M  V30 937 H 97.0825 1.95806 3.7608 0
M  V30 938 C 95.5415 0.536849 3.32595 0
M  V30 939 O 96.0715 -0.328897 4.00351 0
M  V30 940 N 94.2775 0.394091 2.87915 0
M  V30 941 H 93.8245 1.09962 2.32951 0
M  V30 942 H 93.7825 -0.441737 3.11281 0
M  V30 943 N 97.5546 -0.734337 1.39446 0
M  V30 944 C 98.5176 -1.83004 1.37994 0
M  V30 945 C 99.5176 -1.58397 0.276938 0
M  V30 946 O 100.708 -1.65785 0.534875 0
M  V30 947 C 97.8396 -3.20802 1.1532 0
M  V30 948 H 99.0326 -1.85694 2.35494 0
M  V30 949 H 96.5856 -0.938059 1.25021 0
M  V30 950 H 97.3206 -3.23772 0.185036 0
M  V30 951 H 97.1056 -3.4006 1.95197 0
M  V30 952 H 98.5956 -4.00862 1.17046 0
M  V30 953 N 99.0327 -1.24633 -0.964593 0
M  V30 954 C 100.258 -1.11596 -1.74818 0
M  V30 955 C 100.683 0.32723 -1.85232 0
M  V30 956 O 100.041 1.23695 -1.32549 0
M  V30 957 C 100.089 -1.76397 -3.1451 0
M  V30 958 O 99.1927 -1.03685 -3.99153 0
M  V30 959 H 98.5337 -0.390196 -0.537255 0
M  V30 960 H 101.064 -1.65002 -1.20977 0
M  V30 961 H 101.074 -1.8228 -3.65018 0
M  V30 962 H 99.7487 -2.81401 -3.06246 0
M  V30 963 H 98.3257 -1.05611 -3.57632 0
M  V30 964 N 100.511 1.16574 -1.06058 0
M  V30 965 C 101.759 1.86677 -0.77434 0
M  V30 966 C 102.08 1.81959 0.701147 0
M  V30 967 O 101.35 1.2515 1.50713 0
M  V30 968 H 99.9298 0.691134 -0.283449 0
M  V30 969 H 102.592 1.41378 -1.34158 0
M  V30 970 H 101.688 2.92181 -1.09711 0
M  V30 971 N 101.989 0.842826 1.3317 0
M  V30 972 C 103.229 0.446574 1.99462 0
M  V30 973 C 103.593 -0.976818 1.65295 0
M  V30 974 O 104.794 -1.477 2.24584 0
M  V30 975 C 103.065 0.665353 3.51152 0
M  V30 976 S 104.624 0.364911 4.3728 0
M  V30 977 H 101.442 0.167803 0.690915 0
M  V30 978 H 104.044 1.09297 1.62094 0
M  V30 979 H 102.748 1.7006 3.73507 0
M  V30 980 H 102.279 0.00494568 3.934 0
M  V30 981 H 104.294 -0.813761 4.89482 0
M  V30 982 N 103.467 -1.45747 0.599634 0
M  V30 983 C 104.715 -2.01893 0.0915472 0
M  V30 984 C 105.036 -1.47155 -1.27946 0
M  V30 985 O 104.306 -0.66273 -1.84349 0
M  V30 986 H 102.886 -0.746363 0.0308524 0
M  V30 987 H 105.548 -1.78645 0.779237 0
M  V30 988 H 104.644 -3.1208 0.0353086 0
M  V30 989 N 104.945 -0.338344 -1.53925 0
M  V30 990 C 105.855 0.529421 -2.28548 0
M  V30 991 C 106.871 1.11645 -1.3346 0
M  V30 992 O 108.047 1.13325 -1.66492 0
M  V30 993 C 105.112 1.66713 -3.03987 0
M  V30 994 C 104.173 1.11041 -4.14691 0
M  V30 995 C 103.406 2.19389 -4.86522 0
M  V30 996 O 103.629 3.40013 -4.57982 0
M  V30 997 O 102.563 1.83976 -5.73094 0
M  V30 998 H 106.389 -0.0770399 -3.03602 0
M  V30 999 H 103.974 -0.103555 -1.49041 0
M  V30 1000 H 105.856 2.32918 -3.5118 0
M  V30 1001 H 104.531 2.25949 -2.31794 0
M  V30 1002 H 103.438 0.413024 -3.71813 0
M  V30 1003 H 104.771 0.562975 -4.8897 0
M  V30 1004 N 106.423 1.57458 -0.0668435 0
M  V30 1005 C 107.355 2.09413 0.931601 0
M  V30 1006 C 108.368 1.02522 1.26464 0
M  V30 1007 O 109.557 1.30049 1.22269 0
M  V30 1008 C 106.657 2.53537 2.24882 0
M  V30 1009 C 105.83 3.83944 2.09537 0
M  V30 1010 C 104.889 4.14214 3.2452 0
M  V30 1011 O 103.915 4.83891 2.9973 0
M  V30 1012 N 105.117 3.67367 4.49469 0
M  V30 1013 H 107.882 2.95699 0.488048 0
M  V30 1014 H 105.443 1.61462 0.119009 0
M  V30 1015 H 107.435 2.70853 3.00701 0
M  V30 1016 H 106.005 1.72415 2.60753 0
M  V30 1017 H 105.225 3.76057 1.18215 0
M  V30 1018 H 106.513 4.69312 1.96529 0
M  V30 1019 H 105.911 3.11068 4.72497 0
M  V30 1020 H 104.468 3.89891 5.2233 0
M  V30 1021 N 107.901 -0.206675 1.56239 0
M  V30 1022 C 109.15 -0.926964 1.79138 0
M  V30 1023 C 109.463 -1.84901 0.638043 0
M  V30 1024 O 110.669 -2.60906 0.751033 0
M  V30 1025 C 109.125 -1.6986 3.17294 0
M  V30 1026 C 108.733 -0.821956 4.40395 0
M  V30 1027 C 110.477 -2.40922 3.4951 0
M  V30 1028 C 108.384 -1.59179 5.69575 0
M  V30 1029 H 107.314 -0.349864 0.667915 0
M  V30 1030 H 109.965 -0.180487 1.8261 0
M  V30 1031 H 108.347 -2.48853 3.08039 0
M  V30 1032 H 109.521 -0.0715019 4.60745 0
M  V30 1033 H 107.836 -0.222741 4.15804 0
M  V30 1034 H 110.433 -2.99047 4.43255 0
M  V30 1035 H 110.776 -3.14542 2.72707 0
M  V30 1036 H 111.309 -1.68905 3.60161 0
M  V30 1037 H 108.048 -0.898589 6.49312 0
M  V30 1038 H 107.568 -2.31648 5.53262 0
M  V30 1039 H 109.247 -2.14862 6.10281 0
M  V30 1040 N 109.379 -1.50304 -0.473955 0
M  V30 1041 C 110.327 -1.69482 -1.59307 0
M  V30 1042 C 111.321 -0.560669 -1.59853 0
M  V30 1043 O 112.527 -0.741087 -1.64036 0
M  V30 1044 H 108.902 -0.534892 -0.528578 0
M  V30 1045 H 110.873 -2.63364 -1.40293 0
M  V30 1046 C 109.622 -1.80354 -2.97267 0
M  V30 1047 H 108.945 -2.67012 -2.97564 0
M  V30 1048 H 110.385 -1.97798 -3.75036 0
M  V30 1049 C 108.844 -0.55448 -3.32306 0
M  V30 1050 O 109.374 0.307661 -4.0052 0
M  V30 1051 N 107.58 -0.409354 -2.87702 0
M  V30 1052 H 107.127 -1.11196 -2.32364 0
M  V30 1053 H 107.085 0.425223 -3.11511 0
M  V30 1054 N 110.857 0.726932 -1.39834 0
M  V30 1055 C 112.087 1.51393 -1.40583 0
M  V30 1056 C 112.495 1.892 -0.000740625 0
M  V30 1057 O 111.838 1.55189 0.982951 0
M  V30 1058 C 111.9 2.82588 -2.22226 0
M  V30 1059 C 111.564 2.67169 -3.70769 0
M  V30 1060 C 112.561 2.3518 -4.63666 0
M  V30 1061 C 110.246 2.83788 -4.14451 0
M  V30 1062 C 112.24 2.20002 -5.98229 0
M  V30 1063 C 109.927 2.68229 -5.49087 0
M  V30 1064 C 110.925 2.36382 -6.4079 0
M  V30 1065 O 110.613 2.2093 -7.72946 0
M  V30 1066 H 110.345 0.474168 -0.48181 0
M  V30 1067 H 112.899 0.905247 -1.84376 0
M  V30 1068 H 111.129 3.45746 -1.73195 0
M  V30 1069 H 112.818 3.44247 -2.15055 0
M  V30 1070 H 113.584 2.21984 -4.31217 0
M  V30 1071 H 109.463 3.07566 -3.43401 0
M  V30 1072 H 113.007 1.95067 -6.69772 0
M  V30 1073 H 108.904 2.81006 -5.81125 0
M  V30 1074 H 109.672 2.35937 -7.83757 0
M  V30 1075 N 112.336 1.25143 0.95797 0
M  V30 1076 C 113.584 1.09476 1.69881 0
M  V30 1077 C 113.905 -0.365502 1.91544 0
M  V30 1078 O 113.175 -1.25985 1.50015 0
M  V30 1079 H 111.755 0.402128 0.629525 0
M  V30 1080 H 114.417 1.57214 1.15194 0
M  V30 1081 H 113.513 1.60046 2.6794 0
M  V30 1082 N 113.814 -1.1601 1.06675 0
M  V30 1083 C 115.23 -1.38622 0.790948 0
M  V30 1084 C 115.43 -1.92109 -0.607965 0
M  V30 1085 O 114.486 -2.12239 -1.36787 0
M  V30 1086 C 115.799 -2.36347 1.85905 0
M  V30 1087 C 117.347 -2.50023 1.88301 0
M  V30 1088 C 117.822 -3.51033 2.94176 0
M  V30 1089 N 119.313 -3.58563 2.93235 0
M  V30 1090 C 120.048 -4.36521 3.71803 0
M  V30 1091 N 119.544 -5.17869 4.602 0
M  V30 1092 N 121.337 -4.31541 3.60178 0
M  V30 1093 H 113.488 -0.796294 1.96908 0
M  V30 1094 H 115.751 -0.412597 0.853503 0
M  V30 1095 H 115.457 -2.04147 2.86386 0
M  V30 1096 H 115.331 -3.36042 1.71334 0
M  V30 1097 H 117.718 -2.81524 0.884769 0
M  V30 1098 H 117.799 -1.5035 2.06951 0
M  V30 1099 H 117.443 -3.20268 3.94196 0
M  V30 1100 H 117.373 -4.50445 2.72776 0
M  V30 1101 H 119.864 -3.00496 2.29152 0
M  V30 1102 H 120.177 -5.74578 5.16797 0
M  V30 1103 H 118.522 -5.17199 4.64253 0
M  V30 1104 H 121.713 -3.67051 2.90502 0
M  V30 1105 H 121.886 -4.9205 4.21653 0
M  V30 1106 N 115.292 -0.849877 -1.32721 0
M  V30 1107 C 116.538 -0.451591 -1.97708 0
M  V30 1108 C 116.871 0.989175 -1.6712 0
M  V30 1109 O 116.146 1.69334 -0.956891 0
M  V30 1110 C 116.429 -0.685598 -3.53513 0
M  V30 1111 C 116.282 -2.17444 -3.93749 0
M  V30 1112 C 117.601 -0.138874 -4.39881 0
M  V30 1113 H 114.72 -0.16555 -0.718166 0
M  V30 1114 H 117.362 -1.06742 -1.57182 0
M  V30 1115 H 115.512 -0.161416 -3.88165 0
M  V30 1116 H 117.184 -2.76433 -3.693 0
M  V30 1117 H 115.427 -2.65476 -3.43081 0
M  V30 1118 H 116.098 -2.28888 -5.02309 0
M  V30 1119 H 118.574 -0.587068 -4.11938 0
M  V30 1120 H 117.45 -0.332213 -5.47894 0
M  V30 1121 H 117.711 0.95806 -4.31594 0
M  V30 1122 N 116.77 1.45427 -0.607355 0
M  V30 1123 C 117.68 2.34325 0.113463 0
M  V30 1124 C 118.696 1.51226 0.860617 0
M  V30 1125 O 119.872 1.84029 0.818255 0
M  V30 1126 C 116.937 3.28839 1.09844 0
M  V30 1127 C 115.998 4.27844 0.353271 0
M  V30 1128 C 115.231 5.17842 1.29133 0
M  V30 1129 O 115.454 5.11264 2.52913 0
M  V30 1130 O 114.388 5.96713 0.788523 0
M  V30 1131 H 118.214 2.97364 -0.617094 0
M  V30 1132 H 115.799 1.44807 -0.367619 0
M  V30 1133 H 117.681 3.8708 1.66575 0
M  V30 1134 H 116.356 2.68365 1.81003 0
M  V30 1135 H 115.263 3.7322 -0.256494 0
M  V30 1136 H 116.596 4.91173 -0.317822 0
M  V30 1137 N 118.248 0.346503 1.53744 0
M  V30 1138 C 119.195 -0.508914 2.25119 0
M  V30 1139 C 120.165 -1.09315 1.25058 0
M  V30 1140 O 121.35 -1.12921 1.53797 0
M  V30 1141 C 118.49 -1.65246 3.02965 0
M  V30 1142 C 117.603 -1.09525 4.17886 0
M  V30 1143 C 116.738 -2.20634 4.83212 0
M  V30 1144 C 115.777 -1.62279 5.90196 0
M  V30 1145 N 114.914 -2.67143 6.49291 0
M  V30 1146 H 119.754 0.106283 2.9781 0
M  V30 1147 H 117.291 0.0642227 1.4696 0
M  V30 1148 H 119.249 -2.32574 3.4636 0
M  V30 1149 H 117.879 -2.2386 2.32565 0
M  V30 1150 H 116.931 -0.312818 3.79112 0
M  V30 1151 H 118.243 -0.628444 4.94825 0
M  V30 1152 H 117.397 -2.95821 5.29693 0
M  V30 1153 H 116.136 -2.70659 4.05703 0
M  V30 1154 H 115.141 -0.855989 5.43096 0
M  V30 1155 H 116.366 -1.13102 6.69615 0
M  V30 1156 H 114.312 -3.16417 5.74645 0
M  V30 1157 H 114.229 -2.25093 7.21713 0
M  V30 1158 H 115.497 -3.4209 7.00425 0
M  V30 1159 N 119.726 -1.57421 0.075193 0
M  V30 1160 C 120.972 -1.93905 -0.594025 0
M  V30 1161 C 121.305 -0.955701 -1.69056 0
M  V30 1162 O 120.58 0.0145373 -1.94495 0
M  V30 1163 C 120.863 -3.40638 -1.1678 0
M  V30 1164 C 120.716 -4.49733 -0.0776792 0
M  V30 1165 C 122.035 -3.88259 -2.07228 0
M  V30 1166 H 119.154 -0.705105 -0.214466 0
M  V30 1167 H 121.796 -1.8947 0.141854 0
M  V30 1168 H 119.946 -3.44549 -1.79494 0
M  V30 1169 H 121.618 -4.57942 0.555573 0
M  V30 1170 H 119.861 -4.29751 0.591286 0
M  V30 1171 H 120.532 -5.49549 -0.519603 0
M  V30 1172 H 123.008 -3.86376 -1.54445 0
M  V30 1173 H 121.884 -4.91533 -2.44308 0
M  V30 1174 H 122.145 -3.26396 -2.98191 0
M  V30 1175 N 121.204 0.198386 -1.56346 0
M  V30 1176 C 122.45 0.920648 -1.80698 0
M  V30 1177 C 122.783 1.83045 -0.648697 0
M  V30 1178 O 122.058 1.91308 0.350925 0
M  V30 1179 C 122.341 1.73971 -3.15287 0
M  V30 1180 C 122.194 0.85485 -4.41602 0
M  V30 1181 C 123.513 2.71296 -3.46535 0
M  V30 1182 H 120.632 0.333261 -0.657348 0
M  V30 1183 H 123.274 0.188198 -1.89066 0
M  V30 1184 H 121.424 2.36416 -3.08285 0
M  V30 1185 H 123.096 0.245362 -4.60647 0
M  V30 1186 H 121.339 0.161398 -4.335 0
M  V30 1187 H 122.01 1.46286 -5.32264 0
M  V30 1188 H 124.486 2.18983 -3.53816 0
M  V30 1189 H 123.362 3.2569 -4.41834 0
M  V30 1190 H 123.623 3.5018 -2.69864 0
M  V30 1191 N 122.682 1.50554 0.465978 0
M  V30 1192 C 123.931 1.61038 1.21448 0
M  V30 1193 C 124.244 0.31865 1.92987 0
M  V30 1194 O 125.45 0.302469 2.6981 0
M  V30 1195 C 123.906 2.84283 2.20706 0
M  V30 1196 C 123.514 4.20352 1.54946 0
M  V30 1197 C 125.258 3.04115 2.96166 0
M  V30 1198 C 123.165 5.34778 2.5252 0
M  V30 1199 H 122.095 0.599718 0.457005 0
M  V30 1200 H 124.746 1.7699 0.484424 0
M  V30 1201 H 123.128 2.61901 2.97025 0
M  V30 1202 H 124.302 4.53008 0.843811 0
M  V30 1203 H 122.617 4.06167 0.917475 0
M  V30 1204 H 125.214 3.86774 3.69202 0
M  V30 1205 H 125.557 2.16045 3.55852 0
M  V30 1206 H 126.09 3.26702 2.26959 0
M  V30 1207 H 122.829 6.25018 1.97566 0
M  V30 1208 H 122.349 5.06534 3.21222 0
M  V30 1209 H 124.028 5.65561 3.14245 0
M  V30 1210 N 124.16 -0.719506 1.40217 0
M  V30 1211 C 125.408 -1.47641 1.3801 0
M  V30 1212 C 125.729 -1.94992 -0.018145 0
M  V30 1213 O 124.999 -1.70073 -0.972207 0
M  V30 1214 H 123.579 -0.547744 0.507923 0
M  V30 1215 H 126.241 -0.853187 1.75233 0
M  V30 1216 H 125.337 -2.35112 2.05253 0
M  V30 1217 N 125.638 -1.25649 -0.95132 0
M  V30 1218 C 126.863 -1.13443 -1.73624 0
M  V30 1219 C 127.288 0.307565 -1.85568 0
M  V30 1220 O 126.646 1.22282 -1.33854 0
M  V30 1221 C 126.694 -1.79723 -3.12621 0
M  V30 1222 O 125.798 -1.07912 -3.98031 0
M  V30 1223 H 125.139 -0.395872 -0.533086 0
M  V30 1224 H 127.669 -1.66276 -1.1922 0
M  V30 1225 H 127.679 -1.86141 -3.63064 0
M  V30 1226 H 126.354 -2.84633 -3.03244 0
M  V30 1227 H 124.931 -1.09398 -3.56492 0
M  V30 1228 N 127.117 1.15442 -1.07289 0
M  V30 1229 C 128.366 1.85557 -0.790669 0
M  V30 1230 C 128.679 1.83186 0.685739 0
M  V30 1231 O 129.885 2.48977 1.0827 0
M  V30 1232 C 128.341 3.33038 -1.36433 0
M  V30 1233 C 127.949 3.43856 -2.8717 0
M  V30 1234 C 129.693 4.0834 -1.1601 0
M  V30 1235 C 127.6 4.85482 -3.3773 0
M  V30 1236 H 126.53 0.695122 -0.292098 0
M  V30 1237 H 129.181 1.30219 -1.29287 0
M  V30 1238 H 127.563 3.88043 -0.789864 0
M  V30 1239 H 128.737 2.98961 -3.50655 0
M  V30 1240 H 127.052 2.81998 -3.06376 0
M  V30 1241 H 129.649 5.12859 -1.51262 0
M  V30 1242 H 129.992 4.16182 -0.0991007 0
M  V30 1243 H 130.525 3.59603 -1.70089 0
M  V30 1244 H 127.264 4.82823 -4.43353 0
M  V30 1245 H 126.784 5.30961 -2.78999 0
M  V30 1246 H 128.463 5.54335 -3.33648 0
M  V30 1247 N 128.595 0.856903 1.32268 0
M  V30 1248 C 129.525 0.31858 2.31316 0
M  V30 1249 C 130.506 -0.583487 1.59779 0
M  V30 1250 O 131.691 -0.503259 1.87566 0
M  V30 1251 C 128.821 -0.491979 3.43798 0
M  V30 1252 C 127.775 0.315849 4.26833 0
M  V30 1253 C 127.101 -0.619586 5.31098 0
M  V30 1254 C 128.401 1.54282 4.98993 0
M  V30 1255 H 130.095 1.14621 2.76591 0
M  V30 1256 H 127.641 0.552613 1.32974 0
M  V30 1257 H 129.594 -0.879012 4.1213 0
M  V30 1258 H 128.318 -1.35299 2.97257 0
M  V30 1259 H 126.977 0.684664 3.6015 0
M  V30 1260 H 126.625 -1.47751 4.8081 0
M  V30 1261 H 126.325 -0.0830621 5.87541 0
M  V30 1262 H 127.849 -1.00375 6.02293 0
M  V30 1263 H 129.263 1.22796 5.59995 0
M  V30 1264 H 127.66 2.01745 5.65172 0
M  V30 1265 H 128.73 2.30285 4.26728 0
M  V30 1266 N 130.073 -1.45103 0.615059 0
M  V30 1267 C 131.301 -2.06553 0.11977 0
M  V30 1268 C 131.716 -1.45842 -1.19898 0
M  V30 1269 O 131.073 -0.575325 -1.73194 0
M  V30 1270 C 131.124 -3.61495 -0.018364 0
M  V30 1271 O 130.845 -4.19942 1.24822 0
M  V30 1272 C 132.346 -4.39947 -0.544237 0
M  V30 1273 H 129.566 -0.667096 0.0722739 0
M  V30 1274 H 132.11 -1.8623 0.84491 0
M  V30 1275 H 130.265 -3.81135 -0.693865 0
M  V30 1276 H 130.679 -5.13204 1.0827 0
M  V30 1277 H 132.153 -5.48838 -0.589953 0
M  V30 1278 H 132.63 -4.10255 -1.56805 0
M  V30 1279 H 133.236 -4.25188 0.0974703 0
M  V30 1280 N 131.551 -0.354651 -1.53558 0
M  V30 1281 C 132.481 0.489091 -2.2832 0
M  V30 1282 C 133.462 1.09324 -1.30316 0
M  V30 1283 O 134.647 1.11255 -1.59173 0
M  V30 1284 C 131.777 1.63456 -3.0643 0
M  V30 1285 C 130.731 1.1582 -4.12031 0
M  V30 1286 C 130.057 2.39305 -4.7816 0
M  V30 1287 C 131.357 0.250731 -5.21698 0
M  V30 1288 H 133.051 -0.134614 -2.99097 0
M  V30 1289 H 130.597 -0.0661826 -1.43848 0
M  V30 1290 H 132.55 2.23136 -3.57475 0
M  V30 1291 H 131.274 2.28533 -2.33325 0
M  V30 1292 H 129.933 0.584146 -3.61916 0
M  V30 1293 H 129.581 3.02814 -4.01637 0
M  V30 1294 H 129.281 2.08109 -5.49513 0
M  V30 1295 H 130.805 2.99691 -5.31994 0
M  V30 1296 H 132.219 0.754695 -5.68311 0
M  V30 1297 H 130.616 0.0301468 -6.00092 0
M  V30 1298 H 131.686 -0.710125 -4.79672 0
M  V30 1299 N 133.029 1.57378 -0.0835403 0
M  V30 1300 C 134.278 1.93106 0.582498 0
M  V30 1301 C 134.591 0.96651 1.70053 0
M  V30 1302 O 135.797 1.21705 2.42693 0
M  V30 1303 C 134.253 3.43076 1.08751 0
M  V30 1304 C 133.861 4.48 -0.000146404 0
M  V30 1305 C 135.605 3.87785 1.72694 0
M  V30 1306 C 133.512 5.89113 0.519568 0
M  V30 1307 H 132.442 0.720775 0.221358 0
M  V30 1308 H 135.093 1.82821 -0.157675 0
M  V30 1309 H 133.475 3.48474 1.88101 0
M  V30 1310 H 134.649 4.54233 -0.775199 0
M  V30 1311 H 132.964 4.1283 -0.54406 0
M  V30 1312 H 135.561 4.90604 2.1263 0
M  V30 1313 H 135.904 3.25796 2.59158 0
M  V30 1314 H 136.437 3.8504 0.999457 0
M  V30 1315 H 133.176 6.54775 -0.308186 0
M  V30 1316 H 132.696 5.86376 1.26188 0
M  V30 1317 H 134.375 6.39346 0.992237 0
M  V30 1318 N 134.507 -0.190092 1.56449 0
M  V30 1319 C 135.735 -0.925772 1.85033 0
M  V30 1320 C 136.15 -1.76638 0.666658 0
M  V30 1321 O 135.507 -1.78822 -0.364565 0
M  V30 1322 C 135.558 -1.81786 3.12468 0
M  V30 1323 O 135.279 -1.01118 4.26271 0
M  V30 1324 C 136.78 -2.6648 3.54265 0
M  V30 1325 H 134 -0.269872 0.614337 0
M  V30 1326 H 136.544 -0.195837 2.0356 0
M  V30 1327 H 134.699 -2.50136 2.95822 0
M  V30 1328 H 135.113 -1.61956 4.98869 0
M  V30 1329 H 136.587 -3.24722 4.46385 0
M  V30 1330 H 137.064 -3.40434 2.77491 0
M  V30 1331 H 137.67 -2.03493 3.73458 0
M  V30 1332 N 135.985 -1.50799 -0.457987 0
M  V30 1333 C 136.915 -1.73553 -1.5621 0
M  V30 1334 C 137.896 -0.584774 -1.59732 0
M  V30 1335 O 139.081 -0.825314 -1.7579 0
M  V30 1336 C 136.211 -1.84169 -2.94447 0
M  V30 1337 C 135.165 -2.99461 -3.0579 0
M  V30 1338 C 134.491 -2.95235 -4.45803 0
M  V30 1339 C 135.791 -4.39766 -2.81786 0
M  V30 1340 H 137.485 -2.66 -1.37421 0
M  V30 1341 H 135.031 -1.28002 -0.659662 0
M  V30 1342 H 136.984 -1.98672 -3.71628 0
M  V30 1343 H 135.708 -0.883545 -3.14422 0
M  V30 1344 H 134.367 -2.8463 -2.31044 0
M  V30 1345 H 134.015 -1.97239 -4.62715 0
M  V30 1346 H 133.715 -3.72642 -4.54326 0
M  V30 1347 H 135.239 -3.11803 -5.24987 0
M  V30 1348 H 136.653 -4.55054 -3.4871 0
M  V30 1349 H 135.05 -5.18722 -3.0174 0
M  V30 1350 H 136.12 -4.51229 -1.7754 0
M  V30 1351 N 137.463 0.71206 -1.40597 0
M  V30 1352 C 138.393 1.83889 -1.43899 0
M  V30 1353 C 139.374 1.67442 -0.299504 0
M  V30 1354 O 140.559 1.87421 -0.508624 0
M  V30 1355 C 137.689 3.21877 -1.30431 0
M  V30 1356 C 136.643 3.53002 -2.42019 0
M  V30 1357 C 135.969 4.90172 -2.13626 0
M  V30 1358 C 137.269 3.53643 -3.84362 0
M  V30 1359 H 138.963 1.81383 -2.38203 0
M  V30 1360 H 136.509 0.871237 -1.14654 0
M  V30 1361 H 138.462 4.00404 -1.31357 0
M  V30 1362 H 137.186 3.24968 -0.326049 0
M  V30 1363 H 135.845 2.76818 -2.40349 0
M  V30 1364 H 135.493 4.89869 -1.14182 0
M  V30 1365 H 135.193 5.11962 -2.88389 0
M  V30 1366 H 136.717 5.71028 -2.1624 0
M  V30 1367 H 138.131 4.22203 -3.87837 0
M  V30 1368 H 136.528 3.86961 -4.58673 0
M  V30 1369 H 137.598 2.52954 -4.13693 0
M  V30 1370 N 138.941 1.26152 0.944643 0
M  V30 1371 C 140.169 1.14259 1.72489 0
M  V30 1372 C 140.584 -0.302555 1.8636 0
M  V30 1373 O 139.941 -1.20741 1.36849 0
M  V30 1374 C 139.992 1.80266 3.13347 0
M  V30 1375 O 139.713 3.19133 3.00143 0
M  V30 1376 C 141.214 1.74283 4.07603 0
M  V30 1377 H 138.434 0.398051 0.540181 0
M  V30 1378 H 140.978 1.66706 1.18446 0
M  V30 1379 H 139.133 1.31766 3.64303 0
M  V30 1380 H 139.547 3.51744 3.89071 0
M  V30 1381 H 141.021 2.25111 5.04013 0
M  V30 1382 H 141.498 0.708631 4.33446 0
M  V30 1383 H 142.104 2.22319 3.62567 0
M  V30 1384 N 140.419 -1.14872 1.07899 0
M  V30 1385 C 141.668 -1.85135 0.800499 0
M  V30 1386 C 141.981 -1.83547 -0.676014 0
M  V30 1387 O 143.187 -2.49548 -1.06948 0
M  V30 1388 C 141.643 -3.3231 1.38197 0
M  V30 1389 C 141.251 -3.42329 2.8899 0
M  V30 1390 C 142.995 -4.0772 1.18174 0
M  V30 1391 C 140.902 -4.83684 3.403 0
M  V30 1392 H 139.832 -0.693563 0.29578 0
M  V30 1393 H 142.483 -1.29532 1.29976 0
M  V30 1394 H 140.865 -3.87618 0.810431 0
M  V30 1395 H 142.039 -2.97097 3.52236 0
M  V30 1396 H 140.354 -2.80369 3.07867 0
M  V30 1397 H 142.951 -5.12049 1.5398 0
M  V30 1398 H 143.294 -4.16124 0.12117 0
M  V30 1399 H 143.827 -3.58696 1.71994 0
M  V30 1400 H 140.566 -4.80465 4.45907 0
M  V30 1401 H 140.086 -5.29474 2.81811 0
M  V30 1402 H 141.765 -5.52558 3.36584 0
M  V30 1403 N 141.898 -0.863906 -1.31812 0
M  V30 1404 C 142.861 -0.320212 -2.26952 0
M  V30 1405 C 143.861 0.525369 -1.51975 0
M  V30 1406 O 145.051 0.335547 -1.70938 0
M  V30 1407 C 142.183 0.545919 -3.365 0
M  V30 1408 H 143.376 -1.16004 -2.76556 0
M  V30 1409 H 140.929 -0.638995 -1.42641 0
M  V30 1410 H 141.664 1.40718 -2.92179 0
M  V30 1411 H 141.449 -0.0594674 -3.92055 0
M  V30 1412 H 142.939 0.918796 -4.07367 0
M  V30 1413 N 143.376 1.44774 -0.622745 0
M  V30 1414 C 144.624 2.01721 -0.123655 0
M  V30 1415 C 144.945 1.49172 1.25589 0
M  V30 1416 O 144.215 0.691974 1.83272 0
M  V30 1417 H 142.795 0.745777 -0.0427225 0
M  V30 1418 H 145.457 1.77382 -0.807559 0
M  V30 1419 H 144.553 3.11984 -0.0849534 0
M  V30 1420 N 144.854 0.36279 1.53368 0
M  V30 1421 C 145.802 -0.500155 2.27159 0
M  V30 1422 C 146.796 -1.08575 1.3003 0
M  V30 1423 O 148.002 -1.02927 1.47668 0
M  V30 1424 H 144.377 -0.180009 0.730138 0
M  V30 1425 H 146.348 0.14401 2.98052 0
M  V30 1426 C 145.097 -1.62937 3.07159 0
M  V30 1427 H 144.42 -1.18806 3.8174 0
M  V30 1428 H 145.86 -2.20795 3.61975 0
M  V30 1429 C 144.319 -2.57007 2.17829 0
M  V30 1430 O 144.849 -3.59752 1.78721 0
M  V30 1431 N 143.055 -2.26131 1.82518 0
M  V30 1432 H 142.602 -1.42616 2.14519 0
M  V30 1433 H 142.56 -2.89327 1.23034 0
M  V30 1434 N 146.332 -1.57332 0.0918853 0
M  V30 1435 C 147.572 -1.96117 -0.575988 0
M  V30 1436 C 147.936 -0.972499 -1.65549 0
M  V30 1437 O 149.137 -1.24872 -2.38034 0
M  V30 1438 C 147.408 -3.39407 -1.11973 0
M  V30 1439 S 148.967 -4.00185 -1.79992 0
M  V30 1440 H 145.785 -0.685682 -0.188045 0
M  V30 1441 H 148.387 -1.94755 0.170525 0
M  V30 1442 H 147.091 -4.09131 -0.322504 0
M  V30 1443 H 146.622 -3.44358 -1.90214 0
M  V30 1444 H 148.637 -3.88728 -3.08391 0
M  V30 1445 N 147.81 0.181792 -1.56548 0
M  V30 1446 C 148.74 1.22765 -1.98623 0
M  V30 1447 C 149.721 1.46747 -0.860189 0
M  V30 1448 O 150.906 1.58259 -1.12551 0
M  V30 1449 C 148.036 2.56894 -2.33715 0
M  V30 1450 C 146.99 2.475 -3.49182 0
M  V30 1451 C 146.316 3.86023 -3.69986 0
M  V30 1452 C 147.616 1.98866 -4.82959 0
M  V30 1453 H 149.31 0.877942 -2.86239 0
M  V30 1454 H 146.856 0.42088 -1.37712 0
M  V30 1455 H 148.809 3.30253 -2.61746 0
M  V30 1456 H 147.533 2.93632 -1.42997 0
M  V30 1457 H 146.192 1.76596 -3.21262 0
M  V30 1458 H 145.84 4.20136 -2.76576 0
M  V30 1459 H 145.54 3.80609 -4.47672 0
M  V30 1460 H 147.064 4.60984 -4.00407 0
M  V30 1461 H 148.478 2.61992 -5.09934 0
M  V30 1462 H 146.875 2.04424 -5.64208 0
M  V30 1463 H 147.945 0.942465 -4.75653 0
M  V30 1464 N 149.288 1.51039 0.449983 0
M  V30 1465 C 150.534 1.63322 1.20223 0
M  V30 1466 C 150.867 0.34241 1.91158 0
M  V30 1467 O 150.142 -0.657344 1.83055 0
M  V30 1468 C 150.425 2.82801 2.22925 0
M  V30 1469 C 150.278 4.21823 1.56157 0
M  V30 1470 C 151.597 2.97807 3.24035 0
M  V30 1471 H 148.716 0.594407 0.435718 0
M  V30 1472 H 151.358 1.83489 0.493136 0
M  V30 1473 H 149.508 2.65738 2.834 0
M  V30 1474 H 151.18 4.50526 0.991162 0
M  V30 1475 H 149.423 4.25105 0.864172 0
M  V30 1476 H 150.094 5.01391 2.30891 0
M  V30 1477 H 152.57 3.13497 2.73603 0
M  V30 1478 H 151.446 3.82992 3.93202 0
M  V30 1479 H 151.707 2.09328 3.89402 0
M  V30 1480 N 150.766 -0.704594 1.40972 0
M  V30 1481 C 152.012 -1.46675 1.40051 0
M  V30 1482 C 152.345 -1.94199 0.00641102 0
M  V30 1483 O 151.62 -1.68916 -0.964235 0
M  V30 1484 C 151.903 -2.68505 2.39952 0
M  V30 1485 C 151.756 -2.26805 3.88432 0
M  V30 1486 C 153.075 -3.70686 2.37233 0
M  V30 1487 H 150.194 -0.532015 0.510028 0
M  V30 1488 H 152.836 -0.803255 1.72185 0
M  V30 1489 H 150.986 -3.25114 2.1268 0
M  V30 1490 H 152.658 -1.75592 4.26574 0
M  V30 1491 H 150.901 -1.58685 4.03734 0
M  V30 1492 H 151.572 -3.14181 4.53866 0
M  V30 1493 H 154.048 -3.23731 2.61415 0
M  V30 1494 H 152.924 -4.53553 3.09162 0
M  V30 1495 H 153.185 -4.19754 1.38777 0
M  V30 1496 N 152.244 -1.26651 -0.937939 0
M  V30 1497 C 153.493 -1.11775 -1.67897 0
M  V30 1498 C 153.806 0.33794 -1.92659 0
M  V30 1499 O 155.012 0.607434 -2.64618 0
M  V30 1500 C 153.468 -1.9523 -3.02346 0
M  V30 1501 C 153.076 -3.45393 -2.8532 0
M  V30 1502 C 154.82 -1.88972 -3.80118 0
M  V30 1503 C 152.727 -4.21083 -4.15263 0
M  V30 1504 H 151.657 -0.414696 -0.629717 0
M  V30 1505 H 154.308 -1.50988 -1.04283 0
M  V30 1506 H 152.69 -1.48853 -3.66959 0
M  V30 1507 H 153.864 -3.99561 -2.29537 0
M  V30 1508 H 152.179 -3.52921 -2.20988 0
M  V30 1509 H 154.776 -2.42805 -4.76392 0
M  V30 1510 H 155.119 -0.86113 -4.07296 0
M  V30 1511 H 155.652 -2.33189 -3.22285 0
M  V30 1512 H 152.391 -5.24425 -3.93267 0
M  V30 1513 H 151.911 -3.71695 -4.70747 0
M  V30 1514 H 153.59 -4.29706 -4.83696 0
M  V30 1515 N 153.722 1.14298 -1.08507 0
M  V30 1516 C 154.947 1.8976 -0.837001 0
M  V30 1517 C 155.372 1.78097 0.605228 0
M  V30 1518 O 154.73 1.12188 1.4242 0
M  V30 1519 C 154.778 3.37685 -1.26495 0
M  V30 1520 O 153.882 4.10281 -0.417514 0
M  V30 1521 H 153.223 0.590365 -0.303917 0
M  V30 1522 H 155.753 1.44672 -1.44676 0
M  V30 1523 H 155.763 3.88501 -1.24625 0
M  V30 1524 H 154.438 3.45492 -2.31534 0
M  V30 1525 H 153.015 3.69536 -0.499722 0
M  V30 1526 N 155.201 0.870884 1.31352 0
M  V30 1527 C 156.447 0.482987 1.96965 0
M  V30 1528 C 156.78 -0.962462 1.68672 0
M  V30 1529 O 156.055 -1.6779 0.98371 0
M  V30 1530 C 156.338 0.741752 3.52378 0
M  V30 1531 C 156.191 2.2368 3.9024 0
M  V30 1532 C 157.51 0.208838 4.39604 0
M  V30 1533 H 154.629 0.176955 0.715441 0
M  V30 1534 H 157.271 1.09229 1.55464 0
M  V30 1535 H 155.421 0.223149 3.87859 0
M  V30 1536 H 157.093 2.82273 3.64856 0
M  V30 1537 H 155.336 2.70901 3.38814 0
M  V30 1538 H 156.007 2.3685 4.98604 0
M  V30 1539 H 158.483 0.652529 4.10952 0
M  V30 1540 H 157.359 0.419336 5.47296 0
M  V30 1541 H 157.62 -0.889275 4.33064 0
M  V30 1542 N 156.679 -1.44442 0.630414 0
M  V30 1543 C 157.919 -2.03934 0.137919 0
M  V30 1544 C 158.283 -1.48509 -1.21692 0
M  V30 1545 O 159.484 -1.99499 -1.80149 0
M  V30 1546 C 157.755 -3.57187 0.123373 0
M  V30 1547 S 159.314 -4.37741 -0.304604 0
M  V30 1548 H 156.132 -0.708401 0.0607353 0
M  V30 1549 H 158.734 -1.76835 0.833643 0
M  V30 1550 H 157.438 -3.95032 1.11256 0
M  V30 1551 H 156.969 -3.88895 -0.59362 0
M  V30 1552 H 158.984 -4.71403 -1.54897 0
M  V30 1553 N 158.157 -0.370918 -1.53173 0
M  V30 1554 C 159.404 0.217102 -2.01333 0
M  V30 1555 C 159.732 1.48338 -1.25802 0
M  V30 1556 O 158.987 1.92698 -0.34146 0
M  V30 1557 C 159.286 0.549696 -3.53147 0
M  V30 1558 C 158.952 -0.622872 -4.46577 0
M  V30 1559 C 157.614 -0.944595 -4.71838 0
M  V30 1560 C 159.966 -1.40819 -5.01816 0
M  V30 1561 C 157.294 -2.05351 -5.49589 0
M  V30 1562 C 159.646 -2.50757 -5.80778 0
M  V30 1563 C 158.31 -2.83458 -6.04324 0
M  V30 1564 H 157.58 0.0794431 -0.736729 0
M  V30 1565 H 160.227 -0.504481 -1.84736 0
M  V30 1566 H 158.532 1.35237 -3.6772 0
M  V30 1567 H 160.229 1.017 -3.87889 0
M  V30 1568 H 156.819 -0.36209 -4.27068 0
M  V30 1569 H 161.003 -1.17289 -4.82242 0
M  V30 1570 H 156.259 -2.3108 -5.6605 0
M  V30 1571 H 160.433 -3.12022 -6.22588 0
M  V30 1572 H 158.06 -3.69508 -6.64355 0
M  V30 1573 N 159.635 1.57281 -0.100228 0
M  V30 1574 C 160.881 1.94826 0.563101 0
M  V30 1575 C 161.214 0.982475 1.67514 0
M  V30 1576 O 160.489 0.0164069 1.94493 0
M  V30 1577 C 160.772 3.42453 1.11346 0
M  V30 1578 C 160.625 4.498 0.00612081 0
M  V30 1579 C 161.944 3.91506 2.01024 0
M  V30 1580 H 159.063 0.708428 0.203221 0
M  V30 1581 H 161.705 1.8922 -0.171979 0
M  V30 1582 H 159.855 3.47361 1.7399 0
M  V30 1583 H 161.527 4.57 -0.628357 0
M  V30 1584 H 159.77 4.28756 -0.659581 0
M  V30 1585 H 160.441 5.50306 0.432109 0
M  V30 1586 H 162.917 3.88784 1.48278 0
M  V30 1587 H 161.793 4.95358 2.36457 0
M  V30 1588 H 162.054 3.31099 2.92961 0
M  V30 1589 N 161.113 -0.173488 1.56642 0
M  V30 1590 C 162.06 -1.21482 1.96242 0
M  V30 1591 C 163.03 -1.44104 0.826027 0
M  V30 1592 O 164.215 -1.5688 1.08597 0
M  V30 1593 C 161.355 -2.54964 2.32567 0
M  V30 1594 C 160.468 -2.39739 3.59373 0
M  V30 1595 C 159.603 -3.66072 3.84921 0
M  V30 1596 C 158.642 -3.45771 5.05083 0
M  V30 1597 N 157.779 -4.64169 5.26775 0
M  V30 1598 H 162.619 -0.870123 2.85014 0
M  V30 1599 H 160.156 -0.418245 1.41029 0
M  V30 1600 H 162.114 -3.32758 2.5165 0
M  V30 1601 H 160.744 -2.87433 1.46908 0
M  V30 1602 H 159.796 -1.53131 3.48217 0
M  V30 1603 H 161.108 -2.20683 4.47326 0
M  V30 1604 H 160.262 -4.52303 4.0436 0
M  V30 1605 H 159.001 -3.88105 2.9534 0
M  V30 1606 H 158.006 -2.57927 4.85545 0
M  V30 1607 H 159.231 -3.25163 5.96193 0
M  V30 1608 H 157.177 -4.86425 4.40144 0
M  V30 1609 H 157.094 -4.48019 6.08946 0
M  V30 1610 H 158.362 -5.51689 5.5069 0
M  V30 1611 N 162.591 -1.51276 -0.441967 0
M  V30 1612 C 163.538 -1.72256 -1.53612 0
M  V30 1613 C 164.508 -0.564164 -1.56225 0
M  V30 1614 O 165.693 -0.798074 -1.73307 0
M  V30 1615 C 162.833 -1.84932 -2.91366 0
M  V30 1616 C 161.946 -3.12459 -2.98317 0
M  V30 1617 C 161.081 -3.15758 -4.27166 0
M  V30 1618 C 160.12 -4.37619 -4.27967 0
M  V30 1619 N 159.257 -4.38493 -5.48333 0
M  V30 1620 H 164.097 -2.65654 -1.35026 0
M  V30 1621 H 161.634 -1.31662 -0.656009 0
M  V30 1622 H 163.592 -1.90263 -3.7129 0
M  V30 1623 H 162.222 -0.949461 -3.08521 0
M  V30 1624 H 161.274 -3.1646 -2.11086 0
M  V30 1625 H 162.586 -4.02382 -2.94771 0
M  V30 1626 H 161.74 -3.19979 -5.15459 0
M  V30 1627 H 160.479 -2.23715 -4.33362 0
M  V30 1628 H 159.484 -4.33579 -3.38067 0
M  V30 1629 H 160.709 -5.30921 -4.23438 0
M  V30 1630 H 158.655 -3.49318 -5.55259 0
M  V30 1631 H 158.572 -5.22219 -5.46647 0
M  V30 1632 H 159.84 -4.469 -6.38671 0
M  V30 1633 N 164.069 0.697108 -1.41344 0
M  V30 1634 C 164.999 1.82353 -1.45841 0
M  V30 1635 C 165.98 1.67115 -0.317247 0
M  V30 1636 O 167.165 1.86871 -0.528474 0
M  V30 1637 C 164.295 3.20476 -1.33838 0
M  V30 1638 C 163.249 3.50415 -2.4575 0
M  V30 1639 C 162.575 4.87878 -2.18813 0
M  V30 1640 C 163.875 3.49546 -3.88091 0
M  V30 1641 H 165.569 1.78846 -2.40113 0
M  V30 1642 H 163.115 0.859028 -1.15571 0
M  V30 1643 H 165.068 3.98988 -1.35596 0
M  V30 1644 H 163.792 3.24604 -0.360498 0
M  V30 1645 H 162.451 2.74253 -2.43271 0
M  V30 1646 H 162.099 4.8863 -1.19371 0
M  V30 1647 H 161.799 5.08875 -2.93803 0
M  V30 1648 H 163.323 5.68702 -2.22284 0
M  V30 1649 H 164.737 4.18066 -3.92293 0
M  V30 1650 H 163.134 3.82075 -4.62751 0
M  V30 1651 H 164.204 2.48552 -4.16353 0
M  V30 1652 N 165.547 1.27147 0.931209 0
M  V30 1653 C 166.963 1.04475 1.20653 0
M  V30 1654 C 167.163 -0.223885 2.00252 0
M  V30 1655 O 166.219 -0.930332 2.34736 0
M  V30 1656 C 167.532 2.28209 1.95809 0
M  V30 1657 C 169.08 2.33211 2.08762 0
M  V30 1658 C 169.555 3.56665 2.87323 0
M  V30 1659 N 171.046 3.57201 2.94892 0
M  V30 1660 C 171.781 4.49395 3.56134 0
M  V30 1661 N 171.277 5.51889 4.18796 0
M  V30 1662 N 173.07 4.37026 3.53504 0
M  V30 1663 H 165.221 2.08612 0.399333 0
M  V30 1664 H 167.484 0.917312 0.239253 0
M  V30 1665 H 167.19 3.20538 1.44736 0
M  V30 1666 H 167.064 2.33247 2.96438 0
M  V30 1667 H 169.451 1.41391 2.59023 0
M  V30 1668 H 169.532 2.32178 1.07364 0
M  V30 1669 H 169.176 4.4882 2.37746 0
M  V30 1670 H 169.106 3.54948 3.88998 0
M  V30 1671 H 171.597 2.83074 2.50354 0
M  V30 1672 H 171.91 6.18409 4.63454 0
M  V30 1673 H 170.255 5.55735 4.17353 0
M  V30 1674 H 173.446 3.56166 3.03749 0
M  V30 1675 H 173.619 5.09067 4.00942 0
M  V30 1676 N 167.025 -1.13721 1.09112 0
M  V30 1677 C 167.957 -2.1871 0.685467 0
M  V30 1678 C 168.97 -1.60527 -0.271068 0
M  V30 1679 O 170.159 -1.78407 -0.0576148 0
M  V30 1680 C 167.259 -3.38898 -0.0111255 0
M  V30 1681 C 166.432 -4.26597 0.966131 0
M  V30 1682 C 165.491 -5.25324 0.303539 0
M  V30 1683 O 164.517 -5.61213 0.950177 0
M  V30 1684 N 165.719 -5.72779 -0.943651 0
M  V30 1685 H 168.484 -2.54126 1.58871 0
M  V30 1686 H 166.045 -1.29012 0.978143 0
M  V30 1687 H 168.037 -4.02014 -0.465517 0
M  V30 1688 H 166.607 -3.01747 -0.816565 0
M  V30 1689 H 165.827 -3.60306 1.59917 0
M  V30 1690 H 167.115 -4.82048 1.6281 0
M  V30 1691 H 166.513 -5.45762 -1.48862 0
M  V30 1692 H 165.07 -6.37847 -1.34142 0
M  V30 1693 N 168.503 -0.877838 -1.30888 0
M  V30 1694 C 169.914 -0.544193 -1.78593 0
M  V30 1695 C 170.265 0.939301 -1.72254 0
M  V30 1696 O 169.39 1.7337 -1.29505 0
M  V30 1697 C 169.985 -0.98105 -3.24285 0
M  V30 1698 C 168.544 -0.698935 -3.69854 0
M  V30 1699 C 167.691 -1.168 -2.51502 0
M  V30 1700 H 170.642 -1.06278 -1.17859 0
M  V30 1701 H 170.663 -0.307009 -3.79259 0
M  V30 1702 H 170.175 -2.06079 -3.28866 0
M  V30 1703 H 168.276 0.369112 -3.70767 0
M  V30 1704 H 168.389 -1.28148 -4.61644 0
M  V30 1705 H 166.753 -0.587535 -2.47831 0
M  V30 1706 H 167.536 -2.25533 -2.58824 0
M  V30 1707 N 169.982 1.44106 -0.638065 0
M  V30 1708 C 171.207 2.0685 -0.150916 0
M  V30 1709 C 171.632 1.47417 1.16833 0
M  V30 1710 O 170.99 0.578264 1.71831 0
M  V30 1711 C 171.038 3.60555 -0.05708 0
M  V30 1712 O 170.142 4.00465 0.984972 0
M  V30 1713 H 169.483 0.658151 -0.0879399 0
M  V30 1714 H 172.013 1.84865 -0.876707 0
M  V30 1715 H 172.023 4.07789 0.131232 0
M  V30 1716 H 170.698 4.03193 -1.02021 0
M  V30 1717 H 169.275 3.64849 0.770672 0
M  V30 1718 N 171.46 0.379036 1.52974 0
M  V30 1719 C 172.408 -0.476033 2.27677 0
M  V30 1720 C 173.402 -1.0719 1.31174 0
M  V30 1721 O 174.608 -1.01355 1.48752 0
M  V30 1722 H 170.983 -0.172255 0.732006 0
M  V30 1723 H 172.954 0.175615 2.97883 0
M  V30 1724 C 171.703 -1.5967 3.0887 0
M  V30 1725 H 171.026 -1.1475 3.82978 0
M  V30 1726 H 172.466 -2.16943 3.64296 0
M  V30 1727 C 170.925 -2.54682 2.20542 0
M  V30 1728 O 171.455 -3.57836 1.82527 0
M  V30 1729 N 169.661 -2.24183 1.84907 0
M  V30 1730 H 169.208 -1.40333 2.1602 0
M  V30 1731 H 169.166 -2.88006 1.26096 0
M  V30 1732 N 172.938 -1.57226 0.108567 0
M  V30 1733 C 174.168 -1.9889 -0.559142 0
M  V30 1734 C 174.576 -0.986889 -1.61422 0
M  V30 1735 O 173.919 0.0298705 -1.83676 0
M  V30 1736 C 173.981 -3.36952 -1.25315 0
M  V30 1737 C 173.645 -4.55679 -0.347248 0
M  V30 1738 C 174.642 -5.18281 0.409996 0
M  V30 1739 C 172.327 -5.0162 -0.261367 0
M  V30 1740 C 174.321 -6.25203 1.24096 0
M  V30 1741 C 172.008 -6.08405 0.573238 0
M  V30 1742 C 173.006 -6.70063 1.32304 0
M  V30 1743 O 172.694 -7.74788 2.14381 0
M  V30 1744 H 172.426 -0.658343 -0.153492 0
M  V30 1745 H 174.98 -2.04532 0.188584 0
M  V30 1746 H 173.21 -3.28032 -2.04773 0
M  V30 1747 H 174.899 -3.62974 -1.81673 0
M  V30 1748 H 175.665 -4.8371 0.353457 0
M  V30 1749 H 171.544 -4.53381 -0.834656 0
M  V30 1750 H 175.088 -6.73259 1.82669 0
M  V30 1751 H 170.985 -6.42406 0.631208 0
M  V30 1752 H 171.753 -7.91837 2.07209 0
M  V30 1753 N 174.416 0.165178 -1.56732 0
M  V30 1754 C 175.346 1.20651 -1.99914 0
M  V30 1755 C 176.327 1.45827 -0.875705 0
M  V30 1756 O 177.512 1.57057 -1.14223 0
M  V30 1757 C 174.642 2.54401 -2.36427 0
M  V30 1758 C 173.596 2.43782 -3.51787 0
M  V30 1759 C 172.922 3.82078 -3.7406 0
M  V30 1760 C 174.222 1.93732 -4.85041 0
M  V30 1761 H 175.916 0.847534 -2.87154 0
M  V30 1762 H 173.462 0.40625 -1.38151 0
M  V30 1763 H 175.415 3.27458 -2.65234 0
M  V30 1764 H 174.139 2.92098 -1.46103 0
M  V30 1765 H 172.798 1.73178 -3.23117 0
M  V30 1766 H 172.446 4.17179 -2.81017 0
M  V30 1767 H 172.146 3.7584 -4.51684 0
M  V30 1768 H 173.67 4.56712 -4.05274 0
M  V30 1769 H 175.084 2.56569 -5.12684 0
M  V30 1770 H 173.481 1.98428 -5.66345 0
M  V30 1771 H 174.551 0.891962 -4.76626 0
M  V30 1772 N 175.894 1.51508 0.433938 0
M  V30 1773 C 177.143 1.63578 1.18005 0
M  V30 1774 C 177.456 0.359514 1.92268 0
M  V30 1775 O 178.662 0.359632 2.69108 0
M  V30 1776 C 177.118 2.88901 2.14626 0
M  V30 1777 C 176.726 4.23544 1.45995 0
M  V30 1778 C 178.47 3.10328 2.89649 0
M  V30 1779 C 176.377 5.40014 2.4112 0
M  V30 1780 H 175.307 0.609277 0.444182 0
M  V30 1781 H 177.958 1.77978 0.446773 0
M  V30 1782 H 176.34 2.68142 2.91403 0
M  V30 1783 H 177.514 4.54696 0.747532 0
M  V30 1784 H 175.829 4.08021 0.831115 0
M  V30 1785 H 178.426 3.94518 3.60915 0
M  V30 1786 H 178.769 2.23544 3.51189 0
M  V30 1787 H 179.302 3.31443 2.19978 0
M  V30 1788 H 176.041 6.29068 1.84264 0
M  V30 1789 H 175.561 5.13233 3.10406 0
M  V30 1790 H 177.24 5.72099 3.02177 0
M  V30 1791 N 177.372 -0.689602 1.41712 0
M  V30 1792 C 178.618 -1.45181 1.41599 0
M  V30 1793 C 178.951 -1.94181 0.0270081 0
M  V30 1794 O 178.226 -1.6993 -0.946265 0
M  V30 1795 C 178.509 -2.65945 2.42787 0
M  V30 1796 C 178.362 -2.22672 3.90816 0
M  V30 1797 C 179.681 -3.68149 2.41151 0
M  V30 1798 H 176.8 -0.526576 0.515642 0
M  V30 1799 H 179.442 -0.784947 1.73028 0
M  V30 1800 H 177.592 -3.2284 2.16116 0
M  V30 1801 H 179.264 -1.71058 4.28412 0
M  V30 1802 H 177.507 -1.54394 4.05395 0
M  V30 1803 H 178.178 -3.0935 4.57172 0
M  V30 1804 H 180.654 -3.2094 2.64834 0
M  V30 1805 H 179.53 -4.50248 3.13955 0
M  V30 1806 H 179.791 -4.18259 1.43221 0
M  V30 1807 N 178.85 -1.27639 -0.924453 0
M  V30 1808 C 180.075 -1.17101 -1.71179 0
M  V30 1809 C 180.5 0.268134 -1.86179 0
M  V30 1810 O 179.858 1.19415 -1.36418 0
M  V30 1811 C 179.906 -1.86313 -3.08739 0
M  V30 1812 O 179.01 -1.16331 -3.95652 0
M  V30 1813 H 178.351 -0.407091 -0.524569 0
M  V30 1814 H 180.881 -1.68767 -1.15666 0
M  V30 1815 H 180.891 -1.938 -3.59034 0
M  V30 1816 H 179.566 -2.91001 -2.97138 0
M  V30 1817 H 178.143 -1.16935 -3.54091 0
M  V30 1818 N 180.328 1.1314 -1.09713 0
M  V30 1819 C 181.258 2.20748 -0.761102 0
M  V30 1820 C 182.239 1.68061 0.262566 0
M  V30 1821 O 183.424 1.93765 0.129977 0
M  V30 1822 C 180.554 3.46812 -0.184054 0
M  V30 1823 C 179.508 4.12606 -1.13757 0
M  V30 1824 C 178.834 5.33031 -0.422083 0
M  V30 1825 C 180.134 4.59603 -2.48118 0
M  V30 1826 H 181.828 2.49113 -1.66082 0
M  V30 1827 H 179.374 1.19734 -0.799987 0
M  V30 1828 H 181.327 4.21353 0.0631215 0
M  V30 1829 H 180.051 3.17851 0.750868 0
M  V30 1830 H 178.71 3.40036 -1.37007 0
M  V30 1831 H 178.358 5.00335 0.517072 0
M  V30 1832 H 178.058 5.77999 -1.05788 0
M  V30 1833 H 179.582 6.10325 -0.183277 0
M  V30 1834 H 180.996 5.25552 -2.29059 0
M  V30 1835 H 179.393 5.15321 -3.07514 0
M  V30 1836 H 180.463 3.73971 -3.08665 0
M  V30 1837 N 181.806 0.884767 1.30421 0
M  V30 1838 C 182.769 0.356277 2.26414 0
M  V30 1839 C 183.769 -0.501124 1.52792 0
M  V30 1840 O 184.959 -0.30831 1.7145 0
M  V30 1841 C 182.091 -0.492316 3.37326 0
M  V30 1842 H 183.284 1.20389 2.74675 0
M  V30 1843 H 180.837 0.661607 1.41607 0
M  V30 1844 H 181.572 -1.36052 2.94381 0
M  V30 1845 H 181.357 0.121832 3.91911 0
M  V30 1846 H 182.847 -0.853871 4.08777 0
M  V30 1847 N 183.284 -1.43765 0.645699 0
M  V30 1848 C 184.214 -2.33471 -0.0370477 0
M  V30 1849 C 185.195 -1.49042 -0.819779 0
M  V30 1850 O 186.38 -1.77726 -0.782758 0
M  V30 1851 C 183.51 -3.32311 -1.0093 0
M  V30 1852 C 182.464 -4.2667 -0.337201 0
M  V30 1853 C 181.79 -5.1549 -1.42037 0
M  V30 1854 C 183.09 -5.16657 0.765706 0
M  V30 1855 H 184.784 -2.90809 0.712069 0
M  V30 1856 H 182.33 -1.39834 0.343876 0
M  V30 1857 H 184.283 -3.9396 -1.49578 0
M  V30 1858 H 183.007 -2.73213 -1.78948 0
M  V30 1859 H 181.666 -3.66374 0.128771 0
M  V30 1860 H 181.314 -4.52735 -2.1918 0
M  V30 1861 H 181.014 -5.79438 -0.975966 0
M  V30 1862 H 182.538 -5.80012 -1.90838 0
M  V30 1863 H 183.952 -5.72158 0.361702 0
M  V30 1864 H 182.349 -5.89286 1.13413 0
M  V30 1865 H 183.419 -4.56796 1.62683 0
M  V30 1866 N 184.763 -0.387143 -1.52771 0
M  V30 1867 C 185.726 0.436939 -2.24997 0
M  V30 1868 C 186.726 0.991991 -1.26555 0
M  V30 1869 O 187.916 0.874335 -1.50669 0
M  V30 1870 C 185.048 1.61281 -3.00335 0
M  V30 1871 H 186.241 -0.195365 -2.99263 0
M  V30 1872 H 183.794 -0.139218 -1.55679 0
M  V30 1873 H 184.529 2.2826 -2.30364 0
M  V30 1874 H 184.314 1.22154 -3.72587 0
M  V30 1875 H 185.804 2.19629 -3.5518 0
M  V30 1876 N 186.241 1.57166 -0.116904 0
M  V30 1877 C 187.518 1.86645 0.585049 0
M  V30 1878 C 187.898 1.0177 1.84949 0
M  V30 1879 O 187.246 0.0960379 2.28298 0
M  V30 1880 C 187.456 3.37736 0.879507 0
M  V30 1881 C 188.804 4.06289 1.23348 0
M  V30 1882 O 189.828 3.42743 0.969836 0
M  V30 1883 O 188.687 5.18455 1.7282 0
M  V30 1884 H 185.781 0.772593 0.295007 0
M  V30 1885 H 188.327 1.69025 -0.151249 0
M  V30 1886 H 187.099 3.91296 -0.0166136 0
M  V30 1887 H 186.722 3.6078 1.67103 0
M  V30 1888 N 187.719 -0.156864 1.56817 0
M  V30 1889 C 188.649 -1.19589 2.00551 0
M  V30 1890 C 189.63 -1.4536 0.883426 0
M  V30 1891 O 190.815 -1.56449 1.15054 0
M  V30 1892 C 187.945 -2.53143 2.37773 0
M  V30 1893 C 186.899 -2.41913 3.53075 0
M  V30 1894 C 186.225 -3.80088 3.76081 0
M  V30 1895 C 187.525 -1.91157 4.86062 0
M  V30 1896 H 189.219 -0.832293 2.87599 0
M  V30 1897 H 186.765 -0.398918 1.38364 0
M  V30 1898 H 188.718 -3.26047 2.66967 0
M  V30 1899 H 187.442 -2.91319 1.4765 0
M  V30 1900 H 186.101 -1.71462 3.24031 0
M  V30 1901 H 185.749 -4.15683 2.83225 0
M  V30 1902 H 185.449 -3.73439 4.53671 0
M  V30 1903 H 186.973 -4.54556 4.0769 0
M  V30 1904 H 188.387 -2.53846 5.14038 0
M  V30 1905 H 186.784 -1.95422 5.67389 0
M  V30 1906 H 187.854 -0.866673 4.77092 0
M  V30 1907 N 189.197 -1.51736 -0.425897 0
M  V30 1908 C 190.422 -1.69082 -1.20108 0
M  V30 1909 C 190.847 -0.392398 -1.83962 0
M  V30 1910 O 190.205 0.64858 -1.69302 0
M  V30 1911 C 190.253 -2.81604 -2.25237 0
M  V30 1912 O 189.357 -2.46004 -3.30992 0
M  V30 1913 H 188.698 -0.563408 -0.35138 0
M  V30 1914 H 191.228 -1.98358 -0.501512 0
M  V30 1915 H 191.238 -3.06025 -2.69838 0
M  V30 1916 H 189.913 -3.75817 -1.78142 0
M  V30 1917 H 188.49 -2.32195 -2.91787 0
M  V30 1918 N 190.675 0.682077 -1.42076 0
M  V30 1919 C 191.921 1.44428 -1.42367 0
M  V30 1920 C 192.254 1.94164 -0.0373056 0
M  V30 1921 O 191.529 1.70429 0.937239 0
M  V30 1922 C 191.812 2.64654 -2.44194 0
M  V30 1923 C 191.665 2.20596 -3.91991 0
M  V30 1924 C 192.984 3.66865 -2.431 0
M  V30 1925 H 190.103 0.523834 -0.518428 0
M  V30 1926 H 192.745 0.77576 -1.73442 0
M  V30 1927 H 190.895 3.2169 -2.17826 0
M  V30 1928 H 192.567 1.68783 -4.29313 0
M  V30 1929 H 190.81 1.52242 -4.06208 0
M  V30 1930 H 191.481 3.06921 -4.58807 0
M  V30 1931 H 193.957 3.19531 -2.66532 0
M  V30 1932 H 192.833 4.48577 -3.16339 0
M  V30 1933 H 193.094 4.17493 -1.45437 0
M  V30 1934 N 192.153 1.28127 0.917671 0
M  V30 1935 C 193.116 1.11744 2.00115 0
M  V30 1936 C 194.116 0.0583052 1.60694 0
M  V30 1937 O 195.306 0.303755 1.71531 0
M  V30 1938 C 192.438 0.704862 3.33533 0
M  V30 1939 H 193.631 2.07966 2.16079 0
M  V30 1940 H 191.184 1.11058 1.09981 0
M  V30 1941 H 191.919 -0.258299 3.2327 0
M  V30 1942 H 191.704 1.4699 3.63505 0
M  V30 1943 H 193.194 0.612768 4.1308 0
M  V30 1944 N 193.631 -1.12557 1.10312 0
M  V30 1945 C 194.877 -1.84311 0.846011 0
M  V30 1946 C 195.21 -1.83805 -0.626859 0
M  V30 1947 O 194.485 -1.28268 -1.46211 0
M  V30 1948 C 194.768 -3.32048 1.39341 0
M  V30 1949 C 194.621 -3.41016 2.93305 0
M  V30 1950 C 195.94 -4.27764 1.03468 0
M  V30 1951 H 193.059 -0.669192 0.30879 0
M  V30 1952 H 195.701 -1.32057 1.36605 0
M  V30 1953 H 193.851 -3.76678 0.951087 0
M  V30 1954 H 195.523 -3.05031 3.46055 0
M  V30 1955 H 193.766 -2.81603 3.29973 0
M  V30 1956 H 194.437 -4.44948 3.26689 0
M  V30 1957 H 196.913 -3.91253 1.41633 0
M  V30 1958 H 195.789 -5.29549 1.44463 0
M  V30 1959 H 196.05 -4.42064 -0.0560404 0
M  V30 1960 N 195.109 -0.891671 -1.2995 0
M  V30 1961 C 196.072 -0.36828 -2.26222 0
M  V30 1962 C 197.072 0.493014 -1.53056 0
M  V30 1963 O 198.262 0.299213 -1.71611 0
M  V30 1964 C 195.394 0.47442 -3.37583 0
M  V30 1965 H 196.587 -1.21844 -2.74033 0
M  V30 1966 H 194.14 -0.669107 -1.41254 0
M  V30 1967 H 194.875 1.34489 -2.95099 0
M  V30 1968 H 194.66 -0.142615 -3.91841 0
M  V30 1969 H 196.15 0.83218 -4.09224 0
M  V30 1970 N 196.587 1.43421 -0.653314 0
M  V30 1971 C 197.833 2.02111 -0.166992 0
M  V30 1972 C 198.166 1.51423 1.21592 0
M  V30 1973 O 197.441 0.707389 1.8118 0
M  V30 1974 C 197.724 3.5966 -0.177948 0
M  V30 1975 C 197.577 4.20579 -1.59478 0
M  V30 1976 C 198.896 4.37413 0.4856 0
M  V30 1977 H 196.015 0.734374 -0.0621557 0
M  V30 1978 H 198.657 1.70717 -0.834016 0
M  V30 1979 H 196.807 3.86537 0.390032 0
M  V30 1980 H 198.479 4.04732 -2.21336 0
M  V30 1981 H 196.722 3.77226 -2.14204 0
M  V30 1982 H 197.393 5.29665 -1.5543 0
M  V30 1983 H 199.869 4.161 0.00234528 0
M  V30 1984 H 198.745 5.47075 0.447207 0
M  V30 1985 H 199.006 4.13672 1.55974 0
M  V30 1986 N 198.065 0.39524 1.52563 0
M  V30 1987 C 198.998 -0.4813 2.23067 0
M  V30 1988 C 199.976 -1.05927 1.23362 0
M  V30 1989 O 201.16 -1.10979 1.52368 0
M  V30 1990 C 198.287 -1.66676 2.9485 0
M  V30 1991 C 197.333 -1.21348 4.08873 0
M  V30 1992 S 198.166 -0.190102 5.35162 0
M  V30 1993 C 199.322 -1.38121 6.1047 0
M  V30 1994 H 199.555 0.117381 2.97068 0
M  V30 1995 H 197.088 0.179458 1.53354 0
M  V30 1996 H 199.046 -2.3466 3.36816 0
M  V30 1997 H 197.707 -2.23676 2.20518 0
M  V30 1998 H 196.9 -2.09877 4.58222 0
M  V30 1999 H 196.502 -0.612486 3.68951 0
M  V30 2000 H 198.794 -2.30726 6.37002 0
M  V30 2001 H 199.737 -0.928521 7.01986 0
M  V30 2002 H 200.145 -1.60071 5.41329 0
M  V30 2003 N 199.544 -1.57102 0.125237 0
M  V30 2004 C 200.955 -1.82384 -0.399142 0
M  V30 2005 C 201.306 -1.04276 -1.66195 0
M  V30 2006 O 200.431 -0.281269 -2.14564 0
M  V30 2007 C 201.026 -3.30821 -0.730932 0
M  V30 2008 C 199.585 -3.56762 -1.19992 0
M  V30 2009 C 198.732 -2.7649 -0.211792 0
M  V30 2010 H 201.683 -1.54786 0.350277 0
M  V30 2011 H 201.704 -3.4579 -1.58775 0
M  V30 2012 H 201.216 -3.87643 0.188345 0
M  V30 2013 H 199.317 -3.05305 -2.13588 0
M  V30 2014 H 199.43 -4.65317 -1.14093 0
M  V30 2015 H 197.794 -2.4489 -0.700085 0
M  V30 2016 H 198.577 -3.36073 0.700691 0
M  V30 2017 N 201.022 0.148545 -1.56898 0
M  V30 2018 C 202.269 0.861418 -1.83264 0
M  V30 2019 C 202.597 1.81239 -0.705883 0
M  V30 2020 O 201.852 1.93305 0.305212 0
M  V30 2021 C 202.151 1.67064 -3.1595 0
M  V30 2022 C 201.817 0.866591 -4.42494 0
M  V30 2023 C 200.479 0.644762 -4.76861 0
M  V30 2024 C 202.831 0.30418 -5.20312 0
M  V30 2025 C 200.159 -0.15021 -5.86508 0
M  V30 2026 C 202.511 -0.477824 -6.30793 0
M  V30 2027 C 201.175 -0.710244 -6.63711 0
M  V30 2028 H 200.445 0.315215 -0.670612 0
M  V30 2029 H 203.092 0.125142 -1.91091 0
M  V30 2030 H 201.397 2.47698 -3.03567 0
M  V30 2031 H 203.094 2.22566 -3.33565 0
M  V30 2032 H 199.684 1.04955 -4.15551 0
M  V30 2033 H 203.868 0.462844 -4.94137 0
M  V30 2034 H 199.124 -0.339796 -6.10455 0
M  V30 2035 H 203.298 -0.92076 -6.90286 0
M  V30 2036 H 200.925 -1.3281 -7.48509 0
M  V30 2037 N 202.5 1.5196 0.417844 0
M  V30 2038 C 203.746 1.65836 1.16732 0
M  V30 2039 C 204.079 0.382881 1.90388 0
M  V30 2040 O 203.354 -0.618368 1.84408 0
M  V30 2041 C 203.637 2.87466 2.16876 0
M  V30 2042 C 203.49 4.25041 1.47174 0
M  V30 2043 C 204.809 3.04613 3.17646 0
M  V30 2044 H 201.928 0.603515 0.423011 0
M  V30 2045 H 204.57 1.84494 0.454105 0
M  V30 2046 H 202.72 2.71689 2.777 0
M  V30 2047 H 204.392 4.52527 0.895376 0
M  V30 2048 H 202.635 4.26843 0.773806 0
M  V30 2049 H 203.306 5.06176 2.20204 0
M  V30 2050 H 205.782 3.1923 2.66892 0
M  V30 2051 H 204.658 3.91247 3.8499 0
M  V30 2052 H 204.919 2.17541 3.84874 0
M  V30 2053 N 203.978 -0.674533 1.42435 0
M  V30 2054 C 205.203 -1.46784 1.46524 0
M  V30 2055 C 205.628 -1.87938 0.078066 0
M  V30 2056 O 204.986 -1.56014 -0.92354 0
M  V30 2057 C 205.034 -2.69307 2.39805 0
M  V30 2058 O 204.138 -3.67587 1.86959 0
M  V30 2059 H 203.479 -0.440959 0.496439 0
M  V30 2060 H 206.009 -0.827326 1.87127 0
M  V30 2061 H 206.019 -3.17374 2.56393 0
M  V30 2062 H 204.694 -2.38692 3.40586 0
M  V30 2063 H 203.271 -3.2662 1.79927 0
M  V30 2064 N 205.456 -1.28612 -0.910864 0
M  V30 2065 C 206.702 -1.16106 -1.66274 0
M  V30 2066 C 207.035 0.289113 -1.92036 0
M  V30 2067 O 206.31 1.21 -1.52281 0
M  V30 2068 C 206.593 -1.96309 -3.01885 0
M  V30 2069 C 206.446 -3.49405 -2.8326 0
M  V30 2070 C 207.765 -1.78076 -4.02463 0
M  V30 2071 H 204.884 -0.423152 -0.603417 0
M  V30 2072 H 207.526 -1.57961 -1.05586 0
M  V30 2073 H 205.676 -1.60742 -3.53687 0
M  V30 2074 H 207.348 -3.94894 -2.38446 0
M  V30 2075 H 205.591 -3.74893 -2.18261 0
M  V30 2076 H 206.262 -4.00784 -3.79574 0
M  V30 2077 H 208.738 -2.0912 -3.59733 0
M  V30 2078 H 207.614 -2.36561 -4.95308 0
M  V30 2079 H 207.875 -0.733008 -4.35981 0
M  V30 2080 N 206.934 1.1197 -1.10907 0
M  V30 2081 C 208.162 1.87402 -0.876824 0
M  V30 2082 C 208.577 1.79894 0.573025 0
M  V30 2083 O 207.934 1.17629 1.39534 0
M  V30 2084 C 207.985 3.36428 -1.32282 0
M  V30 2085 O 207.706 3.43765 -2.71582 0
M  V30 2086 C 209.207 4.28783 -1.12518 0
M  V30 2087 H 206.427 0.592793 -0.314384 0
M  V30 2088 H 208.971 1.41649 -1.47499 0
M  V30 2089 H 207.126 3.79706 -0.768229 0
M  V30 2090 H 207.54 4.3652 -2.90776 0
M  V30 2091 H 209.014 5.31613 -1.48633 0
M  V30 2092 H 209.491 4.39153 -0.0642394 0
M  V30 2093 H 210.097 3.91291 -1.66648 0
M  V30 2094 N 208.412 0.89855 1.29475 0
M  V30 2095 C 209.689 0.443416 1.90508 0
M  V30 2096 C 210.069 -1.07685 1.81569 0
M  V30 2097 O 209.417 -1.9182 1.24166 0
M  V30 2098 C 209.627 0.956708 3.35631 0
M  V30 2099 C 210.975 0.999728 4.12663 0
M  V30 2100 O 211.999 0.904299 3.4453 0
M  V30 2101 O 210.858 1.14289 5.34416 0
M  V30 2102 H 207.952 0.138025 0.815401 0
M  V30 2103 H 210.498 0.98834 1.37949 0
M  V30 2104 H 209.27 2.00067 3.36287 0
M  V30 2105 H 208.893 0.391728 3.95666 0
M  V30 2106 N 209.89 -1.43072 0.660911 0
M  V30 2107 C 210.82 -2.33497 -0.0122829 0
M  V30 2108 C 211.801 -1.49903 -0.803925 0
M  V30 2109 O 212.986 -1.78546 -0.763864 0
M  V30 2110 C 210.116 -3.33363 -0.973994 0
M  V30 2111 C 209.07 -4.27003 -0.291928 0
M  V30 2112 C 208.396 -5.16967 -1.36562 0
M  V30 2113 C 209.696 -5.15816 0.820462 0
M  V30 2114 H 211.39 -2.90038 0.742873 0
M  V30 2115 H 208.936 -1.39461 0.358688 0
M  V30 2116 H 210.889 -3.95524 -1.45392 0
M  V30 2117 H 209.613 -2.75095 -1.7604 0
M  V30 2118 H 208.272 -3.66217 0.167623 0
M  V30 2119 H 207.92 -4.55034 -2.14366 0
M  V30 2120 H 207.62 -5.80441 -0.914454 0
M  V30 2121 H 209.144 -5.82003 -1.84675 0
M  V30 2122 H 210.558 -5.71742 0.422366 0
M  V30 2123 H 208.955 -5.8805 1.19656 0
M  V30 2124 H 210.025 -4.55045 1.67518 0
M  V30 2125 N 211.368 -0.403325 -1.52352 0
M  V30 2126 C 212.617 0.175668 -2.00934 0
M  V30 2127 C 212.93 1.46718 -1.29356 0
M  V30 2128 O 214.136 2.12708 -1.68724 0
M  V30 2129 C 212.592 0.363612 -3.58058 0
M  V30 2130 C 212.2 -0.915472 -4.38547 0
M  V30 2131 C 213.944 0.89821 -4.14888 0
M  V30 2132 C 211.851 -0.695035 -5.87302 0
M  V30 2133 H 210.781 0.0694234 -0.750797 0
M  V30 2134 H 213.432 -0.527879 -1.75743 0
M  V30 2135 H 211.814 1.12935 -3.79555 0
M  V30 2136 H 212.988 -1.68691 -4.28812 0
M  V30 2137 H 211.303 -1.37606 -3.93006 0
M  V30 2138 H 213.9 1.07907 -5.23699 0
M  V30 2139 H 214.243 1.87126 -3.71873 0
M  V30 2140 H 214.776 0.191681 -3.97338 0
M  V30 2141 H 211.515 -1.63948 -6.34666 0
M  V30 2142 H 211.035 0.0372116 -5.99788 0
M  V30 2143 H 212.714 -0.33497 -6.46132 0
M  V30 2144 N 212.846 1.57033 -0.133567 0
M  V30 2145 C 214.094 1.953 0.519848 0
M  V30 2146 C 214.415 1.01866 1.66278 0
M  V30 2147 O 213.685 0.0776513 1.95746 0
M  V30 2148 H 212.265 0.721091 0.195032 0
M  V30 2149 H 214.927 1.93809 -0.205921 0
M  V30 2150 H 214.023 2.98695 0.904854 0
M  V30 2151 N 214.325 -0.140222 1.56975 0
M  V30 2152 C 215.573 -0.850005 1.83356 0
M  V30 2153 C 215.894 -1.81399 0.71551 0
M  V30 2154 O 215.164 -1.94136 -0.262294 0
M  V30 2155 H 213.744 -0.316886 0.676456 0
M  V30 2156 H 216.406 -0.132608 1.94448 0
M  V30 2157 H 215.502 -1.40814 2.78528 0
M  V30 2158 N 215.803 -1.52179 -0.40978 0
M  V30 2159 C 216.75 -1.75475 -1.49924 0
M  V30 2160 C 217.72 -0.597175 -1.54994 0
M  V30 2161 O 218.905 -0.834655 -1.71575 0
M  V30 2162 C 216.045 -1.9107 -2.87378 0
M  V30 2163 C 215.158 -3.18717 -2.91622 0
M  V30 2164 C 214.293 -3.24747 -4.20372 0
M  V30 2165 C 213.332 -4.46598 -4.18588 0
M  V30 2166 N 212.469 -4.50025 -5.38908 0
M  V30 2167 H 217.309 -2.68458 -1.29361 0
M  V30 2168 H 214.846 -1.33024 -0.627934 0
M  V30 2169 H 216.804 -1.98096 -3.6717 0
M  V30 2170 H 215.434 -1.01469 -3.06437 0
M  V30 2171 H 214.486 -3.20866 -2.04326 0
M  V30 2172 H 215.798 -4.08544 -2.86169 0
M  V30 2173 H 214.952 -3.30841 -5.08556 0
M  V30 2174 H 213.691 -2.32857 -4.28519 0
M  V30 2175 H 212.696 -4.40652 -3.28794 0
M  V30 2176 H 213.921 -5.39783 -4.12081 0
M  V30 2177 H 211.867 -3.61017 -5.47725 0
M  V30 2178 H 211.784 -5.33697 -5.35447 0
M  V30 2179 H 213.052 -4.60347 -6.29048 0
M  V30 2180 N 217.281 0.66697 -1.42791 0
M  V30 2181 C 218.527 1.42754 -1.44889 0
M  V30 2182 C 218.882 1.92283 -0.0669755 0
M  V30 2183 O 218.175 1.68494 0.912154 0
M  V30 2184 C 218.369 2.6349 -2.4147 0
M  V30 2185 C 218.198 2.25776 -3.88915 0
M  V30 2186 C 216.968 2.1476 -4.57391 0
M  V30 2187 C 219.166 1.86927 -4.79127 0
M  V30 2188 N 217.148 1.70232 -5.89826 0
M  V30 2189 C 218.519 1.53378 -6.00729 0
M  V30 2190 C 220.574 1.73989 -4.66511 0
M  V30 2191 C 219.277 1.08187 -7.11117 0
M  V30 2192 C 221.303 1.30203 -5.76889 0
M  V30 2193 C 220.665 0.975818 -6.97608 0
M  V30 2194 H 216.764 0.518559 -0.585338 0
M  V30 2195 H 219.348 0.768906 -1.78874 0
M  V30 2196 H 217.519 3.27033 -2.09533 0
M  V30 2197 H 219.251 3.30123 -2.34096 0
M  V30 2198 H 216.006 2.3408 -4.11708 0
M  V30 2199 H 216.43 1.50369 -6.6009 0
M  V30 2200 H 221.072 1.97853 -3.7365 0
M  V30 2201 H 218.79 0.830701 -8.03819 0
M  V30 2202 H 222.376 1.20701 -5.69142 0
M  V30 2203 H 221.256 0.642157 -7.81566 0
M  V30 2204 N 218.759 1.29093 0.90403 0
M  V30 2205 C 220.008 1.16187 1.64874 0
M  V30 2206 C 220.321 -0.286742 1.93487 0
M  V30 2207 O 221.527 -0.537062 2.66135 0
M  V30 2208 C 219.983 2.03177 2.97064 0
M  V30 2209 C 219.591 3.52836 2.76062 0
M  V30 2210 C 221.335 1.98984 3.74974 0
M  V30 2211 C 219.242 4.31945 4.03952 0
M  V30 2212 H 218.172 0.431246 0.618501 0
M  V30 2213 H 220.823 1.53699 1.00243 0
M  V30 2214 H 219.205 1.5853 3.62883 0
M  V30 2215 H 220.379 4.05507 2.18863 0
M  V30 2216 H 218.694 3.58656 2.11553 0
M  V30 2217 H 221.291 2.55351 4.69787 0
M  V30 2218 H 221.634 0.968815 4.0487 0
M  V30 2219 H 222.167 2.41652 3.15989 0
M  V30 2220 H 218.906 5.34667 3.79225 0
M  V30 2221 H 218.426 3.84045 4.60727 0
M  V30 2222 H 220.105 4.42379 4.72133 0
M  V30 2223 N 220.237 -1.11381 1.11499 0
M  V30 2224 C 221.484 -1.83132 0.864231 0
M  V30 2225 C 221.812 -1.84683 -0.610114 0
M  V30 2226 O 221.067 -1.29589 -1.46646 0
M  V30 2227 C 221.366 -3.30026 1.37177 0
M  V30 2228 C 221.032 -3.48634 2.85946 0
M  V30 2229 C 219.694 -3.53421 3.26569 0
M  V30 2230 C 222.046 -3.54837 3.81759 0
M  V30 2231 C 219.374 -3.61967 4.61733 0
M  V30 2232 C 221.726 -3.64915 5.1674 0
M  V30 2233 C 220.39 -3.67962 5.5692 0
M  V30 2234 H 219.66 -0.670127 0.316245 0
M  V30 2235 H 222.307 -1.31354 1.3935 0
M  V30 2236 H 220.612 -3.84304 0.762753 0
M  V30 2237 H 222.309 -3.84034 1.15408 0
M  V30 2238 H 218.899 -3.45579 2.53521 0
M  V30 2239 H 223.083 -3.50399 3.51474 0
M  V30 2240 H 218.339 -3.62603 4.92269 0
M  V30 2241 H 222.513 -3.68658 5.90816 0
M  V30 2242 H 220.14 -3.74336 6.61647 0
M  V30 2243 N 221.715 -0.905404 -1.28997 0
M  V30 2244 C 222.963 -0.533192 -1.9494 0
M  V30 2245 C 223.284 0.924618 -1.71685 0
M  V30 2246 O 222.554 1.65268 -1.05183 0
M  V30 2247 H 221.134 -0.194194 -0.721317 0
M  V30 2248 H 223.796 -1.15294 -1.57141 0
M  V30 2249 H 222.892 -0.72059 -3.03667 0
M  V30 2250 N 223.193 1.4272 -0.668489 0
M  V30 2251 C 224.143 2.27971 0.0363806 0
M  V30 2252 C 225.127 1.40741 0.779794 0
M  V30 2253 O 226.319 1.64245 0.659745 0
M  V30 2254 C 223.448 3.28673 0.991398 0
M  V30 2255 C 222.534 4.23388 0.245658 0
M  V30 2256 N 222.925 5.00267 -0.746069 0
M  V30 2257 C 221.223 4.43355 0.484988 0
M  V30 2258 C 221.924 5.69396 -1.19009 0
M  V30 2259 N 220.9 5.41095 -0.521287 0
M  V30 2260 H 224.702 2.84833 -0.724394 0
M  V30 2261 H 222.216 1.54607 -0.497028 0
M  V30 2262 H 224.213 3.88543 1.51129 0
M  V30 2263 H 222.873 2.73373 1.75207 0
M  V30 2264 H 223.884 5.05525 -1.12537 0
M  V30 2265 H 220.561 3.99104 1.22565 0
M  V30 2266 H 221.951 6.41083 -2.01153 0
M  V30 2267 N 224.671 0.411399 1.52136 0
M  V30 2268 C 225.918 -0.163645 2.01838 0
M  V30 2269 C 226.246 -1.4495 1.29691 0
M  V30 2270 O 225.501 -1.91725 0.392431 0
M  V30 2271 C 225.8 -0.455872 3.54481 0
M  V30 2272 C 225.466 0.741055 4.44769 0
M  V30 2273 C 224.128 1.06936 4.69167 0
M  V30 2274 C 226.48 1.54075 4.97906 0
M  V30 2275 C 223.808 2.19851 5.43951 0
M  V30 2276 C 226.16 2.66067 5.73926 0
M  V30 2277 C 224.824 2.99381 5.96596 0
M  V30 2278 H 224.094 -0.0598821 0.738576 0
M  V30 2279 H 226.741 0.553283 1.83333 0
M  V30 2280 H 225.046 -1.2544 3.71177 0
M  V30 2281 H 226.743 -0.913802 3.90449 0
M  V30 2282 H 223.333 0.475192 4.25958 0
M  V30 2283 H 227.517 1.30033 4.78963 0
M  V30 2284 H 222.773 2.46006 5.59724 0
M  V30 2285 H 226.947 3.28419 6.14096 0
M  V30 2286 H 224.574 3.86992 6.54325 0
M  V30 2287 N 226.149 -1.5696 0.141893 0
M  V30 2288 C 227.396 -1.9596 -0.510492 0
M  V30 2289 C 227.724 -1.02648 -1.65208 0
M  V30 2290 O 226.979 -0.0546947 -1.95624 0
M  V30 2291 C 227.278 -3.41242 -1.06249 0
M  V30 2292 C 226.944 -4.50882 -0.0398791 0
M  V30 2293 C 225.606 -4.80595 0.241247 0
M  V30 2294 C 227.958 -5.17058 0.65578 0
M  V30 2295 C 225.286 -5.73792 1.22393 0
M  V30 2296 C 227.638 -6.11313 1.62724 0
M  V30 2297 C 226.302 -6.39407 1.91612 0
M  V30 2298 H 225.572 -0.717068 -0.186802 0
M  V30 2299 H 228.219 -1.90142 0.227643 0
M  V30 2300 H 226.524 -3.43866 -1.87785 0
M  V30 2301 H 228.221 -3.68742 -1.57576 0
M  V30 2302 H 224.811 -4.27754 -0.269174 0
M  V30 2303 H 228.995 -4.94239 0.451779 0
M  V30 2304 H 224.251 -5.93853 1.45424 0
M  V30 2305 H 228.425 -6.61668 2.17183 0
M  V30 2306 H 226.052 -7.11427 2.6791 0
M  V30 2307 N 227.627 0.131896 -1.57047 0
M  V30 2308 C 228.867 0.847972 -1.85981 0
M  V30 2309 C 229.231 1.77655 -0.7282 0
M  V30 2310 O 230.432 2.53322 -0.898968 0
M  V30 2311 C 228.703 1.58919 -3.20124 0
M  V30 2312 S 230.262 2.34862 -3.70655 0
M  V30 2313 H 227.08 0.283273 -0.652133 0
M  V30 2314 H 229.682 0.107057 -1.95207 0
M  V30 2315 H 228.386 0.898771 -4.00438 0
M  V30 2316 H 227.917 2.37073 -3.13942 0
M  V30 2317 H 229.932 3.60344 -3.41126 0
M  V30 2318 N 229.106 1.52395 0.401703 0
M  V30 2319 C 230.054 1.7689 1.51039 0
M  V30 2320 C 231.048 0.636298 1.56996 0
M  V30 2321 O 232.254 0.818507 1.60314 0
M  V30 2322 H 228.629 0.559502 0.502456 0
M  V30 2323 H 230.6 2.69757 1.27568 0
M  V30 2324 C 229.349 1.94331 2.88324 0
M  V30 2325 H 228.672 2.80905 2.84486 0
M  V30 2326 H 230.112 2.15466 3.65172 0
M  V30 2327 C 228.571 0.712396 3.29282 0
M  V30 2328 O 229.101 -0.116218 4.01532 0
M  V30 2329 N 227.307 0.546154 2.85422 0
M  V30 2330 H 226.854 1.22156 2.26794 0
M  V30 2331 H 226.812 -0.276113 3.13185 0
M  V30 2332 N 230.584 -0.659388 1.43143 0
M  V30 2333 C 231.83 -1.42145 1.44647 0
M  V30 2334 C 232.163 -1.9408 0.0681907 0
M  V30 2335 O 231.438 -1.71899 -0.910007 0
M  V30 2336 C 231.721 -2.60735 2.48373 0
M  V30 2337 C 231.574 -2.14332 3.95451 0
M  V30 2338 C 232.893 -3.62951 2.48906 0
M  V30 2339 H 230.012 -0.51552 0.526696 0
M  V30 2340 H 232.654 -0.748069 1.74654 0
M  V30 2341 H 230.804 -3.18184 2.22916 0
M  V30 2342 H 232.476 -1.61932 4.31944 0
M  V30 2343 H 230.719 -1.4576 4.08578 0
M  V30 2344 H 231.39 -2.99583 4.63631 0
M  V30 2345 H 233.866 -3.1525 2.71582 0
M  V30 2346 H 232.742 -4.43487 3.23435 0
M  V30 2347 H 233.003 -4.15126 1.52061 0
M  V30 2348 N 232.062 -1.29571 -0.897171 0
M  V30 2349 C 233.309 -1.17689 -1.6479 0
M  V30 2350 C 233.637 0.27107 -1.92602 0
M  V30 2351 O 232.892 1.21193 -1.53658 0
M  V30 2352 C 233.191 -1.9382 -3.00281 0
M  V30 2353 C 232.857 -3.43522 -2.92068 0
M  V30 2354 C 231.519 -3.84348 -2.89535 0
M  V30 2355 C 233.871 -4.38906 -2.81089 0
M  V30 2356 C 231.199 -5.18869 -2.73846 0
M  V30 2357 C 233.551 -5.73521 -2.66939 0
M  V30 2358 C 232.215 -6.13601 -2.62774 0
M  V30 2359 H 231.485 -0.430654 -0.603008 0
M  V30 2360 H 234.132 -1.60536 -1.04404 0
M  V30 2361 H 232.437 -1.4357 -3.64547 0
M  V30 2362 H 234.134 -1.82028 -3.57305 0
M  V30 2363 H 230.724 -3.11072 -2.94842 0
M  V30 2364 H 234.908 -4.08315 -2.82121 0
M  V30 2365 H 230.164 -5.4903 -2.69027 0
M  V30 2366 H 234.338 -6.47078 -2.57416 0
M  V30 2367 H 231.965 -7.17786 -2.50375 0
M  V30 2368 N 233.54 1.10788 -1.12088 0
M  V30 2369 C 234.789 1.82036 -0.868659 0
M  V30 2370 C 235.102 1.85929 0.607426 0
M  V30 2371 O 236.308 2.53346 0.97613 0
M  V30 2372 C 234.764 3.26951 -1.50435 0
M  V30 2373 C 234.372 3.31367 -3.01496 0
M  V30 2374 C 236.116 4.03053 -1.33225 0
M  V30 2375 C 234.023 4.7072 -3.58017 0
M  V30 2376 H 232.953 0.682108 -0.321318 0
M  V30 2377 H 235.604 1.24618 -1.34694 0
M  V30 2378 H 233.986 3.84343 -0.953735 0
M  V30 2379 H 235.16 2.83819 -3.6302 0
M  V30 2380 H 233.475 2.6875 -3.18061 0
M  V30 2381 H 236.072 5.05981 -1.72878 0
M  V30 2382 H 236.415 4.15387 -0.275529 0
M  V30 2383 H 236.948 3.52066 -1.85188 0
M  V30 2384 H 233.687 4.63585 -4.63432 0
M  V30 2385 H 233.207 5.1865 -3.01268 0
M  V30 2386 H 234.886 5.39685 -3.56859 0
M  V30 2387 N 235.018 0.912232 1.28515 0
M  V30 2388 C 235.981 0.404223 2.25607 0
M  V30 2389 C 236.981 -0.468602 1.53821 0
M  V30 2390 O 238.171 -0.271873 1.72065 0
M  V30 2391 C 235.303 -0.420653 3.38295 0
M  V30 2392 H 236.496 1.26188 2.7206 0
M  V30 2393 H 234.049 0.691495 1.40171 0
M  V30 2394 H 234.784 -1.29777 2.97201 0
M  V30 2395 H 234.569 0.204935 3.91564 0
M  V30 2396 H 236.059 -0.766971 4.10496 0
M  V30 2397 N 236.496 -1.42363 0.676048 0
M  V30 2398 C 237.429 -2.28141 -0.0516916 0
M  V30 2399 C 238.407 -1.41135 -0.807439 0
M  V30 2400 O 239.591 -1.70573 -0.802305 0
M  V30 2401 C 236.718 -3.21007 -1.08039 0
M  V30 2402 C 235.764 -4.24426 -0.420076 0
M  V30 2403 S 236.597 -5.29134 0.823246 0
M  V30 2404 C 237.753 -6.25566 -0.204344 0
M  V30 2405 H 237.986 -2.89515 0.675884 0
M  V30 2406 H 235.519 -1.47211 0.465635 0
M  V30 2407 H 237.477 -3.75048 -1.66881 0
M  V30 2408 H 236.138 -2.58766 -1.78042 0
M  V30 2409 H 235.331 -4.89596 -1.19633 0
M  V30 2410 H 234.933 -3.7388 0.0947845 0
M  V30 2411 H 237.225 -6.69098 -1.06369 0
M  V30 2412 H 238.168 -7.06895 0.412915 0
M  V30 2413 H 238.576 -5.61811 -0.55038 0
M  V30 2414 N 237.974 -0.419461 -1.51915 0
M  V30 2415 C 239.251 0.211999 -1.94448 0
M  V30 2416 C 239.631 1.61703 -1.35703 0
M  V30 2417 O 238.979 2.22102 -0.536931 0
M  V30 2418 C 239.189 0.207872 -3.4838 0
M  V30 2419 C 240.537 0.422192 -4.22496 0
M  V30 2420 O 241.561 0.286778 -3.55044 0
M  V30 2421 O 240.42 0.690009 -5.42126 0
M  V30 2422 H 237.514 0.139586 -0.815135 0
M  V30 2423 H 240.06 -0.476151 -1.62883 0
M  V30 2424 H 238.832 -0.775102 -3.83546 0
M  V30 2425 H 238.455 0.939688 -3.86336 0
M  V30 2426 N 239.452 1.56882 -0.150215 0
M  V30 2427 C 240.698 1.96518 0.500834 0
M  V30 2428 C 241.031 1.03527 1.64304 0
M  V30 2429 O 240.306 0.0782751 1.94342 0
M  V30 2430 C 240.589 3.45822 1.00395 0
M  V30 2431 C 240.442 4.49591 -0.136983 0
M  V30 2432 C 241.761 3.97704 1.88467 0
M  V30 2433 H 238.88 0.714535 0.18058 0
M  V30 2434 H 241.522 1.88577 -0.232091 0
M  V30 2435 H 239.672 3.5272 1.62851 0
M  V30 2436 H 241.344 4.5477 -0.77343 0
M  V30 2437 H 239.587 4.26441 -0.795652 0
M  V30 2438 H 240.258 5.51402 0.256815 0
M  V30 2439 H 242.734 3.93304 1.35834 0
M  V30 2440 H 241.61 5.0263 2.20578 0
M  V30 2441 H 241.871 3.40252 2.82279 0
M  V30 2442 N 240.93 -0.123565 1.57115 0
M  V30 2443 C 241.863 -1.18202 1.95201 0
M  V30 2444 C 242.841 -1.40349 0.821031 0
M  V30 2445 O 244.025 -1.54578 1.07879 0
M  V30 2446 C 241.152 -2.53671 2.24429 0
M  V30 2447 C 240.198 -2.4798 3.46999 0
M  V30 2448 S 241.031 -1.92389 4.99747 0
M  V30 2449 C 242.187 -3.2954 5.32123 0
M  V30 2450 H 242.42 -0.857212 2.84674 0
M  V30 2451 H 239.953 -0.33014 1.50829 0
M  V30 2452 H 241.911 -3.3162 2.41947 0
M  V30 2453 H 240.572 -2.83332 1.35579 0
M  V30 2454 H 239.765 -3.47758 3.64801 0
M  V30 2455 H 239.367 -1.7815 3.28844 0
M  V30 2456 H 241.659 -4.25736 5.27025 0
M  V30 2457 H 242.602 -3.16569 6.33395 0
M  V30 2458 H 243.01 -3.27758 4.59603 0
M  V30 2459 N 242.408 -1.52605 -0.393616 0
M  V30 2460 C 243.648 -1.6911 -1.1481 0
M  V30 2461 C 244.012 -0.41969 -1.87357 0
M  V30 2462 O 245.213 -0.461034 -2.64817 0
M  V30 2463 C 243.484 -2.88909 -2.10395 0
M  V30 2464 S 245.043 -3.25977 -2.93742 0
M  V30 2465 H 241.861 -0.595337 -0.38871 0
M  V30 2466 H 244.463 -1.90641 -0.433178 0
M  V30 2467 H 243.167 -3.79672 -1.55812 0
M  V30 2468 H 242.698 -2.69698 -2.86403 0
M  V30 2469 H 244.713 -2.75806 -4.12487 0
M  V30 2470 N 243.887 0.651787 -1.4349 0
M  V30 2471 C 245.127 1.42345 -1.46688 0
M  V30 2472 C 245.491 1.91793 -0.0891023 0
M  V30 2473 O 246.692 2.688 0.00423594 0
M  V30 2474 C 244.963 2.57221 -2.48137 0
M  V30 2475 S 246.522 3.45725 -2.70221 0
M  V30 2476 H 243.34 0.485878 -0.51908 0
M  V30 2477 H 245.942 0.756578 -1.80267 0
M  V30 2478 H 244.646 2.1917 -3.46976 0
M  V30 2479 H 244.177 3.28757 -2.16061 0
M  V30 2480 H 246.192 4.53996 -2.00255 0
M  V30 2481 N 245.365 1.30045 0.890287 0
M  V30 2482 C 246.593 1.21472 1.67487 0
M  V30 2483 C 247.008 -0.223241 1.87476 0
M  V30 2484 O 246.365 -1.14828 1.41847 0
M  V30 2485 C 246.416 1.93394 3.05419 0
M  V30 2486 O 246.137 3.31576 2.86337 0
M  V30 2487 C 247.638 1.91414 3.99844 0
M  V30 2488 H 244.858 0.420604 0.522813 0
M  V30 2489 H 247.402 1.7158 1.11268 0
M  V30 2490 H 245.557 1.47099 3.58386 0
M  V30 2491 H 245.971 3.67929 3.73802 0
M  V30 2492 H 247.445 2.46285 4.94012 0
M  V30 2493 H 247.922 0.891833 4.3005 0
M  V30 2494 H 248.528 2.37496 3.52811 0
M  V30 2495 N 246.843 -1.10192 1.12674 0
M  V30 2496 C 247.806 -2.14786 0.799979 0
M  V30 2497 C 248.806 -1.59711 -0.18685 0
M  V30 2498 O 249.996 -1.74156 0.0392558 0
M  V30 2499 C 247.128 -3.40374 0.189228 0
M  V30 2500 H 248.321 -2.45203 1.72671 0
M  V30 2501 H 245.874 -1.25597 0.930326 0
M  V30 2502 H 246.609 -3.15577 -0.747107 0
M  V30 2503 H 246.394 -3.81637 0.899766 0
M  V30 2504 H 247.884 -4.17594 -0.0228143 0
M  V30 2505 N 248.321 -0.919034 -1.28029 0
M  V30 2506 C 249.546 -0.570357 -1.99403 0
M  V30 2507 C 249.971 0.842486 -1.68178 0
M  V30 2508 O 249.329 1.56391 -0.917141 0
M  V30 2509 C 249.377 -0.792541 -3.51783 0
M  V30 2510 O 248.481 0.145988 -4.12142 0
M  V30 2511 H 247.822 -0.220555 -0.6263 0
M  V30 2512 H 250.352 -1.23592 -1.63053 0
M  V30 2513 H 250.362 -0.704708 -4.01868 0
M  V30 2514 H 249.037 -1.82247 -3.73844 0
M  V30 2515 H 247.614 0.00897528 -3.72899 0
M  V30 2516 N 249.799 1.42003 -0.683588 0
M  V30 2517 C 251.048 2.00638 -0.206681 0
M  V30 2518 C 251.361 1.5472 1.19671 0
M  V30 2519 O 252.567 2.05833 1.77045 0
M  V30 2520 C 251.023 3.58487 -0.318632 0
M  V30 2521 C 250.631 4.1339 -1.72663 0
M  V30 2522 C 252.375 4.24384 0.0991141 0
M  V30 2523 C 250.282 5.63633 -1.79087 0
M  V30 2524 H 249.212 0.750408 -0.0735107 0
M  V30 2525 H 251.863 1.62624 -0.850048 0
M  V30 2526 H 250.245 3.94047 0.392781 0
M  V30 2527 H 251.419 3.89273 -2.46583 0
M  V30 2528 H 249.734 3.59976 -2.09299 0
M  V30 2529 H 252.331 5.34652 0.0713833 0
M  V30 2530 H 252.674 4.00505 1.13586 0
M  V30 2531 H 253.207 3.93816 -0.561599 0
M  V30 2532 H 249.946 5.92323 -2.80774 0
M  V30 2533 H 249.466 5.89714 -1.09535 0
M  V30 2534 H 251.145 6.28201 -1.5483 0
M  V30 2535 N 251.277 0.427512 1.51691 0
M  V30 2536 C 252.21 -0.433876 2.24037 0
M  V30 2537 C 253.188 -1.03287 1.25581 0
M  V30 2538 O 254.372 -1.07722 1.54688 0
M  V30 2539 C 251.499 -1.60385 2.98319 0
M  V30 2540 C 250.545 -1.12648 4.11355 0
M  V30 2541 S 251.378 -0.076543 5.35445 0
M  V30 2542 C 252.534 -1.25141 6.13262 0
M  V30 2543 H 252.767 0.180367 2.96752 0
M  V30 2544 H 250.3 0.211946 1.52938 0
M  V30 2545 H 252.258 -2.27462 3.41718 0
M  V30 2546 H 250.919 -2.18948 2.25213 0
M  V30 2547 H 250.112 -2.0011 4.62571 0
M  V30 2548 H 249.714 -0.534088 3.70167 0
M  V30 2549 H 252.006 -2.17162 6.41753 0
M  V30 2550 H 252.949 -0.779411 7.03797 0
M  V30 2551 H 253.357 -1.48553 5.44603 0
M  V30 2552 N 252.755 -1.56801 0.158532 0
M  V30 2553 C 253.983 -2.00859 -0.496303 0
M  V30 2554 C 254.398 -1.03871 -1.57659 0
M  V30 2555 O 253.755 -0.0375165 -1.82461 0
M  V30 2556 C 253.806 -3.4479 -1.08638 0
M  V30 2557 O 253.527 -4.38072 -0.0492322 0
M  V30 2558 C 255.028 -4.04185 -1.8207 0
M  V30 2559 H 252.248 -0.65864 -0.128199 0
M  V30 2560 H 254.792 -2.02885 0.256506 0
M  V30 2561 H 252.947 -3.43579 -1.78975 0
M  V30 2562 H 253.361 -5.2227 -0.483102 0
M  V30 2563 H 254.835 -5.06857 -2.18633 0
M  V30 2564 H 255.312 -3.45549 -2.71095 0
M  V30 2565 H 255.918 -4.0906 -1.16405 0
M  V30 2566 N 254.233 0.115231 -1.57178 0
M  V30 2567 C 255.163 1.1423 -2.03651 0
M  V30 2568 C 256.144 1.42967 -0.921655 0
M  V30 2569 O 257.329 1.53343 -1.19162 0
M  V30 2570 C 254.459 2.4675 -2.44401 0
M  V30 2571 C 253.413 2.32467 -3.59365 0
M  V30 2572 C 252.739 3.69984 -3.86026 0
M  V30 2573 C 254.039 1.78203 -4.90959 0
M  V30 2574 H 255.733 0.755749 -2.89705 0
M  V30 2575 H 253.279 0.362093 -1.39373 0
M  V30 2576 H 255.232 3.18854 -2.75517 0
M  V30 2577 H 253.956 2.87302 -1.55322 0
M  V30 2578 H 252.615 1.62811 -3.28463 0
M  V30 2579 H 252.263 4.08028 -2.94147 0
M  V30 2580 H 251.963 3.61279 -4.63412 0
M  V30 2581 H 253.487 4.43587 -4.19599 0
M  V30 2582 H 254.901 2.40128 -5.20587 0
M  V30 2583 H 253.298 1.8031 -5.72371 0
M  V30 2584 H 254.368 0.739876 -4.79222 0
M  V30 2585 N 255.711 1.52812 0.385517 0
M  V30 2586 C 256.951 1.69716 1.13911 0
M  V30 2587 C 257.315 0.42962 1.87132 0
M  V30 2588 O 258.516 0.475071 2.64569 0
M  V30 2589 C 256.787 2.90021 2.0886 0
M  V30 2590 S 258.346 3.27531 2.92009 0
M  V30 2591 H 255.164 0.59739 0.385547 0
M  V30 2592 H 257.766 1.90868 0.423061 0
M  V30 2593 H 256.47 3.80493 1.53797 0
M  V30 2594 H 256.001 2.71213 2.84969 0
M  V30 2595 H 258.016 2.77989 4.11019 0
M  V30 2596 N 257.189 -0.644168 1.43834 0
M  V30 2597 C 258.435 -1.40603 1.46146 0
M  V30 2598 C 258.768 -1.93997 0.0887717 0
M  V30 2599 O 258.043 -1.72854 -0.891724 0
M  V30 2600 C 258.326 -2.58086 2.51124 0
M  V30 2601 C 258.179 -2.10126 3.97702 0
M  V30 2602 C 259.498 -3.60291 2.52742 0
M  V30 2603 H 256.617 -0.509905 0.532134 0
M  V30 2604 H 259.259 -0.729502 1.75437 0
M  V30 2605 H 257.409 -3.15801 2.26278 0
M  V30 2606 H 259.081 -1.57342 4.33637 0
M  V30 2607 H 257.324 -1.41419 4.10101 0
M  V30 2608 H 257.995 -2.94649 4.66783 0
M  V30 2609 H 260.471 -3.12352 2.7491 0
M  V30 2610 H 259.347 -4.40032 3.28121 0
M  V30 2611 H 259.608 -4.1349 1.56455 0
M  V30 2612 N 258.668 -1.30515 -0.883378 0
M  V30 2613 C 259.917 -1.18795 -1.63005 0
M  V30 2614 C 260.23 0.255923 -1.93919 0
M  V30 2615 O 261.436 0.494654 -2.66956 0
M  V30 2616 C 259.892 -2.07878 -2.93794 0
M  V30 2617 C 259.5 -3.57184 -2.70414 0
M  V30 2618 C 261.244 -2.04924 -3.71761 0
M  V30 2619 C 259.151 -4.38317 -3.97029 0
M  V30 2620 H 258.081 -0.441031 -0.611562 0
M  V30 2621 H 260.732 -1.55275 -0.977854 0
M  V30 2622 H 259.114 -1.64283 -3.60315 0
M  V30 2623 H 260.288 -4.08937 -2.12384 0
M  V30 2624 H 258.603 -3.61976 -2.0582 0
M  V30 2625 H 261.2 -2.62792 -4.65665 0
M  V30 2626 H 261.543 -1.0331 -4.03277 0
M  V30 2627 H 262.076 -2.46649 -3.12104 0
M  V30 2628 H 258.815 -5.40632 -3.70671 0
M  V30 2629 H 258.335 -3.91326 -4.54559 0
M  V30 2630 H 260.014 -4.49834 -4.65036 0
M  V30 2631 N 260.146 1.09593 -1.13257 0
M  V30 2632 C 261.371 1.8604 -0.916732 0
M  V30 2633 C 261.796 1.80504 0.529146 0
M  V30 2634 O 261.154 1.18127 1.37534 0
M  V30 2635 C 261.202 3.32017 -1.40703 0
M  V30 2636 O 260.306 4.08141 -0.591153 0
M  V30 2637 H 259.647 0.576943 -0.328683 0
M  V30 2638 H 262.177 1.38405 -1.50682 0
M  V30 2639 H 262.187 3.82865 -1.4099 0
M  V30 2640 H 260.862 3.35361 -2.45979 0
M  V30 2641 H 259.439 3.67084 -0.656005 0
M  V30 2642 N 261.624 0.925811 1.2754 0
M  V30 2643 C 262.873 0.561084 1.93739 0
M  V30 2644 C 263.186 -0.901685 1.73577 0
M  V30 2645 O 264.392 -1.37511 2.34101 0
M  V30 2646 C 262.848 0.952668 3.47062 0
M  V30 2647 C 262.456 2.43599 3.75983 0
M  V30 2648 C 264.2 0.659103 4.19352 0
M  V30 2649 C 262.107 2.76707 5.22673 0
M  V30 2650 H 261.037 0.206122 0.725279 0
M  V30 2651 H 263.688 1.12637 1.44863 0
M  V30 2652 H 262.07 0.316053 3.94737 0
M  V30 2653 H 263.244 3.12035 3.39073 0
M  V30 2654 H 261.559 2.70125 3.16893 0
M  V30 2655 H 264.156 0.882985 5.27359 0
M  V30 2656 H 264.499 -0.403607 4.14339 0
M  V30 2657 H 265.032 1.25473 3.77494 0
M  V30 2658 H 261.771 3.8188 5.32774 0
M  V30 2659 H 261.291 2.12919 5.60737 0
M  V30 2660 H 262.97 2.6435 5.90532 0
M  V30 2661 N 263.102 -1.41638 0.69111 0
M  V30 2662 C 264.379 -1.95036 0.148421 0
M  V30 2663 C 264.759 -1.63072 -1.34055 0
M  V30 2664 O 264.107 -0.93538 -2.08478 0
M  V30 2665 C 264.317 -3.46279 0.434951 0
M  V30 2666 C 265.665 -4.23069 0.360275 0
M  V30 2667 O 266.689 -3.54277 0.369613 0
M  V30 2668 O 265.548 -5.45583 0.316534 0
M  V30 2669 H 262.642 -0.826908 0.0123654 0
M  V30 2670 H 265.188 -1.5138 0.766963 0
M  V30 2671 H 263.96 -3.6281 1.46576 0
M  V30 2672 H 263.583 -3.97019 -0.214787 0
M  V30 2673 N 264.58 -0.43555 -1.51462 0
M  V30 2674 C 265.996 -0.0877501 -1.59359 0
M  V30 2675 C 266.196 1.4027 -1.4466 0
M  V30 2676 O 265.252 2.17243 -1.28693 0
M  V30 2677 C 266.565 -0.606264 -2.94525 0
M  V30 2678 C 268.113 -0.566548 -3.0783 0
M  V30 2679 C 268.588 -1.06201 -4.45517 0
M  V30 2680 N 270.079 -1.01992 -4.51832 0
M  V30 2681 C 270.814 -1.37417 -5.5669 0
M  V30 2682 N 270.31 -1.80119 -6.68976 0
M  V30 2683 N 272.103 -1.29245 -5.47039 0
M  V30 2684 H 264.254 -1.40533 -1.59261 0
M  V30 2685 H 266.517 -0.578992 -0.750648 0
M  V30 2686 H 266.223 -1.64901 -3.10645 0
M  V30 2687 H 266.097 -0.0302097 -3.77188 0
M  V30 2688 H 268.484 0.467208 -2.91378 0
M  V30 2689 H 268.565 -1.17898 -2.2701 0
M  V30 2690 H 268.209 -2.09422 -4.62715 0
M  V30 2691 H 268.139 -0.426127 -5.24873 0
M  V30 2692 H 270.63 -0.706308 -3.71241 0
M  V30 2693 H 270.943 -2.05392 -7.45006 0
M  V30 2694 H 269.288 -1.84044 -6.70189 0
M  V30 2695 H 272.479 -0.957522 -4.58202 0
M  V30 2696 H 272.652 -1.57182 -6.28648 0
M  V30 2697 N 266.058 1.56714 -0.166846 0
M  V30 2698 C 267.288 2.00828 0.48494 0
M  V30 2699 C 267.696 1.04612 1.57648 0
M  V30 2700 O 267.039 0.0383201 1.8366 0
M  V30 2701 C 267.101 3.4137 1.12723 0
M  V30 2702 C 266.765 4.56654 0.177886 0
M  V30 2703 C 267.762 5.16402 -0.60207 0
M  V30 2704 C 265.447 5.02244 0.0750139 0
M  V30 2705 C 267.441 6.20167 -1.47215 0
M  V30 2706 C 265.128 6.05859 -0.798649 0
M  V30 2707 C 266.126 6.64691 -1.57082 0
M  V30 2708 O 265.814 7.66297 -2.42989 0
M  V30 2709 H 265.546 0.663587 0.128953 0
M  V30 2710 H 268.1 2.03692 -0.264365 0
M  V30 2711 H 266.33 3.35406 1.92457 0
M  V30 2712 H 268.019 3.69466 1.68076 0
M  V30 2713 H 268.785 4.82065 -0.53274 0
M  V30 2714 H 264.664 4.56167 0.665812 0
M  V30 2715 H 268.208 6.66016 -2.07531 0
M  V30 2716 H 264.105 6.39621 -0.869199 0
M  V30 2717 H 264.873 7.83601 -2.36455 0
M  V30 2718 N 267.536 -0.106894 1.57237 0
M  V30 2719 C 268.466 -1.13148 2.04254 0
M  V30 2720 C 269.447 -1.42476 0.929224 0
M  V30 2721 O 270.632 -1.52709 1.19973 0
M  V30 2722 C 267.762 -2.4545 2.45706 0
M  V30 2723 C 266.716 -2.30558 3.60592 0
M  V30 2724 C 266.042 -3.67931 3.87983 0
M  V30 2725 C 267.342 -1.75597 4.91897 0
M  V30 2726 H 269.036 -0.740374 2.90101 0
M  V30 2727 H 266.582 -0.354696 1.39563 0
M  V30 2728 H 268.535 -3.17389 2.77205 0
M  V30 2729 H 267.259 -2.86475 1.56843 0
M  V30 2730 H 265.918 -1.61067 3.29322 0
M  V30 2731 H 265.566 -4.06462 2.96306 0
M  V30 2732 H 265.266 -3.58817 4.65322 0
M  V30 2733 H 266.79 -4.41356 4.21945 0
M  V30 2734 H 268.204 -2.37364 5.21854 0
M  V30 2735 H 266.601 -1.77272 5.73319 0
M  V30 2736 H 267.671 -0.714451 4.79608 0
M  V30 2737 N 269.014 -1.53014 -0.377408 0
M  V30 2738 C 270.262 -1.6829 -1.11906 0
M  V30 2739 C 270.583 -0.431206 -1.90173 0
M  V30 2740 O 269.853 0.554595 -1.87886 0
M  V30 2741 H 268.433 -0.620371 -0.416112 0
M  V30 2742 H 271.095 -1.90167 -0.426893 0
M  V30 2743 H 270.191 -2.53862 -1.8155 0
M  V30 2744 N 270.492 0.636531 -1.44174 0
M  V30 2745 C 271.741 1.39213 -1.45954 0
M  V30 2746 C 272.054 1.95374 -0.0939119 0
M  V30 2747 O 273.26 2.71498 0.0107767 0
M  V30 2748 C 271.716 2.52025 -2.56927 0
M  V30 2749 C 271.324 2.024 -3.99673 0
M  V30 2750 C 273.068 3.29269 -2.67922 0
M  V30 2751 C 270.975 3.12521 -5.0208 0
M  V30 2752 H 269.905 0.523132 -0.542999 0
M  V30 2753 H 272.556 0.685349 -1.70221 0
M  V30 2754 H 270.938 3.25253 -2.25891 0
M  V30 2755 H 272.112 1.36073 -4.40251 0
M  V30 2756 H 270.427 1.37987 -3.92872 0
M  V30 2757 H 273.024 4.11352 -3.41605 0
M  V30 2758 H 273.367 3.78397 -1.73555 0
M  V30 2759 H 273.9 2.63129 -2.98342 0
M  V30 2760 H 270.639 2.68343 -5.98057 0
M  V30 2761 H 270.159 3.77507 -4.66099 0
M  V30 2762 H 271.838 3.77385 -5.25538 0
M  V30 2763 N 271.97 1.30982 0.876444 0
M  V30 2764 C 273.198 1.23242 1.6619 0
M  V30 2765 C 273.613 -0.203345 1.87702 0
M  V30 2766 O 272.97 -1.13317 1.43057 0
M  V30 2767 C 273.021 1.96623 3.03351 0
M  V30 2768 O 272.742 3.34594 2.82804 0
M  V30 2769 C 274.243 1.95644 3.97792 0
M  V30 2770 H 271.463 0.426126 0.518322 0
M  V30 2771 H 274.007 1.7275 1.09442 0
M  V30 2772 H 272.162 1.50892 3.56806 0
M  V30 2773 H 272.576 3.71873 3.69879 0
M  V30 2774 H 274.05 2.51511 4.91372 0
M  V30 2775 H 274.527 0.937395 4.2908 0
M  V30 2776 H 275.133 2.41225 3.50272 0
M  V30 2777 N 273.449 -1.08991 1.13837 0
M  V30 2778 C 274.865 -1.33312 0.877506 0
M  V30 2779 C 275.065 -1.95587 -0.48456 0
M  V30 2780 O 274.121 -2.20509 -1.23013 0
M  V30 2781 C 275.434 -2.24045 2.0056 0
M  V30 2782 C 276.982 -2.37542 2.03821 0
M  V30 2783 C 277.457 -3.31614 3.15905 0
M  V30 2784 N 278.948 -3.39189 3.15445 0
M  V30 2785 C 279.683 -4.11992 3.98811 0
M  V30 2786 N 279.179 -4.87553 4.92203 0
M  V30 2787 N 280.972 -4.07762 3.86894 0
M  V30 2788 H 273.123 -0.669456 2.01574 0
M  V30 2789 H 275.386 -0.357482 0.878015 0
M  V30 2790 H 275.092 -1.85521 2.98789 0
M  V30 2791 H 274.966 -3.24466 1.92359 0
M  V30 2792 H 277.353 -2.75327 1.06202 0
M  V30 2793 H 277.434 -1.36884 2.16093 0
M  V30 2794 H 277.078 -2.94551 4.13766 0
M  V30 2795 H 277.008 -4.32186 3.0087 0
M  V30 2796 H 279.499 -2.85314 2.47799 0
M  V30 2797 H 279.812 -5.40549 5.52292 0
M  V30 2798 H 278.157 -4.86627 4.96205 0
M  V30 2799 H 281.348 -3.47833 3.13257 0
M  V30 2800 H 281.521 -4.64238 4.52092 0
M  V30 2801 N 274.927 -0.932562 -1.27047 0
M  V30 2802 C 276.338 -0.619451 -1.76124 0
M  V30 2803 C 276.689 0.865397 -1.76083 0
M  V30 2804 O 275.814 1.67722 -1.36742 0
M  V30 2805 C 276.409 -1.11771 -3.19832 0
M  V30 2806 C 274.968 -0.855174 -3.66557 0
M  V30 2807 C 274.115 -1.27362 -2.46321 0
M  V30 2808 H 277.066 -1.11181 -1.13245 0
M  V30 2809 H 277.087 -0.46759 -3.77616 0
M  V30 2810 H 276.599 -2.19842 -3.1983 0
M  V30 2811 H 274.7 0.211524 -3.71999 0
M  V30 2812 H 274.813 -1.47613 -4.55793 0
M  V30 2813 H 273.177 -0.692119 -2.45116 0
M  V30 2814 H 273.96 -2.36307 -2.49025 0
M  V30 2815 N 276.405 1.4127 -0.698611 0
M  V30 2816 C 277.335 2.33447 -0.049629 0
M  V30 2817 C 278.316 1.51982 0.763898 0
M  V30 2818 O 279.501 1.80509 0.716257 0
M  V30 2819 C 276.631 3.35828 0.885267 0
M  V30 2820 C 275.585 4.27627 0.178613 0
M  V30 2821 C 274.911 5.20406 1.22807 0
M  V30 2822 C 276.211 5.13459 -0.956933 0
M  V30 2823 H 277.905 2.87966 -0.81951 0
M  V30 2824 H 275.451 1.38461 -0.395538 0
M  V30 2825 H 277.404 3.9924 1.34854 0
M  V30 2826 H 276.128 2.79666 1.68685 0
M  V30 2827 H 274.787 3.65643 -0.26466 0
M  V30 2828 H 274.435 4.60558 2.02226 0
M  V30 2829 H 274.135 5.82661 0.760239 0
M  V30 2830 H 275.659 5.86695 1.69179 0
M  V30 2831 H 277.073 5.70421 -0.573805 0
M  V30 2832 H 275.47 5.8467 -1.35205 0
M  V30 2833 H 276.54 4.50443 -1.79524 0
M  V30 2834 N 277.883 0.443576 1.51229 0
M  V30 2835 C 279.111 -0.11929 2.06556 0
M  V30 2836 C 279.526 -1.35921 1.31038 0
M  V30 2837 O 278.883 -1.78675 0.371704 0
M  V30 2838 C 278.934 -0.435228 3.5887 0
M  V30 2839 O 278.655 0.755486 4.31537 0
M  V30 2840 C 280.156 -1.04808 4.30732 0
M  V30 2841 H 277.376 -0.0051584 0.67098 0
M  V30 2842 H 279.92 0.624453 1.94733 0
M  V30 2843 H 278.075 -1.12887 3.70588 0
M  V30 2844 H 278.489 0.483491 5.22267 0
M  V30 2845 H 279.963 -1.2191 5.3837 0
M  V30 2846 H 280.44 -2.03081 3.89429 0
M  V30 2847 H 281.046 -0.393637 4.23474 0
M  V30 2848 N 279.361 -1.56624 0.175154 0
M  V30 2849 C 280.591 -2.01082 -0.474283 0
M  V30 2850 C 280.999 -1.05447 -1.57091 0
M  V30 2851 O 280.342 -0.0480595 -1.83637 0
M  V30 2852 C 280.404 -3.41963 -1.10911 0
M  V30 2853 C 280.068 -4.56742 -0.153666 0
M  V30 2854 C 281.065 -5.16076 0.629448 0
M  V30 2855 C 278.75 -5.02277 -0.0483776 0
M  V30 2856 C 280.744 -6.19377 1.50501 0
M  V30 2857 C 278.431 -6.05427 0.830768 0
M  V30 2858 C 279.429 -6.63849 1.60605 0
M  V30 2859 O 279.117 -7.64998 2.47049 0
M  V30 2860 H 278.849 -0.664261 -0.125432 0
M  V30 2861 H 281.403 -2.03549 0.275163 0
M  V30 2862 H 279.633 -3.36422 -1.90676 0
M  V30 2863 H 281.322 -3.70352 -1.66114 0
M  V30 2864 H 282.088 -4.81776 0.558297 0
M  V30 2865 H 277.967 -4.56513 -0.641611 0
M  V30 2866 H 281.511 -6.64906 2.1106 0
M  V30 2867 H 277.408 -6.39151 0.903107 0
M  V30 2868 H 278.176 -7.82336 2.40607 0
M  V30 2869 N 280.839 0.0985539 -1.57292 0
M  V30 2870 C 282.25 0.653457 -1.74891 0
M  V30 2871 C 282.601 1.7929 -0.796838 0
M  V30 2872 O 281.726 2.16385 0.0254886 0
M  V30 2873 C 282.321 1.19216 -3.17133 0
M  V30 2874 C 280.88 1.69316 -3.36168 0
M  V30 2875 C 280.027 0.601294 -2.70702 0
M  V30 2876 H 282.978 -0.127497 -1.58187 0
M  V30 2877 H 282.999 2.06154 -3.19814 0
M  V30 2878 H 282.511 0.362635 -3.86402 0
M  V30 2879 H 280.612 2.5468 -2.71972 0
M  V30 2880 H 280.725 1.78853 -4.44464 0
M  V30 2881 H 279.089 1.0399 -2.32504 0
M  V30 2882 H 279.872 -0.217592 -3.4261 0
M  V30 2883 N 282.317 1.53212 0.369288 0
M  V30 2884 C 283.563 1.69466 1.11397 0
M  V30 2885 C 283.896 0.443257 1.89074 0
M  V30 2886 O 283.171 -0.559386 1.86282 0
M  V30 2887 C 283.454 2.9422 2.07621 0
M  V30 2888 C 283.307 4.29508 1.33577 0
M  V30 2889 C 284.626 3.14565 3.07794 0
M  V30 2890 H 281.745 0.616667 0.403597 0
M  V30 2891 H 284.387 1.85845 0.395179 0
M  V30 2892 H 282.537 2.80387 2.68916 0
M  V30 2893 H 284.209 4.55147 0.750955 0
M  V30 2894 H 282.452 4.29088 0.637618 0
M  V30 2895 H 283.123 5.12926 2.03989 0
M  V30 2896 H 285.599 3.2756 2.56601 0
M  V30 2897 H 284.475 4.03297 3.72348 0
M  V30 2898 H 284.736 2.29675 3.77759 0
M  V30 2899 N 283.795 -0.628877 1.44509 0
M  V30 2900 C 285.211 -0.947305 1.28446 0
M  V30 2901 C 285.411 -2.00275 0.221872 0
M  V30 2902 O 284.467 -2.49447 -0.391471 0
M  V30 2903 C 285.78 -1.40843 2.65676 0
M  V30 2904 C 287.328 -1.52379 2.73404 0
M  V30 2905 C 287.803 -2.01875 4.11109 0
M  V30 2906 N 289.294 -2.09142 4.13296 0
M  V30 2907 C 290.029 -2.48615 5.16699 0
M  V30 2908 N 289.525 -2.87209 6.30462 0
M  V30 2909 N 291.318 -2.48768 5.04054 0
M  V30 2910 H 283.469 0.0690977 2.12288 0
M  V30 2911 H 285.732 -0.0317164 0.947469 0
M  V30 2912 H 285.438 -0.707206 3.44516 0
M  V30 2913 H 285.312 -2.37902 2.92716 0
M  V30 2914 H 287.699 -2.21598 1.9488 0
M  V30 2915 H 287.78 -0.536898 2.50102 0
M  V30 2916 H 287.424 -1.3325 4.90109 0
M  V30 2917 H 287.354 -3.0144 4.31789 0
M  V30 2918 H 289.845 -1.81991 3.31191 0
M  V30 2919 H 290.158 -3.16149 7.05174 0
M  V30 2920 H 288.503 -2.84955 6.33897 0
M  V30 2921 H 291.694 -2.18009 4.14234 0
M  V30 2922 H 291.867 -2.79207 5.84763 0
M  V30 2923 N 285.273 -1.31445 -0.869486 0
M  V30 2924 C 286.205 -1.14955 -1.98287 0
M  V30 2925 C 287.218 -0.0885037 -1.62559 0
M  V30 2926 O 288.407 -0.336044 -1.75308 0
M  V30 2927 C 285.507 -0.734255 -3.3085 0
M  V30 2928 C 284.68 -1.88042 -3.94917 0
M  V30 2929 C 283.739 -1.4511 -5.05796 0
M  V30 2930 O 282.765 -2.16082 -5.2659 0
M  V30 2931 N 283.967 -0.338763 -5.79511 0
M  V30 2932 H 286.732 -2.10856 -2.12979 0
M  V30 2933 H 284.293 -1.23786 -1.04349 0
M  V30 2934 H 286.285 -0.42975 -4.02412 0
M  V30 2935 H 284.855 0.133158 -3.12316 0
M  V30 2936 H 284.075 -2.35222 -3.1633 0
M  V30 2937 H 285.363 -2.6481 -4.34457 0
M  V30 2938 H 284.761 0.252274 -5.65137 0
M  V30 2939 H 283.318 -0.0937925 -6.51733 0
M  V30 2940 N 286.751 1.08385 -1.14413 0
M  V30 2941 C 287.699 2.17406 -0.826888 0
M  V30 2942 C 288.693 1.6827 0.195312 0
M  V30 2943 O 289.899 1.79927 0.0513892 0
M  V30 2944 H 286.274 0.70934 -0.249681 0
M  V30 2945 H 288.245 2.41388 -1.75426 0
M  V30 2946 C 286.994 3.46215 -0.320979 0
M  V30 2947 H 286.317 3.84401 -1.0989 0
M  V30 2948 H 287.757 4.23777 -0.137549 0
M  V30 2949 C 286.216 3.23067 0.955472 0
M  V30 2950 O 286.746 3.4668 2.02918 0
M  V30 2951 N 284.952 2.7661 0.890798 0
M  V30 2952 H 284.499 2.57594 0.0168815 0
M  V30 2953 H 284.457 2.61501 1.74542 0
M  V30 2954 N 288.23 0.939286 1.26551 0
M  V30 2955 C 289.478 0.58469 1.93457 0
M  V30 2956 C 289.799 -0.878774 1.74076 0
M  V30 2957 O 289.069 -1.62421 1.09528 0
M  V30 2958 H 287.649 0.21325 0.715914 0
M  V30 2959 H 290.311 1.1942 1.54029 0
M  V30 2960 H 289.407 0.800849 3.0165 0
M  V30 2961 N 289.708 -1.40897 0.706093 0
M  V30 2962 C 290.655 -2.30751 0.0474474 0
M  V30 2963 C 291.625 -1.47678 -0.76029 0
M  V30 2964 O 292.81 -1.76441 -0.726177 0
M  V30 2965 C 289.95 -3.33815 -0.875309 0
M  V30 2966 C 289.063 -4.31961 -0.0580623 0
M  V30 2967 C 288.198 -5.22093 -0.979425 0
M  V30 2968 C 287.237 -6.11902 -0.155706 0
M  V30 2969 N 286.374 -6.94482 -1.03144 0
M  V30 2970 H 291.214 -2.86513 0.819413 0
M  V30 2971 H 288.751 -1.41102 0.415783 0
M  V30 2972 H 290.709 -3.92129 -1.42446 0
M  V30 2973 H 289.339 -2.79579 -1.61356 0
M  V30 2974 H 288.391 -3.75507 0.608147 0
M  V30 2975 H 289.703 -4.95415 0.580082 0
M  V30 2976 H 288.857 -5.85292 -1.59744 0
M  V30 2977 H 287.596 -4.5889 -1.65141 0
M  V30 2978 H 286.601 -5.47742 0.475309 0
M  V30 2979 H 287.826 -6.77162 0.512635 0
M  V30 2980 H 285.772 -6.33877 -1.68924 0
M  V30 2981 H 285.689 -7.54665 -0.449108 0
M  V30 2982 H 286.957 -7.6214 -1.63593 0
M  V30 2983 N 291.186 -0.45159 -1.50991 0
M  V30 2984 C 292.426 0.109066 -2.04109 0
M  V30 2985 C 292.79 1.38716 -1.32747 0
M  V30 2986 O 293.991 2.02896 -1.76314 0
M  V30 2987 C 292.262 0.308354 -3.56067 0
M  V30 2988 S 293.821 0.830369 -4.30872 0
M  V30 2989 H 290.639 0.0251531 -0.710555 0
M  V30 2990 H 293.241 -0.614264 -1.85599 0
M  V30 2991 H 291.945 -0.627962 -4.05567 0
M  V30 2992 H 291.476 1.05836 -3.78896 0
M  V30 2993 H 293.491 2.10626 -4.49279 0
M  V30 2994 N 292.664 1.56529 -0.183458 0
M  V30 2995 C 293.597 2.14417 0.781052 0
M  V30 2996 C 294.575 1.07761 1.21763 0
M  V30 2997 O 295.759 1.35807 1.30724 0
M  V30 2998 C 292.886 2.69361 2.05335 0
M  V30 2999 C 291.932 3.885 1.75982 0
M  V30 3000 S 292.765 5.27568 0.918256 0
M  V30 3001 C 293.921 5.85926 2.20095 0
M  V30 3002 H 294.154 2.95893 0.2889 0
M  V30 3003 H 291.687 1.54368 0.0313844 0
M  V30 3004 H 293.645 3.01662 2.78406 0
M  V30 3005 H 292.306 1.87949 2.51663 0
M  V30 3006 H 291.499 4.25314 2.70415 0
M  V30 3007 H 291.101 3.57149 1.10999 0
M  V30 3008 H 293.393 5.99579 3.15453 0
M  V30 3009 H 294.336 6.82761 1.87731 0
M  V30 3010 H 294.744 5.14438 2.32409 0
M  V30 3011 N 294.142 -0.090211 1.57342 0
M  V30 3012 C 295.105 -1.09335 2.01441 0
M  V30 3013 C 296.105 -1.32666 0.908641 0
M  V30 3014 O 297.295 -1.28697 1.174 0
M  V30 3015 C 294.427 -2.44136 2.3793 0
M  V30 3016 H 295.62 -0.713662 2.91285 0
M  V30 3017 H 293.173 -0.335404 1.52659 0
M  V30 3018 H 293.908 -2.86972 1.51055 0
M  V30 3019 H 293.693 -2.28548 3.18603 0
M  V30 3020 H 295.183 -3.16277 2.72688 0
M  V30 3021 N 295.62 -1.53406 -0.361157 0
M  V30 3022 C 296.567 -1.80156 -1.44265 0
M  V30 3023 C 297.537 -0.646183 -1.53015 0
M  V30 3024 O 298.722 -0.888818 -1.68833 0
M  V30 3025 C 295.862 -2.00116 -2.81154 0
M  V30 3026 C 294.975 -3.27833 -2.81335 0
M  V30 3027 C 294.11 -3.37957 -4.09828 0
M  V30 3028 C 293.149 -4.59689 -4.04168 0
M  V30 3029 N 292.286 -4.66942 -5.24318 0
M  V30 3030 H 297.126 -2.72438 -1.20754 0
M  V30 3031 H 294.663 -1.34954 -0.585296 0
M  V30 3032 H 296.621 -2.09677 -3.60682 0
M  V30 3033 H 295.251 -1.11167 -3.03054 0
M  V30 3034 H 294.303 -3.27204 -1.94014 0
M  V30 3035 H 295.615 -4.17442 -2.73027 0
M  V30 3036 H 294.769 -3.46853 -4.97773 0
M  V30 3037 H 293.508 -2.46372 -4.20894 0
M  V30 3038 H 292.513 -4.50889 -3.14609 0
M  V30 3039 H 293.738 -5.5262 -3.947 0
M  V30 3040 H 291.684 -3.7826 -5.35962 0
M  V30 3041 H 291.601 -5.50462 -5.18197 0
M  V30 3042 H 292.869 -4.80127 -6.14084 0
M  V30 3043 N 297.098 0.621204 -1.44841 0
M  V30 3044 C 298.031 1.7459 -1.46947 0
M  V30 3045 C 299.009 1.59273 -0.327238 0
M  V30 3046 O 300.193 1.81021 -0.525706 0
M  V30 3047 C 297.32 3.12274 -1.31159 0
M  V30 3048 C 296.366 3.46216 -2.49072 0
M  V30 3049 S 297.199 3.4258 -4.11581 0
M  V30 3050 C 298.355 4.82867 -3.98233 0
M  V30 3051 H 298.588 1.72538 -2.42111 0
M  V30 3052 H 296.121 0.796683 -1.32259 0
M  V30 3053 H 298.079 3.91722 -1.22737 0
M  V30 3054 H 296.74 3.11855 -0.374885 0
M  V30 3055 H 295.933 4.4643 -2.33915 0
M  V30 3056 H 295.535 2.74253 -2.54286 0
M  V30 3057 H 297.827 5.7234 -3.62537 0
M  V30 3058 H 298.77 5.0308 -4.98313 0
M  V30 3059 H 299.178 4.57908 -3.30121 0
M  V30 3060 N 298.576 1.31904 0.862503 0
M  V30 3061 C 299.825 1.21373 1.61094 0
M  V30 3062 C 300.138 -0.22504 1.94301 0
M  V30 3063 O 301.344 -0.452121 2.67709 0
M  V30 3064 C 299.8 2.12525 2.9045 0
M  V30 3065 C 299.408 3.61441 2.64697 0
M  V30 3066 C 301.152 2.10813 3.68454 0
M  V30 3067 C 299.059 4.44578 3.90006 0
M  V30 3068 H 297.989 0.450705 0.604468 0
M  V30 3069 H 300.64 1.56811 0.953027 0
M  V30 3070 H 299.022 1.69994 3.57656 0
M  V30 3071 H 300.196 4.12264 2.05851 0
M  V30 3072 H 298.511 3.65205 2.00036 0
M  V30 3073 H 301.108 2.70167 4.61426 0
M  V30 3074 H 301.451 1.09713 4.01583 0
M  V30 3075 H 301.984 2.51583 3.08141 0
M  V30 3076 H 298.723 5.46461 3.62023 0
M  V30 3077 H 298.243 3.98508 4.48276 0
M  V30 3078 H 299.922 4.57176 4.5782 0
M  V30 3079 N 300.054 -1.07777 1.14986 0
M  V30 3080 C 300.984 -2.16865 0.865557 0
M  V30 3081 C 301.965 -1.69123 -0.182083 0
M  V30 3082 O 303.15 -1.94164 -0.0373815 0
M  V30 3083 C 300.28 -3.45539 0.349313 0
M  V30 3084 C 299.234 -4.06708 1.33313 0
M  V30 3085 C 298.56 -5.30411 0.675918 0
M  V30 3086 C 299.86 -4.47241 2.69764 0
M  V30 3087 H 301.554 -2.40905 1.77778 0
M  V30 3088 H 299.1 -1.15781 0.856203 0
M  V30 3089 H 301.053 -4.21174 0.137983 0
M  V30 3090 H 299.777 -3.21072 -0.598362 0
M  V30 3091 H 298.436 -3.33112 1.53075 0
M  V30 3092 H 298.084 -5.02232 -0.277767 0
M  V30 3093 H 297.784 -5.72293 1.33244 0
M  V30 3094 H 299.308 -6.08755 0.474262 0
M  V30 3095 H 300.722 -5.14025 2.53873 0
M  V30 3096 H 299.119 -5.00062 3.3175 0
M  V30 3097 H 300.189 -3.58818 3.26156 0
M  V30 3098 N 301.532 -0.945985 -1.26051 0
M  V30 3099 C 302.757 -0.612525 -1.98149 0
M  V30 3100 C 303.182 0.806623 -1.69927 0
M  V30 3101 O 302.54 1.54411 -0.950108 0
M  V30 3102 C 302.588 -0.866981 -3.50023 0
M  V30 3103 O 301.692 0.0585333 -4.12358 0
M  V30 3104 H 301.033 -0.23379 -0.621481 0
M  V30 3105 H 303.563 -1.27023 -1.60395 0
M  V30 3106 H 303.573 -0.789792 -4.00283 0
M  V30 3107 H 302.248 -1.90135 -3.69894 0
M  V30 3108 H 300.825 -0.0701241 -3.72834 0
M  V30 3109 N 303.011 1.40521 -0.713556 0
M  V30 3110 C 304.257 2.01221 -0.252564 0
M  V30 3111 C 304.59 1.56444 1.1506 0
M  V30 3112 O 303.865 0.783597 1.78017 0
M  V30 3113 C 304.148 3.58582 -0.330332 0
M  V30 3114 C 304.001 4.13437 -1.77173 0
M  V30 3115 C 305.32 4.39079 0.299641 0
M  V30 3116 H 302.439 0.731077 -0.0932471 0
M  V30 3117 H 305.081 1.67026 -0.905673 0
M  V30 3118 H 303.231 3.87844 0.225737 0
M  V30 3119 H 304.903 3.9498 -2.38303 0
M  V30 3120 H 303.146 3.67801 -2.3001 0
M  V30 3121 H 303.817 5.22597 -1.77755 0
M  V30 3122 H 306.293 4.15735 -0.174139 0
M  V30 3123 H 305.169 5.4848 0.214771 0
M  V30 3124 H 305.43 4.19915 1.38288 0
M  V30 3125 N 304.489 0.459591 1.5075 0
M  V30 3126 C 305.735 -0.091664 2.03193 0
M  V30 3127 C 306.09 -1.38432 1.3362 0
M  V30 3128 O 305.383 -1.86257 0.449322 0
M  V30 3129 C 305.577 -0.342866 3.55752 0
M  V30 3130 C 305.406 0.923888 4.40107 0
M  V30 3131 C 304.176 1.46388 4.83631 0
M  V30 3132 C 306.374 1.81617 4.81165 0
M  V30 3133 N 304.356 2.68086 5.52271 0
M  V30 3134 C 305.727 2.87907 5.49099 0
M  V30 3135 C 307.782 1.82793 4.63132 0
M  V30 3136 C 306.485 3.95347 6.0091 0
M  V30 3137 C 308.511 2.89182 5.15876 0
M  V30 3138 C 307.873 3.94191 5.83774 0
M  V30 3139 H 303.972 0.00619247 0.781975 0
M  V30 3140 H 306.556 0.625233 1.84388 0
M  V30 3141 H 304.727 -1.0288 3.74527 0
M  V30 3142 H 306.459 -0.887445 3.9485 0
M  V30 3143 H 303.214 1.01466 4.62603 0
M  V30 3144 H 303.638 3.29857 5.91205 0
M  V30 3145 H 308.28 1.0293 4.1008 0
M  V30 3146 H 305.998 4.76035 6.53006 0
M  V30 3147 H 309.584 2.91061 5.0376 0
M  V30 3148 H 308.464 4.75161 6.23853 0
M  V30 3149 N 305.967 -1.56429 0.191757 0
M  V30 3150 C 306.897 -2.21937 -0.725696 0
M  V30 3151 C 307.878 -1.1814 -1.2238 0
M  V30 3152 O 309.063 -1.46636 -1.27325 0
M  V30 3153 C 306.193 -2.87611 -1.94672 0
M  V30 3154 C 305.147 -3.97623 -1.58366 0
M  V30 3155 C 304.473 -4.50446 -2.88102 0
M  V30 3156 C 305.773 -5.16197 -0.796133 0
M  V30 3157 H 307.467 -2.98861 -0.179606 0
M  V30 3158 H 305.013 -1.43749 -0.0849464 0
M  V30 3159 H 306.966 -3.3212 -2.59373 0
M  V30 3160 H 305.69 -2.08087 -2.51728 0
M  V30 3161 H 304.349 -3.53801 -0.960247 0
M  V30 3162 H 303.997 -3.67688 -3.43241 0
M  V30 3163 H 303.697 -5.24675 -2.64556 0
M  V30 3164 H 305.221 -4.97654 -3.53798 0
M  V30 3165 H 306.635 -5.57271 -1.34618 0
M  V30 3166 H 305.032 -5.96471 -0.658928 0
M  V30 3167 H 306.102 -4.84473 0.203478 0
M  V30 3168 N 307.445 0.0818655 -1.57387 0
M  V30 3169 C 308.375 1.09885 -2.06028 0
M  V30 3170 C 309.356 1.4098 -0.951774 0
M  V30 3171 O 310.541 1.50781 -1.22387 0
M  V30 3172 C 307.671 2.4151 -2.4958 0
M  V30 3173 C 306.625 2.24792 -3.64215 0
M  V30 3174 C 305.951 3.61712 -3.93787 0
M  V30 3175 C 307.251 1.67749 -4.94629 0
M  V30 3176 H 308.945 0.694128 -2.91243 0
M  V30 3177 H 306.491 0.332448 -1.4011 0
M  V30 3178 H 308.444 3.12939 -2.82219 0
M  V30 3179 H 307.168 2.83943 -1.61381 0
M  V30 3180 H 305.827 1.55807 -3.31843 0
M  V30 3181 H 305.475 4.01697 -3.02735 0
M  V30 3182 H 305.175 3.51368 -4.70971 0
M  V30 3183 H 306.699 4.34587 -4.28913 0
M  V30 3184 H 308.113 2.29032 -5.25564 0
M  V30 3185 H 306.51 1.68128 -5.76067 0
M  V30 3186 H 307.58 0.638059 -4.80684 0
M  V30 3187 N 308.923 1.53595 0.353017 0
M  V30 3188 C 310.148 1.7462 1.11904 0
M  V30 3189 C 310.573 0.479721 1.8188 0
M  V30 3190 O 309.931 -0.567066 1.72204 0
M  V30 3191 C 309.979 2.92029 2.11545 0
M  V30 3192 O 309.083 2.61516 3.18878 0
M  V30 3193 H 308.424 0.579531 0.324099 0
M  V30 3194 H 310.954 2.00525 0.406301 0
M  V30 3195 H 310.964 3.18551 2.5493 0
M  V30 3196 H 309.639 3.83888 1.60008 0
M  V30 3197 H 308.216 2.45852 2.80377 0
M  V30 3198 N 310.401 -0.613514 1.45168 0
M  V30 3199 C 311.364 -1.7065 1.53007 0
M  V30 3200 C 312.364 -1.5548 0.410184 0
M  V30 3201 O 313.554 -1.60656 0.673455 0
M  V30 3202 C 310.686 -3.09875 1.42093 0
M  V30 3203 H 311.879 -1.65068 2.50385 0
M  V30 3204 H 309.432 -0.828728 1.32521 0
M  V30 3205 H 310.167 -3.21039 0.458769 0
M  V30 3206 H 309.952 -3.22293 2.23315 0
M  V30 3207 H 311.442 -3.895 1.50598 0
M  V30 3208 N 311.879 -1.3236 -0.855495 0
M  V30 3209 C 313.104 -1.2601 -1.64731 0
M  V30 3210 C 313.529 0.169068 -1.87339 0
M  V30 3211 O 312.887 1.12016 -1.42556 0
M  V30 3212 C 312.935 -2.02417 -2.98429 0
M  V30 3213 O 312.039 -1.3714 -3.8893 0
M  V30 3214 H 311.38 -0.434325 -0.502253 0
M  V30 3215 H 313.91 -1.74661 -1.06558 0
M  V30 3216 H 313.92 -2.12559 -3.48257 0
M  V30 3217 H 312.595 -3.06343 -2.81295 0
M  V30 3218 H 311.172 -1.3554 -3.47395 0
M  V30 3219 N 313.357 1.07166 -1.15556 0
M  V30 3220 C 314.606 1.79181 -0.926132 0
M  V30 3221 C 314.919 1.87768 0.547967 0
M  V30 3222 O 316.125 2.56323 0.895036 0
M  V30 3223 C 314.581 3.22 -1.60761 0
M  V30 3224 C 314.189 3.21607 -3.11886 0
M  V30 3225 C 315.933 3.9861 -1.4598 0
M  V30 3226 C 313.84 4.59092 -3.72812 0
M  V30 3227 H 312.77 0.67154 -0.342856 0
M  V30 3228 H 315.421 1.2027 -1.3859 0
M  V30 3229 H 313.803 3.81115 -1.07553 0
M  V30 3230 H 314.977 2.72127 -3.71865 0
M  V30 3231 H 313.292 2.58495 -3.2645 0
M  V30 3232 H 315.889 5.00225 -1.88888 0
M  V30 3233 H 316.232 4.143 -0.407541 0
M  V30 3234 H 316.765 3.45996 -1.96295 0
M  V30 3235 H 313.504 4.48606 -4.77946 0
M  V30 3236 H 313.024 5.08803 -3.17616 0
M  V30 3237 H 314.703 5.28059 -3.73848 0
M  V30 3238 N 314.835 0.952656 1.25548 0
M  V30 3239 C 316.063 0.623496 1.97282 0
M  V30 3240 C 316.478 -0.803987 1.70826 0
M  V30 3241 O 315.835 -1.53755 0.983147 0
M  V30 3242 C 315.886 0.870209 3.5087 0
M  V30 3243 O 315.607 2.24156 3.76412 0
M  V30 3244 C 317.108 0.553164 4.39835 0
M  V30 3245 H 314.328 0.233931 0.628902 0
M  V30 3246 H 316.872 1.27649 1.59768 0
M  V30 3247 H 315.027 0.263652 3.86502 0
M  V30 3248 H 315.441 2.31021 4.70882 0
M  V30 3249 H 316.915 0.776342 5.46513 0
M  V30 3250 H 317.392 -0.512215 4.36203 0
M  V30 3251 H 317.998 1.13896 4.09766 0
M  V30 3252 N 316.313 -1.40141 0.720998 0
M  V30 3253 C 317.243 -2.33339 0.0867621 0
M  V30 3254 C 318.224 -1.53178 -0.739622 0
M  V30 3255 O 319.409 -1.81625 -0.687449 0
M  V30 3256 C 316.539 -3.37194 -0.831728 0
M  V30 3257 C 315.493 -4.27857 -0.110558 0
M  V30 3258 C 314.819 -5.22294 -1.14513 0
M  V30 3259 C 316.119 -5.11872 1.0385 0
M  V30 3260 H 317.813 -2.86626 0.865219 0
M  V30 3261 H 315.359 -1.37814 0.417516 0
M  V30 3262 H 317.312 -4.01335 -1.28485 0
M  V30 3263 H 316.036 -2.82314 -1.64214 0
M  V30 3264 H 314.695 -3.65176 0.322797 0
M  V30 3265 H 314.343 -4.63717 -1.94874 0
M  V30 3266 H 314.043 -5.83797 -0.667446 0
M  V30 3267 H 315.567 -5.89312 -1.59824 0
M  V30 3268 H 316.981 -5.69436 0.664482 0
M  V30 3269 H 315.378 -5.82445 1.4449 0
M  V30 3270 H 316.448 -4.4753 1.86668 0
M  V30 3271 N 317.792 -0.46758 -1.50504 0
M  V30 3272 C 319.203 -0.0116166 -1.86696 0
M  V30 3273 C 319.554 1.39202 -1.38265 0
M  V30 3274 O 318.679 2.0313 -0.746132 0
M  V30 3275 C 319.274 -0.0143044 -3.38797 0
M  V30 3276 C 317.833 0.386175 -3.74414 0
M  V30 3277 C 316.98 -0.401287 -2.74381 0
M  V30 3278 H 319.931 -0.682022 -1.43297 0
M  V30 3279 H 319.952 0.788641 -3.72237 0
M  V30 3280 H 319.464 -1.03602 -3.74016 0
M  V30 3281 H 317.565 1.41237 -3.44794 0
M  V30 3282 H 317.678 0.0899596 -4.79016 0
M  V30 3283 H 316.042 0.144536 -2.5429 0
M  V30 3284 H 316.825 -1.42244 -3.12444 0
M  V30 3285 N 319.27 1.56325 -0.20005 0
M  V30 3286 C 320.681 1.8408 0.31167 0
M  V30 3287 C 321.032 1.12087 1.61031 0
M  V30 3288 O 320.157 0.38332 2.12978 0
M  V30 3289 C 320.752 3.33932 0.57226 0
M  V30 3290 C 319.311 3.6208 1.02834 0
M  V30 3291 C 318.458 2.77186 0.079634 0
M  V30 3292 H 321.409 1.52939 -0.423729 0
M  V30 3293 H 321.43 3.52971 1.42096 0
M  V30 3294 H 320.942 3.86303 -0.37308 0
M  V30 3295 H 319.043 3.15147 1.98778 0
M  V30 3296 H 319.156 4.7023 0.917624 0
M  V30 3297 H 317.52 2.47951 0.582448 0
M  V30 3298 H 318.303 3.32347 -0.860238 0
M  V30 3299 N 320.748 -0.0735177 1.57428 0
M  V30 3300 C 321.678 -1.0879 2.06608 0
M  V30 3301 C 322.659 -1.40473 0.959237 0
M  V30 3302 O 323.844 -1.5013 1.23185 0
M  V30 3303 C 320.974 -2.40183 2.50857 0
M  V30 3304 C 319.928 -2.22858 3.65402 0
M  V30 3305 C 319.254 -3.59619 3.957 0
M  V30 3306 C 320.554 -1.65123 4.95511 0
M  V30 3307 H 322.248 -0.678673 2.91607 0
M  V30 3308 H 319.794 -0.325013 1.40284 0
M  V30 3309 H 321.747 -3.11437 2.83874 0
M  V30 3310 H 320.471 -2.83083 1.62885 0
M  V30 3311 H 319.13 -1.54045 3.32664 0
M  V30 3312 H 318.778 -4.00086 3.04861 0
M  V30 3313 H 318.478 -3.48866 4.72828 0
M  V30 3314 H 320.002 -4.32306 4.31212 0
M  V30 3315 H 321.416 -2.26241 5.26771 0
M  V30 3316 H 319.813 -1.65071 5.7695 0
M  V30 3317 H 320.883 -0.612559 4.81015 0
M  V30 3318 N 322.226 -1.5378 -0.344866 0
M  V30 3319 C 323.473 -1.70963 -1.08526 0
M  V30 3320 C 323.801 -0.472126 -1.88683 0
M  V30 3321 O 323.056 0.546116 -1.87926 0
M  V30 3322 C 323.355 -2.92407 -2.05506 0
M  V30 3323 C 323.021 -4.28066 -1.41671 0
M  V30 3324 C 321.683 -4.64951 -1.2399 0
M  V30 3325 C 324.035 -5.12344 -0.956726 0
M  V30 3326 C 321.363 -5.83733 -0.589277 0
M  V30 3327 C 323.715 -6.3179 -0.320015 0
M  V30 3328 C 322.379 -6.67372 -0.130881 0
M  V30 3329 H 321.649 -0.625598 -0.397124 0
M  V30 3330 H 324.296 -1.87995 -0.36469 0
M  V30 3331 H 322.601 -2.69973 -2.8394 0
M  V30 3332 H 324.298 -3.02895 -2.62784 0
M  V30 3333 H 320.888 -3.99034 -1.56429 0
M  V30 3334 H 325.072 -4.8438 -1.08118 0
M  V30 3335 H 320.328 -6.09877 -0.431344 0
M  V30 3336 H 324.502 -6.96386 0.0445072 0
M  V30 3337 H 322.129 -7.59273 0.375318 0
M  V30 3338 N 323.704 0.605807 -1.45491 0
M  V30 3339 C 324.952 1.36207 -1.49305 0
M  V30 3340 C 325.273 1.94519 -0.136863 0
M  V30 3341 O 324.543 1.77261 0.833983 0
M  V30 3342 H 323.123 0.50565 -0.549843 0
M  V30 3343 H 325.785 0.711239 -1.81459 0
M  V30 3344 H 324.881 2.18058 -2.23287 0
M  V30 3345 N 325.182 1.32811 0.848464 0
M  V30 3346 C 326.428 1.24917 1.60522 0
M  V30 3347 C 326.783 -0.185761 1.91501 0
M  V30 3348 O 326.076 -1.12524 1.55077 0
M  V30 3349 C 326.27 2.04831 2.92881 0
M  V30 3350 C 326.099 3.55949 2.74828 0
M  V30 3351 C 324.869 4.25277 2.72887 0
M  V30 3352 C 327.067 4.50476 2.48145 0
M  V30 3353 N 325.049 5.62408 2.46111 0
M  V30 3354 C 326.42 5.75427 2.30832 0
M  V30 3355 C 328.475 4.39665 2.33664 0
M  V30 3356 C 327.178 6.90789 2.00508 0
M  V30 3357 C 329.204 5.54833 2.04731 0
M  V30 3358 C 328.566 6.78787 1.88223 0
M  V30 3359 H 324.665 0.512279 0.590842 0
M  V30 3360 H 327.249 1.67246 0.996839 0
M  V30 3361 H 325.42 1.64837 3.51686 0
M  V30 3362 H 327.152 1.88782 3.57971 0
M  V30 3363 H 323.907 3.77456 2.86049 0
M  V30 3364 H 324.331 6.3467 2.35634 0
M  V30 3365 H 328.973 3.44477 2.45144 0
M  V30 3366 H 326.691 7.85984 1.87765 0
M  V30 3367 H 330.277 5.48398 1.94295 0
M  V30 3368 H 329.157 7.66396 1.66155 0
M  V30 3369 N 326.66 -1.06551 1.16123 0
M  V30 3370 C 327.623 -2.12132 0.867906 0
M  V30 3371 C 328.623 -1.60224 -0.135944 0
M  V30 3372 O 329.813 -1.73943 0.0946422 0
M  V30 3373 C 326.945 -3.396 0.297419 0
M  V30 3374 H 328.138 -2.39586 1.80385 0
M  V30 3375 H 325.691 -1.22574 0.969812 0
M  V30 3376 H 326.426 -3.17794 -0.64633 0
M  V30 3377 H 326.211 -3.78581 1.02073 0
M  V30 3378 H 327.701 -4.17455 0.110052 0
M  V30 3379 N 328.138 -0.959301 -1.25041 0
M  V30 3380 C 329.07 -0.440543 -2.24926 0
M  V30 3381 C 330.083 0.446131 -1.56568 0
M  V30 3382 O 331.272 0.253657 -1.76689 0
M  V30 3383 C 328.372 0.38412 -3.36716 0
M  V30 3384 C 327.545 -0.490658 -4.34639 0
M  V30 3385 C 326.604 0.276587 -5.25473 0
M  V30 3386 O 325.63 -0.326614 -5.68262 0
M  V30 3387 N 326.832 1.56844 -5.5891 0
M  V30 3388 H 329.597 -1.29931 -2.70071 0
M  V30 3389 H 327.158 -0.830181 -1.38995 0
M  V30 3390 H 329.15 0.905228 -3.94446 0
M  V30 3391 H 327.72 1.14377 -2.90924 0
M  V30 3392 H 326.94 -1.19282 -3.7572 0
M  V30 3393 H 328.228 -1.08756 -4.97041 0
M  V30 3394 H 327.626 2.08036 -5.26059 0
M  V30 3395 H 326.183 2.03541 -6.19205 0
M  V30 3396 N 329.616 1.39756 -0.72842 0
M  V30 3397 C 330.564 2.32485 -0.0731849 0
M  V30 3398 C 331.558 1.52717 0.733063 0
M  V30 3399 O 332.764 1.68428 0.634988 0
M  V30 3400 H 329.139 0.751984 -0.00486469 0
M  V30 3401 H 331.11 2.85382 -0.871761 0
M  V30 3402 C 329.859 3.37773 0.824908 0
M  V30 3403 H 329.182 3.99227 0.213915 0
M  V30 3404 H 330.622 4.05121 1.25111 0
M  V30 3405 C 329.081 2.74287 1.95622 0
M  V30 3406 O 329.611 2.61618 3.04826 0
M  V30 3407 N 327.817 2.32475 1.74367 0
M  V30 3408 H 327.364 2.4298 0.855494 0
M  V30 3409 H 327.322 1.90337 2.50238 0
M  V30 3410 N 331.094 0.475555 1.50254 0
M  V30 3411 C 332.34 -0.0780073 2.0265 0
M  V30 3412 C 332.673 -1.38968 1.35652 0
M  V30 3413 O 331.948 -1.8839 0.483691 0
M  V30 3414 C 332.231 -0.257161 3.59181 0
M  V30 3415 C 332.084 1.07585 4.36744 0
M  V30 3416 C 333.403 -1.00965 4.28362 0
M  V30 3417 H 330.522 -0.0268758 0.73651 0
M  V30 3418 H 333.164 0.622015 1.7953 0
M  V30 3419 H 331.314 -0.853412 3.79011 0
M  V30 3420 H 332.986 1.70902 4.28474 0
M  V30 3421 H 331.229 1.6714 4.00308 0
M  V30 3422 H 331.9 0.904088 5.44546 0
M  V30 3423 H 334.376 -0.504214 4.13034 0
M  V30 3424 H 333.252 -1.10381 5.37687 0
M  V30 3425 H 333.513 -2.04731 3.91839 0
M  V30 3426 N 332.573 -1.56217 0.208337 0
M  V30 3427 C 333.521 -2.21053 -0.723769 0
M  V30 3428 C 334.515 -1.18578 -1.20978 0
M  V30 3429 O 335.721 -1.36691 -1.17114 0
M  V30 3430 H 332.096 -0.708595 -0.251788 0
M  V30 3431 H 334.067 -2.98006 -0.153365 0
M  V30 3432 C 332.816 -2.89417 -1.927 0
M  V30 3433 H 332.139 -3.68019 -1.56212 0
M  V30 3434 H 333.579 -3.38201 -2.55727 0
M  V30 3435 C 332.038 -1.91166 -2.77411 0
M  V30 3436 O 332.568 -1.42026 -3.75754 0
M  V30 3437 N 330.774 -1.59105 -2.43175 0
M  V30 3438 H 330.321 -1.99259 -1.63259 0
M  V30 3439 H 330.279 -0.936255 -3.00136 0
M  V30 3440 N 334.051 0.0651679 -1.57465 0
M  V30 3441 C 335.328 0.79644 -1.78651 0
M  V30 3442 C 335.708 1.95454 -0.797566 0
M  V30 3443 O 335.056 2.27882 0.167946 0
M  V30 3444 C 335.266 1.26322 -3.25337 0
M  V30 3445 C 336.614 1.6939 -3.89348 0
M  V30 3446 O 337.638 1.35872 -3.29268 0
M  V30 3447 O 336.497 2.31471 -4.95059 0
M  V30 3448 H 333.591 0.382157 -0.733407 0
M  V30 3449 H 336.137 0.0447311 -1.69641 0
M  V30 3450 H 334.909 0.434859 -3.88876 0
M  V30 3451 H 334.532 2.07604 -3.39096 0
M  V30 3452 N 335.529 1.53961 0.336706 0
M  V30 3453 C 336.806 1.62171 1.09361 0
M  V30 3454 C 337.186 0.447263 2.06307 0
M  V30 3455 O 336.534 -0.559802 2.21537 0
M  V30 3456 C 336.744 2.98565 1.80721 0
M  V30 3457 C 338.092 3.54157 2.34218 0
M  V30 3458 O 339.116 3.00784 1.90807 0
M  V30 3459 O 337.975 4.47528 3.13657 0
M  V30 3460 H 335.069 0.6562 0.503319 0
M  V30 3461 H 337.615 1.66307 0.33765 0
M  V30 3462 H 336.387 3.75482 1.10132 0
M  V30 3463 H 336.01 2.9805 2.63158 0
M  V30 3464 N 337.007 -0.598083 1.45811 0
M  V30 3465 C 337.954 -1.7082 1.55207 0
M  V30 3466 C 338.924 -1.61278 0.39732 0
M  V30 3467 O 340.109 -1.80717 0.612038 0
M  V30 3468 C 337.249 -3.09144 1.53376 0
M  V30 3469 C 336.362 -3.29423 2.79472 0
M  V30 3470 C 335.497 -4.57907 2.69248 0
M  V30 3471 C 334.536 -4.71476 3.90354 0
M  V30 3472 N 333.673 -5.9127 3.78608 0
M  V30 3473 H 338.513 -1.62125 2.50039 0
M  V30 3474 H 336.05 -0.790389 1.24062 0
M  V30 3475 H 338.008 -3.89186 1.50301 0
M  V30 3476 H 336.638 -3.16773 0.620876 0
M  V30 3477 H 335.69 -2.43091 2.92594 0
M  V30 3478 H 337.002 -3.3532 3.69272 0
M  V30 3479 H 336.156 -5.46157 2.64192 0
M  V30 3480 H 334.895 -4.54423 1.77063 0
M  V30 3481 H 333.9 -3.81648 3.95759 0
M  V30 3482 H 335.125 -4.76751 4.83617 0
M  V30 3483 H 333.071 -5.88813 2.89199 0
M  V30 3484 H 332.988 -5.98369 4.6205 0
M  V30 3485 H 334.256 -6.81992 3.77501 0
M  V30 3486 N 338.485 -1.33259 -0.841409 0
M  V30 3487 C 339.731 -1.24757 -1.59886 0
M  V30 3488 C 340.064 0.186913 -1.93298 0
M  V30 3489 O 339.339 1.12757 -1.5848 0
M  V30 3490 C 339.622 -2.12036 -2.91055 0
M  V30 3491 C 339.475 -3.63929 -2.6434 0
M  V30 3492 C 340.794 -1.9916 -3.92458 0
M  V30 3493 H 337.913 -0.454542 -0.580138 0
M  V30 3494 H 340.555 -1.63335 -0.970647 0
M  V30 3495 H 338.705 -1.79265 -3.44669 0
M  V30 3496 H 340.377 -4.06978 -2.17178 0
M  V30 3497 H 338.62 -3.85935 -1.98082 0
M  V30 3498 H 339.291 -4.20341 -3.57796 0
M  V30 3499 H 341.767 -2.27895 -3.48143 0
M  V30 3500 H 340.643 -2.62484 -4.82072 0
M  V30 3501 H 340.904 -0.963082 -4.31482 0
M  V30 3502 N 339.963 1.05934 -1.16686 0
M  V30 3503 C 341.203 1.80382 -0.961345 0
M  V30 3504 C 341.567 1.85331 0.501643 0
M  V30 3505 O 342.768 2.55795 0.825986 0
M  V30 3506 C 341.039 3.20777 -1.57596 0
M  V30 3507 S 342.598 4.11795 -1.51559 0
M  V30 3508 H 339.416 0.621332 -0.345641 0
M  V30 3509 H 342.018 1.27157 -1.48497 0
M  V30 3510 H 340.722 3.14773 -2.63337 0
M  V30 3511 H 340.253 3.79078 -1.05182 0
M  V30 3512 H 342.268 4.93485 -0.518374 0
M  V30 3513 N 341.441 0.965919 1.2453 0
M  V30 3514 C 342.371 0.513476 2.27784 0
M  V30 3515 C 343.352 -0.445974 1.6415 0
M  V30 3516 O 344.537 -0.342485 1.91156 0
M  V30 3517 C 341.667 -0.198839 3.4673 0
M  V30 3518 C 340.621 0.676456 4.2262 0
M  V30 3519 C 339.947 -0.167248 5.34438 0
M  V30 3520 C 341.247 1.96017 4.84123 0
M  V30 3521 H 342.941 1.3765 2.65881 0
M  V30 3522 H 340.487 0.663321 1.27813 0
M  V30 3523 H 342.44 -0.526567 4.18097 0
M  V30 3524 H 341.164 -1.0962 3.07654 0
M  V30 3525 H 339.823 0.98743 3.53052 0
M  V30 3526 H 339.471 -1.0647 4.91603 0
M  V30 3527 H 339.171 0.415181 5.86131 0
M  V30 3528 H 340.695 -0.489688 6.08633 0
M  V30 3529 H 342.109 1.69814 5.47573 0
M  V30 3530 H 340.506 2.48918 5.4604 0
M  V30 3531 H 341.576 2.65622 4.05676 0
M  V30 3532 N 342.919 -1.39368 0.735821 0
M  V30 3533 C 344.168 -1.99733 0.281004 0
M  V30 3534 C 344.481 -1.59055 -1.13846 0
M  V30 3535 O 345.687 -2.12262 -1.69284 0
M  V30 3536 C 344.143 -3.57057 0.451462 0
M  V30 3537 C 343.751 -4.06697 1.87886 0
M  V30 3538 C 345.495 -4.2446 0.0584616 0
M  V30 3539 C 343.402 -5.56598 1.99883 0
M  V30 3540 H 342.332 -0.747163 0.101311 0
M  V30 3541 H 344.983 -1.59357 0.909819 0
M  V30 3542 H 343.365 -3.95234 -0.246263 0
M  V30 3543 H 344.539 -3.79853 2.60861 0
M  V30 3544 H 342.854 -3.5196 2.22515 0
M  V30 3545 H 345.451 -5.34549 0.127099 0
M  V30 3546 H 345.794 -4.04444 -0.986433 0
M  V30 3547 H 346.327 -3.9146 0.707374 0
M  V30 3548 H 343.066 -5.81494 3.02564 0
M  V30 3549 H 342.586 -5.85242 1.31346 0
M  V30 3550 H 344.265 -6.22022 1.78039 0
M  V30 3551 N 344.397 -0.483516 -1.5 0
M  V30 3552 C 345.622 0.0667119 -2.07293 0
M  V30 3553 C 346.047 1.3164 -1.3436 0
M  V30 3554 O 345.405 1.76945 -0.394987 0
M  V30 3555 C 345.453 0.321126 -3.59167 0
M  V30 3556 O 344.557 1.39927 -3.87936 0
M  V30 3557 H 343.898 -0.0184758 -0.663743 0
M  V30 3558 H 346.428 -0.678125 -1.93035 0
M  V30 3559 H 346.438 0.557906 -4.04168 0
M  V30 3560 H 345.113 -0.592007 -4.11665 0
M  V30 3561 H 343.69 1.14882 -3.54763 0
M  V30 3562 N 345.875 1.56104 -0.216619 0
M  V30 3563 C 346.807 2.17339 0.72776 0
M  V30 3564 C 347.82 1.14109 1.16116 0
M  V30 3565 O 349.009 1.4111 1.09317 0
M  V30 3566 C 346.109 2.73818 1.99693 0
M  V30 3567 C 345.282 4.02168 1.71988 0
M  V30 3568 C 344.341 4.43259 2.83562 0
M  V30 3569 O 343.367 5.10257 2.52244 0
M  V30 3570 N 344.569 4.08535 4.12407 0
M  V30 3571 H 347.334 2.99005 0.203983 0
M  V30 3572 H 344.895 1.61861 -0.0354289 0
M  V30 3573 H 346.887 2.9828 2.73516 0
M  V30 3574 H 345.457 1.96483 2.43132 0
M  V30 3575 H 344.677 3.85612 0.818337 0
M  V30 3576 H 345.965 4.85907 1.50903 0
M  V30 3577 H 345.363 3.54687 4.40696 0
M  V30 3578 H 343.92 4.37901 4.8279 0
M  V30 3579 N 347.353 -0.0568162 1.57498 0
M  V30 3580 C 348.63 -0.786954 1.79071 0
M  V30 3581 C 349.01 -1.95028 0.80792 0
M  V30 3582 O 348.358 -2.27968 -0.155858 0
M  V30 3583 C 348.568 -1.24594 3.26002 0
M  V30 3584 C 349.916 -1.67323 3.90241 0
M  V30 3585 O 350.94 -1.34124 3.29984 0
M  V30 3586 O 349.799 -2.28842 4.9628 0
M  V30 3587 H 346.893 -0.378262 0.735423 0
M  V30 3588 H 349.439 -0.035734 1.69662 0
M  V30 3589 H 348.211 -0.41423 3.89101 0
M  V30 3590 H 347.834 -2.05803 3.40192 0
M  V30 3591 N 348.832 -1.54138 -0.328536 0
M  V30 3592 C 350.079 -1.72105 -1.06706 0
M  V30 3593 C 350.407 -0.492111 -1.88171 0
M  V30 3594 O 349.662 0.526153 -1.88494 0
M  V30 3595 C 349.961 -2.9457 -2.02393 0
M  V30 3596 C 349.627 -4.29544 -1.37122 0
M  V30 3597 C 348.289 -4.6624 -1.19052 0
M  V30 3598 C 350.641 -5.1333 -0.902331 0
M  V30 3599 C 347.969 -5.84325 -0.527331 0
M  V30 3600 C 350.321 -6.32094 -0.252988 0
M  V30 3601 C 348.985 -6.67473 -0.0600901 0
M  V30 3602 H 348.255 -0.629775 -0.390466 0
M  V30 3603 H 350.902 -1.88372 -0.34473 0
M  V30 3604 H 349.207 -2.72969 -2.81061 0
M  V30 3605 H 350.904 -3.05665 -2.59557 0
M  V30 3606 H 347.494 -4.0067 -1.52188 0
M  V30 3607 H 351.678 -4.855 -1.02974 0
M  V30 3608 H 346.934 -6.103 -0.366634 0
M  V30 3609 H 351.108 -6.96299 0.118366 0
M  V30 3610 H 348.735 -7.58832 0.455828 0
M  V30 3611 N 350.31 0.590341 -1.46126 0
M  V30 3612 C 351.558 1.34616 -1.50742 0
M  V30 3613 C 351.879 1.94363 -0.157486 0
M  V30 3614 O 351.149 1.78136 0.815136 0
M  V30 3615 H 349.729 0.499789 -0.555175 0
M  V30 3616 H 352.391 0.691953 -1.82203 0
M  V30 3617 H 351.487 2.15678 -2.25587 0
M  V30 3618 N 351.788 1.33704 0.83433 0
M  V30 3619 C 353.018 1.28281 1.6195 0
M  V30 3620 C 353.426 -0.147603 1.88623 0
M  V30 3621 O 352.769 -1.1016 1.47005 0
M  V30 3622 C 352.831 1.99386 2.99141 0
M  V30 3623 C 352.495 3.48681 2.95416 0
M  V30 3624 C 353.492 4.438 2.70809 0
M  V30 3625 C 351.177 3.90925 3.15409 0
M  V30 3626 C 353.171 5.79138 2.66229 0
M  V30 3627 C 350.858 5.26366 3.10454 0
M  V30 3628 C 351.856 6.20284 2.85895 0
M  V30 3629 O 351.544 7.53245 2.80852 0
M  V30 3630 H 351.276 0.44315 0.510484 0
M  V30 3631 H 353.83 1.76711 1.04702 0
M  V30 3632 H 352.06 1.45554 3.58261 0
M  V30 3633 H 353.749 1.87403 3.60049 0
M  V30 3634 H 354.515 4.12485 2.5511 0
M  V30 3635 H 350.394 3.18229 3.33543 0
M  V30 3636 H 353.938 6.52416 2.4698 0
M  V30 3637 H 349.835 5.57304 3.25703 0
M  V30 3638 H 350.603 7.62846 2.96661 0
M  V30 3639 N 353.266 -1.05314 1.17247 0
M  V30 3640 C 354.494 -1.81971 0.984593 0
M  V30 3641 C 354.909 -1.82929 -0.467166 0
M  V30 3642 O 354.266 -1.25564 -1.32438 0
M  V30 3643 C 354.317 -3.28143 1.51672 0
M  V30 3644 O 354.038 -3.27347 2.91163 0
M  V30 3645 C 355.539 -4.21493 1.37326 0
M  V30 3646 H 352.759 -0.573455 0.348411 0
M  V30 3647 H 355.303 -1.32808 1.55506 0
M  V30 3648 H 353.458 -3.74582 0.988302 0
M  V30 3649 H 353.872 -4.18824 3.15732 0
M  V30 3650 H 355.346 -5.22043 1.79375 0
M  V30 3651 H 355.823 -4.38031 0.320169 0
M  V30 3652 H 356.429 -3.80909 1.89178 0
M  V30 3653 N 354.744 -0.972509 -1.24016 0
M  V30 3654 C 355.993 -0.632603 -1.91523 0
M  V30 3655 C 356.306 0.836641 -1.76804 0
M  V30 3656 O 357.512 1.28728 -2.39043 0
M  V30 3657 C 355.968 -1.08082 -3.43287 0
M  V30 3658 C 355.576 -2.57386 -3.66683 0
M  V30 3659 C 357.32 -0.814288 -4.16617 0
M  V30 3660 C 355.227 -2.95915 -5.12043 0
M  V30 3661 H 354.157 -0.232898 -0.717129 0
M  V30 3662 H 356.808 -1.17936 -1.40582 0
M  V30 3663 H 355.19 -0.462339 -3.93292 0
M  V30 3664 H 356.364 -3.24405 -3.27258 0
M  V30 3665 H 354.679 -2.81701 -3.06649 0
M  V30 3666 H 357.276 -1.0781 -5.23718 0
M  V30 3667 H 357.619 0.24955 -4.15551 0
M  V30 3668 H 358.152 -1.39397 -3.72577 0
M  V30 3669 H 354.891 -4.0139 -5.18234 0
M  V30 3670 H 354.411 -2.33584 -5.52448 0
M  V30 3671 H 356.09 -2.86086 -5.80314 0
M  V30 3672 N 356.222 1.38976 -0.743202 0
M  V30 3673 C 357.452 2.04339 -0.304807 0
M  V30 3674 C 357.86 1.56162 1.06819 0
M  V30 3675 O 357.203 0.725284 1.68776 0
M  V30 3676 C 357.265 3.58716 -0.237369 0
M  V30 3677 C 356.929 4.29905 -1.55018 0
M  V30 3678 C 357.926 4.55987 -2.49744 0
M  V30 3679 C 355.611 4.68294 -1.81675 0
M  V30 3680 C 357.605 5.19478 -3.69353 0
M  V30 3681 C 355.292 5.31512 -3.0156 0
M  V30 3682 C 356.29 5.57037 -3.9522 0
M  V30 3683 O 355.978 6.18941 -5.12998 0
M  V30 3684 H 355.71 0.663439 -0.12971 0
M  V30 3685 H 358.264 1.78852 -1.01001 0
M  V30 3686 H 356.494 3.83133 0.524003 0
M  V30 3687 H 358.183 4.05543 0.170121 0
M  V30 3688 H 358.949 4.26767 -2.30423 0
M  V30 3689 H 354.828 4.47779 -1.09615 0
M  V30 3690 H 358.372 5.39318 -4.42473 0
M  V30 3691 H 354.269 5.60153 -3.20778 0
M  V30 3692 H 355.037 6.37433 -5.13441 0
M  V30 3693 N 357.7 0.491464 1.49741 0
M  V30 3694 C 358.925 -0.0557177 2.07325 0
M  V30 3695 C 359.35 -1.30925 1.35056 0
M  V30 3696 O 358.708 -1.76733 0.404365 0
M  V30 3697 C 358.756 -0.302074 3.59333 0
M  V30 3698 O 357.86 -1.37868 3.88672 0
M  V30 3699 H 357.201 0.0219956 0.663636 0
M  V30 3700 H 359.731 0.688352 1.92673 0
M  V30 3701 H 359.741 -0.536464 4.04458 0
M  V30 3702 H 358.416 0.61383 4.11345 0
M  V30 3703 H 356.993 -1.12999 3.55367 0
M  V30 3704 N 359.178 -1.55987 0.224894 0
M  V30 3705 C 360.406 -2.02784 -0.410665 0
M  V30 3706 C 360.821 -1.10464 -1.53112 0
M  V30 3707 O 360.178 -0.114871 -1.82138 0
M  V30 3708 C 360.229 -3.49087 -0.939165 0
M  V30 3709 O 359.95 -4.37887 0.136614 0
M  V30 3710 C 361.451 -4.11543 -1.64763 0
M  V30 3711 H 358.671 -0.663484 -0.100148 0
M  V30 3712 H 361.215 -2.01614 0.342326 0
M  V30 3713 H 359.37 -3.50861 -1.64242 0
M  V30 3714 H 359.784 -5.23849 -0.261155 0
M  V30 3715 H 361.258 -5.15673 -1.96939 0
M  V30 3716 H 361.735 -3.56736 -2.56195 0
M  V30 3717 H 362.341 -4.13629 -0.989503 0
M  V30 3718 N 360.656 0.0484629 -1.57525 0
M  V30 3719 C 361.619 1.03956 -2.04269 0
M  V30 3720 C 362.619 1.30211 -0.943496 0
M  V30 3721 O 363.809 1.25539 -1.20771 0
M  V30 3722 C 360.941 2.37742 -2.44319 0
M  V30 3723 H 362.134 0.636182 -2.93075 0
M  V30 3724 H 359.687 0.294811 -1.53494 0
M  V30 3725 H 360.422 2.82866 -1.5861 0
M  V30 3726 H 360.207 2.20021 -3.24551 0
M  V30 3727 H 361.697 3.08936 -2.80978 0
M  V30 3728 N 362.134 1.5431 0.320358 0
M  V30 3729 C 363.38 1.72924 1.05949 0
M  V30 3730 C 363.713 0.503185 1.87568 0
M  V30 3731 O 362.988 -0.499839 1.87968 0
M  V30 3732 C 363.271 3.00676 1.98156 0
M  V30 3733 C 363.124 4.3354 1.19845 0
M  V30 3734 C 364.443 3.24198 2.9763 0
M  V30 3735 H 361.562 0.629195 0.383774 0
M  V30 3736 H 364.204 1.87008 0.335854 0
M  V30 3737 H 362.354 2.888 2.59859 0
M  V30 3738 H 364.026 4.57305 0.605773 0
M  V30 3739 H 362.269 4.309 0.500784 0
M  V30 3740 H 362.94 5.19156 1.87567 0
M  V30 3741 H 365.416 3.35557 2.4605 0
M  V30 3742 H 364.292 4.14938 3.59329 0
M  V30 3743 H 364.553 2.41577 3.7026 0
M  V30 3744 N 363.613 -0.582584 1.46437 0
M  V30 3745 C 364.576 -1.67366 1.56592 0
M  V30 3746 C 365.576 -1.54575 0.443072 0
M  V30 3747 O 366.766 -1.59191 0.707381 0
M  V30 3748 C 363.898 -3.06791 1.48634 0
M  V30 3749 H 365.091 -1.5972 2.5383 0
M  V30 3750 H 362.644 -0.800432 1.34249 0
M  V30 3751 H 363.379 -3.19993 0.526763 0
M  V30 3752 H 363.164 -3.17484 2.30101 0
M  V30 3753 H 364.654 -3.86218 1.58826 0
M  V30 3754 N 365.091 -1.34144 -0.827227 0
M  V30 3755 C 366.338 -1.26258 -1.58319 0
M  V30 3756 C 366.666 0.168595 -1.93768 0
M  V30 3757 O 365.921 1.12877 -1.59866 0
M  V30 3758 C 366.22 -2.09464 -2.89585 0
M  V30 3759 C 365.886 -3.58521 -2.73448 0
M  V30 3760 C 364.548 -3.99155 -2.68754 0
M  V30 3761 C 366.9 -4.53189 -2.57428 0
M  V30 3762 C 364.228 -5.32656 -2.45957 0
M  V30 3763 C 366.58 -5.86864 -2.36163 0
M  V30 3764 C 365.244 -6.26667 -2.29879 0
M  V30 3765 H 364.514 -0.462013 -0.579332 0
M  V30 3766 H 367.161 -1.65845 -0.95748 0
M  V30 3767 H 365.466 -1.62692 -3.56425 0
M  V30 3768 H 367.163 -2.00712 -3.47154 0
M  V30 3769 H 363.753 -3.26264 -2.77939 0
M  V30 3770 H 367.937 -4.22696 -2.60081 0
M  V30 3771 H 363.193 -5.62519 -2.39546 0
M  V30 3772 H 367.367 -6.59813 -2.22754 0
M  V30 3773 H 364.994 -7.30049 -2.11975 0
M  V30 3774 N 366.569 1.04691 -1.17803 0
M  V30 3775 C 367.799 1.81183 -0.992788 0
M  V30 3776 C 368.207 1.8347 0.462098 0
M  V30 3777 O 367.55 1.2643 1.33271 0
M  V30 3778 C 367.612 3.28363 -1.46349 0
M  V30 3779 C 367.276 3.49749 -2.94151 0
M  V30 3780 C 368.273 3.41456 -3.92051 0
M  V30 3781 C 365.958 3.76548 -3.32441 0
M  V30 3782 C 367.952 3.59656 -5.26238 0
M  V30 3783 C 365.639 3.94396 -4.66792 0
M  V30 3784 C 366.637 3.8595 -5.635 0
M  V30 3785 O 366.325 4.03294 -6.9542 0
M  V30 3786 H 366.057 0.577622 -0.351182 0
M  V30 3787 H 368.611 1.32876 -1.5663 0
M  V30 3788 H 366.841 3.77609 -0.833574 0
M  V30 3789 H 368.53 3.86395 -1.24313 0
M  V30 3790 H 369.296 3.20723 -3.63815 0
M  V30 3791 H 365.175 3.82224 -2.57732 0
M  V30 3792 H 368.719 3.52979 -6.01707 0
M  V30 3793 H 364.616 4.14622 -4.94731 0
M  V30 3794 H 365.384 4.2049 -7.02232 0
M  V30 3795 N 368.047 0.979072 1.23499 0
M  V30 3796 C 369.296 0.642751 1.91185 0
M  V30 3797 C 369.609 -0.827253 1.77245 0
M  V30 3798 O 370.815 -1.27458 2.39722 0
M  V30 3799 C 369.271 1.09901 3.42709 0
M  V30 3800 C 368.879 2.59327 3.65313 0
M  V30 3801 C 370.623 0.836371 4.16179 0
M  V30 3802 C 368.53 2.98627 5.10467 0
M  V30 3803 H 367.46 0.236698 0.715884 0
M  V30 3804 H 370.111 1.1868 1.39955 0
M  V30 3805 H 368.493 0.48319 3.93041 0
M  V30 3806 H 369.667 3.26136 3.25533 0
M  V30 3807 H 367.982 2.83323 3.05151 0
M  V30 3808 H 370.579 1.10586 5.23139 0
M  V30 3809 H 370.922 -0.227509 4.15678 0
M  V30 3810 H 371.455 1.41371 3.71832 0
M  V30 3811 H 368.194 4.04133 5.16098 0
M  V30 3812 H 367.714 2.3651 5.51201 0
M  V30 3813 H 369.393 2.89159 5.78788 0
M  V30 3814 N 369.525 -1.3858 0.750561 0
M  V30 3815 C 370.936 -1.82927 0.373438 0
M  V30 3816 C 371.287 -1.62634 -1.09748 0
M  V30 3817 O 370.412 -1.12588 -1.84805 0
M  V30 3818 C 371.007 -3.32088 0.671029 0
M  V30 3819 C 369.566 -3.74795 0.34722 0
M  V30 3820 C 368.713 -2.61391 0.92575 0
M  V30 3821 H 371.664 -1.27351 0.946958 0
M  V30 3822 H 371.685 -3.80465 -0.0518269 0
M  V30 3823 H 371.197 -3.46826 1.74164 0
M  V30 3824 H 369.298 -3.65638 -0.716933 0
M  V30 3825 H 369.411 -4.71667 0.840656 0
M  V30 3826 H 367.775 -2.52265 0.351327 0
M  V30 3827 H 368.558 -2.78929 2.00133 0
M  V30 3828 N 371.003 -0.499398 -1.49478 0
M  V30 3829 C 371.936 0.326491 -2.25852 0
M  V30 3830 C 372.914 0.971776 -1.30366 0
M  V30 3831 O 374.098 1.00219 -1.59651 0
M  V30 3832 C 371.225 1.45969 -3.05632 0
M  V30 3833 C 370.271 0.928938 -4.16261 0
M  V30 3834 S 371.104 -0.179012 -5.35201 0
M  V30 3835 C 372.26 0.957389 -6.18534 0
M  V30 3836 H 372.493 -0.321746 -2.95554 0
M  V30 3837 H 370.026 -0.284674 -1.51753 0
M  V30 3838 H 371.984 2.109 -3.52181 0
M  V30 3839 H 370.645 2.07953 -2.35402 0
M  V30 3840 H 369.838 1.77813 -4.71592 0
M  V30 3841 H 369.44 0.356869 -3.72293 0
M  V30 3842 H 371.732 1.86296 -6.51383 0
M  V30 3843 H 372.675 0.442733 -7.06715 0
M  V30 3844 H 373.083 1.224 -5.5107 0
M  V30 3845 N 372.481 1.55866 -0.233164 0
M  V30 3846 C 373.706 2.03449 0.402906 0
M  V30 3847 C 374.131 1.11166 1.51736 0
M  V30 3848 O 373.489 0.101996 1.81013 0
M  V30 3849 C 373.537 3.49165 0.9009 0
M  V30 3850 O 372.641 3.60019 2.01147 0
M  V30 3851 H 371.982 0.657913 0.0897025 0
M  V30 3852 H 374.512 2.01493 -0.355201 0
M  V30 3853 H 374.522 3.89716 1.2077 0
M  V30 3854 H 373.197 4.15813 0.0852889 0
M  V30 3855 H 371.774 3.3136 1.71042 0
M  V30 3856 N 373.959 -0.0401083 1.57549 0
M  V30 3857 C 375.205 -0.734211 1.89043 0
M  V30 3858 C 375.538 -1.75591 0.829535 0
M  V30 3859 O 374.813 -1.93868 -0.156706 0
M  V30 3860 C 375.096 -1.41374 3.31188 0
M  V30 3861 C 374.949 -0.406299 4.47961 0
M  V30 3862 C 376.268 -2.35061 3.72068 0
M  V30 3863 H 373.387 -0.265447 0.687537 0
M  V30 3864 H 376.029 0.00294087 1.9 0
M  V30 3865 H 374.179 -2.04206 3.30503 0
M  V30 3866 H 375.851 0.219255 4.60779 0
M  V30 3867 H 374.094 0.275485 4.32924 0
M  V30 3868 H 374.765 -0.920022 5.44279 0
M  V30 3869 H 377.241 -1.82282 3.74049 0
M  V30 3870 H 376.117 -2.79593 4.72355 0
M  V30 3871 H 376.378 -3.21258 3.0372 0
M  V30 3872 N 375.437 -1.54477 -0.31217 0
M  V30 3873 C 376.37 -1.79519 -1.40884 0
M  V30 3874 C 377.348 -0.645753 -1.49227 0
M  V30 3875 O 378.532 -0.884468 -1.66461 0
M  V30 3876 C 375.659 -1.92194 -2.78889 0
M  V30 3877 C 374.705 -3.14555 -2.88023 0
M  V30 3878 S 375.538 -4.72893 -2.51262 0
M  V30 3879 C 376.694 -4.8849 -3.91317 0
M  V30 3880 H 376.927 -2.72256 -1.19432 0
M  V30 3881 H 374.46 -1.45746 -0.509654 0
M  V30 3882 H 376.418 -2.00182 -3.58382 0
M  V30 3883 H 375.079 -1.00414 -2.97617 0
M  V30 3884 H 374.272 -3.20193 -3.89221 0
M  V30 3885 H 373.874 -3.04955 -2.16514 0
M  V30 3886 H 376.166 -4.71826 -4.86196 0
M  V30 3887 H 377.109 -5.90588 -3.90656 0
M  V30 3888 H 377.517 -4.16715 -3.80801 0
M  V30 3889 N 376.915 0.57481 -1.46744 0
M  V30 3890 C 377.845 1.69337 -1.60771 0
M  V30 3891 C 378.826 1.63825 -0.457736 0
M  V30 3892 O 380.011 1.8172 -0.684947 0
M  V30 3893 C 377.141 3.0798 -1.60517 0
M  V30 3894 C 376.095 3.28327 -2.74564 0
M  V30 3895 C 375.421 4.67578 -2.59373 0
M  V30 3896 C 376.721 3.15398 -4.16319 0
M  V30 3897 H 378.415 1.57853 -2.54407 0
M  V30 3898 H 375.961 0.75799 -1.22436 0
M  V30 3899 H 377.914 3.86061 -1.68923 0
M  V30 3900 H 376.638 3.20381 -0.634305 0
M  V30 3901 H 375.297 2.52649 -2.65639 0
M  V30 3902 H 374.945 4.76755 -1.60353 0
M  V30 3903 H 374.645 4.82144 -3.35873 0
M  V30 3904 H 376.169 5.47817 -2.69682 0
M  V30 3905 H 377.583 3.83315 -4.26313 0
M  V30 3906 H 375.98 3.41482 -4.93468 0
M  V30 3907 H 377.05 2.12372 -4.3592 0
M  V30 3908 N 378.394 1.34581 0.820102 0
M  V30 3909 C 379.641 1.27096 1.57648 0
M  V30 3910 C 379.969 -0.158317 1.93855 0
M  V30 3911 O 379.224 -1.12028 1.60463 0
M  V30 3912 C 379.523 2.10997 2.8847 0
M  V30 3913 C 379.189 3.59966 2.71543 0
M  V30 3914 C 377.851 4.00575 2.66634 0
M  V30 3915 C 380.203 4.54548 2.55021 0
M  V30 3916 C 377.531 5.33953 2.43128 0
M  V30 3917 C 379.883 5.88109 2.33047 0
M  V30 3918 C 378.547 6.27878 2.26552 0
M  V30 3919 H 377.817 0.465078 0.576874 0
M  V30 3920 H 380.464 1.6635 0.948671 0
M  V30 3921 H 378.769 1.6458 3.55557 0
M  V30 3922 H 380.466 2.0255 3.46084 0
M  V30 3923 H 377.056 3.27733 2.76205 0
M  V30 3924 H 381.24 4.24069 2.57835 0
M  V30 3925 H 376.496 5.63781 2.3656 0
M  V30 3926 H 380.67 6.60985 2.19251 0
M  V30 3927 H 378.297 7.31162 2.081 0
M  V30 3928 N 379.872 -1.04064 1.18357 0
M  V30 3929 C 380.805 -2.11618 0.854 0
M  V30 3930 C 381.783 -1.61555 -0.184043 0
M  V30 3931 O 382.967 -1.88395 -0.0630048 0
M  V30 3932 C 380.094 -3.37574 0.27597 0
M  V30 3933 C 379.14 -4.06485 1.2912 0
M  V30 3934 S 379.973 -4.53543 2.84709 0
M  V30 3935 C 381.129 -5.82732 2.28417 0
M  V30 3936 H 381.362 -2.39247 1.76488 0
M  V30 3937 H 378.895 -1.16832 1.00944 0
M  V30 3938 H 380.853 -4.10468 -0.051026 0
M  V30 3939 H 379.514 -3.0806 -0.613028 0
M  V30 3940 H 378.707 -4.97024 0.835633 0
M  V30 3941 H 378.309 -3.39708 1.56443 0
M  V30 3942 H 380.601 -6.56677 1.66677 0
M  V30 3943 H 381.544 -6.33052 3.17256 0
M  V30 3944 H 381.952 -5.37838 1.71436 0
M  V30 3945 N 381.35 -0.985608 -1.22978 0
M  V30 3946 C 382.58 -0.674603 -1.95276 0
M  V30 3947 C 382.988 0.763483 -1.73111 0
M  V30 3948 O 382.331 1.52601 -1.02268 0
M  V30 3949 C 382.393 -0.891597 -3.48268 0
M  V30 3950 C 382.057 -2.31275 -3.94158 0
M  V30 3951 C 383.054 -3.29179 -4.02415 0
M  V30 3952 C 380.739 -2.64524 -4.27004 0
M  V30 3953 C 382.733 -4.58407 -4.42879 0
M  V30 3954 C 380.42 -3.93974 -4.67149 0
M  V30 3955 C 381.418 -4.90727 -4.75053 0
M  V30 3956 O 381.106 -6.17865 -5.14294 0
M  V30 3957 H 380.838 -0.249251 -0.628371 0
M  V30 3958 H 383.392 -1.32106 -1.5728 0
M  V30 3959 H 381.622 -0.187962 -3.86243 0
M  V30 3960 H 383.311 -0.576957 -4.01779 0
M  V30 3961 H 384.077 -3.04823 -3.77237 0
M  V30 3962 H 379.956 -1.89923 -4.2006 0
M  V30 3963 H 383.5 -5.33926 -4.48964 0
M  V30 3964 H 379.397 -4.18122 -4.91777 0
M  V30 3965 H 380.165 -6.21694 -5.32389 0
M  V30 3966 N 382.828 1.3818 -0.7579 0
M  V30 3967 C 384.058 2.04004 -0.326463 0
M  V30 3968 C 384.466 1.57286 1.05156 0
M  V30 3969 O 383.809 0.743144 1.67997 0
M  V30 3970 C 383.871 3.58444 -0.275402 0
M  V30 3971 C 383.535 4.28237 -1.59569 0
M  V30 3972 C 384.532 4.53312 -2.54566 0
M  V30 3973 C 382.217 4.66341 -1.86631 0
M  V30 3974 C 384.211 5.15531 -3.74842 0
M  V30 3975 C 381.898 5.28283 -3.0718 0
M  V30 3976 C 382.896 5.52814 -4.01106 0
M  V30 3977 O 382.584 6.13465 -5.19534 0
M  V30 3978 H 382.316 0.662026 -0.136739 0
M  V30 3979 H 384.87 1.7777 -1.02893 0
M  V30 3980 H 383.1 3.83667 0.483337 0
M  V30 3981 H 384.789 4.05701 0.127099 0
M  V30 3982 H 385.555 4.24299 -2.34936 0
M  V30 3983 H 381.434 4.46591 -1.14358 0
M  V30 3984 H 384.978 5.34594 -4.48168 0
M  V30 3985 H 380.875 5.56719 -3.26702 0
M  V30 3986 H 381.643 6.31951 -5.20173 0
M  V30 3987 N 384.306 0.507319 1.49211 0
M  V30 3988 C 385.238 -0.304532 2.27168 0
M  V30 3989 C 386.251 -0.924956 1.33972 0
M  V30 3990 O 387.44 -0.807227 1.59205 0
M  V30 3991 C 384.54 -1.44431 3.06583 0
M  V30 3992 C 383.713 -0.930026 4.27398 0
M  V30 3993 C 382.772 -1.94817 4.88807 0
M  V30 3994 O 381.798 -1.51418 5.4869 0
M  V30 3995 N 383 -3.279 4.79022 0
M  V30 3996 H 385.765 0.36395 2.97482 0
M  V30 3997 H 383.326 0.340249 1.58284 0
M  V30 3998 H 385.318 -2.12311 3.44537 0
M  V30 3999 H 383.888 -2.01684 2.38835 0
M  V30 4000 H 383.108 -0.0759244 3.94127 0
M  V30 4001 H 384.396 -0.564932 5.05654 0
M  V30 4002 H 383.794 -3.65843 4.3148 0
M  V30 4003 H 382.351 -3.91476 5.21142 0
M  V30 4004 N 385.784 -1.5574 0.241426 0
M  V30 4005 C 387.033 -1.97986 -0.385295 0
M  V30 4006 C 387.346 -1.13267 -1.59468 0
M  V30 4007 O 388.552 -1.45501 -2.2922 0
M  V30 4008 C 387.008 -3.52275 -0.736884 0
M  V30 4009 C 386.616 -4.45726 0.450796 0
M  V30 4010 C 388.36 -4.03189 -1.3281 0
M  V30 4011 C 386.267 -5.91352 0.0756662 0
M  V30 4012 H 385.197 -0.739386 -0.147731 0
M  V30 4013 H 387.848 -1.80308 0.340779 0
M  V30 4014 H 386.23 -3.65628 -1.52094 0
M  V30 4015 H 387.404 -4.44131 1.22819 0
M  V30 4016 H 385.719 -4.05264 0.956573 0
M  V30 4017 H 388.316 -5.09505 -1.62201 0
M  V30 4018 H 388.659 -3.50212 -2.25071 0
M  V30 4019 H 389.192 -3.93141 -0.607069 0
M  V30 4020 H 385.931 -6.48354 0.965272 0
M  V30 4021 H 385.451 -5.96095 -0.665635 0
M  V30 4022 H 387.13 -6.46084 -0.344075 0
M  V30 4023 N 387.262 0.0317525 -1.57568 0
M  V30 4024 C 388.492 0.733884 -1.93126 0
M  V30 4025 C 388.9 1.69563 -0.839352 0
M  V30 4026 O 388.243 1.82681 0.193175 0
M  V30 4027 C 388.305 1.54798 -3.24465 0
M  V30 4028 C 387.969 0.751304 -4.50782 0
M  V30 4029 C 388.966 0.0527632 -5.19873 0
M  V30 4030 C 386.651 0.706639 -4.97305 0
M  V30 4031 C 388.645 -0.679774 -6.33765 0
M  V30 4032 C 386.332 -0.0296449 -6.11093 0
M  V30 4033 C 387.33 -0.721614 -6.79177 0
M  V30 4034 O 387.018 -1.44595 -7.90789 0
M  V30 4035 H 386.75 0.211459 -0.642076 0
M  V30 4036 H 389.304 -0.00585615 -2.05399 0
M  V30 4037 H 387.534 2.33147 -3.08512 0
M  V30 4038 H 389.223 2.13247 -3.4537 0
M  V30 4039 H 389.989 0.0783188 -4.84937 0
M  V30 4040 H 385.868 1.23474 -4.44157 0
M  V30 4041 H 389.412 -1.22042 -6.86842 0
M  V30 4042 H 385.309 -0.0571331 -6.45475 0
M  V30 4043 H 386.077 -1.35935 -8.07133 0
M  V30 4044 N 388.74 1.54641 0.303973 0
M  V30 4045 C 389.687 1.85386 1.37479 0
M  V30 4046 C 390.657 0.702528 1.50512 0
M  V30 4047 O 391.842 0.950867 1.65418 0
M  V30 4048 C 388.982 2.10413 2.73533 0
M  V30 4049 C 388.095 3.38049 2.68974 0
M  V30 4050 C 387.23 3.52934 3.97002 0
M  V30 4051 C 386.269 4.74373 3.86829 0
M  V30 4052 N 385.406 4.8608 5.06627 0
M  V30 4053 H 390.246 2.76732 1.1056 0
M  V30 4054 H 387.783 1.37034 0.534805 0
M  V30 4055 H 389.741 2.22919 3.52652 0
M  V30 4056 H 388.371 1.22338 2.98719 0
M  V30 4057 H 387.423 3.3418 1.81736 0
M  V30 4058 H 388.735 4.27288 2.57346 0
M  V30 4059 H 387.889 3.65088 4.84557 0
M  V30 4060 H 386.628 2.61824 4.1146 0
M  V30 4061 H 385.633 4.62255 2.97658 0
M  V30 4062 H 386.858 5.66888 3.73918 0
M  V30 4063 H 384.804 3.97891 5.21554 0
M  V30 4064 H 384.721 5.69315 4.9741 0
M  V30 4065 H 385.989 5.02587 5.95841 0
M  V30 4066 N 390.218 -0.567019 1.47046 0
M  V30 4067 C 391.181 -1.65696 1.58359 0
M  V30 4068 C 392.181 -1.54097 0.459441 0
M  V30 4069 O 393.371 -1.58432 0.724225 0
M  V30 4070 C 390.503 -3.05197 1.51879 0
M  V30 4071 H 391.696 -1.57019 2.5551 0
M  V30 4072 H 389.249 -0.786148 1.3509 0
M  V30 4073 H 389.984 -3.19417 0.560673 0
M  V30 4074 H 389.769 -3.15025 2.33455 0
M  V30 4075 H 391.259 -3.84511 1.62913 0
M  V30 4076 N 391.696 -1.35014 -0.812953 0
M  V30 4077 C 392.659 -1.27292 -1.90602 0
M  V30 4078 C 393.659 -0.185817 -1.59723 0
M  V30 4079 O 394.849 -0.439102 -1.68575 0
M  V30 4080 C 391.981 -0.967676 -3.26877 0
M  V30 4081 H 393.174 -2.24479 -1.9887 0
M  V30 4082 H 390.727 -1.19446 -1.00808 0
M  V30 4083 H 391.462 0.0005954 -3.243 0
M  V30 4084 H 391.247 -1.75412 -3.50675 0
M  V30 4085 H 392.737 -0.939085 -4.06904 0
M  V30 4086 N 393.175 1.03435 -1.18907 0
M  V30 4087 C 394.591 1.28973 -0.940111 0
M  V30 4088 C 394.791 1.97676 0.390691 0
M  V30 4089 O 393.847 2.26127 1.12352 0
M  V30 4090 C 395.16 2.14221 -2.11021 0
M  V30 4091 C 396.708 2.27547 -2.14922 0
M  V30 4092 C 397.183 3.16164 -3.31367 0
M  V30 4093 N 398.674 3.23752 -3.31269 0
M  V30 4094 C 399.409 3.92495 -4.18014 0
M  V30 4095 N 398.905 4.63515 -5.14904 0
M  V30 4096 N 400.698 3.88838 -4.05908 0
M  V30 4097 H 392.849 0.57252 -2.04538 0
M  V30 4098 H 395.112 0.315184 -0.894071 0
M  V30 4099 H 394.818 1.71054 -3.073 0
M  V30 4100 H 394.692 3.14919 -2.0762 0
M  V30 4101 H 397.079 2.69947 -1.19217 0
M  V30 4102 H 397.16 1.26418 -2.22378 0
M  V30 4103 H 396.804 2.74474 -4.27348 0
M  V30 4104 H 396.734 4.17339 -3.21148 0
M  V30 4105 H 399.225 2.73167 -2.61129 0
M  V30 4106 H 399.538 5.13583 -5.77453 0
M  V30 4107 H 397.883 4.62398 -5.18857 0
M  V30 4108 H 401.074 3.32491 -3.29495 0
M  V30 4109 H 401.247 4.4214 -4.73726 0
M  V30 4110 N 394.653 0.992116 1.22453 0
M  V30 4111 C 395.6 0.541731 2.24352 0
M  V30 4112 C 396.57 -0.425519 1.60557 0
M  V30 4113 O 397.755 -0.330453 1.87917 0
M  V30 4114 C 394.895 -0.138248 3.44823 0
M  V30 4115 C 394.008 0.870649 4.23136 0
M  V30 4116 C 393.143 0.164269 5.30946 0
M  V30 4117 C 392.182 1.16159 6.00977 0
M  V30 4118 N 391.319 0.483568 7.00433 0
M  V30 4119 H 396.159 1.41541 2.62241 0
M  V30 4120 H 393.696 0.709013 1.28885 0
M  V30 4121 H 395.654 -0.5494 4.13567 0
M  V30 4122 H 394.284 -0.975721 3.077 0
M  V30 4123 H 393.336 1.40013 3.53696 0
M  V30 4124 H 394.648 1.63014 4.7141 0
M  V30 4125 H 393.802 -0.303653 6.0594 0
M  V30 4126 H 392.541 -0.627733 4.83643 0
M  V30 4127 H 391.546 1.64015 5.24766 0
M  V30 4128 H 392.771 1.95445 6.50368 0
M  V30 4129 H 390.717 -0.289012 6.55363 0
M  V30 4130 H 390.634 1.18152 7.4671 0
M  V30 4131 H 391.902 0.0384219 7.79491 0
M  V30 4132 N 396.131 -1.37776 0.765217 0
M  V30 4133 C 397.356 -2.04651 0.336537 0
M  V30 4134 C 397.781 -1.57337 -1.03086 0
M  V30 4135 O 397.139 -0.730621 -1.65927 0
M  V30 4136 C 397.187 -3.58577 0.381468 0
M  V30 4137 O 396.291 -4.07706 -0.62042 0
M  V30 4138 H 395.632 -0.64756 0.146838 0
M  V30 4139 H 398.162 -1.76221 1.03959 0
M  V30 4140 H 398.172 -4.07314 0.236448 0
M  V30 4141 H 396.847 -3.9237 1.37907 0
M  V30 4142 H 395.424 -3.70306 -0.439056 0
M  V30 4143 N 397.609 -0.515225 -1.4894 0
M  V30 4144 C 398.572 0.244681 -2.2789 0
M  V30 4145 C 399.572 0.881166 -1.34507 0
M  V30 4146 O 400.762 0.743497 -1.57537 0
M  V30 4147 C 397.894 1.35247 -3.12923 0
M  V30 4148 H 399.087 -0.448289 -2.96531 0
M  V30 4149 H 396.64 -0.270656 -1.53939 0
M  V30 4150 H 397.375 2.07916 -2.48881 0
M  V30 4151 H 397.16 0.901374 -3.81599 0
M  V30 4152 H 398.65 1.88737 -3.72516 0
M  V30 4153 N 399.087 1.5561 -0.249682 0
M  V30 4154 C 400.05 2.20217 0.635394 0
M  V30 4155 C 401.05 1.17227 1.10066 0
M  V30 4156 O 402.24 1.42292 1.00492 0
M  V30 4157 C 399.372 2.84794 1.87363 0
M  V30 4158 H 400.565 2.99814 0.0716752 0
M  V30 4159 H 398.118 1.563 -0.000153234 0
M  V30 4160 H 398.853 2.09142 2.47851 0
M  V30 4161 H 398.638 3.60241 1.5482 0
M  V30 4162 H 400.128 3.3423 2.5036 0
M  V30 4163 N 400.565 -0.0233959 1.57583 0
M  V30 4164 C 401.512 -1.02224 2.06927 0
M  V30 4165 C 402.482 -1.35575 0.959617 0
M  V30 4166 O 403.667 -1.45815 1.23055 0
M  V30 4167 C 400.807 -2.31636 2.5581 0
M  V30 4168 C 399.92 -2.04394 3.80588 0
M  V30 4169 C 399.055 -3.27717 4.18061 0
M  V30 4170 C 398.094 -2.96056 5.3574 0
M  V30 4171 N 397.231 -4.11847 5.68618 0
M  V30 4172 H 402.071 -0.594504 2.9201 0
M  V30 4173 H 399.608 -0.281921 1.44373 0
M  V30 4174 H 401.566 -3.07258 2.82221 0
M  V30 4175 H 400.196 -2.72122 1.73636 0
M  V30 4176 H 399.248 -1.19244 3.61227 0
M  V30 4177 H 400.56 -1.77042 4.66323 0
M  V30 4178 H 399.714 -4.11702 4.4563 0
M  V30 4179 H 398.453 -3.58188 3.30988 0
M  V30 4180 H 397.458 -2.10474 5.07918 0
M  V30 4181 H 398.683 -2.66857 6.24471 0
M  V30 4182 H 396.629 -4.42258 4.84504 0
M  V30 4183 H 396.546 -3.87938 6.48876 0
M  V30 4184 H 397.814 -4.96689 6.00766 0
M  V30 4185 N 402.043 -1.548 -0.295768 0
M  V30 4186 C 402.993 -1.82497 -1.3667 0
M  V30 4187 C 403.977 -0.682434 -1.45711 0
M  V30 4188 O 405.169 -0.943207 -1.49775 0
M  V30 4189 C 402.298 -2.08036 -2.73086 0
M  V30 4190 C 401.384 -3.28488 -2.68247 0
M  V30 4191 N 401.775 -4.48924 -2.33025 0
M  V30 4192 C 400.073 -3.3062 -2.99343 0
M  V30 4193 C 400.774 -5.30956 -2.37613 0
M  V30 4194 N 399.75 -4.68805 -2.75178 0
M  V30 4195 H 403.552 -2.73175 -1.0841 0
M  V30 4196 H 401.066 -1.5437 -0.504361 0
M  V30 4197 H 403.063 -2.26027 -3.5031 0
M  V30 4198 H 401.723 -1.18629 -3.02254 0
M  V30 4199 H 402.734 -4.75432 -2.05389 0
M  V30 4200 H 399.411 -2.51336 -3.33371 0
M  V30 4201 H 400.801 -6.37199 -2.13135 0
M  V30 4202 N 403.521 0.559213 -1.47345 0
M  V30 4203 C 404.468 1.66645 -1.59682 0
M  V30 4204 C 405.438 1.60168 -0.43994 0
M  V30 4205 O 406.623 1.79031 -0.659736 0
M  V30 4206 C 403.763 3.04969 -1.61518 0
M  V30 4207 C 402.876 3.21897 -2.88108 0
M  V30 4208 C 402.011 4.50608 -2.81294 0
M  V30 4209 C 401.05 4.60961 -4.02717 0
M  V30 4210 N 400.187 5.81024 -3.94151 0
M  V30 4211 H 405.027 1.55439 -2.54249 0
M  V30 4212 H 402.564 0.757219 -1.26113 0
M  V30 4213 H 404.522 3.85064 -1.60566 0
M  V30 4214 H 403.152 3.15015 -0.704645 0
M  V30 4215 H 402.204 2.35248 -2.98936 0
M  V30 4216 H 403.516 3.25412 -3.78032 0
M  V30 4217 H 402.67 5.3896 -2.7858 0
M  V30 4218 H 401.409 4.49568 -1.89049 0
M  V30 4219 H 400.414 3.71021 -4.05738 0
M  V30 4220 H 401.639 4.63761 -4.96087 0
M  V30 4221 H 399.585 5.80938 -3.04708 0
M  V30 4222 H 399.502 5.85909 -4.77752 0
M  V30 4223 H 400.77 6.71744 -3.9545 0
M  V30 4224 N 404.999 1.35443 0.805782 0
M  V30 4225 C 406.246 1.28761 1.56291 0
M  V30 4226 C 406.574 -0.137747 1.94012 0
M  V30 4227 O 405.829 -1.1032 1.61642 0
M  V30 4228 C 406.128 2.14045 2.86216 0
M  V30 4229 C 405.794 3.62826 2.67709 0
M  V30 4230 C 404.456 4.0338 2.6237 0
M  V30 4231 C 406.808 4.57227 2.50186 0
M  V30 4232 C 404.136 5.36501 2.37451 0
M  V30 4233 C 406.488 5.90547 2.26797 0
M  V30 4234 C 405.152 6.30245 2.1988 0
M  V30 4235 H 404.422 0.471171 0.571908 0
M  V30 4236 H 407.069 1.67347 0.930974 0
M  V30 4237 H 405.374 1.68342 3.53791 0
M  V30 4238 H 407.071 2.0621 3.43917 0
M  V30 4239 H 403.661 3.30644 2.72713 0
M  V30 4240 H 407.845 4.2678 2.53323 0
M  V30 4241 H 403.101 5.66259 2.30567 0
M  V30 4242 H 407.275 6.63274 2.12228 0
M  V30 4243 H 404.902 7.33328 2.00333 0
M  V30 4244 N 406.477 -1.02803 1.19454 0
M  V30 4245 C 407.888 -1.57667 0.999899 0
M  V30 4246 C 408.239 -1.91041 -0.446956 0
M  V30 4247 O 407.364 -1.70978 -1.32648 0
M  V30 4248 C 407.959 -2.86477 1.80877 0
M  V30 4249 C 406.518 -3.37911 1.65811 0
M  V30 4250 C 405.665 -2.11343 1.79526 0
M  V30 4251 H 408.616 -0.853214 1.33813 0
M  V30 4252 H 408.637 -3.57408 1.30536 0
M  V30 4253 H 408.149 -2.62155 2.86175 0
M  V30 4254 H 406.25 -3.67218 0.63102 0
M  V30 4255 H 406.363 -4.10885 2.46395 0
M  V30 4256 H 404.727 -2.23254 1.22596 0
M  V30 4257 H 405.51 -1.89461 2.86285 0
M  V30 4258 N 407.956 -0.998596 -1.21925 0
M  V30 4259 C 409.204 -0.676325 -1.90448 0
M  V30 4260 C 409.525 0.794719 -1.78071 0
M  V30 4261 O 408.795 1.5701 -1.17152 0
M  V30 4262 H 407.375 -0.247165 -0.704925 0
M  V30 4263 H 410.037 -1.26633 -1.48156 0
M  V30 4264 H 409.133 -0.943858 -2.97486 0
M  V30 4265 N 409.434 1.37368 -0.772513 0
M  V30 4266 C 410.681 1.99673 -0.337182 0
M  V30 4267 C 411.009 1.61324 1.0865 0
M  V30 4268 O 410.264 0.851377 1.7621 0
M  V30 4269 C 410.563 3.54817 -0.428876 0
M  V30 4270 C 410.229 4.12936 -1.81092 0
M  V30 4271 C 408.891 4.28523 -2.1891 0
M  V30 4272 C 411.243 4.44801 -2.71664 0
M  V30 4273 C 408.571 4.73277 -3.46735 0
M  V30 4274 C 410.923 4.90981 -3.98899 0
M  V30 4275 C 409.587 5.04773 -4.36761 0
M  V30 4276 H 408.857 0.730656 -0.123384 0
M  V30 4277 H 411.504 1.64124 -0.986686 0
M  V30 4278 H 409.809 3.90618 0.304167 0
M  V30 4279 H 411.506 4.00933 -0.0733334 0
M  V30 4280 H 408.096 4.01233 -1.50699 0
M  V30 4281 H 412.28 4.32344 -2.43706 0
M  V30 4282 H 407.536 4.82142 -3.75964 0
M  V30 4283 H 411.71 5.14603 -4.69208 0
M  V30 4284 H 409.337 5.39211 -5.35868 0
M  V30 4285 N 410.912 0.523116 1.48665 0
M  V30 4286 C 412.323 0.0808997 1.86525 0
M  V30 4287 C 412.674 -1.33975 1.43336 0
M  V30 4288 O 411.799 -2.00221 0.821009 0
M  V30 4289 C 412.394 0.140037 3.3851 0
M  V30 4290 C 410.953 -0.246948 3.75589 0
M  V30 4291 C 410.1 0.502845 2.72703 0
M  V30 4292 H 413.051 0.734736 1.40667 0
M  V30 4293 H 413.072 -0.649945 3.74908 0
M  V30 4294 H 412.584 1.17412 3.69914 0
M  V30 4295 H 410.685 -1.28343 3.49798 0
M  V30 4296 H 410.798 0.0878859 4.79019 0
M  V30 4297 H 409.162 -0.0500581 2.54651 0
M  V30 4298 H 409.945 1.53743 3.0695 0
M  V30 4299 N 412.39 -1.55475 0.257931 0
M  V30 4300 C 413.806 -1.59307 -0.0966563 0
M  V30 4301 C 414.006 -1.27514 -1.5602 0
M  V30 4302 O 413.062 -1.02774 -2.30637 0
M  V30 4303 C 414.375 -2.99552 0.262481 0
M  V30 4304 C 415.923 -3.1231 0.207683 0
M  V30 4305 C 416.398 -4.54793 0.541012 0
M  V30 4306 N 417.889 -4.6058 0.491921 0
M  V30 4307 C 418.624 -5.68825 0.722857 0
M  V30 4308 N 418.12 -6.85287 1.0175 0
M  V30 4309 N 419.913 -5.58296 0.652815 0
M  V30 4310 H 412.064 -1.74409 1.21224 0
M  V30 4311 H 414.327 -0.812424 0.48854 0
M  V30 4312 H 414.033 -3.27593 1.27967 0
M  V30 4313 H 413.907 -3.75019 -0.40508 0
M  V30 4314 H 416.294 -2.84044 -0.800195 0
M  V30 4315 H 416.375 -2.39095 0.909255 0
M  V30 4316 H 416.019 -4.83783 1.5465 0
M  V30 4317 H 415.949 -5.26285 -0.18216 0
M  V30 4318 H 418.44 -3.7691 0.273366 0
M  V30 4319 H 418.753 -7.63725 1.18084 0
M  V30 4320 H 417.098 -6.86945 1.05509 0
M  V30 4321 H 420.289 -4.66189 0.422592 0
M  V30 4322 H 420.462 -6.42582 0.836182 0
M  V30 4323 N 413.868 0.0150385 -1.57593 0
M  V30 4324 C 415.114 0.704043 -1.90187 0
M  V30 4325 C 415.447 1.74249 -0.857366 0
M  V30 4326 O 414.722 1.94092 0.125843 0
M  V30 4327 C 415.005 1.36087 -3.33395 0
M  V30 4328 C 414.858 0.334981 -4.48551 0
M  V30 4329 C 416.177 2.29112 -3.7576 0
M  V30 4330 H 413.296 0.254475 -0.691673 0
M  V30 4331 H 415.938 -0.0331678 -1.89971 0
M  V30 4332 H 414.088 1.98922 -3.3371 0
M  V30 4333 H 415.76 -0.292534 -4.60372 0
M  V30 4334 H 414.003 -0.344325 -4.32431 0
M  V30 4335 H 414.674 0.833316 -5.45674 0
M  V30 4336 H 417.15 1.76308 -3.76902 0
M  V30 4337 H 416.026 2.72043 -4.76743 0
M  V30 4338 H 416.287 3.16385 -3.08793 0
M  V30 4339 N 415.346 1.54954 0.287554 0
M  V30 4340 C 416.256 1.8991 1.37736 0
M  V30 4341 C 417.272 0.794701 1.54792 0
M  V30 4342 O 418.448 1.09243 1.69198 0
M  V30 4343 C 415.513 2.15108 2.71899 0
M  V30 4344 C 414.574 3.38752 2.63715 0
M  V30 4345 C 413.807 3.62739 3.91479 0
M  V30 4346 O 414.03 2.89492 4.91478 0
M  V30 4347 O 412.964 4.56267 3.92561 0
M  V30 4348 H 416.79 2.82652 1.11092 0
M  V30 4349 H 414.375 1.41315 0.484807 0
M  V30 4350 H 416.257 2.32806 3.51254 0
M  V30 4351 H 414.932 1.25551 2.9836 0
M  V30 4352 H 413.839 3.26405 1.82786 0
M  V30 4353 H 415.172 4.28483 2.42205 0
M  V30 4354 N 416.824 -0.551391 1.4764 0
M  V30 4355 C 418.235 -1.13349 1.48354 0
M  V30 4356 C 418.586 -1.94709 0.241432 0
M  V30 4357 O 417.711 -2.06306 -0.653205 0
M  V30 4358 C 418.306 -2.0623 2.68802 0
M  V30 4359 C 416.865 -2.597 2.72457 0
M  V30 4360 C 416.012 -1.36201 2.41546 0
M  V30 4361 H 418.963 -0.337698 1.55065 0
M  V30 4362 H 418.984 -2.90196 2.46103 0
M  V30 4363 H 418.496 -1.46987 3.59188 0
M  V30 4364 H 416.597 -3.22724 1.86225 0
M  V30 4365 H 416.71 -3.00296 3.73308 0
M  V30 4366 H 415.074 -1.67068 1.9225 0
M  V30 4367 H 415.857 -0.787425 3.34147 0
M  V30 4368 N 418.302 -1.35869 -0.798587 0
M  V30 4369 C 419.579 -1.20145 -1.54352 0
M  V30 4370 C 419.959 0.216161 -2.0999 0
M  V30 4371 O 419.307 1.22068 -1.93162 0
M  V30 4372 C 419.517 -2.27602 -2.64572 0
M  V30 4373 C 420.865 -2.63811 -3.32699 0
M  V30 4374 O 421.889 -2.26576 -2.74849 0
M  V30 4375 O 420.748 -3.27866 -4.37226 0
M  V30 4376 H 417.842 -0.467248 -0.682355 0
M  V30 4377 H 420.388 -1.47574 -0.837859 0
M  V30 4378 H 419.16 -3.2265 -2.21388 0
M  V30 4379 H 418.783 -2.01488 -3.42766 0
M  V30 4380 N 419.78 1.02168 -1.19998 0
M  V30 4381 C 421.005 1.79833 -1.03319 0
M  V30 4382 C 421.43 1.83504 0.413281 0
M  V30 4383 O 420.788 1.26635 1.29743 0
M  V30 4384 C 420.836 3.22396 -1.61533 0
M  V30 4385 O 419.94 4.03555 -0.849519 0
M  V30 4386 H 419.281 0.554872 -0.364709 0
M  V30 4387 H 421.811 1.28542 -1.59179 0
M  V30 4388 H 421.821 3.73124 -1.65054 0
M  V30 4389 H 420.496 3.19039 -2.66809 0
M  V30 4390 H 419.073 3.62169 -0.888129 0
M  V30 4391 N 421.258 1.00505 1.21394 0
M  V30 4392 C 422.504 0.688793 1.90745 0
M  V30 4393 C 422.837 -0.778486 1.77914 0
M  V30 4394 O 422.112 -1.56433 1.15581 0
M  V30 4395 C 422.395 1.11063 3.42545 0
M  V30 4396 C 422.248 2.63737 3.64367 0
M  V30 4397 C 423.567 0.673059 4.34923 0
M  V30 4398 H 420.686 0.251702 0.692687 0
M  V30 4399 H 423.328 1.25074 1.43026 0
M  V30 4400 H 421.478 0.632508 3.83317 0
M  V30 4401 H 423.15 3.19313 3.32922 0
M  V30 4402 H 421.393 3.05248 3.08231 0
M  V30 4403 H 422.064 2.88305 4.70727 0
M  V30 4404 H 424.54 1.08392 4.01734 0
M  V30 4405 H 423.416 0.996383 5.39781 0
M  V30 4406 H 423.677 -0.425808 4.40045 0
M  V30 4407 N 422.737 -1.36956 0.779787 0
M  V30 4408 C 423.986 -1.98738 0.344405 0
M  V30 4409 C 424.299 -1.62596 -1.08728 0
M  V30 4410 O 425.505 -2.1754 -1.62445 0
M  V30 4411 C 423.961 -3.5544 0.564829 0
M  V30 4412 C 423.569 -4.00514 2.0073 0
M  V30 4413 C 425.313 -4.24059 0.193471 0
M  V30 4414 C 423.22 -5.49957 2.17489 0
M  V30 4415 H 422.15 -0.743561 0.12503 0
M  V30 4416 H 424.801 -1.56381 0.960057 0
M  V30 4417 H 423.183 -3.95817 -0.120397 0
M  V30 4418 H 424.357 -3.71362 2.72814 0
M  V30 4419 H 422.672 -3.44703 2.336 0
M  V30 4420 H 425.269 -5.33874 0.297097 0
M  V30 4421 H 425.612 -4.07378 -0.857263 0
M  V30 4422 H 426.145 -3.89012 0.831556 0
M  V30 4423 H 422.884 -5.71574 3.2091 0
M  V30 4424 H 422.404 -5.80767 1.49899 0
M  V30 4425 H 424.083 -6.16043 1.97738 0
M  V30 4426 N 424.215 -0.530993 -1.48385 0
M  V30 4427 C 425.178 0.220497 -2.28137 0
M  V30 4428 C 426.178 0.866851 -1.35434 0
M  V30 4429 O 427.368 0.726746 -1.58316 0
M  V30 4430 C 424.5 1.31921 -3.1434 0
M  V30 4431 H 425.693 -0.479714 -2.96038 0
M  V30 4432 H 423.246 -0.286968 -1.53643 0
M  V30 4433 H 423.981 2.05264 -2.51072 0
M  V30 4434 H 423.766 0.86085 -3.82533 0
M  V30 4435 H 425.256 1.84776 -3.74497 0
M  V30 4436 N 425.693 1.55336 -0.266172 0
M  V30 4437 C 426.623 2.25146 0.618981 0
M  V30 4438 C 427.604 1.23845 1.16604 0
M  V30 4439 O 428.789 1.52544 1.20183 0
M  V30 4440 C 425.919 2.96572 1.80728 0
M  V30 4441 C 424.873 4.04726 1.39215 0
M  V30 4442 C 424.199 4.63678 2.66283 0
M  V30 4443 C 425.499 5.19407 0.548942 0
M  V30 4444 H 427.193 2.99377 0.0368116 0
M  V30 4445 H 424.739 1.43991 0.0162651 0
M  V30 4446 H 426.692 3.44116 2.43232 0
M  V30 4447 H 425.416 2.19861 2.41514 0
M  V30 4448 H 424.075 3.57979 0.790351 0
M  V30 4449 H 423.723 3.83646 3.25308 0
M  V30 4450 H 423.423 5.367 2.39222 0
M  V30 4451 H 424.947 5.13967 3.29651 0
M  V30 4452 H 426.361 5.63059 1.07876 0
M  V30 4453 H 424.758 5.98936 0.373593 0
M  V30 4454 H 425.828 4.8295 -0.434394 0
M  V30 4455 N 427.171 -0.0066808 1.57599 0
M  V30 4456 C 428.119 -1.01851 2.09115 0
M  V30 4457 C 429.113 -1.36021 1.00969 0
M  V30 4458 O 430.319 -1.34663 1.19439 0
M  V30 4459 H 426.694 -0.346083 0.667631 0
M  V30 4460 H 428.665 -0.558394 2.93129 0
M  V30 4461 C 427.414 -2.30374 2.60429 0
M  V30 4462 H 426.737 -2.04947 3.43273 0
M  V30 4463 H 428.177 -2.99466 3.00161 0
M  V30 4464 C 426.636 -3.00893 1.51542 0
M  V30 4465 O 427.166 -3.91614 0.894484 0
M  V30 4466 N 425.372 -2.62603 1.2445 0
M  V30 4467 H 424.919 -1.88911 1.75129 0
M  V30 4468 H 424.877 -3.10101 0.518137 0
M  V30 4469 N 428.649 -1.55105 -0.279332 0
M  V30 4470 C 429.897 -1.75066 -1.00977 0
M  V30 4471 C 430.218 -0.551276 -1.87045 0
M  V30 4472 O 429.488 0.433984 -1.91032 0
M  V30 4473 H 428.068 -0.645578 -0.375816 0
M  V30 4474 H 430.73 -1.92497 -0.305089 0
M  V30 4475 H 429.826 -2.64894 -1.65038 0
M  V30 4476 N 430.127 0.543554 -1.4793 0
M  V30 4477 C 431.376 1.29649 -1.54512 0
M  V30 4478 C 431.689 1.94382 -0.217973 0
M  V30 4479 O 432.895 2.71017 -0.161908 0
M  V30 4480 C 431.351 2.35175 -2.72435 0
M  V30 4481 C 430.959 1.76572 -4.11736 0
M  V30 4482 C 432.703 3.11564 -2.8832 0
M  V30 4483 C 430.61 2.79958 -5.20939 0
M  V30 4484 H 429.54 0.487541 -0.57517 0
M  V30 4485 H 432.191 0.575708 -1.74235 0
M  V30 4486 H 430.573 3.10229 -2.46118 0
M  V30 4487 H 431.747 1.07799 -4.48013 0
M  V30 4488 H 430.062 1.12722 -4.00852 0
M  V30 4489 H 432.659 3.88794 -3.67074 0
M  V30 4490 H 433.002 3.66594 -1.97268 0
M  V30 4491 H 433.535 2.43623 -3.14472 0
M  V30 4492 H 430.274 2.29766 -6.13912 0
M  V30 4493 H 429.794 3.47101 -4.89164 0
M  V30 4494 H 431.473 3.43198 -5.48474 0
M  V30 4495 N 431.605 1.3629 0.791371 0
M  V30 4496 C 432.851 1.30605 1.55146 0
M  V30 4497 C 433.184 -0.115042 1.93859 0
M  V30 4498 O 432.459 -1.06798 1.62556 0
M  V30 4499 C 432.742 2.22692 2.82985 0
M  V30 4500 C 432.595 3.73489 2.50651 0
M  V30 4501 C 433.914 2.13588 3.84796 0
M  V30 4502 H 431.033 0.475761 0.562868 0
M  V30 4503 H 433.675 1.66825 0.909358 0
M  V30 4504 H 431.825 1.91933 3.37778 0
M  V30 4505 H 433.497 4.14758 2.01924 0
M  V30 4506 H 431.74 3.93021 1.83622 0
M  V30 4507 H 432.411 4.3333 3.41949 0
M  V30 4508 H 434.887 2.40659 3.39445 0
M  V30 4509 H 433.763 2.80195 4.71998 0
M  V30 4510 H 434.024 1.12256 4.27611 0
M  V30 4511 N 433.083 -1.0153 1.20538 0
M  V30 4512 C 434.03 -2.10098 0.955383 0
M  V30 4513 C 435 -1.65702 -0.114878 0
M  V30 4514 O 436.185 -1.90776 0.0301118 0
M  V30 4515 C 433.325 -3.41236 0.514969 0
M  V30 4516 C 432.438 -3.99102 1.65353 0
M  V30 4517 C 431.573 -5.18306 1.16329 0
M  V30 4518 C 430.612 -5.68258 2.27485 0
M  V30 4519 N 429.749 -6.78722 1.7967 0
M  V30 4520 H 434.589 -2.30818 1.88486 0
M  V30 4521 H 432.126 -1.13189 0.939499 0
M  V30 4522 H 434.084 -4.16504 0.240935 0
M  V30 4523 H 432.714 -3.20585 -0.377512 0
M  V30 4524 H 431.766 -3.20918 2.04245 0
M  V30 4525 H 433.078 -4.32177 2.49047 0
M  V30 4526 H 432.232 -6.00782 0.845302 0
M  V30 4527 H 430.971 -4.86799 0.296254 0
M  V30 4528 H 429.976 -4.84385 2.60099 0
M  V30 4529 H 431.201 -6.01798 3.14667 0
M  V30 4530 H 429.147 -6.49042 0.95295 0
M  V30 4531 H 429.064 -7.10996 2.56944 0
M  V30 4532 H 430.332 -7.64759 1.50875 0
M  V30 4533 N 434.561 -1.01147 -1.20859 0
M  V30 4534 C 435.491 -0.597663 -2.25722 0
M  V30 4535 C 436.472 0.384744 -1.65692 0
M  V30 4536 O 437.657 0.271303 -1.92296 0
M  V30 4537 C 434.787 0.0700149 -3.47229 0
M  V30 4538 C 433.741 -0.832843 -4.19819 0
M  V30 4539 C 433.067 -0.0312202 -5.34691 0
M  V30 4540 C 434.367 -2.1385 -4.76514 0
M  V30 4541 H 436.061 -1.47423 -2.60589 0
M  V30 4542 H 433.607 -0.710301 -1.25263 0
M  V30 4543 H 435.56 0.37103 -4.19763 0
M  V30 4544 H 434.284 0.981259 -3.11511 0
M  V30 4545 H 432.943 -1.11778 -3.49144 0
M  V30 4546 H 432.591 0.881515 -4.95215 0
M  V30 4547 H 432.291 -0.632434 -5.84187 0
M  V30 4548 H 433.815 0.26346 -6.10031 0
M  V30 4549 H 435.229 -1.9002 -5.40893 0
M  V30 4550 H 433.626 -2.69012 -5.36426 0
M  V30 4551 H 434.696 -2.80495 -3.95538 0
M  V30 4552 N 436.039 1.36541 -0.78704 0
M  V30 4553 C 436.971 2.28761 -0.141773 0
M  V30 4554 C 437.984 1.49365 0.647599 0
M  V30 4555 O 439.173 1.71836 0.483173 0
M  V30 4556 C 436.273 3.28771 0.822368 0
M  V30 4557 C 435.446 4.3732 0.0835594 0
M  V30 4558 C 434.505 5.17307 0.963296 0
M  V30 4559 O 433.531 5.67638 0.421419 0
M  V30 4560 N 434.733 5.33515 2.28784 0
M  V30 4561 H 437.498 2.84777 -0.933919 0
M  V30 4562 H 435.059 1.48682 -0.640735 0
M  V30 4563 H 437.051 3.79169 1.41468 0
M  V30 4564 H 435.621 2.73412 1.5154 0
M  V30 4565 H 434.841 3.88118 -0.689809 0
M  V30 4566 H 436.129 5.0701 -0.426358 0
M  V30 4567 H 435.527 4.94234 2.75226 0
M  V30 4568 H 434.084 5.87165 2.82985 0
M  V30 4569 N 437.518 0.538854 1.48102 0
M  V30 4570 C 438.465 -0.219042 2.29758 0
M  V30 4571 C 439.435 -0.925562 1.37922 0
M  V30 4572 O 440.62 -0.924855 1.66886 0
M  V30 4573 C 437.76 -1.25452 3.2149 0
M  V30 4574 C 436.873 -0.555943 4.28408 0
M  V30 4575 C 436.008 -1.57512 5.0731 0
M  V30 4576 C 435.047 -0.860498 6.06021 0
M  V30 4577 N 434.184 -1.82564 6.77949 0
M  V30 4578 H 439.024 0.483449 2.94052 0
M  V30 4579 H 436.561 0.250247 1.44956 0
M  V30 4580 H 438.519 -1.86727 3.7308 0
M  V30 4581 H 437.149 -1.92528 2.591 0
M  V30 4582 H 436.201 0.170938 3.80016 0
M  V30 4583 H 437.513 0.00474616 4.988 0
M  V30 4584 H 436.667 -2.26191 5.62959 0
M  V30 4585 H 435.406 -2.16972 4.36778 0
M  V30 4586 H 434.411 -0.159686 5.49568 0
M  V30 4587 H 435.636 -0.271897 6.78555 0
M  V30 4588 H 433.582 -2.40915 6.10161 0
M  V30 4589 H 433.499 -1.31662 7.44447 0
M  V30 4590 H 434.767 -2.50414 7.38182 0
M  V30 4591 N 438.996 -1.55193 0.274407 0
M  V30 4592 C 439.906 -2.26164 -0.623473 0
M  V30 4593 C 440.922 -1.28729 -1.17068 0
M  V30 4594 O 442.098 -1.61663 -1.20112 0
M  V30 4595 C 439.163 -2.96833 -1.7914 0
M  V30 4596 C 438.224 -4.09745 -1.28093 0
M  V30 4597 C 437.457 -4.77034 -2.3932 0
M  V30 4598 O 437.68 -4.4353 -3.5866 0
M  V30 4599 O 436.614 -5.64996 -2.07516 0
M  V30 4600 H 440.44 -3.03661 -0.0485661 0
M  V30 4601 H 438.025 -1.49341 0.0418382 0
M  V30 4602 H 439.907 -3.41248 -2.4724 0
M  V30 4603 H 438.582 -2.22253 -2.35341 0
M  V30 4604 H 437.489 -3.69787 -0.566416 0
M  V30 4605 H 438.822 -4.86224 -0.764683 0
M  V30 4606 N 440.474 -0.00167713 -1.576 0
M  V30 4607 C 441.72 0.683832 -1.90923 0
M  V30 4608 C 442.053 1.7333 -0.875799 0
M  V30 4609 O 441.328 1.94215 0.10525 0
M  V30 4610 C 441.611 1.32543 -3.3482 0
M  V30 4611 C 441.464 0.287387 -4.48881 0
M  V30 4612 C 442.783 2.25114 -3.78169 0
M  V30 4613 H 439.902 0.247125 -0.694333 0
M  V30 4614 H 442.544 -0.0533149 -1.89925 0
M  V30 4615 H 440.694 1.95372 -3.35801 0
M  V30 4616 H 442.366 -0.341346 -4.60035 0
M  V30 4617 H 440.609 -0.39017 -4.32042 0
M  V30 4618 H 441.28 0.775393 -5.46527 0
M  V30 4619 H 443.756 1.723 -3.7875 0
M  V30 4620 H 442.632 2.66971 -4.79602 0
M  V30 4621 H 442.893 3.13092 -3.12131 0
M  V30 4622 N 441.952 1.55251 0.271103 0
M  V30 4623 C 442.862 1.9136 1.35714 0
M  V30 4624 C 443.878 0.811075 1.5394 0
M  V30 4625 O 445.054 1.11031 1.6803 0
M  V30 4626 C 442.119 2.1798 2.69603 0
M  V30 4627 C 441.18 3.4153 2.60107 0
M  V30 4628 C 440.413 3.66871 3.8761 0
M  V30 4629 O 440.636 2.94689 4.8838 0
M  V30 4630 O 439.57 4.60405 3.87699 0
M  V30 4631 H 443.396 2.83815 1.08088 0
M  V30 4632 H 440.981 1.41821 0.469792 0
M  V30 4633 H 442.863 2.36518 3.48765 0
M  V30 4634 H 441.538 1.28708 2.97012 0
M  V30 4635 H 440.445 3.28325 1.79314 0
M  V30 4636 H 441.778 4.31027 2.37647 0
M  V30 4637 N 443.43 -0.535701 1.48216 0
M  V30 4638 C 444.34 -1.66785 1.64985 0
M  V30 4639 C 445.356 -1.65654 0.532414 0
M  V30 4640 O 446.532 -1.8471 0.80275 0
M  V30 4641 C 443.597 -3.0326 1.68031 0
M  V30 4642 C 442.658 -3.1529 2.9136 0
M  V30 4643 C 441.891 -4.45255 2.94252 0
M  V30 4644 O 442.114 -5.32011 2.05719 0
M  V30 4645 O 441.048 -4.6153 3.86359 0
M  V30 4646 H 444.874 -1.55576 2.60825 0
M  V30 4647 H 442.459 -0.70815 1.31551 0
M  V30 4648 H 444.341 -3.84436 1.72589 0
M  V30 4649 H 443.016 -3.14805 0.753628 0
M  V30 4650 H 441.923 -2.3343 2.92337 0
M  V30 4651 H 443.256 -3.08658 3.83394 0
M  V30 4652 N 444.908 -1.36708 -0.784132 0
M  V30 4653 C 446.148 -1.32618 -1.55537 0
M  V30 4654 C 446.512 0.0920681 -1.91779 0
M  V30 4655 O 447.713 0.257573 -2.67563 0
M  V30 4656 C 445.984 -2.22788 -2.79464 0
M  V30 4657 S 447.543 -2.36432 -3.69656 0
M  V30 4658 H 444.361 -0.470973 -0.53264 0
M  V30 4659 H 446.963 -1.72333 -0.92312 0
M  V30 4660 H 445.667 -3.24774 -2.50899 0
M  V30 4661 H 445.198 -1.84112 -3.47658 0
M  V30 4662 H 447.213 -1.56573 -4.7085 0
M  V30 4663 N 446.386 1.0089 -1.21074 0
M  V30 4664 C 447.349 2.0775 -0.968129 0
M  V30 4665 C 448.349 1.6069 0.0593445 0
M  V30 4666 O 449.539 1.73293 -0.177525 0
M  V30 4667 C 446.671 3.37794 -0.459108 0
M  V30 4668 H 447.864 2.30707 -1.9161 0
M  V30 4669 H 445.417 1.17807 -1.02719 0
M  V30 4670 H 446.152 3.20516 0.49397 0
M  V30 4671 H 445.937 3.7328 -1.20019 0
M  V30 4672 H 447.427 4.16454 -0.309099 0
M  V30 4673 N 447.864 1.01787 1.20321 0
M  V30 4674 C 448.812 0.58254 2.25187 0
M  V30 4675 C 449.806 -0.379359 1.65098 0
M  V30 4676 O 451.012 -0.249142 1.78267 0
M  V30 4677 H 447.387 0.170078 0.732514 0
M  V30 4678 H 449.358 1.47788 2.59232 0
M  V30 4679 C 448.107 -0.0620885 3.47645 0
M  V30 4680 H 447.43 0.669069 3.94162 0
M  V30 4681 H 448.87 -0.329784 4.22716 0
M  V30 4682 C 447.329 -1.3053 3.10586 0
M  V30 4683 O 447.859 -2.39848 3.22236 0
M  V30 4684 N 446.065 -1.18988 2.65123 0
M  V30 4685 H 445.612 -0.300341 2.55843 0
M  V30 4686 H 445.57 -2.02267 2.40698 0
M  V30 4687 N 449.342 -1.36122 0.79427 0
M  V30 4688 C 450.272 -2.32551 0.210328 0
M  V30 4689 C 451.253 -1.56884 -0.657386 0
M  V30 4690 O 452.438 -1.85014 -0.590207 0
M  V30 4691 C 449.568 -3.41128 -0.651819 0
M  V30 4692 C 448.522 -4.27842 0.116395 0
M  V30 4693 C 447.848 -5.2763 -0.86666 0
M  V30 4694 C 449.148 -5.05647 1.30837 0
M  V30 4695 H 450.842 -2.81636 1.01594 0
M  V30 4696 H 448.388 -1.35407 0.489981 0
M  V30 4697 H 450.341 -4.07581 -1.07031 0
M  V30 4698 H 449.065 -2.90622 -1.49019 0
M  V30 4699 H 447.724 -3.62952 0.515915 0
M  V30 4700 H 447.372 -4.73395 -1.70019 0
M  V30 4701 H 447.072 -5.86514 -0.35705 0
M  V30 4702 H 448.596 -5.96955 -1.28361 0
M  V30 4703 H 450.01 -5.65113 0.965393 0
M  V30 4704 H 448.407 -5.73967 1.75161 0
M  V30 4705 H 449.477 -4.37006 2.10128 0
M  V30 4706 N 450.82 -0.546701 -1.47814 0
M  V30 4707 C 452.045 -0.021268 -2.07389 0
M  V30 4708 C 452.47 1.25822 -1.39822 0
M  V30 4709 O 451.828 1.75111 -0.46968 0
M  V30 4710 C 451.876 0.168502 -3.60206 0
M  V30 4711 O 450.98 1.23347 -3.93522 0
M  V30 4712 H 450.321 -0.0466108 -0.662362 0
M  V30 4713 H 452.851 -0.759387 -1.89985 0
M  V30 4714 H 452.861 0.385982 -4.0617 0
M  V30 4715 H 451.536 -0.766075 -4.08784 0
M  V30 4716 H 450.113 0.997319 -3.59316 0
M  V30 4717 N 452.299 1.55045 -0.282633 0
M  V30 4718 C 453.715 1.59441 0.0712997 0
M  V30 4719 C 453.915 1.2998 1.53972 0
M  V30 4720 O 452.971 1.06431 2.28973 0
M  V30 4721 C 454.284 2.99097 -0.310104 0
M  V30 4722 C 455.832 3.1194 -0.257343 0
M  V30 4723 C 456.307 4.53875 -0.613297 0
M  V30 4724 N 457.798 4.5974 -0.565134 0
M  V30 4725 C 458.533 5.67603 -0.81326 0
M  V30 4726 N 458.029 6.83582 -1.1264 0
M  V30 4727 N 459.822 5.57187 -0.741553 0
M  V30 4728 H 451.973 1.72458 -1.23984 0
M  V30 4729 H 454.236 0.804549 -0.501403 0
M  V30 4730 H 453.942 3.25516 -1.33163 0
M  V30 4731 H 453.816 3.75616 0.345366 0
M  V30 4732 H 456.203 2.85281 0.754905 0
M  V30 4733 H 456.284 2.37618 -0.947178 0
M  V30 4734 H 455.928 4.81261 -1.62327 0
M  V30 4735 H 455.858 5.26508 0.09841 0
M  V30 4736 H 458.349 3.76427 -0.333294 0
M  V30 4737 H 458.662 7.6175 -1.30219 0
M  V30 4738 H 457.007 6.85179 -1.16425 0
M  V30 4739 H 460.198 4.65457 -0.496705 0
M  V30 4740 H 460.371 6.41171 -0.938306 0
M  V30 4741 N 453.777 0.010035 1.57597 0
M  V30 4742 C 454.707 -0.976857 2.12084 0
M  V30 4743 C 455.688 -1.35191 1.03235 0
M  V30 4744 O 456.873 -1.43389 1.3097 0
M  V30 4745 C 454.003 -2.26548 2.63236 0
M  V30 4746 C 452.957 -2.03175 3.76701 0
M  V30 4747 C 452.283 -3.38138 4.14206 0
M  V30 4748 C 453.583 -1.38625 5.03568 0
M  V30 4749 H 455.277 -0.523145 2.94794 0
M  V30 4750 H 452.823 -0.250195 1.4181 0
M  V30 4751 H 454.776 -2.95952 2.99984 0
M  V30 4752 H 453.5 -2.74051 1.77661 0
M  V30 4753 H 452.159 -1.36195 3.40362 0
M  V30 4754 H 451.807 -3.83363 3.25641 0
M  V30 4755 H 451.507 -3.23312 4.90656 0
M  V30 4756 H 453.031 -4.08841 4.53521 0
M  V30 4757 H 454.445 -1.98 5.38023 0
M  V30 4758 H 452.842 -1.34256 5.84889 0
M  V30 4759 H 453.912 -0.356722 4.83586 0
M  V30 4760 N 455.255 -1.55392 -0.262866 0
M  V30 4761 C 456.185 -1.91978 -1.32917 0
M  V30 4762 C 457.166 -0.7828 -1.51017 0
M  V30 4763 O 458.351 -1.04178 -1.63892 0
M  V30 4764 C 455.481 -2.20055 -2.68687 0
M  V30 4765 C 454.435 -3.35854 -2.65304 0
M  V30 4766 C 453.761 -3.49435 -4.04721 0
M  V30 4767 C 455.061 -4.71977 -2.23685 0
M  V30 4768 H 456.755 -2.81292 -1.02544 0
M  V30 4769 H 454.301 -1.3534 -0.491846 0
M  V30 4770 H 456.254 -2.44237 -3.43404 0
M  V30 4771 H 454.978 -1.27551 -3.00663 0
M  V30 4772 H 453.637 -3.11655 -1.93045 0
M  V30 4773 H 453.285 -2.54379 -4.33936 0
M  V30 4774 H 452.985 -4.27297 -4.0335 0
M  V30 4775 H 454.509 -3.7592 -4.81161 0
M  V30 4776 H 455.923 -4.95637 -2.88127 0
M  V30 4777 H 454.32 -5.52828 -2.33456 0
M  V30 4778 H 455.39 -4.70115 -1.18827 0
M  V30 4779 N 456.733 0.527833 -1.48498 0
M  V30 4780 C 457.68 1.6322 -1.6318 0
M  V30 4781 C 458.65 1.59199 -0.473815 0
M  V30 4782 O 459.835 1.77591 -0.697563 0
M  V30 4783 C 456.975 3.01474 -1.67951 0
M  V30 4784 C 456.088 3.15713 -2.94871 0
M  V30 4785 C 455.223 4.44539 -2.90789 0
M  V30 4786 C 454.262 4.52315 -4.12404 0
M  V30 4787 N 453.399 5.72533 -4.06387 0
M  V30 4788 H 458.239 1.50011 -2.57489 0
M  V30 4789 H 455.776 0.730298 -1.27691 0
M  V30 4790 H 457.734 3.81572 -1.68698 0
M  V30 4791 H 456.364 3.1345 -0.771306 0
M  V30 4792 H 455.416 2.28854 -3.03859 0
M  V30 4793 H 456.728 3.1732 -3.8485 0
M  V30 4794 H 455.882 5.3293 -2.89949 0
M  V30 4795 H 454.621 4.45457 -1.98542 0
M  V30 4796 H 453.626 3.62331 -4.13517 0
M  V30 4797 H 454.851 4.53134 -5.05812 0
M  V30 4798 H 452.797 5.74344 -3.16962 0
M  V30 4799 H 452.714 5.75643 -4.90073 0
M  V30 4800 H 453.982 6.63204 -4.0961 0
M  V30 4801 N 458.211 1.37122 0.776871 0
M  V30 4802 C 459.161 1.28989 1.88005 0
M  V30 4803 C 460.145 0.178765 1.59904 0
M  V30 4804 O 461.337 0.412705 1.72121 0
M  V30 4805 C 458.466 1.09402 3.25402 0
M  V30 4806 C 457.552 2.25036 3.59471 0
M  V30 4807 N 457.943 3.50407 3.64759 0
M  V30 4808 C 456.241 2.17078 3.89607 0
M  V30 4809 C 456.942 4.26628 3.95428 0
M  V30 4810 N 455.918 3.55709 4.11062 0
M  V30 4811 H 459.72 2.2394 1.90337 0
M  V30 4812 H 457.234 1.30021 0.973052 0
M  V30 4813 H 459.231 1.01661 4.04315 0
M  V30 4814 H 457.891 0.153632 3.24336 0
M  V30 4815 H 458.902 3.8438 3.47091 0
M  V30 4816 H 455.579 1.31067 3.96393 0
M  V30 4817 H 456.969 5.35107 4.06338 0
M  V30 4818 N 459.689 -1.00246 1.21608 0
M  V30 4819 C 460.599 -2.12515 0.993709 0
M  V30 4820 C 461.615 -1.73913 -0.0549939 0
M  V30 4821 O 462.791 -2.00943 0.135619 0
M  V30 4822 C 459.856 -3.42083 0.563953 0
M  V30 4823 C 458.917 -3.94843 1.68516 0
M  V30 4824 C 458.15 -5.18226 1.27582 0
M  V30 4825 O 458.373 -5.70201 0.150506 0
M  V30 4826 O 457.307 -5.64497 2.0887 0
M  V30 4827 H 461.133 -2.34152 1.93407 0
M  V30 4828 H 458.718 -1.10891 1.00118 0
M  V30 4829 H 460.6 -4.20073 0.334194 0
M  V30 4830 H 459.275 -3.21828 -0.347665 0
M  V30 4831 H 458.182 -3.18068 1.96935 0
M  V30 4832 H 459.515 -4.19512 2.5743 0
M  V30 4833 N 461.167 -1.02423 -1.1978 0
M  V30 4834 C 462.583 -0.740459 -1.41384 0
M  V30 4835 C 462.783 0.676827 -1.89793 0
M  V30 4836 O 461.839 1.4435 -2.0717 0
M  V30 4837 C 463.152 -1.77264 -2.42895 0
M  V30 4838 C 464.7 -1.79165 -2.56649 0
M  V30 4839 C 465.175 -2.8133 -3.6141 0
M  V30 4840 N 466.666 -2.80118 -3.68901 0
M  V30 4841 C 467.401 -3.55824 -4.49641 0
M  V30 4842 N 466.897 -4.41231 -5.34123 0
M  V30 4843 N 468.69 -3.44387 -4.44246 0
M  V30 4844 H 460.841 -1.9391 -0.866764 0
M  V30 4845 H 463.104 -0.838074 -0.443098 0
M  V30 4846 H 462.81 -2.7884 -2.14339 0
M  V30 4847 H 462.684 -1.59108 -3.42001 0
M  V30 4848 H 465.071 -0.782702 -2.84531 0
M  V30 4849 H 465.152 -2.01396 -1.57713 0
M  V30 4850 H 464.796 -3.82394 -3.34271 0
M  V30 4851 H 464.726 -2.56359 -4.59986 0
M  V30 4852 H 467.217 -2.1817 -3.08562 0
M  V30 4853 H 467.53 -4.95747 -5.92836 0
M  V30 4854 H 465.875 -4.45306 -5.33599 0
M  V30 4855 H 469.066 -2.7708 -3.77285 0
M  V30 4856 H 469.239 -4.0364 -5.06931 0
M  V30 4857 N 462.645 1.35699 -0.801477 0
M  V30 4858 C 463.592 2.29876 -0.206294 0
M  V30 4859 C 464.562 1.52565 0.656752 0
M  V30 4860 O 465.747 1.81024 0.602906 0
M  V30 4861 C 462.887 3.39052 0.643272 0
M  V30 4862 C 462 4.31335 -0.239644 0
M  V30 4863 C 461.135 5.27599 0.61744 0
M  V30 4864 C 460.174 6.11521 -0.26619 0
M  V30 4865 N 459.311 6.99938 0.550571 0
M  V30 4866 H 464.151 2.80187 -1.01484 0
M  V30 4867 H 461.688 1.37902 -0.511997 0
M  V30 4868 H 463.646 4.0101 1.15094 0
M  V30 4869 H 462.276 2.9003 1.41713 0
M  V30 4870 H 461.328 3.70426 -0.865381 0
M  V30 4871 H 462.64 4.90243 -0.919985 0
M  V30 4872 H 461.794 5.94906 1.19045 0
M  V30 4873 H 460.533 4.69176 1.33137 0
M  V30 4874 H 459.538 5.43166 -0.851507 0
M  V30 4875 H 460.763 6.72022 -0.9779 0
M  V30 4876 H 458.709 6.44008 1.24856 0
M  V30 4877 H 458.626 7.55966 -0.071832 0
M  V30 4878 H 459.894 7.71599 1.10702 0
M  V30 4879 N 464.123 0.554532 1.47522 0
M  V30 4880 C 465.071 -0.207765 2.3167 0
M  V30 4881 C 466.065 -0.911914 1.4276 0
M  V30 4882 O 467.271 -0.833504 1.59539 0
M  V30 4883 H 463.646 -0.0858726 0.747081 0
M  V30 4884 H 465.617 0.521178 2.93813 0
M  V30 4885 C 464.366 -1.2263 3.25357 0
M  V30 4886 H 463.689 -0.693887 3.93732 0
M  V30 4887 H 465.129 -1.73062 3.87073 0
M  V30 4888 C 463.588 -2.27278 2.4869 0
M  V30 4889 O 464.118 -3.34156 2.22941 0
M  V30 4890 N 462.324 -2.01134 2.09746 0
M  V30 4891 H 461.871 -1.14232 2.30887 0
M  V30 4892 H 461.829 -2.71369 1.58765 0
M  V30 4893 N 465.601 -1.54893 0.290851 0
M  V30 4894 C 466.85 -1.99111 -0.322113 0
M  V30 4895 C 467.163 -1.18283 -1.55784 0
M  V30 4896 O 468.369 -1.5272 -2.24475 0
M  V30 4897 C 466.825 -3.54442 -0.624438 0
M  V30 4898 C 466.433 -4.44066 0.592373 0
M  V30 4899 C 468.177 -4.07211 -1.19916 0
M  V30 4900 C 466.084 -5.90812 0.263762 0
M  V30 4901 H 465.014 -0.743712 -0.124133 0
M  V30 4902 H 467.665 -1.79132 0.39797 0
M  V30 4903 H 466.047 -3.70281 -1.40384 0
M  V30 4904 H 467.221 -4.39999 1.36886 0
M  V30 4905 H 465.536 -4.02015 1.08502 0
M  V30 4906 H 468.133 -5.14407 -1.45909 0
M  V30 4907 H 468.476 -3.57196 -2.13815 0
M  V30 4908 H 469.009 -3.94873 -0.481687 0
M  V30 4909 H 465.748 -6.44955 1.17105 0
M  V30 4910 H 465.268 -5.97911 -0.475655 0
M  V30 4911 H 466.947 -6.46852 -0.138354 0
M  V30 4912 N 467.08 -0.0183926 -1.57589 0
M  V30 4913 C 468.305 0.676634 -1.96052 0
M  V30 4914 C 468.73 1.6548 -0.894307 0
M  V30 4915 O 468.088 1.80712 0.145849 0
M  V30 4916 C 468.136 1.36872 -3.33614 0
M  V30 4917 O 467.24 2.48372 -3.29219 0
M  V30 4918 H 466.581 0.1786 -0.63953 0
M  V30 4919 H 469.111 -0.077056 -2.04455 0
M  V30 4920 H 469.121 1.72797 -3.69601 0
M  V30 4921 H 467.796 0.651636 -4.10763 0
M  V30 4922 H 466.373 2.14639 -3.04934 0
M  V30 4923 N 468.558 1.5553 0.254621 0
M  V30 4924 C 469.807 1.76202 0.981612 0
M  V30 4925 C 470.12 0.580883 1.86776 0
M  V30 4926 O 471.326 0.670448 2.63092 0
M  V30 4927 C 469.782 3.11921 1.79537 0
M  V30 4928 C 469.39 4.37659 0.956991 0
M  V30 4929 C 471.134 3.41936 2.51555 0
M  V30 4930 C 469.041 5.64411 1.76619 0
M  V30 4931 H 467.971 0.656841 0.370237 0
M  V30 4932 H 470.622 1.81969 0.236556 0
M  V30 4933 H 469.004 3.00241 2.58208 0
M  V30 4934 H 470.178 4.60307 0.21315 0
M  V30 4935 H 468.493 4.14922 0.350497 0
M  V30 4936 H 471.09 4.33849 3.12536 0
M  V30 4937 H 471.433 2.62905 3.22779 0
M  V30 4938 H 471.966 3.54797 1.799 0
M  V30 4939 H 468.705 6.46241 1.09783 0
M  V30 4940 H 468.225 5.45877 2.48551 0
M  V30 4941 H 469.904 6.03386 2.33527 0
M  V30 4942 N 470.036 -0.519951 1.48776 0
M  V30 4943 C 471.283 -1.27522 1.57303 0
M  V30 4944 C 471.611 -1.92869 0.251328 0
M  V30 4945 O 470.866 -1.80372 -0.759243 0
M  V30 4946 C 471.165 -2.37864 2.6675 0
M  V30 4947 C 470.831 -1.90103 4.08867 0
M  V30 4948 C 469.493 -1.76795 4.47546 0
M  V30 4949 C 471.845 -1.54133 4.97888 0
M  V30 4950 C 469.173 -1.25868 5.73039 0
M  V30 4951 C 471.525 -1.04665 6.23881 0
M  V30 4952 C 470.189 -0.899823 6.61407 0
M  V30 4953 H 469.459 -0.466636 0.575614 0
M  V30 4954 H 472.106 -0.579109 1.82534 0
M  V30 4955 H 470.411 -3.13186 2.35418 0
M  V30 4956 H 472.108 -2.95969 2.70561 0
M  V30 4957 H 468.698 -2.01414 3.78326 0
M  V30 4958 H 472.882 -1.6327 4.68675 0
M  V30 4959 H 468.138 -1.13196 6.0083 0
M  V30 4960 H 472.312 -0.759074 6.92251 0
M  V30 4961 H 469.939 -0.503011 7.58534 0
M  V30 4962 N 471.514 -1.37532 -0.769588 0
M  V30 4963 C 472.461 -1.3347 -1.88293 0
M  V30 4964 C 473.431 -0.199891 -1.64893 0
M  V30 4965 O 474.616 -0.389594 -1.8678 0
M  V30 4966 C 471.756 -1.14968 -3.25387 0
M  V30 4967 C 470.869 -2.37698 -3.60727 0
M  V30 4968 C 470.004 -2.12051 -4.8704 0
M  V30 4969 C 469.043 -3.30636 -5.15117 0
M  V30 4970 N 468.18 -3.04527 -6.3262 0
M  V30 4971 H 473.02 -2.28658 -1.911 0
M  V30 4972 H 470.557 -1.13622 -0.934257 0
M  V30 4973 H 472.515 -1.02261 -4.04473 0
M  V30 4974 H 471.145 -0.234263 -3.21949 0
M  V30 4975 H 470.197 -2.61137 -2.76608 0
M  V30 4976 H 471.509 -3.26131 -3.77413 0
M  V30 4977 H 470.663 -1.96388 -5.74035 0
M  V30 4978 H 469.402 -1.20959 -4.72462 0
M  V30 4979 H 468.407 -3.46836 -4.26597 0
M  V30 4980 H 469.632 -4.22582 -5.31603 0
M  V30 4981 H 467.578 -2.16067 -6.19396 0
M  V30 4982 H 467.495 -3.86503 -6.49732 0
M  V30 4983 H 468.763 -2.92485 -7.22546 0
M  V30 4984 N 472.992 0.995999 -1.22138 0
M  V30 4985 C 474.408 1.25917 -0.980667 0
M  V30 4986 C 474.608 1.98819 0.327604 0
M  V30 4987 O 473.664 2.29587 1.05101 0
M  V30 4988 C 474.977 2.07399 -2.17729 0
M  V30 4989 C 476.525 2.20594 -2.22052 0
M  V30 4990 C 477 3.05462 -3.41258 0
M  V30 4991 N 478.491 3.13049 -3.41401 0
M  V30 4992 C 479.226 3.78997 -4.30289 0
M  V30 4993 N 478.722 4.46899 -5.2939 0
M  V30 4994 N 480.515 3.75728 -4.18073 0
M  V30 4995 H 472.666 0.507158 -2.06256 0
M  V30 4996 H 474.929 0.28658 -0.903646 0
M  V30 4997 H 474.635 1.61191 -3.12586 0
M  V30 4998 H 474.509 3.08154 -2.17534 0
M  V30 4999 H 476.896 2.66017 -1.27745 0
M  V30 5000 H 476.977 1.1928 -2.26287 0
M  V30 5001 H 476.621 2.60739 -4.35864 0
M  V30 5002 H 476.551 4.06911 -3.34262 0
M  V30 5003 H 479.042 2.64721 -2.69688 0
M  V30 5004 H 479.355 4.94952 -5.935 0
M  V30 5005 H 477.7 4.45657 -5.33306 0
M  V30 5006 H 480.891 3.2184 -3.39907 0
M  V30 5007 H 481.064 4.26845 -4.87553 0
M  V30 5008 N 474.47 1.03057 1.19235 0
M  V30 5009 C 475.38 0.622922 2.26179 0
M  V30 5010 C 476.396 -0.346113 1.70523 0
M  V30 5011 O 477.572 -0.203572 2.00369 0
M  V30 5012 C 474.637 -0.0182063 3.46695 0
M  V30 5013 C 473.698 0.998546 4.17526 0
M  V30 5014 C 472.931 0.387917 5.32288 0
M  V30 5015 O 473.154 -0.808668 5.64639 0
M  V30 5016 O 472.088 1.1116 5.91546 0
M  V30 5017 H 475.914 1.51363 2.63292 0
M  V30 5018 H 473.499 0.800856 1.26122 0
M  V30 5019 H 475.381 -0.375606 4.19723 0
M  V30 5020 H 474.056 -0.882895 3.11427 0
M  V30 5021 H 472.963 1.40756 3.4661 0
M  V30 5022 H 474.296 1.83366 4.56769 0
M  V30 5023 N 475.948 -1.35272 0.808662 0
M  V30 5024 C 476.88 -2.28507 0.178149 0
M  V30 5025 C 477.893 -1.50377 -0.623754 0
M  V30 5026 O 479.082 -1.72583 -0.455774 0
M  V30 5027 C 476.182 -3.30038 -0.769959 0
M  V30 5028 C 475.355 -4.37398 -0.0139749 0
M  V30 5029 C 474.414 -5.18775 -0.880875 0
M  V30 5030 O 473.44 -5.68236 -0.331059 0
M  V30 5031 N 474.642 -5.37087 -2.20267 0
M  V30 5032 H 477.407 -2.83255 0.979106 0
M  V30 5033 H 474.968 -1.47643 0.664308 0
M  V30 5034 H 476.96 -3.81371 -1.35418 0
M  V30 5035 H 475.53 -2.75789 -1.47171 0
M  V30 5036 H 474.75 -3.86971 0.751468 0
M  V30 5037 H 476.038 -5.06268 0.506965 0
M  V30 5038 H 475.436 -4.9855 -2.67328 0
M  V30 5039 H 473.993 -5.91593 -2.73608 0
M  V30 5040 N 477.426 -0.562348 -1.47226 0
M  V30 5041 C 478.373 0.182461 -2.30078 0
M  V30 5042 C 479.343 0.903503 -1.39377 0
M  V30 5043 O 480.528 0.898188 -1.68337 0
M  V30 5044 C 477.668 1.20322 -3.23445 0
M  V30 5045 C 476.781 0.487717 -4.29238 0
M  V30 5046 C 475.916 1.49422 -5.09752 0
M  V30 5047 C 474.955 0.763976 -6.07314 0
M  V30 5048 N 474.092 1.71755 -6.80768 0
M  V30 5049 H 478.932 -0.530169 -2.93246 0
M  V30 5050 H 476.469 -0.273276 -1.44539 0
M  V30 5051 H 478.427 1.80768 -3.76004 0
M  V30 5052 H 477.057 1.88382 -2.6213 0
M  V30 5053 H 476.109 -0.231374 -3.79696 0
M  V30 5054 H 477.421 -0.0841003 -4.98729 0
M  V30 5055 H 476.575 2.17206 -5.66486 0
M  V30 5056 H 475.314 2.09995 -4.40174 0
M  V30 5057 H 474.319 0.0722344 -5.49753 0
M  V30 5058 H 475.544 0.16391 -6.78902 0
M  V30 5059 H 473.49 2.31177 -6.13916 0
M  V30 5060 H 473.407 1.19802 -7.46447 0
M  V30 5061 H 474.675 2.38638 -7.42073 0
M  V30 5062 N 478.904 1.54736 -0.299062 0
M  V30 5063 C 479.867 2.22127 0.565012 0
M  V30 5064 C 480.867 1.20669 1.06281 0
M  V30 5065 O 482.057 1.45417 0.959145 0
M  V30 5066 C 479.189 2.90611 1.78208 0
M  V30 5067 H 480.382 2.99891 -0.0237448 0
M  V30 5068 H 477.935 1.5622 -0.0498788 0
M  V30 5069 H 478.67 2.16921 2.41072 0
M  V30 5070 H 478.455 3.64984 1.43281 0
M  V30 5071 H 479.945 3.42026 2.396 0
M  V30 5072 N 480.382 0.0267497 1.57577 0
M  V30 5073 C 481.345 -0.940916 2.08996 0
M  V30 5074 C 482.345 -1.25561 1.00455 0
M  V30 5075 O 483.535 -1.19634 1.26623 0
M  V30 5076 C 480.667 -2.25814 2.55384 0
M  V30 5077 H 481.86 -0.495628 2.95776 0
M  V30 5078 H 479.413 -0.221241 1.54726 0
M  V30 5079 H 480.148 -2.74976 1.71926 0
M  V30 5080 H 479.933 -2.04285 3.34679 0
M  V30 5081 H 481.423 -2.95178 2.95398 0
M  V30 5082 N 481.861 -1.55662 -0.24637 0
M  V30 5083 C 483.089 -1.81575 -0.991876 0
M  V30 5084 C 483.504 -0.602545 -1.78927 0
M  V30 5085 O 482.861 0.428795 -1.77391 0
M  V30 5086 C 482.912 -3.05711 -1.92933 0
M  V30 5087 O 482.633 -4.22348 -1.1642 0
M  V30 5088 C 484.134 -3.44428 -2.79078 0
M  V30 5089 H 481.354 -0.604209 -0.291844 0
M  V30 5090 H 483.898 -2.02722 -0.269095 0
M  V30 5091 H 482.053 -2.86612 -2.60638 0
M  V30 5092 H 482.467 -4.92706 -1.79835 0
M  V30 5093 H 483.941 -4.34388 -3.40603 0
M  V30 5094 H 484.418 -2.65037 -3.50217 0
M  V30 5095 H 485.024 -3.65879 -2.16824 0
M  V30 5096 N 483.339 0.512053 -1.4905 0
M  V30 5097 C 484.567 1.29116 -1.61669 0
M  V30 5098 C 484.982 1.86655 -0.283787 0
M  V30 5099 O 484.339 1.67293 0.729331 0
M  V30 5100 C 484.39 2.4293 -2.67707 0
M  V30 5101 O 484.111 1.87758 -3.95826 0
M  V30 5102 C 485.612 3.34476 -2.90931 0
M  V30 5103 H 482.832 0.392009 -0.544583 0
M  V30 5104 H 485.376 0.615881 -1.95006 0
M  V30 5105 H 483.531 3.06308 -2.37179 0
M  V30 5106 H 483.945 2.62393 -4.54148 0
M  V30 5107 H 485.419 4.10642 -3.68886 0
M  V30 5108 H 485.896 3.90801 -2.00427 0
M  V30 5109 H 486.502 2.76874 -3.22832 0
M  V30 5110 N 484.817 1.37938 0.762283 0
M  V30 5111 C 485.747 1.37176 1.88958 0
M  V30 5112 C 486.728 0.238945 1.68413 0
M  V30 5113 O 487.913 0.440726 1.89133 0
M  V30 5114 C 485.043 1.18742 3.2637 0
M  V30 5115 C 483.997 2.29136 3.61498 0
M  V30 5116 C 483.323 1.95816 4.97554 0
M  V30 5117 C 484.623 3.71363 3.6727 0
M  V30 5118 H 486.317 2.31509 1.89853 0
M  V30 5119 H 483.863 1.11438 0.912005 0
M  V30 5120 H 485.816 1.16837 4.04879 0
M  V30 5121 H 484.54 0.208683 3.25933 0
M  V30 5122 H 483.199 2.30213 2.85303 0
M  V30 5123 H 482.847 0.964475 4.93667 0
M  V30 5124 H 482.547 2.69745 5.22026 0
M  V30 5125 H 484.071 1.95513 5.78452 0
M  V30 5126 H 485.485 3.72364 4.35911 0
M  V30 5127 H 483.882 4.44425 4.03245 0
M  V30 5128 H 484.952 4.04305 2.67704 0
M  V30 5129 N 486.295 -0.989507 1.22664 0
M  V30 5130 C 487.543 -1.72612 1.05117 0
M  V30 5131 C 487.864 -1.90552 -0.414131 0
M  V30 5132 O 487.134 -1.4676 -1.29762 0
M  V30 5133 H 485.714 -0.639555 0.385977 0
M  V30 5134 H 488.376 -1.19158 1.54232 0
M  V30 5135 H 487.472 -2.71926 1.53175 0
M  V30 5136 N 487.773 -1.03688 -1.18687 0
M  V30 5137 C 489.022 -0.733235 -1.879 0
M  V30 5138 C 489.335 0.741745 -1.8099 0
M  V30 5139 O 490.541 1.15875 -2.4553 0
M  V30 5140 C 488.997 -1.26127 -3.37076 0
M  V30 5141 C 488.605 -2.76461 -3.52524 0
M  V30 5142 C 490.349 -1.03398 -4.11715 0
M  V30 5143 C 488.256 -3.22642 -4.95637 0
M  V30 5144 H 487.186 -0.270584 -0.703776 0
M  V30 5145 H 489.837 -1.25222 -1.34133 0
M  V30 5146 H 488.219 -0.670165 -3.90288 0
M  V30 5147 H 489.393 -3.41296 -3.09602 0
M  V30 5148 H 487.708 -2.97559 -2.91286 0
M  V30 5149 H 490.305 -1.3542 -5.17267 0
M  V30 5150 H 490.648 0.0289246 -4.1629 0
M  V30 5151 H 491.181 -1.5895 -3.64664 0
M  V30 5152 H 487.92 -4.28296 -4.96228 0
M  V30 5153 H 487.44 -2.62539 -5.39289 0
M  V30 5154 H 489.119 -3.16444 -5.64333 0
M  V30 5155 N 489.251 1.34841 -0.815825 0
M  V30 5156 C 490.5 1.97755 -0.396976 0
M  V30 5157 C 490.813 1.65422 1.04379 0
M  V30 5158 O 492.019 2.21771 1.5662 0
M  V30 5159 C 490.475 3.53818 -0.658869 0
M  V30 5160 C 490.083 3.95051 -2.11278 0
M  V30 5161 C 491.827 4.23397 -0.305834 0
M  V30 5162 C 489.734 5.43997 -2.31994 0
M  V30 5163 H 488.664 0.739985 -0.1447 0
M  V30 5164 H 491.315 1.53781 -1.00118 0
M  V30 5165 H 489.697 3.95997 0.0154112 0
M  V30 5166 H 490.871 3.63998 -2.82564 0
M  V30 5167 H 489.186 3.38388 -2.42657 0
M  V30 5168 H 491.783 5.32899 -0.43854 0
M  V30 5169 H 492.126 4.09508 0.748952 0
M  V30 5170 H 492.659 3.8667 -0.934403 0
M  V30 5171 H 489.398 5.62865 -3.35952 0
M  V30 5172 H 488.918 5.76589 -1.65244 0
M  V30 5173 H 490.597 6.10584 -2.14001 0
M  V30 5174 N 490.729 0.570148 1.46925 0
M  V30 5175 C 491.975 0.0510284 2.02736 0
M  V30 5176 C 492.308 -1.3006 1.44215 0
M  V30 5177 O 491.583 -1.84932 0.602521 0
M  V30 5178 C 491.866 -0.028215 3.60089 0
M  V30 5179 C 491.719 1.35142 4.29018 0
M  V30 5180 C 493.038 -0.735181 4.33916 0
M  V30 5181 H 490.157 0.0200178 0.736728 0
M  V30 5182 H 492.799 0.73493 1.75211 0
M  V30 5183 H 490.949 -0.610648 3.83671 0
M  V30 5184 H 492.621 1.97806 4.16738 0
M  V30 5185 H 490.864 1.9226 3.88868 0
M  V30 5186 H 491.535 1.24857 5.37694 0
M  V30 5187 H 494.011 -0.240519 4.15404 0
M  V30 5188 H 492.887 -0.759622 5.43618 0
M  V30 5189 H 493.148 -1.79397 4.04066 0
M  V30 5190 N 492.207 -1.54576 0.307264 0
M  V30 5191 C 493.455 -1.99867 -0.299574 0
M  V30 5192 C 493.776 -1.19714 -1.53927 0
M  V30 5193 O 493.046 -0.29472 -1.9367 0
M  V30 5194 H 491.626 -0.738299 -0.113683 0
M  V30 5195 H 494.288 -1.9032 0.420042 0
M  V30 5196 H 493.384 -3.06901 -0.567283 0
M  V30 5197 N 493.685 -0.035106 -1.57561 0
M  V30 5198 C 494.648 0.929819 -2.09492 0
M  V30 5199 C 495.648 1.25026 -1.01119 0
M  V30 5200 O 496.838 1.18961 -1.27255 0
M  V30 5201 C 493.97 2.24457 -2.56577 0
M  V30 5202 H 495.163 0.479935 -2.96035 0
M  V30 5203 H 492.716 0.213033 -1.54841 0
M  V30 5204 H 493.451 2.74061 -1.73382 0
M  V30 5205 H 493.236 2.02508 -3.35757 0
M  V30 5206 H 494.726 2.93607 -2.96959 0
M  V30 5207 N 495.163 1.55791 0.238111 0
M  V30 5208 C 496.41 1.78033 0.964907 0
M  V30 5209 C 496.738 0.600984 1.84982 0
M  V30 5210 O 495.993 -0.41536 1.91241 0
M  V30 5211 C 496.292 3.05869 1.84875 0
M  V30 5212 C 495.958 4.36808 1.11846 0
M  V30 5213 C 494.62 4.72388 0.916662 0
M  V30 5214 C 496.972 5.17717 0.60151 0
M  V30 5215 C 494.3 5.86406 0.185756 0
M  V30 5216 C 496.652 6.32494 -0.115972 0
M  V30 5217 C 495.316 6.66688 -0.329168 0
M  V30 5218 H 494.586 0.651469 0.353085 0
M  V30 5219 H 497.233 1.90061 0.234318 0
M  V30 5220 H 495.538 2.88891 2.64668 0
M  V30 5221 H 497.235 3.20278 2.41294 0
M  V30 5222 H 493.825 4.08862 1.28569 0
M  V30 5223 H 498.009 4.90678 0.744932 0
M  V30 5224 H 493.265 6.11399 0.0101886 0
M  V30 5225 H 497.439 6.94425 -0.524127 0
M  V30 5226 H 495.066 7.54884 -0.897474 0
M  V30 5227 N 496.642 -0.504142 1.49319 0
M  V30 5228 C 497.87 -1.28256 1.62351 0
M  V30 5229 C 498.285 -1.86502 0.293682 0
M  V30 5230 O 497.642 -1.67678 -0.720449 0
M  V30 5231 C 497.693 -2.41507 2.68992 0
M  V30 5232 O 497.414 -1.85656 3.96817 0
M  V30 5233 C 498.915 -3.32929 2.927 0
M  V30 5234 H 496.135 -0.389115 0.546654 0
M  V30 5235 H 498.679 -0.605531 1.95329 0
M  V30 5236 H 496.834 -3.05046 2.38801 0
M  V30 5237 H 497.248 -2.59981 4.55533 0
M  V30 5238 H 498.722 -4.0868 3.71058 0
M  V30 5239 H 499.199 -3.89733 2.02496 0
M  V30 5240 H 499.805 -2.75158 3.24296 0
M  V30 5241 N 498.12 -1.38341 -0.754957 0
M  V30 5242 C 499.366 -1.34672 -1.51628 0
M  V30 5243 C 499.699 0.0636036 -1.94096 0
M  V30 5244 O 498.974 1.0245 -1.6533 0
M  V30 5245 C 499.257 -2.30116 -2.76981 0
M  V30 5246 C 499.11 -3.80003 -2.4066 0
M  V30 5247 C 500.429 -2.23715 -3.78998 0
M  V30 5248 H 497.548 -0.490517 -0.550056 0
M  V30 5249 H 500.19 -1.69178 -0.864807 0
M  V30 5250 H 498.34 -2.00821 -3.3257 0
M  V30 5251 H 500.012 -4.19966 -1.90856 0
M  V30 5252 H 498.255 -3.97751 -1.73137 0
M  V30 5253 H 498.926 -4.42244 -3.30339 0
M  V30 5254 H 501.402 -2.49574 -3.32945 0
M  V30 5255 H 500.278 -2.9261 -4.64403 0
M  V30 5256 H 500.539 -1.23554 -4.24484 0
M  V30 5257 N 499.598 0.982988 -1.23187 0
M  V30 5258 C 500.838 1.73903 -1.07412 0
M  V30 5259 C 501.202 1.88146 0.382764 0
M  V30 5260 O 502.403 2.6053 0.661638 0
M  V30 5261 C 500.674 3.10105 -1.77678 0
M  V30 5262 S 502.233 4.01323 -1.77441 0
M  V30 5263 H 499.051 0.598093 -0.384456 0
M  V30 5264 H 501.653 1.17456 -1.56283 0
M  V30 5265 H 500.357 2.97388 -2.82822 0
M  V30 5266 H 499.888 3.71622 -1.29077 0
M  V30 5267 H 501.903 4.89189 -0.831162 0
M  V30 5268 N 501.076 1.04316 1.18135 0
M  V30 5269 C 502.322 0.758899 1.88712 0
M  V30 5270 C 502.677 -0.705863 1.78984 0
M  V30 5271 O 501.97 -1.50874 1.18101 0
M  V30 5272 C 502.164 1.16271 3.37958 0
M  V30 5273 C 501.993 2.66518 3.62213 0
M  V30 5274 C 500.763 3.33702 3.79436 0
M  V30 5275 C 502.961 3.64739 3.62588 0
M  V30 5276 N 500.943 4.72904 3.91452 0
M  V30 5277 C 502.314 4.89627 3.80348 0
M  V30 5278 C 504.369 3.58333 3.4569 0
M  V30 5279 C 503.072 6.08879 3.8296 0
M  V30 5280 C 505.098 4.77016 3.49586 0
M  V30 5281 C 504.46 6.00724 3.67845 0
M  V30 5282 H 500.559 0.329795 0.709055 0
M  V30 5283 H 503.143 1.33334 1.4188 0
M  V30 5284 H 501.314 0.616319 3.83479 0
M  V30 5285 H 503.046 0.829205 3.96114 0
M  V30 5286 H 499.801 2.84105 3.78921 0
M  V30 5287 H 500.225 5.45258 4.01277 0
M  V30 5288 H 504.867 2.63663 3.30517 0
M  V30 5289 H 502.585 7.03903 3.96921 0
M  V30 5290 H 506.171 4.73703 3.37782 0
M  V30 5291 H 505.051 6.91022 3.70753 0
M  V30 5292 N 502.554 -1.34406 0.822964 0
M  V30 5293 C 503.484 -2.32052 0.259608 0
M  V30 5294 C 504.465 -1.58243 -0.623961 0
M  V30 5295 O 505.65 -1.86224 -0.55083 0
M  V30 5296 C 502.78 -3.42434 -0.579314 0
M  V30 5297 C 501.734 -4.27499 0.20712 0
M  V30 5298 C 501.06 -5.29349 -0.754547 0
M  V30 5299 C 502.36 -5.02758 1.41533 0
M  V30 5300 H 504.054 -2.79418 1.07545 0
M  V30 5301 H 501.6 -1.34338 0.518593 0
M  V30 5302 H 503.553 -4.0976 -0.983612 0
M  V30 5303 H 502.277 -2.93717 -1.4282 0
M  V30 5304 H 500.936 -3.61776 0.592787 0
M  V30 5305 H 500.584 -4.76895 -1.59939 0
M  V30 5306 H 500.284 -5.8714 -0.232561 0
M  V30 5307 H 501.808 -5.99544 -1.1567 0
M  V30 5308 H 503.222 -5.62938 1.08504 0
M  V30 5309 H 501.619 -5.70123 1.87296 0
M  V30 5310 H 502.689 -4.32451 2.1935 0
M  V30 5311 N 504.032 -0.577932 -1.46621 0
M  V30 5312 C 505.443 -0.150071 -1.86096 0
M  V30 5313 C 505.794 1.28563 -1.48209 0
M  V30 5314 O 504.919 1.97036 -0.894754 0
M  V30 5315 C 505.514 -0.265576 -3.37758 0
M  V30 5316 C 504.073 0.10738 -3.76247 0
M  V30 5317 C 503.22 -0.603711 -2.70649 0
M  V30 5318 H 506.171 -0.786438 -1.37844 0
M  V30 5319 H 506.192 0.510352 -3.77062 0
M  V30 5320 H 505.704 -1.3106 -3.65301 0
M  V30 5321 H 503.805 1.15272 -3.54321 0
M  V30 5322 H 503.918 -0.26561 -4.78363 0
M  V30 5323 H 502.282 -0.0444884 -2.54661 0
M  V30 5324 H 503.065 -1.65029 -3.01032 0
M  V30 5325 N 505.51 1.54411 -0.315457 0
M  V30 5326 C 506.757 2.00419 0.289543 0
M  V30 5327 C 507.085 1.20373 1.52776 0
M  V30 5328 O 506.34 0.271769 1.93804 0
M  V30 5329 C 506.639 3.50936 0.676652 0
M  V30 5330 C 506.305 4.48532 -0.461472 0
M  V30 5331 C 504.967 4.74936 -0.773879 0
M  V30 5332 C 507.319 5.06567 -1.22637 0
M  V30 5333 C 504.647 5.56634 -1.85405 0
M  V30 5334 C 506.999 5.89441 -2.29657 0
M  V30 5335 C 505.663 6.1415 -2.61488 0
M  V30 5336 H 504.933 0.733386 0.105951 0
M  V30 5337 H 507.58 1.86434 -0.437554 0
M  V30 5338 H 505.885 3.62606 1.48405 0
M  V30 5339 H 507.582 3.83971 1.15618 0
M  V30 5340 H 504.172 4.28096 -0.207893 0
M  V30 5341 H 508.356 4.86157 -0.998271 0
M  V30 5342 H 503.612 5.74012 -2.10523 0
M  V30 5343 H 507.786 6.33432 -2.89374 0
M  V30 5344 H 505.413 6.77245 -3.45317 0
M  V30 5345 N 506.988 0.0434614 1.5754 0
M  V30 5346 C 508.235 -0.632035 1.92384 0
M  V30 5347 C 508.563 -1.71304 0.921157 0
M  V30 5348 O 507.818 -1.95583 -0.067744 0
M  V30 5349 C 508.117 -1.2738 3.3393 0
M  V30 5350 C 507.783 -0.321757 4.49751 0
M  V30 5351 C 506.445 -0.0597611 4.81163 0
M  V30 5352 C 508.797 0.331158 5.20147 0
M  V30 5353 C 506.125 0.862715 5.80322 0
M  V30 5354 C 508.477 1.24178 6.20292 0
M  V30 5355 C 507.141 1.51252 6.50138 0
M  V30 5356 H 506.411 -0.231278 0.703983 0
M  V30 5357 H 509.058 0.108294 1.91194 0
M  V30 5358 H 507.363 -2.08921 3.3145 0
M  V30 5359 H 509.06 -1.80326 3.58167 0
M  V30 5360 H 505.65 -0.53614 4.25233 0
M  V30 5361 H 509.834 0.141826 4.96097 0
M  V30 5362 H 505.09 1.08003 6.01785 0
M  V30 5363 H 509.264 1.75381 6.73954 0
M  V30 5364 H 506.891 2.22897 7.26788 0
M  V30 5365 N 508.466 -1.55915 -0.229846 0
M  V30 5366 C 509.396 -1.94754 -1.28815 0
M  V30 5367 C 510.377 -0.814657 -1.49323 0
M  V30 5368 O 511.562 -1.07631 -1.61645 0
M  V30 5369 C 508.692 -2.25705 -2.63959 0
M  V30 5370 C 507.646 -3.41406 -2.5812 0
M  V30 5371 C 506.972 -3.57941 -3.97218 0
M  V30 5372 C 508.272 -4.76616 -2.13623 0
M  V30 5373 H 509.966 -2.83404 -0.965547 0
M  V30 5374 H 507.512 -1.36353 -0.463028 0
M  V30 5375 H 509.465 -2.51467 -3.38146 0
M  V30 5376 H 508.189 -1.339 -2.9789 0
M  V30 5377 H 506.848 -3.1568 -1.86391 0
M  V30 5378 H 506.496 -2.63526 -4.28443 0
M  V30 5379 H 506.196 -4.35757 -3.94195 0
M  V30 5380 H 507.72 -3.86042 -4.73079 0
M  V30 5381 H 509.134 -5.01637 -2.77549 0
M  V30 5382 H 507.531 -5.57655 -2.21677 0
M  V30 5383 H 508.601 -4.7253 -1.08829 0
M  V30 5384 N 509.944 0.496216 -1.49584 0
M  V30 5385 C 510.874 1.60576 -1.69521 0
M  V30 5386 C 511.855 1.61169 -0.543933 0
M  V30 5387 O 513.04 1.77834 -0.78031 0
M  V30 5388 C 510.17 2.99038 -1.76616 0
M  V30 5389 C 509.124 3.13312 -2.91581 0
M  V30 5390 C 508.45 4.53172 -2.83794 0
M  V30 5391 C 509.75 2.92886 -4.32452 0
M  V30 5392 H 511.444 1.44146 -2.62416 0
M  V30 5393 H 508.99 0.692024 -1.26282 0
M  V30 5394 H 510.943 3.76564 -1.8915 0
M  V30 5395 H 509.667 3.16568 -0.80324 0
M  V30 5396 H 508.326 2.38213 -2.78658 0
M  V30 5397 H 507.974 4.67585 -1.854 0
M  V30 5398 H 507.674 4.63662 -3.60958 0
M  V30 5399 H 509.198 5.32752 -2.98342 0
M  V30 5400 H 510.612 3.60178 -4.46032 0
M  V30 5401 H 509.009 3.14844 -5.10875 0
M  V30 5402 H 510.079 1.88966 -4.46565 0
M  V30 5403 N 511.423 1.38739 0.74761 0
M  V30 5404 C 512.648 1.38702 1.54197 0
M  V30 5405 C 513.073 -0.019664 1.8809 0
M  V30 5406 O 512.431 -1.00333 1.51006 0
M  V30 5407 C 512.479 2.25492 2.814 0
M  V30 5408 O 511.583 1.67613 3.76802 0
M  V30 5409 H 510.924 0.472863 0.466151 0
M  V30 5410 H 513.454 1.82577 0.923413 0
M  V30 5411 H 513.464 2.39561 3.30264 0
M  V30 5412 H 512.139 3.27727 2.56062 0
M  V30 5413 H 510.716 1.62718 3.35526 0
M  V30 5414 N 512.901 -0.976442 1.23707 0
M  V30 5415 C 514.129 -1.75341 1.09833 0
M  V30 5416 C 514.544 -1.8553 -0.349885 0
M  V30 5417 O 513.901 -1.33732 -1.24185 0
M  V30 5418 C 513.952 -3.17833 1.72233 0
M  V30 5419 O 513.673 -3.08167 3.11391 0
M  V30 5420 C 515.174 -4.11906 1.63853 0
M  V30 5421 H 512.394 -0.550137 0.384175 0
M  V30 5422 H 514.938 -1.2265 1.63638 0
M  V30 5423 H 513.093 -3.67538 1.22452 0
M  V30 5424 H 513.507 -3.97897 3.41729 0
M  V30 5425 H 514.981 -5.09579 2.12211 0
M  V30 5426 H 515.458 -4.35109 0.598092 0
M  V30 5427 H 516.064 -3.68107 2.13019 0
M  V30 5428 N 514.379 -1.04941 -1.1758 0
M  V30 5429 C 515.342 -0.652456 -2.19717 0
M  V30 5430 C 516.342 0.294745 -1.58076 0
M  V30 5431 O 517.532 0.0789579 -1.74021 0
M  V30 5432 C 514.664 0.0420712 -3.40874 0
M  V30 5433 H 515.857 -1.55642 -2.5635 0
M  V30 5434 H 513.41 -0.842995 -1.31618 0
M  V30 5435 H 514.145 0.95943 -3.09783 0
M  V30 5436 H 513.93 -0.638844 -3.86861 0
M  V30 5437 H 515.42 0.306 -4.16477 0
M  V30 5438 N 515.857 1.33968 -0.830081 0
M  V30 5439 C 517.273 1.51003 -0.516742 0
M  V30 5440 C 517.473 1.77286 0.957694 0
M  V30 5441 O 516.529 1.82797 1.74188 0
M  V30 5442 C 517.842 2.67036 -1.38247 0
M  V30 5443 C 519.39 2.80919 -1.38034 0
M  V30 5444 C 519.865 4.00004 -2.23071 0
M  V30 5445 N 521.356 4.07224 -2.20733 0
M  V30 5446 C 522.091 4.98541 -2.83275 0
M  V30 5447 N 521.587 5.95033 -3.54835 0
M  V30 5448 N 523.38 4.91469 -2.72791 0
M  V30 5449 H 515.531 1.15168 -1.78466 0
M  V30 5450 H 517.794 0.565443 -0.760906 0
M  V30 5451 H 517.5 2.54266 -2.42985 0
M  V30 5452 H 517.374 3.62226 -1.05225 0
M  V30 5453 H 519.761 2.93127 -0.340713 0
M  V30 5454 H 519.842 1.86517 -1.75057 0
M  V30 5455 H 519.486 3.88557 -3.27087 0
M  V30 5456 H 519.416 4.93634 -1.83394 0
M  V30 5457 H 521.907 3.38162 -1.68687 0
M  V30 5458 H 522.22 6.61357 -3.99784 0
M  V30 5459 H 520.565 5.95135 -3.58942 0
M  V30 5460 H 523.756 4.15048 -2.16456 0
M  V30 5461 H 523.929 5.62439 -3.21818 0
M  V30 5462 N 517.335 0.585699 1.46312 0
M  V30 5463 C 518.746 0.159938 1.86014 0
M  V30 5464 C 519.097 -1.27775 1.48889 0
M  V30 5465 O 518.222 -1.96559 0.90519 0
M  V30 5466 C 518.817 0.283485 3.37612 0
M  V30 5467 C 517.376 -0.0874256 3.76298 0
M  V30 5468 C 516.523 0.618055 2.70325 0
M  V30 5469 H 519.474 0.793737 1.37425 0
M  V30 5470 H 519.495 -0.490348 3.77327 0
M  V30 5471 H 519.007 1.32995 3.64601 0
M  V30 5472 H 517.108 -1.13391 3.54927 0
M  V30 5473 H 517.221 0.290975 4.78216 0
M  V30 5474 H 515.585 0.057993 2.54634 0
M  V30 5475 H 516.368 1.66623 3.00153 0
M  V30 5476 N 518.813 -1.54241 0.323641 0
M  V30 5477 C 520.06 -2.0057 -0.27891 0
M  V30 5478 C 520.388 -1.21181 -1.52136 0
M  V30 5479 O 519.643 -0.282043 -1.93657 0
M  V30 5480 C 519.942 -3.5129 -0.658031 0
M  V30 5481 C 519.608 -4.48281 0.485252 0
M  V30 5482 C 518.27 -4.74519 0.799055 0
M  V30 5483 C 520.622 -5.05909 1.25322 0
M  V30 5484 C 517.95 -5.55643 1.88354 0
M  V30 5485 C 520.302 -5.88215 2.32779 0
M  V30 5486 C 518.966 -6.12755 2.64741 0
M  V30 5487 H 518.236 -0.733938 -0.10206 0
M  V30 5488 H 520.883 -1.862 0.447435 0
M  V30 5489 H 519.188 -3.63388 -1.4648 0
M  V30 5490 H 520.885 -3.84578 -1.1358 0
M  V30 5491 H 517.475 -4.27979 0.230593 0
M  V30 5492 H 521.659 -4.8562 1.02404 0
M  V30 5493 H 516.915 -5.72888 2.13564 0
M  V30 5494 H 521.089 -6.31888 2.92729 0
M  V30 5495 H 518.716 -6.75404 3.48904 0
M  V30 5496 N 520.291 -0.0518155 -1.57515 0
M  V30 5497 C 521.54 0.621286 -1.91893 0
M  V30 5498 C 521.853 1.71966 -0.932052 0
M  V30 5499 O 523.059 2.45096 -1.16791 0
M  V30 5500 C 521.515 1.15641 -3.40816 0
M  V30 5501 C 521.123 0.0901146 -4.47909 0
M  V30 5502 C 522.867 1.80472 -3.84227 0
M  V30 5503 C 520.774 0.638154 -5.87947 0
M  V30 5504 H 519.704 0.235835 -0.716169 0
M  V30 5505 H 522.355 -0.120809 -1.83102 0
M  V30 5506 H 520.737 1.95084 -3.44613 0
M  V30 5507 H 521.911 -0.683525 -4.55702 0
M  V30 5508 H 520.226 -0.460774 -4.13843 0
M  V30 5509 H 522.823 2.22471 -4.86221 0
M  V30 5510 H 523.166 2.65669 -3.20508 0
M  V30 5511 H 523.699 1.07683 -3.82948 0
M  V30 5512 H 520.438 -0.176202 -6.55263 0
M  V30 5513 H 519.958 1.37976 -5.83714 0
M  V30 5514 H 521.637 1.12085 -6.37217 0
M  V30 5515 N 521.769 1.56035 0.221574 0
M  V30 5516 C 523.009 1.80822 0.953038 0
M  V30 5517 C 523.373 0.625316 1.81532 0
M  V30 5518 O 524.574 0.752491 2.58052 0
M  V30 5519 C 522.845 3.10503 1.76983 0
M  V30 5520 S 524.404 3.56604 2.55693 0
M  V30 5521 H 521.222 0.634849 0.320137 0
M  V30 5522 H 523.824 1.94274 0.218619 0
M  V30 5523 H 522.528 3.94636 1.12651 0
M  V30 5524 H 522.059 2.99858 2.54655 0
M  V30 5525 H 524.074 3.1994 3.79279 0
M  V30 5526 N 523.247 -0.488276 1.49845 0
M  V30 5527 C 524.495 -1.23911 1.59657 0
M  V30 5528 C 524.816 -1.92816 0.291005 0
M  V30 5529 O 524.086 -1.83328 -0.690485 0
M  V30 5530 H 522.666 -0.460357 0.588286 0
M  V30 5531 H 525.328 -0.564794 1.86537 0
M  V30 5532 H 524.424 -1.99625 2.39909 0
M  V30 5533 N 524.725 -1.39134 -0.740242 0
M  V30 5534 C 525.953 -1.39334 -1.5295 0
M  V30 5535 C 526.368 0.0135008 -1.88795 0
M  V30 5536 O 525.725 0.983524 -1.5373 0
M  V30 5537 C 525.776 -2.2614 -2.82034 0
M  V30 5538 O 525.497 -3.61345 -2.47712 0
M  V30 5539 C 526.998 -2.34666 -3.76094 0
M  V30 5540 H 524.218 -0.476103 -0.472828 0
M  V30 5541 H 526.762 -1.82883 -0.9151 0
M  V30 5542 H 524.917 -1.86018 -3.39818 0
M  V30 5543 H 525.331 -4.07194 -3.30595 0
M  V30 5544 H 526.805 -2.99663 -4.63579 0
M  V30 5545 H 527.282 -1.36426 -4.17474 0
M  V30 5546 H 527.888 -2.75236 -3.2423 0
M  V30 5547 N 526.204 0.969867 -1.24223 0
M  V30 5548 C 527.429 1.75289 -1.10853 0
M  V30 5549 C 527.854 1.85091 0.335079 0
M  V30 5550 O 527.212 1.32024 1.24255 0
M  V30 5551 C 527.26 3.15255 -1.75062 0
M  V30 5552 O 526.364 3.99589 -1.01992 0
M  V30 5553 H 525.705 0.538904 -0.387915 0
M  V30 5554 H 528.235 1.21675 -1.64488 0
M  V30 5555 H 528.245 3.65787 -1.80731 0
M  V30 5556 H 526.92 3.07436 -2.801 0
M  V30 5557 H 525.497 3.58077 -1.04094 0
M  V30 5558 N 527.682 1.05563 1.17022 0
M  V30 5559 C 528.922 0.777033 1.89054 0
M  V30 5560 C 529.286 -0.683617 1.79418 0
M  V30 5561 O 530.487 -1.07648 2.46303 0
M  V30 5562 C 528.758 1.24886 3.34871 0
M  V30 5563 S 530.317 1.0982 4.24835 0
M  V30 5564 H 527.135 0.282082 0.652649 0
M  V30 5565 H 529.737 1.35103 1.41306 0
M  V30 5566 H 528.441 2.30699 3.3942 0
M  V30 5567 H 527.972 0.669292 3.87665 0
M  V30 5568 H 529.987 0.02462 4.96194 0
M  V30 5569 N 529.16 -1.33526 0.837174 0
M  V30 5570 C 530.385 -2.0258 0.444545 0
M  V30 5571 C 530.81 -1.6258 -0.946006 0
M  V30 5572 O 530.168 -0.817548 -1.6182 0
M  V30 5573 C 530.216 -3.5605 0.571006 0
M  V30 5574 O 529.32 -4.10422 -0.403431 0
M  V30 5575 H 528.661 -0.638866 0.180958 0
M  V30 5576 H 531.191 -1.70462 1.13154 0
M  V30 5577 H 531.201 -4.05488 0.452024 0
M  V30 5578 H 529.876 -3.84509 1.58512 0
M  V30 5579 H 528.453 -3.72113 -0.242147 0
M  V30 5580 N 530.638 -0.59345 -1.46 0
M  V30 5581 C 531.878 -0.0859747 -2.04219 0
M  V30 5582 C 532.242 1.25432 -1.45364 0
M  V30 5583 O 533.443 1.85168 -1.9485 0
M  V30 5584 C 531.714 -0.0324314 -3.57385 0
M  V30 5585 S 533.273 0.415908 -4.36824 0
M  V30 5586 H 530.091 -0.0426872 -0.709717 0
M  V30 5587 H 532.693 -0.788369 -1.78899 0
M  V30 5588 H 531.397 -1.01166 -3.97735 0
M  V30 5589 H 530.928 0.6924 -3.87259 0
M  V30 5590 H 532.943 1.66844 -4.67309 0
M  V30 5591 N 532.116 1.54067 -0.331816 0
M  V30 5592 C 533.365 1.99895 0.269209 0
M  V30 5593 C 533.678 1.22371 1.52593 0
M  V30 5594 O 534.884 1.58618 2.20347 0
M  V30 5595 C 533.34 3.55972 0.530244 0
M  V30 5596 C 532.948 4.4234 -0.709901 0
M  V30 5597 C 534.692 4.10247 1.09077 0
M  V30 5598 C 532.599 5.89905 -0.420312 0
M  V30 5599 H 531.529 0.746741 0.104371 0
M  V30 5600 H 534.18 1.78014 -0.445324 0
M  V30 5601 H 532.562 3.73873 1.30518 0
M  V30 5602 H 533.736 4.36215 -1.48504 0
M  V30 5603 H 532.051 3.98997 -1.19123 0
M  V30 5604 H 534.648 5.18095 1.32219 0
M  V30 5605 H 534.991 3.62739 2.0427 0
M  V30 5606 H 535.524 3.96011 0.376824 0
M  V30 5607 H 532.263 6.41623 -1.34164 0
M  V30 5608 H 531.783 5.98962 0.316962 0
M  V30 5609 H 533.462 6.46991 -0.0331956 0
M  V30 5610 N 533.594 0.0601682 1.57485 0
M  V30 5611 C 535.005 -0.474217 1.80577 0
M  V30 5612 C 535.356 -1.70365 0.973147 0
M  V30 5613 O 534.481 -2.15544 0.192306 0
M  V30 5614 C 535.076 -0.867102 3.27516 0
M  V30 5615 C 533.635 -1.34642 3.51495 0
M  V30 5616 C 532.782 -0.32594 2.75378 0
M  V30 5617 H 535.733 0.285973 1.56102 0
M  V30 5618 H 535.754 -1.72938 3.38929 0
M  V30 5619 H 535.266 0.0278927 3.8809 0
M  V30 5620 H 533.367 -2.2603 2.96212 0
M  V30 5621 H 533.48 -1.33237 4.60201 0
M  V30 5622 H 531.844 -0.800749 2.41785 0
M  V30 5623 H 532.627 0.561125 3.38683 0
M  V30 5624 N 535.072 -1.5615 -0.213296 0
M  V30 5625 C 536.002 -1.96109 -1.26742 0
M  V30 5626 C 536.983 -0.830448 -1.48451 0
M  V30 5627 O 538.168 -1.09339 -1.60495 0
M  V30 5628 C 535.298 -2.28492 -2.61551 0
M  V30 5629 C 534.252 -3.44124 -2.54485 0
M  V30 5630 C 533.578 -3.62134 -3.93399 0
M  V30 5631 C 534.878 -4.78855 -2.08556 0
M  V30 5632 H 536.572 -2.84412 -0.935434 0
M  V30 5633 H 534.118 -1.36836 -0.44854 0
M  V30 5634 H 536.071 -2.55039 -3.3546 0
M  V30 5635 H 534.795 -1.37052 -2.96453 0
M  V30 5636 H 533.454 -3.17639 -1.83033 0
M  V30 5637 H 533.102 -2.68055 -4.25623 0
M  V30 5638 H 532.802 -4.39913 -3.89551 0
M  V30 5639 H 534.326 -3.91038 -4.68958 0
M  V30 5640 H 535.74 -5.04552 -2.72213 0
M  V30 5641 H 534.137 -5.59975 -2.1575 0
M  V30 5642 H 535.207 -4.73657 -1.03811 0
M  V30 5643 N 536.55 0.480323 -1.50102 0
M  V30 5644 C 537.796 1.23208 -1.61837 0
M  V30 5645 C 538.151 1.89878 -0.310509 0
M  V30 5646 O 537.444 1.7871 0.690897 0
M  V30 5647 C 537.638 2.30708 -2.72963 0
M  V30 5648 C 537.467 1.74583 -4.14428 0
M  V30 5649 C 536.237 1.54964 -4.80951 0
M  V30 5650 C 538.435 1.24597 -4.98979 0
M  V30 5651 N 536.417 0.939855 -6.06663 0
M  V30 5652 C 537.788 0.758834 -6.15339 0
M  V30 5653 C 539.843 1.13365 -4.84822 0
M  V30 5654 C 538.546 0.17046 -7.19098 0
M  V30 5655 C 540.572 0.559221 -5.8875 0
M  V30 5656 C 539.934 0.082415 -7.04352 0
M  V30 5657 H 536.033 0.440065 -0.646426 0
M  V30 5658 H 538.617 0.535632 -1.87187 0
M  V30 5659 H 536.788 2.9779 -2.4935 0
M  V30 5660 H 538.52 2.97738 -2.74106 0
M  V30 5661 H 535.275 1.79926 -4.38091 0
M  V30 5662 H 535.699 0.653641 -6.73837 0
M  V30 5663 H 540.341 1.48823 -3.95742 0
M  V30 5664 H 538.059 -0.196347 -8.07861 0
M  V30 5665 H 541.645 0.474804 -5.79859 0
M  V30 5666 H 540.525 -0.355119 -7.83396 0
M  V30 5667 N 538.028 1.39524 0.732853 0
M  V30 5668 C 539.274 1.37068 1.49467 0
M  V30 5669 C 539.607 -0.0327166 1.94172 0
M  V30 5670 O 538.882 -0.998071 1.66939 0
M  V30 5671 C 539.165 2.34494 2.73285 0
M  V30 5672 C 539.018 3.83784 2.34585 0
M  V30 5673 C 540.337 2.29717 3.75391 0
M  V30 5674 H 537.456 0.499206 0.542183 0
M  V30 5675 H 540.098 1.70532 0.837783 0
M  V30 5676 H 538.248 2.06087 3.29333 0
M  V30 5677 H 539.92 4.22949 1.84151 0
M  V30 5678 H 538.163 4.00455 1.66787 0
M  V30 5679 H 538.834 4.47444 3.23262 0
M  V30 5680 H 541.31 2.54839 3.28932 0
M  V30 5681 H 540.186 2.99962 4.59689 0
M  V30 5682 H 540.447 1.30291 4.22465 0
M  V30 5683 N 539.506 -0.963266 1.24736 0
M  V30 5684 C 540.416 -2.09246 1.06082 0
M  V30 5685 C 541.432 -1.74 0.000363101 0
M  V30 5686 O 542.608 -2.0041 0.199479 0
M  V30 5687 C 539.673 -3.40115 0.672498 0
M  V30 5688 C 538.734 -3.89282 1.80993 0
M  V30 5689 C 537.967 -5.13905 1.44004 0
M  V30 5690 O 538.19 -5.69434 0.331835 0
M  V30 5691 O 537.124 -5.57566 2.26723 0
M  V30 5692 H 540.95 -2.27881 2.00759 0
M  V30 5693 H 538.535 -1.07649 1.03595 0
M  V30 5694 H 540.417 -4.18797 0.467668 0
M  V30 5695 H 539.092 -3.22771 -0.245102 0
M  V30 5696 H 537.999 -3.11642 2.06955 0
M  V30 5697 H 539.332 -4.1111 2.70646 0
M  V30 5698 N 540.985 -1.06182 -1.16461 0
M  V30 5699 C 542.401 -0.785065 -1.38956 0
M  V30 5700 C 542.601 0.616103 -1.9185 0
M  V30 5701 O 541.657 1.37686 -2.11657 0
M  V30 5702 C 542.97 -1.84902 -2.37132 0
M  V30 5703 C 544.518 -1.8724 -2.50819 0
M  V30 5704 C 544.993 -2.92686 -3.52277 0
M  V30 5705 N 546.484 -2.91712 -3.59803 0
M  V30 5706 C 547.219 -3.69949 -4.38093 0
M  V30 5707 N 546.715 -4.58 -5.19815 0
M  V30 5708 N 548.508 -3.58346 -4.33064 0
M  V30 5709 H 540.659 -1.96569 -0.804634 0
M  V30 5710 H 542.922 -0.851747 -0.416211 0
M  V30 5711 H 542.628 -2.85518 -2.0536 0
M  V30 5712 H 542.502 -1.69908 -3.36766 0
M  V30 5713 H 544.889 -0.872827 -2.81897 0
M  V30 5714 H 544.97 -2.06311 -1.51226 0
M  V30 5715 H 544.614 -3.92835 -3.21937 0
M  V30 5716 H 544.544 -2.70864 -4.51598 0
M  V30 5717 H 547.035 -2.27876 -3.01464 0
M  V30 5718 H 547.348 -5.14357 -5.76764 0
M  V30 5719 H 545.693 -4.62056 -5.19162 0
M  V30 5720 H 548.884 -2.88943 -3.68279 0
M  V30 5721 H 549.057 -4.19563 -4.93833 0
M  V30 5722 N 542.463 1.3308 -0.844243 0
M  V30 5723 C 543.691 2.01808 -0.456203 0
M  V30 5724 C 544.106 1.63498 0.944131 0
M  V30 5725 O 543.463 0.85102 1.61443 0
M  V30 5726 C 543.514 3.56922 -0.573513 0
M  V30 5727 O 543.235 3.93851 -1.91868 0
M  V30 5728 C 544.736 4.42922 -0.183125 0
M  V30 5729 H 541.956 0.646273 -0.180477 0
M  V30 5730 H 544.5 1.69891 -1.1383 0
M  V30 5731 H 542.655 3.87352 0.0607367 0
M  V30 5732 H 543.069 4.88564 -1.90802 0
M  V30 5733 H 544.543 5.51093 -0.316241 0
M  V30 5734 H 545.02 4.30386 0.875477 0
M  V30 5735 H 545.626 4.1786 -0.792027 0
M  V30 5736 N 543.941 0.601185 1.45683 0
M  V30 5737 C 545.188 0.0938811 2.02282 0
M  V30 5738 C 545.516 -1.27315 1.47041 0
M  V30 5739 O 544.771 -1.85193 0.632623 0
M  V30 5740 C 545.07 -0.00222425 3.574 0
M  V30 5741 C 544.736 1.29963 4.31764 0
M  V30 5742 C 543.398 1.65625 4.51798 0
M  V30 5743 C 545.75 2.1603 4.74321 0
M  V30 5744 C 543.078 2.87119 5.11644 0
M  V30 5745 C 545.43 3.36766 5.3551 0
M  V30 5746 C 544.094 3.72689 5.53768 0
M  V30 5747 H 543.364 0.0343535 0.740203 0
M  V30 5748 H 546.011 0.781522 1.74827 0
M  V30 5749 H 544.316 -0.773096 3.84097 0
M  V30 5750 H 546.013 -0.410794 3.9889 0
M  V30 5751 H 542.603 1.01204 4.1648 0
M  V30 5752 H 546.787 1.89778 4.58582 0
M  V30 5753 H 542.043 3.15065 5.2397 0
M  V30 5754 H 546.217 4.03713 5.67441 0
M  V30 5755 H 543.844 4.66918 5.99909 0
M  V30 5756 N 545.419 -1.53889 0.339982 0
M  V30 5757 C 546.349 -2.27843 -0.510856 0
M  V30 5758 C 547.33 -1.29267 -1.10563 0
M  V30 5759 O 548.515 -1.58104 -1.12768 0
M  V30 5760 C 545.645 -3.04857 -1.66372 0
M  V30 5761 C 544.599 -4.10907 -1.19746 0
M  V30 5762 C 543.925 -4.75855 -2.43857 0
M  V30 5763 C 545.225 -5.21435 -0.300501 0
M  V30 5764 H 546.919 -2.99212 0.106067 0
M  V30 5765 H 544.465 -1.43904 0.0524533 0
M  V30 5766 H 546.418 -3.5533 -2.26537 0
M  V30 5767 H 545.142 -2.31133 -2.30749 0
M  V30 5768 H 543.801 -3.61342 -0.618654 0
M  V30 5769 H 543.449 -3.9873 -3.06633 0
M  V30 5770 H 543.149 -5.47502 -2.13343 0
M  V30 5771 H 544.673 -5.2911 -3.04754 0
M  V30 5772 H 546.087 -5.67565 -0.80889 0
M  V30 5773 H 544.484 -6.00036 -0.0874076 0
M  V30 5774 H 545.554 -4.80328 0.664321 0
M  V30 5775 N 546.897 -0.0685191 -1.57451 0
M  V30 5776 C 548.143 0.596247 -1.94465 0
M  V30 5777 C 548.498 1.67417 -0.948117 0
M  V30 5778 O 547.791 1.91576 0.0301056 0
M  V30 5779 C 547.985 1.22051 -3.35914 0
M  V30 5780 C 547.814 0.204586 -4.49234 0
M  V30 5781 C 546.584 -0.20959 -5.04865 0
M  V30 5782 C 548.782 -0.556872 -5.11276 0
M  V30 5783 N 546.764 -1.21656 -6.01725 0
M  V30 5784 C 548.135 -1.41642 -6.03604 0
M  V30 5785 C 550.19 -0.613297 -4.94108 0
M  V30 5786 C 548.893 -2.32737 -6.80607 0
M  V30 5787 C 550.919 -1.51174 -5.71752 0
M  V30 5788 C 550.281 -2.35898 -6.63726 0
M  V30 5789 H 546.38 0.189307 -0.75874 0
M  V30 5790 H 548.964 -0.144899 -1.9416 0
M  V30 5791 H 547.135 1.9316 -3.36963 0
M  V30 5792 H 548.867 1.84548 -3.60172 0
M  V30 5793 H 545.622 0.172871 -4.73284 0
M  V30 5794 H 546.046 -1.71746 -6.54853 0
M  V30 5795 H 550.688 0.0275228 -4.22791 0
M  V30 5796 H 548.406 -2.97856 -7.51204 0
M  V30 5797 H 551.992 -1.5602 -5.6049 0
M  V30 5798 H 550.872 -3.04291 -7.22756 0
M  V30 5799 N 548.375 1.56261 0.205012 0
M  V30 5800 C 549.305 1.96779 1.257 0
M  V30 5801 C 550.286 0.838309 1.48008 0
M  V30 5802 O 551.471 1.10189 1.59913 0
M  V30 5803 C 548.601 2.29876 2.60335 0
M  V30 5804 C 547.555 3.45469 2.52656 0
M  V30 5805 C 546.881 3.64215 3.91473 0
M  V30 5806 C 548.181 4.79954 2.06014 0
M  V30 5807 H 549.875 2.84904 0.920338 0
M  V30 5808 H 547.421 1.37072 0.441277 0
M  V30 5809 H 549.374 2.56814 3.34102 0
M  V30 5810 H 548.098 1.38622 2.95722 0
M  V30 5811 H 546.757 3.18605 1.81345 0
M  V30 5812 H 546.405 2.70309 4.24196 0
M  V30 5813 H 546.105 4.41973 3.87213 0
M  V30 5814 H 547.629 3.93519 4.66878 0
M  V30 5815 H 549.043 5.05989 2.69533 0
M  V30 5816 H 547.44 5.61111 2.12777 0
M  V30 5817 H 548.51 4.74201 1.01297 0
M  V30 5818 N 549.853 -0.472356 1.50355 0
M  V30 5819 C 551.101 -1.22211 1.60962 0
M  V30 5820 C 551.422 -1.92497 0.311439 0
M  V30 5821 O 550.692 -1.8405 -0.671002 0
M  V30 5822 H 549.272 -0.454092 0.593135 0
M  V30 5823 H 551.934 -0.544977 1.87126 0
M  V30 5824 H 551.03 -1.9707 2.42012 0
M  V30 5825 N 551.331 -1.39911 -0.725443 0
M  V30 5826 C 552.561 -1.40744 -1.51244 0
M  V30 5827 C 552.969 -0.00275403 -1.892 0
M  V30 5828 O 552.312 0.981299 -1.55294 0
M  V30 5829 C 552.374 -2.22527 -2.82351 0
M  V30 5830 C 552.038 -3.71053 -2.66774 0
M  V30 5831 C 553.035 -4.63916 -2.34686 0
M  V30 5832 C 550.72 -4.14753 -2.83347 0
M  V30 5833 C 552.714 -5.98463 -2.19366 0
M  V30 5834 C 550.401 -5.49372 -2.67644 0
M  V30 5835 C 551.399 -6.41042 -2.357 0
M  V30 5836 O 551.087 -7.73181 -2.20107 0
M  V30 5837 H 550.819 -0.482314 -0.473655 0
M  V30 5838 H 553.373 -1.84472 -0.903284 0
M  V30 5839 H 551.603 -1.73563 -3.45562 0
M  V30 5840 H 553.292 -2.15421 -3.44018 0
M  V30 5841 H 554.058 -4.31453 -2.21525 0
M  V30 5842 H 549.937 -3.43728 -3.072 0
M  V30 5843 H 553.481 -6.69979 -1.94354 0
M  V30 5844 H 549.378 -5.81424 -2.80387 0
M  V30 5845 H 550.146 -7.84008 -2.35103 0
M  V30 5846 N 552.809 0.956637 -1.25245 0
M  V30 5847 C 553.772 2.03457 -1.05537 0
M  V30 5848 C 554.772 1.60798 -0.00886317 0
M  V30 5849 O 555.962 1.72384 -0.250865 0
M  V30 5850 C 553.094 3.35543 -0.601965 0
M  V30 5851 H 554.287 2.22372 -2.01223 0
M  V30 5852 H 551.84 1.13344 -1.07623 0
M  V30 5853 H 552.575 3.22323 0.357584 0
M  V30 5854 H 552.36 3.67854 -1.35743 0
M  V30 5855 H 553.85 4.14769 -0.485454 0
M  V30 5856 N 554.287 1.06798 1.15896 0
M  V30 5857 C 555.235 0.677525 2.22514 0
M  V30 5858 C 556.229 -0.308994 1.66558 0
M  V30 5859 O 557.435 -0.173308 1.79164 0
M  V30 5860 H 553.81 0.200994 0.724642 0
M  V30 5861 H 555.781 1.5865 2.52731 0
M  V30 5862 C 554.53 0.0854153 3.47595 0
M  V30 5863 H 553.853 0.835645 3.90969 0
M  V30 5864 H 555.293 -0.150199 4.23734 0
M  V30 5865 C 553.752 -1.1724 3.15843 0
M  V30 5866 O 554.282 -2.25965 3.32119 0
M  V30 5867 N 552.488 -1.07636 2.69931 0
M  V30 5868 H 552.035 -0.191559 2.56887 0
M  V30 5869 H 551.993 -1.91876 2.4906 0
M  V30 5870 N 555.766 -1.3263 0.851289 0
M  V30 5871 C 556.991 -2.02097 0.466006 0
M  V30 5872 C 557.416 -1.63574 -0.928709 0
M  V30 5873 O 556.774 -0.834665 -1.60944 0
M  V30 5874 C 556.822 -3.55425 0.608737 0
M  V30 5875 O 555.926 -4.10827 -0.359878 0
M  V30 5876 H 555.267 -0.636911 0.187724 0
M  V30 5877 H 557.797 -1.69253 1.14955 0
M  V30 5878 H 557.807 -4.04986 0.495006 0
M  V30 5879 H 556.482 -3.82806 1.62581 0
M  V30 5880 H 555.059 -3.72349 -0.202666 0
M  V30 5881 N 557.244 -0.608902 -1.45362 0
M  V30 5882 C 558.174 0.0964526 -2.33301 0
M  V30 5883 C 559.155 0.857444 -1.46908 0
M  V30 5884 O 560.34 0.827735 -1.75676 0
M  V30 5885 C 557.47 1.09354 -3.29635 0
M  V30 5886 C 556.424 0.445676 -4.25673 0
M  V30 5887 C 555.75 1.5511 -5.11708 0
M  V30 5888 C 557.05 -0.633972 -5.18438 0
M  V30 5889 H 558.744 -0.637829 -2.92527 0
M  V30 5890 H 556.29 -0.308178 -1.40664 0
M  V30 5891 H 558.243 1.59556 -3.90025 0
M  V30 5892 H 556.967 1.85843 -2.6857 0
M  V30 5893 H 555.626 -0.0354897 -3.66583 0
M  V30 5894 H 555.274 2.30631 -4.4701 0
M  V30 5895 H 554.974 1.12311 -5.76767 0
M  V30 5896 H 556.498 2.05537 -5.74967 0
M  V30 5897 H 557.912 -0.215974 -5.72893 0
M  V30 5898 H 556.309 -0.983789 -5.91981 0
M  V30 5899 H 557.379 -1.51005 -4.60788 0
M  V30 5900 N 558.722 1.53707 -0.348139 0
M  V30 5901 C 559.971 2.0017 0.247992 0
M  V30 5902 C 560.284 1.23983 1.51286 0
M  V30 5903 O 561.49 1.60946 2.18652 0
M  V30 5904 C 559.946 3.56515 0.492459 0
M  V30 5905 C 559.554 4.41562 -0.756777 0
M  V30 5906 C 561.298 4.11381 1.0472 0
M  V30 5907 C 559.205 5.89426 -0.482856 0
M  V30 5908 H 558.135 0.747806 0.0964452 0
M  V30 5909 H 560.786 1.77532 -0.464179 0
M  V30 5910 H 559.168 3.75236 1.26545 0
M  V30 5911 H 560.342 4.34615 -1.53122 0
M  V30 5912 H 558.657 3.97711 -1.23348 0
M  V30 5913 H 561.254 5.19468 1.26717 0
M  V30 5914 H 561.597 3.64885 2.00411 0
M  V30 5915 H 562.13 3.96389 0.334801 0
M  V30 5916 H 558.869 6.40164 -1.40962 0
M  V30 5917 H 558.389 5.99264 0.253416 0
M  V30 5918 H 560.068 6.4692 -0.101816 0
M  V30 5919 N 560.2 0.0768682 1.57412 0
M  V30 5920 C 561.148 -0.906229 2.1422 0
M  V30 5921 C 562.142 -1.30477 1.08037 0
M  V30 5922 O 563.348 -1.28143 1.2641 0
M  V30 5923 H 559.723 -0.310207 0.685037 0
M  V30 5924 H 561.694 -0.402228 2.95677 0
M  V30 5925 C 560.443 -2.16245 2.72274 0
M  V30 5926 H 559.766 -1.86463 3.53655 0
M  V30 5927 H 561.206 -2.83134 3.15613 0
M  V30 5928 C 559.665 -2.92437 1.67279 0
M  V30 5929 O 560.195 -3.86322 1.10081 0
M  V30 5930 N 558.401 -2.55637 1.38195 0
M  V30 5931 H 557.948 -1.79363 1.84897 0
M  V30 5932 H 557.906 -3.06919 0.681787 0
M  V30 5933 N 561.678 -1.56367 -0.196722 0
M  V30 5934 C 563.089 -1.70462 -0.761545 0
M  V30 5935 C 563.44 -0.683161 -1.83922 0
M  V30 5936 O 562.565 0.160753 -2.15802 0
M  V30 5937 C 563.16 -3.09057 -1.38814 0
M  V30 5938 C 561.719 -3.24922 -1.90007 0
M  V30 5939 C 560.866 -2.66412 -0.769399 0
M  V30 5940 H 563.817 -1.58675 0.0283263 0
M  V30 5941 H 563.838 -3.06296 -2.2575 0
M  V30 5942 H 563.35 -3.83378 -0.603559 0
M  V30 5943 H 561.451 -2.55514 -2.71189 0
M  V30 5944 H 561.564 -4.3241 -2.06297 0
M  V30 5945 H 559.928 -2.25546 -1.18326 0
M  V30 5946 H 560.711 -3.433 0.00291773 0
M  V30 5947 N 563.156 0.464375 -1.50603 0
M  V30 5948 C 564.403 1.21596 -1.61928 0
M  V30 5949 C 564.731 1.91804 -0.322737 0
M  V30 5950 O 563.986 1.83065 0.691776 0
M  V30 5951 C 564.285 2.278 -2.75394 0
M  V30 5952 C 563.951 1.74797 -4.1564 0
M  V30 5953 C 562.613 1.60063 -4.53799 0
M  V30 5954 C 564.965 1.35548 -5.03266 0
M  V30 5955 C 562.293 1.04514 -5.77316 0
M  V30 5956 C 564.645 0.814381 -6.27336 0
M  V30 5957 C 563.309 0.653726 -6.64291 0
M  V30 5958 H 562.579 0.444951 -0.592536 0
M  V30 5959 H 565.226 0.510964 -1.84557 0
M  V30 5960 H 563.531 3.04233 -2.46879 0
M  V30 5961 H 565.228 2.85723 -2.81359 0
M  V30 5962 H 561.818 1.87234 -3.8554 0
M  V30 5963 H 566.002 1.45763 -4.74412 0
M  V30 5964 H 561.258 0.908186 -6.04617 0
M  V30 5965 H 565.432 0.501626 -6.94591 0
M  V30 5966 H 563.059 0.22114 -7.59878 0
M  V30 5967 N 564.634 1.40294 0.718013 0
M  V30 5968 C 565.883 1.37746 1.4734 0
M  V30 5969 C 566.196 -0.0180754 1.95592 0
M  V30 5970 O 567.402 -0.166166 2.70991 0
M  V30 5971 C 565.858 2.4208 2.66318 0
M  V30 5972 C 565.466 3.87432 2.24945 0
M  V30 5973 C 567.21 2.48635 3.44065 0
M  V30 5974 C 565.117 4.83368 3.40748 0
M  V30 5975 H 564.047 0.512165 0.553356 0
M  V30 5976 H 566.698 1.66019 0.781661 0
M  V30 5977 H 565.08 2.06903 3.3765 0
M  V30 5978 H 566.254 4.3174 1.6105 0
M  V30 5979 H 564.569 3.8433 1.60249 0
M  V30 5980 H 567.166 3.17499 4.30231 0
M  V30 5981 H 567.509 1.51611 3.87711 0
M  V30 5982 H 568.042 2.82791 2.79775 0
M  V30 5983 H 564.781 5.81716 3.02136 0
M  V30 5984 H 564.301 4.43726 4.03568 0
M  V30 5985 H 565.98 5.03074 4.06848 0
M  V30 5986 N 566.112 -0.949982 1.2575 0
M  V30 5987 C 567.342 -1.72721 1.13363 0
M  V30 5988 C 567.75 -1.86562 -0.314842 0
M  V30 5989 O 567.093 -1.36621 -1.22803 0
M  V30 5990 C 567.155 -3.15695 1.7198 0
M  V30 5991 C 566.819 -3.25268 3.21014 0
M  V30 5992 C 567.816 -3.09222 4.17945 0
M  V30 5993 C 565.501 -3.4894 3.61312 0
M  V30 5994 C 567.495 -3.16701 5.53154 0
M  V30 5995 C 565.182 -3.56055 4.96657 0
M  V30 5996 C 566.18 -3.3995 5.92387 0
M  V30 5997 O 565.868 -3.46757 7.25269 0
M  V30 5998 H 565.6 -0.547888 0.395973 0
M  V30 5999 H 568.154 -1.20009 1.66694 0
M  V30 6000 H 566.384 -3.69791 1.13101 0
M  V30 6001 H 568.073 -3.75295 1.54624 0
M  V30 6002 H 568.839 -2.90798 3.88151 0
M  V30 6003 H 564.718 -3.60534 2.87291 0
M  V30 6004 H 568.262 -3.04048 6.27854 0
M  V30 6005 H 564.159 -3.73997 5.26115 0
M  V30 6006 H 564.927 -3.63358 7.33426 0
M  V30 6007 N 567.59 -1.07411 -1.15328 0
M  V30 6008 C 568.553 -0.698914 -2.18284 0
M  V30 6009 C 569.553 0.261149 -1.58665 0
M  V30 6010 O 570.743 0.0420277 -1.74149 0
M  V30 6011 C 567.875 -0.0302427 -3.40887 0
M  V30 6012 H 569.068 -1.61045 -2.52991 0
M  V30 6013 H 566.621 -0.870724 -1.298 0
M  V30 6014 H 567.356 0.893505 -3.11748 0
M  V30 6015 H 567.141 -0.720759 -3.85419 0
M  V30 6016 H 568.631 0.21759 -4.17033 0
M  V30 6017 N 569.068 1.32177 -0.85831 0
M  V30 6018 C 570.315 1.97125 -0.463484 0
M  V30 6019 C 570.643 1.67907 0.981705 0
M  V30 6020 O 569.898 0.961717 1.70439 0
M  V30 6021 C 570.197 3.51372 -0.653658 0
M  V30 6022 C 569.863 4.00584 -2.06987 0
M  V30 6023 C 568.525 4.13733 -2.4572 0
M  V30 6024 C 570.877 4.26624 -2.99402 0
M  V30 6025 C 568.205 4.50268 -3.76132 0
M  V30 6026 C 570.557 4.64618 -4.29316 0
M  V30 6027 C 569.221 4.75975 -4.67979 0
M  V30 6028 H 568.491 0.72133 -0.169601 0
M  V30 6029 H 571.138 1.57517 -1.08907 0
M  V30 6030 H 569.443 3.91761 0.0551328 0
M  V30 6031 H 571.14 3.99655 -0.328163 0
M  V30 6032 H 567.73 3.90837 -1.75911 0
M  V30 6033 H 571.914 4.1597 -2.70708 0
M  V30 6034 H 567.17 4.57256 -4.05865 0
M  V30 6035 H 571.344 4.83722 -5.00985 0
M  V30 6036 H 568.971 5.04041 -5.69076 0
M  V30 6037 N 570.547 0.616602 1.45037 0
M  V30 6038 C 571.794 0.115331 2.02171 0
M  V30 6039 C 572.122 -1.25748 1.48383 0
M  V30 6040 O 571.377 -1.84511 0.652229 0
M  V30 6041 C 571.676 0.0356829 3.57382 0
M  V30 6042 C 571.342 1.34535 4.30362 0
M  V30 6043 C 570.004 1.70408 4.50016 0
M  V30 6044 C 572.356 2.21049 4.72003 0
M  V30 6045 C 569.684 2.92529 5.0857 0
M  V30 6046 C 572.036 3.42427 5.31908 0
M  V30 6047 C 570.7 3.78541 5.49784 0
M  V30 6048 H 569.97 0.0422024 0.739797 0
M  V30 6049 H 572.617 0.80002 1.73988 0
M  V30 6050 H 570.922 -0.732314 3.84895 0
M  V30 6051 H 572.619 -0.368463 3.99304 0
M  V30 6052 H 569.209 1.05615 4.15383 0
M  V30 6053 H 573.393 1.94632 4.56544 0
M  V30 6054 H 568.649 3.20605 5.20598 0
M  V30 6055 H 572.823 4.09709 5.63127 0
M  V30 6056 H 570.45 4.73255 5.94923 0
M  V30 6057 N 572.025 -1.5352 0.356285 0
M  V30 6058 C 572.973 -2.26945 -0.50978 0
M  V30 6059 C 573.967 -1.29569 -1.09125 0
M  V30 6060 O 575.173 -1.47231 -1.03552 0
M  V30 6061 H 571.548 -0.729368 -0.183102 0
M  V30 6062 H 573.519 -2.98111 0.131374 0
M  V30 6063 C 572.268 -3.06466 -1.64237 0
M  V30 6064 H 571.591 -3.81233 -1.20423 0
M  V30 6065 H 573.031 -3.61035 -2.22327 0
M  V30 6066 C 571.49 -2.16737 -2.57928 0
M  V30 6067 O 572.02 -1.77195 -3.60507 0
M  V30 6068 N 570.226 -1.81558 -2.26903 0
M  V30 6069 H 569.773 -2.13913 -1.43524 0
M  V30 6070 H 569.731 -1.21806 -2.89846 0
M  V30 6071 N 573.503 -0.0852151 -1.57369 0
M  V30 6072 C 574.919 0.271436 -1.57275 0
M  V30 6073 C 575.119 1.69109 -1.09565 0
M  V30 6074 O 574.175 2.40549 -0.767611 0
M  V30 6075 C 575.488 0.0688638 -3.00621 0
M  V30 6076 C 577.036 0.137373 -3.12698 0
M  V30 6077 C 577.511 -0.0370832 -4.57985 0
M  V30 6078 N 579.002 0.0180794 -4.63196 0
M  V30 6079 C 579.737 -0.0922953 -5.73326 0
M  V30 6080 N 579.233 -0.256948 -6.92323 0
M  V30 6081 N 581.026 -0.0342702 -5.6209 0
M  V30 6082 H 573.177 -1.01288 -1.86693 0
M  V30 6083 H 575.44 -0.396138 -0.861266 0
M  V30 6084 H 575.146 -0.911277 -3.39689 0
M  V30 6085 H 575.02 0.815442 -3.6828 0
M  V30 6086 H 577.407 1.10801 -2.73509 0
M  V30 6087 H 577.488 -0.640532 -2.47651 0
M  V30 6088 H 577.132 -1.00455 -4.97867 0
M  V30 6089 H 577.062 0.760392 -5.21081 0
M  V30 6090 H 579.553 0.143202 -3.77629 0
M  V30 6091 H 579.866 -0.332949 -7.72082 0
M  V30 6092 H 578.211 -0.292487 -6.94384 0
M  V30 6093 H 581.402 0.0931605 -4.68007 0
M  V30 6094 H 581.575 -0.12374 -6.47882 0
M  V30 6095 N 574.981 1.5647 0.188427 0
M  V30 6096 C 576.258 1.71857 0.934058 0
M  V30 6097 C 576.638 0.641867 2.01105 0
M  V30 6098 O 575.986 -0.346098 2.25864 0
M  V30 6099 C 576.196 3.14431 1.5144 0
M  V30 6100 C 577.544 3.74869 1.99396 0
M  V30 6101 O 578.568 3.17601 1.61269 0
M  V30 6102 O 577.427 4.75387 2.69573 0
M  V30 6103 H 574.521 0.701186 0.438483 0
M  V30 6104 H 577.067 1.68768 0.177599 0
M  V30 6105 H 575.839 3.8427 0.738416 0
M  V30 6106 H 575.462 3.21775 2.33552 0
M  V30 6107 N 576.459 -0.456382 1.50847 0
M  V30 6108 C 577.389 -1.56025 1.73719 0
M  V30 6109 C 578.37 -1.5967 0.586473 0
M  V30 6110 O 579.555 -1.75702 0.827185 0
M  V30 6111 C 576.685 -2.94251 1.84483 0
M  V30 6112 C 575.639 -3.05471 2.99786 0
M  V30 6113 C 574.965 -4.45489 2.95709 0
M  V30 6114 C 576.265 -2.81318 4.40065 0
M  V30 6115 H 577.959 -1.37138 2.66146 0
M  V30 6116 H 575.505 -0.658299 1.28072 0
M  V30 6117 H 577.458 -3.71417 1.99067 0
M  V30 6118 H 576.182 -3.14328 0.886891 0
M  V30 6119 H 574.841 -2.30741 2.84876 0
M  V30 6120 H 574.489 -4.62505 1.97732 0
M  V30 6121 H 574.189 -4.53929 3.73125 0
M  V30 6122 H 575.713 -5.24655 3.12362 0
M  V30 6123 H 577.127 -3.48226 4.55425 0
M  V30 6124 H 575.524 -3.01188 5.19043 0
M  V30 6125 H 576.594 -1.7706 4.51418 0
M  V30 6126 N 577.937 -1.40673 -0.710563 0
M  V30 6127 C 579.353 -1.22813 -1.01928 0
M  V30 6128 C 579.553 -0.10687 -2.01216 0
M  V30 6129 O 578.609 0.533614 -2.46797 0
M  V30 6130 C 579.922 -2.57178 -1.5582 0
M  V30 6131 C 581.47 -2.64233 -1.67779 0
M  V30 6132 C 581.945 -3.98879 -2.25076 0
M  V30 6133 N 583.436 -4.00647 -2.32456 0
M  V30 6134 C 584.171 -5.01621 -2.77784 0
M  V30 6135 N 583.667 -6.12989 -3.22826 0
M  V30 6136 N 585.46 -4.88988 -2.77213 0
M  V30 6137 H 577.611 -2.12335 -0.05253 0
M  V30 6138 H 579.874 -0.9441 -0.085898 0
M  V30 6139 H 579.58 -3.39903 -0.903249 0
M  V30 6140 H 579.454 -2.78618 -2.54267 0
M  V30 6141 H 581.841 -1.81876 -2.3239 0
M  V30 6142 H 581.922 -2.46619 -0.679178 0
M  V30 6143 H 581.566 -4.81678 -1.61086 0
M  V30 6144 H 581.496 -4.13826 -3.25661 0
M  V30 6145 H 583.987 -3.20231 -2.0065 0
M  V30 6146 H 584.3 -6.85921 -3.55995 0
M  V30 6147 H 582.645 -6.16547 -3.20773 0
M  V30 6148 H 585.836 -4.01075 -2.41363 0
M  V30 6149 H 586.009 -5.67822 -3.12221 0
M  V30 6150 N 579.415 0.9433 -1.26252 0
M  V30 6151 C 580.643 1.72367 -1.14443 0
M  V30 6152 C 581.058 1.86392 0.300572 0
M  V30 6153 O 580.415 1.36978 1.20596 0
M  V30 6154 C 580.466 3.13155 -1.806 0
M  V30 6155 O 580.187 2.99803 -3.19452 0
M  V30 6156 C 581.688 4.07417 -1.74717 0
M  V30 6157 H 578.908 0.539758 -0.398626 0
M  V30 6158 H 581.452 1.18268 -1.66832 0
M  V30 6159 H 579.607 3.64162 -1.32154 0
M  V30 6160 H 580.021 3.88697 -3.52158 0
M  V30 6161 H 581.495 5.03773 -2.25647 0
M  V30 6162 H 581.972 4.3337 -0.713244 0
M  V30 6163 H 582.578 3.6233 -2.22704 0
M  V30 6164 N 580.893 1.08022 1.14757 0
M  V30 6165 C 582.121 0.828847 1.89572 0
M  V30 6166 C 582.536 -0.618621 1.78377 0
M  V30 6167 O 581.893 -1.42482 1.1404 0
M  V30 6168 C 581.944 1.23677 3.39685 0
M  V30 6169 O 581.665 2.62746 3.50566 0
M  V30 6170 C 583.166 1.01569 4.31507 0
M  V30 6171 H 580.386 0.299196 0.600602 0
M  V30 6172 H 582.93 1.43846 1.45357 0
M  V30 6173 H 581.085 0.671347 3.81539 0
M  V30 6174 H 581.499 2.79573 4.43778 0
M  V30 6175 H 582.973 1.35055 5.35223 0
M  V30 6176 H 583.45 -0.0475433 4.39174 0
M  V30 6177 H 584.056 1.56636 3.95405 0
M  V30 6178 N 582.371 -1.3172 0.865308 0
M  V30 6179 C 583.601 -2.00765 0.487543 0
M  V30 6180 C 584.009 -1.65145 -0.92325 0
M  V30 6181 O 583.352 -0.874294 -1.61561 0
M  V30 6182 C 583.414 -3.55122 0.559369 0
M  V30 6183 C 583.078 -4.14202 1.93095 0
M  V30 6184 C 584.075 -4.3165 2.89784 0
M  V30 6185 C 581.76 -4.50036 2.23099 0
M  V30 6186 C 583.754 -4.84114 4.14623 0
M  V30 6187 C 581.441 -5.02203 3.48189 0
M  V30 6188 C 582.439 -5.19192 4.43767 0
M  V30 6189 O 582.127 -5.70241 5.6664 0
M  V30 6190 H 581.859 -0.649066 0.188915 0
M  V30 6191 H 584.413 -1.69032 1.16694 0
M  V30 6192 H 582.643 -3.86295 -0.176926 0
M  V30 6193 H 584.332 -4.05428 0.195694 0
M  V30 6194 H 585.098 -4.04288 2.6791 0
M  V30 6195 H 580.977 -4.36091 1.49485 0
M  V30 6196 H 584.521 -4.9729 4.89233 0
M  V30 6197 H 580.418 -5.28997 3.69908 0
M  V30 6198 H 581.186 -5.88617 5.68746 0
M  V30 6199 N 583.85 -0.624285 -1.44708 0
M  V30 6200 C 585.266 -0.289322 -1.56956 0
M  V30 6201 C 585.466 1.20773 -1.61295 0
M  V30 6202 O 584.522 1.9915 -1.55227 0
M  V30 6203 C 585.835 -0.975215 -2.84447 0
M  V30 6204 C 587.383 -0.952709 -2.98148 0
M  V30 6205 C 587.858 -1.61893 -4.28433 0
M  V30 6206 N 589.349 -1.5852 -4.35231 0
M  V30 6207 C 590.084 -2.06969 -5.34744 0
M  V30 6208 N 589.58 -2.63579 -6.40701 0
M  V30 6209 N 591.373 -1.97638 -5.26209 0
M  V30 6210 H 583.524 -1.59612 -1.40135 0
M  V30 6211 H 585.787 -0.669592 -0.671081 0
M  V30 6212 H 585.493 -2.02999 -2.87201 0
M  V30 6213 H 585.367 -0.508749 -3.73753 0
M  V30 6214 H 587.754 0.093568 -2.94952 0
M  V30 6215 H 587.835 -1.4576 -2.10209 0
M  V30 6216 H 587.479 -2.66463 -4.32389 0
M  V30 6217 H 587.409 -1.08893 -5.15218 0
M  V30 6218 H 589.899 -1.17183 -3.59272 0
M  V30 6219 H 590.213 -2.98298 -7.12908 0
M  V30 6220 H 588.558 -2.67626 -6.41406 0
M  V30 6221 H 591.749 -1.5314 -4.42341 0
M  V30 6222 H 591.922 -2.35708 -6.03611 0
M  V30 6223 N 585.328 1.53329 -0.364422 0
M  V30 6224 C 586.553 2.06132 0.229033 0
M  V30 6225 C 586.978 1.23625 1.41769 0
M  V30 6226 O 586.336 0.255038 1.79497 0
M  V30 6227 C 586.384 3.55544 0.60174 0
M  V30 6228 O 585.488 3.75771 1.69912 0
M  V30 6229 H 584.829 0.663148 0.0336213 0
M  V30 6230 H 587.359 1.97758 -0.524689 0
M  V30 6231 H 587.369 3.98549 0.873073 0
M  V30 6232 H 586.044 4.15039 -0.267421 0
M  V30 6233 H 584.621 3.44663 1.42343 0
M  V30 6234 N 586.806 0.0935595 1.57322 0
M  V30 6235 C 587.736 -0.863062 2.16964 0
M  V30 6236 C 588.717 -1.29528 1.10256 0
M  V30 6237 O 589.902 -1.36245 1.38387 0
M  V30 6238 C 587.032 -2.12276 2.74875 0
M  V30 6239 C 585.986 -1.82921 3.86942 0
M  V30 6240 C 585.312 -3.15707 4.31548 0
M  V30 6241 C 586.612 -1.11737 5.10208 0
M  V30 6242 H 588.306 -0.366145 2.97153 0
M  V30 6243 H 585.852 -0.174673 1.42937 0
M  V30 6244 H 587.805 -2.79634 3.1525 0
M  V30 6245 H 586.529 -2.64248 1.91938 0
M  V30 6246 H 585.188 -1.17961 3.47103 0
M  V30 6247 H 584.836 -3.65563 3.45504 0
M  V30 6248 H 584.536 -2.96849 5.07104 0
M  V30 6249 H 586.06 -3.84226 4.74555 0
M  V30 6250 H 587.474 -1.69203 5.47762 0
M  V30 6251 H 585.871 -1.03064 5.91183 0
M  V30 6252 H 586.941 -0.0998818 4.84797 0
M  V30 6253 N 588.284 -1.56567 -0.180126 0
M  V30 6254 C 589.214 -1.98753 -1.22553 0
M  V30 6255 C 590.195 -0.86175 -1.46656 0
M  V30 6256 O 591.38 -1.12719 -1.58139 0
M  V30 6257 C 588.51 -2.33988 -2.56645 0
M  V30 6258 C 587.464 -3.49445 -2.47128 0
M  V30 6259 C 586.79 -3.70397 -3.8563 0
M  V30 6260 C 588.09 -4.83171 -1.98352 0
M  V30 6261 H 589.784 -2.86332 -0.874896 0
M  V30 6262 H 587.33 -1.37757 -0.419414 0
M  V30 6263 H 589.283 -2.62097 -3.29974 0
M  V30 6264 H 588.007 -1.43309 -2.93479 0
M  V30 6265 H 586.666 -3.2145 -1.76254 0
M  V30 6266 H 586.314 -2.77023 -4.19842 0
M  V30 6267 H 586.014 -4.48077 -3.80132 0
M  V30 6268 H 587.538 -4.00897 -4.60558 0
M  V30 6269 H 588.952 -5.10213 -2.61449 0
M  V30 6270 H 587.349 -5.64425 -2.03823 0
M  V30 6271 H 588.419 -4.75753 -0.937402 0
M  V30 6272 N 589.762 0.448376 -1.51087 0
M  V30 6273 C 590.694 1.56146 -1.67783 0
M  V30 6274 C 591.707 1.52913 -0.55871 0
M  V30 6275 O 592.896 1.57889 -0.83267 0
M  V30 6276 C 589.996 2.95057 -1.66716 0
M  V30 6277 C 589.169 3.22915 -2.95033 0
M  V30 6278 C 588.228 4.41495 -2.86302 0
M  V30 6279 O 587.254 4.40688 -3.60254 0
M  V30 6280 N 588.456 5.44443 -2.014 0
M  V30 6281 H 591.221 1.42232 -2.638 0
M  V30 6282 H 588.782 0.637153 -1.48835 0
M  V30 6283 H 590.774 3.72388 -1.58458 0
M  V30 6284 H 589.344 3.02624 -0.783403 0
M  V30 6285 H 588.564 2.33985 -3.17245 0
M  V30 6286 H 589.852 3.38349 -3.79996 0
M  V30 6287 H 589.25 5.4793 -1.40674 0
M  V30 6288 H 587.807 6.2067 -1.99029 0
M  V30 6289 N 591.24 1.41047 0.703093 0
M  V30 6290 C 592.48 1.41461 1.4754 0
M  V30 6291 C 592.844 0.0199013 1.9199 0
M  V30 6292 O 594.045 -0.101138 2.6861 0
M  V30 6293 C 592.316 2.38703 2.66 0
M  V30 6294 S 593.875 2.57582 3.55242 0
M  V30 6295 H 590.693 0.501226 0.504275 0
M  V30 6296 H 593.295 1.77422 0.821074 0
M  V30 6297 H 591.999 3.3885 2.31536 0
M  V30 6298 H 591.53 2.04069 3.36333 0
M  V30 6299 H 593.545 1.83758 4.6092 0
M  V30 6300 N 592.718 -0.936591 1.26751 0
M  V30 6301 C 593.65 -2.03991 1.045 0
M  V30 6302 C 594.663 -1.628 0.00394261 0
M  V30 6303 O 595.852 -1.76817 0.244526 0
M  V30 6304 C 592.952 -3.34218 0.561403 0
M  V30 6305 C 592.125 -4.04151 1.67274 0
M  V30 6306 C 591.184 -5.12651 1.1864 0
M  V30 6307 O 590.21 -5.37104 1.88437 0
M  V30 6308 N 591.412 -5.80488 0.037278 0
M  V30 6309 H 594.177 -2.23644 1.99508 0
M  V30 6310 H 591.738 -1.10638 1.18198 0
M  V30 6311 H 593.73 -4.04101 0.220136 0
M  V30 6312 H 592.3 -3.11203 -0.295211 0
M  V30 6313 H 591.52 -3.28121 2.18472 0
M  V30 6314 H 592.808 -4.47626 2.41885 0
M  V30 6315 H 592.206 -5.63064 -0.545494 0
M  V30 6316 H 590.763 -6.5134 -0.244877 0
M  V30 6317 N 594.196 -1.08629 -1.14182 0
M  V30 6318 C 595.426 -0.837673 -1.88856 0
M  V30 6319 C 595.834 0.614024 -1.78959 0
M  V30 6320 O 595.177 1.43384 -1.14833 0
M  V30 6321 C 595.239 -1.18355 -3.39459 0
M  V30 6322 C 594.903 -2.63848 -3.73139 0
M  V30 6323 C 595.9 -3.62099 -3.73069 0
M  V30 6324 C 593.585 -2.99761 -4.03049 0
M  V30 6325 C 595.579 -4.94292 -4.02435 0
M  V30 6326 C 593.266 -4.32147 -4.32078 0
M  V30 6327 C 594.264 -5.29223 -4.31755 0
M  V30 6328 O 593.952 -6.59229 -4.60079 0
M  V30 6329 H 593.684 -0.301609 -0.604986 0
M  V30 6330 H 596.238 -1.44961 -1.45518 0
M  V30 6331 H 594.468 -0.514628 -3.8326 0
M  V30 6332 H 596.157 -0.915391 -3.95443 0
M  V30 6333 H 596.923 -3.35698 -3.50046 0
M  V30 6334 H 592.802 -2.2484 -4.02453 0
M  V30 6335 H 596.346 -5.70055 -4.02098 0
M  V30 6336 H 592.243 -4.58296 -4.54571 0
M  V30 6337 H 593.011 -6.64578 -4.77785 0
M  V30 6338 N 595.674 1.31259 -0.872281 0
M  V30 6339 C 597.09 1.49283 -0.564521 0
M  V30 6340 C 597.29 1.80243 0.900807 0
M  V30 6341 O 596.346 1.88246 1.68284 0
M  V30 6342 C 597.659 2.62503 -1.46673 0
M  V30 6343 C 599.207 2.76386 -1.46901 0
M  V30 6344 C 599.682 3.92705 -2.35684 0
M  V30 6345 N 601.173 3.99995 -2.33577 0
M  V30 6346 C 601.908 4.89276 -2.98992 0
M  V30 6347 N 601.404 5.83443 -3.73585 0
M  V30 6348 N 603.197 4.82541 -2.88289 0
M  V30 6349 H 595.348 1.09432 -1.82039 0
M  V30 6350 H 597.611 0.540949 -0.77851 0
M  V30 6351 H 597.317 2.46407 -2.50951 0
M  V30 6352 H 597.191 3.58695 -1.16696 0
M  V30 6353 H 599.578 2.91894 -0.433796 0
M  V30 6354 H 599.659 1.80853 -1.80903 0
M  V30 6355 H 599.303 3.77954 -3.39283 0
M  V30 6356 H 599.233 4.87549 -1.99006 0
M  V30 6357 H 601.724 3.32624 -1.7936 0
M  V30 6358 H 602.037 6.48303 -4.20622 0
M  V30 6359 H 600.382 5.83415 -3.77694 0
M  V30 6360 H 603.573 4.07951 -2.2955 0
M  V30 6361 H 603.746 5.51916 -3.39549 0
M  V30 6362 N 597.152 0.631951 1.44375 0
M  V30 6363 C 598.1 -0.0846693 2.32446 0
M  V30 6364 C 599.094 -0.834957 1.47393 0
M  V30 6365 O 600.3 -0.747764 1.63733 0
M  V30 6366 H 596.675 -0.0461508 0.750583 0
M  V30 6367 H 598.646 0.67619 2.90638 0
M  V30 6368 C 597.395 -1.05211 3.314 0
M  V30 6369 H 596.718 -0.484203 3.96857 0
M  V30 6370 H 598.158 -1.523 3.95703 0
M  V30 6371 C 596.617 -2.13776 2.60387 0
M  V30 6372 O 597.147 -3.21869 2.4034 0
M  V30 6373 N 595.353 -1.89733 2.20113 0
M  V30 6374 H 594.9 -1.01833 2.36618 0
M  V30 6375 H 594.858 -2.62572 1.72926 0
M  V30 6376 N 598.631 -1.53133 0.372548 0
M  V30 6377 C 599.88 -2.00539 -0.216115 0
M  V30 6378 C 600.193 -1.26374 -1.49295 0
M  V30 6379 O 601.399 -1.64404 -2.16064 0
M  V30 6380 C 599.855 -3.57253 -0.435678 0
M  V30 6381 C 599.463 -4.40302 0.82693 0
M  V30 6382 C 601.207 -4.12995 -0.981618 0
M  V30 6383 C 599.114 -5.88583 0.576567 0
M  V30 6384 H 598.044 -0.749246 -0.084536 0
M  V30 6385 H 600.695 -1.76771 0.492364 0
M  V30 6386 H 599.077 -3.77202 -1.20559 0
M  V30 6387 H 600.251 -4.32124 1.60017 0
M  V30 6388 H 598.566 -3.95699 1.29659 0
M  V30 6389 H 601.163 -5.21418 -1.18436 0
M  V30 6390 H 601.506 -3.68027 -1.94581 0
M  V30 6391 H 602.039 -3.96871 -0.271696 0
M  V30 6392 H 598.778 -6.37841 1.51128 0
M  V30 6393 H 598.298 -5.99592 -0.158047 0
M  V30 6394 H 599.977 -6.46676 0.204722 0
M  V30 6395 N 600.109 -0.101901 -1.5727 0
M  V30 6396 C 601.057 0.872034 -2.15635 0
M  V30 6397 C 602.051 1.28742 -1.10099 0
M  V30 6398 O 603.257 1.26116 -1.28432 0
M  V30 6399 H 599.632 0.299269 -0.689886 0
M  V30 6400 H 601.603 0.355137 -2.96279 0
M  V30 6401 C 600.352 2.11886 -2.7568 0
M  V30 6402 H 599.675 1.80813 -3.56576 0
M  V30 6403 H 601.115 2.78077 -3.20077 0
M  V30 6404 C 599.574 2.89739 -1.7191 0
M  V30 6405 O 600.104 3.84522 -1.16213 0
M  V30 6406 N 598.31 2.53407 -1.42245 0
M  V30 6407 H 597.857 1.76398 -1.87727 0
M  V30 6408 H 597.815 3.05795 -0.730529 0
M  V30 6409 N 601.587 1.56661 0.17182 0
M  V30 6410 C 603.003 1.50768 0.52357 0
M  V30 6411 C 603.203 0.806072 1.84675 0
M  V30 6412 O 602.259 0.366233 2.4983 0
M  V30 6413 C 603.572 2.955 0.556793 0
M  V30 6414 C 605.12 3.06303 0.644029 0
M  V30 6415 C 605.595 4.52492 0.708148 0
M  V30 6416 N 607.086 4.56737 0.771051 0
M  V30 6417 C 607.821 5.67196 0.841229 0
M  V30 6418 N 607.317 6.87287 0.872272 0
M  V30 6419 N 609.11 5.55165 0.88021 0
M  V30 6420 H 601.261 2.00679 -0.695817 0
M  V30 6421 H 603.524 0.914219 -0.250814 0
M  V30 6422 H 603.23 3.49986 -0.346774 0
M  V30 6423 H 603.104 3.50119 1.40346 0
M  V30 6424 H 605.491 2.51851 1.53802 0
M  V30 6425 H 605.572 2.5477 -0.229297 0
M  V30 6426 H 605.216 5.07575 -0.181585 0
M  V30 6427 H 605.146 5.01781 1.59761 0
M  V30 6428 H 607.637 3.70274 0.755364 0
M  V30 6429 H 607.95 7.6722 0.92698 0
M  V30 6430 H 606.295 6.89898 0.840557 0
M  V30 6431 H 609.486 4.60263 0.852956 0
M  V30 6432 H 609.659 6.41271 0.931439 0
M  V30 6433 N 603.065 -0.440357 1.51323 0
M  V30 6434 C 604.012 -1.53429 1.72419 0
M  V30 6435 C 604.982 -1.56165 0.565826 0
M  V30 6436 O 606.167 -1.73222 0.799917 0
M  V30 6437 C 603.307 -2.91169 1.85242 0
M  V30 6438 C 602.42 -2.97985 3.12777 0
M  V30 6439 C 601.555 -4.26829 3.16212 0
M  V30 6440 C 600.594 -4.27501 4.38074 0
M  V30 6441 N 599.731 -5.47866 4.39076 0
M  V30 6442 H 604.571 -1.34743 2.65797 0
M  V30 6443 H 602.108 -0.654608 1.31732 0
M  V30 6444 H 604.066 -3.71087 1.90658 0
M  V30 6445 H 602.696 -3.0842 0.952744 0
M  V30 6446 H 601.748 -2.10749 3.16685 0
M  V30 6447 H 603.06 -2.94342 4.02696 0
M  V30 6448 H 602.214 -5.15118 3.20527 0
M  V30 6449 H 600.953 -4.33124 2.24176 0
M  V30 6450 H 599.958 -3.37606 4.33938 0
M  V30 6451 H 601.183 -4.22873 5.31371 0
M  V30 6452 H 599.129 -5.54887 3.49909 0
M  V30 6453 H 599.046 -5.46091 5.22801 0
M  V30 6454 H 600.314 -6.38195 4.4758 0
M  V30 6455 N 604.543 -1.41418 -0.695603 0
M  V30 6456 C 605.473 -1.46035 -1.82197 0
M  V30 6457 C 606.454 -0.319025 -1.67082 0
M  V30 6458 O 607.639 -0.530462 -1.86815 0
M  V30 6459 C 604.769 -1.34179 -3.20333 0
M  V30 6460 C 603.723 -2.46123 -3.50154 0
M  V30 6461 C 603.049 -2.19332 -4.87645 0
M  V30 6462 C 604.349 -3.88463 -3.49133 0
M  V30 6463 H 606.043 -2.40303 -1.78591 0
M  V30 6464 H 603.589 -1.15663 -0.857797 0
M  V30 6465 H 605.542 -1.36021 -3.98844 0
M  V30 6466 H 604.266 -0.363952 -3.24566 0
M  V30 6467 H 602.925 -2.43563 -2.73994 0
M  V30 6468 H 602.573 -1.19891 -4.88503 0
M  V30 6469 H 602.273 -2.94344 -5.08562 0
M  V30 6470 H 603.797 -2.22889 -5.68465 0
M  V30 6471 H 605.211 -3.92738 -4.17648 0
M  V30 6472 H 603.608 -4.63158 -3.81582 0
M  V30 6473 H 604.678 -4.16617 -2.48109 0
M  V30 6474 N 606.021 0.929856 -1.27246 0
M  V30 6475 C 607.246 1.71674 -1.16374 0
M  V30 6476 C 607.671 1.86064 0.276024 0
M  V30 6477 O 607.029 1.3591 1.19992 0
M  V30 6478 C 607.077 3.09526 -1.85003 0
M  V30 6479 O 606.181 3.96142 -1.14653 0
M  V30 6480 H 605.522 0.52629 -0.404863 0
M  V30 6481 H 608.052 1.16381 -1.68276 0
M  V30 6482 H 608.062 3.59852 -1.92276 0
M  V30 6483 H 606.737 2.98369 -2.89739 0
M  V30 6484 H 605.314 3.54584 -1.15433 0
M  V30 6485 N 607.499 1.09233 1.13605 0
M  V30 6486 C 608.462 0.733553 2.17144 0
M  V30 6487 C 609.462 -0.235873 1.59061 0
M  V30 6488 O 610.652 -0.0143167 1.74194 0
M  V30 6489 C 607.784 0.084471 3.40795 0
M  V30 6490 H 608.977 1.65049 2.50397 0
M  V30 6491 H 606.53 0.891264 1.28399 0
M  V30 6492 H 607.265 -0.843795 3.1313 0
M  V30 6493 H 607.05 0.781985 3.84223 0
M  V30 6494 H 608.54 -0.151216 4.17326 0
M  V30 6495 N 608.977 -1.30795 0.87923 0
M  V30 6496 C 609.94 -2.26563 0.346676 0
M  V30 6497 C 610.94 -1.52578 -0.507597 0
M  V30 6498 O 612.13 -1.71318 -0.315575 0
M  V30 6499 C 609.262 -3.37115 -0.506611 0
M  V30 6500 H 610.455 -2.75183 1.19223 0
M  V30 6501 H 608.008 -1.41886 0.655598 0
M  V30 6502 H 608.743 -2.93802 -1.37299 0
M  V30 6503 H 608.528 -3.91959 0.105218 0
M  V30 6504 H 610.018 -4.08412 -0.871192 0
M  V30 6505 N 610.455 -0.639598 -1.44038 0
M  V30 6506 C 611.703 -0.147188 -2.01563 0
M  V30 6507 C 612.024 1.2384 -1.50628 0
M  V30 6508 O 611.294 1.82452 -0.713316 0
M  V30 6509 H 609.874 -0.0514231 -0.745228 0
M  V30 6510 H 612.536 -0.828205 -1.76428 0
M  V30 6511 H 611.632 -0.121358 -3.11864 0
M  V30 6512 N 611.933 1.52934 -0.380664 0
M  V30 6513 C 612.866 2.22597 0.502564 0
M  V30 6514 C 613.844 1.22345 1.071 0
M  V30 6515 O 615.028 1.51302 1.12428 0
M  V30 6516 C 612.155 2.93246 1.69482 0
M  V30 6517 C 611.201 4.07696 1.25244 0
M  V30 6518 S 612.034 5.34957 0.241159 0
M  V30 6519 C 613.19 6.09124 1.4394 0
M  V30 6520 H 613.423 2.97167 -0.089029 0
M  V30 6521 H 610.956 1.53518 -0.164817 0
M  V30 6522 H 612.914 3.34562 2.37863 0
M  V30 6523 H 611.575 2.18373 2.2577 0
M  V30 6524 H 610.768 4.56199 2.1424 0
M  V30 6525 H 610.37 3.68349 0.647664 0
M  V30 6526 H 612.662 6.34771 2.36794 0
M  V30 6527 H 613.605 7.01068 0.995464 0
M  V30 6528 H 614.013 5.39777 1.65229 0
M  V30 6529 N 613.412 0.11024 1.57214 0
M  V30 6530 C 614.362 -0.854147 2.11396 0
M  V30 6531 C 615.346 -1.23394 1.03261 0
M  V30 6532 O 616.538 -1.20649 1.2951 0
M  V30 6533 C 613.667 -2.10752 2.70995 0
M  V30 6534 C 612.753 -1.75249 3.86198 0
M  V30 6535 N 613.144 -1.10377 4.9361 0
M  V30 6536 C 611.442 -2.04763 3.96217 0
M  V30 6537 C 612.143 -0.938199 5.74084 0
M  V30 6538 N 611.119 -1.46039 5.23616 0
M  V30 6539 H 614.921 -0.348897 2.91822 0
M  V30 6540 H 612.435 -0.0925071 1.62136 0
M  V30 6541 H 614.432 -2.80801 3.0815 0
M  V30 6542 H 613.092 -2.61829 1.9203 0
M  V30 6543 H 614.103 -0.768785 5.12162 0
M  V30 6544 H 610.78 -2.57948 3.28282 0
M  V30 6545 H 612.17 -0.429678 6.70525 0
M  V30 6546 N 614.89 -1.56749 -0.16351 0
M  V30 6547 C 615.8 -2.00255 -1.2221 0
M  V30 6548 C 616.816 -0.915194 -1.47987 0
M  V30 6549 O 617.992 -1.22342 -1.59982 0
M  V30 6550 C 615.057 -2.36035 -2.53946 0
M  V30 6551 C 614.118 -3.58637 -2.35962 0
M  V30 6552 C 613.351 -3.92701 -3.61416 0
M  V30 6553 O 613.574 -3.27632 -4.66919 0
M  V30 6554 O 612.508 -4.86019 -3.55062 0
M  V30 6555 H 616.334 -2.90586 -0.882794 0
M  V30 6556 H 613.919 -1.44721 -0.370978 0
M  V30 6557 H 615.801 -2.59982 -3.31643 0
M  V30 6558 H 614.476 -1.48863 -2.8744 0
M  V30 6559 H 613.383 -3.39898 -1.5627 0
M  V30 6560 H 614.716 -4.46374 -2.0739 0
M  V30 6561 N 616.368 0.432326 -1.51554 0
M  V30 6562 C 617.331 1.50765 -1.72634 0
M  V30 6563 C 618.331 1.49334 -0.596314 0
M  V30 6564 O 619.521 1.51268 -0.863925 0
M  V30 6565 C 616.653 2.90284 -1.7874 0
M  V30 6566 H 617.846 1.33377 -2.68609 0
M  V30 6567 H 615.399 0.661329 -1.4162 0
M  V30 6568 H 616.134 3.13071 -0.845977 0
M  V30 6569 H 615.919 2.92727 -2.6087 0
M  V30 6570 H 617.409 3.68282 -1.96871 0
M  V30 6571 N 617.846 1.41785 0.688094 0
M  V30 6572 C 618.776 1.47 1.8142 0
M  V30 6573 C 619.757 0.327881 1.6691 0
M  V30 6574 O 620.942 0.540362 1.86531 0
M  V30 6575 C 618.072 1.35876 3.19617 0
M  V30 6576 C 617.026 2.47976 3.48844 0
M  V30 6577 C 616.352 2.21915 4.86475 0
M  V30 6578 C 617.652 3.90309 3.47068 0
M  V30 6579 H 619.346 2.41247 1.77314 0
M  V30 6580 H 616.892 1.16116 0.851651 0
M  V30 6581 H 618.845 1.38134 3.98117 0
M  V30 6582 H 617.569 0.38116 3.24368 0
M  V30 6583 H 616.228 2.45013 2.72698 0
M  V30 6584 H 615.876 1.2248 4.8786 0
M  V30 6585 H 615.576 2.97037 5.06994 0
M  V30 6586 H 617.1 2.25901 5.67275 0
M  V30 6587 H 618.514 3.94947 4.1556 0
M  V30 6588 H 616.911 4.65175 3.7912 0
M  V30 6589 H 617.981 4.17927 2.45896 0
M  V30 6590 N 619.324 -0.923095 1.27737 0
M  V30 6591 C 620.271 -2.02432 1.1086 0
M  V30 6592 C 621.241 -1.66098 0.00835195 0
M  V30 6593 O 622.426 -1.90027 0.171542 0
M  V30 6594 C 619.566 -3.36476 0.766671 0
M  V30 6595 C 618.679 -3.85737 1.94501 0
M  V30 6596 C 617.814 -5.08249 1.54455 0
M  V30 6597 C 616.853 -5.49818 2.6901 0
M  V30 6598 N 615.99 -6.63524 2.29521 0
M  V30 6599 H 620.83 -2.16201 2.05089 0
M  V30 6600 H 618.367 -1.05909 1.02087 0
M  V30 6601 H 620.325 -4.13569 0.549223 0
M  V30 6602 H 618.955 -3.22502 -0.13867 0
M  V30 6603 H 618.007 -3.04883 2.27487 0
M  V30 6604 H 619.319 -4.12513 2.80419 0
M  V30 6605 H 618.473 -5.92857 1.28862 0
M  V30 6606 H 617.212 -4.83261 0.656534 0
M  V30 6607 H 616.217 -4.63757 2.95313 0
M  V30 6608 H 617.442 -5.76799 3.5844 0
M  V30 6609 H 615.388 -6.40185 1.43177 0
M  V30 6610 H 615.305 -6.89978 3.08977 0
M  V30 6611 H 616.573 -7.51461 2.07187 0
M  V30 6612 N 620.802 -1.09834 -1.13024 0
M  V30 6613 C 621.732 -0.763451 -2.20666 0
M  V30 6614 C 622.713 0.260778 -1.68089 0
M  V30 6615 O 623.898 0.127915 -1.93778 0
M  V30 6616 C 621.028 -0.187744 -3.46792 0
M  V30 6617 C 619.982 -1.14196 -4.12484 0
M  V30 6618 C 619.308 -0.427755 -5.32986 0
M  V30 6619 C 620.608 -2.48607 -4.59338 0
M  V30 6620 H 622.302 -1.66347 -2.48936 0
M  V30 6621 H 619.848 -0.801261 -1.19649 0
M  V30 6622 H 621.801 0.0586375 -4.21359 0
M  V30 6623 H 620.525 0.747485 -3.17931 0
M  V30 6624 H 619.184 -1.37369 -3.3989 0
M  V30 6625 H 618.832 0.511747 -5.0039 0
M  V30 6626 H 618.532 -1.06403 -5.77886 0
M  V30 6627 H 620.056 -0.189772 -6.10305 0
M  V30 6628 H 621.47 -2.29618 -5.25308 0
M  V30 6629 H 619.867 -3.08062 -5.14993 0
M  V30 6630 H 620.937 -3.09062 -3.73642 0
M  V30 6631 N 622.28 1.30327 -0.886154 0
M  V30 6632 C 623.243 2.26376 -0.358687 0
M  V30 6633 C 624.243 1.52845 0.499498 0
M  V30 6634 O 625.433 1.71483 0.306485 0
M  V30 6635 C 622.565 3.37379 0.488726 0
M  V30 6636 H 623.758 2.74547 -1.20681 0
M  V30 6637 H 621.311 1.41536 -0.663113 0
M  V30 6638 H 622.046 2.94526 1.35739 0
M  V30 6639 H 621.831 3.91897 -0.126003 0
M  V30 6640 H 623.321 4.08868 0.84952 0
M  V30 6641 N 623.758 0.647228 1.43697 0
M  V30 6642 C 624.668 -0.0487997 2.34549 0
M  V30 6643 C 625.684 -0.818586 1.53542 0
M  V30 6644 O 626.86 -0.767195 1.86215 0
M  V30 6645 C 623.925 -1.00734 3.31743 0
M  V30 6646 C 622.986 -0.23515 4.28655 0
M  V30 6647 C 622.219 -1.14803 5.21206 0
M  V30 6648 O 622.442 -2.38717 5.18045 0
M  V30 6649 O 621.376 -0.623667 5.9866 0
M  V30 6650 H 625.202 0.698863 2.9555 0
M  V30 6651 H 622.787 0.407412 1.43738 0
M  V30 6652 H 624.669 -1.55837 3.91526 0
M  V30 6653 H 623.344 -1.73534 2.73254 0
M  V30 6654 H 622.251 0.359319 3.7237 0
M  V30 6655 H 623.584 0.453152 4.9011 0
M  V30 6656 N 625.236 -1.5273 0.388769 0
M  V30 6657 C 626.652 -1.59553 0.0387049 0
M  V30 6658 C 626.852 -1.40278 -1.44652 0
M  V30 6659 O 625.908 -1.21951 -2.21098 0
M  V30 6660 C 627.221 -2.9625 0.515409 0
M  V30 6661 C 628.769 -3.09426 0.471621 0
M  V30 6662 C 629.244 -4.48572 0.924505 0
M  V30 6663 N 630.735 -4.54754 0.880496 0
M  V30 6664 C 631.47 -5.60653 1.20234 0
M  V30 6665 N 630.966 -6.74198 1.59463 0
M  V30 6666 N 632.759 -5.50755 1.12363 0
M  V30 6667 H 624.91 -1.63508 1.35569 0
M  V30 6668 H 627.173 -0.768097 0.555636 0
M  V30 6669 H 626.879 -3.15569 1.5527 0
M  V30 6670 H 626.753 -3.77102 -0.085792 0
M  V30 6671 H 629.14 -2.89804 -0.556588 0
M  V30 6672 H 629.221 -2.30528 1.10862 0
M  V30 6673 H 628.865 -4.68936 1.95094 0
M  V30 6674 H 628.795 -5.25935 0.264524 0
M  V30 6675 H 631.286 -3.73237 0.591815 0
M  V30 6676 H 631.599 -7.5097 1.82385 0
M  V30 6677 H 629.944 -6.75531 1.63349 0
M  V30 6678 H 633.135 -4.6093 0.816169 0
M  V30 6679 H 633.308 -6.33184 1.37777 0
M  V30 6680 N 626.714 -0.118576 -1.57153 0
M  V30 6681 C 628.125 0.40687 -1.82213 0
M  V30 6682 C 628.476 1.66636 -1.03571 0
M  V30 6683 O 627.601 2.14682 -0.272171 0
M  V30 6684 C 628.196 0.744949 -3.30509 0
M  V30 6685 C 626.755 1.21503 -3.5625 0
M  V30 6686 C 625.902 0.223511 -2.76398 0
M  V30 6687 H 628.853 -0.343712 -1.54933 0
M  V30 6688 H 628.874 1.6024 -3.45114 0
M  V30 6689 H 628.386 -0.171911 -3.87719 0
M  V30 6690 H 626.487 2.1488 -3.04396 0
M  V30 6691 H 626.6 1.16065 -4.64829 0
M  V30 6692 H 624.964 0.71046 -2.44591 0
M  V30 6693 H 625.747 -0.686439 -3.36367 0
M  V30 6694 N 628.193 1.56834 0.155195 0
M  V30 6695 C 629.103 2.009 1.21146 0
M  V30 6696 C 630.119 0.923029 1.475 0
M  V30 6697 O 631.295 1.23189 1.59331 0
M  V30 6698 C 628.36 2.37378 2.52691 0
M  V30 6699 C 627.421 3.59883 2.34057 0
M  V30 6700 C 626.654 3.94612 3.59329 0
M  V30 6701 O 626.877 3.30104 4.65175 0
M  V30 6702 O 625.811 4.87895 3.52479 0
M  V30 6703 H 629.637 2.9105 0.867371 0
M  V30 6704 H 627.222 1.44916 0.363298 0
M  V30 6705 H 629.104 2.61737 3.3026 0
M  V30 6706 H 627.779 1.50385 2.86646 0
M  V30 6707 H 626.686 3.40722 1.54465 0
M  V30 6708 H 628.019 4.47468 2.0502 0
M  V30 6709 N 629.671 -0.424282 1.51781 0
M  V30 6710 C 631.087 -0.761768 1.40247 0
M  V30 6711 C 631.287 -1.95324 0.495041 0
M  V30 6712 O 630.343 -2.5246 -0.0448949 0
M  V30 6713 C 631.656 -1.0299 2.82513 0
M  V30 6714 C 633.204 -1.13354 2.91753 0
M  V30 6715 C 633.679 -1.43453 4.34954 0
M  V30 6716 N 635.17 -1.5035 4.3812 0
M  V30 6717 C 635.905 -1.75236 5.45967 0
M  V30 6718 N 635.401 -1.97827 6.63955 0
M  V30 6719 N 637.194 -1.77126 5.33463 0
M  V30 6720 H 629.345 0.360228 2.09323 0
M  V30 6721 H 631.608 0.0988128 0.942836 0
M  V30 6722 H 631.314 -0.226961 3.50967 0
M  V30 6723 H 631.188 -1.95411 3.22637 0
M  V30 6724 H 633.575 -1.92709 2.23489 0
M  V30 6725 H 633.656 -0.188041 2.55108 0
M  V30 6726 H 633.3 -0.646209 5.03772 0
M  V30 6727 H 633.23 -2.3923 4.69123 0
M  V30 6728 H 635.721 -1.34742 3.53062 0
M  V30 6729 H 636.034 -2.16223 7.41935 0
M  V30 6730 H 634.379 -1.95123 6.67047 0
M  V30 6731 H 637.57 -1.59005 4.40267 0
M  V30 6732 H 637.743 -1.96182 6.17589 0
M  V30 6733 N 631.149 -1.42148 -0.680565 0
M  V30 6734 C 632.56 -1.3768 -1.26099 0
M  V30 6735 C 632.911 -0.0672348 -1.96085 0
M  V30 6736 O 632.036 0.834172 -1.99676 0
M  V30 6737 C 632.631 -2.49387 -2.29328 0
M  V30 6738 C 631.19 -2.4827 -2.82911 0
M  V30 6739 C 630.337 -2.2847 -1.57152 0
M  V30 6740 H 633.288 -1.51446 -0.474326 0
M  V30 6741 H 633.309 -2.19307 -3.10941 0
M  V30 6742 H 632.821 -3.44686 -1.78363 0
M  V30 6743 H 630.922 -1.56773 -3.38013 0
M  V30 6744 H 631.035 -3.45109 -3.3232 0
M  V30 6745 H 629.399 -1.76623 -1.83511 0
M  V30 6746 H 630.182 -3.25816 -1.0816 0
M  V30 6747 N 632.627 0.916307 -1.28225 0
M  V30 6748 C 633.537 2.05165 -1.13775 0
M  V30 6749 C 634.553 1.73879 -0.0649418 0
M  V30 6750 O 635.729 1.99531 -0.273722 0
M  V30 6751 C 632.794 3.37385 -0.798267 0
M  V30 6752 C 631.855 3.82296 -1.95316 0
M  V30 6753 C 631.088 5.08206 -1.62978 0
M  V30 6754 O 631.311 5.6781 -0.542948 0
M  V30 6755 O 630.245 5.48768 -2.47261 0
M  V30 6756 H 634.071 2.20273 -2.09078 0
M  V30 6757 H 631.656 1.0373 -1.07519 0
M  V30 6758 H 633.538 4.16773 -0.62278 0
M  V30 6759 H 632.213 3.23458 0.125139 0
M  V30 6760 H 631.12 3.03746 -2.18378 0
M  V30 6761 H 632.453 4.00782 -2.85718 0
M  V30 6762 N 634.105 1.10431 1.1244 0
M  V30 6763 C 635.352 0.846717 1.83948 0
M  V30 6764 C 635.68 -0.627709 1.84093 0
M  V30 6765 O 634.935 -1.47876 1.28184 0
M  V30 6766 C 635.234 1.34022 3.3132 0
M  V30 6767 C 634.9 2.82606 3.51347 0
M  V30 6768 C 633.562 3.23182 3.56521 0
M  V30 6769 C 635.914 3.78356 3.58464 0
M  V30 6770 C 633.242 4.58258 3.66356 0
M  V30 6771 C 635.594 5.13234 3.69829 0
M  V30 6772 C 634.258 5.53384 3.73259 0
M  V30 6773 H 633.528 0.309836 0.673114 0
M  V30 6774 H 636.175 1.38091 1.32677 0
M  V30 6775 H 634.48 0.726047 3.85014 0
M  V30 6776 H 636.177 1.11739 3.85118 0
M  V30 6777 H 632.767 2.50212 3.47983 0
M  V30 6778 H 636.951 3.48115 3.53737 0
M  V30 6779 H 632.207 4.88787 3.67284 0
M  V30 6780 H 636.381 5.87272 3.74279 0
M  V30 6781 H 634.008 6.58045 3.80633 0
M  V30 6782 N 635.583 -1.29855 0.893053 0
M  V30 6783 C 636.829 -1.96116 0.516349 0
M  V30 6784 C 637.162 -1.70281 -0.933695 0
M  V30 6785 O 636.437 -1.01205 -1.66096 0
M  V30 6786 C 636.72 -3.51068 0.801455 0
M  V30 6787 C 636.573 -3.86387 2.30272 0
M  V30 6788 C 637.892 -4.39186 0.283423 0
M  V30 6789 H 635.011 -0.712335 0.189072 0
M  V30 6790 H 637.653 -1.53587 1.11852 0
M  V30 6791 H 635.803 -3.87424 0.288949 0
M  V30 6792 H 637.475 -3.60012 2.88425 0
M  V30 6793 H 635.718 -3.34167 2.76613 0
M  V30 6794 H 636.389 -4.94512 2.45279 0
M  V30 6795 H 638.865 -4.09785 0.722187 0
M  V30 6796 H 637.741 -5.46505 0.512169 0
M  V30 6797 H 638.002 -4.34511 -0.815643 0
M  V30 6798 N 637.061 -0.65484 -1.43351 0
M  V30 6799 C 637.991 0.0221809 -2.33489 0
M  V30 6800 C 638.972 0.810272 -1.49561 0
M  V30 6801 O 640.157 0.771426 -1.78221 0
M  V30 6802 C 637.287 0.988117 -3.32947 0
M  V30 6803 C 636.241 0.310026 -4.26876 0
M  V30 6804 C 635.567 1.38752 -5.16384 0
M  V30 6805 C 636.867 -0.798589 -5.16159 0
M  V30 6806 H 638.561 -0.730571 -2.9035 0
M  V30 6807 H 636.107 -0.352773 -1.39612 0
M  V30 6808 H 638.06 1.47067 -3.94904 0
M  V30 6809 H 636.784 1.77205 -2.74346 0
M  V30 6810 H 635.443 -0.152097 -3.66284 0
M  V30 6811 H 635.091 2.16293 -4.54121 0
M  V30 6812 H 634.791 0.939051 -5.80048 0
M  V30 6813 H 636.315 1.87141 -5.81215 0
M  V30 6814 H 637.729 -0.398126 -5.71916 0
M  V30 6815 H 636.126 -1.17163 -5.88552 0
M  V30 6816 H 637.196 -1.65588 -4.55751 0
M  V30 6817 N 638.539 1.52521 -0.396863 0
M  V30 6818 C 639.955 1.5953 -0.0471659 0
M  V30 6819 C 640.155 1.41044 1.43906 0
M  V30 6820 O 639.211 1.23122 2.20448 0
M  V30 6821 C 640.524 2.95972 -0.531113 0
M  V30 6822 C 642.072 3.09172 -0.488024 0
M  V30 6823 C 642.547 4.48075 -0.948281 0
M  V30 6824 N 644.038 4.54281 -0.9046 0
M  V30 6825 C 644.773 5.60007 -1.23205 0
M  V30 6826 N 644.269 6.73343 -1.63036 0
M  V30 6827 N 646.062 5.50151 -1.15282 0
M  V30 6828 H 638.213 1.62786 -1.36435 0
M  V30 6829 H 640.476 0.76514 -0.559701 0
M  V30 6830 H 640.182 3.14741 -1.56942 0
M  V30 6831 H 640.056 3.77143 0.0657922 0
M  V30 6832 H 642.443 2.90095 0.541211 0
M  V30 6833 H 642.524 2.29937 -1.12083 0
M  V30 6834 H 642.168 4.67894 -1.97578 0
M  V30 6835 H 642.098 5.25788 -0.292412 0
M  V30 6836 H 644.589 3.72918 -0.6116 0
M  V30 6837 H 644.902 7.49992 -1.86365 0
M  V30 6838 H 643.247 6.74655 -1.66929 0
M  V30 6839 H 646.438 4.6049 -0.840602 0
M  V30 6840 H 646.611 6.32444 -1.41133 0
M  V30 6841 N 640.017 0.126909 1.57088 0
M  V30 6842 C 640.98 -0.806097 2.14557 0
M  V30 6843 C 641.98 -1.18918 1.08236 0
M  V30 6844 O 643.17 -1.11339 1.33975 0
M  V30 6845 C 640.302 -2.09116 2.69227 0
M  V30 6846 H 641.495 -0.306522 2.98329 0
M  V30 6847 H 639.048 -0.122393 1.5582 0
M  V30 6848 H 639.783 -2.63486 1.89065 0
M  V30 6849 H 639.568 -1.82588 3.46993 0
M  V30 6850 H 641.058 -2.75794 3.13572 0
M  V30 6851 N 641.495 -1.56914 -0.146875 0
M  V30 6852 C 642.735 -1.85163 -0.86568 0
M  V30 6853 C 643.099 -0.711215 -1.78342 0
M  V30 6854 O 644.3 -0.874754 -2.54168 0
M  V30 6855 C 642.571 -3.18593 -1.61967 0
M  V30 6856 S 644.13 -3.68397 -2.38388 0
M  V30 6857 H 640.948 -0.6494 -0.289483 0
M  V30 6858 H 643.55 -1.95096 -0.125679 0
M  V30 6859 H 642.254 -3.99562 -0.93694 0
M  V30 6860 H 641.785 -3.11666 -2.40058 0
M  V30 6861 H 643.8 -3.37672 -3.63582 0
M  V30 6862 N 642.974 0.416227 -1.52004 0
M  V30 6863 C 644.202 1.18573 -1.69553 0
M  V30 6864 C 644.617 1.84472 -0.401919 0
M  V30 6865 O 643.974 1.71593 0.621463 0
M  V30 6866 C 644.025 2.25413 -2.82615 0
M  V30 6867 O 643.746 1.62205 -4.06966 0
M  V30 6868 C 645.247 3.15297 -3.11613 0
M  V30 6869 H 642.467 0.356582 -0.56841 0
M  V30 6870 H 645.011 0.490618 -1.98528 0
M  V30 6871 H 643.166 2.90604 -2.56179 0
M  V30 6872 H 643.58 2.3298 -4.69916 0
M  V30 6873 H 645.054 3.86351 -3.94255 0
M  V30 6874 H 645.531 3.77264 -2.24874 0
M  V30 6875 H 646.137 2.55783 -3.39787 0
M  V30 6876 N 644.452 1.42507 0.673017 0
M  V30 6877 C 645.868 1.25472 0.986355 0
M  V30 6878 C 646.068 0.160181 2.00862 0
M  V30 6879 O 645.124 -0.467993 2.48125 0
M  V30 6880 C 646.437 2.61219 1.48947 0
M  V30 6881 C 647.985 2.68589 1.60715 0
M  V30 6882 C 648.46 4.04707 2.14422 0
M  V30 6883 N 649.951 4.0667 2.21752 0
M  V30 6884 C 650.686 5.0881 2.64386 0
M  V30 6885 N 650.182 6.21332 3.0646 0
M  V30 6886 N 651.975 4.96166 2.64151 0
M  V30 6887 H 644.126 2.124 -0.00378532 0
M  V30 6888 H 646.389 0.946046 0.0608367 0
M  V30 6889 H 646.095 3.42179 0.812812 0
M  V30 6890 H 645.969 2.85261 2.46791 0
M  V30 6891 H 648.356 1.87974 2.27486 0
M  V30 6892 H 648.437 2.48333 0.613552 0
M  V30 6893 H 648.081 4.8578 1.48258 0
M  V30 6894 H 648.011 4.22315 3.14575 0
M  V30 6895 H 650.502 3.25438 1.92089 0
M  V30 6896 H 650.815 6.95118 3.37684 0
M  V30 6897 H 649.16 6.24835 3.04313 0
M  V30 6898 H 652.351 4.07334 2.30644 0
M  V30 6899 H 652.524 5.759 2.97057 0
M  V30 6900 N 645.93 -0.909495 1.28709 0
M  V30 6901 C 647.346 -1.18862 1.06508 0
M  V30 6902 C 647.546 -2.00604 -0.189864 0
M  V30 6903 O 646.602 -2.36281 -0.890355 0
M  V30 6904 C 647.915 -1.91908 2.31499 0
M  V30 6905 C 649.463 -2.04773 2.36721 0
M  V30 6906 C 649.938 -2.81228 3.6149 0
M  V30 6907 N 651.429 -2.88787 3.62155 0
M  V30 6908 C 652.164 -3.48455 4.55375 0
M  V30 6909 N 651.66 -4.09369 5.58918 0
M  V30 6910 N 653.453 -3.46035 4.42963 0
M  V30 6911 H 645.604 -0.363867 2.0926 0
M  V30 6912 H 647.867 -0.223649 0.921241 0
M  V30 6913 H 647.573 -1.39275 3.22948 0
M  V30 6914 H 647.447 -2.92436 2.38245 0
M  V30 6915 H 649.834 -2.56585 1.45767 0
M  V30 6916 H 649.915 -1.03408 2.33967 0
M  V30 6917 H 649.559 -2.30094 4.5279 0
M  V30 6918 H 649.489 -3.82917 3.61499 0
M  V30 6919 H 651.98 -2.45514 2.87283 0
M  V30 6920 H 652.293 -4.52891 6.26187 0
M  V30 6921 H 650.638 -4.0786 5.62739 0
M  V30 6922 H 653.829 -2.9766 3.6127 0
M  V30 6923 H 654.002 -3.92244 5.15799 0
M  V30 6924 N 647.408 -1.11026 -1.11852 0
M  V30 6925 C 648.654 -0.857729 -1.83768 0
M  V30 6926 C 648.987 0.615143 -1.842 0
M  V30 6927 O 648.262 1.45391 -1.29196 0
M  V30 6928 C 648.545 -1.41453 -3.31154 0
M  V30 6929 C 648.398 -2.95471 -3.39142 0
M  V30 6930 C 649.717 -1.0619 -4.27097 0
M  V30 6931 H 646.836 -0.313044 -0.667212 0
M  V30 6932 H 649.478 -1.37443 -1.31185 0
M  V30 6933 H 647.628 -0.975052 -3.76065 0
M  V30 6934 H 649.3 -3.4799 -3.02821 0
M  V30 6935 H 647.543 -3.31759 -2.79497 0
M  V30 6936 H 648.214 -3.29515 -4.42859 0
M  V30 6937 H 650.69 -1.44122 -3.90344 0
M  V30 6938 H 649.566 -1.47832 -5.28618 0
M  V30 6939 H 649.827 0.0278912 -4.42091 0
M  V30 6940 N 648.886 1.2938 -0.899927 0
M  V30 6941 C 649.816 2.30144 -0.39446 0
M  V30 6942 C 650.797 1.61611 0.530639 0
M  V30 6943 O 651.982 1.89119 0.441319 0
M  V30 6944 C 649.112 3.45229 0.37868 0
M  V30 6945 C 648.066 4.25564 -0.456012 0
M  V30 6946 C 647.392 5.32848 0.444637 0
M  V30 6947 C 648.692 4.93651 -1.70605 0
M  V30 6948 H 650.386 2.72673 -1.23653 0
M  V30 6949 H 647.932 1.31086 -0.596034 0
M  V30 6950 H 649.885 4.14797 0.743037 0
M  V30 6951 H 648.609 3.01545 1.25453 0
M  V30 6952 H 647.268 3.57704 -0.802704 0
M  V30 6953 H 646.916 4.85408 1.31863 0
M  V30 6954 H 646.616 5.87497 -0.110154 0
M  V30 6955 H 648.14 6.05268 0.805182 0
M  V30 6956 H 649.554 5.55655 -1.41141 0
M  V30 6957 H 647.951 5.58233 -2.20217 0
M  V30 6958 H 649.021 4.18926 -2.4419 0
M  V30 6959 N 650.364 0.662433 1.43002 0
M  V30 6960 C 651.294 -0.00979809 2.33498 0
M  V30 6961 C 652.275 -0.802329 1.49989 0
M  V30 6962 O 653.46 -0.761964 1.78627 0
M  V30 6963 C 650.59 -0.970446 3.33466 0
M  V30 6964 C 649.544 -0.287383 4.27034 0
M  V30 6965 C 648.87 -1.36012 5.17112 0
M  V30 6966 C 650.17 0.82595 5.15728 0
M  V30 6967 H 651.864 0.745959 2.89958 0
M  V30 6968 H 649.41 0.360172 1.39423 0
M  V30 6969 H 651.363 -1.44971 3.95679 0
M  V30 6970 H 650.087 -1.75748 2.75282 0
M  V30 6971 H 648.746 0.17152 3.66199 0
M  V30 6972 H 648.394 -2.13882 4.55262 0
M  V30 6973 H 648.094 -0.908276 5.80538 0
M  V30 6974 H 649.618 -1.84056 5.82199 0
M  V30 6975 H 651.032 0.42845 5.71697 0
M  V30 6976 H 649.429 1.20282 5.87922 0
M  V30 6977 H 650.499 1.68003 4.54866 0
M  V30 6978 N 651.842 -1.52309 0.404946 0
M  V30 6979 C 653.258 -1.59503 0.0556255 0
M  V30 6980 C 653.458 -1.41805 -1.43156 0
M  V30 6981 O 652.514 -1.2429 -2.19792 0
M  V30 6982 C 653.827 -2.95687 0.546801 0
M  V30 6983 C 655.375 -3.08909 0.504413 0
M  V30 6984 C 655.85 -4.47566 0.97203 0
M  V30 6985 N 657.341 -4.53795 0.928679 0
M  V30 6986 C 658.076 -5.59346 1.26174 0
M  V30 6987 N 657.572 -6.72469 1.66604 0
M  V30 6988 N 659.365 -5.49532 1.18198 0
M  V30 6989 H 651.516 -1.6206 1.37296 0
M  V30 6990 H 653.779 -0.762161 0.563751 0
M  V30 6991 H 653.485 -3.13905 1.58609 0
M  V30 6992 H 653.359 -3.77172 -0.0457905 0
M  V30 6993 H 655.746 -2.90378 -0.525819 0
M  V30 6994 H 655.827 -2.2934 1.13301 0
M  V30 6995 H 655.471 -4.6684 2.00057 0
M  V30 6996 H 655.401 -5.25625 0.320292 0
M  V30 6997 H 657.892 -3.72588 0.631369 0
M  V30 6998 H 658.205 -7.48993 1.9034 0
M  V30 6999 H 656.55 -6.73761 1.70504 0
M  V30 7000 H 659.741 -4.60038 0.865011 0
M  V30 7001 H 659.914 -6.31687 1.44485 0
M  V30 7002 N 653.32 -0.135238 -1.57019 0
M  V30 7003 C 654.731 0.387521 -1.82634 0
M  V30 7004 C 655.082 1.65528 -1.05332 0
M  V30 7005 O 654.207 2.14381 -0.294926 0
M  V30 7006 C 654.802 0.709852 -3.3128 0
M  V30 7007 C 653.361 1.17718 -3.57518 0
M  V30 7008 C 652.508 0.194183 -2.76619 0
M  V30 7009 H 655.459 -0.360126 -1.5456 0
M  V30 7010 H 655.48 1.5657 -3.46794 0
M  V30 7011 H 654.992 -0.213024 -3.87515 0
M  V30 7012 H 653.093 2.1164 -3.06658 0
M  V30 7013 H 653.206 1.11128 -4.66034 0
M  V30 7014 H 651.57 0.684478 -2.4533 0
M  V30 7015 H 652.353 -0.722076 -3.3562 0
M  V30 7016 N 654.798 1.5699 0.138552 0
M  V30 7017 C 655.708 2.02174 1.19008 0
M  V30 7018 C 656.724 0.938622 1.46512 0
M  V30 7019 O 657.9 1.24872 1.58016 0
M  V30 7020 C 654.965 2.40045 2.50159 0
M  V30 7021 C 654.026 3.62346 2.30226 0
M  V30 7022 C 653.259 3.98401 3.55123 0
M  V30 7023 O 653.482 3.35019 4.61647 0
M  V30 7024 O 652.416 4.91606 3.47285 0
M  V30 7025 H 656.242 2.91954 0.836452 0
M  V30 7026 H 653.827 1.45293 0.347907 0
M  V30 7027 H 655.709 2.65225 3.27465 0
M  V30 7028 H 654.384 1.53417 2.85035 0
M  V30 7029 H 653.291 3.42341 1.50843 0
M  V30 7030 H 654.624 4.49617 2.00262 0
M  V30 7031 N 656.276 -0.40816 1.52223 0
M  V30 7032 C 657.223 -1.49737 1.75635 0
M  V30 7033 C 658.193 -1.5493 0.598824 0
M  V30 7034 O 659.378 -1.71487 0.83648 0
M  V30 7035 C 656.518 -2.87174 1.91376 0
M  V30 7036 C 655.631 -2.91283 3.19027 0
M  V30 7037 C 654.766 -4.20026 3.25195 0
M  V30 7038 C 653.805 -4.18113 4.47044 0
M  V30 7039 N 652.942 -5.38429 4.50598 0
M  V30 7040 H 657.782 -1.29075 2.68596 0
M  V30 7041 H 655.319 -0.626518 1.33091 0
M  V30 7042 H 657.277 -3.66959 1.98486 0
M  V30 7043 H 655.907 -3.06329 1.01795 0
M  V30 7044 H 654.959 -2.03984 3.21084 0
M  V30 7045 H 656.271 -2.85734 4.08849 0
M  V30 7046 H 655.425 -5.08204 3.31382 0
M  V30 7047 H 654.164 -4.28271 2.33313 0
M  V30 7048 H 653.169 -3.28325 4.41002 0
M  V30 7049 H 654.394 -4.11507 5.40221 0
M  V30 7050 H 652.34 -5.4734 3.616 0
M  V30 7051 H 652.257 -5.34879 5.34266 0
M  V30 7052 H 653.525 -6.28557 4.61016 0
M  V30 7053 N 657.755 -1.42862 -0.66545 0
M  V30 7054 C 659.171 -1.25993 -0.979687 0
M  V30 7055 C 659.371 -0.170831 -2.00775 0
M  V30 7056 O 658.427 0.454827 -2.4837 0
M  V30 7057 C 659.74 -2.62005 -1.47559 0
M  V30 7058 C 661.288 -2.69437 -1.59288 0
M  V30 7059 C 661.763 -4.05838 -2.12272 0
M  V30 7060 N 663.254 -4.0784 -2.19592 0
M  V30 7061 C 663.989 -5.10205 -2.61684 0
M  V30 7062 N 663.485 -6.22949 -3.03161 0
M  V30 7063 N 665.278 -4.9756 -2.61516 0
M  V30 7064 H 657.429 -2.12395 0.0150493 0
M  V30 7065 H 659.692 -0.946355 -0.0558187 0
M  V30 7066 H 659.398 -3.42605 -0.794654 0
M  V30 7067 H 659.272 -2.86566 -2.45275 0
M  V30 7068 H 661.659 -1.89178 -2.26486 0
M  V30 7069 H 661.74 -2.48655 -0.600374 0
M  V30 7070 H 661.384 -4.86559 -1.4568 0
M  V30 7071 H 661.314 -4.23977 -3.12331 0
M  V30 7072 H 663.805 -3.26452 -1.90361 0
M  V30 7073 H 664.118 -6.96899 -3.33993 0
M  V30 7074 H 662.463 -6.2644 -3.00995 0
M  V30 7075 H 665.654 -4.08551 -2.28481 0
M  V30 7076 H 665.827 -5.77468 -2.93999 0
M  V30 7077 N 659.233 0.902656 -1.29189 0
M  V30 7078 C 660.644 1.46809 -1.15343 0
M  V30 7079 C 660.995 1.94568 0.252517 0
M  V30 7080 O 660.12 1.83454 1.14777 0
M  V30 7081 C 660.715 2.66829 -2.08776 0
M  V30 7082 C 659.274 3.19518 -1.98961 0
M  V30 7083 C 658.421 1.92212 -1.99874 0
M  V30 7084 H 661.372 0.714282 -1.41717 0
M  V30 7085 H 661.393 3.42465 -1.65826 0
M  V30 7086 H 660.905 2.32039 -3.11094 0
M  V30 7087 H 659.006 3.59008 -0.99721 0
M  V30 7088 H 659.119 3.84016 -2.86477 0
M  V30 7089 H 657.483 2.0979 -1.44431 0
M  V30 7090 H 658.266 1.59702 -3.03891 0
M  V30 7091 N 660.711 1.11618 1.11262 0
M  V30 7092 C 662.122 0.881942 1.64556 0
M  V30 7093 C 662.473 -0.585442 1.87262 0
M  V30 7094 O 661.598 -1.44795 1.60821 0
M  V30 7095 C 662.193 1.59446 2.98935 0
M  V30 7096 C 660.752 1.40661 3.4913 0
M  V30 7097 C 659.899 1.63593 2.23903 0
M  V30 7098 H 662.85 1.27217 0.94877 0
M  V30 7099 H 662.871 1.04054 3.65996 0
M  V30 7100 H 662.383 2.66241 2.82378 0
M  V30 7101 H 660.484 0.360835 3.70849 0
M  V30 7102 H 660.597 2.15693 4.27801 0
M  V30 7103 H 658.961 1.05944 2.3162 0
M  V30 7104 H 659.744 2.71666 2.09886 0
M  V30 7105 N 662.189 -1.289 0.906776 0
M  V30 7106 C 663.435 -1.95558 0.53712 0
M  V30 7107 C 663.768 -1.71262 -0.915582 0
M  V30 7108 O 663.043 -1.02961 -1.65013 0
M  V30 7109 C 663.326 -3.50198 0.838645 0
M  V30 7110 C 663.179 -3.83923 2.34357 0
M  V30 7111 C 664.498 -4.38861 0.329988 0
M  V30 7112 H 661.617 -0.710289 0.196617 0
M  V30 7113 H 664.259 -1.52392 1.13475 0
M  V30 7114 H 662.409 -3.87096 0.330024 0
M  V30 7115 H 664.081 -3.56933 2.92227 0
M  V30 7116 H 662.324 -3.31215 2.80141 0
M  V30 7117 H 662.995 -4.91883 2.5051 0
M  V30 7118 H 665.471 -4.08996 0.765609 0
M  V30 7119 H 664.347 -5.45931 0.570105 0
M  V30 7120 H 664.608 -4.35352 -0.769511 0
M  V30 7121 N 663.667 -0.670007 -1.42649 0
M  V30 7122 C 664.892 -0.196955 -2.06463 0
M  V30 7123 C 665.317 1.1352 -1.49983 0
M  V30 7124 O 664.675 1.705 -0.616397 0
M  V30 7125 C 664.723 -0.137381 -3.60338 0
M  V30 7126 O 663.827 0.895523 -4.02559 0
M  V30 7127 H 663.168 -0.102579 -0.656029 0
M  V30 7128 H 665.698 -0.917669 -1.82866 0
M  V30 7129 H 665.708 0.0403625 -4.0798 0
M  V30 7130 H 664.383 -1.10977 -4.0082 0
M  V30 7131 H 662.96 0.689209 -3.66476 0
M  V30 7132 N 665.145 1.52092 -0.413018 0
M  V30 7133 C 666.391 2.02154 0.161737 0
M  V30 7134 C 666.724 1.29789 1.44459 0
M  V30 7135 O 665.999 0.405378 1.90229 0
M  V30 7136 C 666.282 3.5781 0.405463 0
M  V30 7137 C 666.135 4.40819 -0.894335 0
M  V30 7138 C 667.454 4.23821 1.18591 0
M  V30 7139 H 664.573 0.734769 0.0573077 0
M  V30 7140 H 667.215 1.81948 -0.547247 0
M  V30 7141 H 665.365 3.75158 1.0094 0
M  V30 7142 H 667.037 4.35175 -1.53039 0
M  V30 7143 H 665.28 4.06877 -1.50444 0
M  V30 7144 H 665.951 5.47819 -0.678144 0
M  V30 7145 H 668.427 4.10596 0.674573 0
M  V30 7146 H 667.303 5.32663 1.3252 0
M  V30 7147 H 667.564 3.83038 2.20758 0
M  V30 7148 N 666.623 0.143563 1.56945 0
M  V30 7149 C 667.869 -0.502787 1.97088 0
M  V30 7150 C 668.224 -1.62703 1.02691 0
M  V30 7151 O 667.517 -1.91502 0.0613323 0
M  V30 7152 C 667.711 -1.05885 3.41355 0
M  V30 7153 C 667.54 0.00998209 4.49699 0
M  V30 7154 C 666.31 0.450229 5.0329 0
M  V30 7155 C 668.508 0.800174 5.08037 0
M  V30 7156 N 666.49 1.50227 5.95235 0
M  V30 7157 C 667.861 1.70279 5.96158 0
M  V30 7158 C 669.916 0.848344 4.9062 0
M  V30 7159 C 668.619 2.64945 6.68728 0
M  V30 7160 C 670.645 1.78281 5.63888 0
M  V30 7161 C 670.007 2.67296 6.51715 0
M  V30 7162 H 666.106 -0.152891 0.766908 0
M  V30 7163 H 668.69 0.23737 1.93248 0
M  V30 7164 H 666.861 -1.76863 3.45795 0
M  V30 7165 H 668.593 -1.67154 3.68567 0
M  V30 7166 H 665.348 0.0531355 4.7357 0
M  V30 7167 H 665.772 2.02795 6.45913 0
M  V30 7168 H 670.414 0.174228 4.22441 0
M  V30 7169 H 668.132 3.33358 7.36137 0
M  V30 7170 H 671.718 1.82584 5.52408 0
M  V30 7171 H 670.598 3.38428 7.07415 0
M  V30 7172 N 668.101 -1.57061 -0.130224 0
M  V30 7173 C 669.347 -1.8453 -0.841216 0
M  V30 7174 C 669.68 -0.727666 -1.80052 0
M  V30 7175 O 668.955 0.267419 -1.92653 0
M  V30 7176 C 669.238 -3.22553 -1.60099 0
M  V30 7177 C 669.091 -4.44901 -0.662048 0
M  V30 7178 C 670.41 -3.58003 -2.55973 0
M  V30 7179 H 667.529 -0.671215 -0.304366 0
M  V30 7180 H 670.171 -1.89705 -0.105821 0
M  V30 7181 H 668.321 -3.18272 -2.22789 0
M  V30 7182 H 669.993 -4.61278 -0.0448559 0
M  V30 7183 H 668.236 -4.33791 0.0272253 0
M  V30 7184 H 668.907 -5.3812 -1.23006 0
M  V30 7185 H 671.383 -3.63002 -2.03393 0
M  V30 7186 H 670.259 -4.55576 -3.06172 0
M  V30 7187 H 670.52 -2.84833 -3.38116 0
M  V30 7188 N 669.579 0.400081 -1.52437 0
M  V30 7189 C 670.509 1.4947 -1.7939 0
M  V30 7190 C 671.49 1.57383 -0.645329 0
M  V30 7191 O 672.675 1.72511 -0.891826 0
M  V30 7192 C 669.805 2.87201 -1.95276 0
M  V30 7193 C 668.759 2.94134 -3.10917 0
M  V30 7194 C 668.085 4.34207 -3.1204 0
M  V30 7195 C 669.385 2.64791 -4.50203 0
M  V30 7196 H 671.079 1.27165 -2.71052 0
M  V30 7197 H 668.625 0.610312 -1.30427 0
M  V30 7198 H 670.578 3.63772 -2.12715 0
M  V30 7199 H 669.302 3.10819 -1.00294 0
M  V30 7200 H 667.961 2.20009 -2.93243 0
M  V30 7201 H 667.609 4.54848 -2.14761 0
M  V30 7202 H 667.309 4.39768 -3.89715 0
M  V30 7203 H 668.833 5.127 -3.31619 0
M  V30 7204 H 670.247 3.31083 -4.68035 0
M  V30 7205 H 668.644 2.81717 -5.29864 0
M  V30 7206 H 669.714 1.60184 -4.57678 0
M  V30 7207 N 671.057 1.43213 0.657864 0
M  V30 7208 C 671.989 1.43974 1.78337 0
M  V30 7209 C 673.002 0.336482 1.59285 0
M  V30 7210 O 674.191 0.600631 1.68091 0
M  V30 7211 C 671.291 1.23242 3.15697 0
M  V30 7212 C 670.464 2.46319 3.61449 0
M  V30 7213 C 669.523 2.2088 4.77597 0
M  V30 7214 O 668.549 2.942 4.87273 0
M  V30 7215 N 669.751 1.22251 5.67481 0
M  V30 7216 H 672.516 2.40993 1.78164 0
M  V30 7217 H 670.077 1.3831 0.841549 0
M  V30 7218 H 672.069 1.04113 3.91079 0
M  V30 7219 H 670.639 0.346849 3.1067 0
M  V30 7220 H 669.859 2.80904 2.76563 0
M  V30 7221 H 671.147 3.28239 3.88763 0
M  V30 7222 H 670.545 0.616433 5.62331 0
M  V30 7223 H 669.102 1.09107 6.42603 0
M  V30 7224 N 672.536 -0.895792 1.29666 0
M  V30 7225 C 673.761 -1.68528 1.20885 0
M  V30 7226 C 674.186 -1.8673 -0.226595 0
M  V30 7227 O 673.544 -1.39044 -1.16347 0
M  V30 7228 C 673.592 -3.04512 1.93144 0
M  V30 7229 O 672.696 -3.92963 1.25115 0
M  V30 7230 H 672.037 -0.515371 0.418675 0
M  V30 7231 H 674.567 -1.11878 1.71302 0
M  V30 7232 H 674.577 -3.54628 2.0175 0
M  V30 7233 H 673.252 -2.90582 2.97548 0
M  V30 7234 H 671.829 -3.51399 1.24794 0
M  V30 7235 N 674.014 -1.12206 -1.10668 0
M  V30 7236 C 675.425 -0.890657 -1.64086 0
M  V30 7237 C 675.776 0.575502 -1.8757 0
M  V30 7238 O 674.901 1.4394 -1.61587 0
M  V30 7239 C 675.496 -1.61029 -2.98085 0
M  V30 7240 C 674.055 -1.4251 -3.48379 0
M  V30 7241 C 673.202 -1.64778 -2.23033 0
M  V30 7242 H 676.153 -1.27718 -0.94201 0
M  V30 7243 H 676.174 -1.05993 -3.65439 0
M  V30 7244 H 675.686 -2.67735 -2.80962 0
M  V30 7245 H 673.787 -0.380497 -3.70652 0
M  V30 7246 H 673.9 -2.17959 -4.26651 0
M  V30 7247 H 672.264 -1.07171 -2.31055 0
M  V30 7248 H 673.047 -2.72776 -2.08443 0
M  V30 7249 N 675.492 1.28418 -0.913599 0
M  V30 7250 C 676.769 1.89977 -0.465619 0
M  V30 7251 C 677.149 1.82813 1.05559 0
M  V30 7252 O 676.497 1.26397 1.90358 0
M  V30 7253 C 676.707 3.34492 -0.995813 0
M  V30 7254 C 678.055 4.11468 -1.04782 0
M  V30 7255 O 679.079 3.43451 -0.944445 0
M  V30 7256 O 677.938 5.33046 -1.20518 0
M  V30 7257 H 675.032 0.813734 -0.147532 0
M  V30 7258 H 677.578 1.36786 -1.00437 0
M  V30 7259 H 676.35 3.33929 -2.03978 0
M  V30 7260 H 675.973 3.95181 -0.437878 0
M  V30 7261 N 676.97 0.677563 1.42291 0
M  V30 7262 C 677.92 -0.0218641 2.2799 0
M  V30 7263 C 678.904 -0.770816 1.41235 0
M  V30 7264 O 680.096 -0.649273 1.64662 0
M  V30 7265 C 677.225 -0.970449 3.29298 0
M  V30 7266 C 676.311 -0.218695 4.23536 0
M  V30 7267 N 676.702 0.777908 4.99782 0
M  V30 7268 C 675 -0.456748 4.43655 0
M  V30 7269 C 675.701 1.22632 5.68627 0
M  V30 7270 N 674.677 0.55573 5.40752 0
M  V30 7271 H 678.479 0.742516 2.84366 0
M  V30 7272 H 675.993 0.506862 1.54288 0
M  V30 7273 H 677.99 -1.48652 3.89497 0
M  V30 7274 H 676.65 -1.73463 2.74483 0
M  V30 7275 H 677.661 1.15754 5.04798 0
M  V30 7276 H 674.338 -1.20021 3.99877 0
M  V30 7277 H 675.728 2.05231 6.39789 0
M  V30 7278 N 678.448 -1.51871 0.421078 0
M  V30 7279 C 679.398 -2.24171 -0.416111 0
M  V30 7280 C 680.382 -1.25763 -1.00362 0
M  V30 7281 O 681.574 -1.5094 -0.924452 0
M  V30 7282 C 678.703 -3.07533 -1.52571 0
M  V30 7283 C 677.789 -4.1336 -0.948399 0
M  V30 7284 N 678.18 -5.05704 -0.0987933 0
M  V30 7285 C 676.478 -4.29055 -1.21768 0
M  V30 7286 C 677.179 -5.8127 0.223705 0
M  V30 7287 N 676.155 -5.4221 -0.388524 0
M  V30 7288 H 679.957 -2.92925 0.239166 0
M  V30 7289 H 677.471 -1.60732 0.232191 0
M  V30 7290 H 679.468 -3.57893 -2.13819 0
M  V30 7291 H 678.128 -2.4032 -2.18349 0
M  V30 7292 H 679.139 -5.17214 0.266428 0
M  V30 7293 H 675.816 -3.73071 -1.87416 0
M  V30 7294 H 677.206 -6.65653 0.914076 0
M  V30 7295 N 679.926 -0.151884 -1.56866 0
M  V30 7296 C 680.874 0.80299 -2.183 0
M  V30 7297 C 681.868 1.25174 -1.14139 0
M  V30 7298 O 683.074 1.21966 -1.3238 0
M  V30 7299 H 679.449 0.277169 -0.699057 0
M  V30 7300 H 681.42 0.260699 -2.97259 0
M  V30 7301 C 680.169 2.03009 -2.82281 0
M  V30 7302 H 679.492 1.69377 -3.62148 0
M  V30 7303 H 680.932 2.67753 -3.28762 0
M  V30 7304 C 679.391 2.84123 -1.81041 0
M  V30 7305 O 679.921 3.8063 -1.28388 0
M  V30 7306 N 678.127 2.48753 -1.50234 0
M  V30 7307 H 677.674 1.70337 -1.93244 0
M  V30 7308 H 677.632 3.03316 -0.827445 0
M  V30 7309 N 681.404 1.57128 0.121893 0
M  V30 7310 C 682.65 1.85853 0.826451 0
M  V30 7311 C 683.005 0.739262 1.77631 0
M  V30 7312 O 682.298 -0.260959 1.89815 0
M  V30 7313 C 682.492 3.1874 1.61677 0
M  V30 7314 C 682.321 4.43487 0.744944 0
M  V30 7315 C 681.091 5.03707 0.400891 0
M  V30 7316 C 683.289 5.1426 0.0638779 0
M  V30 7317 N 681.271 6.12006 -0.481902 0
M  V30 7318 C 682.642 6.16281 -0.678033 0
M  V30 7319 C 684.697 4.97898 -0.0128424 0
M  V30 7320 C 683.4 7.0371 -1.48946 0
M  V30 7321 C 685.426 5.85812 -0.81108 0
M  V30 7322 C 684.788 6.87333 -1.54119 0
M  V30 7323 H 680.887 0.730367 0.279442 0
M  V30 7324 H 683.471 1.9449 0.0903486 0
M  V30 7325 H 681.642 3.11204 2.32393 0
M  V30 7326 H 683.374 3.35283 2.26644 0
M  V30 7327 H 680.129 4.67744 0.742469 0
M  V30 7328 H 680.553 6.70787 -0.915063 0
M  V30 7329 H 685.195 4.19372 0.537278 0
M  V30 7330 H 682.913 7.81646 -2.05074 0
M  V30 7331 H 686.499 5.75217 -0.872764 0
M  V30 7332 H 685.379 7.54182 -2.14893 0
M  V30 7333 N 682.882 -0.391992 1.52647 0
M  V30 7334 C 683.812 -1.48517 1.8018 0
M  V30 7335 C 684.793 -1.57039 0.653667 0
M  V30 7336 O 685.978 -1.72036 0.900962 0
M  V30 7337 C 683.108 -2.86161 1.96797 0
M  V30 7338 C 682.062 -2.92481 3.12472 0
M  V30 7339 C 681.388 -4.32546 3.14338 0
M  V30 7340 C 682.688 -2.624 4.51601 0
M  V30 7341 H 684.382 -1.25726 2.71723 0
M  V30 7342 H 681.928 -0.603387 1.30749 0
M  V30 7343 H 683.881 -3.62639 2.14641 0
M  V30 7344 H 682.605 -3.10283 1.01941 0
M  V30 7345 H 681.264 -2.18451 2.94406 0
M  V30 7346 H 680.912 -4.53703 2.1717 0
M  V30 7347 H 680.612 -4.37695 3.92042 0
M  V30 7348 H 682.136 -5.10934 3.34333 0
M  V30 7349 H 683.55 -3.28596 4.69785 0
M  V30 7350 H 681.947 -2.78903 5.3135 0
M  V30 7351 H 683.017 -1.57754 4.58521 0
M  V30 7352 N 684.36 -1.4356 -0.65026 0
M  V30 7353 C 685.323 -1.48615 -1.74489 0
M  V30 7354 C 686.323 -0.370483 -1.56474 0
M  V30 7355 O 687.513 -0.632351 -1.62317 0
M  V30 7356 C 684.645 -1.34161 -3.13391 0
M  V30 7357 H 685.838 -2.46103 -1.71387 0
M  V30 7358 H 683.391 -1.30369 -0.862186 0
M  V30 7359 H 684.126 -0.376918 -3.22102 0
M  V30 7360 H 683.911 -2.1504 -3.27872 0
M  V30 7361 H 685.401 -1.40637 -3.93206 0
M  V30 7362 N 685.838 0.888903 -1.30139 0
M  V30 7363 C 687.115 1.62145 -1.094 0
M  V30 7364 C 687.495 2.08041 0.358091 0
M  V30 7365 O 686.843 1.84438 1.34888 0
M  V30 7366 C 687.053 2.794 -2.09133 0
M  V30 7367 C 688.401 3.49826 -2.40638 0
M  V30 7368 O 689.425 2.89583 -2.07412 0
M  V30 7369 O 688.284 4.58457 -2.97455 0
M  V30 7370 H 685.378 0.712475 -0.41989 0
M  V30 7371 H 687.924 0.936023 -1.41551 0
M  V30 7372 H 686.696 2.42762 -3.06891 0
M  V30 7373 H 686.319 3.55643 -1.77776 0
M  V30 7374 N 687.317 1.12792 1.10072 0
M  V30 7375 C 688.264 0.79921 2.16521 0
M  V30 7376 C 689.234 -0.235726 1.64419 0
M  V30 7377 O 690.419 -0.109457 1.90486 0
M  V30 7378 C 687.559 0.264091 3.44088 0
M  V30 7379 C 686.672 1.35729 4.10124 0
M  V30 7380 C 685.807 0.781212 5.25424 0
M  V30 7381 C 684.846 1.85327 5.8337 0
M  V30 7382 N 683.983 1.29564 6.90042 0
M  V30 7383 H 688.823 1.71105 2.43981 0
M  V30 7384 H 686.36 0.854225 1.19756 0
M  V30 7385 H 688.318 -0.0642423 4.17151 0
M  V30 7386 H 686.948 -0.610901 3.16967 0
M  V30 7387 H 686 1.80234 3.34993 0
M  V30 7388 H 687.312 2.16782 4.4923 0
M  V30 7389 H 686.466 0.403769 6.05355 0
M  V30 7390 H 685.205 -0.0604686 4.87663 0
M  V30 7391 H 684.21 2.23986 5.02106 0
M  V30 7392 H 685.435 2.69824 6.23195 0
M  V30 7393 H 683.381 0.475844 6.54272 0
M  V30 7394 H 683.298 2.04271 7.2788 0
M  V30 7395 H 684.566 0.945545 7.73744 0
M  V30 7396 N 688.795 -1.27931 0.920396 0
M  V30 7397 C 689.728 -2.2537 0.358285 0
M  V30 7398 C 690.706 -1.53328 -0.541242 0
M  V30 7399 O 691.89 -1.82196 -0.483399 0
M  V30 7400 C 689.017 -3.35178 -0.487193 0
M  V30 7401 C 688.063 -4.25079 0.347881 0
M  V30 7402 S 688.896 -5.05792 1.75883 0
M  V30 7403 C 690.052 -6.19089 0.920832 0
M  V30 7404 H 690.285 -2.72701 1.18413 0
M  V30 7405 H 687.818 -1.36474 0.722088 0
M  V30 7406 H 689.776 -3.98895 -0.96916 0
M  V30 7407 H 688.437 -2.865 -1.28749 0
M  V30 7408 H 687.63 -5.03113 -0.298912 0
M  V30 7409 H 687.232 -3.66119 0.763748 0
M  V30 7410 H 689.524 -6.77326 0.15349 0
M  V30 7411 H 690.467 -6.8803 1.67394 0
M  V30 7412 H 690.875 -5.62573 0.466069 0
M  V30 7413 N 690.273 -0.685099 -1.4193 0
M  V30 7414 C 691.203 -0.0273506 -2.33484 0
M  V30 7415 C 692.184 0.778366 -1.51246 0
M  V30 7416 O 693.369 0.733449 -1.79817 0
M  V30 7417 C 690.499 0.917272 -3.34968 0
M  V30 7418 C 689.453 0.21941 -4.27437 0
M  V30 7419 C 688.779 1.27768 -5.1921 0
M  V30 7420 C 690.079 -0.907894 -5.14349 0
M  V30 7421 H 691.773 -0.791994 -2.88735 0
M  V30 7422 H 689.319 -0.382308 -1.38832 0
M  V30 7423 H 691.272 1.38657 -3.97935 0
M  V30 7424 H 689.996 1.71346 -2.78043 0
M  V30 7425 H 688.655 -0.229757 -3.65879 0
M  V30 7426 H 688.303 2.06612 -4.58607 0
M  V30 7427 H 688.003 0.815803 -5.81909 0
M  V30 7428 H 689.527 1.7477 -5.85054 0
M  V30 7429 H 690.941 -0.519348 -5.70943 0
M  V30 7430 H 689.338 -1.2962 -5.85934 0
M  V30 7431 H 690.408 -1.75218 -4.52136 0
M  V30 7432 N 691.751 1.51645 -0.429126 0
M  V30 7433 C 692.979 2.06433 0.138994 0
M  V30 7434 C 693.394 1.29735 1.37165 0
M  V30 7435 O 692.751 0.354638 1.79021 0
M  V30 7436 C 692.802 3.58439 0.469452 0
M  V30 7437 O 692.523 4.32238 -0.714273 0
M  V30 7438 C 694.024 4.29712 1.08914 0
M  V30 7439 H 691.244 0.6709 0.0115608 0
M  V30 7440 H 693.788 1.9532 -0.605843 0
M  V30 7441 H 691.943 3.69494 1.16419 0
M  V30 7442 H 692.357 5.22704 -0.433633 0
M  V30 7443 H 693.831 5.37182 1.27042 0
M  V30 7444 H 694.308 3.87473 2.06788 0
M  V30 7445 H 694.914 4.2308 0.434028 0
M  V30 7446 N 693.229 0.160201 1.56784 0
M  V30 7447 C 694.457 -0.494165 2.00912 0
M  V30 7448 C 694.872 -1.57548 1.04038 0
M  V30 7449 O 694.229 -1.82457 0.0394581 0
M  V30 7450 C 694.28 -1.08271 3.44905 0
M  V30 7451 O 694.001 -0.0445704 4.38077 0
M  V30 7452 C 695.502 -1.8164 4.04378 0
M  V30 7453 H 692.722 -0.127498 0.658776 0
M  V30 7454 H 695.266 0.258665 2.02858 0
M  V30 7455 H 693.421 -1.78609 3.4377 0
M  V30 7456 H 693.835 -0.477544 5.22322 0
M  V30 7457 H 695.309 -2.18094 5.07089 0
M  V30 7458 H 695.786 -2.70727 3.45838 0
M  V30 7459 H 696.392 -1.15969 4.09184 0
M  V30 7460 N 694.707 -1.5719 -0.113559 0
M  V30 7461 C 695.953 -1.85412 -0.821597 0
M  V30 7462 C 696.286 -0.746722 -1.7927 0
M  V30 7463 O 695.561 0.246971 -1.92926 0
M  V30 7464 C 695.844 -3.24233 -1.56669 0
M  V30 7465 C 695.697 -4.45578 -0.614823 0
M  V30 7466 C 697.016 -3.60697 -2.52161 0
M  V30 7467 H 694.135 -0.674406 -0.29723 0
M  V30 7468 H 696.777 -1.89807 -0.085694 0
M  V30 7469 H 694.927 -3.20617 -2.19401 0
M  V30 7470 H 696.599 -4.613 0.00407137 0
M  V30 7471 H 694.842 -4.33738 0.0732332 0
M  V30 7472 H 695.513 -5.39395 -1.17292 0
M  V30 7473 H 697.989 -3.65139 -1.99532 0
M  V30 7474 H 696.865 -4.58798 -3.01323 0
M  V30 7475 H 697.126 -2.88403 -3.35076 0
M  V30 7476 N 696.185 0.383891 -1.52853 0
M  V30 7477 C 697.095 1.49343 -1.80925 0
M  V30 7478 C 698.111 1.59458 -0.696348 0
M  V30 7479 O 699.287 1.75698 -0.984481 0
M  V30 7480 C 696.352 2.84819 -1.97684 0
M  V30 7481 C 695.413 2.84382 -3.21598 0
M  V30 7482 C 694.646 4.13397 -3.37548 0
M  V30 7483 O 694.869 5.08619 -2.58192 0
M  V30 7484 O 693.803 4.20325 -4.30826 0
M  V30 7485 H 697.629 1.2855 -2.75152 0
M  V30 7486 H 695.214 0.572229 -1.38007 0
M  V30 7487 H 697.096 3.65125 -2.10385 0
M  V30 7488 H 695.771 3.05627 -1.06647 0
M  V30 7489 H 694.678 2.0284 -3.14336 0
M  V30 7490 H 696.011 2.68526 -4.12498 0
M  V30 7491 N 697.663 1.43903 0.642637 0
M  V30 7492 C 698.61 1.49881 1.75512 0
M  V30 7493 C 699.58 0.347538 1.62423 0
M  V30 7494 O 700.765 0.556177 1.82514 0
M  V30 7495 C 697.905 1.43797 3.13714 0
M  V30 7496 C 697.018 2.6921 3.37861 0
M  V30 7497 C 696.153 2.5504 4.6597 0
M  V30 7498 C 695.192 3.75671 4.83257 0
M  V30 7499 N 694.329 3.60247 6.02633 0
M  V30 7500 H 699.169 2.44935 1.69737 0
M  V30 7501 H 696.706 1.21572 0.828165 0
M  V30 7502 H 698.664 1.38262 3.93624 0
M  V30 7503 H 697.294 0.523173 3.18532 0
M  V30 7504 H 696.346 2.8498 2.51973 0
M  V30 7505 H 697.658 3.58786 3.46517 0
M  V30 7506 H 696.812 2.47273 5.54023 0
M  V30 7507 H 695.551 1.63006 4.59653 0
M  V30 7508 H 694.556 3.83836 3.93637 0
M  V30 7509 H 695.781 4.68728 4.91397 0
M  V30 7510 H 693.727 2.70955 5.97427 0
M  V30 7511 H 693.644 4.43431 6.12295 0
M  V30 7512 H 694.912 3.56351 6.93278 0
M  V30 7513 N 699.141 -0.881989 1.30609 0
M  V30 7514 C 700.088 -1.98803 1.17244 0
M  V30 7515 C 701.058 -1.65987 0.0611905 0
M  V30 7516 O 702.243 -1.89385 0.231911 0
M  V30 7517 C 699.383 -3.33867 0.87333 0
M  V30 7518 C 698.496 -3.79354 2.06675 0
M  V30 7519 C 697.631 -5.03078 1.70547 0
M  V30 7520 C 696.67 -5.40981 2.86366 0
M  V30 7521 N 695.807 -6.55886 2.50514 0
M  V30 7522 H 700.647 -2.09566 2.11863 0
M  V30 7523 H 698.184 -1.02607 1.05405 0
M  V30 7524 H 700.142 -4.11612 0.680519 0
M  V30 7525 H 698.772 -3.2278 -0.0359983 0
M  V30 7526 H 697.824 -2.97492 2.37071 0
M  V30 7527 H 699.136 -4.03382 2.93401 0
M  V30 7528 H 698.29 -5.88457 1.47658 0
M  V30 7529 H 697.029 -4.80927 0.809947 0
M  V30 7530 H 696.034 -4.54127 3.09917 0
M  V30 7531 H 697.259 -5.65104 3.76609 0
M  V30 7532 H 695.205 -6.35306 1.63471 0
M  V30 7533 H 695.122 -6.79799 3.30771 0
M  V30 7534 H 696.39 -7.44489 2.30989 0
M  V30 7535 N 700.619 -1.13374 -1.09472 0
M  V30 7536 C 701.865 -0.896516 -1.81908 0
M  V30 7537 C 702.198 0.575933 -1.85463 0
M  V30 7538 O 701.473 1.42618 -1.32251 0
M  V30 7539 C 701.756 -1.48445 -3.28079 0
M  V30 7540 C 701.609 -3.02598 -3.32798 0
M  V30 7541 C 702.928 -1.15226 -4.24748 0
M  V30 7542 H 700.047 -0.327127 -0.660422 0
M  V30 7543 H 702.689 -1.40195 -1.2824 0
M  V30 7544 H 700.839 -1.0546 -3.73912 0
M  V30 7545 H 702.511 -3.54335 -2.95372 0
M  V30 7546 H 700.754 -3.37613 -2.72397 0
M  V30 7547 H 701.425 -3.38835 -4.3577 0
M  V30 7548 H 703.901 -1.52369 -3.87199 0
M  V30 7549 H 702.777 -1.59012 -5.25363 0
M  V30 7550 H 703.038 -0.0658891 -4.42051 0
M  V30 7551 N 702.098 1.27442 -0.927168 0
M  V30 7552 C 703.031 2.25177 -0.370232 0
M  V30 7553 C 704.009 1.53612 0.533103 0
M  V30 7554 O 705.193 1.8245 0.47373 0
M  V30 7555 C 702.32 3.35431 0.469411 0
M  V30 7556 C 701.366 4.24888 -0.370419 0
M  V30 7557 S 702.199 5.04852 -1.78562 0
M  V30 7558 C 703.355 6.18592 -0.953651 0
M  V30 7559 H 703.588 2.72069 -1.19858 0
M  V30 7560 H 701.121 1.36089 -0.729316 0
M  V30 7561 H 703.079 3.99404 0.947992 0
M  V30 7562 H 701.74 2.87179 1.27228 0
M  V30 7563 H 700.933 5.03264 0.272226 0
M  V30 7564 H 700.535 3.65709 -0.783153 0
M  V30 7565 H 702.827 6.77235 -0.189408 0
M  V30 7566 H 703.77 6.87132 -1.7104 0
M  V30 7567 H 704.178 5.62318 -0.495897 0
M  V30 7568 N 703.576 0.692616 1.41565 0
M  V30 7569 C 704.825 0.219452 2.00503 0
M  V30 7570 C 705.138 -1.18683 1.55479 0
M  V30 7571 O 706.344 -1.75731 2.06956 0
M  V30 7572 C 704.8 0.341451 3.58277 0
M  V30 7573 C 704.408 1.75291 4.12283 0
M  V30 7574 C 706.152 -0.0720899 4.24439 0
M  V30 7575 C 704.059 1.82673 5.62481 0
M  V30 7576 H 702.989 0.0782874 0.749925 0
M  V30 7577 H 705.64 0.860386 1.62079 0
M  V30 7578 H 704.022 -0.367683 3.94289 0
M  V30 7579 H 705.196 2.49057 3.87695 0
M  V30 7580 H 703.511 2.11587 3.58636 0
M  V30 7581 H 706.108 -0.0373385 5.34687 0
M  V30 7582 H 706.451 -1.11034 4.0122 0
M  V30 7583 H 706.984 0.586663 3.9345 0
M  V30 7584 H 703.723 2.84539 5.90523 0
M  V30 7585 H 703.243 1.13288 5.89004 0
M  V30 7586 H 704.922 1.58827 6.27203 0
M  V30 7587 N 705.054 -1.51416 0.437162 0
M  V30 7588 C 706.004 -2.24599 -0.392311 0
M  V30 7589 C 706.988 -1.2682 -0.990221 0
M  V30 7590 O 708.18 -1.51912 -0.908391 0
M  V30 7591 C 705.309 -3.09134 -1.49301 0
M  V30 7592 C 704.395 -4.14342 -0.904503 0
M  V30 7593 N 704.786 -5.0578 -0.0451511 0
M  V30 7594 C 703.084 -4.30323 -1.1721 0
M  V30 7595 C 703.785 -5.81 0.285344 0
M  V30 7596 N 702.761 -5.42591 -0.330993 0
M  V30 7597 H 706.563 -2.92655 0.270221 0
M  V30 7598 H 704.077 -1.60476 0.249226 0
M  V30 7599 H 706.074 -3.6014 -2.10011 0
M  V30 7600 H 704.734 -2.42622 -2.15788 0
M  V30 7601 H 705.745 -5.16903 0.321271 0
M  V30 7602 H 702.422 -3.75037 -1.83448 0
M  V30 7603 H 703.812 -6.64646 0.984626 0
M  V30 7604 N 706.532 -0.168513 -1.56696 0
M  V30 7605 C 707.809 0.523367 -1.88468 0
M  V30 7606 C 708.189 1.81503 -1.07796 0
M  V30 7607 O 707.537 2.27859 -0.171045 0
M  V30 7608 C 707.747 0.767991 -3.40445 0
M  V30 7609 C 709.095 1.09924 -4.10124 0
M  V30 7610 O 710.119 0.856625 -3.45746 0
M  V30 7611 O 708.978 1.55681 -5.23856 0
M  V30 7612 H 706.072 0.269447 -0.781874 0
M  V30 7613 H 708.618 -0.206739 -1.68436 0
M  V30 7614 H 707.39 -0.145254 -3.9103 0
M  V30 7615 H 707.013 1.55151 -3.66079 0
M  V30 7616 O 708.049 1.61471 -0.0305634 0
M  V30 7617 H 708.74 1.84756 0.581805 0
M  V30 END ATOM
M  V30 BEGIN BOND
M  V30 END BOND
M  V30 END CTAB
M  END
$$$$
