drugbank_target|Q9ZGI2 Type I polyketide synthase PikAIV (DB07703; DB08431; DB08759)
 OpenBabel12092120463D

  0  0  0     0  0            999 V3000
M  V30 BEGIN CTAB
M  V30 COUNTS 19760 19979 0 0 0
M  V30 BEGIN ATOM
M  V30 1 H -0.908 1.98254 -0.117106 0
M  V30 2 N 0 1.576 0 0
M  V30 3 C 0.933 2.03868 1.02534 0
M  V30 4 C 1.911 0.928543 1.3348 0
M  V30 5 O 3.095 1.19667 1.45644 0
M  V30 6 C 0.222 2.43627 2.35294 0
M  V30 7 C -0.732 3.65373 2.2001 0
M  V30 8 S 0.101 5.13292 1.52614 0
M  V30 9 C 1.257 5.56322 2.86805 0
M  V30 10 H 1.49 2.90518 0.631377 0
M  V30 11 H -0.977 1.52953 0.210867 0
M  V30 12 H 0.981 2.67203 3.11629 0
M  V30 13 H -0.358 1.57376 2.7183 0
M  V30 14 H -1.165 3.90944 3.18086 0
M  V30 15 H -1.563 3.418 1.51819 0
M  V30 16 H 0.729 5.58782 3.83104 0
M  V30 17 H 1.672 6.56266 2.65933 0
M  V30 18 H 2.08 4.83886 2.90714 0
M  V30 19 N 1.4781 -0.272755 1.55222 0
M  V30 20 C 2.7061 -1.02255 1.79865 0
M  V30 21 C 3.1211 -1.79924 0.572088 0
M  V30 22 O 2.4781 -1.76638 -0.458842 0
M  V30 23 C 2.5291 -1.98094 3.02392 0
M  V30 24 O 2.2501 -1.23572 4.20311 0
M  V30 25 C 3.7511 -2.84884 3.39641 0
M  V30 26 H 0.9711 -0.302057 0.599168 0
M  V30 27 H 3.5151 -0.303465 2.02236 0
M  V30 28 H 1.6701 -2.65465 2.82147 0
M  V30 29 H 2.0841 -1.88172 4.89583 0
M  V30 30 H 3.5581 -3.47927 4.28545 0
M  V30 31 H 4.0351 -3.54665 2.59055 0
M  V30 32 H 4.6411 -2.23003 3.62146 0
M  V30 33 N 2.9562 -1.48159 -0.537278 0
M  V30 34 C 4.1812 -1.59707 -1.32319 0
M  V30 35 C 4.6062 -0.254859 -1.86365 0
M  V30 36 O 3.9642 0.772378 -1.64024 0
M  V30 37 C 4.0122 -2.6412 -2.45505 0
M  V30 38 O 3.1162 -2.20774 -3.48328 0
M  V30 39 H 2.4572 -0.535791 -0.392204 0
M  V30 40 H 4.9872 -1.94092 -0.647268 0
M  V30 41 H 4.9972 -2.85166 -2.91795 0
M  V30 42 H 3.6722 -3.61567 -2.05528 0
M  V30 43 H 2.2492 -2.09911 -3.08207 0
M  V30 44 N 4.4343 0.785586 -1.36625 0
M  V30 45 C 5.6593 1.57963 -1.34397 0
M  V30 46 C 6.0843 1.87964 0.071526 0
M  V30 47 O 5.4423 1.48182 1.0446 0
M  V30 48 C 5.4903 2.87511 -2.17646 0
M  V30 49 O 4.5943 3.81281 -1.57158 0
M  V30 50 H 3.9353 0.479014 -0.459828 0
M  V30 51 H 6.4653 0.973411 -1.79961 0
M  V30 52 H 6.4753 3.36745 -2.30362 0
M  V30 53 H 5.1503 2.65002 -3.20541 0
M  V30 54 H 3.7273 3.39885 -1.53403 0
M  V30 55 N 5.9124 1.20967 1.01018 0
M  V30 56 C 6.8604 0.961223 2.1181 0
M  V30 57 C 7.8544 -0.0897034 1.69162 0
M  V30 58 O 9.0604 0.0612271 1.79896 0
M  V30 59 H 5.4354 0.29355 0.692338 0
M  V30 60 H 7.4064 1.90178 2.29946 0
M  V30 61 C 6.1554 0.536854 3.4353 0
M  V30 62 H 5.4784 1.33713 3.76777 0
M  V30 63 H 6.9184 0.402286 4.22087 0
M  V30 64 C 5.3774 -0.751574 3.2841 0
M  V30 65 O 5.9074 -1.80841 3.58691 0
M  V30 66 N 4.1134 -0.716079 2.81639 0
M  V30 67 H 3.6604 0.144236 2.57196 0
M  V30 68 H 3.6184 -1.57847 2.71904 0
M  V30 69 N 7.3905 -1.2043 1.01659 0
M  V30 70 C 8.3005 -2.2689 0.596484 0
M  V30 71 C 9.3165 -1.70107 -0.36599 0
M  V30 72 O 10.4925 -2.00117 -0.226942 0
M  V30 73 C 7.5575 -3.4665 -0.0586659 0
M  V30 74 C 6.6185 -4.18662 0.949751 0
M  V30 75 C 5.8515 -5.32705 0.32577 0
M  V30 76 O 6.0745 -5.63656 -0.874509 0
M  V30 77 O 5.0085 -5.92803 1.04249 0
M  V30 78 H 8.8345 -2.65041 1.4828 0
M  V30 79 H 6.4195 -1.27048 0.786082 0
M  V30 80 H 8.3015 -4.19256 -0.424564 0
M  V30 81 H 6.9765 -3.10375 -0.91918 0
M  V30 82 H 5.8835 -3.48229 1.36702 0
M  V30 83 H 7.2165 -4.58878 1.78023 0
M  V30 84 N 8.8686 -0.792821 -1.36206 0
M  V30 85 C 9.8006 -0.151469 -2.28699 0
M  V30 86 C 10.8136 0.641262 -1.49638 0
M  V30 87 O 12.0026 0.475885 -1.72039 0
M  V30 88 C 9.1026 0.808424 -3.29117 0
M  V30 89 C 8.2756 0.0650202 -4.37352 0
M  V30 90 C 7.3346 0.941358 -5.17711 0
M  V30 91 O 6.3606 0.397352 -5.67811 0
M  V30 92 N 7.5626 2.2652 -5.3448 0
M  V30 93 H 10.3276 -0.945982 -2.84379 0
M  V30 94 H 7.8886 -0.647032 -1.48409 0
M  V30 95 H 9.8806 1.3986 -3.79765 0
M  V30 96 H 8.4506 1.5038 -2.74052 0
M  V30 97 H 7.6706 -0.706255 -3.87822 0
M  V30 98 H 8.9586 -0.447847 -5.06825 0
M  V30 99 H 8.3566 2.73128 -4.95396 0
M  V30 100 H 6.9136 2.80493 -5.88359 0
M  V30 101 N 10.3467 1.47872 -0.545128 0
M  V30 102 C 11.2767 2.32661 0.197793 0
M  V30 103 C 12.2577 1.43041 0.920504 0
M  V30 104 O 13.4427 1.71912 0.90333 0
M  V30 105 C 10.5727 3.24569 1.23582 0
M  V30 106 C 9.5267 4.23333 0.630323 0
M  V30 107 C 8.8527 5.0448 1.77211 0
M  V30 108 C 10.1527 5.20704 -0.407974 0
M  V30 109 H 11.8467 2.95024 -0.510045 0
M  V30 110 H 9.3927 1.4187 -0.246731 0
M  V30 111 H 11.3457 3.8272 1.76362 0
M  V30 112 H 10.0697 2.60236 1.97344 0
M  V30 113 H 8.7287 3.6639 0.123922 0
M  V30 114 H 8.3767 4.36561 2.49847 0
M  V30 115 H 8.0767 5.71339 1.37281 0
M  V30 116 H 9.6007 5.65487 2.3034 0
M  V30 117 H 11.0147 5.7329 0.033305 0
M  V30 118 H 9.4117 5.95699 -0.725486 0
M  V30 119 H 10.4817 4.66917 -1.30828 0
M  V30 120 N 11.8248 0.280983 1.55075 0
M  V30 121 C 13.0708 -0.33461 2.00021 0
M  V30 122 C 13.4038 -1.55063 1.16915 0
M  V30 123 O 12.6788 -1.93006 0.240646 0
M  V30 124 C 12.9618 -0.711007 3.53011 0
M  V30 125 C 12.8148 0.512766 4.46868 0
M  V30 126 C 14.1338 -1.54522 4.12081 0
M  V30 127 H 11.2528 -0.120147 0.727141 0
M  V30 128 H 13.8948 0.389097 1.85973 0
M  V30 129 H 12.0448 -1.32761 3.65112 0
M  V30 130 H 13.7168 1.15131 4.46702 0
M  V30 131 H 11.9598 1.14975 4.18286 0
M  V30 132 H 12.6308 0.205556 5.51617 0
M  V30 133 H 15.1068 -1.02442 4.03293 0
M  V30 134 H 13.9828 -1.77739 5.19327 0
M  V30 135 H 14.2438 -2.52813 3.62682 0
M  V30 136 N 13.3029 -1.57598 0.00835791 0
M  V30 137 C 14.5799 -1.82172 -0.712235 0
M  V30 138 C 14.9599 -0.887873 -1.9152 0
M  V30 139 O 14.3079 0.06146 -2.28417 0
M  V30 140 C 14.5179 -3.30875 -1.11008 0
M  V30 141 C 15.8659 -3.96826 -1.51044 0
M  V30 142 O 16.8899 -3.35248 -1.20364 0
M  V30 143 O 15.7489 -5.05318 -2.08125 0
M  V30 144 H 12.8429 -0.750435 -0.347529 0
M  V30 145 H 15.3889 -1.69665 0.0344523 0
M  V30 146 H 14.1609 -3.90481 -0.252982 0
M  V30 147 H 13.7839 -3.48412 -1.9156 0
M  V30 148 N 14.781 0.264519 -1.55364 0
M  V30 149 C 15.744 1.31046 -1.88042 0
M  V30 150 C 16.744 1.41943 -0.755569 0
M  V30 151 O 17.934 1.40947 -1.02369 0
M  V30 152 C 15.066 2.69067 -2.09323 0
M  V30 153 H 16.259 1.03297 -2.81549 0
M  V30 154 H 13.812 0.502989 -1.47986 0
M  V30 155 H 14.547 3.01982 -1.18226 0
M  V30 156 H 14.332 2.62542 -2.91229 0
M  V30 157 H 15.822 3.44623 -2.35848 0
M  V30 158 N 16.2591 1.48442 0.529413 0
M  V30 159 C 17.1891 1.65902 1.64313 0
M  V30 160 C 18.1701 0.507897 1.6234 0
M  V30 161 O 19.3551 0.740503 1.79528 0
M  V30 162 C 16.4851 1.69911 3.02898 0
M  V30 163 C 15.4391 2.8453 3.19729 0
M  V30 164 C 14.7651 2.73629 4.59381 0
M  V30 165 C 16.0651 4.25821 3.02447 0
M  V30 166 H 17.7591 2.5914 1.49955 0
M  V30 167 H 15.3051 1.24709 0.719982 0
M  V30 168 H 17.2581 1.80715 3.80684 0
M  V30 169 H 15.9821 0.732524 3.18279 0
M  V30 170 H 14.6411 2.73283 2.44361 0
M  V30 171 H 14.2891 1.74938 4.71599 0
M  V30 172 H 13.9891 3.50541 4.71588 0
M  V30 173 H 15.5131 2.86401 5.39265 0
M  V30 174 H 16.9271 4.37898 3.70024 0
M  V30 175 H 15.3241 5.03735 3.26146 0
M  V30 176 H 16.3941 4.42244 1.98867 0
M  V30 177 N 17.7372 -0.778329 1.37039 0
M  V30 178 C 19.1532 -1.07796 1.17695 0
M  V30 179 C 19.3532 -2.01498 0.00860115 0
M  V30 180 O 18.4092 -2.43901 -0.653352 0
M  V30 181 C 19.7222 -1.68178 2.49272 0
M  V30 182 C 21.2702 -1.80467 2.55735 0
M  V30 183 C 21.7452 -2.44263 3.87427 0
M  V30 184 N 23.2362 -2.51721 3.88833 0
M  V30 185 C 23.9712 -3.01919 4.87476 0
M  V30 186 N 23.4672 -3.5234 5.96513 0
M  V30 187 N 25.2602 -3.00733 4.74885 0
M  V30 188 H 17.4112 -0.156032 2.11826 0
M  V30 189 H 19.6742 -0.131844 0.938787 0
M  V30 190 H 19.3802 -1.06796 3.35093 0
M  V30 191 H 19.2542 -2.67554 2.65885 0
M  V30 192 H 21.6412 -2.40984 1.70325 0
M  V30 193 H 21.7222 -0.798656 2.43013 0
M  V30 194 H 21.3662 -1.84388 4.73248 0
M  V30 195 H 21.2962 -3.45458 3.9745 0
M  V30 196 H 23.7872 -2.1603 3.10063 0
M  V30 197 H 24.1002 -3.89027 6.67741 0
M  V30 198 H 22.4452 -3.50462 6.00168 0
M  V30 199 H 25.6362 -2.60638 3.88826 0
M  V30 200 H 25.8092 -3.39545 5.51918 0
M  V30 201 N 19.2153 -1.21501 -1.00376 0
M  V30 202 C 20.1783 -0.976927 -2.07337 0
M  V30 203 C 21.1783 0.0525322 -1.60714 0
M  V30 204 O 22.3683 -0.184869 -1.73216 0
M  V30 205 C 19.5003 -0.473423 -3.37597 0
M  V30 206 H 20.6933 -1.92587 -2.29892 0
M  V30 207 H 18.2463 -1.03217 -1.17371 0
M  V30 208 H 18.9813 0.480379 -3.20722 0
M  V30 209 H 18.7663 -1.216 -3.72768 0
M  V30 210 H 20.2563 -0.32675 -4.1632 0
M  V30 211 N 20.6934 1.19889 -1.02296 0
M  V30 212 C 21.9184 1.9393 -0.735237 0
M  V30 213 C 22.3434 1.74639 0.698782 0
M  V30 214 O 21.7014 1.04481 1.48167 0
M  V30 215 C 21.7494 3.43916 -1.08417 0
M  V30 216 O 20.8534 4.11917 -0.199446 0
M  V30 217 H 20.1944 0.605645 -0.272196 0
M  V30 218 H 22.7244 1.52137 -1.36804 0
M  V30 219 H 22.7344 3.9456 -1.03856 0
M  V30 220 H 21.4094 3.5728 -2.12894 0
M  V30 221 H 19.9864 3.71666 -0.303136 0
M  V30 222 N 22.1715 0.800033 1.35784 0
M  V30 223 C 23.1015 0.220184 2.3246 0
M  V30 224 C 24.0825 -0.65073 1.57161 0
M  V30 225 O 25.2675 -0.582359 1.85263 0
M  V30 226 C 22.3975 -0.637353 3.41402 0
M  V30 227 C 21.3515 0.134531 4.27789 0
M  V30 228 C 20.6775 -0.844285 5.27992 0
M  V30 229 C 21.9775 1.32979 5.05088 0
M  V30 230 H 23.6715 1.02787 2.81203 0
M  V30 231 H 21.2175 0.495717 1.35199 0
M  V30 232 H 23.1705 -1.05302 4.08031 0
M  V30 233 H 21.8945 -1.47785 2.91251 0
M  V30 234 H 20.5535 0.531296 3.6273 0
M  V30 235 H 20.2015 -1.68011 4.74111 0
M  V30 236 H 19.9015 -0.332184 5.8666 0
M  V30 237 H 21.4255 -1.2583 5.97494 0
M  V30 238 H 22.8395 0.98934 5.64699 0
M  V30 239 H 21.2365 1.77593 5.7322 0
M  V30 240 H 22.3065 2.11978 4.36111 0
M  V30 241 N 23.6496 -1.47581 0.552962 0
M  V30 242 C 24.5966 -2.29957 -0.197108 0
M  V30 243 C 25.5666 -1.38799 -0.912359 0
M  V30 244 O 26.7516 -1.67761 -0.908888 0
M  V30 245 C 23.8916 -3.22672 -1.22379 0
M  V30 246 C 23.0046 -4.28919 -0.515038 0
M  V30 247 C 22.1396 -5.0879 -1.52664 0
M  V30 248 C 21.1786 -6.06815 -0.802631 0
M  V30 249 N 20.3156 -6.7966 -1.76086 0
M  V30 250 H 25.1556 -2.93578 0.511486 0
M  V30 251 H 22.6926 -1.4471 0.264067 0
M  V30 252 H 24.6506 -3.74845 -1.83159 0
M  V30 253 H 23.2806 -2.60925 -1.90047 0
M  V30 254 H 22.3326 -3.79835 0.207192 0
M  V30 255 H 23.6446 -4.98773 0.0523425 0
M  V30 256 H 22.7986 -5.65091 -2.20809 0
M  V30 257 H 21.5376 -4.38828 -2.12794 0
M  V30 258 H 20.5426 -5.49695 -0.107238 0
M  V30 259 H 21.7676 -6.78784 -0.207135 0
M  V30 260 H 19.7136 -6.12432 -2.35081 0
M  V30 261 H 19.6306 -7.45669 -1.24552 0
M  V30 262 H 20.8986 -7.40538 -2.43359 0
M  V30 263 N 25.1277 -0.289203 -1.54924 0
M  V30 264 C 26.0377 0.601863 -2.26748 0
M  V30 265 C 27.0537 1.15834 -1.2984 0
M  V30 266 O 28.2297 1.18564 -1.62802 0
M  V30 267 C 25.2947 1.76299 -2.98529 0
M  V30 268 C 24.3557 1.24178 -4.10948 0
M  V30 269 C 23.5887 2.34757 -4.79296 0
M  V30 270 O 23.8117 3.54411 -4.46933 0
M  V30 271 O 22.7457 2.02115 -5.66951 0
M  V30 272 H 26.5717 0.0195879 -3.03694 0
M  V30 273 H 24.1567 -0.0560868 -1.49295 0
M  V30 274 H 26.0387 2.43973 -3.43592 0
M  V30 275 H 24.7137 2.33209 -2.24488 0
M  V30 276 H 23.6207 0.531104 -3.70311 0
M  V30 277 H 24.9537 0.718252 -4.86931 0
M  V30 278 N 26.6058 1.57591 -0.0167156 0
M  V30 279 C 27.5538 2.10604 0.987353 0
M  V30 280 C 28.5478 1.02977 1.34507 0
M  V30 281 O 29.7538 1.21425 1.32875 0
M  V30 282 H 26.1288 0.672695 0.336134 0
M  V30 283 H 28.0998 2.93925 0.514817 0
M  V30 284 C 26.8488 2.6382 2.26483 0
M  V30 285 H 26.1718 3.46278 1.99829 0
M  V30 286 H 27.6118 3.04573 2.94977 0
M  V30 287 C 26.0708 1.55992 2.9861 0
M  V30 288 O 26.6008 0.952521 3.90243 0
M  V30 289 N 24.8068 1.28335 2.60727 0
M  V30 290 H 24.3538 1.77914 1.86291 0
M  V30 291 H 24.3118 0.564115 3.09298 0
M  V30 292 N 28.0839 -0.256276 1.55502 0
M  V30 293 C 28.9939 -1.33882 1.92647 0
M  V30 294 C 30.0099 -1.53159 0.825727 0
M  V30 295 O 31.1859 -1.66963 1.12629 0
M  V30 296 C 28.2509 -2.6751 2.20543 0
M  V30 297 C 27.3119 -2.56836 3.43997 0
M  V30 298 C 26.5449 -3.84092 3.70553 0
M  V30 299 O 26.7679 -4.85545 2.99336 0
M  V30 300 O 25.7019 -3.83288 4.64084 0
M  V30 301 H 29.5279 -1.05374 2.84833 0
M  V30 302 H 27.1129 -0.456237 1.42263 0
M  V30 303 H 28.9949 -3.46492 2.39835 0
M  V30 304 H 27.6699 -2.9577 1.31536 0
M  V30 305 H 26.5769 -1.76172 3.30021 0
M  V30 306 H 27.9099 -2.33523 4.33275 0
M  V30 307 N 29.562 -1.4872 -0.521534 0
M  V30 308 C 30.472 -1.66569 -1.65203 0
M  V30 309 C 31.488 -0.548197 -1.65139 0
M  V30 310 O 32.664 -0.820339 -1.83936 0
M  V30 311 C 29.729 -1.70917 -3.01642 0
M  V30 312 C 28.79 -2.94356 -3.12495 0
M  V30 313 C 28.023 -2.98487 -4.42426 0
M  V30 314 O 28.246 -2.10786 -5.30024 0
M  V30 315 O 27.18 -3.90746 -4.57822 0
M  V30 316 H 31.006 -2.62298 -1.5308 0
M  V30 317 H 28.591 -1.3222 -0.695565 0
M  V30 318 H 30.473 -1.7625 -3.82771 0
M  V30 319 H 29.148 -0.783633 -3.14071 0
M  V30 320 H 28.055 -2.94552 -2.3063 0
M  V30 321 H 29.388 -3.86322 -3.04986 0
M  V30 322 N 31.0401 0.771051 -1.3745 0
M  V30 323 C 31.9701 1.89827 -1.3597 0
M  V30 324 C 32.9511 1.68562 -0.228216 0
M  V30 325 O 34.1361 1.8941 -0.428675 0
M  V30 326 C 31.2661 3.2712 -1.16662 0
M  V30 327 C 30.2201 3.6295 -2.2683 0
M  V30 328 C 29.5461 4.98791 -1.92644 0
M  V30 329 C 30.8461 3.69627 -3.69017 0
M  V30 330 H 32.5401 1.91323 -2.30295 0
M  V30 331 H 30.0861 0.919082 -1.10855 0
M  V30 332 H 32.0391 4.05615 -1.14256 0
M  V30 333 H 30.7631 3.26059 -0.187926 0
M  V30 334 H 29.4221 2.86763 -2.28392 0
M  V30 335 H 29.0701 4.94271 -0.933021 0
M  V30 336 H 28.7701 5.23733 -2.66416 0
M  V30 337 H 30.2941 5.79685 -1.91826 0
M  V30 338 H 31.7081 4.38273 -3.69581 0
M  V30 339 H 30.1051 4.06067 -4.41848 0
M  V30 340 H 31.1751 2.70273 -4.02592 0
M  V30 341 N 32.5182 1.22032 0.997298 0
M  V30 342 C 33.9342 0.979326 1.26021 0
M  V30 343 C 34.1342 -0.32972 1.98784 0
M  V30 344 O 33.1902 -1.05345 2.29475 0
M  V30 345 C 34.5032 2.17509 2.07631 0
M  V30 346 C 36.0512 2.21817 2.2083 0
M  V30 347 C 36.5262 3.40933 3.05825 0
M  V30 348 N 38.0172 3.41067 3.13412 0
M  V30 349 C 38.7522 4.29885 3.79455 0
M  V30 350 N 38.2482 5.28914 4.47462 0
M  V30 351 N 40.0412 4.17673 3.76173 0
M  V30 352 H 32.1922 2.06202 0.509352 0
M  V30 353 H 34.4552 0.90334 0.287541 0
M  V30 354 H 34.1612 3.12415 1.61524 0
M  V30 355 H 34.0352 2.17206 3.08385 0
M  V30 356 H 36.4222 1.27462 2.66153 0
M  V30 357 H 36.5032 2.2616 1.1952 0
M  V30 358 H 36.1472 4.35586 2.61203 0
M  V30 359 H 36.0772 3.33829 4.07266 0
M  V30 360 H 38.5682 2.69406 2.65007 0
M  V30 361 H 38.8812 5.92973 4.95583 0
M  V30 362 H 37.2262 5.32831 4.46224 0
M  V30 363 H 40.4172 3.39564 3.22202 0
M  V30 364 H 40.5902 4.87098 4.27363 0
M  V30 365 N 33.9963 -1.19345 1.0293 0
M  V30 366 C 34.9433 -2.2258 0.610464 0
M  V30 367 C 35.9133 -1.6179 -0.375946 0
M  V30 368 O 37.0983 -1.88844 -0.272511 0
M  V30 369 C 34.2383 -3.45085 -0.0321473 0
M  V30 370 C 33.3513 -4.20258 1.00035 0
M  V30 371 C 32.4863 -5.3019 0.32746 0
M  V30 372 C 31.5253 -5.97121 1.34584 0
M  V30 373 N 30.6623 -6.98615 0.698726 0
M  V30 374 H 35.5023 -2.57764 1.49538 0
M  V30 375 H 33.0393 -1.26644 0.748311 0
M  V30 376 H 34.9973 -4.15061 -0.421966 0
M  V30 377 H 33.6273 -3.10555 -0.88064 0
M  V30 378 H 32.6793 -3.49223 1.50823 0
M  V30 379 H 33.9913 -4.66175 1.77433 0
M  V30 380 H 33.1453 -6.06587 -0.11718 0
M  V30 381 H 31.8843 -4.85345 -0.478713 0
M  V30 382 H 30.8893 -5.19474 1.80074 0
M  V30 383 H 32.1143 -6.4405 2.15352 0
M  V30 384 H 30.0603 -6.55942 -0.0873471 0
M  V30 385 H 29.9773 -7.42724 1.41058 0
M  V30 386 H 31.2453 -7.79004 0.278102 0
M  V30 387 N 35.4744 -0.807222 -1.35358 0
M  V30 388 C 36.3844 -0.219594 -2.3357 0
M  V30 389 C 37.4004 0.637734 -1.61892 0
M  V30 390 O 38.5764 0.549336 -1.93763 0
M  V30 391 C 35.6414 0.62158 -3.41083 0
M  V30 392 C 34.7024 -0.256315 -4.28534 0
M  V30 393 C 33.9354 0.544807 -5.30912 0
M  V30 394 O 34.1584 1.77944 -5.41934 0
M  V30 395 O 33.0924 -0.0646478 -6.01865 0
M  V30 396 H 36.9184 -1.03208 -2.85625 0
M  V30 397 H 34.5034 -0.569025 -1.38139 0
M  V30 398 H 36.3854 1.10067 -4.06772 0
M  V30 399 H 35.0604 1.41165 -2.91297 0
M  V30 400 H 33.9674 -0.782559 -3.65823 0
M  V30 401 H 35.3004 -1.01034 -4.81719 0
M  V30 402 N 36.9525 1.47285 -0.560781 0
M  V30 403 C 38.1775 2.07359 -0.0410566 0
M  V30 404 C 38.6025 1.41017 1.24483 0
M  V30 405 O 37.9605 0.486368 1.74654 0
M  V30 406 C 38.0085 3.6035 0.134123 0
M  V30 407 O 37.1125 3.94681 1.19587 0
M  V30 408 H 36.4535 0.661887 -0.0529291 0
M  V30 409 H 38.9835 1.89252 -0.777482 0
M  V30 410 H 38.9935 4.0652 0.347207 0
M  V30 411 H 37.6685 4.08034 -0.805047 0
M  V30 412 H 36.2455 3.60251 0.962987 0
M  V30 413 N 38.4306 0.297415 1.54768 0
M  V30 414 C 39.8466 -0.0560823 1.59501 0
M  V30 415 C 40.0466 -1.52725 1.31444 0
M  V30 416 O 39.1026 -2.27947 1.08611 0
M  V30 417 C 40.4156 0.338631 2.98787 0
M  V30 418 C 41.9636 0.287097 3.11681 0
M  V30 419 C 42.4386 0.656579 4.53269 0
M  V30 420 N 43.9296 0.608977 4.59179 0
M  V30 421 C 44.6646 0.867385 5.66802 0
M  V30 422 N 44.1606 1.19157 6.82476 0
M  V30 423 N 45.9536 0.794687 5.56454 0
M  V30 424 H 38.1046 1.25624 1.71267 0
M  V30 425 H 40.3676 0.509057 0.799728 0
M  V30 426 H 40.0736 1.36263 3.2423 0
M  V30 427 H 39.9476 -0.309508 3.75928 0
M  V30 428 H 42.3346 -0.727649 2.85988 0
M  V30 429 H 42.4156 0.969809 2.36703 0
M  V30 430 H 42.0596 1.66912 4.7969 0
M  V30 431 H 41.9896 -0.0481649 5.26578 0
M  V30 432 H 44.4806 0.369198 3.76092 0
M  V30 433 H 44.7936 1.37482 7.60473 0
M  V30 434 H 43.1386 1.22958 6.84037 0
M  V30 435 H 46.3296 0.541098 4.64962 0
M  V30 436 H 46.5026 0.999445 6.40246 0
M  V30 437 N 39.9087 -1.5758 0.0250728 0
M  V30 438 C 41.3247 -1.56124 -0.331282 0
M  V30 439 C 41.5247 -1.03029 -1.73169 0
M  V30 440 O 40.5807 -0.675215 -2.43305 0
M  V30 441 C 41.8937 -3.00139 -0.183584 0
M  V30 442 C 43.4417 -3.11946 -0.256654 0
M  V30 443 C 43.9167 -4.57793 -0.137792 0
M  V30 444 N 45.4077 -4.6279 -0.194904 0
M  V30 445 C 46.1427 -5.7326 -0.126655 0
M  V30 446 N 45.6387 -6.928 -0.00755288 0
M  V30 447 N 47.4317 -5.61811 -0.180348 0
M  V30 448 H 39.5827 -1.90424 0.94087 0
M  V30 449 H 41.8457 -0.875761 0.362968 0
M  V30 450 H 41.5517 -3.4292 0.780927 0
M  V30 451 H 41.4257 -3.64899 -0.955448 0
M  V30 452 H 43.8127 -2.69079 -1.21162 0
M  V30 453 H 43.8937 -2.49915 0.545517 0
M  V30 454 H 43.5377 -5.01339 0.813739 0
M  V30 455 H 43.4677 -5.17798 -0.958775 0
M  V30 456 H 45.9587 -3.76807 -0.287267 0
M  V30 457 H 46.2717 -7.72791 0.0379428 0
M  V30 458 H 44.6167 -6.94995 0.0271731 0
M  V30 459 H 47.8077 -4.6731 -0.271767 0
M  V30 460 H 47.9807 -6.47882 -0.123697 0
M  V30 461 N 41.3868 0.248026 -1.55636 0
M  V30 462 C 42.8028 0.596483 -1.48035 0
M  V30 463 C 43.0028 1.88386 -0.715039 0
M  V30 464 O 42.0588 2.51319 -0.243944 0
M  V30 465 C 43.3718 0.700258 -2.92433 0
M  V30 466 C 44.9198 0.792659 -3.02797 0
M  V30 467 C 45.3948 0.928005 -4.485 0
M  V30 468 N 46.8858 0.992903 -4.52433 0
M  V30 469 C 47.6208 1.11687 -5.62418 0
M  V30 470 N 47.1168 1.20645 -6.82214 0
M  V30 471 N 48.9098 1.14994 -5.50212 0
M  V30 472 H 41.0608 -0.597109 -2.03834 0
M  V30 473 H 43.3238 -0.205925 -0.925364 0
M  V30 474 H 43.0298 -0.175658 -3.51261 0
M  V30 475 H 42.9038 1.57255 -3.42857 0
M  V30 476 H 45.2908 1.65903 -2.4405 0
M  V30 477 H 45.3718 -0.104762 -2.55585 0
M  V30 478 H 45.0158 0.0661971 -5.07857 0
M  V30 479 H 44.9458 1.84045 -4.93391 0
M  V30 480 H 47.4368 0.935064 -3.66149 0
M  V30 481 H 47.7498 1.30008 -7.61786 0
M  V30 482 H 46.0948 1.17605 -6.84977 0
M  V30 483 H 49.2858 1.07643 -4.55555 0
M  V30 484 H 49.4588 1.24311 -6.35965 0
M  V30 485 N 42.8649 1.48995 0.513639 0
M  V30 486 C 43.8279 1.64229 1.59879 0
M  V30 487 C 44.8279 0.514696 1.5234 0
M  V30 488 O 46.0179 0.78087 1.55718 0
M  V30 489 C 43.1499 1.62783 2.99524 0
M  V30 490 H 44.3429 2.61004 1.47705 0
M  V30 491 H 41.8959 1.37837 0.736936 0
M  V30 492 H 42.6309 0.675461 3.17188 0
M  V30 493 H 42.4159 2.4466 3.06404 0
M  V30 494 H 43.9059 1.76669 3.78388 0
M  V30 495 N 44.343 -0.763751 1.37857 0
M  V30 496 C 45.62 -1.51244 1.24035 0
M  V30 497 C 46 -2.10472 -0.162649 0
M  V30 498 O 45.348 -1.96206 -1.17112 0
M  V30 499 C 45.558 -2.58694 2.34261 0
M  V30 500 C 46.906 -3.25878 2.72193 0
M  V30 501 O 47.93 -2.68993 2.33497 0
M  V30 502 O 46.789 -4.2874 3.38887 0
M  V30 503 H 43.883 -0.670243 0.484462 0
M  V30 504 H 46.429 -0.800031 1.49658 0
M  V30 505 H 45.201 -2.13105 3.2818 0
M  V30 506 H 44.824 -3.37527 2.10146 0
M  V30 507 N 45.8211 -1.22559 -0.990812 0
M  V30 508 C 47.2371 -0.985996 -1.255 0
M  V30 509 C 47.4371 0.319173 -1.98956 0
M  V30 510 O 46.4931 1.04127 -2.3003 0
M  V30 511 C 47.8061 -2.18607 -2.06474 0
M  V30 512 C 49.3541 -2.22985 -2.19651 0
M  V30 513 C 49.8291 -3.4255 -3.04012 0
M  V30 514 N 51.3201 -3.42725 -3.11599 0
M  V30 515 C 52.0551 -4.31892 -3.7717 0
M  V30 516 N 51.5511 -5.31279 -4.44651 0
M  V30 517 N 53.3441 -4.19662 -3.73952 0
M  V30 518 H 45.4951 -2.06469 -0.49841 0
M  V30 519 H 47.7581 -0.904853 -0.282747 0
M  V30 520 H 47.4641 -3.13267 -1.59865 0
M  V30 521 H 47.3381 -2.18838 -3.07229 0
M  V30 522 H 49.7251 -1.28871 -2.65474 0
M  V30 523 H 49.8061 -2.26791 -1.18319 0
M  V30 524 H 49.4501 -4.36965 -2.58889 0
M  V30 525 H 49.3801 -3.35984 -4.0549 0
M  V30 526 H 51.8711 -2.70807 -2.63575 0
M  V30 527 H 52.1841 -5.95593 -4.92431 0
M  V30 528 H 50.5291 -5.3519 -4.43392 0
M  V30 529 H 53.7201 -3.41268 -3.20396 0
M  V30 530 H 53.8931 -4.89358 -4.24774 0
M  V30 531 N 47.2992 1.18797 -1.03562 0
M  V30 532 C 48.7152 1.40671 -0.753917 0
M  V30 533 C 48.9152 1.9043 0.658686 0
M  V30 534 O 47.9712 2.08538 1.42366 0
M  V30 535 C 49.2842 2.41192 -1.79574 0
M  V30 536 C 50.8322 2.54928 -1.81606 0
M  V30 537 C 51.3072 3.58709 -2.84766 0
M  V30 538 N 52.7982 3.66212 -2.83625 0
M  V30 539 C 53.5332 4.46225 -3.60098 0
M  V30 540 N 53.0292 5.29888 -4.46308 0
M  V30 541 N 54.8222 4.40939 -3.4861 0
M  V30 542 H 46.9732 0.848221 -1.94728 0
M  V30 543 H 49.2362 0.435081 -0.842264 0
M  V30 544 H 48.9422 2.11669 -2.80872 0
M  V30 545 H 48.8162 3.40467 -1.62365 0
M  V30 546 H 51.2032 2.83771 -0.809817 0
M  V30 547 H 51.2842 1.55784 -2.02891 0
M  V30 548 H 50.9282 3.30607 -3.85566 0
M  V30 549 H 50.8582 4.57519 -2.60737 0
M  V30 550 H 53.3492 3.06466 -2.21105 0
M  V30 551 H 53.6622 5.88078 -5.01382 0
M  V30 552 H 52.0072 5.29326 -4.50377 0
M  V30 553 H 55.1982 3.74624 -2.80668 0
M  V30 554 H 55.3712 5.03056 -4.08459 0
M  V30 555 N 48.7773 0.814389 1.34928 0
M  V30 556 C 49.7093 0.187834 2.28429 0
M  V30 557 C 50.7223 -0.617374 1.5064 0
M  V30 558 O 51.9113 -0.448454 1.72775 0
M  V30 559 C 49.0113 -0.755962 3.30361 0
M  V30 560 C 48.1843 0.00456686 4.374 0
M  V30 561 C 47.2433 -0.858876 5.19143 0
M  V30 562 O 46.2693 -0.306968 5.68372 0
M  V30 563 N 47.4713 -2.17988 5.38016 0
M  V30 564 H 50.2363 0.991105 2.82838 0
M  V30 565 H 47.7973 0.670561 1.4736 0
M  V30 566 H 49.7893 -1.338 3.81942 0
M  V30 567 H 48.3593 -1.46001 2.7641 0
M  V30 568 H 47.5793 0.767865 3.86649 0
M  V30 569 H 48.8673 0.528422 5.06049 0
M  V30 570 H 48.2653 -2.65212 4.99679 0
M  V30 571 H 46.8223 -2.71098 5.92747 0
M  V30 572 N 50.2554 -1.46986 0.568584 0
M  V30 573 C 51.1654 -2.33942 -0.17555 0
M  V30 574 C 52.1814 -1.48891 -0.90041 0
M  V30 575 O 53.3574 -1.81794 -0.86676 0
M  V30 576 C 50.4224 -3.25811 -1.18524 0
M  V30 577 C 49.4834 -4.26757 -0.466582 0
M  V30 578 C 48.7164 -5.14236 -1.42817 0
M  V30 579 O 48.9394 -5.04379 -2.66379 0
M  V30 580 O 47.8734 -5.94412 -0.946453 0
M  V30 581 H 51.6994 -2.98896 0.538036 0
M  V30 582 H 49.2844 -1.4573 0.329097 0
M  V30 583 H 51.1664 -3.82527 -1.76779 0
M  V30 584 H 49.8414 -2.63471 -1.88055 0
M  V30 585 H 48.7484 -3.73769 0.157451 0
M  V30 586 H 50.0814 -4.91843 0.187485 0
M  V30 587 N 51.7335 -0.305618 -1.54608 0
M  V30 588 C 53.1445 0.186098 -1.8577 0
M  V30 589 C 53.4955 1.53058 -1.22751 0
M  V30 590 O 52.6205 2.09888 -0.526893 0
M  V30 591 C 53.2155 0.344449 -3.37044 0
M  V30 592 C 51.7745 0.780384 -3.68221 0
M  V30 593 C 50.9215 -0.108554 -2.77087 0
M  V30 594 H 53.8725 -0.526485 -1.49712 0
M  V30 595 H 53.8935 1.17828 -3.61796 0
M  V30 596 H 53.4055 -0.634235 -3.82883 0
M  V30 597 H 51.5065 1.76945 -3.27904 0
M  V30 598 H 51.6195 0.596572 -4.75371 0
M  V30 599 H 49.9835 0.412931 -2.5133 0
M  V30 600 H 50.7665 -1.08368 -3.25747 0
M  V30 601 N 53.2116 1.57565 -0.0334293 0
M  V30 602 C 54.1446 2.05997 0.981866 0
M  V30 603 C 55.1226 0.956647 1.3148 0
M  V30 604 O 56.3066 1.22729 1.43073 0
M  V30 605 C 53.4336 2.48564 2.30074 0
M  V30 606 C 52.4796 3.69958 2.12211 0
M  V30 607 S 53.3126 5.16414 1.41692 0
M  V30 608 C 54.4686 5.6228 2.7494 0
M  V30 609 H 54.7016 2.91792 0.569612 0
M  V30 610 H 52.2346 1.53366 0.178376 0
M  V30 611 H 54.1926 2.73753 3.05892 0
M  V30 612 H 52.8536 1.63106 2.68431 0
M  V30 613 H 52.0466 3.97603 3.09722 0
M  V30 614 H 51.6486 3.44943 1.44535 0
M  V30 615 H 53.9406 5.66783 3.71165 0
M  V30 616 H 54.8836 6.61759 2.51953 0
M  V30 617 H 55.2916 4.89944 2.80384 0
M  V30 618 N 54.6897 -0.239769 1.55765 0
M  V30 619 C 55.6527 -1.28038 1.90103 0
M  V30 620 C 56.6527 -1.40723 0.778055 0
M  V30 621 O 57.8427 -1.39301 1.04599 0
M  V30 622 C 54.9747 -2.65702 2.13577 0
M  V30 623 H 56.1677 -0.988048 2.83157 0
M  V30 624 H 53.7207 -0.479382 1.48767 0
M  V30 625 H 54.4557 -3.00063 1.23015 0
M  V30 626 H 54.2407 -2.57875 2.95369 0
M  V30 627 H 55.7307 -3.40828 2.41301 0
M  V30 628 N 56.1678 -1.49265 -0.50573 0
M  V30 629 C 57.4168 -1.57761 -1.25675 0
M  V30 630 C 57.7298 -0.267371 -1.93764 0
M  V30 631 O 58.9358 -0.230827 -2.70517 0
M  V30 632 C 57.3918 -2.78332 -2.28165 0
M  V30 633 C 56.9998 -4.16096 -1.66037 0
M  V30 634 C 58.7438 -2.96155 -3.04125 0
M  V30 635 C 56.6508 -5.27895 -2.6661 0
M  V30 636 H 55.5808 -0.587391 -0.472745 0
M  V30 637 H 58.2318 -1.75644 -0.53118 0
M  V30 638 H 56.6138 -2.53934 -3.03865 0
M  V30 639 H 57.7878 -4.50612 -0.963622 0
M  V30 640 H 56.1028 -4.03591 -1.02484 0
M  V30 641 H 58.6998 -3.76849 -3.79327 0
M  V30 642 H 59.0428 -2.06534 -3.61455 0
M  V30 643 H 59.5758 -3.2057 -2.35541 0
M  V30 644 H 56.3148 -6.1956 -2.14068 0
M  V30 645 H 55.8348 -4.97839 -3.34539 0
M  V30 646 H 57.5138 -5.57031 -3.29129 0
M  V30 647 N 57.6459 0.756429 -1.3826 0
M  V30 648 C 58.8919 1.51772 -1.34511 0
M  V30 649 C 59.2249 1.94089 0.0656691 0
M  V30 650 O 58.4999 1.65221 1.02626 0
M  V30 651 C 58.7829 2.77226 -2.29821 0
M  V30 652 C 58.6359 2.41065 -3.79747 0
M  V30 653 C 59.9549 3.79236 -2.23312 0
M  V30 654 H 57.0739 0.550578 -0.489931 0
M  V30 655 H 59.7159 0.866607 -1.69086 0
M  V30 656 H 57.8659 3.32784 -2.00467 0
M  V30 657 H 59.5379 1.91303 -4.19763 0
M  V30 658 H 57.7809 1.7356 -3.97567 0
M  V30 659 H 58.4519 3.3081 -4.41892 0
M  V30 660 H 60.9279 3.3321 -2.49219 0
M  V30 661 H 59.8039 4.64714 -2.92116 0
M  V30 662 H 60.0649 4.24615 -1.23102 0
M  V30 663 N 59.124 1.23083 0.984299 0
M  V30 664 C 60.372 1.05848 1.72165 0
M  V30 665 C 60.693 -0.406049 1.90726 0
M  V30 666 O 59.963 -1.29139 1.47309 0
M  V30 667 H 58.543 0.388685 0.637913 0
M  V30 668 H 61.205 1.54736 1.18503 0
M  V30 669 H 60.301 1.54327 2.71274 0
M  V30 670 N 60.6021 -1.18246 1.0419 0
M  V30 671 C 61.5351 -2.20746 0.578474 0
M  V30 672 C 62.5131 -1.57912 -0.387624 0
M  V30 673 O 63.6971 -1.86071 -0.301634 0
M  V30 674 C 60.8241 -3.38346 -0.154762 0
M  V30 675 C 59.8701 -4.19587 0.764782 0
M  V30 676 S 60.7031 -4.86014 2.24835 0
M  V30 677 C 61.8591 -6.07012 1.526 0
M  V30 678 H 62.0921 -2.59715 1.44691 0
M  V30 679 H 59.6251 -1.287 0.85297 0
M  V30 680 H 61.5831 -4.065 -0.571641 0
M  V30 681 H 60.2441 -2.97786 -0.999105 0
M  V30 682 H 59.4371 -5.03611 0.197976 0
M  V30 683 H 59.0391 -3.56818 1.12057 0
M  V30 684 H 61.3311 -6.72523 0.819733 0
M  V30 685 H 62.2741 -6.68202 2.34333 0
M  V30 686 H 62.6821 -5.55249 1.01779 0
M  V30 687 N 62.0802 -0.821533 -1.34494 0
M  V30 688 C 63.3052 -0.420873 -2.03085 0
M  V30 689 C 63.7302 0.964915 -1.61465 0
M  V30 690 O 63.0882 1.62763 -0.798607 0
M  V30 691 C 63.1362 -0.529414 -3.56693 0
M  V30 692 O 62.2402 0.451302 -4.09923 0
M  V30 693 H 61.5812 -0.173489 -0.640935 0
M  V30 694 H 64.1112 -1.11157 -1.71771 0
M  V30 695 H 64.1212 -0.404671 -4.05988 0
M  V30 696 H 62.7962 -1.54014 -3.86332 0
M  V30 697 H 61.3732 0.285558 -3.71805 0
M  V30 698 N 63.5583 1.46682 -0.576371 0
M  V30 699 C 64.7983 2.04306 -0.0621356 0
M  V30 700 C 65.1623 1.4389 1.2712 0
M  V30 701 O 66.3633 1.92675 1.87429 0
M  V30 702 C 64.6343 3.57399 0.00927922 0
M  V30 703 S 66.1933 4.36309 0.466859 0
M  V30 704 H 63.0113 0.710167 -0.0344016 0
M  V30 705 H 65.6133 1.79807 -0.767437 0
M  V30 706 H 64.3173 3.98889 -0.965178 0
M  V30 707 H 63.8483 3.86424 0.737547 0
M  V30 708 H 65.8633 4.6533 1.72287 0
M  V30 709 N 65.0364 0.313813 1.54444 0
M  V30 710 C 66.4524 -0.0391619 1.59552 0
M  V30 711 C 66.6524 -1.51322 1.33056 0
M  V30 712 O 65.7084 -2.26782 1.11022 0
M  V30 713 C 67.0214 0.370302 2.98411 0
M  V30 714 C 68.5694 0.320139 3.11358 0
M  V30 715 C 69.0444 0.704617 4.52547 0
M  V30 716 N 70.5354 0.657645 4.58508 0
M  V30 717 C 71.2704 0.927453 5.6585 0
M  V30 718 N 70.7664 1.26389 6.81174 0
M  V30 719 N 72.5594 0.853662 5.5558 0
M  V30 720 H 64.7104 1.27433 1.69925 0
M  V30 721 H 66.9734 0.517511 0.794284 0
M  V30 722 H 66.6794 1.39694 3.22767 0
M  V30 723 H 66.5534 -0.269619 3.76235 0
M  V30 724 H 68.9404 -0.697275 2.86744 0
M  V30 725 H 69.0214 0.99486 2.35661 0
M  V30 726 H 68.6654 1.7199 4.77893 0
M  V30 727 H 68.5954 0.00768843 5.26599 0
M  V30 728 H 71.0864 0.409067 3.75679 0
M  V30 729 H 71.3994 1.4554 7.58972 0
M  V30 730 H 69.7444 1.30206 6.82694 0
M  V30 731 H 72.9354 0.590383 4.64362 0
M  V30 732 H 73.1084 1.0673 6.3915 0
M  V30 733 N 66.5145 -1.57545 0.0417849 0
M  V30 734 C 67.7615 -1.92317 -0.634082 0
M  V30 735 C 68.0895 -0.919334 -1.71402 0
M  V30 736 O 67.3445 0.0698253 -1.95575 0
M  V30 737 C 67.6435 -3.33794 -1.27735 0
M  V30 738 C 67.3095 -4.49716 -0.326543 0
M  V30 739 C 65.9715 -4.81156 -0.0648814 0
M  V30 740 C 68.3235 -5.20182 0.325623 0
M  V30 741 C 65.6515 -5.80414 0.856539 0
M  V30 742 C 68.0035 -6.20424 1.23518 0
M  V30 743 C 66.6675 -6.50298 1.5056 0
M  V30 744 H 65.9375 -0.703736 -0.232027 0
M  V30 745 H 68.5845 -1.91205 0.106259 0
M  V30 746 H 66.8895 -3.31228 -2.09274 0
M  V30 747 H 68.5865 -3.57975 -1.80707 0
M  V30 748 H 65.1765 -4.25176 -0.540665 0
M  V30 749 H 69.3605 -4.96112 0.136546 0
M  V30 750 H 64.6165 -6.019 1.07363 0
M  V30 751 H 68.7905 -6.74141 1.74664 0
M  V30 752 H 66.4175 -7.27025 2.22123 0
M  V30 753 N 67.9926 0.231505 -1.5589 0
M  V30 754 C 68.9556 1.27028 -1.90779 0
M  V30 755 C 69.9556 1.40308 -0.785507 0
M  V30 756 O 71.1456 1.38744 -1.05336 0
M  V30 757 C 68.2776 2.64566 -2.14983 0
M  V30 758 H 69.4706 0.973017 -2.83677 0
M  V30 759 H 67.0236 0.471486 -1.49019 0
M  V30 760 H 67.7586 2.99406 -1.24604 0
M  V30 761 H 67.5436 2.56305 -2.96732 0
M  V30 762 H 69.0336 3.39543 -2.43105 0
M  V30 763 N 69.4707 1.49531 0.497807 0
M  V30 764 C 70.7187 1.58865 1.24926 0
M  V30 765 C 71.0397 0.278721 1.92998 0
M  V30 766 O 70.3097 -0.702144 1.82885 0
M  V30 767 H 68.8897 0.585343 0.464094 0
M  V30 768 H 71.5517 1.86174 0.57666 0
M  V30 769 H 70.6477 2.38633 2.01149 0
M  V30 770 N 70.9488 -0.749086 1.3866 0
M  V30 771 C 72.1968 -1.50535 1.34847 0
M  V30 772 C 72.5178 -1.94909 -0.0595016 0
M  V30 773 O 71.7878 -1.67973 -1.00806 0
M  V30 774 H 70.3678 -0.558395 0.49619 0
M  V30 775 H 73.0298 -0.890165 1.73384 0
M  V30 776 H 72.1258 -2.39413 2.00219 0
M  V30 777 N 72.4269 -1.23603 -0.977757 0
M  V30 778 C 73.6759 -1.06377 -1.71368 0
M  V30 779 C 73.9889 0.399062 -1.91486 0
M  V30 780 O 75.1949 0.691312 -2.62551 0
M  V30 781 C 73.6509 -1.85512 -3.08404 0
M  V30 782 C 73.2589 -3.36141 -2.96164 0
M  V30 783 C 75.0029 -1.76783 -3.85938 0
M  V30 784 C 72.9099 -4.07659 -4.28449 0
M  V30 785 H 71.8399 -0.394452 -0.642591 0
M  V30 786 H 74.4909 -1.47594 -1.09034 0
M  V30 787 H 72.8729 -1.37103 -3.71509 0
M  V30 788 H 74.0469 -3.92056 -2.42133 0
M  V30 789 H 72.3619 -3.45712 -2.32104 0
M  V30 790 H 74.9589 -2.27526 -4.83876 0
M  V30 791 H 75.3019 -0.731116 -4.0983 0
M  V30 792 H 75.8349 -2.22818 -3.2954 0
M  V30 793 H 72.5739 -5.11648 -4.09752 0
M  V30 794 H 72.0939 -3.5653 -4.82334 0
M  V30 795 H 73.7729 -4.141 -4.97122 0
M  V30 796 N 73.905 1.17692 -1.04816 0
M  V30 797 C 75.321 1.39863 -0.768794 0
M  V30 798 C 75.521 1.91118 0.638451 0
M  V30 799 O 74.577 2.10036 1.40146 0
M  V30 800 C 75.89 2.39274 -1.82122 0
M  V30 801 C 77.438 2.52987 -1.843 0
M  V30 802 C 77.913 3.55669 -2.88555 0
M  V30 803 N 79.404 3.63183 -2.87493 0
M  V30 804 C 80.139 4.42381 -3.64811 0
M  V30 805 N 79.635 5.25125 -4.51903 0
M  V30 806 N 81.428 4.37217 -3.53267 0
M  V30 807 H 73.579 0.82752 -1.95617 0
M  V30 808 H 75.842 0.426123 -0.846831 0
M  V30 809 H 75.548 2.08678 -2.83102 0
M  V30 810 H 75.422 3.38725 -1.65967 0
M  V30 811 H 77.809 2.82896 -0.839869 0
M  V30 812 H 77.89 1.53623 -2.04532 0
M  V30 813 H 77.534 3.26499 -3.89051 0
M  V30 814 H 77.464 4.54728 -2.65575 0
M  V30 815 H 79.955 3.04103 -2.24343 0
M  V30 816 H 80.268 5.82728 -5.07591 0
M  V30 817 H 78.613 5.24519 -4.55966 0
M  V30 818 H 81.804 3.71626 -2.84625 0
M  V30 819 H 81.977 4.98696 -4.13771 0
M  V30 820 N 75.3831 0.828654 1.34056 0
M  V30 821 C 76.6081 0.431637 2.02859 0
M  V30 822 C 77.0331 -0.956339 1.61975 0
M  V30 823 O 76.3911 -1.62338 0.807228 0
M  V30 824 C 76.4391 0.548323 3.56407 0
M  V30 825 O 75.5431 -0.429556 4.10157 0
M  V30 826 H 74.8841 0.176886 0.640006 0
M  V30 827 H 77.4141 1.12066 1.71179 0
M  V30 828 H 77.4241 0.426196 4.05768 0
M  V30 829 H 76.0991 1.5606 3.8551 0
M  V30 830 H 74.6761 -0.265836 3.71951 0
M  V30 831 N 76.8612 -1.46375 0.584142 0
M  V30 832 C 78.2722 -1.86031 0.157959 0
M  V30 833 C 78.6232 -1.48753 -1.27933 0
M  V30 834 O 77.7482 -0.903098 -1.96655 0
M  V30 835 C 78.3432 -3.37642 0.279892 0
M  V30 836 C 76.9022 -3.76289 -0.09143 0
M  V30 837 C 76.0492 -2.7039 0.615178 0
M  V30 838 H 79.0002 -1.37509 0.792274 0
M  V30 839 H 79.0212 -3.77275 -0.494364 0
M  V30 840 H 78.5332 -3.64742 1.32607 0
M  V30 841 H 76.6342 -3.54806 -1.13769 0
M  V30 842 H 76.7472 -4.78246 0.285886 0
M  V30 843 H 75.1112 -2.5464 0.0552833 0
M  V30 844 H 75.8942 -3.0033 1.66303 0
M  V30 845 N 78.3393 -0.321999 -1.54275 0
M  V30 846 C 79.2493 0.553631 -2.27974 0
M  V30 847 C 80.2653 1.13054 -1.32268 0
M  V30 848 O 81.4413 1.15084 -1.6528 0
M  V30 849 C 78.5063 1.69927 -3.02201 0
M  V30 850 C 77.5673 1.15433 -4.1349 0
M  V30 851 C 76.8003 2.24537 -4.84168 0
M  V30 852 O 77.0233 3.44852 -4.5435 0
M  V30 853 O 75.9573 1.90044 -5.7111 0
M  V30 854 H 79.7833 -0.0448345 -3.03667 0
M  V30 855 H 77.3683 -0.0877418 -1.49142 0
M  V30 856 H 79.2503 2.3663 -3.48689 0
M  V30 857 H 77.9253 2.28395 -2.29385 0
M  V30 858 H 76.8323 0.452436 -3.71354 0
M  V30 859 H 78.1653 0.614805 -4.88345 0
M  V30 860 N 79.8174 1.5752 -0.0501392 0
M  V30 861 C 81.0944 1.83996 0.663685 0
M  V30 862 C 81.4744 0.938339 1.89099 0
M  V30 863 O 80.8224 -0.00087759 2.285 0
M  V30 864 C 81.0324 3.33702 1.02196 0
M  V30 865 C 82.3804 4.00691 1.40469 0
M  V30 866 O 83.4044 3.38321 1.11433 0
M  V30 867 O 82.2634 5.10658 1.94654 0
M  V30 868 H 79.3574 0.759385 0.32751 0
M  V30 869 H 81.9034 1.69514 -0.0794238 0
M  V30 870 H 80.6754 3.91015 0.149364 0
M  V30 871 H 80.2984 3.53368 1.82255 0
M  V30 872 N 81.2955 -0.223234 1.56011 0
M  V30 873 C 82.2255 -1.27988 1.95298 0
M  V30 874 C 83.2065 -1.48976 0.820979 0
M  V30 875 O 84.3915 -1.61188 1.08315 0
M  V30 876 C 81.5215 -2.63 2.26822 0
M  V30 877 C 80.4755 -2.56671 3.42497 0
M  V30 878 C 79.8015 -3.95697 3.59622 0
M  V30 879 C 81.1015 -2.11601 4.77517 0
M  V30 880 H 82.7955 -0.953525 2.8381 0
M  V30 881 H 80.3415 -0.457244 1.36548 0
M  V30 882 H 82.2945 -3.37077 2.52898 0
M  V30 883 H 81.0185 -2.9732 1.35161 0
M  V30 884 H 79.6775 -1.85051 3.16467 0
M  V30 885 H 79.3255 -4.27322 2.6534 0
M  V30 886 H 79.0255 -3.92345 4.37424 0
M  V30 887 H 80.5495 -4.71438 3.88044 0
M  V30 888 H 81.9635 -2.7542 5.02809 0
M  V30 889 H 80.3605 -2.19311 5.5859 0
M  V30 890 H 81.4305 -1.06824 4.72987 0
M  V30 891 N 82.7736 -1.49793 -0.48987 0
M  V30 892 C 84.0196 -1.61049 -1.24236 0
M  V30 893 C 84.3746 -0.298412 -1.90072 0
M  V30 894 O 83.6676 0.702262 -1.78266 0
M  V30 895 C 83.8616 -2.71488 -2.32441 0
M  V30 896 C 83.6906 -4.13308 -1.77218 0
M  V30 897 C 82.4606 -4.79955 -1.58023 0
M  V30 898 C 84.6586 -4.98176 -1.27772 0
M  V30 899 N 82.6406 -6.06052 -0.978465 0
M  V30 900 C 84.0116 -6.14843 -0.798 0
M  V30 901 C 86.0666 -4.84091 -1.16449 0
M  V30 902 C 84.7696 -7.18975 -0.216245 0
M  V30 903 C 86.7956 -5.88382 -0.596698 0
M  V30 904 C 86.1576 -7.04285 -0.127262 0
M  V30 905 H 82.2566 -0.643611 -0.444172 0
M  V30 906 H 84.8406 -1.86842 -0.54754 0
M  V30 907 H 83.0116 -2.47449 -2.99372 0
M  V30 908 H 84.7436 -2.72205 -2.99477 0
M  V30 909 H 81.4986 -4.36936 -1.82712 0
M  V30 910 H 81.9226 -6.73407 -0.696534 0
M  V30 911 H 86.5646 -3.94786 -1.5134 0
M  V30 912 H 84.2826 -8.0797 0.144903 0
M  V30 913 H 87.8686 -5.79545 -0.511716 0
M  V30 914 H 86.7486 -7.83606 0.30523 0
M  V30 915 N 84.2517 0.741722 -1.39055 0
M  V30 916 C 85.5287 1.49252 -1.26425 0
M  V30 917 C 85.9087 2.10705 0.129144 0
M  V30 918 O 85.2567 1.98045 1.13976 0
M  V30 919 C 85.4667 2.54934 -2.38347 0
M  V30 920 C 86.8147 3.21506 -2.77343 0
M  V30 921 O 87.8387 2.65245 -2.37747 0
M  V30 922 O 86.6977 4.23294 -3.45665 0
M  V30 923 H 83.7917 0.662451 -0.495064 0
M  V30 924 H 86.3377 0.776121 -1.50912 0
M  V30 925 H 85.1097 2.07857 -3.31529 0
M  V30 926 H 84.7327 3.34141 -2.15489 0
M  V30 927 N 85.7298 1.2412 0.971189 0
M  V30 928 C 86.6928 1.03156 2.04674 0
M  V30 929 C 87.6928 -0.00990322 1.60797 0
M  V30 930 O 88.8828 0.230729 1.72665 0
M  V30 931 C 86.0148 0.562765 3.36223 0
M  V30 932 H 87.2078 1.98614 2.24705 0
M  V30 933 H 84.7608 1.06293 1.14593 0
M  V30 934 H 85.4958 -0.395176 3.21883 0
M  V30 935 H 85.2808 1.31441 3.69413 0
M  V30 936 H 86.7708 0.437015 4.15307 0
M  V30 937 N 87.2079 -1.17134 1.05439 0
M  V30 938 C 88.4539 -1.87733 0.767077 0
M  V30 939 C 88.7869 -1.8098 -0.704253 0
M  V30 940 O 88.0619 -1.21951 -1.5152 0
M  V30 941 C 88.3449 -3.37659 1.25133 0
M  V30 942 C 88.1979 -3.53149 2.78578 0
M  V30 943 C 89.5169 -4.31768 0.852324 0
M  V30 944 H 86.6359 -0.681687 0.280129 0
M  V30 945 H 89.2779 -1.37732 1.30881 0
M  V30 946 H 87.4279 -3.80373 0.790469 0
M  V30 947 H 89.0999 -3.19434 3.32806 0
M  V30 948 H 87.3429 -2.95345 3.17732 0
M  V30 949 H 88.0139 -4.58403 3.07523 0
M  V30 950 H 90.4899 -3.96909 1.24911 0
M  V30 951 H 89.3659 -5.35199 1.21873 0
M  V30 952 H 89.6269 -4.41429 -0.243485 0
M  V30 953 N 88.686 -0.835752 -1.33615 0
M  V30 954 C 89.649 -0.272 -2.2758 0
M  V30 955 C 90.649 0.557487 -1.50827 0
M  V30 956 O 91.839 0.37173 -1.70188 0
M  V30 957 C 88.971 0.617173 -3.35267 0
M  V30 958 H 90.164 -1.10111 -2.78954 0
M  V30 959 H 87.717 -0.608594 -1.43965 0
M  V30 960 H 88.452 1.46884 -2.89129 0
M  V30 961 H 88.237 0.0237066 -3.92093 0
M  V30 962 H 89.727 1.005 -4.05326 0
M  V30 963 N 90.1641 1.46063 -0.591896 0
M  V30 964 C 91.1271 2.28854 0.125973 0
M  V30 965 C 92.1271 1.38903 0.810107 0
M  V30 966 O 93.3171 1.61186 0.66066 0
M  V30 967 C 90.4491 3.19526 1.1881 0
M  V30 968 H 91.6421 2.93802 -0.601717 0
M  V30 969 H 89.1951 1.52325 -0.350254 0
M  V30 970 H 89.9301 2.59345 1.94707 0
M  V30 971 H 89.7151 3.85766 0.701936 0
M  V30 972 H 91.2051 3.81817 1.69132 0
M  V30 973 N 91.6422 0.330177 1.54103 0
M  V30 974 C 92.8902 -0.269871 2.0029 0
M  V30 975 C 93.2112 -1.52133 1.21986 0
M  V30 976 O 92.4812 -1.93212 0.323438 0
M  V30 977 H 91.0612 -0.10271 0.739905 0
M  V30 978 H 93.7232 0.448249 1.89675 0
M  V30 979 H 92.8192 -0.52166 3.07709 0
M  V30 980 N 93.1203 -1.57491 0.0584922 0
M  V30 981 C 94.0673 -2.11958 -0.913376 0
M  V30 982 C 95.0373 -1.02875 -1.30407 0
M  V30 983 O 96.2223 -1.30464 -1.39226 0
M  V30 984 C 93.3623 -2.67497 -2.18035 0
M  V30 985 C 92.4753 -3.90691 -1.84349 0
M  V30 986 C 91.6103 -4.3452 -3.05559 0
M  V30 987 C 90.6493 -5.50395 -2.67827 0
M  V30 988 N 89.7863 -5.89244 -3.81754 0
M  V30 989 H 94.6263 -2.94704 -0.442017 0
M  V30 990 H 92.1633 -1.45643 -0.206545 0
M  V30 991 H 94.1213 -2.978 -2.92183 0
M  V30 992 H 92.7513 -1.87537 -2.62735 0
M  V30 993 H 91.8033 -3.66934 -1.00319 0
M  V30 994 H 93.1153 -4.7489 -1.5258 0
M  V30 995 H 92.2693 -4.66414 -3.87998 0
M  V30 996 H 91.0083 -3.49147 -3.40511 0
M  V30 997 H 90.0133 -5.18165 -1.83806 0
M  V30 998 H 91.2383 -6.3749 -2.34059 0
M  V30 999 H 89.1843 -5.06823 -4.16493 0
M  V30 1000 H 89.1013 -6.68151 -3.53708 0
M  V30 1001 H 90.3693 -6.25756 -4.64811 0
M  V30 1002 N 94.5984 0.214957 -1.56127 0
M  V30 1003 C 95.8754 0.963093 -1.70247 0
M  V30 1004 C 96.2554 2.02166 -0.60764 0
M  V30 1005 O 95.6034 2.25244 0.384385 0
M  V30 1006 C 95.8134 1.56756 -3.11815 0
M  V30 1007 C 97.1614 2.0573 -3.7143 0
M  V30 1008 O 98.1854 1.66637 -3.14818 0
M  V30 1009 O 97.0444 2.77603 -4.70743 0
M  V30 1010 H 94.1384 0.450321 -0.693643 0
M  V30 1011 H 96.6844 0.206219 -1.68442 0
M  V30 1012 H 95.4564 0.803533 -3.82961 0
M  V30 1013 H 95.0794 2.3898 -3.17765 0
M  V30 1014 N 96.0765 1.50051 0.48192 0
M  V30 1015 C 97.0065 1.71046 1.58951 0
M  V30 1016 C 97.9875 0.559288 1.60642 0
M  V30 1017 O 99.1725 0.797243 1.77081 0
M  V30 1018 C 96.3025 1.79462 2.97339 0
M  V30 1019 C 95.2565 2.94558 3.10515 0
M  V30 1020 C 94.5825 2.88105 4.50444 0
M  V30 1021 C 95.8825 4.35227 2.88747 0
M  V30 1022 H 97.5765 2.6378 1.41635 0
M  V30 1023 H 95.1225 1.26936 0.679942 0
M  V30 1024 H 97.0755 1.92734 3.74742 0
M  V30 1025 H 95.7995 0.833412 3.15788 0
M  V30 1026 H 94.4585 2.80918 2.35543 0
M  V30 1027 H 94.1065 1.89853 4.65795 0
M  V30 1028 H 93.8065 3.65366 4.60197 0
M  V30 1029 H 95.3305 3.03412 5.29881 0
M  V30 1030 H 96.7445 4.49449 3.55905 0
M  V30 1031 H 95.1415 5.13856 3.09955 0
M  V30 1032 H 96.2115 4.48347 1.84696 0
M  V30 1033 N 97.5546 -0.734337 1.39446 0
M  V30 1034 C 98.8006 -1.49613 1.36908 0
M  V30 1035 C 99.1336 -1.94169 -0.0347829 0
M  V30 1036 O 98.4086 -1.66833 -0.999847 0
M  V30 1037 C 98.6916 -2.73534 2.34203 0
M  V30 1038 C 98.5446 -2.34993 3.83534 0
M  V30 1039 C 99.8636 -3.75635 2.29317 0
M  V30 1040 H 96.9826 -0.542714 0.498629 0
M  V30 1041 H 99.6246 -0.839597 1.70443 0
M  V30 1042 H 97.7746 -3.29553 2.05736 0
M  V30 1043 H 99.4466 -1.84601 4.22753 0
M  V30 1044 H 97.6896 -1.67213 4.00278 0
M  V30 1045 H 98.3606 -3.23738 4.47099 0
M  V30 1046 H 100.837 -3.29203 2.54489 0
M  V30 1047 H 99.7126 -4.60008 2.99472 0
M  V30 1048 H 99.9736 -4.22603 1.29842 0
M  V30 1049 N 99.0327 -1.24633 -0.964593 0
M  V30 1050 C 100.258 -1.11596 -1.74818 0
M  V30 1051 C 100.683 0.32723 -1.85232 0
M  V30 1052 O 100.041 1.23695 -1.32549 0
M  V30 1053 C 100.089 -1.76397 -3.1451 0
M  V30 1054 O 99.1927 -1.03685 -3.99153 0
M  V30 1055 H 98.5337 -0.390196 -0.537255 0
M  V30 1056 H 101.064 -1.65002 -1.20977 0
M  V30 1057 H 101.074 -1.8228 -3.65018 0
M  V30 1058 H 99.7487 -2.81401 -3.06246 0
M  V30 1059 H 98.3257 -1.05611 -3.57632 0
M  V30 1060 N 100.511 1.16574 -1.06058 0
M  V30 1061 C 101.421 2.2452 -0.680282 0
M  V30 1062 C 102.437 1.71348 0.302604 0
M  V30 1063 O 103.613 2.00822 0.152513 0
M  V30 1064 C 100.678 3.46629 -0.0700315 0
M  V30 1065 C 99.7388 4.14849 -1.10448 0
M  V30 1066 C 98.9718 5.31129 -0.523256 0
M  V30 1067 O 99.1948 5.66514 0.664709 0
M  V30 1068 O 98.1288 5.88526 -1.26179 0
M  V30 1069 H 101.955 2.59355 -1.58015 0
M  V30 1070 H 99.5398 1.24043 -0.832694 0
M  V30 1071 H 101.422 4.20543 0.268667 0
M  V30 1072 H 100.097 3.13573 0.803353 0
M  V30 1073 H 99.0038 3.42916 -1.49532 0
M  V30 1074 H 100.337 4.51954 -1.94931 0
M  V30 1075 N 101.989 0.842826 1.3317 0
M  V30 1076 C 103.235 0.441099 1.97945 0
M  V30 1077 C 103.568 -0.998024 1.66593 0
M  V30 1078 O 102.843 -1.69839 0.947898 0
M  V30 1079 C 103.126 0.666841 3.53872 0
M  V30 1080 C 102.979 2.15352 3.94897 0
M  V30 1081 C 104.298 0.115544 4.39948 0
M  V30 1082 H 101.417 0.161739 0.719034 0
M  V30 1083 H 104.059 1.05907 1.57746 0
M  V30 1084 H 102.209 0.140828 3.88245 0
M  V30 1085 H 103.881 2.7447 3.70761 0
M  V30 1086 H 102.124 2.63653 3.44484 0
M  V30 1087 H 102.795 2.26221 5.03516 0
M  V30 1088 H 105.271 0.565213 4.12243 0
M  V30 1089 H 104.147 0.303152 5.48062 0
M  V30 1090 H 104.408 -0.980935 4.3108 0
M  V30 1091 N 103.467 -1.45747 0.599634 0
M  V30 1092 C 104.878 -1.85853 0.177681 0
M  V30 1093 C 105.229 -1.50102 -1.26348 0
M  V30 1094 O 104.354 -0.923905 -1.95686 0
M  V30 1095 C 104.949 -3.37326 0.315688 0
M  V30 1096 C 103.508 -3.76365 -0.0515144 0
M  V30 1097 C 102.655 -2.69722 0.643822 0
M  V30 1098 H 105.606 -1.36661 0.806814 0
M  V30 1099 H 105.627 -3.77778 -0.454321 0
M  V30 1100 H 105.139 -3.63315 1.36468 0
M  V30 1101 H 103.24 -3.55993 -1.09999 0
M  V30 1102 H 103.353 -4.77916 0.336594 0
M  V30 1103 H 101.717 -2.54567 0.0822881 0
M  V30 1104 H 102.5 -2.98549 1.6948 0
M  V30 1105 N 104.945 -0.338344 -1.53925 0
M  V30 1106 C 105.855 0.529421 -2.28548 0
M  V30 1107 C 106.871 1.11645 -1.3346 0
M  V30 1108 O 108.047 1.13325 -1.66492 0
M  V30 1109 C 105.112 1.66713 -3.03987 0
M  V30 1110 C 104.173 1.11041 -4.14691 0
M  V30 1111 C 103.406 2.19389 -4.86522 0
M  V30 1112 O 103.629 3.40013 -4.57982 0
M  V30 1113 O 102.563 1.83976 -5.73094 0
M  V30 1114 H 106.389 -0.0770399 -3.03602 0
M  V30 1115 H 103.974 -0.103555 -1.49041 0
M  V30 1116 H 105.856 2.32918 -3.5118 0
M  V30 1117 H 104.531 2.25949 -2.31794 0
M  V30 1118 H 103.438 0.413024 -3.71813 0
M  V30 1119 H 104.771 0.562975 -4.8897 0
M  V30 1120 N 106.423 1.57458 -0.0668435 0
M  V30 1121 C 107.333 2.15937 0.916975 0
M  V30 1122 C 108.349 1.12123 1.33058 0
M  V30 1123 O 109.525 1.44366 1.40429 0
M  V30 1124 C 106.59 2.70547 2.16807 0
M  V30 1125 C 105.651 3.89215 1.81135 0
M  V30 1126 C 104.884 4.41211 3.0028 0
M  V30 1127 O 105.107 3.92225 4.14144 0
M  V30 1128 O 104.041 5.32605 2.80384 0
M  V30 1129 H 107.867 3.00354 0.449561 0
M  V30 1130 H 105.452 1.48584 0.155949 0
M  V30 1131 H 107.334 3.0557 2.90181 0
M  V30 1132 H 106.009 1.89192 2.62656 0
M  V30 1133 H 104.916 3.59054 1.05028 0
M  V30 1134 H 106.249 4.71848 1.40073 0
M  V30 1135 N 107.901 -0.206675 1.56239 0
M  V30 1136 C 109.317 -0.557025 1.49564 0
M  V30 1137 C 109.517 -1.86424 0.764735 0
M  V30 1138 O 108.573 -2.50584 0.310491 0
M  V30 1139 C 109.886 -0.622478 2.94186 0
M  V30 1140 C 111.434 -0.712099 3.04792 0
M  V30 1141 C 111.909 -0.808767 4.50803 0
M  V30 1142 N 113.4 -0.8726 4.54907 0
M  V30 1143 C 114.135 -0.967365 5.65181 0
M  V30 1144 N 113.631 -1.02515 6.85173 0
M  V30 1145 N 115.424 -1.00366 5.53067 0
M  V30 1146 H 107.575 0.650943 2.02179 0
M  V30 1147 H 109.838 0.230387 0.919579 0
M  V30 1148 H 109.544 0.268727 3.50672 0
M  V30 1149 H 109.418 -1.4811 3.46905 0
M  V30 1150 H 111.805 -1.59374 2.48363 0
M  V30 1151 H 111.886 0.172489 2.55218 0
M  V30 1152 H 111.53 0.0684754 5.07854 0
M  V30 1153 H 111.46 -1.70899 4.98098 0
M  V30 1154 H 113.951 -0.837657 3.68499 0
M  V30 1155 H 114.264 -1.09765 7.64965 0
M  V30 1156 H 112.609 -0.994026 6.87855 0
M  V30 1157 H 115.8 -0.95527 4.58249 0
M  V30 1158 H 115.973 -1.07405 6.39037 0
M  V30 1159 N 109.379 -1.50304 -0.473955 0
M  V30 1160 C 110.627 -1.60832 -1.22382 0
M  V30 1161 C 110.948 -0.30939 -1.9253 0
M  V30 1162 O 110.218 0.67296 -1.83978 0
M  V30 1163 H 108.798 -0.592652 -0.454723 0
M  V30 1164 H 111.46 -1.87068 -0.546968 0
M  V30 1165 H 110.556 -2.41803 -1.97327 0
M  V30 1166 N 110.857 0.726932 -1.39834 0
M  V30 1167 C 112.103 1.48771 -1.38704 0
M  V30 1168 C 112.458 1.92394 0.0146387 0
M  V30 1169 O 111.751 1.64474 0.982797 0
M  V30 1170 C 111.945 2.73495 -2.30077 0
M  V30 1171 C 111.774 2.42068 -3.78989 0
M  V30 1172 C 110.544 2.33966 -4.4787 0
M  V30 1173 C 112.742 2.0708 -4.70768 0
M  V30 1174 N 110.724 1.95095 -5.82075 0
M  V30 1175 C 112.095 1.78719 -5.93683 0
M  V30 1176 C 114.15 1.93618 -4.58712 0
M  V30 1177 C 112.853 1.3825 -7.05889 0
M  V30 1178 C 114.879 1.54553 -5.70848 0
M  V30 1179 C 114.241 1.27082 -6.92842 0
M  V30 1180 H 110.34 0.542919 -0.562817 0
M  V30 1181 H 112.924 0.84408 -1.75452 0
M  V30 1182 H 111.095 3.35625 -1.95474 0
M  V30 1183 H 112.827 3.39755 -2.19883 0
M  V30 1184 H 109.582 2.51331 -4.0141 0
M  V30 1185 H 110.006 1.7823 -6.53118 0
M  V30 1186 H 114.648 2.13522 -3.64922 0
M  V30 1187 H 112.366 1.17088 -7.99572 0
M  V30 1188 H 115.952 1.44731 -5.6351 0
M  V30 1189 H 114.832 0.973069 -7.78139 0
M  V30 1190 N 112.336 1.25143 0.95797 0
M  V30 1191 C 113.613 1.00472 1.67823 0
M  V30 1192 C 113.993 -0.470056 2.058 0
M  V30 1193 O 113.341 -1.44663 1.76875 0
M  V30 1194 C 113.551 1.9372 2.90299 0
M  V30 1195 C 114.899 2.21371 3.62326 0
M  V30 1196 O 115.923 1.91451 3.00375 0
M  V30 1197 O 114.782 2.72231 4.7387 0
M  V30 1198 H 111.876 0.380752 0.734137 0
M  V30 1199 H 114.422 1.36283 1.01119 0
M  V30 1200 H 113.194 2.93316 2.59001 0
M  V30 1201 H 112.817 1.58286 3.64735 0
M  V30 1202 N 113.814 -1.1601 1.06675 0
M  V30 1203 C 115.063 -1.85973 0.780818 0
M  V30 1204 C 115.376 -1.82819 -0.695444 0
M  V30 1205 O 116.582 -2.484 -1.09589 0
M  V30 1206 C 115.038 -3.33757 1.34665 0
M  V30 1207 C 114.646 -3.45374 2.85343 0
M  V30 1208 C 116.39 -4.0895 1.13843 0
M  V30 1209 C 114.297 -4.87266 3.35151 0
M  V30 1210 H 113.227 -0.696661 0.288407 0
M  V30 1211 H 115.878 -1.30903 1.28595 0
M  V30 1212 H 114.26 -3.88456 0.769274 0
M  V30 1213 H 115.434 -3.00816 3.49065 0
M  V30 1214 H 113.749 -2.83619 3.04876 0
M  V30 1215 H 116.346 -5.13654 1.4854 0
M  V30 1216 H 116.689 -4.16229 0.0770282 0
M  V30 1217 H 117.222 -3.605 1.68179 0
M  V30 1218 H 113.961 -4.85168 4.40786 0
M  V30 1219 H 113.481 -5.32433 2.76179 0
M  V30 1220 H 115.16 -5.56097 3.30704 0
M  V30 1221 N 115.292 -0.849877 -1.32721 0
M  V30 1222 C 116.569 -0.372405 -1.92022 0
M  V30 1223 C 116.949 1.1435 -1.77447 0
M  V30 1224 O 116.297 1.96296 -1.16962 0
M  V30 1225 C 116.507 -0.831482 -3.3895 0
M  V30 1226 C 117.855 -0.845882 -4.16089 0
M  V30 1227 O 118.879 -0.775806 -3.47649 0
M  V30 1228 O 117.738 -0.943753 -5.38289 0
M  V30 1229 H 114.832 -0.107667 -0.819961 0
M  V30 1230 H 117.378 -0.93646 -1.41522 0
M  V30 1231 H 116.15 -1.87448 -3.4348 0
M  V30 1232 H 115.773 -0.24461 -3.96847 0
M  V30 1233 N 116.77 1.45427 -0.607355 0
M  V30 1234 C 117.995 2.07124 -0.107006 0
M  V30 1235 C 118.42 1.44906 1.19933 0
M  V30 1236 O 117.778 0.541687 1.73019 0
M  V30 1237 C 117.826 3.60595 0.0194119 0
M  V30 1238 O 116.93 3.98285 1.0697 0
M  V30 1239 H 116.271 0.659868 -0.0739597 0
M  V30 1240 H 118.801 1.86683 -0.837297 0
M  V30 1241 H 118.811 4.07419 0.2177 0
M  V30 1242 H 117.486 4.05266 -0.934453 0
M  V30 1243 H 116.063 3.63133 0.847889 0
M  V30 1244 N 118.248 0.346503 1.53744 0
M  V30 1245 C 119.178 -0.501193 2.28058 0
M  V30 1246 C 120.159 -1.10014 1.29734 0
M  V30 1247 O 121.344 -1.12097 1.58581 0
M  V30 1248 C 118.474 -1.65078 3.05559 0
M  V30 1249 C 117.428 -1.18003 4.11411 0
M  V30 1250 C 116.754 -2.41837 4.76884 0
M  V30 1251 C 118.054 -0.278394 5.21558 0
M  V30 1252 H 119.748 0.11875 2.99164 0
M  V30 1253 H 117.294 0.0585531 1.43881 0
M  V30 1254 H 119.247 -2.25028 3.56287 0
M  V30 1255 H 117.971 -2.29767 2.32109 0
M  V30 1256 H 116.63 -0.603331 3.61601 0
M  V30 1257 H 116.278 -3.0494 4.00026 0
M  V30 1258 H 115.978 -2.1102 5.48402 0
M  V30 1259 H 117.502 -3.02508 5.30397 0
M  V30 1260 H 118.916 -0.784823 5.67903 0
M  V30 1261 H 117.313 -0.0619707 6.00068 0
M  V30 1262 H 118.383 0.684677 4.80042 0
M  V30 1263 N 119.726 -1.57421 0.075193 0
M  V30 1264 C 120.956 -1.97659 -0.601203 0
M  V30 1265 C 121.364 -0.952427 -1.63479 0
M  V30 1266 O 120.707 0.0688241 -1.83571 0
M  V30 1267 C 120.769 -3.34218 -1.32434 0
M  V30 1268 C 120.433 -4.5484 -0.443826 0
M  V30 1269 C 121.43 -5.19034 0.299969 0
M  V30 1270 C 119.115 -5.00952 -0.367709 0
M  V30 1271 C 121.109 -6.27695 1.10807 0
M  V30 1272 C 118.796 -6.09484 0.444058 0
M  V30 1273 C 119.794 -6.72719 1.18061 0
M  V30 1274 O 119.482 -7.79161 1.97898 0
M  V30 1275 H 119.214 -0.65494 -0.167422 0
M  V30 1276 H 121.768 -2.04886 0.145157 0
M  V30 1277 H 119.998 -3.23615 -2.11685 0
M  V30 1278 H 121.687 -3.59038 -1.89331 0
M  V30 1279 H 122.453 -4.84351 0.250776 0
M  V30 1280 H 118.332 -4.51509 -0.930638 0
M  V30 1281 H 121.876 -6.76982 1.68347 0
M  V30 1282 H 117.773 -6.43601 0.494803 0
M  V30 1283 H 118.541 -7.96055 1.90367 0
M  V30 1284 N 121.204 0.198386 -1.56346 0
M  V30 1285 C 122.481 0.944982 -1.71258 0
M  V30 1286 C 122.861 2.0151 -0.629048 0
M  V30 1287 O 122.209 2.25639 0.360473 0
M  V30 1288 C 122.419 1.5344 -3.1346 0
M  V30 1289 C 123.767 2.01778 -3.73591 0
M  V30 1290 O 124.791 1.63288 -3.16568 0
M  V30 1291 O 123.65 2.72594 -4.73661 0
M  V30 1292 H 120.744 0.442939 -0.69838 0
M  V30 1293 H 123.29 0.188342 -1.68652 0
M  V30 1294 H 122.062 0.762869 -3.83792 0
M  V30 1295 H 121.685 2.35596 -3.20282 0
M  V30 1296 N 122.682 1.50554 0.465978 0
M  V30 1297 C 124.093 1.54599 1.04671 0
M  V30 1298 C 124.444 0.352488 1.93008 0
M  V30 1299 O 123.569 -0.534044 2.09707 0
M  V30 1300 C 124.164 2.80166 1.90505 0
M  V30 1301 C 122.723 2.86876 2.43678 0
M  V30 1302 C 121.87 2.48947 1.22151 0
M  V30 1303 H 124.821 1.56744 0.248384 0
M  V30 1304 H 124.842 2.62311 2.75633 0
M  V30 1305 H 124.354 3.67013 1.26186 0
M  V30 1306 H 122.455 2.04393 3.11536 0
M  V30 1307 H 122.568 3.89885 2.78436 0
M  V30 1308 H 120.932 2.01498 1.5579 0
M  V30 1309 H 121.715 3.38107 0.594866 0
M  V30 1310 N 124.16 -0.719506 1.40217 0
M  V30 1311 C 125.406 -1.48152 1.38488 0
M  V30 1312 C 125.739 -1.94195 -0.0141867 0
M  V30 1313 O 125.014 -1.67884 -0.982096 0
M  V30 1314 C 125.297 -2.71035 2.37091 0
M  V30 1315 C 125.15 -2.30912 3.86005 0
M  V30 1316 C 126.469 -3.73182 2.33288 0
M  V30 1317 H 123.588 -0.537395 0.504357 0
M  V30 1318 H 126.23 -0.821472 1.71324 0
M  V30 1319 H 124.38 -3.27352 2.0922 0
M  V30 1320 H 126.052 -1.80107 4.24687 0
M  V30 1321 H 124.295 -1.62958 4.02029 0
M  V30 1322 H 124.966 -3.18978 4.50508 0
M  V30 1323 H 127.442 -3.26485 2.57966 0
M  V30 1324 H 126.318 -4.56806 3.04334 0
M  V30 1325 H 126.579 -4.21202 1.34317 0
M  V30 1326 N 125.638 -1.25649 -0.95132 0
M  V30 1327 C 127.049 -1.09654 -1.51106 0
M  V30 1328 C 127.4 0.326615 -1.93462 0
M  V30 1329 O 126.525 1.21697 -1.78938 0
M  V30 1330 C 127.12 -1.98437 -2.74605 0
M  V30 1331 C 125.679 -1.86618 -3.2688 0
M  V30 1332 C 124.826 -1.9239 -1.99703 0
M  V30 1333 H 127.777 -1.38887 -0.767865 0
M  V30 1334 H 127.798 -1.5263 -3.48546 0
M  V30 1335 H 127.31 -3.02009 -2.43746 0
M  V30 1336 H 125.411 -0.859421 -3.62553 0
M  V30 1337 H 125.524 -2.71607 -3.94673 0
M  V30 1338 H 123.888 -1.36317 -2.15151 0
M  V30 1339 H 124.671 -2.97573 -1.71188 0
M  V30 1340 N 127.117 1.15442 -1.07289 0
M  V30 1341 C 128.365 1.85845 -0.794096 0
M  V30 1342 C 128.686 1.82692 0.681809 0
M  V30 1343 O 127.956 1.26741 1.49377 0
M  V30 1344 H 126.536 0.688089 -0.290763 0
M  V30 1345 H 129.198 1.39947 -1.3565 0
M  V30 1346 H 128.294 2.91001 -1.12804 0
M  V30 1347 N 128.595 0.856903 1.32268 0
M  V30 1348 C 130.011 0.547061 1.49931 0
M  V30 1349 C 130.211 -0.921781 1.7918 0
M  V30 1350 O 129.267 -1.70469 1.8627 0
M  V30 1351 C 130.58 1.43599 2.64196 0
M  V30 1352 C 132.128 1.43665 2.78081 0
M  V30 1353 C 132.603 2.31085 3.95428 0
M  V30 1354 N 134.094 2.28893 4.02694 0
M  V30 1355 C 134.829 2.93262 4.92732 0
M  V30 1356 N 134.325 3.66751 5.87763 0
M  V30 1357 N 136.118 2.82638 4.85873 0
M  V30 1358 H 128.269 1.8075 1.11549 0
M  V30 1359 H 130.532 0.772144 0.549997 0
M  V30 1360 H 130.238 2.48058 2.49319 0
M  V30 1361 H 130.112 1.12502 3.60032 0
M  V30 1362 H 132.499 0.399701 2.92381 0
M  V30 1363 H 132.58 1.7878 1.82952 0
M  V30 1364 H 132.224 3.34849 3.81888 0
M  V30 1365 H 132.154 1.93302 4.89839 0
M  V30 1366 H 134.645 1.75466 3.34694 0
M  V30 1367 H 134.958 4.13027 6.53168 0
M  V30 1368 H 133.303 3.70859 5.87783 0
M  V30 1369 H 136.494 2.24774 4.10602 0
M  V30 1370 H 136.667 3.33084 5.55841 0
M  V30 1371 N 130.073 -1.45103 0.615059 0
M  V30 1372 C 131.02 -2.30586 -0.0993978 0
M  V30 1373 C 131.99 -1.42544 -0.852669 0
M  V30 1374 O 133.175 -1.71465 -0.836917 0
M  V30 1375 C 130.315 -3.27572 -1.08583 0
M  V30 1376 C 129.428 -4.30717 -0.332656 0
M  V30 1377 C 128.563 -5.14807 -1.30947 0
M  V30 1378 C 127.602 -6.09673 -0.544538 0
M  V30 1379 N 126.739 -6.86517 -1.47101 0
M  V30 1380 H 131.579 -2.91144 0.635542 0
M  V30 1381 H 129.116 -1.4346 0.325206 0
M  V30 1382 H 131.074 -3.82276 -1.67095 0
M  V30 1383 H 129.704 -2.68751 -1.78809 0
M  V30 1384 H 128.756 -3.78615 0.368107 0
M  V30 1385 H 130.068 -4.98102 0.263842 0
M  V30 1386 H 129.222 -5.73948 -1.96643 0
M  V30 1387 H 127.961 -4.47458 -1.9399 0
M  V30 1388 H 126.966 -5.49656 0.126003 0
M  V30 1389 H 128.191 -6.79052 0.080947 0
M  V30 1390 H 126.137 -6.21851 -2.08895 0
M  V30 1391 H 126.054 -7.50281 -0.928137 0
M  V30 1392 H 127.322 -7.50194 -2.11731 0
M  V30 1393 N 131.551 -0.354651 -1.53558 0
M  V30 1394 C 132.799 0.237972 -2.00694 0
M  V30 1395 C 133.12 1.50173 -1.24391 0
M  V30 1396 O 132.39 1.92673 -0.354135 0
M  V30 1397 H 130.97 0.0909256 -0.741446 0
M  V30 1398 H 133.632 -0.478368 -1.88938 0
M  V30 1399 H 132.728 0.47264 -3.085 0
M  V30 1400 N 133.029 1.57378 -0.0835403 0
M  V30 1401 C 134.257 1.98263 0.59157 0
M  V30 1402 C 134.672 0.962302 1.62435 0
M  V30 1403 O 134.029 -0.049581 1.82433 0
M  V30 1404 C 134.08 3.39214 1.24965 0
M  V30 1405 O 133.801 4.37339 0.258186 0
M  V30 1406 C 135.302 3.95038 2.01147 0
M  V30 1407 H 132.522 0.651773 0.159477 0
M  V30 1408 H 135.066 2.03878 -0.159415 0
M  V30 1409 H 133.221 3.34649 1.95164 0
M  V30 1410 H 133.635 5.19371 0.731734 0
M  V30 1411 H 135.109 4.95848 2.42567 0
M  V30 1412 H 135.586 3.32222 2.87272 0
M  V30 1413 H 136.192 4.0304 1.35789 0
M  V30 1414 N 134.507 -0.190092 1.56449 0
M  V30 1415 C 135.735 -0.925772 1.85033 0
M  V30 1416 C 136.15 -1.76638 0.666658 0
M  V30 1417 O 135.507 -1.78822 -0.364565 0
M  V30 1418 C 135.558 -1.81786 3.12468 0
M  V30 1419 O 135.279 -1.01118 4.26271 0
M  V30 1420 C 136.78 -2.6648 3.54265 0
M  V30 1421 H 134 -0.269872 0.614337 0
M  V30 1422 H 136.544 -0.195837 2.0356 0
M  V30 1423 H 134.699 -2.50136 2.95822 0
M  V30 1424 H 135.113 -1.61956 4.98869 0
M  V30 1425 H 136.587 -3.24722 4.46385 0
M  V30 1426 H 137.064 -3.40434 2.77491 0
M  V30 1427 H 137.67 -2.03493 3.73458 0
M  V30 1428 N 135.985 -1.50799 -0.457987 0
M  V30 1429 C 137.215 -1.65977 -1.23025 0
M  V30 1430 C 137.623 -0.347918 -1.85974 0
M  V30 1431 O 136.966 0.68148 -1.70592 0
M  V30 1432 C 137.028 -2.70309 -2.3701 0
M  V30 1433 C 136.692 -4.135 -1.94594 0
M  V30 1434 C 137.689 -4.98949 -1.46101 0
M  V30 1435 C 135.374 -4.5949 -2.02915 0
M  V30 1436 C 137.368 -6.28442 -1.06489 0
M  V30 1437 C 135.055 -5.88984 -1.62914 0
M  V30 1438 C 136.053 -6.73286 -1.1478 0
M  V30 1439 O 135.741 -8.00362 -0.75339 0
M  V30 1440 H 135.473 -0.56064 -0.377702 0
M  V30 1441 H 138.027 -1.97857 -0.551537 0
M  V30 1442 H 136.257 -2.337 -3.08093 0
M  V30 1443 H 137.946 -2.74574 -2.98938 0
M  V30 1444 H 138.712 -4.6463 -1.39084 0
M  V30 1445 H 134.591 -3.94009 -2.39328 0
M  V30 1446 H 138.135 -6.94194 -0.688488 0
M  V30 1447 H 134.032 -6.22822 -1.69595 0
M  V30 1448 H 134.8 -8.13744 -0.88108 0
M  V30 1449 N 137.463 0.71206 -1.40597 0
M  V30 1450 C 138.709 1.47416 -1.39271 0
M  V30 1451 C 139.042 1.942 0.00388791 0
M  V30 1452 O 138.317 1.68403 0.973179 0
M  V30 1453 C 138.6 2.69774 -2.38525 0
M  V30 1454 C 138.453 2.28861 -3.87224 0
M  V30 1455 C 139.772 3.71939 -2.35264 0
M  V30 1456 H 136.891 0.534713 -0.5072 0
M  V30 1457 H 139.533 0.812375 -1.71757 0
M  V30 1458 H 137.683 3.26238 -2.10953 0
M  V30 1459 H 139.355 1.77852 -4.25636 0
M  V30 1460 H 137.598 1.60824 -4.02887 0
M  V30 1461 H 138.269 3.16584 -4.52193 0
M  V30 1462 H 140.745 3.25113 -2.59694 0
M  V30 1463 H 139.621 4.55186 -3.06753 0
M  V30 1464 H 139.882 4.20484 -1.36549 0
M  V30 1465 N 138.941 1.26152 0.944643 0
M  V30 1466 C 140.357 1.03189 1.21754 0
M  V30 1467 C 140.557 -0.245112 2.00004 0
M  V30 1468 O 139.613 -0.955176 2.33736 0
M  V30 1469 C 140.926 2.26119 1.98219 0
M  V30 1470 C 142.474 2.30984 2.11224 0
M  V30 1471 C 142.949 3.53597 2.91089 0
M  V30 1472 N 144.44 3.54053 2.98664 0
M  V30 1473 C 145.175 4.45593 3.60881 0
M  V30 1474 N 144.671 5.47416 4.24626 0
M  V30 1475 N 146.464 4.33252 3.58119 0
M  V30 1476 H 138.615 2.08177 0.421437 0
M  V30 1477 H 140.878 0.914723 0.248969 0
M  V30 1478 H 140.584 3.18984 1.48128 0
M  V30 1479 H 140.458 2.3009 2.98895 0
M  V30 1480 H 142.845 1.38635 2.60508 0
M  V30 1481 H 142.926 2.31026 1.09821 0
M  V30 1482 H 142.57 4.46273 2.42493 0
M  V30 1483 H 142.5 3.50802 3.92741 0
M  V30 1484 H 144.991 2.80403 2.53343 0
M  V30 1485 H 145.304 6.13459 4.69987 0
M  V30 1486 H 143.649 5.51278 4.23223 0
M  V30 1487 H 146.84 3.52924 3.0751 0
M  V30 1488 H 147.013 5.04786 4.06319 0
M  V30 1489 N 140.419 -1.14872 1.07899 0
M  V30 1490 C 141.367 -2.21857 0.698727 0
M  V30 1491 C 142.361 -1.66845 -0.293086 0
M  V30 1492 O 143.567 -1.79321 -0.156204 0
M  V30 1493 H 139.942 -0.722691 0.207899 0
M  V30 1494 H 141.913 -2.51205 1.61054 0
M  V30 1495 C 140.662 -3.47498 0.11858 0
M  V30 1496 H 139.985 -3.90154 0.872914 0
M  V30 1497 H 141.425 -4.23858 -0.109759 0
M  V30 1498 C 139.884 -3.16947 -1.1422 0
M  V30 1499 O 140.414 -3.3426 -2.22785 0
M  V30 1500 N 138.62 -2.70946 -1.05055 0
M  V30 1501 H 138.167 -2.57058 -0.167038 0
M  V30 1502 H 138.125 -2.50879 -1.89491 0
M  V30 1503 N 141.898 -0.863906 -1.31812 0
M  V30 1504 C 142.861 -0.320212 -2.26952 0
M  V30 1505 C 143.861 0.525369 -1.51975 0
M  V30 1506 O 145.051 0.335547 -1.70938 0
M  V30 1507 C 142.183 0.545919 -3.365 0
M  V30 1508 H 143.376 -1.16004 -2.76556 0
M  V30 1509 H 140.929 -0.638995 -1.42641 0
M  V30 1510 H 141.664 1.40718 -2.92179 0
M  V30 1511 H 141.449 -0.0594674 -3.92055 0
M  V30 1512 H 142.939 0.918796 -4.07367 0
M  V30 1513 N 143.376 1.44774 -0.622745 0
M  V30 1514 C 144.339 2.29069 0.0774015 0
M  V30 1515 C 145.339 1.4059 0.780461 0
M  V30 1516 O 146.529 1.62551 0.626322 0
M  V30 1517 C 143.661 3.21974 1.12006 0
M  V30 1518 H 144.854 2.92459 -0.663901 0
M  V30 1519 H 142.407 1.51548 -0.382486 0
M  V30 1520 H 143.142 2.63417 1.89162 0
M  V30 1521 H 142.927 3.87168 0.619951 0
M  V30 1522 H 144.417 3.85318 1.60995 0
M  V30 1523 N 144.854 0.36279 1.53368 0
M  V30 1524 C 146.101 -0.227776 2.01215 0
M  V30 1525 C 146.429 -1.49003 1.25014 0
M  V30 1526 O 145.684 -1.92876 0.331236 0
M  V30 1527 C 145.983 -0.568417 3.52851 0
M  V30 1528 C 145.649 0.59918 4.46901 0
M  V30 1529 C 144.311 0.919559 4.72332 0
M  V30 1530 C 146.663 1.38156 5.02556 0
M  V30 1531 C 143.991 2.02434 5.5067 0
M  V30 1532 C 146.343 2.47674 5.821 0
M  V30 1533 C 145.007 2.8025 6.05819 0
M  V30 1534 H 144.277 -0.083349 0.736297 0
M  V30 1535 H 146.924 0.494677 1.85001 0
M  V30 1536 H 145.229 -1.37185 3.66998 0
M  V30 1537 H 146.926 -1.03756 3.87344 0
M  V30 1538 H 143.516 0.339437 4.27254 0
M  V30 1539 H 147.7 1.14729 4.82857 0
M  V30 1540 H 142.956 2.28075 5.67267 0
M  V30 1541 H 147.13 3.08716 6.24234 0
M  V30 1542 H 144.757 3.65979 6.66306 0
M  V30 1543 N 146.332 -1.57332 0.0918853 0
M  V30 1544 C 147.262 -2.16872 -0.865371 0
M  V30 1545 C 148.243 -1.10118 -1.29646 0
M  V30 1546 O 149.428 -1.38242 -1.36392 0
M  V30 1547 C 146.558 -2.74649 -2.12569 0
M  V30 1548 C 145.512 -3.86747 -1.83333 0
M  V30 1549 C 144.838 -4.31212 -3.16166 0
M  V30 1550 C 146.138 -5.10089 -1.1228 0
M  V30 1551 H 147.832 -2.97114 -0.369307 0
M  V30 1552 H 145.378 -1.42918 -0.176194 0
M  V30 1553 H 147.331 -3.14952 -2.7997 0
M  V30 1554 H 146.055 -1.91657 -2.64452 0
M  V30 1555 H 144.714 -3.46978 -1.18331 0
M  V30 1556 H 144.362 -3.45115 -3.6593 0
M  V30 1557 H 144.062 -5.06788 -2.97388 0
M  V30 1558 H 145.586 -4.74146 -3.84731 0
M  V30 1559 H 147 -5.47582 -1.69785 0
M  V30 1560 H 145.397 -5.91073 -1.03693 0
M  V30 1561 H 146.467 -4.84786 -0.105041 0
M  V30 1562 N 147.81 0.181792 -1.56548 0
M  V30 1563 C 149.087 0.926765 -1.72251 0
M  V30 1564 C 149.467 2.00831 -0.650386 0
M  V30 1565 O 148.815 2.26008 0.336521 0
M  V30 1566 C 149.025 1.50106 -3.1507 0
M  V30 1567 C 150.373 1.97805 -3.75711 0
M  V30 1568 O 151.397 1.59922 -3.18282 0
M  V30 1569 O 150.256 2.67555 -4.76525 0
M  V30 1570 H 147.35 0.435506 -0.703039 0
M  V30 1571 H 149.896 0.170443 -1.68842 0
M  V30 1572 H 148.668 0.72212 -3.84579 0
M  V30 1573 H 148.291 2.32186 -3.22763 0
M  V30 1574 N 149.288 1.51039 0.449983 0
M  V30 1575 C 150.565 1.53612 1.21089 0
M  V30 1576 C 150.945 0.292997 2.09057 0
M  V30 1577 O 150.293 -0.72259 2.16774 0
M  V30 1578 C 150.503 2.84337 2.0237 0
M  V30 1579 C 151.851 3.35807 2.59843 0
M  V30 1580 O 152.875 2.85802 2.12593 0
M  V30 1581 O 151.734 4.23029 3.45989 0
M  V30 1582 H 148.828 0.617057 0.550608 0
M  V30 1583 H 151.374 1.63344 0.460082 0
M  V30 1584 H 150.146 3.66278 1.37681 0
M  V30 1585 H 149.769 2.77708 2.84542 0
M  V30 1586 N 150.766 -0.704594 1.40972 0
M  V30 1587 C 151.729 -1.80035 1.41845 0
M  V30 1588 C 152.729 -1.57774 0.310474 0
M  V30 1589 O 153.919 -1.64613 0.56992 0
M  V30 1590 C 151.051 -3.18284 1.22098 0
M  V30 1591 H 152.244 -1.80658 2.3938 0
M  V30 1592 H 149.797 -0.911329 1.26982 0
M  V30 1593 H 150.532 -3.23306 0.253672 0
M  V30 1594 H 150.317 -3.35843 2.02366 0
M  V30 1595 H 151.807 -3.98289 1.25522 0
M  V30 1596 N 152.244 -1.26651 -0.937939 0
M  V30 1597 C 153.207 -1.08546 -2.01867 0
M  V30 1598 C 154.207 -0.0327327 -1.60767 0
M  V30 1599 O 155.397 -0.276427 -1.71993 0
M  V30 1600 C 152.529 -0.651711 -3.34613 0
M  V30 1601 H 153.722 -2.04502 -2.1936 0
M  V30 1602 H 151.275 -1.09294 -1.11734 0
M  V30 1603 H 152.01 0.309696 -3.22818 0
M  V30 1604 H 151.795 -1.41189 -3.65798 0
M  V30 1605 H 153.285 -0.546973 -4.14002 0
M  V30 1606 N 153.722 1.14298 -1.08507 0
M  V30 1607 C 154.97 1.84993 -0.813763 0
M  V30 1608 C 155.291 1.83405 0.662393 0
M  V30 1609 O 154.561 1.28319 1.48024 0
M  V30 1610 H 153.141 0.684966 -0.298045 0
M  V30 1611 H 155.803 1.385 -1.37126 0
M  V30 1612 H 154.899 2.89788 -1.15884 0
M  V30 1613 N 155.201 0.870884 1.31352 0
M  V30 1614 C 156.448 0.482273 1.96673 0
M  V30 1615 C 156.776 -0.965638 1.68836 0
M  V30 1616 O 156.031 -1.69514 0.977937 0
M  V30 1617 C 156.33 0.687157 3.50732 0
M  V30 1618 C 155.996 2.108 3.9859 0
M  V30 1619 C 154.658 2.49656 4.1137 0
M  V30 1620 C 157.01 3.03459 4.23748 0
M  V30 1621 C 154.338 3.80412 4.46659 0
M  V30 1622 C 156.69 4.3373 4.60501 0
M  V30 1623 C 155.354 4.725 4.71487 0
M  V30 1624 H 154.624 0.176476 0.719679 0
M  V30 1625 H 157.271 1.10405 1.56471 0
M  V30 1626 H 155.576 -0.0177476 3.91796 0
M  V30 1627 H 157.273 0.366284 3.99324 0
M  V30 1628 H 153.863 1.79633 3.8914 0
M  V30 1629 H 158.047 2.74665 4.13368 0
M  V30 1630 H 153.303 4.1021 4.53362 0
M  V30 1631 H 157.477 5.05578 4.78919 0
M  V30 1632 H 155.104 5.73859 4.98588 0
M  V30 1633 N 156.679 -1.44442 0.630414 0
M  V30 1634 C 157.956 -1.9549 0.0655657 0
M  V30 1635 C 158.336 -1.5724 -1.40851 0
M  V30 1636 O 157.684 -0.846116 -2.12257 0
M  V30 1637 C 157.894 -3.47812 0.287691 0
M  V30 1638 C 159.242 -4.24216 0.180513 0
M  V30 1639 O 160.266 -3.55526 0.219019 0
M  V30 1640 O 159.125 -5.46434 0.0848493 0
M  V30 1641 H 156.219 -0.826688 -0.0227177 0
M  V30 1642 H 158.765 -1.54496 0.702068 0
M  V30 1643 H 157.537 -3.687 1.31056 0
M  V30 1644 H 157.16 -3.95751 -0.382984 0
M  V30 1645 N 158.157 -0.370918 -1.53173 0
M  V30 1646 C 159.12 0.460778 -2.24521 0
M  V30 1647 C 160.12 1.00536 -1.25496 0
M  V30 1648 O 161.31 0.890266 -1.49733 0
M  V30 1649 C 158.442 1.64457 -2.98608 0
M  V30 1650 H 159.635 -0.163613 -2.99453 0
M  V30 1651 H 157.188 -0.122699 -1.55818 0
M  V30 1652 H 157.923 2.30691 -2.2793 0
M  V30 1653 H 157.708 1.26099 -3.7127 0
M  V30 1654 H 159.198 2.23384 -3.5283 0
M  V30 1655 N 159.635 1.57281 -0.100228 0
M  V30 1656 C 160.598 2.13158 0.842398 0
M  V30 1657 C 161.598 1.06202 1.20738 0
M  V30 1658 O 162.788 1.32066 1.13597 0
M  V30 1659 C 159.92 2.65639 2.13655 0
M  V30 1660 H 161.113 2.97766 0.357114 0
M  V30 1661 H 158.666 1.5559 0.148823 0
M  V30 1662 H 159.401 1.84566 2.66657 0
M  V30 1663 H 159.186 3.43844 1.88451 0
M  V30 1664 H 160.676 3.08846 2.81077 0
M  V30 1665 N 161.113 -0.173488 1.56642 0
M  V30 1666 C 162.36 -0.890465 1.81871 0
M  V30 1667 C 162.688 -1.82339 0.67696 0
M  V30 1668 O 161.943 -1.92795 -0.335926 0
M  V30 1669 C 162.242 -1.72069 3.13252 0
M  V30 1670 C 161.908 -0.936878 4.41059 0
M  V30 1671 C 160.57 -0.720545 4.75775 0
M  V30 1672 C 162.922 -0.386919 5.19762 0
M  V30 1673 C 160.25 0.0568829 5.86672 0
M  V30 1674 C 162.602 0.37741 6.31473 0
M  V30 1675 C 161.266 0.604563 6.64757 0
M  V30 1676 H 160.536 -0.325844 0.665512 0
M  V30 1677 H 163.183 -0.155527 1.90867 0
M  V30 1678 H 161.488 -2.52496 2.99588 0
M  V30 1679 H 163.185 -2.27844 3.29982 0
M  V30 1680 H 159.775 -1.11553 4.13828 0
M  V30 1681 H 163.959 -0.541398 4.93338 0
M  V30 1682 H 159.215 0.242635 6.10918 0
M  V30 1683 H 163.389 0.810825 6.91664 0
M  V30 1684 H 161.016 1.20885 7.50527 0
M  V30 1685 N 162.591 -1.51276 -0.441967 0
M  V30 1686 C 163.838 -1.63715 -1.19179 0
M  V30 1687 C 164.166 -0.351175 -1.91303 0
M  V30 1688 O 163.421 0.664524 -1.84072 0
M  V30 1689 C 163.72 -2.78746 -2.23686 0
M  V30 1690 C 163.386 -4.18189 -1.68607 0
M  V30 1691 C 162.048 -4.56125 -1.53308 0
M  V30 1692 C 164.4 -5.05222 -1.28062 0
M  V30 1693 C 161.728 -5.78804 -0.959317 0
M  V30 1694 C 164.08 -6.28476 -0.721162 0
M  V30 1695 C 162.744 -6.65188 -0.55504 0
M  V30 1696 H 162.014 -0.599076 -0.436106 0
M  V30 1697 H 164.661 -1.85296 -0.48351 0
M  V30 1698 H 162.966 -2.51369 -3.00535 0
M  V30 1699 H 164.663 -2.8557 -2.81515 0
M  V30 1700 H 161.253 -3.88277 -1.8149 0
M  V30 1701 H 165.437 -4.76524 -1.38704 0
M  V30 1702 H 160.693 -6.05899 -0.81833 0
M  V30 1703 H 164.867 -6.95259 -0.398458 0
M  V30 1704 H 162.494 -7.60123 -0.108311 0
M  V30 1705 N 164.069 0.697108 -1.41344 0
M  V30 1706 C 165.317 1.45426 -1.40341 0
M  V30 1707 C 165.638 1.94996 -0.0128787 0
M  V30 1708 O 164.908 1.71599 0.945027 0
M  V30 1709 H 163.488 0.539594 -0.516573 0
M  V30 1710 H 166.15 0.825201 -1.76569 0
M  V30 1711 H 165.246 2.31817 -2.08967 0
M  V30 1712 N 165.547 1.27147 0.931209 0
M  V30 1713 C 166.796 1.12664 1.67302 0
M  V30 1714 C 167.109 -0.327718 1.92835 0
M  V30 1715 O 168.315 -0.593392 2.64936 0
M  V30 1716 C 166.771 1.9683 3.01307 0
M  V30 1717 C 166.379 3.46901 2.83485 0
M  V30 1718 C 168.123 1.90985 3.79111 0
M  V30 1719 C 166.03 4.23279 4.13024 0
M  V30 1720 H 164.96 0.41803 0.627509 0
M  V30 1721 H 167.611 1.51539 1.03481 0
M  V30 1722 H 165.993 1.50797 3.66164 0
M  V30 1723 H 167.167 4.00773 2.27415 0
M  V30 1724 H 165.482 3.54088 2.19113 0
M  V30 1725 H 168.079 2.45328 4.75098 0
M  V30 1726 H 168.422 0.882718 4.06834 0
M  V30 1727 H 168.955 2.34895 3.21044 0
M  V30 1728 H 165.694 5.26503 3.90481 0
M  V30 1729 H 165.214 3.74186 4.6877 0
M  V30 1730 H 166.893 4.32265 4.81411 0
M  V30 1731 N 167.025 -1.13721 1.09112 0
M  V30 1732 C 168.25 -1.89314 0.847053 0
M  V30 1733 C 168.675 -1.78416 -0.595774 0
M  V30 1734 O 168.033 -1.12942 -1.41823 0
M  V30 1735 C 168.081 -3.3701 1.28284 0
M  V30 1736 O 167.185 -4.10054 0.439267 0
M  V30 1737 H 166.526 -0.588745 0.307044 0
M  V30 1738 H 169.056 -1.43902 1.45442 0
M  V30 1739 H 169.066 -3.87834 1.26683 0
M  V30 1740 H 167.741 -3.4426 2.33363 0
M  V30 1741 H 166.318 -3.69266 0.519312 0
M  V30 1742 N 168.503 -0.877838 -1.30888 0
M  V30 1743 C 169.914 -0.544193 -1.78593 0
M  V30 1744 C 170.265 0.939301 -1.72254 0
M  V30 1745 O 169.39 1.7337 -1.29505 0
M  V30 1746 C 169.985 -0.98105 -3.24285 0
M  V30 1747 C 168.544 -0.698935 -3.69854 0
M  V30 1748 C 167.691 -1.168 -2.51502 0
M  V30 1749 H 170.642 -1.06278 -1.17859 0
M  V30 1750 H 170.663 -0.307009 -3.79259 0
M  V30 1751 H 170.175 -2.06079 -3.28866 0
M  V30 1752 H 168.276 0.369112 -3.70767 0
M  V30 1753 H 168.389 -1.28148 -4.61644 0
M  V30 1754 H 166.753 -0.587535 -2.47831 0
M  V30 1755 H 167.536 -2.25533 -2.58824 0
M  V30 1756 N 169.982 1.44106 -0.638065 0
M  V30 1757 C 171.398 1.56672 -0.304286 0
M  V30 1758 C 171.598 1.6244 1.19228 0
M  V30 1759 O 170.654 1.57121 1.9766 0
M  V30 1760 C 171.967 2.83503 -1.00231 0
M  V30 1761 C 173.515 2.97226 -0.981116 0
M  V30 1762 C 173.99 4.26868 -1.65974 0
M  V30 1763 N 175.481 4.33698 -1.62666 0
M  V30 1764 C 176.216 5.32745 -2.12063 0
M  V30 1765 N 175.712 6.38157 -2.6968 0
M  V30 1766 N 177.505 5.24299 -2.02651 0
M  V30 1767 H 169.656 1.38605 -1.60942 0
M  V30 1768 H 171.919 0.664661 -0.675965 0
M  V30 1769 H 171.625 2.85251 -2.0573 0
M  V30 1770 H 171.499 3.73251 -0.54439 0
M  V30 1771 H 173.886 2.95027 0.0654188 0
M  V30 1772 H 173.967 2.08808 -1.47759 0
M  V30 1773 H 173.611 4.29826 -2.70576 0
M  V30 1774 H 173.541 5.14156 -1.13804 0
M  V30 1775 H 176.032 3.58138 -1.20606 0
M  V30 1776 H 176.345 7.10029 -3.05087 0
M  V30 1777 H 174.69 6.38823 -2.73734 0
M  V30 1778 H 177.881 4.4086 -1.57353 0
M  V30 1779 H 178.054 6.01334 -2.41457 0
M  V30 1780 N 171.46 0.379036 1.52974 0
M  V30 1781 C 172.37 -0.468639 2.29872 0
M  V30 1782 C 173.386 -1.08067 1.36373 0
M  V30 1783 O 174.562 -1.08871 1.69438 0
M  V30 1784 C 171.627 -1.58594 3.083 0
M  V30 1785 C 170.688 -1.00007 4.17489 0
M  V30 1786 C 169.921 -2.06413 4.92168 0
M  V30 1787 O 170.144 -3.27751 4.66835 0
M  V30 1788 O 169.078 -1.68717 5.7777 0
M  V30 1789 H 172.904 0.157508 3.03291 0
M  V30 1790 H 170.489 0.143035 1.48714 0
M  V30 1791 H 172.371 -2.23525 3.57232 0
M  V30 1792 H 171.046 -2.19724 2.37703 0
M  V30 1793 H 169.953 -0.314299 3.72777 0
M  V30 1794 H 171.286 -0.433135 4.90291 0
M  V30 1795 N 172.938 -1.57226 0.108567 0
M  V30 1796 C 173.901 -2.13602 -0.831082 0
M  V30 1797 C 174.901 -1.06841 -1.20173 0
M  V30 1798 O 176.091 -1.32666 -1.12895 0
M  V30 1799 C 173.223 -2.66769 -2.12243 0
M  V30 1800 H 174.416 -2.97951 -0.341317 0
M  V30 1801 H 171.969 -1.55667 -0.14057 0
M  V30 1802 H 172.704 -1.85977 -2.65675 0
M  V30 1803 H 172.489 -3.44839 -1.86625 0
M  V30 1804 H 173.979 -3.10332 -2.79435 0
M  V30 1805 N 174.416 0.165178 -1.56732 0
M  V30 1806 C 175.346 1.20651 -1.99914 0
M  V30 1807 C 176.327 1.45827 -0.875705 0
M  V30 1808 O 177.512 1.57057 -1.14223 0
M  V30 1809 C 174.642 2.54401 -2.36427 0
M  V30 1810 C 173.596 2.43782 -3.51787 0
M  V30 1811 C 172.922 3.82078 -3.7406 0
M  V30 1812 C 174.222 1.93732 -4.85041 0
M  V30 1813 H 175.916 0.847534 -2.87154 0
M  V30 1814 H 173.462 0.40625 -1.38151 0
M  V30 1815 H 175.415 3.27458 -2.65234 0
M  V30 1816 H 174.139 2.92098 -1.46103 0
M  V30 1817 H 172.798 1.73178 -3.23117 0
M  V30 1818 H 172.446 4.17179 -2.81017 0
M  V30 1819 H 172.146 3.7584 -4.51684 0
M  V30 1820 H 173.67 4.56712 -4.05274 0
M  V30 1821 H 175.084 2.56569 -5.12684 0
M  V30 1822 H 173.481 1.98428 -5.66345 0
M  V30 1823 H 174.551 0.891962 -4.76626 0
M  V30 1824 N 175.894 1.51508 0.433938 0
M  V30 1825 C 176.857 1.72473 1.50949 0
M  V30 1826 C 177.857 0.594725 1.49398 0
M  V30 1827 O 179.047 0.862315 1.5136 0
M  V30 1828 C 176.179 1.78431 2.90474 0
M  V30 1829 H 177.372 2.68467 1.33662 0
M  V30 1830 H 174.925 1.41549 0.662836 0
M  V30 1831 H 175.66 0.842645 3.13161 0
M  V30 1832 H 175.445 2.60558 2.93005 0
M  V30 1833 H 176.935 1.96479 3.68491 0
M  V30 1834 N 177.372 -0.689602 1.41712 0
M  V30 1835 C 178.305 -1.81403 1.3845 0
M  V30 1836 C 179.283 -1.60653 0.250874 0
M  V30 1837 O 180.467 -1.83323 0.43874 0
M  V30 1838 C 177.594 -3.18176 1.1611 0
M  V30 1839 C 176.64 -3.57705 2.3227 0
M  V30 1840 S 177.473 -3.61827 3.94767 0
M  V30 1841 C 178.629 -5.01318 3.74742 0
M  V30 1842 H 178.862 -1.83893 2.33603 0
M  V30 1843 H 176.395 -0.858878 1.28307 0
M  V30 1844 H 178.353 -3.97132 1.03907 0
M  V30 1845 H 177.014 -3.13288 0.225668 0
M  V30 1846 H 176.207 -4.57082 2.12349 0
M  V30 1847 H 175.809 -2.86073 2.40911 0
M  V30 1848 H 178.101 -5.88986 3.34817 0
M  V30 1849 H 179.044 -5.26283 4.73743 0
M  V30 1850 H 179.452 -4.73138 3.07898 0
M  V30 1851 N 178.85 -1.27639 -0.924453 0
M  V30 1852 C 180.127 -1.04887 -1.651 0
M  V30 1853 C 180.507 0.415327 -2.06974 0
M  V30 1854 O 179.855 1.39923 -1.80648 0
M  V30 1855 C 180.065 -2.01348 -2.85061 0
M  V30 1856 C 181.413 -2.30899 -3.56329 0
M  V30 1857 O 182.437 -1.99348 -2.95193 0
M  V30 1858 O 181.296 -2.84699 -4.66485 0
M  V30 1859 H 178.39 -0.400083 -0.723784 0
M  V30 1860 H 180.936 -1.38916 -0.974703 0
M  V30 1861 H 179.708 -3.0008 -2.51133 0
M  V30 1862 H 179.331 -1.679 -3.6041 0
M  V30 1863 N 180.328 1.1314 -1.09713 0
M  V30 1864 C 181.739 1.66029 -0.853885 0
M  V30 1865 C 182.09 1.86241 0.617142 0
M  V30 1866 O 181.215 1.5834 1.47503 0
M  V30 1867 C 181.81 3.01599 -1.5435 0
M  V30 1868 C 180.369 3.51467 -1.34714 0
M  V30 1869 C 179.516 2.26648 -1.59769 0
M  V30 1870 H 182.467 0.970226 -1.25588 0
M  V30 1871 H 182.488 3.67709 -0.978267 0
M  V30 1872 H 182 2.86856 -2.6141 0
M  V30 1873 H 180.101 3.71408 -0.297838 0
M  V30 1874 H 180.214 4.314 -2.08401 0
M  V30 1875 H 178.578 2.33385 -1.01998 0
M  V30 1876 H 179.361 2.14467 -2.68065 0
M  V30 1877 N 181.806 0.884767 1.30421 0
M  V30 1878 C 182.738 0.308655 2.27112 0
M  V30 1879 C 183.751 -0.536655 1.53701 0
M  V30 1880 O 184.94 -0.35624 1.74909 0
M  V30 1881 C 182.04 -0.579782 3.33904 0
M  V30 1882 C 181.213 0.236417 4.36761 0
M  V30 1883 C 180.272 -0.582482 5.22966 0
M  V30 1884 O 179.298 -0.00525502 5.692 0
M  V30 1885 N 180.5 -1.89163 5.48815 0
M  V30 1886 H 183.265 1.13964 2.77186 0
M  V30 1887 H 180.826 0.747731 1.43599 0
M  V30 1888 H 182.818 -1.13366 3.88497 0
M  V30 1889 H 181.388 -1.31144 2.83761 0
M  V30 1890 H 180.608 0.97174 3.82035 0
M  V30 1891 H 181.896 0.795924 5.02536 0
M  V30 1892 H 181.294 -2.38352 5.13035 0
M  V30 1893 H 179.851 -2.39296 6.06284 0
M  V30 1894 N 183.284 -1.43765 0.645699 0
M  V30 1895 C 184.216 -2.29027 -0.0890605 0
M  V30 1896 C 185.229 -1.42093 -0.794563 0
M  V30 1897 O 186.418 -1.66104 -0.653575 0
M  V30 1898 C 183.518 -3.18831 -1.14891 0
M  V30 1899 C 182.691 -4.34261 -0.523043 0
M  V30 1900 C 181.75 -5.04994 -1.47878 0
M  V30 1901 O 180.776 -5.6052 -0.990277 0
M  V30 1902 N 181.978 -5.07795 -2.81291 0
M  V30 1903 H 184.743 -2.92727 0.64272 0
M  V30 1904 H 182.304 -1.54373 0.487924 0
M  V30 1905 H 184.296 -3.63015 -1.78892 0
M  V30 1906 H 182.866 -2.56782 -1.78275 0
M  V30 1907 H 182.086 -3.93088 0.295896 0
M  V30 1908 H 183.374 -5.08728 -0.0858147 0
M  V30 1909 H 182.772 -4.64042 -3.23546 0
M  V30 1910 H 181.329 -5.55721 -3.40614 0
M  V30 1911 N 184.763 -0.387143 -1.52771 0
M  V30 1912 C 186.179 -0.037007 -1.59557 0
M  V30 1913 C 186.379 1.44801 -1.40124 0
M  V30 1914 O 185.435 2.21227 -1.21716 0
M  V30 1915 C 186.748 -0.512256 -2.96305 0
M  V30 1916 C 188.296 -0.468328 -3.09476 0
M  V30 1917 C 188.771 -0.919731 -4.4867 0
M  V30 1918 N 190.262 -0.875656 -4.54848 0
M  V30 1919 C 190.997 -1.19637 -5.6078 0
M  V30 1920 N 190.493 -1.58745 -6.74368 0
M  V30 1921 N 192.286 -1.11776 -5.50874 0
M  V30 1922 H 184.437 -1.35395 -1.63652 0
M  V30 1923 H 186.7 -0.554818 -0.768688 0
M  V30 1924 H 186.406 -1.54935 -3.15734 0
M  V30 1925 H 186.28 0.089805 -3.77093 0
M  V30 1926 H 188.667 0.559671 -2.89744 0
M  V30 1927 H 188.748 -1.10616 -2.30646 0
M  V30 1928 H 188.392 -1.94595 -4.69143 0
M  V30 1929 H 188.322 -0.258927 -5.25963 0
M  V30 1930 H 190.813 -0.587843 -3.733 0
M  V30 1931 H 191.126 -1.81586 -7.51163 0
M  V30 1932 H 189.471 -1.6263 -6.75705 0
M  V30 1933 H 192.662 -0.811264 -4.61016 0
M  V30 1934 H 192.835 -1.37103 -6.3333 0
M  V30 1935 N 186.241 1.57166 -0.116904 0
M  V30 1936 C 187.173 2.12271 0.864507 0
M  V30 1937 C 188.186 1.06494 1.23138 0
M  V30 1938 O 189.375 1.33873 1.18069 0
M  V30 1939 C 186.475 2.60564 2.16702 0
M  V30 1940 C 185.648 3.90416 1.97216 0
M  V30 1941 C 184.707 4.24329 3.11178 0
M  V30 1942 O 183.733 4.93182 2.84184 0
M  V30 1943 N 184.935 3.8148 4.37554 0
M  V30 1944 H 187.7 2.97102 0.393726 0
M  V30 1945 H 185.261 1.61759 0.0675805 0
M  V30 1946 H 187.253 2.80282 2.91932 0
M  V30 1947 H 185.823 1.80623 2.55135 0
M  V30 1948 H 185.043 3.79627 1.06192 0
M  V30 1949 H 186.331 4.75327 1.81499 0
M  V30 1950 H 185.729 3.25943 4.62361 0
M  V30 1951 H 184.286 4.06311 5.09661 0
M  V30 1952 N 187.719 -0.156864 1.56817 0
M  V30 1953 C 188.649 -1.19589 2.00551 0
M  V30 1954 C 189.63 -1.4536 0.883426 0
M  V30 1955 O 190.815 -1.56449 1.15054 0
M  V30 1956 C 187.945 -2.53143 2.37773 0
M  V30 1957 C 186.899 -2.41913 3.53075 0
M  V30 1958 C 186.225 -3.80088 3.76081 0
M  V30 1959 C 187.525 -1.91157 4.86062 0
M  V30 1960 H 189.219 -0.832293 2.87599 0
M  V30 1961 H 186.765 -0.398918 1.38364 0
M  V30 1962 H 188.718 -3.26047 2.66967 0
M  V30 1963 H 187.442 -2.91319 1.4765 0
M  V30 1964 H 186.101 -1.71462 3.24031 0
M  V30 1965 H 185.749 -4.15683 2.83225 0
M  V30 1966 H 185.449 -3.73439 4.53671 0
M  V30 1967 H 186.973 -4.54556 4.0769 0
M  V30 1968 H 188.387 -2.53846 5.14038 0
M  V30 1969 H 186.784 -1.95422 5.67389 0
M  V30 1970 H 187.854 -0.866673 4.77092 0
M  V30 1971 N 189.197 -1.51736 -0.425897 0
M  V30 1972 C 190.127 -1.76827 -1.52494 0
M  V30 1973 C 191.108 -0.618524 -1.58456 0
M  V30 1974 O 192.293 -0.862416 -1.74 0
M  V30 1975 C 189.423 -1.90374 -2.90474 0
M  V30 1976 C 188.377 -3.0588 -2.99369 0
M  V30 1977 C 187.703 -3.04625 -4.3944 0
M  V30 1978 C 189.003 -4.45644 -2.72394 0
M  V30 1979 H 190.697 -2.68855 -1.31748 0
M  V30 1980 H 188.243 -1.29372 -0.632362 0
M  V30 1981 H 190.196 -2.0651 -3.6733 0
M  V30 1982 H 188.92 -0.95004 -3.12477 0
M  V30 1983 H 187.579 -2.89467 -2.24954 0
M  V30 1984 H 187.227 -2.0701 -4.58428 0
M  V30 1985 H 186.927 -3.82195 -4.46319 0
M  V30 1986 H 188.451 -3.22869 -5.18255 0
M  V30 1987 H 189.865 -4.62348 -3.38979 0
M  V30 1988 H 188.262 -5.25006 -2.9067 0
M  V30 1989 H 189.332 -4.54893 -1.67929 0
M  V30 1990 N 190.675 0.682077 -1.42076 0
M  V30 1991 C 191.585 1.82535 -1.47371 0
M  V30 1992 C 192.601 1.7017 -0.363079 0
M  V30 1993 O 193.777 1.91848 -0.612875 0
M  V30 1994 C 190.842 3.18624 -1.36674 0
M  V30 1995 C 189.903 3.42999 -2.58167 0
M  V30 1996 C 189.136 4.72595 -2.4797 0
M  V30 1997 O 189.359 5.50006 -1.5116 0
M  V30 1998 O 188.293 4.98054 -3.37974 0
M  V30 1999 H 192.119 1.81023 -2.43853 0
M  V30 2000 H 189.704 0.836887 -1.2376 0
M  V30 2001 H 191.586 3.99847 -1.33043 0
M  V30 2002 H 190.261 3.20789 -0.433138 0
M  V30 2003 H 189.168 2.61653 -2.67373 0
M  V30 2004 H 190.501 3.45659 -3.50401 0
M  V30 2005 N 192.153 1.28127 0.917671 0
M  V30 2006 C 193.116 1.11744 2.00115 0
M  V30 2007 C 194.116 0.0583052 1.60694 0
M  V30 2008 O 195.306 0.303755 1.71531 0
M  V30 2009 C 192.438 0.704862 3.33533 0
M  V30 2010 H 193.631 2.07966 2.16079 0
M  V30 2011 H 191.184 1.11058 1.09981 0
M  V30 2012 H 191.919 -0.258299 3.2327 0
M  V30 2013 H 191.704 1.4699 3.63505 0
M  V30 2014 H 193.194 0.612768 4.1308 0
M  V30 2015 N 193.631 -1.12557 1.10312 0
M  V30 2016 C 194.856 -1.88405 0.867085 0
M  V30 2017 C 195.281 -1.79038 -0.576817 0
M  V30 2018 O 194.639 -1.14439 -1.40618 0
M  V30 2019 C 194.687 -3.3563 1.31851 0
M  V30 2020 O 193.791 -4.09565 0.482734 0
M  V30 2021 H 193.132 -0.585455 0.313271 0
M  V30 2022 H 195.662 -1.42352 1.4696 0
M  V30 2023 H 195.672 -3.86469 1.3079 0
M  V30 2024 H 194.347 -3.41765 2.37001 0
M  V30 2025 H 192.924 -3.68695 0.558448 0
M  V30 2026 N 195.109 -0.891671 -1.2995 0
M  V30 2027 C 196.355 -0.523649 -1.96544 0
M  V30 2028 C 196.71 0.918394 -1.69066 0
M  V30 2029 O 196.003 1.64122 -0.988659 0
M  V30 2030 C 196.197 -0.742868 -3.49594 0
M  V30 2031 C 196.026 -2.20467 -3.9195 0
M  V30 2032 C 194.796 -2.85055 -4.17219 0
M  V30 2033 C 196.994 -3.17912 -4.04273 0
M  V30 2034 N 194.976 -4.21762 -4.46083 0
M  V30 2035 C 196.347 -4.39712 -4.37097 0
M  V30 2036 C 198.402 -3.1361 -3.86721 0
M  V30 2037 C 197.105 -5.5776 -4.54199 0
M  V30 2038 C 199.131 -4.30936 -4.05028 0
M  V30 2039 C 198.493 -5.51504 -4.38204 0
M  V30 2040 H 194.592 -0.241072 -0.743914 0
M  V30 2041 H 197.176 -1.15081 -1.5705 0
M  V30 2042 H 195.347 -0.14515 -3.88129 0
M  V30 2043 H 197.079 -0.341081 -4.0326 0
M  V30 2044 H 193.834 -2.35889 -4.10674 0
M  V30 2045 H 194.258 -4.92382 -4.64638 0
M  V30 2046 H 198.9 -2.21489 -3.60142 0
M  V30 2047 H 196.618 -6.50379 -4.79618 0
M  V30 2048 H 200.204 -4.29085 -3.92909 0
M  V30 2049 H 199.084 -6.40778 -4.52077 0
M  V30 2050 N 196.587 1.43421 -0.653314 0
M  V30 2051 C 197.497 2.34568 0.0388565 0
M  V30 2052 C 198.513 1.53888 0.81207 0
M  V30 2053 O 199.689 1.86539 0.759294 0
M  V30 2054 C 196.754 3.32167 0.993269 0
M  V30 2055 C 195.815 4.28751 0.216977 0
M  V30 2056 C 195.048 5.21688 1.12593 0
M  V30 2057 O 195.271 5.19052 2.36519 0
M  V30 2058 O 194.205 5.98919 0.598284 0
M  V30 2059 H 198.031 2.95251 -0.711386 0
M  V30 2060 H 195.616 1.43564 -0.413502 0
M  V30 2061 H 197.498 3.92183 1.54176 0
M  V30 2062 H 196.173 2.73987 1.72374 0
M  V30 2063 H 195.08 3.72215 -0.375101 0
M  V30 2064 H 196.413 4.89913 -0.473924 0
M  V30 2065 N 198.065 0.39524 1.52563 0
M  V30 2066 C 199.311 -0.185318 2.01952 0
M  V30 2067 C 199.644 -1.45964 1.28095 0
M  V30 2068 O 198.919 -1.90689 0.38315 0
M  V30 2069 C 199.202 -0.447193 3.57312 0
M  V30 2070 C 199.055 0.842828 4.41833 0
M  V30 2071 C 200.374 -1.23529 4.22408 0
M  V30 2072 H 197.493 -0.0658788 0.73405 0
M  V30 2073 H 200.135 0.525975 1.82575 0
M  V30 2074 H 198.285 -1.05312 3.73954 0
M  V30 2075 H 199.957 1.4795 4.36931 0
M  V30 2076 H 198.2 1.45686 4.08605 0
M  V30 2077 H 198.871 0.614165 5.48573 0
M  V30 2078 H 201.347 -0.722445 4.0978 0
M  V30 2079 H 200.223 -1.38727 5.3108 0
M  V30 2080 H 200.484 -2.25213 3.80436 0
M  V30 2081 N 199.544 -1.57102 0.125237 0
M  V30 2082 C 200.791 -1.95407 -0.531248 0
M  V30 2083 C 201.119 -1.0089 -1.66287 0
M  V30 2084 O 200.374 -0.0339431 -1.95671 0
M  V30 2085 C 200.673 -3.40096 -1.09862 0
M  V30 2086 C 200.339 -4.50815 -0.0876989 0
M  V30 2087 C 199.001 -4.80824 0.19026 0
M  V30 2088 C 201.353 -5.17724 0.600902 0
M  V30 2089 C 198.681 -5.75058 1.163 0
M  V30 2090 C 201.033 -6.13005 1.56231 0
M  V30 2091 C 199.697 -6.41403 1.8482 0
M  V30 2092 H 198.967 -0.715046 -0.194397 0
M  V30 2093 H 201.614 -1.90373 0.207463 0
M  V30 2094 H 199.919 -3.41855 -1.91422 0
M  V30 2095 H 201.616 -3.6705 -1.61478 0
M  V30 2096 H 198.206 -4.27444 -0.314528 0
M  V30 2097 H 202.39 -4.94691 0.399333 0
M  V30 2098 H 197.646 -5.95362 1.39117 0
M  V30 2099 H 201.82 -6.63934 2.10153 0
M  V30 2100 H 199.447 -7.14229 2.60349 0
M  V30 2101 N 201.022 0.148545 -1.56898 0
M  V30 2102 C 201.932 1.20293 -2.01412 0
M  V30 2103 C 202.948 1.47107 -0.929273 0
M  V30 2104 O 204.124 1.58807 -1.23863 0
M  V30 2105 C 201.189 2.51682 -2.38447 0
M  V30 2106 C 200.25 2.32529 -3.60872 0
M  V30 2107 C 199.483 3.57653 -3.96132 0
M  V30 2108 O 199.706 4.63771 -3.32073 0
M  V30 2109 O 198.64 3.50408 -4.89385 0
M  V30 2110 H 202.466 0.855025 -2.91416 0
M  V30 2111 H 200.051 0.357151 -1.45068 0
M  V30 2112 H 201.933 3.29147 -2.63135 0
M  V30 2113 H 200.608 2.86006 -1.51599 0
M  V30 2114 H 199.515 1.53019 -3.41373 0
M  V30 2115 H 200.848 2.03121 -4.48333 0
M  V30 2116 N 202.5 1.5196 0.417844 0
M  V30 2117 C 203.916 1.40569 0.755816 0
M  V30 2118 C 204.116 0.503316 1.95113 0
M  V30 2119 O 203.172 -0.0341925 2.52477 0
M  V30 2120 C 204.485 2.82947 1.01791 0
M  V30 2121 C 206.033 2.92231 1.12116 0
M  V30 2122 C 206.508 4.35559 1.41608 0
M  V30 2123 N 207.999 4.38753 1.48491 0
M  V30 2124 C 208.734 5.46705 1.7292 0
M  V30 2125 N 208.23 6.64788 1.95011 0
M  V30 2126 N 210.023 5.34209 1.74863 0
M  V30 2127 H 202.174 2.09168 -0.369098 0
M  V30 2128 H 204.437 0.942409 -0.102809 0
M  V30 2129 H 204.143 3.5106 0.212081 0
M  V30 2130 H 204.017 3.23462 1.94042 0
M  V30 2131 H 206.404 2.24304 1.9176 0
M  V30 2132 H 206.485 2.55185 0.177225 0
M  V30 2133 H 206.129 5.04042 0.624848 0
M  V30 2134 H 206.059 4.70133 2.37239 0
M  V30 2135 H 208.55 3.5363 1.33244 0
M  V30 2136 H 208.863 7.42845 2.13076 0
M  V30 2137 H 207.208 6.67869 1.92293 0
M  V30 2138 H 210.399 4.40937 1.57137 0
M  V30 2139 H 210.572 6.18415 1.93563 0
M  V30 2140 N 203.978 -0.674533 1.42435 0
M  V30 2141 C 204.941 -1.76986 1.45632 0
M  V30 2142 C 205.941 -1.5708 0.343871 0
M  V30 2143 O 207.131 -1.63367 0.604709 0
M  V30 2144 C 204.263 -3.15623 1.28822 0
M  V30 2145 H 205.456 -1.75539 2.43158 0
M  V30 2146 H 203.009 -0.884189 1.28887 0
M  V30 2147 H 203.744 -3.22696 0.322193 0
M  V30 2148 H 203.529 -3.31475 2.09444 0
M  V30 2149 H 205.019 -3.95537 1.33942 0
M  V30 2150 N 205.456 -1.28612 -0.910864 0
M  V30 2151 C 206.704 -1.15705 -1.65701 0
M  V30 2152 C 207.025 0.29416 -1.92769 0
M  V30 2153 O 206.295 1.20331 -1.54588 0
M  V30 2154 H 204.875 -0.425216 -0.614167 0
M  V30 2155 H 207.537 -1.61381 -1.0928 0
M  V30 2156 H 206.633 -1.6988 -2.61815 0
M  V30 2157 N 206.934 1.1197 -1.10907 0
M  V30 2158 C 208.183 1.82947 -0.849302 0
M  V30 2159 C 208.496 1.85275 0.627112 0
M  V30 2160 O 209.702 2.52296 1.00295 0
M  V30 2161 C 208.158 3.28529 -1.46959 0
M  V30 2162 C 207.766 3.34546 -2.97965 0
M  V30 2163 C 209.51 4.04443 -1.28942 0
M  V30 2164 C 207.417 4.74491 -3.53004 0
M  V30 2165 H 206.347 0.685477 -0.314065 0
M  V30 2166 H 208.998 1.2604 -1.33365 0
M  V30 2167 H 207.38 3.85333 -0.912917 0
M  V30 2168 H 208.554 2.87654 -3.59989 0
M  V30 2169 H 206.869 2.72108 -3.15192 0
M  V30 2170 H 209.466 5.07787 -1.67502 0
M  V30 2171 H 209.809 4.15656 -0.231456 0
M  V30 2172 H 210.342 3.5401 -1.81443 0
M  V30 2173 H 207.081 4.68474 -4.58489 0
M  V30 2174 H 206.601 5.21816 -2.9575 0
M  V30 2175 H 208.28 5.4344 -3.51115 0
M  V30 2176 N 208.412 0.89855 1.29475 0
M  V30 2177 C 209.689 0.443416 1.90508 0
M  V30 2178 C 210.069 -1.07685 1.81569 0
M  V30 2179 O 209.417 -1.9182 1.24166 0
M  V30 2180 C 209.627 0.956708 3.35631 0
M  V30 2181 C 210.975 0.999728 4.12663 0
M  V30 2182 O 211.999 0.904299 3.4453 0
M  V30 2183 O 210.858 1.14289 5.34416 0
M  V30 2184 H 207.952 0.138025 0.815401 0
M  V30 2185 H 210.498 0.98834 1.37949 0
M  V30 2186 H 209.27 2.00067 3.36287 0
M  V30 2187 H 208.893 0.391728 3.95666 0
M  V30 2188 N 209.89 -1.43072 0.660911 0
M  V30 2189 C 211.301 -1.84932 0.256348 0
M  V30 2190 C 211.652 -1.55325 -1.19868 0
M  V30 2191 O 210.777 -1.00607 -1.91591 0
M  V30 2192 C 211.372 -3.35684 0.458475 0
M  V30 2193 C 209.931 -3.76245 0.108161 0
M  V30 2194 C 209.078 -2.66749 0.757641 0
M  V30 2195 H 212.029 -1.33116 0.864051 0
M  V30 2196 H 212.05 -3.79365 -0.293683 0
M  V30 2197 H 211.562 -3.572 1.51755 0
M  V30 2198 H 209.663 -3.60338 -0.948014 0
M  V30 2199 H 209.776 -4.76058 0.538992 0
M  V30 2200 H 208.14 -2.53989 0.190185 0
M  V30 2201 H 208.923 -2.91092 1.81989 0
M  V30 2202 N 211.368 -0.403325 -1.52352 0
M  V30 2203 C 212.331 0.413051 -2.25447 0
M  V30 2204 C 213.331 0.978513 -1.276 0
M  V30 2205 O 214.521 0.858305 -1.51587 0
M  V30 2206 C 211.653 1.58087 -3.02029 0
M  V30 2207 H 212.846 -0.227094 -2.99039 0
M  V30 2208 H 210.399 -0.155722 -1.55522 0
M  V30 2209 H 211.134 2.25804 -2.32772 0
M  V30 2210 H 210.919 1.18195 -3.73861 0
M  V30 2211 H 212.409 2.1585 -3.57489 0
M  V30 2212 N 212.846 1.57033 -0.133567 0
M  V30 2213 C 214.071 2.00475 0.531477 0
M  V30 2214 C 214.496 1.01291 1.58499 0
M  V30 2215 O 213.854 -0.0133279 1.81295 0
M  V30 2216 C 213.902 3.42729 1.12113 0
M  V30 2217 O 213.006 3.46498 2.23636 0
M  V30 2218 H 212.347 0.650876 0.131362 0
M  V30 2219 H 214.877 2.03344 -0.22634 0
M  V30 2220 H 214.887 3.81246 1.4531 0
M  V30 2221 H 213.562 4.14428 0.349557 0
M  V30 2222 H 212.139 3.19811 1.91769 0
M  V30 2223 N 214.325 -0.140222 1.56975 0
M  V30 2224 C 215.571 -0.852949 1.83991 0
M  V30 2225 C 215.904 -1.80512 0.716187 0
M  V30 2226 O 215.179 -1.92479 -0.279681 0
M  V30 2227 C 215.462 -1.6215 3.21527 0
M  V30 2228 C 215.315 -0.690363 4.4447 0
M  V30 2229 C 216.634 -2.58247 3.56366 0
M  V30 2230 H 213.753 -0.308634 0.669264 0
M  V30 2231 H 216.395 -0.117898 1.89634 0
M  V30 2232 H 214.545 -2.24812 3.16847 0
M  V30 2233 H 216.217 -0.0742264 4.6124 0
M  V30 2234 H 214.46 -0.000396433 4.338 0
M  V30 2235 H 215.131 -1.2643 5.37326 0
M  V30 2236 H 217.607 -2.05701 3.61699 0
M  V30 2237 H 216.483 -3.09067 4.53617 0
M  V30 2238 H 216.744 -3.39923 2.82674 0
M  V30 2239 N 215.803 -1.52179 -0.40978 0
M  V30 2240 C 217.219 -1.40968 -0.74835 0
M  V30 2241 C 217.419 -0.513657 -1.94843 0
M  V30 2242 O 216.475 0.0208026 -2.52491 0
M  V30 2243 C 217.788 -2.83483 -1.0029 0
M  V30 2244 C 219.336 -2.92821 -1.10565 0
M  V30 2245 C 219.811 -4.36303 -1.39296 0
M  V30 2246 N 221.302 -4.39535 -1.46162 0
M  V30 2247 C 222.037 -5.47614 -1.70018 0
M  V30 2248 N 221.533 -6.65812 -1.91483 0
M  V30 2249 N 223.326 -5.35129 -1.72027 0
M  V30 2250 H 215.477 -2.0897 0.380186 0
M  V30 2251 H 217.74 -0.94185 0.107805 0
M  V30 2252 H 217.446 -3.51168 -0.193461 0
M  V30 2253 H 217.32 -3.24487 -1.92323 0
M  V30 2254 H 219.707 -2.25318 -1.90568 0
M  V30 2255 H 219.788 -2.55276 -0.16369 0
M  V30 2256 H 219.432 -5.04366 -0.598109 0
M  V30 2257 H 219.362 -4.71385 -2.34743 0
M  V30 2258 H 221.853 -3.54332 -1.31367 0
M  V30 2259 H 222.166 -7.43964 -2.09134 0
M  V30 2260 H 220.511 -6.68879 -1.88749 0
M  V30 2261 H 223.702 -4.41764 -1.54796 0
M  V30 2262 H 223.875 -6.19433 -1.9028 0
M  V30 2263 N 217.281 0.66697 -1.42791 0
M  V30 2264 C 218.529 1.42417 -1.43394 0
M  V30 2265 C 218.85 1.94925 -0.0542373 0
M  V30 2266 O 218.12 1.73564 0.908415 0
M  V30 2267 H 216.7 0.528515 -0.527902 0
M  V30 2268 H 219.362 0.787562 -1.78279 0
M  V30 2269 H 218.458 2.27333 -2.13837 0
M  V30 2270 N 218.759 1.29093 0.90403 0
M  V30 2271 C 219.987 1.19689 1.68766 0
M  V30 2272 C 220.402 -0.243113 1.87228 0
M  V30 2273 O 219.759 -1.16326 1.40621 0
M  V30 2274 C 219.81 1.90144 3.07453 0
M  V30 2275 O 219.531 3.2852 2.89838 0
M  V30 2276 C 221.032 1.87162 4.01852 0
M  V30 2277 H 218.252 0.415035 0.527244 0
M  V30 2278 H 220.796 1.7039 1.13082 0
M  V30 2279 H 218.951 1.43289 3.59926 0
M  V30 2280 H 219.365 3.63944 3.77684 0
M  V30 2281 H 220.839 2.41032 4.96596 0
M  V30 2282 H 221.316 0.84617 4.30972 0
M  V30 2283 H 221.922 2.33741 3.5531 0
M  V30 2284 N 220.237 -1.11381 1.11499 0
M  V30 2285 C 221.514 -1.7955 0.775965 0
M  V30 2286 C 221.894 -1.97859 -0.73588 0
M  V30 2287 O 221.242 -1.56376 -1.66609 0
M  V30 2288 C 221.452 -3.13196 1.53977 0
M  V30 2289 C 222.8 -3.88227 1.71944 0
M  V30 2290 O 223.824 -3.22887 1.50407 0
M  V30 2291 O 222.683 -5.05477 2.07738 0
M  V30 2292 H 219.777 -0.777728 0.28119 0
M  V30 2293 H 222.323 -1.18118 1.21845 0
M  V30 2294 H 221.095 -2.95229 2.56818 0
M  V30 2295 H 220.718 -3.82342 1.09088 0
M  V30 2296 N 221.715 -0.905404 -1.28997 0
M  V30 2297 C 222.961 -0.535039 -1.95615 0
M  V30 2298 C 223.294 0.917404 -1.71165 0
M  V30 2299 O 222.569 1.65123 -1.02785 0
M  V30 2300 C 222.852 -0.834918 -3.50287 0
M  V30 2301 C 222.705 -2.33948 -3.84172 0
M  V30 2302 C 224.024 -0.325318 -4.38896 0
M  V30 2303 H 221.143 -0.195861 -0.710498 0
M  V30 2304 H 223.785 -1.13313 -1.52513 0
M  V30 2305 H 221.935 -0.325904 -3.87131 0
M  V30 2306 H 223.607 -2.91847 -3.57243 0
M  V30 2307 H 221.85 -2.79789 -3.31513 0
M  V30 2308 H 222.521 -2.49987 -4.92149 0
M  V30 2309 H 224.997 -0.761256 -4.09077 0
M  V30 2310 H 223.873 -0.564295 -5.45992 0
M  V30 2311 H 224.134 0.774144 -4.35269 0
M  V30 2312 N 223.193 1.4272 -0.668489 0
M  V30 2313 C 224.441 2.01226 -0.187769 0
M  V30 2314 C 224.762 1.53092 1.2078 0
M  V30 2315 O 224.032 0.74993 1.80977 0
M  V30 2316 H 222.612 0.744041 -0.0664272 0
M  V30 2317 H 225.274 1.74723 -0.863583 0
M  V30 2318 H 224.37 3.11556 -0.184166 0
M  V30 2319 N 224.671 0.411399 1.52136 0
M  V30 2320 C 225.917 -0.163888 2.02137 0
M  V30 2321 C 226.25 -1.44597 1.29636 0
M  V30 2322 O 225.525 -1.90272 0.403353 0
M  V30 2323 C 225.808 -0.40927 3.57767 0
M  V30 2324 C 225.661 0.889643 4.40914 0
M  V30 2325 C 226.98 -1.19042 4.23694 0
M  V30 2326 H 224.099 -0.0580896 0.734707 0
M  V30 2327 H 226.741 0.54531 1.82007 0
M  V30 2328 H 224.891 -1.0134 3.7505 0
M  V30 2329 H 226.563 1.52575 4.35337 0
M  V30 2330 H 224.806 1.50011 4.07037 0
M  V30 2331 H 225.477 0.672314 5.4789 0
M  V30 2332 H 227.953 -0.678942 4.10524 0
M  V30 2333 H 226.829 -1.33086 5.32522 0
M  V30 2334 H 227.09 -2.21166 3.82803 0
M  V30 2335 N 226.149 -1.5696 0.141893 0
M  V30 2336 C 227.379 -2.00031 -0.516828 0
M  V30 2337 C 227.787 -1.02091 -1.59293 0
M  V30 2338 O 227.13 -0.00909657 -1.83698 0
M  V30 2339 C 227.192 -3.39534 -1.1814 0
M  V30 2340 C 226.856 -4.56313 -0.250513 0
M  V30 2341 C 227.853 -5.17295 0.519839 0
M  V30 2342 C 225.538 -5.02061 -0.154907 0
M  V30 2343 C 227.532 -6.2243 1.3733 0
M  V30 2344 C 225.219 -6.07053 0.702161 0
M  V30 2345 C 226.217 -6.67106 1.46487 0
M  V30 2346 O 225.905 -7.70066 2.30767 0
M  V30 2347 H 225.637 -0.661451 -0.139493 0
M  V30 2348 H 228.191 -2.04086 0.231926 0
M  V30 2349 H 226.421 -3.32302 -1.97769 0
M  V30 2350 H 228.11 -3.66745 -1.73933 0
M  V30 2351 H 228.876 -4.82852 0.45598 0
M  V30 2352 H 224.755 -4.5505 -0.7383 0
M  V30 2353 H 228.299 -6.69233 1.96909 0
M  V30 2354 H 224.196 -6.40923 0.76733 0
M  V30 2355 H 224.964 -7.87264 2.23959 0
M  V30 2356 N 227.627 0.131896 -1.57047 0
M  V30 2357 C 228.873 0.843179 -1.84441 0
M  V30 2358 C 229.206 1.80129 -0.725749 0
M  V30 2359 O 228.481 1.92624 0.269469 0
M  V30 2360 C 228.764 1.60442 -3.22382 0
M  V30 2361 C 228.617 0.666782 -4.4483 0
M  V30 2362 C 229.936 2.56354 -3.5773 0
M  V30 2363 H 227.055 0.305081 -0.670891 0
M  V30 2364 H 229.697 0.107839 -1.89694 0
M  V30 2365 H 227.847 2.23128 -3.18035 0
M  V30 2366 H 229.519 0.0497646 -4.61273 0
M  V30 2367 H 227.762 -0.022609 -4.33794 0
M  V30 2368 H 228.433 1.23579 -5.37989 0
M  V30 2369 H 230.909 2.0378 -3.62785 0
M  V30 2370 H 229.785 3.06657 -4.5525 0
M  V30 2371 H 230.046 3.38419 -2.84473 0
M  V30 2372 N 229.106 1.52395 0.401703 0
M  V30 2373 C 230.354 1.66488 1.14569 0
M  V30 2374 C 230.675 0.400897 1.90835 0
M  V30 2375 O 229.945 -0.584415 1.8698 0
M  V30 2376 H 228.525 0.613672 0.425929 0
M  V30 2377 H 231.187 1.89464 0.457093 0
M  V30 2378 H 230.283 2.50942 1.85566 0
M  V30 2379 N 230.584 -0.659388 1.43143 0
M  V30 2380 C 231.824 -1.43121 1.45931 0
M  V30 2381 C 232.188 -1.91838 0.0789298 0
M  V30 2382 O 233.389 -2.68794 -0.018491 0
M  V30 2383 C 231.66 -2.58534 2.46769 0
M  V30 2384 S 233.219 -3.47154 2.68384 0
M  V30 2385 H 230.037 -0.488624 0.516496 0
M  V30 2386 H 232.639 -0.766128 1.79863 0
M  V30 2387 H 231.343 -2.21007 3.45809 0
M  V30 2388 H 230.874 -3.29898 2.14315 0
M  V30 2389 H 232.889 -4.55051 1.97845 0
M  V30 2390 N 232.062 -1.29571 -0.897171 0
M  V30 2391 C 233.31 -1.17456 -1.64464 0
M  V30 2392 C 233.631 0.273698 -1.9307 0
M  V30 2393 O 232.901 1.18684 -1.55855 0
M  V30 2394 H 231.481 -0.431706 -0.609622 0
M  V30 2395 H 234.143 -1.62531 -1.07562 0
M  V30 2396 H 233.239 -1.72648 -2.59998 0
M  V30 2397 N 233.54 1.10788 -1.12088 0
M  V30 2398 C 234.77 1.86191 -0.895351 0
M  V30 2399 C 235.178 1.80763 0.558702 0
M  V30 2400 O 234.521 1.19188 1.39785 0
M  V30 2401 C 234.583 3.35659 -1.28737 0
M  V30 2402 C 234.247 3.64849 -2.75198 0
M  V30 2403 C 235.244 3.61757 -3.734 0
M  V30 2404 C 232.929 3.93641 -3.12013 0
M  V30 2405 C 234.923 3.87045 -5.06434 0
M  V30 2406 C 232.61 4.18585 -4.4523 0
M  V30 2407 C 233.608 4.15277 -5.42249 0
M  V30 2408 O 233.296 4.3959 -6.73065 0
M  V30 2409 H 233.028 0.595425 -0.32007 0
M  V30 2410 H 235.582 1.40992 -1.49367 0
M  V30 2411 H 233.812 3.81497 -0.63224 0
M  V30 2412 H 235.501 3.92441 -1.03656 0
M  V30 2413 H 236.267 3.39557 -3.46303 0
M  V30 2414 H 232.146 3.95348 -2.37109 0
M  V30 2415 H 235.69 3.84378 -5.82151 0
M  V30 2416 H 231.587 4.40264 -4.72057 0
M  V30 2417 H 232.355 4.57123 -6.78956 0
M  V30 2418 N 235.018 0.912232 1.28515 0
M  V30 2419 C 235.95 0.35676 2.26406 0
M  V30 2420 C 236.963 -0.503933 1.54804 0
M  V30 2421 O 238.152 -0.319059 1.75625 0
M  V30 2422 C 235.252 -0.508825 3.35058 0
M  V30 2423 C 234.425 0.329007 4.36161 0
M  V30 2424 C 233.484 -0.471422 5.24084 0
M  V30 2425 O 232.51 0.115482 5.69083 0
M  V30 2426 N 233.712 -1.77479 5.52704 0
M  V30 2427 H 236.477 1.19818 2.74707 0
M  V30 2428 H 234.038 0.778022 1.4198 0
M  V30 2429 H 236.03 -1.051 3.90815 0
M  V30 2430 H 234.6 -1.25095 2.86478 0
M  V30 2431 H 233.82 1.05256 3.79888 0
M  V30 2432 H 235.108 0.90234 5.00735 0
M  V30 2433 H 234.506 -2.27417 5.17975 0
M  V30 2434 H 233.063 -2.26382 6.11224 0
M  V30 2435 N 236.496 -1.42363 0.676048 0
M  V30 2436 C 237.773 -1.95183 0.127726 0
M  V30 2437 C 238.153 -1.61641 -1.35777 0
M  V30 2438 O 237.501 -0.913216 -2.09458 0
M  V30 2439 C 237.711 -3.46721 0.398199 0
M  V30 2440 C 239.059 -4.23427 0.315383 0
M  V30 2441 O 240.083 -3.54649 0.332016 0
M  V30 2442 O 238.942 -5.45888 0.25865 0
M  V30 2443 H 236.036 -0.826992 0.00359427 0
M  V30 2444 H 238.582 -1.52184 0.750864 0
M  V30 2445 H 237.354 -3.64344 1.4272 0
M  V30 2446 H 236.977 -3.96769 -0.256885 0
M  V30 2447 N 237.974 -0.419461 -1.51915 0
M  V30 2448 C 239.204 0.151915 -2.06041 0
M  V30 2449 C 239.612 1.38539 -1.28855 0
M  V30 2450 O 238.955 1.80592 -0.336463 0
M  V30 2451 C 239.017 0.557119 -3.55157 0
M  V30 2452 C 238.681 -0.567054 -4.53468 0
M  V30 2453 C 239.678 -1.43379 -4.99738 0
M  V30 2454 C 237.363 -0.742693 -4.96779 0
M  V30 2455 C 239.357 -2.46102 -5.87973 0
M  V30 2456 C 237.044 -1.77322 -5.84808 0
M  V30 2457 C 238.042 -2.63078 -6.30301 0
M  V30 2458 O 237.73 -3.64364 -7.16585 0
M  V30 2459 H 237.462 0.0193293 -0.675724 0
M  V30 2460 H 240.016 -0.592073 -1.96682 0
M  V30 2461 H 238.246 1.35355 -3.62238 0
M  V30 2462 H 239.935 1.05759 -3.9188 0
M  V30 2463 H 240.701 -1.30954 -4.66986 0
M  V30 2464 H 236.58 -0.0848307 -4.60922 0
M  V30 2465 H 240.124 -3.13071 -6.23404 0
M  V30 2466 H 236.021 -1.89773 -6.16974 0
M  V30 2467 H 236.789 -3.60731 -7.34721 0
M  V30 2468 N 239.452 1.56882 -0.150215 0
M  V30 2469 C 240.415 2.1573 0.774157 0
M  V30 2470 C 241.415 1.0999 1.17298 0
M  V30 2471 O 242.605 1.35613 1.09338 0
M  V30 2472 C 239.737 2.72302 2.05096 0
M  V30 2473 H 240.93 2.98752 0.262201 0
M  V30 2474 H 238.483 1.55985 0.099248 0
M  V30 2475 H 239.218 1.92956 2.6065 0
M  V30 2476 H 239.003 3.49665 1.77416 0
M  V30 2477 H 240.493 3.17632 2.71109 0
M  V30 2478 N 240.93 -0.123565 1.57115 0
M  V30 2479 C 242.341 -0.681198 1.73829 0
M  V30 2480 C 242.692 -1.80535 0.768214 0
M  V30 2481 O 241.817 -2.16317 -0.0599103 0
M  V30 2482 C 242.412 -1.24246 3.15196 0
M  V30 2483 C 240.971 -1.74643 3.33432 0
M  V30 2484 C 240.118 -0.644284 2.69711 0
M  V30 2485 H 243.069 0.102315 1.5837 0
M  V30 2486 H 243.09 -2.11216 3.16493 0
M  V30 2487 H 242.602 -0.424062 3.85776 0
M  V30 2488 H 240.703 -2.58974 2.67886 0
M  V30 2489 H 240.816 -1.85902 4.41562 0
M  V30 2490 H 239.18 -1.07676 2.3082 0
M  V30 2491 H 239.963 0.163058 3.42913 0
M  V30 2492 N 242.408 -1.52605 -0.393616 0
M  V30 2493 C 243.685 -1.58001 -1.15304 0
M  V30 2494 C 244.065 -0.370385 -2.07825 0
M  V30 2495 O 243.413 0.641638 -2.19306 0
M  V30 2496 C 243.623 -2.91652 -1.91677 0
M  V30 2497 C 244.971 -3.4522 -2.47201 0
M  V30 2498 O 245.995 -2.93495 -2.01839 0
M  V30 2499 O 244.854 -4.35579 -3.3005 0
M  V30 2500 H 241.948 -0.637068 -0.527327 0
M  V30 2501 H 244.494 -1.64939 -0.399141 0
M  V30 2502 H 243.266 -3.71136 -1.23992 0
M  V30 2503 H 242.889 -2.88077 -2.74039 0
M  V30 2504 N 243.887 0.651787 -1.4349 0
M  V30 2505 C 245.136 1.40754 -1.44469 0
M  V30 2506 C 245.449 1.95463 -0.0731845 0
M  V30 2507 O 246.655 2.71471 0.0395721 0
M  V30 2508 C 245.111 2.54735 -2.5424 0
M  V30 2509 C 244.719 2.06628 -3.97504 0
M  V30 2510 C 246.463 3.32092 -2.64414 0
M  V30 2511 C 244.37 3.17829 -4.98737 0
M  V30 2512 H 243.3 0.528862 -0.53742 0
M  V30 2513 H 245.951 0.703365 -1.69485 0
M  V30 2514 H 244.333 3.2763 -2.22428 0
M  V30 2515 H 245.507 1.40734 -4.38783 0
M  V30 2516 H 243.822 1.42146 -3.91387 0
M  V30 2517 H 246.419 4.14952 -3.37223 0
M  V30 2518 H 246.762 3.80217 -1.69532 0
M  V30 2519 H 247.295 2.66279 -2.95534 0
M  V30 2520 H 244.034 2.74671 -5.95177 0
M  V30 2521 H 243.554 3.82429 -4.62069 0
M  V30 2522 H 245.233 3.82937 -5.21505 0
M  V30 2523 N 245.365 1.30045 0.890287 0
M  V30 2524 C 246.781 1.08261 1.17268 0
M  V30 2525 C 246.981 -0.160063 2.00863 0
M  V30 2526 O 246.037 -0.855181 2.37577 0
M  V30 2527 C 247.35 2.34323 1.8845 0
M  V30 2528 C 248.898 2.39735 2.01237 0
M  V30 2529 C 249.373 3.65625 2.7583 0
M  V30 2530 N 250.864 3.66402 2.83379 0
M  V30 2531 C 251.599 4.60498 3.41657 0
M  V30 2532 N 251.095 5.64933 4.01026 0
M  V30 2533 N 252.888 4.48051 3.39421 0
M  V30 2534 H 245.039 2.09777 0.332762 0
M  V30 2535 H 247.302 0.92446 0.209948 0
M  V30 2536 H 247.008 3.2498 1.34465 0
M  V30 2537 H 246.882 2.4256 2.88867 0
M  V30 2538 H 249.269 1.4956 2.54393 0
M  V30 2539 H 249.35 2.35476 0.999232 0
M  V30 2540 H 248.994 4.56156 2.23347 0
M  V30 2541 H 248.924 3.67144 3.77509 0
M  V30 2542 H 251.415 2.90896 2.41222 0
M  V30 2543 H 251.728 6.32841 4.43545 0
M  V30 2544 H 250.073 5.68732 3.99461 0
M  V30 2545 H 253.264 3.65649 2.92264 0
M  V30 2546 H 253.437 5.21565 3.84544 0
M  V30 2547 N 246.843 -1.10192 1.12674 0
M  V30 2548 C 248.089 -1.82475 0.884915 0
M  V30 2549 C 248.422 -1.85093 -0.58773 0
M  V30 2550 O 247.697 -1.3134 -1.43457 0
M  V30 2551 C 247.98 -3.29018 1.46353 0
M  V30 2552 C 247.833 -3.34718 3.00473 0
M  V30 2553 C 249.152 -4.25473 1.12519 0
M  V30 2554 H 246.271 -0.662492 0.322915 0
M  V30 2555 H 248.913 -1.2913 1.39375 0
M  V30 2556 H 247.063 -3.74576 1.03077 0
M  V30 2557 H 248.735 -2.97622 3.52447 0
M  V30 2558 H 246.978 -2.74541 3.35872 0
M  V30 2559 H 247.649 -4.37918 3.36053 0
M  V30 2560 H 250.125 -3.88161 1.499 0
M  V30 2561 H 249.001 -5.26365 1.55663 0
M  V30 2562 H 249.262 -4.42084 0.0377407 0
M  V30 2563 N 248.321 -0.919034 -1.28029 0
M  V30 2564 C 249.284 -0.416182 -2.2539 0
M  V30 2565 C 250.284 0.460438 -1.54067 0
M  V30 2566 O 251.474 0.262744 -1.72207 0
M  V30 2567 C 248.606 0.402707 -3.38513 0
M  V30 2568 H 249.799 -1.27629 -2.71387 0
M  V30 2569 H 247.352 -0.698919 -1.39803 0
M  V30 2570 H 248.087 1.282 -2.97885 0
M  V30 2571 H 247.872 -0.225698 -3.9145 0
M  V30 2572 H 249.362 0.745191 -4.10897 0
M  V30 2573 N 249.799 1.42003 -0.683588 0
M  V30 2574 C 251.21 1.84501 -0.285736 0
M  V30 2575 C 251.561 1.57213 1.17382 0
M  V30 2576 O 250.686 1.03642 1.89966 0
M  V30 2577 C 251.281 3.34912 -0.511821 0
M  V30 2578 C 249.84 3.76025 -0.168005 0
M  V30 2579 C 248.987 2.6551 -0.799983 0
M  V30 2580 H 251.938 1.31724 -0.885119 0
M  V30 2581 H 251.959 3.79784 0.233292 0
M  V30 2582 H 251.471 3.54741 -1.57418 0
M  V30 2583 H 249.572 3.61801 0.890567 0
M  V30 2584 H 249.685 4.75141 -0.614661 0
M  V30 2585 H 248.049 2.53654 -0.230568 0
M  V30 2586 H 248.832 2.8816 -1.86597 0
M  V30 2587 N 251.277 0.427512 1.51691 0
M  V30 2588 C 252.187 -0.39527 2.31246 0
M  V30 2589 C 253.203 -1.03674 1.39742 0
M  V30 2590 O 254.379 -1.03425 1.72816 0
M  V30 2591 C 251.444 -1.48706 3.13189 0
M  V30 2592 C 250.505 -0.866743 4.20459 0
M  V30 2593 C 249.738 -1.90651 4.98486 0
M  V30 2594 O 249.961 -3.12733 4.77026 0
M  V30 2595 O 248.895 -1.5025 5.82845 0
M  V30 2596 H 252.721 0.253918 3.02637 0
M  V30 2597 H 250.306 0.190274 1.48183 0
M  V30 2598 H 252.188 -2.12047 3.64162 0
M  V30 2599 H 250.863 -2.12051 2.44573 0
M  V30 2600 H 249.77 -0.195544 3.73589 0
M  V30 2601 H 251.103 -0.276934 4.9142 0
M  V30 2602 N 252.755 -1.56801 0.158532 0
M  V30 2603 C 254.003 -1.96102 -0.488712 0
M  V30 2604 C 254.324 -1.04498 -1.64636 0
M  V30 2605 O 253.594 -0.108783 -1.95598 0
M  V30 2606 H 252.174 -0.724102 -0.183535 0
M  V30 2607 H 254.836 -1.93457 0.236728 0
M  V30 2608 H 253.932 -3.00097 -0.857219 0
M  V30 2609 N 254.233 0.115231 -1.57178 0
M  V30 2610 C 255.461 0.836437 -1.89239 0
M  V30 2611 C 255.876 1.73256 -0.750175 0
M  V30 2612 O 255.233 1.80357 0.278832 0
M  V30 2613 C 255.284 1.66671 -3.20785 0
M  V30 2614 O 255.005 0.806652 -4.3061 0
M  V30 2615 C 256.506 2.49274 -3.66575 0
M  V30 2616 H 253.726 0.240253 -0.626514 0
M  V30 2617 H 256.27 0.0984932 -2.04263 0
M  V30 2618 H 254.425 2.35737 -3.0742 0
M  V30 2619 H 254.839 1.37969 -5.06028 0
M  V30 2620 H 256.313 3.03055 -4.6137 0
M  V30 2621 H 256.79 3.26807 -2.93417 0
M  V30 2622 H 257.396 1.85443 -3.82741 0
M  V30 2623 N 255.711 1.52812 0.385517 0
M  V30 2624 C 256.959 1.67694 1.12797 0
M  V30 2625 C 257.28 0.421115 1.90399 0
M  V30 2626 O 256.55 -0.564551 1.87589 0
M  V30 2627 H 255.13 0.618155 0.419396 0
M  V30 2628 H 257.792 1.89938 0.436972 0
M  V30 2629 H 256.888 2.52896 1.82894 0
M  V30 2630 N 257.189 -0.644168 1.43834 0
M  V30 2631 C 258.437 -1.40117 1.45642 0
M  V30 2632 C 258.758 -1.94814 0.0852413 0
M  V30 2633 O 258.028 -1.74988 -0.880688 0
M  V30 2634 H 256.608 -0.52005 0.536243 0
M  V30 2635 H 259.27 -0.7591 1.7951 0
M  V30 2636 H 258.366 -2.23902 2.17427 0
M  V30 2637 N 258.668 -1.30515 -0.883378 0
M  V30 2638 C 259.898 -1.22182 -1.66599 0
M  V30 2639 C 260.306 0.217507 -1.87946 0
M  V30 2640 O 259.649 1.1554 -1.42815 0
M  V30 2641 C 259.711 -1.88146 -3.06335 0
M  V30 2642 C 259.375 -3.37476 -3.08154 0
M  V30 2643 C 260.372 -4.33443 -2.87094 0
M  V30 2644 C 258.057 -3.7895 -3.29701 0
M  V30 2645 C 260.051 -5.68858 -2.8754 0
M  V30 2646 C 257.738 -5.14482 -3.29776 0
M  V30 2647 C 258.736 -6.09246 -3.0872 0
M  V30 2648 O 258.424 -7.42302 -3.08615 0
M  V30 2649 H 258.156 -0.423898 -0.52658 0
M  V30 2650 H 260.71 -1.72703 -1.11188 0
M  V30 2651 H 258.94 -1.32157 -3.63416 0
M  V30 2652 H 260.629 -1.7391 -3.66756 0
M  V30 2653 H 261.395 -4.02733 -2.70243 0
M  V30 2654 H 257.274 -3.05631 -3.45124 0
M  V30 2655 H 260.818 -6.428 -2.71024 0
M  V30 2656 H 256.715 -5.44832 -3.46163 0
M  V30 2657 H 257.483 -7.5131 -3.24769 0
M  V30 2658 N 260.146 1.09593 -1.13257 0
M  V30 2659 C 261.392 1.82003 -0.89458 0
M  V30 2660 C 261.725 1.85402 0.577906 0
M  V30 2661 O 261 1.32099 1.42759 0
M  V30 2662 C 261.283 3.28237 -1.48096 0
M  V30 2663 C 261.136 3.3312 -3.02244 0
M  V30 2664 C 262.455 4.24871 -1.14774 0
M  V30 2665 H 259.574 0.66077 -0.326424 0
M  V30 2666 H 262.216 1.28389 -1.40058 0
M  V30 2667 H 260.366 3.74024 -1.05062 0
M  V30 2668 H 262.038 2.95748 -3.54021 0
M  V30 2669 H 260.281 2.72756 -3.37323 0
M  V30 2670 H 260.952 4.3613 -3.38371 0
M  V30 2671 H 263.428 3.87361 -1.51957 0
M  V30 2672 H 262.304 5.25532 -1.58452 0
M  V30 2673 H 262.565 4.42058 -0.0611849 0
M  V30 2674 N 261.624 0.925811 1.2754 0
M  V30 2675 C 262.87 0.566092 1.94739 0
M  V30 2676 C 263.203 -0.890057 1.72603 0
M  V30 2677 O 262.478 -1.63467 1.05399 0
M  V30 2678 C 262.761 0.89054 3.48915 0
M  V30 2679 C 262.614 2.4003 3.80402 0
M  V30 2680 C 263.933 0.395101 4.38323 0
M  V30 2681 H 261.052 0.20714 0.707292 0
M  V30 2682 H 263.694 1.15725 1.50691 0
M  V30 2683 H 261.844 0.387452 3.86563 0
M  V30 2684 H 263.516 2.97494 3.52555 0
M  V30 2685 H 261.759 2.85028 3.2702 0
M  V30 2686 H 262.43 2.57785 4.8811 0
M  V30 2687 H 264.906 0.826241 4.07814 0
M  V30 2688 H 263.782 0.651086 5.45025 0
M  V30 2689 H 264.043 -0.704798 4.36446 0
M  V30 2690 N 263.102 -1.41638 0.69111 0
M  V30 2691 C 264.33 -2.05628 0.22909 0
M  V30 2692 C 264.745 -1.51992 -1.11999 0
M  V30 2693 O 264.102 -0.666322 -1.69901 0
M  V30 2694 C 264.153 -3.61084 0.173283 0
M  V30 2695 O 263.874 -4.12735 1.46907 0
M  V30 2696 C 265.375 -4.42213 -0.310266 0
M  V30 2697 H 262.595 -0.662327 0.107534 0
M  V30 2698 H 265.139 -1.81489 0.942438 0
M  V30 2699 H 263.294 -3.84278 -0.490858 0
M  V30 2700 H 263.708 -5.06743 1.35322 0
M  V30 2701 H 265.182 -5.51194 -0.298196 0
M  V30 2702 H 265.659 -4.1799 -1.34838 0
M  V30 2703 H 266.265 -4.24074 0.322716 0
M  V30 2704 N 264.58 -0.43555 -1.51462 0
M  V30 2705 C 265.828 0.131254 -2.01673 0
M  V30 2706 C 266.149 1.43368 -1.32177 0
M  V30 2707 O 265.419 1.90524 -0.455769 0
M  V30 2708 H 263.999 0.0514954 -0.745223 0
M  V30 2709 H 266.661 -0.577847 -1.86137 0
M  V30 2710 H 265.757 0.308446 -3.10572 0
M  V30 2711 N 266.058 1.56714 -0.166846 0
M  V30 2712 C 267.006 2.19056 0.782123 0
M  V30 2713 C 268 1.15328 1.24079 0
M  V30 2714 O 269.206 1.33537 1.20697 0
M  V30 2715 H 265.581 0.70167 0.270486 0
M  V30 2716 H 267.552 2.97494 0.232322 0
M  V30 2717 C 266.301 2.84206 2.00306 0
M  V30 2718 H 265.624 3.63748 1.65914 0
M  V30 2719 H 267.064 3.31302 2.64604 0
M  V30 2720 C 265.523 1.83744 2.82382 0
M  V30 2721 O 266.053 1.32014 3.79388 0
M  V30 2722 N 264.259 1.52601 2.47308 0
M  V30 2723 H 263.806 1.9486 1.68485 0
M  V30 2724 H 263.764 0.856351 3.02513 0
M  V30 2725 N 267.536 -0.106894 1.57237 0
M  V30 2726 C 268.761 -0.830287 1.90055 0
M  V30 2727 C 269.186 -1.72064 0.75998 0
M  V30 2728 O 268.544 -1.78982 -0.288991 0
M  V30 2729 C 268.592 -1.6295 3.21683 0
M  V30 2730 O 267.696 -2.73748 3.08441 0
M  V30 2731 H 267.037 -0.228855 0.623315 0
M  V30 2732 H 269.567 -0.085658 2.04421 0
M  V30 2733 H 269.577 -2.01621 3.54701 0
M  V30 2734 H 268.252 -0.975989 4.04286 0
M  V30 2735 H 266.829 -2.38192 2.86913 0
M  V30 2736 N 269.014 -1.53014 -0.377408 0
M  V30 2737 C 270.239 -1.72818 -1.14668 0
M  V30 2738 C 270.664 -0.450725 -1.8262 0
M  V30 2739 O 270.022 0.59439 -1.7128 0
M  V30 2740 C 270.07 -2.88627 -2.16164 0
M  V30 2741 O 269.174 -2.56409 -3.22998 0
M  V30 2742 H 268.515 -0.574301 -0.333278 0
M  V30 2743 H 271.045 -1.99853 -0.438152 0
M  V30 2744 H 271.055 -3.14455 -2.59966 0
M  V30 2745 H 269.73 -3.81294 -1.66095 0
M  V30 2746 H 268.307 -2.4136 -2.84253 0
M  V30 2747 N 270.492 0.636531 -1.44174 0
M  V30 2748 C 271.455 1.73063 -1.50273 0
M  V30 2749 C 272.455 1.56113 -0.385397 0
M  V30 2750 O 273.645 1.61707 -0.64781 0
M  V30 2751 C 270.777 3.12096 -1.37145 0
M  V30 2752 H 271.97 1.69031 -2.47727 0
M  V30 2753 H 269.523 0.849706 -1.31186 0
M  V30 2754 H 270.258 3.21728 -0.407636 0
M  V30 2755 H 270.043 3.25805 -2.18159 0
M  V30 2756 H 271.533 3.91846 -1.44382 0
M  V30 2757 N 271.97 1.30982 0.876444 0
M  V30 2758 C 273.216 1.20474 1.63138 0
M  V30 2759 C 273.549 -0.238096 1.92735 0
M  V30 2760 O 272.824 -1.1692 1.55435 0
M  V30 2761 C 273.107 2.04244 2.96574 0
M  V30 2762 C 272.96 3.56793 2.73896 0
M  V30 2763 C 274.279 1.88684 3.97601 0
M  V30 2764 H 271.398 0.439001 0.591985 0
M  V30 2765 H 274.04 1.60704 1.01361 0
M  V30 2766 H 272.19 1.70063 3.493 0
M  V30 2767 H 273.862 4.01077 2.27892 0
M  V30 2768 H 272.105 3.80548 2.08245 0
M  V30 2769 H 272.776 4.10706 3.68815 0
M  V30 2770 H 275.252 2.18584 3.54062 0
M  V30 2771 H 274.128 2.4961 4.88862 0
M  V30 2772 H 274.389 0.848343 4.33884 0
M  V30 2773 N 273.449 -1.08991 1.13837 0
M  V30 2774 C 274.412 -2.13925 0.822715 0
M  V30 2775 C 275.412 -1.599 -0.1699 0
M  V30 2776 O 276.602 -1.74104 0.0577251 0
M  V30 2777 C 273.734 -3.40155 0.225318 0
M  V30 2778 H 274.927 -2.43358 1.75262 0
M  V30 2779 H 272.48 -1.24603 0.943594 0
M  V30 2780 H 273.215 -3.16352 -0.713594 0
M  V30 2781 H 273 -3.80661 0.940193 0
M  V30 2782 H 274.49 -4.17594 0.0214784 0
M  V30 2783 N 274.927 -0.932562 -1.27047 0
M  V30 2784 C 276.152 -0.591474 -1.98787 0
M  V30 2785 C 276.577 0.824601 -1.69062 0
M  V30 2786 O 275.935 1.5541 -0.933677 0
M  V30 2787 C 275.983 -0.829808 -3.50922 0
M  V30 2788 O 275.087 0.102266 -4.12273 0
M  V30 2789 H 274.428 -0.227185 -0.623926 0
M  V30 2790 H 276.958 -1.25314 -1.61733 0
M  V30 2791 H 276.968 -0.747292 -4.01098 0
M  V30 2792 H 275.643 -1.86201 -3.7189 0
M  V30 2793 H 274.22 -0.0305761 -3.72887 0
M  V30 2794 N 276.405 1.4127 -0.698611 0
M  V30 2795 C 277.653 2.00782 -0.230409 0
M  V30 2796 C 277.974 1.5562 1.17505 0
M  V30 2797 O 277.244 0.78815 1.79346 0
M  V30 2798 H 275.824 0.742464 -0.0821944 0
M  V30 2799 H 278.486 1.72852 -0.90045 0
M  V30 2800 H 277.582 3.11095 -0.25021 0
M  V30 2801 N 277.883 0.443576 1.51229 0
M  V30 2802 C 279.299 0.0962001 1.5931 0
M  V30 2803 C 279.499 -1.39501 1.45402 0
M  V30 2804 O 278.555 -2.16557 1.29843 0
M  V30 2805 C 279.868 0.621875 2.94199 0
M  V30 2806 C 281.416 0.582865 3.07525 0
M  V30 2807 C 281.891 1.08562 4.44948 0
M  V30 2808 N 283.382 1.04387 4.51284 0
M  V30 2809 C 284.117 1.40368 5.55954 0
M  V30 2810 N 283.613 1.83664 6.68011 0
M  V30 2811 N 285.406 1.32145 5.46346 0
M  V30 2812 H 277.557 1.41376 1.58514 0
M  V30 2813 H 279.82 0.582965 0.747567 0
M  V30 2814 H 279.526 1.66546 3.09767 0
M  V30 2815 H 279.4 0.0502125 3.77167 0
M  V30 2816 H 281.787 -0.451749 2.91622 0
M  V30 2817 H 281.868 1.191 2.26382 0
M  V30 2818 H 281.512 2.11873 4.61598 0
M  V30 2819 H 281.442 0.453956 5.2464 0
M  V30 2820 H 283.933 0.725986 3.70861 0
M  V30 2821 H 284.246 2.0934 7.43906 0
M  V30 2822 H 282.591 1.87596 6.69203 0
M  V30 2823 H 285.782 0.981808 4.57688 0
M  V30 2824 H 285.955 1.60514 6.27805 0
M  V30 2825 N 279.361 -1.56624 0.175154 0
M  V30 2826 C 280.61 -1.96173 -0.468921 0
M  V30 2827 C 280.923 -1.06401 -1.64128 0
M  V30 2828 O 282.129 -1.35648 -2.35185 0
M  V30 2829 C 280.585 -3.48833 -0.885633 0
M  V30 2830 C 280.193 -4.47237 0.261343 0
M  V30 2831 C 281.937 -3.97194 -1.49791 0
M  V30 2832 C 279.844 -5.9114 -0.175214 0
M  V30 2833 H 278.774 -0.732455 -0.178958 0
M  V30 2834 H 281.425 -1.81591 0.263997 0
M  V30 2835 H 279.807 -3.58848 -1.67464 0
M  V30 2836 H 280.981 -4.4894 1.03871 0
M  V30 2837 H 279.296 -4.08956 0.783827 0
M  V30 2838 H 281.893 -5.02167 -1.83665 0
M  V30 2839 H 282.236 -3.40351 -2.39722 0
M  V30 2840 H 282.769 -3.90212 -0.773267 0
M  V30 2841 H 279.508 -6.51865 0.689414 0
M  V30 2842 H 279.028 -5.92735 -0.91786 0
M  V30 2843 H 280.707 -6.44044 -0.617792 0
M  V30 2844 N 280.839 0.0985539 -1.57292 0
M  V30 2845 C 281.802 1.10402 -2.00858 0
M  V30 2846 C 282.802 1.33146 -0.901593 0
M  V30 2847 O 283.992 1.29318 -1.16716 0
M  V30 2848 C 281.124 2.45394 -2.36632 0
M  V30 2849 H 282.317 0.729099 -2.90902 0
M  V30 2850 H 279.87 0.343495 -1.52479 0
M  V30 2851 H 280.605 2.87769 -1.49531 0
M  V30 2852 H 280.39 2.30235 -3.17387 0
M  V30 2853 H 281.88 3.17718 -2.71007 0
M  V30 2854 N 282.317 1.53212 0.369288 0
M  V30 2855 C 283.547 1.72868 1.13139 0
M  V30 2856 C 283.955 0.455754 1.83629 0
M  V30 2857 O 283.298 -0.580861 1.74275 0
M  V30 2858 C 283.36 2.83667 2.20847 0
M  V30 2859 C 283.024 4.24142 1.70155 0
M  V30 2860 C 284.021 5.06619 1.16763 0
M  V30 2861 C 281.706 4.70539 1.7578 0
M  V30 2862 C 283.7 6.33581 0.696678 0
M  V30 2863 C 281.387 5.97481 1.28297 0
M  V30 2864 C 282.385 6.78833 0.753307 0
M  V30 2865 O 282.073 8.03393 0.285475 0
M  V30 2866 H 281.805 0.581707 0.344373 0
M  V30 2867 H 284.359 2.00736 0.435243 0
M  V30 2868 H 282.589 2.51265 2.93944 0
M  V30 2869 H 284.278 2.91536 2.82421 0
M  V30 2870 H 285.044 4.71948 1.11758 0
M  V30 2871 H 280.923 4.07293 2.15949 0
M  V30 2872 H 284.467 6.97027 0.282581 0
M  V30 2873 H 280.364 6.31651 1.32994 0
M  V30 2874 H 281.132 8.17497 0.405145 0
M  V30 2875 N 283.795 -0.628877 1.44509 0
M  V30 2876 C 285.02 -1.42048 1.5112 0
M  V30 2877 C 285.445 -1.87594 0.137818 0
M  V30 2878 O 284.803 -1.58873 -0.873437 0
M  V30 2879 C 284.851 -2.61541 2.48251 0
M  V30 2880 O 283.955 -3.61453 1.98559 0
M  V30 2881 H 283.296 -0.424942 0.510216 0
M  V30 2882 H 285.826 -0.767374 1.89664 0
M  V30 2883 H 285.836 -3.09057 2.66361 0
M  V30 2884 H 284.511 -2.27736 3.48007 0
M  V30 2885 H 283.088 -3.20731 1.90227 0
M  V30 2886 N 285.273 -1.31445 -0.869486 0
M  V30 2887 C 286.203 -1.21727 -1.99261 0
M  V30 2888 C 287.184 -0.104359 -1.6978 0
M  V30 2889 O 288.369 -0.289038 -1.92037 0
M  V30 2890 C 285.499 -0.924317 -3.34774 0
M  V30 2891 C 284.453 -1.99685 -3.78563 0
M  V30 2892 C 283.779 -1.55658 -5.11541 0
M  V30 2893 C 285.079 -3.41003 -3.95619 0
M  V30 2894 H 286.773 -2.1569 -2.07649 0
M  V30 2895 H 284.319 -1.03839 -0.997675 0
M  V30 2896 H 286.272 -0.842934 -4.12883 0
M  V30 2897 H 284.996 0.0509793 -3.2656 0
M  V30 2898 H 283.655 -2.06813 -3.02694 0
M  V30 2899 H 283.303 -0.569132 -4.9977 0
M  V30 2900 H 283.003 -2.27409 -5.41811 0
M  V30 2901 H 284.527 -1.48928 -5.92159 0
M  V30 2902 H 285.941 -3.36547 -4.64122 0
M  V30 2903 H 284.338 -4.10975 -4.37286 0
M  V30 2904 H 285.408 -3.81754 -2.98985 0
M  V30 2905 N 286.751 1.08385 -1.14413 0
M  V30 2906 C 287.999 1.80419 -0.910679 0
M  V30 2907 C 288.32 1.86658 0.564243 0
M  V30 2908 O 287.59 1.35985 1.41014 0
M  V30 2909 H 286.17 0.668204 -0.333934 0
M  V30 2910 H 288.832 1.31037 -1.44275 0
M  V30 2911 H 287.928 2.83238 -1.31082 0
M  V30 2912 N 288.23 0.939286 1.26551 0
M  V30 2913 C 289.16 0.465044 2.28822 0
M  V30 2914 C 290.141 -0.480692 1.63167 0
M  V30 2915 O 291.326 -0.382955 1.90387 0
M  V30 2916 C 288.456 -0.27234 3.46231 0
M  V30 2917 C 287.41 0.58666 4.2396 0
M  V30 2918 C 286.736 -0.280573 5.33963 0
M  V30 2919 C 288.036 1.85704 4.88171 0
M  V30 2920 H 289.73 1.31979 2.68741 0
M  V30 2921 H 287.276 0.636061 1.29191 0
M  V30 2922 H 289.229 -0.615133 4.16886 0
M  V30 2923 H 287.953 -1.16121 3.0526 0
M  V30 2924 H 286.612 0.91232 3.55067 0
M  V30 2925 H 286.26 -1.16874 4.89234 0
M  V30 2926 H 285.96 0.29076 5.8688 0
M  V30 2927 H 287.484 -0.618678 6.07458 0
M  V30 2928 H 288.898 1.58161 5.51052 0
M  V30 2929 H 287.295 2.37279 5.51197 0
M  V30 2930 H 288.365 2.56957 4.11219 0
M  V30 2931 N 289.708 -1.40897 0.706093 0
M  V30 2932 C 290.618 -2.3455 0.0482286 0
M  V30 2933 C 291.634 -1.56796 -0.754396 0
M  V30 2934 O 292.81 -1.89228 -0.689538 0
M  V30 2935 C 289.875 -3.35625 -0.869303 0
M  V30 2936 C 288.936 -4.29261 -0.0576994 0
M  V30 2937 C 288.169 -5.25508 -0.931531 0
M  V30 2938 O 288.392 -5.27472 -2.17092 0
M  V30 2939 O 287.326 -6.00727 -0.375587 0
M  V30 2940 H 291.152 -2.92407 0.820476 0
M  V30 2941 H 288.737 -1.4193 0.4665 0
M  V30 2942 H 290.619 -3.97635 -1.39514 0
M  V30 2943 H 289.294 -2.80196 -1.62086 0
M  V30 2944 H 288.201 -3.70566 0.512988 0
M  V30 2945 H 289.534 -4.87817 0.655426 0
M  V30 2946 N 291.186 -0.45159 -1.50991 0
M  V30 2947 C 292.434 0.109857 -2.01801 0
M  V30 2948 C 292.755 1.41958 -1.3369 0
M  V30 2949 O 292.025 1.9003 -0.475951 0
M  V30 2950 H 290.605 0.0435884 -0.745727 0
M  V30 2951 H 293.267 -0.597557 -1.85514 0
M  V30 2952 H 292.363 0.275489 -3.10882 0
M  V30 2953 N 292.664 1.56529 -0.183458 0
M  V30 2954 C 294.075 1.83739 0.331177 0
M  V30 2955 C 294.426 1.10373 1.62211 0
M  V30 2956 O 293.551 0.36071 2.13373 0
M  V30 2957 C 294.146 3.33306 0.607646 0
M  V30 2958 C 292.705 3.60969 1.06668 0
M  V30 2959 C 291.852 2.77086 0.109029 0
M  V30 2960 H 294.803 1.53379 -0.407484 0
M  V30 2961 H 294.824 3.51444 1.45832 0
M  V30 2962 H 294.336 3.86677 -0.332086 0
M  V30 2963 H 292.437 3.13021 2.0211 0
M  V30 2964 H 292.55 4.69231 0.967447 0
M  V30 2965 H 290.914 2.47319 0.608714 0
M  V30 2966 H 291.697 3.33241 -0.82494 0
M  V30 2967 N 294.142 -0.090211 1.57342 0
M  V30 2968 C 295.105 -1.09335 2.01441 0
M  V30 2969 C 296.105 -1.32666 0.908641 0
M  V30 2970 O 297.295 -1.28697 1.174 0
M  V30 2971 C 294.427 -2.44136 2.3793 0
M  V30 2972 H 295.62 -0.713662 2.91285 0
M  V30 2973 H 293.173 -0.335404 1.52659 0
M  V30 2974 H 293.908 -2.86972 1.51055 0
M  V30 2975 H 293.693 -2.28548 3.18603 0
M  V30 2976 H 295.183 -3.16277 2.72688 0
M  V30 2977 N 295.62 -1.53406 -0.361157 0
M  V30 2978 C 296.866 -1.70054 -1.10496 0
M  V30 2979 C 297.199 -0.453278 -1.88836 0
M  V30 2980 O 296.474 0.5495 -1.86576 0
M  V30 2981 C 296.757 -2.95317 -2.06058 0
M  V30 2982 C 296.61 -4.3021 -1.31298 0
M  V30 2983 C 297.929 -3.16193 -3.06121 0
M  V30 2984 H 295.048 -0.618799 -0.400321 0
M  V30 2985 H 297.69 -1.86052 -0.385318 0
M  V30 2986 H 295.84 -2.81809 -2.67425 0
M  V30 2987 H 297.512 -4.55538 -0.726807 0
M  V30 2988 H 295.755 -4.29421 -0.614853 0
M  V30 2989 H 296.426 -5.14 -2.01265 0
M  V30 2990 H 298.902 -3.28916 -2.5486 0
M  V30 2991 H 297.778 -4.05266 -3.70204 0
M  V30 2992 H 298.039 -2.31676 -3.76535 0
M  V30 2993 N 297.098 0.621204 -1.44841 0
M  V30 2994 C 298.326 1.40752 -1.51646 0
M  V30 2995 C 298.741 1.88246 -0.144549 0
M  V30 2996 O 298.098 1.61422 0.851416 0
M  V30 2997 C 298.149 2.62119 -2.4895 0
M  V30 2998 O 297.87 2.16602 -3.80808 0
M  V30 2999 C 299.371 3.55135 -2.65319 0
M  V30 3000 H 296.591 0.431325 -0.514004 0
M  V30 3001 H 299.135 0.758835 -1.899 0
M  V30 3002 H 297.29 3.23058 -2.13805 0
M  V30 3003 H 297.704 2.95358 -4.33433 0
M  V30 3004 H 299.178 4.36874 -3.37409 0
M  V30 3005 H 299.655 4.04592 -1.70886 0
M  V30 3006 H 300.261 3.00058 -3.01405 0
M  V30 3007 N 298.576 1.31904 0.862503 0
M  V30 3008 C 299.822 1.22197 1.61851 0
M  V30 3009 C 300.155 -0.217641 1.92977 0
M  V30 3010 O 299.43 -1.15264 1.56666 0
M  V30 3011 C 299.713 2.07378 2.94391 0
M  V30 3012 C 299.566 3.59678 2.70096 0
M  V30 3013 C 300.885 1.92891 3.95577 0
M  V30 3014 H 298.004 0.445255 0.587296 0
M  V30 3015 H 300.646 1.6177 0.99651 0
M  V30 3016 H 298.796 1.73758 3.47477 0
M  V30 3017 H 300.468 4.03472 2.23625 0
M  V30 3018 H 298.711 3.82735 2.04197 0
M  V30 3019 H 299.382 4.14595 3.64438 0
M  V30 3020 H 301.858 2.22327 3.51724 0
M  V30 3021 H 300.734 2.54781 4.86187 0
M  V30 3022 H 300.995 0.894315 4.3296 0
M  V30 3023 N 300.054 -1.07777 1.14986 0
M  V30 3024 C 301.331 -1.7699 0.832695 0
M  V30 3025 C 301.711 -2.001 -0.672561 0
M  V30 3026 O 301.059 -1.61598 -1.6155 0
M  V30 3027 C 301.269 -3.08139 1.63863 0
M  V30 3028 C 302.617 -3.8256 1.84208 0
M  V30 3029 O 303.641 -3.17939 1.60603 0
M  V30 3030 O 302.5 -4.98612 2.23714 0
M  V30 3031 H 299.594 -0.768389 0.305791 0
M  V30 3032 H 302.14 -1.14182 1.25541 0
M  V30 3033 H 300.912 -2.86909 2.6608 0
M  V30 3034 H 300.535 -3.78678 1.21197 0
M  V30 3035 N 301.532 -0.945985 -1.26051 0
M  V30 3036 C 302.76 -0.613025 -1.9761 0
M  V30 3037 C 303.175 0.813035 -1.70397 0
M  V30 3038 O 302.532 1.54274 -0.974979 0
M  V30 3039 C 302.583 -0.85159 -3.51326 0
M  V30 3040 O 302.304 -2.22157 -3.77595 0
M  V30 3041 C 303.805 -0.529831 -4.40122 0
M  V30 3042 H 301.025 -0.230593 -0.630133 0
M  V30 3043 H 303.569 -1.268 -1.60443 0
M  V30 3044 H 301.724 -0.243151 -3.86636 0
M  V30 3045 H 302.138 -2.2852 -4.721 0
M  V30 3046 H 303.612 -0.747348 -5.46917 0
M  V30 3047 H 304.089 0.535341 -4.35925 0
M  V30 3048 H 304.695 -1.11721 -4.10364 0
M  V30 3049 N 303.011 1.40521 -0.713556 0
M  V30 3050 C 303.974 2.29098 -0.0684347 0
M  V30 3051 C 304.974 1.45268 0.689472 0
M  V30 3052 O 306.164 1.66205 0.521677 0
M  V30 3053 C 303.296 3.28446 0.913024 0
M  V30 3054 H 304.489 2.87645 -0.84855 0
M  V30 3055 H 302.042 1.48809 -0.47809 0
M  V30 3056 H 302.777 2.74913 1.72027 0
M  V30 3057 H 302.562 3.90327 0.372472 0
M  V30 3058 H 304.052 3.94777 1.36165 0
M  V30 3059 N 304.489 0.459591 1.5075 0
M  V30 3060 C 305.729 -0.09824 2.04164 0
M  V30 3061 C 306.093 -1.3801 1.33481 0
M  V30 3062 O 307.294 -2.01959 1.77387 0
M  V30 3063 C 305.565 -0.289467 3.56226 0
M  V30 3064 S 307.124 -0.807507 4.31306 0
M  V30 3065 H 303.942 -0.0213845 0.710678 0
M  V30 3066 H 306.544 0.624098 1.85271 0
M  V30 3067 H 305.248 0.649461 4.05229 0
M  V30 3068 H 304.779 -1.03825 3.79452 0
M  V30 3069 H 306.794 -2.0824 4.50389 0
M  V30 3070 N 305.967 -1.56429 0.191757 0
M  V30 3071 C 307.192 -2.02309 -0.456706 0
M  V30 3072 C 307.617 -1.07103 -1.5463 0
M  V30 3073 O 306.975 -0.0539677 -1.8122 0
M  V30 3074 C 307.023 -3.46654 -0.993159 0
M  V30 3075 O 306.127 -3.54559 -2.10622 0
M  V30 3076 H 305.468 -0.655303 -0.107114 0
M  V30 3077 H 307.998 -2.02364 0.301653 0
M  V30 3078 H 308.008 -3.86377 -1.31061 0
M  V30 3079 H 306.683 -4.1544 -0.195504 0
M  V30 3080 H 305.26 -3.26708 -1.79767 0
M  V30 3081 N 307.445 0.0818655 -1.57387 0
M  V30 3082 C 308.67 0.799946 -1.91352 0
M  V30 3083 C 309.095 1.70833 -0.787258 0
M  V30 3084 O 308.453 1.79419 0.26048 0
M  V30 3085 C 308.501 1.57812 -3.24234 0
M  V30 3086 O 307.605 2.68806 -3.12757 0
M  V30 3087 H 306.946 0.21891 -0.626877 0
M  V30 3088 H 309.476 0.0531256 -2.04531 0
M  V30 3089 H 309.486 1.95952 -3.57864 0
M  V30 3090 H 308.161 0.911548 -4.05788 0
M  V30 3091 H 306.738 2.33597 -2.90666 0
M  V30 3092 N 308.923 1.53595 0.353017 0
M  V30 3093 C 310.148 1.7462 1.11904 0
M  V30 3094 C 310.573 0.479721 1.8188 0
M  V30 3095 O 309.931 -0.567066 1.72204 0
M  V30 3096 C 309.979 2.92029 2.11545 0
M  V30 3097 O 309.083 2.61516 3.18878 0
M  V30 3098 H 308.424 0.579531 0.324099 0
M  V30 3099 H 310.954 2.00525 0.406301 0
M  V30 3100 H 310.964 3.18551 2.5493 0
M  V30 3101 H 309.639 3.83888 1.60008 0
M  V30 3102 H 308.216 2.45852 2.80377 0
M  V30 3103 N 310.401 -0.613514 1.45168 0
M  V30 3104 C 311.331 -1.7354 1.56225 0
M  V30 3105 C 312.312 -1.64981 0.41414 0
M  V30 3106 O 313.497 -1.83472 0.636526 0
M  V30 3107 C 310.627 -3.12128 1.52295 0
M  V30 3108 C 309.581 -3.35491 2.65762 0
M  V30 3109 C 308.907 -4.74291 2.46885 0
M  V30 3110 C 310.207 -3.26325 4.0781 0
M  V30 3111 H 311.901 -1.64543 2.50132 0
M  V30 3112 H 309.447 -0.790185 1.20383 0
M  V30 3113 H 311.4 -3.90404 1.58628 0
M  V30 3114 H 310.124 -3.2195 0.549139 0
M  V30 3115 H 308.783 -2.59603 2.58847 0
M  V30 3116 H 308.431 -4.80839 1.47657 0
M  V30 3117 H 308.131 -4.9088 3.22972 0
M  V30 3118 H 309.655 -5.54775 2.55063 0
M  V30 3119 H 311.069 -3.94483 4.16 0
M  V30 3120 H 309.466 -3.54445 4.8424 0
M  V30 3121 H 310.536 -2.23855 4.30136 0
M  V30 3122 N 311.879 -1.3236 -0.855495 0
M  V30 3123 C 313.125 -1.23054 -1.612 0
M  V30 3124 C 313.458 0.207404 -1.93089 0
M  V30 3125 O 312.733 1.14432 -1.57275 0
M  V30 3126 C 313.016 -2.08937 -2.93287 0
M  V30 3127 C 312.869 -3.61105 -2.68185 0
M  V30 3128 C 314.188 -1.94986 -3.94549 0
M  V30 3129 H 311.307 -0.448364 -0.584926 0
M  V30 3130 H 313.949 -1.62297 -0.987917 0
M  V30 3131 H 312.099 -1.75599 -3.46551 0
M  V30 3132 H 313.771 -4.04652 -2.21483 0
M  V30 3133 H 312.014 -3.83813 -2.02164 0
M  V30 3134 H 312.685 -4.16522 -3.62234 0
M  V30 3135 H 315.161 -2.24189 -3.5054 0
M  V30 3136 H 314.037 -2.57356 -4.84829 0
M  V30 3137 H 314.298 -0.917263 -4.3248 0
M  V30 3138 N 313.357 1.07166 -1.15556 0
M  V30 3139 C 314.32 2.12589 -0.856644 0
M  V30 3140 C 315.32 1.6015 0.14444 0
M  V30 3141 O 316.51 1.7399 -0.0854163 0
M  V30 3142 C 313.642 3.39753 -0.279405 0
M  V30 3143 H 314.835 2.40539 -1.79112 0
M  V30 3144 H 312.388 1.23086 -0.963298 0
M  V30 3145 H 313.123 3.17447 0.663174 0
M  V30 3146 H 312.908 3.79117 -1.00063 0
M  V30 3147 H 314.398 4.17507 -0.0879113 0
M  V30 3148 N 314.835 0.952656 1.25548 0
M  V30 3149 C 315.765 0.489287 2.28316 0
M  V30 3150 C 316.746 -0.463359 1.63667 0
M  V30 3151 O 317.931 -0.36274 1.90782 0
M  V30 3152 C 315.061 -0.235603 3.465 0
M  V30 3153 C 314.015 0.631593 4.23314 0
M  V30 3154 C 313.341 -0.223923 5.34231 0
M  V30 3155 C 314.641 1.90871 4.86174 0
M  V30 3156 H 316.335 1.34822 2.67326 0
M  V30 3157 H 313.881 0.649728 1.28509 0
M  V30 3158 H 315.834 -0.570882 4.17515 0
M  V30 3159 H 314.558 -1.12877 3.06474 0
M  V30 3160 H 313.217 0.949929 3.54079 0
M  V30 3161 H 312.865 -1.11678 4.90446 0
M  V30 3162 H 312.565 0.35299 5.86539 0
M  V30 3163 H 314.089 -0.554214 6.0808 0
M  V30 3164 H 315.503 1.63997 5.49343 0
M  V30 3165 H 313.9 2.43112 5.4865 0
M  V30 3166 H 314.97 2.61304 4.08471 0
M  V30 3167 N 316.313 -1.40141 0.720998 0
M  V30 3168 C 317.263 -2.27949 0.0482544 0
M  V30 3169 C 318.247 -1.43538 -0.727021 0
M  V30 3170 O 319.439 -1.6658 -0.598332 0
M  V30 3171 C 316.568 -3.32126 -0.868729 0
M  V30 3172 C 315.654 -4.24008 -0.0883515 0
M  V30 3173 N 316.045 -4.97154 0.931226 0
M  V30 3174 C 314.343 -4.4485 -0.320105 0
M  V30 3175 C 315.044 -5.64587 1.4006 0
M  V30 3176 N 314.02 -5.38787 0.721752 0
M  V30 3177 H 317.822 -2.81948 0.829609 0
M  V30 3178 H 315.336 -1.52656 0.554067 0
M  V30 3179 H 317.333 -3.93884 -1.36605 0
M  V30 3180 H 315.993 -2.79687 -1.6494 0
M  V30 3181 H 317.004 -5.01 1.31222 0
M  V30 3182 H 313.681 -4.03378 -1.07668 0
M  V30 3183 H 315.071 -6.33175 2.24808 0
M  V30 3184 N 317.792 -0.46758 -1.50504 0
M  V30 3185 C 318.722 0.318381 -2.31319 0
M  V30 3186 C 319.703 0.993564 -1.38066 0
M  V30 3187 O 320.888 0.991411 -1.66987 0
M  V30 3188 C 318.018 1.40275 -3.17711 0
M  V30 3189 C 316.972 0.849373 -4.19487 0
M  V30 3190 C 316.298 2.03177 -4.94594 0
M  V30 3191 C 317.598 -0.136942 -5.2212 0
M  V30 3192 H 319.292 -0.356106 -2.97275 0
M  V30 3193 H 316.838 -0.172703 -1.42961 0
M  V30 3194 H 318.791 1.96004 -3.73042 0
M  V30 3195 H 317.515 2.10596 -2.49634 0
M  V30 3196 H 316.174 0.314076 -3.65252 0
M  V30 3197 H 315.822 2.72187 -4.22993 0
M  V30 3198 H 315.522 1.66774 -5.63436 0
M  V30 3199 H 317.046 2.59403 -5.52759 0
M  V30 3200 H 318.46 0.331056 -5.72343 0
M  V30 3201 H 316.857 -0.41507 -5.98663 0
M  V30 3202 H 317.927 -1.06398 -4.73083 0
M  V30 3203 N 319.27 1.56325 -0.20005 0
M  V30 3204 C 320.233 2.18084 0.705132 0
M  V30 3205 C 321.233 1.13666 1.1374 0
M  V30 3206 O 322.423 1.39023 1.04968 0
M  V30 3207 C 319.555 2.78689 1.96329 0
M  V30 3208 H 320.748 2.99435 0.167023 0
M  V30 3209 H 318.301 1.56221 0.0495725 0
M  V30 3210 H 319.036 2.0115 2.5438 0
M  V30 3211 H 318.821 3.55133 1.66202 0
M  V30 3212 H 320.311 3.26096 2.60866 0
M  V30 3213 N 320.748 -0.0735177 1.57428 0
M  V30 3214 C 321.678 -1.0879 2.06608 0
M  V30 3215 C 322.659 -1.40473 0.959237 0
M  V30 3216 O 323.844 -1.5013 1.23185 0
M  V30 3217 C 320.974 -2.40183 2.50857 0
M  V30 3218 C 319.928 -2.22858 3.65402 0
M  V30 3219 C 319.254 -3.59619 3.957 0
M  V30 3220 C 320.554 -1.65123 4.95511 0
M  V30 3221 H 322.248 -0.678673 2.91607 0
M  V30 3222 H 319.794 -0.325013 1.40284 0
M  V30 3223 H 321.747 -3.11437 2.83874 0
M  V30 3224 H 320.471 -2.83083 1.62885 0
M  V30 3225 H 319.13 -1.54045 3.32664 0
M  V30 3226 H 318.778 -4.00086 3.04861 0
M  V30 3227 H 318.478 -3.48866 4.72828 0
M  V30 3228 H 320.002 -4.32306 4.31212 0
M  V30 3229 H 321.416 -2.26241 5.26771 0
M  V30 3230 H 319.813 -1.65071 5.7695 0
M  V30 3231 H 320.883 -0.612559 4.81015 0
M  V30 3232 N 322.226 -1.5378 -0.344866 0
M  V30 3233 C 323.173 -1.81676 -1.42346 0
M  V30 3234 C 324.143 -0.662376 -1.52321 0
M  V30 3235 O 325.328 -0.906675 -1.67881 0
M  V30 3236 C 322.468 -2.03087 -2.79015 0
M  V30 3237 C 321.581 -3.30799 -2.77842 0
M  V30 3238 C 320.716 -3.42285 -4.0622 0
M  V30 3239 C 319.755 -4.6395 -3.9927 0
M  V30 3240 N 318.892 -4.72477 -5.19336 0
M  V30 3241 H 323.732 -2.73703 -1.17858 0
M  V30 3242 H 321.269 -1.35568 -0.570949 0
M  V30 3243 H 323.227 -2.1349 -3.58438 0
M  V30 3244 H 321.857 -1.14375 -3.01858 0
M  V30 3245 H 320.909 -3.29244 -1.90533 0
M  V30 3246 H 322.221 -4.20314 -2.68584 0
M  V30 3247 H 321.375 -3.52113 -4.94066 0
M  V30 3248 H 320.114 -2.50823 -4.18258 0
M  V30 3249 H 319.119 -4.54201 -3.09809 0
M  V30 3250 H 320.344 -5.56775 -3.88817 0
M  V30 3251 H 318.29 -3.83924 -5.3192 0
M  V30 3252 H 318.207 -5.55927 -5.12329 0
M  V30 3253 H 319.475 -4.86613 -6.08957 0
M  V30 3254 N 323.704 0.605807 -1.45491 0
M  V30 3255 C 324.952 1.36207 -1.49305 0
M  V30 3256 C 325.273 1.94519 -0.136863 0
M  V30 3257 O 324.543 1.77261 0.833983 0
M  V30 3258 H 323.123 0.50565 -0.549843 0
M  V30 3259 H 325.785 0.711239 -1.81459 0
M  V30 3260 H 324.881 2.18058 -2.23287 0
M  V30 3261 N 325.182 1.32811 0.848464 0
M  V30 3262 C 326.112 1.24882 1.97299 0
M  V30 3263 C 327.093 0.131357 1.69592 0
M  V30 3264 O 328.278 0.319553 1.91553 0
M  V30 3265 C 325.408 0.97746 3.33261 0
M  V30 3266 C 324.362 2.05682 3.75338 0
M  V30 3267 C 323.688 1.63777 5.09 0
M  V30 3268 C 324.988 3.47254 3.90144 0
M  V30 3269 H 326.682 2.18966 2.04191 0
M  V30 3270 H 324.228 1.05413 0.981029 0
M  V30 3271 H 326.181 0.908513 4.1149 0
M  V30 3272 H 324.905 0.000980011 3.266 0
M  V30 3273 H 323.564 2.11603 2.99366 0
M  V30 3274 H 323.212 0.648569 4.98801 0
M  V30 3275 H 322.912 2.36 5.38124 0
M  V30 3276 H 324.436 1.5833 5.89715 0
M  V30 3277 H 325.85 3.43888 4.58709 0
M  V30 3278 H 324.247 4.1788 4.30693 0
M  V30 3279 H 325.317 3.86462 2.92874 0
M  V30 3280 N 326.66 -1.06551 1.16123 0
M  V30 3281 C 328.076 -1.3142 0.905585 0
M  V30 3282 C 328.276 -1.96571 -0.442964 0
M  V30 3283 O 327.332 -2.23068 -1.18308 0
M  V30 3284 C 328.645 -2.19741 2.05267 0
M  V30 3285 C 330.193 -2.33165 2.08813 0
M  V30 3286 C 330.668 -3.24838 3.22868 0
M  V30 3287 N 332.159 -3.32421 3.22568 0
M  V30 3288 C 332.894 -4.0344 4.0746 0
M  V30 3289 N 332.39 -4.77003 5.02434 0
M  V30 3290 N 334.183 -3.99464 3.95456 0
M  V30 3291 H 326.334 -0.626548 2.02949 0
M  V30 3292 H 328.597 -0.338777 0.8854 0
M  V30 3293 H 328.303 -1.79142 3.02657 0
M  V30 3294 H 328.177 -3.20313 1.99198 0
M  V30 3295 H 330.564 -2.73013 1.12018 0
M  V30 3296 H 330.645 -1.3227 2.18948 0
M  V30 3297 H 330.289 -2.85708 4.19921 0
M  V30 3298 H 330.219 -4.25707 3.0997 0
M  V30 3299 H 332.71 -2.79994 2.53795 0
M  V30 3300 H 333.023 -5.28712 5.63634 0
M  V30 3301 H 331.368 -4.75992 5.06415 0
M  V30 3302 H 334.559 -3.4111 3.20564 0
M  V30 3303 H 334.732 -4.54544 4.61837 0
M  V30 3304 N 328.138 -0.959301 -1.25041 0
M  V30 3305 C 329.086 -0.474437 -2.2771 0
M  V30 3306 C 330.08 0.457697 -1.631 0
M  V30 3307 O 331.286 0.333912 -1.76876 0
M  V30 3308 H 327.661 -0.134936 -0.739795 0
M  V30 3309 H 329.632 -1.35251 -2.65988 0
M  V30 3310 C 328.381 0.227884 -3.46952 0
M  V30 3311 H 327.704 -0.480248 -3.96905 0
M  V30 3312 H 329.144 0.531091 -4.20661 0
M  V30 3313 C 327.603 1.452 -3.04004 0
M  V30 3314 O 328.133 2.54949 -3.10426 0
M  V30 3315 N 326.339 1.31502 -2.59144 0
M  V30 3316 H 325.886 0.422065 -2.54119 0
M  V30 3317 H 325.844 2.13521 -2.30773 0
M  V30 3318 N 329.616 1.39756 -0.72842 0
M  V30 3319 C 330.864 2.00248 -0.272946 0
M  V30 3320 C 331.185 1.58077 1.14178 0
M  V30 3321 O 330.455 0.826014 1.77634 0
M  V30 3322 H 329.035 0.740554 -0.0979247 0
M  V30 3323 H 331.697 1.70903 -0.936912 0
M  V30 3324 H 330.793 3.10495 -0.316142 0
M  V30 3325 N 331.094 0.475555 1.50254 0
M  V30 3326 C 332.371 -0.139685 1.95101 0
M  V30 3327 C 332.751 -1.56555 1.41611 0
M  V30 3328 O 332.099 -2.19956 0.618993 0
M  V30 3329 C 332.309 -0.0784298 3.48912 0
M  V30 3330 C 333.657 -0.265095 4.23772 0
M  V30 3331 O 334.681 -0.154808 3.55863 0
M  V30 3332 O 333.54 -0.488327 5.44314 0
M  V30 3333 H 330.634 -0.109236 0.819754 0
M  V30 3334 H 333.18 0.536276 1.61004 0
M  V30 3335 H 331.952 0.916918 3.80405 0
M  V30 3336 H 331.575 -0.795655 3.89558 0
M  V30 3337 N 332.573 -1.56217 0.208337 0
M  V30 3338 C 333.813 -1.99849 -0.428927 0
M  V30 3339 C 334.177 -1.09262 -1.57879 0
M  V30 3340 O 335.378 -1.42185 -2.28116 0
M  V30 3341 C 333.649 -3.46777 -0.864879 0
M  V30 3342 S 335.208 -4.12434 -1.49811 0
M  V30 3343 H 332.026 -0.697742 -0.136665 0
M  V30 3344 H 334.628 -1.92953 0.314519 0
M  V30 3345 H 333.332 -4.10396 -0.0181326 0
M  V30 3346 H 332.863 -3.57518 -1.64147 0
M  V30 3347 H 334.878 -4.10532 -2.78707 0
M  V30 3348 N 334.051 0.0651679 -1.57465 0
M  V30 3349 C 335.276 0.779605 -1.9219 0
M  V30 3350 C 335.701 1.69988 -0.805333 0
M  V30 3351 O 335.059 1.79685 0.241435 0
M  V30 3352 C 335.107 1.54364 -3.2589 0
M  V30 3353 O 334.211 2.65474 -3.1559 0
M  V30 3354 H 333.552 0.212249 -0.629163 0
M  V30 3355 H 336.082 0.0314294 -2.04576 0
M  V30 3356 H 336.092 1.92146 -3.59922 0
M  V30 3357 H 334.767 0.868457 -4.06732 0
M  V30 3358 H 333.344 2.30501 -2.93128 0
M  V30 3359 N 335.529 1.53961 0.336706 0
M  V30 3360 C 336.757 1.75483 1.09605 0
M  V30 3361 C 337.172 0.4972 1.82136 0
M  V30 3362 O 336.529 -0.53149 1.74589 0
M  V30 3363 C 336.58 2.93943 2.10428 0
M  V30 3364 O 336.301 4.14842 1.40846 0
M  V30 3365 C 337.802 3.27571 2.98684 0
M  V30 3366 H 335.022 0.586166 0.326574 0
M  V30 3367 H 337.566 2.00808 0.38683 0
M  V30 3368 H 335.721 2.70929 2.76905 0
M  V30 3369 H 336.135 4.81383 2.08255 0
M  V30 3370 H 337.609 4.13791 3.6535 0
M  V30 3371 H 338.086 2.44168 3.65074 0
M  V30 3372 H 338.692 3.52615 2.37787 0
M  V30 3373 N 337.007 -0.598083 1.45811 0
M  V30 3374 C 337.97 -1.69018 1.54808 0
M  V30 3375 C 338.97 -1.55037 0.426652 0
M  V30 3376 O 340.16 -1.59932 0.690456 0
M  V30 3377 C 337.292 -3.0835 1.45371 0
M  V30 3378 H 338.485 -1.62403 2.52121 0
M  V30 3379 H 336.038 -0.814626 1.33392 0
M  V30 3380 H 336.773 -3.20534 0.492793 0
M  V30 3381 H 336.558 -3.19907 2.26721 0
M  V30 3382 H 338.048 -3.8788 1.54721 0
M  V30 3383 N 338.485 -1.33259 -0.841409 0
M  V30 3384 C 339.415 -1.25926 -1.96634 0
M  V30 3385 C 340.396 -0.140349 -1.6952 0
M  V30 3386 O 341.581 -0.329707 -1.91381 0
M  V30 3387 C 338.711 -0.99512 -3.32738 0
M  V30 3388 C 337.665 -2.0767 -3.74242 0
M  V30 3389 C 336.991 -1.66474 -5.08125 0
M  V30 3390 C 338.291 -3.49318 -3.88297 0
M  V30 3391 H 339.985 -2.20046 -2.03027 0
M  V30 3392 H 337.531 -1.05931 -0.975425 0
M  V30 3393 H 339.484 -0.930323 -4.11002 0
M  V30 3394 H 338.208 -0.0183004 -3.26595 0
M  V30 3395 H 336.867 -2.13187 -2.98239 0
M  V30 3396 H 336.515 -0.675012 -4.9845 0
M  V30 3397 H 336.215 -2.3885 -5.36865 0
M  V30 3398 H 337.739 -1.61455 -5.88867 0
M  V30 3399 H 339.153 -3.46316 -4.56879 0
M  V30 3400 H 337.55 -4.20158 -4.28471 0
M  V30 3401 H 338.62 -3.8801 -2.9082 0
M  V30 3402 N 339.963 1.05934 -1.16686 0
M  V30 3403 C 341.209 1.79065 -0.95203 0
M  V30 3404 C 341.542 1.87147 0.518629 0
M  V30 3405 O 340.817 1.36574 1.38484 0
M  V30 3406 C 341.1 3.23359 -1.58464 0
M  V30 3407 C 340.953 3.23336 -3.12689 0
M  V30 3408 C 342.272 4.21004 -1.28232 0
M  V30 3409 H 339.391 0.65005 -0.34728 0
M  V30 3410 H 342.033 1.23868 -1.44072 0
M  V30 3411 H 340.183 3.70493 -1.16908 0
M  V30 3412 H 341.855 2.84336 -3.6325 0
M  V30 3413 H 340.098 2.61886 -3.4583 0
M  V30 3414 H 340.769 4.25144 -3.52075 0
M  V30 3415 H 343.245 3.8233 -1.64203 0
M  V30 3416 H 342.121 5.20225 -1.75092 0
M  V30 3417 H 342.382 4.41639 -0.201791 0
M  V30 3418 N 341.441 0.965919 1.2453 0
M  V30 3419 C 342.689 0.625593 1.92174 0
M  V30 3420 C 343.01 -0.841652 1.75901 0
M  V30 3421 O 342.28 -1.60061 1.12948 0
M  V30 3422 H 340.86 0.228388 0.71123 0
M  V30 3423 H 343.522 1.2266 1.51461 0
M  V30 3424 H 342.618 0.864653 2.99884 0
M  V30 3425 N 342.919 -1.39368 0.735821 0
M  V30 3426 C 344.167 -2.00101 0.283562 0
M  V30 3427 C 344.488 -1.5868 -1.13338 0
M  V30 3428 O 343.758 -0.835423 -1.77193 0
M  V30 3429 H 342.338 -0.740024 0.101851 0
M  V30 3430 H 345 -1.70404 0.945962 0
M  V30 3431 H 344.096 -3.10323 0.332604 0
M  V30 3432 N 344.397 -0.483516 -1.5 0
M  V30 3433 C 345.643 0.0672592 -2.02688 0
M  V30 3434 C 345.976 1.38247 -1.36387 0
M  V30 3435 O 345.251 1.88131 -0.493675 0
M  V30 3436 C 345.534 0.238109 -3.59312 0
M  V30 3437 C 345.387 -1.099 -4.36168 0
M  V30 3438 C 346.706 0.986916 -4.28892 0
M  V30 3439 H 343.825 0.0229696 -0.736642 0
M  V30 3440 H 346.467 -0.631527 -1.79197 0
M  V30 3441 H 344.617 0.8333 -3.79458 0
M  V30 3442 H 346.289 -1.73172 -4.27562 0
M  V30 3443 H 344.532 -1.69261 -3.99416 0
M  V30 3444 H 345.203 -0.932954 -5.44059 0
M  V30 3445 H 347.679 0.482302 -4.13295 0
M  V30 3446 H 346.555 1.07527 -5.38265 0
M  V30 3447 H 346.816 2.0265 -3.92919 0
M  V30 3448 N 345.875 1.56104 -0.216619 0
M  V30 3449 C 346.838 2.18819 0.681962 0
M  V30 3450 C 347.838 1.14866 1.12528 0
M  V30 3451 O 349.028 1.40128 1.03488 0
M  V30 3452 C 346.16 2.80756 1.93362 0
M  V30 3453 H 347.353 2.99595 0.135254 0
M  V30 3454 H 344.906 1.56265 0.0330003 0
M  V30 3455 H 345.641 2.03837 2.52232 0
M  V30 3456 H 345.426 3.56876 1.62426 0
M  V30 3457 H 346.916 3.28844 2.57393 0
M  V30 3458 N 347.353 -0.0568162 1.57498 0
M  V30 3459 C 348.599 -0.75422 1.88253 0
M  V30 3460 C 348.932 -1.76461 0.810865 0
M  V30 3461 O 348.207 -1.93691 -0.177259 0
M  V30 3462 C 348.49 -1.44878 3.2967 0
M  V30 3463 C 348.343 -0.453789 4.47505 0
M  V30 3464 C 349.662 -2.38994 3.69554 0
M  V30 3465 H 346.781 -0.272724 0.684683 0
M  V30 3466 H 349.423 -0.0172113 1.89992 0
M  V30 3467 H 347.573 -2.077 3.28318 0
M  V30 3468 H 349.245 0.170371 4.60985 0
M  V30 3469 H 347.488 0.229552 4.33192 0
M  V30 3470 H 348.159 -0.977699 5.43273 0
M  V30 3471 H 350.635 -1.86239 3.72095 0
M  V30 3472 H 349.511 -2.84587 4.69363 0
M  V30 3473 H 349.772 -3.24461 3.00296 0
M  V30 3474 N 348.832 -1.54138 -0.328536 0
M  V30 3475 C 349.762 -1.86167 -1.40939 0
M  V30 3476 C 350.743 -0.718044 -1.54202 0
M  V30 3477 O 351.928 -0.971328 -1.68163 0
M  V30 3478 C 349.058 -2.08461 -2.77779 0
M  V30 3479 C 348.012 -3.24299 -2.7931 0
M  V30 3480 C 347.338 -3.31955 -4.19178 0
M  V30 3481 C 348.638 -4.62065 -2.43502 0
M  V30 3482 H 350.332 -2.76689 -1.14383 0
M  V30 3483 H 347.878 -1.33132 -0.548806 0
M  V30 3484 H 349.831 -2.29453 -3.53454 0
M  V30 3485 H 348.555 -1.14684 -3.05802 0
M  V30 3486 H 347.214 -3.03187 -2.0609 0
M  V30 3487 H 346.862 -2.35745 -4.44335 0
M  V30 3488 H 346.562 -4.09805 -4.2111 0
M  V30 3489 H 348.086 -3.55175 -4.96672 0
M  V30 3490 H 349.5 -4.8297 -3.08889 0
M  V30 3491 H 347.897 -5.42429 -2.56693 0
M  V30 3492 H 348.967 -4.64652 -1.38659 0
M  V30 3493 N 350.31 0.590341 -1.46126 0
M  V30 3494 C 351.273 1.68194 -1.55703 0
M  V30 3495 C 352.273 1.54808 -0.434868 0
M  V30 3496 O 353.463 1.59564 -0.698928 0
M  V30 3497 C 350.595 3.07575 -1.47005 0
M  V30 3498 H 351.788 1.61064 -2.52979 0
M  V30 3499 H 349.341 0.807541 -1.33823 0
M  V30 3500 H 350.076 3.20268 -0.509785 0
M  V30 3501 H 349.861 3.187 -2.28414 0
M  V30 3502 H 351.351 3.87055 -1.56776 0
M  V30 3503 N 351.788 1.33704 0.83433 0
M  V30 3504 C 353.016 1.28467 1.62185 0
M  V30 3505 C 353.431 -0.143526 1.88254 0
M  V30 3506 O 352.788 -1.08709 1.4659 0
M  V30 3507 C 352.839 2.06174 2.96942 0
M  V30 3508 O 352.56 3.43422 2.72016 0
M  V30 3509 C 354.061 2.08201 3.91366 0
M  V30 3510 H 351.281 0.4424 0.504503 0
M  V30 3511 H 353.825 1.76145 1.03891 0
M  V30 3512 H 351.98 1.62167 3.51825 0
M  V30 3513 H 352.394 3.83453 3.57861 0
M  V30 3514 H 353.868 2.67017 4.83121 0
M  V30 3515 H 354.345 1.07343 4.2588 0
M  V30 3516 H 354.951 2.52246 3.42421 0
M  V30 3517 N 353.266 -1.05314 1.17247 0
M  V30 3518 C 354.677 -1.59753 0.96623 0
M  V30 3519 C 355.028 -1.9005 -0.487378 0
M  V30 3520 O 354.153 -1.68126 -1.36245 0
M  V30 3521 C 354.748 -2.90249 1.74759 0
M  V30 3522 C 353.307 -3.41352 1.58606 0
M  V30 3523 C 352.454 -2.15103 1.75002 0
M  V30 3524 H 355.405 -0.881406 1.31973 0
M  V30 3525 H 355.426 -3.60097 1.22925 0
M  V30 3526 H 354.938 -2.68166 2.8055 0
M  V30 3527 H 353.039 -3.68474 0.552985 0
M  V30 3528 H 353.152 -4.16019 2.37624 0
M  V30 3529 H 351.516 -2.25804 1.17833 0
M  V30 3530 H 352.299 -1.95491 2.82202 0
M  V30 3531 N 354.744 -0.972509 -1.24016 0
M  V30 3532 C 355.992 -0.635776 -1.91839 0
M  V30 3533 C 356.313 0.832312 -1.76345 0
M  V30 3534 O 355.583 1.5946 -1.13795 0
M  V30 3535 H 354.163 -0.232157 -0.710009 0
M  V30 3536 H 356.825 -1.23462 -1.50809 0
M  V30 3537 H 355.921 -0.880545 -2.99421 0
M  V30 3538 N 356.222 1.38976 -0.743202 0
M  V30 3539 C 357.185 2.28901 -0.117014 0
M  V30 3540 C 358.185 1.46698 0.658503 0
M  V30 3541 O 359.375 1.67274 0.486305 0
M  V30 3542 C 356.507 3.30309 0.84315 0
M  V30 3543 H 357.7 2.8578 -0.909373 0
M  V30 3544 H 355.253 1.47761 -0.509547 0
M  V30 3545 H 355.988 2.785 1.66157 0
M  V30 3546 H 355.773 3.91029 0.289594 0
M  V30 3547 H 357.263 3.97577 1.2776 0
M  V30 3548 N 357.7 0.491464 1.49741 0
M  V30 3549 C 358.947 -0.0564256 2.02421 0
M  V30 3550 C 359.275 -1.37872 1.37192 0
M  V30 3551 O 358.53 -1.89375 0.493508 0
M  V30 3552 C 358.829 -0.267329 3.56399 0
M  V30 3553 C 358.495 0.975775 4.40215 0
M  V30 3554 C 357.157 1.31655 4.62839 0
M  V30 3555 C 359.509 1.80251 4.89039 0
M  V30 3556 C 356.837 2.48375 5.31532 0
M  V30 3557 C 359.189 2.96116 5.59015 0
M  V30 3558 C 357.853 3.30585 5.79888 0
M  V30 3559 H 357.123 -0.0206476 0.740712 0
M  V30 3560 H 359.77 0.649686 1.80143 0
M  V30 3561 H 358.075 -1.05588 3.77304 0
M  V30 3562 H 359.772 -0.705549 3.94744 0
M  V30 3563 H 356.362 0.700315 4.2284 0
M  V30 3564 H 360.546 1.55239 4.71396 0
M  V30 3565 H 355.802 2.7533 5.45897 0
M  V30 3566 H 359.976 3.60509 5.95824 0
M  V30 3567 H 357.603 4.21132 6.32892 0
M  V30 3568 N 359.178 -1.55987 0.224894 0
M  V30 3569 C 360.427 -1.97566 -0.406273 0
M  V30 3570 C 360.74 -1.11569 -1.6066 0
M  V30 3571 O 361.946 -1.43062 -2.3075 0
M  V30 3572 C 360.402 -3.51474 -0.774207 0
M  V30 3573 C 360.01 -4.46179 0.403496 0
M  V30 3574 C 361.754 -4.01758 -1.37079 0
M  V30 3575 C 359.661 -5.91399 0.0129412 0
M  V30 3576 H 358.591 -0.737777 -0.155565 0
M  V30 3577 H 361.242 -1.80659 0.321635 0
M  V30 3578 H 359.624 -3.63994 -1.55963 0
M  V30 3579 H 360.798 -4.45409 1.18101 0
M  V30 3580 H 359.113 -4.06255 0.913536 0
M  V30 3581 H 361.71 -5.07756 -1.67596 0
M  V30 3582 H 362.053 -3.47805 -2.28773 0
M  V30 3583 H 362.586 -3.92475 -0.648733 0
M  V30 3584 H 359.325 -6.49341 0.896451 0
M  V30 3585 H 358.845 -5.95356 -0.728821 0
M  V30 3586 H 360.524 -6.45683 -0.412582 0
M  V30 3587 N 360.656 0.0484629 -1.57525 0
M  V30 3588 C 361.566 1.07241 -2.08654 0
M  V30 3589 C 362.582 1.409 -1.02095 0
M  V30 3590 O 363.758 1.50609 -1.33712 0
M  V30 3591 C 360.823 2.36008 -2.5397 0
M  V30 3592 C 359.884 2.09108 -3.7493 0
M  V30 3593 C 359.117 3.31736 -4.18075 0
M  V30 3594 O 359.34 4.41714 -3.60895 0
M  V30 3595 O 358.274 3.18576 -5.10679 0
M  V30 3596 H 362.1 0.667965 -2.96263 0
M  V30 3597 H 359.685 0.26417 -1.47046 0
M  V30 3598 H 361.567 3.11747 -2.83535 0
M  V30 3599 H 360.242 2.75786 -1.69481 0
M  V30 3600 H 359.149 1.31 -3.50414 0
M  V30 3601 H 360.482 1.74198 -4.60343 0
M  V30 3602 N 362.134 1.5431 0.320358 0
M  V30 3603 C 363.381 1.72668 1.05792 0
M  V30 3604 C 363.709 0.502084 1.87908 0
M  V30 3605 O 362.964 -0.516149 1.88771 0
M  V30 3606 C 363.263 2.95639 2.00828 0
M  V30 3607 C 362.929 4.30265 1.34843 0
M  V30 3608 C 361.591 4.66865 1.16578 0
M  V30 3609 C 363.943 5.13801 0.875095 0
M  V30 3610 C 361.271 5.84597 0.496336 0
M  V30 3611 C 363.623 6.32219 0.219463 0
M  V30 3612 C 362.287 6.67495 0.0246915 0
M  V30 3613 H 361.557 0.631837 0.387121 0
M  V30 3614 H 364.204 1.88552 0.334735 0
M  V30 3615 H 362.509 2.74456 2.79609 0
M  V30 3616 H 364.206 3.07038 2.57932 0
M  V30 3617 H 360.796 4.01472 1.50061 0
M  V30 3618 H 364.98 4.86039 1.00398 0
M  V30 3619 H 360.236 6.10486 0.334264 0
M  V30 3620 H 364.41 6.96227 -0.155291 0
M  V30 3621 H 362.037 7.5858 -0.496065 0
M  V30 3622 N 363.613 -0.582584 1.46437 0
M  V30 3623 C 364.838 -1.37168 1.55563 0
M  V30 3624 C 365.263 -1.87061 0.19743 0
M  V30 3625 O 364.621 -1.61572 -0.822451 0
M  V30 3626 C 364.669 -2.53511 2.56446 0
M  V30 3627 O 363.773 -3.54953 2.09958 0
M  V30 3628 H 363.114 -0.408494 0.523477 0
M  V30 3629 H 365.644 -0.706646 1.9201 0
M  V30 3630 H 365.654 -3.00426 2.76058 0
M  V30 3631 H 364.329 -2.16549 3.55076 0
M  V30 3632 H 362.906 -3.14516 2.00334 0
M  V30 3633 N 365.091 -1.34144 -0.827227 0
M  V30 3634 C 366.316 -1.29476 -1.62021 0
M  V30 3635 C 366.741 0.129292 -1.87655 0
M  V30 3636 O 366.099 1.08967 -1.449 0
M  V30 3637 C 366.147 -2.08702 -2.94068 0
M  V30 3638 O 365.251 -1.45359 -3.85933 0
M  V30 3639 H 364.592 -0.444881 -0.492927 0
M  V30 3640 H 367.122 -1.76882 -1.02829 0
M  V30 3641 H 367.132 -2.19898 -3.43669 0
M  V30 3642 H 365.807 -3.12241 -2.74734 0
M  V30 3643 H 364.384 -1.42879 -3.44442 0
M  V30 3644 N 366.569 1.04691 -1.17803 0
M  V30 3645 C 367.501 2.12571 -0.857097 0
M  V30 3646 C 368.514 1.62174 0.142647 0
M  V30 3647 O 369.703 1.78301 -0.0843387 0
M  V30 3648 C 366.803 3.37915 -0.258216 0
M  V30 3649 C 365.976 4.1757 -1.30207 0
M  V30 3650 C 365.035 5.2125 -0.720029 0
M  V30 3651 O 364.061 5.51888 -1.39314 0
M  V30 3652 N 365.263 5.78466 0.485507 0
M  V30 3653 H 368.028 2.40698 -1.78562 0
M  V30 3654 H 365.589 1.20831 -1.07757 0
M  V30 3655 H 367.581 4.04442 0.144584 0
M  V30 3656 H 366.151 3.07281 0.574199 0
M  V30 3657 H 365.371 3.46458 -1.88043 0
M  V30 3658 H 366.659 4.67586 -2.00601 0
M  V30 3659 H 366.057 5.55866 1.05022 0
M  V30 3660 H 364.614 6.4649 0.830307 0
M  V30 3661 N 368.047 0.979072 1.23499 0
M  V30 3662 C 368.979 0.476271 2.24197 0
M  V30 3663 C 369.992 -0.421166 1.57258 0
M  V30 3664 O 371.181 -0.225515 1.7707 0
M  V30 3665 C 368.281 -0.330503 3.37285 0
M  V30 3666 C 367.454 0.559744 4.33804 0
M  V30 3667 C 366.513 -0.192954 5.25846 0
M  V30 3668 O 365.539 0.416978 5.67671 0
M  V30 3669 N 366.741 -1.47932 5.61334 0
M  V30 3670 H 369.506 1.34211 2.67969 0
M  V30 3671 H 367.067 0.852189 1.37657 0
M  V30 3672 H 369.059 -0.842361 3.95836 0
M  V30 3673 H 367.629 -1.09734 2.92707 0
M  V30 3674 H 366.849 1.25245 3.73775 0
M  V30 3675 H 368.137 1.1665 4.95248 0
M  V30 3676 H 367.535 -1.9964 5.29302 0
M  V30 3677 H 366.092 -1.93664 6.22364 0
M  V30 3678 N 369.525 -1.3858 0.750561 0
M  V30 3679 C 370.488 -2.28836 0.129152 0
M  V30 3680 C 371.488 -1.47045 -0.650714 0
M  V30 3681 O 372.678 -1.6753 -0.477428 0
M  V30 3682 C 369.81 -3.30751 -0.825622 0
M  V30 3683 H 371.003 -2.85294 0.924516 0
M  V30 3684 H 368.556 -1.47489 0.517376 0
M  V30 3685 H 369.291 -2.79378 -1.64677 0
M  V30 3686 H 369.076 -3.91177 -0.268852 0
M  V30 3687 H 370.566 -3.98249 -1.2565 0
M  V30 3688 N 371.003 -0.499398 -1.49478 0
M  V30 3689 C 371.936 0.326491 -2.25852 0
M  V30 3690 C 372.914 0.971776 -1.30366 0
M  V30 3691 O 374.098 1.00219 -1.59651 0
M  V30 3692 C 371.225 1.45969 -3.05632 0
M  V30 3693 C 370.271 0.928938 -4.16261 0
M  V30 3694 S 371.104 -0.179012 -5.35201 0
M  V30 3695 C 372.26 0.957389 -6.18534 0
M  V30 3696 H 372.493 -0.321746 -2.95554 0
M  V30 3697 H 370.026 -0.284674 -1.51753 0
M  V30 3698 H 371.984 2.109 -3.52181 0
M  V30 3699 H 370.645 2.07953 -2.35402 0
M  V30 3700 H 369.838 1.77813 -4.71592 0
M  V30 3701 H 369.44 0.356869 -3.72293 0
M  V30 3702 H 371.732 1.86296 -6.51383 0
M  V30 3703 H 372.675 0.442733 -7.06715 0
M  V30 3704 H 373.083 1.224 -5.5107 0
M  V30 3705 N 372.481 1.55866 -0.233164 0
M  V30 3706 C 373.444 2.1953 0.658715 0
M  V30 3707 C 374.444 1.16053 1.11303 0
M  V30 3708 O 375.634 1.41218 1.01996 0
M  V30 3709 C 372.766 2.82791 1.90373 0
M  V30 3710 H 373.959 2.99721 0.10347 0
M  V30 3711 H 371.512 1.56291 0.0164245 0
M  V30 3712 H 372.247 2.06501 2.50056 0
M  V30 3713 H 372.032 3.58578 1.58632 0
M  V30 3714 H 373.522 3.31556 2.53891 0
M  V30 3715 N 373.959 -0.0401083 1.57549 0
M  V30 3716 C 374.922 -1.02871 2.04817 0
M  V30 3717 C 375.922 -1.29708 0.950388 0
M  V30 3718 O 377.112 -1.24897 1.21435 0
M  V30 3719 C 374.244 -2.36443 2.45576 0
M  V30 3720 H 375.437 -0.620631 2.93408 0
M  V30 3721 H 372.99 -0.286667 1.53649 0
M  V30 3722 H 373.725 -2.82021 1.60108 0
M  V30 3723 H 373.51 -2.18296 3.25713 0
M  V30 3724 H 375 -3.07441 2.82612 0
M  V30 3725 N 375.437 -1.54477 -0.31217 0
M  V30 3726 C 376.714 -1.63891 -1.06767 0
M  V30 3727 C 377.094 -0.480028 -2.0557 0
M  V30 3728 O 376.442 0.524487 -2.22399 0
M  V30 3729 C 376.652 -3.01402 -1.75948 0
M  V30 3730 C 378 -3.57838 -2.28554 0
M  V30 3731 O 379.024 -3.03782 -1.85998 0
M  V30 3732 O 377.883 -4.52462 -3.06497 0
M  V30 3733 H 374.977 -0.664125 -0.492816 0
M  V30 3734 H 377.523 -1.66823 -0.311149 0
M  V30 3735 H 376.295 -3.77187 -1.04144 0
M  V30 3736 H 375.918 -3.02199 -2.58383 0
M  V30 3737 N 376.915 0.57481 -1.46744 0
M  V30 3738 C 378.163 1.33009 -1.52161 0
M  V30 3739 C 378.484 1.94185 -0.178092 0
M  V30 3740 O 377.754 1.7899 0.796196 0
M  V30 3741 H 376.334 0.493873 -0.560445 0
M  V30 3742 H 378.996 0.672589 -1.82927 0
M  V30 3743 H 378.092 2.13273 -2.27862 0
M  V30 3744 N 378.394 1.34581 0.820102 0
M  V30 3745 C 379.81 1.14325 1.11364 0
M  V30 3746 C 380.01 -0.0533648 2.01429 0
M  V30 3747 O 379.066 -0.728044 2.41776 0
M  V30 3748 C 380.379 2.43983 1.75764 0
M  V30 3749 C 381.927 2.50065 1.88246 0
M  V30 3750 C 382.402 3.79732 2.56061 0
M  V30 3751 N 383.893 3.80908 2.63558 0
M  V30 3752 C 384.628 4.77961 3.16766 0
M  V30 3753 N 384.124 5.85397 3.70517 0
M  V30 3754 N 385.917 4.65413 3.15194 0
M  V30 3755 H 378.068 2.11246 0.221096 0
M  V30 3756 H 380.331 0.934289 0.160649 0
M  V30 3757 H 380.037 3.31651 1.1705 0
M  V30 3758 H 379.911 2.57531 2.75604 0
M  V30 3759 H 382.298 1.62834 2.46108 0
M  V30 3760 H 382.379 2.40442 0.873006 0
M  V30 3761 H 382.023 4.67354 1.98853 0
M  V30 3762 H 381.953 3.86639 3.57516 0
M  V30 3763 H 384.444 3.03274 2.25463 0
M  V30 3764 H 384.757 6.55463 4.09376 0
M  V30 3765 H 383.102 5.89107 3.68752 0
M  V30 3766 H 386.293 3.80627 2.72471 0
M  V30 3767 H 386.466 5.41216 3.56356 0
M  V30 3768 N 379.872 -1.04064 1.18357 0
M  V30 3769 C 381.1 -1.80916 1.00384 0
M  V30 3770 C 381.515 -1.83414 -0.447738 0
M  V30 3771 O 380.872 -1.26962 -1.31099 0
M  V30 3772 C 380.923 -3.26516 1.55144 0
M  V30 3773 O 380.644 -3.2424 2.94618 0
M  V30 3774 C 382.145 -4.20013 1.41789 0
M  V30 3775 H 379.365 -0.569728 0.354474 0
M  V30 3776 H 381.909 -1.31151 1.56906 0
M  V30 3777 H 380.064 -3.73512 1.02798 0
M  V30 3778 H 380.478 -4.15452 3.20156 0
M  V30 3779 H 381.952 -5.20111 1.84901 0
M  V30 3780 H 382.429 -4.37667 0.36661 0
M  V30 3781 H 383.035 -3.78881 1.93207 0
M  V30 3782 N 381.35 -0.985608 -1.22978 0
M  V30 3783 C 382.297 -0.529825 -2.24636 0
M  V30 3784 C 383.267 0.434028 -1.60329 0
M  V30 3785 O 384.452 0.340414 -1.87739 0
M  V30 3786 C 381.592 0.156533 -3.44745 0
M  V30 3787 C 380.705 -0.848197 -4.23591 0
M  V30 3788 C 379.84 -0.136109 -5.31026 0
M  V30 3789 C 378.879 -1.1297 -6.01585 0
M  V30 3790 N 378.016 -0.446415 -7.00679 0
M  V30 3791 H 382.856 -1.40148 -2.62988 0
M  V30 3792 H 380.393 -0.702168 -1.29259 0
M  V30 3793 H 382.351 0.571324 -4.1327 0
M  V30 3794 H 380.981 0.992025 -3.07179 0
M  V30 3795 H 380.033 -1.38135 -3.54433 0
M  V30 3796 H 381.345 -1.60512 -4.72268 0
M  V30 3797 H 380.499 0.335784 -6.0577 0
M  V30 3798 H 379.238 0.653373 -4.83304 0
M  V30 3799 H 378.243 -1.6123 -5.25628 0
M  V30 3800 H 379.468 -1.91993 -6.51395 0
M  V30 3801 H 377.414 0.323763 -6.55201 0
M  V30 3802 H 377.331 -1.1419 -7.47326 0
M  V30 3803 H 378.599 0.00291697 -7.795 0
M  V30 3804 N 382.828 1.3818 -0.7579 0
M  V30 3805 C 384.076 1.99624 -0.315361 0
M  V30 3806 C 384.397 1.60464 1.10799 0
M  V30 3807 O 383.667 0.863507 1.75842 0
M  V30 3808 H 382.247 0.73831 -0.113611 0
M  V30 3809 H 384.909 1.68878 -0.972952 0
M  V30 3810 H 384.005 3.09754 -0.381931 0
M  V30 3811 N 384.306 0.507319 1.49211 0
M  V30 3812 C 385.553 -0.0349529 2.0247 0
M  V30 3813 C 385.881 -1.36409 1.38647 0
M  V30 3814 O 385.136 -1.88841 0.513566 0
M  V30 3815 C 385.435 -0.229513 3.56662 0
M  V30 3816 C 385.101 1.02241 4.39156 0
M  V30 3817 C 383.763 1.36557 4.61417 0
M  V30 3818 C 386.115 1.85428 4.871 0
M  V30 3819 C 383.443 2.53999 5.28868 0
M  V30 3820 C 385.795 3.02028 5.55843 0
M  V30 3821 C 384.459 3.36717 5.76349 0
M  V30 3822 H 383.729 -0.0127902 0.74089 0
M  V30 3823 H 386.376 0.668756 1.79443 0
M  V30 3824 H 384.681 -1.0158 3.78403 0
M  V30 3825 H 386.378 -0.663641 3.9547 0
M  V30 3826 H 382.968 0.745124 4.22073 0
M  V30 3827 H 387.152 1.6023 4.69723 0
M  V30 3828 H 382.408 2.81105 5.42946 0
M  V30 3829 H 386.582 3.66808 5.91967 0
M  V30 3830 H 384.209 4.27821 6.28389 0
M  V30 3831 N 385.784 -1.5574 0.241426 0
M  V30 3832 C 386.747 -2.19877 -0.647063 0
M  V30 3833 C 387.747 -1.16642 -1.10686 0
M  V30 3834 O 388.937 -1.41757 -1.01245 0
M  V30 3835 C 386.069 -2.83797 -1.88871 0
M  V30 3836 H 387.262 -2.99772 -0.087574 0
M  V30 3837 H 384.815 -1.56298 -0.00813574 0
M  V30 3838 H 385.55 -2.07824 -2.48957 0
M  V30 3839 H 385.335 -3.59414 -1.56728 0
M  V30 3840 H 386.825 -3.32898 -2.52129 0
M  V30 3841 N 387.262 0.0317525 -1.57568 0
M  V30 3842 C 388.487 0.738664 -1.938 0
M  V30 3843 C 388.912 1.68242 -0.841208 0
M  V30 3844 O 388.27 1.80157 0.203267 0
M  V30 3845 C 388.318 1.47417 -3.29091 0
M  V30 3846 O 387.422 2.5872 -3.2115 0
M  V30 3847 H 386.763 0.198856 -0.633524 0
M  V30 3848 H 389.293 -0.0119713 -2.04596 0
M  V30 3849 H 389.303 1.84468 -3.63917 0
M  V30 3850 H 387.978 0.781988 -4.08482 0
M  V30 3851 H 386.555 2.24231 -2.97951 0
M  V30 3852 N 388.74 1.54641 0.303973 0
M  V30 3853 C 389.703 1.84646 1.35789 0
M  V30 3854 C 390.703 0.7192 1.4382 0
M  V30 3855 O 391.893 0.987491 1.43507 0
M  V30 3856 C 389.025 2.02407 2.74307 0
M  V30 3857 H 390.218 2.78829 1.10429 0
M  V30 3858 H 387.771 1.46658 0.540487 0
M  V30 3859 H 388.506 1.10502 3.04893 0
M  V30 3860 H 388.291 2.84453 2.69868 0
M  V30 3861 H 389.781 2.27002 3.50514 0
M  V30 3862 N 390.218 -0.567019 1.47046 0
M  V30 3863 C 391.181 -1.65696 1.58359 0
M  V30 3864 C 392.181 -1.54097 0.459441 0
M  V30 3865 O 393.371 -1.58432 0.724225 0
M  V30 3866 C 390.503 -3.05197 1.51879 0
M  V30 3867 H 391.696 -1.57019 2.5551 0
M  V30 3868 H 389.249 -0.786148 1.3509 0
M  V30 3869 H 389.984 -3.19417 0.560673 0
M  V30 3870 H 389.769 -3.15025 2.33455 0
M  V30 3871 H 391.259 -3.84511 1.62913 0
M  V30 3872 N 391.696 -1.35014 -0.812953 0
M  V30 3873 C 392.973 -1.18502 -1.55617 0
M  V30 3874 C 393.353 0.238421 -2.09749 0
M  V30 3875 O 392.701 1.2411 -1.91857 0
M  V30 3876 C 392.911 -2.24783 -2.66971 0
M  V30 3877 C 394.259 -2.60268 -3.35478 0
M  V30 3878 O 395.283 -2.23648 -2.77236 0
M  V30 3879 O 394.142 -3.2321 -4.40678 0
M  V30 3880 H 391.236 -0.459984 -0.687272 0
M  V30 3881 H 393.782 -1.46677 -0.853464 0
M  V30 3882 H 392.554 -3.20284 -2.24798 0
M  V30 3883 H 392.177 -1.97841 -3.44884 0
M  V30 3884 N 393.175 1.03435 -1.18907 0
M  V30 3885 C 394.423 1.76394 -0.986382 0
M  V30 3886 C 394.744 1.88883 0.484567 0
M  V30 3887 O 394.014 1.41843 1.3512 0
M  V30 3888 H 392.594 0.65344 -0.361975 0
M  V30 3889 H 395.256 1.248 -1.49703 0
M  V30 3890 H 394.352 2.77424 -1.42978 0
M  V30 3891 N 394.653 0.992116 1.22453 0
M  V30 3892 C 395.583 0.561677 2.26644 0
M  V30 3893 C 396.564 -0.411055 1.65059 0
M  V30 3894 O 397.749 -0.301861 1.9184 0
M  V30 3895 C 394.879 -0.125247 3.47074 0
M  V30 3896 C 393.833 0.765948 4.21091 0
M  V30 3897 C 393.159 -0.0538484 5.34673 0
M  V30 3898 C 394.459 2.06242 4.79856 0
M  V30 3899 H 396.153 1.43259 2.62902 0
M  V30 3900 H 393.699 0.690283 1.26377 0
M  V30 3901 H 395.652 -0.437764 4.1912 0
M  V30 3902 H 394.376 -1.03069 3.0991 0
M  V30 3903 H 393.035 1.0621 3.50878 0
M  V30 3904 H 392.683 -0.960188 4.9375 0
M  V30 3905 H 392.383 0.539415 5.85119 0
M  V30 3906 H 393.907 -0.360477 6.09535 0
M  V30 3907 H 395.321 1.8139 5.43848 0
M  V30 3908 H 393.718 2.60444 5.40638 0
M  V30 3909 H 394.788 2.74167 3.99951 0
M  V30 3910 N 396.131 -1.37776 0.765217 0
M  V30 3911 C 397.094 -2.28686 0.153416 0
M  V30 3912 C 398.094 -1.47727 -0.635081 0
M  V30 3913 O 399.284 -1.68027 -0.459632 0
M  V30 3914 C 396.416 -3.31608 -0.790495 0
M  V30 3915 H 397.609 -2.84297 0.954723 0
M  V30 3916 H 395.162 -1.46932 0.53299 0
M  V30 3917 H 395.897 -2.81109 -1.61705 0
M  V30 3918 H 395.682 -3.9144 -0.227348 0
M  V30 3919 H 397.172 -3.99559 -1.21419 0
M  V30 3920 N 397.609 -0.515225 -1.4894 0
M  V30 3921 C 398.855 0.016187 -2.03394 0
M  V30 3922 C 399.21 1.33377 -1.38666 0
M  V30 3923 O 398.503 1.84461 -0.518141 0
M  V30 3924 C 398.697 0.210595 -3.56779 0
M  V30 3925 C 398.526 -1.08659 -4.36375 0
M  V30 3926 C 397.296 -1.64237 -4.77864 0
M  V30 3927 C 399.494 -1.9935 -4.74093 0
M  V30 3928 N 397.476 -2.88398 -5.41941 0
M  V30 3929 C 398.847 -3.08088 -5.38035 0
M  V30 3930 C 400.902 -1.99856 -4.56029 0
M  V30 3931 C 399.605 -4.17377 -5.85823 0
M  V30 3932 C 401.631 -3.08129 -5.04787 0
M  V30 3933 C 400.993 -4.15586 -5.68742 0
M  V30 3934 H 397.092 -0.0352107 -0.781207 0
M  V30 3935 H 399.676 -0.693237 -1.8194 0
M  V30 3936 H 397.847 0.889088 -3.78087 0
M  V30 3937 H 399.579 0.740287 -3.97872 0
M  V30 3938 H 396.334 -1.18566 -4.58518 0
M  V30 3939 H 396.758 -3.51572 -5.78555 0
M  V30 3940 H 401.4 -1.18079 -4.05977 0
M  V30 3941 H 399.118 -4.99943 -6.34888 0
M  V30 3942 H 402.704 -3.09557 -4.92611 0
M  V30 3943 H 401.584 -4.97987 -6.05787 0
M  V30 3944 N 399.087 1.5561 -0.249682 0
M  V30 3945 C 400.335 1.98618 0.373548 0
M  V30 3946 C 400.656 1.13919 1.58264 0
M  V30 3947 O 399.926 0.222637 1.94631 0
M  V30 3948 H 398.506 0.733571 0.141006 0
M  V30 3949 H 401.168 1.91748 -0.349117 0
M  V30 3950 H 400.264 3.04584 0.680796 0
M  V30 3951 N 400.565 -0.0233959 1.57583 0
M  V30 3952 C 401.475 -1.03907 2.10334 0
M  V30 3953 C 402.491 -1.39257 1.04323 0
M  V30 3954 O 403.667 -1.48462 1.36091 0
M  V30 3955 C 400.732 -2.31938 2.57693 0
M  V30 3956 C 399.793 -2.03117 3.78209 0
M  V30 3957 C 399.026 -3.25043 4.233 0
M  V30 3958 O 399.249 -4.35916 3.67876 0
M  V30 3959 O 398.183 -3.10411 5.15683 0
M  V30 3960 H 402.009 -0.620748 2.97288 0
M  V30 3961 H 399.594 -0.240743 1.47448 0
M  V30 3962 H 401.476 -3.07196 2.88458 0
M  V30 3963 H 400.151 -2.73055 1.73847 0
M  V30 3964 H 399.058 -1.25408 3.52454 0
M  V30 3965 H 400.391 -1.66852 4.63056 0
M  V30 3966 N 402.043 -1.548 -0.295768 0
M  V30 3967 C 403.291 -1.73985 -1.02828 0
M  V30 3968 C 403.612 -0.531406 -1.87619 0
M  V30 3969 O 402.882 0.454221 -1.90561 0
M  V30 3970 H 401.462 -0.641556 -0.382642 0
M  V30 3971 H 404.124 -1.92163 -0.325489 0
M  V30 3972 H 403.22 -2.63129 -1.67838 0
M  V30 3973 N 403.521 0.559213 -1.47345 0
M  V30 3974 C 404.767 1.31843 -1.54095 0
M  V30 3975 C 405.1 1.93149 -0.201726 0
M  V30 3976 O 404.375 1.77759 0.789428 0
M  V30 3977 C 404.658 2.43006 -2.65744 0
M  V30 3978 C 404.511 1.86581 -4.09277 0
M  V30 3979 C 405.83 3.44943 -2.73318 0
M  V30 3980 H 402.949 0.478012 -0.560957 0
M  V30 3981 H 405.591 0.625977 -1.79392 0
M  V30 3982 H 403.741 3.02072 -2.44305 0
M  V30 3983 H 405.413 1.31792 -4.42073 0
M  V30 3984 H 403.656 1.17268 -4.17649 0
M  V30 3985 H 404.327 2.66933 -4.83168 0
M  V30 3986 H 406.803 2.95793 -2.92653 0
M  V30 3987 H 405.679 4.20153 -3.53218 0
M  V30 3988 H 405.94 4.03665 -1.80296 0
M  V30 3989 N 404.999 1.35443 0.805782 0
M  V30 3990 C 405.962 1.28301 1.89925 0
M  V30 3991 C 406.962 0.194285 1.59622 0
M  V30 3992 O 408.152 0.448036 1.6834 0
M  V30 3993 C 405.284 0.984997 3.2636 0
M  V30 3994 H 406.477 2.2553 1.97677 0
M  V30 3995 H 404.03 1.19979 1.00173 0
M  V30 3996 H 404.765 0.016603 3.24296 0
M  V30 3997 H 404.55 1.77269 3.4974 0
M  V30 3998 H 406.04 0.960651 4.064 0
M  V30 3999 N 406.477 -1.02803 1.19454 0
M  V30 4000 C 407.723 -1.76478 0.999171 0
M  V30 4001 C 408.056 -1.88456 -0.468828 0
M  V30 4002 O 407.331 -1.40198 -1.34814 0
M  V30 4003 C 407.614 -3.19044 1.66981 0
M  V30 4004 C 407.467 -3.14932 3.21151 0
M  V30 4005 C 408.786 -4.17456 1.39349 0
M  V30 4006 H 405.905 -0.640614 0.364393 0
M  V30 4007 H 408.547 -1.20005 1.47305 0
M  V30 4008 H 406.697 -3.67263 1.2669 0
M  V30 4009 H 408.369 -2.74605 3.70661 0
M  V30 4010 H 406.612 -2.52625 3.52652 0
M  V30 4011 H 407.283 -4.1566 3.63223 0
M  V30 4012 H 409.759 -3.77842 1.74283 0
M  V30 4013 H 408.635 -5.154 1.88823 0
M  V30 4014 H 408.896 -4.40949 0.318813 0
M  V30 4015 N 407.956 -0.998596 -1.21925 0
M  V30 4016 C 408.886 -0.573688 -2.26343 0
M  V30 4017 C 409.867 0.402296 -1.65274 0
M  V30 4018 O 411.052 0.291683 -1.91997 0
M  V30 4019 C 408.182 0.106839 -3.47136 0
M  V30 4020 C 407.136 -0.788269 -4.20678 0
M  V30 4021 C 406.462 0.0254927 -5.34694 0
M  V30 4022 C 407.762 -2.08784 -4.78755 0
M  V30 4023 H 409.456 -1.44651 -2.62138 0
M  V30 4024 H 407.002 -0.696975 -1.26009 0
M  V30 4025 H 408.955 0.415531 -4.19346 0
M  V30 4026 H 407.679 1.01424 -3.10452 0
M  V30 4027 H 406.338 -1.08069 -3.50309 0
M  V30 4028 H 405.986 0.933989 -4.94253 0
M  V30 4029 H 405.686 -0.570437 -5.84825 0
M  V30 4030 H 407.21 0.328147 -6.09718 0
M  V30 4031 H 408.624 -1.84272 -5.42878 0
M  V30 4032 H 407.021 -2.63307 -5.39249 0
M  V30 4033 H 408.091 -2.76284 -3.98491 0
M  V30 4034 N 409.434 1.37368 -0.772513 0
M  V30 4035 C 410.364 2.32856 -0.173304 0
M  V30 4036 C 411.345 1.55818 0.682262 0
M  V30 4037 O 412.53 1.84052 0.619566 0
M  V30 4038 C 409.66 3.40048 0.706007 0
M  V30 4039 C 408.614 4.27973 -0.0483144 0
M  V30 4040 C 407.94 5.26184 0.950491 0
M  V30 4041 C 409.24 5.07665 -1.22776 0
M  V30 4042 H 410.934 2.83217 -0.971002 0
M  V30 4043 H 408.48 1.3617 -0.468377 0
M  V30 4044 H 410.433 4.05827 1.13501 0
M  V30 4045 H 409.157 2.88214 1.53623 0
M  V30 4046 H 407.816 3.63726 -0.458107 0
M  V30 4047 H 407.464 4.7063 1.77529 0
M  V30 4048 H 407.164 5.85872 0.450314 0
M  V30 4049 H 408.688 5.94838 1.37842 0
M  V30 4050 H 410.102 5.66578 -0.875366 0
M  V30 4051 H 408.499 5.76681 -1.66007 0
M  V30 4052 H 409.569 4.40294 -2.03149 0
M  V30 4053 N 410.912 0.523116 1.48665 0
M  V30 4054 C 411.842 -0.23231 2.32342 0
M  V30 4055 C 412.823 -0.941637 1.41659 0
M  V30 4056 O 414.008 -0.928751 1.70552 0
M  V30 4057 C 411.138 -1.28387 3.22698 0
M  V30 4058 C 410.092 -0.693098 4.22351 0
M  V30 4059 C 409.418 -1.8468 5.01794 0
M  V30 4060 C 410.718 0.33063 5.21252 0
M  V30 4061 H 412.412 0.466192 2.95748 0
M  V30 4062 H 409.958 0.225643 1.42221 0
M  V30 4063 H 411.911 -1.82024 3.80059 0
M  V30 4064 H 410.635 -2.01186 2.57278 0
M  V30 4065 H 409.294 -0.178299 3.66166 0
M  V30 4066 H 408.942 -2.56301 4.32804 0
M  V30 4067 H 408.642 -1.45747 5.69238 0
M  V30 4068 H 410.166 -2.38709 5.62006 0
M  V30 4069 H 411.58 -0.118407 5.73178 0
M  V30 4070 H 409.977 0.636974 5.9671 0
M  V30 4071 H 411.047 1.23883 4.68808 0
M  V30 4072 N 412.39 -1.55475 0.257931 0
M  V30 4073 C 413.3 -2.2549 -0.647425 0
M  V30 4074 C 414.316 -1.2748 -1.18427 0
M  V30 4075 O 415.492 -1.6038 -1.2182 0
M  V30 4076 C 412.557 -2.94916 -1.82278 0
M  V30 4077 C 411.618 -4.08363 -1.32432 0
M  V30 4078 C 410.851 -4.74469 -2.44366 0
M  V30 4079 O 411.074 -4.39701 -3.63344 0
M  V30 4080 O 410.008 -5.62763 -2.13497 0
M  V30 4081 H 413.834 -3.03593 -0.0807707 0
M  V30 4082 H 411.419 -1.49377 0.0259962 0
M  V30 4083 H 413.301 -3.38606 -2.50846 0
M  V30 4084 H 411.976 -2.19744 -2.37685 0
M  V30 4085 H 410.883 -3.69166 -0.605605 0
M  V30 4086 H 412.216 -4.85385 -0.816211 0
M  V30 4087 N 413.868 0.0150385 -1.57593 0
M  V30 4088 C 415.284 0.370907 -1.5523 0
M  V30 4089 C 415.484 1.75735 -0.985882 0
M  V30 4090 O 414.54 2.44944 -0.613077 0
M  V30 4091 C 415.853 0.259908 -2.99575 0
M  V30 4092 C 417.401 0.335959 -3.11192 0
M  V30 4093 C 417.876 0.254253 -4.57294 0
M  V30 4094 N 419.367 0.312618 -4.62144 0
M  V30 4095 C 420.102 0.272505 -5.72752 0
M  V30 4096 N 419.598 0.183864 -6.92556 0
M  V30 4097 N 421.391 0.323267 -5.6117 0
M  V30 4098 H 413.542 -0.892104 -1.92757 0
M  V30 4099 H 415.805 -0.340563 -0.884715 0
M  V30 4100 H 415.511 -0.693403 -3.44797 0
M  V30 4101 H 415.385 1.048 -3.62349 0
M  V30 4102 H 417.772 1.27971 -2.65909 0
M  V30 4103 H 417.853 -0.481739 -2.51223 0
M  V30 4104 H 417.497 -0.685887 -5.03247 0
M  V30 4105 H 417.427 1.09024 -5.15191 0
M  V30 4106 H 419.918 0.38307 -3.75953 0
M  V30 4107 H 420.231 0.15874 -7.72637 0
M  V30 4108 H 418.576 0.149708 -6.94839 0
M  V30 4109 H 421.767 0.390607 -4.66467 0
M  V30 4110 H 421.94 0.288539 -6.47357 0
M  V30 4111 N 415.346 1.54954 0.287554 0
M  V30 4112 C 416.276 1.89839 1.35954 0
M  V30 4113 C 417.257 0.758675 1.52244 0
M  V30 4114 O 418.442 1.01557 1.65529 0
M  V30 4115 C 415.572 2.15753 2.72154 0
M  V30 4116 C 414.526 3.3159 2.70614 0
M  V30 4117 C 413.852 3.42952 4.10229 0
M  V30 4118 C 415.152 4.68359 2.31165 0
M  V30 4119 H 416.846 2.79625 1.07007 0
M  V30 4120 H 414.392 1.3454 0.513316 0
M  V30 4121 H 416.345 2.38743 3.47246 0
M  V30 4122 H 415.069 1.22752 3.02654 0
M  V30 4123 H 413.728 3.08545 1.97979 0
M  V30 4124 H 413.376 2.47443 4.37928 0
M  V30 4125 H 413.076 4.20826 4.10097 0
M  V30 4126 H 414.6 3.68218 4.87081 0
M  V30 4127 H 416.014 4.9099 2.95976 0
M  V30 4128 H 414.411 5.49044 2.42221 0
M  V30 4129 H 415.481 4.68165 1.26291 0
M  V30 4130 N 416.824 -0.551391 1.4764 0
M  V30 4131 C 418.049 -1.33837 1.58437 0
M  V30 4132 C 418.474 -1.866 0.237063 0
M  V30 4133 O 417.832 -1.6328 -0.787994 0
M  V30 4134 C 417.88 -2.48014 2.61766 0
M  V30 4135 O 416.984 -3.50419 2.1744 0
M  V30 4136 H 416.325 -0.397299 0.532024 0
M  V30 4137 H 418.855 -0.665759 1.93465 0
M  V30 4138 H 418.865 -2.94503 2.82369 0
M  V30 4139 H 417.54 -2.08969 3.5959 0
M  V30 4140 H 416.117 -3.10196 2.06961 0
M  V30 4141 N 418.302 -1.35869 -0.798587 0
M  V30 4142 C 419.579 -1.20145 -1.54352 0
M  V30 4143 C 419.959 0.216161 -2.0999 0
M  V30 4144 O 419.307 1.22068 -1.93162 0
M  V30 4145 C 419.517 -2.27602 -2.64572 0
M  V30 4146 C 420.865 -2.63811 -3.32699 0
M  V30 4147 O 421.889 -2.26576 -2.74849 0
M  V30 4148 O 420.748 -3.27866 -4.37226 0
M  V30 4149 H 417.842 -0.467248 -0.682355 0
M  V30 4150 H 420.388 -1.47574 -0.837859 0
M  V30 4151 H 419.16 -3.2265 -2.21388 0
M  V30 4152 H 418.783 -2.01488 -3.42766 0
M  V30 4153 N 419.78 1.02168 -1.19998 0
M  V30 4154 C 420.743 2.08765 -0.94604 0
M  V30 4155 C 421.743 1.60618 0.0763846 0
M  V30 4156 O 422.933 1.73472 -0.159135 0
M  V30 4157 C 420.065 3.38262 -0.423255 0
M  V30 4158 H 421.258 2.32726 -1.89153 0
M  V30 4159 H 418.811 1.1889 -1.01464 0
M  V30 4160 H 419.546 3.19974 0.527938 0
M  V30 4161 H 419.331 3.74532 -1.16053 0
M  V30 4162 H 420.821 4.16759 -0.264911 0
M  V30 4163 N 421.258 1.00505 1.21394 0
M  V30 4164 C 422.674 0.717873 1.42544 0
M  V30 4165 C 422.874 -0.706936 1.88692 0
M  V30 4166 O 421.93 -1.47627 2.04847 0
M  V30 4167 C 423.243 1.73377 2.45684 0
M  V30 4168 C 424.791 1.75059 2.59467 0
M  V30 4169 C 425.266 2.75545 3.6584 0
M  V30 4170 N 426.757 2.74213 3.73311 0
M  V30 4171 C 427.492 3.48626 4.55245 0
M  V30 4172 N 426.988 4.32678 5.41075 0
M  V30 4173 N 428.781 3.37276 4.49668 0
M  V30 4174 H 420.932 1.92506 0.897503 0
M  V30 4175 H 423.195 0.830919 0.456375 0
M  V30 4176 H 422.901 2.75395 2.18748 0
M  V30 4177 H 422.775 1.53647 3.44489 0
M  V30 4178 H 425.162 0.737337 2.8574 0
M  V30 4179 H 425.243 1.98861 1.60897 0
M  V30 4180 H 424.887 3.77028 3.40313 0
M  V30 4181 H 424.817 2.49009 4.64007 0
M  V30 4182 H 427.308 2.13234 3.11993 0
M  V30 4183 H 427.621 4.86253 6.00648 0
M  V30 4184 H 425.966 4.3676 5.40616 0
M  V30 4185 H 429.157 2.71043 3.81646 0
M  V30 4186 H 429.33 3.95524 5.13288 0
M  V30 4187 N 422.737 -1.36956 0.779787 0
M  V30 4188 C 424.153 -1.52817 0.460342 0
M  V30 4189 C 424.353 -1.7361 -1.02283 0
M  V30 4190 O 423.409 -1.76207 -1.80852 0
M  V30 4191 C 424.722 -2.71983 1.28241 0
M  V30 4192 C 426.27 -2.85849 1.27512 0
M  V30 4193 C 426.745 -4.08008 2.08072 0
M  V30 4194 N 428.236 -4.15135 2.05467 0
M  V30 4195 C 428.971 -5.08711 2.64577 0
M  V30 4196 N 428.467 -6.07792 3.32506 0
M  V30 4197 N 430.26 -5.01254 2.54363 0
M  V30 4198 H 422.411 -1.21713 1.74068 0
M  V30 4199 H 424.674 -0.593294 0.739396 0
M  V30 4200 H 424.38 -2.63109 2.33381 0
M  V30 4201 H 424.254 -3.65882 0.917088 0
M  V30 4202 H 426.641 -2.94189 0.231686 0
M  V30 4203 H 426.722 -1.92886 1.68014 0
M  V30 4204 H 426.366 -4.00429 3.12441 0
M  V30 4205 H 426.296 -5.001 1.64947 0
M  V30 4206 H 428.787 -3.44189 1.5602 0
M  V30 4207 H 429.1 -6.75739 3.74963 0
M  V30 4208 H 427.445 -6.08047 3.36606 0
M  V30 4209 H 430.636 -4.22795 2.00902 0
M  V30 4210 H 430.809 -5.73995 3.00722 0
M  V30 4211 N 424.215 -0.530993 -1.48385 0
M  V30 4212 C 425.162 0.231223 -2.29639 0
M  V30 4213 C 426.132 0.932864 -1.37429 0
M  V30 4214 O 427.317 0.933692 -1.66394 0
M  V30 4215 C 424.457 1.27155 -3.2082 0
M  V30 4216 C 423.57 0.578655 -4.28107 0
M  V30 4217 C 422.705 1.602 -5.06467 0
M  V30 4218 C 421.744 0.892625 -6.05556 0
M  V30 4219 N 420.881 1.86157 -6.76971 0
M  V30 4220 H 425.721 -0.467848 -2.94305 0
M  V30 4221 H 423.258 -0.242556 -1.45086 0
M  V30 4222 H 425.216 1.88703 -3.72085 0
M  V30 4223 H 423.846 1.939 -2.58075 0
M  V30 4224 H 422.898 -0.150782 -3.80101 0
M  V30 4225 H 424.21 0.0217065 -4.98795 0
M  V30 4226 H 423.364 2.29173 -5.61751 0
M  V30 4227 H 422.103 2.19285 -4.35621 0
M  V30 4228 H 421.108 0.188829 -5.49476 0
M  V30 4229 H 422.333 0.307878 -6.78402 0
M  V30 4230 H 420.279 2.44147 -6.08875 0
M  V30 4231 H 420.196 1.35608 -7.43738 0
M  V30 4232 H 421.464 2.54325 -7.36844 0
M  V30 4233 N 425.693 1.55336 -0.266172 0
M  V30 4234 C 426.941 1.99003 0.35246 0
M  V30 4235 C 427.262 1.15591 1.57047 0
M  V30 4236 O 426.532 0.243268 1.94384 0
M  V30 4237 H 425.112 0.735025 0.133217 0
M  V30 4238 H 427.774 1.91367 -0.369434 0
M  V30 4239 H 426.87 3.05289 0.648453 0
M  V30 4240 N 427.171 -0.0066808 1.57599 0
M  V30 4241 C 428.121 -1.0086 2.04478 0
M  V30 4242 C 429.105 -1.30714 0.938231 0
M  V30 4243 O 430.297 -1.29924 1.20203 0
M  V30 4244 C 427.426 -2.30273 2.54615 0
M  V30 4245 C 426.512 -2.03413 3.72134 0
M  V30 4246 N 426.903 -1.46688 4.84062 0
M  V30 4247 C 425.201 -2.33589 3.79937 0
M  V30 4248 C 425.902 -1.36146 5.65543 0
M  V30 4249 N 424.878 -1.84477 5.1134 0
M  V30 4250 H 428.68 -0.564402 2.8843 0
M  V30 4251 H 426.194 -0.212521 1.61003 0
M  V30 4252 H 428.191 -3.02885 2.86472 0
M  V30 4253 H 426.851 -2.75352 1.72079 0
M  V30 4254 H 427.862 -1.14658 5.05049 0
M  V30 4255 H 424.539 -2.81589 3.08243 0
M  V30 4256 H 425.929 -0.925873 6.6549 0
M  V30 4257 N 428.649 -1.55105 -0.279332 0
M  V30 4258 C 430.065 -1.46803 -0.626187 0
M  V30 4259 C 430.265 -0.676939 -1.89789 0
M  V30 4260 O 429.321 -0.19326 -2.51759 0
M  V30 4261 C 430.634 -2.90962 -0.759034 0
M  V30 4262 C 432.182 -3.01138 -0.853504 0
M  V30 4263 C 432.657 -4.46539 -1.01818 0
M  V30 4264 N 434.148 -4.50341 -1.08386 0
M  V30 4265 C 434.883 -5.60053 -1.22996 0
M  V30 4266 N 434.379 -6.79645 -1.34366 0
M  V30 4267 N 436.172 -5.47783 -1.26056 0
M  V30 4268 H 428.323 -2.04996 0.555921 0
M  V30 4269 H 430.586 -0.929325 0.187239 0
M  V30 4270 H 430.292 -3.51544 0.104852 0
M  V30 4271 H 430.166 -3.39619 -1.64131 0
M  V30 4272 H 432.553 -2.40658 -1.70786 0
M  V30 4273 H 432.634 -2.55745 0.0532466 0
M  V30 4274 H 432.278 -5.0762 -0.168504 0
M  V30 4275 H 432.208 -4.89583 -1.93948 0
M  V30 4276 H 434.699 -3.64191 -1.00864 0
M  V30 4277 H 435.012 -7.59012 -1.4533 0
M  V30 4278 H 433.357 -6.82469 -1.31382 0
M  V30 4279 H 436.548 -4.53294 -1.168 0
M  V30 4280 H 436.721 -6.33331 -1.37098 0
M  V30 4281 N 430.127 0.543554 -1.4793 0
M  V30 4282 C 431.373 1.30201 -1.55485 0
M  V30 4283 C 431.706 1.92925 -0.222201 0
M  V30 4284 O 430.981 1.78586 0.77053 0
M  V30 4285 C 431.264 2.40174 -2.68307 0
M  V30 4286 C 431.117 1.8223 -4.11233 0
M  V30 4287 C 432.436 3.42024 -2.76961 0
M  V30 4288 H 429.555 0.472036 -0.565996 0
M  V30 4289 H 432.197 0.606914 -1.80046 0
M  V30 4290 H 430.347 2.99463 -2.47495 0
M  V30 4291 H 432.019 1.27096 -4.43446 0
M  V30 4292 H 430.262 1.12832 -4.18869 0
M  V30 4293 H 430.933 2.61793 -4.85972 0
M  V30 4294 H 433.409 2.92672 -2.95774 0
M  V30 4295 H 432.285 4.16383 -3.57654 0
M  V30 4296 H 432.546 4.0173 -1.84568 0
M  V30 4297 N 431.605 1.3629 0.791371 0
M  V30 4298 C 432.535 1.33137 1.91825 0
M  V30 4299 C 433.516 0.203168 1.68882 0
M  V30 4300 O 434.701 0.400509 1.90025 0
M  V30 4301 C 431.831 1.11793 3.28816 0
M  V30 4302 C 430.785 2.21417 3.66277 0
M  V30 4303 C 430.111 1.85218 5.01596 0
M  V30 4304 C 431.411 3.63489 3.75064 0
M  V30 4305 H 433.105 2.2743 1.9472 0
M  V30 4306 H 430.651 1.09479 0.935437 0
M  V30 4307 H 432.604 1.08222 4.07266 0
M  V30 4308 H 431.328 0.139501 3.26302 0
M  V30 4309 H 429.987 2.2411 2.90121 0
M  V30 4310 H 429.635 0.859544 4.95602 0
M  V30 4311 H 429.335 2.58611 5.27631 0
M  V30 4312 H 430.859 1.832 5.82469 0
M  V30 4313 H 432.273 3.63034 4.43711 0
M  V30 4314 H 430.67 4.35771 4.12582 0
M  V30 4315 H 431.74 3.98536 2.76219 0
M  V30 4316 N 433.083 -1.0153 1.20538 0
M  V30 4317 C 434.046 -2.0826 0.957098 0
M  V30 4318 C 435.046 -1.60657 -0.0678655 0
M  V30 4319 O 436.236 -1.73385 0.168332 0
M  V30 4320 C 433.368 -3.38033 0.441188 0
M  V30 4321 H 434.561 -2.31719 1.90384 0
M  V30 4322 H 432.114 -1.1835 1.02093 0
M  V30 4323 H 432.849 -3.20249 -0.510961 0
M  V30 4324 H 432.634 -3.73911 1.18038 0
M  V30 4325 H 434.124 -4.16613 0.287009 0
M  V30 4326 N 434.561 -1.01147 -1.20859 0
M  V30 4327 C 435.807 -0.698899 -1.90377 0
M  V30 4328 C 436.14 0.76904 -1.78324 0
M  V30 4329 O 435.415 1.55817 -1.16409 0
M  V30 4330 C 435.698 -1.12878 -3.41951 0
M  V30 4331 C 435.551 -2.65665 -3.62963 0
M  V30 4332 C 436.87 -0.696114 -4.3456 0
M  V30 4333 H 433.989 -0.255372 -0.691342 0
M  V30 4334 H 436.631 -1.25831 -1.42361 0
M  V30 4335 H 434.781 -0.652827 -3.82976 0
M  V30 4336 H 436.453 -3.21074 -3.31224 0
M  V30 4337 H 434.696 -3.06878 -3.06608 0
M  V30 4338 H 435.367 -2.90797 -4.69192 0
M  V30 4339 H 437.843 -1.10521 -4.01154 0
M  V30 4340 H 436.719 -1.025 -5.39245 0
M  V30 4341 H 436.98 0.402465 -4.40264 0
M  V30 4342 N 436.039 1.36541 -0.78704 0
M  V30 4343 C 437.285 1.99599 -0.358872 0
M  V30 4344 C 437.618 1.62323 1.06606 0
M  V30 4345 O 436.893 0.876858 1.73613 0
M  V30 4346 C 437.176 3.56327 -0.519944 0
M  V30 4347 C 437.029 4.03464 -1.98839 0
M  V30 4348 C 438.348 4.4005 0.0664737 0
M  V30 4349 H 435.467 0.725107 -0.131869 0
M  V30 4350 H 438.109 1.6199 -0.992936 0
M  V30 4351 H 436.259 3.88495 0.0198321 0
M  V30 4352 H 437.931 3.81793 -2.58905 0
M  V30 4353 H 436.174 3.55092 -2.49183 0
M  V30 4354 H 436.845 5.12439 -2.05207 0
M  V30 4355 H 439.321 4.14228 -0.394267 0
M  V30 4356 H 438.197 5.48847 -0.0762682 0
M  V30 4357 H 438.458 4.26655 1.15835 0
M  V30 4358 N 437.518 0.538854 1.48102 0
M  V30 4359 C 438.934 0.19732 1.58376 0
M  V30 4360 C 439.134 -1.29971 1.5398 0
M  V30 4361 O 438.19 -2.07861 1.43352 0
M  V30 4362 C 439.503 0.807716 2.89649 0
M  V30 4363 C 441.051 0.77726 3.03196 0
M  V30 4364 C 441.526 1.36639 4.37143 0
M  V30 4365 N 443.017 1.32875 4.43732 0
M  V30 4366 C 443.752 1.7544 5.45901 0
M  V30 4367 N 443.248 2.25776 6.54979 0
M  V30 4368 N 445.041 1.66623 5.36836 0
M  V30 4369 H 437.192 1.5117 1.49202 0
M  V30 4370 H 439.455 0.629327 0.708979 0
M  V30 4371 H 439.161 1.85909 2.98548 0
M  V30 4372 H 439.035 0.289975 3.76084 0
M  V30 4373 H 441.422 -0.265374 2.93904 0
M  V30 4374 H 441.503 1.33256 2.18349 0
M  V30 4375 H 441.147 2.408 4.47189 0
M  V30 4376 H 441.077 0.786689 5.20691 0
M  V30 4377 H 443.568 0.96037 3.65493 0
M  V30 4378 H 443.881 2.56226 7.29087 0
M  V30 4379 H 442.226 2.29775 6.55918 0
M  V30 4380 H 445.417 1.27089 4.50517 0
M  V30 4381 H 445.59 2.00115 6.16326 0
M  V30 4382 N 438.996 -1.55193 0.274407 0
M  V30 4383 C 440.244 -1.99187 -0.341902 0
M  V30 4384 C 440.565 -1.16422 -1.56431 0
M  V30 4385 O 439.835 -0.253573 -1.94252 0
M  V30 4386 H 438.415 -0.735721 -0.129317 0
M  V30 4387 H 441.077 -1.91168 0.379578 0
M  V30 4388 H 440.173 -3.05629 -0.632253 0
M  V30 4389 N 440.474 -0.00167713 -1.576 0
M  V30 4390 C 441.699 0.69739 -1.95323 0
M  V30 4391 C 442.124 1.6642 -0.876706 0
M  V30 4392 O 441.482 1.80548 0.165007 0
M  V30 4393 C 441.53 1.40403 -3.32144 0
M  V30 4394 O 440.634 2.5185 -3.26566 0
M  V30 4395 H 439.975 0.185373 -0.637599 0
M  V30 4396 H 442.505 -0.0553665 -2.04525 0
M  V30 4397 H 442.515 1.76707 -3.67748 0
M  V30 4398 H 441.19 0.695167 -4.10049 0
M  V30 4399 H 439.767 2.17861 -3.0264 0
M  V30 4400 N 441.952 1.55251 0.271103 0
M  V30 4401 C 442.915 1.87484 1.31842 0
M  V30 4402 C 443.915 0.749545 1.42262 0
M  V30 4403 O 445.105 1.01771 1.4138 0
M  V30 4404 C 442.237 2.0818 2.69951 0
M  V30 4405 H 443.43 2.81108 1.0449 0
M  V30 4406 H 440.983 1.47771 0.509258 0
M  V30 4407 H 441.718 1.16944 3.02481 0
M  V30 4408 H 441.503 2.90114 2.63774 0
M  V30 4409 H 442.993 2.34385 3.4562 0
M  V30 4410 N 443.43 -0.535701 1.48216 0
M  V30 4411 C 444.679 -1.28828 1.55197 0
M  V30 4412 C 444.992 -1.94263 0.228278 0
M  V30 4413 O 446.198 -2.70927 0.176278 0
M  V30 4414 C 444.654 -2.33727 2.73678 0
M  V30 4415 C 444.262 -1.74386 4.12666 0
M  V30 4416 C 446.006 -3.1003 2.89968 0
M  V30 4417 C 443.913 -2.77192 5.22416 0
M  V30 4418 H 442.843 -0.484484 0.577747 0
M  V30 4419 H 445.494 -0.56646 1.74538 0
M  V30 4420 H 443.876 -3.08919 2.4776 0
M  V30 4421 H 445.05 -1.05421 4.48579 0
M  V30 4422 H 443.365 -1.10595 4.01445 0
M  V30 4423 H 445.962 -3.86842 3.6913 0
M  V30 4424 H 446.305 -3.65542 1.9921 0
M  V30 4425 H 446.838 -2.41952 3.15759 0
M  V30 4426 H 443.577 -2.26507 6.15122 0
M  V30 4427 H 443.097 -3.44502 4.90998 0
M  V30 4428 H 444.776 -3.40285 5.50286 0
M  V30 4429 N 444.908 -1.36708 -0.784132 0
M  V30 4430 C 445.856 -1.31533 -1.91838 0
M  V30 4431 C 446.85 -0.206205 -1.6814 0
M  V30 4432 O 448.056 -0.373519 -1.76082 0
M  V30 4433 H 444.431 -0.409613 -0.630651 0
M  V30 4434 H 446.402 -2.2731 -1.9332 0
M  V30 4435 C 445.151 -1.12679 -3.28936 0
M  V30 4436 H 444.474 -1.97274 -3.4774 0
M  V30 4437 H 445.914 -1.13106 -4.08636 0
M  V30 4438 C 444.373 0.168281 -3.36479 0
M  V30 4439 O 444.903 1.15625 -3.84699 0
M  V30 4440 N 443.109 0.214762 -2.89805 0
M  V30 4441 H 442.656 -0.589852 -2.50756 0
M  V30 4442 H 442.614 1.08094 -2.95234 0
M  V30 4443 N 446.386 1.0089 -1.21074 0
M  V30 4444 C 447.318 2.09737 -0.924291 0
M  V30 4445 C 448.331 1.62546 0.0909809 0
M  V30 4446 O 449.52 1.77942 -0.141021 0
M  V30 4447 C 446.62 3.36922 -0.36559 0
M  V30 4448 C 445.793 4.13216 -1.43426 0
M  V30 4449 C 444.852 5.18696 -0.885496 0
M  V30 4450 O 443.878 5.47176 -1.56801 0
M  V30 4451 N 445.08 5.79718 0.301227 0
M  V30 4452 H 447.845 2.34895 -1.8613 0
M  V30 4453 H 445.406 1.17341 -1.11546 0
M  V30 4454 H 447.398 4.04697 0.0158407 0
M  V30 4455 H 445.968 3.08952 0.476149 0
M  V30 4456 H 445.188 3.40301 -1.9897 0
M  V30 4457 H 446.476 4.60967 -2.15376 0
M  V30 4458 H 445.874 5.58926 0.872849 0
M  V30 4459 H 444.431 6.48804 0.624211 0
M  V30 4460 N 447.864 1.01787 1.20321 0
M  V30 4461 C 449.141 0.622978 1.85414 0
M  V30 4462 C 449.521 -0.898887 1.91006 0
M  V30 4463 O 448.869 -1.79112 1.41884 0
M  V30 4464 C 449.079 1.27226 3.24984 0
M  V30 4465 C 450.427 1.3885 4.01255 0
M  V30 4466 O 451.451 1.22857 3.34342 0
M  V30 4467 O 450.31 1.64705 5.2109 0
M  V30 4468 H 447.404 0.215116 0.798533 0
M  V30 4469 H 449.95 1.11533 1.27901 0
M  V30 4470 H 448.722 2.31209 3.15687 0
M  V30 4471 H 448.345 0.767069 3.90131 0
M  V30 4472 N 449.342 -1.36122 0.79427 0
M  V30 4473 C 450.59 -1.98718 0.368177 0
M  V30 4474 C 450.911 -1.63345 -1.06506 0
M  V30 4475 O 450.181 -0.909825 -1.73491 0
M  V30 4476 H 448.761 -0.735038 0.133146 0
M  V30 4477 H 451.423 -1.66239 1.01739 0
M  V30 4478 H 450.519 -3.08633 0.463923 0
M  V30 4479 N 450.82 -0.546701 -1.47814 0
M  V30 4480 C 451.783 0.196287 -2.28358 0
M  V30 4481 C 452.783 0.852437 -1.36346 0
M  V30 4482 O 453.973 0.709913 -1.59078 0
M  V30 4483 C 451.105 1.28579 -3.15722 0
M  V30 4484 H 452.298 -0.511086 -2.95513 0
M  V30 4485 H 449.851 -0.303248 -1.5333 0
M  V30 4486 H 450.586 2.0259 -2.53235 0
M  V30 4487 H 450.371 0.820229 -3.83425 0
M  V30 4488 H 451.861 1.80793 -3.76435 0
M  V30 4489 N 452.299 1.55045 -0.282633 0
M  V30 4490 C 453.524 2.04628 0.337977 0
M  V30 4491 C 453.949 1.15937 1.48123 0
M  V30 4492 O 453.307 0.159532 1.80597 0
M  V30 4493 C 453.355 3.51854 0.78936 0
M  V30 4494 O 452.459 3.66236 1.89592 0
M  V30 4495 H 451.8 0.660434 0.0687261 0
M  V30 4496 H 454.33 2.00261 -0.419124 0
M  V30 4497 H 454.34 3.93361 1.08311 0
M  V30 4498 H 453.015 4.15873 -0.0470419 0
M  V30 4499 H 451.592 3.36633 1.60413 0
M  V30 4500 N 453.777 0.010035 1.57597 0
M  V30 4501 C 454.725 -0.996272 2.10184 0
M  V30 4502 C 455.719 -1.34942 1.02406 0
M  V30 4503 O 456.925 -1.33389 1.20861 0
M  V30 4504 H 453.3 -0.338982 0.671264 0
M  V30 4505 H 455.271 -0.527272 2.93705 0
M  V30 4506 C 454.02 -2.27599 2.62857 0
M  V30 4507 H 453.343 -2.01295 3.45428 0
M  V30 4508 H 454.783 -2.96265 3.0332 0
M  V30 4509 C 453.242 -2.99269 1.54725 0
M  V30 4510 O 453.772 -3.90644 0.93597 0
M  V30 4511 N 451.978 -2.61269 1.27228 0
M  V30 4512 H 451.525 -1.87043 1.77123 0
M  V30 4513 H 451.483 -3.09534 0.550999 0
M  V30 4514 N 455.255 -1.55392 -0.262866 0
M  V30 4515 C 456.503 -1.76127 -0.991147 0
M  V30 4516 C 456.824 -0.571083 -1.8645 0
M  V30 4517 O 456.094 0.413698 -1.91482 0
M  V30 4518 H 454.674 -0.649528 -0.368948 0
M  V30 4519 H 457.336 -1.9281 -0.284655 0
M  V30 4520 H 456.432 -2.6663 -1.62219 0
M  V30 4521 N 456.733 0.527833 -1.48498 0
M  V30 4522 C 457.663 1.64136 -1.66077 0
M  V30 4523 C 458.644 1.62286 -0.509625 0
M  V30 4524 O 459.829 1.79449 -0.742413 0
M  V30 4525 C 456.959 3.02717 -1.70234 0
M  V30 4526 C 455.913 3.19426 -2.8487 0
M  V30 4527 C 455.239 4.5909 -2.74118 0
M  V30 4528 C 456.539 3.01993 -4.26142 0
M  V30 4529 H 458.233 1.4968 -2.593 0
M  V30 4530 H 455.779 0.718654 -1.24785 0
M  V30 4531 H 457.732 3.80491 -1.8112 0
M  V30 4532 H 456.456 3.18201 -0.735911 0
M  V30 4533 H 455.115 2.4407 -2.73542 0
M  V30 4534 H 454.763 4.71413 -1.7544 0
M  V30 4535 H 454.463 4.71214 -3.51042 0
M  V30 4536 H 455.987 5.3896 -2.86974 0
M  V30 4537 H 457.401 3.69558 -4.38292 0
M  V30 4538 H 455.798 3.2561 -5.04082 0
M  V30 4539 H 456.868 1.98396 -4.42456 0
M  V30 4540 N 458.211 1.37122 0.776871 0
M  V30 4541 C 459.439 1.3523 1.5659 0
M  V30 4542 C 459.854 -0.0635518 1.88693 0
M  V30 4543 O 459.211 -1.02394 1.51069 0
M  V30 4544 C 459.262 2.18583 2.8793 0
M  V30 4545 O 458.983 3.5465 2.57206 0
M  V30 4546 C 460.484 2.24612 3.82183 0
M  V30 4547 H 457.704 0.4634 0.485285 0
M  V30 4548 H 460.248 1.80392 0.963266 0
M  V30 4549 H 458.403 1.76943 3.4463 0
M  V30 4550 H 458.817 3.98286 3.41275 0
M  V30 4551 H 460.291 2.87267 4.71361 0
M  V30 4552 H 460.768 1.25309 4.20944 0
M  V30 4553 H 461.374 2.66543 3.31414 0
M  V30 4554 N 459.689 -1.00246 1.21608 0
M  V30 4555 C 460.652 -2.07233 0.979133 0
M  V30 4556 C 461.652 -1.6072 -0.0508219 0
M  V30 4557 O 462.842 -1.73196 0.186712 0
M  V30 4558 C 459.974 -3.37546 0.477016 0
M  V30 4559 H 461.167 -2.29687 1.92831 0
M  V30 4560 H 458.72 -1.17261 1.03342 0
M  V30 4561 H 459.455 -3.20773 -0.476966 0
M  V30 4562 H 459.24 -3.72638 1.21997 0
M  V30 4563 H 460.73 -4.16285 0.331181 0
M  V30 4564 N 461.167 -1.02423 -1.1978 0
M  V30 4565 C 462.578 -0.748389 -1.71044 0
M  V30 4566 C 462.929 0.732398 -1.82017 0
M  V30 4567 O 462.054 1.57116 -1.48807 0
M  V30 4568 C 462.649 -1.35187 -3.1066 0
M  V30 4569 C 461.208 -1.12472 -3.59203 0
M  V30 4570 C 460.355 -1.45283 -2.36195 0
M  V30 4571 H 463.306 -1.19275 -1.04686 0
M  V30 4572 H 463.327 -0.746408 -3.73107 0
M  V30 4573 H 462.839 -2.4296 -3.02642 0
M  V30 4574 H 460.94 -0.0649983 -3.72543 0
M  V30 4575 H 461.053 -1.81016 -4.43588 0
M  V30 4576 H 459.417 -0.872034 -2.39307 0
M  V30 4577 H 460.2 -2.54129 -2.30811 0
M  V30 4578 N 462.645 1.35699 -0.801477 0
M  V30 4579 C 463.595 2.2728 -0.181073 0
M  V30 4580 C 464.579 1.47533 0.642098 0
M  V30 4581 O 465.771 1.69785 0.500193 0
M  V30 4582 C 462.9 3.36626 0.673612 0
M  V30 4583 C 461.986 4.23802 -0.159008 0
M  V30 4584 N 462.377 4.90879 -1.2195 0
M  V30 4585 C 460.675 4.45959 0.0602005 0
M  V30 4586 C 461.376 5.5546 -1.72738 0
M  V30 4587 N 460.352 5.33663 -1.03465 0
M  V30 4588 H 464.154 2.76632 -0.992582 0
M  V30 4589 H 461.668 1.49166 -0.642127 0
M  V30 4590 H 463.665 4.01179 1.13408 0
M  V30 4591 H 462.325 2.88828 1.48353 0
M  V30 4592 H 463.336 4.92497 -1.60209 0
M  V30 4593 H 460.013 4.08969 0.839664 0
M  V30 4594 H 461.403 6.18991 -2.61342 0
M  V30 4595 N 464.123 0.554532 1.47522 0
M  V30 4596 C 465.371 0.0294208 2.02079 0
M  V30 4597 C 465.692 -1.32411 1.43151 0
M  V30 4598 O 464.962 -1.863 0.605728 0
M  V30 4599 H 463.542 0.00788672 0.746958 0
M  V30 4600 H 466.204 0.723934 1.80956 0
M  V30 4601 H 465.3 -0.0606745 3.12041 0
M  V30 4602 N 465.601 -1.54893 0.290851 0
M  V30 4603 C 467.012 -1.85584 -0.203816 0
M  V30 4604 C 467.363 -1.21285 -1.54222 0
M  V30 4605 O 466.488 -0.506841 -2.10381 0
M  V30 4606 C 467.083 -3.367 -0.376595 0
M  V30 4607 C 465.642 -3.6746 -0.815485 0
M  V30 4608 C 464.789 -2.77178 0.0821087 0
M  V30 4609 H 467.74 -1.50208 0.512175 0
M  V30 4610 H 467.761 -3.60656 -1.21275 0
M  V30 4611 H 467.273 -3.8347 0.59767 0
M  V30 4612 H 465.374 -3.26201 -1.80066 0
M  V30 4613 H 465.487 -4.7478 -0.641905 0
M  V30 4614 H 463.851 -2.50925 -0.436895 0
M  V30 4615 H 464.634 -3.26767 1.05254 0
M  V30 4616 N 467.08 -0.0183926 -1.57589 0
M  V30 4617 C 468.305 0.676634 -1.96052 0
M  V30 4618 C 468.73 1.6548 -0.894307 0
M  V30 4619 O 468.088 1.80712 0.145849 0
M  V30 4620 C 468.136 1.36872 -3.33614 0
M  V30 4621 O 467.24 2.48372 -3.29219 0
M  V30 4622 H 466.581 0.1786 -0.63953 0
M  V30 4623 H 469.111 -0.077056 -2.04455 0
M  V30 4624 H 469.121 1.72797 -3.69601 0
M  V30 4625 H 467.796 0.651636 -4.10763 0
M  V30 4626 H 466.373 2.14639 -3.04934 0
M  V30 4627 N 468.558 1.5553 0.254621 0
M  V30 4628 C 469.49 1.86104 1.33783 0
M  V30 4629 C 470.503 0.746752 1.44663 0
M  V30 4630 O 471.692 1.0248 1.46151 0
M  V30 4631 C 468.792 2.02532 2.71724 0
M  V30 4632 C 467.965 3.33335 2.83208 0
M  V30 4633 C 467.024 3.396 4.01943 0
M  V30 4634 O 466.05 4.12862 3.91834 0
M  V30 4635 N 467.252 2.68332 5.1476 0
M  V30 4636 H 470.017 2.79605 1.07893 0
M  V30 4637 H 467.578 1.55672 0.444732 0
M  V30 4638 H 469.57 2.04074 3.4948 0
M  V30 4639 H 468.14 1.15811 2.90356 0
M  V30 4640 H 467.36 3.44176 1.92189 0
M  V30 4641 H 468.648 4.19565 2.87824 0
M  V30 4642 H 468.046 2.08528 5.25864 0
M  V30 4643 H 466.603 2.75575 5.90679 0
M  V30 4644 N 470.036 -0.519951 1.48776 0
M  V30 4645 C 470.968 -1.63973 1.60142 0
M  V30 4646 C 471.981 -1.55404 0.485117 0
M  V30 4647 O 473.17 -1.61682 0.756391 0
M  V30 4648 C 470.27 -3.02676 1.52449 0
M  V30 4649 C 469.443 -3.36624 2.79291 0
M  V30 4650 C 468.502 -4.54652 2.64912 0
M  V30 4651 O 467.528 -4.57374 3.38818 0
M  V30 4652 N 468.73 -5.53432 1.75195 0
M  V30 4653 H 471.495 -1.54656 2.56713 0
M  V30 4654 H 469.056 -0.707439 1.45626 0
M  V30 4655 H 471.048 -3.79525 1.4051 0
M  V30 4656 H 469.618 -3.06018 0.638125 0
M  V30 4657 H 468.838 -2.48855 3.0572 0
M  V30 4658 H 470.126 -3.56094 3.6342 0
M  V30 4659 H 469.524 -5.54018 1.14371 0
M  V30 4660 H 468.081 -6.29459 1.69189 0
M  V30 4661 N 471.514 -1.37532 -0.769588 0
M  V30 4662 C 472.464 -1.29984 -1.87318 0
M  V30 4663 C 473.448 -0.187242 -1.59807 0
M  V30 4664 O 474.64 -0.421827 -1.719 0
M  V30 4665 C 471.769 -1.11126 -3.24817 0
M  V30 4666 C 470.855 -2.26939 -3.58273 0
M  V30 4667 N 471.246 -3.52336 -3.62895 0
M  V30 4668 C 469.544 -2.19141 -3.8845 0
M  V30 4669 C 470.245 -4.28719 -3.9316 0
M  V30 4670 N 469.221 -3.57884 -4.0917 0
M  V30 4671 H 473.023 -2.24946 -1.89147 0
M  V30 4672 H 470.537 -1.30535 -0.966143 0
M  V30 4673 H 472.534 -1.03803 -4.0377 0
M  V30 4674 H 471.194 -0.17083 -3.2425 0
M  V30 4675 H 472.205 -3.86216 -3.45048 0
M  V30 4676 H 468.882 -1.33167 -3.95693 0
M  V30 4677 H 470.272 -5.37254 -4.03494 0
M  V30 4678 N 472.992 0.995999 -1.22138 0
M  V30 4679 C 473.922 2.10387 -1.01289 0
M  V30 4680 C 474.903 1.69975 0.0651454 0
M  V30 4681 O 476.088 1.9396 -0.0964628 0
M  V30 4682 C 473.218 3.42312 -0.586517 0
M  V30 4683 C 472.172 3.96558 -1.61014 0
M  V30 4684 C 471.498 5.24494 -1.0397 0
M  V30 4685 C 472.798 4.27595 -2.99933 0
M  V30 4686 H 474.492 2.28086 -1.93951 0
M  V30 4687 H 472.038 1.09607 -0.933928 0
M  V30 4688 H 473.991 4.19223 -0.427793 0
M  V30 4689 H 472.715 3.24431 0.375761 0
M  V30 4690 H 471.374 3.21776 -1.75658 0
M  V30 4691 H 471.022 5.02953 -0.0688703 0
M  V30 4692 H 470.722 5.61755 -1.72352 0
M  V30 4693 H 472.246 6.04042 -0.892494 0
M  V30 4694 H 473.66 4.95315 -2.8868 0
M  V30 4695 H 472.057 4.76021 -3.6541 0
M  V30 4696 H 473.127 3.35498 -3.50099 0
M  V30 4697 N 474.47 1.03057 1.19235 0
M  V30 4698 C 475.719 0.72326 1.88287 0
M  V30 4699 C 476.032 -0.751333 1.80594 0
M  V30 4700 O 477.238 -1.17176 2.44912 0
M  V30 4701 C 475.694 1.24338 3.3774 0
M  V30 4702 C 475.302 2.74587 3.53986 0
M  V30 4703 C 477.046 1.01213 4.12257 0
M  V30 4704 C 474.953 3.20009 4.97341 0
M  V30 4705 H 473.883 0.266848 0.705201 0
M  V30 4706 H 476.534 1.24509 1.34795 0
M  V30 4707 H 474.916 0.649457 3.90638 0
M  V30 4708 H 476.09 3.39649 3.11408 0
M  V30 4709 H 474.405 2.9601 2.9286 0
M  V30 4710 H 477.002 1.32675 5.17978 0
M  V30 4711 H 477.345 -0.051001 4.16269 0
M  V30 4712 H 477.878 1.57014 3.65501 0
M  V30 4713 H 474.617 4.25659 4.98493 0
M  V30 4714 H 474.137 2.59676 5.40674 0
M  V30 4715 H 475.816 3.13447 5.66003 0
M  V30 4716 N 475.948 -1.35272 0.808662 0
M  V30 4717 C 477.364 -1.51806 0.492653 0
M  V30 4718 C 477.564 -1.7574 -0.985778 0
M  V30 4719 O 476.62 -1.80003 -1.77074 0
M  V30 4720 C 477.933 -2.69202 1.33981 0
M  V30 4721 C 479.481 -2.8308 1.33547 0
M  V30 4722 C 479.956 -4.03502 2.16679 0
M  V30 4723 N 481.447 -4.10684 2.14227 0
M  V30 4724 C 482.182 -5.02984 2.75308 0
M  V30 4725 N 481.678 -6.00603 3.45323 0
M  V30 4726 N 483.471 -4.95746 2.64938 0
M  V30 4727 H 475.622 -1.17993 1.76611 0
M  V30 4728 H 477.885 -0.577476 0.751814 0
M  V30 4729 H 477.591 -2.581 2.38909 0
M  V30 4730 H 477.465 -3.63854 0.994491 0
M  V30 4731 H 479.852 -2.93631 0.294036 0
M  V30 4732 H 479.933 -1.89278 1.72068 0
M  V30 4733 H 479.577 -3.93711 3.20864 0
M  V30 4734 H 479.507 -4.96489 1.75517 0
M  V30 4735 H 481.998 -3.40802 1.63285 0
M  V30 4736 H 482.311 -6.67633 3.89212 0
M  V30 4737 H 480.656 -6.0077 3.49428 0
M  V30 4738 H 483.847 -4.18439 2.09825 0
M  V30 4739 H 484.02 -5.67487 3.12829 0
M  V30 4740 N 477.426 -0.562348 -1.47226 0
M  V30 4741 C 478.358 0.220011 -2.28142 0
M  V30 4742 C 479.371 0.874596 -1.37312 0
M  V30 4743 O 480.56 0.747583 -1.62091 0
M  V30 4744 C 477.66 1.32953 -3.11732 0
M  V30 4745 C 476.833 0.770759 -4.30556 0
M  V30 4746 C 475.892 1.76541 -4.95701 0
M  V30 4747 O 474.918 1.3095 -5.53932 0
M  V30 4748 N 476.12 3.09896 -4.90861 0
M  V30 4749 H 478.885 -0.474107 -2.95926 0
M  V30 4750 H 476.446 -0.398761 -1.56912 0
M  V30 4751 H 478.438 1.99378 -3.5218 0
M  V30 4752 H 477.008 1.92681 -2.46156 0
M  V30 4753 H 476.228 -0.0704056 -3.94137 0
M  V30 4754 H 477.516 0.376872 -5.07402 0
M  V30 4755 H 476.914 3.49577 -4.44761 0
M  V30 4756 H 475.471 3.71865 -5.35313 0
M  V30 4757 N 478.904 1.54736 -0.299062 0
M  V30 4758 C 479.867 2.22127 0.565012 0
M  V30 4759 C 480.867 1.20669 1.06281 0
M  V30 4760 O 482.057 1.45417 0.959145 0
M  V30 4761 C 479.189 2.90611 1.78208 0
M  V30 4762 H 480.382 2.99891 -0.0237448 0
M  V30 4763 H 477.935 1.5622 -0.0498788 0
M  V30 4764 H 478.67 2.16921 2.41072 0
M  V30 4765 H 478.455 3.64984 1.43281 0
M  V30 4766 H 479.945 3.42026 2.396 0
M  V30 4767 N 480.382 0.0267497 1.57577 0
M  V30 4768 C 481.312 -0.954308 2.13108 0
M  V30 4769 C 482.293 -1.34088 1.04663 0
M  V30 4770 O 483.478 -1.41992 1.32484 0
M  V30 4771 C 480.608 -2.23744 2.65624 0
M  V30 4772 C 479.562 -1.99168 3.78835 0
M  V30 4773 C 478.888 -3.33726 4.17769 0
M  V30 4774 C 480.188 -1.33277 5.0501 0
M  V30 4775 H 481.882 -0.491848 2.95332 0
M  V30 4776 H 479.428 -0.23514 1.42067 0
M  V30 4777 H 481.381 -2.92754 3.03106 0
M  V30 4778 H 480.105 -2.72151 1.80558 0
M  V30 4779 H 478.764 -1.32577 3.41788 0
M  V30 4780 H 478.412 -3.79888 3.29688 0
M  V30 4781 H 478.112 -3.18089 4.94058 0
M  V30 4782 H 479.636 -4.04008 4.57832 0
M  V30 4783 H 481.05 -1.92283 5.40093 0
M  V30 4784 H 479.447 -1.28045 5.8628 0
M  V30 4785 H 480.517 -0.305411 4.83937 0
M  V30 4786 N 481.861 -1.55662 -0.24637 0
M  V30 4787 C 482.824 -1.89558 -1.28842 0
M  V30 4788 C 483.824 -0.772082 -1.41052 0
M  V30 4789 O 485.014 -1.04007 -1.39743 0
M  V30 4790 C 482.146 -2.12449 -2.66605 0
M  V30 4791 H 483.339 -2.82735 -1.00004 0
M  V30 4792 H 480.892 -1.48562 -0.485684 0
M  V30 4793 H 481.627 -1.21742 -3.00582 0
M  V30 4794 H 481.412 -2.94273 -2.59125 0
M  V30 4795 H 482.902 -2.39854 -3.41847 0
M  V30 4796 N 483.339 0.512053 -1.4905 0
M  V30 4797 C 484.616 1.27337 -1.48474 0
M  V30 4798 C 484.996 2.1009 -0.206301 0
M  V30 4799 O 484.344 2.136 0.811609 0
M  V30 4800 C 484.554 2.13954 -2.75726 0
M  V30 4801 C 485.902 2.73507 -3.24776 0
M  V30 4802 O 486.926 2.24229 -2.76767 0
M  V30 4803 O 485.785 3.63186 -4.08361 0
M  V30 4804 H 482.879 0.575652 -0.593762 0
M  V30 4805 H 485.425 0.527232 -1.61302 0
M  V30 4806 H 484.197 1.52709 -3.60272 0
M  V30 4807 H 483.82 2.95782 -2.65705 0
M  V30 4808 N 484.817 1.37938 0.762283 0
M  V30 4809 C 485.78 1.34279 1.85747 0
M  V30 4810 C 486.78 0.244969 1.58923 0
M  V30 4811 O 487.97 0.501365 1.66829 0
M  V30 4812 C 485.102 1.08833 3.23061 0
M  V30 4813 H 486.295 2.31705 1.90401 0
M  V30 4814 H 483.848 1.23105 0.963057 0
M  V30 4815 H 484.583 0.119767 3.24079 0
M  V30 4816 H 484.368 1.88306 3.43923 0
M  V30 4817 H 485.858 1.08946 4.03138 0
M  V30 4818 N 486.295 -0.989507 1.22664 0
M  V30 4819 C 487.711 -1.25395 0.987331 0
M  V30 4820 C 487.911 -1.9899 -0.317056 0
M  V30 4821 O 486.967 -2.30141 -1.03882 0
M  V30 4822 C 488.28 -2.06242 2.18826 0
M  V30 4823 C 489.828 -2.19413 2.23219 0
M  V30 4824 C 490.303 -3.03648 3.42873 0
M  V30 4825 N 491.794 -3.11234 3.43056 0
M  V30 4826 C 492.529 -3.7671 4.32293 0
M  V30 4827 N 492.025 -4.44085 5.31752 0
M  V30 4828 N 493.818 -3.73505 4.2006 0
M  V30 4829 H 485.969 -0.496212 2.06522 0
M  V30 4830 H 488.232 -0.281784 0.905153 0
M  V30 4831 H 487.938 -1.59531 3.13437 0
M  V30 4832 H 487.812 -3.06996 2.19165 0
M  V30 4833 H 490.199 -2.65336 1.29154 0
M  V30 4834 H 490.28 -1.18078 2.26917 0
M  V30 4835 H 489.924 -2.58424 4.37241 0
M  V30 4836 H 489.854 -4.05132 3.36416 0
M  V30 4837 H 492.345 -2.63287 2.71088 0
M  V30 4838 H 492.658 -4.91797 5.96117 0
M  V30 4839 H 491.003 -4.42822 5.35662 0
M  V30 4840 H 494.194 -3.20033 3.41609 0
M  V30 4841 H 494.367 -4.24253 4.8981 0
M  V30 4842 N 487.773 -1.03688 -1.18687 0
M  V30 4843 C 488.703 -0.645407 -2.24403 0
M  V30 4844 C 489.684 0.349511 -1.66471 0
M  V30 4845 O 490.869 0.230453 -1.92828 0
M  V30 4846 C 487.999 -0.00365337 -3.473 0
M  V30 4847 C 486.953 -0.921705 -4.17958 0
M  V30 4848 C 486.279 -0.144629 -5.34504 0
M  V30 4849 C 487.579 -2.23909 -4.71871 0
M  V30 4850 H 489.273 -1.52917 -2.57404 0
M  V30 4851 H 486.819 -0.736711 -1.23728 0
M  V30 4852 H 488.772 0.281908 -4.20456 0
M  V30 4853 H 487.496 0.914963 -3.13522 0
M  V30 4854 H 486.155 -1.19159 -3.46694 0
M  V30 4855 H 485.803 0.776274 -4.96974 0
M  V30 4856 H 485.503 -0.756206 -5.82714 0
M  V30 4857 H 487.027 0.134004 -6.10453 0
M  V30 4858 H 488.441 -2.0145 -5.36741 0
M  V30 4859 H 486.838 -2.8033 -5.30599 0
M  V30 4860 H 487.908 -2.88822 -3.895 0
M  V30 4861 N 489.251 1.34841 -0.815825 0
M  V30 4862 C 490.479 2.0273 -0.413294 0
M  V30 4863 C 490.894 1.61459 0.978599 0
M  V30 4864 O 490.251 0.816584 1.63212 0
M  V30 4865 C 490.302 3.58058 -0.497676 0
M  V30 4866 O 490.023 3.97832 -1.8347 0
M  V30 4867 C 491.524 4.4321 -0.0891339 0
M  V30 4868 H 488.744 0.649956 -0.166728 0
M  V30 4869 H 491.288 1.72267 -1.10201 0
M  V30 4870 H 489.443 3.87136 0.142886 0
M  V30 4871 H 489.857 4.92501 -1.80396 0
M  V30 4872 H 491.331 5.5164 -0.199274 0
M  V30 4873 H 491.808 4.28432 0.966571 0
M  V30 4874 H 492.414 4.19446 -0.703214 0
M  V30 4875 N 490.729 0.570148 1.46925 0
M  V30 4876 C 491.954 0.0542592 2.07329 0
M  V30 4877 C 492.379 -1.23582 1.41806 0
M  V30 4878 O 491.737 -1.74341 0.497479 0
M  V30 4879 C 491.785 -0.111175 3.60429 0
M  V30 4880 O 490.889 -1.17071 3.95434 0
M  V30 4881 H 490.23 0.0571425 0.661537 0
M  V30 4882 H 492.76 0.789516 1.88753 0
M  V30 4883 H 492.77 -0.321315 4.06733 0
M  V30 4884 H 491.445 0.831012 4.07513 0
M  V30 4885 H 490.022 -0.940029 3.60857 0
M  V30 4886 N 492.207 -1.54576 0.307264 0
M  V30 4887 C 493.432 -2.05139 -0.305379 0
M  V30 4888 C 493.857 -1.18278 -1.46259 0
M  V30 4889 O 493.215 -0.188243 -1.8032 0
M  V30 4890 C 493.263 -3.53066 -0.733283 0
M  V30 4891 O 492.367 -3.69206 -1.83741 0
M  V30 4892 H 491.708 -0.661444 -0.0582105 0
M  V30 4893 H 494.238 -1.99569 0.450931 0
M  V30 4894 H 494.248 -3.95034 -1.02039 0
M  V30 4895 H 492.923 -4.15746 0.113198 0
M  V30 4896 H 491.5 -3.39143 -1.55037 0
M  V30 4897 N 493.685 -0.035106 -1.57561 0
M  V30 4898 C 494.962 0.681212 -1.83354 0
M  V30 4899 C 495.342 1.89986 -0.920252 0
M  V30 4900 O 494.69 2.28489 0.0226815 0
M  V30 4901 C 494.9 1.05376 -3.32712 0
M  V30 4902 C 496.248 1.44286 -3.99333 0
M  V30 4903 O 497.272 1.14656 -3.37242 0
M  V30 4904 O 496.131 1.99518 -5.08778 0
M  V30 4905 H 493.225 0.334741 -0.756226 0
M  V30 4906 H 495.771 -0.0632448 -1.69582 0
M  V30 4907 H 494.543 0.186668 -3.90854 0
M  V30 4908 H 494.166 1.85619 -3.51613 0
M  V30 4909 N 495.163 1.55791 0.238111 0
M  V30 4910 C 496.409 1.78297 0.966337 0
M  V30 4911 C 496.742 0.601903 1.84637 0
M  V30 4912 O 496.017 -0.399499 1.90353 0
M  V30 4913 C 496.3 3.10758 1.81939 0
M  V30 4914 C 496.153 4.39283 0.966958 0
M  V30 4915 C 497.472 3.39519 2.80027 0
M  V30 4916 H 494.591 0.648654 0.349882 0
M  V30 4917 H 497.233 1.88525 0.236253 0
M  V30 4918 H 495.383 3.02168 2.44185 0
M  V30 4919 H 497.055 4.59873 0.362514 0
M  V30 4920 H 495.298 4.32948 0.271669 0
M  V30 4921 H 495.969 5.28368 1.59784 0
M  V30 4922 H 498.445 3.48128 2.27917 0
M  V30 4923 H 497.321 4.33402 3.36829 0
M  V30 4924 H 497.582 2.60864 3.56934 0
M  V30 4925 N 496.642 -0.504142 1.49319 0
M  V30 4926 C 497.919 -1.26548 1.49147 0
M  V30 4927 C 498.299 -2.09977 0.21744 0
M  V30 4928 O 497.647 -2.14028 -0.800269 0
M  V30 4929 C 497.857 -2.12489 2.76857 0
M  V30 4930 C 499.205 -2.7178 3.26222 0
M  V30 4931 O 500.229 -2.22758 2.77952 0
M  V30 4932 O 499.088 -3.61015 4.10281 0
M  V30 4933 H 496.182 -0.572495 0.596806 0
M  V30 4934 H 498.728 -0.51867 1.61579 0
M  V30 4935 H 497.5 -1.50796 3.61077 0
M  V30 4936 H 497.123 -2.94368 2.6727 0
M  V30 4937 N 498.12 -1.38341 -0.754957 0
M  V30 4938 C 499.366 -1.34672 -1.51628 0
M  V30 4939 C 499.699 0.0636036 -1.94096 0
M  V30 4940 O 498.974 1.0245 -1.6533 0
M  V30 4941 C 499.257 -2.30116 -2.76981 0
M  V30 4942 C 499.11 -3.80003 -2.4066 0
M  V30 4943 C 500.429 -2.23715 -3.78998 0
M  V30 4944 H 497.548 -0.490517 -0.550056 0
M  V30 4945 H 500.19 -1.69178 -0.864807 0
M  V30 4946 H 498.34 -2.00821 -3.3257 0
M  V30 4947 H 500.012 -4.19966 -1.90856 0
M  V30 4948 H 498.255 -3.97751 -1.73137 0
M  V30 4949 H 498.926 -4.42244 -3.30339 0
M  V30 4950 H 501.402 -2.49574 -3.32945 0
M  V30 4951 H 500.278 -2.9261 -4.64403 0
M  V30 4952 H 500.539 -1.23554 -4.24484 0
M  V30 4953 N 499.598 0.982988 -1.23187 0
M  V30 4954 C 500.844 1.72648 -1.06398 0
M  V30 4955 C 501.177 1.90066 0.398561 0
M  V30 4956 O 500.452 1.45105 1.29518 0
M  V30 4957 C 500.735 3.12627 -1.78707 0
M  V30 4958 C 500.588 3.02795 -3.32618 0
M  V30 4959 C 501.907 4.11997 -1.54747 0
M  V30 4960 H 499.026 0.626649 -0.387918 0
M  V30 4961 H 501.668 1.14455 -1.51658 0
M  V30 4962 H 499.818 3.62308 -1.40234 0
M  V30 4963 H 501.49 2.60659 -3.80598 0
M  V30 4964 H 499.733 2.39362 -3.61785 0
M  V30 4965 H 500.404 4.01893 -3.78399 0
M  V30 4966 H 502.88 3.71114 -1.88186 0
M  V30 4967 H 501.756 5.08037 -2.07821 0
M  V30 4968 H 502.017 4.39462 -0.482249 0
M  V30 4969 N 501.076 1.04316 1.18135 0
M  V30 4970 C 501.986 0.646876 2.25505 0
M  V30 4971 C 503.002 -0.328008 1.7088 0
M  V30 4972 O 504.178 -0.182309 2.00573 0
M  V30 4973 C 501.243 0.0185664 3.46695 0
M  V30 4974 C 500.304 1.04277 4.16443 0
M  V30 4975 C 499.537 0.444352 5.31847 0
M  V30 4976 O 499.76 -0.748735 5.65465 0
M  V30 4977 O 498.694 1.17428 5.90334 0
M  V30 4978 H 502.52 1.54147 2.61672 0
M  V30 4979 H 500.105 0.814188 1.25265 0
M  V30 4980 H 501.987 -0.331068 4.20097 0
M  V30 4981 H 500.662 -0.849814 3.12346 0
M  V30 4982 H 499.569 1.44425 3.45098 0
M  V30 4983 H 500.902 1.882 4.54798 0
M  V30 4984 N 502.554 -1.34406 0.822964 0
M  V30 4985 C 503.802 -1.97892 0.410245 0
M  V30 4986 C 504.123 -1.65567 -1.03017 0
M  V30 4987 O 503.393 -0.94642 -1.71522 0
M  V30 4988 H 501.973 -0.732049 0.148707 0
M  V30 4989 H 504.635 -1.64043 1.05242 0
M  V30 4990 H 503.731 -3.07579 0.529284 0
M  V30 4991 N 504.032 -0.577932 -1.46621 0
M  V30 4992 C 504.982 0.178869 -2.27297 0
M  V30 4993 C 505.966 0.866279 -1.35589 0
M  V30 4994 O 507.158 0.761163 -1.59798 0
M  V30 4995 C 504.287 1.19499 -3.2183 0
M  V30 4996 C 503.373 0.50994 -4.21023 0
M  V30 4997 N 503.764 -0.43177 -5.03954 0
M  V30 4998 C 502.062 0.761287 -4.39455 0
M  V30 4999 C 502.763 -0.831693 -5.75724 0
M  V30 5000 N 501.739 -0.181897 -5.43296 0
M  V30 5001 H 505.541 -0.544859 -2.88805 0
M  V30 5002 H 503.055 -0.399373 -1.57413 0
M  V30 5003 H 505.052 1.75131 -3.78332 0
M  V30 5004 H 503.712 1.91959 -2.61881 0
M  V30 5005 H 504.723 -0.807045 -5.11573 0
M  V30 5006 H 501.4 1.47282 -3.90659 0
M  V30 5007 H 502.79 -1.6067 -6.52407 0
M  V30 5008 N 505.51 1.54411 -0.315457 0
M  V30 5009 C 506.758 2.00023 0.288971 0
M  V30 5010 C 507.079 1.20529 1.5329 0
M  V30 5011 O 506.349 0.304986 1.93511 0
M  V30 5012 H 504.929 0.738891 0.109766 0
M  V30 5013 H 507.591 1.90094 -0.430129 0
M  V30 5014 H 506.687 3.07198 0.550999 0
M  V30 5015 N 506.988 0.0434614 1.5754 0
M  V30 5016 C 508.216 -0.641835 1.96693 0
M  V30 5017 C 508.631 -1.64832 0.920652 0
M  V30 5018 O 507.988 -1.82247 -0.095993 0
M  V30 5019 C 508.039 -1.33557 3.35924 0
M  V30 5020 O 507.76 -0.369403 4.3654 0
M  V30 5021 C 509.261 -2.11135 3.89791 0
M  V30 5022 H 506.481 -0.176013 0.647503 0
M  V30 5023 H 509.025 0.107478 2.04217 0
M  V30 5024 H 507.18 -2.03617 3.29574 0
M  V30 5025 H 507.594 -0.863674 5.1734 0
M  V30 5026 H 509.068 -2.55107 4.89514 0
M  V30 5027 H 509.545 -2.95634 3.24803 0
M  V30 5028 H 510.151 -1.46002 3.99454 0
M  V30 5029 N 508.466 -1.55915 -0.229846 0
M  V30 5030 C 509.714 -1.7819 -0.953565 0
M  V30 5031 C 510.035 -0.610504 -1.85197 0
M  V30 5032 O 509.305 0.372988 -1.92316 0
M  V30 5033 H 507.885 -0.657208 -0.355087 0
M  V30 5034 H 510.547 -1.9337 -0.243693 0
M  V30 5035 H 509.643 -2.70011 -1.56527 0
M  V30 5036 N 509.944 0.496216 -1.49584 0
M  V30 5037 C 511.172 1.27394 -1.63029 0
M  V30 5038 C 511.587 1.86344 -0.303569 0
M  V30 5039 O 510.944 1.68057 0.711547 0
M  V30 5040 C 510.995 2.40077 -2.70269 0
M  V30 5041 O 510.716 1.83549 -3.97796 0
M  V30 5042 C 512.217 3.31372 -2.94462 0
M  V30 5043 H 509.437 0.386211 -0.54871 0
M  V30 5044 H 511.981 0.595163 -1.95648 0
M  V30 5045 H 510.136 3.03775 -2.40415 0
M  V30 5046 H 510.55 2.57561 -4.56905 0
M  V30 5047 H 512.024 4.06707 -3.73221 0
M  V30 5048 H 512.501 3.88654 -2.0456 0
M  V30 5049 H 513.107 2.73435 -3.25751 0
M  V30 5050 N 511.423 1.38739 0.74761 0
M  V30 5051 C 512.839 1.20067 1.05148 0
M  V30 5052 C 513.039 0.0534835 2.01429 0
M  V30 5053 O 512.095 -0.59886 2.45296 0
M  V30 5054 C 513.408 2.52957 1.62584 0
M  V30 5055 C 514.956 2.59692 1.74726 0
M  V30 5056 C 515.431 3.92772 2.35573 0
M  V30 5057 N 516.922 3.94343 2.42997 0
M  V30 5058 C 517.657 4.9408 2.90985 0
M  V30 5059 N 517.153 6.04214 3.38965 0
M  V30 5060 N 518.946 4.81466 2.9008 0
M  V30 5061 H 511.097 2.12121 0.108808 0
M  V30 5062 H 513.36 0.941491 0.110899 0
M  V30 5063 H 513.066 3.37389 0.993051 0
M  V30 5064 H 512.94 2.71779 2.61565 0
M  V30 5065 H 515.327 1.75651 2.3713 0
M  V30 5066 H 515.408 2.44731 0.744326 0
M  V30 5067 H 515.052 4.77238 1.738 0
M  V30 5068 H 514.982 4.05046 3.36519 0
M  V30 5069 H 517.473 3.14799 2.0907 0
M  V30 5070 H 517.786 6.76241 3.74056 0
M  V30 5071 H 516.131 6.07825 3.37007 0
M  V30 5072 H 519.322 3.94535 2.51912 0
M  V30 5073 H 519.495 5.59344 3.27166 0
M  V30 5074 N 512.901 -0.976442 1.23707 0
M  V30 5075 C 513.831 -2.08749 1.04624 0
M  V30 5076 C 514.812 -1.70057 -0.0380956 0
M  V30 5077 O 515.997 -1.93782 0.127308 0
M  V30 5078 C 513.127 -3.41335 0.640902 0
M  V30 5079 C 512.081 -3.93947 1.67302 0
M  V30 5080 C 511.407 -5.22774 1.12301 0
M  V30 5081 C 512.707 -4.22769 3.06697 0
M  V30 5082 H 514.401 -2.24972 1.97555 0
M  V30 5083 H 511.947 -1.08108 0.951247 0
M  V30 5084 H 513.9 -4.18489 0.494434 0
M  V30 5085 H 512.624 -3.24988 -0.324099 0
M  V30 5086 H 511.283 -3.18941 1.80755 0
M  V30 5087 H 510.931 -5.0278 0.148877 0
M  V30 5088 H 510.631 -5.58942 1.81267 0
M  V30 5089 H 512.155 -6.02546 0.988479 0
M  V30 5090 H 513.569 -4.90659 2.96524 0
M  V30 5091 H 511.966 -4.70147 3.72937 0
M  V30 5092 H 513.036 -3.29885 3.55392 0
M  V30 5093 N 514.379 -1.04941 -1.1758 0
M  V30 5094 C 515.627 -0.756492 -1.87408 0
M  V30 5095 C 515.948 0.718478 -1.81281 0
M  V30 5096 O 515.218 1.519 -1.23706 0
M  V30 5097 H 513.798 -0.276841 -0.693807 0
M  V30 5098 H 516.46 -1.32803 -1.42652 0
M  V30 5099 H 515.556 -1.06918 -2.93215 0
M  V30 5100 N 515.857 1.33968 -0.830081 0
M  V30 5101 C 517.134 1.92554 -0.343858 0
M  V30 5102 C 517.514 1.7573 1.16971 0
M  V30 5103 O 516.862 1.14035 1.98011 0
M  V30 5104 C 517.072 3.40147 -0.781073 0
M  V30 5105 C 518.42 4.17299 -0.78402 0
M  V30 5106 O 519.444 3.48762 -0.724112 0
M  V30 5107 O 518.303 5.39631 -0.863739 0
M  V30 5108 H 515.397 0.821469 -0.0954827 0
M  V30 5109 H 517.943 1.42897 -0.915348 0
M  V30 5110 H 516.715 3.46225 -1.82329 0
M  V30 5111 H 516.338 3.97166 -0.18567 0
M  V30 5112 N 517.335 0.585699 1.46312 0
M  V30 5113 C 518.746 0.159938 1.86014 0
M  V30 5114 C 519.097 -1.27775 1.48889 0
M  V30 5115 O 518.222 -1.96559 0.90519 0
M  V30 5116 C 518.817 0.283485 3.37612 0
M  V30 5117 C 517.376 -0.0874256 3.76298 0
M  V30 5118 C 516.523 0.618055 2.70325 0
M  V30 5119 H 519.474 0.793737 1.37425 0
M  V30 5120 H 519.495 -0.490348 3.77327 0
M  V30 5121 H 519.007 1.32995 3.64601 0
M  V30 5122 H 517.108 -1.13391 3.54927 0
M  V30 5123 H 517.221 0.290975 4.78216 0
M  V30 5124 H 515.585 0.057993 2.54634 0
M  V30 5125 H 516.368 1.66623 3.00153 0
M  V30 5126 N 518.813 -1.54241 0.323641 0
M  V30 5127 C 520.062 -1.9975 -0.279806 0
M  V30 5128 C 520.375 -1.2156 -1.5324 0
M  V30 5129 O 521.581 -1.57447 -2.21185 0
M  V30 5130 C 520.037 -3.55686 -0.549115 0
M  V30 5131 C 519.645 -4.4271 0.686432 0
M  V30 5132 C 521.389 -4.09663 -1.11251 0
M  V30 5133 C 519.296 -5.90119 0.389022 0
M  V30 5134 H 518.226 -0.746177 -0.10833 0
M  V30 5135 H 520.877 -1.78248 0.435877 0
M  V30 5136 H 519.259 -3.73176 -1.32499 0
M  V30 5137 H 520.433 -4.36996 1.46188 0
M  V30 5138 H 518.748 -3.99623 1.17005 0
M  V30 5139 H 521.345 -5.17386 -1.34965 0
M  V30 5140 H 521.688 -3.61651 -2.06191 0
M  V30 5141 H 522.221 -3.95806 -0.39782 0
M  V30 5142 H 518.96 -6.42326 1.30759 0
M  V30 5143 H 518.48 -5.98785 -0.348722 0
M  V30 5144 H 520.159 -6.47 -0.0011164 0
M  V30 5145 N 520.291 -0.0518155 -1.57515 0
M  V30 5146 C 521.201 0.937539 -2.15052 0
M  V30 5147 C 522.217 1.34121 -1.10849 0
M  V30 5148 O 523.393 1.418 -1.4302 0
M  V30 5149 C 520.458 2.19379 -2.68466 0
M  V30 5150 C 519.519 1.84841 -3.87469 0
M  V30 5151 C 518.752 3.04477 -4.38326 0
M  V30 5152 O 518.975 4.17868 -3.88256 0
M  V30 5153 O 517.909 2.85453 -5.29906 0
M  V30 5154 H 521.735 0.478201 -2.99912 0
M  V30 5155 H 519.32 0.17012 -1.48428 0
M  V30 5156 H 521.202 2.93084 -3.02787 0
M  V30 5157 H 519.877 2.64449 -1.86677 0
M  V30 5158 H 518.784 1.08449 -3.58036 0
M  V30 5159 H 520.117 1.44569 -4.7049 0
M  V30 5160 N 521.769 1.56035 0.221574 0
M  V30 5161 C 522.732 1.91584 1.2581 0
M  V30 5162 C 523.732 0.794425 1.39805 0
M  V30 5163 O 524.922 1.06217 1.38071 0
M  V30 5164 C 522.054 2.16663 2.63192 0
M  V30 5165 H 523.247 2.8429 0.954935 0
M  V30 5166 H 520.8 1.49316 0.461988 0
M  V30 5167 H 521.535 1.26508 2.98607 0
M  V30 5168 H 521.32 2.98358 2.5441 0
M  V30 5169 H 522.81 2.45262 3.37988 0
M  V30 5170 N 523.247 -0.488276 1.49845 0
M  V30 5171 C 524.179 -1.60539 1.63584 0
M  V30 5172 C 525.192 -1.5434 0.517972 0
M  V30 5173 O 526.381 -1.60041 0.790516 0
M  V30 5174 C 523.481 -2.99374 1.58835 0
M  V30 5175 C 522.654 -3.30624 2.86368 0
M  V30 5176 C 521.713 -4.4893 2.74496 0
M  V30 5177 O 520.739 -4.50085 3.48443 0
M  V30 5178 N 521.941 -5.49591 1.86894 0
M  V30 5179 H 524.706 -1.49176 2.59936 0
M  V30 5180 H 522.267 -0.67639 1.47094 0
M  V30 5181 H 524.259 -3.76459 1.48529 0
M  V30 5182 H 522.829 -3.04595 0.702892 0
M  V30 5183 H 522.049 -2.42314 3.1093 0
M  V30 5184 H 523.337 -3.48305 3.70892 0
M  V30 5185 H 522.735 -5.51467 1.26097 0
M  V30 5186 H 521.292 -6.25728 1.82503 0
M  V30 5187 N 524.725 -1.39134 -0.740242 0
M  V30 5188 C 525.688 -1.37217 -1.83587 0
M  V30 5189 C 526.688 -0.270221 -1.58513 0
M  V30 5190 O 527.878 -0.527843 -1.6601 0
M  V30 5191 C 525.01 -1.13959 -3.21288 0
M  V30 5192 H 526.203 -2.34705 -1.86691 0
M  V30 5193 H 523.756 -1.24622 -0.94335 0
M  V30 5194 H 524.491 -0.17131 -3.23847 0
M  V30 5195 H 524.276 -1.93754 -3.40884 0
M  V30 5196 H 525.766 -1.15346 -4.01354 0
M  V30 5197 N 526.204 0.969867 -1.24223 0
M  V30 5198 C 527.134 2.08191 -1.05729 0
M  V30 5199 C 528.115 1.70075 0.0290765 0
M  V30 5200 O 529.3 1.93712 -0.137583 0
M  V30 5201 C 526.43 3.40991 -0.658995 0
M  V30 5202 C 525.384 3.93054 -1.69389 0
M  V30 5203 C 524.71 5.22171 -1.15072 0
M  V30 5204 C 526.01 4.21137 -3.08935 0
M  V30 5205 H 527.704 2.23921 -1.98746 0
M  V30 5206 H 525.25 1.07602 -0.956967 0
M  V30 5207 H 527.203 4.18221 -0.51662 0
M  V30 5208 H 525.927 3.25155 0.30686 0
M  V30 5209 H 524.586 3.17977 -1.82444 0
M  V30 5210 H 524.234 5.02694 -0.175539 0
M  V30 5211 H 523.934 5.57973 -1.84229 0
M  V30 5212 H 525.458 6.02013 -1.02042 0
M  V30 5213 H 526.872 4.8908 -2.99121 0
M  V30 5214 H 525.269 4.68163 -3.75425 0
M  V30 5215 H 526.339 3.27996 -3.57137 0
M  V30 5216 N 527.682 1.05563 1.17022 0
M  V30 5217 C 528.612 0.681026 2.23348 0
M  V30 5218 C 529.593 -0.322983 1.67005 0
M  V30 5219 O 530.778 -0.199746 1.9317 0
M  V30 5220 C 527.908 0.0589053 3.4725 0
M  V30 5221 C 526.862 0.988082 4.16438 0
M  V30 5222 C 526.188 0.229646 5.34207 0
M  V30 5223 C 527.488 2.31388 4.68249 0
M  V30 5224 H 529.182 1.56993 2.54938 0
M  V30 5225 H 526.728 0.756302 1.2254 0
M  V30 5226 H 528.681 -0.214982 4.20851 0
M  V30 5227 H 527.405 -0.864968 3.14938 0
M  V30 5228 H 526.064 1.24659 3.44754 0
M  V30 5229 H 525.712 -0.697111 4.98146 0
M  V30 5230 H 525.412 0.848815 5.81437 0
M  V30 5231 H 526.936 -0.0368694 6.10589 0
M  V30 5232 H 528.35 2.09964 5.33468 0
M  V30 5233 H 526.747 2.88736 5.26072 0
M  V30 5234 H 527.817 2.94982 3.84855 0
M  V30 5235 N 529.16 -1.33526 0.837174 0
M  V30 5236 C 530.123 -2.27551 0.274421 0
M  V30 5237 C 531.123 -1.50886 -0.555881 0
M  V30 5238 O 532.313 -1.70227 -0.369918 0
M  V30 5239 C 529.445 -3.35332 -0.613605 0
M  V30 5240 H 530.638 -2.78837 1.10408 0
M  V30 5241 H 528.191 -1.439 0.610126 0
M  V30 5242 H 528.926 -2.89285 -1.46577 0
M  V30 5243 H 528.711 -3.92095 -0.0195341 0
M  V30 5244 H 530.201 -4.05433 -1.00068 0
M  V30 5245 N 530.638 -0.59345 -1.46 0
M  V30 5246 C 531.866 -0.0890934 -2.06708 0
M  V30 5247 C 532.281 1.2205 -1.44046 0
M  V30 5248 O 531.638 1.74029 -0.549551 0
M  V30 5249 C 531.689 0.0720263 -3.61428 0
M  V30 5250 O 531.41 -1.18574 -4.21748 0
M  V30 5251 C 532.911 0.609487 -4.3909 0
M  V30 5252 H 530.131 -0.0623628 -0.668096 0
M  V30 5253 H 532.675 -0.817171 -1.87464 0
M  V30 5254 H 530.83 0.750369 -3.80063 0
M  V30 5255 H 531.244 -1.0064 -5.14754 0
M  V30 5256 H 532.718 0.671363 -5.47902 0
M  V30 5257 H 533.195 1.62878 -4.07882 0
M  V30 5258 H 533.801 -0.03434 -4.25286 0
M  V30 5259 N 532.116 1.54067 -0.331816 0
M  V30 5260 C 533.346 2.04833 0.269605 0
M  V30 5261 C 533.754 1.20714 1.45687 0
M  V30 5262 O 533.097 0.232539 1.82222 0
M  V30 5263 C 533.159 3.51386 0.759499 0
M  V30 5264 C 532.823 4.55971 -0.306557 0
M  V30 5265 C 533.82 5.07126 -1.14538 0
M  V30 5266 C 531.505 5.00216 -0.457116 0
M  V30 5267 C 533.499 6.01096 -2.12042 0
M  V30 5268 C 531.186 5.93999 -1.43556 0
M  V30 5269 C 532.184 6.44326 -2.26568 0
M  V30 5270 O 531.872 7.36267 -3.22749 0
M  V30 5271 H 531.604 0.673509 0.0579763 0
M  V30 5272 H 534.158 1.99748 -0.478521 0
M  V30 5273 H 532.388 3.53896 1.55867 0
M  V30 5274 H 534.077 3.85184 1.28017 0
M  V30 5275 H 534.843 4.73716 -1.04009 0
M  V30 5276 H 530.722 4.60652 0.179142 0
M  V30 5277 H 534.266 6.40302 -2.76873 0
M  V30 5278 H 530.163 6.26825 -1.54146 0
M  V30 5279 H 530.931 7.54165 -3.18083 0
M  V30 5280 N 533.594 0.0601682 1.57485 0
M  V30 5281 C 534.842 -0.610386 1.92662 0
M  V30 5282 C 535.163 -1.70849 0.939981 0
M  V30 5283 O 534.433 -1.95895 -0.0137455 0
M  V30 5284 H 533.013 -0.228457 0.711208 0
M  V30 5285 H 535.675 0.115288 1.94559 0
M  V30 5286 H 534.771 -1.0432 2.94149 0
M  V30 5287 N 535.072 -1.5615 -0.213296 0
M  V30 5288 C 536.004 -1.89586 -1.28802 0
M  V30 5289 C 537.017 -0.784844 -1.42633 0
M  V30 5290 O 538.206 -1.06319 -1.43383 0
M  V30 5291 C 535.306 -2.09665 -2.66259 0
M  V30 5292 C 534.479 -3.40726 -2.7427 0
M  V30 5293 C 533.538 -3.50137 -3.92798 0
M  V30 5294 O 532.564 -4.23105 -3.8075 0
M  V30 5295 N 533.766 -2.81886 -5.07465 0
M  V30 5296 H 536.531 -2.82368 -1.00442 0
M  V30 5297 H 534.092 -1.56796 -0.403302 0
M  V30 5298 H 536.084 -2.13268 -3.43946 0
M  V30 5299 H 534.654 -1.23469 -2.87183 0
M  V30 5300 H 533.874 -3.4915 -1.82997 0
M  V30 5301 H 535.162 -4.27048 -2.76599 0
M  V30 5302 H 534.56 -2.22397 -5.2015 0
M  V30 5303 H 533.117 -2.91139 -5.83165 0
M  V30 5304 N 536.55 0.480323 -1.50102 0
M  V30 5305 C 537.798 1.23063 -1.60312 0
M  V30 5306 C 538.119 1.92659 -0.301226 0
M  V30 5307 O 537.389 1.83691 0.680753 0
M  V30 5308 H 535.969 0.457231 -0.590719 0
M  V30 5309 H 538.631 0.554893 -1.86834 0
M  V30 5310 H 537.727 1.9835 -2.40964 0
M  V30 5311 N 538.028 1.39524 0.732853 0
M  V30 5312 C 539.444 1.21176 1.03868 0
M  V30 5313 C 539.644 0.0748448 2.01361 0
M  V30 5314 O 538.7 -0.57281 2.45917 0
M  V30 5315 C 540.013 2.54667 1.59892 0
M  V30 5316 C 541.561 2.6153 1.71962 0
M  V30 5317 C 542.036 3.95248 2.31394 0
M  V30 5318 N 543.527 3.96899 2.38801 0
M  V30 5319 C 544.262 4.97138 2.85729 0
M  V30 5320 N 543.758 6.07775 3.32537 0
M  V30 5321 N 545.551 4.84516 2.84957 0
M  V30 5322 H 537.702 2.12225 0.086304 0
M  V30 5323 H 539.965 0.942614 0.100907 0
M  V30 5324 H 539.671 3.38423 0.95721 0
M  V30 5325 H 539.545 2.74538 2.58668 0
M  V30 5326 H 541.932 1.78156 2.35254 0
M  V30 5327 H 542.013 2.45507 0.718327 0
M  V30 5328 H 541.657 4.79054 1.68729 0
M  V30 5329 H 541.587 4.08593 3.32204 0
M  V30 5330 H 544.078 3.16998 2.05719 0
M  V30 5331 H 544.391 6.8017 3.66862 0
M  V30 5332 H 542.736 6.11366 3.30541 0
M  V30 5333 H 545.927 3.97185 2.47713 0
M  V30 5334 H 546.1 5.62783 3.21215 0
M  V30 5335 N 539.506 -0.963266 1.24736 0
M  V30 5336 C 540.469 -2.04013 1.04457 0
M  V30 5337 C 541.469 -1.608 0.000335555 0
M  V30 5338 O 542.659 -1.72515 0.241719 0
M  V30 5339 C 539.791 -3.35858 0.584162 0
M  V30 5340 H 540.984 -2.23436 2.00041 0
M  V30 5341 H 538.537 -1.13914 1.07021 0
M  V30 5342 H 539.272 -3.22128 -0.374673 0
M  V30 5343 H 539.057 -3.68568 1.3379 0
M  V30 5344 H 540.547 -4.1502 0.463451 0
M  V30 5345 N 540.985 -1.06182 -1.16461 0
M  V30 5346 C 542.396 -0.802426 -1.68576 0
M  V30 5347 C 542.747 0.67412 -1.84255 0
M  V30 5348 O 541.872 1.52303 -1.5373 0
M  V30 5349 C 542.467 -1.45002 -3.06202 0
M  V30 5350 C 541.026 -1.23843 -3.55443 0
M  V30 5351 C 540.173 -1.52724 -2.31454 0
M  V30 5352 H 543.124 -1.22545 -1.00839 0
M  V30 5353 H 543.145 -0.864731 -3.70544 0
M  V30 5354 H 542.657 -2.52466 -2.94759 0
M  V30 5355 H 540.758 -0.183487 -3.72148 0
M  V30 5356 H 540.871 -1.95036 -4.37604 0
M  V30 5357 H 539.235 -0.947726 -2.36411 0
M  V30 5358 H 540.018 -2.61343 -2.22609 0
M  V30 5359 N 542.463 1.3308 -0.844243 0
M  V30 5360 C 543.711 1.97215 -0.441676 0
M  V30 5361 C 544.032 1.67185 1.0037 0
M  V30 5362 O 543.302 0.973588 1.69994 0
M  V30 5363 H 541.882 0.72959 -0.160335 0
M  V30 5364 H 544.544 1.62348 -1.07838 0
M  V30 5365 H 543.64 3.06698 -0.57815 0
M  V30 5366 N 543.941 0.601185 1.45683 0
M  V30 5367 C 544.873 -0.159446 2.28645 0
M  V30 5368 C 545.886 -0.837882 1.39583 0
M  V30 5369 O 547.075 -0.704344 1.64016 0
M  V30 5370 C 544.175 -1.24641 3.15147 0
M  V30 5371 C 543.348 -0.656334 4.32448 0
M  V30 5372 C 542.407 -1.63337 5.00208 0
M  V30 5373 O 541.433 -1.16217 5.57209 0
M  V30 5374 N 542.635 -2.96773 4.98905 0
M  V30 5375 H 545.4 0.5524 2.94565 0
M  V30 5376 H 542.961 0.440223 1.558 0
M  V30 5377 H 544.953 -1.8997 3.57342 0
M  V30 5378 H 543.523 -1.86087 2.51178 0
M  V30 5379 H 542.743 0.174879 3.93812 0
M  V30 5380 H 544.031 -0.242211 5.08223 0
M  V30 5381 H 543.429 -3.37662 4.53873 0
M  V30 5382 H 541.986 -3.57541 5.44984 0
M  V30 5383 N 545.419 -1.53889 0.339982 0
M  V30 5384 C 546.83 -1.86139 -0.144671 0
M  V30 5385 C 547.181 -1.2613 -1.50285 0
M  V30 5386 O 546.306 -0.573515 -2.08662 0
M  V30 5387 C 546.901 -3.37728 -0.269285 0
M  V30 5388 C 545.46 -3.69868 -0.698168 0
M  V30 5389 C 544.607 -2.76777 0.170249 0
M  V30 5390 H 547.558 -1.48503 0.559704 0
M  V30 5391 H 547.579 -3.64331 -1.0974 0
M  V30 5392 H 547.091 -3.81375 0.719366 0
M  V30 5393 H 545.192 -3.31764 -1.69597 0
M  V30 5394 H 545.305 -4.76582 -0.490533 0
M  V30 5395 H 543.669 -2.52188 -0.356844 0
M  V30 5396 H 544.452 -3.23253 1.15597 0
M  V30 5397 N 546.897 -0.0685191 -1.57451 0
M  V30 5398 C 547.827 0.89747 -2.15564 0
M  V30 5399 C 548.808 1.31266 -1.08181 0
M  V30 5400 O 549.993 1.38429 -1.36202 0
M  V30 5401 C 547.123 2.16623 -2.71463 0
M  V30 5402 C 546.077 1.89054 -3.83982 0
M  V30 5403 C 545.403 3.22532 -4.26471 0
M  V30 5404 C 546.703 1.1984 -5.08366 0
M  V30 5405 H 548.397 0.413373 -2.96533 0
M  V30 5406 H 545.943 0.197391 -1.42641 0
M  V30 5407 H 547.896 2.84614 -3.10761 0
M  V30 5408 H 546.62 2.67269 -1.8771 0
M  V30 5409 H 545.279 1.23469 -3.45183 0
M  V30 5410 H 544.927 3.71013 -3.39644 0
M  V30 5411 H 544.627 3.04879 -5.02317 0
M  V30 5412 H 546.151 3.91727 -4.68383 0
M  V30 5413 H 547.565 1.77896 -5.45001 0
M  V30 5414 H 545.962 1.12456 -5.89469 0
M  V30 5415 H 547.032 0.176996 -4.84577 0
M  V30 5416 N 548.375 1.56261 0.205012 0
M  V30 5417 C 549.791 1.49623 0.555433 0
M  V30 5418 C 549.991 0.766719 1.86343 0
M  V30 5419 O 549.047 0.313158 2.50551 0
M  V30 5420 C 550.36 2.94253 0.619347 0
M  V30 5421 C 551.908 3.04868 0.708855 0
M  V30 5422 C 552.383 4.50888 0.803969 0
M  V30 5423 N 553.874 4.54999 0.867758 0
M  V30 5424 C 554.609 5.65284 0.96135 0
M  V30 5425 N 554.105 6.85282 1.01786 0
M  V30 5426 N 555.898 5.53174 0.997771 0
M  V30 5427 H 548.049 2.0211 -0.653094 0
M  V30 5428 H 550.312 0.919333 -0.231366 0
M  V30 5429 H 550.018 3.50643 -0.272458 0
M  V30 5430 H 549.892 3.47063 1.47741 0
M  V30 5431 H 552.279 2.48532 1.5911 0
M  V30 5432 H 552.36 2.55199 -0.175205 0
M  V30 5433 H 552.004 5.07846 -0.0738798 0
M  V30 5434 H 551.934 4.98279 1.70369 0
M  V30 5435 H 554.425 3.68588 0.833735 0
M  V30 5436 H 554.738 7.65081 1.08951 0
M  V30 5437 H 553.083 6.8796 0.986706 0
M  V30 5438 H 556.274 4.5835 0.950392 0
M  V30 5439 H 556.447 6.39151 1.06725 0
M  V30 5440 N 549.853 -0.472356 1.50355 0
M  V30 5441 C 550.783 -1.57859 1.72055 0
M  V30 5442 C 551.764 -1.60283 0.569505 0
M  V30 5443 O 552.949 -1.7657 0.808503 0
M  V30 5444 C 550.079 -2.96191 1.81351 0
M  V30 5445 C 549.033 -3.08633 2.96529 0
M  V30 5446 C 548.359 -4.486 2.90968 0
M  V30 5447 C 549.659 -2.85969 4.37057 0
M  V30 5448 H 551.353 -1.39953 2.64676 0
M  V30 5449 H 548.899 -0.671846 1.27367 0
M  V30 5450 H 550.852 -3.73507 1.95117 0
M  V30 5451 H 549.576 -3.15251 0.853502 0
M  V30 5452 H 548.235 -2.33749 2.82413 0
M  V30 5453 H 547.883 -4.64577 1.92815 0
M  V30 5454 H 547.583 -4.57861 3.68289 0
M  V30 5455 H 549.107 -5.27938 3.0678 0
M  V30 5456 H 550.521 -3.53036 4.51706 0
M  V30 5457 H 548.918 -3.06677 5.15819 0
M  V30 5458 H 549.988 -1.81838 4.49514 0
M  V30 5459 N 551.331 -1.39911 -0.725443 0
M  V30 5460 C 552.579 -1.37382 -1.48224 0
M  V30 5461 C 552.9 0.0264107 -1.94982 0
M  V30 5462 O 552.17 0.979408 -1.6966 0
M  V30 5463 H 550.75 -0.505596 -0.549892 0
M  V30 5464 H 553.412 -1.7487 -0.860608 0
M  V30 5465 H 552.508 -2.04254 -2.3598 0
M  V30 5466 N 552.809 0.956637 -1.25245 0
M  V30 5467 C 554.037 1.73571 -1.12608 0
M  V30 5468 C 554.452 1.86063 0.320324 0
M  V30 5469 O 553.809 1.35691 1.22042 0
M  V30 5470 C 553.86 3.15053 -1.77268 0
M  V30 5471 O 553.581 3.03174 -3.16255 0
M  V30 5472 C 555.082 4.09248 -1.70386 0
M  V30 5473 H 552.302 0.543955 -0.392879 0
M  V30 5474 H 554.846 1.20031 -1.65568 0
M  V30 5475 H 553.001 3.65543 -1.28284 0
M  V30 5476 H 553.415 3.9241 -3.48015 0
M  V30 5477 H 554.889 5.06138 -2.20291 0
M  V30 5478 H 555.366 4.34102 -0.667239 0
M  V30 5479 H 555.972 3.64672 -2.18849 0
M  V30 5480 N 554.287 1.06798 1.15896 0
M  V30 5481 C 555.217 0.704677 2.22613 0
M  V30 5482 C 556.198 -0.305252 1.67339 0
M  V30 5483 O 557.383 -0.179247 1.93371 0
M  V30 5484 C 554.513 0.0957325 3.47168 0
M  V30 5485 C 553.467 1.0322 4.15367 0
M  V30 5486 C 552.793 0.286293 5.33933 0
M  V30 5487 C 554.093 2.36341 4.65768 0
M  V30 5488 H 555.787 1.59688 2.53259 0
M  V30 5489 H 553.333 0.769257 1.21731 0
M  V30 5490 H 555.286 -0.170333 4.21056 0
M  V30 5491 H 554.01 -0.831516 3.15838 0
M  V30 5492 H 552.669 1.28309 3.43413 0
M  V30 5493 H 552.317 -0.644237 4.98857 0
M  V30 5494 H 552.017 0.910436 5.80504 0
M  V30 5495 H 553.541 0.0278938 6.10594 0
M  V30 5496 H 554.955 2.1561 5.31211 0
M  V30 5497 H 553.352 2.94299 5.2298 0
M  V30 5498 H 554.422 2.99047 3.81705 0
M  V30 5499 N 555.766 -1.3263 0.851289 0
M  V30 5500 C 556.713 -2.28952 0.291469 0
M  V30 5501 C 557.683 -1.54897 -0.599676 0
M  V30 5502 O 558.868 -1.83137 -0.535305 0
M  V30 5503 C 556.008 -3.41206 -0.516992 0
M  V30 5504 C 555.121 -4.30148 0.399566 0
M  V30 5505 C 554.256 -5.29527 -0.4212 0
M  V30 5506 C 553.295 -6.10112 0.492969 0
M  V30 5507 N 552.432 -7.01499 -0.290414 0
M  V30 5508 H 557.272 -2.76228 1.11813 0
M  V30 5509 H 554.809 -1.35907 0.562826 0
M  V30 5510 H 556.767 -4.05005 -1.00132 0
M  V30 5511 H 555.397 -2.9509 -1.30851 0
M  V30 5512 H 554.449 -3.66959 1.00227 0
M  V30 5513 H 555.761 -4.8649 1.1013 0
M  V30 5514 H 554.915 -5.98914 -0.968832 0
M  V30 5515 H 553.654 -4.73794 -1.15632 0
M  V30 5516 H 552.659 -5.39632 1.05251 0
M  V30 5517 H 553.884 -6.6793 1.22664 0
M  V30 5518 H 551.83 -6.48199 -1.00868 0
M  V30 5519 H 551.747 -7.55178 0.352354 0
M  V30 5520 H 553.015 -7.75176 -0.819882 0
M  V30 5521 N 557.244 -0.608902 -1.45362 0
M  V30 5522 C 558.469 -0.10921 -2.07112 0
M  V30 5523 C 558.894 1.19779 -1.45033 0
M  V30 5524 O 558.252 1.72961 -0.543527 0
M  V30 5525 C 558.3 0.0155745 -3.60597 0
M  V30 5526 O 557.404 1.06546 -3.98399 0
M  V30 5527 H 556.745 -0.0746619 -0.659789 0
M  V30 5528 H 559.275 -0.839283 -1.86594 0
M  V30 5529 H 559.285 0.213364 -4.07442 0
M  V30 5530 H 557.96 -0.938765 -4.05167 0
M  V30 5531 H 556.537 0.844024 -3.63223 0
M  V30 5532 N 558.722 1.53707 -0.348139 0
M  V30 5533 C 559.67 2.26671 0.521808 0
M  V30 5534 C 560.664 1.28988 1.09811 0
M  V30 5535 O 561.87 1.4668 1.04332 0
M  V30 5536 H 558.245 0.728387 0.186968 0
M  V30 5537 H 560.216 2.98176 -0.115563 0
M  V30 5538 C 558.965 3.05591 1.6586 0
M  V30 5539 H 558.288 3.80589 1.22443 0
M  V30 5540 H 559.728 3.59851 2.24239 0
M  V30 5541 C 558.187 2.15366 2.59073 0
M  V30 5542 O 558.717 1.7528 3.61441 0
M  V30 5543 N 556.923 1.80352 2.27863 0
M  V30 5544 H 556.47 2.13149 1.44656 0
M  V30 5545 H 556.428 1.20268 2.90488 0
M  V30 5546 N 560.2 0.0768682 1.57412 0
M  V30 5547 C 561.449 -0.590679 1.92857 0
M  V30 5548 C 561.762 -1.70461 0.959293 0
M  V30 5549 O 562.968 -2.43207 1.20675 0
M  V30 5550 C 561.424 -1.10204 3.42612 0
M  V30 5551 C 561.032 -0.0188447 4.47996 0
M  V30 5552 C 562.776 -1.74336 3.87049 0
M  V30 5553 C 560.683 -0.544536 5.88888 0
M  V30 5554 H 559.613 -0.224411 0.71983 0
M  V30 5555 H 562.264 0.149924 1.82887 0
M  V30 5556 H 560.646 -1.89577 3.47673 0
M  V30 5557 H 561.82 0.755936 4.54557 0
M  V30 5558 H 560.135 0.526555 4.13057 0
M  V30 5559 H 562.732 -2.14708 4.89699 0
M  V30 5560 H 563.075 -2.60537 3.24694 0
M  V30 5561 H 563.608 -1.01577 3.84613 0
M  V30 5562 H 560.347 0.280426 6.549 0
M  V30 5563 H 559.867 -1.28673 5.85836 0
M  V30 5564 H 561.546 -1.01933 6.3892 0
M  V30 5565 N 561.678 -1.56367 -0.196722 0
M  V30 5566 C 562.926 -1.80172 -0.915554 0
M  V30 5567 C 563.247 -0.649649 -1.8386 0
M  V30 5568 O 562.517 0.332111 -1.93064 0
M  V30 5569 H 561.097 -0.664592 -0.341067 0
M  V30 5570 H 563.759 -1.93844 -0.202622 0
M  V30 5571 H 562.855 -2.7327 -1.50764 0
M  V30 5572 N 563.156 0.464375 -1.50603 0
M  V30 5573 C 564.106 1.55929 -1.66343 0
M  V30 5574 C 565.09 1.52338 -0.517887 0
M  V30 5575 O 566.282 1.59248 -0.772601 0
M  V30 5576 C 563.411 2.94327 -1.7671 0
M  V30 5577 C 562.497 3.02777 -2.96962 0
M  V30 5578 N 562.888 2.81026 -4.20545 0
M  V30 5579 C 561.186 3.33919 -2.95659 0
M  V30 5580 C 561.887 2.94618 -5.01573 0
M  V30 5581 N 560.863 3.25112 -4.35664 0
M  V30 5582 H 564.665 1.37822 -2.59581 0
M  V30 5583 H 562.179 0.671227 -1.47879 0
M  V30 5584 H 564.176 3.73063 -1.86091 0
M  V30 5585 H 562.836 3.13476 -0.846353 0
M  V30 5586 H 563.847 2.56477 -4.49933 0
M  V30 5587 H 560.524 3.59013 -2.13111 0
M  V30 5588 H 561.914 2.81984 -6.09865 0
M  V30 5589 N 564.634 1.40294 0.718013 0
M  V30 5590 C 565.862 1.4175 1.50714 0
M  V30 5591 C 566.277 0.0165366 1.88793 0
M  V30 5592 O 565.634 -0.958942 1.55276 0
M  V30 5593 C 565.685 2.30598 2.784 0
M  V30 5594 O 565.406 3.6524 2.41932 0
M  V30 5595 C 566.907 2.4062 3.72313 0
M  V30 5596 H 564.127 0.483565 0.465194 0
M  V30 5597 H 566.671 1.84316 0.885889 0
M  V30 5598 H 564.826 1.91401 3.36815 0
M  V30 5599 H 565.24 4.12402 3.24076 0
M  V30 5600 H 566.714 3.07001 4.58753 0
M  V30 5601 H 567.191 1.4305 4.15251 0
M  V30 5602 H 567.797 2.80359 3.19811 0
M  V30 5603 N 566.112 -0.949982 1.2575 0
M  V30 5604 C 567.044 -2.05088 1.02331 0
M  V30 5605 C 568.057 -1.62795 -0.0133247 0
M  V30 5606 O 569.246 -1.77067 0.225759 0
M  V30 5607 C 566.346 -3.34794 0.525924 0
M  V30 5608 C 565.519 -4.05903 1.62978 0
M  V30 5609 C 564.578 -5.1388 1.13196 0
M  V30 5610 O 563.604 -5.39072 1.82729 0
M  V30 5611 N 564.806 -5.80495 -0.0242926 0
M  V30 5612 H 567.571 -2.25747 1.97125 0
M  V30 5613 H 565.132 -1.11886 1.17018 0
M  V30 5614 H 567.124 -4.04312 0.177263 0
M  V30 5615 H 565.694 -3.10872 -0.328202 0
M  V30 5616 H 564.914 -3.3042 2.1498 0
M  V30 5617 H 566.202 -4.50166 2.37124 0
M  V30 5618 H 565.6 -5.62454 -0.605184 0
M  V30 5619 H 564.157 -6.51043 -0.313947 0
M  V30 5620 N 567.59 -1.07411 -1.15328 0
M  V30 5621 C 568.553 -0.698914 -2.18284 0
M  V30 5622 C 569.553 0.261149 -1.58665 0
M  V30 5623 O 570.743 0.0420277 -1.74149 0
M  V30 5624 C 567.875 -0.0302427 -3.40887 0
M  V30 5625 H 569.068 -1.61045 -2.52991 0
M  V30 5626 H 566.621 -0.870724 -1.298 0
M  V30 5627 H 567.356 0.893505 -3.11748 0
M  V30 5628 H 567.141 -0.720759 -3.85419 0
M  V30 5629 H 568.631 0.21759 -4.17033 0
M  V30 5630 N 569.068 1.32177 -0.85831 0
M  V30 5631 C 570.031 2.27086 -0.310588 0
M  V30 5632 C 571.031 1.51751 0.531806 0
M  V30 5633 O 572.221 1.70794 0.34279 0
M  V30 5634 C 569.353 3.36266 0.560179 0
M  V30 5635 H 570.546 2.77045 -1.1483 0
M  V30 5636 H 568.099 1.42911 -0.632942 0
M  V30 5637 H 568.834 2.9158 1.41956 0
M  V30 5638 H 568.619 3.92077 -0.0428473 0
M  V30 5639 H 570.109 4.06974 0.936056 0
M  V30 5640 N 570.547 0.616602 1.45037 0
M  V30 5641 C 571.772 0.120192 2.07051 0
M  V30 5642 C 572.197 -1.19008 1.45666 0
M  V30 5643 O 571.555 -1.7267 0.552692 0
M  V30 5644 C 571.603 0.00354901 3.606 0
M  V30 5645 O 570.707 -1.04431 3.98958 0
M  V30 5646 H 570.048 0.0781599 0.659384 0
M  V30 5647 H 572.578 0.849167 1.86146 0
M  V30 5648 H 572.588 -0.191754 4.07549 0
M  V30 5649 H 571.263 0.960239 4.04663 0
M  V30 5650 H 569.84 -0.824749 3.63665 0
M  V30 5651 N 572.025 -1.5352 0.356285 0
M  V30 5652 C 573.273 -2.00719 -0.235837 0
M  V30 5653 C 573.594 -1.24551 -1.5004 0
M  V30 5654 O 572.864 -0.356185 -1.92635 0
M  V30 5655 H 571.444 -0.741542 -0.0901366 0
M  V30 5656 H 574.106 -1.88887 0.480378 0
M  V30 5657 H 573.202 -3.08551 -0.469357 0
M  V30 5658 N 573.503 -0.0852151 -1.57369 0
M  V30 5659 C 574.749 0.581666 -1.94279 0
M  V30 5660 C 575.082 1.68444 -0.966446 0
M  V30 5661 O 574.357 1.945 0.00215277 0
M  V30 5662 C 574.64 1.14609 -3.41375 0
M  V30 5663 C 574.493 0.0490414 -4.49773 0
M  V30 5664 C 575.812 2.04751 -3.8957 0
M  V30 5665 H 572.931 0.209972 -0.706456 0
M  V30 5666 H 575.573 -0.153915 -1.89376 0
M  V30 5667 H 573.723 1.77297 -3.45685 0
M  V30 5668 H 575.395 -0.584721 -4.57579 0
M  V30 5669 H 573.638 -0.618638 -4.29366 0
M  V30 5670 H 574.309 0.484601 -5.49869 0
M  V30 5671 H 576.785 1.51981 -3.87351 0
M  V30 5672 H 575.661 2.41173 -4.93079 0
M  V30 5673 H 575.922 2.96107 -3.28288 0
M  V30 5674 N 574.981 1.5647 0.188427 0
M  V30 5675 C 575.944 1.9421 1.21718 0
M  V30 5676 C 576.944 0.823901 1.38089 0
M  V30 5677 O 578.134 1.09122 1.35787 0
M  V30 5678 C 575.266 2.22197 2.58537 0
M  V30 5679 H 576.459 2.86252 0.894418 0
M  V30 5680 H 574.012 1.50263 0.430211 0
M  V30 5681 H 574.747 1.32814 2.95856 0
M  V30 5682 H 574.532 3.03688 2.48025 0
M  V30 5683 H 576.022 2.52376 3.3271 0
M  V30 5684 N 576.459 -0.456382 1.50847 0
M  V30 5685 C 577.707 -1.20497 1.62249 0
M  V30 5686 C 578.028 -1.92156 0.331839 0
M  V30 5687 O 577.298 -1.84751 -0.651443 0
M  V30 5688 H 575.878 -0.447775 0.597918 0
M  V30 5689 H 578.54 -0.525099 1.87693 0
M  V30 5690 H 577.636 -1.94492 2.44089 0
M  V30 5691 N 577.937 -1.40673 -0.710563 0
M  V30 5692 C 579.183 -1.39428 -1.47267 0
M  V30 5693 C 579.516 0.00182129 -1.942 0
M  V30 5694 O 578.791 0.971387 -1.68506 0
M  V30 5695 C 579.074 -2.38812 -2.6952 0
M  V30 5696 C 578.927 -3.87467 -2.28449 0
M  V30 5697 C 580.246 -2.3566 -3.71689 0
M  V30 5698 H 577.365 -0.507768 -0.534173 0
M  V30 5699 H 580.007 -1.71843 -0.810547 0
M  V30 5700 H 578.157 -2.113 -3.26013 0
M  V30 5701 H 579.829 -4.25825 -1.77399 0
M  V30 5702 H 578.072 -4.03058 -1.60395 0
M  V30 5703 H 578.743 -4.5253 -3.16103 0
M  V30 5704 H 581.219 -2.6004 -3.24836 0
M  V30 5705 H 580.095 -3.07237 -4.54859 0
M  V30 5706 H 580.356 -1.36996 -4.20339 0
M  V30 5707 N 579.415 0.9433 -1.26252 0
M  V30 5708 C 580.664 1.68369 -1.11062 0
M  V30 5709 C 580.977 1.92514 0.346104 0
M  V30 5710 O 582.183 2.64358 0.618646 0
M  V30 5711 C 580.639 3.03171 -1.93946 0
M  V30 5712 C 580.247 2.86782 -3.4418 0
M  V30 5713 C 581.991 3.80916 -1.87359 0
M  V30 5714 C 579.898 4.17044 -4.19319 0
M  V30 5715 H 578.828 0.631469 -0.412023 0
M  V30 5716 H 581.479 1.04922 -1.50544 0
M  V30 5717 H 579.861 3.67587 -1.47296 0
M  V30 5718 H 581.035 2.31229 -3.98585 0
M  V30 5719 H 579.35 2.22482 -3.51981 0
M  V30 5720 H 581.947 4.77417 -2.40784 0
M  V30 5721 H 582.29 4.07658 -0.843857 0
M  V30 5722 H 582.823 3.2327 -2.31821 0
M  V30 5723 H 579.562 3.95487 -5.22753 0
M  V30 5724 H 579.082 4.72319 -3.69696 0
M  V30 5725 H 580.761 4.85513 -4.27651 0
M  V30 5726 N 580.893 1.08022 1.14757 0
M  V30 5727 C 581.84 0.706657 2.19716 0
M  V30 5728 C 582.81 -0.30525 1.63271 0
M  V30 5729 O 583.995 -0.19015 1.8985 0
M  V30 5730 C 581.135 0.117914 3.44898 0
M  V30 5731 C 580.248 1.18212 4.15512 0
M  V30 5732 C 579.383 0.557659 5.28265 0
M  V30 5733 C 578.422 1.60418 5.90705 0
M  V30 5734 N 577.559 1.0018 6.94916 0
M  V30 5735 H 582.399 1.60603 2.51019 0
M  V30 5736 H 579.936 0.802664 1.23271 0
M  V30 5737 H 581.894 -0.241112 4.16503 0
M  V30 5738 H 580.524 -0.744788 3.1409 0
M  V30 5739 H 579.576 1.65863 3.42335 0
M  V30 5740 H 580.888 1.97533 4.5802 0
M  V30 5741 H 580.042 0.146654 6.06523 0
M  V30 5742 H 578.781 -0.267249 4.86967 0
M  V30 5743 H 577.786 2.02489 5.11154 0
M  V30 5744 H 579.011 2.43149 6.34078 0
M  V30 5745 H 576.957 0.197917 6.55701 0
M  V30 5746 H 576.874 1.73216 7.35889 0
M  V30 5747 H 578.142 0.616523 7.77058 0
M  V30 5748 N 582.371 -1.3172 0.865308 0
M  V30 5749 C 583.304 -2.26687 0.262376 0
M  V30 5750 C 584.282 -1.50894 -0.605787 0
M  V30 5751 O 585.466 -1.79982 -0.56024 0
M  V30 5752 C 582.593 -3.3281 -0.628915 0
M  V30 5753 C 581.639 -4.26172 0.167278 0
M  V30 5754 S 582.472 -5.12797 1.54272 0
M  V30 5755 C 583.628 -6.22438 0.657427 0
M  V30 5756 H 583.861 -2.77478 1.0674 0
M  V30 5757 H 581.394 -1.39414 0.663555 0
M  V30 5758 H 583.352 -3.94426 -1.13747 0
M  V30 5759 H 582.013 -2.80782 -1.40785 0
M  V30 5760 H 581.206 -5.01392 -0.51203 0
M  V30 5761 H 580.808 -3.69029 0.607777 0
M  V30 5762 H 583.1 -6.77368 -0.133925 0
M  V30 5763 H 584.043 -6.9451 1.38061 0
M  V30 5764 H 584.451 -5.64043 0.227044 0
M  V30 5765 N 583.85 -0.624285 -1.44708 0
M  V30 5766 C 585.096 -0.126237 -2.02407 0
M  V30 5767 C 585.428 1.24618 -1.48943 0
M  V30 5768 O 584.704 1.82569 -0.670742 0
M  V30 5769 C 584.986 -0.105449 -3.59946 0
M  V30 5770 C 584.84 -1.50972 -4.23707 0
M  V30 5771 C 586.159 0.573629 -4.36346 0
M  V30 5772 H 583.278 -0.0473472 -0.735478 0
M  V30 5773 H 585.92 -0.799452 -1.72362 0
M  V30 5774 H 584.07 0.46783 -3.85673 0
M  V30 5775 H 585.742 -2.13136 -4.0911 0
M  V30 5776 H 583.985 -2.0656 -3.81465 0
M  V30 5777 H 584.656 -1.44727 -5.32689 0
M  V30 5778 H 587.132 0.0861787 -4.16011 0
M  V30 5779 H 586.008 0.557338 -5.46063 0
M  V30 5780 H 586.269 1.64276 -4.10446 0
M  V30 5781 N 585.328 1.53329 -0.364422 0
M  V30 5782 C 586.26 2.23286 0.517293 0
M  V30 5783 C 587.273 1.24657 1.04711 0
M  V30 5784 O 588.462 1.50887 0.95369 0
M  V30 5785 C 585.562 2.91604 1.72685 0
M  V30 5786 C 584.735 4.1673 1.32873 0
M  V30 5787 C 583.794 4.68269 2.40022 0
M  V30 5788 O 582.82 5.31976 2.02461 0
M  V30 5789 N 584.022 4.45983 3.7159 0
M  V30 5790 H 586.787 2.99588 -0.0819391 0
M  V30 5791 H 584.348 1.60787 -0.189544 0
M  V30 5792 H 586.34 3.22992 2.4384 0
M  V30 5793 H 584.91 2.18763 2.23297 0
M  V30 5794 H 584.13 3.91657 0.447069 0
M  V30 5795 H 585.418 4.98078 1.03902 0
M  V30 5796 H 584.816 3.95077 4.04883 0
M  V30 5797 H 583.373 4.81924 4.38854 0
M  V30 5798 N 586.806 0.0935595 1.57322 0
M  V30 5799 C 587.769 -0.851426 2.12799 0
M  V30 5800 C 588.769 -1.21187 1.0569 0
M  V30 5801 O 589.959 -1.14156 1.31583 0
M  V30 5802 C 587.091 -2.14779 2.64731 0
M  V30 5803 H 588.284 -0.369733 2.97612 0
M  V30 5804 H 585.837 -0.155417 1.55525 0
M  V30 5805 H 586.572 -2.67437 1.83434 0
M  V30 5806 H 586.357 -1.89907 3.43042 0
M  V30 5807 H 587.847 -2.82383 3.07651 0
M  V30 5808 N 588.284 -1.56567 -0.180126 0
M  V30 5809 C 589.214 -1.98753 -1.22553 0
M  V30 5810 C 590.195 -0.86175 -1.46656 0
M  V30 5811 O 591.38 -1.12719 -1.58139 0
M  V30 5812 C 588.51 -2.33988 -2.56645 0
M  V30 5813 C 587.464 -3.49445 -2.47128 0
M  V30 5814 C 586.79 -3.70397 -3.8563 0
M  V30 5815 C 588.09 -4.83171 -1.98352 0
M  V30 5816 H 589.784 -2.86332 -0.874896 0
M  V30 5817 H 587.33 -1.37757 -0.419414 0
M  V30 5818 H 589.283 -2.62097 -3.29974 0
M  V30 5819 H 588.007 -1.43309 -2.93479 0
M  V30 5820 H 586.666 -3.2145 -1.76254 0
M  V30 5821 H 586.314 -2.77023 -4.19842 0
M  V30 5822 H 586.014 -4.48077 -3.80132 0
M  V30 5823 H 587.538 -4.00897 -4.60558 0
M  V30 5824 H 588.952 -5.10213 -2.61449 0
M  V30 5825 H 587.349 -5.64425 -2.03823 0
M  V30 5826 H 588.419 -4.75753 -0.937402 0
M  V30 5827 N 589.762 0.448376 -1.51087 0
M  V30 5828 C 591.178 0.783984 -1.39017 0
M  V30 5829 C 591.378 1.96087 -0.463904 0
M  V30 5830 O 590.434 2.52357 0.0850534 0
M  V30 5831 C 591.747 1.07471 -2.80839 0
M  V30 5832 C 593.295 1.17981 -2.89913 0
M  V30 5833 C 593.77 1.50354 -4.32617 0
M  V30 5834 N 595.261 1.57301 -4.35673 0
M  V30 5835 C 595.996 1.839 -5.4311 0
M  V30 5836 N 595.492 2.08365 -6.60724 0
M  V30 5837 N 597.285 1.8559 -5.30578 0
M  V30 5838 H 589.436 -0.326881 -2.0987 0
M  V30 5839 H 591.699 -0.0838006 -0.944289 0
M  V30 5840 H 591.405 0.282768 -3.50561 0
M  V30 5841 H 591.279 2.00519 -3.19487 0
M  V30 5842 H 593.666 1.9624 -2.20395 0
M  V30 5843 H 593.747 0.228603 -2.54776 0
M  V30 5844 H 593.391 0.726273 -5.0268 0
M  V30 5845 H 593.321 2.46663 -4.65258 0
M  V30 5846 H 595.812 1.40342 -3.50874 0
M  V30 5847 H 596.125 2.27999 -7.38401 0
M  V30 5848 H 594.47 2.0571 -6.63859 0
M  V30 5849 H 597.661 1.65989 -4.37682 0
M  V30 5850 H 597.834 2.05983 -6.1439 0
M  V30 5851 N 591.24 1.41047 0.703093 0
M  V30 5852 C 592.19 1.38774 1.80903 0
M  V30 5853 C 593.174 0.263275 1.58731 0
M  V30 5854 O 594.366 0.503362 1.69692 0
M  V30 5855 C 591.495 1.26497 3.19145 0
M  V30 5856 C 590.581 2.43775 3.47037 0
M  V30 5857 N 590.972 3.69249 3.45672 0
M  V30 5858 C 589.27 2.37425 3.77552 0
M  V30 5859 C 589.971 4.46989 3.72258 0
M  V30 5860 N 588.947 3.76998 3.91629 0
M  V30 5861 H 592.749 2.33714 1.78199 0
M  V30 5862 H 590.263 1.34996 0.902762 0
M  V30 5863 H 592.26 1.2295 3.98358 0
M  V30 5864 H 590.92 0.32534 3.23066 0
M  V30 5865 H 591.931 4.02239 3.26228 0
M  V30 5866 H 588.608 1.51895 3.88888 0
M  V30 5867 H 589.998 5.55894 3.77402 0
M  V30 5868 N 592.718 -0.936591 1.26751 0
M  V30 5869 C 593.966 -1.67998 1.12343 0
M  V30 5870 C 594.287 -1.92137 -0.332938 0
M  V30 5871 O 593.557 -1.52132 -1.23421 0
M  V30 5872 H 592.137 -0.622609 0.412756 0
M  V30 5873 H 594.799 -1.12509 1.59147 0
M  V30 5874 H 593.895 -2.65185 1.64571 0
M  V30 5875 N 594.196 -1.08629 -1.14182 0
M  V30 5876 C 595.442 -0.818556 -1.85546 0
M  V30 5877 C 595.775 0.654076 -1.82854 0
M  V30 5878 O 595.05 1.48099 -1.26083 0
M  V30 5879 C 595.333 -1.34397 -3.3408 0
M  V30 5880 C 595.186 -2.8821 -3.45333 0
M  V30 5881 C 596.505 -0.971069 -4.29253 0
M  V30 5882 H 593.624 -0.298821 -0.673702 0
M  V30 5883 H 596.266 -1.34629 -1.34071 0
M  V30 5884 H 594.416 -0.895064 -3.78049 0
M  V30 5885 H 596.088 -3.41488 -3.10134 0
M  V30 5886 H 594.331 -3.25756 -2.86471 0
M  V30 5887 H 595.002 -3.20047 -4.49749 0
M  V30 5888 H 597.478 -1.35809 -3.93313 0
M  V30 5889 H 596.354 -1.36586 -5.31635 0
M  V30 5890 H 596.615 0.121659 -4.41933 0
M  V30 5891 N 595.674 1.31259 -0.872281 0
M  V30 5892 C 596.604 2.30929 -0.345554 0
M  V30 5893 C 597.585 1.60449 0.5648 0
M  V30 5894 O 598.77 1.8814 0.481335 0
M  V30 5895 C 595.9 3.44348 0.451823 0
M  V30 5896 C 594.854 4.26435 -0.365641 0
M  V30 5897 C 594.18 5.31785 0.557562 0
M  V30 5898 C 595.48 4.97159 -1.60095 0
M  V30 5899 H 597.174 2.75234 -1.17841 0
M  V30 5900 H 594.72 1.3232 -0.568094 0
M  V30 5901 H 596.673 4.13128 0.830854 0
M  V30 5902 H 595.397 2.98816 1.31821 0
M  V30 5903 H 594.056 3.59326 -0.726649 0
M  V30 5904 H 593.704 4.82502 1.4213 0
M  V30 5905 H 593.404 5.87598 0.0144878 0
M  V30 5906 H 594.928 6.03424 0.933387 0
M  V30 5907 H 596.342 5.58523 -1.29323 0
M  V30 5908 H 594.739 5.62779 -2.08327 0
M  V30 5909 H 595.809 4.24012 -2.35249 0
M  V30 5910 N 597.152 0.631951 1.44375 0
M  V30 5911 C 598.563 0.219036 1.85411 0
M  V30 5912 C 598.914 -1.22974 1.52879 0
M  V30 5913 O 598.039 -1.93579 0.967266 0
M  V30 5914 C 598.634 0.39075 3.36539 0
M  V30 5915 C 597.193 0.0323351 3.76386 0
M  V30 5916 C 596.34 0.703744 2.68221 0
M  V30 5917 H 599.291 0.837056 1.3483 0
M  V30 5918 H 599.312 -0.370056 3.78696 0
M  V30 5919 H 598.824 1.44527 3.60185 0
M  V30 5920 H 596.925 -1.02042 3.58355 0
M  V30 5921 H 597.038 0.442969 4.77048 0
M  V30 5922 H 595.402 0.138974 2.54321 0
M  V30 5923 H 596.185 1.76088 2.947 0
M  V30 5924 N 598.631 -1.53133 0.372548 0
M  V30 5925 C 599.578 -2.25951 -0.470631 0
M  V30 5926 C 600.548 -1.26895 -1.07176 0
M  V30 5927 O 601.733 -1.55691 -1.10294 0
M  V30 5928 C 598.873 -3.05726 -1.6008 0
M  V30 5929 C 597.986 -4.19684 -1.02416 0
M  V30 5930 C 597.121 -4.86888 -2.124 0
M  V30 5931 C 596.16 -5.92866 -1.52238 0
M  V30 5932 N 595.297 -6.53732 -2.56084 0
M  V30 5933 H 600.137 -2.97587 0.156816 0
M  V30 5934 H 597.674 -1.4683 0.0891571 0
M  V30 5935 H 599.632 -3.50258 -2.26661 0
M  V30 5936 H 598.262 -2.36331 -2.1988 0
M  V30 5937 H 597.314 -3.79588 -0.248426 0
M  V30 5938 H 598.626 -4.95821 -0.544366 0
M  V30 5939 H 597.78 -5.34638 -2.86787 0
M  V30 5940 H 596.519 -4.10239 -2.63734 0
M  V30 5941 H 595.524 -5.4447 -0.763685 0
M  V30 5942 H 596.749 -6.71439 -1.0172 0
M  V30 5943 H 594.695 -5.79932 -3.06618 0
M  V30 5944 H 594.612 -7.25429 -2.12811 0
M  V30 5945 H 595.88 -7.0613 -3.30152 0
M  V30 5946 N 600.109 -0.101901 -1.5727 0
M  V30 5947 C 601.337 0.568392 -1.98939 0
M  V30 5948 C 601.752 1.61301 -0.981194 0
M  V30 5949 O 601.109 1.82478 0.0282869 0
M  V30 5950 C 601.16 1.20997 -3.40649 0
M  V30 5951 O 600.881 0.207129 -4.3761 0
M  V30 5952 C 602.382 1.96523 -3.97358 0
M  V30 5953 H 599.602 0.15186 -0.65359 0
M  V30 5954 H 602.146 -0.183198 -2.03678 0
M  V30 5955 H 600.301 1.91245 -3.36904 0
M  V30 5956 H 600.715 0.671071 -5.20189 0
M  V30 5957 H 602.189 2.36764 -4.98645 0
M  V30 5958 H 602.666 2.83376 -3.35552 0
M  V30 5959 H 603.272 1.31076 -4.04598 0
M  V30 5960 N 601.587 1.56661 0.17182 0
M  V30 5961 C 602.517 1.99401 1.21498 0
M  V30 5962 C 603.498 0.869516 1.46197 0
M  V30 5963 O 604.683 1.13556 1.57539 0
M  V30 5964 C 601.813 2.35346 2.55401 0
M  V30 5965 C 600.767 3.5075 2.45272 0
M  V30 5966 C 600.093 3.72437 3.8366 0
M  V30 5967 C 601.393 4.84216 1.95787 0
M  V30 5968 H 603.087 2.86792 0.859699 0
M  V30 5969 H 600.633 1.37977 0.412103 0
M  V30 5970 H 602.586 2.63843 3.2858 0
M  V30 5971 H 601.31 1.44864 2.92715 0
M  V30 5972 H 599.969 3.2238 1.74547 0
M  V30 5973 H 599.617 2.79246 4.18367 0
M  V30 5974 H 599.317 4.50087 3.77751 0
M  V30 5975 H 600.841 4.03334 4.58426 0
M  V30 5976 H 602.255 5.11592 2.5874 0
M  V30 5977 H 600.652 5.65498 2.00827 0
M  V30 5978 H 601.722 4.76243 0.912159 0
M  V30 5979 N 603.065 -0.440357 1.51323 0
M  V30 5980 C 604.015 -1.53263 1.68803 0
M  V30 5981 C 604.999 -1.51494 0.542057 0
M  V30 5982 O 606.191 -1.57999 0.797839 0
M  V30 5983 C 603.32 -2.91479 1.8137 0
M  V30 5984 C 602.406 -2.98015 3.01742 0
M  V30 5985 N 602.797 -2.743 4.24962 0
M  V30 5986 C 601.095 -3.29173 3.00934 0
M  V30 5987 C 601.796 -2.86601 5.06197 0
M  V30 5988 N 600.772 -3.1814 4.40781 0
M  V30 5989 H 604.574 -1.33675 2.61741 0
M  V30 5990 H 602.088 -0.647616 1.48929 0
M  V30 5991 H 604.085 -3.70055 1.92002 0
M  V30 5992 H 602.745 -3.12089 0.896117 0
M  V30 5993 H 603.756 -2.49287 4.53957 0
M  V30 5994 H 600.433 -3.55577 2.18796 0
M  V30 5995 H 601.823 -2.72246 6.14274 0
M  V30 5996 N 604.543 -1.41418 -0.695603 0
M  V30 5997 C 605.789 -1.40982 -1.4578 0
M  V30 5998 C 606.122 -0.0187763 -1.94191 0
M  V30 5999 O 605.397 0.95346 -1.69527 0
M  V30 6000 C 605.68 -2.41657 -2.66972 0
M  V30 6001 C 605.533 -3.89869 -2.24327 0
M  V30 6002 C 606.852 -2.39589 -3.69168 0
M  V30 6003 H 603.971 -0.513405 -0.528757 0
M  V30 6004 H 606.613 -1.72693 -0.792275 0
M  V30 6005 H 604.763 -2.14746 -3.23754 0
M  V30 6006 H 606.435 -4.27683 -1.72872 0
M  V30 6007 H 604.678 -4.04737 -1.56111 0
M  V30 6008 H 605.349 -4.55857 -3.11285 0
M  V30 6009 H 607.825 -2.63471 -3.2206 0
M  V30 6010 H 606.701 -3.12044 -4.51575 0
M  V30 6011 H 606.962 -1.41447 -4.18862 0
M  V30 6012 N 606.021 0.929856 -1.27246 0
M  V30 6013 C 607.298 1.65544 -1.04186 0
M  V30 6014 C 607.678 2.06796 0.424097 0
M  V30 6015 O 607.026 1.80053 1.40688 0
M  V30 6016 C 607.236 2.85912 -2.00138 0
M  V30 6017 C 608.584 3.57305 -2.29387 0
M  V30 6018 O 609.608 2.96036 -1.98094 0
M  V30 6019 O 608.467 4.67688 -2.82719 0
M  V30 6020 H 605.561 0.725473 -0.397011 0
M  V30 6021 H 608.107 0.980583 -1.38501 0
M  V30 6022 H 606.879 2.52403 -2.99013 0
M  V30 6023 H 606.502 3.61118 -1.66371 0
M  V30 6024 N 607.499 1.09233 1.13605 0
M  V30 6025 C 608.409 0.741939 2.22559 0
M  V30 6026 C 609.425 -0.255236 1.72118 0
M  V30 6027 O 610.601 -0.0970747 2.01166 0
M  V30 6028 C 607.666 0.165595 3.46304 0
M  V30 6029 C 606.727 1.21846 4.11645 0
M  V30 6030 C 605.96 0.669526 5.29484 0
M  V30 6031 O 606.183 -0.508228 5.68131 0
M  V30 6032 O 605.117 1.42361 5.84822 0
M  V30 6033 H 608.943 1.65107 2.54899 0
M  V30 6034 H 606.528 0.866584 1.21699 0
M  V30 6035 H 608.41 -0.152592 4.21124 0
M  V30 6036 H 607.085 -0.716573 3.15669 0
M  V30 6037 H 605.992 1.58931 3.38662 0
M  V30 6038 H 607.325 2.07321 4.46407 0
M  V30 6039 N 608.977 -1.30795 0.87923 0
M  V30 6040 C 610.388 -1.78535 0.546093 0
M  V30 6041 C 610.739 -1.72354 -0.937467 0
M  V30 6042 O 609.864 -1.2969 -1.73233 0
M  V30 6043 C 610.459 -3.24181 0.9845 0
M  V30 6044 C 609.018 -3.69779 0.702871 0
M  V30 6045 C 608.165 -2.51377 1.17068 0
M  V30 6046 H 611.116 -1.17746 1.06403 0
M  V30 6047 H 611.137 -3.79227 0.311045 0
M  V30 6048 H 610.649 -3.28647 2.06429 0
M  V30 6049 H 608.75 -3.70806 -0.365166 0
M  V30 6050 H 608.863 -4.61507 1.28639 0
M  V30 6051 H 607.227 -2.47768 0.590172 0
M  V30 6052 H 608.01 -2.58584 2.25808 0
M  V30 6053 N 610.455 -0.639598 -1.44038 0
M  V30 6054 C 611.683 -0.154811 -2.0632 0
M  V30 6055 C 612.098 1.17406 -1.47856 0
M  V30 6056 O 611.455 1.72193 -0.604638 0
M  V30 6057 C 611.506 -0.0429958 -3.61474 0
M  V30 6058 O 611.227 -1.31932 -4.17763 0
M  V30 6059 C 612.728 0.469486 -4.40807 0
M  V30 6060 H 609.948 -0.0835862 -0.665773 0
M  V30 6061 H 612.492 -0.876397 -1.84769 0
M  V30 6062 H 610.647 0.629075 -3.82258 0
M  V30 6063 H 611.061 -1.16965 -5.11292 0
M  V30 6064 H 612.535 0.496712 -5.49761 0
M  V30 6065 H 613.012 1.49819 -4.12857 0
M  V30 6066 H 613.618 -0.169624 -4.24962 0
M  V30 6067 N 611.933 1.52934 -0.380664 0
M  V30 6068 C 613.21 1.93845 0.261417 0
M  V30 6069 C 613.59 1.31544 1.65104 0
M  V30 6070 O 612.938 0.480234 2.23397 0
M  V30 6071 C 613.148 3.47739 0.296466 0
M  V30 6072 C 614.496 4.21284 0.529578 0
M  V30 6073 O 615.52 3.54199 0.377041 0
M  V30 6074 O 614.379 5.40195 0.827753 0
M  V30 6075 H 611.473 0.811318 0.160285 0
M  V30 6076 H 614.019 1.64042 -0.434544 0
M  V30 6077 H 612.791 3.85395 -0.67724 0
M  V30 6078 H 612.414 3.8382 1.0377 0
M  V30 6079 N 613.412 0.11024 1.57214 0
M  V30 6080 C 614.344 -0.873497 2.11902 0
M  V30 6081 C 615.357 -1.23588 1.05971 0
M  V30 6082 O 616.546 -1.18636 1.33371 0
M  V30 6083 C 613.646 -2.17805 2.59643 0
M  V30 6084 C 612.819 -1.98869 3.89576 0
M  V30 6085 C 611.878 -3.12974 4.23006 0
M  V30 6086 O 610.904 -2.86272 4.91973 0
M  V30 6087 N 612.106 -4.39167 3.79622 0
M  V30 6088 H 614.871 -0.406317 2.96933 0
M  V30 6089 H 612.432 -0.074437 1.61729 0
M  V30 6090 H 614.424 -2.93117 2.79042 0
M  V30 6091 H 612.994 -2.55899 1.7954 0
M  V30 6092 H 612.214 -1.078 3.79174 0
M  V30 6093 H 613.502 -1.83512 4.74553 0
M  V30 6094 H 612.9 -4.63739 3.2398 0
M  V30 6095 H 611.457 -5.11379 4.04147 0
M  V30 6096 N 614.89 -1.56749 -0.16351 0
M  V30 6097 C 616.136 -1.82704 -0.880168 0
M  V30 6098 C 616.469 -0.689311 -1.81555 0
M  V30 6099 O 615.744 0.308224 -1.92042 0
M  V30 6100 C 616.027 -3.19084 -1.66905 0
M  V30 6101 C 615.88 -4.43397 -0.756269 0
M  V30 6102 C 617.199 -3.52493 -2.63509 0
M  V30 6103 H 614.318 -0.664608 -0.318535 0
M  V30 6104 H 616.96 -1.89438 -0.146036 0
M  V30 6105 H 615.11 -3.13475 -2.2949 0
M  V30 6106 H 616.782 -4.61079 -0.14269 0
M  V30 6107 H 615.025 -4.33752 -0.0647944 0
M  V30 6108 H 615.696 -5.3539 -1.34393 0
M  V30 6109 H 618.172 -3.58606 -2.11047 0
M  V30 6110 H 617.048 -4.48979 -3.15767 0
M  V30 6111 H 617.309 -2.77597 -3.44082 0
M  V30 6112 N 616.368 0.432326 -1.51554 0
M  V30 6113 C 617.645 1.19288 -1.55015 0
M  V30 6114 C 618.025 2.08701 -0.317375 0
M  V30 6115 O 617.373 2.17602 0.697243 0
M  V30 6116 C 617.583 1.99037 -2.86679 0
M  V30 6117 C 618.931 2.55907 -3.38817 0
M  V30 6118 O 619.955 2.09243 -2.88263 0
M  V30 6119 O 618.814 3.41029 -4.27038 0
M  V30 6120 H 615.908 0.543369 -0.623441 0
M  V30 6121 H 618.454 0.440988 -1.6387 0
M  V30 6122 H 617.226 1.33397 -3.6786 0
M  V30 6123 H 616.849 2.81281 -2.8101 0
M  V30 6124 N 617.846 1.41785 0.688094 0
M  V30 6125 C 619.092 1.42753 1.4489 0
M  V30 6126 C 619.447 0.0384235 1.92362 0
M  V30 6127 O 618.74 -0.937066 1.67122 0
M  V30 6128 C 618.934 2.37532 2.67046 0
M  V30 6129 C 618.763 3.85521 2.31525 0
M  V30 6130 C 617.533 4.54152 2.21527 0
M  V30 6131 C 619.731 4.76299 1.94019 0
M  V30 6132 N 617.713 5.87233 1.78969 0
M  V30 6133 C 619.084 5.98386 1.62279 0
M  V30 6134 C 621.139 4.63877 1.80895 0
M  V30 6135 C 619.842 7.09433 1.18732 0
M  V30 6136 C 621.868 5.74893 1.38752 0
M  V30 6137 C 621.23 6.96083 1.07927 0
M  V30 6138 H 617.329 0.577575 0.527192 0
M  V30 6139 H 619.913 1.77713 0.795375 0
M  V30 6140 H 618.084 2.04656 3.30107 0
M  V30 6141 H 619.816 2.29169 3.33562 0
M  V30 6142 H 616.571 4.08188 2.40166 0
M  V30 6143 H 616.995 6.57785 1.60151 0
M  V30 6144 H 621.637 3.70671 2.03378 0
M  V30 6145 H 619.355 8.02497 0.949937 0
M  V30 6146 H 622.941 5.67287 1.29136 0
M  V30 6147 H 621.821 7.80527 0.758111 0
M  V30 6148 N 619.324 -0.923095 1.27737 0
M  V30 6149 C 620.549 -1.71054 1.17283 0
M  V30 6150 C 620.974 -1.86208 -0.266153 0
M  V30 6151 O 620.332 -1.36545 -1.1927 0
M  V30 6152 C 620.38 -3.0854 1.86642 0
M  V30 6153 O 619.484 -3.95528 1.16752 0
M  V30 6154 H 618.825 -0.524136 0.407649 0
M  V30 6155 H 621.355 -1.15487 1.6889 0
M  V30 6156 H 621.365 -3.58828 1.94182 0
M  V30 6157 H 620.04 -2.96828 2.91317 0
M  V30 6158 H 618.617 -3.53967 1.17312 0
M  V30 6159 N 620.802 -1.09834 -1.13024 0
M  V30 6160 C 621.765 -0.745058 -2.16752 0
M  V30 6161 C 622.765 0.227435 -1.59183 0
M  V30 6162 O 623.955 0.0050786 -1.74199 0
M  V30 6163 C 621.087 -0.102543 -3.40746 0
M  V30 6164 H 622.28 -1.66375 -2.49518 0
M  V30 6165 H 619.833 -0.898061 -1.27924 0
M  V30 6166 H 620.568 0.827177 -3.13573 0
M  V30 6167 H 620.353 -0.80235 -3.83803 0
M  V30 6168 H 621.843 0.129082 -4.174 0
M  V30 6169 N 622.28 1.30327 -0.886154 0
M  V30 6170 C 623.528 1.9571 -0.504195 0
M  V30 6171 C 623.849 1.70294 0.950003 0
M  V30 6172 O 623.119 1.02718 1.66811 0
M  V30 6173 H 621.699 0.72412 -0.183465 0
M  V30 6174 H 624.361 1.58835 -1.12949 0
M  V30 6175 H 623.457 3.04704 -0.675431 0
M  V30 6176 N 623.758 0.647228 1.43697 0
M  V30 6177 C 624.983 0.164083 2.0675 0
M  V30 6178 C 625.408 -1.15892 1.48158 0
M  V30 6179 O 624.766 -1.71459 0.589194 0
M  V30 6180 C 624.814 0.0800368 3.60511 0
M  V30 6181 O 623.918 -0.959453 4.01084 0
M  V30 6182 H 623.259 0.0921288 0.657578 0
M  V30 6183 H 625.789 0.88846 1.84303 0
M  V30 6184 H 625.799 -0.105263 4.07864 0
M  V30 6185 H 624.474 1.04586 4.02535 0
M  V30 6186 H 623.051 -0.747425 3.65333 0
M  V30 6187 N 625.236 -1.5273 0.388769 0
M  V30 6188 C 626.482 -2.01871 -0.193877 0
M  V30 6189 C 626.815 -1.27475 -1.46505 0
M  V30 6190 O 626.09 -0.375063 -1.90849 0
M  V30 6191 C 626.373 -3.5712 -0.462336 0
M  V30 6192 C 626.226 -4.42186 0.824091 0
M  V30 6193 C 627.545 -4.21881 -1.25319 0
M  V30 6194 H 624.664 -0.733764 -0.0689899 0
M  V30 6195 H 627.306 -1.82796 0.518231 0
M  V30 6196 H 625.456 -3.73504 -1.06896 0
M  V30 6197 H 627.128 -4.37554 1.46096 0
M  V30 6198 H 625.371 -4.09219 1.43952 0
M  V30 6199 H 626.042 -5.48828 0.590905 0
M  V30 6200 H 628.518 -4.0947 -0.73981 0
M  V30 6201 H 627.394 -5.30487 -1.40977 0
M  V30 6202 H 627.655 -3.79478 -2.26824 0
M  V30 6203 N 626.714 -0.118576 -1.57153 0
M  V30 6204 C 627.624 0.845484 -2.18835 0
M  V30 6205 C 628.64 1.29299 -1.16438 0
M  V30 6206 O 629.816 1.35607 -1.48905 0
M  V30 6207 C 626.881 2.07795 -2.77529 0
M  V30 6208 C 625.942 1.6824 -3.9496 0
M  V30 6209 C 625.175 2.85612 -4.50845 0
M  V30 6210 O 625.398 4.01025 -4.05629 0
M  V30 6211 O 624.332 2.62721 -5.41536 0
M  V30 6212 H 628.158 0.350568 -3.0167 0
M  V30 6213 H 625.743 0.107013 -1.49016 0
M  V30 6214 H 627.625 2.79978 -3.14945 0
M  V30 6215 H 626.3 2.56294 -1.97725 0
M  V30 6216 H 625.207 0.931663 -3.62313 0
M  V30 6217 H 626.54 1.24484 -4.76198 0
M  V30 6218 N 628.193 1.56834 0.155195 0
M  V30 6219 C 629.123 2.00678 1.19376 0
M  V30 6220 C 630.104 0.884973 1.45266 0
M  V30 6221 O 631.289 1.1522 1.56326 0
M  V30 6222 C 628.419 2.38042 2.5289 0
M  V30 6223 C 627.373 3.53332 2.41538 0
M  V30 6224 C 626.699 3.76485 3.79688 0
M  V30 6225 C 627.999 4.86265 1.9064 0
M  V30 6226 H 629.693 2.87688 0.829232 0
M  V30 6227 H 627.239 1.38407 0.397445 0
M  V30 6228 H 629.192 2.67314 3.25763 0
M  V30 6229 H 627.916 1.4796 2.91162 0
M  V30 6230 H 626.575 3.24213 1.71117 0
M  V30 6231 H 626.223 2.83667 4.15382 0
M  V30 6232 H 625.923 4.54068 3.72956 0
M  V30 6233 H 627.447 4.08174 4.54122 0
M  V30 6234 H 628.861 5.14308 2.53299 0
M  V30 6235 H 627.258 5.67597 1.94818 0
M  V30 6236 H 628.328 4.77184 0.861596 0
M  V30 6237 N 629.671 -0.424282 1.51781 0
M  V30 6238 C 630.601 -1.52305 1.7699 0
M  V30 6239 C 631.582 -1.5839 0.620209 0
M  V30 6240 O 632.767 -1.73908 0.864268 0
M  V30 6241 C 629.897 -2.90271 1.90683 0
M  V30 6242 C 628.851 -2.99043 3.06198 0
M  V30 6243 C 628.177 -4.39116 3.05092 0
M  V30 6244 C 629.477 -2.7192 4.45934 0
M  V30 6245 H 631.171 -1.31461 2.68995 0
M  V30 6246 H 628.717 -0.630985 1.29439 0
M  V30 6247 H 630.67 -3.6711 2.06901 0
M  V30 6248 H 629.394 -3.12376 0.953365 0
M  V30 6249 H 628.053 -2.24646 2.89706 0
M  V30 6250 H 627.701 -4.58207 2.07498 0
M  V30 6251 H 627.401 -4.45912 3.82669 0
M  V30 6252 H 628.925 -5.17911 3.2342 0
M  V30 6253 H 630.339 -3.38487 4.62709 0
M  V30 6254 H 628.736 -2.90111 5.25315 0
M  V30 6255 H 629.806 -1.67445 4.55072 0
M  V30 6256 N 631.149 -1.42148 -0.680565 0
M  V30 6257 C 632.377 -1.45696 -1.46902 0
M  V30 6258 C 632.792 -0.0665858 -1.88683 0
M  V30 6259 O 632.149 0.917436 -1.57764 0
M  V30 6260 C 632.2 -2.37898 -2.72188 0
M  V30 6261 O 631.921 -3.71526 -2.32163 0
M  V30 6262 C 633.422 -2.50407 -3.65802 0
M  V30 6263 H 630.642 -0.495729 -0.45221 0
M  V30 6264 H 633.186 -1.866 -0.836709 0
M  V30 6265 H 631.341 -2.00263 -3.31622 0
M  V30 6266 H 631.755 -4.20849 -3.13027 0
M  V30 6267 H 633.229 -3.19056 -4.50452 0
M  V30 6268 H 633.706 -1.5401 -4.11312 0
M  V30 6269 H 634.312 -2.8874 -3.12265 0
M  V30 6270 N 632.627 0.916307 -1.28225 0
M  V30 6271 C 633.537 2.05165 -1.13775 0
M  V30 6272 C 634.553 1.73879 -0.0649418 0
M  V30 6273 O 635.729 1.99531 -0.273722 0
M  V30 6274 C 632.794 3.37385 -0.798267 0
M  V30 6275 C 631.855 3.82296 -1.95316 0
M  V30 6276 C 631.088 5.08206 -1.62978 0
M  V30 6277 O 631.311 5.6781 -0.542948 0
M  V30 6278 O 630.245 5.48768 -2.47261 0
M  V30 6279 H 634.071 2.20273 -2.09078 0
M  V30 6280 H 631.656 1.0373 -1.07519 0
M  V30 6281 H 633.538 4.16773 -0.62278 0
M  V30 6282 H 632.213 3.23458 0.125139 0
M  V30 6283 H 631.12 3.03746 -2.18378 0
M  V30 6284 H 632.453 4.00782 -2.85718 0
M  V30 6285 N 634.105 1.10431 1.1244 0
M  V30 6286 C 635.068 0.756542 2.16354 0
M  V30 6287 C 636.068 -0.21899 1.59302 0
M  V30 6288 O 637.258 0.00415969 1.742 0
M  V30 6289 C 634.39 0.120612 3.40687 0
M  V30 6290 H 635.583 1.67696 2.48632 0
M  V30 6291 H 633.136 0.904832 1.27446 0
M  V30 6292 H 633.871 -0.810536 3.14008 0
M  V30 6293 H 633.656 0.822693 3.83372 0
M  V30 6294 H 635.146 -0.106945 4.17463 0
M  V30 6295 N 635.583 -1.29855 0.893053 0
M  V30 6296 C 636.829 -1.96116 0.516349 0
M  V30 6297 C 637.162 -1.70281 -0.933695 0
M  V30 6298 O 636.437 -1.01205 -1.66096 0
M  V30 6299 C 636.72 -3.51068 0.801455 0
M  V30 6300 C 636.573 -3.86387 2.30272 0
M  V30 6301 C 637.892 -4.39186 0.283423 0
M  V30 6302 H 635.011 -0.712335 0.189072 0
M  V30 6303 H 637.653 -1.53587 1.11852 0
M  V30 6304 H 635.803 -3.87424 0.288949 0
M  V30 6305 H 637.475 -3.60012 2.88425 0
M  V30 6306 H 635.718 -3.34167 2.76613 0
M  V30 6307 H 636.389 -4.94512 2.45279 0
M  V30 6308 H 638.865 -4.09785 0.722187 0
M  V30 6309 H 637.741 -5.46505 0.512169 0
M  V30 6310 H 638.002 -4.34511 -0.815643 0
M  V30 6311 N 637.061 -0.65484 -1.43351 0
M  V30 6312 C 638.338 -0.0987371 -1.95351 0
M  V30 6313 C 638.718 1.38161 -1.59608 0
M  V30 6314 O 638.066 2.10791 -0.882021 0
M  V30 6315 C 638.276 -0.346684 -3.47274 0
M  V30 6316 C 639.624 -0.25249 -4.23849 0
M  V30 6317 O 640.648 -0.279332 -3.55103 0
M  V30 6318 O 639.507 -0.177584 -5.46211 0
M  V30 6319 H 636.601 0.0086829 -0.826954 0
M  V30 6320 H 639.147 -0.728189 -1.53282 0
M  V30 6321 H 637.919 -1.37296 -3.66423 0
M  V30 6322 H 637.542 0.315757 -3.96344 0
M  V30 6323 N 638.539 1.52521 -0.396863 0
M  V30 6324 C 639.785 2.02641 0.175606 0
M  V30 6325 C 640.14 1.27782 1.43839 0
M  V30 6326 O 639.433 0.371921 1.87956 0
M  V30 6327 C 639.627 3.5403 0.489677 0
M  V30 6328 C 639.456 4.43551 -0.741113 0
M  V30 6329 C 638.226 4.8927 -1.26265 0
M  V30 6330 C 640.424 4.88263 -1.61565 0
M  V30 6331 N 638.406 5.62884 -2.4502 0
M  V30 6332 C 639.777 5.60534 -2.64955 0
M  V30 6333 C 641.832 4.70294 -1.63486 0
M  V30 6334 C 640.535 6.16744 -3.70162 0
M  V30 6335 C 642.561 5.27392 -2.67603 0
M  V30 6336 C 641.923 5.99575 -3.69715 0
M  V30 6337 H 638.022 0.781563 0.0261477 0
M  V30 6338 H 640.606 1.86816 -0.548454 0
M  V30 6339 H 638.777 3.69952 1.18279 0
M  V30 6340 H 640.509 3.90843 1.04996 0
M  V30 6341 H 637.264 4.66403 -0.822509 0
M  V30 6342 H 637.688 6.04339 -3.05128 0
M  V30 6343 H 642.33 4.13985 -0.858848 0
M  V30 6344 H 640.048 6.72131 -4.48626 0
M  V30 6345 H 643.634 5.15365 -2.69982 0
M  V30 6346 H 642.514 6.42967 -4.48958 0
M  V30 6347 N 640.017 0.126909 1.57088 0
M  V30 6348 C 641.428 -0.397201 1.82426 0
M  V30 6349 C 641.779 -1.66084 1.04453 0
M  V30 6350 O 640.904 -2.14534 0.283552 0
M  V30 6351 C 641.499 -0.727411 3.30899 0
M  V30 6352 C 640.058 -1.19612 3.56889 0
M  V30 6353 C 639.205 -0.20885 2.76512 0
M  V30 6354 H 642.156 0.351924 1.54749 0
M  V30 6355 H 642.177 -1.58407 3.45959 0
M  V30 6356 H 641.689 0.19247 3.87622 0
M  V30 6357 H 639.79 -2.13263 3.05532 0
M  V30 6358 H 639.903 -1.13598 4.65438 0
M  V30 6359 H 638.267 -0.697479 2.44964 0
M  V30 6360 H 639.05 0.704267 3.35998 0
M  V30 6361 N 641.495 -1.56914 -0.146875 0
M  V30 6362 C 642.405 -2.0154 -1.20079 0
M  V30 6363 C 643.421 -0.930838 -1.47008 0
M  V30 6364 O 644.597 -1.24032 -1.58676 0
M  V30 6365 C 641.662 -2.38715 -2.51428 0
M  V30 6366 C 640.723 -3.6112 -2.32145 0
M  V30 6367 C 639.956 -3.96512 -3.57231 0
M  V30 6368 O 640.179 -3.32566 -4.63418 0
M  V30 6369 O 639.113 -4.89758 -3.49887 0
M  V30 6370 H 642.939 -2.91506 -0.851924 0
M  V30 6371 H 640.524 -1.45106 -0.355607 0
M  V30 6372 H 642.406 -2.63485 -3.28867 0
M  V30 6373 H 641.081 -1.51903 -2.85845 0
M  V30 6374 H 639.988 -3.41536 -1.52656 0
M  V30 6375 H 641.321 -4.48549 -2.02644 0
M  V30 6376 N 642.974 0.416227 -1.52004 0
M  V30 6377 C 644.39 0.754319 -1.40649 0
M  V30 6378 C 644.59 1.95059 -0.505392 0
M  V30 6379 O 643.646 2.5248 0.0315057 0
M  V30 6380 C 644.959 1.0149 -2.83055 0
M  V30 6381 C 646.507 1.11805 -2.9235 0
M  V30 6382 C 646.982 1.41144 -4.35709 0
M  V30 6383 N 648.473 1.48024 -4.38911 0
M  V30 6384 C 649.208 1.72338 -5.46889 0
M  V30 6385 N 648.704 1.94303 -6.64995 0
M  V30 6386 N 650.497 1.74294 -5.34395 0
M  V30 6387 H 642.648 -0.371324 -2.09129 0
M  V30 6388 H 644.911 -0.103811 -0.942299 0
M  V30 6389 H 644.617 0.208345 -3.51082 0
M  V30 6390 H 644.491 1.93697 -3.23668 0
M  V30 6391 H 646.878 1.91521 -2.24508 0
M  V30 6392 H 646.959 0.17451 -2.55204 0
M  V30 6393 H 646.603 0.619484 -5.04108 0
M  V30 6394 H 646.533 2.36739 -4.70385 0
M  V30 6395 H 649.024 1.32868 -3.53772 0
M  V30 6396 H 649.337 2.12286 -7.43071 0
M  V30 6397 H 647.682 1.91582 -6.68073 0
M  V30 6398 H 650.873 1.56667 -4.41104 0
M  V30 6399 H 651.046 1.92904 -6.18621 0
M  V30 6400 N 644.452 1.42507 0.673017 0
M  V30 6401 C 645.863 1.38347 1.25367 0
M  V30 6402 C 646.214 0.0776327 1.96046 0
M  V30 6403 O 645.339 -0.823571 2.00116 0
M  V30 6404 C 645.934 2.506 2.28002 0
M  V30 6405 C 644.493 2.49767 2.81591 0
M  V30 6406 C 643.64 2.293 1.55938 0
M  V30 6407 H 646.591 1.51695 0.466288 0
M  V30 6408 H 646.612 2.20953 3.09774 0
M  V30 6409 H 646.124 3.45627 1.76532 0
M  V30 6410 H 644.225 1.58563 3.37177 0
M  V30 6411 H 644.338 3.46867 3.30485 0
M  V30 6412 H 642.702 1.77594 1.82572 0
M  V30 6413 H 643.485 3.26385 1.06431 0
M  V30 6414 N 645.93 -0.909495 1.28709 0
M  V30 6415 C 647.178 -1.65577 1.15882 0
M  V30 6416 C 647.499 -1.928 -0.292108 0
M  V30 6417 O 646.769 -1.54716 -1.20166 0
M  V30 6418 H 645.349 -0.613714 0.425869 0
M  V30 6419 H 648.011 -1.09108 1.61498 0
M  V30 6420 H 647.107 -2.61634 1.70159 0
M  V30 6421 N 647.408 -1.11026 -1.11852 0
M  V30 6422 C 648.824 -0.843294 -1.35502 0
M  V30 6423 C 649.024 0.534179 -1.9429 0
M  V30 6424 O 648.08 1.28585 -2.17307 0
M  V30 6425 C 649.393 -1.94793 -2.29077 0
M  V30 6426 C 650.941 -1.97709 -2.42652 0
M  V30 6427 C 651.416 -3.07364 -3.39546 0
M  V30 6428 N 652.907 -3.0671 -3.47107 0
M  V30 6429 C 653.642 -3.88197 -4.22008 0
M  V30 6430 N 653.138 -4.79635 -4.99922 0
M  V30 6431 N 654.931 -3.76391 -4.17476 0
M  V30 6432 H 647.082 -1.99805 -0.720538 0
M  V30 6433 H 649.345 -0.868633 -0.379711 0
M  V30 6434 H 649.051 -2.93971 -1.93065 0
M  V30 6435 H 648.925 -1.84039 -3.29256 0
M  V30 6436 H 651.312 -0.991604 -2.77941 0
M  V30 6437 H 651.393 -2.1254 -1.4234 0
M  V30 6438 H 651.037 -4.06136 -3.04985 0
M  V30 6439 H 650.967 -2.89774 -4.39703 0
M  V30 6440 H 653.458 -2.40457 -2.91528 0
M  V30 6441 H 653.771 -5.38357 -5.54429 0
M  V30 6442 H 652.116 -4.8366 -4.99097 0
M  V30 6443 H 655.307 -3.04303 -3.55693 0
M  V30 6444 H 655.48 -4.40131 -4.75593 0
M  V30 6445 N 648.886 1.2938 -0.899927 0
M  V30 6446 C 649.816 2.30144 -0.39446 0
M  V30 6447 C 650.797 1.61611 0.530639 0
M  V30 6448 O 651.982 1.89119 0.441319 0
M  V30 6449 C 649.112 3.45229 0.37868 0
M  V30 6450 C 648.066 4.25564 -0.456012 0
M  V30 6451 C 647.392 5.32848 0.444637 0
M  V30 6452 C 648.692 4.93651 -1.70605 0
M  V30 6453 H 650.386 2.72673 -1.23653 0
M  V30 6454 H 647.932 1.31086 -0.596034 0
M  V30 6455 H 649.885 4.14797 0.743037 0
M  V30 6456 H 648.609 3.01545 1.25453 0
M  V30 6457 H 647.268 3.57704 -0.802704 0
M  V30 6458 H 646.916 4.85408 1.31863 0
M  V30 6459 H 646.616 5.87497 -0.110154 0
M  V30 6460 H 648.14 6.05268 0.805182 0
M  V30 6461 H 649.554 5.55655 -1.41141 0
M  V30 6462 H 647.951 5.58233 -2.20217 0
M  V30 6463 H 649.021 4.18926 -2.4419 0
M  V30 6464 N 650.364 0.662433 1.43002 0
M  V30 6465 C 651.78 0.330835 1.56133 0
M  V30 6466 C 651.98 -1.16454 1.64441 0
M  V30 6467 O 651.036 -1.94964 1.60453 0
M  V30 6468 C 652.349 1.05029 2.81761 0
M  V30 6469 C 653.897 1.03142 2.95518 0
M  V30 6470 C 654.372 1.73196 4.2399 0
M  V30 6471 N 655.863 1.70004 4.30875 0
M  V30 6472 C 656.598 2.21074 5.29069 0
M  V30 6473 N 656.094 2.80473 6.33488 0
M  V30 6474 N 657.887 2.1152 5.20784 0
M  V30 6475 H 650.038 1.63272 1.35853 0
M  V30 6476 H 652.301 0.687149 0.653092 0
M  V30 6477 H 652.007 2.10542 2.81718 0
M  V30 6478 H 651.881 0.607664 3.72273 0
M  V30 6479 H 654.268 -0.0153339 2.95096 0
M  V30 6480 H 654.349 1.51282 2.0627 0
M  V30 6481 H 653.993 2.77833 4.25172 0
M  V30 6482 H 653.923 1.22515 5.1215 0
M  V30 6483 H 656.414 1.26667 3.56039 0
M  V30 6484 H 656.727 3.17094 7.04749 0
M  V30 6485 H 655.072 2.84538 6.34085 0
M  V30 6486 H 658.263 1.64814 4.38126 0
M  V30 6487 H 658.436 2.51629 5.97149 0
M  V30 6488 N 651.842 -1.52309 0.404946 0
M  V30 6489 C 653.258 -1.59503 0.0556255 0
M  V30 6490 C 653.458 -1.41805 -1.43156 0
M  V30 6491 O 652.514 -1.2429 -2.19792 0
M  V30 6492 C 653.827 -2.95687 0.546801 0
M  V30 6493 C 655.375 -3.08909 0.504413 0
M  V30 6494 C 655.85 -4.47566 0.97203 0
M  V30 6495 N 657.341 -4.53795 0.928679 0
M  V30 6496 C 658.076 -5.59346 1.26174 0
M  V30 6497 N 657.572 -6.72469 1.66604 0
M  V30 6498 N 659.365 -5.49532 1.18198 0
M  V30 6499 H 651.516 -1.6206 1.37296 0
M  V30 6500 H 653.779 -0.762161 0.563751 0
M  V30 6501 H 653.485 -3.13905 1.58609 0
M  V30 6502 H 653.359 -3.77172 -0.0457905 0
M  V30 6503 H 655.746 -2.90378 -0.525819 0
M  V30 6504 H 655.827 -2.2934 1.13301 0
M  V30 6505 H 655.471 -4.6684 2.00057 0
M  V30 6506 H 655.401 -5.25625 0.320292 0
M  V30 6507 H 657.892 -3.72588 0.631369 0
M  V30 6508 H 658.205 -7.48993 1.9034 0
M  V30 6509 H 656.55 -6.73761 1.70504 0
M  V30 6510 H 659.741 -4.60038 0.865011 0
M  V30 6511 H 659.914 -6.31687 1.44485 0
M  V30 6512 N 653.32 -0.135238 -1.57019 0
M  V30 6513 C 654.283 0.794707 -2.14981 0
M  V30 6514 C 655.283 1.18342 -1.08866 0
M  V30 6515 O 656.473 1.10627 -1.34563 0
M  V30 6516 C 653.605 2.07685 -2.70333 0
M  V30 6517 H 654.798 0.290696 -2.98488 0
M  V30 6518 H 652.351 0.114128 -1.55883 0
M  V30 6519 H 653.086 2.6248 -1.9046 0
M  V30 6520 H 652.871 1.80745 -3.47957 0
M  V30 6521 H 654.361 2.74127 -3.1503 0
M  V30 6522 N 654.798 1.5699 0.138552 0
M  V30 6523 C 656.046 1.83446 0.848053 0
M  V30 6524 C 656.367 0.71744 1.81322 0
M  V30 6525 O 655.637 -0.260228 1.94164 0
M  V30 6526 H 654.217 0.676792 0.316166 0
M  V30 6527 H 656.879 1.94462 0.130538 0
M  V30 6528 H 655.975 2.78677 1.40518 0
M  V30 6529 N 656.276 -0.40816 1.52223 0
M  V30 6530 C 657.522 -1.15673 1.66576 0
M  V30 6531 C 657.855 -1.90141 0.394996 0
M  V30 6532 O 657.13 -1.84798 -0.606613 0
M  V30 6533 C 657.413 -2.15042 2.88841 0
M  V30 6534 C 657.266 -1.44465 4.25969 0
M  V30 6535 C 658.585 -3.15699 3.0663 0
M  V30 6536 H 655.704 -0.41916 0.606196 0
M  V30 6537 H 658.346 -0.442348 1.84779 0
M  V30 6538 H 656.496 -2.75964 2.73452 0
M  V30 6539 H 658.168 -0.866544 4.53088 0
M  V30 6540 H 656.411 -0.746612 4.27327 0
M  V30 6541 H 657.082 -2.16976 5.07568 0
M  V30 6542 H 659.558 -2.64854 3.20923 0
M  V30 6543 H 658.434 -3.82491 3.9369 0
M  V30 6544 H 658.695 -3.83481 2.19987 0
M  V30 6545 N 657.755 -1.42862 -0.66545 0
M  V30 6546 C 658.98 -1.47456 -1.45848 0
M  V30 6547 C 659.405 -0.0900312 -1.87884 0
M  V30 6548 O 658.763 0.913587 -1.56599 0
M  V30 6549 C 658.811 -2.41514 -2.67774 0
M  V30 6550 O 657.915 -1.89296 -3.66389 0
M  V30 6551 H 657.256 -0.499236 -0.437789 0
M  V30 6552 H 659.786 -1.8765 -0.815394 0
M  V30 6553 H 659.796 -2.58409 -3.15735 0
M  V30 6554 H 658.471 -3.42099 -2.36519 0
M  V30 6555 H 657.048 -1.82003 -3.25468 0
M  V30 6556 N 659.233 0.902656 -1.29189 0
M  V30 6557 C 660.196 1.98797 -1.14071 0
M  V30 6558 C 661.196 1.60615 -0.0770549 0
M  V30 6559 O 662.386 1.71165 -0.323753 0
M  V30 6560 C 659.518 3.32688 -0.743739 0
M  V30 6561 H 660.711 2.13637 -2.10473 0
M  V30 6562 H 658.264 1.08678 -1.12334 0
M  V30 6563 H 658.999 3.23549 0.220554 0
M  V30 6564 H 658.784 3.61765 -1.51223 0
M  V30 6565 H 660.274 4.12337 -0.660935 0
M  V30 6566 N 660.711 1.11618 1.11262 0
M  V30 6567 C 661.958 0.86618 1.8304 0
M  V30 6568 C 662.286 -0.608149 1.84748 0
M  V30 6569 O 661.541 -1.46508 1.29745 0
M  V30 6570 C 661.84 1.37529 3.2988 0
M  V30 6571 C 661.506 2.86317 3.4833 0
M  V30 6572 C 660.168 3.26945 3.53073 0
M  V30 6573 C 662.52 3.82136 3.54431 0
M  V30 6574 C 659.848 4.62117 3.61475 0
M  V30 6575 C 662.2 5.17128 3.64365 0
M  V30 6576 C 660.864 5.57312 3.67369 0
M  V30 6577 H 660.134 0.316958 0.66979 0
M  V30 6578 H 662.781 1.3949 1.31205 0
M  V30 6579 H 661.086 0.766842 3.84222 0
M  V30 6580 H 662.783 1.15817 3.83911 0
M  V30 6581 H 659.373 2.53889 3.45309 0
M  V30 6582 H 663.557 3.51847 3.50025 0
M  V30 6583 H 658.813 4.92655 3.62079 0
M  V30 6584 H 662.987 5.91208 3.68029 0
M  V30 6585 H 660.614 6.62045 3.73632 0
M  V30 6586 N 662.189 -1.289 0.906776 0
M  V30 6587 C 663.437 -1.94883 0.535266 0
M  V30 6588 C 663.758 -1.71784 -0.922791 0
M  V30 6589 O 663.028 -1.05359 -1.65156 0
M  V30 6590 H 661.608 -0.721109 0.194962 0
M  V30 6591 H 664.27 -1.57018 1.15461 0
M  V30 6592 H 663.366 -3.03591 0.723821 0
M  V30 6593 N 663.667 -0.670007 -1.42649 0
M  V30 6594 C 664.913 -0.190568 -2.01903 0
M  V30 6595 C 665.246 1.19817 -1.52832 0
M  V30 6596 O 664.521 1.80342 -0.728485 0
M  V30 6597 C 664.804 -0.21991 -3.59428 0
M  V30 6598 C 664.657 -1.64376 -4.18689 0
M  V30 6599 C 665.976 0.434519 -4.3795 0
M  V30 6600 H 663.095 -0.0707219 -0.733599 0
M  V30 6601 H 665.737 -0.853883 -1.69732 0
M  V30 6602 H 663.887 0.344894 -3.86966 0
M  V30 6603 H 665.559 -2.26044 -4.02122 0
M  V30 6604 H 663.802 -2.18591 -3.747 0
M  V30 6605 H 664.473 -1.61601 -5.27815 0
M  V30 6606 H 666.949 -0.0462156 -4.16074 0
M  V30 6607 H 665.825 0.38333 -5.4756 0
M  V30 6608 H 666.086 1.51135 -4.15464 0
M  V30 6609 N 665.145 1.52092 -0.413018 0
M  V30 6610 C 666.393 2.01456 0.161178 0
M  V30 6611 C 666.714 1.30034 1.45314 0
M  V30 6612 O 665.984 0.427435 1.9118 0
M  V30 6613 H 664.564 0.744376 0.0625526 0
M  V30 6614 H 667.226 1.86974 -0.550151 0
M  V30 6615 H 666.322 3.1008 0.354517 0
M  V30 6616 N 666.623 0.143563 1.56945 0
M  V30 6617 C 667.871 -0.507402 1.95627 0
M  V30 6618 C 668.192 -1.65626 1.02922 0
M  V30 6619 O 667.462 -1.95693 0.0901136 0
M  V30 6620 H 666.042 -0.190436 0.722318 0
M  V30 6621 H 668.704 0.218257 1.93674 0
M  V30 6622 H 667.8 -0.885816 2.99265 0
M  V30 6623 N 668.101 -1.57061 -0.130224 0
M  V30 6624 C 669.329 -1.88432 -0.854456 0
M  V30 6625 C 669.744 -0.733608 -1.73964 0
M  V30 6626 O 669.101 0.296029 -1.80083 0
M  V30 6627 C 669.152 -3.1918 -1.69724 0
M  V30 6628 O 668.873 -4.2982 -0.847705 0
M  V30 6629 C 670.374 -3.6418 -2.5276 0
M  V30 6630 H 667.594 -0.624193 -0.246221 0
M  V30 6631 H 670.138 -2.04159 -0.11798 0
M  V30 6632 H 668.293 -3.05156 -2.3866 0
M  V30 6633 H 668.707 -5.04689 -1.42792 0
M  V30 6634 H 670.181 -4.58457 -3.07443 0
M  V30 6635 H 670.658 -2.90285 -3.29592 0
M  V30 6636 H 671.264 -3.80954 -1.89087 0
M  V30 6637 N 669.579 0.400081 -1.52437 0
M  V30 6638 C 670.527 1.50851 -1.7705 0
M  V30 6639 C 671.521 1.56928 -0.637969 0
M  V30 6640 O 672.727 1.60226 -0.820212 0
M  V30 6641 H 669.102 0.50186 -0.560036 0
M  V30 6642 H 671.073 1.27281 -2.69893 0
M  V30 6643 C 669.822 2.88117 -1.94638 0
M  V30 6644 H 669.145 2.84187 -2.81208 0
M  V30 6645 H 670.585 3.64942 -2.15855 0
M  V30 6646 C 669.044 3.29206 -0.715899 0
M  V30 6647 O 669.574 4.01544 0.111944 0
M  V30 6648 N 667.78 2.85363 -0.549191 0
M  V30 6649 H 667.327 2.26664 -1.22397 0
M  V30 6650 H 667.285 3.13214 0.27278 0
M  V30 6651 N 671.057 1.43213 0.657864 0
M  V30 6652 C 672.02 1.47687 1.75275 0
M  V30 6653 C 673.02 0.362179 1.56668 0
M  V30 6654 O 674.21 0.623734 1.62651 0
M  V30 6655 C 671.342 1.32497 3.14098 0
M  V30 6656 H 672.535 2.4519 1.7269 0
M  V30 6657 H 670.088 1.2991 0.869087 0
M  V30 6658 H 670.823 0.359831 3.22298 0
M  V30 6659 H 670.608 2.13299 3.29008 0
M  V30 6660 H 672.098 1.38549 3.93946 0
M  V30 6661 N 672.536 -0.895792 1.29666 0
M  V30 6662 C 673.486 -1.98736 1.1175 0
M  V30 6663 C 674.47 -1.6086 0.0357834 0
M  V30 6664 O 675.662 -1.75111 0.257926 0
M  V30 6665 C 672.791 -3.33845 0.800156 0
M  V30 6666 C 671.877 -3.78068 1.9216 0
M  V30 6667 N 672.268 -3.94489 3.16563 0
M  V30 6668 C 670.566 -4.07376 1.81552 0
M  V30 6669 C 671.267 -4.31819 3.89753 0
M  V30 6670 N 670.243 -4.41081 3.17724 0
M  V30 6671 H 674.045 -2.09507 2.06117 0
M  V30 6672 H 671.559 -1.08488 1.20848 0
M  V30 6673 H 673.556 -4.11757 0.652841 0
M  V30 6674 H 672.216 -3.24417 -0.135551 0
M  V30 6675 H 673.227 -3.79914 3.51974 0
M  V30 6676 H 669.904 -4.06483 0.952787 0
M  V30 6677 H 671.294 -4.52337 4.96831 0
M  V30 6678 N 674.014 -1.12206 -1.10668 0
M  V30 6679 C 675.26 -0.877172 -1.82848 0
M  V30 6680 C 675.593 0.595571 -1.84842 0
M  V30 6681 O 674.868 1.44013 -1.30731 0
M  V30 6682 C 675.151 -1.44957 -3.29635 0
M  V30 6683 C 675.004 -2.99051 -3.35989 0
M  V30 6684 C 676.323 -1.10714 -4.25946 0
M  V30 6685 H 673.442 -0.320103 -0.663854 0
M  V30 6686 H 676.084 -1.38827 -1.2972 0
M  V30 6687 H 674.234 -1.01488 -3.7501 0
M  V30 6688 H 675.906 -3.51182 -2.99113 0
M  V30 6689 H 674.149 -3.34705 -2.75962 0
M  V30 6690 H 674.82 -3.34194 -4.39339 0
M  V30 6691 H 677.296 -1.48254 -3.88793 0
M  V30 6692 H 676.172 -1.5343 -5.2702 0
M  V30 6693 H 676.433 -0.019 -4.42096 0
M  V30 6694 N 675.492 1.28418 -0.913599 0
M  V30 6695 C 676.738 1.9527 -0.547484 0
M  V30 6696 C 677.071 1.71745 0.906486 0
M  V30 6697 O 676.346 1.03834 1.64465 0
M  V30 6698 C 676.629 3.49748 -0.857205 0
M  V30 6699 C 676.482 3.82675 -2.3639 0
M  V30 6700 C 677.801 4.3868 -0.353258 0
M  V30 6701 H 674.92 0.709236 -0.200381 0
M  V30 6702 H 677.562 1.51789 -1.14281 0
M  V30 6703 H 675.712 3.86915 -0.350548 0
M  V30 6704 H 677.384 3.55378 -2.94116 0
M  V30 6705 H 675.627 3.29724 -2.81894 0
M  V30 6706 H 676.298 4.90547 -2.53115 0
M  V30 6707 H 678.774 4.08584 -0.787288 0
M  V30 6708 H 677.65 5.45621 -0.599049 0
M  V30 6709 H 677.911 4.35753 0.746413 0
M  V30 6710 N 676.97 0.677563 1.42291 0
M  V30 6711 C 677.9 0.014968 2.33495 0
M  V30 6712 C 678.881 -0.786376 1.50831 0
M  V30 6713 O 680.066 -0.742975 1.79426 0
M  V30 6714 C 677.196 -0.935023 3.34477 0
M  V30 6715 C 676.15 -0.242074 4.27315 0
M  V30 6716 C 675.476 -1.30519 5.18526 0
M  V30 6717 C 676.776 0.880604 5.14823 0
M  V30 6718 H 678.47 0.776671 2.89151 0
M  V30 6719 H 676.016 0.37494 1.39033 0
M  V30 6720 H 677.969 -1.40766 3.97194 0
M  V30 6721 H 676.693 -1.72818 2.77131 0
M  V30 6722 H 675.352 0.210351 3.65996 0
M  V30 6723 H 675 -2.09041 4.57505 0
M  V30 6724 H 674.7 -0.846652 5.81468 0
M  V30 6725 H 676.224 -1.7787 5.84119 0
M  V30 6726 H 677.638 0.489062 5.7121 0
M  V30 6727 H 676.035 1.26511 5.86613 0
M  V30 6728 H 677.105 1.72818 4.53059 0
M  V30 6729 N 678.448 -1.51871 0.421078 0
M  V30 6730 C 679.358 -2.31077 -0.405069 0
M  V30 6731 C 680.374 -1.39301 -1.04265 0
M  V30 6732 O 681.55 -1.72376 -1.04157 0
M  V30 6733 C 678.615 -3.12556 -1.50032 0
M  V30 6734 C 677.676 -4.20088 -0.884559 0
M  V30 6735 C 676.909 -4.97673 -1.92762 0
M  V30 6736 O 677.132 -4.75696 -3.14753 0
M  V30 6737 O 676.066 -5.82203 -1.52719 0
M  V30 6738 H 679.892 -3.02742 0.241086 0
M  V30 6739 H 677.477 -1.48263 0.183991 0
M  V30 6740 H 679.359 -3.6326 -2.13589 0
M  V30 6741 H 678.034 -2.43672 -2.13086 0
M  V30 6742 H 676.941 -3.73502 -0.211379 0
M  V30 6743 H 678.274 -4.91298 -0.297763 0
M  V30 6744 N 679.926 -0.151884 -1.56866 0
M  V30 6745 C 680.836 0.798876 -2.20579 0
M  V30 6746 C 681.852 1.268 -1.19154 0
M  V30 6747 O 683.028 1.32418 -1.51748 0
M  V30 6748 C 680.093 2.01861 -2.81874 0
M  V30 6749 C 679.154 1.59825 -3.9844 0
M  V30 6750 C 678.387 2.75984 -4.56802 0
M  V30 6751 O 678.61 3.92331 -4.14044 0
M  V30 6752 O 677.544 2.51175 -5.46987 0
M  V30 6753 H 681.37 0.2865 -3.02346 0
M  V30 6754 H 678.955 0.0753806 -1.4921 0
M  V30 6755 H 680.837 2.73235 -3.20813 0
M  V30 6756 H 679.512 2.52042 -2.03117 0
M  V30 6757 H 678.419 0.854601 -3.64208 0
M  V30 6758 H 679.752 1.14355 -4.78731 0
M  V30 6759 N 681.404 1.57128 0.121893 0
M  V30 6760 C 682.367 1.99197 1.13372 0
M  V30 6761 C 683.367 0.881728 1.3447 0
M  V30 6762 O 684.557 1.14783 1.31036 0
M  V30 6763 C 681.689 2.32963 2.4888 0
M  V30 6764 H 682.882 2.89788 0.772204 0
M  V30 6765 H 680.435 1.51952 0.366093 0
M  V30 6766 H 681.17 1.45243 2.89957 0
M  V30 6767 H 680.955 3.13934 2.34921 0
M  V30 6768 H 682.445 2.66261 3.21706 0
M  V30 6769 N 682.882 -0.391992 1.52647 0
M  V30 6770 C 684.293 -0.970064 1.5952 0
M  V30 6771 C 684.644 -1.91059 0.446207 0
M  V30 6772 O 683.769 -2.12062 -0.431125 0
M  V30 6773 C 684.364 -1.76614 2.89125 0
M  V30 6774 C 682.923 -2.29396 2.9842 0
M  V30 6775 C 682.07 -1.09864 2.54608 0
M  V30 6776 H 685.021 -0.171638 1.57769 0
M  V30 6777 H 685.042 -2.62511 2.75442 0
M  V30 6778 H 684.554 -1.08135 3.72731 0
M  V30 6779 H 682.655 -3.01196 2.19344 0
M  V30 6780 H 682.768 -2.59088 4.03002 0
M  V30 6781 H 681.132 -1.45777 2.08857 0
M  V30 6782 H 681.915 -0.429249 3.40606 0
M  V30 6783 N 684.36 -1.4356 -0.65026 0
M  V30 6784 C 685.323 -1.48615 -1.74489 0
M  V30 6785 C 686.323 -0.370483 -1.56474 0
M  V30 6786 O 687.513 -0.632351 -1.62317 0
M  V30 6787 C 684.645 -1.34161 -3.13391 0
M  V30 6788 H 685.838 -2.46103 -1.71387 0
M  V30 6789 H 683.391 -1.30369 -0.862186 0
M  V30 6790 H 684.126 -0.376918 -3.22102 0
M  V30 6791 H 683.911 -2.1504 -3.27872 0
M  V30 6792 H 685.401 -1.40637 -3.93206 0
M  V30 6793 N 685.838 0.888903 -1.30139 0
M  V30 6794 C 687.084 1.6428 -1.18912 0
M  V30 6795 C 687.417 1.92499 0.256477 0
M  V30 6796 O 686.692 1.54312 1.18397 0
M  V30 6797 C 686.975 2.9851 -2.01405 0
M  V30 6798 C 686.828 2.77288 -3.54163 0
M  V30 6799 C 688.147 3.99383 -1.84882 0
M  V30 6800 H 685.266 0.596148 -0.433333 0
M  V30 6801 H 687.908 1.0289 -1.5973 0
M  V30 6802 H 686.058 3.50907 -1.66722 0
M  V30 6803 H 687.73 2.31709 -3.98884 0
M  V30 6804 H 685.973 2.11867 -3.78543 0
M  V30 6805 H 686.644 3.72717 -4.07168 0
M  V30 6806 H 689.12 3.56132 -2.15196 0
M  V30 6807 H 687.996 4.91222 -2.44934 0
M  V30 6808 H 688.257 4.34674 -0.806902 0
M  V30 6809 N 687.317 1.12792 1.10072 0
M  V30 6810 C 688.227 0.812369 2.20086 0
M  V30 6811 C 689.243 -0.200349 1.72843 0
M  V30 6812 O 690.419 -0.0330262 2.01373 0
M  V30 6813 C 687.484 0.275685 3.45602 0
M  V30 6814 C 686.545 1.34881 4.07561 0
M  V30 6815 C 685.778 0.837639 5.27086 0
M  V30 6816 O 686.001 -0.327224 5.69461 0
M  V30 6817 O 684.935 1.60894 5.79997 0
M  V30 6818 H 688.761 1.73133 2.49517 0
M  V30 6819 H 686.346 0.904863 1.18881 0
M  V30 6820 H 688.228 -0.0185375 4.21396 0
M  V30 6821 H 686.903 -0.615783 3.17789 0
M  V30 6822 H 685.81 1.69625 3.33434 0
M  V30 6823 H 687.143 2.21418 4.39585 0
M  V30 6824 N 688.795 -1.27931 0.920396 0
M  V30 6825 C 689.705 -2.30824 0.419212 0
M  V30 6826 C 690.721 -1.66767 -0.496461 0
M  V30 6827 O 691.897 -1.97763 -0.38104 0
M  V30 6828 C 688.962 -3.45158 -0.326601 0
M  V30 6829 C 688.023 -4.24754 0.623098 0
M  V30 6830 C 687.256 -5.33629 -0.0872172 0
M  V30 6831 O 687.479 -5.55204 -1.30784 0
M  V30 6832 O 686.413 -5.99091 0.580875 0
M  V30 6833 H 690.239 -2.75716 1.27337 0
M  V30 6834 H 687.824 -1.32747 0.685465 0
M  V30 6835 H 689.706 -4.14716 -0.747559 0
M  V30 6836 H 688.381 -3.02336 -1.15648 0
M  V30 6837 H 687.288 -3.57759 1.09359 0
M  V30 6838 H 688.621 -4.71272 1.41998 0
M  V30 6839 N 690.273 -0.685099 -1.4193 0
M  V30 6840 C 691.498 -0.218842 -2.06242 0
M  V30 6841 C 691.923 1.11923 -1.51178 0
M  V30 6842 O 691.281 1.69837 -0.634446 0
M  V30 6843 C 691.329 -0.175592 -3.60172 0
M  V30 6844 O 690.433 0.852776 -4.03487 0
M  V30 6845 H 689.774 -0.109531 -0.654904 0
M  V30 6846 H 692.304 -0.937013 -1.81882 0
M  V30 6847 H 692.314 -0.00291151 -4.08 0
M  V30 6848 H 690.989 -1.15222 -3.99621 0
M  V30 6849 H 689.566 0.650301 -3.67186 0
M  V30 6850 N 691.751 1.51645 -0.429126 0
M  V30 6851 C 693.162 1.86665 0.0359003 0
M  V30 6852 C 693.513 1.34677 1.42676 0
M  V30 6853 O 692.638 0.694195 2.04963 0
M  V30 6854 C 693.233 3.38724 0.0719221 0
M  V30 6855 C 691.792 3.7331 0.481336 0
M  V30 6856 C 690.939 2.75313 -0.331329 0
M  V30 6857 H 693.89 1.44987 -0.645333 0
M  V30 6858 H 693.911 3.7011 0.883118 0
M  V30 6859 H 693.423 3.76532 -0.940495 0
M  V30 6860 H 691.524 3.41088 1.49966 0
M  V30 6861 H 691.637 4.78631 0.211837 0
M  V30 6862 H 690.001 2.53839 0.209204 0
M  V30 6863 H 690.784 3.15963 -1.34247 0
M  V30 6864 N 693.229 0.160201 1.56784 0
M  V30 6865 C 694.192 -0.760405 2.16219 0
M  V30 6866 C 695.192 -1.16595 1.10735 0
M  V30 6867 O 696.382 -1.08472 1.36306 0
M  V30 6868 C 693.514 -2.03358 2.73603 0
M  V30 6869 H 694.707 -0.243173 2.98912 0
M  V30 6870 H 692.26 -0.0893139 1.56045 0
M  V30 6871 H 692.995 -2.59416 1.94612 0
M  V30 6872 H 692.78 -1.75186 3.50788 0
M  V30 6873 H 694.27 -2.69081 3.19351 0
M  V30 6874 N 694.707 -1.5719 -0.113559 0
M  V30 6875 C 695.953 -1.85412 -0.821597 0
M  V30 6876 C 696.286 -0.746722 -1.7927 0
M  V30 6877 O 695.561 0.246971 -1.92926 0
M  V30 6878 C 695.844 -3.24233 -1.56669 0
M  V30 6879 C 695.697 -4.45578 -0.614823 0
M  V30 6880 C 697.016 -3.60697 -2.52161 0
M  V30 6881 H 694.135 -0.674406 -0.29723 0
M  V30 6882 H 696.777 -1.89807 -0.085694 0
M  V30 6883 H 694.927 -3.20617 -2.19401 0
M  V30 6884 H 696.599 -4.613 0.00407137 0
M  V30 6885 H 694.842 -4.33738 0.0732332 0
M  V30 6886 H 695.513 -5.39395 -1.17292 0
M  V30 6887 H 697.989 -3.65139 -1.99532 0
M  V30 6888 H 696.865 -4.58798 -3.01323 0
M  V30 6889 H 697.126 -2.88403 -3.35076 0
M  V30 6890 N 696.185 0.383891 -1.52853 0
M  V30 6891 C 697.095 1.49343 -1.80925 0
M  V30 6892 C 698.111 1.59458 -0.696348 0
M  V30 6893 O 699.287 1.75698 -0.984481 0
M  V30 6894 C 696.352 2.84819 -1.97684 0
M  V30 6895 C 695.413 2.84382 -3.21598 0
M  V30 6896 C 694.646 4.13397 -3.37548 0
M  V30 6897 O 694.869 5.08619 -2.58192 0
M  V30 6898 O 693.803 4.20325 -4.30826 0
M  V30 6899 H 697.629 1.2855 -2.75152 0
M  V30 6900 H 695.214 0.572229 -1.38007 0
M  V30 6901 H 697.096 3.65125 -2.10385 0
M  V30 6902 H 695.771 3.05627 -1.06647 0
M  V30 6903 H 694.678 2.0284 -3.14336 0
M  V30 6904 H 696.011 2.68526 -4.12498 0
M  V30 6905 N 697.663 1.43903 0.642637 0
M  V30 6906 C 699.074 1.40975 1.22404 0
M  V30 6907 C 699.425 0.1192 1.95838 0
M  V30 6908 O 698.55 -0.780939 2.01818 0
M  V30 6909 C 699.145 2.5538 2.22636 0
M  V30 6910 C 697.704 2.55684 2.76229 0
M  V30 6911 C 696.851 2.32556 1.51039 0
M  V30 6912 H 699.802 1.5265 0.434006 0
M  V30 6913 H 699.823 2.27474 3.05017 0
M  V30 6914 H 699.335 3.49294 1.69161 0
M  V30 6915 H 697.436 1.65679 3.33738 0
M  V30 6916 H 697.549 3.53799 3.23053 0
M  V30 6917 H 695.913 1.81427 1.78764 0
M  V30 6918 H 696.696 3.28569 0.99484 0
M  V30 6919 N 699.141 -0.881989 1.30609 0
M  V30 6920 C 700.552 -1.44956 1.17664 0
M  V30 6921 C 700.903 -1.94945 -0.221531 0
M  V30 6922 O 700.028 -1.85257 -1.11844 0
M  V30 6923 C 700.623 -2.63474 2.12995 0
M  V30 6924 C 699.182 -3.16312 2.04019 0
M  V30 6925 C 698.329 -1.89008 2.02907 0
M  V30 6926 H 701.28 -0.691645 1.42835 0
M  V30 6927 H 701.301 -3.39783 1.71253 0
M  V30 6928 H 700.813 -2.2706 3.14746 0
M  V30 6929 H 698.914 -3.57376 1.0542 0
M  V30 6930 H 699.027 -3.79409 2.9255 0
M  V30 6931 H 697.391 -2.07465 1.47751 0
M  V30 6932 H 698.174 -1.54848 3.06394 0
M  V30 6933 N 700.619 -1.13374 -1.09472 0
M  V30 6934 C 701.582 -0.813639 -2.14272 0
M  V30 6935 C 702.582 0.176677 -1.59826 0
M  V30 6936 O 703.772 -0.0503441 -1.74127 0
M  V30 6937 C 700.904 -0.210897 -3.40247 0
M  V30 6938 H 702.097 -1.74229 -2.44099 0
M  V30 6939 H 699.65 -0.938304 -1.25002 0
M  V30 6940 H 700.385 0.726998 -3.16046 0
M  V30 6941 H 700.17 -0.924048 -3.81056 0
M  V30 6942 H 701.66 -0.00377603 -4.176 0
M  V30 6943 N 702.098 1.27442 -0.927168 0
M  V30 6944 C 703.346 1.94007 -0.566203 0
M  V30 6945 C 703.667 1.7323 0.895345 0
M  V30 6946 O 702.937 1.07973 1.63459 0
M  V30 6947 H 701.517 0.717917 -0.206409 0
M  V30 6948 H 704.179 1.55161 -1.17945 0
M  V30 6949 H 703.275 3.02401 -0.772028 0
M  V30 6950 N 703.576 0.692616 1.41565 0
M  V30 6951 C 704.824 0.221896 2.00878 0
M  V30 6952 C 705.145 -1.18164 1.5512 0
M  V30 6953 O 704.415 -1.79679 0.78054 0
M  V30 6954 H 702.995 0.0790463 0.742806 0
M  V30 6955 H 705.657 0.893115 1.73232 0
M  V30 6956 H 704.753 0.23702 3.11199 0
M  V30 6957 N 705.054 -1.51416 0.437162 0
M  V30 6958 C 706.302 -2.01687 -0.129108 0
M  V30 6959 C 706.623 -1.32329 -1.43227 0
M  V30 6960 O 705.893 -0.457796 -1.90476 0
M  V30 6961 H 704.473 -0.745277 -0.0507023 0
M  V30 6962 H 707.135 -1.86075 0.579828 0
M  V30 6963 H 706.231 -3.10605 -0.305141 0
M  V30 6964 N 706.532 -0.168513 -1.56696 0
M  V30 6965 C 707.778 0.477865 -1.9709 0
M  V30 6966 C 708.111 1.63084 -1.05438 0
M  V30 6967 O 707.386 1.94238 -0.10095 0
M  V30 6968 C 707.669 0.963521 -3.4697 0
M  V30 6969 C 707.522 -0.189443 -4.49401 0
M  V30 6970 C 708.841 1.83813 -3.99876 0
M  V30 6971 H 705.96 0.172229 -0.716593 0
M  V30 6972 H 708.602 -0.254083 -1.88293 0
M  V30 6973 H 706.752 1.58724 -3.54597 0
M  V30 6974 H 708.424 -0.826451 -4.53836 0
M  V30 6975 H 706.667 -0.845366 -4.25483 0
M  V30 6976 H 707.338 0.192446 -5.51664 0
M  V30 6977 H 709.814 1.31235 -3.94863 0
M  V30 6978 H 708.69 2.14697 -5.0517 0
M  V30 6979 H 708.951 2.78289 -3.43523 0
M  V30 6980 N 708.01 1.57248 0.105221 0
M  V30 6981 C 709.256 1.85845 0.811753 0
M  V30 6982 C 709.589 0.756219 1.78871 0
M  V30 6983 O 708.864 -0.236736 1.93054 0
M  V30 6984 C 709.147 3.25059 1.54947 0
M  V30 6985 C 709 4.45898 0.591185 0
M  V30 6986 C 710.319 3.6203 2.50245 0
M  V30 6987 H 707.438 0.675973 0.293649 0
M  V30 6988 H 710.08 1.89849 0.0756269 0
M  V30 6989 H 708.23 3.21776 2.17698 0
M  V30 6990 H 709.902 4.61291 -0.0285352 0
M  V30 6991 H 708.145 4.33693 -0.0962343 0
M  V30 6992 H 708.816 5.40009 1.1443 0
M  V30 6993 H 711.292 3.66192 1.97593 0
M  V30 6994 H 710.168 4.60389 2.98886 0
M  V30 6995 H 710.429 2.90176 3.33542 0
M  V30 6996 N 709.488 -0.375779 1.53054 0
M  V30 6997 C 710.899 -0.95309 1.6054 0
M  V30 6998 C 711.25 -1.90575 0.466446 0
M  V30 6999 O 710.375 -2.12507 -0.408609 0
M  V30 7000 C 710.97 -1.73537 2.90982 0
M  V30 7001 C 709.529 -2.26218 3.00836 0
M  V30 7002 C 708.676 -1.07157 2.55759 0
M  V30 7003 H 711.627 -0.154895 1.57942 0
M  V30 7004 H 711.648 -2.59574 2.78211 0
M  V30 7005 H 711.16 -1.04176 3.73857 0
M  V30 7006 H 709.261 -2.98852 2.22527 0
M  V30 7007 H 709.374 -2.54799 4.05727 0
M  V30 7008 H 707.738 -1.43553 2.10391 0
M  V30 7009 H 708.521 -0.393099 3.41042 0
M  V30 7010 N 710.966 -1.44241 -0.634997 0
M  V30 7011 C 712.212 -1.48033 -1.39492 0
M  V30 7012 C 712.567 -0.109791 -1.92086 0
M  V30 7013 O 711.86 0.874394 -1.70484 0
M  V30 7014 C 712.054 -2.47279 -2.58046 0
M  V30 7015 C 711.883 -3.93848 -2.17057 0
M  V30 7016 C 710.653 -4.62061 -2.04518 0
M  V30 7017 C 712.851 -4.83172 -1.76208 0
M  V30 7018 N 710.833 -5.93471 -1.57051 0
M  V30 7019 C 712.204 -6.03996 -1.39958 0
M  V30 7020 C 714.259 -4.70271 -1.63554 0
M  V30 7021 C 712.962 -7.13351 -0.923196 0
M  V30 7022 C 714.988 -5.79646 -1.1732 0
M  V30 7023 C 714.35 -6.99609 -0.820181 0
M  V30 7024 H 710.449 -0.596743 -0.505392 0
M  V30 7025 H 713.033 -1.80542 -0.72887 0
M  V30 7026 H 711.204 -2.16766 -3.22284 0
M  V30 7027 H 712.936 -2.41391 -3.24827 0
M  V30 7028 H 709.691 -4.1682 -2.24851 0
M  V30 7029 H 710.115 -6.63275 -1.35628 0
M  V30 7030 H 714.757 -3.77964 -1.8948 0
M  V30 7031 H 712.475 -8.0547 -0.651441 0
M  V30 7032 H 716.061 -5.71689 -1.07993 0
M  V30 7033 H 714.941 -7.82803 -0.467901 0
M  V30 7034 N 712.444 0.87505 -1.31075 0
M  V30 7035 C 713.855 1.4433 -1.18431 0
M  V30 7036 C 714.206 1.9506 0.211189 0
M  V30 7037 O 713.331 1.85847 1.10859 0
M  V30 7038 C 713.926 2.62341 -2.14389 0
M  V30 7039 C 712.485 3.15225 -2.05694 0
M  V30 7040 C 711.632 1.87929 -2.03907 0
M  V30 7041 H 714.583 0.684061 -1.432 0
M  V30 7042 H 714.604 3.3887 -1.73053 0
M  V30 7043 H 714.116 2.25388 -3.15946 0
M  V30 7044 H 712.217 3.56812 -1.07314 0
M  V30 7045 H 712.33 3.77853 -2.94558 0
M  V30 7046 H 710.694 2.06679 -1.48849 0
M  V30 7047 H 711.477 1.53221 -3.07211 0
M  V30 7048 N 713.922 1.13953 1.08869 0
M  V30 7049 C 715.168 0.906151 1.8143 0
M  V30 7050 C 715.501 -0.566089 1.85766 0
M  V30 7051 O 714.776 -1.41915 1.33006 0
M  V30 7052 C 715.059 1.50183 3.27287 0
M  V30 7053 C 714.912 3.04359 3.31189 0
M  V30 7054 C 716.231 1.17477 4.24131 0
M  V30 7055 H 713.35 0.330624 0.658678 0
M  V30 7056 H 715.992 1.40873 1.27495 0
M  V30 7057 H 714.142 1.07442 3.73348 0
M  V30 7058 H 715.814 3.55896 2.93488 0
M  V30 7059 H 714.057 3.39053 2.70602 0
M  V30 7060 H 714.728 3.41141 4.33966 0
M  V30 7061 H 717.204 1.5442 3.86385 0
M  V30 7062 H 716.08 1.61795 5.24513 0
M  V30 7063 H 716.341 0.0893312 4.4201 0
M  V30 7064 N 715.4 -1.26948 0.933913 0
M  V30 7065 C 716.625 -1.98724 0.593589 0
M  V30 7066 C 717.05 -1.6915 -0.822801 0
M  V30 7067 O 716.408 -0.93533 -1.5531 0
M  V30 7068 C 716.456 -3.50834 0.833542 0
M  V30 7069 O 715.56 -4.12284 -0.0978788 0
M  V30 7070 H 714.901 -0.623683 0.227849 0
M  V30 7071 H 717.431 -1.61599 1.25486 0
M  V30 7072 H 717.441 -4.01018 0.75156 0
M  V30 7073 H 716.116 -3.71691 1.86597 0
M  V30 7074 H 714.693 -3.72884 0.0345443 0
M  V30 7075 N 716.879 -0.700114 -1.41195 0
M  V30 7076 C 717.842 -0.0465706 -2.29153 0
M  V30 7077 C 718.842 0.703302 -1.44604 0
M  V30 7078 O 720.032 0.537513 -1.657 0
M  V30 7079 C 717.164 0.944324 -3.2756 0
M  V30 7080 H 718.357 -0.821064 -2.88442 0
M  V30 7081 H 715.91 -0.463869 -1.49258 0
M  V30 7082 H 716.645 1.74642 -2.73259 0
M  V30 7083 H 716.43 0.409701 -3.89954 0
M  V30 7084 H 717.92 1.39925 -3.9346 0
M  V30 7085 N 718.357 1.51182 -0.445186 0
M  V30 7086 C 719.304 2.27939 0.362291 0
M  V30 7087 C 720.274 1.31864 1.01 0
M  V30 7088 O 721.459 1.60776 1.02741 0
M  V30 7089 C 718.599 3.13016 1.45311 0
M  V30 7090 C 717.712 4.24093 0.822757 0
M  V30 7091 C 716.847 4.96467 1.88928 0
M  V30 7092 C 715.886 5.99454 1.23778 0
M  V30 7093 N 715.023 6.65206 2.24602 0
M  V30 7094 H 719.863 2.965 -0.29862 0
M  V30 7095 H 717.4 1.46237 -0.15911 0
M  V30 7096 H 719.358 3.60673 2.09692 0
M  V30 7097 H 717.988 2.46553 2.08354 0
M  V30 7098 H 717.04 3.80341 0.0670364 0
M  V30 7099 H 718.352 4.97853 0.307184 0
M  V30 7100 H 717.506 5.47712 2.60953 0
M  V30 7101 H 716.245 4.22355 2.4386 0
M  V30 7102 H 715.25 5.47494 0.503042 0
M  V30 7103 H 716.475 6.75527 0.695694 0
M  V30 7104 H 714.421 5.93901 2.78599 0
M  V30 7105 H 714.338 7.34756 1.77958 0
M  V30 7106 H 715.606 7.21078 2.96085 0
M  V30 7107 N 719.835 0.176821 1.56605 0
M  V30 7108 C 721.063 -0.472828 2.01425 0
M  V30 7109 C 721.478 -1.56436 1.05703 0
M  V30 7110 O 720.835 -1.82405 0.058808 0
M  V30 7111 C 720.886 -1.04607 3.46034 0
M  V30 7112 O 720.607 0.00189608 4.381 0
M  V30 7113 C 722.108 -1.7734 4.06282 0
M  V30 7114 H 719.328 -0.120503 0.660091 0
M  V30 7115 H 721.872 0.280166 2.02572 0
M  V30 7116 H 720.027 -1.74953 3.45645 0
M  V30 7117 H 720.441 -0.422118 5.22799 0
M  V30 7118 H 721.915 -2.12703 5.09374 0
M  V30 7119 H 722.392 -2.67043 3.4869 0
M  V30 7120 H 722.998 -1.11623 4.10391 0
M  V30 7121 N 721.313 -1.57302 -0.09688 0
M  V30 7122 C 722.538 -1.9058 -0.818169 0
M  V30 7123 C 722.963 -0.770921 -1.71576 0
M  V30 7124 O 722.321 0.277588 -1.79162 0
M  V30 7125 C 722.369 -3.22714 -1.60898 0
M  V30 7126 O 721.473 -3.10178 -2.71779 0
M  V30 7127 H 720.814 -0.624759 -0.224882 0
M  V30 7128 H 723.344 -2.04471 -0.07264 0
M  V30 7129 H 723.354 -3.55978 -1.99358 0
M  V30 7130 H 722.029 -4.04899 -0.950227 0
M  V30 7131 H 720.606 -2.88424 -2.3636 0
M  V30 7132 N 722.791 0.367657 -1.53252 0
M  V30 7133 C 723.754 1.43308 -1.78873 0
M  V30 7134 C 724.754 1.46671 -0.659115 0
M  V30 7135 O 725.944 1.47468 -0.927306 0
M  V30 7136 C 723.076 2.82442 -1.90892 0
M  V30 7137 H 724.269 1.21864 -2.74024 0
M  V30 7138 H 721.822 0.600668 -1.44297 0
M  V30 7139 H 722.557 3.09202 -0.978 0
M  V30 7140 H 722.342 2.81399 -2.73051 0
M  V30 7141 H 723.832 3.59601 -2.12314 0
M  V30 7142 N 724.269 1.44576 0.627338 0
M  V30 7143 C 725.232 1.51372 1.72102 0
M  V30 7144 C 726.232 0.395329 1.55865 0
M  V30 7145 O 727.422 0.658094 1.61291 0
M  V30 7146 C 724.554 1.39129 3.11217 0
M  V30 7147 H 725.747 2.48798 1.6745 0
M  V30 7148 H 723.3 1.31724 0.841336 0
M  V30 7149 H 724.035 0.428114 3.21462 0
M  V30 7150 H 723.82 2.20229 3.24409 0
M  V30 7151 H 725.31 1.46874 3.90919 0
M  V30 7152 N 725.747 -0.868086 1.31537 0
M  V30 7153 C 726.677 -1.99131 1.21939 0
M  V30 7154 C 727.658 -1.69768 0.106166 0
M  V30 7155 O 728.843 -1.92006 0.291081 0
M  V30 7156 C 725.973 -3.34676 0.927879 0
M  V30 7157 C 724.927 -3.7835 2.00088 0
M  V30 7158 C 724.253 -5.11375 1.56203 0
M  V30 7159 C 725.553 -3.95256 3.41424 0
M  V30 7160 H 727.247 -2.07419 2.15911 0
M  V30 7161 H 724.793 -0.996569 1.03945 0
M  V30 7162 H 726.746 -4.12793 0.847327 0
M  V30 7163 H 725.47 -3.26565 -0.0475042 0
M  V30 7164 H 724.129 -3.02474 2.07135 0
M  V30 7165 H 723.777 -4.99709 0.57445 0
M  V30 7166 H 723.477 -5.41568 2.27985 0
M  V30 7167 H 725.001 -5.92001 1.49558 0
M  V30 7168 H 726.415 -4.63764 3.3704 0
M  V30 7169 H 724.812 -4.36849 4.1144 0
M  V30 7170 H 725.882 -2.98579 3.82072 0
M  V30 7171 N 727.225 -1.14528 -1.08264 0
M  V30 7172 C 728.502 -0.825185 -1.77342 0
M  V30 7173 C 728.882 0.681037 -1.99813 0
M  V30 7174 O 728.23 1.62234 -1.60912 0
M  V30 7175 C 728.44 -1.62556 -3.08831 0
M  V30 7176 C 729.788 -1.82585 -3.83338 0
M  V30 7177 O 730.812 -1.59254 -3.18617 0
M  V30 7178 O 729.671 -2.21598 -4.99556 0
M  V30 7179 H 726.765 -0.302531 -0.769678 0
M  V30 7180 H 729.311 -1.25056 -1.14713 0
M  V30 7181 H 728.083 -2.64862 -2.88035 0
M  V30 7182 H 727.706 -1.1959 -3.79189 0
M  V30 7183 N 728.703 1.26451 -0.940633 0
M  V30 7184 C 729.666 2.24651 -0.454378 0
M  V30 7185 C 730.666 1.54826 0.434222 0
M  V30 7186 O 731.856 1.72628 0.233477 0
M  V30 7187 C 728.988 3.39148 0.345192 0
M  V30 7188 H 730.181 2.69182 -1.32217 0
M  V30 7189 H 727.734 1.38596 -0.722547 0
M  V30 7190 H 728.469 3.00018 1.23125 0
M  V30 7191 H 728.254 3.9101 -0.292107 0
M  V30 7192 H 729.744 4.12103 0.675341 0
M  V30 7193 N 730.181 0.707592 1.40822 0
M  V30 7194 C 731.113 0.0105968 2.29198 0
M  V30 7195 C 732.126 -0.732035 1.45414 0
M  V30 7196 O 733.315 -0.580741 1.68789 0
M  V30 7197 C 730.415 -1.00921 3.23525 0
M  V30 7198 C 729.588 -0.333747 4.36125 0
M  V30 7199 C 728.647 -1.25783 5.10945 0
M  V30 7200 O 727.673 -0.745646 5.64295 0
M  V30 7201 N 728.875 -2.58947 5.19545 0
M  V30 7202 H 731.64 0.76938 2.89656 0
M  V30 7203 H 729.201 0.554579 1.52105 0
M  V30 7204 H 731.193 -1.6294 3.70449 0
M  V30 7205 H 729.763 -1.66942 2.6429 0
M  V30 7206 H 728.983 0.466518 3.9143 0
M  V30 7207 H 730.271 0.135444 5.0862 0
M  V30 7208 H 729.669 -3.03065 4.7767 0
M  V30 7209 H 728.226 -3.16131 5.70004 0
M  V30 7210 N 731.66 -1.50943 0.453197 0
M  V30 7211 C 732.909 -2.01402 -0.10951 0
M  V30 7212 C 733.222 -1.3411 -1.42386 0
M  V30 7213 O 734.428 -1.75626 -2.07045 0
M  V30 7214 C 732.884 -3.5906 -0.245693 0
M  V30 7215 C 732.492 -4.353 1.05916 0
M  V30 7216 C 734.236 -4.17617 -0.761318 0
M  V30 7217 C 732.143 -5.84699 0.887752 0
M  V30 7218 H 731.073 -0.752674 -0.0447013 0
M  V30 7219 H 733.724 -1.73913 0.585375 0
M  V30 7220 H 732.106 -3.83062 -1.00395 0
M  V30 7221 H 733.28 -4.23034 1.82698 0
M  V30 7222 H 731.595 -3.88269 1.50452 0
M  V30 7223 H 734.192 -5.26963 -0.906306 0
M  V30 7224 H 734.535 -3.77824 -1.74799 0
M  V30 7225 H 735.068 -3.97753 -0.0609416 0
M  V30 7226 H 731.807 -6.28933 1.84726 0
M  V30 7227 H 731.327 -5.99587 0.160006 0
M  V30 7228 H 733.006 -6.44682 0.547223 0
M  V30 7229 N 733.138 -0.185124 -1.56509 0
M  V30 7230 C 734.386 0.455357 -1.96903 0
M  V30 7231 C 734.707 1.62839 -1.07277 0
M  V30 7232 O 733.977 1.95385 -0.141966 0
M  V30 7233 H 732.557 0.171218 -0.727113 0
M  V30 7234 H 735.219 -0.26953 -1.93027 0
M  V30 7235 H 734.315 0.80616 -3.01509 0
M  V30 7236 N 734.616 1.57351 0.0885366 0
M  V30 7237 C 735.548 1.99221 1.13329 0
M  V30 7238 C 736.561 0.895705 1.35945 0
M  V30 7239 O 737.75 1.17376 1.34481 0
M  V30 7240 C 734.85 2.3016 2.48756 0
M  V30 7241 C 734.023 3.61444 2.46327 0
M  V30 7242 C 733.082 3.80244 3.63732 0
M  V30 7243 O 732.108 4.52024 3.45924 0
M  V30 7244 N 733.31 3.2132 4.8346 0
M  V30 7245 H 736.075 2.89456 0.776862 0
M  V30 7246 H 733.636 1.59505 0.277428 0
M  V30 7247 H 735.628 2.39925 3.25911 0
M  V30 7248 H 734.198 1.459 2.76464 0
M  V30 7249 H 733.418 3.62588 1.54673 0
M  V30 7250 H 734.706 4.47678 2.41789 0
M  V30 7251 H 734.104 2.63028 5.00832 0
M  V30 7252 H 732.661 3.3656 5.58185 0
M  V30 7253 N 736.094 -0.359525 1.53444 0
M  V30 7254 C 737.024 -1.44662 1.8329 0
M  V30 7255 C 738.005 -1.55617 0.68683 0
M  V30 7256 O 739.19 -1.70086 0.93725 0
M  V30 7257 C 736.32 -2.81923 2.02822 0
M  V30 7258 C 735.274 -2.85787 3.18606 0
M  V30 7259 C 734.6 -4.25781 3.23442 0
M  V30 7260 C 735.9 -2.52762 4.57065 0
M  V30 7261 H 737.594 -1.19934 2.74329 0
M  V30 7262 H 735.14 -0.575517 1.31999 0
M  V30 7263 H 737.093 -3.58005 2.22285 0
M  V30 7264 H 735.817 -3.08051 1.085 0
M  V30 7265 H 734.476 -2.12157 2.98973 0
M  V30 7266 H 734.124 -4.48994 2.26745 0
M  V30 7267 H 733.824 -4.29281 4.01238 0
M  V30 7268 H 735.348 -5.03727 3.45096 0
M  V30 7269 H 736.762 -3.18557 4.76649 0
M  V30 7270 H 735.159 -2.67569 5.37147 0
M  V30 7271 H 736.229 -1.47993 4.61764 0
M  V30 7272 N 737.572 -1.44907 -0.619662 0
M  V30 7273 C 738.535 -1.52282 -1.71297 0
M  V30 7274 C 739.535 -0.40359 -1.55653 0
M  V30 7275 O 740.725 -0.666638 -1.6094 0
M  V30 7276 C 737.857 -1.40778 -3.10474 0
M  V30 7277 H 739.05 -2.49683 -1.66128 0
M  V30 7278 H 736.603 -1.32168 -0.834339 0
M  V30 7279 H 737.338 -0.445156 -3.2123 0
M  V30 7280 H 737.123 -2.21947 -3.23237 0
M  V30 7281 H 738.613 -1.48946 -3.90135 0
M  V30 7282 N 739.05 0.861098 -1.31996 0
M  V30 7283 C 740.013 1.95068 -1.20338 0
M  V30 7284 C 741.013 1.60289 -0.128114 0
M  V30 7285 O 742.203 1.70048 -0.378044 0
M  V30 7286 C 739.335 3.30153 -0.849205 0
M  V30 7287 H 740.528 2.06833 -2.17164 0
M  V30 7288 H 738.081 1.05049 -1.15734 0
M  V30 7289 H 738.816 3.24087 0.117508 0
M  V30 7290 H 738.601 3.56771 -1.62655 0
M  V30 7291 H 740.091 4.10025 -0.791782 0
M  V30 7292 N 740.528 1.15101 1.07655 0
M  V30 7293 C 741.758 0.946357 1.83651 0
M  V30 7294 C 742.166 -0.508641 1.82235 0
M  V30 7295 O 741.509 -1.36445 1.22997 0
M  V30 7296 C 741.571 1.37945 3.31981 0
M  V30 7297 C 741.235 2.85155 3.57122 0
M  V30 7298 C 742.232 3.83234 3.51323 0
M  V30 7299 C 739.917 3.2275 3.84887 0
M  V30 7300 C 741.911 5.16914 3.72932 0
M  V30 7301 C 739.598 4.56604 4.06148 0
M  V30 7302 C 740.596 5.53495 4.00165 0
M  V30 7303 O 740.284 6.84931 4.20861 0
M  V30 7304 H 740.016 0.336368 0.586372 0
M  V30 7305 H 742.57 1.53198 1.36819 0
M  V30 7306 H 740.8 0.737205 3.79608 0
M  V30 7307 H 742.489 1.14439 3.89434 0
M  V30 7308 H 743.255 3.55535 3.29878 0
M  V30 7309 H 739.134 2.47921 3.88659 0
M  V30 7310 H 742.678 5.92529 3.68178 0
M  V30 7311 H 738.575 4.84019 4.27078 0
M  V30 7312 H 739.343 6.91304 4.38226 0
M  V30 7313 N 742.006 -1.2595 0.947325 0
M  V30 7314 C 742.969 -2.24407 0.466285 0
M  V30 7315 C 743.969 -1.55054 -0.426005 0
M  V30 7316 O 745.159 -1.7275 -0.224319 0
M  V30 7317 C 742.291 -3.39326 -0.327201 0
M  V30 7318 H 743.484 -2.68477 1.33642 0
M  V30 7319 H 741.037 -1.38211 0.729887 0
M  V30 7320 H 741.772 -3.00667 -1.21532 0
M  V30 7321 H 741.557 -3.9085 0.312839 0
M  V30 7322 H 743.047 -4.12455 -0.653477 0
M  V30 7323 N 743.484 -0.715051 -1.40445 0
M  V30 7324 C 744.394 -0.0631624 -2.34515 0
M  V30 7325 C 745.41 0.744397 -1.57273 0
M  V30 7326 O 746.586 0.677475 -1.89663 0
M  V30 7327 C 743.651 0.847915 -3.36172 0
M  V30 7328 C 742.712 0.0303655 -4.29289 0
M  V30 7329 C 741.945 0.898051 -5.2609 0
M  V30 7330 O 742.168 2.13729 -5.28844 0
M  V30 7331 O 741.102 0.337328 -6.00954 0
M  V30 7332 H 744.928 -0.839078 -2.91879 0
M  V30 7333 H 742.513 -0.475527 -1.4163 0
M  V30 7334 H 744.395 1.3698 -3.98515 0
M  V30 7335 H 743.07 1.60299 -2.81222 0
M  V30 7336 H 741.977 -0.536573 -3.70232 0
M  V30 7337 H 743.31 -0.686474 -4.87389 0
M  V30 7338 N 744.962 1.50701 -0.461195 0
M  V30 7339 C 746.239 1.94958 0.158296 0
M  V30 7340 C 746.619 1.40111 1.57899 0
M  V30 7341 O 745.967 0.597976 2.20537 0
M  V30 7342 C 746.177 3.48821 0.11172 0
M  V30 7343 C 747.525 4.23499 0.30552 0
M  V30 7344 O 748.549 3.557 0.188758 0
M  V30 7345 O 747.408 5.43823 0.540244 0
M  V30 7346 H 744.502 0.818674 0.117054 0
M  V30 7347 H 747.048 1.61508 -0.520888 0
M  V30 7348 H 745.82 3.81263 -0.880577 0
M  V30 7349 H 745.443 3.88781 0.832791 0
M  V30 7350 N 746.441 0.193421 1.56409 0
M  V30 7351 C 747.857 -0.162447 1.58771 0
M  V30 7352 C 748.057 -1.6116 1.20954 0
M  V30 7353 O 747.113 -2.3469 0.931497 0
M  V30 7354 C 748.426 0.138391 3.00381 0
M  V30 7355 C 749.974 0.0783649 3.12902 0
M  V30 7356 C 750.449 0.352491 4.56642 0
M  V30 7357 N 751.94 0.30105 4.62221 0
M  V30 7358 C 752.675 0.487028 5.71328 0
M  V30 7359 N 752.171 0.733265 6.88909 0
M  V30 7360 N 753.964 0.4214 5.60518 0
M  V30 7361 H 746.115 1.13909 1.79272 0
M  V30 7362 H 748.378 0.454528 0.83193 0
M  V30 7363 H 748.084 1.14312 3.32604 0
M  V30 7364 H 747.958 -0.559804 3.73023 0
M  V30 7365 H 750.345 -0.916963 2.80492 0
M  V30 7366 H 750.426 0.809611 2.4265 0
M  V30 7367 H 750.07 1.34513 4.89764 0
M  V30 7368 H 750 -0.399624 5.25081 0
M  V30 7369 H 752.491 0.117279 3.77718 0
M  V30 7370 H 752.804 0.86403 7.67955 0
M  V30 7371 H 751.149 0.770138 6.9072 0
M  V30 7372 H 754.34 0.229461 4.67537 0
M  V30 7373 H 754.513 0.569758 6.4549 0
M  V30 7374 N 747.919 -1.57396 -0.0801906 0
M  V30 7375 C 749.147 -1.91055 -0.794075 0
M  V30 7376 C 749.562 -0.788583 -1.71542 0
M  V30 7377 O 748.919 0.238587 -1.80934 0
M  V30 7378 C 748.97 -3.24418 -1.59484 0
M  V30 7379 O 748.691 -4.323 -0.710532 0
M  V30 7380 C 750.192 -3.72037 -2.41046 0
M  V30 7381 H 747.412 -0.63171 -0.226238 0
M  V30 7382 H 749.956 -2.04431 -0.0529685 0
M  V30 7383 H 748.111 -3.12595 -2.2883 0
M  V30 7384 H 748.525 -5.08976 -1.26663 0
M  V30 7385 H 749.999 -4.68006 -2.92702 0
M  V30 7386 H 750.476 -3.00624 -3.2019 0
M  V30 7387 H 751.082 -3.86777 -1.76871 0
M  V30 7388 N 749.397 0.351382 -1.53633 0
M  V30 7389 C 750.674 1.10903 -1.6112 0
M  V30 7390 C 751.054 2.06725 -0.427556 0
M  V30 7391 O 750.402 2.20992 0.580916 0
M  V30 7392 C 750.612 1.83561 -2.96827 0
M  V30 7393 C 751.96 2.37587 -3.51906 0
M  V30 7394 O 752.984 1.93669 -2.9895 0
M  V30 7395 O 751.843 3.17913 -4.44515 0
M  V30 7396 H 748.937 0.509558 -0.651368 0
M  V30 7397 H 751.483 0.353504 -1.65977 0
M  V30 7398 H 750.255 1.1371 -3.74414 0
M  V30 7399 H 749.878 2.6599 -2.95525 0
M  V30 7400 N 750.875 1.45233 0.611969 0
M  V30 7401 C 752.121 1.49242 1.37312 0
M  V30 7402 C 752.454 0.131963 1.93751 0
M  V30 7403 O 751.729 -0.852999 1.74798 0
M  V30 7404 C 752.012 2.56811 2.52428 0
M  V30 7405 C 751.865 4.02284 2.01215 0
M  V30 7406 C 753.184 2.60705 3.54572 0
M  V30 7407 H 750.303 0.54336 0.497925 0
M  V30 7408 H 752.945 1.77019 0.690242 0
M  V30 7409 H 751.095 2.33256 3.10683 0
M  V30 7410 H 752.767 4.37035 1.47643 0
M  V30 7411 H 751.01 4.1315 1.32248 0
M  V30 7412 H 751.681 4.7323 2.84178 0
M  V30 7413 H 754.157 2.81799 3.06151 0
M  V30 7414 H 753.033 3.37841 4.32614 0
M  V30 7415 H 753.294 1.65627 4.09903 0
M  V30 7416 N 752.353 -0.854086 1.3245 0
M  V30 7417 C 753.63 -1.59188 1.1366 0
M  V30 7418 C 754.01 -2.08917 -0.302807 0
M  V30 7419 O 753.358 -1.8795 -1.29951 0
M  V30 7420 C 753.568 -2.73757 2.16467 0
M  V30 7421 C 754.916 -3.43323 2.49829 0
M  V30 7422 O 755.94 -2.83983 2.15017 0
M  V30 7423 O 754.799 -4.50409 3.09506 0
M  V30 7424 H 751.893 -0.701092 0.438633 0
M  V30 7425 H 754.439 -0.898165 1.43983 0
M  V30 7426 H 753.211 -2.3454 3.1322 0
M  V30 7427 H 752.834 -3.50804 1.87142 0
M  V30 7428 N 753.831 -1.1567 -1.07043 0
M  V30 7429 C 755.242 -0.942408 -1.61169 0
M  V30 7430 C 755.593 0.515537 -1.89306 0
M  V30 7431 O 754.718 1.38726 -1.66084 0
M  V30 7432 C 755.313 -1.70431 -2.92812 0
M  V30 7433 C 753.872 -1.53521 -3.43669 0
M  V30 7434 C 753.019 -1.7179 -2.17678 0
M  V30 7435 H 755.97 -1.3065 -0.9009 0
M  V30 7436 H 755.991 -1.17566 -3.61882 0
M  V30 7437 H 755.503 -2.76538 -2.72302 0
M  V30 7438 H 753.604 -0.498224 -3.69254 0
M  V30 7439 H 753.717 -2.31422 -4.19501 0
M  V30 7440 H 752.081 -1.14468 -2.27529 0
M  V30 7441 H 752.864 -2.79269 -1.99659 0
M  V30 7442 N 755.309 1.25446 -0.953992 0
M  V30 7443 C 756.272 2.24156 -0.478179 0
M  V30 7444 C 757.272 1.55278 0.417776 0
M  V30 7445 O 758.462 1.72866 0.215155 0
M  V30 7446 C 755.594 3.39495 0.309202 0
M  V30 7447 H 756.787 2.67764 -1.35064 0
M  V30 7448 H 754.34 1.37822 -0.737206 0
M  V30 7449 H 755.075 3.01307 1.19936 0
M  V30 7450 H 754.86 3.90679 -0.333562 0
M  V30 7451 H 756.35 4.12796 0.631594 0
M  V30 7452 N 756.787 0.722489 1.40064 0
M  V30 7453 C 758.033 0.265371 2.01056 0
M  V30 7454 C 758.366 -1.14062 1.57174 0
M  V30 7455 O 757.641 -1.77514 0.794916 0
M  V30 7456 C 757.924 0.353157 3.58364 0
M  V30 7457 C 757.777 1.79802 4.123 0
M  V30 7458 C 759.096 -0.271677 4.39261 0
M  V30 7459 H 756.215 0.0979002 0.730469 0
M  V30 7460 H 758.857 0.916289 1.66446 0
M  V30 7461 H 757.007 -0.201037 3.87979 0
M  V30 7462 H 758.679 2.40813 3.93455 0
M  V30 7463 H 756.922 2.32348 3.66329 0
M  V30 7464 H 757.593 1.81079 5.21454 0
M  V30 7465 H 760.069 0.200607 4.15616 0
M  V30 7466 H 758.945 -0.179843 5.48605 0
M  V30 7467 H 759.206 -1.35611 4.20787 0
M  V30 7468 N 758.265 -1.50454 0.469181 0
M  V30 7469 C 759.228 -2.2703 -0.314643 0
M  V30 7470 C 760.228 -1.31734 -0.922111 0
M  V30 7471 O 761.418 -1.55176 -0.791588 0
M  V30 7472 C 758.55 -3.08616 -1.44806 0
M  V30 7473 H 759.743 -2.97769 0.356892 0
M  V30 7474 H 757.296 -1.54698 0.223191 0
M  V30 7475 H 758.031 -2.42369 -2.1547 0
M  V30 7476 H 757.816 -3.78647 -1.01829 0
M  V30 7477 H 759.306 -3.66536 -2.00103 0
M  V30 7478 N 759.743 -0.201713 -1.56304 0
M  V30 7479 C 760.706 0.702811 -2.18159 0
M  V30 7480 C 761.706 1.13619 -1.13787 0
M  V30 7481 O 762.896 1.0482 -1.39134 0
M  V30 7482 C 760.028 1.96032 -2.78898 0
M  V30 7483 H 761.221 0.163836 -2.99452 0
M  V30 7484 H 758.774 0.04791 -1.56227 0
M  V30 7485 H 759.509 2.54165 -2.01421 0
M  V30 7486 H 759.294 1.65824 -3.55309 0
M  V30 7487 H 760.784 2.60519 -3.26373 0
M  V30 7488 N 761.222 1.57436 0.0718424 0
M  V30 7489 C 762.638 1.53792 0.426628 0
M  V30 7490 C 762.838 0.921887 1.79174 0
M  V30 7491 O 761.894 0.524374 2.46995 0
M  V30 7492 C 763.207 2.98443 0.367739 0
M  V30 7493 C 764.755 3.09778 0.447928 0
M  V30 7494 C 765.23 4.5608 0.418946 0
M  V30 7495 N 766.721 4.60716 0.479022 0
M  V30 7496 C 767.456 5.71397 0.47881 0
M  V30 7497 N 766.952 6.91443 0.433417 0
M  V30 7498 N 768.745 5.59639 0.525364 0
M  V30 7499 H 760.896 1.95848 -0.822033 0
M  V30 7500 H 763.159 0.896418 -0.308447 0
M  V30 7501 H 762.865 3.47072 -0.56865 0
M  V30 7502 H 762.739 3.58335 1.17795 0
M  V30 7503 H 765.126 2.61122 1.37474 0
M  V30 7504 H 765.207 2.52796 -0.390857 0
M  V30 7505 H 764.851 5.05393 -0.504016 0
M  V30 7506 H 764.781 5.10925 1.27526 0
M  V30 7507 H 767.272 3.74328 0.518355 0
M  V30 7508 H 767.585 7.71562 0.43718 0
M  V30 7509 H 765.93 6.93847 0.400106 0
M  V30 7510 H 769.121 4.64756 0.558519 0
M  V30 7511 H 769.294 6.45896 0.52173 0
M  V30 7512 N 762.7 -0.34323 1.53817 0
M  V30 7513 C 763.663 -1.40444 1.8113 0
M  V30 7514 C 764.663 -1.45604 0.682366 0
M  V30 7515 O 765.853 -1.45974 0.950649 0
M  V30 7516 C 762.985 -2.79369 1.95361 0
M  V30 7517 H 764.178 -1.17489 2.75928 0
M  V30 7518 H 761.731 -0.577636 1.45234 0
M  V30 7519 H 762.466 -3.07607 1.02707 0
M  V30 7520 H 762.251 -2.7702 2.77493 0
M  V30 7521 H 763.741 -3.56178 2.18008 0
M  V30 7522 N 764.178 -1.45556 -0.604258 0
M  V30 7523 C 765.108 -1.57327 -1.72541 0
M  V30 7524 C 766.089 -0.424637 -1.64714 0
M  V30 7525 O 767.274 -0.648196 -1.83063 0
M  V30 7526 C 764.404 -1.54279 -3.11152 0
M  V30 7527 C 763.358 -2.67893 -3.33792 0
M  V30 7528 C 762.684 -2.499 -4.72709 0
M  V30 7529 C 763.984 -4.0988 -3.23722 0
M  V30 7530 H 765.678 -2.51175 -1.62947 0
M  V30 7531 H 763.224 -1.20884 -0.782504 0
M  V30 7532 H 765.177 -1.6111 -3.89386 0
M  V30 7533 H 763.901 -0.569627 -3.21594 0
M  V30 7534 H 762.56 -2.60495 -2.57949 0
M  V30 7535 H 762.208 -1.50715 -4.79889 0
M  V30 7536 H 761.908 -3.26091 -4.88813 0
M  V30 7537 H 763.432 -2.5859 -5.5314 0
M  V30 7538 H 764.846 -4.18503 -3.91826 0
M  V30 7539 H 763.243 -4.86487 -3.51355 0
M  V30 7540 H 764.313 -4.31553 -2.21111 0
M  V30 7541 N 765.656 0.84705 -1.32902 0
M  V30 7542 C 766.902 1.60414 -1.24078 0
M  V30 7543 C 767.235 1.93217 0.195105 0
M  V30 7544 O 766.51 1.58001 1.13428 0
M  V30 7545 C 766.793 2.91951 -2.108 0
M  V30 7546 C 766.646 2.6588 -3.62805 0
M  V30 7547 C 767.965 3.93299 -1.97494 0
M  V30 7548 H 765.084 0.58206 -0.452079 0
M  V30 7549 H 767.726 0.977562 -1.62922 0
M  V30 7550 H 765.876 3.45425 -1.77802 0
M  V30 7551 H 767.548 2.18902 -4.06054 0
M  V30 7552 H 765.791 1.99716 -3.85092 0
M  V30 7553 H 766.462 3.59574 -4.1882 0
M  V30 7554 H 768.938 3.49105 -2.26417 0
M  V30 7555 H 767.814 4.8318 -2.60438 0
M  V30 7556 H 768.075 4.31887 -0.944782 0
M  V30 7557 N 767.134 1.16236 1.06428 0
M  V30 7558 C 768.411 0.853294 1.76006 0
M  V30 7559 C 768.791 -0.649162 2.00871 0
M  V30 7560 O 768.139 -1.59653 1.63472 0
M  V30 7561 C 768.349 1.67448 3.06206 0
M  V30 7562 C 769.697 1.8866 3.80385 0
M  V30 7563 O 770.721 1.64303 3.16043 0
M  V30 7564 O 769.58 2.29518 4.95968 0
M  V30 7565 H 766.674 0.314737 0.764767 0
M  V30 7566 H 769.22 1.26865 1.12709 0
M  V30 7567 H 767.992 2.69411 2.83784 0
M  V30 7568 H 767.615 1.25608 3.77238 0
M  V30 7569 N 768.612 -1.24939 0.960631 0
M  V30 7570 C 769.837 -1.9742 0.635608 0
M  V30 7571 C 770.262 -1.70857 -0.786737 0
M  V30 7572 O 769.62 -0.968063 -1.53291 0
M  V30 7573 C 769.668 -3.48987 0.907771 0
M  V30 7574 O 768.772 -4.12399 -0.0104053 0
M  V30 7575 H 768.113 -0.61871 0.241027 0
M  V30 7576 H 770.643 -1.58901 1.28886 0
M  V30 7577 H 770.653 -3.99334 0.836453 0
M  V30 7578 H 769.328 -3.6765 1.94439 0
M  V30 7579 H 767.905 -3.72727 0.113631 0
M  V30 7580 N 770.09 -0.729906 -1.39679 0
M  V30 7581 C 771.506 -0.404951 -1.54377 0
M  V30 7582 C 771.706 1.08476 -1.6981 0
M  V30 7583 O 770.762 1.87087 -1.69572 0
M  V30 7584 C 772.075 -1.18352 -2.76429 0
M  V30 7585 C 773.623 -1.17124 -2.9026 0
M  V30 7586 C 774.098 -1.93227 -4.15244 0
M  V30 7587 N 775.589 -1.90368 -4.22273 0
M  V30 7588 C 776.324 -2.46065 -5.17918 0
M  V30 7589 N 775.82 -3.10378 -6.19385 0
M  V30 7590 N 777.613 -2.36127 -5.10099 0
M  V30 7591 H 769.764 -1.69567 -1.27909 0
M  V30 7592 H 772.027 -0.717527 -0.619564 0
M  V30 7593 H 771.733 -2.23743 -2.71352 0
M  V30 7594 H 771.607 -0.784589 -3.6895 0
M  V30 7595 H 773.994 -0.125478 -2.94833 0
M  V30 7596 H 774.075 -1.60951 -1.98817 0
M  V30 7597 H 773.719 -2.97802 -4.11432 0
M  V30 7598 H 773.649 -1.4681 -5.05722 0
M  V30 7599 H 776.14 -1.4351 -3.4959 0
M  V30 7600 H 776.453 -3.50358 -6.88817 0
M  V30 7601 H 774.798 -3.14467 -6.19787 0
M  V30 7602 H 777.989 -1.85529 -4.29763 0
M  V30 7603 H 778.162 -2.79833 -5.84463 0
M  V30 7604 N 771.568 1.50203 -0.477153 0
M  V30 7605 C 772.796 2.0677 0.0732489 0
M  V30 7606 C 773.211 1.34033 1.32968 0
M  V30 7607 O 772.568 0.411412 1.77802 0
M  V30 7608 C 772.619 3.59751 0.35518 0
M  V30 7609 O 772.34 4.29747 -0.851425 0
M  V30 7610 C 773.841 4.3296 0.951877 0
M  V30 7611 H 771.061 0.670929 -0.00978923 0
M  V30 7612 H 773.605 1.93293 -0.667676 0
M  V30 7613 H 771.76 3.7301 1.04605 0
M  V30 7614 H 772.174 5.2106 -0.599708 0
M  V30 7615 H 773.648 5.40952 1.09888 0
M  V30 7616 H 774.125 3.93856 1.94356 0
M  V30 7617 H 774.731 4.24246 0.299208 0
M  V30 7618 N 773.046 0.209999 1.56195 0
M  V30 7619 C 774.009 -0.691232 2.18528 0
M  V30 7620 C 775.009 -1.13013 1.14388 0
M  V30 7621 O 776.199 -1.04081 1.39688 0
M  V30 7622 C 773.331 -1.94551 2.79934 0
M  V30 7623 H 774.524 -0.147953 2.99535 0
M  V30 7624 H 772.077 -0.0396243 1.5625 0
M  V30 7625 H 772.812 -2.53094 2.02766 0
M  V30 7626 H 772.597 -1.63938 3.56184 0
M  V30 7627 H 774.087 -2.58785 3.2775 0
M  V30 7628 N 774.524 -1.57472 -0.0634922 0
M  V30 7629 C 775.457 -1.99571 -1.10664 0
M  V30 7630 C 776.435 -0.874015 -1.37112 0
M  V30 7631 O 777.619 -1.13702 -1.50347 0
M  V30 7632 C 774.746 -2.3395 -2.44918 0
M  V30 7633 C 773.792 -3.56213 -2.34551 0
M  V30 7634 S 774.625 -5.06727 -1.73169 0
M  V30 7635 C 775.781 -5.44316 -3.08984 0
M  V30 7636 H 776.014 -2.87739 -0.747905 0
M  V30 7637 H 773.547 -1.5198 -0.272316 0
M  V30 7638 H 775.505 -2.54431 -3.22141 0
M  V30 7639 H 774.166 -1.46297 -2.7795 0
M  V30 7640 H 773.359 -3.77812 -3.33578 0
M  V30 7641 H 772.961 -3.35406 -1.65466 0
M  V30 7642 H 775.253 -5.42894 -4.05305 0
M  V30 7643 H 776.196 -6.4502 -2.92156 0
M  V30 7644 H 776.604 -4.71781 -3.09972 0
M  V30 7645 N 776.003 0.335068 -1.53997 0
M  V30 7646 C 776.913 1.43511 -1.85585 0
M  V30 7647 C 777.929 1.57162 -0.746726 0
M  V30 7648 O 779.105 1.72477 -1.03988 0
M  V30 7649 C 776.17 2.78386 -2.06646 0
M  V30 7650 C 775.231 2.74007 -3.30483 0
M  V30 7651 C 774.464 4.02449 -3.50529 0
M  V30 7652 O 774.687 5.00147 -2.74242 0
M  V30 7653 O 773.621 4.06405 -4.4398 0
M  V30 7654 H 777.447 1.19731 -2.79102 0
M  V30 7655 H 775.032 0.528033 -1.39758 0
M  V30 7656 H 776.914 3.58247 -2.21894 0
M  V30 7657 H 775.589 3.0208 -1.16317 0
M  V30 7658 H 774.496 1.92736 -3.2063 0
M  V30 7659 H 775.829 2.55267 -4.20832 0
M  V30 7660 N 777.481 1.45874 0.596531 0
M  V30 7661 C 778.431 1.5181 1.70111 0
M  V30 7662 C 779.415 0.380293 1.56341 0
M  V30 7663 O 780.607 0.627849 1.6549 0
M  V30 7664 C 777.736 1.49822 3.08883 0
M  V30 7665 C 776.822 2.68845 3.27998 0
M  V30 7666 N 777.213 3.93873 3.17329 0
M  V30 7667 C 775.511 2.64777 3.589 0
M  V30 7668 C 776.212 4.73371 3.38076 0
M  V30 7669 N 775.188 4.0501 3.62585 0
M  V30 7670 H 778.99 2.46289 1.60372 0
M  V30 7671 H 776.504 1.41321 0.800138 0
M  V30 7672 H 778.501 1.5216 3.8814 0
M  V30 7673 H 777.161 0.564086 3.19763 0
M  V30 7674 H 778.172 4.25329 2.95492 0
M  V30 7675 H 774.849 1.80323 3.7655 0
M  V30 7676 H 776.239 5.82357 3.35127 0
M  V30 7677 N 778.959 -0.83999 1.33349 0
M  V30 7678 C 780.375 -1.13049 1.12659 0
M  V30 7679 C 780.575 -2.01328 -0.0832613 0
M  V30 7680 O 779.631 -2.40669 -0.763856 0
M  V30 7681 C 780.944 -1.79366 2.41347 0
M  V30 7682 C 782.492 -1.91937 2.47243 0
M  V30 7683 C 782.967 -2.6167 3.75889 0
M  V30 7684 N 784.458 -2.69184 3.76954 0
M  V30 7685 C 785.193 -3.23827 4.73206 0
M  V30 7686 N 784.689 -3.79166 5.79832 0
M  V30 7687 N 786.482 -3.22068 4.60683 0
M  V30 7688 H 778.633 -0.252432 2.10895 0
M  V30 7689 H 780.896 -0.174501 0.931801 0
M  V30 7690 H 780.602 -1.2196 3.29877 0
M  V30 7691 H 780.476 -2.79396 2.53412 0
M  V30 7692 H 782.863 -2.48498 1.59163 0
M  V30 7693 H 782.944 -0.908604 2.39119 0
M  V30 7694 H 782.588 -2.05769 4.64351 0
M  V30 7695 H 782.518 -3.63217 3.81289 0
M  V30 7696 H 785.009 -2.2994 2.99893 0
M  V30 7697 H 785.322 -4.19061 6.49313 0
M  V30 7698 H 783.667 -3.77457 5.83568 0
M  V30 7699 H 786.858 -2.78092 3.7654 0
M  V30 7700 H 787.031 -3.64351 5.35866 0
M  V30 7701 N 780.437 -1.16799 -1.0581 0
M  V30 7702 C 781.4 -0.881396 -2.11575 0
M  V30 7703 C 782.4 0.12574 -1.60308 0
M  V30 7704 O 783.59 -0.105716 -1.73879 0
M  V30 7705 C 780.722 -0.319037 -3.39404 0
M  V30 7706 H 781.915 -1.81907 -2.38432 0
M  V30 7707 H 779.468 -0.977597 -1.21954 0
M  V30 7708 H 780.203 0.626082 -3.18199 0
M  V30 7709 H 779.988 -1.04481 -3.77923 0
M  V30 7710 H 781.478 -0.13663 -4.17376 0
M  V30 7711 N 781.915 1.24427 -0.967243 0
M  V30 7712 C 783.161 1.92772 -0.629812 0
M  V30 7713 C 783.494 1.75436 0.832827 0
M  V30 7714 O 782.769 1.10716 1.59913 0
M  V30 7715 C 783.052 3.45798 -1.00477 0
M  V30 7716 C 782.905 3.72304 -2.52407 0
M  V30 7717 C 784.224 4.36787 -0.538999 0
M  V30 7718 H 781.343 0.700099 -0.230282 0
M  V30 7719 H 783.985 1.46805 -1.20616 0
M  V30 7720 H 782.135 3.8508 -0.514336 0
M  V30 7721 H 783.807 3.42584 -3.08924 0
M  V30 7722 H 782.05 3.17472 -2.95625 0
M  V30 7723 H 782.721 4.7937 -2.73693 0
M  V30 7724 H 785.197 4.04877 -0.959874 0
M  V30 7725 H 784.073 5.4259 -0.829926 0
M  V30 7726 H 784.334 4.38527 0.560923 0
M  V30 7727 N 783.393 0.737304 1.3929 0
M  V30 7728 C 784.356 0.10731 2.28949 0
M  V30 7729 C 785.356 -0.664716 1.46418 0
M  V30 7730 O 786.546 -0.493392 1.67067 0
M  V30 7731 C 783.678 -0.857145 3.29948 0
M  V30 7732 H 784.871 0.89725 2.86163 0
M  V30 7733 H 782.424 0.503279 1.47976 0
M  V30 7734 H 783.159 -1.67336 2.77794 0
M  V30 7735 H 782.944 -0.306167 3.90903 0
M  V30 7736 H 784.434 -1.29444 3.97031 0
M  V30 7737 N 784.871 -1.49948 0.485112 0
M  V30 7738 C 786.117 -2.02695 -0.0651022 0
M  V30 7739 C 786.45 -1.36534 -1.38102 0
M  V30 7740 O 785.725 -0.495677 -1.88078 0
M  V30 7741 C 786.008 -3.59337 -0.234285 0
M  V30 7742 C 785.861 -4.3605 1.10364 0
M  V30 7743 C 787.18 -4.28996 -0.982351 0
M  V30 7744 H 784.299 -0.736666 -0.0221856 0
M  V30 7745 H 786.941 -1.7913 0.633433 0
M  V30 7746 H 785.091 -3.79546 -0.829262 0
M  V30 7747 H 786.763 -4.27377 1.73627 0
M  V30 7748 H 785.006 -3.99236 1.69686 0
M  V30 7749 H 785.677 -5.43959 0.938743 0
M  V30 7750 H 788.153 -4.13346 -0.477904 0
M  V30 7751 H 787.029 -5.38379 -1.06955 0
M  V30 7752 H 787.29 -3.93135 -2.02231 0
M  V30 7753 N 786.349 -0.21828 -1.56081 0
M  V30 7754 C 787.597 0.413488 -1.97825 0
M  V30 7755 C 787.918 1.60527 -1.10707 0
M  V30 7756 O 787.188 1.9504 -0.183378 0
M  V30 7757 H 785.768 0.155757 -0.730581 0
M  V30 7758 H 788.43 -0.310413 -1.92412 0
M  V30 7759 H 787.526 0.742024 -3.03151 0
M  V30 7760 N 787.827 1.57504 0.0551401 0
M  V30 7761 C 789.104 1.79155 0.785048 0
M  V30 7762 C 789.484 0.809995 1.94942 0
M  V30 7763 O 788.832 -0.153432 2.27984 0
M  V30 7764 C 789.042 3.26134 1.24247 0
M  V30 7765 C 790.39 3.90419 1.66908 0
M  V30 7766 O 791.414 3.30126 1.33772 0
M  V30 7767 O 790.273 4.96523 2.28314 0
M  V30 7768 H 787.367 0.735825 0.377479 0
M  V30 7769 H 789.913 1.69666 0.0339285 0
M  V30 7770 H 788.685 3.89145 0.410089 0
M  V30 7771 H 788.308 3.40411 2.05441 0
M  V30 7772 N 789.305 -0.326896 1.54172 0
M  V30 7773 C 790.53 -1.08924 1.76494 0
M  V30 7774 C 790.955 -1.81039 0.510523 0
M  V30 7775 O 790.313 -1.73141 -0.537756 0
M  V30 7776 C 790.361 -2.06558 2.95578 0
M  V30 7777 O 789.465 -3.14394 2.6689 0
M  V30 7778 H 788.806 -0.314216 0.584948 0
M  V30 7779 H 791.336 -0.372207 2.01186 0
M  V30 7780 H 791.346 -2.49487 3.22832 0
M  V30 7781 H 790.021 -1.53469 3.86549 0
M  V30 7782 H 788.598 -2.76164 2.50576 0
M  V30 7783 N 790.784 -1.46188 -0.588786 0
M  V30 7784 C 792.2 -1.31009 -0.911524 0
M  V30 7785 C 792.4 -0.277017 -1.99587 0
M  V30 7786 O 791.456 0.322532 -2.50432 0
M  V30 7787 C 792.769 -2.69459 -1.33463 0
M  V30 7788 C 794.317 -2.77502 -1.44782 0
M  V30 7789 C 794.792 -4.1652 -1.90461 0
M  V30 7790 N 796.283 -4.18907 -1.97665 0
M  V30 7791 C 797.018 -5.23359 -2.34271 0
M  V30 7792 N 796.514 -6.38143 -2.69714 0
M  V30 7793 N 798.307 -5.10723 -2.34774 0
M  V30 7794 H 790.458 -2.12016 0.127614 0
M  V30 7795 H 792.721 -0.947984 -0.00557599 0
M  V30 7796 H 792.427 -3.46336 -0.611929 0
M  V30 7797 H 792.301 -2.99165 -2.2974 0
M  V30 7798 H 794.688 -2.00917 -2.1614 0
M  V30 7799 H 794.769 -2.51488 -0.467724 0
M  V30 7800 H 794.413 -4.93597 -1.19684 0
M  V30 7801 H 794.343 -4.39937 -2.89418 0
M  V30 7802 H 796.834 -3.36084 -1.72789 0
M  V30 7803 H 797.147 -7.13624 -2.96582 0
M  V30 7804 H 795.492 -6.41514 -2.67366 0
M  V30 7805 H 798.683 -4.20088 -2.06503 0
M  V30 7806 H 798.856 -5.9224 -2.62975 0
M  V30 7807 N 792.262 0.832906 -1.33792 0
M  V30 7808 C 793.172 1.97514 -1.26592 0
M  V30 7809 C 794.188 1.73114 -0.175391 0
M  V30 7810 O 795.364 1.97387 -0.400062 0
M  V30 7811 C 792.429 3.31625 -1.01121 0
M  V30 7812 C 791.49 3.69101 -2.19233 0
M  V30 7813 C 790.723 4.96813 -1.94968 0
M  V30 7814 O 790.946 5.63208 -0.902955 0
M  V30 7815 O 789.88 5.31932 -2.8166 0
M  V30 7816 H 793.706 2.0653 -2.22664 0
M  V30 7817 H 791.291 0.966826 -1.13898 0
M  V30 7818 H 793.173 4.11968 -0.886571 0
M  V30 7819 H 791.848 3.23599 -0.080822 0
M  V30 7820 H 790.755 2.89243 -2.37253 0
M  V30 7821 H 792.088 3.818 -3.10628 0
M  V30 7822 N 793.74 1.17359 1.05189 0
M  V30 7823 C 794.703 0.892604 2.11105 0
M  V30 7824 C 795.703 -0.117236 1.60372 0
M  V30 7825 O 796.893 0.114936 1.7382 0
M  V30 7826 C 794.025 0.337032 3.3923 0
M  V30 7827 H 795.218 1.83169 2.37464 0
M  V30 7828 H 792.771 0.984051 1.21434 0
M  V30 7829 H 793.506 -0.609198 3.18527 0
M  V30 7830 H 793.291 1.06484 3.77364 0
M  V30 7831 H 794.781 0.158763 4.17298 0
M  V30 7832 N 795.218 -1.23913 0.973828 0
M  V30 7833 C 796.148 -2.27453 0.527969 0
M  V30 7834 C 797.129 -1.6443 -0.435513 0
M  V30 7835 O 798.314 -1.9137 -0.330306 0
M  V30 7836 C 795.444 -3.4685 -0.176757 0
M  V30 7837 C 794.398 -4.22181 0.703352 0
M  V30 7838 C 793.724 -5.34534 -0.133215 0
M  V30 7839 C 795.024 -4.82865 1.99096 0
M  V30 7840 H 796.718 -2.65 1.3934 0
M  V30 7841 H 794.264 -1.27388 0.671446 0
M  V30 7842 H 796.217 -4.18424 -0.499934 0
M  V30 7843 H 794.941 -3.08346 -1.07659 0
M  V30 7844 H 793.6 -3.52416 1.00989 0
M  V30 7845 H 793.248 -4.92271 -1.03338 0
M  V30 7846 H 792.948 -5.85855 0.452494 0
M  V30 7847 H 794.472 -6.08933 -0.450924 0
M  V30 7848 H 795.886 -5.46481 1.73297 0
M  V30 7849 H 794.283 -5.44444 2.52389 0
M  V30 7850 H 795.353 -4.03977 2.68199 0
M  V30 7851 N 796.696 -0.74468 -1.38897 0
M  V30 7852 C 798.112 -0.421302 -1.53939 0
M  V30 7853 C 798.312 1.06668 -1.70951 0
M  V30 7854 O 797.368 1.85278 -1.71547 0
M  V30 7855 C 798.681 -1.21278 -2.75159 0
M  V30 7856 C 800.229 -1.20196 -2.89001 0
M  V30 7857 C 800.704 -1.97621 -4.13171 0
M  V30 7858 N 802.195 -1.94836 -4.2023 0
M  V30 7859 C 802.93 -2.51545 -5.15279 0
M  V30 7860 N 802.426 -3.1693 -6.16058 0
M  V30 7861 N 804.219 -2.41524 -5.07565 0
M  V30 7862 H 796.37 -1.70914 -1.26103 0
M  V30 7863 H 798.633 -0.724058 -0.611919 0
M  V30 7864 H 798.339 -2.26609 -2.68963 0
M  V30 7865 H 798.213 -0.823677 -3.68097 0
M  V30 7866 H 800.6 -0.156742 -2.94683 0
M  V30 7867 H 800.681 -1.63051 -1.97099 0
M  V30 7868 H 800.325 -3.02149 -4.0825 0
M  V30 7869 H 800.255 -1.52166 -5.04136 0
M  V30 7870 H 802.746 -1.4721 -3.48048 0
M  V30 7871 H 803.059 -3.57644 -6.85062 0
M  V30 7872 H 801.404 -3.21023 -6.16417 0
M  V30 7873 H 804.595 -1.90077 -4.27771 0
M  V30 7874 H 804.768 -2.86016 -5.81462 0
M  V30 7875 N 798.174 1.49689 -0.493057 0
M  V30 7876 C 799.451 1.9525 0.116907 0
M  V30 7877 C 799.831 1.43429 1.54892 0
M  V30 7878 O 799.179 0.644621 2.19219 0
M  V30 7879 C 799.389 3.4898 0.037705 0
M  V30 7880 C 800.737 4.24052 0.215621 0
M  V30 7881 O 801.761 3.5602 0.113266 0
M  V30 7882 O 800.62 5.44847 0.42477 0
M  V30 7883 H 797.714 0.820973 0.099662 0
M  V30 7884 H 800.26 1.60367 -0.555029 0
M  V30 7885 H 799.032 3.79309 -0.961251 0
M  V30 7886 H 798.655 3.9046 0.750137 0
M  V30 7887 N 799.652 0.226554 1.55963 0
M  V30 7888 C 800.615 -0.668015 2.19249 0
M  V30 7889 C 801.615 -1.11794 1.1558 0
M  V30 7890 O 802.805 -1.02593 1.40784 0
M  V30 7891 C 799.937 -1.91571 2.81981 0
M  V30 7892 H 801.13 -0.116175 2.99675 0
M  V30 7893 H 798.683 -0.0230497 1.56283 0
M  V30 7894 H 799.418 -2.50929 2.05439 0
M  V30 7895 H 799.203 -1.6015 3.57903 0
M  V30 7896 H 800.693 -2.55294 3.30477 0
M  V30 7897 N 801.13 -1.57531 -0.0467866 0
M  V30 7898 C 802.06 -2.08425 -1.05268 0
M  V30 7899 C 803.041 -0.982941 -1.38825 0
M  V30 7900 O 804.226 -1.25716 -1.48018 0
M  V30 7901 C 801.356 -2.54897 -2.35891 0
M  V30 7902 C 800.31 -3.69132 -2.16623 0
M  V30 7903 C 799.636 -4.01747 -3.52851 0
M  V30 7904 C 800.936 -4.98243 -1.56689 0
M  V30 7905 H 802.63 -2.92716 -0.62908 0
M  V30 7906 H 800.176 -1.40816 -0.301156 0
M  V30 7907 H 802.129 -2.8912 -3.06574 0
M  V30 7908 H 800.853 -1.67666 -2.80278 0
M  V30 7909 H 799.512 -3.35231 -1.48377 0
M  V30 7910 H 799.16 -3.11608 -3.94853 0
M  V30 7911 H 798.86 -4.78681 -3.4079 0
M  V30 7912 H 800.384 -4.38487 -4.24925 0
M  V30 7913 H 801.798 -5.30535 -2.17268 0
M  V30 7914 H 800.195 -5.79669 -1.55255 0
M  V30 7915 H 801.265 -4.81986 -0.530827 0
M  V30 7916 N 802.608 0.318715 -1.54344 0
M  V30 7917 C 804.024 0.663345 -1.45162 0
M  V30 7918 C 804.224 1.9145 -0.62842 0
M  V30 7919 O 803.28 2.5217 -0.129126 0
M  V30 7920 C 804.593 0.832836 -2.88937 0
M  V30 7921 C 806.141 0.929866 -2.98869 0
M  V30 7922 C 806.616 1.13149 -4.43803 0
M  V30 7923 N 808.107 1.19811 -4.47437 0
M  V30 7924 C 808.842 1.37209 -5.56742 0
M  V30 7925 N 808.338 1.51619 -6.76006 0
M  V30 7926 N 810.131 1.39956 -5.44398 0
M  V30 7927 H 802.282 -0.50357 -2.06344 0
M  V30 7928 H 804.545 -0.163528 -0.933789 0
M  V30 7929 H 804.251 -0.0153519 -3.51697 0
M  V30 7930 H 804.125 1.72721 -3.35332 0
M  V30 7931 H 806.512 1.76855 -2.36233 0
M  V30 7932 H 806.593 0.0118561 -2.55797 0
M  V30 7933 H 806.237 0.297636 -5.07027 0
M  V30 7934 H 806.167 2.06345 -4.84489 0
M  V30 7935 H 808.658 1.101 -3.61506 0
M  V30 7936 H 808.971 1.64599 -7.55067 0
M  V30 7937 H 807.316 1.48708 -6.78904 0
M  V30 7938 H 810.507 1.28298 -4.50175 0
M  V30 7939 H 810.68 1.53172 -6.29637 0
M  V30 7940 N 804.086 1.46499 0.581025 0
M  V30 7941 C 805.019 1.51706 1.70472 0
M  V30 7942 C 805.997 0.371036 1.5831 0
M  V30 7943 O 807.181 0.575426 1.79502 0
M  V30 7944 C 804.308 1.3972 3.08538 0
M  V30 7945 C 803.354 2.58525 3.39215 0
M  V30 7946 S 804.187 4.20872 3.311 0
M  V30 7947 C 805.343 4.11398 4.71702 0
M  V30 7948 H 805.576 2.46777 1.65796 0
M  V30 7949 H 803.109 1.34405 0.759908 0
M  V30 7950 H 805.067 1.33492 3.88188 0
M  V30 7951 H 803.728 0.460742 3.10702 0
M  V30 7952 H 802.921 2.46137 4.3981 0
M  V30 7953 H 802.523 2.61752 2.67136 0
M  V30 7954 H 804.815 3.78182 5.62125 0
M  V30 7955 H 805.758 5.11997 4.89147 0
M  V30 7956 H 806.166 3.42624 4.48631 0
M  V30 7957 N 805.565 -0.825799 1.34232 0
M  V30 7958 C 806.976 -1.39835 1.23706 0
M  V30 7959 C 807.327 -1.95709 -0.138649 0
M  V30 7960 O 806.452 -1.89833 -1.03886 0
M  V30 7961 C 807.047 -2.54203 2.23978 0
M  V30 7962 C 805.606 -3.07374 2.17251 0
M  V30 7963 C 804.753 -1.80232 2.10741 0
M  V30 7964 H 807.704 -0.630442 1.4564 0
M  V30 7965 H 807.725 -3.32214 1.8551 0
M  V30 7966 H 807.237 -2.13506 3.24094 0
M  V30 7967 H 805.338 -3.52583 1.20483 0
M  V30 7968 H 805.451 -3.6666 3.08379 0
M  V30 7969 H 803.815 -2.01012 1.56417 0
M  V30 7970 H 804.598 -1.41713 3.12686 0
M  V30 7971 N 807.043 -1.17915 -1.04565 0
M  V30 7972 C 807.953 -0.916449 -2.15959 0
M  V30 7973 C 808.969 0.117655 -1.73602 0
M  V30 7974 O 810.145 -0.063089 -2.01301 0
M  V30 7975 C 807.21 -0.440262 -3.43893 0
M  V30 7976 C 806.271 -1.54172 -4.00661 0
M  V30 7977 C 805.504 -1.08816 -5.22489 0
M  V30 7978 O 805.727 0.0551547 -5.70373 0
M  V30 7979 O 804.661 -1.88383 -5.7166 0
M  V30 7980 H 808.487 -1.8484 -2.40972 0
M  V30 7981 H 806.072 -0.960552 -1.14428 0
M  V30 7982 H 807.954 -0.182537 -4.21004 0
M  V30 7983 H 806.629 0.46346 -3.20365 0
M  V30 7984 H 805.536 -1.85341 -3.24961 0
M  V30 7985 H 806.869 -2.42139 -4.2852 0
M  V30 7986 N 808.521 1.23394 -0.980386 0
M  V30 7987 C 809.769 1.91431 -0.647978 0
M  V30 7988 C 810.09 1.76871 0.821066 0
M  V30 7989 O 809.36 1.14808 1.58732 0
M  V30 7990 H 807.94 0.708516 -0.236673 0
M  V30 7991 H 810.602 1.50019 -1.2442 0
M  V30 7992 H 809.698 2.98854 -0.899592 0
M  V30 7993 N 809.999 0.752036 1.385 0
M  V30 7994 C 810.929 0.138718 2.33088 0
M  V30 7995 C 811.91 -0.705318 1.54788 0
M  V30 7996 O 813.095 -0.646821 1.83112 0
M  V30 7997 C 810.225 -0.75641 3.38963 0
M  V30 7998 C 809.179 -0.0152239 4.27997 0
M  V30 7999 C 808.505 -1.0285 5.24715 0
M  V30 8000 C 809.805 1.15226 5.09431 0
M  V30 8001 H 811.499 0.928852 2.84627 0
M  V30 8002 H 809.045 0.448111 1.3685 0
M  V30 8003 H 810.998 -1.19513 4.04097 0
M  V30 8004 H 809.722 -1.57885 2.85902 0
M  V30 8005 H 808.381 0.404061 3.64366 0
M  V30 8006 H 808.029 -1.84496 4.67943 0
M  V30 8007 H 807.729 -0.537238 5.85139 0
M  V30 8008 H 809.253 -1.46657 5.92726 0
M  V30 8009 H 810.667 0.791161 5.67815 0
M  V30 8010 H 809.064 1.57428 5.79082 0
M  V30 8011 H 810.134 1.9659 4.43261 0
M  V30 8012 N 811.477 -1.49425 0.500989 0
M  V30 8013 C 812.723 -2.02753 -0.0436 0
M  V30 8014 C 813.056 -1.37991 -1.36646 0
M  V30 8015 O 812.331 -0.515597 -1.87542 0
M  V30 8016 C 812.614 -3.59565 -0.19616 0
M  V30 8017 C 812.467 -4.34855 1.14982 0
M  V30 8018 C 813.786 -4.30014 -0.936795 0
M  V30 8019 H 810.905 -0.73686 -0.0143711 0
M  V30 8020 H 813.547 -1.78448 0.652397 0
M  V30 8021 H 811.697 -3.80405 -0.788959 0
M  V30 8022 H 813.369 -4.25512 1.7815 0
M  V30 8023 H 811.612 -3.97414 1.73911 0
M  V30 8024 H 812.283 -5.42933 0.996385 0
M  V30 8025 H 814.759 -4.1383 -0.434036 0
M  V30 8026 H 813.635 -5.39483 -1.01238 0
M  V30 8027 H 813.896 -3.95257 -1.9805 0
M  V30 8028 N 812.955 -0.234822 -1.55841 0
M  V30 8029 C 814.371 0.120295 -1.59146 0
M  V30 8030 C 814.571 1.57896 -1.25184 0
M  V30 8031 O 813.627 2.32138 -0.993393 0
M  V30 8032 C 814.94 -0.217984 -2.99909 0
M  V30 8033 C 816.488 -0.161298 -3.12584 0
M  V30 8034 C 816.963 -0.473438 -4.55546 0
M  V30 8035 N 818.454 -0.423494 -4.6126 0
M  V30 8036 C 819.189 -0.638334 -5.69836 0
M  V30 8037 N 818.685 -0.915659 -6.86722 0
M  V30 8038 N 820.478 -0.569864 -5.59204 0
M  V30 8039 H 812.629 -1.18622 -1.76189 0
M  V30 8040 H 814.892 -0.476426 -0.819587 0
M  V30 8041 H 814.598 -1.2309 -3.29457 0
M  V30 8042 H 814.472 0.460707 -3.74376 0
M  V30 8043 H 816.859 0.842274 -2.82825 0
M  V30 8044 H 816.94 -0.873661 -2.40418 0
M  V30 8045 H 816.584 -1.47451 -4.86025 0
M  V30 8046 H 816.514 0.260268 -5.25956 0
M  V30 8047 H 819.005 -0.217383 -3.77274 0
M  V30 8048 H 819.318 -1.06734 -7.65394 0
M  V30 8049 H 817.663 -0.953 -6.88435 0
M  V30 8050 H 820.854 -0.35334 -4.66765 0
M  V30 8051 H 821.027 -0.740698 -6.43753 0
M  V30 8052 N 814.433 1.57553 0.0384317 0
M  V30 8053 C 815.681 1.88468 0.729672 0
M  V30 8054 C 816.002 0.831302 1.76393 0
M  V30 8055 O 815.272 -0.13622 1.95426 0
M  V30 8056 H 813.852 0.695529 0.272485 0
M  V30 8057 H 816.514 1.94899 0.0066032 0
M  V30 8058 H 815.61 2.8705 1.22511 0
M  V30 8059 N 815.911 -0.310526 1.54511 0
M  V30 8060 C 817.139 -1.06611 1.77318 0
M  V30 8061 C 817.554 -1.81265 0.528043 0
M  V30 8062 O 816.911 -1.75466 -0.50178 0
M  V30 8063 C 816.962 -2.05409 2.97472 0
M  V30 8064 O 816.683 -1.33785 4.17173 0
M  V30 8065 C 818.184 -2.93082 3.32593 0
M  V30 8066 H 815.404 -0.316578 0.591624 0
M  V30 8067 H 817.948 -0.352691 2.01436 0
M  V30 8068 H 816.103 -2.72266 2.7559 0
M  V30 8069 H 816.517 -2.00055 4.84849 0
M  V30 8070 H 817.991 -3.58274 4.19933 0
M  V30 8071 H 818.468 -3.60877 2.50329 0
M  V30 8072 H 819.074 -2.31768 3.566 0
M  V30 8073 N 817.389 -1.46805 -0.573248 0
M  V30 8074 C 818.635 -1.5283 -1.33307 0
M  V30 8075 C 818.968 -0.183287 -1.93333 0
M  V30 8076 O 818.243 0.806354 -1.76998 0
M  V30 8077 C 818.526 -2.63414 -2.45531 0
M  V30 8078 C 818.379 -4.07478 -1.90478 0
M  V30 8079 C 819.698 -2.70014 -3.47535 0
M  V30 8080 H 816.817 -0.556371 -0.483343 0
M  V30 8081 H 819.459 -1.78787 -0.643066 0
M  V30 8082 H 817.609 -2.41412 -3.04389 0
M  V30 8083 H 819.281 -4.40795 -1.36004 0
M  V30 8084 H 817.524 -4.16511 -1.21248 0
M  V30 8085 H 818.195 -4.80598 -2.71531 0
M  V30 8086 H 820.671 -2.89817 -2.98572 0
M  V30 8087 H 819.547 -3.49192 -4.23504 0
M  V30 8088 H 819.808 -1.76436 -4.05367 0
M  V30 8089 N 818.867 0.818669 -1.34668 0
M  V30 8090 C 820.095 1.60674 -1.30351 0
M  V30 8091 C 820.51 1.88408 0.121546 0
M  V30 8092 O 819.867 1.47849 1.06991 0
M  V30 8093 C 819.918 2.94516 -2.09625 0
M  V30 8094 O 819.639 2.6799 -3.46573 0
M  V30 8095 C 821.14 3.8891 -2.12754 0
M  V30 8096 H 818.36 0.499306 -0.448258 0
M  V30 8097 H 820.904 1.01828 -1.77345 0
M  V30 8098 H 819.059 3.49908 -1.66262 0
M  V30 8099 H 819.473 3.53361 -3.87603 0
M  V30 8100 H 820.947 4.79972 -2.72637 0
M  V30 8101 H 821.424 4.24599 -1.12306 0
M  V30 8102 H 822.03 3.39453 -2.56225 0
M  V30 8103 N 820.346 1.18468 1.03938 0
M  V30 8104 C 821.623 0.890435 1.74157 0
M  V30 8105 C 822.003 -0.606409 2.02203 0
M  V30 8106 O 821.351 -1.5615 1.66822 0
M  V30 8107 C 821.561 1.73906 3.02585 0
M  V30 8108 C 822.909 1.96686 3.76297 0
M  V30 8109 O 823.933 1.70969 3.12487 0
M  V30 8110 O 822.792 2.39986 4.90988 0
M  V30 8111 H 819.886 0.330889 0.757919 0
M  V30 8112 H 822.432 1.29228 1.09992 0
M  V30 8113 H 821.204 2.75369 2.78006 0
M  V30 8114 H 820.827 1.33581 3.74489 0
M  V30 8115 N 821.824 -1.22873 0.986916 0
M  V30 8116 C 823.235 -1.73264 0.695438 0
M  V30 8117 C 823.586 -1.79679 -0.788023 0
M  V30 8118 O 822.711 -1.43905 -1.61618 0
M  V30 8119 C 823.306 -3.14671 1.2557 0
M  V30 8120 C 821.865 -3.62492 1.01373 0
M  V30 8121 C 821.012 -2.40551 1.37951 0
M  V30 8122 H 823.963 -1.08304 1.15999 0
M  V30 8123 H 823.984 -3.75226 0.631322 0
M  V30 8124 H 823.496 -3.0997 2.33539 0
M  V30 8125 H 821.597 -3.72567 -0.0495917 0
M  V30 8126 H 821.71 -4.48944 1.67289 0
M  V30 8127 H 820.074 -2.41875 0.798033 0
M  V30 8128 H 820.857 -2.38516 2.46911 0
M  V30 8129 N 823.302 -0.75937 -1.38099 0
M  V30 8130 C 824.55 -0.317485 -1.99591 0
M  V30 8131 C 824.871 1.10628 -1.60581 0
M  V30 8132 O 824.141 1.7575 -0.865378 0
M  V30 8133 H 822.721 -0.114397 -0.738189 0
M  V30 8134 H 825.383 -0.974749 -1.68774 0
M  V30 8135 H 824.479 -0.385227 -3.09713 0
M  V30 8136 N 824.78 1.49157 -0.508906 0
M  V30 8137 C 826.196 1.58741 -0.165372 0
M  V30 8138 C 826.396 1.5133 1.33047 0
M  V30 8139 O 825.452 1.39135 2.10707 0
M  V30 8140 C 826.765 2.91217 -0.749194 0
M  V30 8141 C 828.313 3.047 -0.716015 0
M  V30 8142 C 828.788 4.39807 -1.27804 0
M  V30 8143 N 830.279 4.46319 -1.23908 0
M  V30 8144 C 831.014 5.49325 -1.64406 0
M  V30 8145 N 830.51 6.59395 -2.12534 0
M  V30 8146 N 832.303 5.40084 -1.55773 0
M  V30 8147 H 824.454 1.52217 -1.48134 0
M  V30 8148 H 826.717 0.721514 -0.614915 0
M  V30 8149 H 826.423 3.02233 -1.79856 0
M  V30 8150 H 826.297 3.76592 -0.214144 0
M  V30 8151 H 828.684 2.9331 0.324535 0
M  V30 8152 H 828.765 2.2099 -1.2883 0
M  V30 8153 H 828.409 4.5195 -2.31741 0
M  V30 8154 H 828.339 5.2217 -0.681623 0
M  V30 8155 H 830.83 3.67354 -0.886537 0
M  V30 8156 H 831.143 7.34102 -2.41485 0
M  V30 8157 H 829.488 6.60414 -2.16513 0
M  V30 8158 H 832.679 4.52986 -1.17987 0
M  V30 8159 H 832.852 6.20233 -1.87657 0
M  V30 8160 N 826.258 0.243083 1.55714 0
M  V30 8161 C 827.504 -0.383287 1.99145 0
M  V30 8162 C 827.837 -1.57868 1.13098 0
M  V30 8163 O 827.112 -1.93535 0.193509 0
M  V30 8164 C 827.395 -0.796879 3.51172 0
M  V30 8165 C 827.248 0.403642 4.47985 0
M  V30 8166 C 828.567 -1.64525 4.08191 0
M  V30 8167 H 825.686 -0.137843 0.723995 0
M  V30 8168 H 828.328 0.343631 1.86867 0
M  V30 8169 H 826.478 -1.41625 3.61766 0
M  V30 8170 H 828.15 1.04204 4.49376 0
M  V30 8171 H 826.393 1.04741 4.20965 0
M  V30 8172 H 827.064 0.0709794 5.51954 0
M  V30 8173 H 829.54 -1.12246 4.00674 0
M  V30 8174 H 828.416 -1.9035 5.14838 0
M  V30 8175 H 828.677 -2.61582 3.56409 0
M  V30 8176 N 827.736 -1.57571 -0.0300757 0
M  V30 8177 C 828.699 -2.05468 -1.01565 0
M  V30 8178 C 829.699 -0.958628 -1.29101 0
M  V30 8179 O 830.889 -1.22228 -1.24121 0
M  V30 8180 C 828.021 -2.47077 -2.34874 0
M  V30 8181 H 829.214 -2.93797 -0.601936 0
M  V30 8182 H 826.767 -1.53828 -0.276878 0
M  V30 8183 H 827.502 -1.61901 -2.80996 0
M  V30 8184 H 827.287 -3.27097 -2.16218 0
M  V30 8185 H 828.777 -2.84564 -3.05635 0
M  V30 8186 N 829.214 0.302327 -1.54673 0
M  V30 8187 C 830.461 1.0377 -1.73891 0
M  V30 8188 C 830.789 1.87309 -0.523979 0
M  V30 8189 O 830.044 1.8936 0.494084 0
M  V30 8190 C 830.343 1.97365 -2.97963 0
M  V30 8191 C 830.009 1.29812 -4.3181 0
M  V30 8192 C 828.671 1.11121 -4.68194 0
M  V30 8193 C 831.023 0.815073 -5.14787 0
M  V30 8194 C 828.351 0.428077 -5.85136 0
M  V30 8195 C 830.703 0.145665 -6.32432 0
M  V30 8196 C 829.367 -0.0532098 -6.67479 0
M  V30 8197 H 828.637 0.379721 -0.636312 0
M  V30 8198 H 831.284 0.312708 -1.8893 0
M  V30 8199 H 829.589 2.76387 -2.777 0
M  V30 8200 H 831.286 2.54331 -3.10027 0
M  V30 8201 H 827.876 1.45366 -4.03196 0
M  V30 8202 H 832.06 0.947191 -4.87178 0
M  V30 8203 H 827.316 0.262995 -6.10834 0
M  V30 8204 H 831.49 -0.236533 -6.95998 0
M  V30 8205 H 829.117 -0.58456 -7.57949 0
M  V30 8206 N 830.692 1.47107 0.565454 0
M  V30 8207 C 831.938 1.53535 1.32495 0
M  V30 8208 C 832.271 0.193537 1.93233 0
M  V30 8209 O 831.546 -0.796956 1.77423 0
M  V30 8210 C 831.829 2.64712 2.4413 0
M  V30 8211 C 831.682 4.08482 1.88314 0
M  V30 8212 C 833.001 2.71853 3.46098 0
M  V30 8213 H 830.12 0.558926 0.480386 0
M  V30 8214 H 832.762 1.79125 0.633575 0
M  V30 8215 H 830.912 2.43023 3.03104 0
M  V30 8216 H 832.584 4.4151 1.33665 0
M  V30 8217 H 830.827 4.17148 1.19037 0
M  V30 8218 H 831.498 4.82032 2.68978 0
M  V30 8219 H 833.974 2.91397 2.97031 0
M  V30 8220 H 832.85 3.51433 4.21646 0
M  V30 8221 H 833.111 1.78584 4.04426 0
M  V30 8222 N 832.17 -0.811516 1.35101 0
M  V30 8223 C 833.417 -1.56835 1.28098 0
M  V30 8224 C 833.745 -1.93951 -0.14597 0
M  V30 8225 O 833 -1.61173 -1.11004 0
M  V30 8226 C 833.299 -2.87121 2.1283 0
M  V30 8227 C 832.965 -2.69245 3.61688 0
M  V30 8228 C 831.627 -2.64078 4.02264 0
M  V30 8229 C 833.979 -2.52122 4.56162 0
M  V30 8230 C 831.307 -2.39724 5.3549 0
M  V30 8231 C 833.659 -2.29298 5.89581 0
M  V30 8232 C 832.323 -2.2255 6.29307 0
M  V30 8233 H 831.593 -0.5739 0.468742 0
M  V30 8234 H 834.24 -0.93806 1.66951 0
M  V30 8235 H 832.545 -3.54502 1.66841 0
M  V30 8236 H 834.242 -3.44788 2.0475 0
M  V30 8237 H 830.832 -2.74112 3.29485 0
M  V30 8238 H 835.016 -2.5513 4.25702 0
M  V30 8239 H 830.272 -2.32965 5.65276 0
M  V30 8240 H 834.446 -2.15038 6.62368 0
M  V30 8241 H 832.073 -2.0344 7.32473 0
M  V30 8242 N 833.648 -1.19017 -1.03309 0
M  V30 8243 C 835.059 -0.993206 -1.5809 0
M  V30 8244 C 835.41 0.45505 -1.9085 0
M  V30 8245 O 834.535 1.33372 -1.70414 0
M  V30 8246 C 835.13 -1.79661 -2.87241 0
M  V30 8247 C 833.689 -1.64377 -3.38611 0
M  V30 8248 C 832.836 -1.78628 -2.12102 0
M  V30 8249 H 835.787 -1.3345 -0.858879 0
M  V30 8250 H 835.808 -1.29019 -3.57958 0
M  V30 8251 H 835.32 -2.85061 -2.63366 0
M  V30 8252 H 833.421 -0.615447 -3.67482 0
M  V30 8253 H 833.534 -2.44651 -4.11926 0
M  V30 8254 H 831.898 -1.21648 -2.23772 0
M  V30 8255 H 832.681 -2.8548 -1.90673 0
M  V30 8256 N 835.127 1.22348 -0.993418 0
M  V30 8257 C 836.375 1.90733 -0.668246 0
M  V30 8258 C 836.696 1.77732 0.802261 0
M  V30 8259 O 835.966 1.16486 1.57505 0
M  V30 8260 H 834.546 0.705966 -0.244174 0
M  V30 8261 H 837.208 1.48691 -1.26004 0
M  V30 8262 H 836.304 2.97883 -0.931239 0
M  V30 8263 N 836.605 0.766683 1.37694 0
M  V30 8264 C 837.537 0.107798 2.28946 0
M  V30 8265 C 838.55 -0.669701 1.48387 0
M  V30 8266 O 839.739 -0.508629 1.711 0
M  V30 8267 C 836.839 -0.871084 3.27514 0
M  V30 8268 C 836.012 -0.148471 4.37148 0
M  V30 8269 C 835.071 -1.03998 5.1582 0
M  V30 8270 O 834.097 -0.505639 5.6695 0
M  V30 8271 N 835.299 -2.36679 5.3006 0
M  V30 8272 H 838.064 0.89154 2.86132 0
M  V30 8273 H 835.625 0.618593 1.49616 0
M  V30 8274 H 837.617 -1.47081 3.77027 0
M  V30 8275 H 836.187 -1.55582 2.71133 0
M  V30 8276 H 835.407 0.632117 3.89099 0
M  V30 8277 H 836.695 0.351045 5.07588 0
M  V30 8278 H 836.093 -2.82532 4.90094 0
M  V30 8279 H 834.65 -2.9167 5.82899 0
M  V30 8280 N 838.083 -1.48885 0.516809 0
M  V30 8281 C 839.331 -2.02088 -0.0220166 0
M  V30 8282 C 839.652 -1.39735 -1.36011 0
M  V30 8283 O 838.922 -0.558119 -1.87781 0
M  V30 8284 H 837.502 -0.746917 -0.0111255 0
M  V30 8285 H 840.164 -1.8274 0.677647 0
M  V30 8286 H 839.26 -3.11786 -0.140067 0
M  V30 8287 N 839.561 -0.251338 -1.55583 0
M  V30 8288 C 840.789 0.376187 -2.03451 0
M  V30 8289 C 841.204 1.51215 -1.13047 0
M  V30 8290 O 840.561 1.81917 -0.145769 0
M  V30 8291 C 840.612 0.879779 -3.50631 0
M  V30 8292 O 840.333 -0.210917 -4.37592 0
M  V30 8293 C 841.834 1.57754 -4.14281 0
M  V30 8294 H 839.054 0.0888722 -0.665089 0
M  V30 8295 H 841.598 -0.376497 -2.01004 0
M  V30 8296 H 839.753 1.58263 -3.53598 0
M  V30 8297 H 840.167 0.172203 -5.24217 0
M  V30 8298 H 841.641 1.88158 -5.18942 0
M  V30 8299 H 842.118 2.50103 -3.61034 0
M  V30 8300 H 842.724 0.919154 -4.15249 0
M  V30 8301 N 841.039 1.57585 0.0217189 0
M  V30 8302 C 841.971 2.03849 1.04777 0
M  V30 8303 C 842.984 0.952558 1.32023 0
M  V30 8304 O 844.173 1.22974 1.29381 0
M  V30 8305 C 841.273 2.40504 2.3877 0
M  V30 8306 C 840.446 3.71566 2.30775 0
M  V30 8307 C 839.505 3.95329 3.47277 0
M  V30 8308 O 838.531 4.66289 3.26441 0
M  V30 8309 N 839.733 3.41536 4.69397 0
M  V30 8310 H 842.498 2.92491 0.653395 0
M  V30 8311 H 840.059 1.60538 0.209527 0
M  V30 8312 H 842.051 2.53532 3.15442 0
M  V30 8313 H 840.621 1.57494 2.70027 0
M  V30 8314 H 839.841 3.68822 1.39155 0
M  V30 8315 H 841.129 4.5753 2.22584 0
M  V30 8316 H 840.527 2.84033 4.89226 0
M  V30 8317 H 839.084 3.59932 5.43408 0
M  V30 8318 N 842.517 -0.29412 1.54831 0
M  V30 8319 C 843.763 -1.02602 1.75626 0
M  V30 8320 C 844.118 -1.84689 0.539232 0
M  V30 8321 O 843.411 -1.85788 -0.468322 0
M  V30 8322 C 843.605 -1.95782 2.99006 0
M  V30 8323 C 843.434 -1.22861 4.32591 0
M  V30 8324 C 842.204 -0.95294 4.96233 0
M  V30 8325 C 844.402 -0.629592 5.10432 0
M  V30 8326 N 842.384 -0.194728 6.13591 0
M  V30 8327 C 843.755 -0.00449586 6.2 0
M  V30 8328 C 845.81 -0.535327 4.95014 0
M  V30 8329 C 844.513 0.705754 7.15829 0
M  V30 8330 C 846.539 0.161284 5.9118 0
M  V30 8331 C 845.901 0.775203 7.00121 0
M  V30 8332 H 842 -0.358143 0.695167 0
M  V30 8333 H 844.584 -0.303896 1.92314 0
M  V30 8334 H 842.755 -2.65238 2.83731 0
M  V30 8335 H 844.487 -2.62175 3.08296 0
M  V30 8336 H 841.242 -1.25285 4.56728 0
M  V30 8337 H 841.666 0.171093 6.76784 0
M  V30 8338 H 846.308 -0.995662 4.10909 0
M  V30 8339 H 844.026 1.17784 7.9947 0
M  V30 8340 H 847.612 0.234256 5.81328 0
M  V30 8341 H 846.492 1.30566 7.73254 0
M  V30 8342 N 843.995 -1.47404 -0.557645 0
M  V30 8343 C 844.958 -1.59411 -1.64684 0
M  V30 8344 C 845.958 -0.469244 -1.53801 0
M  V30 8345 O 847.148 -0.734298 -1.57967 0
M  V30 8346 C 844.28 -1.5382 -3.04224 0
M  V30 8347 H 845.473 -2.56504 -1.55389 0
M  V30 8348 H 843.026 -1.35588 -0.777531 0
M  V30 8349 H 843.761 -0.581 -3.19053 0
M  V30 8350 H 843.546 -2.35456 -3.13533 0
M  V30 8351 H 845.036 -1.65358 -3.83466 0
M  V30 8352 N 845.473 0.80434 -1.35529 0
M  V30 8353 C 846.721 1.55845 -1.28673 0
M  V30 8354 C 847.042 1.94511 0.137976 0
M  V30 8355 O 846.312 1.63775 1.07492 0
M  V30 8356 H 844.892 0.577931 -0.473291 0
M  V30 8357 H 847.554 0.959293 -1.69657 0
M  V30 8358 H 846.65 2.47285 -1.90411 0
M  V30 8359 N 846.951 1.19563 1.02676 0
M  V30 8360 C 847.884 0.878638 2.10607 0
M  V30 8361 C 848.862 -0.165176 1.61759 0
M  V30 8362 O 850.046 -0.041014 1.88455 0
M  V30 8363 C 847.173 0.315347 3.37229 0
M  V30 8364 C 846.219 1.33855 4.04951 0
M  V30 8365 S 847.052 2.89982 4.50189 0
M  V30 8366 C 848.208 2.35202 5.80027 0
M  V30 8367 H 848.441 1.79268 2.37171 0
M  V30 8368 H 845.974 1.023 1.15646 0
M  V30 8369 H 847.932 -0.00311911 4.105 0
M  V30 8370 H 846.593 -0.577035 3.08754 0
M  V30 8371 H 845.786 0.893581 4.96015 0
M  V30 8372 H 845.388 1.60397 3.37859 0
M  V30 8373 H 847.68 1.74329 6.54687 0
M  V30 8374 H 848.623 3.24622 6.29306 0
M  V30 8375 H 849.031 1.77702 5.35801 0
M  V30 8376 N 848.429 -1.21819 0.999893 0
M  V30 8377 C 849.677 -1.90375 0.678351 0
M  V30 8378 C 849.998 -1.78155 -0.792824 0
M  V30 8379 O 849.268 -1.17319 -1.56885 0
M  V30 8380 H 847.848 -0.704661 0.247915 0
M  V30 8381 H 850.51 -1.48021 1.2679 0
M  V30 8382 H 849.606 -2.97385 0.947023 0
M  V30 8383 N 849.908 -0.773975 -1.37286 0
M  V30 8384 C 850.871 -0.167974 -2.28584 0
M  V30 8385 C 851.871 0.625662 -1.48129 0
M  V30 8386 O 853.061 0.448924 -1.68316 0
M  V30 8387 C 850.193 0.769364 -3.32105 0
M  V30 8388 H 851.386 -0.972806 -2.83684 0
M  V30 8389 H 848.939 -0.542335 -1.46589 0
M  V30 8390 H 849.674 1.59912 -2.82132 0
M  V30 8391 H 849.459 0.202419 -3.91577 0
M  V30 8392 H 850.949 1.18872 -4.00324 0
M  V30 8393 N 851.386 1.48609 -0.524698 0
M  V30 8394 C 852.296 2.33318 0.244923 0
M  V30 8395 C 853.312 1.46153 0.944214 0
M  V30 8396 O 854.488 1.79141 0.920347 0
M  V30 8397 C 851.553 3.22149 1.28144 0
M  V30 8398 C 850.614 4.25184 0.593068 0
M  V30 8399 C 849.847 5.0977 1.5802 0
M  V30 8400 O 850.07 4.96249 2.81235 0
M  V30 8401 O 849.004 5.9134 1.1225 0
M  V30 8402 H 852.83 3.00362 -0.449066 0
M  V30 8403 H 850.415 1.46643 -0.285689 0
M  V30 8404 H 852.297 3.77111 1.88057 0
M  V30 8405 H 850.972 2.57772 1.95793 0
M  V30 8406 H 849.879 3.74071 -0.0464214 0
M  V30 8407 H 851.212 4.92183 -0.0413893 0
M  V30 8408 N 852.864 0.259585 1.55447 0
M  V30 8409 C 853.794 -0.62852 2.24882 0
M  V30 8410 C 854.775 -1.17128 1.23349 0
M  V30 8411 O 855.96 -1.20829 1.52033 0
M  V30 8412 C 853.09 -1.81983 2.95803 0
M  V30 8413 C 852.044 -1.40929 4.04132 0
M  V30 8414 C 851.37 -2.68246 4.62545 0
M  V30 8415 C 852.67 -0.570956 5.1917 0
M  V30 8416 H 854.364 -0.0495021 2.99359 0
M  V30 8417 H 851.91 -0.0223688 1.43983 0
M  V30 8418 H 853.863 -2.44689 3.43082 0
M  V30 8419 H 852.587 -2.42444 2.18835 0
M  V30 8420 H 851.246 -0.805519 3.57641 0
M  V30 8421 H 850.894 -3.26931 3.82263 0
M  V30 8422 H 850.594 -2.41495 5.35681 0
M  V30 8423 H 852.118 -3.31827 5.12565 0
M  V30 8424 H 853.532 -1.10262 5.62597 0
M  V30 8425 H 851.929 -0.398979 5.98772 0
M  V30 8426 H 852.999 0.413918 4.8313 0
M  V30 8427 N 854.342 -1.57594 -0.0133615 0
M  V30 8428 C 855.272 -2.10611 -1.00823 0
M  V30 8429 C 856.253 -1.01217 -1.36708 0
M  V30 8430 O 857.438 -1.28827 -1.45318 0
M  V30 8431 C 854.568 -2.59844 -2.30431 0
M  V30 8432 C 853.522 -3.73644 -2.08745 0
M  V30 8433 C 852.848 -4.09141 -3.4425 0
M  V30 8434 C 854.148 -5.01454 -1.46086 0
M  V30 8435 H 855.842 -2.93985 -0.566849 0
M  V30 8436 H 853.388 -1.41423 -0.271219 0
M  V30 8437 H 855.341 -2.95557 -3.00373 0
M  V30 8438 H 854.065 -1.73573 -2.76658 0
M  V30 8439 H 852.724 -3.38303 -1.41232 0
M  V30 8440 H 852.372 -3.19914 -3.88155 0
M  V30 8441 H 852.072 -4.85802 -3.3056 0
M  V30 8442 H 853.596 -4.47402 -4.15528 0
M  V30 8443 H 855.01 -5.35024 -2.05966 0
M  V30 8444 H 853.407 -5.82832 -1.42924 0
M  V30 8445 H 854.477 -4.83003 -0.428471 0
M  V30 8446 N 855.82 0.285905 -1.54985 0
M  V30 8447 C 857.097 1.0397 -1.65679 0
M  V30 8448 C 857.477 2.04725 -0.514851 0
M  V30 8449 O 856.825 2.23257 0.486663 0
M  V30 8450 C 857.035 1.70807 -3.04345 0
M  V30 8451 C 858.383 2.22447 -3.61666 0
M  V30 8452 O 859.407 1.80815 -3.06895 0
M  V30 8453 O 858.266 2.98773 -4.57599 0
M  V30 8454 H 855.36 0.481473 -0.672394 0
M  V30 8455 H 857.906 0.282789 -1.67327 0
M  V30 8456 H 856.678 0.977271 -3.789 0
M  V30 8457 H 856.301 2.53217 -3.06541 0
M  V30 8458 N 857.298 1.47698 0.54982 0
M  V30 8459 C 858.523 1.58579 1.33669 0
M  V30 8460 C 858.948 0.239049 1.86575 0
M  V30 8461 O 858.306 -0.786256 1.63364 0
M  V30 8462 C 858.354 2.62029 2.47736 0
M  V30 8463 O 857.458 2.17813 3.50188 0
M  V30 8464 H 856.799 0.532447 0.396732 0
M  V30 8465 H 859.329 1.93536 0.6637 0
M  V30 8466 H 859.339 2.82682 2.94202 0
M  V30 8467 H 858.014 3.59812 2.08586 0
M  V30 8468 H 856.591 2.07291 3.09976 0
M  V30 8469 N 858.776 -0.797141 1.35954 0
M  V30 8470 C 860.001 -1.59097 1.33053 0
M  V30 8471 C 860.426 -1.87897 -0.0874592 0
M  V30 8472 O 859.784 -1.47291 -1.05712 0
M  V30 8473 C 859.832 -2.89346 2.152 0
M  V30 8474 O 858.936 -3.826 1.5392 0
M  V30 8475 H 858.277 -0.482895 0.45575 0
M  V30 8476 H 860.807 -0.988633 1.79129 0
M  V30 8477 H 860.817 -3.38686 2.27499 0
M  V30 8478 H 859.492 -2.6771 3.18283 0
M  V30 8479 H 858.069 -3.41174 1.50516 0
M  V30 8480 N 860.254 -1.20106 -1.0204 0
M  V30 8481 C 861.665 -1.00992 -1.57027 0
M  V30 8482 C 862.016 0.434782 -1.91322 0
M  V30 8483 O 861.141 1.31557 -1.71819 0
M  V30 8484 C 861.736 -1.82697 -2.85319 0
M  V30 8485 C 860.295 -1.67959 -3.36848 0
M  V30 8486 C 859.442 -1.80868 -2.10195 0
M  V30 8487 H 862.393 -1.34354 -0.844676 0
M  V30 8488 H 862.414 -1.32809 -3.5657 0
M  V30 8489 H 861.926 -2.87839 -2.60328 0
M  V30 8490 H 860.027 -0.654389 -3.66809 0
M  V30 8491 H 860.14 -2.49006 -4.09308 0
M  V30 8492 H 858.504 -1.24015 -2.22469 0
M  V30 8493 H 859.287 -2.87486 -1.87635 0
M  V30 8494 N 861.732 1.21287 -1.00634 0
M  V30 8495 C 862.642 2.27388 -0.577226 0
M  V30 8496 C 863.658 1.69791 0.380399 0
M  V30 8497 O 864.834 1.99918 0.2439 0
M  V30 8498 C 861.899 3.46588 0.0880532 0
M  V30 8499 C 860.96 4.19453 -0.914222 0
M  V30 8500 C 860.193 5.32962 -0.280596 0
M  V30 8501 O 860.416 5.62895 0.922265 0
M  V30 8502 O 859.35 5.93666 -0.992196 0
M  V30 8503 H 863.176 2.66289 -1.46028 0
M  V30 8504 H 860.761 1.2771 -0.775283 0
M  V30 8505 H 862.643 4.18881 0.460094 0
M  V30 8506 H 861.318 3.09585 0.945461 0
M  V30 8507 H 860.225 3.49376 -1.33744 0
M  V30 8508 H 861.558 4.6037 -1.74126 0
M  V30 8509 N 863.21 0.781244 1.36873 0
M  V30 8510 C 864.457 0.349889 1.99454 0
M  V30 8511 C 864.785 -1.07621 1.62013 0
M  V30 8512 O 864.04 -1.75665 0.86258 0
M  V30 8513 C 864.339 0.45146 3.54537 0
M  V30 8514 C 864.005 1.83718 4.11775 0
M  V30 8515 C 862.667 2.21634 4.2712 0
M  V30 8516 C 865.019 2.7449 4.43063 0
M  V30 8517 C 862.347 3.49742 4.7106 0
M  V30 8518 C 864.699 4.02017 4.88431 0
M  V30 8519 C 863.363 4.39967 5.01982 0
M  V30 8520 H 862.633 0.128033 0.729855 0
M  V30 8521 H 865.28 0.997117 1.63493 0
M  V30 8522 H 863.585 -0.279288 3.90803 0
M  V30 8523 H 865.282 0.0988609 4.00878 0
M  V30 8524 H 861.872 1.53251 4.00265 0
M  V30 8525 H 866.056 2.46453 4.30783 0
M  V30 8526 H 861.312 3.79026 4.79738 0
M  V30 8527 H 865.486 4.72475 5.11605 0
M  V30 8528 H 863.113 5.39291 5.35788 0
M  V30 8529 N 864.689 -1.48329 0.532571 0
M  V30 8530 C 865.652 -2.2816 -0.218069 0
M  V30 8531 C 866.652 -1.35526 -0.865409 0
M  V30 8532 O 867.842 -1.58394 -0.725061 0
M  V30 8533 C 864.974 -3.1448 -1.31586 0
M  V30 8534 H 866.167 -2.95987 0.482865 0
M  V30 8535 H 863.72 -1.53612 0.288603 0
M  V30 8536 H 864.455 -2.5129 -2.04997 0
M  V30 8537 H 864.24 -3.82625 -0.856779 0
M  V30 8538 H 865.73 -3.74693 -1.84377 0
M  V30 8539 N 866.167 -0.267825 -1.55308 0
M  V30 8540 C 867.13 0.60965 -2.20943 0
M  V30 8541 C 868.13 1.0869 -1.18504 0
M  V30 8542 O 869.32 0.988248 -1.43455 0
M  V30 8543 C 866.452 1.84027 -2.86961 0
M  V30 8544 H 867.645 0.0366806 -2.99878 0
M  V30 8545 H 865.198 -0.0183941 -1.56289 0
M  V30 8546 H 865.933 2.45394 -2.1202 0
M  V30 8547 H 865.718 1.50605 -3.62023 0
M  V30 8548 H 867.208 2.46442 -3.37129 0
M  V30 8549 N 867.645 1.57599 0.00500368 0
M  V30 8550 C 868.608 2.07058 0.982832 0
M  V30 8551 C 869.608 0.979045 1.27559 0
M  V30 8552 O 870.798 1.24187 1.22161 0
M  V30 8553 C 867.93 2.50782 2.30914 0
M  V30 8554 H 869.123 2.94718 0.555119 0
M  V30 8555 H 866.676 1.54249 0.25237 0
M  V30 8556 H 867.411 1.66351 2.78385 0
M  V30 8557 H 867.196 3.30495 2.10987 0
M  V30 8558 H 868.686 2.89391 3.0107 0
M  V30 8559 N 869.123 -0.277682 1.55134 0
M  V30 8560 C 870.056 -1.3685 1.82612 0
M  V30 8561 C 871.034 -1.47752 0.678833 0
M  V30 8562 O 872.218 -1.6445 0.921329 0
M  V30 8563 C 869.345 -2.74539 1.98359 0
M  V30 8564 C 868.391 -2.80945 3.20893 0
M  V30 8565 S 869.224 -2.40666 4.78373 0
M  V30 8566 C 870.38 -3.80338 4.97085 0
M  V30 8567 H 870.613 -1.13338 2.74849 0
M  V30 8568 H 868.146 -0.477063 1.46845 0
M  V30 8569 H 870.104 -3.53834 2.08115 0
M  V30 8570 H 868.765 -2.95306 1.07019 0
M  V30 8571 H 867.958 -3.81992 3.28783 0
M  V30 8572 H 867.56 -2.09667 3.09703 0
M  V30 8573 H 869.852 -4.75565 4.8254 0
M  V30 8574 H 870.795 -3.77403 5.99143 0
M  V30 8575 H 871.203 -3.71424 4.25094 0
M  V30 8576 N 870.601 -1.47988 -0.541979 0
M  V30 8577 C 871.564 -1.61148 -1.62984 0
M  V30 8578 C 872.564 -0.48553 -1.53295 0
M  V30 8579 O 873.754 -0.751012 -1.5718 0
M  V30 8580 C 870.886 -1.57038 -3.02576 0
M  V30 8581 H 872.079 -2.58138 -1.52659 0
M  V30 8582 H 869.632 -1.36405 -0.763106 0
M  V30 8583 H 870.367 -0.614807 -3.18419 0
M  V30 8584 H 870.152 -2.38769 -3.11018 0
M  V30 8585 H 871.642 -1.69416 -3.81691 0
M  V30 8586 N 872.079 0.78992 -1.36375 0
M  V30 8587 C 872.989 1.93386 -1.32812 0
M  V30 8588 C 874.005 1.72468 -0.230377 0
M  V30 8589 O 875.181 1.96014 -0.462657 0
M  V30 8590 C 872.246 3.2824 -1.11621 0
M  V30 8591 C 871.307 3.61939 -2.30865 0
M  V30 8592 C 870.54 4.90359 -2.10675 0
M  V30 8593 O 870.763 5.6005 -1.08168 0
M  V30 8594 O 869.697 5.22702 -2.9844 0
M  V30 8595 H 873.523 1.99342 -2.29121 0
M  V30 8596 H 871.108 0.9301 -1.16917 0
M  V30 8597 H 872.99 4.08939 -1.01719 0
M  V30 8598 H 871.665 3.23178 -0.183732 0
M  V30 8599 H 870.572 2.81549 -2.46335 0
M  V30 8600 H 871.905 3.71725 -3.22617 0
M  V30 8601 N 873.557 1.20646 1.01402 0
M  V30 8602 C 874.797 1.02951 1.7658 0
M  V30 8603 C 875.161 -0.430522 1.87111 0
M  V30 8604 O 876.362 -0.727727 2.58762 0
M  V30 8605 C 874.633 1.69728 3.14527 0
M  V30 8606 S 876.192 1.6717 4.05709 0
M  V30 8607 H 873.01 0.36911 0.607683 0
M  V30 8608 H 875.612 1.53243 1.21395 0
M  V30 8609 H 874.316 2.75162 3.0449 0
M  V30 8610 H 873.847 1.19578 3.74786 0
M  V30 8611 H 875.862 0.706397 4.91146 0
M  V30 8612 N 875.035 -1.20752 1.01276 0
M  V30 8613 C 875.945 -2.27079 0.589277 0
M  V30 8614 C 876.961 -1.6999 -0.371389 0
M  V30 8615 O 878.137 -2.00044 -0.233294 0
M  V30 8616 C 875.202 -3.4663 -0.0696715 0
M  V30 8617 C 874.263 -4.18962 0.936454 0
M  V30 8618 C 873.496 -5.32806 0.308856 0
M  V30 8619 O 873.719 -5.63376 -0.8924 0
M  V30 8620 O 872.653 -5.93131 1.02367 0
M  V30 8621 H 876.479 -2.6551 1.47438 0
M  V30 8622 H 874.064 -1.27297 0.782045 0
M  V30 8623 H 875.946 -4.19119 -0.437873 0
M  V30 8624 H 874.621 -3.10082 -0.929029 0
M  V30 8625 H 873.528 -3.48661 1.35595 0
M  V30 8626 H 874.861 -4.59441 1.76565 0
M  V30 8627 N 876.513 -0.788492 -1.36457 0
M  V30 8628 C 877.741 -0.372365 -2.03522 0
M  V30 8629 C 878.156 1.01093 -1.59454 0
M  V30 8630 O 877.513 1.64824 -0.783535 0
M  V30 8631 C 877.564 -0.425435 -3.58988 0
M  V30 8632 O 877.285 -1.75418 -4.01448 0
M  V30 8633 C 878.786 0.000180167 -4.433 0
M  V30 8634 H 876.006 -0.1536 -0.653183 0
M  V30 8635 H 878.55 -1.06708 -1.74452 0
M  V30 8636 H 876.705 0.220856 -3.8677 0
M  V30 8637 H 877.119 -1.70437 -4.96036 0
M  V30 8638 H 878.593 -0.0880919 -5.5193 0
M  V30 8639 H 879.07 1.05269 -4.26398 0
M  V30 8640 H 879.676 -0.618563 -4.20778 0
M  V30 8641 N 877.991 1.48044 -0.54043 0
M  V30 8642 C 878.954 2.28273 0.205966 0
M  V30 8643 C 879.954 1.35983 0.858209 0
M  V30 8644 O 881.144 1.58776 0.716651 0
M  V30 8645 C 878.276 3.15174 1.29917 0
M  V30 8646 H 879.469 2.95727 -0.498555 0
M  V30 8647 H 877.022 1.53457 -0.296745 0
M  V30 8648 H 877.757 2.52374 2.03661 0
M  V30 8649 H 877.542 3.83074 0.836475 0
M  V30 8650 H 879.032 3.75666 1.82387 0
M  V30 8651 N 879.47 0.276058 1.55163 0
M  V30 8652 C 880.4 -0.604633 2.25536 0
M  V30 8653 C 881.381 -1.15813 1.24585 0
M  V30 8654 O 882.566 -1.1921 1.53306 0
M  V30 8655 C 879.696 -1.78836 2.97716 0
M  V30 8656 C 878.65 -1.36635 4.05604 0
M  V30 8657 C 877.976 -2.63325 4.65364 0
M  V30 8658 C 879.276 -0.515858 5.19746 0
M  V30 8659 H 880.97 -0.0177483 2.99395 0
M  V30 8660 H 878.516 -0.00709627 1.43998 0
M  V30 8661 H 880.469 -2.41036 3.45658 0
M  V30 8662 H 879.193 -2.40109 2.21394 0
M  V30 8663 H 877.852 -0.767541 3.58475 0
M  V30 8664 H 877.5 -3.22858 3.85709 0
M  V30 8665 H 877.2 -2.358 5.38212 0
M  V30 8666 H 878.724 -3.26372 5.16056 0
M  V30 8667 H 880.138 -1.04289 5.63735 0
M  V30 8668 H 878.535 -0.335449 5.99162 0
M  V30 8669 H 879.605 0.465137 4.82664 0
M  V30 8670 N 880.948 -1.576 0.00335426 0
M  V30 8671 C 882.173 -1.95398 -0.695311 0
M  V30 8672 C 882.598 -0.878476 -1.66326 0
M  V30 8673 O 881.956 0.163086 -1.80565 0
M  V30 8674 C 882.004 -3.32293 -1.40049 0
M  V30 8675 O 881.108 -3.26834 -2.51502 0
M  V30 8676 H 880.449 -0.637796 -0.184694 0
M  V30 8677 H 882.979 -2.04519 0.057543 0
M  V30 8678 H 882.989 -3.67936 -1.76316 0
M  V30 8679 H 881.664 -4.10123 -0.690803 0
M  V30 8680 H 880.241 -3.02872 -2.17539 0
M  V30 8681 N 882.426 0.269451 -1.5528 0
M  V30 8682 C 883.837 0.840233 -1.66724 0
M  V30 8683 C 884.188 1.86909 -0.596621 0
M  V30 8684 O 883.313 2.14817 0.261246 0
M  V30 8685 C 883.908 1.5308 -3.02245 0
M  V30 8686 C 882.467 2.04957 -3.15705 0
M  V30 8687 C 881.614 0.892838 -2.62533 0
M  V30 8688 H 884.565 0.0457236 -1.58634 0
M  V30 8689 H 884.586 2.39792 -2.95432 0
M  V30 8690 H 884.098 0.781741 -3.80145 0
M  V30 8691 H 882.199 2.82813 -2.42585 0
M  V30 8692 H 882.312 2.26244 -4.22316 0
M  V30 8693 H 880.676 1.28719 -2.19781 0
M  V30 8694 H 881.459 0.157229 -3.4294 0
M  V30 8695 N 883.904 1.48273 0.534124 0
M  V30 8696 C 885.134 1.59503 1.31311 0
M  V30 8697 C 885.542 0.25284 1.87503 0
M  V30 8698 O 884.885 -0.767399 1.66903 0
M  V30 8699 C 884.947 2.57899 2.50456 0
M  V30 8700 C 884.611 4.03063 2.15382 0
M  V30 8701 C 885.608 4.90869 1.713 0
M  V30 8702 C 883.293 4.4857 2.26032 0
M  V30 8703 C 885.287 6.22209 1.38328 0
M  V30 8704 C 882.974 5.79932 1.92672 0
M  V30 8705 C 883.972 6.66574 1.4889 0
M  V30 8706 O 883.66 7.95492 1.15966 0
M  V30 8707 H 883.392 0.540695 0.405739 0
M  V30 8708 H 885.946 1.94794 0.651497 0
M  V30 8709 H 884.176 2.1772 3.19585 0
M  V30 8710 H 885.865 2.59008 3.12522 0
M  V30 8711 H 886.631 4.56951 1.62545 0
M  V30 8712 H 882.51 3.81321 2.59066 0
M  V30 8713 H 886.054 6.89792 1.04082 0
M  V30 8714 H 881.951 6.13386 2.01066 0
M  V30 8715 H 882.719 8.08207 1.29399 0
M  V30 8716 N 885.382 -0.782676 1.36792 0
M  V30 8717 C 886.628 -1.54311 1.3159 0
M  V30 8718 C 886.961 -1.93928 -0.102696 0
M  V30 8719 O 886.236 -1.63233 -1.05761 0
M  V30 8720 C 886.519 -2.81561 2.24489 0
M  V30 8721 C 886.372 -2.48268 3.75078 0
M  V30 8722 C 887.691 -3.83428 2.16034 0
M  V30 8723 H 884.81 -0.559828 0.479335 0
M  V30 8724 H 887.452 -0.898717 1.67401 0
M  V30 8725 H 885.602 -3.36549 1.9408 0
M  V30 8726 H 887.274 -1.99279 4.16036 0
M  V30 8727 H 885.517 -1.81116 3.94182 0
M  V30 8728 H 886.188 -3.39183 4.35499 0
M  V30 8729 H 888.664 -3.37905 2.42815 0
M  V30 8730 H 887.54 -4.70204 2.83194 0
M  V30 8731 H 887.801 -4.26887 1.14976 0
M  V30 8732 N 886.86 -1.21182 -1.00761 0
M  V30 8733 C 888.137 -0.936297 -1.71735 0
M  V30 8734 C 888.517 0.552585 -2.03739 0
M  V30 8735 O 887.865 1.51672 -1.70903 0
M  V30 8736 C 888.075 -1.81867 -2.97868 0
M  V30 8737 C 889.423 -2.06594 -3.7095 0
M  V30 8738 O 890.447 -1.79194 -3.07844 0
M  V30 8739 O 889.306 -2.5292 -4.84452 0
M  V30 8740 H 886.4 -0.350867 -0.74888 0
M  V30 8741 H 888.946 -1.32098 -1.06527 0
M  V30 8742 H 887.718 -2.82643 -2.70607 0
M  V30 8743 H 887.341 -1.43463 -3.70815 0
M  V30 8744 N 888.338 1.20213 -1.01915 0
M  V30 8745 C 889.584 1.90203 -0.720724 0
M  V30 8746 C 889.939 1.77526 0.74178 0
M  V30 8747 O 889.232 1.15037 1.53222 0
M  V30 8748 C 889.426 3.40232 -1.09438 0
M  V30 8749 C 889.255 3.67509 -2.59167 0
M  V30 8750 C 888.025 3.86082 -3.25989 0
M  V30 8751 C 890.223 3.69863 -3.5736 0
M  V30 8752 N 888.205 4.009 -4.64922 0
M  V30 8753 C 889.576 3.90136 -4.81865 0
M  V30 8754 C 891.631 3.52839 -3.51296 0
M  V30 8755 C 890.334 3.9515 -6.0104 0
M  V30 8756 C 892.36 3.59125 -4.69875 0
M  V30 8757 C 891.722 3.79874 -5.93191 0
M  V30 8758 H 887.821 0.715556 -0.315442 0
M  V30 8759 H 890.405 1.44538 -1.30449 0
M  V30 8760 H 888.576 3.84643 -0.538933 0
M  V30 8761 H 890.308 3.97704 -0.74923 0
M  V30 8762 H 887.063 3.84569 -2.76413 0
M  V30 8763 H 887.487 4.12181 -5.37062 0
M  V30 8764 H 892.129 3.35762 -2.56951 0
M  V30 8765 H 889.847 4.11022 -6.95763 0
M  V30 8766 H 893.433 3.47257 -4.66802 0
M  V30 8767 H 892.313 3.846 -6.83412 0
M  V30 8768 N 889.816 0.795718 1.36037 0
M  V30 8769 C 891.041 0.38204 2.03851 0
M  V30 8770 C 891.466 -0.995553 1.59594 0
M  V30 8771 O 890.824 -1.64258 0.767401 0
M  V30 8772 C 890.872 0.461248 3.57638 0
M  V30 8773 O 889.976 -0.529448 4.08987 0
M  V30 8774 H 889.317 0.161227 0.644129 0
M  V30 8775 H 891.847 1.07858 1.73861 0
M  V30 8776 H 891.857 0.32712 4.06687 0
M  V30 8777 H 890.532 1.46613 3.89201 0
M  V30 8778 H 889.109 -0.35646 3.71192 0
M  V30 8779 N 891.294 -1.47756 0.548274 0
M  V30 8780 C 892.224 -2.32702 -0.19284 0
M  V30 8781 C 893.205 -1.43237 -0.917457 0
M  V30 8782 O 894.39 -1.72103 -0.89967 0
M  V30 8783 C 891.52 -3.24831 -1.22891 0
M  V30 8784 C 890.474 -4.23466 -0.621312 0
M  V30 8785 C 889.8 -5.04856 -1.76137 0
M  V30 8786 C 891.1 -5.20616 0.419055 0
M  V30 8787 H 892.794 -2.94914 0.516323 0
M  V30 8788 H 890.34 -1.41818 0.24975 0
M  V30 8789 H 892.293 -3.83094 -1.75547 0
M  V30 8790 H 891.017 -2.60656 -1.9679 0
M  V30 8791 H 889.676 -3.66416 -0.116123 0
M  V30 8792 H 889.324 -4.37091 -2.48918 0
M  V30 8793 H 889.024 -5.71629 -1.36065 0
M  V30 8794 H 890.548 -5.65976 -2.29136 0
M  V30 8795 H 891.962 -5.73296 -0.0211034 0
M  V30 8796 H 890.359 -5.95543 0.738163 0
M  V30 8797 H 891.429 -4.66638 1.31822 0
M  V30 8798 N 892.772 -0.284283 -1.55015 0
M  V30 8799 C 893.682 0.60906 -2.26556 0
M  V30 8800 C 894.698 1.16246 -1.29472 0
M  V30 8801 O 895.874 1.1908 -1.62425 0
M  V30 8802 C 892.939 1.77246 -2.97968 0
M  V30 8803 C 892 1.25482 -4.10552 0
M  V30 8804 C 891.233 2.36277 -4.78549 0
M  V30 8805 O 891.456 3.55829 -4.45805 0
M  V30 8806 O 890.39 2.03914 -5.66306 0
M  V30 8807 H 894.216 0.0292298 -3.03686 0
M  V30 8808 H 891.801 -0.0513466 -1.49312 0
M  V30 8809 H 893.683 2.45062 -3.42815 0
M  V30 8810 H 892.358 2.33921 -2.23747 0
M  V30 8811 H 891.265 0.542859 -3.7014 0
M  V30 8812 H 892.598 0.733708 -4.86701 0
M  V30 8813 N 894.251 1.57596 -0.0117121 0
M  V30 8814 C 895.214 2.08089 0.960816 0
M  V30 8815 C 896.214 0.992519 1.26514 0
M  V30 8816 O 897.404 1.25475 1.20837 0
M  V30 8817 C 894.536 2.53217 2.28241 0
M  V30 8818 H 895.729 2.9529 0.523829 0
M  V30 8819 H 893.282 1.54508 0.235995 0
M  V30 8820 H 894.017 1.69294 2.76604 0
M  V30 8821 H 893.802 3.32714 2.0747 0
M  V30 8822 H 895.292 2.92568 2.97983 0
M  V30 8823 N 895.729 -0.261212 1.5542 0
M  V30 8824 C 896.975 -0.992699 1.76843 0
M  V30 8825 C 897.308 -1.8551 0.574428 0
M  V30 8826 O 896.583 -1.89739 -0.427713 0
M  V30 8827 C 896.866 -1.86532 3.08022 0
M  V30 8828 C 896.719 -1.03206 4.378 0
M  V30 8829 C 898.038 -2.85036 3.35324 0
M  V30 8830 H 895.157 -0.359473 0.643388 0
M  V30 8831 H 897.799 -0.264214 1.88154 0
M  V30 8832 H 895.949 -2.48644 2.9851 0
M  V30 8833 H 897.621 -0.430743 4.59285 0
M  V30 8834 H 895.864 -0.335911 4.32497 0
M  V30 8835 H 896.535 -1.6761 5.25938 0
M  V30 8836 H 899.011 -2.3306 3.44706 0
M  V30 8837 H 897.887 -3.43226 4.28354 0
M  V30 8838 H 898.148 -3.60768 2.55537 0
M  V30 8839 N 897.207 -1.48554 -0.526253 0
M  V30 8840 C 898.453 -1.56994 -1.28378 0
M  V30 8841 C 898.786 -0.244701 -1.92652 0
M  V30 8842 O 898.061 0.749636 -1.79473 0
M  V30 8843 C 898.344 -2.71092 -2.37026 0
M  V30 8844 C 898.197 -4.13331 -1.77418 0
M  V30 8845 C 899.516 -2.80934 -3.38769 0
M  V30 8846 H 896.635 -0.571466 -0.465398 0
M  V30 8847 H 899.277 -1.80742 -0.585861 0
M  V30 8848 H 897.427 -2.50973 -2.96555 0
M  V30 8849 H 899.099 -4.44899 -1.21912 0
M  V30 8850 H 897.342 -4.20158 -1.07936 0
M  V30 8851 H 898.013 -4.88994 -2.56104 0
M  V30 8852 H 900.489 -2.9917 -2.892 0
M  V30 8853 H 899.365 -3.62489 -4.12181 0
M  V30 8854 H 899.626 -1.89244 -3.99549 0
M  V30 8855 N 898.685 0.775411 -1.37205 0
M  V30 8856 C 900.101 1.07546 -1.17924 0
M  V30 8857 C 900.301 2.01496 -0.0128897 0
M  V30 8858 O 899.357 2.44039 0.64816 0
M  V30 8859 C 900.67 1.67647 -2.49629 0
M  V30 8860 C 902.218 1.79923 -2.56119 0
M  V30 8861 C 902.693 2.43438 -3.87946 0
M  V30 8862 N 904.184 2.50893 -3.89368 0
M  V30 8863 C 904.919 3.00881 -4.88117 0
M  V30 8864 N 904.415 3.5107 -5.97262 0
M  V30 8865 N 906.208 2.99722 -4.75524 0
M  V30 8866 H 898.359 0.151524 -2.11859 0
M  V30 8867 H 900.622 0.129845 -0.939066 0
M  V30 8868 H 900.328 1.06082 -3.3532 0
M  V30 8869 H 900.202 2.66988 -2.66453 0
M  V30 8870 H 902.589 2.40621 -1.70838 0
M  V30 8871 H 902.67 0.793482 -2.43182 0
M  V30 8872 H 902.314 1.8338 -4.73639 0
M  V30 8873 H 902.244 3.44611 -3.98184 0
M  V30 8874 H 904.735 2.1537 -3.10522 0
M  V30 8875 H 905.048 3.87604 -6.68568 0
M  V30 8876 H 903.393 3.49184 -6.00912 0
M  V30 8877 H 906.584 2.5981 -3.8938 0
M  V30 8878 H 906.757 3.38369 -5.52639 0
M  V30 8879 N 900.163 1.21714 1.00117 0
M  V30 8880 C 901.095 0.937627 2.09144 0
M  V30 8881 C 902.108 -0.0806291 1.626 0
M  V30 8882 O 903.297 0.152348 1.77849 0
M  V30 8883 C 900.397 0.387036 3.36683 0
M  V30 8884 C 899.57 1.46054 4.12295 0
M  V30 8885 C 898.629 0.918505 5.18122 0
M  V30 8886 O 897.655 1.60282 5.46167 0
M  V30 8887 N 898.857 -0.264308 5.79898 0
M  V30 8888 H 901.622 1.87622 2.33705 0
M  V30 8889 H 899.183 1.12291 1.16629 0
M  V30 8890 H 901.175 0.00992825 4.04699 0
M  V30 8891 H 899.745 -0.456467 3.09249 0
M  V30 8892 H 898.965 2.01133 3.39027 0
M  V30 8893 H 900.253 2.18306 4.59587 0
M  V30 8894 H 899.651 -0.837242 5.5947 0
M  V30 8895 H 898.208 -0.582886 6.49188 0
M  V30 8896 N 901.641 -1.19671 1.02551 0
M  V30 8897 C 902.604 -2.20987 0.608055 0
M  V30 8898 C 903.604 -1.5745 -0.326534 0
M  V30 8899 O 904.794 -1.73827 -0.114003 0
M  V30 8900 C 901.926 -3.4072 -0.11074 0
M  V30 8901 H 903.119 -2.59434 1.50446 0
M  V30 8902 H 900.672 -1.3329 0.816307 0
M  V30 8903 H 901.407 -3.07787 -1.02165 0
M  V30 8904 H 901.192 -3.88069 0.560772 0
M  V30 8905 H 902.682 -4.15776 -0.389848 0
M  V30 8906 N 903.119 -0.802921 -1.35613 0
M  V30 8907 C 904.53 -0.443004 -1.81368 0
M  V30 8908 C 904.881 1.03459 -1.66706 0
M  V30 8909 O 904.006 1.80372 -1.19561 0
M  V30 8910 C 904.601 -0.797324 -3.29284 0
M  V30 8911 C 903.16 -0.490055 -3.73196 0
M  V30 8912 C 902.307 -1.02487 -2.57666 0
M  V30 8913 H 905.258 -0.994888 -1.23643 0
M  V30 8914 H 905.279 -0.0934638 -3.80385 0
M  V30 8915 H 904.791 -1.87278 -3.39924 0
M  V30 8916 H 902.892 0.576818 -3.68108 0
M  V30 8917 H 903.005 -1.02012 -4.68114 0
M  V30 8918 H 901.369 -0.44738 -2.5074 0
M  V30 8919 H 902.152 -2.10636 -2.71085 0
M  V30 8920 N 904.597 1.47463 -0.556102 0
M  V30 8921 C 905.822 2.07371 -0.0344729 0
M  V30 8922 C 906.247 1.40621 1.2493 0
M  V30 8923 O 905.605 0.48082 1.74808 0
M  V30 8924 C 905.653 3.60306 0.145563 0
M  V30 8925 O 904.757 3.94299 1.20839 0
M  V30 8926 H 904.098 0.662052 -0.0508274 0
M  V30 8927 H 906.628 1.89498 -0.771469 0
M  V30 8928 H 906.638 4.06408 0.360112 0
M  V30 8929 H 905.313 4.08288 -0.792089 0
M  V30 8930 H 903.89 3.59944 0.97442 0
M  V30 8931 N 906.075 0.2925 1.54862 0
M  V30 8932 C 907.038 -0.574423 2.21885 0
M  V30 8933 C 908.038 -1.06791 1.20218 0
M  V30 8934 O 909.228 -0.9653 1.45009 0
M  V30 8935 C 906.36 -1.79438 2.89853 0
M  V30 8936 H 907.553 0.0110319 2.99898 0
M  V30 8937 H 905.106 0.043256 1.5624 0
M  V30 8938 H 905.841 -2.4199 2.15897 0
M  V30 8939 H 905.626 -1.44827 3.64373 0
M  V30 8940 H 907.116 -2.41048 3.41007 0
M  V30 8941 N 907.553 -1.57587 0.0200696 0
M  V30 8942 C 908.964 -1.79312 -0.520019 0
M  V30 8943 C 909.315 -0.929475 -1.72787 0
M  V30 8944 O 908.44 -0.137389 -2.15963 0
M  V30 8945 C 909.035 -3.25203 -0.950172 0
M  V30 8946 C 907.594 -3.47954 -1.43543 0
M  V30 8947 C 906.741 -2.74459 -0.395917 0
M  V30 8948 H 909.692 -1.56779 0.246153 0
M  V30 8949 H 909.713 -3.34418 -1.81508 0
M  V30 8950 H 909.225 -3.88035 -0.070883 0
M  V30 8951 H 907.326 -2.90363 -2.33495 0
M  V30 8952 H 907.439 -4.56661 -1.44905 0
M  V30 8953 H 905.803 -2.39669 -0.862022 0
M  V30 8954 H 906.586 -3.40001 0.47475 0
M  V30 8955 N 909.032 0.252966 -1.55557 0
M  V30 8956 C 910.26 0.999565 -1.81153 0
M  V30 8957 C 910.675 1.79181 -0.594955 0
M  V30 8958 O 910.032 1.77208 0.436311 0
M  V30 8959 C 910.083 1.94227 -3.04891 0
M  V30 8960 O 909.804 1.18209 -4.21851 0
M  V30 8961 C 911.305 2.80536 -3.43241 0
M  V30 8962 H 908.525 0.294402 -0.602966 0
M  V30 8963 H 911.069 0.277686 -2.02606 0
M  V30 8964 H 909.224 2.6185 -2.85505 0
M  V30 8965 H 909.638 1.81922 -4.9194 0
M  V30 8966 H 911.112 3.42442 -4.32941 0
M  V30 8967 H 911.589 3.51337 -2.6355 0
M  V30 8968 H 912.195 2.18373 -3.64956 0
M  V30 8969 N 910.51 1.48831 0.518367 0
M  V30 8970 C 911.44 1.67119 1.63075 0
M  V30 8971 C 912.421 0.519948 1.61958 0
M  V30 8972 O 913.606 0.753824 1.78972 0
M  V30 8973 C 910.736 1.72158 3.01627 0
M  V30 8974 C 909.69 2.86898 3.17606 0
M  V30 8975 C 909.016 2.77035 4.57335 0
M  V30 8976 C 910.316 4.28057 2.99274 0
M  V30 8977 H 912.01 2.60248 1.48025 0
M  V30 8978 H 909.556 1.2524 0.710694 0
M  V30 8979 H 911.509 1.83539 3.7933 0
M  V30 8980 H 910.233 0.756157 3.17726 0
M  V30 8981 H 908.892 2.75091 2.42323 0
M  V30 8982 H 908.54 1.78438 4.70286 0
M  V30 8983 H 908.24 3.54036 4.6897 0
M  V30 8984 H 909.764 2.904 5.37122 0
M  V30 8985 H 911.178 4.40636 3.6676 0
M  V30 8986 H 909.575 5.06145 3.22393 0
M  V30 8987 H 910.645 4.4371 1.95574 0
M  V30 8988 N 911.988 -0.768124 1.37614 0
M  V30 8989 C 913.265 -1.51637 1.23554 0
M  V30 8990 C 913.645 -2.1042 -0.169331 0
M  V30 8991 O 912.993 -1.95834 -1.17735 0
M  V30 8992 C 913.203 -2.59436 2.33439 0
M  V30 8993 C 914.551 -3.2674 2.71157 0
M  V30 8994 O 915.575 -2.69733 2.32642 0
M  V30 8995 O 914.434 -4.29814 3.37524 0
M  V30 8996 H 911.528 -0.671778 0.482332 0
M  V30 8997 H 914.074 -0.804779 1.49403 0
M  V30 8998 H 912.846 -2.14146 3.27502 0
M  V30 8999 H 912.469 -3.38192 2.09073 0
M  V30 9000 N 913.466 -1.22244 -0.994698 0
M  V30 9001 C 914.882 -0.982006 -1.25813 0
M  V30 9002 C 915.082 0.325488 -1.98854 0
M  V30 9003 O 914.138 1.04857 -2.29698 0
M  V30 9004 C 915.451 -2.1795 -2.07167 0
M  V30 9005 C 916.999 -2.22287 -2.20358 0
M  V30 9006 C 917.474 -3.41583 -3.05098 0
M  V30 9007 N 918.965 -3.41734 -3.12686 0
M  V30 9008 C 919.7 -4.30692 -3.78539 0
M  V30 9009 N 919.196 -5.29865 -4.46335 0
M  V30 9010 N 920.989 -4.18473 -3.75283 0
M  V30 9011 H 913.14 -2.0631 -0.504963 0
M  V30 9012 H 915.403 -0.90395 -0.285618 0
M  V30 9013 H 915.109 -3.12758 -1.60858 0
M  V30 9014 H 914.983 -2.17862 -3.07922 0
M  V30 9015 H 917.37 -1.28028 -2.65881 0
M  V30 9016 H 917.451 -2.26414 -1.19039 0
M  V30 9017 H 917.095 -4.36141 -2.60275 0
M  V30 9018 H 917.025 -3.34695 -4.06555 0
M  V30 9019 H 919.516 -2.69969 -2.64433 0
M  V30 9020 H 919.829 -5.94027 -4.9432 0
M  V30 9021 H 918.174 -5.3378 -4.45089 0
M  V30 9022 H 921.365 -3.40249 -3.21478 0
M  V30 9023 H 921.538 -4.88007 -4.26326 0
M  V30 9024 N 914.944 1.19125 -1.03184 0
M  V30 9025 C 916.19 1.89163 -0.731111 0
M  V30 9026 C 916.523 1.79604 0.738662 0
M  V30 9027 O 915.798 1.19037 1.53819 0
M  V30 9028 C 916.081 3.39986 -1.18666 0
M  V30 9029 C 915.934 3.58401 -2.71788 0
M  V30 9030 C 917.253 4.33316 -0.769772 0
M  V30 9031 H 914.372 0.686908 -0.267069 0
M  V30 9032 H 917.014 1.40205 -1.28229 0
M  V30 9033 H 915.164 3.81813 -0.717736 0
M  V30 9034 H 916.836 3.25727 -3.26649 0
M  V30 9035 H 915.079 3.01355 -3.12038 0
M  V30 9036 H 915.75 4.64189 -2.98719 0
M  V30 9037 H 918.226 3.9922 -1.17314 0
M  V30 9038 H 917.102 5.37427 -1.11637 0
M  V30 9039 H 917.363 4.40884 0.327681 0
M  V30 9040 N 916.422 0.810101 1.35185 0
M  V30 9041 C 917.699 0.315235 1.93043 0
M  V30 9042 C 918.079 -1.19567 1.73974 0
M  V30 9043 O 917.427 -1.99682 1.11083 0
M  V30 9044 C 917.637 0.730492 3.41269 0
M  V30 9045 C 918.985 0.721985 4.18417 0
M  V30 9046 O 920.009 0.672258 3.49799 0
M  V30 9047 O 918.868 0.783535 5.40854 0
M  V30 9048 H 915.962 0.0832774 0.822796 0
M  V30 9049 H 918.508 0.894034 1.4424 0
M  V30 9050 H 917.28 1.77169 3.48894 0
M  V30 9051 H 916.903 0.12669 3.97398 0
M  V30 9052 N 917.9 -1.47166 0.563914 0
M  V30 9053 C 919.146 -2.02756 0.0424338 0
M  V30 9054 C 919.479 -1.43662 -1.3067 0
M  V30 9055 O 918.754 -0.594676 -1.85186 0
M  V30 9056 C 919.037 -3.60074 -0.0434793 0
M  V30 9057 C 918.89 -4.29587 1.33323 0
M  V30 9058 C 920.209 -4.336 -0.753568 0
M  V30 9059 H 917.328 -0.736806 0.0168946 0
M  V30 9060 H 919.97 -1.75521 0.727496 0
M  V30 9061 H 918.12 -3.83409 -0.626906 0
M  V30 9062 H 919.792 -4.17573 1.96037 0
M  V30 9063 H 918.035 -3.8968 1.9061 0
M  V30 9064 H 918.706 -5.38218 1.22576 0
M  V30 9065 H 921.182 -4.15299 -0.258126 0
M  V30 9066 H 920.058 -5.43291 -0.782659 0
M  V30 9067 H 920.319 -4.03302 -1.81108 0
M  V30 9068 N 919.378 -0.300708 -1.54705 0
M  V30 9069 C 920.624 0.309111 -2.0043 0
M  V30 9070 C 920.957 1.53562 -1.1888 0
M  V30 9071 O 920.232 1.92683 -0.265205 0
M  V30 9072 C 920.515 0.665995 -3.53888 0
M  V30 9073 C 920.368 -0.56963 -4.46178 0
M  V30 9074 C 921.687 1.49262 -4.14016 0
M  V30 9075 H 918.806 0.110878 -0.728612 0
M  V30 9076 H 921.448 -0.412748 -1.85463 0
M  V30 9077 H 919.598 1.281 -3.66773 0
M  V30 9078 H 921.27 -1.20811 -4.45199 0
M  V30 9079 H 919.513 -1.20292 -4.16788 0
M  V30 9080 H 920.184 -0.275785 -5.51311 0
M  V30 9081 H 922.66 0.972979 -4.04564 0
M  V30 9082 H 921.536 1.71111 -5.21548 0
M  V30 9083 H 921.797 2.48174 -3.65872 0
M  V30 9084 N 920.856 1.57574 -0.0284266 0
M  V30 9085 C 921.788 2.07079 0.982391 0
M  V30 9086 C 922.801 0.994078 1.28926 0
M  V30 9087 O 923.99 1.27028 1.25404 0
M  V30 9088 C 921.09 2.47978 2.30998 0
M  V30 9089 C 920.263 3.7872 2.18838 0
M  V30 9090 C 919.322 4.06177 3.34524 0
M  V30 9091 O 918.348 4.76438 3.11441 0
M  V30 9092 N 919.55 3.56297 4.58293 0
M  V30 9093 H 922.315 2.94421 0.560011 0
M  V30 9094 H 919.876 1.61124 0.158347 0
M  V30 9095 H 921.868 2.63439 3.07216 0
M  V30 9096 H 920.438 1.66005 2.64879 0
M  V30 9097 H 919.658 3.73062 1.27351 0
M  V30 9098 H 920.946 4.6438 2.07915 0
M  V30 9099 H 920.344 2.99453 4.79942 0
M  V30 9100 H 918.901 3.77038 5.31682 0
M  V30 9101 N 922.334 -0.244713 1.55689 0
M  V30 9102 C 923.745 -0.813603 1.6804 0
M  V30 9103 C 924.096 -1.85936 0.626281 0
M  V30 9104 O 923.221 -2.15206 -0.227038 0
M  V30 9105 C 923.816 -1.48252 3.04642 0
M  V30 9106 C 922.375 -1.99908 3.18926 0
M  V30 9107 C 921.522 -0.850958 2.6392 0
M  V30 9108 H 924.473 -0.0204805 1.58687 0
M  V30 9109 H 924.494 -2.35062 2.99209 0
M  V30 9110 H 924.006 -0.721164 3.81341 0
M  V30 9111 H 922.107 -2.78918 2.47054 0
M  V30 9112 H 922.22 -2.19497 4.25862 0
M  V30 9113 H 920.584 -1.25206 2.21801 0
M  V30 9114 H 921.367 -0.10265 3.43146 0
M  V30 9115 N 923.813 -1.49104 -0.510467 0
M  V30 9116 C 925.059 -1.58346 -1.26705 0
M  V30 9117 C 925.392 -0.265121 -1.92382 0
M  V30 9118 O 924.667 0.730558 -1.80258 0
M  V30 9119 C 924.95 -2.7359 -2.34137 0
M  V30 9120 C 924.803 -4.1519 -1.73024 0
M  V30 9121 C 926.122 -2.84511 -3.3577 0
M  V30 9122 H 923.241 -0.57637 -0.459311 0
M  V30 9123 H 925.883 -1.81353 -0.566658 0
M  V30 9124 H 924.033 -2.54105 -2.93876 0
M  V30 9125 H 925.705 -4.46167 -1.17186 0
M  V30 9126 H 923.948 -4.21279 -1.03473 0
M  V30 9127 H 924.619 -4.91683 -2.50903 0
M  V30 9128 H 927.095 -3.0222 -2.86011 0
M  V30 9129 H 925.971 -3.6684 -4.08313 0
M  V30 9130 H 926.232 -1.93471 -3.97519 0
M  V30 9131 N 925.291 0.760815 -1.38019 0
M  V30 9132 C 926.519 1.55001 -1.37048 0
M  V30 9133 C 926.934 1.88754 0.0415261 0
M  V30 9134 O 926.291 1.52254 1.00624 0
M  V30 9135 C 926.342 2.8536 -2.21928 0
M  V30 9136 O 926.063 2.53049 -3.57628 0
M  V30 9137 C 927.564 3.79536 -2.29057 0
M  V30 9138 H 924.784 0.479844 -0.469032 0
M  V30 9139 H 927.328 0.942148 -1.81504 0
M  V30 9140 H 925.483 3.42542 -1.80953 0
M  V30 9141 H 925.897 3.36604 -4.02241 0
M  V30 9142 H 927.371 4.67977 -2.92749 0
M  V30 9143 H 927.848 4.19453 -1.30213 0
M  V30 9144 H 928.454 3.28281 -2.70392 0
M  V30 9145 N 926.769 1.22769 0.988202 0
M  V30 9146 C 928.016 1.05509 1.72841 0
M  V30 9147 C 928.344 -0.409145 1.90148 0
M  V30 9148 O 927.599 -1.3195 1.44526 0
M  V30 9149 C 927.898 1.71679 3.13466 0
M  V30 9150 C 927.564 3.21584 3.16061 0
M  V30 9151 C 926.226 3.62486 3.16476 0
M  V30 9152 C 928.578 4.17511 3.11984 0
M  V30 9153 C 925.906 4.97789 3.10521 0
M  V30 9154 C 928.258 5.52796 3.0757 0
M  V30 9155 C 926.922 5.93072 3.06304 0
M  V30 9156 H 926.192 0.386085 0.632471 0
M  V30 9157 H 928.839 1.52596 1.157 0
M  V30 9158 H 927.144 1.1693 3.73945 0
M  V30 9159 H 928.841 1.55809 3.69492 0
M  V30 9160 H 925.431 2.89019 3.1649 0
M  V30 9161 H 929.615 3.86926 3.10809 0
M  V30 9162 H 924.871 5.28218 3.07888 0
M  V30 9163 H 929.045 6.26848 3.03372 0
M  V30 9164 H 926.672 6.97879 3.01444 0
M  V30 9165 N 928.247 -1.18576 1.03814 0
M  V30 9166 C 929.21 -2.2033 0.63146 0
M  V30 9167 C 930.21 -1.57787 -0.309816 0
M  V30 9168 O 931.4 -1.73938 -0.0955598 0
M  V30 9169 C 928.532 -3.40818 -0.0745963 0
M  V30 9170 H 929.725 -2.57824 1.53189 0
M  V30 9171 H 927.278 -1.32416 0.830398 0
M  V30 9172 H 928.013 -3.08853 -0.988947 0
M  V30 9173 H 927.798 -3.87453 0.6019 0
M  V30 9174 H 929.288 -4.16166 -0.345727 0
M  V30 9175 N 929.725 -0.817259 -1.34754 0
M  V30 9176 C 930.971 -0.403244 -1.98751 0
M  V30 9177 C 931.304 1.02963 -1.64658 0
M  V30 9178 O 930.579 1.71617 -0.915314 0
M  V30 9179 C 930.862 -0.599188 -3.5508 0
M  V30 9180 C 930.715 -2.07777 -3.98934 0
M  V30 9181 C 932.034 -0.0315656 -4.40089 0
M  V30 9182 H 929.153 -0.147988 -0.721989 0
M  V30 9183 H 931.795 -1.02877 -1.59738 0
M  V30 9184 H 929.945 -0.0667116 -3.88443 0
M  V30 9185 H 931.617 -2.67345 -3.75931 0
M  V30 9186 H 929.86 -2.57031 -3.49453 0
M  V30 9187 H 930.531 -2.16571 -5.07741 0
M  V30 9188 H 933.007 -0.48644 -4.13247 0
M  V30 9189 H 931.883 -0.198507 -5.48541 0
M  V30 9190 H 932.144 1.06302 -4.2913 0
M  V30 9191 N 931.203 1.46865 -0.571711 0
M  V30 9192 C 932.136 2.27176 0.215944 0
M  V30 9193 C 933.114 1.34951 0.907035 0
M  V30 9194 O 934.298 1.64349 0.923127 0
M  V30 9195 C 931.425 3.12388 1.30888 0
M  V30 9196 C 930.471 4.20296 0.724804 0
M  V30 9197 S 931.304 5.33691 -0.439839 0
M  V30 9198 C 932.46 6.22468 0.654564 0
M  V30 9199 H 932.693 2.93633 -0.465518 0
M  V30 9200 H 930.226 1.50184 -0.358351 0
M  V30 9201 H 932.184 3.62049 1.93471 0
M  V30 9202 H 930.845 2.45265 1.96224 0
M  V30 9203 H 930.038 4.79703 1.54599 0
M  V30 9204 H 929.64 3.73591 0.174861 0
M  V30 9205 H 931.932 6.59694 1.54304 0
M  V30 9206 H 932.875 7.08033 0.0975111 0
M  V30 9207 H 933.283 5.56384 0.953762 0
M  V30 9208 N 932.681 0.308908 1.54543 0
M  V30 9209 C 933.927 -0.298478 2.00592 0
M  V30 9210 C 934.26 -1.52929 1.19692 0
M  V30 9211 O 933.535 -1.9254 0.27542 0
M  V30 9212 C 933.818 -0.647218 3.54236 0
M  V30 9213 C 933.671 0.593284 4.4587 0
M  V30 9214 C 934.99 -1.47064 4.14801 0
M  V30 9215 H 932.109 -0.107012 0.72919 0
M  V30 9216 H 934.751 0.422578 1.85241 0
M  V30 9217 H 932.901 -1.26153 3.67447 0
M  V30 9218 H 934.573 1.2317 4.44552 0
M  V30 9219 H 932.816 1.22501 4.16144 0
M  V30 9220 H 933.487 0.305018 5.51157 0
M  V30 9221 H 935.963 -0.951511 4.05075 0
M  V30 9222 H 934.839 -1.68343 5.22448 0
M  V30 9223 H 935.1 -2.4623 3.67183 0
M  V30 9224 N 934.159 -1.57557 0.0367827 0
M  V30 9225 C 935.384 -1.96828 -0.653707 0
M  V30 9226 C 935.809 -0.913559 -1.64425 0
M  V30 9227 O 935.167 0.124749 -1.8087 0
M  V30 9228 C 935.215 -3.35189 -1.32969 0
M  V30 9229 O 934.319 -3.32095 -2.44513 0
M  V30 9230 H 933.66 -0.64157 -0.171124 0
M  V30 9231 H 936.19 -2.04351 0.100912 0
M  V30 9232 H 936.2 -3.71593 -1.68472 0
M  V30 9233 H 934.875 -4.11496 -0.603654 0
M  V30 9234 H 933.452 -3.07418 -2.11065 0
M  V30 9235 N 935.637 0.236453 -1.55816 0
M  V30 9236 C 936.567 1.29639 -1.94206 0
M  V30 9237 C 937.548 1.49667 -0.808319 0
M  V30 9238 O 938.733 1.621 -1.06945 0
M  V30 9239 C 935.863 2.64914 -2.24584 0
M  V30 9240 C 934.817 2.59565 -3.40308 0
M  V30 9241 C 934.143 3.98732 -3.56254 0
M  V30 9242 C 935.443 2.15642 -4.75706 0
M  V30 9243 H 937.137 0.977552 -2.82992 0
M  V30 9244 H 934.683 0.468804 -1.36155 0
M  V30 9245 H 936.636 3.39209 -2.50031 0
M  V30 9246 H 935.36 2.98455 -1.32636 0
M  V30 9247 H 934.019 1.87728 -3.14887 0
M  V30 9248 H 933.667 4.29556 -2.61707 0
M  V30 9249 H 933.367 3.96039 -4.34082 0
M  V30 9250 H 934.891 4.74711 -3.84033 0
M  V30 9251 H 936.305 2.79673 -5.00456 0
M  V30 9252 H 934.702 2.24039 -5.56711 0
M  V30 9253 H 935.772 1.10831 -4.72064 0
M  V30 9254 N 937.115 1.49373 0.502552 0
M  V30 9255 C 938.078 1.65413 1.58654 0
M  V30 9256 C 939.078 0.526003 1.51953 0
M  V30 9257 O 940.268 0.792421 1.55133 0
M  V30 9258 C 937.4 1.65005 2.98306 0
M  V30 9259 H 938.593 2.62095 1.45762 0
M  V30 9260 H 936.146 1.38381 0.726672 0
M  V30 9261 H 936.881 0.699014 3.16677 0
M  V30 9262 H 936.666 2.46931 3.04578 0
M  V30 9263 H 938.156 1.79477 3.77065 0
M  V30 9264 N 938.594 -0.753485 1.38421 0
M  V30 9265 C 939.541 -1.86723 1.35659 0
M  V30 9266 C 940.511 -1.64648 0.219121 0
M  V30 9267 O 941.696 -1.86313 0.411366 0
M  V30 9268 C 938.836 -3.24023 1.18758 0
M  V30 9269 C 937.949 -3.57928 2.41892 0
M  V30 9270 C 937.084 -4.84532 2.17721 0
M  V30 9271 C 936.123 -5.11224 3.36626 0
M  V30 9272 N 935.26 -6.29023 3.11889 0
M  V30 9273 H 940.1 -1.88419 2.30873 0
M  V30 9274 H 937.637 -0.920934 1.14705 0
M  V30 9275 H 939.595 -4.03252 1.06974 0
M  V30 9276 H 938.225 -3.21654 0.27182 0
M  V30 9277 H 937.277 -2.73541 2.64347 0
M  V30 9278 H 938.589 -3.73581 3.30513 0
M  V30 9279 H 937.743 -5.71704 2.03074 0
M  V30 9280 H 936.482 -4.71018 1.26465 0
M  V30 9281 H 935.487 -4.2252 3.51791 0
M  V30 9282 H 936.712 -5.26635 4.28757 0
M  V30 9283 H 934.658 -6.16832 2.2328 0
M  V30 9284 H 934.575 -6.45177 3.9406 0
M  V30 9285 H 935.843 -7.19083 3.00898 0
M  V30 9286 N 940.072 -1.23292 -0.981677 0
M  V30 9287 C 941.318 -1.06582 -1.72535 0
M  V30 9288 C 941.651 0.396538 -1.90108 0
M  V30 9289 O 940.926 1.29363 -1.45243 0
M  V30 9290 C 941.209 -1.7904 -3.12437 0
M  V30 9291 C 941.062 -3.32941 -3.02441 0
M  V30 9292 C 942.381 -1.55185 -4.11832 0
M  V30 9293 H 939.5 -0.388585 -0.626236 0
M  V30 9294 H 942.142 -1.51779 -1.14293 0
M  V30 9295 H 940.292 -1.40619 -3.62158 0
M  V30 9296 H 941.964 -3.80875 -2.60254 0
M  V30 9297 H 940.207 -3.62039 -2.38977 0
M  V30 9298 H 940.878 -3.78827 -4.0149 0
M  V30 9299 H 943.354 -1.88581 -3.70913 0
M  V30 9300 H 942.23 -2.08362 -5.07815 0
M  V30 9301 H 942.491 -0.486925 -4.3941 0
M  V30 9302 N 941.55 1.18024 -1.04442 0
M  V30 9303 C 942.796 1.88631 -0.760907 0
M  V30 9304 C 943.151 1.79059 0.703957 0
M  V30 9305 O 942.444 1.18261 1.50748 0
M  V30 9306 C 942.638 3.37834 -1.16631 0
M  V30 9307 C 942.467 3.61929 -2.66904 0
M  V30 9308 C 941.237 3.7908 -3.34105 0
M  V30 9309 C 943.435 3.622 -3.65124 0
M  V30 9310 N 941.417 3.90949 -4.73321 0
M  V30 9311 C 942.788 3.79827 -4.90032 0
M  V30 9312 C 944.843 3.45308 -3.58701 0
M  V30 9313 C 943.546 3.82312 -6.09287 0
M  V30 9314 C 945.572 3.49078 -4.77387 0
M  V30 9315 C 944.934 3.67206 -6.01115 0
M  V30 9316 H 941.033 0.708704 -0.330549 0
M  V30 9317 H 943.617 1.41739 -1.33485 0
M  V30 9318 H 941.788 3.83413 -0.6204 0
M  V30 9319 H 943.52 3.96026 -0.83342 0
M  V30 9320 H 940.275 3.78619 -2.84508 0
M  V30 9321 H 940.699 4.00696 -5.45685 0
M  V30 9322 H 945.341 3.30236 -2.64015 0
M  V30 9323 H 943.059 3.96171 -7.04325 0
M  V30 9324 H 946.645 3.37277 -4.74063 0
M  V30 9325 H 945.525 3.70017 -6.91417 0
M  V30 9326 N 943.028 0.824394 1.34319 0
M  V30 9327 C 943.96 0.204805 2.28283 0
M  V30 9328 C 944.973 -0.606162 1.51094 0
M  V30 9329 O 946.162 -0.435602 1.73103 0
M  V30 9330 C 943.262 -0.73139 3.30914 0
M  V30 9331 C 942.435 0.0370723 4.37384 0
M  V30 9332 C 941.494 -0.820272 5.19767 0
M  V30 9333 O 940.52 -0.264721 5.68584 0
M  V30 9334 N 941.722 -2.13984 5.39621 0
M  V30 9335 H 944.487 1.0121 2.82093 0
M  V30 9336 H 942.048 0.681494 1.46858 0
M  V30 9337 H 944.04 -1.30958 3.82926 0
M  V30 9338 H 942.61 -1.43943 2.77487 0
M  V30 9339 H 941.83 0.796578 3.86068 0
M  V30 9340 H 943.118 0.566014 5.05642 0
M  V30 9341 H 942.516 -2.61492 5.01636 0
M  V30 9342 H 941.073 -2.66685 5.94746 0
M  V30 9343 N 944.506 -1.46559 0.579492 0
M  V30 9344 C 945.456 -2.27316 -0.17645 0
M  V30 9345 C 946.44 -1.35681 -0.864835 0
M  V30 9346 O 947.632 -1.59879 -0.759462 0
M  V30 9347 C 944.761 -3.21957 -1.19157 0
M  V30 9348 C 943.847 -4.21077 -0.505459 0
M  V30 9349 N 944.238 -5.03908 0.437133 0
M  V30 9350 C 942.536 -4.39535 -0.75661 0
M  V30 9351 C 943.237 -5.75635 0.837819 0
M  V30 9352 N 942.213 -5.43276 0.187679 0
M  V30 9353 H 946.015 -2.88747 0.547932 0
M  V30 9354 H 943.529 -1.5737 0.401048 0
M  V30 9355 H 945.526 -3.78518 -1.74728 0
M  V30 9356 H 944.186 -2.62085 -1.9168 0
M  V30 9357 H 945.197 -5.11487 0.812488 0
M  V30 9358 H 941.874 -3.90815 -1.46867 0
M  V30 9359 H 943.264 -6.52235 1.61364 0
M  V30 9360 N 945.984 -0.3171 -1.54377 0
M  V30 9361 C 946.934 0.567199 -2.20832 0
M  V30 9362 C 947.918 1.08661 -1.18666 0
M  V30 9363 O 949.11 1.0247 -1.44322 0
M  V30 9364 C 946.239 1.73079 -2.96477 0
M  V30 9365 C 945.325 1.22658 -4.05975 0
M  V30 9366 N 945.716 0.441565 -5.03869 0
M  V30 9367 C 944.014 1.50589 -4.19808 0
M  V30 9368 C 944.715 0.171063 -5.81448 0
M  V30 9369 N 943.691 0.755389 -5.38326 0
M  V30 9370 H 947.493 -0.0399349 -2.93873 0
M  V30 9371 H 945.007 -0.122639 -1.61936 0
M  V30 9372 H 947.004 2.37601 -3.42566 0
M  V30 9373 H 945.664 2.34146 -2.24957 0
M  V30 9374 H 946.675 0.0849921 -5.1783 0
M  V30 9375 H 943.352 2.12288 -3.595 0
M  V30 9376 H 944.742 -0.460484 -6.7032 0
M  V30 9377 N 947.462 1.57535 -0.0451378 0
M  V30 9378 C 948.71 1.92071 0.628743 0
M  V30 9379 C 949.031 0.923635 1.71738 0
M  V30 9380 O 948.301 -0.0324376 1.95873 0
M  V30 9381 H 946.881 0.708995 0.235233 0
M  V30 9382 H 949.543 1.9466 -0.0967177 0
M  V30 9383 H 948.639 2.9314 1.07123 0
M  V30 9384 N 948.94 -0.228186 1.55939 0
M  V30 9385 C 950.189 -0.951563 1.77843 0
M  V30 9386 C 950.502 -1.85763 0.612501 0
M  V30 9387 O 951.708 -2.61916 0.715006 0
M  V30 9388 C 950.164 -1.74216 3.14923 0
M  V30 9389 C 949.772 -0.882569 4.39221 0
M  V30 9390 C 951.516 -2.45715 3.46156 0
M  V30 9391 C 949.423 -1.67014 5.67327 0
M  V30 9392 H 948.353 -0.359035 0.663031 0
M  V30 9393 H 951.004 -0.205636 1.82344 0
M  V30 9394 H 949.386 -2.53075 3.0458 0
M  V30 9395 H 950.56 -0.13499 4.60602 0
M  V30 9396 H 948.875 -0.280022 4.15457 0
M  V30 9397 H 951.472 -3.05127 4.39092 0
M  V30 9398 H 951.815 -3.1827 2.68346 0
M  V30 9399 H 952.348 -1.73852 3.57799 0
M  V30 9400 H 949.087 -0.987985 6.48012 0
M  V30 9401 H 948.607 -2.3925 5.50018 0
M  V30 9402 H 950.286 -2.23252 6.07262 0
M  V30 9403 N 950.418 -1.49637 -0.494624 0
M  V30 9404 C 951.646 -1.63164 -1.2722 0
M  V30 9405 C 952.061 -0.305552 -1.86311 0
M  V30 9406 O 951.418 0.709758 -1.68133 0
M  V30 9407 C 951.469 -2.70524 -2.39789 0
M  V30 9408 O 951.19 -3.97991 -1.83126 0
M  V30 9409 C 952.691 -2.94814 -3.31058 0
M  V30 9410 H 949.911 -0.54912 -0.385627 0
M  V30 9411 H 952.455 -1.95711 -0.593081 0
M  V30 9412 H 950.61 -2.40738 -3.03519 0
M  V30 9413 H 951.024 -4.57179 -2.57075 0
M  V30 9414 H 952.498 -3.73653 -4.06309 0
M  V30 9415 H 952.975 -2.04974 -3.88436 0
M  V30 9416 H 953.581 -3.26042 -2.73088 0
M  V30 9417 N 951.896 0.746133 -1.38819 0
M  V30 9418 C 953.307 1.32384 -1.31648 0
M  V30 9419 C 953.658 1.96185 0.0243086 0
M  V30 9420 O 952.783 1.95567 0.92641 0
M  V30 9421 C 953.378 2.40712 -2.38418 0
M  V30 9422 C 951.937 2.94185 -2.34803 0
M  V30 9423 C 951.084 1.67639 -2.20891 0
M  V30 9424 H 954.035 0.544457 -1.49068 0
M  V30 9425 H 954.056 3.20833 -2.04564 0
M  V30 9426 H 953.568 1.94247 -3.3599 0
M  V30 9427 H 951.669 3.44959 -1.40834 0
M  V30 9428 H 951.782 3.48057 -3.29231 0
M  V30 9429 H 950.146 1.9155 -1.67871 0
M  V30 9430 H 950.929 1.23242 -3.20416 0
M  V30 9431 N 953.375 1.23811 0.975125 0
M  V30 9432 C 954.285 1.0408 2.10249 0
M  V30 9433 C 955.301 -0.0162404 1.73992 0
M  V30 9434 O 956.477 0.180346 2.00591 0
M  V30 9435 C 953.542 0.640013 3.40741 0
M  V30 9436 C 952.603 1.7727 3.90991 0
M  V30 9437 C 951.836 1.39094 5.15256 0
M  V30 9438 O 952.059 0.277483 5.69725 0
M  V30 9439 O 950.993 2.21392 5.59704 0
M  V30 9440 H 954.819 1.98575 2.29786 0
M  V30 9441 H 952.404 1.02563 1.08633 0
M  V30 9442 H 954.286 0.427684 4.19224 0
M  V30 9443 H 952.961 -0.27589 3.22522 0
M  V30 9444 H 951.868 2.03971 3.13602 0
M  V30 9445 H 953.201 2.66711 4.13674 0
M  V30 9446 N 954.853 -1.17469 1.05066 0
M  V30 9447 C 955.816 -2.19648 0.654793 0
M  V30 9448 C 956.816 -1.58107 -0.293063 0
M  V30 9449 O 958.006 -1.74029 -0.077106 0
M  V30 9450 C 955.138 -3.40878 -0.0384437 0
M  V30 9451 H 956.331 -2.56184 1.55915 0
M  V30 9452 H 953.884 -1.31528 0.844396 0
M  V30 9453 H 954.619 -3.09885 -0.956133 0
M  V30 9454 H 954.404 -3.86792 0.642961 0
M  V30 9455 H 955.894 -4.1651 -0.301568 0
M  V30 9456 N 956.331 -0.831506 -1.3388 0
M  V30 9457 C 957.577 -0.424302 -1.98312 0
M  V30 9458 C 957.91 1.01211 -1.65741 0
M  V30 9459 O 957.185 1.70636 -0.933464 0
M  V30 9460 C 957.468 -0.636815 -3.54424 0
M  V30 9461 C 957.321 -2.11997 -3.96708 0
M  V30 9462 C 958.64 -0.0782411 -4.4003 0
M  V30 9463 H 955.759 -0.155637 -0.720379 0
M  V30 9464 H 958.401 -1.04566 -1.58638 0
M  V30 9465 H 956.551 -0.107907 -3.8835 0
M  V30 9466 H 958.223 -2.71317 -3.73075 0
M  V30 9467 H 956.466 -2.60723 -3.46707 0
M  V30 9468 H 957.137 -2.21944 -5.05416 0
M  V30 9469 H 959.613 -0.530243 -4.12708 0
M  V30 9470 H 958.489 -0.256676 -5.483 0
M  V30 9471 H 958.75 1.01745 -4.30233 0
M  V30 9472 N 957.809 1.4625 -0.587256 0
M  V30 9473 C 959.058 2.01571 -0.0722643 0
M  V30 9474 C 959.371 1.46385 1.29733 0
M  V30 9475 O 960.577 1.93554 1.90392 0
M  V30 9476 C 959.033 3.59814 -0.078579 0
M  V30 9477 C 958.641 4.23996 -1.44678 0
M  V30 9478 C 960.385 4.22776 0.382231 0
M  V30 9479 C 958.292 5.74332 -1.41057 0
M  V30 9480 H 957.222 0.753642 -0.0232461 0
M  V30 9481 H 959.873 1.67936 -0.739577 0
M  V30 9482 H 958.255 3.90546 0.654988 0
M  V30 9483 H 959.429 4.04867 -2.20043 0
M  V30 9484 H 957.744 3.73147 -1.84799 0
M  V30 9485 H 960.341 5.32983 0.428182 0
M  V30 9486 H 960.684 3.92027 1.40072 0
M  V30 9487 H 961.217 3.96687 -0.297417 0
M  V30 9488 H 957.956 6.09747 -2.40601 0
M  V30 9489 H 957.476 5.95711 -0.699185 0
M  V30 9490 H 959.155 6.37137 -1.12543 0
M  V30 9491 N 959.287 0.325282 1.54207 0
M  V30 9492 C 960.535 -0.276229 2.00203 0
M  V30 9493 C 960.856 -1.52519 1.21503 0
M  V30 9494 O 960.126 -1.93313 0.317302 0
M  V30 9495 H 958.706 -0.105059 0.739575 0
M  V30 9496 H 961.368 0.442225 1.89817 0
M  V30 9497 H 960.464 -0.531427 3.07542 0
M  V30 9498 N 960.765 -1.57509 0.0534917 0
M  V30 9499 C 961.715 -2.08179 -0.929802 0
M  V30 9500 C 962.699 -0.987451 -1.27036 0
M  V30 9501 O 963.891 -1.25076 -1.2524 0
M  V30 9502 C 961.02 -2.63221 -2.20385 0
M  V30 9503 C 960.106 -3.79629 -1.89058 0
M  V30 9504 N 960.497 -4.8931 -1.28101 0
M  V30 9505 C 958.795 -3.88578 -2.18914 0
M  V30 9506 C 959.496 -5.70329 -1.14455 0
M  V30 9507 N 958.472 -5.18011 -1.64821 0
M  V30 9508 H 962.274 -2.90374 -0.453874 0
M  V30 9509 H 959.788 -1.61697 -0.150899 0
M  V30 9510 H 961.785 -2.97827 -2.91727 0
M  V30 9511 H 960.445 -1.82466 -2.68582 0
M  V30 9512 H 961.456 -5.09058 -0.952924 0
M  V30 9513 H 958.133 -3.18769 -2.69616 0
M  V30 9514 H 959.523 -6.6854 -0.671129 0
M  V30 9515 N 962.243 0.219913 -1.56058 0
M  V30 9516 C 963.468 0.965073 -1.83579 0
M  V30 9517 C 963.893 1.77092 -0.634024 0
M  V30 9518 O 963.251 1.76434 0.417205 0
M  V30 9519 C 963.299 1.85705 -3.09105 0
M  V30 9520 O 962.403 2.95261 -2.87914 0
M  V30 9521 H 961.744 0.273173 -0.605204 0
M  V30 9522 H 964.274 0.23273 -2.03272 0
M  V30 9523 H 964.284 2.26655 -3.39252 0
M  V30 9524 H 962.959 1.26476 -3.96203 0
M  V30 9525 H 961.536 2.58246 -2.69005 0
M  V30 9526 N 963.721 1.49897 0.486681 0
M  V30 9527 C 964.653 1.63755 1.60365 0
M  V30 9528 C 965.666 0.519614 1.54285 0
M  V30 9529 O 966.855 0.792219 1.59957 0
M  V30 9530 C 963.955 1.59153 2.99205 0
M  V30 9531 C 963.128 2.8672 3.30319 0
M  V30 9532 C 962.187 2.74974 4.48638 0
M  V30 9533 O 961.213 3.48922 4.49714 0
M  V30 9534 N 962.415 1.87479 5.49392 0
M  V30 9535 H 965.18 2.60094 1.48899 0
M  V30 9536 H 962.741 1.47166 0.674825 0
M  V30 9537 H 964.733 1.4893 3.76301 0
M  V30 9538 H 963.303 0.706133 3.0452 0
M  V30 9539 H 962.523 3.11188 2.41983 0
M  V30 9540 H 963.811 3.71262 3.47911 0
M  V30 9541 H 963.209 1.26684 5.51333 0
M  V30 9542 H 961.766 1.83169 6.25534 0
M  V30 9543 N 965.199 -0.738761 1.39212 0
M  V30 9544 C 966.447 -1.49529 1.35962 0
M  V30 9545 C 966.768 -1.94948 -0.0450152 0
M  V30 9546 O 966.038 -1.68717 -0.995552 0
M  V30 9547 H 964.618 -0.554692 0.500326 0
M  V30 9548 H 967.28 -0.877255 1.74041 0
M  V30 9549 H 966.376 -2.37919 2.01993 0
M  V30 9550 N 966.677 -1.24326 -0.968545 0
M  V30 9551 C 967.587 -1.05194 -2.09694 0
M  V30 9552 C 968.603 0.00701291 -1.73999 0
M  V30 9553 O 969.779 -0.190981 -2.00492 0
M  V30 9554 C 966.844 -0.658075 -3.40397 0
M  V30 9555 C 965.905 -1.79341 -3.90045 0
M  V30 9556 C 965.138 -1.41824 -5.14511 0
M  V30 9557 O 965.361 -0.307693 -5.69569 0
M  V30 9558 O 964.295 -2.24358 -5.58522 0
M  V30 9559 H 968.121 -1.99791 -2.2873 0
M  V30 9560 H 965.706 -1.03138 -1.08088 0
M  V30 9561 H 967.588 -0.449911 -4.18991 0
M  V30 9562 H 966.263 0.258782 -3.22664 0
M  V30 9563 H 965.17 -2.05632 -3.12516 0
M  V30 9564 H 966.503 -2.68901 -4.12254 0
M  V30 9565 N 968.156 1.1691 -1.05688 0
M  V30 9566 C 969.405 1.86629 -0.765022 0
M  V30 9567 C 969.718 1.82223 0.710918 0
M  V30 9568 O 970.924 2.47462 1.11691 0
M  V30 9569 C 969.38 3.34886 -1.3183 0
M  V30 9570 C 968.988 3.47781 -2.82404 0
M  V30 9571 C 970.732 4.099 -1.10372 0
M  V30 9572 C 968.639 4.9009 -3.31008 0
M  V30 9573 H 967.569 0.699082 -0.282491 0
M  V30 9574 H 970.22 1.31989 -1.27481 0
M  V30 9575 H 968.602 3.89094 -0.736312 0
M  V30 9576 H 969.776 3.03765 -3.46502 0
M  V30 9577 H 968.091 2.86193 -3.02461 0
M  V30 9578 H 970.688 5.14894 -1.4418 0
M  V30 9579 H 971.031 4.16279 -0.0417372 0
M  V30 9580 H 971.564 3.61913 -1.65117 0
M  V30 9581 H 968.303 4.88887 -4.36657 0
M  V30 9582 H 967.823 5.34756 -2.71655 0
M  V30 9583 H 969.502 5.58881 -3.25977 0
M  V30 9584 N 969.634 0.838594 1.33437 0
M  V30 9585 C 970.597 0.276843 2.27522 0
M  V30 9586 C 971.597 -0.554275 1.50945 0
M  V30 9587 O 972.787 -0.368107 1.70266 0
M  V30 9588 C 969.919 -0.610036 3.35397 0
M  V30 9589 H 971.112 1.10705 2.78719 0
M  V30 9590 H 968.665 0.611657 1.43835 0
M  V30 9591 H 969.4 -1.46269 2.89441 0
M  V30 9592 H 969.185 -0.0153615 3.92097 0
M  V30 9593 H 970.675 -0.996368 4.05539 0
M  V30 9594 N 971.112 -1.45937 0.595003 0
M  V30 9595 C 972.075 -2.2888 -0.121102 0
M  V30 9596 C 973.075 -1.39075 -0.807149 0
M  V30 9597 O 974.265 -1.61326 -0.657228 0
M  V30 9598 C 971.397 -3.19778 -1.1813 0
M  V30 9599 H 972.59 -2.93673 0.607968 0
M  V30 9600 H 970.143 -1.5225 0.353495 0
M  V30 9601 H 970.878 -2.59759 -1.94154 0
M  V30 9602 H 970.663 -3.85914 -0.693724 0
M  V30 9603 H 972.153 -3.82176 -1.68319 0
M  V30 9604 N 972.59 -0.333456 -1.54032 0
M  V30 9605 C 973.553 0.515392 -2.2333 0
M  V30 9606 C 974.553 1.03566 -1.23007 0
M  V30 9607 O 975.743 0.926514 -1.47517 0
M  V30 9608 C 972.875 1.7169 -2.94508 0
M  V30 9609 H 974.068 -0.0905407 -2.99763 0
M  V30 9610 H 971.621 -0.0846651 -1.56071 0
M  V30 9611 H 972.356 2.3618 -2.22237 0
M  V30 9612 H 972.141 1.35115 -3.68085 0
M  V30 9613 H 973.631 2.31922 -3.47278 0
M  V30 9614 N 974.068 1.57479 -0.061844 0
M  V30 9615 C 975.298 1.97142 0.61794 0
M  V30 9616 C 975.706 0.938533 1.64281 0
M  V30 9617 O 975.049 -0.084385 1.83506 0
M  V30 9618 C 975.111 3.33083 1.35263 0
M  V30 9619 C 974.775 4.54447 0.482372 0
M  V30 9620 C 975.772 5.1927 -0.255954 0
M  V30 9621 C 973.457 5.00623 0.410167 0
M  V30 9622 C 975.451 6.28612 -1.05481 0
M  V30 9623 C 973.138 6.09839 -0.392369 0
M  V30 9624 C 974.136 6.73696 -1.12354 0
M  V30 9625 O 973.824 7.80811 -1.91285 0
M  V30 9626 H 973.556 0.653497 0.172969 0
M  V30 9627 H 976.11 2.05002 -0.127781 0
M  V30 9628 H 974.34 3.21808 2.14421 0
M  V30 9629 H 976.029 3.5742 1.92368 0
M  V30 9630 H 976.795 4.84546 -0.209703 0
M  V30 9631 H 972.674 4.50704 0.968883 0
M  V30 9632 H 976.218 6.78385 -1.62602 0
M  V30 9633 H 972.115 6.43997 -0.44022 0
M  V30 9634 H 972.883 7.9764 -1.83611 0
M  V30 9635 N 975.546 -0.211634 1.56173 0
M  V30 9636 C 976.792 -0.935935 1.79911 0
M  V30 9637 C 977.125 -1.83589 0.633155 0
M  V30 9638 O 976.4 -1.91004 -0.367132 0
M  V30 9639 C 976.683 -1.76638 3.13801 0
M  V30 9640 C 976.536 -0.892259 4.40861 0
M  V30 9641 C 977.855 -2.74224 3.44223 0
M  V30 9642 H 974.974 -0.338822 0.654499 0
M  V30 9643 H 977.616 -0.20422 1.88899 0
M  V30 9644 H 975.766 -2.39021 3.0627 0
M  V30 9645 H 977.438 -0.284407 4.60422 0
M  V30 9646 H 975.681 -0.198145 4.33347 0
M  V30 9647 H 976.352 -1.50793 5.31004 0
M  V30 9648 H 978.828 -2.21975 3.51946 0
M  V30 9649 H 977.704 -3.29424 4.39057 0
M  V30 9650 H 977.965 -3.52455 2.66885 0
M  V30 9651 N 977.024 -1.50153 -0.478725 0
M  V30 9652 C 977.987 -1.67916 -1.56003 0
M  V30 9653 C 978.987 -0.550111 -1.51097 0
M  V30 9654 O 980.177 -0.817001 -1.53853 0
M  V30 9655 C 977.309 -1.6973 -2.95643 0
M  V30 9656 H 978.502 -2.6438 -1.41573 0
M  V30 9657 H 976.055 -1.39519 -0.704565 0
M  V30 9658 H 976.79 -0.749306 -3.15525 0
M  V30 9659 H 976.575 -2.51745 -3.00611 0
M  V30 9660 H 978.065 -1.85453 -3.74162 0
M  V30 9661 N 978.502 0.731368 -1.39602 0
M  V30 9662 C 979.75 1.48805 -1.36753 0
M  V30 9663 C 980.071 1.94969 0.034676 0
M  V30 9664 O 979.341 1.69243 0.986591 0
M  V30 9665 H 977.921 0.55203 -0.503261 0
M  V30 9666 H 980.583 0.868013 -1.74504 0
M  V30 9667 H 979.679 2.36844 -2.03252 0
M  V30 9668 N 979.98 1.24838 0.961938 0
M  V30 9669 C 980.943 1.04674 2.03902 0
M  V30 9670 C 981.943 0.00204674 1.608 0
M  V30 9671 O 983.133 0.243555 1.72489 0
M  V30 9672 C 980.265 0.587736 3.35795 0
M  V30 9673 H 981.458 2.00278 2.23223 0
M  V30 9674 H 979.011 1.07142 1.138 0
M  V30 9675 H 979.746 -0.371244 3.22168 0
M  V30 9676 H 979.531 1.34182 3.68426 0
M  V30 9677 H 981.021 0.467867 4.14971 0
M  V30 9678 N 981.458 -1.16348 1.06306 0
M  V30 9679 C 982.388 -2.2291 0.695234 0
M  V30 9680 C 983.369 -1.67208 -0.312343 0
M  V30 9681 O 984.554 -1.93293 -0.187442 0
M  V30 9682 C 981.684 -3.47205 0.0810149 0
M  V30 9683 C 980.638 -4.15801 1.01458 0
M  V30 9684 C 979.964 -5.3405 0.263656 0
M  V30 9685 C 981.264 -4.66766 2.34365 0
M  V30 9686 H 982.958 -2.53934 1.58613 0
M  V30 9687 H 980.504 -1.22056 0.76409 0
M  V30 9688 H 982.457 -4.2098 -0.18818 0
M  V30 9689 H 981.181 -3.15482 -0.844897 0
M  V30 9690 H 979.84 -3.43954 1.26852 0
M  V30 9691 H 979.488 -4.9858 -0.665378 0
M  V30 9692 H 979.188 -5.80885 0.88582 0
M  V30 9693 H 980.712 -6.106 0.00200994 0
M  V30 9694 H 982.126 -5.3212 2.13356 0
M  V30 9695 H 980.523 -5.24223 2.9208 0
M  V30 9696 H 981.593 -3.82969 2.97426 0
M  V30 9697 N 982.937 -0.845659 -1.3299 0
M  V30 9698 C 984.165 -0.45835 -2.01759 0
M  V30 9699 C 984.58 0.94239 -1.63598 0
M  V30 9700 O 983.937 1.61353 -0.852738 0
M  V30 9701 C 983.988 -0.577311 -3.5686 0
M  V30 9702 O 983.709 -1.92287 -3.93646 0
M  V30 9703 C 985.21 -0.187839 -4.42902 0
M  V30 9704 H 982.43 -0.181165 -0.646081 0
M  V30 9705 H 984.974 -1.14011 -1.6977 0
M  V30 9706 H 983.129 0.0566146 -3.87359 0
M  V30 9707 H 983.543 -1.91322 -4.88361 0
M  V30 9708 H 985.017 -0.322105 -5.51059 0
M  V30 9709 H 985.494 0.870896 -4.30479 0
M  V30 9710 H 986.1 -0.796473 -4.17776 0
M  V30 9711 N 984.415 1.45619 -0.602734 0
M  V30 9712 C 985.345 2.33258 0.106342 0
M  V30 9713 C 986.326 1.46543 0.863664 0
M  V30 9714 O 987.511 1.75324 0.835175 0
M  V30 9715 C 984.641 3.29168 1.10751 0
M  V30 9716 C 983.595 4.25481 0.463717 0
M  V30 9717 C 982.921 5.11046 1.57278 0
M  V30 9718 C 984.221 5.18702 -0.61199 0
M  V30 9719 H 985.915 2.92795 -0.625423 0
M  V30 9720 H 983.461 1.40793 -0.302213 0
M  V30 9721 H 985.414 3.89346 1.61208 0
M  V30 9722 H 984.138 2.6778 1.8698 0
M  V30 9723 H 982.797 3.66595 -0.0199496 0
M  V30 9724 H 982.445 4.46029 2.32524 0
M  V30 9725 H 982.145 5.76286 1.14755 0
M  V30 9726 H 983.669 5.74091 2.07972 0
M  V30 9727 H 985.083 5.72979 -0.191686 0
M  V30 9728 H 983.48 5.92393 -0.958686 0
M  V30 9729 H 984.55 4.61424 -1.4905 0
M  V30 9730 N 985.893 0.34162 1.53853 0
M  V30 9731 C 987.17 -0.310664 1.93117 0
M  V30 9732 C 987.55 -1.68398 1.273 0
M  V30 9733 O 986.898 -2.24546 0.423225 0
M  V30 9734 C 987.108 -0.384867 3.46871 0
M  V30 9735 C 988.456 -0.636621 4.198 0
M  V30 9736 O 989.48 -0.467061 3.53125 0
M  V30 9737 O 988.339 -0.964962 5.37913 0
M  V30 9738 H 985.433 -0.180881 0.806977 0
M  V30 9739 H 987.979 0.392656 1.65095 0
M  V30 9740 H 986.751 0.57894 3.86994 0
M  V30 9741 H 986.374 -1.13505 3.81054 0
M  V30 9742 N 987.371 -1.57444 0.0701946 0
M  V30 9743 C 988.648 -1.84826 -0.6402 0
M  V30 9744 C 989.028 -0.962344 -1.87889 0
M  V30 9745 O 988.376 -0.0282209 -2.28483 0
M  V30 9746 C 988.586 -3.34976 -0.979382 0
M  V30 9747 C 989.934 -4.02448 -1.35355 0
M  V30 9748 O 990.958 -3.39713 -1.07116 0
M  V30 9749 O 989.817 -5.13096 -1.88136 0
M  V30 9750 H 986.911 -0.763494 -0.317813 0
M  V30 9751 H 989.457 -1.69399 0.101004 0
M  V30 9752 H 988.229 -3.91173 -0.0995576 0
M  V30 9753 H 987.852 -3.5566 -1.7774 0
M  V30 9754 N 988.849 0.203349 -1.56283 0
M  V30 9755 C 989.812 1.23566 -1.93039 0
M  V30 9756 C 990.812 1.38869 -0.810687 0
M  V30 9757 O 992.002 1.36822 -1.07821 0
M  V30 9758 C 989.134 2.60645 -2.1972 0
M  V30 9759 H 990.327 0.921692 -2.85385 0
M  V30 9760 H 987.88 0.44453 -1.49845 0
M  V30 9761 H 988.615 2.9711 -1.29985 0
M  V30 9762 H 988.4 2.50911 -3.01307 0
M  V30 9763 H 989.89 3.35103 -2.4919 0
M  V30 9764 N 990.327 1.50405 0.470755 0
M  V30 9765 C 991.29 1.68741 1.5511 0
M  V30 9766 C 992.29 0.558116 1.50804 0
M  V30 9767 O 993.48 0.825149 1.53418 0
M  V30 9768 C 990.612 1.71295 2.94739 0
M  V30 9769 H 991.805 2.65127 1.40169 0
M  V30 9770 H 989.358 1.39891 0.697156 0
M  V30 9771 H 990.093 0.766029 3.15123 0
M  V30 9772 H 989.878 2.53336 2.99271 0
M  V30 9773 H 991.368 1.87434 3.73173 0
M  V30 9774 N 991.805 -0.723954 1.39988 0
M  V30 9775 C 993.221 -1.03095 1.21834 0
M  V30 9776 C 993.421 -2.01309 0.0876647 0
M  V30 9777 O 992.477 -2.46277 -0.55714 0
M  V30 9778 C 993.79 -1.58267 2.5568 0
M  V30 9779 C 995.338 -1.70293 2.6262 0
M  V30 9780 C 995.813 -2.28872 3.96713 0
M  V30 9781 N 997.304 -2.36269 3.98411 0
M  V30 9782 C 998.039 -2.82557 4.98948 0
M  V30 9783 N 997.535 -3.28661 6.0988 0
M  V30 9784 N 999.328 -2.81866 4.86321 0
M  V30 9785 H 991.479 -0.0727891 2.12275 0
M  V30 9786 H 993.742 -0.0949029 0.943238 0
M  V30 9787 H 993.448 -0.935642 3.39026 0
M  V30 9788 H 993.322 -2.56914 2.76179 0
M  V30 9789 H 995.709 -2.34115 1.7965 0
M  V30 9790 H 995.79 -0.70268 2.45959 0
M  V30 9791 H 995.434 -1.65675 4.80119 0
M  V30 9792 H 995.364 -3.29595 4.107 0
M  V30 9793 H 997.855 -2.03697 3.18302 0
M  V30 9794 H 998.168 -3.62524 6.82493 0
M  V30 9795 H 996.513 -3.26641 6.13458 0
M  V30 9796 H 999.704 -2.45179 3.98754 0
M  V30 9797 H 999.877 -3.17626 5.64817 0
M  V30 9798 N 993.283 -1.25346 -0.955304 0
M  V30 9799 C 994.529 -1.10218 -1.70235 0
M  V30 9800 C 994.862 0.356124 -1.90907 0
M  V30 9801 O 994.137 1.26253 -1.47954 0
M  V30 9802 C 994.42 -1.85627 -3.08569 0
M  V30 9803 C 994.273 -3.39281 -2.95311 0
M  V30 9804 C 995.592 -1.63886 -4.08448 0
M  V30 9805 H 992.711 -0.401781 -0.617852 0
M  V30 9806 H 995.353 -1.5417 -1.11048 0
M  V30 9807 H 993.503 -1.48269 -3.59094 0
M  V30 9808 H 995.175 -3.8631 -2.52116 0
M  V30 9809 H 993.418 -3.67027 -2.31244 0
M  V30 9810 H 994.089 -3.87258 -3.93364 0
M  V30 9811 H 996.565 -1.96406 -3.6683 0
M  V30 9812 H 995.441 -2.19087 -5.03281 0
M  V30 9813 H 995.702 -0.580021 -4.38279 0
M  V30 9814 N 994.761 1.15782 -1.06922 0
M  V30 9815 C 996.007 1.86741 -0.790922 0
M  V30 9816 C 996.34 1.81863 0.681149 0
M  V30 9817 O 995.615 1.23871 1.49954 0
M  V30 9818 C 995.898 3.36038 -1.29422 0
M  V30 9819 C 995.751 3.49573 -2.83052 0
M  V30 9820 C 997.07 4.30647 -0.907239 0
M  V30 9821 H 994.189 0.678064 -0.288787 0
M  V30 9822 H 996.831 1.36054 -1.32624 0
M  V30 9823 H 994.981 3.79336 -0.838843 0
M  V30 9824 H 996.653 3.1517 -3.36847 0
M  V30 9825 H 994.896 2.91275 -3.21467 0
M  V30 9826 H 995.567 4.5445 -3.13335 0
M  V30 9827 H 998.043 3.95286 -1.29956 0
M  V30 9828 H 996.919 5.33604 -1.28679 0
M  V30 9829 H 997.18 4.41703 0.187251 0
M  V30 9830 N 996.239 0.8527 1.3254 0
M  V30 9831 C 997.467 0.469044 2.01513 0
M  V30 9832 C 997.882 -0.933701 1.64096 0
M  V30 9833 O 997.239 -1.60898 0.861283 0
M  V30 9834 C 997.29 0.596228 3.56549 0
M  V30 9835 O 997.011 1.94371 3.92621 0
M  V30 9836 C 998.512 0.211324 4.42796 0
M  V30 9837 H 995.732 0.184589 0.645111 0
M  V30 9838 H 998.276 1.1491 1.69163 0
M  V30 9839 H 996.431 -0.0360712 3.87383 0
M  V30 9840 H 996.845 1.93909 4.87339 0
M  V30 9841 H 998.319 0.351324 5.50881 0
M  V30 9842 H 998.796 -0.848055 4.30935 0
M  V30 9843 H 999.402 0.818617 4.17347 0
M  V30 9844 N 997.718 -1.45297 0.610449 0
M  V30 9845 C 998.648 -2.33311 -0.0939698 0
M  V30 9846 C 999.629 -1.46999 -0.85588 0
M  V30 9847 O 1000.81 -1.75764 -0.825865 0
M  V30 9848 C 997.944 -3.29751 -1.09003 0
M  V30 9849 C 996.898 -4.2572 -0.441146 0
M  V30 9850 C 996.224 -5.11873 -1.54566 0
M  V30 9851 C 997.524 -5.1837 0.639489 0
M  V30 9852 H 999.218 -2.92459 0.640941 0
M  V30 9853 H 996.764 -1.40631 0.309675 0
M  V30 9854 H 998.717 -3.90195 -1.59141 0
M  V30 9855 H 997.441 -2.68768 -1.85557 0
M  V30 9856 H 996.1 -3.66579 0.0393908 0
M  V30 9857 H 995.748 -4.47256 -2.30155 0
M  V30 9858 H 995.448 -5.76886 -1.11698 0
M  V30 9859 H 996.972 -5.75185 -2.04925 0
M  V30 9860 H 998.386 -5.7287 0.22207 0
M  V30 9861 H 996.783 -5.91876 0.990089 0
M  V30 9862 H 997.853 -4.60627 1.51495 0
M  V30 9863 N 999.196 -0.349774 -1.5367 0
M  V30 9864 C 1000.61 0.00191293 -1.596 0
M  V30 9865 C 1000.81 1.48175 -1.36552 0
M  V30 9866 O 999.868 2.24129 -1.16285 0
M  V30 9867 C 1001.18 -0.439848 -2.97466 0
M  V30 9868 C 1002.73 -0.392721 -3.10526 0
M  V30 9869 C 1003.2 -0.810047 -4.5078 0
M  V30 9870 N 1004.69 -0.764478 -4.56848 0
M  V30 9871 C 1005.43 -1.05927 -5.63531 0
M  V30 9872 N 1004.93 -1.42253 -6.78038 0
M  V30 9873 N 1006.72 -0.983098 -5.53436 0
M  V30 9874 H 998.87 -1.31364 -1.66905 0
M  V30 9875 H 1001.13 -0.535908 -0.781989 0
M  V30 9876 H 1000.84 -1.47189 -3.19419 0
M  V30 9877 H 1000.71 0.181735 -3.76762 0
M  V30 9878 H 1003.1 0.630161 -2.88293 0
M  V30 9879 H 1003.18 -1.04959 -2.33275 0
M  V30 9880 H 1002.82 -1.83097 -4.73749 0
M  V30 9881 H 1002.75 -0.130591 -5.26438 0
M  V30 9882 H 1005.25 -0.496637 -3.74622 0
M  V30 9883 H 1005.56 -1.63215 -7.55368 0
M  V30 9884 H 1003.9 -1.46104 -6.79469 0
M  V30 9885 H 1007.09 -0.698601 -4.62858 0
M  V30 9886 H 1007.27 -1.21618 -6.36485 0
M  V30 9887 N 1000.67 1.57404 -0.0785433 0
M  V30 9888 C 1001.9 1.98492 0.601292 0
M  V30 9889 C 1002.32 0.956832 1.61945 0
M  V30 9890 O 1001.68 -0.0767502 1.81137 0
M  V30 9891 C 1001.73 3.38596 1.24036 0
M  V30 9892 O 1000.83 3.38461 2.35622 0
M  V30 9893 H 1000.17 0.645882 0.154054 0
M  V30 9894 H 1002.7 2.04012 -0.155056 0
M  V30 9895 H 1002.71 3.75929 1.5856 0
M  V30 9896 H 1001.39 4.12952 0.494341 0
M  V30 9897 H 999.967 3.12906 2.02841 0
M  V30 9898 N 1002.15 -0.195058 1.56388 0
M  V30 9899 C 1003.1 -1.24175 1.94549 0
M  V30 9900 C 1004.07 -1.45229 0.806089 0
M  V30 9901 O 1005.25 -1.58362 1.06425 0
M  V30 9902 C 1002.39 -2.58145 2.29031 0
M  V30 9903 C 1001.51 -2.44669 3.56035 0
M  V30 9904 C 1000.64 -3.71342 3.7984 0
M  V30 9905 C 999.681 -3.52699 5.0027 0
M  V30 9906 N 998.818 -4.71385 5.20328 0
M  V30 9907 H 1003.66 -0.909319 2.83788 0
M  V30 9908 H 1001.19 -0.437641 1.40439 0
M  V30 9909 H 1003.15 -3.36195 2.4704 0
M  V30 9910 H 1001.78 -2.8943 1.42933 0
M  V30 9911 H 1000.83 -1.57916 3.46073 0
M  V30 9912 H 1002.15 -2.26827 4.44242 0
M  V30 9913 H 1001.3 -4.57832 3.98088 0
M  V30 9914 H 1000.04 -3.92138 2.89964 0
M  V30 9915 H 999.045 -2.64594 4.81944 0
M  V30 9916 H 1000.27 -3.33349 5.91655 0
M  V30 9917 H 998.216 -4.92444 4.33399 0
M  V30 9918 H 998.133 -4.56368 6.02714 0
M  V30 9919 H 999.401 -5.59226 5.43035 0
M  V30 9920 N 1003.63 -1.50653 -0.462772 0
M  V30 9921 C 1004.85 -1.66103 -1.24196 0
M  V30 9922 C 1005.28 -0.347421 -1.84864 0
M  V30 9923 O 1004.64 0.689673 -1.6767 0
M  V30 9924 C 1004.69 -2.76027 -2.32037 0
M  V30 9925 O 1003.79 -2.37859 -3.36893 0
M  V30 9926 H 1003.13 -0.554672 -0.365014 0
M  V30 9927 H 1005.66 -1.97076 -0.549734 0
M  V30 9928 H 1005.67 -2.99354 -2.77221 0
M  V30 9929 H 1004.35 -3.71361 -1.87253 0
M  V30 9930 H 1002.92 -2.2501 -2.97363 0
M  V30 9931 N 1005.11 0.71652 -1.4037 0
M  V30 9932 C 1006.36 1.47193 -1.37903 0
M  V30 9933 C 1006.67 1.95593 0.0159939 0
M  V30 9934 O 1007.88 2.71009 0.163282 0
M  V30 9935 C 1006.33 2.6606 -2.42363 0
M  V30 9936 C 1005.94 2.24533 -3.87671 0
M  V30 9937 C 1007.68 3.438 -2.49001 0
M  V30 9938 C 1005.59 3.40234 -4.8373 0
M  V30 9939 H 1004.52 0.552811 -0.512753 0
M  V30 9940 H 1007.17 0.779894 -1.66102 0
M  V30 9941 H 1005.55 3.37429 -2.07262 0
M  V30 9942 H 1006.73 1.6059 -4.31911 0
M  V30 9943 H 1005.04 1.59839 -3.845 0
M  V30 9944 H 1007.64 4.29893 -3.17956 0
M  V30 9945 H 1007.98 3.8755 -1.52023 0
M  V30 9946 H 1008.52 2.79474 -2.83088 0
M  V30 9947 H 1005.26 3.01517 -5.82037 0
M  V30 9948 H 1004.78 4.03095 -4.44156 0
M  V30 9949 H 1006.45 4.06312 -5.03507 0
M  V30 9950 N 1006.59 1.25851 0.948643 0
M  V30 9951 C 1007.55 1.0683 2.0278 0
M  V30 9952 C 1008.55 0.0191016 1.60789 0
M  V30 9953 O 1009.74 0.261836 1.72221 0
M  V30 9954 C 1006.87 0.623318 3.35153 0
M  V30 9955 H 1008.06 2.02635 2.21086 0
M  V30 9956 H 1005.62 1.08343 1.12657 0
M  V30 9957 H 1006.35 -0.337053 3.22544 0
M  V30 9958 H 1006.14 1.38082 3.66982 0
M  V30 9959 H 1007.63 0.511854 4.14451 0
M  V30 9960 N 1008.06 -1.15214 1.07534 0
M  V30 9961 C 1009.03 -2.18209 0.701237 0
M  V30 9962 C 1010.03 -1.58693 -0.25946 0
M  V30 9963 O 1011.22 -1.74154 -0.0401744 0
M  V30 9964 C 1008.35 -3.40883 0.0338703 0
M  V30 9965 H 1009.54 -2.5282 1.61314 0
M  V30 9966 H 1007.1 -1.29707 0.872105 0
M  V30 9967 H 1007.83 -3.11843 -0.890187 0
M  V30 9968 H 1007.62 -3.85342 0.72486 0
M  V30 9969 H 1009.11 -4.17056 -0.213152 0
M  V30 9970 N 1009.54 -0.859717 -1.32086 0
M  V30 9971 C 1010.49 -0.279715 -2.26278 0
M  V30 9972 C 1011.48 0.577348 -1.50185 0
M  V30 9973 O 1012.67 0.425903 -1.71799 0
M  V30 9974 C 1009.8 0.526622 -3.39237 0
M  V30 9975 C 1008.88 -0.343112 -4.2271 0
M  V30 9976 N 1009.27 -1.43176 -4.85113 0
M  V30 9977 C 1007.57 -0.133744 -4.45799 0
M  V30 9978 C 1008.27 -1.96725 -5.47425 0
M  V30 9979 N 1007.25 -1.26569 -5.2866 0
M  V30 9980 H 1011.05 -1.11191 -2.72055 0
M  V30 9981 H 1008.57 -0.706372 -1.46233 0
M  V30 9982 H 1010.56 0.958587 -4.0573 0
M  V30 9983 H 1009.22 1.35655 -2.95005 0
M  V30 9984 H 1010.23 -1.81469 -4.85066 0
M  V30 9985 H 1006.91 0.661064 -4.12233 0
M  V30 9986 H 1008.3 -2.88006 -6.07044 0
M  V30 9987 N 1011.02 1.44971 -0.618145 0
M  V30 9988 C 1011.95 2.33357 0.0815955 0
M  V30 9989 C 1012.93 1.47451 0.848072 0
M  V30 9990 O 1014.12 1.762 0.816532 0
M  V30 9991 C 1011.25 3.30324 1.07253 0
M  V30 9992 C 1010.2 4.25948 0.418563 0
M  V30 9993 C 1009.53 5.12685 1.51849 0
M  V30 9994 C 1010.83 5.18024 -0.66697 0
M  V30 9995 H 1012.52 2.92115 -0.656442 0
M  V30 9996 H 1010.07 1.40465 -0.317129 0
M  V30 9997 H 1012.02 3.91033 1.57069 0
M  V30 9998 H 1010.74 2.69748 1.8413 0
M  V30 9999 H 1009.4 3.66553 -0.0588308 0
M  V30 10000 H 1009.05 4.4847 2.2778 0
M  V30 10001 H 1008.75 5.7747 1.08637 0
M  V30 10002 H 1010.27 5.76264 2.01871 0
M  V30 10003 H 1011.69 5.72744 -0.252448 0
M  V30 10004 H 1010.09 5.91343 -1.02146 0
M  V30 10005 H 1011.16 4.59817 -1.53936 0
M  V30 10006 N 1012.5 0.357919 1.53482 0
M  V30 10007 C 1013.46 -0.479797 2.24122 0
M  V30 10008 C 1014.46 -1.01596 1.24639 0
M  V30 10009 O 1015.65 -0.902928 1.48973 0
M  V30 10010 C 1012.78 -1.66983 2.97203 0
M  V30 10011 H 1013.98 0.138219 2.99581 0
M  V30 10012 H 1011.53 0.109484 1.55916 0
M  V30 10013 H 1012.26 -2.32615 2.25966 0
M  V30 10014 H 1012.05 -1.29242 3.70188 0
M  V30 10015 H 1013.54 -2.26367 3.50924 0
M  V30 10016 N 1013.98 -1.5736 0.0868897 0
M  V30 10017 C 1015.22 -1.9367 -0.577598 0
M  V30 10018 C 1015.55 -0.968844 -1.69229 0
M  V30 10019 O 1014.82 -0.0195061 -1.9589 0
M  V30 10020 H 1013.4 -0.714983 -0.216353 0
M  V30 10021 H 1016.06 -1.94335 0.148294 0
M  V30 10022 H 1015.15 -2.95877 -0.993128 0
M  V30 10023 N 1015.45 0.186762 -1.56489 0
M  V30 10024 C 1016.4 1.23141 -1.95205 0
M  V30 10025 C 1017.37 1.44799 -0.81378 0
M  V30 10026 O 1018.56 1.57795 -1.07263 0
M  V30 10027 C 1015.7 2.56926 -2.30397 0
M  V30 10028 C 1014.81 2.42777 -3.57328 0
M  V30 10029 C 1013.94 3.69323 -3.81804 0
M  V30 10030 C 1012.98 3.50041 -5.02133 0
M  V30 10031 N 1012.12 4.68619 -5.2282 0
M  V30 10032 H 1016.96 0.894256 -2.84266 0
M  V30 10033 H 1014.5 0.430187 -1.40669 0
M  V30 10034 H 1016.46 3.3488 -2.4882 0
M  V30 10035 H 1015.09 2.88668 -1.44466 0
M  V30 10036 H 1014.14 1.56078 -3.46906 0
M  V30 10037 H 1015.45 2.24468 -4.45439 0
M  V30 10038 H 1014.6 4.55715 -4.00511 0
M  V30 10039 H 1013.34 3.90595 -2.92039 0
M  V30 10040 H 1012.35 2.62034 -4.8334 0
M  V30 10041 H 1013.57 3.30206 -5.93414 0
M  V30 10042 H 1011.52 4.90139 -4.36005 0
M  V30 10043 H 1011.44 4.53165 -6.05126 0
M  V30 10044 H 1012.7 5.56338 -5.45993 0
M  V30 10045 N 1016.93 1.50896 0.454776 0
M  V30 10046 C 1018.18 1.62378 1.20324 0
M  V30 10047 C 1018.5 0.333883 1.9212 0
M  V30 10048 O 1017.77 -0.649477 1.8482 0
M  V30 10049 H 1016.35 0.598395 0.447139 0
M  V30 10050 H 1019.01 1.87749 0.523102 0
M  V30 10051 H 1018.11 2.44296 1.94232 0
M  V30 10052 N 1018.41 -0.709066 1.40748 0
M  V30 10053 C 1019.66 -1.46611 1.39103 0
M  V30 10054 C 1019.98 -1.95 -0.00365366 0
M  V30 10055 O 1019.25 -1.70791 -0.959541 0
M  V30 10056 H 1017.83 -0.543954 0.511979 0
M  V30 10057 H 1020.49 -0.840141 1.75863 0
M  V30 10058 H 1019.59 -2.33581 2.06994 0
M  V30 10059 N 1019.89 -1.26353 -0.941956 0
M  V30 10060 C 1020.82 -1.02163 -2.04054 0
M  V30 10061 C 1021.8 0.0533514 -1.62512 0
M  V30 10062 O 1022.98 -0.0889063 -1.8829 0
M  V30 10063 C 1020.11 -0.546908 -3.34255 0
M  V30 10064 C 1019.16 -1.61433 -3.94768 0
M  V30 10065 S 1019.99 -3.20306 -4.29144 0
M  V30 10066 C 1021.15 -2.746 -5.62446 0
M  V30 10067 H 1021.38 -1.9518 -2.24259 0
M  V30 10068 H 1018.91 -1.10024 -1.08324 0
M  V30 10069 H 1020.87 -0.279673 -4.09546 0
M  V30 10070 H 1019.53 0.36297 -3.11996 0
M  V30 10071 H 1018.72 -1.23315 -4.88681 0
M  V30 10072 H 1018.33 -1.8329 -3.26007 0
M  V30 10073 H 1020.62 -2.19015 -6.41123 0
M  V30 10074 H 1021.56 -3.67202 -6.05449 0
M  V30 10075 H 1021.97 -2.1419 -5.22286 0
M  V30 10076 N 1021.37 1.14642 -1.08144 0
M  V30 10077 C 1022.62 1.84964 -0.804437 0
M  V30 10078 C 1022.93 1.8369 0.672106 0
M  V30 10079 O 1024.14 2.49775 1.06417 0
M  V30 10080 C 1022.59 3.32015 -1.38904 0
M  V30 10081 C 1022.2 3.41713 -2.89718 0
M  V30 10082 C 1023.94 4.07467 -1.19041 0
M  V30 10083 C 1021.85 4.82958 -3.41329 0
M  V30 10084 H 1020.78 0.692932 -0.297256 0
M  V30 10085 H 1023.43 1.29255 -1.30251 0
M  V30 10086 H 1021.81 3.87445 -0.818679 0
M  V30 10087 H 1022.99 2.96347 -3.52867 0
M  V30 10088 H 1021.3 2.79713 -3.08463 0
M  V30 10089 H 1023.9 5.1172 -1.55069 0
M  V30 10090 H 1024.24 4.16097 -0.130027 0
M  V30 10091 H 1024.78 3.58329 -1.72757 0
M  V30 10092 H 1021.51 4.79515 -4.46929 0
M  V30 10093 H 1021.03 5.28873 -2.82937 0
M  V30 10094 H 1022.71 5.51841 -3.37759 0
M  V30 10095 N 1022.85 0.866709 1.31628 0
M  V30 10096 C 1024.07 0.48956 2.01539 0
M  V30 10097 C 1024.5 -0.909556 1.64647 0
M  V30 10098 O 1023.85 -1.59959 0.853391 0
M  V30 10099 C 1023.9 0.650176 3.5469 0
M  V30 10100 O 1023.01 -0.311908 4.11219 0
M  V30 10101 H 1022.35 0.195144 0.634677 0
M  V30 10102 H 1024.88 1.16923 1.679 0
M  V30 10103 H 1024.89 0.542236 4.04381 0
M  V30 10104 H 1023.56 1.67038 3.80882 0
M  V30 10105 H 1022.14 -0.159197 3.7256 0
M  V30 10106 N 1024.32 -1.44642 0.625825 0
M  V30 10107 C 1025.25 -2.33397 -0.0692188 0
M  V30 10108 C 1026.23 -1.47898 -0.840241 0
M  V30 10109 O 1027.42 -1.7663 -0.807176 0
M  V30 10110 C 1024.55 -3.30888 -1.055 0
M  V30 10111 C 1023.5 -4.26164 -0.395968 0
M  V30 10112 C 1022.83 -5.13483 -1.49128 0
M  V30 10113 C 1024.13 -5.17663 0.694433 0
M  V30 10114 H 1025.82 -2.91763 0.671925 0
M  V30 10115 H 1023.37 -1.40294 0.324573 0
M  V30 10116 H 1025.32 -3.91861 -1.54993 0
M  V30 10117 H 1024.05 -2.7072 -1.82696 0
M  V30 10118 H 1022.71 -3.66516 0.0782691 0
M  V30 10119 H 1022.35 -4.49672 -2.25399 0
M  V30 10120 H 1022.05 -5.78038 -1.05573 0
M  V30 10121 H 1023.58 -5.77327 -1.98813 0
M  V30 10122 H 1024.99 -5.72602 0.282818 0
M  V30 10123 H 1023.39 -5.90793 1.05281 0
M  V30 10124 H 1024.46 -4.58994 1.56372 0
M  V30 10125 N 1025.8 -0.366053 -1.5329 0
M  V30 10126 C 1026.76 0.467904 -2.24373 0
M  V30 10127 C 1027.76 1.00934 -1.25176 0
M  V30 10128 O 1028.95 0.895015 -1.49449 0
M  V30 10129 C 1026.09 1.65405 -2.98084 0
M  V30 10130 H 1027.28 -0.154105 -2.99504 0
M  V30 10131 H 1024.83 -0.117751 -1.55856 0
M  V30 10132 H 1025.57 2.31413 -2.27197 0
M  V30 10133 H 1025.35 1.27277 -3.70868 0
M  V30 10134 H 1026.84 2.24503 -3.52119 0
M  V30 10135 N 1027.28 1.57312 -0.0952337 0
M  V30 10136 C 1028.21 2.17056 0.860753 0
M  V30 10137 C 1029.19 1.10394 1.29411 0
M  V30 10138 O 1030.38 1.38532 1.36098 0
M  V30 10139 C 1027.51 2.751 2.11984 0
M  V30 10140 C 1026.46 3.87136 1.8251 0
M  V30 10141 C 1025.79 4.31883 3.15247 0
M  V30 10142 C 1027.09 5.10326 1.11194 0
M  V30 10143 H 1028.78 2.97192 0.362983 0
M  V30 10144 H 1026.33 1.42955 0.173151 0
M  V30 10145 H 1028.28 3.15547 2.79299 0
M  V30 10146 H 1027 1.92219 2.64044 0
M  V30 10147 H 1025.66 3.47229 1.17592 0
M  V30 10148 H 1025.31 3.45893 3.65195 0
M  V30 10149 H 1025.01 5.0742 2.96309 0
M  V30 10150 H 1026.53 4.74964 3.83721 0
M  V30 10151 H 1027.95 5.47942 1.6862 0
M  V30 10152 H 1026.34 5.91293 1.02435 0
M  V30 10153 H 1027.41 4.84807 0.0947227 0
M  V30 10154 N 1028.76 -0.17846 1.56586 0
M  V30 10155 C 1029.98 -0.916061 1.86073 0
M  V30 10156 C 1030.41 -1.75349 0.680754 0
M  V30 10157 O 1029.77 -1.77479 -0.37028 0
M  V30 10158 C 1029.81 -1.77445 3.1392 0
M  V30 10159 O 1028.92 -2.87524 2.95641 0
M  V30 10160 H 1028.26 -0.257031 0.612234 0
M  V30 10161 H 1030.79 -0.178755 2.03818 0
M  V30 10162 H 1030.8 -2.1758 3.45142 0
M  V30 10163 H 1029.47 -1.15927 3.99417 0
M  V30 10164 H 1028.05 -2.51023 2.75757 0
M  V30 10165 N 1030.24 -1.51135 -0.446768 0
M  V30 10166 C 1031.15 -1.74595 -1.56696 0
M  V30 10167 C 1032.16 -0.629816 -1.62201 0
M  V30 10168 O 1033.34 -0.910987 -1.79619 0
M  V30 10169 C 1030.4 -1.85738 -2.9275 0
M  V30 10170 C 1029.46 -3.09564 -2.97437 0
M  V30 10171 C 1028.7 -3.20165 -4.27001 0
M  V30 10172 O 1028.92 -2.36939 -5.1886 0
M  V30 10173 O 1027.85 -4.13077 -4.3778 0
M  V30 10174 H 1031.68 -2.69601 -1.39817 0
M  V30 10175 H 1029.26 -1.35523 -0.628805 0
M  V30 10176 H 1031.15 -1.95107 -3.73512 0
M  V30 10177 H 1029.82 -0.939184 -3.09776 0
M  V30 10178 H 1028.73 -3.05679 -2.15664 0
M  V30 10179 H 1030.06 -4.01041 -2.85353 0
M  V30 10180 N 1031.71 0.701592 -1.41122 0
M  V30 10181 C 1032.62 1.84548 -1.44841 0
M  V30 10182 C 1033.64 1.70654 -0.339594 0
M  V30 10183 O 1034.82 1.92675 -0.586378 0
M  V30 10184 C 1031.88 3.20477 -1.3227 0
M  V30 10185 C 1030.94 3.46524 -2.53415 0
M  V30 10186 C 1030.17 4.75968 -2.41434 0
M  V30 10187 O 1030.4 5.52037 -1.43566 0
M  V30 10188 O 1029.33 5.02664 -3.31078 0
M  V30 10189 H 1033.16 1.84367 -2.41335 0
M  V30 10190 H 1030.74 0.853863 -1.22595 0
M  V30 10191 H 1032.62 4.01642 -1.2752 0
M  V30 10192 H 1031.3 3.21355 -0.388889 0
M  V30 10193 H 1030.21 2.65313 -2.63742 0
M  V30 10194 H 1031.54 3.50455 -3.45604 0
M  V30 10195 N 1033.19 1.2685 0.935242 0
M  V30 10196 C 1034.15 1.08975 2.01636 0
M  V30 10197 C 1035.15 0.0361543 1.60759 0
M  V30 10198 O 1036.34 0.280087 1.71934 0
M  V30 10199 C 1033.48 0.658831 3.34473 0
M  V30 10200 H 1034.67 2.04968 2.18925 0
M  V30 10201 H 1032.22 1.09531 1.11501 0
M  V30 10202 H 1032.96 -0.302824 3.22883 0
M  V30 10203 H 1032.74 1.41967 3.65497 0
M  V30 10204 H 1034.23 0.555783 4.13885 0
M  V30 10205 N 1034.67 -1.14067 1.0875 0
M  V30 10206 C 1035.9 -1.89041 0.840902 0
M  V30 10207 C 1036.31 -1.78768 -0.60725 0
M  V30 10208 O 1035.67 -1.14945 -1.41753 0
M  V30 10209 C 1035.72 -3.38891 1.25838 0
M  V30 10210 O 1035.44 -3.48886 2.64972 0
M  V30 10211 C 1036.94 -4.30852 1.04315 0
M  V30 10212 H 1034.16 -0.598685 0.303014 0
M  V30 10213 H 1036.71 -1.44438 1.44769 0
M  V30 10214 H 1034.86 -3.81103 0.695627 0
M  V30 10215 H 1035.28 -4.41989 2.82393 0
M  V30 10216 H 1036.75 -5.34353 1.38461 0
M  V30 10217 H 1037.23 -4.39196 -0.0195784 0
M  V30 10218 H 1037.83 -3.944 1.59151 0
M  V30 10219 N 1036.15 -0.873678 -1.31166 0
M  V30 10220 C 1037.56 -0.566109 -1.49223 0
M  V30 10221 C 1037.76 0.898889 -1.80339 0
M  V30 10222 O 1036.82 1.68084 -1.88425 0
M  V30 10223 C 1038.13 -1.46952 -2.62346 0
M  V30 10224 C 1039.68 -1.47195 -2.76229 0
M  V30 10225 C 1040.16 -2.36102 -3.92454 0
M  V30 10226 N 1041.65 -2.34003 -3.99746 0
M  V30 10227 C 1042.38 -2.99513 -4.88958 0
M  V30 10228 N 1041.88 -3.74206 -5.83045 0
M  V30 10229 N 1043.67 -2.88802 -4.82234 0
M  V30 10230 H 1035.82 -1.82156 -1.09239 0
M  V30 10231 H 1038.09 -0.779086 -0.54012 0
M  V30 10232 H 1037.79 -2.51213 -2.4614 0
M  V30 10233 H 1037.67 -1.17077 -3.5857 0
M  V30 10234 H 1040.05 -0.436902 -2.91848 0
M  V30 10235 H 1040.13 -1.81095 -1.80661 0
M  V30 10236 H 1039.78 -3.39685 -3.77593 0
M  V30 10237 H 1039.71 -1.99524 -4.87337 0
M  V30 10238 H 1042.2 -1.79713 -3.32433 0
M  V30 10239 H 1042.51 -4.21312 -6.47855 0
M  V30 10240 H 1040.86 -3.78314 -5.83012 0
M  V30 10241 H 1044.05 -2.29984 -4.07707 0
M  V30 10242 H 1044.22 -3.40136 -5.51554 0
M  V30 10243 N 1037.63 1.44308 -0.633487 0
M  V30 10244 C 1038.56 2.28943 0.108474 0
M  V30 10245 C 1039.57 1.41415 0.806582 0
M  V30 10246 O 1040.76 1.65544 0.667634 0
M  V30 10247 C 1037.86 3.17845 1.1759 0
M  V30 10248 C 1037.03 4.33802 0.559842 0
M  V30 10249 C 1036.09 5.03722 1.52154 0
M  V30 10250 O 1035.12 5.5966 1.03776 0
M  V30 10251 N 1036.32 5.05392 2.85586 0
M  V30 10252 H 1039.09 2.93262 -0.617879 0
M  V30 10253 H 1036.65 1.54781 -0.474819 0
M  V30 10254 H 1038.64 3.61485 1.81963 0
M  V30 10255 H 1037.21 2.55261 1.80445 0
M  V30 10256 H 1036.43 3.93325 -0.262559 0
M  V30 10257 H 1037.72 5.08637 0.128942 0
M  V30 10258 H 1037.11 4.61282 3.27468 0
M  V30 10259 H 1035.67 5.52813 3.45313 0
M  V30 10260 N 1039.1 0.374177 1.53094 0
M  V30 10261 C 1040.52 0.0234783 1.59583 0
M  V30 10262 C 1040.72 -1.45984 1.38892 0
M  V30 10263 O 1039.78 -2.22251 1.19836 0
M  V30 10264 C 1041.09 0.487117 2.96728 0
M  V30 10265 C 1042.64 0.442073 3.09862 0
M  V30 10266 C 1043.11 0.881659 4.49434 0
M  V30 10267 N 1044.6 0.837062 4.55574 0
M  V30 10268 C 1045.34 1.14878 5.61774 0
M  V30 10269 N 1044.83 1.53022 6.75689 0
M  V30 10270 N 1046.63 1.07102 5.51802 0
M  V30 10271 H 1038.78 1.34003 1.64794 0
M  V30 10272 H 1041.04 0.548281 0.773364 0
M  V30 10273 H 1040.75 1.52252 3.17037 0
M  V30 10274 H 1040.62 -0.121772 3.77003 0
M  V30 10275 H 1043.01 -0.584216 2.89259 0
M  V30 10276 H 1043.09 1.08657 2.31576 0
M  V30 10277 H 1042.73 1.90611 4.70776 0
M  V30 10278 H 1042.66 0.214326 5.26164 0
M  V30 10279 H 1045.15 0.556173 3.73785 0
M  V30 10280 H 1045.47 1.75211 7.52676 0
M  V30 10281 H 1043.81 1.56895 6.77059 0
M  V30 10282 H 1047 0.772149 4.61688 0
M  V30 10283 H 1047.18 1.31728 6.3447 0
M  V30 10284 N 1040.58 -1.57259 0.103575 0
M  V30 10285 C 1041.83 -1.93832 -0.55786 0
M  V30 10286 C 1042.14 -0.988087 -1.68808 0
M  V30 10287 O 1043.35 -1.24786 -2.41124 0
M  V30 10288 C 1041.81 -3.44433 -1.04373 0
M  V30 10289 C 1041.41 -4.47963 0.0571971 0
M  V30 10290 C 1043.16 -3.89953 -1.67742 0
M  V30 10291 C 1041.07 -5.89727 -0.444505 0
M  V30 10292 H 1040 -0.723536 -0.212161 0
M  V30 10293 H 1042.65 -1.82606 0.180944 0
M  V30 10294 H 1041.03 -3.50841 -1.83648 0
M  V30 10295 H 1042.2 -4.53209 0.83298 0
M  V30 10296 H 1040.52 -4.12104 0.596588 0
M  V30 10297 H 1043.11 -4.93272 -2.06365 0
M  V30 10298 H 1043.46 -3.2907 -2.54988 0
M  V30 10299 H 1043.99 -3.86281 -0.950342 0
M  V30 10300 H 1040.73 -6.5433 0.391543 0
M  V30 10301 H 1040.25 -5.87935 -1.18711 0
M  V30 10302 H 1041.93 -6.40558 -0.910739 0
M  V30 10303 N 1042.06 0.170153 -1.56679 0
M  V30 10304 C 1042.97 1.23057 -1.99735 0
M  V30 10305 C 1043.99 1.48374 -0.908912 0
M  V30 10306 O 1045.16 1.60499 -1.21663 0
M  V30 10307 C 1042.23 2.54944 -2.34956 0
M  V30 10308 C 1041.29 2.3748 -3.57634 0
M  V30 10309 C 1040.52 3.63078 -3.91165 0
M  V30 10310 O 1040.74 4.68304 -3.2565 0
M  V30 10311 O 1039.68 3.57119 -4.8451 0
M  V30 10312 H 1043.5 0.895104 -2.9021 0
M  V30 10313 H 1041.09 0.377109 -1.44562 0
M  V30 10314 H 1042.97 3.32742 -2.58574 0
M  V30 10315 H 1041.65 2.88068 -1.47643 0
M  V30 10316 H 1040.55 1.57709 -3.39232 0
M  V30 10317 H 1041.89 2.0928 -4.45491 0
M  V30 10318 N 1043.54 1.5137 0.438746 0
M  V30 10319 C 1044.49 1.73154 1.55308 0
M  V30 10320 C 1045.48 0.597825 1.58501 0
M  V30 10321 O 1046.69 0.77917 1.62262 0
M  V30 10322 H 1043.06 0.547083 0.51595 0
M  V30 10323 H 1045.03 2.66566 1.34108 0
M  V30 10324 C 1043.78 1.87242 2.92977 0
M  V30 10325 H 1043.1 2.73884 2.91252 0
M  V30 10326 H 1044.54 2.06497 3.70317 0
M  V30 10327 C 1043 0.631887 3.30921 0
M  V30 10328 O 1043.53 -0.214099 4.01129 0
M  V30 10329 N 1041.74 0.47639 2.86669 0
M  V30 10330 H 1041.29 1.16589 2.29706 0
M  V30 10331 H 1041.24 -0.352403 3.12419 0
M  V30 10332 N 1045.02 -0.694098 1.41492 0
M  V30 10333 C 1045.95 -1.82042 1.46229 0
M  V30 10334 C 1046.93 -1.67047 0.320803 0
M  V30 10335 O 1048.11 -1.86758 0.53245 0
M  V30 10336 C 1045.24 -3.2019 1.34519 0
M  V30 10337 C 1044.2 -3.49892 2.46495 0
M  V30 10338 C 1043.52 -4.87411 2.1985 0
M  V30 10339 C 1044.82 -3.4872 3.88834 0
M  V30 10340 H 1046.52 -1.78335 2.40493 0
M  V30 10341 H 1044.06 -0.856566 1.15754 0
M  V30 10342 H 1046.02 -3.98699 1.36445 0
M  V30 10343 H 1044.74 -3.24527 0.367406 0
M  V30 10344 H 1043.4 -2.73734 2.43854 0
M  V30 10345 H 1043.05 -4.88375 1.20411 0
M  V30 10346 H 1042.75 -5.08248 2.94885 0
M  V30 10347 H 1044.27 -5.68228 2.23494 0
M  V30 10348 H 1045.68 -4.1723 3.93182 0
M  V30 10349 H 1044.08 -3.81089 4.63564 0
M  V30 10350 H 1045.15 -2.47665 4.16881 0
M  V30 10351 N 1046.49 -1.27344 -0.928501 0
M  V30 10352 C 1047.44 -1.06656 -2.01515 0
M  V30 10353 C 1048.43 0.00516619 -1.60899 0
M  V30 10354 O 1049.62 -0.213277 -1.7571 0
M  V30 10355 C 1046.75 -0.714935 -3.35773 0
M  V30 10356 C 1045.84 -1.82476 -3.82836 0
M  V30 10357 N 1046.23 -3.06421 -4.02417 0
M  V30 10358 C 1044.52 -1.71126 -4.11864 0
M  V30 10359 C 1045.23 -3.78637 -4.41598 0
M  V30 10360 N 1044.2 -3.06396 -4.49024 0
M  V30 10361 H 1048 -2.00718 -2.14685 0
M  V30 10362 H 1045.52 -1.18048 -1.11528 0
M  V30 10363 H 1047.51 -0.54784 -4.13285 0
M  V30 10364 H 1046.17 0.218069 -3.23967 0
M  V30 10365 H 1047.19 -3.42191 -3.88749 0
M  V30 10366 H 1043.86 -0.849031 -4.08776 0
M  V30 10367 H 1045.25 -4.85159 -4.64834 0
M  V30 10368 N 1047.97 1.13488 -1.09353 0
M  V30 10369 C 1049.22 1.84383 -0.827488 0
M  V30 10370 C 1049.54 1.83892 0.648745 0
M  V30 10371 O 1048.81 1.29415 1.47066 0
M  V30 10372 H 1047.39 0.682732 -0.303127 0
M  V30 10373 H 1050.05 1.37477 -1.38152 0
M  V30 10374 H 1049.15 2.88919 -1.18035 0
M  V30 10375 N 1049.45 0.880621 1.30701 0
M  V30 10376 C 1050.38 0.360251 2.30704 0
M  V30 10377 C 1051.36 -0.554572 1.60806 0
M  V30 10378 O 1052.55 -0.469345 1.88443 0
M  V30 10379 C 1049.68 -0.429888 3.44629 0
M  V30 10380 C 1048.63 0.392786 4.26194 0
M  V30 10381 C 1047.96 -0.52369 5.32129 0
M  V30 10382 C 1049.26 1.63258 4.96129 0
M  V30 10383 H 1050.95 1.19591 2.74478 0
M  V30 10384 H 1048.5 0.576508 1.31956 0
M  V30 10385 H 1050.45 -0.804532 4.13649 0
M  V30 10386 H 1049.17 -1.29916 2.99649 0
M  V30 10387 H 1047.83 0.749514 3.58856 0
M  V30 10388 H 1047.48 -1.39054 4.83397 0
M  V30 10389 H 1047.18 0.0229272 5.87596 0
M  V30 10390 H 1048.71 -0.894946 6.04006 0
M  V30 10391 H 1050.12 1.32877 5.57689 0
M  V30 10392 H 1048.52 2.11906 5.61441 0
M  V30 10393 H 1049.59 2.37944 4.22505 0
M  V30 10394 N 1050.93 -1.4397 0.641131 0
M  V30 10395 C 1052.15 -2.06818 0.155318 0
M  V30 10396 C 1052.58 -1.47665 -1.16519 0
M  V30 10397 O 1051.94 -0.58192 -1.71707 0
M  V30 10398 C 1051.99 -3.60542 0.0647537 0
M  V30 10399 O 1051.09 -4.00674 -0.976447 0
M  V30 10400 H 1050.43 -0.657962 0.0893404 0
M  V30 10401 H 1052.96 -1.84678 0.88064 0
M  V30 10402 H 1052.97 -4.07816 -0.122552 0
M  V30 10403 H 1051.65 -4.02975 1.02878 0
M  V30 10404 H 1050.22 -3.65013 -0.762905 0
M  V30 10405 N 1052.41 -0.382291 -1.52893 0
M  V30 10406 C 1053.66 0.203342 -2.00672 0
M  V30 10407 C 1053.97 1.48487 -1.27322 0
M  V30 10408 O 1055.18 2.15013 -1.65776 0
M  V30 10409 C 1053.63 0.412922 -3.57523 0
M  V30 10410 C 1053.24 -0.854949 -4.39767 0
M  V30 10411 C 1054.98 0.955301 -4.13611 0
M  V30 10412 C 1052.89 -0.614033 -5.88204 0
M  V30 10413 H 1051.82 0.0797635 -0.749769 0
M  V30 10414 H 1054.47 -0.50361 -1.76454 0
M  V30 10415 H 1052.85 1.18155 -3.77962 0
M  V30 10416 H 1054.03 -1.62765 -4.31096 0
M  V30 10417 H 1052.34 -1.32176 -3.94865 0
M  V30 10418 H 1054.94 1.15114 -5.22162 0
M  V30 10419 H 1055.28 1.92233 -3.69259 0
M  V30 10420 H 1055.82 0.24642 -3.97036 0
M  V30 10421 H 1052.55 -1.55187 -6.36865 0
M  V30 10422 H 1052.07 0.119865 -5.9968 0
M  V30 10423 H 1053.75 -0.245895 -6.46533 0
M  V30 10424 N 1053.89 1.57202 -0.111913 0
M  V30 10425 C 1054.85 2.13778 0.826534 0
M  V30 10426 C 1055.85 1.07097 1.19945 0
M  V30 10427 O 1057.04 1.32906 1.12613 0
M  V30 10428 C 1054.17 2.6722 2.11675 0
M  V30 10429 H 1055.36 2.98023 0.334975 0
M  V30 10430 H 1052.92 1.55696 0.137256 0
M  V30 10431 H 1053.65 1.86542 2.65278 0
M  V30 10432 H 1053.44 3.45235 1.8589 0
M  V30 10433 H 1054.93 3.10926 2.78774 0
M  V30 10434 N 1055.36 -0.161842 1.56767 0
M  V30 10435 C 1056.33 -1.18404 1.96247 0
M  V30 10436 C 1057.33 -1.3667 0.84722 0
M  V30 10437 O 1058.52 -1.33915 1.11411 0
M  V30 10438 C 1055.65 -2.54728 2.26553 0
M  V30 10439 H 1056.84 -0.845703 2.87729 0
M  V30 10440 H 1054.39 -0.404645 1.50971 0
M  V30 10441 H 1055.13 -2.93559 1.37816 0
M  V30 10442 H 1054.91 -2.42834 3.07854 0
M  V30 10443 H 1056.4 -3.28378 2.57987 0
M  V30 10444 N 1056.84 -1.516 -0.430713 0
M  V30 10445 C 1058.09 -1.6484 -1.18134 0
M  V30 10446 C 1058.42 -0.366725 -1.90706 0
M  V30 10447 O 1057.7 0.63398 -1.83878 0
M  V30 10448 C 1057.98 -2.85617 -2.19306 0
M  V30 10449 C 1057.83 -4.23778 -1.50773 0
M  V30 10450 C 1059.15 -3.01909 -3.20217 0
M  V30 10451 H 1056.27 -0.599907 -0.428113 0
M  V30 10452 H 1058.91 -1.84102 -0.46973 0
M  V30 10453 H 1057.06 -2.69325 -2.79993 0
M  V30 10454 H 1058.73 -4.51752 -0.93371 0
M  V30 10455 H 1056.98 -4.26171 -0.809966 0
M  V30 10456 H 1057.65 -5.04291 -2.24487 0
M  V30 10457 H 1060.12 -3.16956 -2.69589 0
M  V30 10458 H 1059 -3.87968 -3.88293 0
M  V30 10459 H 1059.26 -2.1427 -3.86705 0
M  V30 10460 N 1058.32 0.686584 -1.41858 0
M  V30 10461 C 1059.27 1.82167 -1.4463 0
M  V30 10462 C 1060.26 1.66286 -0.323313 0
M  V30 10463 O 1061.47 1.73038 -0.495773 0
M  V30 10464 H 1057.84 0.600454 -0.452724 0
M  V30 10465 H 1059.81 1.76947 -2.40276 0
M  V30 10466 C 1058.56 3.20248 -1.35412 0
M  V30 10467 H 1057.89 3.33089 -2.21115 0
M  V30 10468 H 1059.33 3.99723 -1.41413 0
M  V30 10469 C 1057.78 3.36832 -0.0674972 0
M  V30 10470 O 1058.31 3.91845 0.884325 0
M  V30 10471 N 1056.52 2.90598 0.011519 0
M  V30 10472 H 1056.07 2.46016 -0.76381 0
M  V30 10473 H 1056.03 3.02072 0.871774 0
M  V30 10474 N 1059.8 1.27835 0.921735 0
M  V30 10475 C 1061.05 1.14296 1.66676 0
M  V30 10476 C 1061.37 -0.310493 1.92512 0
M  V30 10477 O 1060.64 -1.21637 1.53562 0
M  V30 10478 H 1059.22 0.419994 0.617749 0
M  V30 10479 H 1061.88 1.60449 1.10644 0
M  V30 10480 H 1060.97 1.67654 2.63246 0
M  V30 10481 N 1061.28 -1.12907 1.09954 0
M  V30 10482 C 1062.69 -1.65847 0.857417 0
M  V30 10483 C 1063.04 -1.86372 -0.613176 0
M  V30 10484 O 1062.16 -1.58654 -1.47166 0
M  V30 10485 C 1062.76 -3.01269 1.54991 0
M  V30 10486 C 1061.32 -3.51179 1.35462 0
M  V30 10487 C 1060.46 -2.26307 1.60251 0
M  V30 10488 H 1063.41 -0.96755 1.25794 0
M  V30 10489 H 1063.44 -3.675 0.986091 0
M  V30 10490 H 1062.95 -2.86299 2.6202 0
M  V30 10491 H 1061.05 -3.71343 0.305742 0
M  V30 10492 H 1061.16 -4.30955 2.09318 0
M  V30 10493 H 1059.53 -2.33167 1.02494 0
M  V30 10494 H 1060.31 -2.13896 2.68521 0
M  V30 10495 N 1062.75 -0.88754 -1.30232 0
M  V30 10496 C 1063.98 -0.522306 -2.00199 0
M  V30 10497 C 1064.4 0.889866 -1.66514 0
M  V30 10498 O 1063.75 1.58558 -0.903639 0
M  V30 10499 C 1063.8 -0.690551 -3.54843 0
M  V30 10500 O 1063.53 -2.04713 -3.8733 0
M  V30 10501 C 1065.03 -0.328649 -4.4208 0
M  V30 10502 H 1062.25 -0.201628 -0.63999 0
M  V30 10503 H 1064.79 -1.19355 -1.66056 0
M  V30 10504 H 1062.95 -0.0666493 -3.87343 0
M  V30 10505 H 1063.36 -2.06762 -4.82027 0
M  V30 10506 H 1064.83 -0.497257 -5.49756 0
M  V30 10507 H 1065.31 0.733502 -4.33032 0
M  V30 10508 H 1065.92 -0.928982 -4.1503 0
M  V30 10509 N 1064.23 1.43628 -0.648757 0
M  V30 10510 C 1065.2 2.29172 0.0360713 0
M  V30 10511 C 1066.2 1.41974 0.754976 0
M  V30 10512 O 1067.39 1.63654 0.5969 0
M  V30 10513 C 1064.52 3.23942 1.0618 0
M  V30 10514 H 1065.71 2.91214 -0.716544 0
M  V30 10515 H 1063.26 1.50833 -0.409759 0
M  V30 10516 H 1064 2.66786 1.8438 0
M  V30 10517 H 1063.78 3.88223 0.550016 0
M  V30 10518 H 1065.27 3.8816 1.54019 0
M  V30 10519 N 1065.71 0.390394 1.52688 0
M  V30 10520 C 1066.94 -0.191485 2.06012 0
M  V30 10521 C 1067.35 -1.40422 1.26202 0
M  V30 10522 O 1066.71 -1.79866 0.308963 0
M  V30 10523 C 1066.76 -0.560521 3.57128 0
M  V30 10524 O 1066.48 0.60404 4.33916 0
M  V30 10525 C 1067.98 -1.19814 4.26801 0
M  V30 10526 H 1065.2 -0.0286311 0.670389 0
M  V30 10527 H 1067.75 0.555939 1.96798 0
M  V30 10528 H 1065.9 -1.25784 3.66411 0
M  V30 10529 H 1066.32 0.300467 5.23639 0
M  V30 10530 H 1067.79 -1.40672 5.33775 0
M  V30 10531 H 1068.27 -2.16582 3.82085 0
M  V30 10532 H 1068.87 -0.541558 4.21838 0
M  V30 10533 N 1067.19 -1.57141 0.120249 0
M  V30 10534 C 1068.43 -1.95527 -0.538245 0
M  V30 10535 C 1068.77 -1.00373 -1.6625 0
M  V30 10536 O 1068.04 -0.0411734 -1.94456 0
M  V30 10537 C 1068.33 -3.43843 -1.06976 0
M  V30 10538 C 1068.18 -4.49771 0.0511596 0
M  V30 10539 C 1069.5 -3.94035 -1.96022 0
M  V30 10540 H 1066.62 -0.710958 -0.194183 0
M  V30 10541 H 1069.26 -1.88986 0.196061 0
M  V30 10542 H 1067.41 -3.49548 -1.69553 0
M  V30 10543 H 1069.08 -4.56163 0.686503 0
M  V30 10544 H 1067.32 -4.27882 0.714127 0
M  V30 10545 H 1067.99 -5.50812 -0.361995 0
M  V30 10546 H 1070.47 -3.9064 -1.43315 0
M  V30 10547 H 1069.35 -4.98329 -2.3013 0
M  V30 10548 H 1069.61 -3.34803 -2.8872 0
M  V30 10549 N 1068.67 0.153526 -1.5685 0
M  V30 10550 C 1069.91 0.868517 -1.83261 0
M  V30 10551 C 1070.25 1.81112 -0.700857 0
M  V30 10552 O 1069.52 1.92235 0.295989 0
M  V30 10553 C 1069.8 1.6487 -3.2014 0
M  V30 10554 C 1069.66 0.728021 -4.43869 0
M  V30 10555 C 1070.98 2.61259 -3.54163 0
M  V30 10556 H 1068.09 0.314297 -0.666623 0
M  V30 10557 H 1070.74 0.133971 -1.89527 0
M  V30 10558 H 1068.89 2.2749 -3.1493 0
M  V30 10559 H 1070.56 0.113328 -4.61161 0
M  V30 10560 H 1068.8 0.0371744 -4.33784 0
M  V30 10561 H 1069.47 1.30981 -5.36235 0
M  V30 10562 H 1071.95 2.0876 -3.59942 0
M  V30 10563 H 1070.82 3.12902 -4.50981 0
M  V30 10564 H 1071.09 3.42307 -2.79782 0
M  V30 10565 N 1070.14 1.51827 0.422667 0
M  V30 10566 C 1071.37 1.69337 1.19748 0
M  V30 10567 C 1071.79 0.396312 1.83878 0
M  V30 10568 O 1071.15 -0.644976 1.6944 0
M  V30 10569 C 1071.2 2.82082 2.24637 0
M  V30 10570 O 1070.3 2.46708 3.30468 0
M  V30 10571 H 1069.65 0.564154 0.35018 0
M  V30 10572 H 1072.18 1.98465 0.497289 0
M  V30 10573 H 1072.19 3.06599 2.69186 0
M  V30 10574 H 1070.86 3.76195 1.77341 0
M  V30 10575 H 1069.44 2.32815 2.91293 0
M  V30 10576 N 1071.62 -0.679052 1.4222 0
M  V30 10577 C 1072.87 -1.43627 1.42182 0
M  V30 10578 C 1073.19 -1.94964 0.0377095 0
M  V30 10579 O 1072.46 -1.72788 -0.923098 0
M  V30 10580 H 1071.04 -0.532972 0.523402 0
M  V30 10581 H 1073.7 -0.802649 1.77605 0
M  V30 10582 H 1072.8 -2.29137 2.11902 0
M  V30 10583 N 1073.1 -1.28322 -0.914942 0
M  V30 10584 C 1074.38 -1.06111 -1.64316 0
M  V30 10585 C 1074.76 0.399934 -2.07277 0
M  V30 10586 O 1074.11 1.38577 -1.81683 0
M  V30 10587 C 1074.32 -2.03461 -2.83557 0
M  V30 10588 C 1075.66 -2.33541 -3.54604 0
M  V30 10589 O 1076.69 -2.01536 -2.93704 0
M  V30 10590 O 1075.55 -2.88158 -4.64357 0
M  V30 10591 H 1072.64 -0.405451 -0.72079 0
M  V30 10592 H 1075.19 -1.39636 -0.964352 0
M  V30 10593 H 1073.96 -3.01938 -2.48896 0
M  V30 10594 H 1073.58 -1.70574 -3.59152 0
M  V30 10595 N 1074.58 1.12322 -1.10551 0
M  V30 10596 C 1075.99 1.6539 -0.8662 0
M  V30 10597 C 1076.34 1.86695 0.603284 0
M  V30 10598 O 1075.47 1.59432 1.46323 0
M  V30 10599 C 1076.06 3.00443 -1.56587 0
M  V30 10600 C 1074.62 3.50456 -1.37323 0
M  V30 10601 C 1073.77 2.25454 -1.61449 0
M  V30 10602 H 1076.72 0.960866 -1.26305 0
M  V30 10603 H 1076.74 3.66972 -1.00557 0
M  V30 10604 H 1076.25 2.84905 -2.63535 0
M  V30 10605 H 1074.35 3.71176 -0.325431 0
M  V30 10606 H 1074.46 4.29839 -2.11601 0
M  V30 10607 H 1072.83 2.32621 -1.03729 0
M  V30 10608 H 1073.61 2.12469 -2.69651 0
M  V30 10609 N 1076.06 0.894434 1.2976 0
M  V30 10610 C 1077.28 0.532916 1.99919 0
M  V30 10611 C 1077.7 -0.881022 1.66983 0
M  V30 10612 O 1077.06 -1.58076 0.912035 0
M  V30 10613 C 1077.11 0.70936 3.54472 0
M  V30 10614 O 1076.83 2.06764 3.86239 0
M  V30 10615 C 1078.33 0.352089 4.419 0
M  V30 10616 H 1075.55 0.205019 0.638912 0
M  V30 10617 H 1078.09 1.20233 1.65421 0
M  V30 10618 H 1076.25 0.0871901 3.87302 0
M  V30 10619 H 1076.66 2.09315 4.80924 0
M  V30 10620 H 1078.14 0.526405 5.49484 0
M  V30 10621 H 1078.61 -0.710527 4.33415 0
M  V30 10622 H 1079.22 0.950979 4.14532 0
M  V30 10623 N 1077.53 -1.43282 0.656365 0
M  V30 10624 C 1078.47 -2.29087 -0.0720378 0
M  V30 10625 C 1079.48 -1.4268 -0.783982 0
M  V30 10626 O 1080.67 -1.66585 -0.641213 0
M  V30 10627 C 1077.77 -3.19676 -1.12519 0
M  V30 10628 C 1076.94 -4.34638 -0.490756 0
M  V30 10629 C 1076 -5.06079 -1.44121 0
M  V30 10630 O 1075.03 -5.6124 -0.948595 0
M  V30 10631 N 1076.23 -5.09872 -2.77509 0
M  V30 10632 H 1078.99 -2.92241 0.664456 0
M  V30 10633 H 1076.55 -1.54006 0.499383 0
M  V30 10634 H 1078.55 -3.64334 -1.76189 0
M  V30 10635 H 1077.12 -2.581 -1.76362 0
M  V30 10636 H 1076.34 -3.92857 0.3251 0
M  V30 10637 H 1077.62 -5.08777 -0.0480061 0
M  V30 10638 H 1077.02 -4.66433 -3.20088 0
M  V30 10639 H 1075.58 -5.58237 -3.36474 0
M  V30 10640 N 1079.01 -0.398486 -1.52479 0
M  V30 10641 C 1080.26 0.182046 -2.00877 0
M  V30 10642 C 1080.58 1.47128 -1.2889 0
M  V30 10643 O 1081.78 2.13242 -1.68048 0
M  V30 10644 C 1080.24 0.374978 -3.57941 0
M  V30 10645 C 1079.85 -0.901544 -4.38835 0
M  V30 10646 C 1081.59 0.911378 -4.14601 0
M  V30 10647 C 1079.5 -0.676385 -5.87519 0
M  V30 10648 H 1078.43 0.0718068 -0.750573 0
M  V30 10649 H 1081.08 -0.522297 -1.7591 0
M  V30 10650 H 1079.46 1.14139 -3.79194 0
M  V30 10651 H 1080.63 -1.67329 -4.29346 0
M  V30 10652 H 1078.95 -1.36357 -3.93441 0
M  V30 10653 H 1081.55 1.09569 -5.23353 0
M  V30 10654 H 1081.89 1.88306 -3.71277 0
M  V30 10655 H 1082.42 0.204296 -3.97275 0
M  V30 10656 H 1079.16 -1.61933 -6.35184 0
M  V30 10657 H 1078.68 0.0562542 -5.99774 0
M  V30 10658 H 1080.36 -0.314454 -6.46235 0
M  V30 10659 N 1080.49 1.57075 -0.12858 0
M  V30 10660 C 1081.42 2.12907 0.848708 0
M  V30 10661 C 1082.44 1.07406 1.22343 0
M  V30 10662 O 1083.63 1.34746 1.17071 0
M  V30 10663 C 1080.73 2.62167 2.1476 0
M  V30 10664 C 1079.9 3.91871 1.94309 0
M  V30 10665 C 1078.96 4.26629 3.08016 0
M  V30 10666 O 1077.98 4.9528 2.80511 0
M  V30 10667 N 1079.19 3.84721 4.34706 0
M  V30 10668 H 1081.95 2.97387 0.371636 0
M  V30 10669 H 1079.51 1.61805 0.0555574 0
M  V30 10670 H 1081.5 2.82444 2.89841 0
M  V30 10671 H 1080.07 1.82514 2.53786 0
M  V30 10672 H 1079.29 3.80406 1.03367 0
M  V30 10673 H 1080.58 4.76662 1.77962 0
M  V30 10674 H 1079.98 3.2937 4.59926 0
M  V30 10675 H 1078.54 4.10087 5.06628 0
M  V30 10676 N 1081.97 -0.145205 1.5693 0
M  V30 10677 C 1082.88 -1.19864 2.01667 0
M  V30 10678 C 1083.9 -1.46909 0.932402 0
M  V30 10679 O 1085.07 -1.58543 1.24201 0
M  V30 10680 C 1082.14 -2.51174 2.38982 0
M  V30 10681 C 1081.2 -2.3176 3.61366 0
M  V30 10682 C 1080.43 -3.56809 3.96892 0
M  V30 10683 O 1080.65 -4.63063 3.33059 0
M  V30 10684 O 1079.59 -3.49366 4.9013 0
M  V30 10685 H 1083.41 -0.848821 2.91597 0
M  V30 10686 H 1081 -0.354063 1.45144 0
M  V30 10687 H 1082.88 -3.28587 2.63835 0
M  V30 10688 H 1081.56 -2.85683 1.52207 0
M  V30 10689 H 1080.46 -1.52293 3.41698 0
M  V30 10690 H 1081.8 -2.02167 4.48764 0
M  V30 10691 N 1083.45 -1.52049 -0.414609 0
M  V30 10692 C 1084.38 -1.77956 -1.51175 0
M  V30 10693 C 1085.36 -0.630282 -1.57992 0
M  V30 10694 O 1086.54 -0.875324 -1.73354 0
M  V30 10695 C 1083.67 -1.92527 -2.89051 0
M  V30 10696 C 1082.63 -3.08096 -2.97087 0
M  V30 10697 C 1081.95 -3.07882 -4.37164 0
M  V30 10698 C 1083.25 -4.47656 -2.69075 0
M  V30 10699 H 1084.95 -2.69827 -1.29746 0
M  V30 10700 H 1082.49 -1.29839 -0.62273 0
M  V30 10701 H 1084.45 -2.09234 -3.65786 0
M  V30 10702 H 1083.17 -0.973235 -3.11762 0
M  V30 10703 H 1081.83 -2.91131 -2.22797 0
M  V30 10704 H 1081.48 -2.10411 -4.56877 0
M  V30 10705 H 1081.18 -3.85501 -4.43467 0
M  V30 10706 H 1082.7 -3.26712 -5.15841 0
M  V30 10707 H 1084.12 -4.64855 -3.35534 0
M  V30 10708 H 1082.51 -5.27151 -2.8676 0
M  V30 10709 H 1083.58 -4.56129 -1.64544 0
M  V30 10710 N 1084.93 0.6715 -1.42579 0
M  V30 10711 C 1085.89 1.76676 -1.46008 0
M  V30 10712 C 1086.89 1.57007 -0.347213 0
M  V30 10713 O 1088.08 1.63238 -0.608185 0
M  V30 10714 C 1085.21 3.15348 -1.29494 0
M  V30 10715 H 1086.4 1.75021 -2.43531 0
M  V30 10716 H 1083.96 0.881444 -1.29075 0
M  V30 10717 H 1084.69 3.22626 -0.32906 0
M  V30 10718 H 1084.48 3.31028 -2.10149 0
M  V30 10719 H 1085.97 3.95251 -1.34784 0
M  V30 10720 N 1086.4 1.28806 0.908124 0
M  V30 10721 C 1087.34 1.09018 2.01613 0
M  V30 10722 C 1088.35 0.0402059 1.6275 0
M  V30 10723 O 1089.54 0.283853 1.76229 0
M  V30 10724 C 1086.64 0.635712 3.32884 0
M  V30 10725 C 1085.81 1.76235 4.00325 0
M  V30 10726 C 1084.87 1.3003 5.09881 0
M  V30 10727 O 1083.9 2.00354 5.32773 0
M  V30 10728 N 1085.1 0.166575 5.80261 0
M  V30 10729 H 1087.86 2.0444 2.19144 0
M  V30 10730 H 1085.42 1.20633 1.07978 0
M  V30 10731 H 1087.42 0.310097 4.0351 0
M  V30 10732 H 1085.99 -0.225816 3.11783 0
M  V30 10733 H 1085.21 2.25727 3.23173 0
M  V30 10734 H 1086.49 2.51796 4.42127 0
M  V30 10735 H 1085.89 -0.419934 5.64139 0
M  V30 10736 H 1084.45 -0.0997281 6.51724 0
M  V30 10737 N 1087.88 -1.11734 1.11145 0
M  V30 10738 C 1088.84 -2.15868 0.770303 0
M  V30 10739 C 1089.84 -1.59438 -0.208842 0
M  V30 10740 O 1091.03 -1.74193 0.0152516 0
M  V30 10741 C 1088.17 -3.40603 0.142303 0
M  V30 10742 H 1089.36 -2.4756 1.69276 0
M  V30 10743 H 1086.91 -1.26867 0.912929 0
M  V30 10744 H 1087.65 -3.14517 -0.790526 0
M  V30 10745 H 1087.43 -3.8284 0.847087 0
M  V30 10746 H 1088.92 -4.17523 -0.0803608 0
M  V30 10747 N 1089.36 -0.901303 -1.29284 0
M  V30 10748 C 1090.6 -0.534971 -1.97275 0
M  V30 10749 C 1090.96 0.902226 -1.69481 0
M  V30 10750 O 1092.16 1.37551 -2.3094 0
M  V30 10751 C 1090.44 -0.821095 -3.4784 0
M  V30 10752 S 1091.99 -0.559312 -4.35221 0
M  V30 10753 H 1088.81 -0.198409 -0.682755 0
M  V30 10754 H 1091.41 -1.16408 -1.57065 0
M  V30 10755 H 1090.12 -1.86527 -3.65562 0
M  V30 10756 H 1089.65 -0.18016 -3.92987 0
M  V30 10757 H 1091.66 0.59494 -4.9262 0
M  V30 10758 N 1090.84 1.42931 -0.663954 0
M  V30 10759 C 1091.75 2.3459 0.0214234 0
M  V30 10760 C 1092.76 1.54487 0.800611 0
M  V30 10761 O 1093.94 1.87098 0.74541 0
M  V30 10762 C 1091 3.32896 0.968556 0
M  V30 10763 C 1090.07 4.28901 0.185108 0
M  V30 10764 C 1089.3 5.2251 1.08713 0
M  V30 10765 O 1089.52 5.20795 2.32655 0
M  V30 10766 O 1088.46 5.99347 0.553758 0
M  V30 10767 H 1092.28 2.94714 -0.733308 0
M  V30 10768 H 1089.87 1.43252 -0.424159 0
M  V30 10769 H 1091.75 3.93318 1.51257 0
M  V30 10770 H 1090.42 2.75261 1.70333 0
M  V30 10771 H 1089.33 3.71926 -0.402752 0
M  V30 10772 H 1090.66 4.89547 -0.510319 0
M  V30 10773 N 1092.32 0.406567 1.52266 0
M  V30 10774 C 1093.28 -0.408251 2.25535 0
M  V30 10775 C 1094.28 -0.975795 1.27808 0
M  V30 10776 O 1095.47 -0.855077 1.5177 0
M  V30 10777 C 1092.6 -1.57443 3.02365 0
M  V30 10778 H 1093.79 0.233459 2.9899 0
M  V30 10779 H 1091.35 0.159032 1.55489 0
M  V30 10780 H 1092.08 -2.25308 2.33252 0
M  V30 10781 H 1091.87 -1.17399 3.74112 0
M  V30 10782 H 1093.36 -2.15088 3.57948 0
M  V30 10783 N 1093.79 -1.57004 0.136909 0
M  V30 10784 C 1095.07 -1.87375 -0.561233 0
M  V30 10785 C 1095.45 -1.04117 -1.83638 0
M  V30 10786 O 1094.8 -0.125103 -2.28157 0
M  V30 10787 C 1095.01 -3.38829 -0.836426 0
M  V30 10788 C 1096.36 -4.07826 -1.18164 0
M  V30 10789 O 1097.38 -3.4395 -0.92611 0
M  V30 10790 O 1096.24 -5.20614 -1.66204 0
M  V30 10791 H 1093.33 -0.776287 -0.285145 0
M  V30 10792 H 1095.88 -1.68818 0.172761 0
M  V30 10793 H 1094.65 -3.91244 0.066442 0
M  V30 10794 H 1094.28 -3.62879 -1.62496 0
M  V30 10795 N 1095.27 0.136881 -1.57004 0
M  V30 10796 C 1096.52 0.8461 -1.83536 0
M  V30 10797 C 1096.84 1.81246 -0.71937 0
M  V30 10798 O 1096.11 1.94191 0.258161 0
M  V30 10799 H 1094.69 0.315446 -0.677128 0
M  V30 10800 H 1097.35 0.128469 -1.94476 0
M  V30 10801 H 1096.45 1.40221 -2.78827 0
M  V30 10802 N 1096.75 1.52266 0.40654 0
M  V30 10803 C 1098 1.6568 1.15035 0
M  V30 10804 C 1098.31 0.394135 1.91588 0
M  V30 10805 O 1099.52 0.408113 2.68415 0
M  V30 10806 C 1097.97 2.92725 2.0938 0
M  V30 10807 C 1097.58 4.26108 1.38332 0
M  V30 10808 C 1099.33 3.15502 2.84004 0
M  V30 10809 C 1097.23 5.44275 2.3134 0
M  V30 10810 H 1096.16 0.61719 0.43312 0
M  V30 10811 H 1098.81 1.78755 0.414598 0
M  V30 10812 H 1097.2 2.73355 2.86519 0
M  V30 10813 H 1098.37 4.55971 0.665396 0
M  V30 10814 H 1096.69 4.09454 0.757384 0
M  V30 10815 H 1099.28 4.00964 3.5374 0
M  V30 10816 H 1099.63 2.29842 3.471 0
M  V30 10817 H 1100.16 3.35357 2.13964 0
M  V30 10818 H 1096.9 6.3229 1.72887 0
M  V30 10819 H 1096.42 5.18749 3.01098 0
M  V30 10820 H 1098.1 5.77457 2.91809 0
M  V30 10821 N 1098.23 -0.663929 1.42933 0
M  V30 10822 C 1099.64 -0.978346 1.26097 0
M  V30 10823 C 1099.84 -2.00756 0.172968 0
M  V30 10824 O 1098.9 -2.48418 -0.452184 0
M  V30 10825 C 1100.21 -1.4728 2.62162 0
M  V30 10826 C 1101.76 -1.59001 2.69606 0
M  V30 10827 C 1102.24 -2.1184 4.06064 0
M  V30 10828 N 1103.73 -2.19158 4.08074 0
M  V30 10829 C 1104.46 -2.61141 5.10483 0
M  V30 10830 N 1103.96 -3.02498 6.23271 0
M  V30 10831 N 1105.75 -2.60986 4.97838 0
M  V30 10832 H 1097.9 0.0173096 2.12393 0
M  V30 10833 H 1100.17 -0.0548116 0.946414 0
M  V30 10834 H 1099.87 -0.791008 3.42689 0
M  V30 10835 H 1099.75 -2.4497 2.86827 0
M  V30 10836 H 1102.13 -2.26284 1.89418 0
M  V30 10837 H 1102.21 -0.597728 2.48718 0
M  V30 10838 H 1101.86 -1.45162 4.86714 0
M  V30 10839 H 1101.79 -3.1188 4.2431 0
M  V30 10840 H 1104.28 -1.90013 3.26655 0
M  V30 10841 H 1104.59 -3.33251 6.97254 0
M  V30 10842 H 1102.94 -3.00328 6.2676 0
M  V30 10843 H 1106.13 -2.28046 4.08794 0
M  V30 10844 H 1106.3 -2.93384 5.7778 0
M  V30 10845 N 1099.71 -1.29285 -0.901281 0
M  V30 10846 C 1100.67 -1.14283 -1.98676 0
M  V30 10847 C 1101.67 -0.0787641 -1.60607 0
M  V30 10848 O 1102.86 -0.325574 -1.71131 0
M  V30 10849 C 1099.99 -0.747279 -3.32609 0
M  V30 10850 H 1101.18 -2.10701 -2.13413 0
M  V30 10851 H 1098.74 -1.12449 -1.08558 0
M  V30 10852 H 1099.47 0.217111 -3.23572 0
M  V30 10853 H 1099.26 -1.51608 -3.61604 0
M  V30 10854 H 1100.75 -0.665322 -4.12266 0
M  V30 10855 N 1101.18 1.11143 -1.11736 0
M  V30 10856 C 1102.6 1.34962 -0.851905 0
M  V30 10857 C 1102.8 1.94627 0.521797 0
M  V30 10858 O 1101.86 2.18121 1.27198 0
M  V30 10859 C 1103.17 2.27832 -1.96248 0
M  V30 10860 C 1104.72 2.41388 -1.9925 0
M  V30 10861 C 1105.19 3.37582 -3.09519 0
M  V30 10862 N 1106.68 3.45147 -3.08914 0
M  V30 10863 C 1107.42 4.19527 -3.90876 0
M  V30 10864 N 1106.91 4.96858 -4.82809 0
M  V30 10865 N 1108.71 4.15071 -3.79042 0
M  V30 10866 H 1100.86 0.707801 -2.0026 0
M  V30 10867 H 1103.12 0.374172 -0.871033 0
M  V30 10868 H 1102.83 1.91189 -2.95194 0
M  V30 10869 H 1102.7 3.28078 -1.86132 0
M  V30 10870 H 1105.09 2.77304 -1.00928 0
M  V30 10871 H 1105.17 1.40983 -2.13442 0
M  V30 10872 H 1104.81 3.02393 -4.0807 0
M  V30 10873 H 1104.74 4.37849 -2.92568 0
M  V30 10874 H 1107.23 2.89991 -2.42309 0
M  V30 10875 H 1107.55 5.5099 -5.41876 0
M  V30 10876 H 1105.89 4.96008 -4.86828 0
M  V30 10877 H 1109.08 3.53748 -3.06562 0
M  V30 10878 H 1109.26 4.72781 -4.4315 0
M  V30 10879 N 1102.66 0.908147 1.28804 0
M  V30 10880 C 1103.91 0.534332 1.94494 0
M  V30 10881 C 1104.22 -0.92552 1.72318 0
M  V30 10882 O 1105.43 -1.40724 2.32183 0
M  V30 10883 C 1103.89 0.904748 3.48342 0
M  V30 10884 C 1103.49 2.38394 3.79305 0
M  V30 10885 C 1105.24 0.601249 4.2022 0
M  V30 10886 C 1103.15 2.69478 5.26437 0
M  V30 10887 H 1102.08 0.196107 0.728051 0
M  V30 10888 H 1104.73 1.1063 1.46401 0
M  V30 10889 H 1103.11 0.261624 3.95135 0
M  V30 10890 H 1104.28 3.07333 3.43341 0
M  V30 10891 H 1102.6 2.65733 3.20586 0
M  V30 10892 H 1105.19 0.810225 5.28526 0
M  V30 10893 H 1105.54 -0.460669 4.13743 0
M  V30 10894 H 1106.07 1.20259 3.79187 0
M  V30 10895 H 1102.81 3.74501 5.37986 0
M  V30 10896 H 1102.33 2.05171 5.63618 0
M  V30 10897 H 1104.01 2.56187 5.94119 0
M  V30 10898 N 1104.14 -1.42577 0.671525 0
M  V30 10899 C 1105.39 -2.00806 0.189663 0
M  V30 10900 C 1105.7 -1.537 -1.20978 0
M  V30 10901 O 1106.91 -2.04325 -1.78784 0
M  V30 10902 C 1105.36 -3.58744 0.288227 0
M  V30 10903 C 1104.97 -4.14839 1.69152 0
M  V30 10904 C 1106.72 -4.24285 -0.13509 0
M  V30 10905 C 1104.62 -5.65131 1.74302 0
M  V30 10906 H 1103.55 -0.751004 0.067146 0
M  V30 10907 H 1106.2 -1.63338 0.83623 0
M  V30 10908 H 1104.59 -3.937 -0.426175 0
M  V30 10909 H 1105.76 -3.91349 2.43274 0
M  V30 10910 H 1104.08 -3.61738 2.0624 0
M  V30 10911 H 1106.67 -5.34573 -0.116709 0
M  V30 10912 H 1107.02 -3.99527 -1.16977 0
M  V30 10913 H 1107.55 -3.94278 0.528191 0
M  V30 10914 H 1104.29 -5.94682 2.75742 0
M  V30 10915 H 1103.81 -5.90621 1.04531 0
M  V30 10916 H 1105.49 -6.29491 1.49498 0
M  V30 10917 N 1105.62 -0.414636 -1.52048 0
M  V30 10918 C 1107.03 0.0537107 -1.86623 0
M  V30 10919 C 1107.38 1.43955 -1.3331 0
M  V30 10920 O 1106.51 2.05616 -0.674606 0
M  V30 10921 C 1107.1 0.104241 -3.3864 0
M  V30 10922 C 1105.66 0.516936 -3.72833 0
M  V30 10923 C 1104.81 -0.305042 -2.75617 0
M  V30 10924 H 1107.76 -0.631469 -1.45596 0
M  V30 10925 H 1107.78 0.918395 -3.6925 0
M  V30 10926 H 1107.29 -0.904523 -3.77412 0
M  V30 10927 H 1105.39 1.53214 -3.39641 0
M  V30 10928 H 1105.5 0.2575 -4.78408 0
M  V30 10929 H 1103.87 0.233416 -2.53628 0
M  V30 10930 H 1104.65 -1.31226 -3.1723 0
M  V30 10931 N 1107.1 1.56929 -0.145233 0
M  V30 10932 C 1108.34 1.96358 0.50707 0
M  V30 10933 C 1108.68 1.03005 1.64632 0
M  V30 10934 O 1107.95 0.0721045 1.94366 0
M  V30 10935 C 1108.23 3.45502 1.01492 0
M  V30 10936 C 1108.09 4.49633 -0.122708 0
M  V30 10937 C 1109.41 3.97103 1.89729 0
M  V30 10938 H 1106.52 0.713958 0.182848 0
M  V30 10939 H 1109.17 1.8865 -0.226102 0
M  V30 10940 H 1107.32 3.52202 1.6397 0
M  V30 10941 H 1108.99 4.55013 -0.758988 0
M  V30 10942 H 1107.23 4.26691 -0.782109 0
M  V30 10943 H 1107.9 5.51318 0.27432 0
M  V30 10944 H 1110.38 3.92871 1.37082 0
M  V30 10945 H 1109.25 5.01927 2.22173 0
M  V30 10946 H 1109.52 3.39354 2.83357 0
M  V30 10947 N 1108.58 -0.128553 1.57075 0
M  V30 10948 C 1109.85 -0.867766 1.75297 0
M  V30 10949 C 1110.23 -1.98508 0.718176 0
M  V30 10950 O 1109.58 -2.2702 -0.259616 0
M  V30 10951 C 1109.79 -1.39326 3.19983 0
M  V30 10952 C 1111.14 -1.84939 3.82208 0
M  V30 10953 O 1112.16 -1.49027 3.23527 0
M  V30 10954 O 1111.02 -2.51227 4.85332 0
M  V30 10955 H 1108.12 -0.411393 0.717415 0
M  V30 10956 H 1110.66 -0.113038 1.69323 0
M  V30 10957 H 1109.43 -0.591172 3.86809 0
M  V30 10958 H 1109.06 -2.21097 3.30457 0
M  V30 10959 N 1110.05 -1.5248 -0.398459 0
M  V30 10960 C 1111.28 -1.70677 -1.16417 0
M  V30 10961 C 1111.69 -0.420629 -1.84465 0
M  V30 10962 O 1111.03 0.614013 -1.73135 0
M  V30 10963 C 1111.1 -2.79401 -2.2622 0
M  V30 10964 C 1110.76 -4.20817 -1.78218 0
M  V30 10965 C 1111.76 -5.04298 -1.26409 0
M  V30 10966 C 1109.44 -4.67098 -1.84728 0
M  V30 10967 C 1111.44 -6.32136 -0.817461 0
M  V30 10968 C 1109.12 -5.94923 -1.39676 0
M  V30 10969 C 1110.12 -6.77272 -0.882716 0
M  V30 10970 O 1109.81 -8.02702 -0.438739 0
M  V30 10971 H 1109.54 -0.57503 -0.355411 0
M  V30 10972 H 1112.1 -1.99868 -0.473471 0
M  V30 10973 H 1110.33 -2.4561 -2.98685 0
M  V30 10974 H 1112.01 -2.86093 -2.87933 0
M  V30 10975 H 1112.78 -4.6973 -1.20744 0
M  V30 10976 H 1108.66 -4.03097 -2.23682 0
M  V30 10977 H 1112.2 -6.96361 -0.415548 0
M  V30 10978 H 1108.1 -6.28998 -1.45024 0
M  V30 10979 H 1108.87 -8.16575 -0.561079 0
M  V30 10980 N 1111.53 0.65634 -1.43283 0
M  V30 10981 C 1112.49 1.75117 -1.47874 0
M  V30 10982 C 1113.49 1.56629 -0.363846 0
M  V30 10983 O 1114.68 1.62584 -0.625464 0
M  V30 10984 C 1111.82 3.13957 -1.32831 0
M  V30 10985 H 1113.01 1.72429 -2.45374 0
M  V30 10986 H 1110.56 0.867704 -1.30002 0
M  V30 10987 H 1111.3 3.22259 -0.36326 0
M  V30 10988 H 1111.08 3.28781 -2.13649 0
M  V30 10989 H 1112.57 3.93799 -1.38969 0
M  V30 10990 N 1113.01 1.29761 0.894412 0
M  V30 10991 C 1114.23 1.21064 1.68399 0
M  V30 10992 C 1114.66 -0.224608 1.86754 0
M  V30 10993 O 1114.02 -1.16199 1.39167 0
M  V30 10994 C 1114.07 1.93468 3.04306 0
M  V30 10995 O 1113.17 1.25533 3.9283 0
M  V30 10996 H 1112.51 0.419223 0.514925 0
M  V30 10997 H 1115.04 1.71421 1.11696 0
M  V30 10998 H 1115.05 2.02127 3.54413 0
M  V30 10999 H 1113.73 2.97857 2.90265 0
M  V30 11000 H 1112.3 1.25168 3.51266 0
M  V30 11001 N 1114.49 -1.10549 1.12324 0
M  V30 11002 C 1115.44 -2.14997 0.758979 0
M  V30 11003 C 1116.42 -1.59078 -0.241461 0
M  V30 11004 O 1117.61 -1.76937 -0.0471439 0
M  V30 11005 C 1114.74 -3.42633 0.21395 0
M  V30 11006 C 1113.83 -4.05487 1.24261 0
M  V30 11007 N 1114.22 -4.43064 2.43984 0
M  V30 11008 C 1112.52 -4.32534 1.08769 0
M  V30 11009 C 1113.22 -4.92427 3.09662 0
M  V30 11010 N 1112.19 -4.89161 2.37114 0
M  V30 11011 H 1116 -2.4184 1.67005 0
M  V30 11012 H 1113.51 -1.27659 1.00384 0
M  V30 11013 H 1115.51 -4.16849 -0.0651928 0
M  V30 11014 H 1114.17 -3.17249 -0.691591 0
M  V30 11015 H 1115.18 -4.34797 2.81375 0
M  V30 11016 H 1111.86 -4.16813 0.239354 0
M  V30 11017 H 1113.25 -5.31059 4.11614 0
M  V30 11018 N 1115.97 -0.914965 -1.28321 0
M  V30 11019 C 1117.19 -0.564023 -1.99583 0
M  V30 11020 C 1117.62 0.847821 -1.6791 0
M  V30 11021 O 1116.97 1.56682 -0.912171 0
M  V30 11022 C 1117.02 -0.781368 -3.52033 0
M  V30 11023 O 1116.13 0.159072 -4.12093 0
M  V30 11024 H 1115.47 -0.218565 -0.626997 0
M  V30 11025 H 1118 -1.23074 -1.63444 0
M  V30 11026 H 1118.01 -0.691946 -4.0209 0
M  V30 11027 H 1116.68 -1.81059 -3.7442 0
M  V30 11028 H 1115.26 0.0208145 -3.72894 0
M  V30 11029 N 1117.44 1.42219 -0.679077 0
M  V30 11030 C 1118.41 2.29197 -0.0125475 0
M  V30 11031 C 1119.41 1.43544 0.724691 0
M  V30 11032 O 1120.6 1.64884 0.562052 0
M  V30 11033 C 1117.73 3.26122 0.992846 0
M  V30 11034 H 1118.92 2.89629 -0.778154 0
M  V30 11035 H 1116.47 1.4993 -0.44166 0
M  V30 11036 H 1117.21 2.70637 1.78679 0
M  V30 11037 H 1116.99 3.89302 0.467544 0
M  V30 11038 H 1118.48 3.91339 1.45751 0
M  V30 11039 N 1118.92 0.422693 1.51826 0
M  V30 11040 C 1119.87 -0.413725 2.24215 0
M  V30 11041 C 1120.86 -1.00228 1.2587 0
M  V30 11042 O 1122.05 -0.922845 1.51038 0
M  V30 11043 C 1119.18 -1.52244 3.07696 0
M  V30 11044 C 1118.26 -0.943999 4.1346 0
M  V30 11045 N 1118.65 -0.0934117 5.05714 0
M  V30 11046 C 1116.95 -1.21311 4.29185 0
M  V30 11047 C 1117.65 0.229891 5.81246 0
M  V30 11048 N 1116.63 -0.382753 5.42251 0
M  V30 11049 H 1120.43 0.242283 2.929 0
M  V30 11050 H 1117.94 0.233902 1.60707 0
M  V30 11051 H 1119.94 -2.13438 3.5812 0
M  V30 11052 H 1118.6 -2.18093 2.40552 0
M  V30 11053 H 1119.61 0.271932 5.17186 0
M  V30 11054 H 1116.29 -1.87018 3.7327 0
M  V30 11055 H 1117.68 0.921159 6.65556 0
M  V30 11056 N 1120.4 -1.5685 0.153553 0
M  V30 11057 C 1121.65 -1.96625 -0.49665 0
M  V30 11058 C 1121.98 -1.03877 -1.64083 0
M  V30 11059 O 1121.25 -0.0824112 -1.94325 0
M  V30 11060 C 1121.54 -3.46035 -0.996585 0
M  V30 11061 C 1121.39 -4.49561 0.146551 0
M  V30 11062 C 1122.71 -3.98104 -1.8762 0
M  V30 11063 H 1119.83 -0.714917 -0.179059 0
M  V30 11064 H 1122.47 -1.88527 0.236104 0
M  V30 11065 H 1120.62 -3.53066 -1.621 0
M  V30 11066 H 1122.29 -4.54604 0.783108 0
M  V30 11067 H 1120.53 -4.26271 0.804727 0
M  V30 11068 H 1121.21 -5.51456 -0.245078 0
M  V30 11069 H 1123.68 -3.93593 -1.34997 0
M  V30 11070 H 1122.56 -5.03098 -2.19508 0
M  V30 11071 H 1122.82 -3.40852 -2.81554 0
M  V30 11072 N 1121.88 0.120221 -1.57141 0
M  V30 11073 C 1122.79 1.16641 -2.03549 0
M  V30 11074 C 1123.8 1.45407 -0.955656 0
M  V30 11075 O 1124.98 1.56547 -1.26708 0
M  V30 11076 C 1122.04 2.4734 -2.42948 0
M  V30 11077 C 1121.11 2.25982 -3.65008 0
M  V30 11078 C 1120.34 3.50449 -4.02518 0
M  V30 11079 O 1120.56 4.57706 -3.40384 0
M  V30 11080 O 1119.5 3.41524 -4.95626 0
M  V30 11081 H 1123.32 0.802323 -2.9291 0
M  V30 11082 H 1120.91 0.330927 -1.45689 0
M  V30 11083 H 1122.79 3.24348 -2.69029 0
M  V30 11084 H 1121.46 2.83225 -1.56733 0
M  V30 11085 H 1120.37 1.46837 -3.44078 0
M  V30 11086 H 1121.7 1.95002 -4.51924 0
M  V30 11087 N 1123.36 1.52689 0.390367 0
M  V30 11088 C 1124.58 1.71541 1.15678 0
M  V30 11089 C 1125 0.433171 1.83764 0
M  V30 11090 O 1124.36 -0.592248 1.72623 0
M  V30 11091 C 1124.41 2.864 2.20584 0
M  V30 11092 O 1124.13 4.0966 1.55274 0
M  V30 11093 C 1125.63 3.1692 3.09962 0
M  V30 11094 H 1122.85 0.574381 0.346883 0
M  V30 11095 H 1125.39 1.99332 0.456851 0
M  V30 11096 H 1123.55 2.61075 2.86214 0
M  V30 11097 H 1123.96 4.73802 2.2497 0
M  V30 11098 H 1125.44 4.00755 3.79604 0
M  V30 11099 H 1125.91 2.31245 3.73393 0
M  V30 11100 H 1126.52 3.4408 2.49979 0
M  V30 11101 N 1124.83 -0.648732 1.43629 0
M  V30 11102 C 1126.08 -1.40446 1.44768 0
M  V30 11103 C 1126.4 -1.95447 0.0773445 0
M  V30 11104 O 1127.6 -2.71479 -0.0337942 0
M  V30 11105 C 1126.06 -2.54194 2.54781 0
M  V30 11106 C 1125.67 -2.05781 3.97942 0
M  V30 11107 C 1127.41 -3.31529 2.65121 0
M  V30 11108 C 1125.32 -3.16767 4.99412 0
M  V30 11109 H 1124.25 -0.527717 0.538545 0
M  V30 11110 H 1126.9 -0.699756 1.69634 0
M  V30 11111 H 1125.28 -3.27156 2.23125 0
M  V30 11112 H 1126.45 -1.398 4.39081 0
M  V30 11113 H 1124.77 -1.41312 3.91688 0
M  V30 11114 H 1127.37 -4.14233 3.38105 0
M  V30 11115 H 1127.71 -3.79855 1.70341 0
M  V30 11116 H 1128.24 -2.65649 2.961 0
M  V30 11117 H 1124.98 -2.73404 5.9576 0
M  V30 11118 H 1124.5 -3.81445 4.62882 0
M  V30 11119 H 1126.18 -3.81827 5.22319 0
M  V30 11120 N 1126.31 -1.30234 -0.887518 0
M  V30 11121 C 1127.22 -1.18316 -2.02579 0
M  V30 11122 C 1128.24 -0.103658 -1.73691 0
M  V30 11123 O 1129.41 -0.3181 -1.98872 0
M  V30 11124 C 1126.48 -0.873222 -3.35523 0
M  V30 11125 C 1125.54 -2.03783 -3.7785 0
M  V30 11126 C 1124.77 -1.74258 -5.0445 0
M  V30 11127 O 1125 -0.669295 -5.6646 0
M  V30 11128 O 1123.93 -2.59423 -5.43124 0
M  V30 11129 H 1127.76 -2.13933 -2.15561 0
M  V30 11130 H 1125.34 -1.09803 -1.0131 0
M  V30 11131 H 1127.22 -0.715463 -4.15282 0
M  V30 11132 H 1125.9 0.053056 -3.23657 0
M  V30 11133 H 1124.81 -2.2509 -2.98806 0
M  V30 11134 H 1126.14 -2.94574 -3.94318 0
M  V30 11135 N 1127.79 1.09952 -1.12909 0
M  V30 11136 C 1128.74 2.18525 -0.796849 0
M  V30 11137 C 1129.73 1.67985 0.218483 0
M  V30 11138 O 1130.94 1.79839 0.07618 0
M  V30 11139 H 1127.31 0.712714 -0.239882 0
M  V30 11140 H 1129.28 2.43783 -1.72083 0
M  V30 11141 C 1128.03 3.46625 -0.273237 0
M  V30 11142 H 1127.36 3.85879 -1.04582 0
M  V30 11143 H 1128.8 4.23926 -0.0791355 0
M  V30 11144 C 1127.26 3.2172 0.999903 0
M  V30 11145 O 1127.79 3.43851 2.07676 0
M  V30 11146 N 1125.99 2.75356 0.928833 0
M  V30 11147 H 1125.54 2.57547 0.052379 0
M  V30 11148 H 1125.5 2.5907 1.78129 0
M  V30 11149 N 1129.27 0.921757 1.27833 0
M  V30 11150 C 1130.18 0.421668 2.30779 0
M  V30 11151 C 1131.19 -0.494686 1.6682 0
M  V30 11152 O 1132.37 -0.378935 1.97803 0
M  V30 11153 C 1129.44 -0.322928 3.45193 0
M  V30 11154 C 1128.5 0.627618 4.24687 0
M  V30 11155 C 1127.73 -0.0815385 5.33638 0
M  V30 11156 O 1127.95 -1.30193 5.55343 0
M  V30 11157 O 1126.89 0.58725 5.99028 0
M  V30 11158 H 1130.71 1.2763 2.7558 0
M  V30 11159 H 1128.3 0.686877 1.32674 0
M  V30 11160 H 1130.18 -0.743145 4.14796 0
M  V30 11161 H 1128.85 -1.15326 3.02459 0
M  V30 11162 H 1127.76 1.09739 3.57642 0
M  V30 11163 H 1129.09 1.425 4.71121 0
M  V30 11164 N 1130.75 -1.41857 0.686609 0
M  V30 11165 C 1131.68 -2.33481 0.0298353 0
M  V30 11166 C 1132.66 -1.51329 -0.776756 0
M  V30 11167 O 1133.84 -1.79895 -0.731535 0
M  V30 11168 C 1130.97 -3.35065 -0.913707 0
M  V30 11169 C 1129.93 -4.2746 -0.214861 0
M  V30 11170 C 1129.25 -5.19346 -1.27215 0
M  V30 11171 C 1130.55 -5.14252 0.913367 0
M  V30 11172 H 1132.25 -2.8865 0.795067 0
M  V30 11173 H 1129.79 -1.38792 0.383785 0
M  V30 11174 H 1131.75 -3.98082 -1.38234 0
M  V30 11175 H 1130.47 -2.78226 -1.7105 0
M  V30 11176 H 1129.13 -3.65855 0.233651 0
M  V30 11177 H 1128.78 -4.58827 -2.06124 0
M  V30 11178 H 1128.48 -5.81996 -0.80961 0
M  V30 11179 H 1130 -5.85239 -1.74147 0
M  V30 11180 H 1131.41 -5.70887 0.525424 0
M  V30 11181 H 1129.81 -5.85796 1.30244 0
M  V30 11182 H 1130.88 -4.51949 1.75699 0
M  V30 11183 N 1132.22 -0.430739 -1.51599 0
M  V30 11184 C 1133.19 0.372319 -2.26156 0
M  V30 11185 C 1134.19 0.955338 -1.29344 0
M  V30 11186 O 1135.38 0.830823 -1.53111 0
M  V30 11187 C 1132.51 1.52613 -3.04831 0
M  V30 11188 H 1133.7 -0.280996 -2.98581 0
M  V30 11189 H 1131.26 -0.183749 -1.55216 0
M  V30 11190 H 1131.99 2.21569 -2.36807 0
M  V30 11191 H 1131.78 1.11433 -3.75932 0
M  V30 11192 H 1133.27 2.09366 -3.61325 0
M  V30 11193 N 1133.7 1.56767 -0.161869 0
M  V30 11194 C 1134.98 1.88245 0.531352 0
M  V30 11195 C 1135.36 1.07025 1.81958 0
M  V30 11196 O 1134.71 0.161385 2.27929 0
M  V30 11197 C 1134.92 3.40117 0.782416 0
M  V30 11198 C 1136.27 4.09655 1.11661 0
M  V30 11199 O 1137.29 3.4538 0.871274 0
M  V30 11200 O 1136.15 5.23192 1.57901 0
M  V30 11201 H 1133.24 0.780725 0.272759 0
M  V30 11202 H 1135.79 1.68522 -0.199597 0
M  V30 11203 H 1134.56 3.91088 -0.128677 0
M  V30 11204 H 1134.18 3.65418 1.56702 0
M  V30 11205 N 1135.18 -0.111886 1.57202 0
M  V30 11206 C 1136.43 -0.819623 1.85499 0
M  V30 11207 C 1136.76 -1.7919 0.748629 0
M  V30 11208 O 1136.03 -1.92952 -0.244918 0
M  V30 11209 C 1136.32 -1.56324 3.24399 0
M  V30 11210 C 1136.17 -0.610081 4.45643 0
M  V30 11211 C 1137.49 -2.51777 3.60966 0
M  V30 11212 H 1134.61 -0.296512 0.674722 0
M  V30 11213 H 1137.25 -0.0836741 1.89816 0
M  V30 11214 H 1135.4 -2.1906 3.2085 0
M  V30 11215 H 1137.07 0.00898038 4.61299 0
M  V30 11216 H 1135.32 0.0778488 4.3373 0
M  V30 11217 H 1135.99 -1.16718 5.39519 0
M  V30 11218 H 1138.46 -1.99143 3.65351 0
M  V30 11219 H 1137.34 -3.00835 4.59118 0
M  V30 11220 H 1137.6 -3.34769 2.8876 0
M  V30 11221 N 1136.66 -1.52894 -0.382264 0
M  V30 11222 C 1137.59 -1.81122 -1.47367 0
M  V30 11223 C 1138.57 -0.663653 -1.56619 0
M  V30 11224 O 1139.75 -0.911898 -1.71459 0
M  V30 11225 C 1136.88 -1.98615 -2.84902 0
M  V30 11226 C 1135.84 -3.14328 -2.90485 0
M  V30 11227 C 1135.16 -3.17086 -4.30535 0
M  V30 11228 C 1136.46 -4.53263 -2.59519 0
M  V30 11229 H 1138.16 -2.72518 -1.23993 0
M  V30 11230 H 1135.7 -1.3113 -0.595049 0
M  V30 11231 H 1137.66 -2.16946 -3.61265 0
M  V30 11232 H 1136.38 -1.03915 -3.09628 0
M  V30 11233 H 1135.04 -2.95791 -2.16572 0
M  V30 11234 H 1134.69 -2.20055 -4.52311 0
M  V30 11235 H 1134.39 -3.94821 -4.3519 0
M  V30 11236 H 1135.91 -3.3758 -5.08795 0
M  V30 11237 H 1137.33 -4.71867 -3.25598 0
M  V30 11238 H 1135.72 -5.33115 -2.75514 0
M  V30 11239 H 1136.79 -4.59516 -1.54831 0
M  V30 11240 N 1138.14 0.641106 -1.43971 0
M  V30 11241 C 1139.1 1.73539 -1.49723 0
M  V30 11242 C 1140.1 1.56235 -0.380438 0
M  V30 11243 O 1141.29 1.61912 -0.642673 0
M  V30 11244 C 1138.42 3.1253 -1.36153 0
M  V30 11245 H 1139.62 1.69816 -2.47189 0
M  V30 11246 H 1137.17 0.853867 -1.30915 0
M  V30 11247 H 1137.9 3.21856 -0.39742 0
M  V30 11248 H 1137.69 3.26496 -2.17124 0
M  V30 11249 H 1139.18 3.92303 -1.43138 0
M  V30 11250 N 1139.62 1.30703 0.880598 0
M  V30 11251 C 1140.86 1.19541 1.62955 0
M  V30 11252 C 1141.18 -0.249089 1.93403 0
M  V30 11253 O 1140.45 -1.1669 1.57354 0
M  V30 11254 H 1139.03 0.439434 0.604075 0
M  V30 11255 H 1141.7 1.63888 1.05483 0
M  V30 11256 H 1140.79 1.75945 2.57779 0
M  V30 11257 N 1141.09 -1.09351 1.1349 0
M  V30 11258 C 1142.02 -2.18037 0.835588 0
M  V30 11259 C 1143 -1.68856 -0.205373 0
M  V30 11260 O 1144.19 -1.94094 -0.0641357 0
M  V30 11261 C 1141.32 -3.45987 0.301661 0
M  V30 11262 C 1140.27 -4.08507 1.27696 0
M  V30 11263 C 1139.6 -5.31292 0.602758 0
M  V30 11264 C 1140.9 -4.50916 2.63575 0
M  V30 11265 H 1142.59 -2.43332 1.74441 0
M  V30 11266 H 1140.14 -1.1695 0.840166 0
M  V30 11267 H 1142.09 -4.21324 0.079928 0
M  V30 11268 H 1140.82 -3.20217 -0.642552 0
M  V30 11269 H 1139.48 -3.3519 1.4847 0
M  V30 11270 H 1139.12 -5.01802 -0.346953 0
M  V30 11271 H 1138.82 -5.74075 1.25345 0
M  V30 11272 H 1140.35 -6.09351 0.390325 0
M  V30 11273 H 1141.76 -5.17474 2.46765 0
M  V30 11274 H 1140.16 -5.04586 3.24827 0
M  V30 11275 H 1141.23 -3.63279 3.2118 0
M  V30 11276 N 1142.57 -0.928524 -1.27343 0
M  V30 11277 C 1143.8 -0.58516 -1.98974 0
M  V30 11278 C 1144.22 0.829964 -1.68799 0
M  V30 11279 O 1143.58 1.55705 -0.928738 0
M  V30 11280 C 1143.63 -0.818662 -3.51184 0
M  V30 11281 O 1142.73 0.115355 -4.12239 0
M  V30 11282 H 1142.07 -0.225203 -0.624644 0
M  V30 11283 H 1144.6 -1.248 -1.6213 0
M  V30 11284 H 1144.61 -0.734554 -4.01333 0
M  V30 11285 H 1143.29 -1.8502 -3.72479 0
M  V30 11286 H 1141.86 -0.0187371 -3.72895 0
M  V30 11287 N 1144.05 1.41491 -0.694123 0
M  V30 11288 C 1145.46 1.84283 -0.299439 0
M  V30 11289 C 1145.81 1.58081 1.16211 0
M  V30 11290 O 1144.94 1.05051 1.89191 0
M  V30 11291 C 1145.53 3.34522 -0.536696 0
M  V30 11292 C 1144.09 3.7589 -0.195944 0
M  V30 11293 C 1143.24 2.64908 -0.819692 0
M  V30 11294 H 1146.19 1.31063 -0.894884 0
M  V30 11295 H 1146.21 3.79947 0.205062 0
M  V30 11296 H 1145.72 3.53561 -1.6005 0
M  V30 11297 H 1143.82 3.62452 0.863655 0
M  V30 11298 H 1143.94 4.74671 -0.649954 0
M  V30 11299 H 1142.3 2.53476 -0.249412 0
M  V30 11300 H 1143.08 2.86765 -1.88734 0
M  V30 11301 N 1145.53 0.438773 1.51369 0
M  V30 11302 C 1146.46 -0.407771 2.25543 0
M  V30 11303 C 1147.47 -0.985065 1.29616 0
M  V30 11304 O 1148.66 -0.878961 1.55359 0
M  V30 11305 C 1145.76 -1.58257 2.9968 0
M  V30 11306 C 1144.93 -1.12389 4.22714 0
M  V30 11307 C 1143.99 -2.16897 4.79418 0
M  V30 11308 O 1143.02 -1.76273 5.41218 0
M  V30 11309 N 1144.22 -3.49396 4.63576 0
M  V30 11310 H 1146.99 0.227963 2.98832 0
M  V30 11311 H 1144.55 0.267741 1.59671 0
M  V30 11312 H 1146.54 -2.27796 3.34501 0
M  V30 11313 H 1145.11 -2.12362 2.29393 0
M  V30 11314 H 1144.33 -0.255509 3.93371 0
M  V30 11315 H 1145.62 -0.794848 5.02553 0
M  V30 11316 H 1145.02 -3.85132 4.14355 0
M  V30 11317 H 1143.57 -4.14826 5.02755 0
M  V30 11318 N 1147.01 -1.56678 0.170181 0
M  V30 11319 C 1148.23 -2.01223 -0.481362 0
M  V30 11320 C 1148.65 -1.05039 -1.56883 0
M  V30 11321 O 1148.01 -0.0510751 -1.82429 0
M  V30 11322 C 1148.06 -3.45588 -1.06073 0
M  V30 11323 O 1147.78 -4.38097 -0.0166754 0
M  V30 11324 C 1149.28 -4.05527 -1.79061 0
M  V30 11325 H 1146.5 -0.659574 -0.1233 0
M  V30 11326 H 1149.04 -2.02689 0.271576 0
M  V30 11327 H 1147.2 -3.449 -1.76417 0
M  V30 11328 H 1147.61 -5.22615 -0.444276 0
M  V30 11329 H 1149.09 -5.08467 -2.1486 0
M  V30 11330 H 1149.56 -3.47554 -2.68519 0
M  V30 11331 H 1150.17 -4.09914 -1.13361 0
M  V30 11332 N 1148.48 0.103547 -1.57259 0
M  V30 11333 C 1149.89 0.659006 -1.74683 0
M  V30 11334 C 1150.25 1.79542 -0.791142 0
M  V30 11335 O 1149.37 2.16376 0.0323585 0
M  V30 11336 C 1149.97 1.20222 -3.16752 0
M  V30 11337 C 1148.52 1.70382 -3.35629 0
M  V30 11338 C 1147.67 0.609886 -2.7051 0
M  V30 11339 H 1150.62 -0.122474 -1.58227 0
M  V30 11340 H 1150.64 2.07169 -3.19157 0
M  V30 11341 H 1150.16 0.374901 -3.86285 0
M  V30 11342 H 1148.26 2.55542 -2.71162 0
M  V30 11343 H 1148.37 1.80263 -4.43894 0
M  V30 11344 H 1146.73 1.04728 -2.32173 0
M  V30 11345 H 1147.52 -0.206713 -3.42677 0
M  V30 11346 N 1149.96 1.53094 0.37415 0
M  V30 11347 C 1150.89 1.75199 1.47776 0
M  V30 11348 C 1151.91 0.632627 1.50006 0
M  V30 11349 O 1153.1 0.908688 1.5364 0
M  V30 11350 C 1150.2 1.80909 2.86575 0
M  V30 11351 C 1149.37 3.10432 3.08141 0
M  V30 11352 C 1148.43 3.07495 4.27005 0
M  V30 11353 O 1147.45 3.81319 4.22592 0
M  V30 11354 N 1148.66 2.27715 5.33972 0
M  V30 11355 H 1151.42 2.70423 1.29196 0
M  V30 11356 H 1148.98 1.51766 0.563802 0
M  V30 11357 H 1150.97 1.76432 3.64217 0
M  V30 11358 H 1149.54 0.930074 2.98443 0
M  V30 11359 H 1148.76 3.2828 2.18233 0
M  V30 11360 H 1150.05 3.96047 3.19413 0
M  V30 11361 H 1149.45 1.67231 5.40417 0
M  V30 11362 H 1148.01 2.29065 6.10223 0
M  V30 11363 N 1151.44 -0.633461 1.44309 0
M  V30 11364 C 1152.69 -1.39513 1.47187 0
M  V30 11365 C 1153.02 -1.93926 0.103186 0
M  V30 11366 O 1152.29 -1.73512 -0.878853 0
M  V30 11367 C 1152.58 -2.56213 2.53036 0
M  V30 11368 C 1152.43 -2.07164 3.99253 0
M  V30 11369 C 1153.75 -3.58403 2.55412 0
M  V30 11370 H 1150.87 -0.505936 0.535908 0
M  V30 11371 H 1153.51 -0.716445 1.75975 0
M  V30 11372 H 1151.66 -3.14111 2.28619 0
M  V30 11373 H 1153.33 -1.54115 4.34795 0
M  V30 11374 H 1151.57 -1.38367 4.11141 0
M  V30 11375 H 1152.25 -2.91172 4.6896 0
M  V30 11376 H 1154.72 -3.103 2.77224 0
M  V30 11377 H 1153.6 -4.37581 3.31382 0
M  V30 11378 H 1153.86 -4.12316 1.59523 0
M  V30 11379 N 1152.92 -1.31168 -0.873655 0
M  V30 11380 C 1154.33 -1.18584 -1.44203 0
M  V30 11381 C 1154.68 0.209114 -1.95082 0
M  V30 11382 O 1153.81 1.10662 -1.85965 0
M  V30 11383 C 1154.4 -2.14668 -2.62112 0
M  V30 11384 C 1152.96 -2.06029 -3.15006 0
M  V30 11385 C 1152.11 -2.04106 -1.87712 0
M  V30 11386 H 1155.06 -1.43273 -0.682536 0
M  V30 11387 H 1155.08 -1.73413 -3.38686 0
M  V30 11388 H 1154.59 -3.16186 -2.25051 0
M  V30 11389 H 1152.69 -1.07693 -3.56697 0
M  V30 11390 H 1152.8 -2.9496 -3.77539 0
M  V30 11391 H 1151.17 -1.49069 -2.0652 0
M  V30 11392 H 1151.95 -3.07373 -1.52894 0
M  V30 11393 N 1154.4 1.08748 -1.14068 0
M  V30 11394 C 1155.64 1.81065 -0.906738 0
M  V30 11395 C 1155.97 1.86057 0.566844 0
M  V30 11396 O 1155.23 1.32976 1.43582 0
M  V30 11397 C 1155.53 3.26734 -1.44843 0
M  V30 11398 C 1155.19 3.41866 -2.94005 0
M  V30 11399 C 1153.85 3.45703 -3.34729 0
M  V30 11400 C 1156.21 3.45831 -3.89937 0
M  V30 11401 C 1153.53 3.51092 -4.70055 0
M  V30 11402 C 1155.89 3.52755 -5.25116 0
M  V30 11403 C 1154.55 3.54863 -5.65357 0
M  V30 11404 H 1153.82 0.662564 -0.331799 0
M  V30 11405 H 1156.47 1.28065 -1.42378 0
M  V30 11406 H 1154.77 3.82419 -0.852239 0
M  V30 11407 H 1156.47 3.81236 -1.2434 0
M  V30 11408 H 1153.06 3.39568 -2.61518 0
M  V30 11409 H 1157.24 3.421 -3.59557 0
M  V30 11410 H 1152.5 3.51015 -5.00598 0
M  V30 11411 H 1156.67 3.54768 -5.9926 0
M  V30 11412 H 1154.3 3.58792 -6.70203 0
M  V30 11413 N 1155.87 0.935264 1.26849 0
M  V30 11414 C 1157.12 0.57969 1.94025 0
M  V30 11415 C 1157.45 -0.880295 1.73439 0
M  V30 11416 O 1156.7 -1.64429 1.0612 0
M  V30 11417 C 1157 0.861098 3.46872 0
M  V30 11418 C 1156.67 2.30402 3.87589 0
M  V30 11419 C 1155.33 2.69848 3.98417 0
M  V30 11420 C 1157.68 3.242 4.08098 0
M  V30 11421 C 1155.01 4.02199 4.27145 0
M  V30 11422 C 1157.36 4.56141 4.38313 0
M  V30 11423 C 1156.03 4.9541 4.47354 0
M  V30 11424 H 1155.3 0.212123 0.709989 0
M  V30 11425 H 1157.94 1.18066 1.50774 0
M  V30 11426 H 1156.25 0.177534 3.91398 0
M  V30 11427 H 1157.95 0.564841 3.97002 0
M  V30 11428 H 1154.54 1.98803 3.79704 0
M  V30 11429 H 1158.72 2.94924 3.99166 0
M  V30 11430 H 1153.98 4.32295 4.32355 0
M  V30 11431 H 1158.15 5.28818 4.53128 0
M  V30 11432 H 1155.78 5.97994 4.69368 0
M  V30 11433 N 1157.35 -1.41121 0.701616 0
M  V30 11434 C 1158.58 -2.05973 0.242896 0
M  V30 11435 C 1159 -1.52474 -1.10151 0
M  V30 11436 O 1158.36 -0.654224 -1.69085 0
M  V30 11437 C 1158.41 -3.59943 0.217614 0
M  V30 11438 O 1157.51 -4.04454 -0.805629 0
M  V30 11439 H 1156.85 -0.653581 0.117166 0
M  V30 11440 H 1159.38 -1.80777 0.958175 0
M  V30 11441 H 1159.39 -4.07969 0.0505267 0
M  V30 11442 H 1158.07 -3.98249 1.19877 0
M  V30 11443 H 1156.65 -3.6792 -0.607404 0
M  V30 11444 N 1158.83 -0.446794 -1.51134 0
M  V30 11445 C 1160.06 0.114893 -2.06581 0
M  V30 11446 C 1160.47 1.35642 -1.31327 0
M  V30 11447 O 1159.83 1.78595 -0.375506 0
M  V30 11448 C 1159.88 0.427589 -3.58962 0
M  V30 11449 O 1159.6 -0.764669 -4.31375 0
M  V30 11450 C 1161.1 1.03891 -4.30954 0
M  V30 11451 H 1158.32 0.00373031 -0.67099 0
M  V30 11452 H 1160.87 -0.628596 -1.94599 0
M  V30 11453 H 1159.02 1.12099 -3.70827 0
M  V30 11454 H 1159.44 -0.494605 -5.22163 0
M  V30 11455 H 1160.91 1.20764 -5.38628 0
M  V30 11456 H 1161.39 2.02252 -3.8986 0
M  V30 11457 H 1161.99 0.384623 -4.23557 0
M  V30 11458 N 1160.31 1.56586 -0.178487 0
M  V30 11459 C 1161.24 2.21313 0.744486 0
M  V30 11460 C 1162.22 1.17098 1.23377 0
M  V30 11461 O 1163.4 1.45551 1.28563 0
M  V30 11462 C 1160.53 2.8595 1.97103 0
M  V30 11463 C 1159.49 3.96266 1.61732 0
M  V30 11464 C 1158.81 4.47987 2.91911 0
M  V30 11465 C 1160.11 5.15503 0.839868 0
M  V30 11466 H 1161.81 2.98698 0.204938 0
M  V30 11467 H 1159.35 1.43672 0.0971306 0
M  V30 11468 H 1161.31 3.29909 2.6218 0
M  V30 11469 H 1160.03 2.05946 2.53484 0
M  V30 11470 H 1158.69 3.52974 0.990208 0
M  V30 11471 H 1158.34 3.64765 3.46346 0
M  V30 11472 H 1158.04 5.22413 2.68995 0
M  V30 11473 H 1159.56 4.94637 3.58004 0
M  V30 11474 H 1160.98 5.5611 1.39337 0
M  V30 11475 H 1159.37 5.95891 0.709473 0
M  V30 11476 H 1160.44 4.84628 -0.162396 0
M  V30 11477 N 1161.79 -0.095206 1.57312 0
M  V30 11478 C 1162.7 -1.13388 2.05379 0
M  V30 11479 C 1163.71 -1.43868 0.978668 0
M  V30 11480 O 1164.89 -1.54512 1.29182 0
M  V30 11481 C 1161.95 -2.43444 2.46852 0
M  V30 11482 C 1161.01 -2.20146 3.68557 0
M  V30 11483 C 1160.25 -3.44001 4.08043 0
M  V30 11484 O 1160.47 -4.52233 3.47623 0
M  V30 11485 O 1159.4 -3.33596 5.00997 0
M  V30 11486 H 1163.23 -0.755622 2.9415 0
M  V30 11487 H 1160.82 -0.307707 1.46197 0
M  V30 11488 H 1162.7 -3.20027 2.74155 0
M  V30 11489 H 1161.37 -2.80696 1.61219 0
M  V30 11490 H 1160.28 -1.41345 3.46371 0
M  V30 11491 H 1161.61 -1.87787 4.54969 0
M  V30 11492 N 1163.26 -1.53291 -0.366026 0
M  V30 11493 C 1164.51 -1.69117 -1.10653 0
M  V30 11494 C 1164.83 -0.445327 -1.89847 0
M  V30 11495 O 1164.1 0.540616 -1.88293 0
M  V30 11496 H 1162.68 -0.623446 -0.41149 0
M  V30 11497 H 1165.35 -1.90479 -0.412749 0
M  V30 11498 H 1164.44 -2.55205 -1.79658 0
M  V30 11499 N 1164.74 0.6258 -1.44643 0
M  V30 11500 C 1165.97 1.41233 -1.51198 0
M  V30 11501 C 1166.39 1.88291 -0.138572 0
M  V30 11502 O 1165.74 1.61151 0.856537 0
M  V30 11503 C 1165.79 2.62908 -2.48117 0
M  V30 11504 O 1165.51 2.1781 -3.80119 0
M  V30 11505 C 1167.02 3.55976 -2.6419 0
M  V30 11506 H 1164.24 0.432954 -0.512632 0
M  V30 11507 H 1166.78 0.76486 -1.89658 0
M  V30 11508 H 1164.93 3.23735 -2.12778 0
M  V30 11509 H 1165.35 2.96732 -4.32493 0
M  V30 11510 H 1166.82 4.37943 -3.3602 0
M  V30 11511 H 1167.3 4.05133 -1.696 0
M  V30 11512 H 1167.91 3.01014 -3.00451 0
M  V30 11513 N 1166.22 1.31629 0.866686 0
M  V30 11514 C 1167.47 1.22693 1.62228 0
M  V30 11515 C 1167.82 -0.212134 1.91227 0
M  V30 11516 O 1167.11 -1.1465 1.53512 0
M  V30 11517 C 1167.31 2.00775 2.95676 0
M  V30 11518 C 1167.14 3.52128 2.79708 0
M  V30 11519 C 1165.91 4.21476 2.78722 0
M  V30 11520 C 1168.11 4.47013 2.5433 0
M  V30 11521 N 1166.09 5.58963 2.53838 0
M  V30 11522 C 1167.46 5.72192 2.3874 0
M  V30 11523 C 1169.51 4.36404 2.39701 0
M  V30 11524 C 1168.22 6.8796 2.10008 0
M  V30 11525 C 1170.24 5.51959 2.12358 0
M  V30 11526 C 1169.6 6.76129 1.97559 0
M  V30 11527 H 1165.7 0.504088 0.597845 0
M  V30 11528 H 1168.29 1.65856 1.01979 0
M  V30 11529 H 1166.46 1.59975 3.53924 0
M  V30 11530 H 1168.19 1.83831 3.60539 0
M  V30 11531 H 1164.95 3.73478 2.91224 0
M  V30 11532 H 1165.37 6.31362 2.44358 0
M  V30 11533 H 1170.01 3.41066 2.49868 0
M  V30 11534 H 1167.73 7.83321 1.98578 0
M  V30 11535 H 1171.32 5.45669 2.01834 0
M  V30 11536 H 1170.2 7.64033 1.76701 0
M  V30 11537 N 1167.7 -1.08142 1.14644 0
M  V30 11538 C 1168.95 -1.79959 0.910908 0
M  V30 11539 C 1169.26 -1.87296 -0.563866 0
M  V30 11540 O 1170.47 -2.55555 -0.916735 0
M  V30 11541 C 1168.92 -3.23351 1.58025 0
M  V30 11542 C 1168.53 -3.2424 3.09148 0
M  V30 11543 C 1170.28 -3.99834 1.42595 0
M  V30 11544 C 1168.18 -4.62236 3.68906 0
M  V30 11545 H 1167.11 -0.674423 0.33715 0
M  V30 11546 H 1169.76 -1.21441 1.37566 0
M  V30 11547 H 1168.15 -3.82013 1.04318 0
M  V30 11548 H 1169.32 -2.75269 3.69545 0
M  V30 11549 H 1167.63 -2.61253 3.24246 0
M  V30 11550 H 1170.23 -5.01809 1.8464 0
M  V30 11551 H 1170.57 -4.14631 0.372402 0
M  V30 11552 H 1171.11 -3.47648 1.93354 0
M  V30 11553 H 1167.85 -4.52642 4.74126 0
M  V30 11554 H 1167.37 -5.11477 3.1329 0
M  V30 11555 H 1169.05 -5.3121 3.69358 0
M  V30 11556 N 1169.18 -0.941978 -1.26351 0
M  V30 11557 C 1170.41 -0.606748 -1.97803 0
M  V30 11558 C 1170.82 0.818441 -1.70138 0
M  V30 11559 O 1170.18 1.54583 -0.970076 0
M  V30 11560 C 1170.23 -0.840431 -3.51595 0
M  V30 11561 O 1169.95 -2.20957 -3.78299 0
M  V30 11562 C 1171.45 -0.515855 -4.40288 0
M  V30 11563 H 1168.67 -0.228591 -0.630862 0
M  V30 11564 H 1171.21 -1.2629 -1.60845 0
M  V30 11565 H 1169.37 -0.230875 -3.86711 0
M  V30 11566 H 1169.78 -2.2702 -4.72824 0
M  V30 11567 H 1171.26 -0.72998 -5.47152 0
M  V30 11568 H 1171.73 0.549178 -4.35753 0
M  V30 11569 H 1172.34 -1.10417 -4.10717 0
M  V30 11570 N 1170.66 1.40747 -0.709091 0
M  V30 11571 C 1171.57 2.3454 -0.0532205 0
M  V30 11572 C 1172.58 1.56956 0.751057 0
M  V30 11573 O 1173.76 1.89375 0.685509 0
M  V30 11574 C 1170.82 3.35809 0.862157 0
M  V30 11575 C 1169.88 4.29273 0.0485632 0
M  V30 11576 C 1169.12 5.25705 0.920345 0
M  V30 11577 O 1169.34 5.27933 2.15969 0
M  V30 11578 O 1168.27 6.00806 0.3628 0
M  V30 11579 H 1172.1 2.92232 -0.826698 0
M  V30 11580 H 1169.68 1.4183 -0.469519 0
M  V30 11581 H 1171.57 3.97931 1.38668 0
M  V30 11582 H 1170.24 2.8054 1.61489 0
M  V30 11583 H 1169.15 3.70456 -0.520873 0
M  V30 11584 H 1170.48 4.87676 -0.665807 0
M  V30 11585 N 1172.13 0.454803 1.50895 0
M  V30 11586 C 1173.54 -0.00421212 1.867 0
M  V30 11587 C 1173.9 -1.4037 1.3708 0
M  V30 11588 O 1173.02 -2.03755 0.728884 0
M  V30 11589 C 1173.62 -0.0144196 3.38797 0
M  V30 11590 C 1172.17 -0.417905 3.74073 0
M  V30 11591 C 1171.32 0.37801 2.74711 0
M  V30 11592 H 1174.27 0.669849 1.4387 0
M  V30 11593 H 1174.29 -0.820172 3.71555 0
M  V30 11594 H 1173.81 1.00427 3.74881 0
M  V30 11595 H 1171.91 -1.44155 3.43584 0
M  V30 11596 H 1172.02 -0.130568 4.78922 0
M  V30 11597 H 1170.38 -0.166089 2.54158 0
M  V30 11598 H 1171.17 1.3959 3.13639 0
M  V30 11599 N 1173.61 -1.56489 0.186789 0
M  V30 11600 C 1174.57 -2.17478 -0.723596 0
M  V30 11601 C 1175.57 -1.12698 -1.14699 0
M  V30 11602 O 1176.76 -1.38128 -1.06143 0
M  V30 11603 C 1173.9 -2.77015 -1.98685 0
M  V30 11604 H 1175.09 -2.99282 -0.192403 0
M  V30 11605 H 1172.64 -1.56174 -0.0628153 0
M  V30 11606 H 1173.38 -1.98987 -2.56076 0
M  V30 11607 H 1173.16 -3.53711 -1.69207 0
M  V30 11608 H 1174.65 -3.23872 -2.63622 0
M  V30 11609 N 1175.09 0.086862 -1.5736 0
M  V30 11610 C 1176.02 1.10538 -2.05678 0
M  V30 11611 C 1177 1.41281 -0.947293 0
M  V30 11612 O 1178.19 1.51169 -1.21908 0
M  V30 11613 C 1175.32 2.42302 -2.48812 0
M  V30 11614 C 1174.27 2.25948 -3.63499 0
M  V30 11615 C 1173.6 3.62961 -3.92637 0
M  V30 11616 C 1174.9 1.69319 -4.94094 0
M  V30 11617 H 1176.59 0.703371 -2.91021 0
M  V30 11618 H 1174.14 0.336895 -1.40004 0
M  V30 11619 H 1176.09 3.13833 -2.81224 0
M  V30 11620 H 1174.81 2.84454 -1.60479 0
M  V30 11621 H 1173.47 1.5686 -3.31347 0
M  V30 11622 H 1173.12 4.02656 -3.01459 0
M  V30 11623 H 1172.82 3.52862 -4.69853 0
M  V30 11624 H 1174.34 4.35946 -4.27531 0
M  V30 11625 H 1175.76 2.30699 -5.24834 0
M  V30 11626 H 1174.15 1.69957 -5.7553 0
M  V30 11627 H 1175.22 0.653318 -4.80479 0
M  V30 11628 N 1176.57 1.53483 0.357892 0
M  V30 11629 C 1177.84 1.60649 1.11585 0
M  V30 11630 C 1178.22 0.418789 2.06904 0
M  V30 11631 O 1177.57 -0.590279 2.20744 0
M  V30 11632 C 1177.78 2.96046 1.84818 0
M  V30 11633 C 1179.13 3.50895 2.39076 0
M  V30 11634 O 1180.15 2.98126 1.94934 0
M  V30 11635 O 1179.01 4.43163 3.19794 0
M  V30 11636 H 1176.11 0.649202 0.512315 0
M  V30 11637 H 1178.65 1.65826 0.360537 0
M  V30 11638 H 1177.43 3.73929 1.15296 0
M  V30 11639 H 1177.05 2.94395 2.6724 0
M  V30 11640 N 1178.05 -0.61812 1.44973 0
M  V30 11641 C 1179.29 -1.37468 1.48145 0
M  V30 11642 C 1179.61 -1.94628 0.120366 0
M  V30 11643 O 1178.88 -1.76548 -0.848982 0
M  V30 11644 H 1177.46 -0.510293 0.545536 0
M  V30 11645 H 1180.13 -0.726598 1.8085 0
M  V30 11646 H 1179.22 -2.19944 2.2143 0
M  V30 11647 N 1179.52 -1.32087 -0.859693 0
M  V30 11648 C 1180.77 -1.22119 -1.61033 0
M  V30 11649 C 1181.09 0.218289 -1.93774 0
M  V30 11650 O 1180.36 1.14172 -1.5919 0
M  V30 11651 H 1178.94 -0.448989 -0.597008 0
M  V30 11652 H 1181.6 -1.65545 -1.02863 0
M  V30 11653 H 1180.7 -1.80023 -2.54947 0
M  V30 11654 N 1181 1.07532 -1.15215 0
M  V30 11655 C 1182.23 1.8355 -0.94831 0
M  V30 11656 C 1182.64 1.82289 0.506701 0
M  V30 11657 O 1181.98 1.23142 1.36314 0
M  V30 11658 C 1182.04 3.31834 -1.38298 0
M  V30 11659 C 1181.71 3.56818 -2.85535 0
M  V30 11660 C 1182.71 3.50915 -3.83608 0
M  V30 11661 C 1180.39 3.84543 -3.23159 0
M  V30 11662 C 1182.38 3.72382 -5.17311 0
M  V30 11663 C 1180.07 4.05662 -4.57036 0
M  V30 11664 C 1181.07 3.99576 -5.53921 0
M  V30 11665 O 1180.76 4.20132 -6.85379 0
M  V30 11666 H 1180.49 0.586014 -0.336992 0
M  V30 11667 H 1183.04 1.36656 -1.53344 0
M  V30 11668 H 1181.27 3.79529 -0.741244 0
M  V30 11669 H 1182.96 3.89312 -1.14853 0
M  V30 11670 H 1183.73 3.295 -3.55886 0
M  V30 11671 H 1179.61 3.88395 -2.48335 0
M  V30 11672 H 1183.15 3.67547 -5.92921 0
M  V30 11673 H 1179.05 4.26563 -4.84473 0
M  V30 11674 H 1179.82 4.3749 -6.91769 0
M  V30 11675 N 1182.48 0.948665 1.2585 0
M  V30 11676 C 1183.73 0.610669 1.94016 0
M  V30 11677 C 1184.08 -0.842181 1.72989 0
M  V30 11678 O 1183.37 -1.59556 1.06078 0
M  V30 11679 C 1183.57 0.89784 3.45939 0
M  V30 11680 C 1183.4 2.37705 3.81741 0
M  V30 11681 C 1182.17 3.03355 4.04109 0
M  V30 11682 C 1184.37 3.35602 3.89712 0
M  V30 11683 N 1182.35 4.41211 4.26856 0
M  V30 11684 C 1183.72 4.58743 4.17079 0
M  V30 11685 C 1185.77 3.30523 3.72369 0
M  V30 11686 C 1184.48 5.77436 4.28906 0
M  V30 11687 C 1186.5 4.48548 3.85433 0
M  V30 11688 C 1185.86 5.70474 4.13205 0
M  V30 11689 H 1181.96 0.273966 0.732439 0
M  V30 11690 H 1184.55 1.21961 1.51768 0
M  V30 11691 H 1182.72 0.317878 3.87097 0
M  V30 11692 H 1184.45 0.520353 4.01341 0
M  V30 11693 H 1181.21 2.53947 3.9976 0
M  V30 11694 H 1181.63 5.12589 4.42247 0
M  V30 11695 H 1186.27 2.3731 3.4992 0
M  V30 11696 H 1183.99 6.71095 4.50174 0
M  V30 11697 H 1187.58 4.46159 3.73408 0
M  V30 11698 H 1186.46 6.60277 4.23088 0
M  V30 11699 N 1183.96 -1.40369 0.716545 0
M  V30 11700 C 1185.19 -2.04884 0.265757 0
M  V30 11701 C 1185.6 -1.54095 -1.09779 0
M  V30 11702 O 1184.94 -0.692944 -1.70129 0
M  V30 11703 C 1185 -3.59103 0.16887 0
M  V30 11704 C 1184.67 -4.32785 1.46786 0
M  V30 11705 C 1185.66 -4.6067 2.40997 0
M  V30 11706 C 1183.35 -4.71676 1.72705 0
M  V30 11707 C 1185.34 -5.26432 3.59372 0
M  V30 11708 C 1183.03 -5.3717 2.91362 0
M  V30 11709 C 1184.03 -5.64478 3.84517 0
M  V30 11710 O 1183.71 -6.28618 5.01093 0
M  V30 11711 H 1183.45 -0.665794 0.117025 0
M  V30 11712 H 1186 -1.80746 0.975698 0
M  V30 11713 H 1184.23 -3.82064 -0.597023 0
M  V30 11714 H 1185.92 -4.05145 -0.247483 0
M  V30 11715 H 1186.69 -4.31087 2.22236 0
M  V30 11716 H 1182.56 -4.49789 1.0105 0
M  V30 11717 H 1186.11 -5.47663 4.321 0
M  V30 11718 H 1182.01 -5.66173 3.1003 0
M  V30 11719 H 1182.77 -6.47115 5.01183 0
M  V30 11720 N 1185.44 -0.462799 -1.50652 0
M  V30 11721 C 1186.85 -0.11648 -1.59174 0
M  V30 11722 C 1187.05 1.37638 -1.47167 0
M  V30 11723 O 1186.11 2.14886 -1.3259 0
M  V30 11724 C 1187.42 -0.659289 -2.93383 0
M  V30 11725 C 1188.97 -0.62198 -3.06758 0
M  V30 11726 C 1189.44 -1.14219 -4.43529 0
M  V30 11727 N 1190.94 -1.10125 -4.49919 0
M  V30 11728 C 1191.67 -1.47436 -5.54121 0
M  V30 11729 N 1191.17 -1.92156 -6.65618 0
M  V30 11730 N 1192.96 -1.39091 -5.44619 0
M  V30 11731 H 1185.11 -1.43383 -1.56701 0
M  V30 11732 H 1187.37 -0.592438 -0.740082 0
M  V30 11733 H 1187.08 -1.70477 -3.07621 0
M  V30 11734 H 1186.95 -0.0982388 -3.77072 0
M  V30 11735 H 1189.34 0.414576 -2.92173 0
M  V30 11736 H 1189.42 -1.21974 -2.24847 0
M  V30 11737 H 1189.07 -2.17734 -4.58862 0
M  V30 11738 H 1189 -0.52073 -5.24019 0
M  V30 11739 H 1191.49 -0.773154 -3.69906 0
M  V30 11740 H 1191.8 -2.18796 -7.4118 0
M  V30 11741 H 1190.14 -1.96103 -6.6676 0
M  V30 11742 H 1193.34 -1.04001 -4.564 0
M  V30 11743 H 1193.51 -1.68496 -6.2571 0
M  V30 11744 N 1186.91 1.56388 -0.195085 0
M  V30 11745 C 1187.86 2.20431 0.742484 0
M  V30 11746 C 1188.86 1.17548 1.21979 0
M  V30 11747 O 1190.06 1.35693 1.18269 0
M  V30 11748 H 1186.44 0.706435 0.257786 0
M  V30 11749 H 1188.41 2.97865 0.178624 0
M  V30 11750 C 1187.16 2.87772 1.95147 0
M  V30 11751 H 1186.48 3.66681 1.59326 0
M  V30 11752 H 1187.92 3.36021 2.58585 0
M  V30 11753 C 1186.38 1.88807 2.79022 0
M  V30 11754 O 1186.91 1.38836 3.76945 0
M  V30 11755 N 1185.12 1.57037 2.44515 0
M  V30 11756 H 1184.66 1.97868 1.64943 0
M  V30 11757 H 1184.62 0.910776 3.00919 0
M  V30 11758 N 1188.39 -0.0785156 1.57404 0
M  V30 11759 C 1189.32 -1.09446 2.06262 0
M  V30 11760 C 1190.3 -1.40777 0.954772 0
M  V30 11761 O 1191.49 -1.5052 1.22708 0
M  V30 11762 C 1188.62 -2.40979 2.50093 0
M  V30 11763 C 1187.57 -2.24017 3.64692 0
M  V30 11764 C 1186.9 -3.60873 3.94556 0
M  V30 11765 C 1188.2 -1.66696 4.94985 0
M  V30 11766 H 1189.89 -0.687928 2.9139 0
M  V30 11767 H 1187.44 -0.329466 1.4018 0
M  V30 11768 H 1189.39 -3.12337 2.82884 0
M  V30 11769 H 1188.12 -2.83599 1.61985 0
M  V30 11770 H 1186.77 -1.55101 3.32174 0
M  V30 11771 H 1186.42 -4.01051 3.0359 0
M  V30 11772 H 1186.12 -3.50365 4.71718 0
M  V30 11773 H 1187.65 -4.33673 4.29837 0
M  V30 11774 H 1189.06 -2.27913 5.2605 0
M  V30 11775 H 1187.46 -1.66902 5.76423 0
M  V30 11776 H 1188.53 -0.627827 4.80818 0
M  V30 11777 N 1189.87 -1.5367 -0.349747 0
M  V30 11778 C 1191.29 -1.43796 -0.692457 0
M  V30 11779 C 1191.49 -0.58972 -1.92677 0
M  V30 11780 O 1190.54 -0.078294 -2.52379 0
M  V30 11781 C 1191.86 -2.872 -0.890881 0
M  V30 11782 C 1193.4 -2.96935 -0.989892 0
M  V30 11783 C 1193.88 -4.41433 -1.22068 0
M  V30 11784 N 1195.37 -4.44932 -1.28802 0
M  V30 11785 C 1196.1 -5.53864 -1.48398 0
M  V30 11786 N 1195.6 -6.72814 -1.65208 0
M  V30 11787 N 1197.39 -5.41467 -1.50896 0
M  V30 11788 H 1189.54 -2.07317 0.461895 0
M  V30 11789 H 1191.81 -0.936895 0.144681 0
M  V30 11790 H 1191.51 -3.51656 -0.0555095 0
M  V30 11791 H 1191.39 -3.31784 -1.79442 0
M  V30 11792 H 1193.77 -2.32622 -1.81579 0
M  V30 11793 H 1193.86 -2.55721 -0.0633906 0
M  V30 11794 H 1193.5 -5.06325 -0.399729 0
M  V30 11795 H 1193.43 -4.80233 -2.16064 0
M  V30 11796 H 1195.92 -3.59214 -1.17361 0
M  V30 11797 H 1196.23 -7.51598 -1.79779 0
M  V30 11798 H 1194.58 -6.7577 -1.62356 0
M  V30 11799 H 1197.77 -4.47498 -1.37342 0
M  V30 11800 H 1197.94 -6.26423 -1.65826 0
M  V30 11801 N 1191.35 0.610423 -1.45298 0
M  V30 11802 C 1192.3 1.71552 -1.5018 0
M  V30 11803 C 1193.28 1.56697 -0.365357 0
M  V30 11804 O 1194.47 1.66082 -0.612029 0
M  V30 11805 C 1191.6 3.10298 -1.46867 0
M  V30 11806 C 1190.69 3.30549 -2.65703 0
M  V30 11807 N 1191.08 3.21073 -3.90827 0
M  V30 11808 C 1189.38 3.6141 -2.6134 0
M  V30 11809 C 1190.08 3.42577 -4.70123 0
M  V30 11810 N 1189.06 3.66434 -4.01531 0
M  V30 11811 H 1192.86 1.62714 -2.44747 0
M  V30 11812 H 1190.37 0.813587 -1.40551 0
M  V30 11813 H 1192.37 3.89575 -1.48449 0
M  V30 11814 H 1191.03 3.20286 -0.533548 0
M  V30 11815 H 1192.04 2.99537 -4.2249 0
M  V30 11816 H 1188.72 3.78253 -1.76722 0
M  V30 11817 H 1190.11 3.40669 -5.79132 0
M  V30 11818 N 1192.83 1.32541 0.852676 0
M  V30 11819 C 1194.24 1.11575 1.14119 0
M  V30 11820 C 1194.44 -0.102469 2.01239 0
M  V30 11821 O 1193.5 -0.786786 2.39929 0
M  V30 11822 C 1194.81 2.39624 1.81661 0
M  V30 11823 C 1196.36 2.454 1.94288 0
M  V30 11824 C 1196.83 3.73375 2.65245 0
M  V30 11825 N 1198.33 3.74368 2.72769 0
M  V30 11826 C 1199.06 4.70094 3.28328 0
M  V30 11827 N 1198.56 5.76187 3.84682 0
M  V30 11828 N 1200.35 4.57588 3.26449 0
M  V30 11829 H 1192.5 2.10644 0.272544 0
M  V30 11830 H 1194.76 0.930094 0.183385 0
M  V30 11831 H 1194.47 3.28698 1.25102 0
M  V30 11832 H 1194.34 2.50734 2.81802 0
M  V30 11833 H 1196.73 1.56784 2.50005 0
M  V30 11834 H 1196.81 2.38241 0.931379 0
M  V30 11835 H 1196.46 4.62366 2.10191 0
M  V30 11836 H 1196.39 3.77806 3.66838 0
M  V30 11837 H 1198.88 2.97685 2.32791 0
M  V30 11838 H 1199.19 6.45285 4.25238 0
M  V30 11839 H 1197.53 5.79939 3.83008 0
M  V30 11840 H 1200.73 3.7387 2.81672 0
M  V30 11841 H 1200.9 5.32365 3.69448 0
M  V30 11842 N 1194.3 -1.0692 1.15784 0
M  V30 11843 C 1195.55 -1.79866 0.936815 0
M  V30 11844 C 1195.88 -1.867 -0.534477 0
M  V30 11845 O 1195.16 -1.35395 -1.39637 0
M  V30 11846 C 1195.44 -3.24691 1.55717 0
M  V30 11847 C 1195.29 -3.25975 3.09936 0
M  V30 11848 C 1196.61 -4.22076 1.24658 0
M  V30 11849 H 1193.73 -0.652971 0.341756 0
M  V30 11850 H 1196.37 -1.25085 1.43016 0
M  V30 11851 H 1194.52 -3.7147 1.13763 0
M  V30 11852 H 1196.2 -2.87405 3.60827 0
M  V30 11853 H 1194.44 -2.64808 3.43597 0
M  V30 11854 H 1195.11 -4.28114 3.48458 0
M  V30 11855 H 1197.59 -3.83709 1.60956 0
M  V30 11856 H 1196.46 -5.21691 1.70675 0
M  V30 11857 H 1196.72 -4.41794 0.164341 0
M  V30 11858 N 1195.78 -0.955326 -1.25345 0
M  V30 11859 C 1197.03 -0.609278 -1.92697 0
M  V30 11860 C 1197.35 0.856535 -1.75181 0
M  V30 11861 O 1196.62 1.61013 -1.11587 0
M  V30 11862 H 1195.2 -0.22235 -0.713141 0
M  V30 11863 H 1197.86 -1.21372 -1.52496 0
M  V30 11864 H 1196.96 -0.839198 -3.00606 0
M  V30 11865 N 1197.26 1.39987 -0.723979 0
M  V30 11866 C 1198.51 2.00731 -0.267115 0
M  V30 11867 C 1198.84 1.57424 1.14228 0
M  V30 11868 O 1198.09 0.789205 1.79081 0
M  V30 11869 C 1198.39 3.56101 -0.304472 0
M  V30 11870 C 1198.06 4.1902 -1.66533 0
M  V30 11871 C 1196.72 4.3592 -2.03783 0
M  V30 11872 C 1199.07 4.54034 -2.55935 0
M  V30 11873 C 1196.4 4.85119 -3.29964 0
M  V30 11874 C 1198.75 5.04637 -3.81477 0
M  V30 11875 C 1197.41 5.19745 -4.18833 0
M  V30 11876 H 1196.68 0.734525 -0.0977442 0
M  V30 11877 H 1199.33 1.67476 -0.928659 0
M  V30 11878 H 1197.64 3.89314 0.440647 0
M  V30 11879 H 1199.33 4.00944 0.0669875 0
M  V30 11880 H 1195.92 4.0626 -1.36569 0
M  V30 11881 H 1200.11 4.40606 -2.2843 0
M  V30 11882 H 1195.36 4.95001 -3.58865 0
M  V30 11883 H 1199.54 5.30705 -4.50916 0
M  V30 11884 H 1197.16 5.5763 -5.16675 0
M  V30 11885 N 1198.74 0.470782 1.50404 0
M  V30 11886 C 1199.7 -0.312227 2.27063 0
M  V30 11887 C 1200.7 -0.920709 1.31832 0
M  V30 11888 O 1201.89 -0.789937 1.5526 0
M  V30 11889 C 1199.02 -1.44477 3.0877 0
M  V30 11890 H 1200.22 0.36006 2.97731 0
M  V30 11891 H 1197.77 0.224837 1.54674 0
M  V30 11892 H 1198.51 -2.15212 2.42599 0
M  V30 11893 H 1198.29 -1.01426 3.78755 0
M  V30 11894 H 1199.78 -1.99713 3.66749 0
M  V30 11895 N 1200.22 -1.56282 0.203376 0
M  V30 11896 C 1201.63 -1.84146 -0.307752 0
M  V30 11897 C 1201.98 -1.12429 -1.60792 0
M  V30 11898 O 1201.1 -0.387852 -2.12896 0
M  V30 11899 C 1201.7 -3.34053 -0.565152 0
M  V30 11900 C 1200.26 -3.62298 -1.02063 0
M  V30 11901 C 1199.41 -2.77202 -0.0737343 0
M  V30 11902 H 1202.36 -1.52848 0.426983 0
M  V30 11903 H 1202.38 -3.53273 -1.41345 0
M  V30 11904 H 1201.89 -3.86222 0.381301 0
M  V30 11905 H 1199.99 -3.1557 -1.98107 0
M  V30 11906 H 1200.1 -4.70424 -0.907614 0
M  V30 11907 H 1198.47 -2.48074 -0.577169 0
M  V30 11908 H 1199.25 -3.32164 0.86731 0
M  V30 11909 N 1201.7 0.070167 -1.57444 0
M  V30 11910 C 1202.66 1.06761 -2.02817 0
M  V30 11911 C 1203.66 1.31498 -0.925462 0
M  V30 11912 O 1204.85 1.27192 -1.19029 0
M  V30 11913 C 1201.98 2.41086 -2.41019 0
M  V30 11914 H 1203.17 0.67651 -2.9217 0
M  V30 11915 H 1200.73 0.315936 -1.53074 0
M  V30 11916 H 1201.46 2.85025 -1.54697 0
M  V30 11917 H 1201.25 2.24472 -3.21488 0
M  V30 11918 H 1202.74 3.12778 -2.76694 0
M  V30 11919 N 1203.17 1.53854 0.341593 0
M  V30 11920 C 1204.42 1.71447 1.08322 0
M  V30 11921 C 1204.75 0.477289 1.88243 0
M  V30 11922 O 1204.03 -0.525695 1.87261 0
M  V30 11923 C 1204.31 2.97917 2.02281 0
M  V30 11924 C 1204.16 4.31847 1.25809 0
M  V30 11925 C 1205.48 3.20065 3.0207 0
M  V30 11926 H 1202.6 0.623847 0.392408 0
M  V30 11927 H 1205.24 1.86527 0.361594 0
M  V30 11928 H 1203.39 2.85191 2.63815 0
M  V30 11929 H 1205.07 4.56427 0.668737 0
M  V30 11930 H 1203.31 4.30169 0.560119 0
M  V30 11931 H 1203.98 5.16522 1.94704 0
M  V30 11932 H 1206.46 3.32135 2.50651 0
M  V30 11933 H 1205.33 4.09947 3.65013 0
M  V30 11934 H 1205.59 2.36452 3.73554 0
M  V30 11935 N 1204.65 -0.602709 1.4562 0
M  V30 11936 C 1205.56 -1.74132 1.5721 0
M  V30 11937 C 1206.58 -1.67909 0.456347 0
M  V30 11938 O 1207.75 -1.88178 0.717714 0
M  V30 11939 C 1204.82 -3.10604 1.54032 0
M  V30 11940 C 1203.88 -3.28244 2.76685 0
M  V30 11941 C 1203.11 -4.58205 2.73649 0
M  V30 11942 O 1203.34 -5.40836 1.81254 0
M  V30 11943 O 1202.27 -4.78663 3.64919 0
M  V30 11944 H 1206.1 -1.67304 2.53462 0
M  V30 11945 H 1203.68 -0.767381 1.28186 0
M  V30 11946 H 1205.56 -3.91904 1.54885 0
M  V30 11947 H 1204.24 -3.17913 0.60934 0
M  V30 11948 H 1203.14 -2.46514 2.81393 0
M  V30 11949 H 1204.48 -3.25814 3.68925 0
M  V30 11950 N 1206.13 -1.32992 -0.845635 0
M  V30 11951 C 1207.36 -1.27087 -1.63268 0
M  V30 11952 C 1207.77 0.159481 -1.88125 0
M  V30 11953 O 1207.13 1.09948 -1.45663 0
M  V30 11954 C 1207.18 -2.03649 -2.98679 0
M  V30 11955 O 1206.9 -3.41104 -2.74918 0
M  V30 11956 C 1208.4 -2.04875 -3.93117 0
M  V30 11957 H 1205.62 -0.438107 -0.508236 0
M  V30 11958 H 1208.17 -1.75257 -1.05381 0
M  V30 11959 H 1206.32 -1.59178 -3.53187 0
M  V30 11960 H 1206.74 -3.80405 -3.61099 0
M  V30 11961 H 1208.21 -2.62911 -4.85368 0
M  V30 11962 H 1208.69 -1.03728 -4.26775 0
M  V30 11963 H 1209.29 -2.49334 -3.44547 0
M  V30 11964 N 1207.61 1.06304 -1.1635 0
M  V30 11965 C 1208.54 2.15745 -0.893103 0
M  V30 11966 C 1209.52 1.69341 0.160531 0
M  V30 11967 O 1210.7 1.94196 0.0126526 0
M  V30 11968 C 1207.83 3.45066 -0.393287 0
M  V30 11969 C 1206.79 4.04978 -1.38482 0
M  V30 11970 C 1206.11 5.29507 -0.743409 0
M  V30 11971 C 1207.41 4.4377 -2.75438 0
M  V30 11972 H 1209.11 2.38622 -1.80831 0
M  V30 11973 H 1206.65 1.14681 -0.870878 0
M  V30 11974 H 1208.61 4.20964 -0.191607 0
M  V30 11975 H 1207.33 3.21808 0.557426 0
M  V30 11976 H 1205.99 3.31136 -1.57304 0
M  V30 11977 H 1205.64 5.02545 0.213787 0
M  V30 11978 H 1205.34 5.7055 -1.40521 0
M  V30 11979 H 1206.86 6.08102 -0.551746 0
M  V30 11980 H 1208.28 5.1075 -2.60398 0
M  V30 11981 H 1206.67 4.95797 -3.38091 0
M  V30 11982 H 1207.74 3.54636 -3.30699 0
M  V30 11983 N 1209.09 0.96196 1.24836 0
M  V30 11984 C 1210.05 0.492443 2.23847 0
M  V30 11985 C 1211.05 -0.40788 1.55541 0
M  V30 11986 O 1212.24 -0.204143 1.73 0
M  V30 11987 C 1209.37 -0.287578 3.39685 0
M  V30 11988 H 1210.56 1.36767 2.66899 0
M  V30 11989 H 1208.12 0.745967 1.3735 0
M  V30 11990 H 1208.85 -1.18015 3.02064 0
M  V30 11991 H 1208.64 0.358431 3.90458 0
M  V30 11992 H 1210.13 -0.605297 4.1319 0
M  V30 11993 N 1210.56 -1.39601 0.731392 0
M  V30 11994 C 1211.79 -2.04887 0.28789 0
M  V30 11995 C 1212.21 -1.55138 -1.076 0
M  V30 11996 O 1211.56 -0.71471 -1.67923 0
M  V30 11997 C 1211.61 -3.6044 0.276629 0
M  V30 11998 O 1211.34 -4.08358 1.58668 0
M  V30 11999 C 1212.84 -4.4292 -0.183485 0
M  V30 12000 H 1210.06 -0.658976 0.126459 0
M  V30 12001 H 1212.6 -1.78716 0.994031 0
M  V30 12002 H 1210.76 -3.85526 -0.380597 0
M  V30 12003 H 1211.17 -5.02659 1.4978 0
M  V30 12004 H 1212.64 -5.51822 -0.140207 0
M  V30 12005 H 1213.12 -4.2168 -1.22811 0
M  V30 12006 H 1213.73 -4.22976 0.444042 0
M  V30 12007 N 1212.04 -0.478751 -1.50152 0
M  V30 12008 C 1213.32 0.135533 -1.9513 0
M  V30 12009 C 1213.7 1.56253 -1.41944 0
M  V30 12010 O 1213.05 2.19824 -0.623673 0
M  V30 12011 C 1213.26 0.0710037 -3.48928 0
M  V30 12012 C 1214.61 0.256075 -4.23827 0
M  V30 12013 O 1215.63 0.147234 -3.55896 0
M  V30 12014 O 1214.49 0.476741 -5.44417 0
M  V30 12015 H 1211.58 0.107491 -0.819985 0
M  V30 12016 H 1214.13 -0.539701 -1.60889 0
M  V30 12017 H 1212.9 -0.925012 -3.80209 0
M  V30 12018 H 1212.52 0.787362 -3.89726 0
M  V30 12019 N 1213.52 1.56172 -0.211661 0
M  V30 12020 C 1214.43 2.23468 0.714081 0
M  V30 12021 C 1215.45 1.23908 1.22159 0
M  V30 12022 O 1216.62 1.56693 1.26528 0
M  V30 12023 C 1213.69 2.89375 1.90953 0
M  V30 12024 C 1212.75 4.04251 1.44497 0
M  V30 12025 C 1211.98 4.67006 2.58343 0
M  V30 12026 O 1212.2 4.28721 3.76237 0
M  V30 12027 O 1211.14 5.56177 2.3011 0
M  V30 12028 H 1214.96 3.03219 0.170862 0
M  V30 12029 H 1212.55 1.49389 0.0183607 0
M  V30 12030 H 1214.43 3.3101 2.60787 0
M  V30 12031 H 1213.11 2.12591 2.44104 0
M  V30 12032 H 1212.01 3.67205 0.714932 0
M  V30 12033 H 1213.35 4.82748 0.959947 0
M  V30 12034 N 1215 -0.0618163 1.57479 0
M  V30 12035 C 1216.25 -0.757569 1.87364 0
M  V30 12036 C 1216.57 -1.77607 0.805025 0
M  V30 12037 O 1215.84 -1.95202 -0.165216 0
M  V30 12038 H 1214.42 -0.28278 0.691408 0
M  V30 12039 H 1217.08 -0.0355354 1.94868 0
M  V30 12040 H 1216.18 -1.26758 2.85199 0
M  V30 12041 N 1216.48 -1.54033 -0.333429 0
M  V30 12042 C 1217.72 -1.71765 -1.07252 0
M  V30 12043 C 1218.05 -0.486135 -1.88327 0
M  V30 12044 O 1217.31 0.532135 -1.88326 0
M  V30 12045 C 1217.61 -2.93926 -2.03328 0
M  V30 12046 C 1217.27 -4.29107 -1.38486 0
M  V30 12047 C 1215.93 -4.6586 -1.20532 0
M  V30 12048 C 1218.29 -5.13041 -0.918624 0
M  V30 12049 C 1215.61 -5.84155 -0.545881 0
M  V30 12050 C 1217.97 -6.3201 -0.273055 0
M  V30 12051 C 1216.63 -6.67451 -0.0812815 0
M  V30 12052 H 1215.9 -0.628532 -0.392464 0
M  V30 12053 H 1218.55 -1.88261 -0.350709 0
M  V30 12054 H 1216.85 -2.72075 -2.81926 0
M  V30 12055 H 1218.55 -3.0484 -2.60526 0
M  V30 12056 H 1215.14 -4.00185 -1.5346 0
M  V30 12057 H 1219.32 -4.8517 -1.04515 0
M  V30 12058 H 1214.58 -6.1018 -0.386009 0
M  V30 12059 H 1218.75 -6.96333 0.0962582 0
M  V30 12060 H 1216.38 -7.58973 0.431734 0
M  V30 12061 N 1217.95 0.594978 -1.45938 0
M  V30 12062 C 1219.18 1.37994 -1.5416 0
M  V30 12063 C 1219.6 1.87954 -0.17848 0
M  V30 12064 O 1218.95 1.62932 0.822161 0
M  V30 12065 C 1219.01 2.57586 -2.53637 0
M  V30 12066 O 1218.73 2.09698 -3.84653 0
M  V30 12067 C 1220.23 3.50292 -2.71681 0
M  V30 12068 H 1217.45 0.421983 -0.5217 0
M  V30 12069 H 1219.99 0.724459 -1.91238 0
M  V30 12070 H 1218.15 3.19149 -2.19597 0
M  V30 12071 H 1218.56 2.87492 -4.3869 0
M  V30 12072 H 1220.03 4.30717 -3.45234 0
M  V30 12073 H 1220.51 4.01444 -1.78156 0
M  V30 12074 H 1221.12 2.94573 -3.06768 0
M  V30 12075 N 1219.43 1.33438 0.838571 0
M  V30 12076 C 1220.38 1.20285 1.93689 0
M  V30 12077 C 1221.37 0.105686 1.60553 0
M  V30 12078 O 1222.56 0.333814 1.73824 0
M  V30 12079 C 1219.69 0.944544 3.3005 0
M  V30 12080 C 1218.77 2.08416 3.69356 0
M  V30 12081 N 1219.16 3.33415 3.80353 0
M  V30 12082 C 1217.46 1.99092 3.99097 0
M  V30 12083 C 1218.16 4.08159 4.14465 0
M  V30 12084 N 1217.14 3.36601 4.2685 0
M  V30 12085 H 1220.94 2.1503 2.00348 0
M  V30 12086 H 1218.46 1.2545 1.03131 0
M  V30 12087 H 1220.45 0.831242 4.08529 0
M  V30 12088 H 1219.11 0.00562273 3.247 0
M  V30 12089 H 1220.12 3.68159 3.64252 0
M  V30 12090 H 1216.8 1.12861 4.01956 0
M  V30 12091 H 1218.19 5.16027 4.30308 0
M  V30 12092 N 1220.91 -1.05686 1.16912 0
M  V30 12093 C 1222.16 -1.78597 0.954425 0
M  V30 12094 C 1222.49 -1.87494 -0.517315 0
M  V30 12095 O 1221.74 -1.36736 -1.40006 0
M  V30 12096 C 1222.04 -3.22779 1.53455 0
M  V30 12097 C 1221.71 -3.3395 3.02965 0
M  V30 12098 C 1220.37 -3.36706 3.43777 0
M  V30 12099 C 1222.72 -3.35371 3.98969 0
M  V30 12100 C 1220.05 -3.38506 4.79198 0
M  V30 12101 C 1222.4 -3.38708 5.34284 0
M  V30 12102 C 1221.06 -3.39749 5.74567 0
M  V30 12103 H 1220.33 -0.653534 0.349249 0
M  V30 12104 H 1222.98 -1.24245 1.45723 0
M  V30 12105 H 1221.29 -3.80025 0.953331 0
M  V30 12106 H 1222.98 -3.77805 1.34404 0
M  V30 12107 H 1219.57 -3.32515 2.70429 0
M  V30 12108 H 1223.76 -3.32447 3.685 0
M  V30 12109 H 1219.01 -3.37619 5.09729 0
M  V30 12110 H 1223.19 -3.38755 6.08455 0
M  V30 12111 H 1220.81 -3.40897 6.7948 0
M  V30 12112 N 1222.39 -0.968567 -1.24324 0
M  V30 12113 C 1223.64 -0.626519 -1.91723 0
M  V30 12114 C 1223.95 0.84225 -1.76538 0
M  V30 12115 O 1225.16 1.29486 -2.38633 0
M  V30 12116 C 1223.61 -1.06992 -3.43629 0
M  V30 12117 C 1223.22 -2.5622 -3.67499 0
M  V30 12118 C 1224.96 -0.801057 -4.16873 0
M  V30 12119 C 1222.87 -2.94288 -5.1298 0
M  V30 12120 H 1221.8 -0.23062 -0.717865 0
M  V30 12121 H 1224.45 -1.17489 -1.40956 0
M  V30 12122 H 1222.83 -0.44985 -3.93437 0
M  V30 12123 H 1224.01 -3.23364 -3.28287 0
M  V30 12124 H 1222.32 -2.80726 -3.07542 0
M  V30 12125 H 1224.92 -1.06147 -5.24058 0
M  V30 12126 H 1225.26 0.262742 -4.1547 0
M  V30 12127 H 1225.8 -1.38213 -3.73017 0
M  V30 12128 H 1222.54 -3.99743 -5.19506 0
M  V30 12129 H 1222.06 -2.31829 -5.53187 0
M  V30 12130 H 1223.73 -2.84242 -5.81219 0
M  V30 12131 N 1223.87 1.39211 -0.738786 0
M  V30 12132 C 1224.78 2.34374 -0.102958 0
M  V30 12133 C 1225.79 1.58514 0.717596 0
M  V30 12134 O 1226.97 1.90786 0.645186 0
M  V30 12135 C 1224.03 3.37562 0.790733 0
M  V30 12136 C 1223.09 4.29279 -0.0425028 0
M  V30 12137 C 1222.33 5.27539 0.808628 0
M  V30 12138 O 1222.55 5.32396 2.04722 0
M  V30 12139 O 1221.48 6.0144 0.235279 0
M  V30 12140 H 1225.31 2.90412 -0.888498 0
M  V30 12141 H 1222.9 1.40803 -0.499498 0
M  V30 12142 H 1224.78 4.00783 1.30196 0
M  V30 12143 H 1223.45 2.83903 1.55502 0
M  V30 12144 H 1222.36 3.69268 -0.599335 0
M  V30 12145 H 1223.69 4.86154 -0.7691 0
M  V30 12146 N 1225.34 0.486708 1.49896 0
M  V30 12147 C 1226.59 -0.0629451 2.02702 0
M  V30 12148 C 1226.92 -1.37956 1.36681 0
M  V30 12149 O 1226.2 -1.88025 0.497678 0
M  V30 12150 C 1226.48 -0.230461 3.59362 0
M  V30 12151 C 1226.33 1.10828 4.35933 0
M  V30 12152 C 1227.65 -0.977785 4.29101 0
M  V30 12153 H 1224.77 -0.0214017 0.736689 0
M  V30 12154 H 1227.41 0.635339 1.79063 0
M  V30 12155 H 1225.56 -0.825222 3.79634 0
M  V30 12156 H 1227.24 1.74082 4.27192 0
M  V30 12157 H 1225.48 1.7011 3.99055 0
M  V30 12158 H 1226.15 0.944532 5.43859 0
M  V30 12159 H 1228.63 -0.473505 4.13397 0
M  V30 12160 H 1227.5 -1.06382 5.38492 0
M  V30 12161 H 1227.76 -2.01813 3.9335 0
M  V30 12162 N 1226.82 -1.56058 0.219941 0
M  V30 12163 C 1228.05 -2.031 -0.42014 0
M  V30 12164 C 1228.47 -1.09875 -1.52673 0
M  V30 12165 O 1227.83 -0.0866458 -1.81093 0
M  V30 12166 C 1227.88 -3.48389 -0.93047 0
M  V30 12167 O 1226.98 -3.583 -2.04192 0
M  V30 12168 H 1226.32 -0.657129 -0.0952772 0
M  V30 12169 H 1228.85 -2.01787 0.338105 0
M  V30 12170 H 1228.86 -3.88678 -1.2407 0
M  V30 12171 H 1227.54 -4.15725 -0.120539 0
M  V30 12172 H 1226.12 -3.29898 -1.73845 0
M  V30 12173 N 1228.3 0.053464 -1.57509 0
M  V30 12174 C 1229.26 1.04604 -2.03938 0
M  V30 12175 C 1230.26 1.30509 -0.939357 0
M  V30 12176 O 1231.45 1.25922 -1.20371 0
M  V30 12177 C 1228.59 2.38516 -2.43563 0
M  V30 12178 H 1229.78 0.645484 -2.92871 0
M  V30 12179 H 1227.33 0.299683 -1.534 0
M  V30 12180 H 1228.07 2.83368 -1.57712 0
M  V30 12181 H 1227.85 2.2105 -3.23851 0
M  V30 12182 H 1229.34 3.09826 -2.79996 0
M  V30 12183 N 1229.78 1.54207 0.325255 0
M  V30 12184 C 1230.73 1.79856 1.40128 0
M  V30 12185 C 1231.71 0.654503 1.46987 0
M  V30 12186 O 1232.91 0.914453 1.51548 0
M  V30 12187 C 1230.03 2.02786 2.77007 0
M  V30 12188 C 1229.12 3.23309 2.74467 0
M  V30 12189 N 1229.51 4.44396 2.41549 0
M  V30 12190 C 1227.81 3.24848 3.05598 0
M  V30 12191 C 1228.51 5.26325 2.47703 0
M  V30 12192 N 1227.49 4.63468 2.84074 0
M  V30 12193 H 1231.29 2.71056 1.13603 0
M  V30 12194 H 1228.8 1.53379 0.533728 0
M  V30 12195 H 1230.8 2.19301 3.5456 0
M  V30 12196 H 1229.46 1.12839 3.04463 0
M  V30 12197 H 1230.47 4.71426 2.14425 0
M  V30 12198 H 1227.15 2.44929 3.38107 0
M  V30 12199 H 1228.54 6.33016 2.25257 0
M  V30 12200 N 1231.26 -0.58723 1.46251 0
M  V30 12201 C 1232.67 -1.16933 1.45546 0
M  V30 12202 C 1233.02 -1.9524 0.193879 0
M  V30 12203 O 1232.14 -2.04652 -0.70332 0
M  V30 12204 C 1232.74 -2.12723 2.63693 0
M  V30 12205 C 1231.3 -2.66267 2.66043 0
M  V30 12206 C 1230.45 -1.42051 2.38153 0
M  V30 12207 H 1233.4 -0.375411 1.54196 0
M  V30 12208 H 1233.42 -2.96111 2.38953 0
M  V30 12209 H 1232.93 -1.55703 3.55497 0
M  V30 12210 H 1231.03 -3.2717 1.783 0
M  V30 12211 H 1231.14 -3.0931 3.65874 0
M  V30 12212 H 1229.51 -1.71707 1.88119 0
M  V30 12213 H 1230.29 -0.868675 3.32128 0
M  V30 12214 N 1232.74 -1.33881 -0.831482 0
M  V30 12215 C 1233.98 -1.25942 -1.58955 0
M  V30 12216 C 1234.31 0.172542 -1.93432 0
M  V30 12217 O 1233.59 1.11577 -1.59314 0
M  V30 12218 C 1233.87 -2.14193 -2.89471 0
M  V30 12219 C 1233.73 -3.65883 -2.61628 0
M  V30 12220 C 1235.04 -2.02071 -3.90967 0
M  V30 12221 H 1232.16 -0.458841 -0.576744 0
M  V30 12222 H 1234.81 -1.64052 -0.958482 0
M  V30 12223 H 1232.96 -1.81821 -3.43327 0
M  V30 12224 H 1234.63 -4.08581 -2.14148 0
M  V30 12225 H 1232.87 -3.87397 -1.95208 0
M  V30 12226 H 1233.54 -4.22988 -3.54662 0
M  V30 12227 H 1236.02 -2.30476 -3.46439 0
M  V30 12228 H 1234.89 -2.66059 -4.80108 0
M  V30 12229 H 1235.15 -0.995121 -4.30755 0
M  V30 12230 N 1234.21 1.05064 -1.1747 0
M  V30 12231 C 1235.14 2.14786 -0.915936 0
M  V30 12232 C 1236.12 1.69502 0.142561 0
M  V30 12233 O 1237.31 1.94198 -0.00794522 0
M  V30 12234 C 1234.44 3.44629 -0.429864 0
M  V30 12235 C 1233.39 4.03486 -1.42769 0
M  V30 12236 C 1232.72 5.28689 -0.799528 0
M  V30 12237 C 1234.02 4.40823 -2.80129 0
M  V30 12238 H 1235.71 2.3669 -1.83352 0
M  V30 12239 H 1233.26 1.13751 -0.882992 0
M  V30 12240 H 1235.21 4.20737 -0.236245 0
M  V30 12241 H 1233.94 3.22381 0.523263 0
M  V30 12242 H 1232.6 3.29449 -1.60808 0
M  V30 12243 H 1232.24 5.02744 0.160474 0
M  V30 12244 H 1231.94 5.69028 -1.46565 0
M  V30 12245 H 1233.47 6.07483 -0.616212 0
M  V30 12246 H 1234.88 5.07959 -2.65801 0
M  V30 12247 H 1233.28 4.92183 -3.43331 0
M  V30 12248 H 1234.35 3.51108 -3.34441 0
M  V30 12249 N 1235.69 0.975146 1.23809 0
M  V30 12250 C 1236.92 0.658978 1.96125 0
M  V30 12251 C 1237.33 -0.773044 1.72248 0
M  V30 12252 O 1236.69 -1.51956 1.01072 0
M  V30 12253 C 1236.74 0.933355 3.49243 0
M  V30 12254 O 1236.46 2.30909 3.72307 0
M  V30 12255 C 1237.96 0.632408 4.38766 0
M  V30 12256 H 1235.18 0.245237 0.62458 0
M  V30 12257 H 1237.73 1.3051 1.5744 0
M  V30 12258 H 1235.88 0.333323 3.85963 0
M  V30 12259 H 1236.3 2.39476 4.66638 0
M  V30 12260 H 1237.77 0.874791 5.45024 0
M  V30 12261 H 1238.25 -0.433453 4.37056 0
M  V30 12262 H 1238.85 1.21268 4.07645 0
M  V30 12263 N 1237.17 -1.38817 0.746158 0
M  V30 12264 C 1238.1 -2.28116 0.0620717 0
M  V30 12265 C 1239.08 -1.44984 -0.736097 0
M  V30 12266 O 1240.26 -1.7436 -0.7163 0
M  V30 12267 C 1237.39 -3.25992 -0.919065 0
M  V30 12268 C 1236.44 -4.25992 -0.208033 0
M  V30 12269 S 1237.27 -5.24374 1.08593 0
M  V30 12270 C 1238.43 -6.25807 0.107674 0
M  V30 12271 H 1238.66 -2.85787 0.819331 0
M  V30 12272 H 1236.19 -1.44708 0.538422 0
M  V30 12273 H 1238.15 -3.82899 -1.47982 0
M  V30 12274 H 1236.81 -2.67318 -1.64924 0
M  V30 12275 H 1236 -4.9495 -0.95084 0
M  V30 12276 H 1235.61 -3.72943 0.280998 0
M  V30 12277 H 1237.9 -6.73568 -0.728905 0
M  V30 12278 H 1238.84 -7.03959 0.764698 0
M  V30 12279 H 1239.25 -5.63855 -0.269706 0
M  V30 12280 N 1238.65 -0.49465 -1.49636 0
M  V30 12281 C 1239.88 0.0491129 -2.06842 0
M  V30 12282 C 1240.29 1.31395 -1.35576 0
M  V30 12283 O 1239.65 1.7731 -0.432135 0
M  V30 12284 C 1239.7 0.313171 -3.60141 0
M  V30 12285 O 1239.42 -0.90152 -4.28724 0
M  V30 12286 C 1240.92 0.901284 -4.34041 0
M  V30 12287 H 1238.14 -0.0176186 -0.670769 0
M  V30 12288 H 1240.68 -0.690188 -1.92501 0
M  V30 12289 H 1238.84 1.00244 -3.74206 0
M  V30 12290 H 1239.25 -0.660477 -5.20325 0
M  V30 12291 H 1240.73 1.03567 -5.42197 0
M  V30 12292 H 1241.2 1.89746 -3.96097 0
M  V30 12293 H 1241.81 0.249677 -4.24566 0
M  V30 12294 N 1240.13 1.55939 -0.228214 0
M  V30 12295 C 1241.06 2.2357 0.6737 0
M  V30 12296 C 1242.04 1.20964 1.1959 0
M  V30 12297 O 1243.22 1.49568 1.23867 0
M  V30 12298 C 1240.35 2.92076 1.87906 0
M  V30 12299 C 1239.31 4.01211 1.49043 0
M  V30 12300 C 1238.63 4.57047 2.77511 0
M  V30 12301 C 1239.93 5.17914 0.67544 0
M  V30 12302 H 1241.63 2.99199 0.109806 0
M  V30 12303 H 1239.17 1.43908 0.0513732 0
M  V30 12304 H 1241.12 3.38083 2.51551 0
M  V30 12305 H 1239.85 2.13906 2.46803 0
M  V30 12306 H 1238.51 3.55945 0.877411 0
M  V30 12307 H 1238.16 3.75599 3.34566 0
M  V30 12308 H 1237.86 5.30707 2.52239 0
M  V30 12309 H 1239.38 5.05776 3.42087 0
M  V30 12310 H 1240.79 5.60261 1.21575 0
M  V30 12311 H 1239.19 5.97847 0.519536 0
M  V30 12312 H 1240.26 4.83866 -0.316495 0
M  V30 12313 N 1241.6 -0.0451101 1.57535 0
M  V30 12314 C 1243.02 -0.59372 1.77008 0
M  V30 12315 C 1243.37 -1.76482 0.857233 0
M  V30 12316 O 1242.49 -2.16347 0.0479703 0
M  V30 12317 C 1243.09 -1.08383 3.20996 0
M  V30 12318 C 1241.65 -1.57808 3.41721 0
M  V30 12319 C 1240.79 -0.509067 2.72587 0
M  V30 12320 H 1243.74 0.181114 1.57663 0
M  V30 12321 H 1243.76 -1.95181 3.26626 0
M  V30 12322 H 1243.28 -0.231276 3.8741 0
M  V30 12323 H 1241.38 -2.45302 2.8046 0
M  V30 12324 H 1241.49 -1.63664 4.50279 0
M  V30 12325 H 1239.85 -0.960389 2.359 0
M  V30 12326 H 1240.64 0.333753 3.41674 0
M  V30 12327 N 1243.08 -1.54377 -0.317073 0
M  V30 12328 C 1244.36 -1.63551 -1.07287 0
M  V30 12329 C 1244.74 -0.473499 -2.05721 0
M  V30 12330 O 1244.09 0.531545 -2.22232 0
M  V30 12331 C 1244.3 -3.00842 -1.76904 0
M  V30 12332 C 1245.65 -3.57111 -2.29689 0
M  V30 12333 O 1246.67 -3.0319 -1.86961 0
M  V30 12334 O 1245.53 -4.51486 -3.07932 0
M  V30 12335 H 1242.62 -0.662557 -0.494922 0
M  V30 12336 H 1245.17 -1.66723 -0.316444 0
M  V30 12337 H 1243.94 -3.76854 -1.05341 0
M  V30 12338 H 1243.56 -3.01377 -2.59341 0
M  V30 12339 N 1244.56 0.579466 -1.4656 0
M  V30 12340 C 1245.51 1.68829 -1.5737 0
M  V30 12341 C 1246.48 1.60759 -0.417825 0
M  V30 12342 O 1247.66 1.79923 -0.635001 0
M  V30 12343 C 1244.8 3.07166 -1.573 0
M  V30 12344 C 1243.92 3.25837 -2.83645 0
M  V30 12345 C 1243.05 4.54441 -2.75057 0
M  V30 12346 C 1242.09 4.66467 -3.96327 0
M  V30 12347 N 1241.23 5.86401 -3.86107 0
M  V30 12348 H 1246.07 1.58928 -2.52083 0
M  V30 12349 H 1243.6 0.774526 -1.25058 0
M  V30 12350 H 1245.56 3.8724 -1.55245 0
M  V30 12351 H 1244.19 3.15956 -0.661166 0
M  V30 12352 H 1243.24 2.39345 -2.95666 0
M  V30 12353 H 1244.56 3.30591 -3.73512 0
M  V30 12354 H 1243.71 5.42748 -2.71126 0
M  V30 12355 H 1242.45 4.52131 -1.82836 0
M  V30 12356 H 1241.45 3.76577 -4.00587 0
M  V30 12357 H 1242.68 4.70554 -4.89649 0
M  V30 12358 H 1240.62 5.85082 -2.96673 0
M  V30 12359 H 1240.54 5.92437 -4.69632 0
M  V30 12360 H 1241.81 6.7713 -3.86155 0
M  V30 12361 N 1246.04 1.3432 0.824371 0
M  V30 12362 C 1247.28 1.26783 1.58284 0
M  V30 12363 C 1247.62 -0.162282 1.93521 0
M  V30 12364 O 1246.89 -1.1073 1.59903 0
M  V30 12365 C 1247.18 2.15725 2.88331 0
M  V30 12366 C 1247.03 3.67266 2.59684 0
M  V30 12367 C 1248.35 2.04141 3.8989 0
M  V30 12368 H 1245.47 0.461893 0.574303 0
M  V30 12369 H 1248.11 1.64558 0.949769 0
M  V30 12370 H 1246.26 1.83639 3.42358 0
M  V30 12371 H 1247.93 4.09711 2.11978 0
M  V30 12372 H 1246.17 3.88426 1.93151 0
M  V30 12373 H 1246.84 4.24863 3.52414 0
M  V30 12374 H 1249.32 2.3231 3.45212 0
M  V30 12375 H 1248.2 2.68601 4.7869 0
M  V30 12376 H 1248.46 1.01795 4.30221 0
M  V30 12377 N 1247.52 -1.0444 1.18026 0
M  V30 12378 C 1248.74 -1.81234 0.998089 0
M  V30 12379 C 1249.16 -1.83271 -0.453559 0
M  V30 12380 O 1248.52 -1.26545 -1.31502 0
M  V30 12381 C 1248.57 -3.27007 1.54106 0
M  V30 12382 O 1248.29 -3.25174 2.93587 0
M  V30 12383 C 1249.79 -4.20461 1.40455 0
M  V30 12384 H 1247.01 -0.57085 0.352663 0
M  V30 12385 H 1249.55 -1.31649 1.56489 0
M  V30 12386 H 1247.71 -3.73837 1.01611 0
M  V30 12387 H 1248.12 -4.16466 3.18836 0
M  V30 12388 H 1249.6 -5.20695 1.83249 0
M  V30 12389 H 1250.07 -4.37781 0.352713 0
M  V30 12390 H 1250.68 -3.79493 1.92004 0
M  V30 12391 N 1248.99 -0.981699 -1.2329 0
M  V30 12392 C 1250.24 -0.650015 -1.91361 0
M  V30 12393 C 1250.56 0.819184 -1.76959 0
M  V30 12394 O 1249.83 1.5861 -1.14977 0
M  V30 12395 H 1248.41 -0.237427 -0.708264 0
M  V30 12396 H 1251.08 -1.24579 -1.49887 0
M  V30 12397 H 1250.17 -0.902772 -2.98758 0
M  V30 12398 N 1250.47 1.3842 -0.753509 0
M  V30 12399 C 1251.4 2.33073 -0.141198 0
M  V30 12400 C 1252.38 1.54863 0.70367 0
M  V30 12401 O 1253.57 1.8318 0.644872 0
M  V30 12402 C 1250.7 3.39043 0.752802 0
M  V30 12403 C 1249.65 4.27999 0.0106692 0
M  V30 12404 C 1248.98 5.24824 1.02291 0
M  V30 12405 C 1250.28 5.09308 -1.15768 0
M  V30 12406 H 1251.97 2.84528 -0.93188 0
M  V30 12407 H 1249.52 1.36802 -0.449567 0
M  V30 12408 H 1251.47 4.04224 1.19083 0
M  V30 12409 H 1250.2 2.8607 1.57581 0
M  V30 12410 H 1248.85 3.64323 -0.407939 0
M  V30 12411 H 1248.5 4.68139 1.83998 0
M  V30 12412 H 1248.2 5.85196 0.53101 0
M  V30 12413 H 1249.73 5.92882 1.46026 0
M  V30 12414 H 1251.14 5.6773 -0.797203 0
M  V30 12415 H 1249.54 5.78914 -1.58044 0
M  V30 12416 H 1250.61 4.43051 -1.97062 0
M  V30 12417 N 1251.95 0.502579 1.49372 0
M  V30 12418 C 1252.91 -0.263993 2.27675 0
M  V30 12419 C 1253.91 -0.892538 1.33755 0
M  V30 12420 O 1255.1 -0.756826 1.56901 0
M  V30 12421 C 1252.24 -1.37895 3.11765 0
M  V30 12422 H 1253.43 0.423132 2.969 0
M  V30 12423 H 1250.98 0.257595 1.54163 0
M  V30 12424 H 1251.72 -2.10018 2.47109 0
M  V30 12425 H 1251.5 -0.933694 3.80821 0
M  V30 12426 H 1252.99 -1.91889 3.70902 0
M  V30 12427 N 1253.43 -1.55816 0.23648 0
M  V30 12428 C 1254.66 -2.03083 -0.395584 0
M  V30 12429 C 1255.07 -1.11599 -1.52286 0
M  V30 12430 O 1254.43 -0.128403 -1.82048 0
M  V30 12431 C 1254.48 -3.49776 -0.913197 0
M  V30 12432 O 1254.2 -4.37773 0.169151 0
M  V30 12433 C 1255.7 -4.12756 -1.617 0
M  V30 12434 H 1252.92 -0.66421 -0.0952146 0
M  V30 12435 H 1255.47 -2.01354 0.357299 0
M  V30 12436 H 1253.62 -3.52072 -1.6163 0
M  V30 12437 H 1254.03 -5.24029 -0.222217 0
M  V30 12438 H 1255.51 -5.17123 -1.93101 0
M  V30 12439 H 1255.99 -3.58631 -2.53537 0
M  V30 12440 H 1256.59 -4.14353 -0.958736 0
M  V30 12441 N 1254.91 0.036755 -1.57557 0
M  V30 12442 C 1255.84 1.03939 -2.09091 0
M  V30 12443 C 1256.82 1.38196 -0.991761 0
M  V30 12444 O 1258 1.47214 -1.26656 0
M  V30 12445 C 1255.13 2.34263 -2.56394 0
M  V30 12446 C 1254.09 2.14269 -3.70504 0
M  V30 12447 C 1253.41 3.50286 -4.03985 0
M  V30 12448 C 1254.71 1.53514 -4.9923 0
M  V30 12449 H 1256.41 0.610429 -2.93111 0
M  V30 12450 H 1253.95 0.292183 -1.41005 0
M  V30 12451 H 1255.91 3.04727 -2.91066 0
M  V30 12452 H 1254.63 2.79205 -1.69447 0
M  V30 12453 H 1253.29 1.46239 -3.36169 0
M  V30 12454 H 1252.94 3.92861 -3.14116 0
M  V30 12455 H 1252.64 3.37735 -4.80842 0
M  V30 12456 H 1254.16 4.22124 -4.41184 0
M  V30 12457 H 1255.57 2.13885 -5.31908 0
M  V30 12458 H 1253.97 1.51561 -5.80646 0
M  V30 12459 H 1255.04 0.500126 -4.82314 0
M  V30 12460 N 1256.39 1.54543 0.308881 0
M  V30 12461 C 1257.8 1.45581 0.654088 0
M  V30 12462 C 1258 0.640597 1.91046 0
M  V30 12463 O 1257.06 0.14518 2.52082 0
M  V30 12464 C 1258.37 2.89461 0.814422 0
M  V30 12465 C 1259.92 2.99455 0.910817 0
M  V30 12466 C 1260.39 4.44515 1.10321 0
M  V30 12467 N 1261.88 4.4819 1.1696 0
M  V30 12468 C 1262.62 5.57604 1.33661 0
M  V30 12469 N 1262.12 6.76957 1.47311 0
M  V30 12470 N 1263.91 5.45278 1.36487 0
M  V30 12471 H 1256.06 2.06019 -0.516699 0
M  V30 12472 H 1258.32 0.932729 -0.169471 0
M  V30 12473 H 1258.03 3.5168 -0.0377455 0
M  V30 12474 H 1257.9 3.36425 1.70582 0
M  V30 12475 H 1260.29 2.37355 1.75348 0
M  V30 12476 H 1260.37 2.558 -0.00443172 0
M  V30 12477 H 1260.01 5.07206 0.265346 0
M  V30 12478 H 1259.94 4.85793 2.03256 0
M  V30 12479 H 1262.44 3.62199 1.07796 0
M  V30 12480 H 1262.75 7.561 1.59788 0
M  V30 12481 H 1261.09 6.79837 1.44382 0
M  V30 12482 H 1264.28 4.50983 1.25429 0
M  V30 12483 H 1264.46 6.30599 1.4916 0
M  V30 12484 N 1257.86 -0.571685 1.46866 0
M  V30 12485 C 1259.28 -0.896172 1.32064 0
M  V30 12486 C 1259.48 -1.9925 0.300291 0
M  V30 12487 O 1258.54 -2.50791 -0.293284 0
M  V30 12488 C 1259.85 -1.3031 2.70998 0
M  V30 12489 C 1261.4 -1.41533 2.79173 0
M  V30 12490 C 1261.87 -1.85587 4.18714 0
M  V30 12491 N 1263.36 -1.92762 4.21185 0
M  V30 12492 C 1264.1 -2.28148 5.26057 0
M  V30 12493 N 1263.59 -2.62248 6.41247 0
M  V30 12494 N 1265.39 -2.28797 5.13428 0
M  V30 12495 H 1257.54 0.152349 2.11853 0
M  V30 12496 H 1259.8 0.00548777 0.947984 0
M  V30 12497 H 1259.51 -0.571469 3.47026 0
M  V30 12498 H 1259.38 -2.26233 3.01826 0
M  V30 12499 H 1261.77 -2.1378 2.03426 0
M  V30 12500 H 1261.85 -0.438342 2.52016 0
M  V30 12501 H 1261.49 -1.13915 4.9496 0
M  V30 12502 H 1261.42 -2.84264 4.43285 0
M  V30 12503 H 1263.91 -1.68854 3.38078 0
M  V30 12504 H 1264.23 -2.88234 7.17036 0
M  V30 12505 H 1262.57 -2.59861 6.44591 0
M  V30 12506 H 1265.76 -2.01587 4.22469 0
M  V30 12507 H 1265.94 -2.56045 5.95269 0
M  V30 12508 N 1259.34 -1.34755 -0.817236 0
M  V30 12509 C 1260.25 -1.28888 -1.96023 0
M  V30 12510 C 1261.27 -0.195582 -1.72897 0
M  V30 12511 O 1262.44 -0.423071 -1.96906 0
M  V30 12512 C 1259.51 -1.04985 -3.30423 0
M  V30 12513 C 1258.57 -2.23526 -3.66517 0
M  V30 12514 C 1257.8 -2.00753 -4.94504 0
M  V30 12515 O 1258.03 -0.968622 -5.62116 0
M  V30 12516 O 1256.96 -2.87848 -5.28608 0
M  V30 12517 H 1260.79 -2.25059 -2.03917 0
M  V30 12518 H 1258.37 -1.15019 -0.953467 0
M  V30 12519 H 1260.25 -0.934589 -4.10906 0
M  V30 12520 H 1258.93 -0.118582 -3.23483 0
M  V30 12521 H 1257.83 -2.40613 -2.86455 0
M  V30 12522 H 1259.17 -3.15062 -3.78149 0
M  V30 12523 N 1260.82 1.03812 -1.18578 0
M  V30 12524 C 1262.1 1.74062 -0.892288 0
M  V30 12525 C 1262.48 2.02267 0.604256 0
M  V30 12526 O 1261.82 1.66988 1.55972 0
M  V30 12527 C 1262.03 3.024 -1.74228 0
M  V30 12528 C 1263.38 3.76088 -1.97087 0
M  V30 12529 O 1264.41 3.12305 -1.71302 0
M  V30 12530 O 1263.27 4.90732 -2.40509 0
M  V30 12531 H 1260.36 0.757567 -0.331695 0
M  V30 12532 H 1262.91 1.09855 -1.29345 0
M  V30 12533 H 1261.68 2.77713 -2.75665 0
M  V30 12534 H 1261.3 3.74346 -1.3398 0
M  V30 12535 N 1262.3 0.988223 1.22768 0
M  V30 12536 C 1263.55 0.660154 1.91014 0
M  V30 12537 C 1263.87 -0.809788 1.77391 0
M  V30 12538 O 1263.14 -1.57998 1.15817 0
M  V30 12539 H 1261.72 0.24118 0.706995 0
M  V30 12540 H 1264.38 1.25372 1.49224 0
M  V30 12541 H 1263.47 0.918603 2.98275 0
M  V30 12542 N 1263.78 -1.38018 0.760839 0
M  V30 12543 C 1265.02 -1.99557 0.319609 0
M  V30 12544 C 1265.34 -1.60699 -1.10457 0
M  V30 12545 O 1264.61 -0.867248 -1.75658 0
M  V30 12546 H 1263.19 -0.738066 0.115182 0
M  V30 12547 H 1265.86 -1.6867 0.976544 0
M  V30 12548 H 1264.95 -3.09672 0.388523 0
M  V30 12549 N 1265.25 -0.510493 -1.49103 0
M  V30 12550 C 1266.19 0.299697 -2.27232 0
M  V30 12551 C 1267.2 0.922102 -1.34168 0
M  V30 12552 O 1268.39 0.803836 -1.59376 0
M  V30 12553 C 1265.49 1.43778 -3.06889 0
M  V30 12554 C 1264.66 0.920927 -4.27595 0
M  V30 12555 C 1263.72 1.93777 -4.89221 0
M  V30 12556 O 1262.75 1.5025 -5.49011 0
M  V30 12557 N 1263.95 3.2688 -4.79718 0
M  V30 12558 H 1266.71 -0.37028 -2.97404 0
M  V30 12559 H 1264.27 -0.343617 -1.58212 0
M  V30 12560 H 1266.27 2.11577 -3.44988 0
M  V30 12561 H 1264.84 2.01175 -2.39264 0
M  V30 12562 H 1264.06 0.0675358 -3.94142 0
M  V30 12563 H 1265.34 0.554168 -5.05773 0
M  V30 12564 H 1264.74 3.64924 -4.32258 0
M  V30 12565 H 1263.3 3.90366 -5.21974 0
M  V30 12566 N 1266.73 1.55688 -0.24474 0
M  V30 12567 C 1267.68 2.17946 0.669596 0
M  V30 12568 C 1268.67 1.13468 1.14078 0
M  V30 12569 O 1269.86 1.39385 1.09091 0
M  V30 12570 C 1266.99 2.8808 1.86721 0
M  V30 12571 C 1266.07 3.99811 1.41463 0
M  V30 12572 N 1266.46 5.01261 0.676131 0
M  V30 12573 C 1264.76 4.12327 1.70008 0
M  V30 12574 C 1265.46 5.80017 0.442113 0
M  V30 12575 N 1264.44 5.34216 1.00569 0
M  V30 12576 H 1268.24 2.93739 0.0971953 0
M  V30 12577 H 1265.75 1.62332 -0.0469646 0
M  V30 12578 H 1267.75 3.31109 2.53322 0
M  V30 12579 H 1266.41 2.13789 2.44385 0
M  V30 12580 H 1267.42 5.1687 0.326459 0
M  V30 12581 H 1264.1 3.49206 2.28827 0
M  V30 12582 H 1265.49 6.71739 -0.14729 0
M  V30 12583 N 1268.21 -0.0283989 1.57574 0
M  V30 12584 C 1269.63 -0.384054 1.5491 0
M  V30 12585 C 1269.83 -1.76564 0.970947 0
M  V30 12586 O 1268.88 -2.45455 0.592288 0
M  V30 12587 C 1270.19 -0.285297 2.99344 0
M  V30 12588 C 1271.74 -0.36233 3.10896 0
M  V30 12589 C 1272.22 -0.293014 4.57062 0
M  V30 12590 N 1273.71 -0.351788 4.61862 0
M  V30 12591 C 1274.44 -0.321054 5.725 0
M  V30 12592 N 1273.94 -0.242573 6.92375 0
M  V30 12593 N 1275.73 -0.370832 5.60875 0
M  V30 12594 H 1267.88 0.87573 1.93506 0
M  V30 12595 H 1270.15 0.33305 0.887571 0
M  V30 12596 H 1269.85 0.664146 3.45372 0
M  V30 12597 H 1269.73 -1.07869 3.61447 0
M  V30 12598 H 1272.11 -1.30221 2.64814 0
M  V30 12599 H 1272.19 0.460422 2.51622 0
M  V30 12600 H 1271.84 0.643197 5.03811 0
M  V30 12601 H 1271.77 -1.13388 5.14248 0
M  V30 12602 H 1274.26 -0.414929 3.75615 0
M  V30 12603 H 1274.57 -0.224239 7.72475 0
M  V30 12604 H 1272.92 -0.208612 6.94687 0
M  V30 12605 H 1276.11 -0.430141 4.6612 0
M  V30 12606 H 1276.28 -0.343412 6.47089 0
M  V30 12607 N 1269.69 -1.54705 -0.300681 0
M  V30 12608 C 1270.62 -1.88679 -1.37559 0
M  V30 12609 C 1271.6 -0.74574 -1.52881 0
M  V30 12610 O 1272.78 -1.0015 -1.66384 0
M  V30 12611 C 1269.91 -2.13438 -2.73974 0
M  V30 12612 C 1268.87 -3.29284 -2.73415 0
M  V30 12613 C 1268.19 -3.39462 -4.13122 0
M  V30 12614 C 1269.49 -4.66382 -2.35128 0
M  V30 12615 H 1271.19 -2.78707 -1.09373 0
M  V30 12616 H 1268.73 -1.341 -0.524704 0
M  V30 12617 H 1270.69 -2.35791 -3.49257 0
M  V30 12618 H 1269.41 -1.20181 -3.03684 0
M  V30 12619 H 1268.07 -3.06855 -2.00588 0
M  V30 12620 H 1267.72 -2.43721 -4.4001 0
M  V30 12621 H 1267.42 -4.17334 -4.1365 0
M  V30 12622 H 1268.94 -3.64075 -4.90185 0
M  V30 12623 H 1270.36 -4.88463 -3.00128 0
M  V30 12624 H 1268.75 -5.4697 -2.46867 0
M  V30 12625 H 1269.82 -4.67078 -1.30256 0
M  V30 12626 N 1271.17 0.563888 -1.47167 0
M  V30 12627 C 1272.39 1.34693 -1.57052 0
M  V30 12628 C 1272.81 1.87534 -0.218308 0
M  V30 12629 O 1272.17 1.64639 0.787416 0
M  V30 12630 C 1272.22 2.52148 -2.59044 0
M  V30 12631 O 1271.94 2.01492 -3.89015 0
M  V30 12632 C 1273.44 3.4445 -2.7905 0
M  V30 12633 H 1270.66 0.410822 -0.530534 0
M  V30 12634 H 1273.2 0.683731 -1.92731 0
M  V30 12635 H 1271.36 3.14419 -2.26317 0
M  V30 12636 H 1271.77 2.78122 -4.44689 0
M  V30 12637 H 1273.25 4.23297 -3.54293 0
M  V30 12638 H 1273.72 3.97575 -1.86631 0
M  V30 12639 H 1274.33 2.88 -3.12948 0
M  V30 12640 N 1272.64 1.35187 0.810078 0
M  V30 12641 C 1273.87 1.31371 1.59841 0
M  V30 12642 C 1274.29 -0.109547 1.88482 0
M  V30 12643 O 1273.64 -1.06047 1.48527 0
M  V30 12644 C 1273.7 2.11496 2.93175 0
M  V30 12645 O 1273.42 3.48273 2.65777 0
M  V30 12646 C 1274.92 2.15226 3.87547 0
M  V30 12647 H 1272.14 0.451428 0.496441 0
M  V30 12648 H 1274.68 1.7799 1.00697 0
M  V30 12649 H 1272.84 1.68486 3.48843 0
M  V30 12650 H 1273.25 3.89845 3.50886 0
M  V30 12651 H 1274.72 2.75687 4.78226 0
M  V30 12652 H 1275.2 1.15007 4.23875 0
M  V30 12653 H 1275.81 2.58382 3.37815 0
M  V30 12654 N 1274.12 -1.03182 1.19127 0
M  V30 12655 C 1275.35 -1.80703 1.01791 0
M  V30 12656 C 1275.77 -1.83147 -0.428824 0
M  V30 12657 O 1275.13 -1.2553 -1.30812 0
M  V30 12658 C 1275.18 -3.23754 1.58794 0
M  V30 12659 O 1274.28 -4.04261 0.815274 0
M  V30 12660 H 1273.62 -0.557944 0.359992 0
M  V30 12661 H 1276.15 -1.29887 1.58084 0
M  V30 12662 H 1276.16 -3.7451 1.61884 0
M  V30 12663 H 1274.84 -3.2129 2.64094 0
M  V30 12664 H 1273.42 -3.62909 0.857392 0
M  V30 12665 N 1275.6 -0.99472 -1.22242 0
M  V30 12666 C 1276.53 -0.566499 -2.26524 0
M  V30 12667 C 1277.51 0.407541 -1.65146 0
M  V30 12668 O 1278.7 0.297777 -1.91903 0
M  V30 12669 C 1275.83 0.11786 -3.471 0
M  V30 12670 C 1274.78 -0.774908 -4.20927 0
M  V30 12671 C 1274.11 0.0424687 -5.34683 0
M  V30 12672 C 1275.41 -2.07263 -4.79416 0
M  V30 12673 H 1277.1 -1.43818 -2.62596 0
M  V30 12674 H 1274.65 -0.692971 -1.2623 0
M  V30 12675 H 1276.6 0.428842 -4.19212 0
M  V30 12676 H 1275.32 1.0241 -3.10129 0
M  V30 12677 H 1273.98 -1.06956 -3.50651 0
M  V30 12678 H 1273.63 0.949677 -4.93954 0
M  V30 12679 H 1273.33 -0.551867 -5.85003 0
M  V30 12680 H 1274.85 0.347504 -6.0961 0
M  V30 12681 H 1276.27 -1.82548 -5.4346 0
M  V30 12682 H 1274.67 -2.61594 -5.40082 0
M  V30 12683 H 1275.74 -2.75017 -3.99366 0
M  V30 12684 N 1277.08 1.37613 -0.768148 0
M  V30 12685 C 1278.04 2.28653 -0.158283 0
M  V30 12686 C 1279.04 1.47862 0.631936 0
M  V30 12687 O 1280.23 1.68124 0.456055 0
M  V30 12688 C 1277.36 3.31776 0.783435 0
M  V30 12689 H 1278.56 2.84094 -0.960772 0
M  V30 12690 H 1276.11 1.46818 -0.536116 0
M  V30 12691 H 1276.84 2.81452 1.61106 0
M  V30 12692 H 1276.63 3.91488 0.219016 0
M  V30 12693 H 1278.12 3.99816 1.20568 0
M  V30 12694 N 1278.56 0.518393 1.4883 0
M  V30 12695 C 1279.47 -0.254811 2.33212 0
M  V30 12696 C 1280.48 -0.950401 1.45751 0
M  V30 12697 O 1281.66 -0.927932 1.78749 0
M  V30 12698 C 1278.72 -1.29509 3.21603 0
M  V30 12699 C 1277.78 -0.611086 4.24928 0
M  V30 12700 C 1277.02 -1.6018 5.09095 0
M  V30 12701 O 1277.24 -2.83336 4.95052 0
M  V30 12702 O 1276.17 -1.14756 5.90859 0
M  V30 12703 H 1280 0.436329 3.00549 0
M  V30 12704 H 1277.59 0.27947 1.46763 0
M  V30 12705 H 1279.47 -1.89654 3.7631 0
M  V30 12706 H 1278.14 -1.96884 2.5694 0
M  V30 12707 H 1277.05 0.0305638 3.74088 0
M  V30 12708 H 1278.38 0.0205249 4.92196 0
M  V30 12709 N 1280.03 -1.55556 0.252993 0
M  V30 12710 C 1281 -2.20351 -0.630705 0
M  V30 12711 C 1282 -1.17461 -1.09816 0
M  V30 12712 O 1283.19 -1.42505 -1.00189 0
M  V30 12713 C 1280.32 -2.85192 -1.86757 0
M  V30 12714 H 1281.51 -2.99829 -0.0652939 0
M  V30 12715 H 1279.07 -1.563 0.00347982 0
M  V30 12716 H 1279.8 -2.09669 -2.47406 0
M  V30 12717 H 1279.59 -3.60569 -1.54053 0
M  V30 12718 H 1281.08 -3.34762 -2.49648 0
M  V30 12719 N 1281.51 0.0200419 -1.57587 0
M  V30 12720 C 1282.76 0.704552 -1.90808 0
M  V30 12721 C 1283.11 1.72479 -0.852568 0
M  V30 12722 O 1282.41 1.91105 0.137682 0
M  V30 12723 C 1282.6 1.40729 -3.28527 0
M  V30 12724 C 1282.43 0.456634 -4.47376 0
M  V30 12725 C 1281.2 0.0743638 -5.05245 0
M  V30 12726 C 1283.4 -0.268767 -5.13597 0
M  V30 12727 N 1281.38 -0.876606 -6.07609 0
M  V30 12728 C 1282.75 -1.07509 -6.10608 0
M  V30 12729 C 1284.81 -0.334748 -4.96773 0
M  V30 12730 C 1283.51 -1.94135 -6.92607 0
M  V30 12731 C 1285.53 -1.18816 -5.79342 0
M  V30 12732 C 1284.9 -1.98238 -6.7593 0
M  V30 12733 H 1281 0.231633 -0.746907 0
M  V30 12734 H 1283.58 -0.0355944 -1.94667 0
M  V30 12735 H 1281.75 2.11785 -3.25579 0
M  V30 12736 H 1283.48 2.04491 -3.49236 0
M  V30 12737 H 1280.24 0.43848 -4.71566 0
M  V30 12738 H 1280.66 -1.34687 -6.63467 0
M  V30 12739 H 1285.3 0.264995 -4.21969 0
M  V30 12740 H 1283.02 -2.55185 -7.6675 0
M  V30 12741 H 1286.61 -1.24286 -5.6837 0
M  V30 12742 H 1285.49 -2.63208 -7.38709 0
M  V30 12743 N 1282.99 1.54862 0.292472 0
M  V30 12744 C 1283.95 1.8565 1.34413 0
M  V30 12745 C 1284.95 0.729868 1.43281 0
M  V30 12746 O 1286.14 0.998128 1.42769 0
M  V30 12747 C 1283.28 2.0444 2.72795 0
M  V30 12748 H 1284.47 2.79642 1.08354 0
M  V30 12749 H 1282.02 1.47055 0.529574 0
M  V30 12750 H 1282.76 1.12765 3.04063 0
M  V30 12751 H 1282.54 2.86451 2.67747 0
M  V30 12752 H 1284.03 2.296 3.48817 0
M  V30 12753 N 1284.47 -0.556076 1.47464 0
M  V30 12754 C 1285.42 -1.68406 1.60444 0
M  V30 12755 C 1286.41 -1.627 0.471713 0
M  V30 12756 O 1287.62 -1.67871 0.649551 0
M  V30 12757 H 1283.99 -0.557255 0.504946 0
M  V30 12758 H 1285.96 -1.54595 2.55231 0
M  V30 12759 C 1284.71 -3.06756 1.63695 0
M  V30 12760 H 1284.03 -3.11829 2.50206 0
M  V30 12761 H 1285.47 -3.85368 1.76827 0
M  V30 12762 C 1283.93 -3.34857 0.370485 0
M  V30 12763 O 1284.46 -3.98216 -0.527942 0
M  V30 12764 N 1282.67 -2.89521 0.250163 0
M  V30 12765 H 1282.22 -2.3814 0.982204 0
M  V30 12766 H 1282.17 -3.08694 -0.596268 0
M  V30 12767 N 1285.95 -1.35615 -0.802897 0
M  V30 12768 C 1287.2 -1.28839 -1.55708 0
M  V30 12769 C 1287.52 0.135906 -1.94526 0
M  V30 12770 O 1286.79 1.07317 -1.6389 0
M  V30 12771 H 1285.37 -0.473906 -0.577427 0
M  V30 12772 H 1288.03 -1.69759 -0.957487 0
M  V30 12773 H 1287.12 -1.90675 -2.47082 0
M  V30 12774 N 1287.43 1.02549 -1.19673 0
M  V30 12775 C 1288.36 2.12794 -0.961289 0
M  V30 12776 C 1289.34 1.69766 0.106575 0
M  V30 12777 O 1290.52 1.94138 -0.0491358 0
M  V30 12778 C 1287.65 3.4364 -0.502868 0
M  V30 12779 C 1286.61 4.00367 -1.51296 0
M  V30 12780 C 1285.93 5.26874 -0.911491 0
M  V30 12781 C 1287.23 4.34782 -2.89416 0
M  V30 12782 H 1288.93 2.32748 -1.88331 0
M  V30 12783 H 1286.47 1.11852 -0.906922 0
M  V30 12784 H 1288.42 4.20141 -0.325436 0
M  V30 12785 H 1287.15 3.23418 0.454764 0
M  V30 12786 H 1285.81 3.25964 -1.67759 0
M  V30 12787 H 1285.46 5.02971 0.0537982 0
M  V30 12788 H 1285.16 5.65791 -1.58602 0
M  V30 12789 H 1286.68 6.06039 -0.74493 0
M  V30 12790 H 1288.09 5.02207 -2.76516 0
M  V30 12791 H 1286.49 4.8479 -3.53693 0
M  V30 12792 H 1287.56 3.43935 -3.41814 0
M  V30 12793 N 1288.9 1.00119 1.21713 0
M  V30 12794 C 1289.87 0.563409 2.22167 0
M  V30 12795 C 1290.87 -0.35819 1.5676 0
M  V30 12796 O 1292.06 -0.149001 1.73562 0
M  V30 12797 C 1289.19 -0.179365 3.40428 0
M  V30 12798 H 1290.38 1.45189 2.62412 0
M  V30 12799 H 1287.93 0.789286 1.34907 0
M  V30 12800 H 1288.67 -1.08345 3.05666 0
M  V30 12801 H 1288.45 0.482471 3.8912 0
M  V30 12802 H 1289.94 -0.473537 4.14906 0
M  V30 12803 N 1290.38 -1.37203 0.775435 0
M  V30 12804 C 1291.31 -2.32819 0.17826 0
M  V30 12805 C 1292.29 -1.55963 -0.678944 0
M  V30 12806 O 1293.48 -1.84183 -0.615648 0
M  V30 12807 C 1290.61 -3.40198 -0.698768 0
M  V30 12808 C 1289.56 -4.27961 0.057423 0
M  V30 12809 C 1288.89 -5.26385 -0.93929 0
M  V30 12810 C 1290.19 -5.07402 1.23856 0
M  V30 12811 H 1291.88 -2.8301 0.977028 0
M  V30 12812 H 1289.43 -1.3607 0.471274 0
M  V30 12813 H 1291.38 -4.06067 -1.12637 0
M  V30 12814 H 1290.1 -2.88541 -1.53009 0
M  V30 12815 H 1288.76 -3.63628 0.465848 0
M  V30 12816 H 1288.41 -4.71007 -1.76527 0
M  V30 12817 H 1288.11 -5.85966 -0.437844 0
M  V30 12818 H 1289.64 -5.9513 -1.36576 0
M  V30 12819 H 1291.05 -5.6639 0.887423 0
M  V30 12820 H 1289.45 -5.76327 1.67234 0
M  V30 12821 H 1290.52 -4.3986 2.04085 0
M  V30 12822 N 1291.86 -0.526279 -1.48553 0
M  V30 12823 C 1293.14 0.073385 -1.95462 0
M  V30 12824 C 1293.52 1.51658 -1.46843 0
M  V30 12825 O 1292.86 2.17729 -0.693293 0
M  V30 12826 C 1293.07 -0.040041 -3.48977 0
M  V30 12827 C 1294.42 0.121108 -4.24427 0
M  V30 12828 O 1295.45 0.0339335 -3.56184 0
M  V30 12829 O 1294.31 0.303297 -5.45658 0
M  V30 12830 H 1291.4 0.0813498 -0.822989 0
M  V30 12831 H 1293.95 -0.590614 -1.59091 0
M  V30 12832 H 1292.72 -1.0455 -3.77074 0
M  V30 12833 H 1292.34 0.662975 -3.92034 0
M  V30 12834 N 1293.34 1.5542 -0.261239 0
M  V30 12835 C 1294.58 2.00312 0.353075 0
M  V30 12836 C 1294.94 1.14642 1.54515 0
M  V30 12837 O 1294.23 0.205242 1.90498 0
M  V30 12838 C 1294.43 3.48354 0.799021 0
M  V30 12839 C 1294.25 4.48349 -0.348302 0
M  V30 12840 C 1293.02 4.98476 -0.827623 0
M  V30 12841 C 1295.22 5.00577 -1.18015 0
M  V30 12842 N 1293.2 5.82245 -1.94586 0
M  V30 12843 C 1294.58 5.81657 -2.14651 0
M  V30 12844 C 1296.63 4.82846 -1.21508 0
M  V30 12845 C 1295.33 6.46898 -3.14508 0
M  V30 12846 C 1297.36 5.48876 -2.20202 0
M  V30 12847 C 1296.72 6.29756 -3.15573 0
M  V30 12848 H 1292.82 0.776238 0.0947564 0
M  V30 12849 H 1295.4 1.90914 -0.382094 0
M  V30 12850 H 1293.58 3.58122 1.50345 0
M  V30 12851 H 1295.31 3.80099 1.3895 0
M  V30 12852 H 1292.06 4.71828 -0.409293 0
M  V30 12853 H 1292.49 6.28824 -2.50817 0
M  V30 12854 H 1297.13 4.19933 -0.491573 0
M  V30 12855 H 1294.85 7.08969 -3.87799 0
M  V30 12856 H 1298.43 5.37105 -2.23629 0
M  V30 12857 H 1297.31 6.79947 -3.90694 0
M  V30 12858 N 1294.82 -0.0116844 1.57596 0
M  V30 12859 C 1295.78 -0.991601 2.0664 0
M  V30 12860 C 1296.78 -1.27973 0.973629 0
M  V30 12861 O 1297.97 -1.22686 1.23668 0
M  V30 12862 C 1295.1 -2.31975 2.49801 0
M  V30 12863 H 1296.29 -0.567607 2.9448 0
M  V30 12864 H 1293.85 -0.258906 1.54141 0
M  V30 12865 H 1294.58 -2.79087 1.65169 0
M  V30 12866 H 1294.37 -2.12386 3.29598 0
M  V30 12867 H 1295.86 -3.02294 2.88112 0
M  V30 12868 N 1296.29 -1.55015 -0.284256 0
M  V30 12869 C 1297.52 -1.79431 -1.04016 0
M  V30 12870 C 1297.94 -0.560254 -1.79563 0
M  V30 12871 O 1297.3 0.489804 -1.74558 0
M  V30 12872 C 1297.35 -3.01162 -1.98328 0
M  V30 12873 O 1296.45 -2.75459 -3.06914 0
M  V30 12874 H 1295.79 -0.593391 -0.297965 0
M  V30 12875 H 1298.32 -2.02136 -0.316585 0
M  V30 12876 H 1298.33 -3.29589 -2.40489 0
M  V30 12877 H 1297.01 -3.90634 -1.42751 0
M  V30 12878 H 1295.59 -2.58096 -2.69148 0
M  V30 12879 N 1297.77 0.548248 -1.47757 0
M  V30 12880 C 1298.7 1.66409 -1.63799 0
M  V30 12881 C 1299.68 1.62973 -0.487211 0
M  V30 12882 O 1300.87 1.80455 -0.717612 0
M  V30 12883 C 1298 3.05035 -1.66046 0
M  V30 12884 C 1296.95 3.23322 -2.80441 0
M  V30 12885 C 1296.28 4.62824 -2.67765 0
M  V30 12886 C 1297.58 3.07837 -4.2194 0
M  V30 12887 H 1299.27 1.53239 -2.57212 0
M  V30 12888 H 1296.82 0.735783 -1.23783 0
M  V30 12889 H 1298.77 3.82951 -1.75859 0
M  V30 12890 H 1297.49 3.19185 -0.69199 0
M  V30 12891 H 1296.15 2.47816 -2.70153 0
M  V30 12892 H 1295.8 4.73786 -1.68927 0
M  V30 12893 H 1295.5 4.76007 -3.44515 0
M  V30 12894 H 1297.03 5.42864 -2.7952 0
M  V30 12895 H 1298.44 3.75563 -4.33157 0
M  V30 12896 H 1296.84 3.32525 -4.99547 0
M  V30 12897 H 1297.91 2.04474 -4.3968 0
M  V30 12898 N 1299.25 1.36039 0.795694 0
M  V30 12899 C 1300.18 1.32528 1.92246 0
M  V30 12900 C 1301.16 0.197805 1.68946 0
M  V30 12901 O 1302.35 0.394474 1.90151 0
M  V30 12902 C 1299.48 1.10748 3.29169 0
M  V30 12903 C 1298.43 2.20253 3.66978 0
M  V30 12904 C 1297.76 1.83624 5.02181 0
M  V30 12905 C 1299.06 3.62296 3.76216 0
M  V30 12906 H 1300.75 2.2681 1.95442 0
M  V30 12907 H 1298.3 1.09181 0.938908 0
M  V30 12908 H 1300.25 1.06929 4.07608 0
M  V30 12909 H 1298.97 0.129141 3.26345 0
M  V30 12910 H 1297.63 2.23187 2.90832 0
M  V30 12911 H 1297.28 0.843804 4.95872 0
M  V30 12912 H 1296.98 2.56935 5.28449 0
M  V30 12913 H 1298.5 1.81349 5.83048 0
M  V30 12914 H 1299.92 3.61623 4.44861 0
M  V30 12915 H 1298.31 4.34459 4.13963 0
M  V30 12916 H 1299.38 3.97657 2.77483 0
M  V30 12917 N 1300.73 -1.01913 1.20215 0
M  V30 12918 C 1302.14 -1.5692 1.01159 0
M  V30 12919 C 1302.49 -1.91368 -0.432746 0
M  V30 12920 O 1301.62 -1.71959 -1.31374 0
M  V30 12921 C 1302.21 -2.85125 1.83001 0
M  V30 12922 C 1300.77 -3.36669 1.68318 0
M  V30 12923 C 1299.92 -2.10003 1.81091 0
M  V30 12924 H 1302.87 -0.843246 1.34443 0
M  V30 12925 H 1302.89 -3.56428 1.33188 0
M  V30 12926 H 1302.4 -2.60021 2.88116 0
M  V30 12927 H 1300.5 -3.66739 0.658292 0
M  V30 12928 H 1300.61 -4.09042 2.49442 0
M  V30 12929 H 1298.98 -2.22337 1.24252 0
M  V30 12930 H 1299.76 -1.87329 2.87685 0
M  V30 12931 N 1302.21 -1.00763 -1.2118 0
M  V30 12932 C 1303.17 -0.575183 -2.21865 0
M  V30 12933 C 1304.17 0.349871 -1.56948 0
M  V30 12934 O 1305.36 0.139795 -1.73638 0
M  V30 12935 C 1302.49 0.161308 -3.40518 0
M  V30 12936 H 1303.68 -1.46578 -2.61639 0
M  V30 12937 H 1301.24 -0.79643 -1.34487 0
M  V30 12938 H 1301.97 1.06723 -3.06236 0
M  V30 12939 H 1301.76 -0.503101 -3.88859 0
M  V30 12940 H 1303.25 0.451527 -4.15152 0
M  V30 12941 N 1303.68 1.3679 -0.7827 0
M  V30 12942 C 1304.91 2.03678 -0.363734 0
M  V30 12943 C 1305.33 1.59024 1.01768 0
M  V30 12944 O 1304.68 0.776541 1.65155 0
M  V30 12945 C 1304.74 3.59165 -0.410213 0
M  V30 12946 O 1304.46 4.02188 -1.73714 0
M  V30 12947 C 1305.96 4.43296 0.018972 0
M  V30 12948 H 1303.18 0.653828 -0.150829 0
M  V30 12949 H 1305.72 1.74903 -1.05968 0
M  V30 12950 H 1303.88 3.86673 0.237249 0
M  V30 12951 H 1304.29 4.96754 -1.68332 0
M  V30 12952 H 1305.76 5.51962 -0.0646943 0
M  V30 12953 H 1306.24 4.25948 1.07076 0
M  V30 12954 H 1306.85 4.21036 -0.600721 0
M  V30 12955 N 1305.16 0.53415 1.48272 0
M  V30 12956 C 1306.41 0.00156948 2.021 0
M  V30 12957 C 1306.73 -1.34371 1.41313 0
M  V30 12958 O 1306 -1.87117 0.579996 0
M  V30 12959 H 1304.58 -0.00240789 0.746996 0
M  V30 12960 H 1307.24 0.698928 1.81937 0
M  V30 12961 H 1306.34 -0.103671 3.11928 0
M  V30 12962 N 1306.64 -1.55279 0.269478 0
M  V30 12963 C 1307.6 -2.21008 -0.607299 0
M  V30 12964 C 1308.6 -1.18619 -1.08564 0
M  V30 12965 O 1309.79 -1.4356 -0.986721 0
M  V30 12966 C 1306.93 -2.87157 -1.83721 0
M  V30 12967 H 1308.12 -2.99881 -0.0334894 0
M  V30 12968 H 1305.67 -1.56287 0.0200573 0
M  V30 12969 H 1306.41 -2.12281 -2.45168 0
M  V30 12970 H 1306.19 -3.62183 -1.5022 0
M  V30 12971 H 1307.68 -3.37391 -2.46083 0
M  V30 12972 N 1308.12 0.00332656 -1.576 0
M  V30 12973 C 1309.05 0.994803 -2.11248 0
M  V30 12974 C 1310.03 1.36061 -1.02085 0
M  V30 12975 O 1311.21 1.44494 -1.2975 0
M  V30 12976 C 1308.34 2.28772 -2.61306 0
M  V30 12977 C 1307.3 2.06362 -3.74965 0
M  V30 12978 C 1306.62 3.41638 -4.11324 0
M  V30 12979 C 1307.92 1.4289 -5.02374 0
M  V30 12980 H 1309.62 0.548119 -2.9434 0
M  V30 12981 H 1307.16 0.262208 -1.41593 0
M  V30 12982 H 1309.12 2.98485 -2.97464 0
M  V30 12983 H 1307.84 2.75547 -1.75332 0
M  V30 12984 H 1306.5 1.39076 -3.39195 0
M  V30 12985 H 1306.15 3.8611 -3.22379 0
M  V30 12986 H 1305.85 3.2746 -4.87897 0
M  V30 12987 H 1307.37 4.12671 -4.50039 0
M  V30 12988 H 1308.79 2.02555 -5.36325 0
M  V30 12989 H 1307.18 1.3921 -5.8373 0
M  V30 12990 H 1308.25 0.397708 -4.83266 0
M  V30 12991 N 1309.6 1.55164 0.276031 0
M  V30 12992 C 1310.82 1.7998 1.03063 0
M  V30 12993 C 1311.25 0.569769 1.79263 0
M  V30 12994 O 1310.6 -0.48054 1.74816 0
M  V30 12995 C 1310.65 3.02209 1.96728 0
M  V30 12996 O 1309.76 2.77083 3.05449 0
M  V30 12997 H 1309.1 0.594963 0.294814 0
M  V30 12998 H 1311.63 2.02301 0.305861 0
M  V30 12999 H 1311.64 3.3086 2.38738 0
M  V30 13000 H 1310.31 3.91386 1.40677 0
M  V30 13001 H 1308.89 2.5952 2.67776 0
M  V30 13002 N 1311.07 -0.540404 1.48045 0
M  V30 13003 C 1312.49 -1.12243 1.49192 0
M  V30 13004 C 1312.84 -1.94524 0.255895 0
M  V30 13005 O 1311.96 -2.06786 -0.637855 0
M  V30 13006 C 1312.56 -2.04227 2.70327 0
M  V30 13007 C 1311.12 -2.57668 2.7438 0
M  V30 13008 C 1310.26 -1.34402 2.42552 0
M  V30 13009 H 1313.21 -0.326165 1.55312 0
M  V30 13010 H 1313.23 -2.88359 2.48253 0
M  V30 13011 H 1312.75 -1.44314 3.60271 0
M  V30 13012 H 1310.85 -3.21331 1.88618 0
M  V30 13013 H 1310.96 -2.97514 3.7553 0
M  V30 13014 H 1309.32 -1.65635 1.93487 0
M  V30 13015 H 1310.11 -0.762571 3.34723 0
M  V30 13016 N 1312.55 -1.36459 -0.788468 0
M  V30 13017 C 1313.52 -1.3071 -1.88275 0
M  V30 13018 C 1314.52 -0.214596 -1.59362 0
M  V30 13019 O 1315.71 -0.469437 -1.67756 0
M  V30 13020 C 1312.84 -1.02648 -3.25079 0
M  V30 13021 H 1314.03 -2.28029 -1.94788 0
M  V30 13022 H 1311.58 -1.21245 -0.986375 0
M  V30 13023 H 1312.32 -0.0578992 -3.24248 0
M  V30 13024 H 1312.1 -1.81708 -3.47454 0
M  V30 13025 H 1313.59 -1.01233 -4.05144 0
M  V30 13026 N 1314.03 1.01274 -1.20754 0
M  V30 13027 C 1315.28 1.75191 -1.02156 0
M  V30 13028 C 1315.61 1.89038 0.444791 0
M  V30 13029 O 1314.88 1.41903 1.33018 0
M  V30 13030 C 1315.17 3.16892 -1.71031 0
M  V30 13031 C 1315.02 3.10816 -3.25136 0
M  V30 13032 C 1316.34 4.15648 -1.44654 0
M  V30 13033 H 1313.46 0.635922 -0.372521 0
M  V30 13034 H 1316.1 1.18119 -1.48822 0
M  V30 13035 H 1314.25 3.6562 -1.31357 0
M  V30 13036 H 1315.92 2.69863 -3.74128 0
M  V30 13037 H 1314.17 2.48113 -3.5584 0
M  V30 13038 H 1314.84 4.11001 -3.68487 0
M  V30 13039 H 1317.31 3.75592 -1.7908 0
M  V30 13040 H 1316.19 5.12954 -1.95371 0
M  V30 13041 H 1316.45 4.40507 -0.37494 0
M  V30 13042 N 1315.51 1.01404 1.20644 0
M  V30 13043 C 1316.92 0.73386 1.71672 0
M  V30 13044 C 1317.27 -0.747803 1.8139 0
M  V30 13045 O 1316.4 -1.58372 1.47469 0
M  V30 13046 C 1316.99 1.32549 3.11795 0
M  V30 13047 C 1315.55 1.09423 3.60144 0
M  V30 13048 C 1314.7 1.43275 2.37419 0
M  V30 13049 H 1317.65 1.18383 1.05694 0
M  V30 13050 H 1317.67 0.714749 3.73727 0
M  V30 13051 H 1317.18 2.40386 3.0469 0
M  V30 13052 H 1315.28 0.0334113 3.72585 0
M  V30 13053 H 1315.4 1.77248 4.45107 0
M  V30 13054 H 1313.76 0.851714 2.40037 0
M  V30 13055 H 1314.54 2.52163 2.32957 0
M  V30 13056 N 1316.99 -1.36373 0.789944 0
M  V30 13057 C 1318.26 -1.9349 0.286543 0
M  V30 13058 C 1318.64 -1.7218 -1.22136 0
M  V30 13059 O 1317.99 -1.08106 -2.01309 0
M  V30 13060 C 1318.2 -3.42316 0.679749 0
M  V30 13061 C 1319.55 -4.19442 0.659791 0
M  V30 13062 O 1320.57 -3.50758 0.620256 0
M  V30 13063 O 1319.43 -5.41957 0.703159 0
M  V30 13064 H 1316.53 -0.823942 0.0710537 0
M  V30 13065 H 1319.07 -1.45551 0.872523 0
M  V30 13066 H 1317.85 -3.51485 1.7197 0
M  V30 13067 H 1317.47 -3.97542 0.0676823 0
M  V30 13068 N 1318.47 -0.542005 -1.47987 0
M  V30 13069 C 1319.4 0.202703 -2.32618 0
M  V30 13070 C 1320.38 0.923521 -1.42846 0
M  V30 13071 O 1321.56 0.906957 -1.7172 0
M  V30 13072 C 1318.69 1.24267 -3.24307 0
M  V30 13073 C 1317.65 0.639257 -4.23199 0
M  V30 13074 C 1316.97 1.78275 -5.04105 0
M  V30 13075 C 1318.27 -0.396982 -5.20789 0
M  V30 13076 H 1319.97 -0.503817 -2.95131 0
M  V30 13077 H 1317.51 -0.243736 -1.41922 0
M  V30 13078 H 1319.46 1.7717 -3.82347 0
M  V30 13079 H 1318.19 1.97893 -2.59819 0
M  V30 13080 H 1316.85 0.131655 -3.66364 0
M  V30 13081 H 1316.5 2.50768 -4.36032 0
M  V30 13082 H 1316.2 1.38487 -5.71047 0
M  V30 13083 H 1317.72 2.31533 -5.65 0
M  V30 13084 H 1319.13 0.0454057 -5.73282 0
M  V30 13085 H 1317.53 -0.712911 -5.9585 0
M  V30 13086 H 1318.6 -1.29843 -4.67193 0
M  V30 13087 N 1319.94 1.55134 -0.277709 0
M  V30 13088 C 1321.35 1.85405 0.219543 0
M  V30 13089 C 1321.71 1.19973 1.55245 0
M  V30 13090 O 1320.83 0.488986 2.10803 0
M  V30 13091 C 1321.43 3.36369 0.405127 0
M  V30 13092 C 1319.98 3.66755 0.846609 0
M  V30 13093 C 1319.13 2.77238 -0.0586063 0
M  V30 13094 H 1322.08 1.50637 -0.499422 0
M  V30 13095 H 1322.1 3.59615 1.24329 0
M  V30 13096 H 1321.62 3.83963 -0.565138 0
M  V30 13097 H 1319.72 3.24662 1.82825 0
M  V30 13098 H 1319.83 4.74219 0.682135 0
M  V30 13099 H 1318.19 2.50546 0.458153 0
M  V30 13100 H 1318.98 3.27647 -1.0248 0
M  V30 13101 N 1321.42 0.00503138 1.57599 0
M  V30 13102 C 1322.65 -0.689609 1.95069 0
M  V30 13103 C 1323.06 -1.67028 0.880183 0
M  V30 13104 O 1322.42 -1.81959 -0.140406 0
M  V30 13105 C 1322.47 -1.41709 3.32567 0
M  V30 13106 O 1322.19 -0.475746 4.35509 0
M  V30 13107 C 1323.69 -2.20578 3.84526 0
M  V30 13108 H 1320.91 -0.19175 0.643019 0
M  V30 13109 H 1323.46 0.057646 2.04419 0
M  V30 13110 H 1321.61 -2.11593 3.2451 0
M  V30 13111 H 1322.03 -0.989573 5.1508 0
M  V30 13112 H 1323.5 -2.66969 4.83148 0
M  V30 13113 H 1323.98 -3.03467 3.17497 0
M  V30 13114 H 1324.58 -1.557 3.95775 0
M  V30 13115 N 1322.9 -1.55308 -0.267798 0
M  V30 13116 C 1324.13 -1.79929 -1.01533 0
M  V30 13117 C 1324.54 -0.57545 -1.80237 0
M  V30 13118 O 1323.88 0.465072 -1.77715 0
M  V30 13119 C 1323.94 -2.97568 -2.01726 0
M  V30 13120 C 1323.61 -4.34407 -1.41912 0
M  V30 13121 C 1324.6 -5.13197 -0.832151 0
M  V30 13122 C 1322.29 -4.81074 -1.44476 0
M  V30 13123 C 1324.28 -6.3679 -0.278781 0
M  V30 13124 C 1321.97 -6.04621 -0.887535 0
M  V30 13125 C 1322.97 -6.82316 -0.305548 0
M  V30 13126 O 1322.66 -8.03532 0.243133 0
M  V30 13127 H 1322.39 -0.603082 -0.305398 0
M  V30 13128 H 1324.94 -2.03162 -0.302378 0
M  V30 13129 H 1323.17 -2.7004 -2.76795 0
M  V30 13130 H 1324.86 -3.09466 -2.62651 0
M  V30 13131 H 1325.63 -4.78273 -0.805 0
M  V30 13132 H 1321.51 -4.20604 -1.88714 0
M  V30 13133 H 1325.05 -6.97378 0.176117 0
M  V30 13134 H 1320.95 -6.39026 -0.911943 0
M  V30 13135 H 1321.71 -8.18392 0.132991 0
M  V30 13136 N 1324.38 0.532545 -1.4833 0
M  V30 13137 C 1325.34 1.61955 -1.62183 0
M  V30 13138 C 1326.34 1.52982 -0.495281 0
M  V30 13139 O 1327.53 1.56698 -0.761005 0
M  V30 13140 C 1324.66 3.0157 -1.58961 0
M  V30 13141 H 1325.86 1.51013 -2.59105 0
M  V30 13142 H 1323.41 0.754405 -1.36888 0
M  V30 13143 H 1324.14 3.18021 -0.635069 0
M  V30 13144 H 1323.93 3.09491 -2.40744 0
M  V30 13145 H 1325.42 3.80604 -1.71843 0
M  V30 13146 N 1325.86 1.36875 0.78122 0
M  V30 13147 C 1327.1 1.31559 1.53943 0
M  V30 13148 C 1327.43 -0.10273 1.94229 0
M  V30 13149 O 1326.69 -1.07386 1.63605 0
M  V30 13150 C 1326.98 2.19173 2.82309 0
M  V30 13151 C 1326.65 3.67595 2.61121 0
M  V30 13152 C 1325.31 4.08047 2.55051 0
M  V30 13153 C 1327.66 4.61665 2.41898 0
M  V30 13154 C 1324.99 5.40697 2.27736 0
M  V30 13155 C 1327.34 5.94542 2.16108 0
M  V30 13156 C 1326.01 6.34109 2.08476 0
M  V30 13157 H 1325.28 0.48141 0.563317 0
M  V30 13158 H 1327.93 1.68999 0.900638 0
M  V30 13159 H 1326.23 1.74696 3.50697 0
M  V30 13160 H 1327.93 2.12379 3.40141 0
M  V30 13161 H 1324.52 3.35509 2.66705 0
M  V30 13162 H 1328.7 4.3128 2.45584 0
M  V30 13163 H 1323.96 5.70325 2.20315 0
M  V30 13164 H 1328.13 6.66994 2.0023 0
M  V30 13165 H 1325.76 7.36823 1.87073 0
M  V30 13166 N 1327.33 -1.00632 1.21289 0
M  V30 13167 C 1328.27 -2.0954 0.928753 0
M  V30 13168 C 1329.28 -1.62565 -0.0875212 0
M  V30 13169 O 1330.47 -1.77912 0.144808 0
M  V30 13170 C 1327.57 -3.36844 0.37276 0
M  V30 13171 C 1326.74 -4.1291 1.44305 0
M  V30 13172 C 1325.8 -5.18506 0.896534 0
M  V30 13173 O 1324.83 -5.46841 1.57966 0
M  V30 13174 N 1326.03 -5.79781 -0.288888 0
M  V30 13175 H 1328.79 -2.34499 1.86629 0
M  V30 13176 H 1326.35 -1.17104 1.11796 0
M  V30 13177 H 1328.35 -4.04699 -0.00722737 0
M  V30 13178 H 1326.92 -3.09053 -0.469572 0
M  V30 13179 H 1326.14 -3.39876 1.99694 0
M  V30 13180 H 1327.42 -4.60508 2.16356 0
M  V30 13181 H 1326.82 -5.5911 -0.860951 0
M  V30 13182 H 1325.38 -6.48936 -0.6104 0
M  V30 13183 N 1328.81 -1.02043 -1.20104 0
M  V30 13184 C 1329.76 -0.564679 -2.20897 0
M  V30 13185 C 1330.75 0.382041 -1.56299 0
M  V30 13186 O 1331.94 0.204384 -1.75816 0
M  V30 13187 C 1329.07 0.0917516 -3.43177 0
M  V30 13188 C 1328.15 -0.876903 -4.14935 0
M  V30 13189 N 1328.54 -2.03596 -4.63014 0
M  V30 13190 C 1326.84 -0.698538 -4.40496 0
M  V30 13191 C 1327.54 -2.64621 -5.18026 0
M  V30 13192 N 1326.52 -1.92651 -5.08317 0
M  V30 13193 H 1330.32 -1.44825 -2.5574 0
M  V30 13194 H 1327.83 -0.88628 -1.36084 0
M  V30 13195 H 1329.83 0.43582 -4.14616 0
M  V30 13196 H 1328.49 0.971116 -3.09838 0
M  V30 13197 H 1329.5 -2.41573 -4.58108 0
M  V30 13198 H 1326.18 0.132449 -4.1729 0
M  V30 13199 H 1327.57 -3.62732 -5.65575 0
M  V30 13200 N 1330.29 1.35952 -0.797165 0
M  V30 13201 C 1331.71 1.52218 -0.479765 0
M  V30 13202 C 1331.91 1.74898 1.00064 0
M  V30 13203 O 1330.96 1.78495 1.78594 0
M  V30 13204 C 1332.28 2.70328 -1.31694 0
M  V30 13205 C 1333.82 2.84202 -1.31142 0
M  V30 13206 C 1334.3 4.05325 -2.13251 0
M  V30 13207 N 1335.79 4.12485 -2.10737 0
M  V30 13208 C 1336.52 5.053 -2.71033 0
M  V30 13209 N 1336.02 6.03509 -3.40219 0
M  V30 13210 N 1337.81 4.97975 -2.60725 0
M  V30 13211 H 1329.96 1.19486 -1.75604 0
M  V30 13212 H 1332.23 0.58383 -0.746892 0
M  V30 13213 H 1331.93 2.60116 -2.36712 0
M  V30 13214 H 1331.81 3.64684 -0.963607 0
M  V30 13215 H 1334.19 2.9387 -0.269131 0
M  V30 13216 H 1334.28 1.9073 -1.70457 0
M  V30 13217 H 1333.92 3.96417 -3.17515 0
M  V30 13218 H 1333.85 4.97959 -1.71302 0
M  V30 13219 H 1336.34 3.42174 -1.6039 0
M  V30 13220 H 1336.65 6.70909 -3.83537 0
M  V30 13221 H 1335 6.03711 -3.44322 0
M  V30 13222 H 1338.19 4.20203 -2.0627 0
M  V30 13223 H 1338.36 5.70119 -3.08007 0
M  V30 13224 N 1331.77 0.549846 1.47697 0
M  V30 13225 C 1332.99 0.0256819 2.07384 0
M  V30 13226 C 1333.42 -1.25525 1.4009 0
M  V30 13227 O 1332.78 -1.7501 0.473406 0
M  V30 13228 C 1332.82 -0.160835 3.60241 0
M  V30 13229 O 1331.93 -1.22509 3.93783 0
M  V30 13230 H 1331.27 0.0480204 0.662261 0
M  V30 13231 H 1333.8 0.763429 1.89823 0
M  V30 13232 H 1333.81 -0.377337 4.06251 0
M  V30 13233 H 1332.48 0.774774 4.0862 0
M  V30 13234 H 1331.06 -0.98967 3.59527 0
M  V30 13235 N 1333.25 -1.54984 0.285932 0
M  V30 13236 C 1334.48 -2.03943 -0.330295 0
M  V30 13237 C 1334.88 -1.16336 -1.49207 0
M  V30 13238 O 1334.23 -0.178341 -1.82832 0
M  V30 13239 C 1334.29 -3.48976 -0.863479 0
M  V30 13240 C 1333.95 -4.5668 0.171058 0
M  V30 13241 C 1334.95 -5.10303 0.994329 0
M  V30 13242 C 1332.64 -5.01352 0.308416 0
M  V30 13243 C 1334.63 -6.07126 1.94104 0
M  V30 13244 C 1332.32 -5.97999 1.25859 0
M  V30 13245 C 1333.31 -6.50768 2.0734 0
M  V30 13246 O 1333 -7.45524 3.00749 0
M  V30 13247 H 1332.73 -0.671491 -0.0779452 0
M  V30 13248 H 1335.29 -2.01081 0.419011 0
M  V30 13249 H 1333.52 -3.49113 -1.66305 0
M  V30 13250 H 1335.21 -3.81213 -1.39396 0
M  V30 13251 H 1335.97 -4.76595 0.899002 0
M  V30 13252 H 1331.85 -4.59917 -0.315817 0
M  V30 13253 H 1335.4 -6.48239 2.57743 0
M  V30 13254 H 1331.29 -6.31125 1.35469 0
M  V30 13255 H 1332.06 -7.63276 2.95554 0
M  V30 13256 N 1334.72 -0.0133892 -1.57594 0
M  V30 13257 C 1335.97 0.66392 -1.92259 0
M  V30 13258 C 1336.33 1.70632 -0.888962 0
M  V30 13259 O 1335.62 1.91354 0.0971147 0
M  V30 13260 C 1335.81 1.33729 -3.31438 0
M  V30 13261 C 1335.64 0.361637 -4.48244 0
M  V30 13262 C 1334.41 -0.0328229 -5.05289 0
M  V30 13263 C 1336.61 -0.377649 -5.12912 0
M  V30 13264 N 1334.59 -1.00529 -6.05613 0
M  V30 13265 C 1335.96 -1.20437 -6.0819 0
M  V30 13266 C 1338.02 -0.440046 -4.95952 0
M  V30 13267 C 1336.72 -2.08782 -6.88333 0
M  V30 13268 C 1338.75 -1.31078 -5.76691 0
M  V30 13269 C 1338.11 -2.12531 -6.71573 0
M  V30 13270 H 1334.21 0.215737 -0.751652 0
M  V30 13271 H 1336.79 -0.0768783 -1.94548 0
M  V30 13272 H 1334.96 2.04831 -3.29998 0
M  V30 13273 H 1336.69 1.97037 -3.53495 0
M  V30 13274 H 1333.45 0.338356 -4.7239 0
M  V30 13275 H 1333.87 -1.4873 -6.60461 0
M  V30 13276 H 1338.52 0.175429 -4.22436 0
M  V30 13277 H 1336.23 -2.71391 -7.61165 0
M  V30 13278 H 1339.82 -1.36314 -5.65606 0
M  V30 13279 H 1338.7 -2.78817 -7.3296 0
M  V30 13280 N 1336.2 1.55448 0.259558 0
M  V30 13281 C 1337.45 1.7589 0.987201 0
M  V30 13282 C 1337.76 0.574951 1.86959 0
M  V30 13283 O 1338.97 0.662091 2.63303 0
M  V30 13284 C 1337.43 3.11349 1.80526 0
M  V30 13285 C 1337.03 4.37353 0.970882 0
M  V30 13286 C 1338.78 3.41136 2.5264 0
M  V30 13287 C 1336.69 5.63847 1.7841 0
M  V30 13288 H 1335.62 0.655662 0.372321 0
M  V30 13289 H 1338.27 1.81893 0.242332 0
M  V30 13290 H 1336.65 2.9942 2.5916 0
M  V30 13291 H 1337.82 4.60237 0.227763 0
M  V30 13292 H 1336.14 4.14809 0.363669 0
M  V30 13293 H 1338.73 4.32855 3.13912 0
M  V30 13294 H 1339.08 2.61879 3.23612 0
M  V30 13295 H 1339.61 3.54224 1.81026 0
M  V30 13296 H 1336.35 6.4589 1.11834 0
M  V30 13297 H 1335.87 5.45086 2.50283 0
M  V30 13298 H 1337.55 6.02641 2.35441 0
M  V30 13299 N 1337.68 -0.524672 1.4861 0
M  V30 13300 C 1338.91 -1.30958 1.60825 0
M  V30 13301 C 1339.33 -1.86142 0.270682 0
M  V30 13302 O 1338.69 -1.64675 -0.758415 0
M  V30 13303 C 1338.74 -2.43252 2.66197 0
M  V30 13304 O 1337.84 -3.4644 2.23725 0
M  V30 13305 H 1337.18 -0.387638 0.539104 0
M  V30 13306 H 1339.71 -0.630755 1.94635 0
M  V30 13307 H 1339.72 -2.89362 2.87635 0
M  V30 13308 H 1338.4 -2.02449 3.63301 0
M  V30 13309 H 1336.97 -3.06413 2.12522 0
M  V30 13310 N 1339.16 -1.37287 -0.77395 0
M  V30 13311 C 1340.57 -1.28954 -1.3501 0
M  V30 13312 C 1340.92 0.0638301 -1.96096 0
M  V30 13313 O 1340.05 0.965624 -1.93661 0
M  V30 13314 C 1340.64 -2.3352 -2.45467 0
M  V30 13315 C 1339.2 -2.28828 -2.98856 0
M  V30 13316 C 1338.35 -2.17468 -1.72055 0
M  V30 13317 H 1341.3 -1.47941 -0.57438 0
M  V30 13318 H 1341.32 -1.98058 -3.24889 0
M  V30 13319 H 1340.83 -3.32009 -2.00977 0
M  V30 13320 H 1338.93 -1.33855 -3.47726 0
M  V30 13321 H 1339.04 -3.22152 -3.54619 0
M  V30 13322 H 1337.41 -1.63977 -1.94894 0
M  V30 13323 H 1338.19 -3.17868 -1.29672 0
M  V30 13324 N 1340.64 0.999871 -1.21821 0
M  V30 13325 C 1341.6 2.07024 -0.983541 0
M  V30 13326 C 1342.6 1.6073 0.0474011 0
M  V30 13327 O 1343.79 1.73156 -0.190398 0
M  V30 13328 C 1340.92 3.37444 -0.484199 0
M  V30 13329 H 1342.11 2.29276 -1.9332 0
M  V30 13330 H 1339.67 1.1704 -1.03592 0
M  V30 13331 H 1340.4 3.20874 0.470138 0
M  V30 13332 H 1340.19 3.72378 -1.2279 0
M  V30 13333 H 1341.68 4.16213 -0.34004 0
M  V30 13334 N 1342.11 1.02678 1.19562 0
M  V30 13335 C 1343.36 0.72059 1.88817 0
M  V30 13336 C 1343.68 -0.752942 1.79877 0
M  V30 13337 O 1342.95 -1.54233 1.20785 0
M  V30 13338 H 1341.53 0.26355 0.698964 0
M  V30 13339 H 1344.2 1.30056 1.4516 0
M  V30 13340 H 1343.29 1.01303 2.95202 0
M  V30 13341 N 1343.59 -1.35528 0.804364 0
M  V30 13342 C 1345 -1.81321 0.444933 0
M  V30 13343 C 1345.35 -1.66816 -1.03281 0
M  V30 13344 O 1344.48 -1.19753 -1.80245 0
M  V30 13345 C 1345.07 -3.29199 0.800827 0
M  V30 13346 C 1343.63 -3.73144 0.494026 0
M  V30 13347 C 1342.78 -2.57557 1.02761 0
M  V30 13348 H 1345.73 -1.23537 0.996203 0
M  V30 13349 H 1345.75 -3.80375 0.0975117 0
M  V30 13350 H 1345.26 -3.39725 1.8764 0
M  V30 13351 H 1343.37 -3.68169 -0.572901 0
M  V30 13352 H 1343.48 -4.68005 1.0251 0
M  V30 13353 H 1341.84 -2.50692 0.450048 0
M  V30 13354 H 1342.63 -2.70861 2.10925 0
M  V30 13355 N 1345.07 -0.557671 -1.47404 0
M  V30 13356 C 1346.32 -0.0337216 -2.02072 0
M  V30 13357 C 1346.64 1.32106 -1.43433 0
M  V30 13358 O 1345.91 1.86171 -0.609692 0
M  V30 13359 H 1344.49 -0.00947648 -0.74694 0
M  V30 13360 H 1347.15 -0.727784 -1.80802 0
M  V30 13361 H 1346.25 0.0540331 -3.12053 0
M  V30 13362 N 1346.55 1.54831 -0.294147 0
M  V30 13363 C 1347.46 2.26939 0.594621 0
M  V30 13364 C 1348.48 1.30209 1.15419 0
M  V30 13365 O 1349.65 1.6318 1.18044 0
M  V30 13366 C 1346.72 2.9909 1.75345 0
M  V30 13367 C 1345.78 4.11342 1.22865 0
M  V30 13368 C 1345.01 4.80043 2.33225 0
M  V30 13369 O 1345.23 4.48062 3.52983 0
M  V30 13370 O 1344.17 5.67593 2.00304 0
M  V30 13371 H 1347.99 3.03698 0.00989235 0
M  V30 13372 H 1345.58 1.49276 -0.0608528 0
M  V30 13373 H 1347.46 3.44369 2.42875 0
M  V30 13374 H 1346.14 2.25232 2.32492 0
M  V30 13375 H 1345.04 3.70478 0.519279 0
M  V30 13376 H 1346.38 4.87158 0.702703 0
M  V30 13377 N 1348.03 0.0217466 1.57585 0
M  V30 13378 C 1348.99 -0.947546 2.08696 0
M  V30 13379 C 1349.99 -1.25879 1.00055 0
M  V30 13380 O 1351.18 -1.20035 1.26242 0
M  V30 13381 C 1348.31 -2.26624 2.54665 0
M  V30 13382 H 1349.51 -0.505016 2.95617 0
M  V30 13383 H 1347.06 -0.226152 1.54655 0
M  V30 13384 H 1347.79 -2.75521 1.71052 0
M  V30 13385 H 1347.58 -2.05347 3.34028 0
M  V30 13386 H 1349.07 -2.96114 2.94459 0
M  V30 13387 N 1349.51 -1.55583 -0.251311 0
M  V30 13388 C 1350.92 -1.67693 -0.820719 0
M  V30 13389 C 1351.27 -0.618393 -1.862 0
M  V30 13390 O 1350.39 0.236158 -2.15108 0
M  V30 13391 C 1350.99 -3.04011 -1.49542 0
M  V30 13392 C 1349.55 -3.18075 -2.01259 0
M  V30 13393 C 1348.69 -2.63557 -0.862138 0
M  V30 13394 H 1351.64 -1.58677 -0.0272072 0
M  V30 13395 H 1351.67 -2.9821 -2.36328 0
M  V30 13396 H 1351.18 -3.81032 -0.737323 0
M  V30 13397 H 1349.28 -2.45869 -2.79963 0
M  V30 13398 H 1349.39 -4.24927 -2.213 0
M  V30 13399 H 1347.76 -2.21268 -1.26145 0
M  V30 13400 H 1348.54 -3.431 -0.117196 0
M  V30 13401 N 1350.98 0.516783 -1.48886 0
M  V30 13402 C 1351.95 1.60226 -1.63891 0
M  V30 13403 C 1352.95 1.52448 -0.511479 0
M  V30 13404 O 1354.14 1.55882 -0.777582 0
M  V30 13405 C 1351.27 2.99867 -1.62151 0
M  V30 13406 H 1352.46 1.48256 -2.60692 0
M  V30 13407 H 1350.01 0.739844 -1.37681 0
M  V30 13408 H 1350.75 3.1733 -0.668764 0
M  V30 13409 H 1350.53 3.0692 -2.44013 0
M  V30 13410 H 1352.02 3.7876 -1.7587 0
M  V30 13411 N 1352.46 1.37696 0.766659 0
M  V30 13412 C 1353.41 1.30383 1.87041 0
M  V30 13413 C 1354.4 0.190643 1.59767 0
M  V30 13414 O 1355.59 0.425485 1.7181 0
M  V30 13415 C 1352.72 1.11817 3.2458 0
M  V30 13416 C 1351.8 2.27701 3.57789 0
M  V30 13417 N 1352.19 3.53108 3.62144 0
M  V30 13418 C 1350.49 2.19967 3.87983 0
M  V30 13419 C 1351.19 4.29555 3.92247 0
M  V30 13420 N 1350.17 3.58754 4.08408 0
M  V30 13421 H 1353.97 2.25348 1.88668 0
M  V30 13422 H 1351.48 1.30741 0.963362 0
M  V30 13423 H 1353.48 1.04663 4.03548 0
M  V30 13424 H 1352.14 0.177731 3.24213 0
M  V30 13425 H 1353.15 3.86949 3.44225 0
M  V30 13426 H 1349.83 1.34009 3.95408 0
M  V30 13427 H 1351.22 5.38112 4.0235 0
M  V30 13428 N 1353.94 -0.993397 1.22349 0
M  V30 13429 C 1355.17 -1.76838 1.07406 0
M  V30 13430 C 1355.58 -1.8503 -0.37542 0
M  V30 13431 O 1354.94 -1.32008 -1.26016 0
M  V30 13432 C 1354.99 -3.20177 1.67837 0
M  V30 13433 O 1354.71 -3.12429 3.07115 0
M  V30 13434 C 1356.21 -4.14125 1.58161 0
M  V30 13435 H 1353.43 -0.555379 0.376557 0
M  V30 13436 H 1355.98 -1.24893 1.61932 0
M  V30 13437 H 1354.13 -3.69191 1.17375 0
M  V30 13438 H 1354.55 -4.02568 3.36213 0
M  V30 13439 H 1356.02 -5.12455 2.05169 0
M  V30 13440 H 1356.5 -4.35892 0.538073 0
M  V30 13441 H 1357.1 -3.71008 2.07926 0
M  V30 13442 N 1355.42 -1.03311 -1.19015 0
M  V30 13443 C 1356.38 -0.622114 -2.20596 0
M  V30 13444 C 1357.38 0.316502 -1.57654 0
M  V30 13445 O 1358.57 0.102932 -1.73896 0
M  V30 13446 C 1355.7 0.0890432 -3.40784 0
M  V30 13447 H 1356.9 -1.52095 -2.58471 0
M  V30 13448 H 1354.45 -0.824777 -1.32767 0
M  V30 13449 H 1355.18 1.00203 -3.08431 0
M  V30 13450 H 1354.97 -0.58547 -3.87704 0
M  V30 13451 H 1356.46 0.363366 -4.16016 0
M  V30 13452 N 1356.9 1.35099 -0.81154 0
M  V30 13453 C 1358.12 2.03391 -0.405805 0
M  V30 13454 C 1358.55 1.60745 0.97686 0
M  V30 13455 O 1357.9 0.786518 1.63351 0
M  V30 13456 C 1357.95 3.57075 -0.502954 0
M  V30 13457 O 1357.06 4.09577 0.481681 0
M  V30 13458 H 1356.4 0.642203 -0.168733 0
M  V30 13459 H 1358.93 1.72591 -1.0988 0
M  V30 13460 H 1358.94 4.06277 -0.37456 0
M  V30 13461 H 1357.61 3.87463 -1.51145 0
M  V30 13462 H 1356.19 3.71583 0.313115 0
M  V30 13463 N 1358.37 0.56548 1.47106 0
M  V30 13464 C 1359.62 0.0444375 2.02051 0
M  V30 13465 C 1359.94 -1.31344 1.44131 0
M  V30 13466 O 1359.21 -1.85845 0.619556 0
M  V30 13467 H 1357.79 0.0134375 0.746879 0
M  V30 13468 H 1360.45 0.737362 1.80413 0
M  V30 13469 H 1359.55 -0.0374834 3.12077 0
M  V30 13470 N 1359.85 -1.54672 0.302354 0
M  V30 13471 C 1361.27 -1.59519 -0.0509899 0
M  V30 13472 C 1361.47 -1.31931 -1.52304 0
M  V30 13473 O 1360.52 -1.09338 -2.27599 0
M  V30 13474 C 1361.84 -2.98678 0.348168 0
M  V30 13475 C 1363.39 -3.11587 0.297046 0
M  V30 13476 C 1363.86 -4.53057 0.671046 0
M  V30 13477 N 1365.35 -4.58983 0.623633 0
M  V30 13478 C 1366.09 -5.66522 0.885476 0
M  V30 13479 N 1365.58 -6.82092 1.21336 0
M  V30 13480 N 1367.38 -5.56198 0.812448 0
M  V30 13481 H 1359.53 -1.70865 1.2617 0
M  V30 13482 H 1361.79 -0.798099 0.511608 0
M  V30 13483 H 1361.5 -3.23794 1.37297 0
M  V30 13484 H 1361.37 -3.76025 -0.297505 0
M  V30 13485 H 1363.76 -2.86219 -0.718515 0
M  V30 13486 H 1363.84 -2.36392 0.977361 0
M  V30 13487 H 1363.48 -4.79155 1.68442 0
M  V30 13488 H 1363.41 -5.26591 -0.0313537 0
M  V30 13489 H 1365.9 -3.75972 0.381203 0
M  V30 13490 H 1366.22 -7.6003 1.39909 0
M  V30 13491 H 1364.56 -6.83641 1.25141 0
M  V30 13492 H 1367.75 -4.64787 0.555939 0
M  V30 13493 H 1367.92 -6.39924 1.01988 0
M  V30 13494 N 1361.33 -0.0301034 -1.57571 0
M  V30 13495 C 1362.24 0.967086 -2.1374 0
M  V30 13496 C 1363.26 1.35636 -1.0899 0
M  V30 13497 O 1364.43 1.43758 -1.41052 0
M  V30 13498 C 1361.5 2.23058 -2.65417 0
M  V30 13499 C 1360.56 1.90163 -3.84885 0
M  V30 13500 C 1359.79 3.10488 -4.34088 0
M  V30 13501 O 1360.01 4.23179 -3.8246 0
M  V30 13502 O 1358.95 2.92729 -5.25921 0
M  V30 13503 H 1362.77 0.519486 -2.99224 0
M  V30 13504 H 1360.36 0.190559 -1.4818 0
M  V30 13505 H 1362.24 2.97229 -2.98719 0
M  V30 13506 H 1360.92 2.66997 -1.83015 0
M  V30 13507 H 1359.82 1.13373 -3.56507 0
M  V30 13508 H 1361.16 1.51039 -4.68453 0
M  V30 13509 N 1362.81 1.55714 0.243056 0
M  V30 13510 C 1363.77 1.89832 1.28438 0
M  V30 13511 C 1364.77 0.775083 1.40887 0
M  V30 13512 O 1365.96 1.04304 1.39521 0
M  V30 13513 C 1363.09 2.13016 2.66153 0
M  V30 13514 H 1364.29 2.82947 0.994022 0
M  V30 13515 H 1361.84 1.48665 0.482521 0
M  V30 13516 H 1362.57 1.22381 3.00322 0
M  V30 13517 H 1362.36 2.94824 2.58498 0
M  V30 13518 H 1363.85 2.40581 3.41336 0
M  V30 13519 N 1364.29 -0.50888 1.49158 0
M  V30 13520 C 1365.53 -1.26537 1.58481 0
M  V30 13521 C 1365.87 -1.92353 0.267168 0
M  V30 13522 O 1365.14 -1.80336 -0.728639 0
M  V30 13523 C 1365.42 -2.33846 2.73839 0
M  V30 13524 C 1365.28 -1.72582 4.15374 0
M  V30 13525 C 1366.6 -3.35467 2.84868 0
M  V30 13526 H 1363.71 -0.458697 0.576859 0
M  V30 13527 H 1366.36 -0.564728 1.81413 0
M  V30 13528 H 1364.51 -2.93605 2.54417 0
M  V30 13529 H 1366.18 -1.16711 4.46292 0
M  V30 13530 H 1364.42 -1.03025 4.21389 0
M  V30 13531 H 1365.09 -2.5038 4.91949 0
M  V30 13532 H 1367.57 -2.85689 3.02524 0
M  V30 13533 H 1366.44 -4.07922 3.67275 0
M  V30 13534 H 1366.71 -3.97313 1.93894 0
M  V30 13535 N 1365.76 -1.381 -0.759346 0
M  V30 13536 C 1366.73 -1.34674 -1.8546 0
M  V30 13537 C 1367.73 -0.248351 -1.58871 0
M  V30 13538 O 1368.92 -0.504915 -1.66722 0
M  V30 13539 C 1366.05 -1.0952 -3.22828 0
M  V30 13540 H 1367.24 -2.3211 -1.89908 0
M  V30 13541 H 1364.8 -1.2331 -0.960435 0
M  V30 13542 H 1365.53 -0.126664 -3.24053 0
M  V30 13543 H 1365.32 -1.89037 -3.43522 0
M  V30 13544 H 1366.81 -1.09804 -4.02906 0
M  V30 13545 N 1367.24 0.986894 -1.22875 0
M  V30 13546 C 1368.15 2.11232 -1.02069 0
M  V30 13547 C 1369.17 1.73969 0.0328424 0
M  V30 13548 O 1370.34 2.00754 -0.161197 0
M  V30 13549 C 1367.41 3.41337 -0.60747 0
M  V30 13550 C 1366.47 3.92665 -1.73531 0
M  V30 13551 C 1365.7 5.1656 -1.34171 0
M  V30 13552 O 1365.93 5.69964 -0.223106 0
M  V30 13553 O 1364.86 5.61791 -2.16041 0
M  V30 13554 H 1368.69 2.3167 -1.96374 0
M  V30 13555 H 1366.27 1.09607 -1.01522 0
M  V30 13556 H 1368.15 4.19613 -0.387661 0
M  V30 13557 H 1366.83 3.22244 0.306653 0
M  V30 13558 H 1365.74 3.15534 -2.0097 0
M  V30 13559 H 1367.07 4.162 -2.62751 0
M  V30 13560 N 1368.72 1.0394 1.18466 0
M  V30 13561 C 1369.95 0.762014 1.92356 0
M  V30 13562 C 1370.36 -0.680652 1.76104 0
M  V30 13563 O 1369.72 -1.46385 1.08985 0
M  V30 13564 C 1369.77 1.11717 3.43805 0
M  V30 13565 O 1369.49 2.50319 3.59544 0
M  V30 13566 C 1370.99 0.864099 4.34797 0
M  V30 13567 H 1368.21 0.277999 0.610702 0
M  V30 13568 H 1370.76 1.38672 1.503 0
M  V30 13569 H 1368.91 0.537445 3.83654 0
M  V30 13570 H 1369.33 2.63875 4.53288 0
M  V30 13571 H 1370.8 1.16247 5.39621 0
M  V30 13572 H 1371.28 -0.20117 4.38739 0
M  V30 13573 H 1371.88 1.42706 4.00643 0
M  V30 13574 N 1370.2 -1.34667 0.818693 0
M  V30 13575 C 1371.45 -1.98022 0.40396 0
M  V30 13576 C 1371.77 -1.65239 -1.03542 0
M  V30 13577 O 1371.04 -0.94097 -1.71821 0
M  V30 13578 H 1369.62 -0.732517 0.146382 0
M  V30 13579 H 1372.28 -1.64377 1.0472 0
M  V30 13580 H 1371.38 -3.07746 0.519516 0
M  V30 13581 N 1371.68 -0.573274 -1.46804 0
M  V30 13582 C 1372.61 0.153316 -2.32996 0
M  V30 13583 C 1373.59 0.893013 -1.44773 0
M  V30 13584 O 1374.77 0.870329 -1.73606 0
M  V30 13585 C 1371.9 1.1736 -3.2687 0
M  V30 13586 C 1370.86 0.549347 -4.2446 0
M  V30 13587 C 1370.18 1.67542 -5.07773 0
M  V30 13588 C 1371.48 -0.50736 -5.1983 0
M  V30 13589 H 1373.18 -0.566305 -2.93995 0
M  V30 13590 H 1370.72 -0.273785 -1.41373 0
M  V30 13591 H 1372.68 1.6902 -3.86019 0
M  V30 13592 H 1371.4 1.92337 -2.63958 0
M  V30 13593 H 1370.06 0.0539142 -3.6656 0
M  V30 13594 H 1369.71 2.41463 -4.41253 0
M  V30 13595 H 1369.41 1.26343 -5.73856 0
M  V30 13596 H 1370.93 2.19496 -5.69784 0
M  V30 13597 H 1372.34 -0.0762061 -5.73249 0
M  V30 13598 H 1370.74 -0.839139 -5.94204 0
M  V30 13599 H 1371.81 -1.39723 -4.64333 0
M  V30 13600 N 1373.15 1.5451 -0.310553 0
M  V30 13601 C 1374.12 2.2254 0.548489 0
M  V30 13602 C 1375.12 1.21456 1.05381 0
M  V30 13603 O 1376.31 1.46126 0.948311 0
M  V30 13604 C 1373.44 2.91927 1.76043 0
M  V30 13605 H 1374.63 2.99865 -0.0460306 0
M  V30 13606 H 1372.19 1.56179 -0.061487 0
M  V30 13607 H 1372.92 2.18706 2.39454 0
M  V30 13608 H 1372.71 3.66038 1.40564 0
M  V30 13609 H 1374.2 3.43797 2.37051 0
M  V30 13610 N 1374.63 0.0384594 1.57553 0
M  V30 13611 C 1375.88 -0.633249 1.93291 0
M  V30 13612 C 1376.23 -1.69196 0.915995 0
M  V30 13613 O 1375.53 -1.91484 -0.0666597 0
M  V30 13614 C 1375.72 -1.28439 3.33524 0
M  V30 13615 C 1375.55 -0.290279 4.48762 0
M  V30 13616 C 1374.32 0.113206 5.05173 0
M  V30 13617 C 1376.52 0.459201 5.12246 0
M  V30 13618 N 1374.5 1.10151 6.03937 0
M  V30 13619 C 1375.87 1.30097 6.06197 0
M  V30 13620 C 1377.93 0.518891 4.95189 0
M  V30 13621 C 1376.63 2.19706 6.84924 0
M  V30 13622 C 1378.66 1.40236 5.74533 0
M  V30 13623 C 1378.02 2.23189 6.68106 0
M  V30 13624 H 1374.12 -0.203752 0.754989 0
M  V30 13625 H 1376.7 0.107819 1.94401 0
M  V30 13626 H 1374.87 -1.99555 3.33215 0
M  V30 13627 H 1376.6 -1.91388 3.56585 0
M  V30 13628 H 1373.36 -0.26316 4.72868 0
M  V30 13629 H 1373.78 1.59218 6.58011 0
M  V30 13630 H 1378.42 -0.108201 4.22662 0
M  V30 13631 H 1376.14 2.83467 7.56751 0
M  V30 13632 H 1379.73 1.45295 5.63365 0
M  V30 13633 H 1378.61 2.90443 7.28432 0
M  V30 13634 N 1376.11 -1.55841 -0.234795 0
M  V30 13635 C 1377.36 -1.77886 -0.959217 0
M  V30 13636 C 1377.68 -0.604621 -1.8539 0
M  V30 13637 O 1376.95 0.379092 -1.92197 0
M  V30 13638 H 1375.53 -0.656077 -0.357172 0
M  V30 13639 H 1378.19 -1.93292 -0.249831 0
M  V30 13640 H 1377.29 -2.69512 -1.57383 0
M  V30 13641 N 1377.59 0.500963 -1.49426 0
M  V30 13642 C 1379 1.08248 -1.52116 0
M  V30 13643 C 1379.35 1.93777 -0.30738 0
M  V30 13644 O 1378.48 2.08404 0.582805 0
M  V30 13645 C 1379.07 1.96988 -2.75647 0
M  V30 13646 C 1377.63 2.50303 -2.81115 0
M  V30 13647 C 1376.78 1.27924 -2.4603 0
M  V30 13648 H 1379.73 0.284872 -1.56122 0
M  V30 13649 H 1379.75 2.81675 -2.55811 0
M  V30 13650 H 1379.26 1.34711 -3.6397 0
M  V30 13651 H 1377.36 3.16218 -1.97072 0
M  V30 13652 H 1377.48 2.87453 -3.83286 0
M  V30 13653 H 1375.84 1.60447 -1.9781 0
M  V30 13654 H 1376.62 0.673557 -3.36628 0
M  V30 13655 N 1379.07 1.38501 0.752011 0
M  V30 13656 C 1380.32 1.34529 1.50819 0
M  V30 13657 C 1380.64 -0.0636155 1.94896 0
M  V30 13658 O 1379.91 -1.01161 1.6776 0
M  V30 13659 H 1378.49 0.49501 0.559441 0
M  V30 13660 H 1381.15 1.73196 0.893822 0
M  V30 13661 H 1380.24 1.99713 2.39835 0
M  V30 13662 N 1380.55 -0.980364 1.23396 0
M  V30 13663 C 1381.51 -2.05433 1.01635 0
M  V30 13664 C 1382.51 -1.60785 -0.0218244 0
M  V30 13665 O 1383.7 -1.72832 0.217922 0
M  V30 13666 C 1380.83 -3.36631 0.537822 0
M  V30 13667 H 1382.02 -2.26172 1.96943 0
M  V30 13668 H 1379.58 -1.15378 1.05441 0
M  V30 13669 H 1380.31 -3.21581 -0.41903 0
M  V30 13670 H 1380.1 -3.70377 1.28698 0
M  V30 13671 H 1381.59 -4.1562 0.406213 0
M  V30 13672 N 1382.02 -1.04567 -1.17913 0
M  V30 13673 C 1382.93 -0.651674 -2.25367 0
M  V30 13674 C 1383.95 0.32437 -1.7095 0
M  V30 13675 O 1385.13 0.178039 -2.00612 0
M  V30 13676 C 1382.19 -0.0259452 -3.4669 0
M  V30 13677 C 1381.25 -1.05163 -4.1622 0
M  V30 13678 C 1380.48 -0.45567 -5.31751 0
M  V30 13679 O 1380.71 0.736698 -5.65623 0
M  V30 13680 O 1379.64 -1.18684 -5.90083 0
M  V30 13681 H 1383.47 -1.54704 -2.61344 0
M  V30 13682 H 1381.05 -0.816852 -1.25092 0
M  V30 13683 H 1382.93 0.322126 -4.20167 0
M  V30 13684 H 1381.61 0.843165 -3.12526 0
M  V30 13685 H 1380.52 -1.45159 -3.44789 0
M  V30 13686 H 1381.85 -1.89168 -4.54397 0
M  V30 13687 N 1383.5 1.34231 -0.825823 0
M  V30 13688 C 1384.78 1.92662 -0.337743 0
M  V30 13689 C 1385.16 1.75358 1.17529 0
M  V30 13690 O 1384.51 1.13405 1.98372 0
M  V30 13691 C 1384.72 3.40394 -0.770269 0
M  V30 13692 C 1386.06 4.17546 -0.770767 0
M  V30 13693 O 1387.09 3.4899 -0.713035 0
M  V30 13694 O 1385.95 5.39903 -0.846602 0
M  V30 13695 H 1383.04 0.821768 -0.0928741 0
M  V30 13696 H 1385.59 1.43187 -0.910807 0
M  V30 13697 H 1384.36 3.46802 -1.81228 0
M  V30 13698 H 1383.98 3.97223 -0.17306 0
M  V30 13699 N 1384.98 0.581051 1.46498 0
M  V30 13700 C 1385.91 -0.140957 2.33074 0
M  V30 13701 C 1386.89 -0.885323 1.45245 0
M  V30 13702 O 1388.08 -0.86111 1.74065 0
M  V30 13703 C 1385.21 -1.15625 3.27488 0
M  V30 13704 C 1384.16 -0.526829 4.24745 0
M  V30 13705 C 1383.49 -1.64847 5.08655 0
M  V30 13706 C 1384.79 0.53492 5.19554 0
M  V30 13707 H 1386.48 0.581888 2.93691 0
M  V30 13708 H 1384.03 0.281278 1.41226 0
M  V30 13709 H 1385.98 -1.6697 3.8691 0
M  V30 13710 H 1384.7 -1.90935 2.64974 0
M  V30 13711 H 1383.36 -0.0344738 3.66584 0
M  V30 13712 H 1383.01 -2.3912 4.42528 0
M  V30 13713 H 1382.71 -1.23298 5.74518 0
M  V30 13714 H 1384.23 -2.16472 5.7094 0
M  V30 13715 H 1385.65 0.106606 5.73201 0
M  V30 13716 H 1384.04 0.870639 5.93751 0
M  V30 13717 H 1385.11 1.42184 4.63586 0
M  V30 13718 N 1386.46 -1.54343 0.318742 0
M  V30 13719 C 1387.73 -1.92635 -0.339299 0
M  V30 13720 C 1388.11 -1.24786 -1.7027 0
M  V30 13721 O 1387.46 -0.389844 -2.2515 0
M  V30 13722 C 1387.67 -3.46262 -0.436318 0
M  V30 13723 C 1389.02 -4.18809 -0.698871 0
M  V30 13724 O 1390.04 -3.52392 -0.519431 0
M  V30 13725 O 1388.9 -5.36422 -1.04471 0
M  V30 13726 H 1386 -0.804202 -0.192841 0
M  V30 13727 H 1388.54 -1.6566 0.368104 0
M  V30 13728 H 1387.32 -3.8781 0.521427 0
M  V30 13729 H 1386.94 -3.79327 -1.19149 0
M  V30 13730 N 1387.94 -0.0468143 -1.5753 0
M  V30 13731 C 1388.85 0.944362 -2.14753 0
M  V30 13732 C 1389.86 1.34473 -1.10422 0
M  V30 13733 O 1391.04 1.42254 -1.42569 0
M  V30 13734 C 1388.1 2.2023 -2.67768 0
M  V30 13735 C 1387.16 1.8607 -3.8688 0
M  V30 13736 C 1386.4 3.05867 -4.37357 0
M  V30 13737 O 1386.62 4.19099 -3.86927 0
M  V30 13738 O 1385.55 2.87134 -5.28997 0
M  V30 13739 H 1389.38 0.48772 -2.99758 0
M  V30 13740 H 1386.96 0.174831 -1.48374 0
M  V30 13741 H 1388.85 2.94044 -3.01855 0
M  V30 13742 H 1387.52 2.65041 -1.85836 0
M  V30 13743 H 1386.43 1.09586 -3.5769 0
M  V30 13744 H 1387.76 1.46062 -4.70028 0
M  V30 13745 N 1389.41 1.55964 0.226527 0
M  V30 13746 C 1390.32 1.95169 1.30178 0
M  V30 13747 C 1391.34 0.854831 1.51554 0
M  V30 13748 O 1392.52 1.15798 1.64781 0
M  V30 13749 C 1389.58 2.25612 2.63249 0
M  V30 13750 C 1388.64 3.4884 2.50219 0
M  V30 13751 C 1387.88 3.77822 3.76944 0
M  V30 13752 O 1388.1 3.08556 4.79739 0
M  V30 13753 O 1387.03 4.7132 3.74354 0
M  V30 13754 H 1390.86 2.86794 0.999145 0
M  V30 13755 H 1388.44 1.43109 0.42898 0
M  V30 13756 H 1390.33 2.4641 3.41848 0
M  V30 13757 H 1389 1.37162 2.93203 0
M  V30 13758 H 1387.91 3.33326 1.69836 0
M  V30 13759 H 1389.24 4.37657 2.25205 0
M  V30 13760 N 1390.89 -0.493031 1.4969 0
M  V30 13761 C 1392.14 -1.24418 1.59263 0
M  V30 13762 C 1392.46 -1.92908 0.284882 0
M  V30 13763 O 1391.73 -1.83108 -0.696302 0
M  V30 13764 H 1390.31 -0.462223 0.586821 0
M  V30 13765 H 1392.97 -0.570713 1.86357 0
M  V30 13766 H 1392.07 -2.00386 2.39274 0
M  V30 13767 N 1392.37 -1.38898 -0.744656 0
M  V30 13768 C 1393.79 -1.20291 -1.04892 0
M  V30 13769 C 1393.99 -0.0577705 -2.01417 0
M  V30 13770 O 1393.04 0.593638 -2.45422 0
M  V30 13771 C 1394.36 -2.53302 -1.62045 0
M  V30 13772 C 1395.9 -2.60063 -1.74173 0
M  V30 13773 C 1396.38 -3.93272 -2.34736 0
M  V30 13774 N 1397.87 -3.9486 -2.42157 0
M  V30 13775 C 1398.6 -4.94698 -2.89933 0
M  V30 13776 N 1398.1 -6.04934 -3.37678 0
M  V30 13777 N 1399.89 -4.82083 -2.89055 0
M  V30 13778 H 1392.04 -2.12144 -0.104294 0
M  V30 13779 H 1394.31 -0.941725 -0.108895 0
M  V30 13780 H 1394.01 -3.376 -0.985868 0
M  V30 13781 H 1393.89 -2.72335 -2.60986 0
M  V30 13782 H 1396.27 -1.76155 -2.36756 0
M  V30 13783 H 1396.36 -2.44889 -0.739115 0
M  V30 13784 H 1396 -4.77607 -1.72784 0
M  V30 13785 H 1395.93 -4.05762 -3.35656 0
M  V30 13786 H 1398.42 -3.15243 -2.08399 0
M  V30 13787 H 1398.73 -6.77036 -3.72616 0
M  V30 13788 H 1397.08 -6.08541 -3.35712 0
M  V30 13789 H 1400.27 -3.9507 -2.51072 0
M  V30 13790 H 1400.44 -5.60039 -3.25975 0
M  V30 13791 N 1393.85 0.973806 -1.23914 0
M  V30 13792 C 1395.26 1.24128 -1.00322 0
M  V30 13793 C 1395.46 1.99378 0.29169 0
M  V30 13794 O 1394.52 2.31445 1.00943 0
M  V30 13795 C 1395.83 2.03438 -2.21435 0
M  V30 13796 C 1397.38 2.16553 -2.25995 0
M  V30 13797 C 1397.86 2.99257 -3.46712 0
M  V30 13798 N 1399.35 3.0684 -3.46992 0
M  V30 13799 C 1400.08 3.71174 -4.37055 0
M  V30 13800 N 1399.58 4.37277 -5.37364 0
M  V30 13801 N 1401.37 3.68126 -4.24782 0
M  V30 13802 H 1393.52 0.469872 -2.07138 0
M  V30 13803 H 1395.79 0.270234 -0.908668 0
M  V30 13804 H 1395.49 1.55527 -3.15443 0
M  V30 13805 H 1395.37 3.0418 -2.23057 0
M  V30 13806 H 1397.75 2.6367 -1.32522 0
M  V30 13807 H 1397.83 1.15179 -2.28402 0
M  V30 13808 H 1397.48 2.52835 -4.40496 0
M  V30 13809 H 1397.41 4.00815 -3.41547 0
M  V30 13810 H 1399.9 2.59813 -2.74419 0
M  V30 13811 H 1400.21 4.84166 -6.02331 0
M  V30 13812 H 1398.56 4.35965 -5.41257 0
M  V30 13813 H 1401.75 3.15657 -3.45656 0
M  V30 13814 H 1401.92 4.17981 -4.95173 0
M  V30 13815 N 1395.33 1.05191 1.17357 0
M  V30 13816 C 1396.55 0.782343 1.92079 0
M  V30 13817 C 1396.98 -0.655957 1.76292 0
M  V30 13818 O 1396.33 -1.45573 1.08065 0
M  V30 13819 C 1396.38 1.16777 3.41168 0
M  V30 13820 O 1395.49 0.299908 4.11308 0
M  V30 13821 H 1394.83 0.286894 0.598822 0
M  V30 13822 H 1397.36 1.40476 1.48754 0
M  V30 13823 H 1397.37 1.13454 3.91909 0
M  V30 13824 H 1396.04 2.2155 3.51978 0
M  V30 13825 H 1394.62 0.393744 3.70815 0
M  V30 13826 N 1396.8 -1.33791 0.83293 0
M  V30 13827 C 1397.77 -2.27637 0.267196 0
M  V30 13828 C 1398.77 -1.50709 -0.560669 0
M  V30 13829 O 1399.96 -1.70109 -0.375321 0
M  V30 13830 C 1397.09 -3.35136 -0.624248 0
M  V30 13831 H 1398.28 -2.79186 1.09522 0
M  V30 13832 H 1395.84 -1.44093 0.605554 0
M  V30 13833 H 1396.57 -2.88818 -1.47494 0
M  V30 13834 H 1396.36 -3.92087 -0.0319827 0
M  V30 13835 H 1397.85 -4.05113 -1.01355 0
M  V30 13836 N 1398.28 -0.588812 -1.46187 0
M  V30 13837 C 1399.53 -0.0768417 -2.02654 0
M  V30 13838 C 1399.86 1.28213 -1.4586 0
M  V30 13839 O 1399.14 1.8415 -0.626022 0
M  V30 13840 C 1399.42 -0.0176429 -3.60096 0
M  V30 13841 C 1399.27 -1.40595 -4.27262 0
M  V30 13842 C 1400.59 0.679864 -4.34817 0
M  V30 13843 H 1397.71 -0.0293981 -0.736413 0
M  V30 13844 H 1400.35 -0.757183 -1.74261 0
M  V30 13845 H 1398.5 0.56174 -3.84417 0
M  V30 13846 H 1400.17 -2.03097 -4.14185 0
M  V30 13847 H 1398.42 -1.97196 -3.86388 0
M  V30 13848 H 1399.09 -1.31694 -5.3606 0
M  V30 13849 H 1401.56 0.1876 -4.15677 0
M  V30 13850 H 1400.44 0.690333 -5.44542 0
M  V30 13851 H 1400.7 1.74237 -4.06318 0
M  V30 13852 N 1399.76 1.54172 -0.326923 0
M  V30 13853 C 1400.69 2.27402 0.530154 0
M  V30 13854 C 1401.67 1.28325 1.11655 0
M  V30 13855 O 1402.86 1.57142 1.14105 0
M  V30 13856 C 1399.99 3.03435 1.68951 0
M  V30 13857 C 1398.94 4.09877 1.23226 0
M  V30 13858 C 1398.27 4.7377 2.47882 0
M  V30 13859 C 1399.57 5.21161 0.344698 0
M  V30 13860 H 1401.26 2.99291 -0.0806959 0
M  V30 13861 H 1398.81 1.43944 -0.0402511 0
M  V30 13862 H 1400.76 3.53396 2.29541 0
M  V30 13863 H 1399.48 2.29169 2.327 0
M  V30 13864 H 1398.14 3.60805 0.649267 0
M  V30 13865 H 1397.79 3.96116 3.10002 0
M  V30 13866 H 1397.49 5.45674 2.17977 0
M  V30 13867 H 1399.01 5.26507 3.09229 0
M  V30 13868 H 1400.43 5.66859 0.856979 0
M  V30 13869 H 1398.83 5.99941 0.138276 0
M  V30 13870 H 1399.9 4.80874 -0.623575 0
M  V30 13871 N 1401.24 0.0551678 1.57503 0
M  V30 13872 C 1402.2 -0.903065 2.10659 0
M  V30 13873 C 1403.2 -1.23728 1.02703 0
M  V30 13874 O 1404.39 -1.17331 1.2876 0
M  V30 13875 C 1401.52 -2.21171 2.59415 0
M  V30 13876 H 1402.72 -0.442197 2.96622 0
M  V30 13877 H 1400.27 -0.193297 1.551 0
M  V30 13878 H 1401 -2.71831 1.76858 0
M  V30 13879 H 1400.79 -1.98216 3.38309 0
M  V30 13880 H 1402.28 -2.89802 3.00674 0
M  V30 13881 N 1402.72 -1.56081 -0.218252 0
M  V30 13882 C 1403.65 -1.87704 -1.29779 0
M  V30 13883 C 1404.63 -0.734747 -1.45053 0
M  V30 13884 O 1405.81 -0.98344 -1.60813 0
M  V30 13885 C 1402.94 -2.08695 -2.66766 0
M  V30 13886 C 1401.98 -3.31385 -2.68489 0
M  V30 13887 S 1402.82 -4.87212 -2.22227 0
M  V30 13888 C 1403.97 -5.11243 -3.61083 0
M  V30 13889 H 1404.21 -2.78975 -1.02762 0
M  V30 13890 H 1401.74 -1.48559 -0.420653 0
M  V30 13891 H 1403.7 -2.21472 -3.4563 0
M  V30 13892 H 1402.36 -1.18215 -2.91005 0
M  V30 13893 H 1401.55 -3.43127 -3.69161 0
M  V30 13894 H 1401.15 -3.17482 -1.9769 0
M  V30 13895 H 1403.45 -5.00344 -4.56796 0
M  V30 13896 H 1404.39 -6.13115 -3.54254 0
M  V30 13897 H 1404.8 -4.38964 -3.54924 0
M  V30 13898 N 1404.2 0.485086 -1.49949 0
M  V30 13899 C 1405.44 1.23999 -1.60474 0
M  V30 13900 C 1405.77 1.91904 -0.297736 0
M  V30 13901 O 1405.05 1.81472 0.699857 0
M  V30 13902 C 1405.33 2.2946 -2.77525 0
M  V30 13903 C 1405.19 1.65952 -4.18067 0
M  V30 13904 C 1406.5 3.30893 -2.90169 0
M  V30 13905 H 1403.62 0.449462 -0.584083 0
M  V30 13906 H 1406.27 0.535795 -1.82289 0
M  V30 13907 H 1404.42 2.89521 -2.59056 0
M  V30 13908 H 1406.09 1.09596 -4.48092 0
M  V30 13909 H 1404.33 0.963079 -4.22974 0
M  V30 13910 H 1405 2.42521 -4.9587 0
M  V30 13911 H 1407.48 2.8084 -3.07031 0
M  V30 13912 H 1406.35 4.02027 -3.73718 0
M  V30 13913 H 1406.61 3.94178 -2.0019 0
M  V30 13914 N 1405.67 1.39291 0.737279 0
M  V30 13915 C 1406.61 1.32216 1.85995 0
M  V30 13916 C 1407.58 0.19623 1.61412 0
M  V30 13917 O 1408.77 0.376297 1.84706 0
M  V30 13918 C 1405.9 1.0525 3.21932 0
M  V30 13919 C 1404.94 2.20002 3.65378 0
M  V30 13920 S 1405.77 3.82265 3.75011 0
M  V30 13921 C 1406.93 3.57519 5.13742 0
M  V30 13922 H 1407.16 2.27231 1.91712 0
M  V30 13923 H 1404.7 1.25319 0.901911 0
M  V30 13924 H 1406.65 0.903753 4.00428 0
M  V30 13925 H 1405.32 0.119258 3.13874 0
M  V30 13926 H 1404.51 1.9672 4.64023 0
M  V30 13927 H 1404.11 2.31068 2.94081 0
M  V30 13928 H 1406.4 3.14643 6.00005 0
M  V30 13929 H 1407.35 4.55616 5.42051 0
M  V30 13930 H 1407.75 2.9167 4.8331 0
M  V30 13931 N 1407.15 -0.967221 1.24429 0
M  V30 13932 C 1408.57 -1.23594 1.00979 0
M  V30 13933 C 1408.77 -1.99529 -0.281112 0
M  V30 13934 O 1407.82 -2.31977 -0.997139 0
M  V30 13935 C 1409.14 -2.02261 2.22511 0
M  V30 13936 C 1410.68 -2.15352 2.2714 0
M  V30 13937 C 1411.16 -2.97414 3.48294 0
M  V30 13938 N 1412.65 -3.04996 3.48614 0
M  V30 13939 C 1413.39 -3.68851 4.39017 0
M  V30 13940 N 1412.88 -4.34421 5.39676 0
M  V30 13941 N 1414.67 -3.65868 4.26728 0
M  V30 13942 H 1406.83 -0.458881 2.07384 0
M  V30 13943 H 1409.09 -0.265411 0.910088 0
M  V30 13944 H 1408.79 -1.53852 3.16263 0
M  V30 13945 H 1408.67 -3.02993 2.24667 0
M  V30 13946 H 1411.06 -2.62964 1.33919 0
M  V30 13947 H 1411.14 -1.13966 2.2901 0
M  V30 13948 H 1410.78 -2.50495 4.41831 0
M  V30 13949 H 1410.71 -3.98998 3.43668 0
M  V30 13950 H 1413.2 -2.58354 2.75793 0
M  V30 13951 H 1413.51 -4.80965 6.04891 0
M  V30 13952 H 1411.86 -4.33089 5.43562 0
M  V30 13953 H 1415.05 -3.13819 3.47325 0
M  V30 13954 H 1415.22 -4.15349 4.97382 0
M  V30 13955 N 1408.63 -1.05812 -1.16797 0
M  V30 13956 C 1409.56 -0.622584 -2.20582 0
M  V30 13957 C 1410.57 0.316905 -1.59686 0
M  V30 13958 O 1411.76 0.108657 -1.78169 0
M  V30 13959 C 1408.86 0.108124 -3.38727 0
M  V30 13960 C 1408.04 -0.84363 -4.29187 0
M  V30 13961 C 1407.1 -0.15305 -5.25977 0
M  V30 13962 O 1406.12 -0.78915 -5.63703 0
M  V30 13963 N 1407.32 1.10721 -5.69843 0
M  V30 13964 H 1410.09 -1.51532 -2.5857 0
M  V30 13965 H 1407.65 -0.940815 -1.31758 0
M  V30 13966 H 1409.64 0.580395 -4.00517 0
M  V30 13967 H 1408.21 0.902599 -2.99286 0
M  V30 13968 H 1407.43 -1.49538 -3.64735 0
M  V30 13969 H 1408.72 -1.48946 -4.86511 0
M  V30 13970 H 1408.12 1.64423 -5.41278 0
M  V30 13971 H 1406.67 1.52344 -6.33746 0
M  V30 13972 N 1410.11 1.33347 -0.840014 0
M  V30 13973 C 1411.07 2.27492 -0.279264 0
M  V30 13974 C 1412.07 1.51004 0.552669 0
M  V30 13975 O 1413.26 1.70305 0.366295 0
M  V30 13976 C 1410.39 3.35462 0.606466 0
M  V30 13977 H 1411.59 2.78601 -1.11001 0
M  V30 13978 H 1409.14 1.4377 -0.613187 0
M  V30 13979 H 1409.87 2.89596 1.45961 0
M  V30 13980 H 1409.66 3.92098 0.0111889 0
M  V30 13981 H 1411.15 4.05645 0.992052 0
M  V30 13982 N 1411.59 0.596556 1.45873 0
M  V30 13983 C 1412.55 -0.118666 2.28893 0
M  V30 13984 C 1413.55 -0.805668 1.3916 0
M  V30 13985 O 1414.74 -0.655511 1.61396 0
M  V30 13986 C 1411.87 -1.17789 3.19904 0
M  V30 13987 H 1413.06 0.611093 2.93608 0
M  V30 13988 H 1410.62 0.355115 1.52212 0
M  V30 13989 H 1411.35 -1.93878 2.59965 0
M  V30 13990 H 1411.14 -0.689616 3.85988 0
M  V30 13991 H 1412.63 -1.67912 3.82355 0
M  V30 13992 N 1413.06 -1.53996 0.335095 0
M  V30 13993 C 1414.29 -2.05657 -0.268328 0
M  V30 13994 C 1414.71 -1.20897 -1.44102 0
M  V30 13995 O 1414.07 -0.220737 -1.79951 0
M  V30 13996 C 1414.12 -3.54331 -0.669481 0
M  V30 13997 O 1413.22 -3.7246 -1.77052 0
M  V30 13998 H 1412.56 -0.662386 -0.0462705 0
M  V30 13999 H 1415.09 -1.98723 0.486854 0
M  V30 14000 H 1415.1 -3.9681 -0.948971 0
M  V30 14001 H 1413.78 -4.15474 0.188168 0
M  V30 14002 H 1412.36 -3.41884 -1.48895 0
M  V30 14003 N 1414.54 -0.0635198 -1.57472 0
M  V30 14004 C 1415.79 0.608384 -1.93459 0
M  V30 14005 C 1416.12 1.6976 -0.943141 0
M  V30 14006 O 1415.4 1.94478 0.0289567 0
M  V30 14007 C 1415.68 1.19302 -3.39763 0
M  V30 14008 C 1415.53 0.11102 -4.49663 0
M  V30 14009 C 1416.85 2.101 -3.86712 0
M  V30 14010 H 1413.97 0.219688 -0.703496 0
M  V30 14011 H 1416.61 -0.127803 -1.8957 0
M  V30 14012 H 1414.76 1.82044 -3.43209 0
M  V30 14013 H 1416.43 -0.521606 -4.58342 0
M  V30 14014 H 1414.68 -0.559408 -4.30178 0
M  V30 14015 H 1415.35 0.560332 -5.49149 0
M  V30 14016 H 1417.82 1.57305 -3.8522 0
M  V30 14017 H 1416.7 2.47945 -4.89708 0
M  V30 14018 H 1416.96 3.00603 -3.24177 0
M  V30 14019 N 1416.02 1.56195 0.209972 0
M  V30 14020 C 1416.95 1.96378 1.26324 0
M  V30 14021 C 1417.93 0.833606 1.48273 0
M  V30 14022 O 1419.12 1.0968 1.60262 0
M  V30 14023 C 1416.25 2.29048 2.61064 0
M  V30 14024 C 1415.2 3.44665 2.53752 0
M  V30 14025 C 1414.53 3.6297 3.92628 0
M  V30 14026 C 1415.83 4.79297 2.07536 0
M  V30 14027 H 1417.52 2.8461 0.929379 0
M  V30 14028 H 1415.07 1.36931 0.445627 0
M  V30 14029 H 1417.02 2.55752 3.34916 0
M  V30 14030 H 1415.74 1.37682 2.96161 0
M  V30 14031 H 1414.4 3.18028 1.82356 0
M  V30 14032 H 1414.05 2.68961 4.25052 0
M  V30 14033 H 1413.75 4.40741 3.88614 0
M  V30 14034 H 1415.27 3.92035 4.68125 0
M  V30 14035 H 1416.69 5.05131 2.71138 0
M  V30 14036 H 1415.08 5.60433 2.14557 0
M  V30 14037 H 1416.15 4.73877 1.02802 0
M  V30 14038 N 1417.5 -0.477127 1.50204 0
M  V30 14039 C 1418.91 -0.81037 1.37496 0
M  V30 14040 C 1419.11 -1.96937 0.426399 0
M  V30 14041 O 1418.17 -2.52148 -0.133197 0
M  V30 14042 C 1419.48 -1.12811 2.78737 0
M  V30 14043 C 1421.03 -1.23492 2.87608 0
M  V30 14044 C 1421.51 -1.58583 4.29669 0
M  V30 14045 N 1423 -1.65586 4.32591 0
M  V30 14046 C 1423.73 -1.94231 5.39502 0
M  V30 14047 N 1423.23 -2.20936 6.56627 0
M  V30 14048 N 1425.02 -1.95682 5.26939 0
M  V30 14049 H 1417.17 0.286771 2.10455 0
M  V30 14050 H 1419.43 0.0657649 0.945716 0
M  V30 14051 H 1419.14 -0.349616 3.49958 0
M  V30 14052 H 1419.01 -2.0658 3.15602 0
M  V30 14053 H 1421.4 -2.0041 2.1661 0
M  V30 14054 H 1421.48 -0.277182 2.54294 0
M  V30 14055 H 1421.13 -0.822071 5.01203 0
M  V30 14056 H 1421.06 -2.55497 4.60466 0
M  V30 14057 H 1423.55 -1.47012 3.48132 0
M  V30 14058 H 1423.86 -2.42049 7.33916 0
M  V30 14059 H 1422.21 -2.18341 6.59812 0
M  V30 14060 H 1425.4 -1.74311 4.34434 0
M  V30 14061 H 1425.57 -2.1767 6.10347 0
M  V30 14062 N 1418.98 -1.3968 -0.729882 0
M  V30 14063 C 1420.22 -1.3862 -1.50213 0
M  V30 14064 C 1420.58 0.0167409 -1.91993 0
M  V30 14065 O 1421.78 0.15238 -2.68368 0
M  V30 14066 C 1420.05 -2.33583 -2.70507 0
M  V30 14067 S 1421.61 -2.50756 -3.60093 0
M  V30 14068 H 1418.43 -0.491511 -0.513749 0
M  V30 14069 H 1421.03 -1.75823 -0.854783 0
M  V30 14070 H 1419.74 -3.34369 -2.37961 0
M  V30 14071 H 1419.27 -1.97613 -3.40166 0
M  V30 14072 H 1421.28 -1.74929 -4.64343 0
M  V30 14073 N 1420.45 0.960609 -1.2494 0
M  V30 14074 C 1421.73 1.68035 -1.00118 0
M  V30 14075 C 1422.11 2.057 0.474399 0
M  V30 14076 O 1421.46 1.76569 1.45036 0
M  V30 14077 C 1421.67 2.90708 -1.93106 0
M  V30 14078 C 1423.02 3.62792 -2.20606 0
M  V30 14079 O 1424.04 3.00778 -1.90816 0
M  V30 14080 O 1422.9 4.74443 -2.71231 0
M  V30 14081 H 1419.99 0.734939 -0.379202 0
M  V30 14082 H 1422.54 1.01407 -1.36069 0
M  V30 14083 H 1421.31 2.59619 -2.92769 0
M  V30 14084 H 1420.94 3.65068 -1.57515 0
M  V30 14085 N 1421.93 1.0643 1.16234 0
M  V30 14086 C 1423.16 0.802671 1.91238 0
M  V30 14087 C 1423.58 -0.637222 1.76978 0
M  V30 14088 O 1422.94 -1.44419 1.09603 0
M  V30 14089 C 1422.99 1.20389 3.3991 0
M  V30 14090 O 1422.09 0.343516 4.10967 0
M  V30 14091 H 1421.43 0.29323 0.595745 0
M  V30 14092 H 1423.96 1.42046 1.47255 0
M  V30 14093 H 1423.97 1.17604 3.90683 0
M  V30 14094 H 1422.65 2.2527 3.49608 0
M  V30 14095 H 1421.23 0.433051 3.70377 0
M  V30 14096 N 1423.41 -1.329 0.847073 0
M  V30 14097 C 1424.82 -1.79813 0.502394 0
M  V30 14098 C 1425.17 -1.70017 -0.979218 0
M  V30 14099 O 1424.3 -1.25427 -1.76344 0
M  V30 14100 C 1424.89 -3.26485 0.905154 0
M  V30 14101 C 1423.45 -3.71383 0.612489 0
M  V30 14102 C 1422.6 -2.54157 1.10903 0
M  V30 14103 H 1425.55 -1.20306 1.035 0
M  V30 14104 H 1425.57 -3.79872 0.218476 0
M  V30 14105 H 1425.08 -3.33583 1.98353 0
M  V30 14106 H 1423.18 -3.69806 -0.45548 0
M  V30 14107 H 1423.3 -4.64507 1.17347 0
M  V30 14108 H 1421.66 -2.49134 0.529576 0
M  V30 14109 H 1422.44 -2.64013 2.19435 0
M  V30 14110 N 1424.89 -0.604284 -1.45555 0
M  V30 14111 C 1425.8 0.118409 -2.34301 0
M  V30 14112 C 1426.81 0.863807 -1.51044 0
M  V30 14113 O 1427.99 0.822138 -1.83856 0
M  V30 14114 C 1425.06 1.10538 -3.28606 0
M  V30 14115 C 1424.12 0.362301 -4.27768 0
M  V30 14116 C 1423.35 1.30226 -5.17568 0
M  V30 14117 O 1423.57 2.53991 -5.10729 0
M  V30 14118 O 1422.51 0.801116 -5.96545 0
M  V30 14119 H 1426.33 -0.610816 -2.97494 0
M  V30 14120 H 1423.92 -0.364562 -1.44884 0
M  V30 14121 H 1425.8 1.67392 -3.86727 0
M  V30 14122 H 1424.47 1.81569 -2.67982 0
M  V30 14123 H 1423.38 -0.248616 -3.73273 0
M  V30 14124 H 1424.71 -0.307454 -4.91239 0
M  V30 14125 N 1426.37 1.53816 -0.343257 0
M  V30 14126 C 1427.28 2.28716 0.522121 0
M  V30 14127 C 1428.29 1.33815 1.11218 0
M  V30 14128 O 1429.47 1.66853 1.12793 0
M  V30 14129 C 1426.53 3.04517 1.65741 0
M  V30 14130 C 1425.59 4.15043 1.09716 0
M  V30 14131 C 1424.83 4.8722 2.17835 0
M  V30 14132 O 1425.05 4.59065 3.38549 0
M  V30 14133 O 1423.98 5.73678 1.82145 0
M  V30 14134 H 1427.81 3.03576 -0.086732 0
M  V30 14135 H 1425.4 1.49007 -0.108313 0
M  V30 14136 H 1427.28 3.51921 2.31796 0
M  V30 14137 H 1425.95 2.32514 2.25208 0
M  V30 14138 H 1424.86 3.71943 0.401152 0
M  V30 14139 H 1426.19 4.89147 0.547362 0
M  V30 14140 N 1427.84 0.0718701 1.57436 0
M  V30 14141 C 1429.09 -0.598116 1.93779 0
M  V30 14142 C 1429.42 -1.69258 0.952131 0
M  V30 14143 O 1428.7 -1.94491 -0.0186426 0
M  V30 14144 C 1428.98 -1.17499 3.40391 0
M  V30 14145 C 1428.83 -0.0871719 4.49716 0
M  V30 14146 C 1430.15 -2.08047 3.8782 0
M  V30 14147 H 1427.27 -0.215954 0.704651 0
M  V30 14148 H 1429.91 0.137854 1.89499 0
M  V30 14149 H 1428.06 -1.80221 3.44169 0
M  V30 14150 H 1429.74 0.545906 4.58058 0
M  V30 14151 H 1427.98 0.582213 4.29875 0
M  V30 14152 H 1428.65 -0.531202 5.49438 0
M  V30 14153 H 1431.13 -1.5526 3.86049 0
M  V30 14154 H 1430 -2.45345 4.91016 0
M  V30 14155 H 1430.26 -2.98879 3.25766 0
M  V30 14156 N 1429.32 -1.56304 -0.201686 0
M  V30 14157 C 1430.73 -1.7022 -0.766953 0
M  V30 14158 C 1431.08 -0.677318 -1.84138 0
M  V30 14159 O 1430.21 0.167604 -2.1575 0
M  V30 14160 C 1430.8 -3.08615 -1.39795 0
M  V30 14161 C 1429.36 -3.24317 -1.91037 0
M  V30 14162 C 1428.51 -2.66167 -0.777853 0
M  V30 14163 H 1431.46 -1.58683 0.0232884 0
M  V30 14164 H 1431.48 -3.05578 -2.26721 0
M  V30 14165 H 1430.99 -3.83185 -0.615728 0
M  V30 14166 H 1429.1 -2.54652 -2.71999 0
M  V30 14167 H 1429.21 -4.31753 -2.07669 0
M  V30 14168 H 1427.57 -2.25169 -1.19042 0
M  V30 14169 H 1428.36 -3.43299 -0.00798179 0
M  V30 14170 N 1430.8 0.469154 -1.50455 0
M  V30 14171 C 1432.05 1.2229 -1.6178 0
M  V30 14172 C 1432.38 1.91577 -0.318073 0
M  V30 14173 O 1431.65 1.82205 0.68057 0
M  V30 14174 C 1431.94 2.26504 -2.79943 0
M  V30 14175 C 1431.79 1.61509 -4.19804 0
M  V30 14176 C 1433.11 3.27796 -2.93662 0
M  V30 14177 H 1430.23 0.443241 -0.588817 0
M  V30 14178 H 1432.87 0.516431 -1.82847 0
M  V30 14179 H 1431.02 2.86757 -2.62112 0
M  V30 14180 H 1432.69 1.04838 -4.49229 0
M  V30 14181 H 1430.94 0.918162 -4.23972 0
M  V30 14182 H 1431.61 2.37248 -4.98415 0
M  V30 14183 H 1434.08 2.77568 -3.09992 0
M  V30 14184 H 1432.96 3.98041 -3.77961 0
M  V30 14185 H 1433.22 3.92033 -2.04359 0
M  V30 14186 N 1432.28 1.40065 0.722464 0
M  V30 14187 C 1433.56 1.28473 1.47493 0
M  V30 14188 C 1433.94 -0.100058 2.10863 0
M  V30 14189 O 1433.28 -1.11232 1.99599 0
M  V30 14190 C 1433.49 2.41842 2.51621 0
M  V30 14191 C 1434.84 2.81753 3.17648 0
M  V30 14192 O 1435.87 2.41385 2.61939 0
M  V30 14193 O 1434.72 3.51473 4.18484 0
M  V30 14194 H 1431.82 0.504158 0.655556 0
M  V30 14195 H 1434.36 1.51969 0.755223 0
M  V30 14196 H 1433.14 3.34365 2.03263 0
M  V30 14197 H 1432.76 2.20079 3.31136 0
M  V30 14198 N 1433.76 -0.95397 1.25448 0
M  V30 14199 C 1435.17 -1.22516 1.02284 0
M  V30 14200 C 1435.37 -1.99816 -0.259933 0
M  V30 14201 O 1434.43 -2.33022 -0.972479 0
M  V30 14202 C 1435.74 -1.9989 2.24643 0
M  V30 14203 C 1437.29 -2.1293 2.29412 0
M  V30 14204 C 1437.77 -2.93703 3.51429 0
M  V30 14205 N 1439.26 -3.01281 3.51829 0
M  V30 14206 C 1439.99 -3.64174 4.42905 0
M  V30 14207 N 1439.49 -4.28673 5.44253 0
M  V30 14208 N 1441.28 -3.61321 4.30585 0
M  V30 14209 H 1433.43 -0.436859 2.07859 0
M  V30 14210 H 1435.69 -0.255744 0.912852 0
M  V30 14211 H 1435.4 -1.50489 3.17877 0
M  V30 14212 H 1435.27 -3.00593 2.27868 0
M  V30 14213 H 1437.66 -2.61528 1.367 0
M  V30 14214 H 1437.74 -1.1153 2.30206 0
M  V30 14215 H 1437.39 -2.45795 4.44463 0
M  V30 14216 H 1437.32 -3.95331 3.47881 0
M  V30 14217 H 1439.81 -2.55414 2.78517 0
M  V30 14218 H 1440.12 -4.74522 6.09958 0
M  V30 14219 H 1438.47 -4.27299 5.48125 0
M  V30 14220 H 1441.66 -3.10118 3.50634 0
M  V30 14221 H 1441.83 -4.1005 5.0176 0
M  V30 14222 N 1435.24 -1.07045 -1.15668 0
M  V30 14223 C 1436.65 -0.814932 -1.67975 0
M  V30 14224 C 1437 0.660408 -1.84751 0
M  V30 14225 O 1436.12 1.51156 -1.54857 0
M  V30 14226 C 1436.72 -1.47274 -3.05116 0
M  V30 14227 C 1435.28 -1.26481 -3.54513 0
M  V30 14228 C 1434.42 -1.54439 -2.30312 0
M  V30 14229 H 1437.37 -1.23291 -0.999251 0
M  V30 14230 H 1437.4 -0.892244 -3.69891 0
M  V30 14231 H 1436.91 -2.54649 -2.92874 0
M  V30 14232 H 1435.01 -0.211138 -3.72001 0
M  V30 14233 H 1435.12 -1.98283 -4.36143 0
M  V30 14234 H 1433.49 -0.965269 -2.357 0
M  V30 14235 H 1434.27 -2.6299 -2.20661 0
M  V30 14236 N 1436.71 1.32449 -0.85411 0
M  V30 14237 C 1437.64 2.31383 -0.313697 0
M  V30 14238 C 1438.62 1.59656 0.586858 0
M  V30 14239 O 1439.81 1.87459 0.507216 0
M  V30 14240 C 1436.94 3.43693 0.499235 0
M  V30 14241 C 1435.89 4.26899 -0.306839 0
M  V30 14242 C 1435.22 5.30966 0.630795 0
M  V30 14243 C 1436.52 4.99318 -1.53229 0
M  V30 14244 H 1438.21 2.76832 -1.14037 0
M  V30 14245 H 1435.76 1.33091 -0.549805 0
M  V30 14246 H 1437.71 4.11944 0.887709 0
M  V30 14247 H 1436.44 2.96971 1.35926 0
M  V30 14248 H 1435.1 3.60294 -0.677061 0
M  V30 14249 H 1434.74 4.80498 1.48765 0
M  V30 14250 H 1434.44 5.87522 0.0954635 0
M  V30 14251 H 1435.97 6.0208 1.01646 0
M  V30 14252 H 1437.38 5.60253 -1.21614 0
M  V30 14253 H 1435.78 5.65596 -2.00552 0
M  V30 14254 H 1436.85 4.27213 -2.29383 0
M  V30 14255 N 1438.19 0.611994 1.45232 0
M  V30 14256 C 1439.61 0.276005 1.57195 0
M  V30 14257 C 1439.81 -1.22136 1.60266 0
M  V30 14258 O 1438.86 -2.00459 1.53533 0
M  V30 14259 C 1440.18 0.951064 2.85263 0
M  V30 14260 C 1441.72 0.927398 2.98945 0
M  V30 14261 C 1442.2 1.58255 4.2979 0
M  V30 14262 N 1443.69 1.54825 4.36559 0
M  V30 14263 C 1444.43 2.02428 5.3648 0
M  V30 14264 N 1443.92 2.58137 6.42913 0
M  V30 14265 N 1445.71 1.9317 5.27865 0
M  V30 14266 H 1437.87 1.58418 1.41483 0
M  V30 14267 H 1440.13 0.663879 0.676734 0
M  V30 14268 H 1439.83 2.00557 2.88912 0
M  V30 14269 H 1439.71 0.477044 3.74171 0
M  V30 14270 H 1442.1 -0.118571 2.94862 0
M  V30 14271 H 1442.18 1.43973 2.11437 0
M  V30 14272 H 1441.82 2.62787 4.34632 0
M  V30 14273 H 1441.75 1.04521 5.16123 0
M  V30 14274 H 1444.24 1.14133 3.60253 0
M  V30 14275 H 1444.55 2.92243 7.15412 0
M  V30 14276 H 1442.9 2.62179 6.43652 0
M  V30 14277 H 1446.09 1.49384 4.43624 0
M  V30 14278 H 1446.26 2.30582 6.05587 0
M  V30 14279 N 1439.67 -1.53632 0.351409 0
M  V30 14280 C 1440.58 -2.2899 -0.509985 0
M  V30 14281 C 1441.6 -1.34403 -1.10507 0
M  V30 14282 O 1442.77 -1.67448 -1.11906 0
M  V30 14283 C 1439.84 -3.05392 -1.64124 0
M  V30 14284 C 1438.9 -4.15619 -1.07514 0
M  V30 14285 C 1438.13 -4.88369 -2.15248 0
M  V30 14286 O 1438.35 -4.60854 -3.3611 0
M  V30 14287 O 1437.29 -5.74636 -1.79101 0
M  V30 14288 H 1441.11 -3.03526 0.10283 0
M  V30 14289 H 1438.7 -1.48947 0.116214 0
M  V30 14290 H 1440.58 -3.53146 -2.29926 0
M  V30 14291 H 1439.26 -2.33705 -2.23972 0
M  V30 14292 H 1438.16 -3.7215 -0.381421 0
M  V30 14293 H 1439.5 -4.8943 -0.521413 0
M  V30 14294 N 1441.15 -0.0802183 -1.57396 0
M  V30 14295 C 1442.4 0.586573 -1.92982 0
M  V30 14296 C 1442.71 1.70256 -0.962918 0
M  V30 14297 O 1443.92 2.4295 -1.21193 0
M  V30 14298 C 1442.37 1.09475 -3.42846 0
M  V30 14299 C 1441.98 0.0093098 -4.47999 0
M  V30 14300 C 1443.72 1.73512 -3.87419 0
M  V30 14301 C 1441.63 0.532002 -5.89002 0
M  V30 14302 H 1440.56 0.222878 -0.720306 0
M  V30 14303 H 1443.21 -0.153816 -1.82854 0
M  V30 14304 H 1441.59 1.88836 -3.48076 0
M  V30 14305 H 1442.77 -0.765609 -4.54395 0
M  V30 14306 H 1441.08 -0.535345 -4.12944 0
M  V30 14307 H 1443.68 2.13665 -4.90154 0
M  V30 14308 H 1444.02 2.59845 -3.25248 0
M  V30 14309 H 1444.56 1.00758 -3.84828 0
M  V30 14310 H 1441.29 -0.294364 -6.54839 0
M  V30 14311 H 1440.81 1.27425 -5.86108 0
M  V30 14312 H 1442.49 1.00573 -6.39135 0
M  V30 14313 N 1442.63 1.56409 0.193394 0
M  V30 14314 C 1443.87 1.80367 0.911717 0
M  V30 14315 C 1444.19 0.653561 1.83721 0
M  V30 14316 O 1443.46 -0.328001 1.93135 0
M  V30 14317 H 1442.04 0.665316 0.339652 0
M  V30 14318 H 1444.71 1.93887 0.198496 0
M  V30 14319 H 1443.8 2.7359 1.50182 0
M  V30 14320 N 1444.1 -0.461169 1.50702 0
M  V30 14321 C 1445.35 -1.21251 1.62186 0
M  V30 14322 C 1445.68 -1.91735 0.326818 0
M  V30 14323 O 1444.93 -1.83212 -0.687879 0
M  V30 14324 C 1445.23 -2.27213 2.75879 0
M  V30 14325 C 1444.9 -1.73912 4.16011 0
M  V30 14326 C 1443.56 -1.59097 4.54138 0
M  V30 14327 C 1445.91 -1.34477 5.03553 0
M  V30 14328 C 1443.24 -1.03285 5.77537 0
M  V30 14329 C 1445.59 -0.801027 6.27508 0
M  V30 14330 C 1444.26 -0.639586 6.64429 0
M  V30 14331 H 1443.53 -0.443689 0.593482 0
M  V30 14332 H 1446.17 -0.507035 1.84666 0
M  V30 14333 H 1444.48 -3.03707 2.47526 0
M  V30 14334 H 1446.18 -2.85124 2.81967 0
M  V30 14335 H 1442.77 -1.86413 3.85938 0
M  V30 14336 H 1446.95 -1.44753 4.74721 0
M  V30 14337 H 1442.21 -0.895316 6.04809 0
M  V30 14338 H 1446.38 -0.486842 6.94696 0
M  V30 14339 H 1444.01 -0.204966 7.59924 0
M  V30 14340 N 1445.58 -1.40446 -0.715026 0
M  V30 14341 C 1446.86 -1.29253 -1.4681 0
M  V30 14342 C 1447.24 0.0888738 -2.10913 0
M  V30 14343 O 1446.59 1.10172 -2.00186 0
M  V30 14344 C 1446.8 -2.43173 -2.50335 0
M  V30 14345 C 1448.14 -2.83433 -3.1615 0
M  V30 14346 O 1449.17 -2.4277 -2.60655 0
M  V30 14347 O 1448.03 -3.53687 -4.16615 0
M  V30 14348 H 1445.12 -0.507627 -0.652873 0
M  V30 14349 H 1447.67 -1.52367 -0.747153 0
M  V30 14350 H 1446.44 -3.35438 -2.01486 0
M  V30 14351 H 1446.06 -2.21832 -3.29964 0
M  V30 14352 N 1447.06 0.947303 -1.25952 0
M  V30 14353 C 1448.28 1.73261 -1.13997 0
M  V30 14354 C 1448.71 1.85666 0.301639 0
M  V30 14355 O 1448.07 1.34244 1.21854 0
M  V30 14356 C 1448.12 3.12046 -1.8072 0
M  V30 14357 O 1447.22 3.97684 -1.09182 0
M  V30 14358 H 1446.56 0.53182 -0.397572 0
M  V30 14359 H 1449.09 1.18689 -1.66656 0
M  V30 14360 H 1449.1 3.62468 -1.87299 0
M  V30 14361 H 1447.78 3.02334 -2.856 0
M  V30 14362 H 1446.35 3.56141 -1.10536 0
M  V30 14363 N 1448.54 1.07657 1.15099 0
M  V30 14364 C 1449.47 0.721201 2.22083 0
M  V30 14365 C 1450.45 -0.292808 1.67561 0
M  V30 14366 O 1451.63 -0.164872 1.93499 0
M  V30 14367 C 1448.76 0.12153 3.47087 0
M  V30 14368 C 1447.72 1.06303 4.14588 0
M  V30 14369 C 1447.04 0.325964 5.33706 0
M  V30 14370 C 1448.34 2.39796 4.63999 0
M  V30 14371 H 1450.04 1.61566 2.52065 0
M  V30 14372 H 1447.58 0.778282 1.21156 0
M  V30 14373 H 1449.54 -0.139037 4.21171 0
M  V30 14374 H 1448.26 -0.808022 3.16447 0
M  V30 14375 H 1446.92 1.30858 3.4245 0
M  V30 14376 H 1446.57 -0.607147 4.99322 0
M  V30 14377 H 1446.27 0.953552 5.79811 0
M  V30 14378 H 1447.79 0.0732695 6.10556 0
M  V30 14379 H 1449.21 2.19552 5.29594 0
M  V30 14380 H 1447.6 2.98178 5.20778 0
M  V30 14381 H 1448.67 3.01876 3.79472 0
M  V30 14382 N 1450.02 -1.31994 0.861122 0
M  V30 14383 C 1451.24 -2.01211 0.481865 0
M  V30 14384 C 1451.66 -1.64687 -0.923233 0
M  V30 14385 O 1451.02 -0.87151 -1.60346 0
M  V30 14386 C 1451.07 -3.56162 0.618919 0
M  V30 14387 O 1450.79 -3.91376 1.96868 0
M  V30 14388 C 1452.29 -4.42652 0.239514 0
M  V30 14389 H 1449.51 -0.643922 0.188693 0
M  V30 14390 H 1452.05 -1.68427 1.15985 0
M  V30 14391 H 1450.21 -3.87398 -0.0114042 0
M  V30 14392 H 1450.62 -4.86095 1.97008 0
M  V30 14393 H 1452.1 -5.50646 0.386394 0
M  V30 14394 H 1452.57 -4.31466 -0.820598 0
M  V30 14395 H 1453.18 -4.16818 0.845175 0
M  V30 14396 N 1451.49 -0.619688 -1.44906 0
M  V30 14397 C 1452.46 0.0822364 -2.29052 0
M  V30 14398 C 1453.46 0.783427 -1.40425 0
M  V30 14399 O 1454.65 0.629751 -1.62419 0
M  V30 14400 C 1451.78 1.12685 -3.21737 0
M  V30 14401 H 1452.97 -0.657726 -2.92599 0
M  V30 14402 H 1450.53 -0.379286 -1.51628 0
M  V30 14403 H 1451.26 1.89717 -2.63017 0
M  V30 14404 H 1451.05 0.628122 -3.87036 0
M  V30 14405 H 1452.54 1.61808 -3.84978 0
M  V30 14406 N 1452.97 1.53444 -0.359552 0
M  V30 14407 C 1454.22 2.01464 0.232366 0
M  V30 14408 C 1454.55 1.24656 1.48911 0
M  V30 14409 O 1453.83 0.338574 1.9153 0
M  V30 14410 C 1454.11 3.56172 0.530403 0
M  V30 14411 C 1453.96 4.43678 -0.739556 0
M  V30 14412 C 1455.28 4.19412 1.33347 0
M  V30 14413 H 1452.4 0.732314 0.0829802 0
M  V30 14414 H 1455.04 1.83752 -0.483253 0
M  V30 14415 H 1453.19 3.71396 1.14004 0
M  V30 14416 H 1454.86 4.40263 -1.37719 0
M  V30 14417 H 1453.11 4.11892 -1.36117 0
M  V30 14418 H 1453.78 5.49856 -0.486062 0
M  V30 14419 H 1456.25 4.07984 0.817816 0
M  V30 14420 H 1455.13 5.277 1.51075 0
M  V30 14421 H 1455.39 3.7508 2.34024 0
M  V30 14422 N 1454.45 0.0885642 1.57351 0
M  V30 14423 C 1455.73 -0.618587 1.85561 0
M  V30 14424 C 1456.11 -1.86753 0.984206 0
M  V30 14425 O 1455.46 -2.28434 0.0548839 0
M  V30 14426 C 1455.67 -0.940222 3.36096 0
M  V30 14427 C 1457.01 -1.30649 4.04 0
M  V30 14428 O 1458.04 -1.03144 3.4094 0
M  V30 14429 O 1456.9 -1.82135 5.15256 0
M  V30 14430 H 1453.99 -0.308881 0.767152 0
M  V30 14431 H 1456.54 0.120767 1.6927 0
M  V30 14432 H 1455.31 -0.0538991 3.91263 0
M  V30 14433 H 1454.93 -1.73577 3.5771 0
M  V30 14434 N 1455.93 -1.56509 -0.185096 0
M  V30 14435 C 1457.18 -1.81206 -0.903924 0
M  V30 14436 C 1457.5 -0.663423 -1.82836 0
M  V30 14437 O 1456.76 0.350211 -1.92541 0
M  V30 14438 C 1457.06 -3.11968 -1.74387 0
M  V30 14439 C 1456.72 -4.40353 -0.969552 0
M  V30 14440 C 1455.39 -4.75227 -0.755799 0
M  V30 14441 C 1457.74 -5.19461 -0.425443 0
M  V30 14442 C 1455.07 -5.86698 0.0133856 0
M  V30 14443 C 1457.42 -6.31736 0.330582 0
M  V30 14444 C 1456.08 -6.65187 0.555262 0
M  V30 14445 H 1455.35 -0.663078 -0.330769 0
M  V30 14446 H 1458 -1.90747 -0.169673 0
M  V30 14447 H 1456.3 -2.97708 -2.5471 0
M  V30 14448 H 1458 -3.28284 -2.30284 0
M  V30 14449 H 1454.59 -4.1299 -1.14618 0
M  V30 14450 H 1458.77 -4.92923 -0.577959 0
M  V30 14451 H 1454.03 -6.11081 0.197335 0
M  V30 14452 H 1458.2 -6.92246 0.759523 0
M  V30 14453 H 1455.83 -7.51403 1.15318 0
M  V30 14454 N 1457.41 0.45317 -1.50944 0
M  V30 14455 C 1458.82 0.788393 -1.38768 0
M  V30 14456 C 1459.02 1.96233 -0.457676 0
M  V30 14457 O 1458.08 2.52328 0.0930651 0
M  V30 14458 C 1459.39 1.08363 -2.80496 0
M  V30 14459 C 1460.94 1.18901 -2.89537 0
M  V30 14460 C 1461.41 1.51727 -4.32138 0
M  V30 14461 N 1462.91 1.58683 -4.35171 0
M  V30 14462 C 1463.64 1.85623 -5.42523 0
M  V30 14463 N 1463.14 2.10462 -6.60059 0
M  V30 14464 N 1464.93 1.87274 -5.29986 0
M  V30 14465 H 1457.08 -0.320216 -2.09972 0
M  V30 14466 H 1459.34 -0.0808021 -0.94455 0
M  V30 14467 H 1459.05 0.293897 -3.5047 0
M  V30 14468 H 1458.92 2.01532 -3.18849 0
M  V30 14469 H 1461.31 1.96939 -2.19771 0
M  V30 14470 H 1461.39 0.236691 -2.54703 0
M  V30 14471 H 1461.04 0.74223 -5.02447 0
M  V30 14472 H 1460.97 2.48139 -4.64472 0
M  V30 14473 H 1463.46 1.41455 -3.50427 0
M  V30 14474 H 1463.77 2.30343 -7.37673 0
M  V30 14475 H 1462.11 2.07817 -6.63202 0
M  V30 14476 H 1465.31 1.67377 -4.37153 0
M  V30 14477 H 1465.48 2.07933 -6.13733 0
M  V30 14478 N 1458.88 1.40823 0.707568 0
M  V30 14479 C 1459.83 1.4191 1.84294 0
M  V30 14480 C 1460.83 0.298592 1.66748 0
M  V30 14481 O 1462.03 0.47003 1.73755 0
M  V30 14482 H 1458.41 0.44376 0.607109 0
M  V30 14483 H 1460.38 2.37623 1.80494 0
M  V30 14484 C 1459.13 1.30643 3.22223 0
M  V30 14485 H 1458.45 2.16145 3.36335 0
M  V30 14486 H 1459.89 1.35463 4.01778 0
M  V30 14487 C 1458.35 0.0174867 3.36895 0
M  V30 14488 O 1458.88 -0.942398 3.90489 0
M  V30 14489 N 1457.09 -0.0546572 2.90549 0
M  V30 14490 H 1456.63 0.727204 2.47122 0
M  V30 14491 H 1456.59 -0.916521 3.00744 0
M  V30 14492 N 1460.36 -0.94061 1.26453 0
M  V30 14493 C 1461.78 -1.21424 1.03578 0
M  V30 14494 C 1461.98 -2.00081 -0.238726 0
M  V30 14495 O 1461.03 -2.3404 -0.947709 0
M  V30 14496 C 1462.35 -1.97496 2.26751 0
M  V30 14497 C 1463.9 -2.10485 2.31657 0
M  V30 14498 C 1464.37 -2.89959 3.54525 0
M  V30 14499 N 1465.86 -2.97533 3.55005 0
M  V30 14500 C 1466.6 -3.59456 4.46742 0
M  V30 14501 N 1466.09 -4.22876 5.48769 0
M  V30 14502 N 1467.89 -3.56734 4.34393 0
M  V30 14503 H 1460.04 -0.414788 2.08311 0
M  V30 14504 H 1462.3 -0.246047 0.915513 0
M  V30 14505 H 1462.01 -1.47109 3.19456 0
M  V30 14506 H 1461.88 -2.98159 2.31043 0
M  V30 14507 H 1464.27 -2.60064 1.39466 0
M  V30 14508 H 1464.35 -1.09082 2.31376 0
M  V30 14509 H 1463.99 -2.41067 4.47045 0
M  V30 14510 H 1463.92 -3.91619 3.52054 0
M  V30 14511 H 1466.41 -2.52446 2.81211 0
M  V30 14512 H 1466.73 -4.68026 6.14956 0
M  V30 14513 H 1465.07 -4.21461 5.52626 0
M  V30 14514 H 1468.26 -3.06381 3.53904 0
M  V30 14515 H 1468.43 -4.04706 5.0608 0
M  V30 14516 N 1461.84 -1.08266 -1.14527 0
M  V30 14517 C 1463.09 -0.812661 -1.85805 0
M  V30 14518 C 1463.42 0.659878 -1.82645 0
M  V30 14519 O 1462.69 1.48498 -1.25612 0
M  V30 14520 C 1462.98 -1.33335 -3.34505 0
M  V30 14521 C 1462.83 -2.87113 -3.46246 0
M  V30 14522 C 1464.15 -0.957435 -4.29559 0
M  V30 14523 H 1461.27 -0.296681 -0.674648 0
M  V30 14524 H 1463.91 -1.34203 -1.34497 0
M  V30 14525 H 1462.06 -0.883056 -3.78331 0
M  V30 14526 H 1463.73 -3.40502 -3.11217 0
M  V30 14527 H 1461.98 -3.24845 -2.87504 0
M  V30 14528 H 1462.65 -3.18618 -4.50762 0
M  V30 14529 H 1465.12 -1.3456 -3.93742 0
M  V30 14530 H 1464 -1.34897 -5.32066 0
M  V30 14531 H 1464.26 0.135689 -4.41892 0
M  V30 14532 N 1463.32 1.31536 -0.86811 0
M  V30 14533 C 1464.27 2.30504 -0.311581 0
M  V30 14534 C 1465.26 1.59439 0.572332 0
M  V30 14535 O 1466.47 1.74059 0.458639 0
M  V30 14536 H 1462.84 0.747508 -0.0820745 0
M  V30 14537 H 1464.81 2.74919 -1.16026 0
M  V30 14538 C 1463.56 3.44459 0.473622 0
M  V30 14539 H 1462.89 3.99313 -0.197259 0
M  V30 14540 H 1464.33 4.15829 0.828393 0
M  V30 14541 C 1462.78 2.92929 1.66416 0
M  V30 14542 O 1463.31 2.91543 2.76344 0
M  V30 14543 N 1461.52 2.49154 1.49568 0
M  V30 14544 H 1461.07 2.50481 0.601408 0
M  V30 14545 H 1461.03 2.15032 2.29366 0
M  V30 14546 N 1464.8 0.627364 1.44575 0
M  V30 14547 C 1466.21 0.292662 1.56894 0
M  V30 14548 C 1466.41 -1.20429 1.61552 0
M  V30 14549 O 1465.47 -1.98819 1.55651 0
M  V30 14550 C 1466.78 0.981267 2.84239 0
M  V30 14551 C 1468.33 0.959053 2.97945 0
M  V30 14552 C 1468.81 1.62805 4.28087 0
M  V30 14553 N 1470.3 1.59446 4.34892 0
M  V30 14554 C 1471.03 2.08107 5.34302 0
M  V30 14555 N 1470.53 2.64942 6.40139 0
M  V30 14556 N 1472.32 1.98758 5.25787 0
M  V30 14557 H 1464.47 1.5991 1.39795 0
M  V30 14558 H 1466.73 0.671019 0.669655 0
M  V30 14559 H 1466.44 2.0361 2.86768 0
M  V30 14560 H 1466.31 0.516703 3.73644 0
M  V30 14561 H 1468.7 -0.0872902 2.94971 0
M  V30 14562 H 1468.78 1.46207 2.09898 0
M  V30 14563 H 1468.43 2.67382 4.31821 0
M  V30 14564 H 1468.36 1.09989 5.14985 0
M  V30 14565 H 1470.85 1.17947 3.59022 0
M  V30 14566 H 1471.16 2.99814 7.12272 0
M  V30 14567 H 1469.51 2.68991 6.40835 0
M  V30 14568 H 1472.7 1.54081 4.42014 0
M  V30 14569 H 1472.87 2.36992 6.03107 0
M  V30 14570 N 1466.28 -1.53251 0.367684 0
M  V30 14571 C 1467.21 -2.28728 -0.469676 0
M  V30 14572 C 1468.19 -1.3124 -1.08213 0
M  V30 14573 O 1469.37 -1.60112 -1.09898 0
M  V30 14574 C 1466.5 -3.07808 -1.60846 0
M  V30 14575 C 1465.46 -4.13 -1.12315 0
M  V30 14576 C 1464.78 -4.80176 -2.35234 0
M  V30 14577 C 1466.08 -5.21892 -0.2064 0
M  V30 14578 H 1467.78 -2.98972 0.160019 0
M  V30 14579 H 1465.32 -1.43786 0.0784011 0
M  V30 14580 H 1467.27 -3.59358 -2.20091 0
M  V30 14581 H 1466 -2.35258 -2.26542 0
M  V30 14582 H 1464.66 -3.62399 -0.553378 0
M  V30 14583 H 1464.31 -4.04196 -2.99391 0
M  V30 14584 H 1464.01 -5.51261 -2.03433 0
M  V30 14585 H 1465.53 -5.34521 -2.9516 0
M  V30 14586 H 1466.94 -5.68932 -0.706386 0
M  V30 14587 H 1465.34 -6.00096 0.0208362 0
M  V30 14588 H 1466.41 -4.79051 0.750851 0
M  V30 14589 N 1467.75 -0.0969077 -1.57302 0
M  V30 14590 C 1468.98 0.574705 -1.98758 0
M  V30 14591 C 1469.4 1.61612 -0.976067 0
M  V30 14592 O 1468.75 1.82468 0.0340803 0
M  V30 14593 C 1468.8 1.22078 -3.40263 0
M  V30 14594 O 1468.53 0.221022 -4.37542 0
M  V30 14595 C 1470.03 1.97783 -3.96732 0
M  V30 14596 H 1467.25 0.153934 -0.653104 0
M  V30 14597 H 1469.79 -0.17673 -2.03735 0
M  V30 14598 H 1467.95 1.92314 -3.36295 0
M  V30 14599 H 1468.36 0.687583 -5.19974 0
M  V30 14600 H 1469.83 2.38346 -4.97891 0
M  V30 14601 H 1470.31 2.8444 -3.3465 0
M  V30 14602 H 1470.92 1.3236 -4.04179 0
M  V30 14603 N 1469.23 1.56605 0.176793 0
M  V30 14604 C 1470.48 1.81324 0.892535 0
M  V30 14605 C 1470.8 0.67301 1.83018 0
M  V30 14606 O 1470.07 -0.307498 1.93472 0
M  V30 14607 H 1468.65 0.668881 0.332576 0
M  V30 14608 H 1471.31 1.94086 0.17792 0
M  V30 14609 H 1470.41 2.75168 1.47272 0
M  V30 14610 N 1470.71 -0.445159 1.51182 0
M  V30 14611 C 1471.64 -1.5473 1.74874 0
M  V30 14612 C 1472.62 -1.5923 0.598323 0
M  V30 14613 O 1473.81 -1.75083 0.840219 0
M  V30 14614 C 1470.94 -2.92872 1.86664 0
M  V30 14615 C 1469.89 -3.03235 3.02048 0
M  V30 14616 C 1469.22 -4.43279 2.99012 0
M  V30 14617 C 1470.52 -2.7804 4.42144 0
M  V30 14618 H 1472.21 -1.35156 2.67158 0
M  V30 14619 H 1469.76 -0.648763 1.28558 0
M  V30 14620 H 1471.71 -3.69927 2.01822 0
M  V30 14621 H 1470.43 -3.1366 0.910225 0
M  V30 14622 H 1469.09 -2.28617 2.86583 0
M  V30 14623 H 1468.74 -4.61023 2.01163 0
M  V30 14624 H 1468.44 -4.51144 3.76488 0
M  V30 14625 H 1469.96 -5.22319 3.16252 0
M  V30 14626 H 1471.38 -3.44831 4.58 0
M  V30 14627 H 1469.77 -2.97323 5.21267 0
M  V30 14628 H 1470.84 -1.737 4.52721 0
M  V30 14629 N 1472.19 -1.41197 -0.700089 0
M  V30 14630 C 1473.12 -1.38616 -1.82533 0
M  V30 14631 C 1474.13 -0.289047 -1.60213 0
M  V30 14632 O 1475.32 -0.550465 -1.698 0
M  V30 14633 C 1472.42 -1.13815 -3.19217 0
M  V30 14634 C 1471.59 -2.3548 -3.68603 0
M  V30 14635 C 1470.65 -2.06604 -4.83943 0
M  V30 14636 O 1469.68 -2.79604 -4.95792 0
M  V30 14637 N 1470.88 -1.05351 -5.7086 0
M  V30 14638 H 1473.65 -2.35598 -1.8524 0
M  V30 14639 H 1471.21 -1.3575 -0.882238 0
M  V30 14640 H 1473.2 -0.924571 -3.93997 0
M  V30 14641 H 1471.77 -0.254468 -3.11563 0
M  V30 14642 H 1470.99 -2.72569 -2.8478 0
M  V30 14643 H 1472.28 -3.16553 -3.98336 0
M  V30 14644 H 1471.68 -0.449223 -5.63914 0
M  V30 14645 H 1470.23 -0.899819 -6.45559 0
M  V30 14646 N 1473.67 0.933891 -1.2695 0
M  V30 14647 C 1474.6 2.05078 -1.11649 0
M  V30 14648 C 1475.58 1.70089 -0.0196463 0
M  V30 14649 O 1476.76 1.93239 -0.193007 0
M  V30 14650 C 1473.89 3.38963 -0.756387 0
M  V30 14651 C 1472.85 3.88041 -1.80577 0
M  V30 14652 C 1472.17 5.18661 -1.2998 0
M  V30 14653 C 1473.47 4.12116 -3.2087 0
M  V30 14654 H 1475.17 2.18137 -2.05077 0
M  V30 14655 H 1472.71 1.04817 -0.987392 0
M  V30 14656 H 1474.66 4.1657 -0.63619 0
M  V30 14657 H 1473.39 3.25901 0.213607 0
M  V30 14658 H 1472.05 3.12622 -1.91477 0
M  V30 14659 H 1471.7 5.01985 -0.319442 0
M  V30 14660 H 1471.4 5.52467 -2.00134 0
M  V30 14661 H 1472.92 5.98844 -1.19242 0
M  V30 14662 H 1474.33 4.80312 -3.13006 0
M  V30 14663 H 1472.73 4.57218 -3.88679 0
M  V30 14664 H 1473.8 3.17633 -3.66384 0
M  V30 14665 N 1475.14 1.08871 1.13951 0
M  V30 14666 C 1476.55 0.841552 1.66658 0
M  V30 14667 C 1476.91 -0.630932 1.85779 0
M  V30 14668 O 1476.03 -1.48673 1.57243 0
M  V30 14669 C 1476.63 1.52109 3.02735 0
M  V30 14670 C 1475.18 1.32105 3.52456 0
M  V30 14671 C 1474.33 1.58084 2.27826 0
M  V30 14672 H 1477.28 1.24865 0.97951 0
M  V30 14673 H 1477.3 0.950978 3.68425 0
M  V30 14674 H 1476.82 2.59276 2.88786 0
M  V30 14675 H 1474.92 0.270294 3.71618 0
M  V30 14676 H 1475.03 2.05197 4.32933 0
M  V30 14677 H 1473.39 1.00264 2.34135 0
M  V30 14678 H 1474.18 2.66467 2.16449 0
M  V30 14679 N 1476.62 -1.31073 0.875073 0
M  V30 14680 C 1478.03 -1.78707 0.540422 0
M  V30 14681 C 1478.38 -1.72056 -0.942935 0
M  V30 14682 O 1477.51 -1.29139 -1.73643 0
M  V30 14683 C 1478.1 -3.24491 0.974203 0
M  V30 14684 C 1476.66 -3.70001 0.691127 0
M  V30 14685 C 1475.81 -2.51748 1.16269 0
M  V30 14686 H 1478.76 -1.18083 1.06029 0
M  V30 14687 H 1478.78 -3.79323 0.299003 0
M  V30 14688 H 1478.29 -3.29301 2.05384 0
M  V30 14689 H 1476.39 -3.70688 -0.376937 0
M  V30 14690 H 1476.51 -4.61913 1.27173 0
M  V30 14691 H 1474.87 -2.47954 0.582302 0
M  V30 14692 H 1475.65 -2.59299 2.24986 0
M  V30 14693 N 1478.1 -0.635022 -1.4424 0
M  V30 14694 C 1479.33 -0.14826 -2.06368 0
M  V30 14695 C 1479.74 1.17875 -1.47482 0
M  V30 14696 O 1479.1 1.72384 -0.599168 0
M  V30 14697 C 1479.15 -0.031519 -3.61486 0
M  V30 14698 O 1478.87 -1.30605 -4.18179 0
M  V30 14699 C 1480.37 0.483479 -4.40656 0
M  V30 14700 H 1477.59 -0.081472 -0.666036 0
M  V30 14701 H 1480.14 -0.870526 -1.85046 0
M  V30 14702 H 1478.29 0.641208 -3.82057 0
M  V30 14703 H 1478.71 -1.15341 -5.11661 0
M  V30 14704 H 1480.18 0.514164 -5.496 0
M  V30 14705 H 1480.66 1.51129 -4.12379 0
M  V30 14706 H 1481.26 -0.156131 -4.25013 0
M  V30 14707 N 1479.58 1.53054 -0.375806 0
M  V30 14708 C 1480.82 2.017 0.210985 0
M  V30 14709 C 1481.16 1.26228 1.47581 0
M  V30 14710 O 1480.43 0.358869 1.91161 0
M  V30 14711 C 1480.72 3.56715 0.492596 0
M  V30 14712 C 1480.57 4.42869 -0.786573 0
M  V30 14713 C 1481.89 4.20803 1.28891 0
M  V30 14714 H 1479.01 0.733153 0.0752084 0
M  V30 14715 H 1481.65 1.83229 -0.502715 0
M  V30 14716 H 1479.8 3.72585 1.10059 0
M  V30 14717 H 1481.47 4.38777 -1.42381 0
M  V30 14718 H 1479.71 4.10425 -1.40478 0
M  V30 14719 H 1480.38 5.49309 -0.544354 0
M  V30 14720 H 1482.86 4.08828 0.774498 0
M  V30 14721 H 1481.74 5.29273 1.45469 0
M  V30 14722 H 1482 3.77541 2.30033 0
M  V30 14723 N 1481.06 0.105248 1.57248 0
M  V30 14724 C 1482.3 -0.556878 1.95004 0
M  V30 14725 C 1482.64 -1.672 0.987818 0
M  V30 14726 O 1481.91 -1.94487 0.022616 0
M  V30 14727 C 1482.19 -1.10252 3.42807 0
M  V30 14728 C 1482.05 0.00823908 4.49799 0
M  V30 14729 C 1483.37 -1.99774 3.92146 0
M  V30 14730 H 1480.48 -0.200959 0.709073 0
M  V30 14731 H 1483.13 0.178019 1.89164 0
M  V30 14732 H 1481.28 -1.7288 3.47915 0
M  V30 14733 H 1482.95 0.642944 4.56797 0
M  V30 14734 H 1481.19 0.673265 4.28544 0
M  V30 14735 H 1481.86 -0.414538 5.50441 0
M  V30 14736 H 1484.34 -1.47036 3.89255 0
M  V30 14737 H 1483.21 -2.34874 4.9611 0
M  V30 14738 H 1483.48 -2.91902 3.32033 0
M  V30 14739 N 1482.53 -1.56697 -0.168486 0
M  V30 14740 C 1483.78 -1.82154 -0.884654 0
M  V30 14741 C 1484.11 -0.682778 -1.82122 0
M  V30 14742 O 1483.36 0.32977 -1.92902 0
M  V30 14743 C 1483.66 -3.138 -1.71068 0
M  V30 14744 C 1483.33 -4.41356 -0.922793 0
M  V30 14745 C 1481.99 -4.76002 -0.705352 0
M  V30 14746 C 1484.34 -5.19883 -0.370323 0
M  V30 14747 C 1481.67 -5.86651 0.0756121 0
M  V30 14748 C 1484.02 -6.31349 0.397568 0
M  V30 14749 C 1482.69 -6.6456 0.625782 0
M  V30 14750 H 1481.96 -0.666549 -0.323718 0
M  V30 14751 H 1484.6 -1.90916 -0.149432 0
M  V30 14752 H 1482.91 -3.00393 -2.51538 0
M  V30 14753 H 1484.61 -3.30708 -2.2679 0
M  V30 14754 H 1481.2 -4.14182 -1.10231 0
M  V30 14755 H 1485.38 -4.93509 -0.525646 0
M  V30 14756 H 1480.64 -6.10838 0.262137 0
M  V30 14757 H 1484.81 -6.91401 0.832902 0
M  V30 14758 H 1482.44 -7.50137 1.23281 0
M  V30 14759 N 1484.01 0.437135 -1.51416 0
M  V30 14760 C 1484.94 1.54894 -1.68939 0
M  V30 14761 C 1485.96 1.52493 -0.570059 0
M  V30 14762 O 1487.15 1.57266 -0.844381 0
M  V30 14763 C 1484.25 2.9381 -1.68904 0
M  V30 14764 C 1483.42 3.20714 -2.97425 0
M  V30 14765 C 1482.48 4.39355 -2.89575 0
M  V30 14766 O 1481.5 4.37999 -3.63519 0
M  V30 14767 N 1482.71 5.42931 -2.05441 0
M  V30 14768 H 1485.47 1.40267 -2.64849 0
M  V30 14769 H 1483.03 0.626075 -1.49305 0
M  V30 14770 H 1485.02 3.71201 -1.61221 0
M  V30 14771 H 1483.59 3.02034 -0.805871 0
M  V30 14772 H 1482.81 2.31621 -3.18975 0
M  V30 14773 H 1484.1 3.35516 -3.825 0
M  V30 14774 H 1483.5 5.4687 -1.44742 0
M  V30 14775 H 1482.06 6.19173 -2.03636 0
M  V30 14776 N 1485.49 1.41566 0.692592 0
M  V30 14777 C 1486.44 1.40114 1.79867 0
M  V30 14778 C 1487.42 0.275064 1.58531 0
M  V30 14779 O 1488.62 0.515959 1.69313 0
M  V30 14780 C 1485.75 1.28865 3.18196 0
M  V30 14781 C 1484.83 2.46347 3.45216 0
M  V30 14782 N 1485.22 3.71808 3.42918 0
M  V30 14783 C 1483.52 2.40224 3.75777 0
M  V30 14784 C 1484.22 4.49743 3.68926 0
M  V30 14785 N 1483.2 3.79898 3.88817 0
M  V30 14786 H 1487 2.35032 1.76457 0
M  V30 14787 H 1484.51 1.35663 0.892705 0
M  V30 14788 H 1486.51 1.25907 3.97433 0
M  V30 14789 H 1485.17 0.349339 3.22815 0
M  V30 14790 H 1486.18 4.04652 3.2323 0
M  V30 14791 H 1482.86 1.54781 3.87749 0
M  V30 14792 H 1484.25 5.58683 3.7326 0
M  V30 14793 N 1486.97 -0.927146 1.27443 0
M  V30 14794 C 1488.38 -1.48984 1.1252 0
M  V30 14795 C 1488.73 -1.94051 -0.289602 0
M  V30 14796 O 1487.86 -1.8123 -1.18257 0
M  V30 14797 C 1488.45 -2.70765 2.03646 0
M  V30 14798 C 1487.01 -3.23256 1.92827 0
M  V30 14799 C 1486.16 -1.95991 1.9617 0
M  V30 14800 H 1489.11 -0.741196 1.40328 0
M  V30 14801 H 1489.13 -3.45567 1.5926 0
M  V30 14802 H 1488.64 -2.37933 3.0661 0
M  V30 14803 H 1486.74 -3.60845 0.928516 0
M  V30 14804 H 1486.85 -3.89413 2.79096 0
M  V30 14805 H 1485.22 -2.12508 1.40402 0
M  V30 14806 H 1486 -1.65473 3.00788 0
M  V30 14807 N 1488.45 -1.09474 -1.13372 0
M  V30 14808 C 1489.67 -0.852921 -1.88502 0
M  V30 14809 C 1490.09 0.595855 -1.79151 0
M  V30 14810 O 1489.45 1.41019 -1.15845 0
M  V30 14811 C 1489.5 -1.27993 -3.38083 0
M  V30 14812 O 1489.22 -2.67189 -3.47191 0
M  V30 14813 C 1490.72 -1.07056 -4.30179 0
M  V30 14814 H 1487.94 -0.30682 -0.596743 0
M  V30 14815 H 1490.48 -1.45685 -1.43513 0
M  V30 14816 H 1488.64 -0.719879 -3.80653 0
M  V30 14817 H 1489.05 -2.85202 -4.40182 0
M  V30 14818 H 1490.53 -1.4186 -5.3346 0
M  V30 14819 H 1491 -0.00838732 -4.39199 0
M  V30 14820 H 1491.61 -1.61659 -3.93378 0
M  V30 14821 N 1489.92 1.30607 -0.882012 0
M  V30 14822 C 1491.34 1.78418 -0.549892 0
M  V30 14823 C 1491.69 1.72553 0.933797 0
M  V30 14824 O 1490.81 1.30058 1.72956 0
M  V30 14825 C 1491.41 3.2397 -0.991398 0
M  V30 14826 C 1489.97 3.69629 -0.710739 0
M  V30 14827 C 1489.11 2.51127 -1.17602 0
M  V30 14828 H 1492.06 1.17519 -1.06653 0
M  V30 14829 H 1492.08 3.79159 -0.319115 0
M  V30 14830 H 1491.6 3.28207 -2.07128 0
M  V30 14831 H 1489.7 3.70883 0.357273 0
M  V30 14832 H 1489.81 4.61232 -1.29621 0
M  V30 14833 H 1488.17 2.47642 -0.595444 0
M  V30 14834 H 1488.96 2.58103 -2.26358 0
M  V30 14835 N 1491.4 0.642663 1.43901 0
M  V30 14836 C 1492.65 0.152003 2.0223 0
M  V30 14837 C 1492.98 -1.22711 1.50518 0
M  V30 14838 O 1492.26 -1.817 0.693937 0
M  V30 14839 C 1492.54 0.151278 3.59782 0
M  V30 14840 C 1492.39 1.56356 4.2175 0
M  V30 14841 C 1493.71 -0.518016 4.37041 0
M  V30 14842 H 1490.83 0.0567094 0.734815 0
M  V30 14843 H 1493.47 0.821337 1.7133 0
M  V30 14844 H 1491.62 -0.418679 3.86237 0
M  V30 14845 H 1493.29 2.18329 4.06362 0
M  V30 14846 H 1491.54 2.11401 3.78803 0
M  V30 14847 H 1492.21 1.51499 5.30803 0
M  V30 14848 H 1494.68 -0.0331947 4.16087 0
M  V30 14849 H 1493.56 -0.487754 5.46729 0
M  V30 14850 H 1493.82 -1.59036 4.12504 0
M  V30 14851 N 1492.88 -1.52852 0.383918 0
M  V30 14852 C 1493.84 -2.24904 -0.441687 0
M  V30 14853 C 1494.84 -1.26345 -0.99466 0
M  V30 14854 O 1496.03 -1.50484 -0.877513 0
M  V30 14855 C 1493.17 -2.99994 -1.61915 0
M  V30 14856 H 1494.36 -2.99304 0.189047 0
M  V30 14857 H 1491.91 -1.55708 0.135932 0
M  V30 14858 H 1492.65 -2.29882 -2.28746 0
M  V30 14859 H 1492.43 -3.72328 -1.2294 0
M  V30 14860 H 1493.92 -3.54716 -2.20378 0
M  V30 14861 N 1494.36 -0.113586 -1.5719 0
M  V30 14862 C 1495.29 0.835363 -2.18046 0
M  V30 14863 C 1496.27 1.28114 -1.11897 0
M  V30 14864 O 1497.46 1.34472 -1.40111 0
M  V30 14865 C 1494.59 2.08759 -2.77556 0
M  V30 14866 C 1493.54 1.77979 -3.8924 0
M  V30 14867 C 1492.87 3.10185 -4.35533 0
M  V30 14868 C 1494.17 1.05231 -5.11589 0
M  V30 14869 H 1495.86 0.328275 -2.97595 0
M  V30 14870 H 1493.41 0.156456 -1.43148 0
M  V30 14871 H 1495.36 2.75597 -3.18785 0
M  V30 14872 H 1494.08 2.61783 -1.95288 0
M  V30 14873 H 1492.74 1.13532 -3.48577 0
M  V30 14874 H 1492.39 3.61133 -3.50131 0
M  V30 14875 H 1492.09 2.90367 -5.10843 0
M  V30 14876 H 1493.61 3.78151 -4.7941 0
M  V30 14877 H 1495.03 1.62213 -5.49872 0
M  V30 14878 H 1493.42 0.955269 -5.92448 0
M  V30 14879 H 1494.49 0.038137 -4.84885 0
M  V30 14880 N 1495.84 1.56784 0.160173 0
M  V30 14881 C 1496.8 1.96373 1.18195 0
M  V30 14882 C 1497.8 0.848674 1.3658 0
M  V30 14883 O 1498.99 1.11553 1.33796 0
M  V30 14884 C 1496.12 2.26824 2.54487 0
M  V30 14885 H 1497.32 2.87819 0.842641 0
M  V30 14886 H 1494.87 1.51014 0.403038 0
M  V30 14887 H 1495.6 1.38129 2.93413 0
M  V30 14888 H 1495.39 3.08112 2.42507 0
M  V30 14889 H 1496.88 2.58337 3.28104 0
M  V30 14890 N 1497.32 -0.429099 1.51646 0
M  V30 14891 C 1498.23 -1.54648 1.76412 0
M  V30 14892 C 1499.24 -1.61455 0.648703 0
M  V30 14893 O 1500.42 -1.78544 0.931888 0
M  V30 14894 C 1497.48 -2.90562 1.89142 0
M  V30 14895 C 1496.54 -2.93804 3.13014 0
M  V30 14896 C 1495.78 -4.23235 3.25127 0
M  V30 14897 O 1496 -5.1606 2.42979 0
M  V30 14898 O 1494.93 -4.32929 4.18158 0
M  V30 14899 H 1498.76 -1.36661 2.71215 0
M  V30 14900 H 1496.34 -0.612946 1.36247 0
M  V30 14901 H 1498.23 -3.7121 1.99453 0
M  V30 14902 H 1496.9 -3.08659 0.975272 0
M  V30 14903 H 1495.81 -2.12082 3.08175 0
M  V30 14904 H 1497.14 -2.80654 4.04344 0
M  V30 14905 N 1498.79 -1.41931 -0.685074 0
M  V30 14906 C 1500.21 -1.24631 -0.996957 0
M  V30 14907 C 1500.41 -0.143146 -2.00991 0
M  V30 14908 O 1499.47 0.489012 -2.47719 0
M  V30 14909 C 1500.78 -2.59947 -1.51156 0
M  V30 14910 C 1502.33 -2.67216 -1.62986 0
M  V30 14911 C 1502.8 -4.02874 -2.17845 0
M  V30 14912 N 1504.29 -4.04775 -2.25192 0
M  V30 14913 C 1505.03 -5.0655 -2.68691 0
M  V30 14914 N 1504.52 -6.18712 -3.11717 0
M  V30 14915 N 1506.32 -4.93909 -2.68348 0
M  V30 14916 H 1498.47 -2.12395 -0.0142223 0
M  V30 14917 H 1500.73 -0.945496 -0.0688552 0
M  V30 14918 H 1500.44 -3.41477 -0.841793 0
M  V30 14919 H 1500.31 -2.83159 -2.49201 0
M  V30 14920 H 1502.7 -1.86038 -2.29071 0
M  V30 14921 H 1502.78 -2.47804 -0.634584 0
M  V30 14922 H 1502.42 -4.84505 -1.52372 0
M  V30 14923 H 1502.35 -4.19633 -3.18144 0
M  V30 14924 H 1504.84 -3.23798 -1.94841 0
M  V30 14925 H 1505.16 -6.9223 -3.43565 0
M  V30 14926 H 1503.5 -6.22232 -3.096 0
M  V30 14927 H 1506.69 -4.05364 -2.34089 0
M  V30 14928 H 1506.87 -5.73361 -3.01929 0
M  V30 14929 N 1500.27 0.920374 -1.27933 0
M  V30 14930 C 1501.52 1.66338 -1.14081 0
M  V30 14931 C 1501.83 1.93107 0.311324 0
M  V30 14932 O 1503.04 2.65431 0.570862 0
M  V30 14933 C 1501.5 2.99624 -1.99383 0
M  V30 14934 C 1501.1 2.80527 -3.49297 0
M  V30 14935 C 1502.85 3.77474 -1.94199 0
M  V30 14936 C 1500.75 4.09413 -4.26773 0
M  V30 14937 H 1499.68 0.623935 -0.423346 0
M  V30 14938 H 1502.34 1.0219 -1.52412 0
M  V30 14939 H 1500.72 3.6487 -1.53902 0
M  V30 14940 H 1501.89 2.24002 -4.02691 0
M  V30 14941 H 1500.21 2.16097 -3.55937 0
M  V30 14942 H 1502.8 4.72997 -2.49356 0
M  V30 14943 H 1503.15 4.06069 -0.917249 0
M  V30 14944 H 1503.68 3.19036 -2.37614 0
M  V30 14945 H 1500.42 3.85994 -5.29801 0
M  V30 14946 H 1499.94 4.65574 -3.78155 0
M  V30 14947 H 1501.62 4.77721 -4.36339 0
M  V30 14948 N 1501.75 1.10074 1.1279 0
M  V30 14949 C 1502.97 0.863106 1.88587 0
M  V30 14950 C 1503.4 -0.580595 1.78915 0
M  V30 14951 O 1502.76 -1.40859 1.14142 0
M  V30 14952 C 1502.81 1.31142 3.35908 0
M  V30 14953 O 1501.91 0.474088 4.09666 0
M  V30 14954 H 1501.25 0.312034 0.586115 0
M  V30 14955 H 1503.78 1.46659 1.42662 0
M  V30 14956 H 1503.79 1.29974 3.86744 0
M  V30 14957 H 1502.47 2.36279 3.42265 0
M  V30 14958 H 1501.04 0.550665 3.68812 0
M  V30 14959 N 1503.23 -1.30138 0.888926 0
M  V30 14960 C 1504.5 -1.90831 0.42928 0
M  V30 14961 C 1504.88 -1.80765 -1.09028 0
M  V30 14962 O 1504.23 -1.22741 -1.92735 0
M  V30 14963 C 1504.44 -3.36331 0.931798 0
M  V30 14964 C 1505.79 -4.13393 0.969106 0
M  V30 14965 O 1506.81 -3.45191 0.878731 0
M  V30 14966 O 1505.67 -5.35249 1.10323 0
M  V30 14967 H 1502.77 -0.816401 0.131976 0
M  V30 14968 H 1505.31 -1.38678 0.978086 0
M  V30 14969 H 1504.09 -3.37761 1.97568 0
M  V30 14970 H 1503.71 -3.95945 0.362383 0
M  V30 14971 N 1504.71 -0.650285 -1.43559 0
M  V30 14972 C 1505.62 0.0438076 -2.34559 0
M  V30 14973 C 1506.63 0.815316 -1.53716 0
M  V30 14974 O 1507.81 0.76323 -1.86378 0
M  V30 14975 C 1504.87 1.00028 -3.31957 0
M  V30 14976 C 1503.93 0.226027 -4.28705 0
M  V30 14977 C 1503.17 1.13694 -5.21449 0
M  V30 14978 O 1503.39 2.37614 -5.18551 0
M  V30 14979 O 1502.32 0.610924 -5.98792 0
M  V30 14980 H 1506.15 -0.705152 -2.954 0
M  V30 14981 H 1503.73 -0.410471 -1.43651 0
M  V30 14982 H 1505.62 1.55004 -3.91857 0
M  V30 14983 H 1504.29 1.72952 -2.73623 0
M  V30 14984 H 1503.2 -0.367244 -3.72293 0
M  V30 14985 H 1504.53 -0.463582 -4.90012 0
M  V30 14986 N 1506.18 1.52647 -0.392018 0
M  V30 14987 C 1507.11 2.29446 0.433228 0
M  V30 14988 C 1508.09 1.32945 1.06111 0
M  V30 14989 O 1509.28 1.61841 1.07337 0
M  V30 14990 C 1506.41 3.10328 1.55929 0
M  V30 14991 C 1505.36 4.14735 1.05731 0
M  V30 14992 C 1504.69 4.83858 2.27565 0
M  V30 14993 C 1505.99 5.22154 0.123346 0
M  V30 14994 H 1507.68 2.9868 -0.207563 0
M  V30 14995 H 1505.23 1.43643 -0.101266 0
M  V30 14996 H 1507.18 3.62814 2.14346 0
M  V30 14997 H 1505.91 2.38832 2.22771 0
M  V30 14998 H 1504.57 3.63234 0.495653 0
M  V30 14999 H 1504.21 4.08907 2.92923 0
M  V30 15000 H 1503.91 5.54428 1.94637 0
M  V30 15001 H 1505.44 5.39149 2.86619 0
M  V30 15002 H 1506.85 5.69983 0.615784 0
M  V30 15003 H 1505.25 5.99987 -0.116304 0
M  V30 15004 H 1506.32 4.77796 -0.826969 0
M  V30 15005 N 1507.66 0.121921 1.57128 0
M  V30 15006 C 1508.63 -0.812905 2.143 0
M  V30 15007 C 1509.63 -1.19261 1.07858 0
M  V30 15008 O 1510.82 -1.11764 1.33621 0
M  V30 15009 C 1507.95 -2.09969 2.68562 0
M  V30 15010 H 1509.14 -0.315992 2.98231 0
M  V30 15011 H 1506.69 -0.12734 1.5578 0
M  V30 15012 H 1507.43 -2.64085 1.88228 0
M  V30 15013 H 1507.21 -1.83688 3.46412 0
M  V30 15014 H 1508.7 -2.76788 3.12695 0
M  V30 15015 N 1509.14 -1.56867 -0.151857 0
M  V30 15016 C 1510.05 -2.01157 -1.20718 0
M  V30 15017 C 1511.07 -0.926166 -1.47303 0
M  V30 15018 O 1512.24 -1.23528 -1.59069 0
M  V30 15019 C 1509.31 -2.37915 -2.52185 0
M  V30 15020 C 1508.37 -3.60381 -2.3329 0
M  V30 15021 C 1507.6 -3.95376 -3.58488 0
M  V30 15022 O 1507.82 -3.31093 -4.64471 0
M  V30 15023 O 1506.76 -4.88645 -3.5144 0
M  V30 15024 H 1510.58 -2.91234 -0.861175 0
M  V30 15025 H 1508.17 -1.44993 -0.360213 0
M  V30 15026 H 1510.05 -2.6244 -3.29702 0
M  V30 15027 H 1508.73 -1.50995 -2.86325 0
M  V30 15028 H 1507.63 -3.4105 -1.5374 0
M  V30 15029 H 1508.97 -4.47903 -2.04067 0
M  V30 15030 N 1510.62 0.421051 -1.51871 0
M  V30 15031 C 1512.03 0.758781 -1.40409 0
M  V30 15032 C 1512.23 1.95219 -0.499197 0
M  V30 15033 O 1511.29 2.52469 0.0395216 0
M  V30 15034 C 1512.6 1.02388 -2.82731 0
M  V30 15035 C 1514.15 1.12733 -2.91994 0
M  V30 15036 C 1514.63 1.42527 -4.35259 0
M  V30 15037 N 1516.12 1.49417 -4.38439 0
M  V30 15038 C 1516.85 1.74074 -5.46339 0
M  V30 15039 N 1516.35 1.96414 -6.64375 0
M  V30 15040 N 1518.14 1.7599 -5.33839 0
M  V30 15041 H 1510.29 -0.364682 -2.09246 0
M  V30 15042 H 1512.56 -0.100819 -0.942624 0
M  V30 15043 H 1512.26 0.219491 -3.51014 0
M  V30 15044 H 1512.14 1.94724 -3.23052 0
M  V30 15045 H 1514.52 1.92233 -2.23899 0
M  V30 15046 H 1514.6 0.182611 -2.55147 0
M  V30 15047 H 1514.25 0.635486 -5.03909 0
M  V30 15048 H 1514.18 2.38231 -4.69631 0
M  V30 15049 H 1516.67 1.3399 -3.53348 0
M  V30 15050 H 1516.98 2.14644 -7.42393 0
M  V30 15051 H 1515.33 1.93702 -6.67461 0
M  V30 15052 H 1518.52 1.58067 -4.40605 0
M  V30 15053 H 1518.69 1.94868 -6.18005 0
M  V30 15054 N 1512.1 1.42293 0.677538 0
M  V30 15055 C 1513.04 1.45787 1.81243 0
M  V30 15056 C 1514.04 0.333895 1.66077 0
M  V30 15057 O 1515.24 0.50678 1.72719 0
M  V30 15058 H 1511.62 0.456538 0.597559 0
M  V30 15059 H 1513.59 2.41398 1.75413 0
M  V30 15060 C 1512.34 1.37449 3.19379 0
M  V30 15061 H 1511.66 2.23231 3.31674 0
M  V30 15062 H 1513.1 1.43955 3.98814 0
M  V30 15063 C 1511.56 0.0889433 3.36783 0
M  V30 15064 O 1512.09 -0.859357 3.924 0
M  V30 15065 N 1510.3 0.00698476 2.90599 0
M  V30 15066 H 1509.84 0.779459 2.45524 0
M  V30 15067 H 1509.8 -0.852522 3.02621 0
M  V30 15068 N 1513.57 -0.913576 1.28419 0
M  V30 15069 C 1514.82 -1.66546 1.16765 0
M  V30 15070 C 1515.18 -1.90338 -0.280935 0
M  V30 15071 O 1514.47 -1.49279 -1.2011 0
M  V30 15072 C 1514.66 -3.02722 1.89985 0
M  V30 15073 C 1514.49 -2.9222 3.41815 0
M  V30 15074 C 1513.26 -2.93735 4.11154 0
M  V30 15075 C 1515.46 -2.70279 4.37554 0
M  V30 15076 N 1513.44 -2.73824 5.49448 0
M  V30 15077 C 1514.81 -2.59213 5.63213 0
M  V30 15078 C 1516.87 -2.55278 4.27478 0
M  V30 15079 C 1515.57 -2.34673 6.79942 0
M  V30 15080 C 1517.6 -2.32118 5.43944 0
M  V30 15081 C 1516.96 -2.21806 6.68567 0
M  V30 15082 H 1513.06 -0.615629 0.482208 0
M  V30 15083 H 1515.64 -1.07892 1.62072 0
M  V30 15084 H 1513.81 -3.59462 1.47112 0
M  V30 15085 H 1515.54 -3.66932 1.70714 0
M  V30 15086 H 1512.3 -3.04498 3.62736 0
M  V30 15087 H 1512.72 -2.6696 6.22143 0
M  V30 15088 H 1517.37 -2.62001 3.31836 0
M  V30 15089 H 1515.08 -2.26689 7.75653 0
M  V30 15090 H 1518.67 -2.21375 5.38038 0
M  V30 15091 H 1517.55 -2.0413 7.57166 0
M  V30 15092 N 1515.05 -1.1067 -1.12204 0
M  V30 15093 C 1516.02 -0.761145 -2.16193 0
M  V30 15094 C 1517.02 0.215599 -1.59348 0
M  V30 15095 O 1518.21 -0.00786723 -1.74198 0
M  V30 15096 C 1515.34 -0.127863 -3.4066 0
M  V30 15097 H 1516.53 -1.68225 -2.48275 0
M  V30 15098 H 1514.08 -0.907542 -1.27253 0
M  V30 15099 H 1514.82 0.803851 -3.14179 0
M  V30 15100 H 1514.6 -0.83085 -3.83196 0
M  V30 15101 H 1516.09 0.0980593 -4.17485 0
M  V30 15102 N 1516.53 1.29665 -0.895815 0
M  V30 15103 C 1517.78 1.96006 -0.520522 0
M  V30 15104 C 1518.11 1.7048 0.930068 0
M  V30 15105 O 1517.38 1.01558 1.6588 0
M  V30 15106 C 1517.67 3.50897 -0.808925 0
M  V30 15107 C 1517.52 3.85896 -2.31093 0
M  V30 15108 C 1518.84 4.39125 -0.292769 0
M  V30 15109 H 1515.96 0.711931 -0.190588 0
M  V30 15110 H 1518.6 1.53349 -1.12179 0
M  V30 15111 H 1516.75 3.87362 -0.297194 0
M  V30 15112 H 1518.42 3.59397 -2.89191 0
M  V30 15113 H 1516.67 3.33578 -2.77323 0
M  V30 15114 H 1517.34 4.93989 -2.46331 0
M  V30 15115 H 1519.81 4.0963 -0.730906 0
M  V30 15116 H 1518.69 5.46395 -0.523799 0
M  V30 15117 H 1518.95 4.34683 0.806393 0
M  V30 15118 N 1518.01 0.657889 1.43212 0
M  V30 15119 C 1518.97 -0.0214783 2.2919 0
M  V30 15120 C 1519.97 -0.745921 1.42452 0
M  V30 15121 O 1521.16 -0.586468 1.64031 0
M  V30 15122 C 1518.29 -1.04115 3.24612 0
M  V30 15123 H 1519.49 0.735072 2.90752 0
M  V30 15124 H 1517.04 0.419354 1.50569 0
M  V30 15125 H 1517.77 -1.82677 2.67954 0
M  V30 15126 H 1517.56 -0.525285 3.88566 0
M  V30 15127 H 1519.05 -1.51544 3.89132 0
M  V30 15128 N 1519.49 -1.52437 0.400108 0
M  V30 15129 C 1520.4 -2.30496 -0.436875 0
M  V30 15130 C 1521.41 -1.37851 -1.06175 0
M  V30 15131 O 1522.59 -1.70924 -1.06522 0
M  V30 15132 C 1519.65 -3.10459 -1.54325 0
M  V30 15133 C 1518.71 -4.18829 -0.942367 0
M  V30 15134 C 1517.95 -4.94969 -1.99602 0
M  V30 15135 O 1518.17 -4.71314 -3.21278 0
M  V30 15136 O 1517.1 -5.80043 -1.60728 0
M  V30 15137 H 1520.93 -3.03045 0.199343 0
M  V30 15138 H 1518.52 -1.48502 0.163541 0
M  V30 15139 H 1520.4 -3.60282 -2.18575 0
M  V30 15140 H 1519.07 -2.40713 -2.16423 0
M  V30 15141 H 1517.98 -3.73176 -0.262831 0
M  V30 15142 H 1519.31 -4.90841 -0.365441 0
M  V30 15143 N 1520.96 -0.130252 -1.57061 0
M  V30 15144 C 1522.38 0.393318 -1.8251 0
M  V30 15145 C 1522.73 1.65862 -1.04806 0
M  V30 15146 O 1521.85 2.14473 -0.288118 0
M  V30 15147 C 1522.45 0.720366 -3.31053 0
M  V30 15148 C 1521.01 1.18852 -3.57143 0
M  V30 15149 C 1520.15 0.202964 -2.76556 0
M  V30 15150 H 1523.1 -0.355217 -1.54674 0
M  V30 15151 H 1523.12 1.57671 -3.46295 0
M  V30 15152 H 1522.64 -0.200719 -3.87581 0
M  V30 15153 H 1520.74 2.12612 -3.05985 0
M  V30 15154 H 1520.85 1.12607 -4.65678 0
M  V30 15155 H 1519.21 0.692264 -2.45112 0
M  V30 15156 H 1520 -0.711417 -3.35848 0
M  V30 15157 N 1522.44 1.56945 0.143535 0
M  V30 15158 C 1523.67 1.88067 0.874385 0
M  V30 15159 C 1524.09 0.719645 1.73789 0
M  V30 15160 O 1523.45 -0.330654 1.78259 0
M  V30 15161 C 1523.5 3.17795 1.70408 0
M  V30 15162 O 1522.6 3.01973 2.80867 0
M  V30 15163 H 1521.94 0.617808 0.24333 0
M  V30 15164 H 1524.47 2.04165 0.133309 0
M  V30 15165 H 1524.48 3.49903 2.09838 0
M  V30 15166 H 1523.16 4.019 1.07001 0
M  V30 15167 H 1521.74 2.8128 2.44818 0
M  V30 15168 N 1523.92 -0.412991 1.52093 0
M  V30 15169 C 1525.2 -1.17304 1.56522 0
M  V30 15170 C 1525.58 -2.0828 0.343926 0
M  V30 15171 O 1524.93 -2.18473 -0.669475 0
M  V30 15172 C 1525.14 -1.95371 2.89191 0
M  V30 15173 C 1526.48 -2.51571 3.42048 0
M  V30 15174 O 1527.51 -2.05555 2.90905 0
M  V30 15175 O 1526.37 -3.35563 4.31347 0
M  V30 15176 H 1523.46 -0.535386 0.63031 0
M  V30 15177 H 1526.01 -0.420084 1.64418 0
M  V30 15178 H 1524.78 -1.28701 3.69529 0
M  V30 15179 H 1524.4 -2.7768 2.84569 0
M  V30 15180 N 1525.4 -1.4265 -0.669982 0
M  V30 15181 C 1526.35 -1.42958 -1.77615 0
M  V30 15182 C 1527.33 -0.30025 -1.58074 0
M  V30 15183 O 1528.53 -0.54283 -1.68471 0
M  V30 15184 C 1525.65 -1.33911 -3.16106 0
M  V30 15185 C 1524.74 -2.51808 -3.41253 0
M  V30 15186 N 1525.13 -3.77216 -3.36959 0
M  V30 15187 C 1523.43 -2.46172 -3.71908 0
M  V30 15188 C 1524.13 -4.55555 -3.61724 0
M  V30 15189 N 1523.11 -3.86036 -3.82724 0
M  V30 15190 H 1526.91 -2.3781 -1.72696 0
M  V30 15191 H 1524.42 -1.37066 -0.871009 0
M  V30 15192 H 1526.42 -1.32214 -3.9538 0
M  V30 15193 H 1525.08 -0.400652 -3.22219 0
M  V30 15194 H 1526.09 -4.09743 -3.16751 0
M  V30 15195 H 1522.77 -1.6093 -3.85237 0
M  V30 15196 H 1524.16 -5.6455 -3.64325 0
M  V30 15197 N 1526.88 0.906753 -1.28902 0
M  V30 15198 C 1527.79 2.04313 -1.15296 0
M  V30 15199 C 1528.8 1.73826 -0.0778619 0
M  V30 15200 O 1529.98 1.99322 -0.288543 0
M  V30 15201 C 1527.04 3.36782 -0.823317 0
M  V30 15202 C 1526.11 3.80834 -1.98152 0
M  V30 15203 C 1525.34 5.06981 -1.66751 0
M  V30 15204 O 1525.56 5.67391 -0.58513 0
M  V30 15205 O 1524.5 5.46915 -2.51332 0
M  V30 15206 H 1528.32 2.18713 -2.10709 0
M  V30 15207 H 1525.91 1.02928 -1.08287 0
M  V30 15208 H 1527.79 4.16298 -0.653735 0
M  V30 15209 H 1526.46 3.23542 0.101097 0
M  V30 15210 H 1525.37 3.02115 -2.2063 0
M  V30 15211 H 1526.7 3.98648 -2.88688 0
M  V30 15212 N 1528.36 1.11264 1.11616 0
M  V30 15213 C 1529.29 0.727118 2.17361 0
M  V30 15214 C 1530.3 -0.240356 1.61016 0
M  V30 15215 O 1531.49 -0.0235265 1.78484 0
M  V30 15216 C 1528.59 0.05361 3.38858 0
M  V30 15217 C 1527.76 1.04744 4.24673 0
M  V30 15218 C 1526.82 0.403827 5.24648 0
M  V30 15219 O 1525.85 1.0572 5.59296 0
M  V30 15220 N 1527.05 -0.834071 5.74477 0
M  V30 15221 H 1529.81 1.63696 2.51045 0
M  V30 15222 H 1527.38 1.00261 1.2712 0
M  V30 15223 H 1529.37 -0.388643 4.0283 0
M  V30 15224 H 1527.94 -0.758778 3.03251 0
M  V30 15225 H 1527.16 1.6677 3.57185 0
M  V30 15226 H 1528.45 1.71988 4.7885 0
M  V30 15227 H 1527.84 -1.3841 5.48506 0
M  V30 15228 H 1526.4 -1.21933 6.40293 0
M  V30 15229 N 1529.83 -1.29188 0.902679 0
M  V30 15230 C 1530.8 -2.25901 0.387485 0
M  V30 15231 C 1531.8 -1.53469 -0.479993 0
M  V30 15232 O 1532.99 -1.71859 -0.284623 0
M  V30 15233 C 1530.12 -3.37974 -0.445723 0
M  V30 15234 H 1531.31 -2.72988 1.24167 0
M  V30 15235 H 1528.86 -1.4068 0.681083 0
M  V30 15236 H 1529.6 -2.9623 -1.31977 0
M  V30 15237 H 1529.38 -3.91705 0.175899 0
M  V30 15238 H 1530.87 -4.09917 -0.797384 0
M  V30 15239 N 1531.31 -0.665475 -1.42861 0
M  V30 15240 C 1532.22 0.018927 -2.34592 0
M  V30 15241 C 1533.24 0.798967 -1.54572 0
M  V30 15242 O 1534.41 0.743419 -1.87177 0
M  V30 15243 C 1531.48 0.965013 -3.32999 0
M  V30 15244 C 1530.54 0.180544 -4.2892 0
M  V30 15245 C 1529.77 1.08157 -5.22626 0
M  V30 15246 O 1530 2.32101 -5.21043 0
M  V30 15247 O 1528.93 0.54738 -5.99406 0
M  V30 15248 H 1532.76 -0.736444 -2.94636 0
M  V30 15249 H 1530.34 -0.425684 -1.43207 0
M  V30 15250 H 1532.22 1.50839 -3.93479 0
M  V30 15251 H 1530.9 1.7004 -2.75442 0
M  V30 15252 H 1529.8 -0.40671 -3.71883 0
M  V30 15253 H 1531.14 -0.515529 -4.89493 0
M  V30 15254 N 1532.79 1.52222 -0.408187 0
M  V30 15255 C 1533.7 2.30725 0.424645 0
M  V30 15256 C 1534.72 1.38412 1.05442 0
M  V30 15257 O 1535.89 1.71486 1.05614 0
M  V30 15258 C 1532.96 3.11273 1.52677 0
M  V30 15259 C 1532.02 4.19323 0.920143 0
M  V30 15260 C 1531.25 4.96021 1.96974 0
M  V30 15261 O 1531.47 4.73011 3.18774 0
M  V30 15262 O 1530.41 5.80887 1.5765 0
M  V30 15263 H 1534.23 3.02935 -0.215411 0
M  V30 15264 H 1531.82 1.48413 -0.171414 0
M  V30 15265 H 1533.7 3.61436 2.16661 0
M  V30 15266 H 1532.38 2.41857 2.15144 0
M  V30 15267 H 1531.28 3.7331 0.243037 0
M  V30 15268 H 1532.62 4.91028 0.339405 0
M  V30 15269 N 1534.27 0.138579 1.5699 0
M  V30 15270 C 1535.18 -0.817548 2.19894 0
M  V30 15271 C 1536.19 -1.27806 1.18075 0
M  V30 15272 O 1537.37 -1.33699 1.5062 0
M  V30 15273 C 1534.43 -2.04244 2.80152 0
M  V30 15274 C 1533.5 -1.63197 3.97071 0
M  V30 15275 C 1532.73 -2.79847 4.54446 0
M  V30 15276 O 1532.95 -3.95827 4.10703 0
M  V30 15277 O 1531.89 -2.55804 5.44838 0
M  V30 15278 H 1535.71 -0.312123 3.02092 0
M  V30 15279 H 1533.3 -0.0880281 1.4914 0
M  V30 15280 H 1535.18 -2.75945 3.18485 0
M  V30 15281 H 1533.85 -2.53755 2.00973 0
M  V30 15282 H 1532.76 -0.885448 3.6347 0
M  V30 15283 H 1534.09 -1.1841 4.77745 0
M  V30 15284 N 1535.75 -1.57019 -0.13521 0
M  V30 15285 C 1536.69 -1.99148 -1.16657 0
M  V30 15286 C 1537.66 -0.860947 -1.42045 0
M  V30 15287 O 1538.85 -1.12393 -1.54183 0
M  V30 15288 C 1535.99 -2.3872 -2.49212 0
M  V30 15289 C 1535.1 -3.65117 -2.30898 0
M  V30 15290 C 1534.24 -3.9374 -3.5657 0
M  V30 15291 C 1533.27 -5.1337 -3.33343 0
M  V30 15292 N 1532.41 -5.37945 -4.51176 0
M  V30 15293 H 1537.25 -2.87052 -0.800312 0
M  V30 15294 H 1534.79 -1.42007 -0.383705 0
M  V30 15295 H 1536.75 -2.59695 -3.26518 0
M  V30 15296 H 1535.38 -1.53879 -2.83762 0
M  V30 15297 H 1534.43 -3.5185 -1.44588 0
M  V30 15298 H 1535.74 -4.52578 -2.09701 0
M  V30 15299 H 1534.89 -4.15277 -4.423 0
M  V30 15300 H 1533.63 -3.04723 -3.80782 0
M  V30 15301 H 1532.64 -4.91694 -2.46002 0
M  V30 15302 H 1533.86 -6.0395 -3.10517 0
M  V30 15303 H 1531.81 -4.51884 -4.75539 0
M  V30 15304 H 1531.73 -6.19698 -4.33025 0
M  V30 15305 H 1532.99 -5.63989 -5.38086 0
M  V30 15306 N 1537.22 0.404919 -1.52309 0
M  V30 15307 C 1538.19 1.47627 -1.75325 0
M  V30 15308 C 1539.19 1.48234 -0.623153 0
M  V30 15309 O 1540.38 1.49685 -0.891069 0
M  V30 15310 C 1537.51 2.87013 -1.83947 0
M  V30 15311 H 1538.7 1.2851 -2.70971 0
M  V30 15312 H 1536.26 0.635677 -1.42789 0
M  V30 15313 H 1536.99 3.11495 -0.902309 0
M  V30 15314 H 1536.78 2.87974 -2.66108 0
M  V30 15315 H 1538.27 3.64671 -2.03481 0
M  V30 15316 N 1538.7 1.43003 0.662408 0
M  V30 15317 C 1539.67 1.4713 1.75743 0
M  V30 15318 C 1540.67 0.357203 1.56782 0
M  V30 15319 O 1541.86 0.618566 1.62848 0
M  V30 15320 C 1538.99 1.31499 3.14517 0
M  V30 15321 H 1540.18 2.44641 1.73467 0
M  V30 15322 H 1537.73 1.29633 0.873208 0
M  V30 15323 H 1538.47 0.349596 3.2241 0
M  V30 15324 H 1538.25 2.12253 3.29683 0
M  V30 15325 H 1539.74 1.37298 3.94384 0
M  V30 15326 N 1540.18 -0.899904 1.29381 0
M  V30 15327 C 1541.14 -1.98554 1.14494 0
M  V30 15328 C 1542.14 -1.60599 0.0804732 0
M  V30 15329 O 1543.33 -1.71096 0.327395 0
M  V30 15330 C 1540.47 -3.32529 0.750818 0
M  V30 15331 H 1541.66 -2.13189 2.10928 0
M  V30 15332 H 1539.21 -1.08438 1.12565 0
M  V30 15333 H 1539.95 -3.23595 -0.213668 0
M  V30 15334 H 1539.73 -3.61443 1.51992 0
M  V30 15335 H 1541.22 -4.12195 0.669709 0
M  V30 15336 N 1541.66 -1.11854 -1.11024 0
M  V30 15337 C 1543.07 -0.885443 -1.64368 0
M  V30 15338 C 1543.42 0.581455 -1.87386 0
M  V30 15339 O 1542.55 1.44452 -1.61129 0
M  V30 15340 C 1543.14 -1.60082 -2.98595 0
M  V30 15341 C 1541.7 -1.41403 -3.4883 0
M  V30 15342 C 1540.85 -1.64069 -2.23555 0
M  V30 15343 H 1543.8 -1.27418 -0.94606 0
M  V30 15344 H 1543.82 -1.04832 -3.65774 0
M  V30 15345 H 1543.33 -2.66842 -2.8181 0
M  V30 15346 H 1541.43 -0.368727 -3.70771 0
M  V30 15347 H 1541.54 -2.16603 -4.27341 0
M  V30 15348 H 1539.91 -1.06437 -2.31394 0
M  V30 15349 H 1540.69 -2.72112 -2.09308 0
M  V30 15350 N 1543.14 1.28707 -0.909517 0
M  V30 15351 C 1544.1 2.25692 -0.39946 0
M  V30 15352 C 1545.1 1.53721 0.471848 0
M  V30 15353 O 1546.29 1.72008 0.275504 0
M  V30 15354 C 1543.42 3.38205 0.427793 0
M  V30 15355 H 1544.61 2.72326 -1.25613 0
M  V30 15356 H 1542.17 1.40317 -0.688535 0
M  V30 15357 H 1542.9 2.96926 1.30404 0
M  V30 15358 H 1542.69 3.91606 -0.19667 0
M  V30 15359 H 1544.18 4.10334 0.775634 0
M  V30 15360 N 1544.61 0.673042 1.42506 0
M  V30 15361 C 1545.86 0.194192 2.01165 0
M  V30 15362 C 1546.18 -1.2029 1.53477 0
M  V30 15363 O 1545.45 -1.80737 0.755704 0
M  V30 15364 H 1544.03 0.0688022 0.743825 0
M  V30 15365 H 1546.7 0.869157 1.74447 0
M  V30 15366 H 1545.79 0.194111 3.11496 0
M  V30 15367 N 1546.09 -1.52004 0.416254 0
M  V30 15368 C 1547.06 -2.2579 -0.393882 0
M  V30 15369 C 1548.06 -1.28427 -0.967637 0
M  V30 15370 O 1549.25 -1.52311 -0.845396 0
M  V30 15371 C 1546.38 -3.03361 -1.55515 0
M  V30 15372 H 1547.57 -2.98835 0.252492 0
M  V30 15373 H 1545.12 -1.55384 0.168929 0
M  V30 15374 H 1545.86 -2.34682 -2.23818 0
M  V30 15375 H 1545.64 -3.74852 -1.15015 0
M  V30 15376 H 1547.13 -3.5931 -2.12805 0
M  V30 15377 N 1547.57 -0.146903 -1.56914 0
M  V30 15378 C 1548.99 0.20951 -1.58219 0
M  V30 15379 C 1549.19 1.64679 -1.16116 0
M  V30 15380 O 1548.24 2.37352 -0.861414 0
M  V30 15381 C 1549.56 -0.0491564 -3.0066 0
M  V30 15382 C 1551.1 0.0145605 -3.12997 0
M  V30 15383 C 1551.58 -0.216773 -4.57487 0
M  V30 15384 N 1553.07 -0.163698 -4.62911 0
M  V30 15385 C 1553.8 -0.317204 -5.72522 0
M  V30 15386 N 1553.3 -0.528426 -6.90782 0
M  V30 15387 N 1555.09 -0.254814 -5.61522 0
M  V30 15388 H 1547.24 -1.08536 -1.82575 0
M  V30 15389 H 1549.51 -0.42963 -0.845057 0
M  V30 15390 H 1549.21 -1.04387 -3.35851 0
M  V30 15391 H 1549.09 0.670296 -3.71197 0
M  V30 15392 H 1551.47 0.999829 -2.77646 0
M  V30 15393 H 1551.56 -0.737219 -2.44946 0
M  V30 15394 H 1551.2 -1.19914 -4.93541 0
M  V30 15395 H 1551.13 0.555329 -5.23664 0
M  V30 15396 H 1553.62 -0.00509433 -3.779 0
M  V30 15397 H 1553.93 -0.635667 -7.70181 0
M  V30 15398 H 1552.28 -0.564746 -6.92702 0
M  V30 15399 H 1555.47 -0.0905626 -4.68012 0
M  V30 15400 H 1555.64 -0.377881 -6.46897 0
M  V30 15401 N 1549.05 1.57088 0.126881 0
M  V30 15402 C 1550.27 1.88984 0.854389 0
M  V30 15403 C 1550.7 0.738037 1.73016 0
M  V30 15404 O 1550.06 -0.311728 1.786 0
M  V30 15405 C 1550.1 3.19584 1.67028 0
M  V30 15406 O 1549.21 3.04935 2.77648 0
M  V30 15407 H 1548.55 0.620354 0.236763 0
M  V30 15408 H 1551.08 2.04295 0.111647 0
M  V30 15409 H 1551.09 3.52109 2.06115 0
M  V30 15410 H 1549.76 4.03012 1.02732 0
M  V30 15411 H 1548.34 2.83861 2.41821 0
M  V30 15412 N 1550.53 -0.396836 1.52522 0
M  V30 15413 C 1551.77 -1.14037 1.66853 0
M  V30 15414 C 1552.1 -1.90706 0.406987 0
M  V30 15415 O 1551.37 -1.87165 -0.578443 0
M  V30 15416 H 1549.95 -0.423967 0.615029 0
M  V30 15417 H 1552.61 -0.451042 1.89609 0
M  V30 15418 H 1551.7 -1.84763 2.51533 0
M  V30 15419 N 1552.01 -1.43353 -0.654814 0
M  V30 15420 C 1552.97 -1.4806 -1.7496 0
M  V30 15421 C 1553.97 -0.365513 -1.56591 0
M  V30 15422 O 1555.16 -0.627194 -1.62517 0
M  V30 15423 C 1552.29 -1.33165 -3.13815 0
M  V30 15424 H 1553.48 -2.45557 -1.72167 0
M  V30 15425 H 1551.04 -1.30094 -0.86632 0
M  V30 15426 H 1551.77 -0.366689 -3.2222 0
M  V30 15427 H 1551.56 -2.13998 -3.28553 0
M  V30 15428 H 1553.05 -1.39388 -3.93651 0
M  V30 15429 N 1553.48 0.89303 -1.29857 0
M  V30 15430 C 1554.76 1.62492 -1.08884 0
M  V30 15431 C 1555.14 2.07926 0.364695 0
M  V30 15432 O 1554.49 1.84009 1.35473 0
M  V30 15433 C 1554.7 2.80063 -2.08245 0
M  V30 15434 C 1556.05 3.50589 -2.39526 0
M  V30 15435 O 1557.07 2.90241 -2.06492 0
M  V30 15436 O 1555.93 4.59399 -2.95998 0
M  V30 15437 H 1553.02 0.713805 -0.417626 0
M  V30 15438 H 1555.57 0.940513 -1.41253 0
M  V30 15439 H 1554.34 2.43735 -3.06119 0
M  V30 15440 H 1553.96 3.56205 -1.76645 0
M  V30 15441 N 1554.96 1.12442 1.10429 0
M  V30 15442 C 1556.19 0.902599 1.86174 0
M  V30 15443 C 1556.6 -0.548147 1.80668 0
M  V30 15444 O 1555.96 -1.37898 1.19543 0
M  V30 15445 C 1556.01 1.36912 3.34571 0
M  V30 15446 O 1555.73 2.763 3.39985 0
M  V30 15447 C 1557.23 1.18424 4.27189 0
M  V30 15448 H 1554.45 0.322534 0.588399 0
M  V30 15449 H 1557 1.49439 1.396 0
M  V30 15450 H 1555.15 0.82055 3.7861 0
M  V30 15451 H 1555.57 2.96772 4.32466 0
M  V30 15452 H 1557.04 1.55954 5.29511 0
M  V30 15453 H 1557.52 0.12483 4.39023 0
M  V30 15454 H 1558.12 1.72032 3.88954 0
M  V30 15455 N 1556.44 -1.28223 0.91633 0
M  V30 15456 C 1557.69 -1.9448 0.549734 0
M  V30 15457 C 1558.01 -1.72465 -0.909999 0
M  V30 15458 O 1557.28 -1.06583 -1.64368 0
M  V30 15459 H 1555.86 -0.719641 0.200315 0
M  V30 15460 H 1558.52 -1.56156 1.16625 0
M  V30 15461 H 1557.62 -3.03044 0.746363 0
M  V30 15462 N 1557.92 -0.68059 -1.42147 0
M  V30 15463 C 1558.88 -0.0149865 -2.29195 0
M  V30 15464 C 1559.88 0.723163 -1.43621 0
M  V30 15465 O 1561.07 0.560297 -1.64943 0
M  V30 15466 C 1558.2 0.989375 -3.26227 0
M  V30 15467 H 1559.4 -0.781236 -2.89546 0
M  V30 15468 H 1556.95 -0.443256 -1.49883 0
M  V30 15469 H 1557.68 1.78391 -2.70827 0
M  V30 15470 H 1557.47 0.463401 -3.89352 0
M  V30 15471 H 1558.96 1.45334 -3.91494 0
M  V30 15472 N 1559.4 1.51781 -0.424309 0
M  V30 15473 C 1560.64 2.0157 0.146203 0
M  V30 15474 C 1560.96 1.3111 1.44344 0
M  V30 15475 O 1560.23 0.441631 1.90857 0
M  V30 15476 H 1558.81 0.744821 0.057019 0
M  V30 15477 H 1561.48 1.8656 -0.564031 0
M  V30 15478 H 1560.57 3.10335 0.331464 0
M  V30 15479 N 1560.87 0.155222 1.56834 0
M  V30 15480 C 1561.84 -0.767266 2.15976 0
M  V30 15481 C 1562.84 -1.16946 1.10364 0
M  V30 15482 O 1564.03 -1.08905 1.35961 0
M  V30 15483 C 1561.16 -2.04226 2.72956 0
M  V30 15484 H 1562.35 -0.252662 2.98834 0
M  V30 15485 H 1559.9 -0.0942677 1.56015 0
M  V30 15486 H 1560.64 -2.60033 1.93787 0
M  V30 15487 H 1560.42 -1.76299 3.5023 0
M  V30 15488 H 1561.91 -2.70093 3.18495 0
M  V30 15489 N 1562.35 -1.57153 -0.118549 0
M  V30 15490 C 1563.6 -1.84511 -0.824623 0
M  V30 15491 C 1563.92 -0.740473 -1.80394 0
M  V30 15492 O 1563.19 0.235481 -1.9448 0
M  V30 15493 H 1561.77 -0.680764 -0.307522 0
M  V30 15494 H 1564.43 -1.94613 -0.105764 0
M  V30 15495 H 1563.53 -2.80444 -1.36958 0
M  V30 15496 N 1563.83 0.388742 -1.5273 0
M  V30 15497 C 1564.76 1.49653 -1.72277 0
M  V30 15498 C 1565.74 1.52259 -0.570606 0
M  V30 15499 O 1566.92 1.70661 -0.80044 0
M  V30 15500 C 1564.05 2.88118 -1.78061 0
M  V30 15501 C 1563.1 3.03336 -2.99815 0
M  V30 15502 S 1563.93 2.74509 -4.59788 0
M  V30 15503 C 1565.09 4.15167 -4.68388 0
M  V30 15504 H 1565.32 1.32847 -2.65968 0
M  V30 15505 H 1562.85 0.581632 -1.43026 0
M  V30 15506 H 1564.81 3.6791 -1.82079 0
M  V30 15507 H 1563.47 3.0225 -0.854623 0
M  V30 15508 H 1562.66 4.04689 -3.00404 0
M  V30 15509 H 1562.27 2.31438 -2.9379 0
M  V30 15510 H 1564.56 5.09098 -4.47018 0
M  V30 15511 H 1565.5 4.19593 -5.70392 0
M  V30 15512 H 1565.91 4.01088 -3.97226 0
M  V30 15513 N 1565.31 1.43698 0.647203 0
M  V30 15514 C 1566.55 1.45633 1.40703 0
M  V30 15515 C 1566.88 0.0828643 1.94323 0
M  V30 15516 O 1566.14 -0.913033 1.73096 0
M  V30 15517 C 1566.44 2.45083 2.60133 0
M  V30 15518 C 1566.1 3.9081 2.24896 0
M  V30 15519 C 1564.76 4.30499 2.14998 0
M  V30 15520 C 1567.12 4.8262 1.96794 0
M  V30 15521 C 1564.44 5.59942 1.75163 0
M  V30 15522 C 1566.8 6.12433 1.58456 0
M  V30 15523 C 1565.46 6.51092 1.47088 0
M  V30 15524 H 1564.73 0.53291 0.514867 0
M  V30 15525 H 1567.38 1.76814 0.735458 0
M  V30 15526 H 1565.68 2.07327 3.3245 0
M  V30 15527 H 1567.38 2.43833 3.1835 0
M  V30 15528 H 1563.97 3.59403 2.33512 0
M  V30 15529 H 1568.15 4.52724 2.03359 0
M  V30 15530 H 1563.41 5.88728 1.64952 0
M  V30 15531 H 1567.58 6.83042 1.35745 0
M  V30 15532 H 1565.21 7.51299 1.15992 0
M  V30 15533 N 1566.79 -0.886131 1.30328 0
M  V30 15534 C 1568.2 -1.16922 1.08634 0
M  V30 15535 C 1568.4 -2.00913 -0.15365 0
M  V30 15536 O 1567.46 -2.37849 -0.847592 0
M  V30 15537 C 1568.77 -1.87701 2.34923 0
M  V30 15538 C 1570.32 -2.0047 2.40376 0
M  V30 15539 C 1570.79 -2.74662 3.66504 0
M  V30 15540 N 1572.29 -2.82208 3.67305 0
M  V30 15541 C 1573.02 -3.40185 4.61586 0
M  V30 15542 N 1572.52 -3.99221 5.66211 0
M  V30 15543 N 1574.31 -3.37989 4.49132 0
M  V30 15544 H 1566.46 -0.326064 2.09882 0
M  V30 15545 H 1568.72 -0.206996 0.925125 0
M  V30 15546 H 1568.43 -1.33427 3.25408 0
M  V30 15547 H 1568.3 -2.88092 2.43481 0
M  V30 15548 H 1570.69 -2.53914 1.50371 0
M  V30 15549 H 1570.77 -0.991709 2.35794 0
M  V30 15550 H 1570.42 -2.2189 4.56867 0
M  V30 15551 H 1570.35 -3.76335 3.68347 0
M  V30 15552 H 1572.84 -2.40292 2.91665 0
M  V30 15553 H 1573.15 -4.41522 6.34254 0
M  V30 15554 H 1571.49 -3.97643 5.70004 0
M  V30 15555 H 1574.69 -2.91096 3.6658 0
M  V30 15556 H 1574.86 -3.82877 5.2279 0
M  V30 15557 N 1568.26 -1.13026 -1.09832 0
M  V30 15558 C 1569.23 -0.806832 -2.14529 0
M  V30 15559 C 1570.23 0.18175 -1.5977 0
M  V30 15560 O 1571.42 -0.0448155 -1.74142 0
M  V30 15561 C 1568.55 -0.200093 -3.40312 0
M  V30 15562 H 1569.74 -1.73453 -2.44651 0
M  V30 15563 H 1567.3 -0.934331 -1.25299 0
M  V30 15564 H 1568.03 0.737028 -3.15814 0
M  V30 15565 H 1567.82 -0.911945 -3.81348 0
M  V30 15566 H 1569.31 0.00948247 -4.17599 0
M  V30 15567 N 1569.74 1.27735 -0.923117 0
M  V30 15568 C 1570.67 2.29395 -0.435907 0
M  V30 15569 C 1571.65 1.62542 0.501403 0
M  V30 15570 O 1572.84 1.89884 0.407135 0
M  V30 15571 C 1569.97 3.45856 0.316348 0
M  V30 15572 C 1568.92 4.24672 -0.532697 0
M  V30 15573 C 1568.25 5.33563 0.348454 0
M  V30 15574 C 1569.55 4.90494 -1.79481 0
M  V30 15575 H 1571.24 2.70398 -1.28551 0
M  V30 15576 H 1568.79 1.29989 -0.619581 0
M  V30 15577 H 1570.74 4.1607 0.668098 0
M  V30 15578 H 1569.47 3.03758 1.19994 0
M  V30 15579 H 1568.12 3.56198 -0.867093 0
M  V30 15580 H 1567.77 4.87708 1.23086 0
M  V30 15581 H 1567.47 5.87202 -0.216104 0
M  V30 15582 H 1569 6.06622 0.695878 0
M  V30 15583 H 1570.41 5.53019 -1.5114 0
M  V30 15584 H 1568.81 5.5417 -2.30251 0
M  V30 15585 H 1569.88 4.14454 -2.51707 0
M  V30 15586 N 1571.22 0.688118 1.41784 0
M  V30 15587 C 1572.47 0.215944 2.01345 0
M  V30 15588 C 1572.8 -1.18197 1.54466 0
M  V30 15589 O 1572.05 -1.81032 0.743374 0
M  V30 15590 C 1572.35 0.213747 3.5676 0
M  V30 15591 C 1572.02 1.55816 4.23122 0
M  V30 15592 C 1570.68 1.92623 4.40964 0
M  V30 15593 C 1573.03 2.44297 4.604 0
M  V30 15594 C 1570.36 3.17511 4.93359 0
M  V30 15595 C 1572.71 3.68511 5.14182 0
M  V30 15596 C 1571.37 4.0547 5.30236 0
M  V30 15597 H 1570.64 0.0790193 0.736775 0
M  V30 15598 H 1573.29 0.885737 1.69785 0
M  V30 15599 H 1571.6 -0.539583 3.88067 0
M  V30 15600 H 1573.29 -0.169004 4.00644 0
M  V30 15601 H 1569.88 1.26186 4.09604 0
M  V30 15602 H 1574.07 2.17143 4.46277 0
M  V30 15603 H 1569.32 3.46151 5.03973 0
M  V30 15604 H 1573.5 4.37264 5.42008 0
M  V30 15605 H 1571.12 5.02316 5.70598 0
M  V30 15606 N 1572.7 -1.51554 0.432352 0
M  V30 15607 C 1574.11 -1.59377 0.0843863 0
M  V30 15608 C 1574.31 -1.44364 -1.40575 0
M  V30 15609 O 1573.37 -1.28234 -2.17514 0
M  V30 15610 C 1574.68 -2.94652 0.600046 0
M  V30 15611 C 1576.23 -3.07949 0.560049 0
M  V30 15612 C 1576.71 -4.4574 1.0526 0
M  V30 15613 N 1578.2 -4.52046 1.01038 0
M  V30 15614 C 1578.93 -5.56979 1.36242 0
M  V30 15615 N 1578.43 -6.69355 1.78707 0
M  V30 15616 N 1580.22 -5.47311 1.2809 0
M  V30 15617 H 1572.37 -1.59558 1.40197 0
M  V30 15618 H 1574.64 -0.751868 0.577406 0
M  V30 15619 H 1574.34 -3.10993 1.64245 0
M  V30 15620 H 1574.22 -3.77193 0.0222482 0
M  V30 15621 H 1576.6 -2.91279 -0.473357 0
M  V30 15622 H 1576.68 -2.27259 1.17419 0
M  V30 15623 H 1576.33 -4.63156 2.08445 0
M  V30 15624 H 1576.26 -5.24962 0.415047 0
M  V30 15625 H 1578.75 -3.71389 0.69847 0
M  V30 15626 H 1579.06 -7.45438 2.03819 0
M  V30 15627 H 1577.41 -6.70576 1.82629 0
M  V30 15628 H 1580.6 -4.58403 0.947848 0
M  V30 15629 H 1580.77 -6.28978 1.55855 0
M  V30 15630 N 1574.18 -0.163538 -1.56749 0
M  V30 15631 C 1575.11 0.801071 -2.14745 0
M  V30 15632 C 1576.12 1.1992 -1.10104 0
M  V30 15633 O 1577.31 1.14041 -1.37321 0
M  V30 15634 C 1574.41 2.08867 -2.66886 0
M  V30 15635 C 1573.58 1.85532 -3.96102 0
M  V30 15636 C 1572.64 2.98436 -4.33385 0
M  V30 15637 O 1571.67 2.69408 -5.01406 0
M  V30 15638 N 1572.87 4.26029 -3.94309 0
M  V30 15639 H 1575.64 0.3053 -2.98141 0
M  V30 15640 H 1573.2 0.019501 -1.61888 0
M  V30 15641 H 1575.19 2.83477 -2.8883 0
M  V30 15642 H 1573.76 2.49657 -1.88122 0
M  V30 15643 H 1572.98 0.94868 -3.82614 0
M  V30 15644 H 1574.27 1.673 -4.80508 0
M  V30 15645 H 1573.66 4.52475 -3.39533 0
M  V30 15646 H 1572.22 4.97367 -4.21271 0
M  V30 15647 N 1575.65 1.57214 0.110213 0
M  V30 15648 C 1576.62 2.00034 1.11888 0
M  V30 15649 C 1577.62 0.891697 1.33811 0
M  V30 15650 O 1578.81 1.15754 1.3018 0
M  V30 15651 C 1575.94 2.34806 2.47142 0
M  V30 15652 H 1577.13 2.90354 0.750647 0
M  V30 15653 H 1574.69 1.5222 0.35479 0
M  V30 15654 H 1575.42 1.47393 2.8887 0
M  V30 15655 H 1575.21 3.15671 2.32581 0
M  V30 15656 H 1576.7 2.68644 3.19719 0
M  V30 15657 N 1577.13 -0.380637 1.52934 0
M  V30 15658 C 1578.38 -1.1265 1.68635 0
M  V30 15659 C 1578.71 -1.89397 0.429227 0
M  V30 15660 O 1577.99 -1.85863 -0.573182 0
M  V30 15661 C 1578.27 -2.09797 2.92673 0
M  V30 15662 C 1578.12 -1.36758 4.28506 0
M  V30 15663 C 1579.44 -3.10117 3.12274 0
M  V30 15664 H 1576.56 -0.408158 0.613658 0
M  V30 15665 H 1579.2 -0.408947 1.85547 0
M  V30 15666 H 1577.35 -2.70987 2.78385 0
M  V30 15667 H 1579.02 -0.784679 4.54577 0
M  V30 15668 H 1577.27 -0.669413 4.28604 0
M  V30 15669 H 1577.94 -2.07786 5.11399 0
M  V30 15670 H 1580.41 -2.59022 3.25648 0
M  V30 15671 H 1579.29 -3.75328 4.00525 0
M  V30 15672 H 1579.55 -3.79451 2.26868 0
M  V30 15673 N 1578.61 -1.44039 -0.639573 0
M  V30 15674 C 1579.52 -1.52728 -1.78077 0
M  V30 15675 C 1580.54 -0.413467 -1.69016 0
M  V30 15676 O 1581.71 -0.669592 -1.89943 0
M  V30 15677 C 1578.78 -1.46078 -3.14424 0
M  V30 15678 C 1577.84 -2.68242 -3.35179 0
M  V30 15679 C 1577.07 -2.61899 -4.65021 0
M  V30 15680 O 1577.29 -1.67431 -5.45273 0
M  V30 15681 O 1576.23 -3.52619 -4.87795 0
M  V30 15682 H 1580.05 -2.49122 -1.737 0
M  V30 15683 H 1577.64 -1.26191 -0.799755 0
M  V30 15684 H 1579.52 -1.44861 -3.95719 0
M  V30 15685 H 1578.2 -0.528236 -3.19361 0
M  V30 15686 H 1577.1 -2.75028 -2.53595 0
M  V30 15687 H 1578.44 -3.60514 -3.35098 0
M  V30 15688 N 1580.09 0.879207 -1.30796 0
M  V30 15689 C 1581.37 1.61328 -1.10602 0
M  V30 15690 C 1581.75 2.08301 0.342621 0
M  V30 15691 O 1581.09 1.85436 1.33514 0
M  V30 15692 C 1581.3 2.77838 -2.11203 0
M  V30 15693 C 1582.65 3.48028 -2.43231 0
M  V30 15694 O 1583.68 2.88034 -2.09559 0
M  V30 15695 O 1582.53 4.56233 -3.00854 0
M  V30 15696 H 1579.63 0.709335 -0.425174 0
M  V30 15697 H 1582.17 0.925478 -1.42243 0
M  V30 15698 H 1580.95 2.40475 -3.08687 0
M  V30 15699 H 1580.57 3.54312 -1.80414 0
M  V30 15700 N 1581.57 1.13606 1.09231 0
M  V30 15701 C 1582.84 0.81012 1.78035 0
M  V30 15702 C 1583.22 -0.697953 1.99228 0
M  V30 15703 O 1582.57 -1.63592 1.5953 0
M  V30 15704 C 1582.78 1.59932 3.10198 0
M  V30 15705 C 1584.13 1.79328 3.84872 0
M  V30 15706 O 1585.15 1.56547 3.19955 0
M  V30 15707 O 1584.01 2.17355 5.01417 0
M  V30 15708 H 1581.11 0.295995 0.772215 0
M  V30 15709 H 1583.65 1.24079 1.15769 0
M  V30 15710 H 1582.43 2.6241 2.9027 0
M  V30 15711 H 1582.05 1.16371 3.80189 0
M  V30 15712 N 1583.05 -1.27244 0.929878 0
M  V30 15713 C 1584.46 -1.4662 0.630451 0
M  V30 15714 C 1584.66 -1.84077 -0.819633 0
M  V30 15715 O 1583.72 -1.95555 -1.59733 0
M  V30 15716 C 1585.03 -2.55709 1.58219 0
M  V30 15717 C 1586.58 -2.69569 1.59065 0
M  V30 15718 C 1587.05 -3.81818 2.52941 0
M  V30 15719 N 1588.54 -3.89195 2.51161 0
M  V30 15720 C 1589.28 -4.75474 3.20488 0
M  V30 15721 N 1588.78 -5.66225 3.99201 0
M  V30 15722 N 1590.57 -4.69222 3.09495 0
M  V30 15723 H 1582.72 -1.01216 1.86733 0
M  V30 15724 H 1584.98 -0.505737 0.801832 0
M  V30 15725 H 1584.69 -2.34985 2.61677 0
M  V30 15726 H 1584.56 -3.53141 1.32556 0
M  V30 15727 H 1586.95 -2.89672 0.563375 0
M  V30 15728 H 1587.03 -1.72616 1.88778 0
M  V30 15729 H 1586.67 -3.62467 3.55781 0
M  V30 15730 H 1586.6 -4.78202 2.20524 0
M  V30 15731 H 1589.1 -3.24305 1.93997 0
M  V30 15732 H 1589.41 -6.28925 4.4908 0
M  V30 15733 H 1587.75 -5.66013 4.03304 0
M  V30 15734 H 1590.94 -3.97322 2.47493 0
M  V30 15735 H 1591.12 -5.36244 3.63794 0
M  V30 15736 N 1584.52 -0.695628 -1.41417 0
M  V30 15737 C 1585.75 -0.235312 -2.05256 0
M  V30 15738 C 1586.16 1.12055 -1.52448 0
M  V30 15739 O 1585.5 1.71139 -0.667612 0
M  V30 15740 C 1585.57 -0.115542 -3.59314 0
M  V30 15741 C 1585.23 -1.40345 -4.34916 0
M  V30 15742 C 1586.23 -2.34131 -4.64197 0
M  V30 15743 C 1583.91 -1.65684 -4.74188 0
M  V30 15744 C 1585.91 -3.51518 -5.31709 0
M  V30 15745 C 1583.59 -2.83355 -5.41436 0
M  V30 15746 C 1584.59 -3.76095 -5.70124 0
M  V30 15747 O 1584.28 -4.91706 -6.35988 0
M  V30 15748 H 1584.01 -0.107129 -0.667457 0
M  V30 15749 H 1586.57 -0.948759 -1.82175 0
M  V30 15750 H 1584.8 0.653675 -3.81135 0
M  V30 15751 H 1586.48 0.307599 -4.04733 0
M  V30 15752 H 1587.25 -2.15812 -4.34339 0
M  V30 15753 H 1583.13 -0.943613 -4.51239 0
M  V30 15754 H 1586.67 -4.23923 -5.54017 0
M  V30 15755 H 1582.57 -3.01591 -5.70713 0
M  V30 15756 H 1583.34 -4.91522 -6.54484 0
M  V30 15757 N 1586 1.51322 -0.440383 0
M  V30 15758 C 1587.25 2.01714 0.124815 0
M  V30 15759 C 1587.57 1.32634 1.42945 0
M  V30 15760 O 1586.84 0.461849 1.90378 0
M  V30 15761 H 1585.42 0.745384 0.049116 0
M  V30 15762 H 1588.08 1.85951 -0.583787 0
M  V30 15763 H 1587.18 3.10669 0.29853 0
M  V30 15764 N 1587.48 0.171848 1.5666 0
M  V30 15765 C 1588.39 -0.770721 2.21579 0
M  V30 15766 C 1589.41 -1.25273 1.20759 0
M  V30 15767 O 1590.58 -1.30474 1.53422 0
M  V30 15768 C 1587.65 -1.98256 2.84422 0
M  V30 15769 C 1586.71 -1.54738 4.00443 0
M  V30 15770 C 1585.94 -2.70145 4.6028 0
M  V30 15771 O 1586.16 -3.87026 4.19007 0
M  V30 15772 O 1585.1 -2.44189 5.50141 0
M  V30 15773 H 1588.92 -0.247974 3.02686 0
M  V30 15774 H 1586.51 -0.0563734 1.49294 0
M  V30 15775 H 1588.39 -2.69127 3.24266 0
M  V30 15776 H 1587.07 -2.49435 2.0631 0
M  V30 15777 H 1585.97 -0.808152 3.65267 0
M  V30 15778 H 1587.31 -1.08249 4.80149 0
M  V30 15779 N 1588.96 -1.5727 -0.101874 0
M  V30 15780 C 1590.2 -1.85742 -0.8066 0
M  V30 15781 C 1590.53 -0.759408 -1.79062 0
M  V30 15782 O 1589.79 0.247657 -1.94127 0
M  V30 15783 C 1590.09 -3.20773 -1.57605 0
M  V30 15784 C 1589.75 -4.44873 -0.734768 0
M  V30 15785 C 1588.41 -4.78566 -0.502829 0
M  V30 15786 C 1590.77 -5.20986 -0.14949 0
M  V30 15787 C 1588.09 -5.85803 0.324363 0
M  V30 15788 C 1590.45 -6.29095 0.664987 0
M  V30 15789 C 1589.11 -6.61308 0.907082 0
M  V30 15790 H 1588.38 -0.679679 -0.295156 0
M  V30 15791 H 1591.03 -1.91378 -0.0683238 0
M  V30 15792 H 1589.33 -3.10791 -2.38571 0
M  V30 15793 H 1591.03 -3.40029 -2.12559 0
M  V30 15794 H 1587.62 -4.18485 -0.92565 0
M  V30 15795 H 1591.8 -4.95294 -0.315859 0
M  V30 15796 H 1587.06 -6.09176 0.520978 0
M  V30 15797 H 1591.23 -6.87246 1.1254 0
M  V30 15798 H 1588.86 -7.44234 1.54986 0
M  V30 15799 N 1590.44 0.372521 -1.53134 0
M  V30 15800 C 1591.37 1.4621 -1.82057 0
M  V30 15801 C 1592.35 1.56194 -0.673612 0
M  V30 15802 O 1593.53 1.70875 -0.922797 0
M  V30 15803 C 1590.66 2.83632 -2.00425 0
M  V30 15804 C 1589.62 2.88478 -3.16171 0
M  V30 15805 C 1588.94 4.28508 -3.19821 0
M  V30 15806 C 1590.24 2.56628 -4.54906 0
M  V30 15807 H 1591.94 1.22256 -2.73302 0
M  V30 15808 H 1589.48 0.586688 -1.31507 0
M  V30 15809 H 1591.43 3.59876 -2.19242 0
M  V30 15810 H 1590.16 3.0896 -1.05884 0
M  V30 15811 H 1588.82 2.14684 -2.97164 0
M  V30 15812 H 1588.47 4.509 -2.2293 0
M  V30 15813 H 1588.17 4.32667 -3.97584 0
M  V30 15814 H 1589.69 5.06635 -3.40813 0
M  V30 15815 H 1591.1 3.22587 -4.73931 0
M  V30 15816 H 1589.5 2.72114 -5.34859 0
M  V30 15817 H 1590.57 1.51902 -4.60493 0
M  V30 15818 N 1591.91 1.44376 0.631925 0
M  V30 15819 C 1593.19 1.37592 1.39024 0
M  V30 15820 C 1593.57 0.0342456 2.11072 0
M  V30 15821 O 1592.92 -0.983136 2.06268 0
M  V30 15822 C 1593.13 2.57355 2.35732 0
M  V30 15823 C 1594.48 3.01384 2.99087 0
M  V30 15824 O 1595.5 2.57554 2.46057 0
M  V30 15825 O 1594.36 3.77375 3.95285 0
M  V30 15826 H 1591.45 0.544828 0.622167 0
M  V30 15827 H 1594 1.56464 0.657048 0
M  V30 15828 H 1592.77 3.46615 1.81587 0
M  V30 15829 H 1592.39 2.40693 3.16469 0
M  V30 15830 N 1593.39 -0.872258 1.31261 0
M  V30 15831 C 1594.64 -1.62752 1.20994 0
M  V30 15832 C 1594.97 -1.9281 -0.231942 0
M  V30 15833 O 1594.25 -1.55808 -1.16423 0
M  V30 15834 C 1594.53 -2.95921 2.0519 0
M  V30 15835 C 1594.38 -2.72756 3.57665 0
M  V30 15836 C 1595.7 -3.96996 1.89953 0
M  V30 15837 H 1592.82 -0.590581 0.440889 0
M  V30 15838 H 1595.46 -1.00848 1.61027 0
M  V30 15839 H 1593.61 -3.48756 1.71177 0
M  V30 15840 H 1595.28 -2.26611 4.01803 0
M  V30 15841 H 1593.53 -2.07029 3.81211 0
M  V30 15842 H 1594.2 -3.67502 4.11882 0
M  V30 15843 H 1596.67 -3.53363 2.19713 0
M  V30 15844 H 1595.55 -4.88063 2.51169 0
M  V30 15845 H 1595.81 -4.33611 0.862191 0
M  V30 15846 N 1594.87 -1.14184 -1.08627 0
M  V30 15847 C 1595.8 -0.849455 -2.17501 0
M  V30 15848 C 1596.78 0.194617 -1.68983 0
M  V30 15849 O 1597.97 0.0517757 -1.94131 0
M  V30 15850 C 1595.1 -0.323685 -3.45788 0
M  V30 15851 C 1594.05 -1.30294 -4.07685 0
M  V30 15852 C 1593.38 -0.636575 -5.30897 0
M  V30 15853 C 1594.68 -2.66441 -4.49229 0
M  V30 15854 H 1596.37 -1.75987 -2.42217 0
M  V30 15855 H 1593.92 -0.847595 -1.16412 0
M  V30 15856 H 1595.87 -0.106754 -4.21265 0
M  V30 15857 H 1594.59 0.62215 -3.20619 0
M  V30 15858 H 1593.25 -1.50601 -3.34238 0
M  V30 15859 H 1592.9 0.314995 -5.02013 0
M  V30 15860 H 1592.6 -1.28998 -5.73266 0
M  V30 15861 H 1594.12 -0.429117 -6.0909 0
M  V30 15862 H 1595.54 -2.50055 -5.15893 0
M  V30 15863 H 1593.93 -3.28033 -5.02508 0
M  V30 15864 H 1595 -3.23486 -3.61226 0
M  V30 15865 N 1596.35 1.26749 -0.936613 0
M  V30 15866 C 1597.31 2.24794 -0.447243 0
M  V30 15867 C 1598.31 1.54688 0.439135 0
M  V30 15868 O 1599.5 1.72553 0.238957 0
M  V30 15869 C 1596.63 3.39036 0.355958 0
M  V30 15870 H 1597.83 2.696 -1.31361 0
M  V30 15871 H 1595.38 1.38825 -0.718143 0
M  V30 15872 H 1596.11 2.99625 1.24077 0
M  V30 15873 H 1595.9 3.91101 -0.279691 0
M  V30 15874 H 1597.39 4.11887 0.688421 0
M  V30 15875 N 1597.83 0.703118 1.41046 0
M  V30 15876 C 1598.74 0.0432777 2.3456 0
M  V30 15877 C 1599.75 -0.757704 1.56636 0
M  V30 15878 O 1600.93 -0.693531 1.89082 0
M  V30 15879 C 1597.99 -0.876385 3.35441 0
M  V30 15880 C 1597.05 -0.06676 4.29248 0
M  V30 15881 C 1596.29 -0.942622 5.2531 0
M  V30 15882 O 1596.51 -2.18205 5.27013 0
M  V30 15883 O 1595.44 -0.388266 6.00646 0
M  V30 15884 H 1599.27 0.814302 2.9258 0
M  V30 15885 H 1596.86 0.463503 1.42028 0
M  V30 15886 H 1598.74 -1.40353 3.9734 0
M  V30 15887 H 1597.41 -1.62677 2.79853 0
M  V30 15888 H 1596.32 0.505165 3.70674 0
M  V30 15889 H 1597.65 0.645128 4.87954 0
M  V30 15890 N 1599.3 -1.51086 0.448402 0
M  V30 15891 C 1600.27 -2.26575 -0.3459 0
M  V30 15892 C 1601.27 -1.3045 -0.940178 0
M  V30 15893 O 1602.46 -1.5407 -0.812898 0
M  V30 15894 C 1599.59 -3.06591 -1.49045 0
M  V30 15895 H 1600.78 -2.98232 0.315822 0
M  V30 15896 H 1598.34 -1.54991 0.201851 0
M  V30 15897 H 1599.07 -2.39377 -2.1879 0
M  V30 15898 H 1598.86 -3.77207 -1.07038 0
M  V30 15899 H 1600.35 -3.63743 -2.05135 0
M  V30 15900 N 1600.78 -0.180154 -1.56567 0
M  V30 15901 C 1602.01 0.471692 -2.01965 0
M  V30 15902 C 1602.43 1.5542 -1.05954 0
M  V30 15903 O 1601.79 1.81255 -0.0405307 0
M  V30 15904 C 1601.84 1.01883 -3.45908 0
M  V30 15905 O 1600.94 2.13245 -3.52988 0
M  V30 15906 H 1600.28 0.11197 -0.654491 0
M  V30 15907 H 1602.81 -0.286642 -2.02582 0
M  V30 15908 H 1602.82 1.33922 -3.85395 0
M  V30 15909 H 1601.5 0.226299 -4.15284 0
M  V30 15910 H 1600.08 1.82184 -3.25367 0
M  V30 15911 N 1602.26 1.57322 0.0935319 0
M  V30 15912 C 1603.22 2.0121 1.0976 0
M  V30 15913 C 1604.22 0.905839 1.32858 0
M  V30 15914 O 1605.41 1.17128 1.28945 0
M  V30 15915 C 1602.55 2.37414 2.44638 0
M  V30 15916 H 1603.74 2.91134 0.719809 0
M  V30 15917 H 1601.29 1.52588 0.338625 0
M  V30 15918 H 1602.03 1.50449 2.8729 0
M  V30 15919 H 1601.81 3.1812 2.2922 0
M  V30 15920 H 1603.3 2.7202 3.16851 0
M  V30 15921 N 1603.74 -0.364395 1.53329 0
M  V30 15922 C 1604.99 -1.10691 1.69569 0
M  V30 15923 C 1605.31 -1.89268 0.448093 0
M  V30 15924 O 1604.57 -1.87216 -0.56997 0
M  V30 15925 C 1604.87 -2.09208 2.8977 0
M  V30 15926 C 1604.53 -1.47103 4.26229 0
M  V30 15927 C 1603.2 -1.29893 4.63337 0
M  V30 15928 C 1605.55 -1.0218 5.11086 0
M  V30 15929 C 1602.88 -0.663463 5.82937 0
M  V30 15930 C 1605.23 -0.400334 6.31332 0
M  V30 15931 C 1603.89 -0.21574 6.67151 0
M  V30 15932 H 1603.16 -0.405048 0.620498 0
M  V30 15933 H 1605.81 -0.388568 1.87516 0
M  V30 15934 H 1604.11 -2.8735 2.6634 0
M  V30 15935 H 1605.81 -2.66615 2.99529 0
M  V30 15936 H 1602.4 -1.61491 3.97012 0
M  V30 15937 H 1606.58 -1.14269 4.82966 0
M  V30 15938 H 1601.84 -0.508867 6.09279 0
M  V30 15939 H 1606.01 -0.0440554 6.96386 0
M  V30 15940 H 1603.64 0.278732 7.59689 0
M  V30 15941 N 1605.22 -1.44709 -0.62426 0
M  V30 15942 C 1606.63 -1.28747 -0.9432 0
M  V30 15943 C 1606.83 -0.228265 -2.00203 0
M  V30 15944 O 1605.89 0.383506 -2.49571 0
M  V30 15945 C 1607.2 -2.66124 -1.39995 0
M  V30 15946 C 1608.75 -2.73889 -1.51506 0
M  V30 15947 C 1609.22 -4.11751 -2.00562 0
M  V30 15948 N 1610.72 -4.13962 -2.07821 0
M  V30 15949 C 1611.45 -5.1749 -2.46964 0
M  V30 15950 N 1610.95 -6.31376 -2.85195 0
M  V30 15951 N 1612.74 -5.04846 -2.47158 0
M  V30 15952 H 1604.89 -2.12264 0.0758746 0
M  V30 15953 H 1607.15 -0.947566 -0.0286915 0
M  V30 15954 H 1606.86 -3.4474 -0.696203 0
M  V30 15955 H 1606.73 -2.93474 -2.36967 0
M  V30 15956 H 1609.12 -1.95587 -2.20975 0
M  V30 15957 H 1609.2 -2.50272 -0.528911 0
M  V30 15958 H 1608.85 -4.90532 -1.31685 0
M  V30 15959 H 1608.78 -4.32749 -3.0006 0
M  V30 15960 H 1611.27 -3.31771 -1.80933 0
M  V30 15961 H 1611.58 -7.06179 -3.13896 0
M  V30 15962 H 1609.92 -6.34804 -2.8293 0
M  V30 15963 H 1613.12 -4.14927 -2.16686 0
M  V30 15964 H 1613.29 -5.85651 -2.77339 0
M  V30 15965 N 1606.69 0.865285 -1.31722 0
M  V30 15966 C 1608.11 1.43445 -1.195 0
M  V30 15967 C 1608.46 1.95212 0.196688 0
M  V30 15968 O 1607.58 1.86666 1.09475 0
M  V30 15969 C 1608.18 2.6074 -2.16333 0
M  V30 15970 C 1606.74 3.13688 -2.08031 0
M  V30 15971 C 1605.88 1.86409 -2.05298 0
M  V30 15972 H 1608.83 0.6734 -1.43705 0
M  V30 15973 H 1608.85 3.37575 -1.75566 0
M  V30 15974 H 1608.37 2.23033 -3.17612 0
M  V30 15975 H 1606.47 3.56004 -1.09962 0
M  V30 15976 H 1606.58 3.75653 -2.97358 0
M  V30 15977 H 1604.94 2.05567 -1.50381 0
M  V30 15978 H 1605.73 1.50933 -3.08341 0
M  V30 15979 N 1608.17 1.14759 1.0802 0
M  V30 15980 C 1609.1 0.795901 2.14937 0
M  V30 15981 C 1610.12 -0.189008 1.61699 0
M  V30 15982 O 1611.31 0.0332689 1.78469 0
M  V30 15983 C 1608.41 0.161388 3.38516 0
M  V30 15984 C 1607.58 1.18202 4.21126 0
M  V30 15985 C 1606.64 0.570535 5.23098 0
M  V30 15986 O 1605.66 1.2346 5.55649 0
M  V30 15987 N 1606.87 -0.650883 5.76839 0
M  V30 15988 H 1609.63 1.716 2.4571 0
M  V30 15989 H 1607.19 1.04254 1.23866 0
M  V30 15990 H 1609.18 -0.260289 4.03862 0
M  V30 15991 H 1607.75 -0.661917 3.05512 0
M  V30 15992 H 1606.97 1.78049 3.51699 0
M  V30 15993 H 1608.26 1.87135 4.73136 0
M  V30 15994 H 1607.66 -1.2089 5.52632 0
M  V30 15995 H 1606.22 -1.01501 6.43848 0
M  V30 15996 N 1609.65 -1.26251 0.943322 0
M  V30 15997 C 1610.9 -1.93652 0.592032 0
M  V30 15998 C 1611.23 -1.73996 -0.869234 0
M  V30 15999 O 1610.48 -1.07165 -1.6375 0
M  V30 16000 C 1610.78 -3.46316 0.883167 0
M  V30 16001 C 1610.45 -3.86115 2.32866 0
M  V30 16002 C 1609.11 -3.9669 2.72379 0
M  V30 16003 C 1611.46 -4.06025 3.26792 0
M  V30 16004 C 1608.79 -4.24575 4.04911 0
M  V30 16005 C 1611.14 -4.35399 4.58923 0
M  V30 16006 C 1609.8 -4.4419 4.98248 0
M  V30 16007 H 1609.07 -0.708624 0.21664 0
M  V30 16008 H 1611.72 -1.50019 1.19023 0
M  V30 16009 H 1610.03 -3.91277 0.202452 0
M  V30 16010 H 1611.72 -3.96634 0.590108 0
M  V30 16011 H 1608.31 -3.78431 2.01217 0
M  V30 16012 H 1612.5 -3.9728 2.9746 0
M  V30 16013 H 1607.75 -4.29594 4.35039 0
M  V30 16014 H 1611.93 -4.49751 5.31692 0
M  V30 16015 H 1609.55 -4.65551 6.00971 0
M  V30 16016 N 1611.13 -0.710588 -1.40671 0
M  V30 16017 C 1612.09 -0.0635988 -2.29112 0
M  V30 16018 C 1613.09 0.692537 -1.45123 0
M  V30 16019 O 1614.28 0.525184 -1.66095 0
M  V30 16020 C 1611.41 0.919955 -3.28252 0
M  V30 16021 H 1612.61 -0.842477 -2.87823 0
M  V30 16022 H 1610.16 -0.474948 -1.48909 0
M  V30 16023 H 1610.9 1.72607 -2.7455 0
M  V30 16024 H 1610.68 0.38071 -3.90247 0
M  V30 16025 H 1612.17 1.36997 -3.94489 0
M  V30 16026 N 1612.61 1.50847 -0.456408 0
M  V30 16027 C 1613.83 2.07139 0.104054 0
M  V30 16028 C 1614.26 1.31966 1.34039 0
M  V30 16029 O 1613.62 0.363038 1.77628 0
M  V30 16030 C 1613.66 3.5853 0.385794 0
M  V30 16031 O 1612.77 3.85351 1.46895 0
M  V30 16032 H 1612.11 0.663968 -0.00651246 0
M  V30 16033 H 1614.64 1.94226 -0.64323 0
M  V30 16034 H 1614.65 4.03097 0.630644 0
M  V30 16035 H 1613.32 4.12665 -0.51773 0
M  V30 16036 H 1611.9 3.52635 1.21256 0
M  V30 16037 N 1614.09 0.188454 1.56469 0
M  V30 16038 C 1615.5 -0.325309 1.83844 0
M  V30 16039 C 1615.85 -1.61858 1.1089 0
M  V30 16040 O 1614.97 -2.13256 0.36752 0
M  V30 16041 C 1615.57 -0.597002 3.33499 0
M  V30 16042 C 1614.13 -1.05515 3.61308 0
M  V30 16043 C 1613.27 -0.100182 2.77119 0
M  V30 16044 H 1616.22 0.412378 1.53249 0
M  V30 16045 H 1616.25 -1.44709 3.51908 0
M  V30 16046 H 1615.76 0.344429 3.86569 0
M  V30 16047 H 1613.86 -2.01109 3.13665 0
M  V30 16048 H 1613.97 -0.952461 4.69537 0
M  V30 16049 H 1612.34 -0.600815 2.47512 0
M  V30 16050 H 1613.12 0.835574 3.32976 0
M  V30 16051 N 1615.56 -1.5737 -0.0851874 0
M  V30 16052 C 1616.47 -2.06097 -1.12078 0
M  V30 16053 C 1617.49 -0.987809 -1.43242 0
M  V30 16054 O 1618.67 -1.30163 -1.53686 0
M  V30 16055 C 1615.73 -2.48397 -2.41867 0
M  V30 16056 C 1614.79 -3.69951 -2.17795 0
M  V30 16057 C 1614.02 -4.10225 -3.41396 0
M  V30 16058 O 1614.25 -3.50495 -4.5001 0
M  V30 16059 O 1613.18 -5.03111 -3.30399 0
M  V30 16060 H 1617.01 -2.94625 -0.736877 0
M  V30 16061 H 1614.59 -1.4639 -0.298392 0
M  V30 16062 H 1616.47 -2.76187 -3.18274 0
M  V30 16063 H 1615.15 -1.63003 -2.79664 0
M  V30 16064 H 1614.06 -3.47263 -1.39136 0
M  V30 16065 H 1615.39 -4.56156 -1.84886 0
M  V30 16066 N 1617.04 0.356258 -1.53521 0
M  V30 16067 C 1618 1.41975 -1.79933 0
M  V30 16068 C 1619 1.46177 -0.669997 0
M  V30 16069 O 1620.19 1.46774 -0.938239 0
M  V30 16070 C 1617.33 2.81015 -1.92985 0
M  V30 16071 H 1618.52 1.19824 -2.74922 0
M  V30 16072 H 1616.07 0.589928 -1.4474 0
M  V30 16073 H 1616.81 3.08466 -1.00095 0
M  V30 16074 H 1616.59 2.79363 -2.75135 0
M  V30 16075 H 1618.08 3.58013 -2.1498 0
M  V30 16076 N 1618.52 1.45038 0.616577 0
M  V30 16077 C 1619.76 1.50118 1.38723 0
M  V30 16078 C 1620.12 0.135879 1.91519 0
M  V30 16079 O 1621.32 0.0613609 2.6873 0
M  V30 16080 C 1619.6 2.5434 2.51089 0
M  V30 16081 S 1621.15 2.78577 3.39028 0
M  V30 16082 H 1617.97 0.530782 0.473066 0
M  V30 16083 H 1620.57 1.82059 0.712362 0
M  V30 16084 H 1619.28 3.52222 2.10638 0
M  V30 16085 H 1618.81 2.24019 3.23387 0
M  V30 16086 H 1620.82 2.11275 4.48974 0
M  V30 16087 N 1620 -0.858287 1.32179 0
M  V30 16088 C 1621.22 -1.64997 1.25662 0
M  V30 16089 C 1621.65 -1.87303 -0.173021 0
M  V30 16090 O 1621.01 -1.42319 -1.12317 0
M  V30 16091 C 1621.05 -2.98855 2.01787 0
M  V30 16092 O 1620.16 -3.89218 1.36319 0
M  V30 16093 H 1619.5 -0.503169 0.433264 0
M  V30 16094 H 1622.03 -1.06926 1.74436 0
M  V30 16095 H 1622.04 -3.48704 2.11824 0
M  V30 16096 H 1620.71 -2.81941 3.05748 0
M  V30 16097 H 1619.29 -3.4768 1.34807 0
M  V30 16098 N 1621.48 -1.1533 -1.07409 0
M  V30 16099 C 1622.39 -0.863514 -2.1813 0
M  V30 16100 C 1623.4 0.159954 -1.73263 0
M  V30 16101 O 1624.58 -0.0139818 -2.01395 0
M  V30 16102 C 1621.64 -0.356271 -3.44865 0
M  V30 16103 C 1620.7 -1.44356 -4.04302 0
M  V30 16104 C 1619.94 -0.960429 -5.24987 0
M  V30 16105 O 1620.16 0.194227 -5.70069 0
M  V30 16106 O 1619.09 -1.74387 -5.76084 0
M  V30 16107 H 1622.92 -1.78909 -2.45408 0
M  V30 16108 H 1620.5 -0.932362 -1.16736 0
M  V30 16109 H 1622.39 -0.0798183 -4.21324 0
M  V30 16110 H 1621.06 0.541445 -3.1914 0
M  V30 16111 H 1619.97 -1.77361 -3.29384 0
M  V30 16112 H 1621.3 -2.31617 -4.34298 0
M  V30 16113 N 1622.95 1.25748 -0.950004 0
M  V30 16114 C 1624.37 1.45599 -0.653697 0
M  V30 16115 C 1624.57 1.85357 0.790245 0
M  V30 16116 O 1623.63 1.98071 1.56601 0
M  V30 16117 C 1624.94 2.5316 -1.62267 0
M  V30 16118 C 1626.49 2.67004 -1.63334 0
M  V30 16119 C 1626.96 3.77745 -2.58984 0
M  V30 16120 N 1628.45 3.8515 -2.57321 0
M  V30 16121 C 1629.19 4.70315 -3.28011 0
M  V30 16122 N 1628.68 5.59802 -4.08159 0
M  V30 16123 N 1630.48 4.64239 -3.16921 0
M  V30 16124 H 1622.63 0.982321 -1.88319 0
M  V30 16125 H 1624.89 0.492917 -0.809776 0
M  V30 16126 H 1624.6 2.30792 -2.65382 0
M  V30 16127 H 1624.47 3.50988 -1.38158 0
M  V30 16128 H 1626.86 2.88739 -0.609388 0
M  V30 16129 H 1626.94 1.69591 -1.915 0
M  V30 16130 H 1626.58 3.56761 -3.61502 0
M  V30 16131 H 1626.51 4.74633 -2.28103 0
M  V30 16132 H 1629 3.21178 -1.99131 0
M  V30 16133 H 1629.32 6.21701 -4.59029 0
M  V30 16134 H 1627.66 5.59525 -4.12258 0
M  V30 16135 H 1630.85 3.93335 -2.53782 0
M  V30 16136 H 1631.03 5.30389 -3.72279 0
M  V30 16137 N 1624.43 0.718038 1.40292 0
M  V30 16138 C 1625.36 0.0818367 2.33357 0
M  V30 16139 C 1626.34 -0.742854 1.53022 0
M  V30 16140 O 1627.53 -0.691281 1.8148 0
M  V30 16141 C 1624.66 -0.838843 3.37017 0
M  V30 16142 C 1623.61 -0.119589 4.27833 0
M  V30 16143 C 1622.94 -1.15615 5.22051 0
M  V30 16144 C 1624.24 1.02769 5.1209 0
M  V30 16145 H 1625.93 0.859167 2.86808 0
M  V30 16146 H 1623.48 0.414606 1.37902 0
M  V30 16147 H 1625.43 -1.29332 4.01063 0
M  V30 16148 H 1624.15 -1.6481 2.81967 0
M  V30 16149 H 1622.81 0.315088 3.65243 0
M  V30 16150 H 1622.46 -1.95852 4.63304 0
M  V30 16151 H 1622.16 -0.679767 5.83655 0
M  V30 16152 H 1623.69 -1.61068 5.88973 0
M  V30 16153 H 1625.1 0.652461 5.69575 0
M  V30 16154 H 1623.5 1.4326 5.82749 0
M  V30 16155 H 1624.57 1.85723 4.47923 0
M  V30 16156 N 1625.91 -1.50602 0.464402 0
M  V30 16157 C 1627.19 -1.94992 -0.154146 0
M  V30 16158 C 1627.57 -1.40447 -1.57601 0
M  V30 16159 O 1626.92 -0.602668 -2.20409 0
M  V30 16160 C 1627.13 -3.48844 -0.104296 0
M  V30 16161 C 1628.47 -4.23563 -0.296506 0
M  V30 16162 O 1629.5 -3.55739 -0.181187 0
M  V30 16163 O 1628.36 -5.43937 -0.528668 0
M  V30 16164 H 1625.45 -0.818921 -0.115311 0
M  V30 16165 H 1628 -1.61397 0.524324 0
M  V30 16166 H 1626.77 -3.81075 0.88869 0
M  V30 16167 H 1626.39 -3.88957 -0.824514 0
M  V30 16168 N 1627.39 -0.19675 -1.56367 0
M  V30 16169 C 1628.8 0.315555 -1.84014 0
M  V30 16170 C 1629.15 1.61267 -1.11747 0
M  V30 16171 O 1628.28 2.13058 -0.378824 0
M  V30 16172 C 1628.87 0.579307 -3.33811 0
M  V30 16173 C 1627.43 1.03598 -3.61862 0
M  V30 16174 C 1626.58 0.0854845 -2.77168 0
M  V30 16175 H 1629.53 -0.4205 -1.53028 0
M  V30 16176 H 1629.55 1.42841 -3.52671 0
M  V30 16177 H 1629.06 -0.364925 -3.86381 0
M  V30 16178 H 1627.16 1.99443 -3.14727 0
M  V30 16179 H 1627.27 0.927547 -4.70035 0
M  V30 16180 H 1625.64 0.58768 -2.47827 0
M  V30 16181 H 1626.42 -0.853221 -3.32528 0
M  V30 16182 N 1628.87 1.57413 0.0768405 0
M  V30 16183 C 1630.11 1.87279 0.778099 0
M  V30 16184 C 1630.45 0.788359 1.77478 0
M  V30 16185 O 1629.72 -0.201876 1.9345 0
M  V30 16186 C 1630 3.27801 1.49059 0
M  V30 16187 C 1629.86 4.46892 0.510661 0
M  V30 16188 C 1631.18 3.66485 2.43674 0
M  V30 16189 H 1628.29 0.681159 0.281409 0
M  V30 16190 H 1630.94 1.89955 0.0413711 0
M  V30 16191 H 1629.09 3.2565 2.11859 0
M  V30 16192 H 1630.76 4.61165 -0.111734 0
M  V30 16193 H 1629 4.33449 -0.174445 0
M  V30 16194 H 1629.67 5.41985 1.04671 0
M  V30 16195 H 1632.15 3.69696 1.90955 0
M  V30 16196 H 1631.02 4.65706 2.90533 0
M  V30 16197 H 1631.29 2.96145 3.28254 0
M  V30 16198 N 1630.34 -0.348112 1.53707 0
M  V30 16199 C 1631.27 -1.43296 1.8436 0
M  V30 16200 C 1632.26 -1.55102 0.698376 0
M  V30 16201 O 1633.44 -1.69385 0.949864 0
M  V30 16202 C 1630.57 -2.80407 2.04912 0
M  V30 16203 C 1629.52 -2.83412 3.20721 0
M  V30 16204 C 1628.85 -4.23365 3.26597 0
M  V30 16205 C 1630.15 -2.49358 4.58931 0
M  V30 16206 H 1631.84 -1.17892 2.75212 0
M  V30 16207 H 1629.39 -0.565692 1.32423 0
M  V30 16208 H 1631.34 -3.56343 2.24939 0
M  V30 16209 H 1630.07 -3.07236 1.10786 0
M  V30 16210 H 1628.73 -2.09929 3.00542 0
M  V30 16211 H 1628.37 -4.47297 2.30076 0
M  V30 16212 H 1628.07 -4.26287 4.04417 0
M  V30 16213 H 1629.6 -5.01149 3.4883 0
M  V30 16214 H 1631.01 -3.15006 4.79003 0
M  V30 16215 H 1629.41 -2.6357 5.3912 0
M  V30 16216 H 1630.48 -1.44557 4.62851 0
M  V30 16217 N 1631.82 -1.45363 -0.608876 0
M  V30 16218 C 1632.75 -1.56778 -1.7304 0
M  V30 16219 C 1633.73 -0.419405 -1.64848 0
M  V30 16220 O 1634.92 -0.64238 -1.83268 0
M  V30 16221 C 1632.05 -1.5329 -3.1164 0
M  V30 16222 C 1631 -2.66832 -3.34641 0
M  V30 16223 C 1630.33 -2.48398 -4.735 0
M  V30 16224 C 1631.63 -4.0885 -3.25021 0
M  V30 16225 H 1633.32 -2.50656 -1.63743 0
M  V30 16226 H 1630.87 -1.20635 -0.786338 0
M  V30 16227 H 1632.82 -1.59873 -3.89895 0
M  V30 16228 H 1631.55 -0.559414 -3.21773 0
M  V30 16229 H 1630.2 -2.59675 -2.58775 0
M  V30 16230 H 1629.85 -1.49191 -4.80366 0
M  V30 16231 H 1629.55 -3.24537 -4.89846 0
M  V30 16232 H 1631.08 -2.56833 -5.53958 0
M  V30 16233 H 1632.49 -4.17257 -3.93153 0
M  V30 16234 H 1630.89 -4.85369 -3.52897 0
M  V30 16235 H 1631.96 -4.30849 -2.2248 0
M  V30 16236 N 1633.3 0.851265 -1.32632 0
M  V30 16237 C 1634.26 1.94168 -1.21785 0
M  V30 16238 C 1635.26 1.60189 -0.140023 0
M  V30 16239 O 1636.45 1.69763 -0.390671 0
M  V30 16240 C 1633.59 3.29513 -0.873717 0
M  V30 16241 H 1634.78 2.05214 -2.18695 0
M  V30 16242 H 1632.33 1.04186 -1.16512 0
M  V30 16243 H 1633.07 3.24165 0.0934202 0
M  V30 16244 H 1632.85 3.55552 -1.65302 0
M  V30 16245 H 1634.34 4.09425 -0.822231 0
M  V30 16246 N 1634.78 1.15898 1.06796 0
M  V30 16247 C 1636.03 0.935488 1.79145 0
M  V30 16248 C 1636.35 -0.538433 1.87419 0
M  V30 16249 O 1635.62 -1.39124 1.37917 0
M  V30 16250 H 1634.2 0.343123 0.663533 0
M  V30 16251 H 1636.86 1.4607 1.29034 0
M  V30 16252 H 1635.96 1.34978 2.81402 0
M  V30 16253 N 1636.26 -1.25243 0.956659 0
M  V30 16254 C 1637.5 -1.92632 0.611328 0
M  V30 16255 C 1637.83 -1.75272 -0.85467 0
M  V30 16256 O 1637.1 -1.11758 -1.60894 0
M  V30 16257 H 1635.68 -0.712904 0.223109 0
M  V30 16258 H 1638.34 -1.52366 1.21534 0
M  V30 16259 H 1637.43 -3.00516 0.842396 0
M  V30 16260 N 1637.73 -0.725468 -1.3991 0
M  V30 16261 C 1639.15 -0.340415 -1.8357 0
M  V30 16262 C 1639.5 1.1266 -1.6063 0
M  V30 16263 O 1638.62 1.86804 -1.0924 0
M  V30 16264 C 1639.22 -0.611079 -3.33244 0
M  V30 16265 C 1637.78 -0.279627 -3.7536 0
M  V30 16266 C 1636.92 -0.878498 -2.63017 0
M  V30 16267 H 1639.87 -0.923856 -1.29037 0
M  V30 16268 H 1639.89 0.120377 -3.8031 0
M  V30 16269 H 1639.41 -1.67886 -3.49908 0
M  V30 16270 H 1637.51 0.782703 -3.64286 0
M  V30 16271 H 1637.62 -0.755528 -4.73105 0
M  V30 16272 H 1635.98 -0.305813 -2.52857 0
M  V30 16273 H 1636.77 -1.95075 -2.8249 0
M  V30 16274 N 1639.21 1.50354 -0.472382 0
M  V30 16275 C 1640.44 2.06746 0.0798134 0
M  V30 16276 C 1640.86 1.3361 1.33393 0
M  V30 16277 O 1640.21 0.405765 1.77932 0
M  V30 16278 C 1640.26 3.59636 0.3666 0
M  V30 16279 O 1639.98 4.30015 -0.837776 0
M  V30 16280 C 1641.49 4.32655 0.965618 0
M  V30 16281 H 1638.71 0.670956 -0.00765904 0
M  V30 16282 H 1641.25 1.93504 -0.661535 0
M  V30 16283 H 1639.4 3.72676 1.05788 0
M  V30 16284 H 1639.82 5.21248 -0.583161 0
M  V30 16285 H 1641.29 5.406 1.11604 0
M  V30 16286 H 1641.77 3.93237 1.95606 0
M  V30 16287 H 1642.38 4.24149 0.312676 0
M  V30 16288 N 1640.69 0.205039 1.56261 0
M  V30 16289 C 1641.97 -0.479238 1.89638 0
M  V30 16290 C 1642.35 -1.78938 1.12002 0
M  V30 16291 O 1641.7 -2.27398 0.224179 0
M  V30 16292 C 1641.91 -0.688324 3.42145 0
M  V30 16293 C 1643.25 -1.00322 4.12578 0
M  V30 16294 O 1644.28 -0.775697 3.47651 0
M  V30 16295 O 1643.14 -1.43412 5.27347 0
M  V30 16296 H 1640.23 -0.251125 0.78795 0
M  V30 16297 H 1642.78 0.245994 1.67908 0
M  V30 16298 H 1641.55 0.236479 3.90585 0
M  V30 16299 H 1641.17 -1.46565 3.696 0
M  V30 16300 N 1642.17 -1.57451 -0.0684915 0
M  V30 16301 C 1643.59 -1.53883 -0.423354 0
M  V30 16302 C 1643.79 -0.925698 -1.78978 0
M  V30 16303 O 1642.84 -0.529629 -2.46883 0
M  V30 16304 C 1644.15 -2.98521 -0.361386 0
M  V30 16305 C 1645.7 -3.09873 -0.441334 0
M  V30 16306 C 1646.18 -4.56168 -0.409239 0
M  V30 16307 N 1647.67 -4.60817 -0.469216 0
M  V30 16308 C 1648.4 -5.71498 -0.466648 0
M  V30 16309 N 1647.9 -6.91534 -0.4187 0
M  V30 16310 N 1649.69 -5.5975 -0.513452 0
M  V30 16311 H 1641.84 -1.95672 0.8262 0
M  V30 16312 H 1644.11 -0.895759 0.310354 0
M  V30 16313 H 1643.81 -3.46951 0.576035 0
M  V30 16314 H 1643.69 -3.58585 -1.17032 0
M  V30 16315 H 1646.07 -2.61414 -1.36918 0
M  V30 16316 H 1646.15 -2.52712 0.396237 0
M  V30 16317 H 1645.8 -5.05285 0.514772 0
M  V30 16318 H 1645.73 -5.11195 -1.26439 0
M  V30 16319 H 1648.22 -3.74438 -0.510387 0
M  V30 16320 H 1648.53 -7.71654 -0.420757 0
M  V30 16321 H 1646.88 -6.93931 -0.385338 0
M  V30 16322 H 1650.07 -4.64874 -0.548626 0
M  V30 16323 H 1650.24 -6.46006 -0.507982 0
M  V30 16324 N 1643.65 0.339955 -1.5389 0
M  V30 16325 C 1644.61 1.40058 -1.81429 0
M  V30 16326 C 1645.61 1.45458 -0.685463 0
M  V30 16327 O 1646.8 1.45771 -0.953754 0
M  V30 16328 C 1643.93 2.78952 -1.95955 0
M  V30 16329 H 1645.13 1.16902 -2.76178 0
M  V30 16330 H 1642.68 0.574543 -1.45357 0
M  V30 16331 H 1643.41 3.07387 -1.03361 0
M  V30 16332 H 1643.2 2.76429 -2.78082 0
M  V30 16333 H 1644.69 3.55713 -2.18765 0
M  V30 16334 N 1645.13 1.45684 0.601159 0
M  V30 16335 C 1646.04 1.57396 1.73965 0
M  V30 16336 C 1647.05 0.458133 1.6786 0
M  V30 16337 O 1648.23 0.719717 1.88101 0
M  V30 16338 C 1645.29 1.54363 3.1044 0
M  V30 16339 C 1644.35 2.77034 3.27949 0
M  V30 16340 C 1643.59 2.74136 4.57914 0
M  V30 16341 O 1643.81 1.81829 5.40643 0
M  V30 16342 O 1642.74 3.65428 4.78274 0
M  V30 16343 H 1646.57 2.5364 1.67034 0
M  V30 16344 H 1644.15 1.28267 0.766017 0
M  V30 16345 H 1646.04 1.55302 3.91739 0
M  V30 16346 H 1644.71 0.612723 3.17848 0
M  V30 16347 H 1643.62 2.81655 2.46214 0
M  V30 16348 H 1644.95 3.69272 3.25422 0
M  V30 16349 N 1646.6 -0.84422 1.33082 0
M  V30 16350 C 1647.85 -1.59596 1.2399 0
M  V30 16351 C 1648.17 -1.94016 -0.19566 0
M  V30 16352 O 1647.44 -1.60512 -1.12306 0
M  V30 16353 H 1646.02 -0.591727 0.455926 0
M  V30 16354 H 1648.68 -1.00924 1.66735 0
M  V30 16355 H 1647.78 -2.52829 1.82986 0
M  V30 16356 N 1648.08 -1.16463 -1.0618 0
M  V30 16357 C 1649.5 -0.909776 -1.31131 0
M  V30 16358 C 1649.7 0.436686 -1.96711 0
M  V30 16359 O 1648.75 1.17595 -2.23445 0
M  V30 16360 C 1650.07 -2.05967 -2.19084 0
M  V30 16361 C 1651.61 -2.09557 -2.32497 0
M  V30 16362 C 1652.09 -3.23904 -3.23806 0
M  V30 16363 N 1653.58 -3.23628 -3.3139 0
M  V30 16364 C 1654.32 -4.08746 -4.02137 0
M  V30 16365 N 1653.81 -5.03954 -4.75397 0
M  V30 16366 N 1655.6 -3.96729 -3.98199 0
M  V30 16367 H 1647.76 -2.03148 -0.620066 0
M  V30 16368 H 1650.02 -0.886477 -0.335949 0
M  V30 16369 H 1649.72 -3.03227 -1.78174 0
M  V30 16370 H 1649.6 -2.00219 -3.19675 0
M  V30 16371 H 1651.99 -1.12889 -2.72654 0
M  V30 16372 H 1652.07 -2.19369 -1.3157 0
M  V30 16373 H 1651.71 -4.20831 -2.84366 0
M  V30 16374 H 1651.64 -3.11327 -4.24715 0
M  V30 16375 H 1654.13 -2.54687 -2.79182 0
M  V30 16376 H 1654.44 -5.65319 -5.2691 0
M  V30 16377 H 1652.79 -5.07932 -4.74373 0
M  V30 16378 H 1655.98 -3.21652 -3.40085 0
M  V30 16379 H 1656.15 -4.63286 -4.53067 0
M  V30 16380 N 1649.56 1.24734 -0.963288 0
M  V30 16381 C 1650.52 2.23795 -0.494824 0
M  V30 16382 C 1651.52 1.55584 0.406225 0
M  V30 16383 O 1652.71 1.73021 0.202302 0
M  V30 16384 C 1649.84 3.39715 0.283963 0
M  V30 16385 H 1651.04 2.66753 -1.37051 0
M  V30 16386 H 1648.59 1.37271 -0.747428 0
M  V30 16387 H 1649.33 3.0219 1.17693 0
M  V30 16388 H 1649.11 3.9042 -0.362586 0
M  V30 16389 H 1650.6 4.13254 0.600899 0
M  V30 16390 N 1651.04 0.732878 1.39523 0
M  V30 16391 C 1652.28 0.280305 2.00854 0
M  V30 16392 C 1652.62 -1.12891 1.58017 0
M  V30 16393 O 1651.89 -1.76919 0.808086 0
M  V30 16394 C 1652.17 0.37978 3.58092 0
M  V30 16395 C 1652.03 1.82861 4.10953 0
M  V30 16396 C 1653.35 -0.239026 4.3945 0
M  V30 16397 H 1650.47 0.103326 0.729721 0
M  V30 16398 H 1653.11 0.928634 1.6576 0
M  V30 16399 H 1651.26 -0.172198 3.88118 0
M  V30 16400 H 1652.93 2.4373 3.91655 0
M  V30 16401 H 1651.17 2.35064 3.64592 0
M  V30 16402 H 1651.84 1.84949 5.20094 0
M  V30 16403 H 1654.32 0.231488 4.15456 0
M  V30 16404 H 1653.2 -0.139068 5.48724 0
M  V30 16405 H 1653.46 -1.32481 4.21783 0
M  V30 16406 N 1652.52 -1.50101 0.480349 0
M  V30 16407 C 1653.45 -2.31581 -0.298718 0
M  V30 16408 C 1654.43 -1.38905 -0.981798 0
M  V30 16409 O 1655.61 -1.67823 -0.977188 0
M  V30 16410 C 1652.74 -3.18891 -1.37571 0
M  V30 16411 C 1651.7 -4.20194 -0.813704 0
M  V30 16412 C 1651.02 -4.96302 -1.98968 0
M  V30 16413 C 1652.32 -5.21985 0.181295 0
M  V30 16414 H 1654.02 -2.96961 0.381349 0
M  V30 16415 H 1651.56 -1.42809 0.184842 0
M  V30 16416 H 1653.51 -3.74694 -1.92828 0
M  V30 16417 H 1652.24 -2.51414 -2.08467 0
M  V30 16418 H 1650.9 -3.65506 -0.283034 0
M  V30 16419 H 1650.55 -4.2529 -2.68584 0
M  V30 16420 H 1650.25 -5.64833 -1.61981 0
M  V30 16421 H 1651.77 -5.54943 -2.54698 0
M  V30 16422 H 1653.18 -5.72604 -0.28242 0
M  V30 16423 H 1651.58 -5.98289 0.465916 0
M  V30 16424 H 1652.65 -4.72162 1.10413 0
M  V30 16425 N 1653.99 -0.213323 -1.5615 0
M  V30 16426 C 1655.24 0.421221 -1.98377 0
M  V30 16427 C 1655.57 1.59998 -1.10065 0
M  V30 16428 O 1654.85 1.93869 -0.15654 0
M  V30 16429 C 1655.13 0.86375 -3.49587 0
M  V30 16430 C 1654.98 -0.318077 -4.48674 0
M  V30 16431 C 1656.3 1.72285 -4.04976 0
M  V30 16432 H 1653.42 0.151635 -0.721232 0
M  V30 16433 H 1656.06 -0.307907 -1.87488 0
M  V30 16434 H 1654.21 1.48503 -3.58998 0
M  V30 16435 H 1655.89 -0.956094 -4.51283 0
M  V30 16436 H 1654.13 -0.966881 -4.22888 0
M  V30 16437 H 1654.8 0.0343662 -5.51989 0
M  V30 16438 H 1657.28 1.19872 -3.98459 0
M  V30 16439 H 1656.15 2.0014 -5.11112 0
M  V30 16440 H 1656.41 2.68336 -3.51352 0
M  V30 16441 N 1655.47 1.57485 0.0601405 0
M  V30 16442 C 1656.72 1.87445 0.755575 0
M  V30 16443 C 1657.04 0.806915 1.77522 0
M  V30 16444 O 1656.31 -0.163139 1.9522 0
M  V30 16445 H 1654.89 0.691708 0.282044 0
M  V30 16446 H 1657.55 1.94871 0.0334616 0
M  V30 16447 H 1656.65 2.85334 1.26455 0
M  V30 16448 N 1656.95 -0.331789 1.54068 0
M  V30 16449 C 1658.19 -1.07901 1.736 0
M  V30 16450 C 1658.55 -1.85513 0.494862 0
M  V30 16451 O 1659.76 -2.62743 0.567392 0
M  V30 16452 C 1658.03 -1.9858 2.97154 0
M  V30 16453 S 1659.59 -2.80365 3.37552 0
M  V30 16454 H 1656.4 -0.364399 0.61052 0
M  V30 16455 H 1659.01 -0.355989 1.92232 0
M  V30 16456 H 1657.71 -1.40383 3.85643 0
M  V30 16457 H 1657.24 -2.753 2.81022 0
M  V30 16458 H 1659.26 -4.01036 2.92207 0
M  V30 16459 N 1658.43 -1.46001 -0.593424 0
M  V30 16460 C 1659.66 -1.54307 -1.3783 0
M  V30 16461 C 1660.07 -0.18048 -1.87935 0
M  V30 16462 O 1659.43 0.820427 -1.63019 0
M  V30 16463 C 1659.48 -2.53911 -2.57316 0
M  V30 16464 O 1659.2 -3.84876 -2.09289 0
M  V30 16465 C 1660.7 -2.72054 -3.50002 0
M  V30 16466 H 1657.92 -0.522149 -0.421428 0
M  V30 16467 H 1660.47 -1.91315 -0.722423 0
M  V30 16468 H 1658.62 -2.19937 -3.18915 0
M  V30 16469 H 1659.03 -4.38996 -2.87025 0
M  V30 16470 H 1660.51 -3.45692 -4.3035 0
M  V30 16471 H 1660.99 -1.78583 -4.01254 0
M  V30 16472 H 1661.59 -3.07082 -2.94246 0
M  V30 16473 N 1659.91 0.83715 -1.33527 0
M  V30 16474 C 1661.15 1.58937 -1.24834 0
M  V30 16475 C 1661.48 1.94117 0.185368 0
M  V30 16476 O 1660.75 1.61105 1.11453 0
M  V30 16477 H 1659.33 0.589301 -0.459057 0
M  V30 16478 H 1661.99 1.00038 -1.67267 0
M  V30 16479 H 1661.08 2.51855 -1.84325 0
M  V30 16480 N 1661.38 1.17024 1.05561 0
M  V30 16481 C 1662.61 0.98075 1.82178 0
M  V30 16482 C 1663.03 -0.471027 1.8283 0
M  V30 16483 O 1662.38 -1.32703 1.25284 0
M  V30 16484 C 1662.44 1.50979 3.28463 0
M  V30 16485 O 1662.16 2.90471 3.27961 0
M  V30 16486 C 1663.66 1.36436 4.21782 0
M  V30 16487 H 1660.88 0.3472 0.574189 0
M  V30 16488 H 1663.42 1.55226 1.33136 0
M  V30 16489 H 1661.58 0.980393 3.74789 0
M  V30 16490 H 1661.99 3.14847 4.19489 0
M  V30 16491 H 1663.46 1.78272 5.2242 0
M  V30 16492 H 1663.94 0.310922 4.38098 0
M  V30 16493 H 1664.55 1.88374 3.81308 0
M  V30 16494 N 1662.86 -1.24221 0.969889 0
M  V30 16495 C 1663.83 -2.23529 0.506686 0
M  V30 16496 C 1664.83 -1.55797 -0.397968 0
M  V30 16497 O 1666.02 -1.73126 -0.193124 0
M  V30 16498 C 1663.15 -3.39861 -0.265943 0
M  V30 16499 H 1664.34 -2.66022 1.38463 0
M  V30 16500 H 1661.89 -1.36872 0.754698 0
M  V30 16501 H 1662.63 -3.0281 -1.16089 0
M  V30 16502 H 1662.41 -3.90222 0.383286 0
M  V30 16503 H 1663.9 -4.13567 -0.578975 0
M  V30 16504 N 1664.34 -0.740267 -1.39132 0
M  V30 16505 C 1665.3 -0.112183 -2.28925 0
M  V30 16506 C 1666.3 0.661598 -1.46559 0
M  V30 16507 O 1667.49 0.489835 -1.67171 0
M  V30 16508 C 1664.63 0.850121 -3.3013 0
M  V30 16509 H 1665.82 -0.903339 -2.85972 0
M  V30 16510 H 1663.37 -0.506427 -1.47868 0
M  V30 16511 H 1664.11 1.66744 -2.78149 0
M  V30 16512 H 1663.89 0.297847 -3.90967 0
M  V30 16513 H 1665.38 1.28599 -3.97306 0
M  V30 16514 N 1665.82 1.49844 -0.488302 0
M  V30 16515 C 1666.77 2.30515 0.310703 0
M  V30 16516 C 1667.76 1.38559 0.974569 0
M  V30 16517 O 1668.97 1.5567 0.903708 0
M  V30 16518 H 1665.34 0.742517 0.119049 0
M  V30 16519 H 1667.31 2.95842 -0.389849 0
M  V30 16520 C 1666.06 3.19575 1.36994 0
M  V30 16521 H 1665.38 3.90253 0.868497 0
M  V30 16522 H 1666.82 3.78984 1.90123 0
M  V30 16523 C 1665.28 2.38324 2.38124 0
M  V30 16524 O 1665.81 2.07842 3.43751 0
M  V30 16525 N 1664.02 2.00583 2.10273 0
M  V30 16526 H 1663.57 2.25572 1.24399 0
M  V30 16527 H 1663.52 1.46525 2.78169 0
M  V30 16528 N 1667.3 0.221601 1.56034 0
M  V30 16529 C 1668.54 -0.409277 1.97912 0
M  V30 16530 C 1668.87 -1.60291 1.11049 0
M  V30 16531 O 1668.14 -1.95 0.187529 0
M  V30 16532 H 1666.72 -0.154201 0.730911 0
M  V30 16533 H 1669.38 0.314508 1.92346 0
M  V30 16534 H 1668.47 -0.73557 3.03308 0
M  V30 16535 N 1668.77 -1.57515 -0.0517878 0
M  V30 16536 C 1670.02 -1.87843 -0.745624 0
M  V30 16537 C 1670.34 -0.816318 -1.77091 0
M  V30 16538 O 1669.61 0.152784 -1.95303 0
M  V30 16539 H 1668.19 -0.693194 -0.278372 0
M  V30 16540 H 1670.86 -1.94886 -0.0231267 0
M  V30 16541 H 1669.95 -2.86001 -1.2494 0
M  V30 16542 N 1670.25 0.323614 -1.54242 0
M  V30 16543 C 1671.66 0.898051 -1.63682 0
M  V30 16544 C 1672.02 1.88882 -0.530861 0
M  V30 16545 O 1671.14 2.13772 0.336245 0
M  V30 16546 C 1671.74 1.63561 -2.96704 0
M  V30 16547 C 1670.29 2.15877 -3.08341 0
M  V30 16548 C 1669.44 0.984145 -2.59249 0
M  V30 16549 H 1672.39 0.101198 -1.58377 0
M  V30 16550 H 1672.41 2.49982 -2.86861 0
M  V30 16551 H 1671.93 0.914265 -3.77177 0
M  V30 16552 H 1670.03 2.91127 -2.32542 0
M  V30 16553 H 1670.14 2.40881 -4.14141 0
M  V30 16554 H 1668.5 1.3633 -2.15143 0
M  V30 16555 H 1669.29 0.277118 -3.4218 0
M  V30 16556 N 1671.73 1.46313 0.585673 0
M  V30 16557 C 1672.68 1.5307 1.68978 0
M  V30 16558 C 1673.67 0.391901 1.56054 0
M  V30 16559 O 1674.86 0.64013 1.65019 0
M  V30 16560 C 1671.99 1.52113 3.07761 0
M  V30 16561 C 1671.07 2.71276 3.25991 0
M  V30 16562 N 1671.46 3.9622 3.14393 0
M  V30 16563 C 1669.76 2.67436 3.56923 0
M  V30 16564 C 1670.46 4.7587 3.34549 0
M  V30 16565 N 1669.44 4.07693 3.59565 0
M  V30 16566 H 1673.24 2.47474 1.58537 0
M  V30 16567 H 1670.75 1.41911 0.789614 0
M  V30 16568 H 1672.75 1.5504 3.86999 0
M  V30 16569 H 1671.41 0.587834 3.19335 0
M  V30 16570 H 1672.42 4.27513 2.92323 0
M  V30 16571 H 1669.1 1.83116 3.75199 0
M  V30 16572 H 1670.49 5.84831 3.3079 0
M  V30 16573 N 1673.21 -0.830057 1.33969 0
M  V30 16574 C 1674.12 -1.97244 1.27012 0
M  V30 16575 C 1675.14 -1.73076 0.179075 0
M  V30 16576 O 1676.31 -1.97301 0.404262 0
M  V30 16577 C 1673.38 -3.31409 1.01827 0
M  V30 16578 C 1672.44 -3.68633 2.20018 0
M  V30 16579 C 1671.67 -4.96397 1.96025 0
M  V30 16580 O 1671.89 -5.63014 0.91494 0
M  V30 16581 O 1670.83 -5.31331 2.82791 0
M  V30 16582 H 1674.65 -2.06056 2.23103 0
M  V30 16583 H 1672.24 -0.964399 1.14104 0
M  V30 16584 H 1674.12 -4.11779 0.895337 0
M  V30 16585 H 1672.8 -3.23581 0.0877091 0
M  V30 16586 H 1671.7 -2.88738 2.37869 0
M  V30 16587 H 1673.04 -3.81138 3.11439 0
M  V30 16588 N 1674.69 -1.17582 -1.04939 0
M  V30 16589 C 1675.93 -0.965778 -1.77986 0
M  V30 16590 C 1676.26 0.505366 -1.8782 0
M  V30 16591 O 1675.52 1.39132 -1.37625 0
M  V30 16592 C 1675.82 -1.55507 -3.21796 0
M  V30 16593 C 1675.48 -3.05086 -3.32014 0
M  V30 16594 C 1674.14 -3.45914 -3.3451 0
M  V30 16595 C 1676.5 -4.01096 -3.32824 0
M  V30 16596 C 1673.82 -4.81344 -3.35447 0
M  V30 16597 C 1676.18 -5.3643 -3.353 0
M  V30 16598 C 1674.84 -5.76718 -3.36084 0
M  V30 16599 H 1674.11 -0.353403 -0.651297 0
M  V30 16600 H 1676.76 -1.46512 -1.23315 0
M  V30 16601 H 1675.06 -0.977509 -3.7941 0
M  V30 16602 H 1676.76 -1.36807 -3.76941 0
M  V30 16603 H 1673.35 -2.72541 -3.30786 0
M  V30 16604 H 1677.53 -3.7061 -3.30094 0
M  V30 16605 H 1672.79 -5.11868 -3.34366 0
M  V30 16606 H 1676.96 -6.106 -3.34874 0
M  V30 16607 H 1674.59 -6.81637 -3.36563 0
M  V30 16608 N 1676.17 1.23705 -0.976463 0
M  V30 16609 C 1677.1 2.2734 -0.532809 0
M  V30 16610 C 1678.08 1.64523 0.432012 0
M  V30 16611 O 1679.26 1.9144 0.326233 0
M  V30 16612 C 1676.39 3.46887 0.169374 0
M  V30 16613 C 1675.35 4.22031 -0.712336 0
M  V30 16614 C 1674.67 5.34561 0.121838 0
M  V30 16615 C 1675.97 4.8244 -2.00123 0
M  V30 16616 H 1677.67 2.64702 -1.39904 0
M  V30 16617 H 1675.21 1.27244 -0.674156 0
M  V30 16618 H 1677.16 4.18529 0.491028 0
M  V30 16619 H 1675.89 3.08574 1.07002 0
M  V30 16620 H 1674.55 3.522 -1.01739 0
M  V30 16621 H 1674.2 4.92489 1.0229 0
M  V30 16622 H 1673.9 5.85758 -0.464962 0
M  V30 16623 H 1675.42 6.09027 0.437963 0
M  V30 16624 H 1676.83 5.46111 -1.7446 0
M  V30 16625 H 1675.23 5.43906 -2.53548 0
M  V30 16626 H 1676.3 4.03405 -2.69059 0
M  V30 16627 N 1677.64 0.747635 1.38738 0
M  V30 16628 C 1679.06 0.424577 1.53849 0
M  V30 16629 C 1679.26 -1.06304 1.71177 0
M  V30 16630 O 1678.32 -1.84912 1.71941 0
M  V30 16631 C 1679.63 1.21863 2.749 0
M  V30 16632 C 1681.18 1.20811 2.88745 0
M  V30 16633 C 1681.65 1.985 4.12749 0
M  V30 16634 N 1683.14 1.9573 4.19814 0
M  V30 16635 C 1683.88 2.52641 5.14743 0
M  V30 16636 N 1683.37 3.18241 6.15382 0
M  V30 16637 N 1685.17 2.42604 5.0705 0
M  V30 16638 H 1677.32 1.71182 1.25739 0
M  V30 16639 H 1679.58 0.725358 0.610376 0
M  V30 16640 H 1679.29 2.27181 2.6848 0
M  V30 16641 H 1679.16 0.831509 3.67921 0
M  V30 16642 H 1681.55 0.163013 2.94649 0
M  V30 16643 H 1681.63 1.6347 1.96752 0
M  V30 16644 H 1681.27 3.03017 4.07606 0
M  V30 16645 H 1681.2 1.53239 5.03811 0
M  V30 16646 H 1683.69 1.4795 3.47734 0
M  V30 16647 H 1684.01 3.59101 6.843 0
M  V30 16648 H 1682.35 3.22334 6.15732 0
M  V30 16649 H 1685.54 1.90987 4.27366 0
M  V30 16650 H 1685.72 2.87253 5.80852 0
M  V30 16651 N 1679.12 -1.49583 0.496242 0
M  V30 16652 C 1680.05 -2.31885 -0.274139 0
M  V30 16653 C 1681.03 -1.39939 -0.96701 0
M  V30 16654 O 1682.22 -1.6885 -0.959333 0
M  V30 16655 C 1679.35 -3.20332 -1.34181 0
M  V30 16656 C 1678.3 -4.21033 -0.769091 0
M  V30 16657 C 1677.63 -4.98385 -1.93693 0
M  V30 16658 C 1678.93 -5.21764 0.236648 0
M  V30 16659 H 1680.62 -2.9654 0.412824 0
M  V30 16660 H 1678.17 -1.42605 0.199979 0
M  V30 16661 H 1680.12 -3.76718 -1.88843 0
M  V30 16662 H 1678.84 -2.53611 -2.05789 0
M  V30 16663 H 1677.5 -3.65785 -0.244252 0
M  V30 16664 H 1677.15 -4.28115 -2.64058 0
M  V30 16665 H 1676.85 -5.66519 -1.55981 0
M  V30 16666 H 1678.38 -5.57613 -2.48798 0
M  V30 16667 H 1679.79 -5.72871 -0.221672 0
M  V30 16668 H 1678.19 -5.97761 0.529346 0
M  V30 16669 H 1679.26 -4.70964 1.15415 0
M  V30 16670 N 1680.6 -0.229873 -1.55915 0
M  V30 16671 C 1681.82 0.4072 -2.03363 0
M  V30 16672 C 1682.25 1.5197 -1.10845 0
M  V30 16673 O 1681.61 1.81034 -0.098175 0
M  V30 16674 C 1681.66 0.908268 -3.48974 0
M  V30 16675 O 1680.76 2.01907 -3.59593 0
M  V30 16676 H 1680.1 0.091091 -0.657722 0
M  V30 16677 H 1682.63 -0.350947 -2.01568 0
M  V30 16678 H 1682.64 1.21593 -3.8946 0
M  V30 16679 H 1681.32 0.0940655 -4.15794 0
M  V30 16680 H 1679.89 1.71741 -3.30998 0
M  V30 16681 N 1682.08 1.5754 0.0434337 0
M  V30 16682 C 1683.31 1.92856 0.749268 0
M  V30 16683 C 1683.72 0.828405 1.69655 0
M  V30 16684 O 1683.08 -0.196294 1.81441 0
M  V30 16685 C 1683.13 3.28052 1.51869 0
M  V30 16686 O 1682.85 4.3384 0.609442 0
M  V30 16687 C 1684.35 3.77562 2.32298 0
M  V30 16688 H 1681.57 0.636818 0.211433 0
M  V30 16689 H 1684.11 2.04499 0.00524119 0
M  V30 16690 H 1682.27 3.1785 2.21472 0
M  V30 16691 H 1682.68 5.11794 1.1475 0
M  V30 16692 H 1684.16 4.7471 2.817 0
M  V30 16693 H 1684.63 3.08015 3.13087 0
M  V30 16694 H 1685.24 3.908 1.67796 0
M  V30 16695 N 1683.56 -0.31543 1.54411 0
M  V30 16696 C 1684.78 -1.0761 1.77299 0
M  V30 16697 C 1685.21 -1.80655 0.523963 0
M  V30 16698 O 1684.56 -1.73536 -0.524874 0
M  V30 16699 C 1684.61 -2.04355 2.97105 0
M  V30 16700 O 1683.72 -3.12401 2.69219 0
M  V30 16701 H 1683.06 -0.30986 0.587267 0
M  V30 16702 H 1685.59 -0.357246 2.01457 0
M  V30 16703 H 1685.6 -2.47081 3.24677 0
M  V30 16704 H 1684.27 -1.50592 3.87679 0
M  V30 16705 H 1682.85 -2.74294 2.52621 0
M  V30 16706 N 1685.03 -1.46622 -0.577906 0
M  V30 16707 C 1686.28 -1.52181 -1.33594 0
M  V30 16708 C 1686.61 -0.175484 -1.93707 0
M  V30 16709 O 1685.86 0.829407 -1.77255 0
M  V30 16710 C 1686.16 -2.57215 -2.48144 0
M  V30 16711 C 1685.83 -4.01095 -2.05993 0
M  V30 16712 C 1684.49 -4.40267 -1.94213 0
M  V30 16713 C 1686.84 -4.91459 -1.73543 0
M  V30 16714 C 1684.17 -5.67661 -1.48248 0
M  V30 16715 C 1686.52 -6.19296 -1.29055 0
M  V30 16716 C 1685.19 -6.57369 -1.15856 0
M  V30 16717 H 1684.46 -0.556868 -0.488855 0
M  V30 16718 H 1687.1 -1.80122 -0.65026 0
M  V30 16719 H 1685.41 -2.22952 -3.22179 0
M  V30 16720 H 1687.11 -2.58744 -3.06354 0
M  V30 16721 H 1683.7 -3.70134 -2.16098 0
M  V30 16722 H 1687.88 -4.61911 -1.81527 0
M  V30 16723 H 1683.14 -5.95928 -1.36676 0
M  V30 16724 H 1687.31 -6.88741 -1.03001 0
M  V30 16725 H 1684.94 -7.55977 -0.800148 0
M  V30 16726 N 1686.51 0.822941 -1.34408 0
M  V30 16727 C 1687.44 1.94142 -1.21826 0
M  V30 16728 C 1688.46 1.6215 -0.145353 0
M  V30 16729 O 1689.65 1.74025 -0.397205 0
M  V30 16730 C 1686.75 3.28077 -0.849619 0
M  V30 16731 C 1685.92 3.88092 -2.0175 0
M  V30 16732 C 1684.98 5.00406 -1.62726 0
M  V30 16733 O 1684 5.18703 -2.34383 0
M  V30 16734 N 1685.21 5.7797 -0.541413 0
M  V30 16735 H 1687.97 2.05467 -2.18182 0
M  V30 16736 H 1685.53 0.999521 -1.27362 0
M  V30 16737 H 1687.52 4.00661 -0.57035 0
M  V30 16738 H 1686.09 3.12591 0.0237499 0
M  V30 16739 H 1685.31 3.07902 -2.46151 0
M  V30 16740 H 1686.6 4.24921 -2.79856 0
M  V30 16741 H 1686 5.65674 0.0542929 0
M  V30 16742 H 1684.56 6.51005 -0.321874 0
M  V30 16743 N 1687.99 1.18137 1.04314 0
M  V30 16744 C 1688.9 0.921044 2.15764 0
M  V30 16745 C 1689.92 -0.11396 1.73626 0
M  V30 16746 O 1691.09 0.0673733 2.01287 0
M  V30 16747 C 1688.16 0.447581 3.43799 0
M  V30 16748 C 1687.22 1.55025 4.00332 0
M  V30 16749 C 1686.45 1.09928 5.22256 0
M  V30 16750 O 1686.67 -0.0430152 5.70384 0
M  V30 16751 O 1685.61 1.896 5.71258 0
M  V30 16752 H 1689.43 1.85353 2.40579 0
M  V30 16753 H 1687.02 0.962985 1.14223 0
M  V30 16754 H 1688.9 0.191497 4.20965 0
M  V30 16755 H 1687.58 -0.456641 3.20463 0
M  V30 16756 H 1686.48 1.86032 3.24566 0
M  V30 16757 H 1687.82 2.4305 4.28004 0
M  V30 16758 N 1689.47 -1.23186 0.98301 0
M  V30 16759 C 1690.38 -2.28448 0.533727 0
M  V30 16760 C 1691.39 -1.69034 -0.412732 0
M  V30 16761 O 1692.57 -1.99416 -0.282007 0
M  V30 16762 C 1689.64 -3.46357 -0.154179 0
M  V30 16763 C 1688.7 -4.21121 0.834009 0
M  V30 16764 C 1687.93 -5.334 0.178836 0
M  V30 16765 O 1688.15 -5.61032 -1.02952 0
M  V30 16766 O 1687.09 -5.95451 0.878722 0
M  V30 16767 H 1690.91 -2.69027 1.40919 0
M  V30 16768 H 1688.5 -1.29166 0.75077 0
M  V30 16769 H 1690.38 -4.17926 -0.539947 0
M  V30 16770 H 1689.05 -3.07724 -1.00437 0
M  V30 16771 H 1687.96 -3.51864 1.27053 0
M  V30 16772 H 1689.29 -4.6361 1.65309 0
M  V30 16773 N 1690.95 -0.754982 -1.38339 0
M  V30 16774 C 1692.36 -0.43273 -1.53622 0
M  V30 16775 C 1692.56 1.05395 -1.71739 0
M  V30 16776 O 1691.62 1.83998 -1.72919 0
M  V30 16777 C 1692.93 -1.23319 -2.7425 0
M  V30 16778 C 1694.48 -1.22341 -2.881 0
M  V30 16779 C 1694.95 -2.00686 -4.11691 0
M  V30 16780 N 1696.45 -1.97953 -4.1877 0
M  V30 16781 C 1697.18 -2.55367 -5.13396 0
M  V30 16782 N 1696.68 -3.215 -6.13685 0
M  V30 16783 N 1698.47 -2.45289 -5.05757 0
M  V30 16784 H 1690.62 -1.71847 -1.2483 0
M  V30 16785 H 1692.88 -0.728585 -0.606521 0
M  V30 16786 H 1692.59 -2.28602 -2.67272 0
M  V30 16787 H 1692.46 -0.851009 -3.67475 0
M  V30 16788 H 1694.85 -0.178637 -2.94559 0
M  V30 16789 H 1694.93 -1.64511 -1.95882 0
M  V30 16790 H 1694.58 -3.05175 -4.05994 0
M  V30 16791 H 1694.51 -1.55908 -5.02991 0
M  V30 16792 H 1697 -1.49792 -3.46945 0
M  V30 16793 H 1697.31 -3.62725 -6.82386 0
M  V30 16794 H 1695.65 -3.25595 -6.14014 0
M  V30 16795 H 1698.85 -1.93251 -4.26347 0
M  V30 16796 H 1699.02 -2.9033 -5.79321 0
M  V30 16797 N 1692.42 1.49318 -0.504168 0
M  V30 16798 C 1693.7 1.95332 0.102393 0
M  V30 16799 C 1694.08 1.44576 1.53821 0
M  V30 16800 O 1693.43 0.660894 2.18734 0
M  V30 16801 C 1693.64 3.48998 0.0117694 0
M  V30 16802 C 1694.99 4.24201 0.184101 0
M  V30 16803 O 1696.01 3.56094 0.0868056 0
M  V30 16804 O 1694.87 5.45147 0.384267 0
M  V30 16805 H 1691.96 0.821691 0.0935582 0
M  V30 16806 H 1694.51 1.5995 -0.566932 0
M  V30 16807 H 1693.28 3.78585 -0.989413 0
M  V30 16808 H 1692.91 3.91006 0.7211 0
M  V30 16809 N 1693.9 0.238138 1.5579 0
M  V30 16810 C 1695.15 -0.389031 1.98728 0
M  V30 16811 C 1695.48 -1.58584 1.12612 0
M  V30 16812 O 1694.73 -1.94917 0.174879 0
M  V30 16813 C 1695.03 -0.850646 3.47129 0
M  V30 16814 C 1694.7 0.237442 4.50274 0
M  V30 16815 C 1693.36 0.536307 4.78202 0
M  V30 16816 C 1695.71 0.972476 5.12047 0
M  V30 16817 C 1693.04 1.57443 5.6518 0
M  V30 16818 C 1695.39 2.00006 6.0015 0
M  V30 16819 C 1694.06 2.30566 6.26415 0
M  V30 16820 H 1693.33 -0.142357 0.727197 0
M  V30 16821 H 1695.97 0.34413 1.88383 0
M  V30 16822 H 1694.28 -1.66286 3.54762 0
M  V30 16823 H 1695.97 -1.34604 3.77734 0
M  V30 16824 H 1692.56 -0.00564033 4.286 0
M  V30 16825 H 1696.75 0.75483 4.90526 0
M  V30 16826 H 1692 1.81664 5.83788 0
M  V30 16827 H 1696.18 2.57458 6.47061 0
M  V30 16828 H 1693.81 3.11148 6.93607 0
M  V30 16829 N 1695.38 -1.57561 -0.0350783 0
M  V30 16830 C 1696.31 -2.09201 -1.03716 0
M  V30 16831 C 1697.29 -0.993231 -1.3809 0
M  V30 16832 O 1698.48 -1.26812 -1.47079 0
M  V30 16833 C 1695.61 -2.56643 -2.3399 0
M  V30 16834 C 1694.56 -3.70731 -2.13874 0
M  V30 16835 C 1693.89 -4.04358 -3.49855 0
M  V30 16836 C 1695.19 -4.99393 -1.52982 0
M  V30 16837 H 1696.88 -2.93176 -0.60731 0
M  V30 16838 H 1694.43 -1.41036 -0.290683 0
M  V30 16839 H 1696.38 -2.9139 -3.04417 0
M  V30 16840 H 1695.1 -1.69744 -2.79024 0
M  V30 16841 H 1693.76 -3.36325 -1.45881 0
M  V30 16842 H 1693.41 -3.14534 -3.92527 0
M  V30 16843 H 1693.11 -4.81201 -3.37223 0
M  V30 16844 H 1694.63 -4.41633 -4.21654 0
M  V30 16845 H 1696.05 -5.32135 -2.13319 0
M  V30 16846 H 1694.45 -5.80807 -1.50943 0
M  V30 16847 H 1695.52 -4.82367 -0.494993 0
M  V30 16848 N 1696.86 0.307236 -1.54576 0
M  V30 16849 C 1697.82 1.36178 -1.84359 0
M  V30 16850 C 1698.82 1.43971 -0.716163 0
M  V30 16851 O 1700.01 1.43715 -0.98446 0
M  V30 16852 C 1697.14 2.74733 -2.01828 0
M  V30 16853 H 1698.34 1.11017 -2.78595 0
M  V30 16854 H 1695.89 0.543582 -1.46543 0
M  V30 16855 H 1696.62 3.05126 -1.09858 0
M  V30 16856 H 1696.41 2.70468 -2.83883 0
M  V30 16857 H 1697.9 3.50992 -2.26261 0
M  V30 16858 N 1698.34 1.46926 0.570122 0
M  V30 16859 C 1699.58 1.53113 1.32982 0
M  V30 16860 C 1699.92 0.187401 1.93294 0
M  V30 16861 O 1699.19 -0.802585 1.77169 0
M  V30 16862 C 1699.47 2.63936 2.44969 0
M  V30 16863 C 1699.33 4.07882 1.8961 0
M  V30 16864 C 1700.65 2.70753 3.46959 0
M  V30 16865 H 1697.76 0.557398 0.482158 0
M  V30 16866 H 1700.41 1.78923 0.639259 0
M  V30 16867 H 1698.56 2.42059 3.03874 0
M  V30 16868 H 1700.23 4.41084 1.35066 0
M  V30 16869 H 1698.47 4.16768 1.20361 0
M  V30 16870 H 1699.14 4.81175 2.70508 0
M  V30 16871 H 1701.62 2.90452 2.97954 0
M  V30 16872 H 1700.49 3.50093 4.2276 0
M  V30 16873 H 1700.76 1.77299 4.04991 0
M  V30 16874 N 1699.82 -0.815801 1.34842 0
M  V30 16875 C 1701.23 -1.38911 1.24742 0
M  V30 16876 C 1701.58 -1.95807 -0.124101 0
M  V30 16877 O 1700.7 -1.906 -1.02472 0
M  V30 16878 C 1701.3 -2.52532 2.25861 0
M  V30 16879 C 1699.86 -3.05751 2.1953 0
M  V30 16880 C 1699 -1.78661 2.12075 0
M  V30 16881 H 1701.95 -0.619601 1.46105 0
M  V30 16882 H 1701.98 -3.30826 1.87974 0
M  V30 16883 H 1701.49 -2.11092 3.25671 0
M  V30 16884 H 1699.59 -3.51678 1.23099 0
M  V30 16885 H 1699.7 -3.64358 3.11095 0
M  V30 16886 H 1698.07 -1.99844 1.57907 0
M  V30 16887 H 1698.85 -1.39385 3.1373 0
M  V30 16888 N 1701.29 -1.18689 -1.03686 0
M  V30 16889 C 1702.22 -0.94094 -2.13702 0
M  V30 16890 C 1703.2 0.12277 -1.69656 0
M  V30 16891 O 1704.39 -0.0306085 -1.94176 0
M  V30 16892 C 1701.52 -0.470054 -3.44104 0
M  V30 16893 C 1700.47 -1.47468 -4.01792 0
M  V30 16894 C 1699.8 -0.861174 -5.2772 0
M  V30 16895 C 1701.1 -2.85254 -4.37524 0
M  V30 16896 H 1702.79 -1.86102 -2.34534 0
M  V30 16897 H 1700.34 -0.896207 -1.12713 0
M  V30 16898 H 1702.29 -0.28533 -4.20433 0
M  V30 16899 H 1701.02 0.485604 -3.2297 0
M  V30 16900 H 1699.68 -1.64641 -3.2755 0
M  V30 16901 H 1699.32 0.10179 -5.02897 0
M  V30 16902 H 1699.02 -1.53196 -5.67278 0
M  V30 16903 H 1700.55 -0.687066 -6.06722 0
M  V30 16904 H 1701.96 -2.71711 -5.04823 0
M  V30 16905 H 1700.36 -3.49051 -4.88143 0
M  V30 16906 H 1701.43 -3.38516 -3.47181 0
M  V30 16907 N 1702.77 1.22662 -0.989529 0
M  V30 16908 C 1704.18 1.73116 -0.699124 0
M  V30 16909 C 1704.53 1.79847 0.784197 0
M  V30 16910 O 1703.66 1.44248 1.61311 0
M  V30 16911 C 1704.25 3.14403 -1.2624 0
M  V30 16912 C 1702.81 3.62275 -1.02144 0
M  V30 16913 C 1701.96 2.40257 -1.38463 0
M  V30 16914 H 1704.91 1.08057 -1.1623 0
M  V30 16915 H 1704.93 3.75091 -0.639307 0
M  V30 16916 H 1704.44 3.09472 -2.34198 0
M  V30 16917 H 1702.54 3.72577 0.0416622 0
M  V30 16918 H 1702.66 4.48587 -1.68245 0
M  V30 16919 H 1701.02 2.41705 -0.803179 0
M  V30 16920 H 1701.8 2.3799 -2.47418 0
M  V30 16921 N 1704.25 0.762308 1.37937 0
M  V30 16922 C 1705.5 0.321732 1.99523 0
M  V30 16923 C 1705.82 -1.10286 1.60816 0
M  V30 16924 O 1705.09 -1.75565 0.869117 0
M  V30 16925 H 1703.67 0.115967 0.737943 0
M  V30 16926 H 1706.33 0.978339 1.68566 0
M  V30 16927 H 1705.43 0.391818 3.09631 0
M  V30 16928 N 1705.73 -1.49049 0.51208 0
M  V30 16929 C 1706.96 -2.06585 -0.024934 0
M  V30 16930 C 1707.37 -1.3713 -1.30353 0
M  V30 16931 O 1706.71 -0.446872 -1.78182 0
M  V30 16932 C 1706.77 -3.57911 -0.33768 0
M  V30 16933 C 1706.43 -4.49123 0.844817 0
M  V30 16934 C 1707.43 -4.89977 1.73836 0
M  V30 16935 C 1705.12 -4.91272 1.04675 0
M  V30 16936 C 1707.11 -5.71728 2.8179 0
M  V30 16937 C 1704.8 -5.72798 2.12946 0
M  V30 16938 C 1705.8 -6.12932 3.01337 0
M  V30 16939 O 1705.48 -6.92825 4.07737 0
M  V30 16940 H 1705.22 -0.675633 0.0222573 0
M  V30 16941 H 1707.77 -1.92669 0.711891 0
M  V30 16942 H 1706 -3.69875 -1.12825 0
M  V30 16943 H 1707.69 -3.97641 -0.814628 0
M  V30 16944 H 1708.45 -4.5805 1.59421 0
M  V30 16945 H 1704.33 -4.59528 0.368089 0
M  V30 16946 H 1707.88 -6.02974 3.50811 0
M  V30 16947 H 1703.77 -6.04137 2.27351 0
M  V30 16948 H 1704.54 -7.1115 4.05226 0
M  V30 16949 N 1707.21 -0.246397 -1.55662 0
M  V30 16950 C 1708.45 0.377739 -1.98539 0
M  V30 16951 C 1708.77 1.58504 -1.13585 0
M  V30 16952 O 1708.04 1.94677 -0.218528 0
M  V30 16953 H 1706.62 0.142554 -0.733272 0
M  V30 16954 H 1709.29 -0.345069 -1.91821 0
M  V30 16955 H 1708.38 0.687224 -3.0444 0
M  V30 16956 N 1708.68 1.57577 0.026722 0
M  V30 16957 C 1709.91 1.9364 0.728771 0
M  V30 16958 C 1710.33 0.846352 1.68767 0
M  V30 16959 O 1709.68 -0.177038 1.81639 0
M  V30 16960 C 1709.73 3.29644 1.48381 0
M  V30 16961 O 1709.46 4.34462 0.563393 0
M  V30 16962 C 1710.96 3.80004 2.2828 0
M  V30 16963 H 1708.18 0.639025 0.204666 0
M  V30 16964 H 1710.72 2.04493 -0.016449 0
M  V30 16965 H 1708.88 3.20181 2.18089 0
M  V30 16966 H 1709.29 5.12982 1.09315 0
M  V30 16967 H 1710.76 4.77671 2.76649 0
M  V30 16968 H 1711.24 3.11319 3.09802 0
M  V30 16969 H 1711.85 3.92558 1.63642 0
M  V30 16970 N 1710.16 -0.299034 1.54737 0
M  V30 16971 C 1711.41 -1.03195 1.73767 0
M  V30 16972 C 1711.73 -1.87731 0.527445 0
M  V30 16973 O 1711 -1.90465 -0.458242 0
M  V30 16974 H 1709.58 -0.383996 0.640747 0
M  V30 16975 H 1712.24 -0.329544 1.92094 0
M  V30 16976 H 1711.34 -1.68393 2.62774 0
M  V30 16977 N 1711.64 -1.47227 -0.562322 0
M  V30 16978 C 1712.87 -1.57196 -1.34526 0
M  V30 16979 C 1713.28 -0.220303 -1.8751 0
M  V30 16980 O 1712.64 0.785664 -1.64723 0
M  V30 16981 C 1712.69 -2.59312 -2.51872 0
M  V30 16982 O 1712.41 -3.89229 -2.01078 0
M  V30 16983 C 1713.91 -2.79416 -3.44153 0
M  V30 16984 H 1711.13 -0.530971 -0.410257 0
M  V30 16985 H 1713.68 -1.92804 -0.68168 0
M  V30 16986 H 1711.83 -2.26652 -3.14178 0
M  V30 16987 H 1712.25 -4.44985 -2.77648 0
M  V30 16988 H 1713.72 -3.54743 -4.2292 0
M  V30 16989 H 1714.2 -1.87054 -3.97376 0
M  V30 16990 H 1714.8 -3.13254 -2.87667 0
M  V30 16991 N 1713.12 0.808639 -1.35273 0
M  V30 16992 C 1714.37 1.56253 -1.28177 0
M  V30 16993 C 1714.69 1.94466 0.144151 0
M  V30 16994 O 1713.96 1.63433 1.08011 0
M  V30 16995 H 1712.54 0.579431 -0.471454 0
M  V30 16996 H 1715.2 0.964675 -1.69352 0
M  V30 16997 H 1714.29 2.47888 -1.89625 0
M  V30 16998 N 1714.6 1.19237 1.03055 0
M  V30 16999 C 1715.82 1.01917 1.80057 0
M  V30 17000 C 1716.24 -0.43214 1.83788 0
M  V30 17001 O 1715.6 -1.30016 1.28071 0
M  V30 17002 C 1715.65 1.57912 3.25186 0
M  V30 17003 O 1715.37 2.97362 3.21725 0
M  V30 17004 C 1716.87 1.45352 4.18793 0
M  V30 17005 H 1714.09 0.359301 0.566696 0
M  V30 17006 H 1716.63 1.58015 1.29814 0
M  V30 17007 H 1714.79 1.05967 3.72625 0
M  V30 17008 H 1715.2 3.23674 4.12717 0
M  V30 17009 H 1716.68 1.89313 5.18521 0
M  V30 17010 H 1717.15 0.40378 4.3734 0
M  V30 17011 H 1717.76 1.96419 3.77226 0
M  V30 17012 N 1716.07 -1.22136 0.99602 0
M  V30 17013 C 1717.32 -1.9059 0.672303 0
M  V30 17014 C 1717.64 -1.77903 -0.798476 0
M  V30 17015 O 1716.91 -1.1682 -1.57257 0
M  V30 17016 H 1715.49 -0.705445 0.245676 0
M  V30 17017 H 1718.16 -1.48423 1.2632 0
M  V30 17018 H 1717.25 -2.97684 0.937577 0
M  V30 17019 N 1717.55 -0.769612 -1.37531 0
M  V30 17020 C 1718.78 -0.344282 -2.04015 0
M  V30 17021 C 1719.2 1.03281 -1.58046 0
M  V30 17022 O 1718.55 1.65888 -0.760746 0
M  V30 17023 C 1718.6 -0.375922 -3.5954 0
M  V30 17024 O 1718.32 -1.69869 -4.03827 0
M  V30 17025 C 1719.83 0.0612715 -4.43258 0
M  V30 17026 H 1717.05 -0.144584 -0.655238 0
M  V30 17027 H 1719.59 -1.04294 -1.75906 0
M  V30 17028 H 1717.74 0.274136 -3.86429 0
M  V30 17029 H 1718.16 -1.63584 -4.98338 0
M  V30 17030 H 1719.63 -0.012022 -5.51999 0
M  V30 17031 H 1720.11 1.11136 -4.24906 0
M  V30 17032 H 1720.72 -0.560517 -4.2159 0
M  V30 17033 N 1719.03 1.48775 -0.519977 0
M  V30 17034 C 1719.99 2.27967 0.237405 0
M  V30 17035 C 1720.99 1.34787 0.876868 0
M  V30 17036 O 1722.18 1.57773 0.738463 0
M  V30 17037 C 1719.32 3.13353 1.34248 0
M  V30 17038 H 1720.51 2.96386 -0.457753 0
M  V30 17039 H 1718.06 1.53852 -0.275569 0
M  V30 17040 H 1718.8 2.49543 2.0712 0
M  V30 17041 H 1718.58 3.81885 0.889187 0
M  V30 17042 H 1720.07 3.73116 1.87547 0
M  V30 17043 N 1720.51 0.254649 1.55529 0
M  V30 17044 C 1721.44 -0.635656 2.24681 0
M  V30 17045 C 1722.42 -1.17519 1.22977 0
M  V30 17046 O 1723.6 -1.21311 1.51649 0
M  V30 17047 C 1720.73 -1.82922 2.95224 0
M  V30 17048 C 1719.69 -1.42212 4.03683 0
M  V30 17049 C 1719.01 -2.69713 4.61691 0
M  V30 17050 C 1720.31 -0.587436 5.18986 0
M  V30 17051 H 1722.01 -0.0590063 2.99342 0
M  V30 17052 H 1719.55 -0.02694 1.43975 0
M  V30 17053 H 1721.51 -2.45777 3.42304 0
M  V30 17054 H 1720.23 -2.43137 2.18064 0
M  V30 17055 H 1718.89 -0.81687 3.57383 0
M  V30 17056 H 1718.54 -3.28143 3.81223 0
M  V30 17057 H 1718.24 -2.43194 5.34911 0
M  V30 17058 H 1719.76 -3.33453 5.11509 0
M  V30 17059 H 1721.18 -1.12048 5.62244 0
M  V30 17060 H 1719.57 -0.417988 5.98643 0
M  V30 17061 H 1720.64 0.398577 4.83259 0
M  V30 17062 N 1721.99 -1.57589 -0.0183649 0
M  V30 17063 C 1722.92 -2.1029 -1.01492 0
M  V30 17064 C 1723.9 -1.00782 -1.37029 0
M  V30 17065 O 1725.08 -1.28365 -1.45726 0
M  V30 17066 C 1722.21 -2.59111 -2.31255 0
M  V30 17067 C 1721.17 -3.72979 -2.0993 0
M  V30 17068 C 1720.49 -4.08046 -3.45547 0
M  V30 17069 C 1721.79 -5.00988 -1.47677 0
M  V30 17070 H 1723.49 -2.93804 -0.57618 0
M  V30 17071 H 1721.03 -1.41336 -0.275708 0
M  V30 17072 H 1722.99 -2.94602 -3.0131 0
M  V30 17073 H 1721.71 -1.72694 -2.77208 0
M  V30 17074 H 1720.37 -3.37853 -1.42306 0
M  V30 17075 H 1720.02 -3.1868 -3.89169 0
M  V30 17076 H 1719.72 -4.8475 -3.32101 0
M  V30 17077 H 1721.24 -4.46081 -4.16947 0
M  V30 17078 H 1722.65 -5.34368 -2.07663 0
M  V30 17079 H 1721.05 -5.82375 -1.44774 0
M  V30 17080 H 1722.12 -4.82865 -0.443804 0
M  V30 17081 N 1723.46 0.290824 -1.54893 0
M  V30 17082 C 1724.88 0.86313 -1.6555 0
M  V30 17083 C 1725.23 1.87713 -0.570806 0
M  V30 17084 O 1724.35 2.14437 0.290826 0
M  V30 17085 C 1724.95 1.57231 -3.00107 0
M  V30 17086 C 1723.51 2.09288 -3.1285 0
M  V30 17087 C 1722.65 0.928933 -2.61278 0
M  V30 17088 H 1725.6 0.0675807 -1.58556 0
M  V30 17089 H 1725.62 2.43841 -2.92099 0
M  V30 17090 H 1725.14 0.834055 -3.79032 0
M  V30 17091 H 1723.24 2.86129 -2.38665 0
M  V30 17092 H 1723.35 2.32042 -4.19158 0
M  V30 17093 H 1721.71 1.31735 -2.17986 0
M  V30 17094 H 1722.5 0.204475 -3.42691 0
M  V30 17095 N 1724.94 1.47523 0.554506 0
M  V30 17096 C 1725.91 1.59761 1.64345 0
M  V30 17097 C 1726.91 0.472516 1.53701 0
M  V30 17098 O 1728.1 0.737659 1.57811 0
M  V30 17099 C 1725.23 1.54467 3.03896 0
M  V30 17100 H 1726.42 2.56834 1.54842 0
M  V30 17101 H 1723.97 1.35753 0.774643 0
M  V30 17102 H 1724.71 0.587789 3.18929 0
M  V30 17103 H 1724.49 2.36123 3.13031 0
M  V30 17104 H 1725.98 1.66174 3.83113 0
M  V30 17105 N 1726.42 -0.801453 1.357 0
M  V30 17106 C 1727.7 -1.54605 1.19819 0
M  V30 17107 C 1728.08 -2.09944 -0.220593 0
M  V30 17108 O 1727.43 -1.92904 -1.22475 0
M  V30 17109 C 1727.64 -2.65052 2.27043 0
M  V30 17110 C 1728.98 -3.33255 2.63109 0
M  V30 17111 O 1730.01 -2.75326 2.25995 0
M  V30 17112 O 1728.87 -4.37917 3.26942 0
M  V30 17113 H 1725.96 -0.68334 0.465807 0
M  V30 17114 H 1728.51 -0.840972 1.47397 0
M  V30 17115 H 1727.28 -2.22068 3.22182 0
M  V30 17116 H 1726.9 -3.4319 2.00764 0
M  V30 17117 N 1727.9 -1.19782 -1.02421 0
M  V30 17118 C 1728.83 -0.963553 -2.12692 0
M  V30 17119 C 1729.81 0.104769 -1.69777 0
M  V30 17120 O 1730.99 -0.0512017 -1.94132 0
M  V30 17121 C 1728.12 -0.506525 -3.43586 0
M  V30 17122 C 1727.08 -1.51722 -4.00206 0
M  V30 17123 C 1726.4 -0.917097 -5.26776 0
M  V30 17124 C 1727.7 -2.89879 -4.34474 0
M  V30 17125 H 1729.4 -1.88579 -2.32547 0
M  V30 17126 H 1726.94 -0.908111 -1.11756 0
M  V30 17127 H 1728.9 -0.329907 -4.20107 0
M  V30 17128 H 1727.62 0.451322 -3.23467 0
M  V30 17129 H 1726.28 -1.68106 -3.25785 0
M  V30 17130 H 1725.93 0.0484457 -5.02977 0
M  V30 17131 H 1725.63 -1.59204 -5.65622 0
M  V30 17132 H 1727.15 -0.751379 -6.05959 0
M  V30 17133 H 1728.57 -2.7705 -5.01913 0
M  V30 17134 H 1726.96 -3.54209 -4.84413 0
M  V30 17135 H 1728.03 -3.42179 -3.43571 0
M  V30 17136 N 1729.38 1.21606 -1.00248 0
M  V30 17137 C 1730.65 1.86191 -0.599348 0
M  V30 17138 C 1731.03 1.89847 0.923104 0
M  V30 17139 O 1730.38 1.39595 1.80902 0
M  V30 17140 C 1730.59 3.26576 -1.23082 0
M  V30 17141 C 1731.94 4.02989 -1.33736 0
M  V30 17142 O 1732.96 3.35877 -1.18595 0
M  V30 17143 O 1731.82 5.23142 -1.58065 0
M  V30 17144 H 1728.92 0.801204 -0.204943 0
M  V30 17145 H 1731.46 1.29309 -1.09897 0
M  V30 17146 H 1730.24 3.18601 -2.27176 0
M  V30 17147 H 1729.86 3.91074 -0.717394 0
M  V30 17148 N 1730.86 0.776895 1.37121 0
M  V30 17149 C 1732.08 0.355097 2.0383 0
M  V30 17150 C 1732.5 -1.02441 1.58591 0
M  V30 17151 O 1731.86 -1.65482 0.769533 0
M  V30 17152 C 1731.91 0.394984 3.59336 0
M  V30 17153 O 1731.63 1.72008 4.0292 0
M  V30 17154 C 1733.13 -0.0377636 4.43284 0
M  V30 17155 H 1730.35 0.148056 0.654462 0
M  V30 17156 H 1732.89 1.05225 1.75351 0
M  V30 17157 H 1731.05 -0.253638 3.86569 0
M  V30 17158 H 1731.46 1.66225 4.97463 0
M  V30 17159 H 1732.94 0.0412956 5.51985 0
M  V30 17160 H 1733.41 -1.08881 4.2549 0
M  V30 17161 H 1734.02 0.582867 4.21287 0
M  V30 17162 N 1732.33 -1.48497 0.527859 0
M  V30 17163 C 1733.3 -2.2809 -0.225312 0
M  V30 17164 C 1734.3 -1.35251 -0.869707 0
M  V30 17165 O 1735.49 -1.58163 -0.730086 0
M  V30 17166 C 1732.62 -3.14061 -1.32584 0
M  V30 17167 H 1733.81 -2.96139 0.473465 0
M  V30 17168 H 1731.36 -1.53703 0.283724 0
M  V30 17169 H 1732.1 -2.50638 -2.05794 0
M  V30 17170 H 1731.88 -3.82351 -0.868922 0
M  V30 17171 H 1733.37 -3.74106 -1.85566 0
M  V30 17172 N 1733.81 -0.262893 -1.55392 0
M  V30 17173 C 1734.74 0.623732 -2.25015 0
M  V30 17174 C 1735.72 1.16865 -1.23598 0
M  V30 17175 O 1736.91 1.20505 -1.5229 0
M  V30 17176 C 1734.04 1.81353 -2.9619 0
M  V30 17177 C 1732.99 1.40069 -4.04431 0
M  V30 17178 C 1732.32 2.67261 -4.63115 0
M  V30 17179 C 1733.62 0.559905 -5.1929 0
M  V30 17180 H 1735.31 0.0431306 -2.99369 0
M  V30 17181 H 1732.86 0.0193043 -1.43987 0
M  V30 17182 H 1734.81 2.43958 -3.43602 0
M  V30 17183 H 1733.53 2.41977 -2.1935 0
M  V30 17184 H 1732.19 0.797905 -3.57811 0
M  V30 17185 H 1731.84 3.26117 -3.82958 0
M  V30 17186 H 1731.54 2.40354 -5.36194 0
M  V30 17187 H 1733.07 3.30735 -5.1327 0
M  V30 17188 H 1734.48 1.09064 -5.6283 0
M  V30 17189 H 1732.88 0.386234 -5.98856 0
M  V30 17190 H 1733.95 -0.424199 -4.83041 0
M  V30 17191 N 1735.29 1.57597 0.0100073 0
M  V30 17192 C 1736.57 1.81329 0.733415 0
M  V30 17193 C 1736.95 0.865495 1.92542 0
M  V30 17194 O 1736.29 -0.088073 2.2833 0
M  V30 17195 C 1736.5 3.29559 1.14856 0
M  V30 17196 C 1737.85 3.95039 1.55658 0
M  V30 17197 O 1738.88 3.33822 1.24262 0
M  V30 17198 O 1737.74 5.02858 2.13999 0
M  V30 17199 H 1734.83 0.746334 0.35625 0
M  V30 17200 H 1737.38 1.69694 -0.0146791 0
M  V30 17201 H 1736.15 3.9016 0.298467 0
M  V30 17202 H 1735.77 3.46156 1.95607 0
M  V30 17203 N 1736.77 -0.282606 1.55045 0
M  V30 17204 C 1737.73 -1.33228 1.86502 0
M  V30 17205 C 1738.73 -1.42814 0.738977 0
M  V30 17206 O 1739.92 -1.42131 1.0072 0
M  V30 17207 C 1737.05 -2.71488 2.06173 0
M  V30 17208 H 1738.25 -1.06571 2.80326 0
M  V30 17209 H 1735.8 -0.520199 1.47389 0
M  V30 17210 H 1736.53 -3.03339 1.14699 0
M  V30 17211 H 1736.32 -2.65917 2.8815 0
M  V30 17212 H 1737.81 -3.47348 2.31817 0
M  V30 17213 N 1738.25 -1.47815 -0.546675 0
M  V30 17214 C 1739.18 -1.57161 -1.66832 0
M  V30 17215 C 1740.19 -0.457035 -1.56253 0
M  V30 17216 O 1741.38 -0.727134 -1.63018 0
M  V30 17217 C 1738.48 -1.4697 -3.05374 0
M  V30 17218 C 1737.65 -2.7318 -3.41602 0
M  V30 17219 C 1736.71 -2.56676 -4.59351 0
M  V30 17220 O 1735.74 -3.30521 -4.63405 0
M  V30 17221 N 1736.94 -1.65194 -5.56499 0
M  V30 17222 H 1739.7 -2.53885 -1.59257 0
M  V30 17223 H 1737.27 -1.44328 -0.733565 0
M  V30 17224 H 1739.26 -1.33649 -3.81995 0
M  V30 17225 H 1737.83 -0.582878 -3.07118 0
M  V30 17226 H 1737.05 -3.01186 -2.54323 0
M  V30 17227 H 1738.34 -3.56945 -3.62585 0
M  V30 17228 H 1737.73 -1.04369 -5.55989 0
M  V30 17229 H 1736.29 -1.57819 -6.32405 0
M  V30 17230 N 1739.72 0.794246 -1.36123 0
M  V30 17231 C 1740.69 1.88828 -1.2991 0
M  V30 17232 C 1741.69 1.59451 -0.207839 0
M  V30 17233 O 1742.88 1.67953 -0.462321 0
M  V30 17234 C 1740.01 3.25511 -1.01269 0
M  V30 17235 H 1741.2 1.95753 -2.27202 0
M  V30 17236 H 1738.75 0.991505 -1.20826 0
M  V30 17237 H 1739.49 3.2427 -0.0441535 0
M  V30 17238 H 1739.27 3.48221 -1.80234 0
M  V30 17239 H 1740.76 4.0557 -0.995142 0
M  V30 17240 N 1741.2 1.20323 1.01785 0
M  V30 17241 C 1742.62 0.957818 1.27664 0
M  V30 17242 C 1742.82 -0.363377 1.98196 0
M  V30 17243 O 1741.87 -1.09221 2.27656 0
M  V30 17244 C 1743.19 2.13957 2.11289 0
M  V30 17245 C 1744.73 2.18041 2.2456 0
M  V30 17246 C 1745.21 3.35698 3.11562 0
M  V30 17247 N 1746.7 3.35704 3.1915 0
M  V30 17248 C 1747.44 4.2339 3.86689 0
M  V30 17249 N 1746.93 5.21251 4.56366 0
M  V30 17250 N 1748.72 4.11235 3.832 0
M  V30 17251 H 1740.88 2.05309 0.544242 0
M  V30 17252 H 1743.14 0.898335 0.302817 0
M  V30 17253 H 1742.84 3.09631 1.66798 0
M  V30 17254 H 1742.72 2.11946 3.12024 0
M  V30 17255 H 1745.11 1.22931 2.68276 0
M  V30 17256 H 1745.19 2.24101 1.23338 0
M  V30 17257 H 1744.83 4.31095 2.68551 0
M  V30 17258 H 1744.76 3.26876 4.12868 0
M  V30 17259 H 1747.25 2.64874 2.69537 0
M  V30 17260 H 1747.56 5.84485 5.05566 0
M  V30 17261 H 1745.91 5.25189 4.55195 0
M  V30 17262 H 1749.1 3.34052 3.27913 0
M  V30 17263 H 1749.27 4.79782 4.35561 0
M  V30 17264 N 1742.68 -1.21073 1.00892 0
M  V30 17265 C 1743.64 -2.21804 0.577543 0
M  V30 17266 C 1744.64 -1.56985 -0.348201 0
M  V30 17267 O 1745.83 -1.73653 -0.137947 0
M  V30 17268 C 1742.96 -3.40535 -0.157685 0
M  V30 17269 H 1744.16 -2.61483 1.46856 0
M  V30 17270 H 1741.71 -1.34402 0.79786 0
M  V30 17271 H 1742.45 -3.0635 -1.06397 0
M  V30 17272 H 1742.23 -3.88805 0.507238 0
M  V30 17273 H 1743.72 -4.152 -0.447109 0
M  V30 17274 N 1744.16 -0.784156 -1.36707 0
M  V30 17275 C 1745.41 -0.350748 -1.98627 0
M  V30 17276 C 1745.72 1.08208 -1.62943 0
M  V30 17277 O 1746.93 1.6175 -2.18058 0
M  V30 17278 C 1745.38 -0.576173 -3.55258 0
M  V30 17279 C 1744.99 -2.02008 -3.99871 0
M  V30 17280 C 1746.73 -0.207008 -4.23995 0
M  V30 17281 C 1744.64 -2.19244 -5.4926 0
M  V30 17282 H 1743.57 -0.127403 -0.743158 0
M  V30 17283 H 1746.22 -0.965044 -1.56074 0
M  V30 17284 H 1744.6 0.10776 -3.95853 0
M  V30 17285 H 1745.78 -2.73998 -3.70489 0
M  V30 17286 H 1744.09 -2.34699 -3.43955 0
M  V30 17287 H 1746.69 -0.314139 -5.33776 0
M  V30 17288 H 1747.03 0.844253 -4.07649 0
M  V30 17289 H 1747.57 -0.843971 -3.88744 0
M  V30 17290 H 1744.31 -3.22734 -5.70546 0
M  V30 17291 H 1743.83 -1.51752 -5.80286 0
M  V30 17292 H 1745.5 -1.99703 -6.15408 0
M  V30 17293 N 1745.64 1.48215 -0.535727 0
M  V30 17294 C 1746.57 2.3253 0.212562 0
M  V30 17295 C 1747.55 1.42454 0.929568 0
M  V30 17296 O 1748.73 1.71334 0.914228 0
M  V30 17297 C 1745.86 3.23777 1.25641 0
M  V30 17298 C 1744.82 4.22924 0.657191 0
M  V30 17299 C 1744.14 5.03345 1.80411 0
M  V30 17300 C 1745.44 5.20953 -0.374902 0
M  V30 17301 H 1747.14 2.95341 -0.491301 0
M  V30 17302 H 1744.68 1.42024 -0.237718 0
M  V30 17303 H 1746.64 3.81592 1.78789 0
M  V30 17304 H 1745.36 2.58978 1.98993 0
M  V30 17305 H 1744.02 3.66304 0.147184 0
M  V30 17306 H 1743.67 4.34965 2.52615 0
M  V30 17307 H 1743.37 5.70455 1.40906 0
M  V30 17308 H 1744.89 5.64013 2.33926 0
M  V30 17309 H 1746.3 5.73258 0.0697072 0
M  V30 17310 H 1744.7 5.96147 -0.687646 0
M  V30 17311 H 1745.77 4.67739 -1.27861 0
M  V30 17312 N 1747.11 0.27113 1.5525 0
M  V30 17313 C 1748.53 -0.0831186 1.59383 0
M  V30 17314 C 1748.73 -1.54931 1.28835 0
M  V30 17315 O 1747.79 -2.29756 1.0473 0
M  V30 17316 C 1749.1 0.287921 2.99318 0
M  V30 17317 C 1750.65 0.234209 3.12123 0
M  V30 17318 C 1751.12 0.57963 4.54317 0
M  V30 17319 N 1752.61 0.531033 4.60146 0
M  V30 17320 C 1753.35 0.771156 5.68191 0
M  V30 17321 N 1752.84 1.07569 6.84398 0
M  V30 17322 N 1754.64 0.700223 5.57722 0
M  V30 17323 H 1746.79 1.22702 1.73373 0
M  V30 17324 H 1749.05 0.495424 0.808244 0
M  V30 17325 H 1748.76 1.30746 3.26494 0
M  V30 17326 H 1748.63 -0.373205 3.75349 0
M  V30 17327 H 1751.02 -0.776035 2.84713 0
M  V30 17328 H 1751.1 0.929535 2.38313 0
M  V30 17329 H 1750.74 1.58754 4.82452 0
M  V30 17330 H 1750.67 -0.137442 5.26421 0
M  V30 17331 H 1753.16 0.305377 3.76664 0
M  V30 17332 H 1753.48 1.24568 7.62694 0
M  V30 17333 H 1751.82 1.11342 6.86023 0
M  V30 17334 H 1755.01 0.462183 4.65813 0
M  V30 17335 H 1755.19 0.890744 6.41849 0
M  V30 17336 N 1748.59 -1.576 -0.00164943 0
M  V30 17337 C 1749.56 -2.07267 -0.978423 0
M  V30 17338 C 1750.56 -0.981758 -1.27351 0
M  V30 17339 O 1751.75 -1.24446 -1.21896 0
M  V30 17340 C 1748.88 -2.51273 -2.30379 0
M  V30 17341 H 1750.07 -2.94835 -0.548845 0
M  V30 17342 H 1747.62 -1.54302 -0.249086 0
M  V30 17343 H 1748.36 -1.66943 -2.7803 0
M  V30 17344 H 1748.14 -3.30943 -2.10283 0
M  V30 17345 H 1749.63 -2.90031 -3.00453 0
M  V30 17346 N 1750.07 0.274379 -1.55193 0
M  V30 17347 C 1751.03 1.32237 -1.87206 0
M  V30 17348 C 1752.03 1.4242 -0.74654 0
M  V30 17349 O 1753.22 1.41595 -1.01472 0
M  V30 17350 C 1750.36 2.7039 -2.0761 0
M  V30 17351 H 1751.55 1.05083 -2.80887 0
M  V30 17352 H 1749.1 0.512375 -1.47663 0
M  V30 17353 H 1749.84 3.02727 -1.16306 0
M  V30 17354 H 1749.62 2.64385 -2.89556 0
M  V30 17355 H 1751.11 3.46114 -2.33655 0
M  V30 17356 N 1751.55 1.48103 0.538828 0
M  V30 17357 C 1752.8 1.55362 1.29256 0
M  V30 17358 C 1753.12 0.225427 1.93693 0
M  V30 17359 O 1752.39 -0.75228 1.8088 0
M  V30 17360 H 1750.97 0.57233 0.480049 0
M  V30 17361 H 1753.63 1.84514 0.627749 0
M  V30 17362 H 1752.73 2.32998 2.07649 0
M  V30 17363 N 1753.03 -0.787016 1.36542 0
M  V30 17364 C 1754.3 -1.53325 1.21452 0
M  V30 17365 C 1754.68 -2.10166 -0.198313 0
M  V30 17366 O 1754.03 -1.94192 -1.20422 0
M  V30 17367 C 1754.24 -2.62629 2.29841 0
M  V30 17368 C 1755.59 -3.30446 2.66628 0
M  V30 17369 O 1756.61 -2.72914 2.28903 0
M  V30 17370 O 1755.47 -4.34424 3.31569 0
M  V30 17371 H 1752.57 -0.678361 0.473028 0
M  V30 17372 H 1755.11 -0.825292 1.4828 0
M  V30 17373 H 1753.88 -2.18639 3.24519 0
M  V30 17374 H 1753.51 -3.41042 2.04393 0
M  V30 17375 N 1754.5 -1.20861 -1.01145 0
M  V30 17376 C 1755.47 -0.963742 -2.07954 0
M  V30 17377 C 1756.47 0.0627362 -1.60678 0
M  V30 17378 O 1757.66 -0.173867 -1.7333 0
M  V30 17379 C 1754.79 -0.451977 -3.3789 0
M  V30 17380 H 1755.98 -1.91123 -2.3111 0
M  V30 17381 H 1753.54 -1.0247 -1.18024 0
M  V30 17382 H 1754.27 0.500735 -3.20411 0
M  V30 17383 H 1754.06 -1.19231 -3.73532 0
M  V30 17384 H 1755.55 -0.300308 -4.16519 0
M  V30 17385 N 1755.98 1.20536 -1.01532 0
M  V30 17386 C 1757.39 1.71594 -0.735687 0
M  V30 17387 C 1757.74 1.81469 0.745873 0
M  V30 17388 O 1756.87 1.47638 1.58215 0
M  V30 17389 C 1757.46 3.11654 -1.3288 0
M  V30 17390 C 1756.02 3.60027 -1.09806 0
M  V30 17391 C 1755.17 2.37266 -1.43528 0
M  V30 17392 H 1758.12 1.05568 -1.18495 0
M  V30 17393 H 1758.14 3.7365 -0.718725 0
M  V30 17394 H 1757.65 3.04434 -2.4071 0
M  V30 17395 H 1755.76 3.72581 -0.0373763 0
M  V30 17396 H 1755.87 4.44918 -1.77722 0
M  V30 17397 H 1754.23 2.39947 -0.854268 0
M  V30 17398 H 1755.02 2.32688 -2.5241 0
M  V30 17399 N 1757.46 0.791395 1.36289 0
M  V30 17400 C 1758.71 0.365242 1.99484 0
M  V30 17401 C 1759.04 -1.06087 1.62663 0
M  V30 17402 O 1758.31 -1.73332 0.882396 0
M  V30 17403 C 1758.6 0.531317 3.56159 0
M  V30 17404 C 1758.45 2.00126 4.02827 0
M  V30 17405 C 1759.77 -0.0524248 4.40069 0
M  V30 17406 H 1756.89 0.134183 0.724682 0
M  V30 17407 H 1759.53 0.998102 1.61672 0
M  V30 17408 H 1757.68 -0.0074293 3.88499 0
M  V30 17409 H 1759.35 2.60122 3.80965 0
M  V30 17410 H 1757.6 2.50316 3.54294 0
M  V30 17411 H 1758.27 2.06842 5.11782 0
M  V30 17412 H 1760.74 0.407489 4.141 0
M  V30 17413 H 1759.62 0.0937898 5.4882 0
M  V30 17414 H 1759.88 -1.14472 4.27023 0
M  V30 17415 N 1758.94 -1.47929 0.54358 0
M  V30 17416 C 1760.19 -2.02795 0.014488 0
M  V30 17417 C 1760.52 -1.41848 -1.32638 0
M  V30 17418 O 1759.79 -0.569099 -1.85988 0
M  V30 17419 C 1760.08 -3.5998 -0.093097 0
M  V30 17420 C 1759.93 -4.31384 1.2739 0
M  V30 17421 C 1761.25 -4.32521 -0.813251 0
M  V30 17422 H 1758.37 -0.736969 0.00673905 0
M  V30 17423 H 1761.01 -1.76507 0.703238 0
M  V30 17424 H 1759.16 -3.82508 -0.679685 0
M  V30 17425 H 1760.83 -4.20235 1.90264 0
M  V30 17426 H 1759.07 -3.9227 1.85221 0
M  V30 17427 H 1759.75 -5.39856 1.15148 0
M  V30 17428 H 1762.22 -4.14903 -0.315334 0
M  V30 17429 H 1761.1 -5.42161 -0.857456 0
M  V30 17430 H 1761.36 -4.00768 -1.86649 0
M  V30 17431 N 1760.42 -0.27936 -1.55104 0
M  V30 17432 C 1761.35 0.599831 -2.25664 0
M  V30 17433 C 1762.33 1.15548 -1.24831 0
M  V30 17434 O 1763.51 1.18883 -1.53559 0
M  V30 17435 C 1760.64 1.78202 -2.98096 0
M  V30 17436 C 1759.6 1.35771 -4.05894 0
M  V30 17437 C 1758.92 2.62334 -4.65924 0
M  V30 17438 C 1760.22 0.504795 -5.19855 0
M  V30 17439 H 1761.92 0.0113761 -2.99398 0
M  V30 17440 H 1759.46 0.00403149 -1.43999 0
M  V30 17441 H 1761.42 2.403 -3.4617 0
M  V30 17442 H 1760.14 2.39637 -2.21905 0
M  V30 17443 H 1758.8 0.75991 -3.58638 0
M  V30 17444 H 1758.45 3.22036 -3.86396 0
M  V30 17445 H 1758.15 2.34654 -5.38713 0
M  V30 17446 H 1759.67 3.25273 -5.16749 0
M  V30 17447 H 1761.09 1.03089 -5.63955 0
M  V30 17448 H 1759.48 0.322696 -5.99232 0
M  V30 17449 H 1760.55 -0.475409 -4.82564 0
M  V30 17450 N 1761.9 1.57599 -0.0067085 0
M  V30 17451 C 1762.83 2.11878 0.981331 0
M  V30 17452 C 1763.81 1.02949 1.35408 0
M  V30 17453 O 1764.99 1.30667 1.43665 0
M  V30 17454 C 1762.12 2.62757 2.27104 0
M  V30 17455 C 1761.08 3.76272 2.0397 0
M  V30 17456 C 1760.4 4.13491 3.39012 0
M  V30 17457 C 1761.7 5.03274 1.39688 0
M  V30 17458 H 1763.4 2.94683 0.529366 0
M  V30 17459 H 1760.94 1.41757 0.253187 0
M  V30 17460 H 1762.89 2.99359 2.96585 0
M  V30 17461 H 1761.62 1.77082 2.74426 0
M  V30 17462 H 1760.28 3.40074 1.36913 0
M  V30 17463 H 1759.93 3.24831 3.8405 0
M  V30 17464 H 1759.63 4.89972 3.24347 0
M  V30 17465 H 1761.15 4.52657 4.09797 0
M  V30 17466 H 1762.56 5.37604 1.99136 0
M  V30 17467 H 1760.96 5.84604 1.3549 0
M  V30 17468 H 1762.03 4.8351 0.366928 0
M  V30 17469 N 1763.37 -0.266145 1.55336 0
M  V30 17470 C 1764.62 -0.994862 1.75917 0
M  V30 17471 C 1764.94 -1.8657 0.567147 0
M  V30 17472 O 1764.21 -1.91394 -0.417738 0
M  V30 17473 H 1762.79 -0.370318 0.648748 0
M  V30 17474 H 1765.45 -0.288724 1.9275 0
M  V30 17475 H 1764.55 -1.62781 2.66287 0
M  V30 17476 N 1764.85 -1.48386 -0.530967 0
M  V30 17477 C 1765.8 -1.59236 -1.6318 0
M  V30 17478 C 1766.79 -0.449549 -1.54492 0
M  V30 17479 O 1767.98 -0.700935 -1.6253 0
M  V30 17480 C 1765.11 -1.6343 -3.01903 0
M  V30 17481 C 1764.19 -2.83188 -3.15699 0
M  V30 17482 N 1764.58 -4.07616 -2.99471 0
M  V30 17483 C 1762.88 -2.80499 -3.46751 0
M  V30 17484 C 1763.58 -4.87959 -3.16657 0
M  V30 17485 N 1762.56 -4.20757 -3.44186 0
M  V30 17486 H 1766.36 -2.53187 -1.49243 0
M  V30 17487 H 1763.87 -1.44744 -0.7364 0
M  V30 17488 H 1765.87 -1.69297 -3.80978 0
M  V30 17489 H 1764.53 -0.705948 -3.16933 0
M  V30 17490 H 1765.54 -4.38068 -2.76255 0
M  V30 17491 H 1762.22 -1.96916 -3.68145 0
M  V30 17492 H 1763.61 -5.96705 -3.08857 0
M  V30 17493 N 1766.33 0.779763 -1.36958 0
M  V30 17494 C 1767.55 1.57389 -1.35068 0
M  V30 17495 C 1767.98 1.87993 0.0635244 0
M  V30 17496 O 1767.34 1.48625 1.03828 0
M  V30 17497 C 1767.39 2.86582 -2.18868 0
M  V30 17498 O 1766.49 3.80609 -1.58779 0
M  V30 17499 H 1765.83 0.477052 -0.461863 0
M  V30 17500 H 1768.36 0.965741 -1.80373 0
M  V30 17501 H 1768.37 3.35761 -2.31794 0
M  V30 17502 H 1767.05 2.63635 -3.21666 0
M  V30 17503 H 1765.62 3.39229 -1.54848 0
M  V30 17504 N 1767.81 1.21396 1.00503 0
M  V30 17505 C 1769.06 1.02913 1.73935 0
M  V30 17506 C 1769.38 -0.438329 1.9001 0
M  V30 17507 O 1768.65 -1.31618 1.45098 0
M  V30 17508 H 1767.23 0.377813 0.644412 0
M  V30 17509 H 1769.89 1.52704 1.21109 0
M  V30 17510 H 1768.98 1.49705 2.73852 0
M  V30 17511 N 1769.29 -1.19996 1.0217 0
M  V30 17512 C 1770.53 -1.89121 0.712579 0
M  V30 17513 C 1770.85 -1.79556 -0.760561 0
M  V30 17514 O 1770.12 -1.2013 -1.54744 0
M  V30 17515 H 1768.7 -0.700075 0.260585 0
M  V30 17516 H 1771.37 -1.4571 1.2944 0
M  V30 17517 H 1770.46 -2.95629 1.00051 0
M  V30 17518 N 1770.76 -0.798611 -1.35867 0
M  V30 17519 C 1771.73 -0.209177 -2.28243 0
M  V30 17520 C 1772.73 0.598842 -1.49233 0
M  V30 17521 O 1773.92 0.418491 -1.69098 0
M  V30 17522 C 1771.05 0.709336 -3.33438 0
M  V30 17523 H 1772.24 -1.02382 -2.81883 0
M  V30 17524 H 1769.79 -0.568687 -1.45587 0
M  V30 17525 H 1770.53 1.54797 -2.84971 0
M  V30 17526 H 1770.31 0.131756 -3.91879 0
M  V30 17527 H 1771.8 1.11632 -4.02403 0
M  V30 17528 N 1772.24 1.47639 -0.551417 0
M  V30 17529 C 1773.17 2.32743 0.187887 0
M  V30 17530 C 1774.15 1.43432 0.914407 0
M  V30 17531 O 1775.34 1.72295 0.896005 0
M  V30 17532 C 1772.47 3.25092 1.22199 0
M  V30 17533 C 1771.42 4.23598 0.612298 0
M  V30 17534 C 1770.75 5.0523 1.75062 0
M  V30 17535 C 1772.05 5.20526 -0.430135 0
M  V30 17536 H 1773.74 2.94804 -0.522598 0
M  V30 17537 H 1771.29 1.41764 -0.252768 0
M  V30 17538 H 1773.24 3.83467 1.74731 0
M  V30 17539 H 1771.96 2.61074 1.96235 0
M  V30 17540 H 1770.62 3.6644 0.108324 0
M  V30 17541 H 1770.27 4.3762 2.47987 0
M  V30 17542 H 1769.97 5.71918 1.34848 0
M  V30 17543 H 1771.5 5.66463 2.27931 0
M  V30 17544 H 1772.91 5.73299 0.00890168 0
M  V30 17545 H 1771.31 5.95384 -0.750836 0
M  V30 17546 H 1772.38 4.66356 -1.32815 0
M  V30 17547 N 1773.72 0.287581 1.54954 0
M  V30 17548 C 1774.65 -0.587855 2.25979 0
M  V30 17549 C 1775.63 -1.14884 1.25442 0
M  V30 17550 O 1776.82 -1.18067 1.54188 0
M  V30 17551 C 1773.95 -1.76618 2.99037 0
M  V30 17552 C 1772.9 -1.33617 4.06609 0
M  V30 17553 C 1772.23 -2.59859 4.67309 0
M  V30 17554 C 1773.53 -0.477219 5.20115 0
M  V30 17555 H 1775.22 0.00450183 2.994 0
M  V30 17556 H 1772.77 0.00360521 1.44 0
M  V30 17557 H 1774.72 -2.38461 3.4744 0
M  V30 17558 H 1773.44 -2.38457 2.23172 0
M  V30 17559 H 1772.1 -0.74088 3.59036 0
M  V30 17560 H 1771.75 -3.19983 3.88098 0
M  V30 17561 H 1771.45 -2.31793 5.3995 0
M  V30 17562 H 1772.97 -3.22528 5.18467 0
M  V30 17563 H 1774.39 -1.00096 5.64494 0
M  V30 17564 H 1772.79 -0.290913 5.99394 0
M  V30 17565 H 1773.86 0.500993 4.82305 0
M  V30 17566 N 1775.2 -1.57593 0.0150662 0
M  V30 17567 C 1776.16 -2.08293 -0.956385 0
M  V30 17568 C 1777.16 -0.99521 -1.26302 0
M  V30 17569 O 1778.35 -1.25732 -1.2057 0
M  V30 17570 C 1775.48 -2.53702 -2.27701 0
M  V30 17571 H 1776.68 -2.95401 -0.517543 0
M  V30 17572 H 1774.23 -1.54558 -0.232706 0
M  V30 17573 H 1774.96 -1.69882 -2.76244 0
M  V30 17574 H 1774.75 -3.33155 -2.06761 0
M  V30 17575 H 1776.24 -2.93201 -2.9736 0
M  V30 17576 N 1776.68 0.257904 -1.55475 0
M  V30 17577 C 1777.63 1.32176 -1.85778 0
M  V30 17578 C 1778.61 1.44002 -0.717789 0
M  V30 17579 O 1779.8 1.47429 -0.979476 0
M  V30 17580 C 1776.93 2.67928 -2.14638 0
M  V30 17581 C 1776.02 2.60151 -3.34936 0
M  V30 17582 N 1776.41 2.22 -4.54477 0
M  V30 17583 C 1774.71 2.91186 -3.37827 0
M  V30 17584 C 1775.41 2.24586 -5.36597 0
M  V30 17585 N 1774.38 2.63656 -4.7538 0
M  V30 17586 H 1778.19 1.01711 -2.75739 0
M  V30 17587 H 1775.7 0.466539 -1.55554 0
M  V30 17588 H 1777.7 3.4469 -2.34508 0
M  V30 17589 H 1776.36 2.99269 -1.25969 0
M  V30 17590 H 1777.37 1.93726 -4.80303 0
M  V30 17591 H 1774.04 3.27139 -2.59397 0
M  V30 17592 H 1775.43 1.97522 -6.42211 0
M  V30 17593 N 1778.15 1.48666 0.52309 0
M  V30 17594 C 1779.06 1.66396 1.65377 0
M  V30 17595 C 1780.08 0.546469 1.65196 0
M  V30 17596 O 1781.26 0.818413 1.84022 0
M  V30 17597 C 1778.32 1.70602 3.01821 0
M  V30 17598 C 1777.38 2.94028 3.12803 0
M  V30 17599 C 1776.62 2.98024 4.42739 0
M  V30 17600 O 1776.84 2.10232 5.30244 0
M  V30 17601 O 1775.77 3.90266 4.58231 0
M  V30 17602 H 1779.6 2.62138 1.53354 0
M  V30 17603 H 1777.18 1.32148 0.696948 0
M  V30 17604 H 1779.07 1.75849 3.82956 0
M  V30 17605 H 1777.74 0.780346 3.14153 0
M  V30 17606 H 1776.65 2.9431 2.30938 0
M  V30 17607 H 1777.98 3.86003 3.0539 0
M  V30 17608 N 1779.63 -0.772489 1.37369 0
M  V30 17609 C 1780.56 -1.89969 1.35772 0
M  V30 17610 C 1781.54 -1.68586 0.226452 0
M  V30 17611 O 1782.73 -1.89454 0.426692 0
M  V30 17612 C 1779.86 -3.27242 1.16319 0
M  V30 17613 C 1778.81 -3.63187 2.2645 0
M  V30 17614 C 1778.14 -4.98992 1.92121 0
M  V30 17615 C 1779.44 -3.70013 3.6863 0
M  V30 17616 H 1781.13 -1.91564 2.30095 0
M  V30 17617 H 1778.68 -0.920241 1.10759 0
M  V30 17618 H 1780.63 -4.05734 1.13832 0
M  V30 17619 H 1779.36 -3.26078 0.184513 0
M  V30 17620 H 1778.01 -2.87001 2.28091 0
M  V30 17621 H 1777.66 -4.94368 0.927848 0
M  V30 17622 H 1777.36 -5.24012 2.65867 0
M  V30 17623 H 1778.89 -5.79886 1.91219 0
M  V30 17624 H 1780.3 -4.38659 3.69122 0
M  V30 17625 H 1778.7 -4.06529 4.41423 0
M  V30 17626 H 1779.77 -2.70694 4.02309 0
M  V30 17627 N 1781.11 -1.21927 -0.998575 0
M  V30 17628 C 1782.07 -0.985744 -2.0692 0
M  V30 17629 C 1783.07 0.0456907 -1.60735 0
M  V30 17630 O 1784.26 -0.192241 -1.73136 0
M  V30 17631 C 1781.4 -0.48779 -3.37392 0
M  V30 17632 H 1782.59 -1.93563 -2.2907 0
M  V30 17633 H 1780.14 -1.03716 -1.1693 0
M  V30 17634 H 1780.88 0.466723 -3.20924 0
M  V30 17635 H 1780.66 -1.23186 -3.72247 0
M  V30 17636 H 1782.15 -0.344469 -4.16177 0
M  V30 17637 N 1782.59 1.19452 -1.02805 0
M  V30 17638 C 1783.84 1.89114 -0.724029 0
M  V30 17639 C 1784.16 1.79571 0.747307 0
M  V30 17640 O 1783.42 1.18191 1.55979 0
M  V30 17641 C 1783.72 3.3941 -1.11964 0
M  V30 17642 C 1783.38 3.69156 -2.58911 0
M  V30 17643 C 1782.05 3.76984 -2.99059 0
M  V30 17644 C 1784.4 3.82549 -3.53986 0
M  V30 17645 C 1781.73 3.95673 -4.33197 0
M  V30 17646 C 1784.08 4.02751 -4.87826 0
M  V30 17647 C 1782.74 4.08812 -5.27664 0
M  V30 17648 H 1782.01 0.692017 -0.264941 0
M  V30 17649 H 1784.66 1.41463 -1.29075 0
M  V30 17650 H 1782.96 3.88952 -0.471514 0
M  V30 17651 H 1784.66 3.91627 -0.861939 0
M  V30 17652 H 1781.25 3.6367 -2.26808 0
M  V30 17653 H 1785.43 3.75845 -3.24121 0
M  V30 17654 H 1780.69 3.98605 -4.63599 0
M  V30 17655 H 1784.86 4.12056 -5.61412 0
M  V30 17656 H 1782.49 4.23046 -6.31614 0
M  V30 17657 N 1784.07 0.805805 1.35442 0
M  V30 17658 C 1785.48 0.489448 1.5191 0
M  V30 17659 C 1785.68 -0.989485 1.75532 0
M  V30 17660 O 1784.74 -1.77453 1.79629 0
M  V30 17661 C 1786.05 1.33413 2.69484 0
M  V30 17662 C 1787.6 1.32949 2.83361 0
M  V30 17663 C 1788.07 2.15827 4.03959 0
M  V30 17664 N 1789.57 2.13359 4.11135 0
M  V30 17665 C 1790.3 2.74245 5.03564 0
M  V30 17666 N 1789.8 3.44055 6.0133 0
M  V30 17667 N 1791.59 2.63891 4.96304 0
M  V30 17668 H 1783.74 1.76361 1.18366 0
M  V30 17669 H 1786 0.750594 0.579062 0
M  V30 17670 H 1785.71 2.38364 2.58603 0
M  V30 17671 H 1785.58 0.986809 3.64063 0
M  V30 17672 H 1787.97 0.287837 2.93693 0
M  V30 17673 H 1788.05 1.71668 1.89641 0
M  V30 17674 H 1787.7 3.20033 3.94388 0
M  V30 17675 H 1787.63 1.74469 4.96858 0
M  V30 17676 H 1790.12 1.62566 3.41146 0
M  V30 17677 H 1790.43 3.87802 6.68453 0
M  V30 17678 H 1788.77 3.48159 6.01507 0
M  V30 17679 H 1791.97 2.08941 4.18881 0
M  V30 17680 H 1792.14 3.11631 5.68146 0
M  V30 17681 N 1785.54 -1.47344 0.559239 0
M  V30 17682 C 1786.47 -2.32839 -0.175542 0
M  V30 17683 C 1787.46 -1.43914 -0.906787 0
M  V30 17684 O 1788.64 -1.72767 -0.886855 0
M  V30 17685 C 1785.77 -3.25735 -1.20474 0
M  V30 17686 C 1784.72 -4.23916 -0.589825 0
M  V30 17687 C 1784.05 -5.06151 -1.7238 0
M  V30 17688 C 1785.35 -5.2029 0.457733 0
M  V30 17689 H 1787.04 -2.94522 0.538225 0
M  V30 17690 H 1784.59 -1.41628 0.260282 0
M  V30 17691 H 1786.54 -3.84388 -1.72695 0
M  V30 17692 H 1785.27 -2.62111 -1.94847 0
M  V30 17693 H 1783.93 -3.66492 -0.0888897 0
M  V30 17694 H 1783.57 -4.38929 -2.45663 0
M  V30 17695 H 1783.27 -5.72625 -1.31813 0
M  V30 17696 H 1784.8 -5.67663 -2.24923 0
M  V30 17697 H 1786.21 -5.73296 0.0215019 0
M  V30 17698 H 1784.61 -5.94978 0.7824 0
M  V30 17699 H 1785.68 -4.65645 1.35286 0
M  V30 17700 N 1787.02 -0.295795 -1.54799 0
M  V30 17701 C 1787.93 0.592206 -2.27002 0
M  V30 17702 C 1788.95 1.1528 -1.30332 0
M  V30 17703 O 1790.12 1.1787 -1.63305 0
M  V30 17704 C 1787.19 1.75027 -2.99277 0
M  V30 17705 C 1786.25 1.22427 -4.11473 0
M  V30 17706 C 1785.48 2.32714 -4.80291 0
M  V30 17707 O 1785.71 3.52506 -4.48437 0
M  V30 17708 O 1784.64 1.997 -5.67806 0
M  V30 17709 H 1788.47 0.00666048 -3.03699 0
M  V30 17710 H 1786.05 -0.0624413 -1.49269 0
M  V30 17711 H 1787.93 2.42508 -3.44627 0
M  V30 17712 H 1786.61 2.32252 -2.25479 0
M  V30 17713 H 1785.52 0.515337 -3.70534 0
M  V30 17714 H 1786.85 0.697518 -4.87233 0
M  V30 17715 N 1788.5 1.57583 -0.0234236 0
M  V30 17716 C 1789.92 1.56089 0.332916 0
M  V30 17717 C 1790.12 1.02847 1.73276 0
M  V30 17718 O 1789.17 0.672668 2.43375 0
M  V30 17719 C 1790.49 3.0012 0.186725 0
M  V30 17720 C 1792.03 3.11919 0.259918 0
M  V30 17721 C 1792.51 4.57778 0.142583 0
M  V30 17722 N 1794 4.62769 0.199748 0
M  V30 17723 C 1794.74 5.73247 0.132655 0
M  V30 17724 N 1794.23 6.92798 0.0148037 0
M  V30 17725 N 1796.02 5.61791 0.186228 0
M  V30 17726 H 1788.18 1.90523 -0.938877 0
M  V30 17727 H 1790.44 0.876141 -0.362052 0
M  V30 17728 H 1790.14 3.43002 -0.777338 0
M  V30 17729 H 1790.02 3.64798 0.959267 0
M  V30 17730 H 1792.41 2.68952 1.21444 0
M  V30 17731 H 1792.49 2.49972 -0.542901 0
M  V30 17732 H 1792.13 5.01424 -0.808491 0
M  V30 17733 H 1792.06 5.17698 0.964194 0
M  V30 17734 H 1794.55 3.76776 0.291211 0
M  V30 17735 H 1794.86 7.72794 -0.0298548 0
M  V30 17736 H 1793.21 6.94997 -0.0198993 0
M  V30 17737 H 1796.4 4.67282 0.276658 0
M  V30 17738 H 1796.57 6.47869 0.130478 0
M  V30 17739 N 1789.98 -0.249655 1.5561 0
M  V30 17740 C 1790.94 -1.29242 1.89286 0
M  V30 17741 C 1791.94 -1.41214 0.769104 0
M  V30 17742 O 1793.13 -1.39962 1.03712 0
M  V30 17743 C 1790.26 -2.67053 2.11885 0
M  V30 17744 H 1791.46 -1.00601 2.82523 0
M  V30 17745 H 1789.01 -0.488819 1.4846 0
M  V30 17746 H 1789.75 -3.00838 1.21107 0
M  V30 17747 H 1789.53 -2.59745 2.93726 0
M  V30 17748 H 1791.02 -3.42353 2.39132 0
M  V30 17749 N 1791.46 -1.48941 -0.515198 0
M  V30 17750 C 1792.41 -1.60958 -1.61482 0
M  V30 17751 C 1793.39 -0.46591 -1.54007 0
M  V30 17752 O 1794.58 -0.718134 -1.61777 0
M  V30 17753 C 1791.71 -1.66623 -3.00153 0
M  V30 17754 C 1790.8 -2.8652 -3.12677 0
M  V30 17755 N 1791.19 -4.10769 -2.95131 0
M  V30 17756 C 1789.49 -2.84161 -3.43756 0
M  V30 17757 C 1790.19 -4.9129 -3.11463 0
M  V30 17758 N 1789.16 -4.24384 -3.39704 0
M  V30 17759 H 1792.97 -2.54756 -1.46549 0
M  V30 17760 H 1790.48 -1.45517 -0.721007 0
M  V30 17761 H 1792.48 -1.73328 -3.79161 0
M  V30 17762 H 1791.14 -0.739523 -3.16166 0
M  V30 17763 H 1792.15 -4.40974 -2.71593 0
M  V30 17764 H 1788.83 -2.00809 -3.66035 0
M  V30 17765 H 1790.22 -5.99948 -3.0251 0
M  V30 17766 N 1792.94 0.765193 -1.37777 0
M  V30 17767 C 1794.18 1.52096 -1.33084 0
M  V30 17768 C 1794.5 1.94827 0.08221 0
M  V30 17769 O 1793.77 1.66787 1.02757 0
M  V30 17770 H 1792.35 0.564139 -0.489649 0
M  V30 17771 H 1795.02 0.910308 -1.72335 0
M  V30 17772 H 1794.11 2.4173 -1.97416 0
M  V30 17773 N 1794.41 1.22455 0.992094 0
M  V30 17774 C 1795.38 0.996703 2.06394 0
M  V30 17775 C 1796.38 -0.0371659 1.60757 0
M  V30 17776 O 1797.57 0.20142 1.73032 0
M  V30 17777 C 1794.7 0.505675 3.37129 0
M  V30 17778 H 1795.89 1.94776 2.28041 0
M  V30 17779 H 1793.44 1.04335 1.16378 0
M  V30 17780 H 1794.18 -0.449697 3.21167 0
M  V30 17781 H 1793.96 1.25158 3.71588 0
M  V30 17782 H 1795.45 0.366535 4.15988 0
M  V30 17783 N 1795.89 -1.18905 1.03437 0
M  V30 17784 C 1797.3 -1.70402 0.762893 0
M  V30 17785 C 1797.65 -1.82633 -0.716908 0
M  V30 17786 O 1796.78 -1.50136 -1.55847 0
M  V30 17787 C 1797.37 -3.09501 1.37822 0
M  V30 17788 C 1795.93 -3.58235 1.1552 0
M  V30 17789 C 1795.08 -2.34953 1.47284 0
M  V30 17790 H 1798.03 -1.03669 1.2016 0
M  V30 17791 H 1798.05 -3.7246 0.778079 0
M  V30 17792 H 1797.56 -3.00566 2.45523 0
M  V30 17793 H 1795.66 -3.72475 0.096646 0
M  V30 17794 H 1795.78 -4.42034 1.84778 0
M  V30 17795 H 1794.14 -2.38557 0.892333 0
M  V30 17796 H 1794.92 -2.28643 2.5608 0
M  V30 17797 N 1797.37 -0.812977 -1.35013 0
M  V30 17798 C 1798.78 -0.45647 -1.81034 0
M  V30 17799 C 1799.13 1.02217 -1.6747 0
M  V30 17800 O 1798.26 1.79478 -1.20898 0
M  V30 17801 C 1798.85 -0.821773 -3.28683 0
M  V30 17802 C 1797.41 -0.517776 -3.72822 0
M  V30 17803 C 1796.56 -1.04399 -2.56897 0
M  V30 17804 H 1799.51 -1.00405 -1.22901 0
M  V30 17805 H 1799.53 -0.12173 -3.80305 0
M  V30 17806 H 1799.04 -1.89799 -3.38523 0
M  V30 17807 H 1797.14 0.549446 -3.68527 0
M  V30 17808 H 1797.26 -1.05488 -4.67343 0
M  V30 17809 H 1795.62 -0.466002 -2.50401 0
M  V30 17810 H 1796.4 -2.12645 -2.69512 0
M  V30 17811 N 1798.85 1.47045 -0.567045 0
M  V30 17812 C 1799.81 2.28607 0.164758 0
M  V30 17813 C 1800.81 1.37509 0.833542 0
M  V30 17814 O 1802 1.60043 0.687895 0
M  V30 17815 C 1799.13 3.17466 1.24211 0
M  V30 17816 H 1800.33 2.9478 -0.551814 0
M  V30 17817 H 1797.88 1.52897 -0.324376 0
M  V30 17818 H 1798.61 2.56006 1.99076 0
M  V30 17819 H 1798.4 3.8452 0.767243 0
M  V30 17820 H 1799.89 3.78894 1.75582 0
M  V30 17821 N 1800.33 0.304 1.5464 0
M  V30 17822 C 1801.57 -0.303793 1.99804 0
M  V30 17823 C 1801.89 -1.54179 1.19389 0
M  V30 17824 O 1801.16 -1.93732 0.290631 0
M  V30 17825 H 1799.74 -0.115241 0.738057 0
M  V30 17826 H 1802.41 0.416024 1.90408 0
M  V30 17827 H 1801.5 -0.573759 3.06781 0
M  V30 17828 N 1801.8 -1.57568 0.0317802 0
M  V30 17829 C 1803.05 -1.91087 -0.645639 0
M  V30 17830 C 1803.37 -0.910108 -1.73137 0
M  V30 17831 O 1804.57 -1.13665 -2.46562 0
M  V30 17832 C 1803.03 -3.39317 -1.19966 0
M  V30 17833 C 1802.64 -4.47759 -0.147068 0
M  V30 17834 C 1804.38 -3.81901 -1.85343 0
M  V30 17835 C 1802.29 -5.87088 -0.712872 0
M  V30 17836 H 1801.22 -0.713112 -0.244923 0
M  V30 17837 H 1803.87 -1.83241 0.0975145 0
M  V30 17838 H 1802.25 -3.42105 -1.99451 0
M  V30 17839 H 1803.42 -4.56535 0.625518 0
M  V30 17840 H 1801.74 -4.14395 0.408109 0
M  V30 17841 H 1804.34 -4.83352 -2.28636 0
M  V30 17842 H 1804.68 -3.17104 -2.69724 0
M  V30 17843 H 1805.21 -3.81548 -1.12544 0
M  V30 17844 H 1801.95 -6.55434 0.0928582 0
M  V30 17845 H 1801.47 -5.81913 -1.45388 0
M  V30 17846 H 1803.15 -6.3574 -1.20179 0
M  V30 17847 N 1803.28 0.241399 -1.5574 0
M  V30 17848 C 1804.53 0.970098 -1.78093 0
M  V30 17849 C 1804.86 1.84763 -0.598005 0
M  V30 17850 O 1804.14 1.90268 0.403516 0
M  V30 17851 C 1804.42 1.82594 -3.10373 0
M  V30 17852 C 1804.27 0.976228 -4.39078 0
M  V30 17853 C 1805.59 2.80743 -3.38927 0
M  V30 17854 H 1802.71 0.35125 -0.647914 0
M  V30 17855 H 1805.35 0.240232 -1.88475 0
M  V30 17856 H 1803.5 2.44823 -3.01652 0
M  V30 17857 H 1805.17 0.37222 -4.59796 0
M  V30 17858 H 1803.42 0.280807 -4.3289 0
M  V30 17859 H 1804.09 1.60899 -5.2803 0
M  V30 17860 H 1806.56 2.28651 -3.47646 0
M  V30 17861 H 1805.44 3.37743 -4.3269 0
M  V30 17862 H 1805.7 3.57484 -2.6011 0
M  V30 17863 N 1804.76 1.49212 0.507292 0
M  V30 17864 C 1805.69 1.68326 1.61829 0
M  V30 17865 C 1806.67 0.531969 1.61568 0
M  V30 17866 O 1807.86 0.767104 1.78407 0
M  V30 17867 C 1804.99 1.74394 3.0034 0
M  V30 17868 C 1803.94 2.89251 3.15465 0
M  V30 17869 C 1803.27 2.80426 4.55264 0
M  V30 17870 C 1804.57 4.30269 2.96085 0
M  V30 17871 H 1806.26 2.6134 1.46087 0
M  V30 17872 H 1803.81 1.25765 0.701367 0
M  V30 17873 H 1805.76 1.86353 3.77956 0
M  V30 17874 H 1804.48 0.779748 3.17155 0
M  V30 17875 H 1803.14 2.76884 2.40272 0
M  V30 17876 H 1802.79 1.81928 4.68947 0
M  V30 17877 H 1802.49 3.57511 4.66326 0
M  V30 17878 H 1804.01 2.94384 5.34949 0
M  V30 17879 H 1805.43 4.4335 3.63475 0
M  V30 17880 H 1803.83 5.08527 3.18623 0
M  V30 17881 H 1804.9 4.45151 1.92272 0
M  V30 17882 N 1806.24 -0.757876 1.38181 0
M  V30 17883 C 1807.48 -1.51912 1.34352 0
M  V30 17884 C 1807.82 -1.94082 -0.0677003 0
M  V30 17885 O 1807.09 -1.65114 -1.02799 0
M  V30 17886 C 1807.38 -2.77466 2.29531 0
M  V30 17887 C 1807.23 -2.41462 3.79495 0
M  V30 17888 C 1808.55 -3.79469 2.22915 0
M  V30 17889 H 1805.67 -0.551091 0.489355 0
M  V30 17890 H 1808.31 -0.868376 1.68995 0
M  V30 17891 H 1806.46 -3.32994 2.00119 0
M  V30 17892 H 1808.13 -1.91742 4.19562 0
M  V30 17893 H 1806.37 -1.73976 3.97385 0
M  V30 17894 H 1807.04 -3.31272 4.41546 0
M  V30 17895 H 1809.52 -3.33471 2.48871 0
M  V30 17896 H 1808.4 -4.6502 2.91629 0
M  V30 17897 H 1808.66 -4.24744 1.22658 0
M  V30 17898 N 1807.72 -1.22979 -0.985586 0
M  V30 17899 C 1808.99 -0.967121 -1.70018 0
M  V30 17900 C 1809.37 0.515746 -2.04703 0
M  V30 17901 O 1808.72 1.48564 -1.73611 0
M  V30 17902 C 1808.93 -1.8721 -2.94539 0
M  V30 17903 C 1810.28 -2.13251 -3.67163 0
M  V30 17904 O 1811.3 -1.84718 -3.04562 0
M  V30 17905 O 1810.16 -2.61617 -4.79811 0
M  V30 17906 H 1807.26 -0.364318 -0.74243 0
M  V30 17907 H 1809.8 -1.33998 -1.04127 0
M  V30 17908 H 1808.57 -2.87478 -2.65465 0
M  V30 17909 H 1808.2 -1.50128 -3.68167 0
M  V30 17910 N 1809.19 1.18355 -1.04066 0
M  V30 17911 C 1810.61 1.69995 -0.771919 0
M  V30 17912 C 1810.96 1.83011 0.707213 0
M  V30 17913 O 1810.08 1.5096 1.55048 0
M  V30 17914 C 1810.68 3.08765 -1.39461 0
M  V30 17915 C 1809.24 3.57617 -1.17418 0
M  V30 17916 C 1808.38 2.34168 -1.48528 0
M  V30 17917 H 1811.33 1.0303 -1.20708 0
M  V30 17918 H 1811.35 3.72042 -0.79782 0
M  V30 17919 H 1810.87 2.9926 -2.47113 0
M  V30 17920 H 1808.97 3.72418 -0.116398 0
M  V30 17921 H 1809.08 4.41048 -1.87119 0
M  V30 17922 H 1807.44 2.38081 -0.904972 0
M  V30 17923 H 1808.23 2.27282 -2.57289 0
M  V30 17924 N 1810.67 0.820125 1.3458 0
M  V30 17925 C 1811.9 0.419155 2.02303 0
M  V30 17926 C 1812.31 -0.978742 1.61918 0
M  V30 17927 O 1811.65 -1.64433 0.818983 0
M  V30 17928 C 1811.72 0.438576 3.56815 0
M  V30 17929 C 1811.38 1.78932 4.20514 0
M  V30 17930 C 1812.38 2.74974 4.41232 0
M  V30 17931 C 1810.06 2.07704 4.57345 0
M  V30 17932 C 1812.06 3.97961 4.97901 0
M  V30 17933 C 1809.74 3.30952 5.13726 0
M  V30 17934 C 1810.74 4.25898 5.33947 0
M  V30 17935 O 1810.43 5.46969 5.89135 0
M  V30 17936 H 1810.16 0.166787 0.655102 0
M  V30 17937 H 1812.71 1.10892 1.72893 0
M  V30 17938 H 1810.94 -0.307871 3.85472 0
M  V30 17939 H 1812.63 0.0580448 4.05858 0
M  V30 17940 H 1813.4 2.54041 4.13144 0
M  V30 17941 H 1809.28 1.34605 4.40911 0
M  V30 17942 H 1812.82 4.72081 5.136 0
M  V30 17943 H 1808.72 3.5175 5.41242 0
M  V30 17944 H 1809.49 5.48451 6.07572 0
M  V30 17945 N 1812.15 -1.46743 0.574835 0
M  V30 17946 C 1813.56 -1.86127 0.146143 0
M  V30 17947 C 1813.91 -1.47938 -1.28875 0
M  V30 17948 O 1813.04 -0.890593 -1.97224 0
M  V30 17949 C 1813.63 -3.37813 0.258447 0
M  V30 17950 C 1812.19 -3.76223 -0.115322 0
M  V30 17951 C 1811.34 -2.70775 0.597997 0
M  V30 17952 H 1814.29 -1.38009 0.783526 0
M  V30 17953 H 1814.31 -3.76953 -0.51831 0
M  V30 17954 H 1813.82 -3.65577 1.30288 0
M  V30 17955 H 1811.92 -3.54077 -1.16019 0
M  V30 17956 H 1812.04 -4.78418 0.255513 0
M  V30 17957 H 1810.4 -2.5467 0.039113 0
M  V30 17958 H 1811.18 -3.0138 1.64393 0
M  V30 17959 N 1813.63 -0.312197 -1.54477 0
M  V30 17960 C 1815.04 0.178189 -1.85848 0
M  V30 17961 C 1815.39 1.52534 -1.23401 0
M  V30 17962 O 1814.52 2.09661 -0.535822 0
M  V30 17963 C 1815.11 0.330099 -3.37188 0
M  V30 17964 C 1813.67 0.764703 -3.6855 0
M  V30 17965 C 1812.82 -0.120348 -2.77039 0
M  V30 17966 H 1815.77 -0.532853 -1.49487 0
M  V30 17967 H 1815.79 1.16287 -3.62295 0
M  V30 17968 H 1815.3 -0.650527 -3.82609 0
M  V30 17969 H 1813.4 1.75548 -3.28654 0
M  V30 17970 H 1813.51 0.576331 -4.75621 0
M  V30 17971 H 1811.88 0.402229 -2.51504 0
M  V30 17972 H 1812.66 -1.09753 -3.25283 0
M  V30 17973 N 1815.11 1.57549 -0.040136 0
M  V30 17974 C 1816.35 1.9187 0.634838 0
M  V30 17975 C 1816.68 0.918178 1.7203 0
M  V30 17976 O 1815.95 -0.0386563 1.95862 0
M  V30 17977 H 1814.53 0.708245 0.237483 0
M  V30 17978 H 1817.19 1.9469 -0.0905369 0
M  V30 17979 H 1816.28 2.92799 1.08053 0
M  V30 17980 N 1816.58 -0.233136 1.55866 0
M  V30 17981 C 1817.53 -1.29204 1.87857 0
M  V30 17982 C 1818.52 -1.42842 0.740607 0
M  V30 17983 O 1819.71 -1.45852 1.00281 0
M  V30 17984 C 1816.84 -2.6448 2.18873 0
M  V30 17985 C 1815.93 -2.5479 3.39032 0
M  V30 17986 N 1816.32 -2.14742 4.57952 0
M  V30 17987 C 1814.61 -2.85774 3.42417 0
M  V30 17988 C 1815.32 -2.1602 5.40102 0
M  V30 17989 N 1814.29 -2.5606 4.79515 0
M  V30 17990 H 1818.09 -0.973116 2.77322 0
M  V30 17991 H 1815.61 -0.441733 1.56277 0
M  V30 17992 H 1817.6 -3.40916 2.39962 0
M  V30 17993 H 1816.26 -2.97227 1.30714 0
M  V30 17994 H 1817.28 -1.8606 4.83324 0
M  V30 17995 H 1813.95 -3.2297 2.64568 0
M  V30 17996 H 1815.34 -1.8728 6.45272 0
M  V30 17997 N 1818.06 -1.49479 -0.499372 0
M  V30 17998 C 1819 -1.6239 -1.61748 0
M  V30 17999 C 1820.01 -0.506515 -1.5472 0
M  V30 18000 O 1821.2 -0.778629 -1.60623 0
M  V30 18001 C 1818.3 -1.56611 -3.00543 0
M  V30 18002 C 1817.47 -2.83909 -3.32738 0
M  V30 18003 C 1816.53 -2.7116 -4.50953 0
M  V30 18004 O 1815.56 -3.45097 -4.52656 0
M  V30 18005 N 1816.76 -1.82815 -5.50962 0
M  V30 18006 H 1819.52 -2.58823 -1.51099 0
M  V30 18007 H 1817.08 -1.46588 -0.687277 0
M  V30 18008 H 1819.08 -1.45734 -3.7755 0
M  V30 18009 H 1817.65 -0.68029 -3.05108 0
M  V30 18010 H 1816.87 -3.09125 -2.44613 0
M  V30 18011 H 1818.15 -3.68299 -3.51046 0
M  V30 18012 H 1817.55 -1.22005 -5.52387 0
M  V30 18013 H 1816.11 -1.77859 -6.27064 0
M  V30 18014 N 1819.54 0.750537 -1.38581 0
M  V30 18015 C 1820.45 1.89503 -1.38296 0
M  V30 18016 C 1821.47 1.71738 -0.279678 0
M  V30 18017 O 1822.64 1.94608 -0.518607 0
M  V30 18018 C 1819.71 3.24909 -1.20976 0
M  V30 18019 C 1818.77 3.55178 -2.41136 0
M  V30 18020 C 1818 4.84124 -2.24633 0
M  V30 18021 O 1818.23 5.56722 -1.24164 0
M  V30 18022 O 1817.16 5.1394 -3.13288 0
M  V30 18023 H 1820.99 1.92698 -2.34737 0
M  V30 18024 H 1818.57 0.896233 -1.19533 0
M  V30 18025 H 1820.45 4.05858 -1.13389 0
M  V30 18026 H 1819.13 3.22519 -0.276217 0
M  V30 18027 H 1818.03 2.74378 -2.54298 0
M  V30 18028 H 1819.37 3.62332 -3.33131 0
M  V30 18029 N 1821.02 1.235 0.979051 0
M  V30 18030 C 1822.43 1.06263 1.53509 0
M  V30 18031 C 1822.78 -0.369594 1.92687 0
M  V30 18032 O 1821.91 -1.25649 1.76185 0
M  V30 18033 C 1822.5 1.92276 2.78954 0
M  V30 18034 C 1821.06 1.79296 3.30953 0
M  V30 18035 C 1820.21 1.87898 2.03935 0
M  V30 18036 H 1823.16 1.37143 0.798588 0
M  V30 18037 H 1823.18 1.44835 3.51857 0
M  V30 18038 H 1822.69 2.96509 2.50408 0
M  V30 18039 H 1820.79 0.778512 3.64376 0
M  V30 18040 H 1820.91 2.62755 4.0062 0
M  V30 18041 H 1819.27 1.31494 2.18131 0
M  V30 18042 H 1820.05 2.93689 1.77769 0
M  V30 18043 N 1822.5 -1.17802 1.04693 0
M  V30 18044 C 1823.75 -1.87271 0.749172 0
M  V30 18045 C 1824.06 -1.81614 -0.726342 0
M  V30 18046 O 1825.27 -2.46506 -1.13785 0
M  V30 18047 C 1823.72 -3.35992 1.28986 0
M  V30 18048 C 1823.33 -3.50163 2.79446 0
M  V30 18049 C 1825.07 -4.10821 1.06892 0
M  V30 18050 C 1822.98 -4.92878 3.26841 0
M  V30 18051 H 1821.91 -0.701451 0.276554 0
M  V30 18052 H 1824.56 -1.33065 1.26357 0
M  V30 18053 H 1822.94 -3.89705 0.703298 0
M  V30 18054 H 1824.12 -3.06692 3.43914 0
M  V30 18055 H 1822.43 -2.88747 3.00023 0
M  V30 18056 H 1825.03 -5.16098 1.39809 0
M  V30 18057 H 1825.37 -4.163 0.00644311 0
M  V30 18058 H 1825.91 -3.633 1.62043 0
M  V30 18059 H 1822.64 -4.92572 4.32497 0
M  V30 18060 H 1822.16 -5.3704 2.67112 0
M  V30 18061 H 1823.84 -5.61624 3.21227 0
M  V30 18062 N 1823.98 -0.827251 -1.34143 0
M  V30 18063 C 1824.89 -0.254285 -2.33218 0
M  V30 18064 C 1825.9 0.613602 -1.62822 0
M  V30 18065 O 1827.08 0.520477 -1.94558 0
M  V30 18066 C 1824.14 0.570817 -3.41969 0
M  V30 18067 C 1823.2 -0.319978 -4.28106 0
M  V30 18068 C 1822.44 0.465839 -5.31663 0
M  V30 18069 O 1822.66 1.6987 -5.44518 0
M  V30 18070 O 1821.59 -0.154094 -6.01703 0
M  V30 18071 H 1825.42 -1.07441 -2.8406 0
M  V30 18072 H 1823 -0.589493 -1.37278 0
M  V30 18073 H 1824.89 1.04009 -4.08363 0
M  V30 18074 H 1823.56 1.3682 -2.93363 0
M  V30 18075 H 1822.47 -0.836843 -3.6462 0
M  V30 18076 H 1823.8 -1.08183 -4.80164 0
M  V30 18077 N 1825.45 1.46436 -0.582609 0
M  V30 18078 C 1826.7 2.02685 -0.0682503 0
M  V30 18079 C 1827.03 1.45315 1.2883 0
M  V30 18080 O 1826.31 0.61821 1.84414 0
M  V30 18081 C 1826.59 3.601 -0.00237797 0
M  V30 18082 C 1826.44 4.27855 -1.38782 0
M  V30 18083 C 1827.76 4.34525 0.69829 0
M  V30 18084 H 1824.88 0.736531 -0.0262761 0
M  V30 18085 H 1827.52 1.7458 -0.749789 0
M  V30 18086 H 1825.67 3.84176 0.57803 0
M  V30 18087 H 1827.35 4.15043 -2.01339 0
M  V30 18088 H 1825.59 3.87221 -1.95557 0
M  V30 18089 H 1826.26 5.36614 -1.2942 0
M  V30 18090 H 1828.74 4.15594 0.205219 0
M  V30 18091 H 1827.61 5.44244 0.71341 0
M  V30 18092 H 1827.87 4.05575 1.75957 0
M  V30 18093 N 1826.93 0.320385 1.54309 0
M  V30 18094 C 1828.18 -0.276343 2.01514 0
M  V30 18095 C 1828.53 -1.50026 1.20457 0
M  V30 18096 O 1827.83 -1.89575 0.27782 0
M  V30 18097 C 1828.02 -0.665444 3.5115 0
M  V30 18098 C 1827.85 0.519217 4.46693 0
M  V30 18099 C 1826.62 1.01733 4.94953 0
M  V30 18100 C 1828.82 1.3704 4.95706 0
M  V30 18101 N 1826.8 2.16673 5.74392 0
M  V30 18102 C 1828.17 2.36701 5.73038 0
M  V30 18103 C 1830.22 1.39853 4.77855 0
M  V30 18104 C 1828.93 3.38976 6.34419 0
M  V30 18105 C 1830.95 2.40997 5.40069 0
M  V30 18106 C 1830.32 3.39385 6.17249 0
M  V30 18107 H 1826.41 -0.0650523 0.77929 0
M  V30 18108 H 1829 0.454702 1.89316 0
M  V30 18109 H 1827.17 -1.36563 3.636 0
M  V30 18110 H 1828.9 -1.24337 3.85127 0
M  V30 18111 H 1825.66 0.589128 4.69922 0
M  V30 18112 H 1826.08 2.74642 6.1879 0
M  V30 18113 H 1830.72 0.651536 4.1775 0
M  V30 18114 H 1828.44 4.14583 6.93647 0
M  V30 18115 H 1832.03 2.43971 5.28175 0
M  V30 18116 H 1830.91 4.16368 6.64535 0
M  V30 18117 N 1828.41 -1.57525 0.0484906 0
M  V30 18118 C 1829.63 -1.97309 -0.639062 0
M  V30 18119 C 1830.06 -0.925753 -1.63742 0
M  V30 18120 O 1829.42 0.111304 -1.80958 0
M  V30 18121 C 1829.47 -3.36168 -1.30475 0
M  V30 18122 O 1828.57 -3.33903 -2.42038 0
M  V30 18123 H 1827.91 -0.642824 -0.166351 0
M  V30 18124 H 1830.44 -2.0427 0.116095 0
M  V30 18125 H 1830.45 -3.72835 -1.65705 0
M  V30 18126 H 1829.13 -4.11933 -0.573057 0
M  V30 18127 H 1827.7 -3.08978 -2.08775 0
M  V30 18128 N 1829.89 0.224867 -1.55988 0
M  V30 18129 C 1831.3 0.574415 -1.48905 0
M  V30 18130 C 1831.5 1.87303 -0.74296 0
M  V30 18131 O 1830.56 2.50929 -0.28127 0
M  V30 18132 C 1831.87 0.656717 -2.93441 0
M  V30 18133 C 1833.42 0.747568 -3.03941 0
M  V30 18134 C 1833.9 0.861243 -4.4983 0
M  V30 18135 N 1835.39 0.92555 -4.53859 0
M  V30 18136 C 1836.12 1.03316 -5.64015 0
M  V30 18137 N 1835.62 1.10492 -6.83932 0
M  V30 18138 N 1837.41 1.06804 -5.5186 0
M  V30 18139 H 1829.56 -0.627339 -2.02924 0
M  V30 18140 H 1831.82 -0.219656 -0.922201 0
M  V30 18141 H 1831.53 -0.227845 -3.50961 0
M  V30 18142 H 1831.4 1.52142 -3.45156 0
M  V30 18143 H 1833.79 1.62257 -2.46489 0
M  V30 18144 H 1833.87 -0.142737 -2.55401 0
M  V30 18145 H 1833.52 -0.00929123 -5.07899 0
M  V30 18146 H 1833.45 1.76692 -4.96072 0
M  V30 18147 H 1835.94 0.880541 -3.67498 0
M  V30 18148 H 1836.25 1.18672 -7.63634 0
M  V30 18149 H 1834.6 1.07411 -6.8665 0
M  V30 18150 H 1837.79 1.0086 -4.57105 0
M  V30 18151 H 1837.96 1.14845 -6.37742 0
M  V30 18152 N 1831.37 1.49742 0.491438 0
M  V30 18153 C 1832.3 1.63245 1.60884 0
M  V30 18154 C 1833.31 0.514713 1.54449 0
M  V30 18155 O 1834.5 0.787136 1.60207 0
M  V30 18156 C 1831.6 1.58202 2.99709 0
M  V30 18157 C 1830.77 2.8567 3.31227 0
M  V30 18158 C 1829.83 2.73548 4.49509 0
M  V30 18159 O 1828.86 3.47492 4.50819 0
M  V30 18160 N 1830.06 1.85734 5.49985 0
M  V30 18161 H 1832.82 2.5962 1.49724 0
M  V30 18162 H 1830.39 1.46951 0.679494 0
M  V30 18163 H 1832.38 1.47734 3.76771 0
M  V30 18164 H 1830.95 0.696461 3.04743 0
M  V30 18165 H 1830.17 3.10418 2.4297 0
M  V30 18166 H 1831.46 3.70156 3.49088 0
M  V30 18167 H 1830.85 1.24933 5.51732 0
M  V30 18168 H 1829.41 1.81182 6.26112 0
M  V30 18169 N 1832.84 -0.743177 1.38977 0
M  V30 18170 C 1833.77 -1.87047 1.3977 0
M  V30 18171 C 1834.76 -1.68068 0.262161 0
M  V30 18172 O 1835.94 -1.88507 0.466782 0
M  V30 18173 C 1833.07 -3.24701 1.23234 0
M  V30 18174 C 1832.02 -3.58302 2.34102 0
M  V30 18175 C 1831.35 -4.94805 2.02663 0
M  V30 18176 C 1832.65 -3.62111 3.76395 0
M  V30 18177 H 1834.34 -1.8664 2.34107 0
M  V30 18178 H 1831.89 -0.896541 1.12686 0
M  V30 18179 H 1833.84 -4.03228 1.22412 0
M  V30 18180 H 1832.57 -3.25614 0.253638 0
M  V30 18181 H 1831.23 -2.82099 2.34128 0
M  V30 18182 H 1830.87 -4.92289 1.0325 0
M  V30 18183 H 1830.57 -5.18254 2.76922 0
M  V30 18184 H 1832.1 -5.75699 2.03477 0
M  V30 18185 H 1833.51 -4.30731 3.78343 0
M  V30 18186 H 1831.91 -3.97075 4.49946 0
M  V30 18187 H 1832.98 -2.62099 4.07961 0
M  V30 18188 N 1834.32 -1.24018 -0.972487 0
M  V30 18189 C 1835.57 -1.07489 -1.71145 0
M  V30 18190 C 1835.89 0.387798 -1.91105 0
M  V30 18191 O 1835.16 1.27725 -1.48537 0
M  V30 18192 H 1833.74 -0.394765 -0.634168 0
M  V30 18193 H 1836.4 -1.55861 -1.17018 0
M  V30 18194 H 1835.5 -1.56913 -2.69786 0
M  V30 18195 N 1835.8 1.17245 -1.05316 0
M  V30 18196 C 1836.71 2.24948 -0.666011 0
M  V30 18197 C 1837.73 1.71153 0.313478 0
M  V30 18198 O 1838.9 2.00721 0.165262 0
M  V30 18199 C 1835.97 3.46667 -0.0480198 0
M  V30 18200 C 1835.03 4.15542 -1.07812 0
M  V30 18201 C 1834.26 5.3145 -0.48952 0
M  V30 18202 O 1834.48 5.6608 0.700668 0
M  V30 18203 O 1833.42 5.89315 -1.22439 0
M  V30 18204 H 1837.24 2.60353 -1.56365 0
M  V30 18205 H 1834.83 1.24569 -0.8248 0
M  V30 18206 H 1836.71 4.20364 0.295366 0
M  V30 18207 H 1835.39 3.13056 0.823248 0
M  V30 18208 H 1834.29 3.43858 -1.47351 0
M  V30 18209 H 1835.63 4.53183 -1.92057 0
M  V30 18210 N 1837.28 0.834353 1.33702 0
M  V30 18211 C 1838.53 0.427042 1.97537 0
M  V30 18212 C 1838.85 -1.01607 1.66436 0
M  V30 18213 O 1838.12 -1.70711 0.960958 0
M  V30 18214 H 1836.7 0.154921 0.730759 0
M  V30 18215 H 1839.36 1.06632 1.63143 0
M  V30 18216 H 1838.46 0.555396 3.07118 0
M  V30 18217 N 1838.76 -1.46125 0.590367 0
M  V30 18218 C 1839.69 -2.33159 -0.126114 0
M  V30 18219 C 1840.67 -1.45806 -0.876057 0
M  V30 18220 O 1841.85 -1.7461 -0.850009 0
M  V30 18221 C 1838.98 -3.28217 -1.13537 0
M  V30 18222 C 1837.94 -4.25072 -0.499773 0
M  V30 18223 C 1837.26 -5.09694 -1.61605 0
M  V30 18224 C 1838.56 -5.19202 0.567992 0
M  V30 18225 H 1840.26 -2.93315 0.600577 0
M  V30 18226 H 1837.8 -1.41044 0.290265 0
M  V30 18227 H 1839.76 -3.87965 -1.64503 0
M  V30 18228 H 1838.48 -2.66185 -1.89244 0
M  V30 18229 H 1837.14 -3.66598 -0.0111313 0
M  V30 18230 H 1836.79 -4.44041 -2.36297 0
M  V30 18231 H 1836.49 -5.75292 -1.19637 0
M  V30 18232 H 1838.01 -5.72307 -2.12832 0
M  V30 18233 H 1839.42 -5.73121 0.143102 0
M  V30 18234 H 1837.82 -5.93184 0.908428 0
M  V30 18235 H 1838.89 -4.62671 1.45133 0
M  V30 18236 N 1840.23 -0.328564 -1.54137 0
M  V30 18237 C 1841.48 0.272505 -2.00658 0
M  V30 18238 C 1841.81 1.51748 -1.21666 0
M  V30 18239 O 1841.06 1.93566 -0.288224 0
M  V30 18240 C 1841.36 0.646813 -3.51498 0
M  V30 18241 C 1841.03 -0.499561 -4.48124 0
M  V30 18242 C 1839.69 -0.8142 -4.74262 0
M  V30 18243 C 1842.04 -1.26936 -5.05506 0
M  V30 18244 C 1839.37 -1.90127 -5.55039 0
M  V30 18245 C 1841.72 -2.34656 -5.87469 0
M  V30 18246 C 1840.39 -2.66696 -6.11906 0
M  V30 18247 H 1839.66 0.0997168 -0.73426 0
M  V30 18248 H 1842.3 -0.453377 -1.86056 0
M  V30 18249 H 1840.61 1.45319 -3.63854 0
M  V30 18250 H 1842.31 1.12352 -3.84939 0
M  V30 18251 H 1838.9 -0.244255 -4.27903 0
M  V30 18252 H 1843.08 -1.03954 -4.85291 0
M  V30 18253 H 1838.34 -2.15392 -5.72203 0
M  V30 18254 H 1842.51 -2.94745 -6.3095 0
M  V30 18255 H 1840.14 -3.51058 -6.74287 0
M  V30 18256 N 1841.71 1.57497 -0.0568439 0
M  V30 18257 C 1842.68 2.10755 0.900823 0
M  V30 18258 C 1843.68 1.02835 1.23619 0
M  V30 18259 O 1844.87 1.28885 1.17194 0
M  V30 18260 C 1842 2.5965 2.20895 0
M  V30 18261 H 1843.19 2.96669 0.439041 0
M  V30 18262 H 1840.74 1.55121 0.191646 0
M  V30 18263 H 1841.48 1.77147 2.71642 0
M  V30 18264 H 1841.26 3.3852 1.97855 0
M  V30 18265 H 1842.75 3.00982 2.89482 0
M  V30 18266 N 1843.19 -0.216591 1.56105 0
M  V30 18267 C 1844.44 -0.938392 1.78993 0
M  V30 18268 C 1844.76 -1.84671 0.626215 0
M  V30 18269 O 1844.03 -1.92626 -0.356636 0
M  V30 18270 H 1842.61 -0.349491 0.660201 0
M  V30 18271 H 1845.27 -0.227256 1.93571 0
M  V30 18272 H 1844.37 -1.54227 2.71331 0
M  V30 18273 N 1844.67 -1.5 -0.48349 0
M  V30 18274 C 1845.58 -1.70722 -1.60907 0
M  V30 18275 C 1846.59 -0.590075 -1.63689 0
M  V30 18276 O 1847.77 -0.866915 -1.81787 0
M  V30 18277 C 1844.84 -1.78544 -2.97192 0
M  V30 18278 C 1843.9 -3.02218 -3.04898 0
M  V30 18279 C 1843.13 -3.09658 -4.34681 0
M  V30 18280 O 1843.35 -2.24216 -5.24484 0
M  V30 18281 O 1842.29 -4.02278 -4.47723 0
M  V30 18282 H 1846.11 -2.66111 -1.4635 0
M  V30 18283 H 1843.7 -1.33949 -0.661666 0
M  V30 18284 H 1845.58 -1.85941 -3.78159 0
M  V30 18285 H 1844.25 -0.863364 -3.11974 0
M  V30 18286 H 1843.16 -3.00329 -2.23054 0
M  V30 18287 H 1844.49 -3.93964 -2.95048 0
M  V30 18288 N 1846.15 0.735796 -1.39369 0
M  V30 18289 C 1847.08 1.86303 -1.4076 0
M  V30 18290 C 1848.06 1.67926 -0.27107 0
M  V30 18291 O 1849.24 1.88257 -0.476773 0
M  V30 18292 C 1846.37 3.24043 -1.24955 0
M  V30 18293 C 1845.33 3.57055 -2.35999 0
M  V30 18294 C 1844.65 4.93723 -2.05284 0
M  V30 18295 C 1845.95 3.60109 -3.7831 0
M  V30 18296 H 1847.65 1.85396 -2.35093 0
M  V30 18297 H 1845.19 0.890552 -1.1316 0
M  V30 18298 H 1847.15 4.02574 -1.24549 0
M  V30 18299 H 1845.87 3.25475 -0.270902 0
M  V30 18300 H 1844.53 2.80853 -2.35621 0
M  V30 18301 H 1844.18 4.91734 -1.05859 0
M  V30 18302 H 1843.88 5.16779 -2.79667 0
M  V30 18303 H 1845.4 5.74612 -2.06527 0
M  V30 18304 H 1846.81 4.28718 -3.80622 0
M  V30 18305 H 1845.21 3.94683 -4.52046 0
M  V30 18306 H 1846.28 2.59932 -4.09345 0
M  V30 18307 N 1847.63 1.24532 0.965897 0
M  V30 18308 C 1848.54 1.0564 2.09469 0
M  V30 18309 C 1849.55 -0.00330962 1.74 0
M  V30 18310 O 1850.73 0.195248 2.00451 0
M  V30 18311 C 1847.79 0.665318 3.40256 0
M  V30 18312 C 1846.85 1.80171 3.89663 0
M  V30 18313 C 1846.09 1.42919 5.14208 0
M  V30 18314 O 1846.31 0.319815 5.69503 0
M  V30 18315 O 1845.24 2.25546 5.58044 0
M  V30 18316 H 1849.07 2.00277 2.28304 0
M  V30 18317 H 1846.65 1.03368 1.07868 0
M  V30 18318 H 1848.54 0.458827 4.18895 0
M  V30 18319 H 1847.21 -0.251914 3.22718 0
M  V30 18320 H 1846.12 2.06296 3.12078 0
M  V30 18321 H 1847.45 2.69778 4.11681 0
M  V30 18322 N 1849.1 -1.16685 1.05936 0
M  V30 18323 C 1850.51 -1.68745 0.798866 0
M  V30 18324 C 1850.87 -1.84113 -0.678008 0
M  V30 18325 O 1849.99 -1.53408 -1.52627 0
M  V30 18326 C 1850.59 -3.06508 1.44356 0
M  V30 18327 C 1849.14 -3.55704 1.23092 0
M  V30 18328 C 1848.29 -2.31776 1.52235 0
M  V30 18329 H 1851.24 -1.01097 1.22332 0
M  V30 18330 H 1851.26 -3.70725 0.856908 0
M  V30 18331 H 1850.78 -2.95291 2.51843 0
M  V30 18332 H 1848.88 -3.72186 0.175632 0
M  V30 18333 H 1848.99 -4.38015 1.94112 0
M  V30 18334 H 1847.35 -2.36611 0.942734 0
M  V30 18335 H 1848.14 -2.2316 2.60873 0
M  V30 18336 N 1850.58 -0.841432 -1.33258 0
M  V30 18337 C 1851.51 -0.221485 -2.27123 0
M  V30 18338 C 1852.49 0.632879 -1.49778 0
M  V30 18339 O 1853.68 0.592581 -1.78943 0
M  V30 18340 C 1850.8 0.688784 -3.31622 0
M  V30 18341 C 1849.85 -0.0904563 -4.26404 0
M  V30 18342 S 1850.68 -1.45006 -5.15493 0
M  V30 18343 C 1851.84 -0.545159 -6.23521 0
M  V30 18344 H 1852.07 -1.01723 -2.79356 0
M  V30 18345 H 1849.6 -0.638326 -1.40587 0
M  V30 18346 H 1851.56 1.20836 -3.92312 0
M  V30 18347 H 1850.22 1.45821 -2.78199 0
M  V30 18348 H 1849.42 0.602296 -5.00388 0
M  V30 18349 H 1849.02 -0.541181 -3.70064 0
M  V30 18350 H 1851.31 0.255962 -6.77016 0
M  V30 18351 H 1852.25 -1.25524 -6.96885 0
M  V30 18352 H 1852.66 -0.125368 -5.64361 0
M  V30 18353 N 1852.06 1.4581 -0.598108 0
M  V30 18354 C 1853.28 2.07188 -0.0938515 0
M  V30 18355 C 1853.71 1.44141 1.20851 0
M  V30 18356 O 1853.07 0.530689 1.73359 0
M  V30 18357 C 1853.12 3.60575 0.0423086 0
M  V30 18358 O 1852.22 3.97598 1.09496 0
M  V30 18359 H 1851.56 0.660324 -0.0697682 0
M  V30 18360 H 1854.09 1.87211 -0.825426 0
M  V30 18361 H 1854.1 4.07272 0.243566 0
M  V30 18362 H 1852.78 4.05852 -0.9087 0
M  V30 18363 H 1851.35 3.62587 0.87093 0
M  V30 18364 N 1853.54 0.336733 1.53961 0
M  V30 18365 C 1854.81 -0.316794 1.93018 0
M  V30 18366 C 1855.19 -1.68802 1.26764 0
M  V30 18367 O 1854.54 -2.2468 0.416094 0
M  V30 18368 C 1854.75 -0.395878 3.46747 0
M  V30 18369 C 1856.1 -0.649946 4.19596 0
M  V30 18370 O 1857.12 -0.47827 3.52975 0
M  V30 18371 O 1855.98 -0.982035 5.37604 0
M  V30 18372 H 1853.08 -0.183442 0.806398 0
M  V30 18373 H 1855.62 0.387412 1.65219 0
M  V30 18374 H 1854.4 0.56665 3.87175 0
M  V30 18375 H 1854.02 -1.14714 3.80692 0
M  V30 18376 N 1855.02 -1.57465 0.0651956 0
M  V30 18377 C 1855.98 -2.1123 -0.889634 0
M  V30 18378 C 1856.98 -1.03489 -1.23072 0
M  V30 18379 O 1858.17 -1.29505 -1.16508 0
M  V30 18380 C 1855.3 -2.60818 -2.19515 0
M  V30 18381 H 1856.49 -2.96898 -0.423301 0
M  V30 18382 H 1854.05 -1.5522 -0.183417 0
M  V30 18383 H 1854.78 -1.78585 -2.70699 0
M  V30 18384 H 1854.57 -3.39564 -1.96057 0
M  V30 18385 H 1856.06 -3.02513 -2.87881 0
M  V30 18386 N 1856.49 0.20831 -1.56217 0
M  V30 18387 C 1857.91 0.55859 -1.49506 0
M  V30 18388 C 1858.11 1.86504 -0.762784 0
M  V30 18389 O 1857.17 2.50616 -0.307868 0
M  V30 18390 C 1858.48 0.625557 -2.94121 0
M  V30 18391 C 1860.03 0.715289 -3.04717 0
M  V30 18392 C 1860.5 0.813485 -4.50718 0
M  V30 18393 N 1861.99 0.87736 -4.54815 0
M  V30 18394 C 1862.73 0.973279 -5.65079 0
M  V30 18395 N 1862.22 1.03232 -6.85066 0
M  V30 18396 N 1864.02 1.00944 -5.52962 0
M  V30 18397 H 1856.17 -0.648826 -2.02247 0
M  V30 18398 H 1858.43 -0.229425 -0.91982 0
M  V30 18399 H 1858.14 -0.265056 -3.507 0
M  V30 18400 H 1858.01 1.48473 -3.4675 0
M  V30 18401 H 1860.4 1.59634 -2.48196 0
M  V30 18402 H 1860.48 -0.169818 -2.55236 0
M  V30 18403 H 1860.12 -0.0631602 -5.07861 0
M  V30 18404 H 1860.05 1.7142 -4.97918 0
M  V30 18405 H 1862.54 0.841513 -3.68411 0
M  V30 18406 H 1862.86 1.10566 -7.6485 0
M  V30 18407 H 1861.2 1.00122 -6.8775 0
M  V30 18408 H 1864.39 0.960065 -4.58149 0
M  V30 18409 H 1864.57 1.08074 -6.38924 0
M  V30 18410 N 1857.97 1.50255 0.475528 0
M  V30 18411 C 1858.9 1.71721 1.58222 0
M  V30 18412 C 1859.88 0.56612 1.60403 0
M  V30 18413 O 1861.07 0.804774 1.7674 0
M  V30 18414 C 1858.2 1.80726 2.96573 0
M  V30 18415 C 1857.15 2.95877 3.09258 0
M  V30 18416 C 1856.48 2.9002 4.49213 0
M  V30 18417 C 1857.78 4.36452 2.86891 0
M  V30 18418 H 1859.47 2.6438 1.40511 0
M  V30 18419 H 1857.02 1.27224 0.674533 0
M  V30 18420 H 1858.97 1.94328 3.73918 0
M  V30 18421 H 1857.69 0.846846 3.1543 0
M  V30 18422 H 1856.35 2.81918 2.34345 0
M  V30 18423 H 1856 1.91834 4.64982 0
M  V30 18424 H 1855.7 3.67322 4.58637 0
M  V30 18425 H 1857.23 3.05665 5.28584 0
M  V30 18426 H 1858.64 4.5096 3.53989 0
M  V30 18427 H 1857.04 5.15171 3.07765 0
M  V30 18428 H 1858.11 4.49129 1.82786 0
M  V30 18429 N 1859.45 -0.728395 1.39758 0
M  V30 18430 C 1860.38 -1.85554 1.41747 0
M  V30 18431 C 1861.36 -1.6778 0.279972 0
M  V30 18432 O 1862.55 -1.88001 0.48675 0
M  V30 18433 C 1859.68 -3.23375 1.26671 0
M  V30 18434 C 1858.63 -3.55799 2.37889 0
M  V30 18435 C 1857.96 -4.92628 2.07899 0
M  V30 18436 C 1859.26 -3.58098 3.80215 0
M  V30 18437 H 1860.95 -1.84146 2.36073 0
M  V30 18438 H 1858.5 -0.884539 1.13631 0
M  V30 18439 H 1860.45 -4.01907 1.26682 0
M  V30 18440 H 1859.17 -3.25326 0.288159 0
M  V30 18441 H 1857.83 -2.796 2.37107 0
M  V30 18442 H 1857.48 -4.91166 1.08466 0
M  V30 18443 H 1857.18 -5.15288 2.82404 0
M  V30 18444 H 1858.7 -5.73509 2.09571 0
M  V30 18445 H 1860.12 -4.26694 3.82891 0
M  V30 18446 H 1858.51 -3.9228 4.54133 0
M  V30 18447 H 1859.58 -2.57758 4.10718 0
M  V30 18448 N 1860.93 -1.25042 -0.959279 0
M  V30 18449 C 1861.89 -1.05107 -2.03679 0
M  V30 18450 C 1862.89 -0.0054691 -1.60799 0
M  V30 18451 O 1864.08 -0.247225 -1.72437 0
M  V30 18452 C 1861.21 -0.594881 -3.35669 0
M  V30 18453 H 1862.41 -2.00753 -2.22796 0
M  V30 18454 H 1859.96 -1.07384 -1.13571 0
M  V30 18455 H 1860.69 0.364387 -3.22246 0
M  V30 18456 H 1860.48 -1.34966 -3.68139 0
M  V30 18457 H 1861.97 -0.476698 -4.1487 0
M  V30 18458 N 1862.41 1.16121 -1.06553 0
M  V30 18459 C 1863.34 2.19535 -0.622871 0
M  V30 18460 C 1864.32 1.58662 0.355702 0
M  V30 18461 O 1865.5 1.86641 0.264051 0
M  V30 18462 C 1862.63 3.3859 0.086503 0
M  V30 18463 C 1861.67 4.1796 -0.849237 0
M  V30 18464 S 1862.51 4.81381 -2.3459 0
M  V30 18465 C 1863.66 6.03812 -1.64809 0
M  V30 18466 H 1863.9 2.56744 -1.49899 0
M  V30 18467 H 1861.43 1.26954 -0.87875 0
M  V30 18468 H 1863.39 4.0757 0.489554 0
M  V30 18469 H 1862.05 2.9974 0.938853 0
M  V30 18470 H 1861.24 5.03109 -0.299489 0
M  V30 18471 H 1860.84 3.54486 -1.19229 0
M  V30 18472 H 1863.14 6.70733 -0.955182 0
M  V30 18473 H 1864.08 6.63341 -2.4776 0
M  V30 18474 H 1864.49 5.53084 -1.12955 0
M  V30 18475 N 1863.88 0.848487 1.3281 0
M  V30 18476 C 1865.13 0.44797 1.97073 0
M  V30 18477 C 1865.45 -0.998358 1.67505 0
M  V30 18478 O 1864.72 -1.69683 0.97901 0
M  V30 18479 H 1863.3 0.162663 0.729075 0
M  V30 18480 H 1865.97 1.08356 1.62003 0
M  V30 18481 H 1865.06 0.587939 3.06512 0
M  V30 18482 N 1865.36 -1.4549 0.605832 0
M  V30 18483 C 1866.78 -1.57311 0.269339 0
M  V30 18484 C 1866.98 -1.59746 -1.22814 0
M  V30 18485 O 1866.03 -1.52682 -2.01108 0
M  V30 18486 C 1867.35 -2.85664 0.938963 0
M  V30 18487 C 1868.9 -2.99336 0.914717 0
M  V30 18488 C 1869.37 -4.30457 1.56432 0
M  V30 18489 N 1870.86 -4.37211 1.52973 0
M  V30 18490 C 1871.6 -5.37333 2.00152 0
M  V30 18491 N 1871.09 -6.44001 2.5541 0
M  V30 18492 N 1872.89 -5.28679 1.90931 0
M  V30 18493 H 1865.04 -1.42153 1.57817 0
M  V30 18494 H 1867.3 -0.679542 0.661004 0
M  V30 18495 H 1867.01 -2.89759 1.9933 0
M  V30 18496 H 1866.88 -3.7437 0.461178 0
M  V30 18497 H 1869.27 -2.94809 -0.131069 0
M  V30 18498 H 1869.35 -2.12045 1.43075 0
M  V30 18499 H 1868.99 -4.35742 2.60942 0
M  V30 18500 H 1868.92 -5.16561 1.02332 0
M  V30 18501 H 1871.41 -3.60733 1.12605 0
M  V30 18502 H 1871.73 -7.16644 2.89208 0
M  V30 18503 H 1870.07 -6.44757 2.59448 0
M  V30 18504 H 1873.26 -4.44253 1.47502 0
M  V30 18505 H 1873.43 -6.06559 2.28013 0
M  V30 18506 N 1866.84 -0.344893 -1.5378 0
M  V30 18507 C 1868.07 0.252193 -2.05055 0
M  V30 18508 C 1868.48 1.44657 -1.21947 0
M  V30 18509 O 1867.82 1.82018 -0.248012 0
M  V30 18510 C 1867.88 0.729619 -3.52018 0
M  V30 18511 C 1867.55 -0.345284 -4.55694 0
M  V30 18512 C 1868.54 -1.18843 -5.06135 0
M  V30 18513 C 1866.23 -0.499596 -4.99809 0
M  V30 18514 C 1868.22 -2.17141 -5.99273 0
M  V30 18515 C 1865.91 -1.48598 -5.92758 0
M  V30 18516 C 1866.91 -2.32033 -6.42378 0
M  V30 18517 O 1866.6 -3.28992 -7.33498 0
M  V30 18518 H 1866.33 0.0522523 -0.673978 0
M  V30 18519 H 1868.88 -0.495473 -1.99334 0
M  V30 18520 H 1867.11 1.52855 -3.55207 0
M  V30 18521 H 1868.8 1.2474 -3.86257 0
M  V30 18522 H 1869.57 -1.0803 -4.72816 0
M  V30 18523 H 1865.45 0.14 -4.60787 0
M  V30 18524 H 1868.99 -2.82303 -6.37927 0
M  V30 18525 H 1864.89 -1.59466 -6.25493 0
M  V30 18526 H 1865.66 -3.24479 -7.51436 0
M  V30 18527 N 1868.32 1.57428 -0.0735454 0
M  V30 18528 C 1869.28 2.11699 0.878419 0
M  V30 18529 C 1870.28 1.0414 1.22521 0
M  V30 18530 O 1871.47 1.30121 1.1582 0
M  V30 18531 C 1868.6 2.61979 2.18129 0
M  V30 18532 H 1869.8 2.97118 0.40755 0
M  V30 18533 H 1867.35 1.55315 0.175183 0
M  V30 18534 H 1868.08 1.80018 2.69748 0
M  V30 18535 H 1867.87 3.40599 1.94254 0
M  V30 18536 H 1869.36 3.04035 2.86273 0
M  V30 18537 N 1869.8 -0.200022 1.56326 0
M  V30 18538 C 1871.21 -0.550653 1.498 0
M  V30 18539 C 1871.41 -1.86097 0.772664 0
M  V30 18540 O 1870.47 -2.50449 0.321155 0
M  V30 18541 C 1871.78 -0.60995 2.94449 0
M  V30 18542 C 1873.33 -0.699119 3.05092 0
M  V30 18543 C 1873.8 -0.78957 4.51143 0
M  V30 18544 N 1875.3 -0.853228 4.55274 0
M  V30 18545 C 1876.03 -0.943298 5.65588 0
M  V30 18546 N 1875.53 -0.995976 6.85603 0
M  V30 18547 N 1877.32 -0.980106 5.53489 0
M  V30 18548 H 1869.47 0.659543 2.019 0
M  V30 18549 H 1871.73 0.234299 0.91859 0
M  V30 18550 H 1871.44 0.283651 3.50554 0
M  V30 18551 H 1871.31 -1.46632 3.47533 0
M  V30 18552 H 1873.7 -1.58315 2.49039 0
M  V30 18553 H 1873.78 0.183351 2.55142 0
M  V30 18554 H 1873.43 0.0900924 5.0782 0
M  V30 18555 H 1873.36 -1.68777 4.9882 0
M  V30 18556 H 1875.85 -0.821964 3.68853 0
M  V30 18557 H 1876.16 -1.06508 7.65425 0
M  V30 18558 H 1874.5 -0.964738 6.88272 0
M  V30 18559 H 1877.7 -0.935755 4.58652 0
M  V30 18560 H 1877.87 -1.04684 6.39488 0
M  V30 18561 N 1871.27 -1.50505 -0.467553 0
M  V30 18562 C 1872.52 -1.61671 -1.21938 0
M  V30 18563 C 1872.85 -0.318688 -1.91871 0
M  V30 18564 O 1872.1 0.695639 -1.82919 0
M  V30 18565 C 1872.4 -2.74913 -2.28381 0
M  V30 18566 C 1872.07 -4.1527 -1.75674 0
M  V30 18567 C 1870.73 -4.5346 -1.6102 0
M  V30 18568 C 1873.08 -5.02978 -1.3661 0
M  V30 18569 C 1870.41 -5.77094 -1.05732 0
M  V30 18570 C 1872.76 -6.27163 -0.827621 0
M  V30 18571 C 1871.43 -6.64152 -0.667746 0
M  V30 18572 H 1870.7 -0.591596 -0.446201 0
M  V30 18573 H 1873.34 -1.84449 -0.514858 0
M  V30 18574 H 1871.65 -2.46237 -3.04754 0
M  V30 18575 H 1873.35 -2.80756 -2.86317 0
M  V30 18576 H 1869.94 -3.85144 -1.88047 0
M  V30 18577 H 1874.12 -4.74103 -1.46764 0
M  V30 18578 H 1869.38 -6.04424 -0.920946 0
M  V30 18579 H 1873.55 -6.94484 -0.516286 0
M  V30 18580 H 1871.18 -7.5983 -0.237178 0
M  V30 18581 N 1872.75 0.720973 -1.40142 0
M  V30 18582 C 1873.68 1.84799 -1.42729 0
M  V30 18583 C 1874.66 1.67629 -0.288866 0
M  V30 18584 O 1875.85 1.8774 -0.496713 0
M  V30 18585 C 1872.98 3.22699 -1.28385 0
M  V30 18586 C 1871.93 3.54532 -2.39773 0
M  V30 18587 C 1871.26 4.91518 -2.10509 0
M  V30 18588 C 1872.56 3.56077 -3.82108 0
M  V30 18589 H 1874.25 1.82892 -2.37046 0
M  V30 18590 H 1871.8 0.8785 -1.14098 0
M  V30 18591 H 1873.75 4.0123 -1.28812 0
M  V30 18592 H 1872.48 3.25169 -0.305408 0
M  V30 18593 H 1871.13 2.78338 -2.38586 0
M  V30 18594 H 1870.78 4.90584 -1.11069 0
M  V30 18595 H 1870.48 5.13783 -2.85132 0
M  V30 18596 H 1872.01 5.72389 -2.1261 0
M  V30 18597 H 1873.42 4.24657 -3.85148 0
M  V30 18598 H 1871.82 3.89866 -4.56207 0
M  V30 18599 H 1872.89 2.55576 -4.12079 0
M  V30 18600 N 1874.23 1.25549 0.952634 0
M  V30 18601 C 1875.19 1.06186 2.03119 0
M  V30 18602 C 1876.19 0.0139966 1.60794 0
M  V30 18603 O 1877.38 0.256367 1.72303 0
M  V30 18604 C 1874.52 0.612674 3.35349 0
M  V30 18605 H 1875.71 2.01932 2.21729 0
M  V30 18606 H 1873.26 1.07984 1.13 0
M  V30 18607 H 1874 -0.347292 3.22435 0
M  V30 18608 H 1873.78 1.36917 3.67418 0
M  V30 18609 H 1875.27 0.498693 4.14612 0
M  V30 18610 N 1875.71 -1.15554 1.07168 0
M  V30 18611 C 1876.96 -1.85928 0.792151 0
M  V30 18612 C 1877.28 -1.82621 -0.68372 0
M  V30 18613 O 1876.55 -1.26585 -1.49509 0
M  V30 18614 H 1875.13 -0.688393 0.290043 0
M  V30 18615 H 1877.79 -1.40089 1.35503 0
M  V30 18616 H 1876.89 -2.91119 1.125 0
M  V30 18617 N 1877.19 -0.855519 -1.32358 0
M  V30 18618 C 1878.6 -0.513833 -1.7949 0
M  V30 18619 C 1878.95 0.968373 -1.70637 0
M  V30 18620 O 1878.07 1.75541 -1.26547 0
M  V30 18621 C 1878.67 -0.925925 -3.25902 0
M  V30 18622 C 1877.23 -0.636124 -3.70986 0
M  V30 18623 C 1876.38 -1.12519 -2.53446 0
M  V30 18624 H 1879.33 -1.04264 -1.19644 0
M  V30 18625 H 1879.35 -0.242659 -3.79725 0
M  V30 18626 H 1878.86 -2.00473 -3.32313 0
M  V30 18627 H 1876.96 0.431924 -3.70088 0
M  V30 18628 H 1877.07 -1.20302 -4.6375 0
M  V30 18629 H 1875.44 -0.545429 -2.48791 0
M  V30 18630 H 1876.22 -2.21112 -2.62611 0
M  V30 18631 N 1878.67 1.45167 -0.61354 0
M  V30 18632 C 1880.08 1.57166 -0.277678 0
M  V30 18633 C 1880.28 1.60395 1.21965 0
M  V30 18634 O 1879.34 1.53747 2.00295 0
M  V30 18635 C 1880.65 2.85162 -0.9541 0
M  V30 18636 C 1882.2 2.98847 -0.930579 0
M  V30 18637 C 1882.67 4.29621 -1.58712 0
M  V30 18638 N 1884.16 4.36394 -1.55289 0
M  V30 18639 C 1884.9 5.36264 -2.02999 0
M  V30 18640 N 1884.4 6.42638 -2.58821 0
M  V30 18641 N 1886.19 5.27659 -1.93732 0
M  V30 18642 H 1878.34 1.41314 -1.58569 0
M  V30 18643 H 1880.6 0.676027 -0.664598 0
M  V30 18644 H 1880.31 2.88698 -2.00864 0
M  V30 18645 H 1880.18 3.7412 -0.481025 0
M  V30 18646 H 1882.57 2.94874 0.115433 0
M  V30 18647 H 1882.65 2.11283 -1.44198 0
M  V30 18648 H 1882.29 4.34352 -2.6325 0
M  V30 18649 H 1882.22 5.16011 -1.0507 0
M  V30 18650 H 1884.72 3.60131 -1.14516 0
M  V30 18651 H 1885.03 7.151 -2.93004 0
M  V30 18652 H 1883.37 6.43372 -2.62863 0
M  V30 18653 H 1886.56 4.43465 -1.49856 0
M  V30 18654 H 1886.74 6.05341 -2.31227 0
M  V30 18655 N 1880.14 0.353044 1.53595 0
M  V30 18656 C 1881.55 -0.128852 1.86255 0
M  V30 18657 C 1881.91 -1.49209 1.27402 0
M  V30 18658 O 1881.03 -2.08167 0.591222 0
M  V30 18659 C 1881.63 -0.240583 3.37945 0
M  V30 18660 C 1880.18 -0.66672 3.70448 0
M  V30 18661 C 1879.33 0.193757 2.76622 0
M  V30 18662 H 1882.28 0.5723 1.48022 0
M  V30 18663 H 1882.3 -1.06641 3.65251 0
M  V30 18664 H 1881.82 0.75174 3.8075 0
M  V30 18665 H 1879.92 -1.66773 3.33193 0
M  V30 18666 H 1880.03 -0.450026 4.76982 0
M  V30 18667 H 1878.39 -0.335406 2.52482 0
M  V30 18668 H 1879.18 1.18339 3.22259 0
M  V30 18669 N 1881.62 -1.57387 0.0818932 0
M  V30 18670 C 1882.87 -1.93486 -0.583744 0
M  V30 18671 C 1883.19 -0.963466 -1.69536 0
M  V30 18672 O 1882.46 -0.0132866 -1.95895 0
M  V30 18673 H 1881.04 -0.714292 -0.218622 0
M  V30 18674 H 1883.7 -1.94381 0.142124 0
M  V30 18675 H 1882.8 -2.9556 -1.00252 0
M  V30 18676 N 1883.1 0.191729 -1.56429 0
M  V30 18677 C 1884.52 0.542701 -1.5009 0
M  V30 18678 C 1884.72 1.85685 -0.782522 0
M  V30 18679 O 1883.77 2.50275 -0.334432 0
M  V30 18680 C 1885.08 0.594326 -2.94768 0
M  V30 18681 C 1886.63 0.682929 -3.05459 0
M  V30 18682 C 1887.11 0.765634 -4.51555 0
M  V30 18683 N 1888.6 0.829072 -4.5572 0
M  V30 18684 C 1889.33 0.91329 -5.6608 0
M  V30 18685 N 1888.83 0.959603 -6.86122 0
M  V30 18686 N 1890.62 0.950739 -5.54001 0
M  V30 18687 H 1882.77 -0.670241 -2.01548 0
M  V30 18688 H 1885.04 -0.239168 -0.917335 0
M  V30 18689 H 1884.74 -0.302238 -3.50399 0
M  V30 18690 H 1884.62 1.44787 -3.48305 0
M  V30 18691 H 1887 1.56992 -2.49875 0
M  V30 18692 H 1887.08 -0.19688 -2.55041 0
M  V30 18693 H 1886.73 -0.117022 -5.07765 0
M  V30 18694 H 1886.66 1.66129 -4.99709 0
M  V30 18695 H 1889.15 0.802391 -3.69283 0
M  V30 18696 H 1889.46 1.02447 -7.65979 0
M  V30 18697 H 1887.81 0.928223 -6.88774 0
M  V30 18698 H 1891 0.911418 -4.59141 0
M  V30 18699 H 1891.17 1.01291 -6.40034 0
M  V30 18700 N 1884.58 1.50751 0.459565 0
M  V30 18701 C 1885.8 1.66367 1.23842 0
M  V30 18702 C 1886.23 0.351355 1.84789 0
M  V30 18703 O 1885.59 -0.686103 1.67816 0
M  V30 18704 C 1885.63 2.76521 2.31449 0
M  V30 18705 O 1884.74 2.38576 3.36386 0
M  V30 18706 H 1884.08 0.555447 0.363833 0
M  V30 18707 H 1886.61 1.97193 0.545538 0
M  V30 18708 H 1886.62 2.99943 2.76583 0
M  V30 18709 H 1885.29 3.71759 1.86462 0
M  V30 18710 H 1883.87 2.25643 2.96883 0
M  V30 18711 N 1886.06 -0.713531 1.40522 0
M  V30 18712 C 1887.28 -1.50766 1.42423 0
M  V30 18713 C 1887.71 -1.88082 0.0262417 0
M  V30 18714 O 1887.06 -1.5341 -0.966185 0
M  V30 18715 C 1887.11 -2.75813 2.32291 0
M  V30 18716 O 1886.22 -3.726 1.76758 0
M  V30 18717 H 1885.56 -0.454473 0.484098 0
M  V30 18718 H 1888.09 -0.878583 1.84776 0
M  V30 18719 H 1888.1 -3.2432 2.47549 0
M  V30 18720 H 1886.77 -2.47988 3.33878 0
M  V30 18721 H 1885.35 -3.31455 1.70857 0
M  V30 18722 N 1887.53 -1.26053 -0.945962 0
M  V30 18723 C 1888.5 -1.07262 -2.02553 0
M  V30 18724 C 1889.5 -0.0225237 -1.60784 0
M  V30 18725 O 1890.69 -0.265501 -1.72165 0
M  V30 18726 C 1887.82 -0.63045 -3.3502 0
M  V30 18727 H 1889.01 -2.03105 -2.20655 0
M  V30 18728 H 1886.56 -1.08582 -1.12426 0
M  V30 18729 H 1887.3 0.330188 -3.22615 0
M  V30 18730 H 1887.08 -1.38863 -3.66687 0
M  V30 18731 H 1888.57 -0.520674 -4.14341 0
M  V30 18732 N 1889.01 1.14984 -1.07779 0
M  V30 18733 C 1890.42 1.67453 -0.825611 0
M  V30 18734 C 1890.77 1.85168 0.648631 0
M  V30 18735 O 1889.9 1.55817 1.50167 0
M  V30 18736 C 1890.49 3.04172 -1.49214 0
M  V30 18737 C 1889.05 3.53701 -1.28736 0
M  V30 18738 C 1888.2 2.29324 -1.55903 0
M  V30 18739 H 1891.15 0.99138 -1.23925 0
M  V30 18740 H 1891.17 3.69315 -0.915779 0
M  V30 18741 H 1890.68 2.91247 -2.56509 0
M  V30 18742 H 1888.78 3.71859 -0.234821 0
M  V30 18743 H 1888.9 4.34871 -2.01056 0
M  V30 18744 H 1887.26 2.35081 -0.980257 0
M  V30 18745 H 1888.04 2.18982 -2.6439 0
M  V30 18746 N 1890.49 0.862526 1.31902 0
M  V30 18747 C 1891.74 0.470471 1.97267 0
M  V30 18748 C 1892.07 -0.973153 1.68058 0
M  V30 18749 O 1891.34 -1.68411 0.973035 0
M  V30 18750 C 1891.63 0.719362 3.52842 0
M  V30 18751 C 1891.48 2.21198 3.91652 0
M  V30 18752 C 1892.8 0.18092 4.39728 0
M  V30 18753 H 1889.92 0.172408 0.71655 0
M  V30 18754 H 1892.56 1.0824 1.56154 0
M  V30 18755 H 1890.71 0.198516 3.87992 0
M  V30 18756 H 1892.38 2.79951 3.66641 0
M  V30 18757 H 1890.62 2.68744 3.40528 0
M  V30 18758 H 1891.3 2.33679 5.00098 0
M  V30 18759 H 1893.77 0.626421 4.11358 0
M  V30 18760 H 1892.65 0.384575 5.47551 0
M  V30 18761 H 1892.91 -0.916756 4.3249 0
M  V30 18762 N 1891.97 -1.4484 0.62123 0
M  V30 18763 C 1892.9 -2.33374 -0.0766286 0
M  V30 18764 C 1893.88 -1.47631 -0.844932 0
M  V30 18765 O 1895.06 -1.76373 -0.81278 0
M  V30 18766 C 1892.19 -3.30552 -1.0655 0
M  V30 18767 C 1891.15 -4.26037 -0.409496 0
M  V30 18768 C 1890.47 -5.13007 -1.50757 0
M  V30 18769 C 1891.77 -5.17881 0.677994 0
M  V30 18770 H 1893.47 -2.91975 0.662658 0
M  V30 18771 H 1891.01 -1.40397 0.320117 0
M  V30 18772 H 1892.97 -3.91367 -1.56237 0
M  V30 18773 H 1891.69 -2.70139 -1.83555 0
M  V30 18774 H 1890.35 -3.66539 0.0666321 0
M  V30 18775 H 1890 -4.48954 -2.26825 0
M  V30 18776 H 1889.7 -5.777 -1.07407 0
M  V30 18777 H 1891.22 -5.76692 -2.00645 0
M  V30 18778 H 1892.64 -5.72689 0.264637 0
M  V30 18779 H 1891.03 -5.91124 1.03405 0
M  V30 18780 H 1892.1 -4.59488 1.54914 0
M  V30 18781 N 1893.45 -0.361184 -1.53405 0
M  V30 18782 C 1894.38 0.479368 -2.28526 0
M  V30 18783 C 1895.36 1.08768 -1.3078 0
M  V30 18784 O 1896.54 1.10576 -1.59645 0
M  V30 18785 C 1893.67 1.6215 -3.07123 0
M  V30 18786 C 1892.63 1.14065 -4.12521 0
M  V30 18787 C 1891.95 2.37267 -4.79175 0
M  V30 18788 C 1893.25 0.228522 -5.218 0
M  V30 18789 H 1894.95 -0.147344 -2.99037 0
M  V30 18790 H 1892.49 -0.0723051 -1.43818 0
M  V30 18791 H 1894.45 2.21612 -3.58422 0
M  V30 18792 H 1893.17 2.27538 -2.34295 0
M  V30 18793 H 1891.83 0.568735 -3.62162 0
M  V30 18794 H 1891.48 3.01102 -4.02923 0
M  V30 18795 H 1891.18 2.05768 -5.50394 0
M  V30 18796 H 1892.7 2.97424 -5.33265 0
M  V30 18797 H 1894.11 0.730497 -5.68627 0
M  V30 18798 H 1892.51 0.00460259 -6.001 0
M  V30 18799 H 1893.58 -0.730537 -4.79365 0
M  V30 18800 N 1894.92 1.57341 -0.0902386 0
M  V30 18801 C 1896.17 1.94464 0.575461 0
M  V30 18802 C 1896.5 0.971819 1.68135 0
M  V30 18803 O 1895.78 0.00405665 1.945 0
M  V30 18804 C 1896.06 3.41739 1.13518 0
M  V30 18805 C 1895.91 4.49787 0.0346821 0
M  V30 18806 C 1897.23 3.90222 2.03506 0
M  V30 18807 H 1894.35 0.707123 0.207716 0
M  V30 18808 H 1896.99 1.89325 -0.15996 0
M  V30 18809 H 1895.14 3.46249 1.76192 0
M  V30 18810 H 1896.82 4.5739 -0.599326 0
M  V30 18811 H 1895.06 4.29166 -0.632342 0
M  V30 18812 H 1895.73 5.50021 0.467044 0
M  V30 18813 H 1898.21 3.87834 1.50744 0
M  V30 18814 H 1897.08 4.93846 2.39598 0
M  V30 18815 H 1897.34 3.29232 2.95057 0
M  V30 18816 N 1896.4 -0.183431 1.56529 0
M  V30 18817 C 1897.82 -0.534734 1.50375 0
M  V30 18818 C 1898.02 -1.85267 0.792359 0
M  V30 18819 O 1897.07 -2.50095 0.3477 0
M  V30 18820 C 1898.39 -0.578686 2.95079 0
M  V30 18821 C 1899.94 -0.66672 3.05817 0
M  V30 18822 C 1900.41 -0.741676 4.51955 0
M  V30 18823 N 1901.9 -0.804892 4.56153 0
M  V30 18824 C 1902.64 -0.883257 5.66556 0
M  V30 18825 N 1902.13 -0.923203 6.86621 0
M  V30 18826 N 1903.93 -0.921346 5.54498 0
M  V30 18827 H 1896.08 0.68092 2.0119 0
M  V30 18828 H 1898.34 0.244029 0.916053 0
M  V30 18829 H 1898.05 0.320816 3.50234 0
M  V30 18830 H 1897.92 -1.42937 3.49068 0
M  V30 18831 H 1900.31 -1.55665 2.50704 0
M  V30 18832 H 1900.39 0.210402 2.54933 0
M  V30 18833 H 1900.03 0.143948 5.07696 0
M  V30 18834 H 1899.96 -1.63477 5.00583 0
M  V30 18835 H 1902.45 -0.782796 3.69704 0
M  V30 18836 H 1902.77 -0.983835 7.66512 0
M  V30 18837 H 1901.11 -0.891683 6.89256 0
M  V30 18838 H 1904.3 -0.887056 4.59618 0
M  V30 18839 H 1904.47 -0.978957 6.40563 0
M  V30 18840 N 1897.88 -1.50992 -0.451564 0
M  V30 18841 C 1898.84 -1.70703 -1.52949 0
M  V30 18842 C 1899.84 -0.577275 -1.50081 0
M  V30 18843 O 1901.03 -0.844619 -1.52354 0
M  V30 18844 C 1898.17 -1.75035 -2.92533 0
M  V30 18845 H 1899.36 -2.66891 -1.36782 0
M  V30 18846 H 1896.91 -1.40767 -0.679285 0
M  V30 18847 H 1897.65 -0.806096 -3.14122 0
M  V30 18848 H 1897.43 -2.57126 -2.96021 0
M  V30 18849 H 1898.92 -1.92171 -3.70756 0
M  V30 18850 N 1899.36 0.706069 -1.40899 0
M  V30 18851 C 1900.58 1.50008 -1.43221 0
M  V30 18852 C 1901.01 1.88065 -0.0362158 0
M  V30 18853 O 1900.37 1.5392 0.958036 0
M  V30 18854 C 1900.41 2.74578 -2.33751 0
M  V30 18855 O 1899.52 3.71657 -1.78731 0
M  V30 18856 H 1898.86 0.451899 -0.486501 0
M  V30 18857 H 1901.39 0.868772 -1.85239 0
M  V30 18858 H 1901.4 3.23002 -2.49266 0
M  V30 18859 H 1900.07 2.46214 -3.35189 0
M  V30 18860 H 1898.65 3.30544 -1.72612 0
M  V30 18861 N 1900.84 1.26553 0.939264 0
M  V30 18862 C 1901.75 1.10059 2.07181 0
M  V30 18863 C 1902.76 0.033599 1.73968 0
M  V30 18864 O 1903.94 0.237723 1.99992 0
M  V30 18865 C 1901 0.737342 3.38769 0
M  V30 18866 C 1900.06 1.88395 3.85753 0
M  V30 18867 C 1899.3 1.53794 5.11061 0
M  V30 18868 O 1899.52 0.440543 5.68696 0
M  V30 18869 O 1898.45 2.37332 5.53134 0
M  V30 18870 H 1902.28 2.05075 2.24004 0
M  V30 18871 H 1899.87 1.05633 1.05651 0
M  V30 18872 H 1901.75 0.547578 4.17827 0
M  V30 18873 H 1900.42 -0.183404 3.2318 0
M  V30 18874 H 1899.33 2.1287 3.07632 0
M  V30 18875 H 1900.66 2.78449 4.05865 0
M  V30 18876 N 1902.31 -1.14411 1.08387 0
M  V30 18877 C 1903.73 -1.67013 0.83448 0
M  V30 18878 C 1904.08 -1.85509 -0.638802 0
M  V30 18879 O 1903.2 -1.56611 -1.49338 0
M  V30 18880 C 1903.8 -3.03377 1.50825 0
M  V30 18881 C 1902.36 -3.53013 1.3061 0
M  V30 18882 C 1901.5 -2.28494 1.57117 0
M  V30 18883 H 1904.45 -0.984794 1.24449 0
M  V30 18884 H 1904.47 -3.68824 0.935352 0
M  V30 18885 H 1903.99 -2.89883 2.5805 0
M  V30 18886 H 1902.09 -3.7173 0.254538 0
M  V30 18887 H 1902.2 -4.33799 2.0336 0
M  V30 18888 H 1900.56 -2.34558 0.99271 0
M  V30 18889 H 1901.35 -2.17576 2.65547 0
M  V30 18890 N 1903.79 -0.869509 -1.31443 0
M  V30 18891 C 1904.72 -0.340679 -2.31001 0
M  V30 18892 C 1905.7 0.568186 -1.6033 0
M  V30 18893 O 1906.89 0.485305 -1.88038 0
M  V30 18894 C 1904.02 0.45909 -3.44252 0
M  V30 18895 C 1902.97 -0.356639 -4.26512 0
M  V30 18896 C 1902.3 0.568786 -5.31666 0
M  V30 18897 C 1903.6 -1.59045 -4.97496 0
M  V30 18898 H 1905.29 -1.1726 -2.75482 0
M  V30 18899 H 1902.84 -0.5653 -1.3244 0
M  V30 18900 H 1904.79 0.839573 -4.12952 0
M  V30 18901 H 1903.52 1.32451 -2.98537 0
M  V30 18902 H 1902.17 -0.719063 -3.59479 0
M  V30 18903 H 1901.82 1.43148 -4.82201 0
M  V30 18904 H 1901.52 0.0268906 -5.87594 0
M  V30 18905 H 1903.05 0.946122 -6.03225 0
M  V30 18906 H 1904.46 -1.28144 -5.58795 0
M  V30 18907 H 1902.86 -2.07139 -5.63217 0
M  V30 18908 H 1903.93 -2.34354 -4.24507 0
M  V30 18909 N 1905.27 1.44508 -0.628902 0
M  V30 18910 C 1906.52 2.01667 -0.13224 0
M  V30 18911 C 1906.84 1.49706 1.24953 0
M  V30 18912 O 1906.11 0.699769 1.82976 0
M  V30 18913 H 1904.69 0.745589 -0.0458966 0
M  V30 18914 H 1907.35 1.77037 -0.815102 0
M  V30 18915 H 1906.45 3.11945 -0.0982328 0
M  V30 18916 N 1906.75 0.369315 1.53212 0
M  V30 18917 C 1908.03 -0.275781 1.93646 0
M  V30 18918 C 1908.41 -1.66075 1.30316 0
M  V30 18919 O 1907.75 -2.23746 0.463658 0
M  V30 18920 C 1907.96 -0.322239 3.47509 0
M  V30 18921 C 1909.31 -0.560798 4.2088 0
M  V30 18922 O 1910.34 -0.403291 3.5391 0
M  V30 18923 O 1909.2 -0.86778 5.39566 0
M  V30 18924 H 1906.29 -0.166296 0.810108 0
M  V30 18925 H 1908.84 0.42237 1.6436 0
M  V30 18926 H 1907.61 0.648648 3.85886 0
M  V30 18927 H 1907.23 -1.06613 3.8304 0
M  V30 18928 N 1908.23 -1.57291 0.0985816 0
M  V30 18929 C 1909.47 -1.95568 -0.558993 0
M  V30 18930 C 1909.83 -0.979923 -1.65576 0
M  V30 18931 O 1909.12 -0.00649322 -1.91599 0
M  V30 18932 C 1909.32 -3.38184 -1.15613 0
M  V30 18933 C 1909.14 -4.49543 -0.11874 0
M  V30 18934 C 1907.91 -5.04373 0.305987 0
M  V30 18935 C 1910.11 -5.10119 0.65443 0
M  V30 18936 N 1908.09 -5.99291 1.33128 0
M  V30 18937 C 1909.47 -6.00788 1.53146 0
M  V30 18938 C 1911.52 -4.92847 0.707565 0
M  V30 18939 C 1910.22 -6.76037 2.45695 0
M  V30 18940 C 1912.25 -5.6876 1.62068 0
M  V30 18941 C 1911.61 -6.59099 2.48533 0
M  V30 18942 H 1907.71 -0.762218 -0.17478 0
M  V30 18943 H 1910.29 -1.93848 0.181959 0
M  V30 18944 H 1908.47 -3.40591 -1.86688 0
M  V30 18945 H 1910.2 -3.63632 -1.77635 0
M  V30 18946 H 1906.95 -4.73528 -0.0824372 0
M  V30 18947 H 1907.38 -6.51453 1.84223 0
M  V30 18948 H 1912.02 -4.22766 0.0532402 0
M  V30 18949 H 1909.74 -7.45377 3.12151 0
M  V30 18950 H 1913.32 -5.57408 1.66697 0
M  V30 18951 H 1912.2 -7.16812 3.18041 0
M  V30 18952 N 1909.71 0.175127 -1.56624 0
M  V30 18953 C 1910.64 1.24137 -1.92672 0
M  V30 18954 C 1911.65 1.40675 -0.819417 0
M  V30 18955 O 1912.84 1.40746 -1.09786 0
M  V30 18956 C 1909.94 2.61063 -2.161 0
M  V30 18957 C 1909.11 2.65874 -3.47318 0
M  V30 18958 C 1908.17 3.84136 -3.59619 0
M  V30 18959 O 1907.2 3.70311 -4.32271 0
M  V30 18960 N 1908.4 5.00435 -2.94186 0
M  V30 18961 H 1911.16 0.935217 -2.84735 0
M  V30 18962 H 1908.73 0.364919 -1.57734 0
M  V30 18963 H 1910.72 3.38639 -2.21597 0
M  V30 18964 H 1909.29 2.84085 -1.3044 0
M  V30 18965 H 1908.51 1.74422 -3.53512 0
M  V30 18966 H 1909.8 2.66096 -4.33671 0
M  V30 18967 H 1909.19 5.14568 -2.35024 0
M  V30 18968 H 1907.75 5.75886 -3.05284 0
M  V30 18969 N 1911.18 1.5123 0.44355 0
M  V30 18970 C 1912.09 1.74928 1.56324 0
M  V30 18971 C 1913.11 0.633267 1.62067 0
M  V30 18972 O 1914.29 0.914808 1.79425 0
M  V30 18973 C 1911.35 1.86361 2.92354 0
M  V30 18974 C 1910.41 3.10196 2.96778 0
M  V30 18975 C 1909.64 3.21073 4.26319 0
M  V30 18976 O 1909.87 2.38043 5.18355 0
M  V30 18977 O 1908.8 4.14008 4.369 0
M  V30 18978 H 1912.63 2.69898 1.39243 0
M  V30 18979 H 1910.21 1.35656 0.62592 0
M  V30 18980 H 1912.09 1.95901 3.73096 0
M  V30 18981 H 1910.77 0.945775 3.09575 0
M  V30 18982 H 1909.68 3.06138 2.15013 0
M  V30 18983 H 1911.01 4.01648 2.84499 0
M  V30 18984 N 1912.66 -0.698586 1.41271 0
M  V30 18985 C 1913.57 -1.8424 1.45234 0
M  V30 18986 C 1914.59 -1.70581 0.343225 0
M  V30 18987 O 1915.76 -1.9255 0.590477 0
M  V30 18988 C 1912.83 -3.20195 1.32951 0
M  V30 18989 C 1911.89 -3.45984 2.54152 0
M  V30 18990 C 1911.12 -4.75453 2.42446 0
M  V30 18991 O 1911.35 -5.5173 1.44741 0
M  V30 18992 O 1910.28 -5.01958 3.32147 0
M  V30 18993 H 1914.11 -1.83853 2.41727 0
M  V30 18994 H 1911.69 -0.851252 1.22776 0
M  V30 18995 H 1913.57 -4.0137 1.28374 0
M  V30 18996 H 1912.25 -3.21272 0.395728 0
M  V30 18997 H 1911.15 -2.64751 2.64306 0
M  V30 18998 H 1912.49 -3.49718 3.46349 0
M  V30 18999 N 1914.14 -1.27049 -0.93254 0
M  V30 19000 C 1915.56 -1.04349 -1.20762 0
M  V30 19001 C 1915.76 0.225981 -2.00229 0
M  V30 19002 O 1914.81 0.932788 -2.34639 0
M  V30 19003 C 1916.12 -2.28004 -1.96048 0
M  V30 19004 C 1917.67 -2.32993 -2.09006 0
M  V30 19005 C 1918.15 -3.56364 -2.87696 0
M  V30 19006 N 1919.64 -3.56892 -2.95266 0
M  V30 19007 C 1920.37 -4.49022 -3.56604 0
M  V30 19008 N 1919.87 -5.51451 -4.19374 0
M  V30 19009 N 1921.66 -4.36656 -3.53961 0
M  V30 19010 H 1913.81 -2.0857 -0.401516 0
M  V30 19011 H 1916.08 -0.917061 -0.240213 0
M  V30 19012 H 1915.78 -3.20386 -1.45072 0
M  V30 19013 H 1915.66 -2.32937 -2.96682 0
M  V30 19014 H 1918.04 -1.41119 -2.5917 0
M  V30 19015 H 1918.12 -2.32065 -1.07607 0
M  V30 19016 H 1917.77 -4.48571 -2.38216 0
M  V30 19017 H 1917.7 -3.54541 -3.89369 0
M  V30 19018 H 1920.19 -2.82812 -2.5065 0
M  V30 19019 H 1920.5 -6.17924 -4.64101 0
M  V30 19020 H 1918.85 -5.55298 -4.17934 0
M  V30 19021 H 1922.04 -3.55848 -3.04122 0
M  V30 19022 H 1922.21 -5.08647 -4.01475 0
M  V30 19023 N 1915.62 1.13835 -1.08993 0
M  V30 19024 C 1916.87 1.84645 -0.82163 0
M  V30 19025 C 1917.19 1.83685 0.65458 0
M  V30 19026 O 1916.46 1.28948 1.47477 0
M  V30 19027 H 1915.04 0.683691 -0.300958 0
M  V30 19028 H 1917.7 1.37915 -1.37715 0
M  V30 19029 H 1916.79 2.89292 -1.17117 0
M  V30 19030 N 1917.1 0.876467 1.3098 0
M  V30 19031 C 1918.37 0.411051 1.91232 0
M  V30 19032 C 1918.75 -1.10748 1.79717 0
M  V30 19033 O 1918.1 -1.93898 1.20896 0
M  V30 19034 C 1918.31 0.899663 3.37205 0
M  V30 19035 C 1919.66 0.929615 4.14299 0
M  V30 19036 O 1920.68 0.845752 3.46014 0
M  V30 19037 O 1919.54 1.05211 5.36277 0
M  V30 19038 H 1916.64 0.12418 0.817624 0
M  V30 19039 H 1919.18 0.964808 1.39605 0
M  V30 19040 H 1917.95 1.94336 3.39631 0
M  V30 19041 H 1917.58 0.324585 3.96273 0
M  V30 19042 N 1918.57 -1.44173 0.636557 0
M  V30 19043 C 1919.82 -2.02832 0.151967 0
M  V30 19044 C 1920.17 -1.49215 -1.2146 0
M  V30 19045 O 1919.47 -0.66882 -1.79548 0
M  V30 19046 C 1919.66 -3.57299 0.0849933 0
M  V30 19047 C 1919.49 -4.25902 1.44353 0
M  V30 19048 C 1918.26 -4.62656 2.03169 0
M  V30 19049 C 1920.46 -4.55995 2.3785 0
M  V30 19050 N 1918.44 -5.16251 3.32201 0
M  V30 19051 C 1919.81 -5.10732 3.51501 0
M  V30 19052 C 1921.87 -4.37951 2.36861 0
M  V30 19053 C 1920.57 -5.49324 4.64366 0
M  V30 19054 C 1922.6 -4.77594 3.48794 0
M  V30 19055 C 1921.96 -5.32449 4.61169 0
M  V30 19056 H 1918.06 -0.775624 0.0996548 0
M  V30 19057 H 1920.64 -1.75589 0.841234 0
M  V30 19058 H 1918.81 -3.84142 -0.573568 0
M  V30 19059 H 1920.54 -4.02629 -0.408925 0
M  V30 19060 H 1917.3 -4.47151 1.56055 0
M  V30 19061 H 1917.72 -5.4752 3.98185 0
M  V30 19062 H 1922.36 -3.94829 1.51227 0
M  V30 19063 H 1920.08 -5.91397 5.50704 0
M  V30 19064 H 1923.67 -4.65341 3.49211 0
M  V30 19065 H 1922.55 -5.62558 5.4635 0
M  V30 19066 N 1920.05 -0.377435 -1.53014 0
M  V30 19067 C 1921.47 -0.0268747 -1.59577 0
M  V30 19068 C 1921.67 1.45688 -1.39202 0
M  V30 19069 O 1920.72 2.21996 -1.20309 0
M  V30 19070 C 1922.04 -0.493431 -2.96624 0
M  V30 19071 C 1923.58 -0.448667 -3.09768 0
M  V30 19072 C 1924.06 -0.891223 -4.49245 0
M  V30 19073 N 1925.55 -0.846756 -4.55395 0
M  V30 19074 C 1926.29 -1.16074 -5.61529 0
M  V30 19075 N 1925.78 -1.5446 -6.75362 0
M  V30 19076 N 1927.57 -1.08276 -5.51573 0
M  V30 19077 H 1919.73 -1.34353 -1.64508 0
M  V30 19078 H 1921.99 -0.549926 -0.772195 0
M  V30 19079 H 1921.69 -1.52927 -3.16712 0
M  V30 19080 H 1921.57 0.113748 -3.77028 0
M  V30 19081 H 1923.96 0.578058 -2.89383 0
M  V30 19082 H 1924.04 -1.0915 -2.31344 0
M  V30 19083 H 1923.68 -1.91612 -4.70369 0
M  V30 19084 H 1923.61 -0.225524 -5.26117 0
M  V30 19085 H 1926.1 -0.564127 -3.73666 0
M  V30 19086 H 1926.41 -1.76813 -7.52301 0
M  V30 19087 H 1924.76 -1.58336 -6.76724 0
M  V30 19088 H 1927.95 -0.781974 -4.61522 0
M  V30 19089 H 1928.12 -1.33078 -6.34188 0
M  V30 19090 N 1921.53 1.57237 -0.106922 0
M  V30 19091 C 1922.49 2.13515 0.833317 0
M  V30 19092 C 1923.49 1.06715 1.20285 0
M  V30 19093 O 1924.68 1.32548 1.13034 0
M  V30 19094 C 1921.82 2.66546 2.12523 0
M  V30 19095 H 1923.01 2.97916 0.344435 0
M  V30 19096 H 1920.56 1.55652 0.142199 0
M  V30 19097 H 1921.3 1.85699 2.65869 0
M  V30 19098 H 1921.08 3.44643 1.86985 0
M  V30 19099 H 1922.57 3.10039 2.7976 0
M  V30 19100 N 1923.01 -0.166818 1.56715 0
M  V30 19101 C 1923.96 -1.2112 1.93168 0
M  V30 19102 C 1924.94 -1.39572 0.800525 0
M  V30 19103 O 1926.13 -1.41467 1.06377 0
M  V30 19104 C 1923.26 -2.54958 2.29894 0
M  V30 19105 C 1922.35 -2.40181 3.49534 0
M  V30 19106 N 1922.74 -1.95125 4.66647 0
M  V30 19107 C 1921.04 -2.70994 3.54229 0
M  V30 19108 C 1921.74 -1.92918 5.48778 0
M  V30 19109 N 1920.72 -2.35491 4.89944 0
M  V30 19110 H 1924.52 -0.854619 2.812 0
M  V30 19111 H 1922.03 -0.375053 1.5801 0
M  V30 19112 H 1924.03 -3.30431 2.54206 0
M  V30 19113 H 1922.69 -2.91415 1.43203 0
M  V30 19114 H 1923.7 -1.65393 4.9078 0
M  V30 19115 H 1920.38 -3.11458 2.78029 0
M  V30 19116 H 1921.77 -1.59744 6.52634 0
M  V30 19117 N 1924.49 -1.51463 -0.435524 0
M  V30 19118 C 1925.73 -1.65426 -1.18347 0
M  V30 19119 C 1926.09 -0.366774 -1.88872 0
M  V30 19120 O 1925.38 0.637507 -1.80683 0
M  V30 19121 C 1925.57 -2.79695 -2.22498 0
M  V30 19122 C 1925.4 -4.19431 -1.62196 0
M  V30 19123 C 1924.17 -4.85342 -1.40609 0
M  V30 19124 C 1926.37 -5.0246 -1.0972 0
M  V30 19125 N 1924.35 -6.09187 -0.759235 0
M  V30 19126 C 1925.72 -6.17321 -0.575716 0
M  V30 19127 C 1927.78 -4.87976 -0.989133 0
M  V30 19128 C 1926.48 -7.19287 0.0432192 0
M  V30 19129 C 1928.51 -5.90151 -0.384089 0
M  V30 19130 C 1927.87 -7.04286 0.126845 0
M  V30 19131 H 1923.97 -0.659213 -0.420669 0
M  V30 19132 H 1926.55 -1.88696 -0.479793 0
M  V30 19133 H 1924.72 -2.58086 -2.90252 0
M  V30 19134 H 1926.46 -2.82829 -2.89464 0
M  V30 19135 H 1923.21 -4.43242 -1.66833 0
M  V30 19136 H 1923.64 -6.75481 -0.453193 0
M  V30 19137 H 1928.28 -3.99988 -1.37002 0
M  V30 19138 H 1926 -8.06922 0.436231 0
M  V30 19139 H 1929.58 -5.81014 -0.30235 0
M  V30 19140 H 1928.46 -7.81995 0.587666 0
M  V30 19141 N 1925.96 0.691085 -1.4164 0
M  V30 19142 C 1927.24 1.44595 -1.31726 0
M  V30 19143 C 1927.62 2.11033 0.0530624 0
M  V30 19144 O 1926.97 2.02027 1.06759 0
M  V30 19145 C 1927.18 2.46172 -2.47387 0
M  V30 19146 C 1928.53 3.11293 -2.88759 0
M  V30 19147 O 1929.55 2.56497 -2.47159 0
M  V30 19148 O 1928.41 4.10551 -3.60707 0
M  V30 19149 H 1925.5 0.644163 -0.518635 0
M  V30 19150 H 1928.05 0.721184 -1.53613 0
M  V30 19151 H 1926.82 1.95764 -3.3881 0
M  V30 19152 H 1926.45 3.26151 -2.27401 0
M  V30 19153 N 1927.44 1.27542 0.925789 0
M  V30 19154 C 1928.37 1.12952 2.04363 0
M  V30 19155 C 1929.35 0.0304761 1.70073 0
M  V30 19156 O 1930.54 0.205307 1.93112 0
M  V30 19157 C 1927.67 0.777954 3.38475 0
M  V30 19158 C 1926.62 1.83044 3.86883 0
M  V30 19159 C 1925.95 1.3328 5.17823 0
M  V30 19160 C 1927.25 3.23488 4.10065 0
M  V30 19161 H 1928.94 2.06462 2.16827 0
M  V30 19162 H 1926.49 0.994046 1.04186 0
M  V30 19163 H 1928.44 0.662702 4.16156 0
M  V30 19164 H 1927.17 -0.192851 3.2603 0
M  V30 19165 H 1925.82 1.93463 3.11396 0
M  V30 19166 H 1925.47 0.351399 5.01771 0
M  V30 19167 H 1925.17 2.03648 5.51182 0
M  V30 19168 H 1926.7 1.23053 5.98072 0
M  V30 19169 H 1928.11 3.16058 4.7831 0
M  V30 19170 H 1926.51 3.91583 4.54734 0
M  V30 19171 H 1927.58 3.68399 3.15293 0
M  V30 19172 N 1928.92 -1.13255 1.09595 0
M  V30 19173 C 1930.33 -1.66118 0.852147 0
M  V30 19174 C 1930.68 -1.86177 -0.61909 0
M  V30 19175 O 1929.81 -1.58186 -1.47669 0
M  V30 19176 C 1930.4 -3.0176 1.54034 0
M  V30 19177 C 1928.96 -3.51608 1.34347 0
M  V30 19178 C 1928.11 -2.26815 1.59531 0
M  V30 19179 H 1931.06 -0.971539 1.25486 0
M  V30 19180 H 1931.08 -3.67812 0.974418 0
M  V30 19181 H 1930.59 -2.87129 2.6111 0
M  V30 19182 H 1928.69 -3.71439 0.293951 0
M  V30 19183 H 1928.81 -4.31618 2.07949 0
M  V30 19184 H 1927.17 -2.33492 1.01753 0
M  V30 19185 H 1927.95 -2.14748 2.6784 0
M  V30 19186 N 1930.4 -0.883401 -1.30514 0
M  V30 19187 C 1931.35 -0.320484 -2.25736 0
M  V30 19188 C 1932.33 0.550165 -1.51202 0
M  V30 19189 O 1933.52 0.394846 -1.7254 0
M  V30 19190 C 1930.65 0.465347 -3.40131 0
M  V30 19191 C 1929.74 -0.419301 -4.22022 0
M  V30 19192 N 1930.13 -1.51903 -4.82451 0
M  V30 19193 C 1928.43 -0.214132 -4.45486 0
M  V30 19194 C 1929.13 -2.06567 -5.43788 0
M  V30 19195 N 1928.11 -1.36084 -5.26291 0
M  V30 19196 H 1931.91 -1.1608 -2.70005 0
M  V30 19197 H 1929.42 -0.732634 -1.44935 0
M  V30 19198 H 1931.42 0.885249 -4.07393 0
M  V30 19199 H 1930.08 1.30312 -2.97403 0
M  V30 19200 H 1931.09 -1.90189 -4.81714 0
M  V30 19201 H 1927.77 0.586602 -4.13358 0
M  V30 19202 H 1929.16 -2.98909 -6.0175 0
M  V30 19203 N 1931.88 1.43833 -0.644194 0
M  V30 19204 C 1933.1 2.0627 -0.161397 0
M  V30 19205 C 1933.52 1.4823 1.16933 0
M  V30 19206 O 1932.88 0.610133 1.71999 0
M  V30 19207 C 1932.93 3.61459 -0.0545357 0
M  V30 19208 O 1932.65 4.17339 -1.33265 0
M  V30 19209 C 1934.15 4.40955 0.455411 0
M  V30 19210 H 1931.37 0.665503 -0.0857112 0
M  V30 19211 H 1933.91 1.84488 -0.882291 0
M  V30 19212 H 1932.07 3.82457 0.616868 0
M  V30 19213 H 1932.48 5.10916 -1.18597 0
M  V30 19214 H 1933.96 5.49916 0.479159 0
M  V30 19215 H 1934.43 4.13333 1.485 0
M  V30 19216 H 1935.04 4.24905 -0.18319 0
M  V30 19217 N 1933.35 0.385544 1.52811 0
M  V30 19218 C 1934.6 -0.198138 2.0183 0
M  V30 19219 C 1934.93 -1.46774 1.27165 0
M  V30 19220 O 1934.21 -1.90928 0.371034 0
M  V30 19221 C 1934.49 -0.469873 3.57021 0
M  V30 19222 C 1934.34 0.814756 4.42359 0
M  V30 19223 C 1935.66 -1.26209 4.21615 0
M  V30 19224 H 1932.78 -0.0705386 0.733617 0
M  V30 19225 H 1935.42 0.514372 1.82905 0
M  V30 19226 H 1933.57 -1.07684 3.73278 0
M  V30 19227 H 1935.25 1.45172 4.37862 0
M  V30 19228 H 1933.49 1.43088 4.09522 0
M  V30 19229 H 1934.16 0.57932 5.48952 0
M  V30 19230 H 1936.64 -0.748451 4.09313 0
M  V30 19231 H 1935.51 -1.42096 5.30188 0
M  V30 19232 H 1935.77 -2.27624 3.78998 0
M  V30 19233 N 1934.83 -1.57178 0.115259 0
M  V30 19234 C 1935.8 -2.13953 -0.821982 0
M  V30 19235 C 1936.8 -1.07352 -1.19717 0
M  V30 19236 O 1937.99 -1.33146 -1.12329 0
M  V30 19237 C 1935.12 -2.6767 -2.11106 0
M  V30 19238 H 1936.31 -2.98094 -0.328631 0
M  V30 19239 H 1933.86 -1.55725 -0.133942 0
M  V30 19240 H 1934.6 -1.87106 -2.6488 0
M  V30 19241 H 1934.38 -3.4563 -1.85155 0
M  V30 19242 H 1935.87 -3.11519 -2.78111 0
M  V30 19243 N 1936.31 0.158505 -1.56801 0
M  V30 19244 C 1937.59 0.901061 -1.73609 0
M  V30 19245 C 1937.97 1.99842 -0.680163 0
M  V30 19246 O 1937.32 2.26484 0.302892 0
M  V30 19247 C 1937.53 1.45407 -3.17266 0
M  V30 19248 C 1938.87 1.92199 -3.78609 0
M  V30 19249 O 1939.9 1.55173 -3.20624 0
M  V30 19250 O 1938.76 2.60443 -4.80449 0
M  V30 19251 H 1935.85 0.425009 -0.709434 0
M  V30 19252 H 1938.4 0.14533 -1.69077 0
M  V30 19253 H 1937.17 0.664882 -3.8561 0
M  V30 19254 H 1936.79 2.27363 -3.26178 0
M  V30 19255 N 1937.79 1.51692 0.427485 0
M  V30 19256 C 1939.04 1.65091 1.17782 0
M  V30 19257 C 1939.37 0.370783 1.90627 0
M  V30 19258 O 1938.64 -0.630065 1.84012 0
M  V30 19259 C 1938.93 2.86083 2.18697 0
M  V30 19260 C 1938.78 4.24098 1.4987 0
M  V30 19261 C 1940.1 3.0259 3.19573 0
M  V30 19262 H 1937.22 0.600817 0.426835 0
M  V30 19263 H 1939.86 1.84202 0.46581 0
M  V30 19264 H 1938.01 2.6992 2.79419 0
M  V30 19265 H 1939.68 4.51949 0.924093 0
M  V30 19266 H 1937.92 4.26343 0.800894 0
M  V30 19267 H 1938.6 5.04768 2.23413 0
M  V30 19268 H 1941.07 3.17529 2.68914 0
M  V30 19269 H 1939.95 3.88794 3.87467 0
M  V30 19270 H 1940.21 2.15093 3.86248 0
M  V30 19271 N 1939.27 -0.683564 1.42004 0
M  V30 19272 C 1940.68 -1.26389 1.37414 0
M  V30 19273 C 1941.03 -1.96099 0.0630958 0
M  V30 19274 O 1940.15 -1.995 -0.838385 0
M  V30 19275 C 1940.75 -2.29854 2.48903 0
M  V30 19276 C 1939.31 -2.83435 2.47673 0
M  V30 19277 C 1938.46 -1.57634 2.28138 0
M  V30 19278 H 1941.41 -0.477522 1.51345 0
M  V30 19279 H 1941.43 -3.11404 2.18651 0
M  V30 19280 H 1940.94 -1.7909 3.44309 0
M  V30 19281 H 1939.04 -3.38344 1.56059 0
M  V30 19282 H 1939.15 -3.33048 3.44407 0
M  V30 19283 H 1937.52 -1.83883 1.76236 0
M  V30 19284 H 1938.3 -1.08848 3.25587 0
M  V30 19285 N 1940.75 -1.28031 -0.919012 0
M  V30 19286 C 1941.99 -1.14651 -1.66432 0
M  V30 19287 C 1942.31 0.306395 -1.92578 0
M  V30 19288 O 1941.58 1.2131 -1.5382 0
M  V30 19289 H 1940.16 -0.421307 -0.616854 0
M  V30 19290 H 1942.83 -1.60684 -1.10302 0
M  V30 19291 H 1941.92 -1.68214 -2.62888 0
M  V30 19292 N 1942.22 1.12672 -1.10194 0
M  V30 19293 C 1943.5 1.80442 -0.75499 0
M  V30 19294 C 1943.88 1.96988 0.758887 0
M  V30 19295 O 1943.23 1.54424 1.6842 0
M  V30 19296 C 1943.44 3.14969 -1.50317 0
M  V30 19297 C 1944.79 3.90205 -1.67409 0
M  V30 19298 O 1945.81 3.24618 -1.46634 0
M  V30 19299 O 1944.67 5.07864 -2.01833 0
M  V30 19300 H 1941.76 0.780952 -0.272109 0
M  V30 19301 H 1944.31 1.1953 -1.20461 0
M  V30 19302 H 1943.08 2.98202 -2.5336 0
M  V30 19303 H 1942.7 3.83587 -1.04625 0
M  V30 19304 N 1943.7 0.89031 1.30043 0
M  V30 19305 C 1944.65 0.332451 2.25563 0
M  V30 19306 C 1945.64 -0.542139 1.51491 0
M  V30 19307 O 1946.83 -0.38569 1.72747 0
M  V30 19308 C 1943.96 -0.447303 3.40373 0
M  V30 19309 C 1943.04 0.441676 4.21794 0
M  V30 19310 N 1943.43 1.54459 4.81639 0
M  V30 19311 C 1941.73 0.237754 4.45366 0
M  V30 19312 C 1942.43 2.09448 5.42685 0
M  V30 19313 N 1941.41 1.38873 5.25562 0
M  V30 19314 H 1945.21 1.17511 2.69385 0
M  V30 19315 H 1942.72 0.74031 1.44545 0
M  V30 19316 H 1944.72 -0.863632 4.07857 0
M  V30 19317 H 1943.38 -1.28733 2.9809 0
M  V30 19318 H 1944.39 1.92741 4.80699 0
M  V30 19319 H 1941.07 -0.564672 4.13664 0
M  V30 19320 H 1942.46 3.02096 6.00156 0
M  V30 19321 N 1945.18 -1.43489 0.651812 0
M  V30 19322 C 1946.43 -2.0183 0.164632 0
M  V30 19323 C 1946.75 -1.51408 -1.2209 0
M  V30 19324 O 1946.01 -0.697062 -1.82865 0
M  V30 19325 C 1946.31 -3.57189 0.122885 0
M  V30 19326 C 1945.97 -4.2695 1.44997 0
M  V30 19327 C 1944.64 -4.45724 1.81339 0
M  V30 19328 C 1946.99 -4.66468 2.32501 0
M  V30 19329 C 1944.32 -5.0128 3.04853 0
M  V30 19330 C 1946.67 -5.23393 3.55306 0
M  V30 19331 C 1945.33 -5.40383 3.91845 0
M  V30 19332 H 1944.6 -0.738547 0.0602433 0
M  V30 19333 H 1947.25 -1.71984 0.842241 0
M  V30 19334 H 1945.55 -3.86568 -0.638169 0
M  V30 19335 H 1947.25 -4.00084 -0.270911 0
M  V30 19336 H 1943.84 -4.12682 1.15721 0
M  V30 19337 H 1948.03 -4.51658 2.05715 0
M  V30 19338 H 1943.28 -5.1262 3.33213 0
M  V30 19339 H 1947.46 -5.52961 4.23329 0
M  V30 19340 H 1945.08 -5.83197 4.87632 0
M  V30 19341 N 1946.66 -0.393643 -1.52605 0
M  V30 19342 C 1947.89 0.1871 -2.06052 0
M  V30 19343 C 1948.3 1.40154 -1.26501 0
M  V30 19344 O 1947.66 1.798 -0.31279 0
M  V30 19345 C 1947.71 0.552918 -3.57246 0
M  V30 19346 O 1947.43 -0.613274 -4.33786 0
M  V30 19347 C 1948.93 1.18906 -4.27055 0
M  V30 19348 H 1946.15 0.0272042 -0.670448 0
M  V30 19349 H 1948.69 -0.560126 -1.9668 0
M  V30 19350 H 1946.85 1.25004 -3.66678 0
M  V30 19351 H 1947.26 -0.311611 -5.23574 0
M  V30 19352 H 1948.74 1.39535 -5.34073 0
M  V30 19353 H 1949.21 2.15768 -3.82545 0
M  V30 19354 H 1949.82 0.532579 -4.21952 0
M  V30 19355 N 1948.14 1.57115 -0.123593 0
M  V30 19356 C 1949.07 2.11281 0.862306 0
M  V30 19357 C 1950.05 1.03036 1.25787 0
M  V30 19358 O 1951.23 1.3072 1.35811 0
M  V30 19359 C 1948.36 2.61329 2.15464 0
M  V30 19360 C 1947.4 3.81502 1.90679 0
M  V30 19361 S 1948.24 5.2368 1.11891 0
M  V30 19362 C 1949.39 5.771 2.42294 0
M  V30 19363 H 1949.63 2.94575 0.401603 0
M  V30 19364 H 1947.16 1.54136 0.0902687 0
M  V30 19365 H 1949.12 2.90818 2.89715 0
M  V30 19366 H 1947.78 1.78208 2.58651 0
M  V30 19367 H 1946.97 4.14685 2.86448 0
M  V30 19368 H 1946.57 3.52653 1.24547 0
M  V30 19369 H 1948.86 5.87105 3.38104 0
M  V30 19370 H 1949.81 6.751 2.13649 0
M  V30 19371 H 1950.22 5.05194 2.51871 0
M  V30 19372 N 1949.61 -0.150187 1.56883 0
M  V30 19373 C 1950.55 -1.21495 1.93169 0
M  V30 19374 C 1951.52 -1.41721 0.797116 0
M  V30 19375 O 1952.71 -1.56385 1.05243 0
M  V30 19376 C 1949.84 -2.5744 2.20096 0
M  V30 19377 C 1948.88 -2.53828 3.42744 0
M  V30 19378 S 1949.71 -2.00835 4.96413 0
M  V30 19379 C 1950.87 -3.38515 5.26458 0
M  V30 19380 H 1951.1 -0.905357 2.83179 0
M  V30 19381 H 1948.64 -0.355666 1.50248 0
M  V30 19382 H 1950.59 -3.35675 2.3629 0
M  V30 19383 H 1949.26 -2.85591 1.30755 0
M  V30 19384 H 1948.45 -3.53894 3.58852 0
M  V30 19385 H 1948.05 -1.837 3.25776 0
M  V30 19386 H 1950.34 -4.34611 5.19731 0
M  V30 19387 H 1951.29 -3.27263 6.27937 0
M  V30 19388 H 1951.69 -3.35503 4.5398 0
M  V30 19389 N 1951.09 -1.51916 -0.419434 0
M  V30 19390 C 1952.51 -1.4049 -0.757287 0
M  V30 19391 C 1952.71 -0.501274 -1.95165 0
M  V30 19392 O 1951.76 0.0368349 -2.52473 0
M  V30 19393 C 1953.08 -2.8284 -1.02088 0
M  V30 19394 C 1954.63 -2.92113 -1.12422 0
M  V30 19395 C 1955.1 -4.3541 -1.42064 0
M  V30 19396 N 1956.59 -4.38598 -1.4895 0
M  V30 19397 C 1957.33 -5.46524 -1.73492 0
M  V30 19398 N 1956.82 -6.64583 -1.95706 0
M  V30 19399 N 1958.62 -5.34026 -1.75422 0
M  V30 19400 H 1950.77 -2.09207 0.366909 0
M  V30 19401 H 1953.03 -0.942516 0.101822 0
M  V30 19402 H 1952.74 -3.51038 -0.215755 0
M  V30 19403 H 1952.61 -3.23259 -1.9438 0
M  V30 19404 H 1955 -2.24103 -1.91994 0
M  V30 19405 H 1955.08 -2.55167 -0.179896 0
M  V30 19406 H 1954.72 -5.03976 -0.630123 0
M  V30 19407 H 1954.65 -4.69884 -2.37731 0
M  V30 19408 H 1957.14 -3.53491 -1.33614 0
M  V30 19409 H 1957.46 -7.42621 -2.13854 0
M  V30 19410 H 1955.8 -6.67667 -1.92992 0
M  V30 19411 H 1958.99 -4.40773 -1.57598 0
M  V30 19412 H 1959.16 -6.18212 -1.9421 0
M  V30 19413 N 1952.57 0.676023 -1.42365 0
M  V30 19414 C 1953.85 1.43189 -1.33252 0
M  V30 19415 C 1954.23 2.11078 0.0306765 0
M  V30 19416 O 1953.58 2.03148 1.0461 0
M  V30 19417 C 1953.79 2.43534 -2.49984 0
M  V30 19418 C 1955.13 3.08213 -2.92044 0
M  V30 19419 O 1956.16 2.53861 -2.49866 0
M  V30 19420 O 1955.02 4.06702 -3.65042 0
M  V30 19421 H 1952.11 0.638626 -0.525438 0
M  V30 19422 H 1954.66 0.704851 -1.5437 0
M  V30 19423 H 1953.43 1.92159 -3.40867 0
M  V30 19424 H 1953.05 3.23721 -2.30847 0
M  V30 19425 N 1954.05 1.28517 0.912209 0
M  V30 19426 C 1955 1.09214 2.00141 0
M  V30 19427 C 1955.98 0.015324 1.60893 0
M  V30 19428 O 1957.17 0.235636 1.75425 0
M  V30 19429 C 1954.3 0.757636 3.34835 0
M  V30 19430 C 1953.39 1.87337 3.80481 0
M  V30 19431 N 1953.78 3.11521 3.98483 0
M  V30 19432 C 1952.08 1.76357 4.09651 0
M  V30 19433 C 1952.78 3.8423 4.3674 0
M  V30 19434 N 1951.76 3.12089 4.45086 0
M  V30 19435 H 1955.56 2.03436 2.12111 0
M  V30 19436 H 1953.07 1.19458 1.10016 0
M  V30 19437 H 1955.07 0.600426 4.12554 0
M  V30 19438 H 1953.73 -0.176796 3.24218 0
M  V30 19439 H 1954.74 3.47114 3.84359 0
M  V30 19440 H 1951.42 0.901018 4.07662 0
M  V30 19441 H 1952.81 4.91039 4.58618 0
M  V30 19442 N 1955.53 -1.12086 1.1079 0
M  V30 19443 C 1956.49 -2.16111 0.763446 0
M  V30 19444 C 1957.49 -1.59371 -0.213903 0
M  V30 19445 O 1958.68 -1.74197 0.00972099 0
M  V30 19446 C 1955.81 -3.40646 0.131488 0
M  V30 19447 H 1957 -2.48096 1.68489 0
M  V30 19448 H 1954.56 -1.27156 0.908896 0
M  V30 19449 H 1955.29 -3.14265 -0.800507 0
M  V30 19450 H 1955.08 -3.83108 0.834928 0
M  V30 19451 H 1956.57 -4.17495 -0.0936165 0
M  V30 19452 N 1957 -0.897194 -1.29569 0
M  V30 19453 C 1958.42 -0.570676 -1.77764 0
M  V30 19454 C 1958.77 0.913595 -1.73631 0
M  V30 19455 O 1957.89 1.71426 -1.32068 0
M  V30 19456 C 1958.49 -1.02914 -3.22791 0
M  V30 19457 C 1957.05 -0.753828 -3.68774 0
M  V30 19458 C 1956.19 -1.20525 -2.49738 0
M  V30 19459 H 1959.14 -1.08018 -1.16266 0
M  V30 19460 H 1959.16 -0.363343 -3.78761 0
M  V30 19461 H 1958.68 -2.10944 -3.25767 0
M  V30 19462 H 1956.78 0.313965 -3.71275 0
M  V30 19463 H 1956.89 -1.34995 -4.59688 0
M  V30 19464 H 1955.25 -0.624304 -2.4693 0
M  V30 19465 H 1956.04 -2.29355 -2.55443 0
M  V30 19466 N 1958.48 1.43142 -0.659413 0
M  V30 19467 C 1959.45 2.29192 0.0190393 0
M  V30 19468 C 1960.45 1.42532 0.744404 0
M  V30 19469 O 1961.64 1.64093 0.584722 0
M  V30 19470 C 1958.77 3.24723 1.03769 0
M  V30 19471 H 1959.96 2.90674 -0.738166 0
M  V30 19472 H 1957.51 1.50525 -0.420956 0
M  V30 19473 H 1958.25 2.68149 1.82392 0
M  V30 19474 H 1958.03 3.88621 0.52115 0
M  V30 19475 H 1959.52 3.89294 1.5113 0
M  V30 19476 N 1959.96 0.40173 1.52394 0
M  V30 19477 C 1961.21 -0.17672 2.02029 0
M  V30 19478 C 1961.54 -1.45417 1.28715 0
M  V30 19479 O 1960.81 -1.90524 0.391263 0
M  V30 19480 C 1961.1 -0.43198 3.575 0
M  V30 19481 C 1960.95 0.861628 4.4147 0
M  V30 19482 C 1962.27 -1.2173 4.2293 0
M  V30 19483 H 1959.39 -0.0627536 0.734323 0
M  V30 19484 H 1962.03 0.533742 1.82349 0
M  V30 19485 H 1960.18 -1.03719 3.74399 0
M  V30 19486 H 1961.85 1.49808 4.36297 0
M  V30 19487 H 1960.1 1.47424 4.07981 0
M  V30 19488 H 1960.77 0.637511 5.48306 0
M  V30 19489 H 1963.24 -0.704996 4.10084 0
M  V30 19490 H 1962.12 -1.36465 5.31666 0
M  V30 19491 H 1962.38 -2.23592 3.81391 0
M  V30 19492 N 1961.44 -1.57047 0.131923 0
M  V30 19493 C 1962.4 -2.14813 -0.799243 0
M  V30 19494 C 1963.4 -1.08616 -1.18572 0
M  V30 19495 O 1964.59 -1.3433 -1.10911 0
M  V30 19496 C 1961.72 -2.69894 -2.08255 0
M  V30 19497 H 1962.92 -2.98426 -0.296996 0
M  V30 19498 H 1960.47 -1.55858 -0.117418 0
M  V30 19499 H 1961.2 -1.89905 -2.62881 0
M  V30 19500 H 1960.99 -3.47574 -1.81479 0
M  V30 19501 H 1962.48 -3.14451 -2.74792 0
M  V30 19502 N 1962.92 0.141865 -1.5696 0
M  V30 19503 C 1963.83 1.19435 -2.01922 0
M  V30 19504 C 1964.84 1.4671 -0.935527 0
M  V30 19505 O 1966.02 1.58279 -1.24538 0
M  V30 19506 C 1963.08 2.50665 -2.39516 0
M  V30 19507 C 1962.14 2.30991 -3.61859 0
M  V30 19508 C 1961.38 3.55963 -3.9765 0
M  V30 19509 O 1961.6 4.62354 -3.34044 0
M  V30 19510 O 1960.53 3.48322 -4.90872 0
M  V30 19511 H 1964.36 0.842613 -2.91777 0
M  V30 19512 H 1961.95 0.350973 -1.45219 0
M  V30 19513 H 1963.83 3.28024 -2.64534 0
M  V30 19514 H 1962.5 2.85358 -1.52815 0
M  V30 19515 H 1961.41 1.51565 -3.42022 0
M  V30 19516 H 1962.74 2.01211 -4.49194 0
M  V30 19517 N 1964.39 1.52136 0.411372 0
M  V30 19518 C 1965.36 1.74698 1.48369 0
M  V30 19519 C 1966.36 0.616863 1.48497 0
M  V30 19520 O 1967.55 0.884716 1.50061 0
M  V30 19521 C 1964.68 1.82729 2.8779 0
M  V30 19522 H 1965.87 2.70424 1.29658 0
M  V30 19523 H 1963.43 1.42519 0.641725 0
M  V30 19524 H 1964.16 0.889096 3.11874 0
M  V30 19525 H 1963.95 2.64884 2.891 0
M  V30 19526 H 1965.44 2.01934 3.6553 0
M  V30 19527 N 1965.87 -0.668464 1.42721 0
M  V30 19528 C 1967.12 -1.43061 1.43741 0
M  V30 19529 C 1967.45 -1.9412 0.0558656 0
M  V30 19530 O 1966.73 -1.71317 -0.920904 0
M  V30 19531 C 1967.01 -2.62307 2.46712 0
M  V30 19532 C 1966.86 -2.16839 3.94082 0
M  V30 19533 C 1968.18 -3.64525 2.46596 0
M  V30 19534 H 1965.3 -0.518854 0.523412 0
M  V30 19535 H 1967.94 -0.759144 1.74175 0
M  V30 19536 H 1966.09 -3.19593 2.20891 0
M  V30 19537 H 1967.77 -1.64672 4.30907 0
M  V30 19538 H 1966.01 -1.48352 4.07645 0
M  V30 19539 H 1966.68 -3.02521 4.6172 0
M  V30 19540 H 1969.16 -3.16968 2.69574 0
M  V30 19541 H 1968.03 -4.45532 3.20613 0
M  V30 19542 H 1968.29 -4.16084 1.49421 0
M  V30 19543 N 1967.35 -1.28999 -0.905381 0
M  V30 19544 C 1968.28 -1.16189 -2.0254 0
M  V30 19545 C 1969.26 -0.0575293 -1.70003 0
M  V30 19546 O 1970.45 -0.236004 -1.92761 0
M  V30 19547 C 1967.58 -0.831704 -3.37194 0
M  V30 19548 C 1966.53 -1.89176 -3.83922 0
M  V30 19549 C 1965.86 -1.41501 -5.15637 0
M  V30 19550 C 1967.16 -3.29971 -4.04866 0
M  V30 19551 H 1968.85 -2.09886 -2.13514 0
M  V30 19552 H 1966.4 -1.0105 -1.02591 0
M  V30 19553 H 1968.35 -0.728825 -4.1505 0
M  V30 19554 H 1967.07 0.140958 -3.26296 0
M  V30 19555 H 1965.73 -1.98393 -3.08279 0
M  V30 19556 H 1965.38 -0.431182 -5.01149 0
M  V30 19557 H 1965.08 -2.12391 -5.47872 0
M  V30 19558 H 1966.61 -1.32552 -5.96039 0
M  V30 19559 H 1968.02 -3.23628 -4.73221 0
M  V30 19560 H 1966.42 -3.98768 -4.48447 0
M  V30 19561 H 1967.49 -3.73369 -3.09393 0
M  V30 19562 N 1968.83 1.11497 -1.11383 0
M  V30 19563 C 1970.05 1.87567 -0.885056 0
M  V30 19564 C 1970.48 1.79581 0.559675 0
M  V30 19565 O 1969.84 1.15779 1.39517 0
M  V30 19566 C 1969.89 3.34354 -1.35053 0
M  V30 19567 O 1968.99 4.09085 -0.521865 0
M  V30 19568 H 1968.33 0.582433 -0.318853 0
M  V30 19569 H 1970.86 1.4094 -1.48314 0
M  V30 19570 H 1970.87 3.85201 -1.34478 0
M  V30 19571 H 1969.55 3.39484 -2.40257 0
M  V30 19572 H 1968.12 3.68144 -0.593669 0
M  V30 19573 N 1970.31 0.904053 1.29092 0
M  V30 19574 C 1971.55 0.542414 1.96034 0
M  V30 19575 C 1971.91 -0.902189 1.69936 0
M  V30 19576 O 1971.2 -1.6317 1.0043 0
M  V30 19577 C 1971.4 0.776255 3.48868 0
M  V30 19578 C 1971.22 2.24204 3.89824 0
M  V30 19579 C 1969.99 2.89031 4.14475 0
M  V30 19580 C 1972.19 3.21762 4.01215 0
M  V30 19581 N 1970.17 4.26007 4.42031 0
M  V30 19582 C 1971.55 4.4387 4.32873 0
M  V30 19583 C 1973.6 3.17293 3.83705 0
M  V30 19584 C 1972.3 5.62076 4.48846 0
M  V30 19585 C 1974.33 4.34789 4.0089 0
M  V30 19586 C 1973.69 5.55668 4.32912 0
M  V30 19587 H 1969.79 0.248172 0.741576 0
M  V30 19588 H 1972.37 1.16577 1.55942 0
M  V30 19589 H 1970.55 0.182248 3.87972 0
M  V30 19590 H 1972.28 0.379616 4.02916 0
M  V30 19591 H 1969.03 2.39805 4.084 0
M  V30 19592 H 1969.46 4.96802 4.5991 0
M  V30 19593 H 1974.1 2.24922 3.58008 0
M  V30 19594 H 1971.82 6.54934 4.73378 0
M  V30 19595 H 1975.4 4.32821 3.88789 0
M  V30 19596 H 1974.28 6.4507 4.45931 0
M  V30 19597 N 1971.79 -1.4279 0.666995 0
M  V30 19598 C 1972.72 -2.335 -0.00234362 0
M  V30 19599 C 1973.7 -1.50244 -0.797537 0
M  V30 19600 O 1974.88 -1.7887 -0.756257 0
M  V30 19601 C 1972.01 -3.33774 -0.959795 0
M  V30 19602 C 1970.97 -4.27124 -0.273749 0
M  V30 19603 C 1970.29 -5.17544 -1.3436 0
M  V30 19604 C 1971.59 -5.15462 0.842411 0
M  V30 19605 H 1973.29 -2.89719 0.755212 0
M  V30 19606 H 1970.83 -1.39307 0.364622 0
M  V30 19607 H 1972.78 -3.96139 -1.43707 0
M  V30 19608 H 1971.51 -2.75842 -1.74868 0
M  V30 19609 H 1970.17 -3.66142 0.18321 0
M  V30 19610 H 1969.82 -4.55943 -2.12427 0
M  V30 19611 H 1969.52 -5.80825 -0.889738 0
M  V30 19612 H 1971.04 -5.82784 -1.82196 0
M  V30 19613 H 1972.45 -5.71557 0.4467 0
M  V30 19614 H 1970.85 -5.87535 1.22158 0
M  V30 19615 H 1971.92 -4.54327 1.69454 0
M  V30 19616 N 1973.26 -0.409806 -1.52179 0
M  V30 19617 C 1974.54 0.224342 -1.94309 0
M  V30 19618 C 1974.92 1.62561 -1.34674 0
M  V30 19619 O 1974.27 2.22438 -0.522817 0
M  V30 19620 C 1974.48 0.22999 -3.48241 0
M  V30 19621 C 1975.83 0.449011 -4.22219 0
M  V30 19622 O 1976.85 0.309316 -3.54854 0
M  V30 19623 O 1975.71 0.724419 -5.41677 0
M  V30 19624 H 1972.8 0.144759 -0.814232 0
M  V30 19625 H 1975.35 -0.465799 -1.63182 0
M  V30 19626 H 1974.12 -0.750731 -3.84031 0
M  V30 19627 H 1973.74 0.964201 -3.85732 0
M  V30 19628 N 1974.74 1.56975 -0.14025 0
M  V30 19629 C 1975.7 2.15234 0.78784 0
M  V30 19630 C 1976.7 1.09243 1.17994 0
M  V30 19631 O 1977.89 1.34916 1.10197 0
M  V30 19632 C 1975.03 2.70994 2.06821 0
M  V30 19633 H 1976.22 2.98579 0.281166 0
M  V30 19634 H 1973.77 1.55918 0.109151 0
M  V30 19635 H 1974.51 1.91297 2.6187 0
M  V30 19636 H 1974.29 3.48532 1.79633 0
M  V30 19637 H 1975.78 3.15904 2.7312 0
M  V30 19638 N 1976.22 -0.133539 1.57033 0
M  V30 19639 C 1977.47 -0.842358 1.83268 0
M  V30 19640 C 1977.78 -1.81722 0.723634 0
M  V30 19641 O 1978.99 -2.57117 0.871969 0
M  V30 19642 C 1977.44 -1.54868 3.24875 0
M  V30 19643 C 1977.05 -0.615546 4.43751 0
M  V30 19644 C 1978.8 -2.24349 3.60372 0
M  V30 19645 C 1976.7 -1.32426 5.76383 0
M  V30 19646 H 1975.63 -0.318314 0.683515 0
M  V30 19647 H 1978.28 -0.0950741 1.83254 0
M  V30 19648 H 1976.67 -2.34207 3.19316 0
M  V30 19649 H 1977.84 0.143586 4.60576 0
M  V30 19650 H 1976.15 -0.0284595 4.1639 0
M  V30 19651 H 1978.75 -2.78037 4.56727 0
M  V30 19652 H 1979.09 -3.01473 2.87088 0
M  V30 19653 H 1979.63 -1.51914 3.67651 0
M  V30 19654 H 1976.37 -0.594603 6.52798 0
M  V30 19655 H 1975.89 -2.05577 5.6347 0
M  V30 19656 H 1977.57 -1.86148 6.19643 0
M  V30 19657 N 1977.7 -1.52352 -0.403298 0
M  V30 19658 C 1978.61 -1.79011 -1.51631 0
M  V30 19659 C 1979.62 -0.676014 -1.60331 0
M  V30 19660 O 1980.8 -0.962058 -1.76936 0
M  V30 19661 C 1977.86 -1.94046 -2.8731 0
M  V30 19662 C 1976.93 -3.17955 -2.88449 0
M  V30 19663 C 1976.16 -3.32264 -4.17656 0
M  V30 19664 O 1976.38 -2.51703 -5.11861 0
M  V30 19665 O 1975.32 -4.25446 -4.25769 0
M  V30 19666 H 1979.14 -2.73495 -1.32038 0
M  V30 19667 H 1976.73 -1.37268 -0.589733 0
M  V30 19668 H 1978.61 -2.05724 -3.67771 0
M  V30 19669 H 1977.28 -1.02752 -3.06959 0
M  V30 19670 H 1976.19 -3.11731 -2.0682 0
M  V30 19671 H 1977.52 -4.0905 -2.7375 0
M  V30 19672 N 1979.18 0.660885 -1.43074 0
M  V30 19673 C 1980.42 1.41805 -1.43999 0
M  V30 19674 C 1980.74 1.949 -0.0625341 0
M  V30 19675 O 1980.01 1.7395 0.901019 0
M  V30 19676 H 1978.59 0.526263 -0.530147 0
M  V30 19677 H 1981.26 0.779967 -1.78613 0
M  V30 19678 H 1980.35 2.2642 -2.14803 0
M  V30 19679 N 1980.65 1.29477 0.898527 0
M  V30 19680 C 1981.9 1.16888 1.64378 0
M  V30 19681 C 1982.22 -0.278503 1.93607 0
M  V30 19682 O 1983.42 -0.525728 2.66361 0
M  V30 19683 C 1981.88 2.0444 2.96196 0
M  V30 19684 C 1981.49 3.54008 2.74558 0
M  V30 19685 C 1983.23 2.00578 3.74124 0
M  V30 19686 C 1981.14 4.33661 4.0211 0
M  V30 19687 H 1980.07 0.433875 0.616659 0
M  V30 19688 H 1982.72 1.54125 0.995881 0
M  V30 19689 H 1981.1 1.60073 3.62205 0
M  V30 19690 H 1982.27 4.06435 2.17135 0
M  V30 19691 H 1980.59 3.59553 2.10025 0
M  V30 19692 H 1983.19 2.57348 4.68696 0
M  V30 19693 H 1983.53 0.98604 4.04454 0
M  V30 19694 H 1984.06 2.42995 3.14957 0
M  V30 19695 H 1980.8 5.36276 3.76946 0
M  V30 19696 H 1980.32 3.86003 4.59088 0
M  V30 19697 H 1982 4.44385 4.70246 0
M  V30 19698 N 1982.13 -1.10905 1.11972 0
M  V30 19699 C 1983.04 -2.20682 0.796029 0
M  V30 19700 C 1984.06 -1.72689 -0.213158 0
M  V30 19701 O 1985.23 -2.01343 -0.047955 0
M  V30 19702 C 1982.3 -3.45797 0.250055 0
M  V30 19703 C 1981.36 -4.08549 1.31855 0
M  V30 19704 C 1980.59 -5.27692 0.798538 0
M  V30 19705 O 1980.82 -5.69202 -0.369435 0
M  V30 19706 O 1979.75 -5.81174 1.5659 0
M  V30 19707 H 1983.58 -2.50794 1.71278 0
M  V30 19708 H 1981.16 -1.19548 0.896024 0
M  V30 19709 H 1983.04 -4.21371 -0.0497791 0
M  V30 19710 H 1981.72 -3.17324 -0.639327 0
M  V30 19711 H 1980.63 -3.34682 1.67148 0
M  V30 19712 H 1981.96 -4.41215 2.18153 0
M  V30 19713 N 1983.61 -0.910886 -1.2861 0
M  V30 19714 C 1984.86 -0.541485 -1.94711 0
M  V30 19715 C 1985.18 0.917302 -1.72077 0
M  V30 19716 O 1984.45 1.64818 -1.05885 0
M  V30 19717 H 1983.03 -0.197263 -0.720483 0
M  V30 19718 H 1985.69 -1.15962 -1.56649 0
M  V30 19719 H 1984.79 -0.73351 -3.03358 0
M  V30 19720 N 1985.09 1.42434 -0.674558 0
M  V30 19721 C 1986.05 2.29199 -0.00527063 0
M  V30 19722 C 1987.05 1.43313 0.729245 0
M  V30 19723 O 1988.24 1.64704 0.567284 0
M  V30 19724 C 1985.37 3.25805 1.0032 0
M  V30 19725 H 1986.57 2.89874 -0.768954 0
M  V30 19726 H 1984.12 1.5007 -0.436898 0
M  V30 19727 H 1984.85 2.70068 1.79538 0
M  V30 19728 H 1984.64 3.89152 0.479902 0
M  V30 19729 H 1986.13 3.90875 1.46993 0
M  V30 19730 N 1986.57 0.417871 1.51959 0
M  V30 19731 C 1987.81 -0.154746 2.01507 0
M  V30 19732 C 1988.14 -1.44898 1.30497 0
M  V30 19733 O 1987.41 -1.91043 0.433536 0
M  V30 19734 H 1985.99 -0.0601759 0.744572 0
M  V30 19735 H 1988.65 0.556118 1.86798 0
M  V30 19736 H 1987.74 -0.344616 3.10192 0
M  V30 19737 N 1988.04 -1.56898 0.148573 0
M  V30 19738 C 1988.99 -2.1684 -0.790514 0
M  V30 19739 C 1989.96 -1.10173 -1.24303 0
M  V30 19740 O 1991.15 -1.38221 -1.31527 0
M  V30 19741 C 1988.29 -2.79542 -2.02361 0
M  V30 19742 C 1987.4 -4.00606 -1.61676 0
M  V30 19743 C 1986.53 -4.51303 -2.80178 0
M  V30 19744 C 1985.57 -5.64828 -2.35873 0
M  V30 19745 N 1984.71 -6.10136 -3.47389 0
M  V30 19746 H 1989.55 -2.96751 -0.27255 0
M  V30 19747 H 1987.09 -1.46586 -0.122814 0
M  V30 19748 H 1989.05 -3.14042 -2.74652 0
M  V30 19749 H 1987.68 -2.02273 -2.51566 0
M  V30 19750 H 1986.73 -3.72076 -0.791448 0
M  V30 19751 H 1988.04 -4.82848 -1.25138 0
M  V30 19752 H 1987.19 -4.87865 -3.60656 0
M  V30 19753 H 1985.93 -3.68071 -3.19961 0
M  V30 19754 H 1984.94 -5.2784 -1.53835 0
M  V30 19755 H 1986.16 -6.49846 -1.97174 0
M  V30 19756 H 1984.11 -5.29839 -3.8679 0
M  V30 19757 H 1984.03 -6.87308 -3.14871 0
M  V30 19758 H 1985.29 -6.51344 -4.28219 0
M  V30 19759 O 1989.56 -0.0100268 -1.61497 0
M  V30 19760 H 1990.25 0.605253 -1.84001 0
M  V30 END ATOM
M  V30 BEGIN BOND
M  V30 END BOND
M  V30 END CTAB
M  END
$$$$
