drugbank_target|P02818 Osteocalcin (DB00170; DB01022; DB03847; DB05260)
 OpenBabel12092119383D

  0  0  0     0  0            999 V3000
M  V30 BEGIN CTAB
M  V30 COUNTS 1542 1561 0 0 0
M  V30 BEGIN ATOM
M  V30 1 H -0.908 1.98254 -0.117106 0
M  V30 2 N 0 1.576 0 0
M  V30 3 C 0.933 2.03868 1.02534 0
M  V30 4 C 1.911 0.928543 1.3348 0
M  V30 5 O 3.095 1.19667 1.45644 0
M  V30 6 C 0.222 2.43627 2.35294 0
M  V30 7 C -0.732 3.65373 2.2001 0
M  V30 8 S 0.101 5.13292 1.52614 0
M  V30 9 C 1.257 5.56322 2.86805 0
M  V30 10 H 1.49 2.90518 0.631377 0
M  V30 11 H -0.977 1.52953 0.210867 0
M  V30 12 H 0.981 2.67203 3.11629 0
M  V30 13 H -0.358 1.57376 2.7183 0
M  V30 14 H -1.165 3.90944 3.18086 0
M  V30 15 H -1.563 3.418 1.51819 0
M  V30 16 H 0.729 5.58782 3.83104 0
M  V30 17 H 1.672 6.56266 2.65933 0
M  V30 18 H 2.08 4.83886 2.90714 0
M  V30 19 N 1.4781 -0.272755 1.55222 0
M  V30 20 C 2.8941 -0.619959 1.47067 0
M  V30 21 C 3.0941 -1.895 0.684978 0
M  V30 22 O 2.1501 -2.51675 0.203931 0
M  V30 23 C 3.4631 -0.746693 2.91282 0
M  V30 24 C 5.0111 -0.840731 3.01497 0
M  V30 25 C 5.4861 -0.99924 4.46967 0
M  V30 26 N 6.9771 -1.06476 4.50796 0
M  V30 27 C 7.7121 -1.20621 5.6057 0
M  V30 28 N 7.2081 -1.31483 6.80209 0
M  V30 29 N 9.0011 -1.23733 5.48312 0
M  V30 30 H 1.1521 0.564606 2.04758 0
M  V30 31 H 3.4151 0.191177 0.928523 0
M  V30 32 H 3.1211 0.119753 3.51496 0
M  V30 33 H 2.9951 -1.6269 3.40311 0
M  V30 34 H 5.3821 -1.69764 2.41379 0
M  V30 35 H 5.4631 0.0640874 2.5572 0
M  V30 36 H 5.1071 -0.146984 5.07687 0
M  V30 37 H 5.0371 -1.91871 4.90401 0
M  V30 38 H 7.5281 -0.993196 3.64615 0
M  V30 39 H 7.8411 -1.42111 7.59621 0
M  V30 40 H 6.1861 -1.28487 6.8302 0
M  V30 41 H 9.3771 -1.14877 4.53785 0
M  V30 42 H 9.5501 -1.34412 6.33906 0
M  V30 43 N 2.9562 -1.48159 -0.537278 0
M  V30 44 C 3.9192 -1.61665 -1.62472 0
M  V30 45 C 4.9192 -0.490395 -1.5314 0
M  V30 46 O 6.1092 -0.755998 -1.5694 0
M  V30 47 C 3.2412 -1.57997 -3.02076 0
M  V30 48 H 4.4342 -2.58621 -1.51839 0
M  V30 49 H 1.9872 -1.36647 -0.758771 0
M  V30 50 H 2.7222 -0.624913 -3.18222 0
M  V30 51 H 2.5072 -2.39755 -3.10258 0
M  V30 52 H 3.9972 -1.70627 -3.81151 0
M  V30 53 N 4.4343 0.785586 -1.36625 0
M  V30 54 C 5.3643 1.91259 -1.33949 0
M  V30 55 C 6.3453 1.68795 -0.210325 0
M  V30 56 O 7.5303 1.89854 -0.408561 0
M  V30 57 C 4.6603 3.28339 -1.13186 0
M  V30 58 C 3.6143 3.65335 -2.22967 0
M  V30 59 C 2.9403 5.00806 -1.87342 0
M  V30 60 C 4.2403 3.7352 -3.65075 0
M  V30 61 H 5.9343 1.93755 -2.28253 0
M  V30 62 H 3.4803 0.930788 -1.09874 0
M  V30 63 H 5.4333 4.06804 -1.09948 0
M  V30 64 H 4.1573 3.2624 -0.153332 0
M  V30 65 H 2.8163 2.89169 -2.25337 0
M  V30 66 H 2.4643 4.95233 -0.880545 0
M  V30 67 H 2.1643 5.26529 -2.60846 0
M  V30 68 H 3.6883 5.81687 -1.85667 0
M  V30 69 H 5.1023 4.42168 -3.64911 0
M  V30 70 H 3.4993 4.10731 -4.37516 0
M  V30 71 H 4.5693 2.74527 -3.99703 0
M  V30 72 N 5.9124 1.20967 1.01018 0
M  V30 73 C 7.1404 1.04956 1.78303 0
M  V30 74 C 7.5554 -0.400915 1.84494 0
M  V30 75 O 6.9124 -1.27826 1.30257 0
M  V30 76 C 6.9634 1.63403 3.22462 0
M  V30 77 O 6.6844 3.02775 3.16637 0
M  V30 78 C 8.1854 1.52432 4.16268 0
M  V30 79 H 5.4054 0.368858 0.560522 0
M  V30 80 H 7.9494 1.60193 1.27116 0
M  V30 81 H 6.1044 1.1227 3.70775 0
M  V30 82 H 6.5184 3.30626 4.07169 0
M  V30 83 H 7.9924 1.98078 5.15237 0
M  V30 84 H 8.4694 0.477875 4.36592 0
M  V30 85 H 9.0754 2.02787 3.73841 0
M  V30 86 N 7.3905 -1.2043 1.01659 0
M  V30 87 C 8.3205 -2.25466 0.607226 0
M  V30 88 C 9.3015 -1.65853 -0.377716 0
M  V30 89 O 10.4865 -1.92409 -0.263149 0
M  V30 90 C 7.6165 -3.47256 -0.0552949 0
M  V30 91 C 6.5705 -4.19462 0.850632 0
M  V30 92 C 5.8965 -5.34673 0.0538859 0
M  V30 93 C 7.1965 -4.75603 2.15868 0
M  V30 94 H 8.8905 -2.59962 1.48526 0
M  V30 95 H 6.4365 -1.2496 0.715605 0
M  V30 96 H 8.3895 -4.19917 -0.353233 0
M  V30 97 H 7.1135 -3.11924 -0.968045 0
M  V30 98 H 5.7725 -3.48667 1.13257 0
M  V30 99 H 5.4205 -4.95585 -0.860514 0
M  V30 100 H 5.1205 -5.83913 0.657192 0
M  V30 101 H 6.6445 -6.10138 -0.237598 0
M  V30 102 H 8.0585 -5.40083 1.92311 0
M  V30 103 H 6.4555 -5.3528 2.71284 0
M  V30 104 H 7.5255 -3.94346 2.82169 0
M  V30 105 N 8.8686 -0.792821 -1.36206 0
M  V30 106 C 9.7986 -0.207853 -2.32573 0
M  V30 107 C 10.7796 0.659055 -1.56813 0
M  V30 108 O 11.9646 0.592176 -1.84951 0
M  V30 109 C 9.0946 0.655449 -3.41059 0
M  V30 110 C 8.0486 -0.111842 -4.27854 0
M  V30 111 C 7.3746 0.872274 -5.27537 0
M  V30 112 C 8.6746 -1.30299 -5.05786 0
M  V30 113 H 10.3686 -1.01294 -2.81744 0
M  V30 114 H 7.9146 -0.48854 -1.3546 0
M  V30 115 H 9.8676 1.07464 -4.07467 0
M  V30 116 H 8.5916 1.49328 -2.90463 0
M  V30 117 H 7.2506 -0.512053 -3.63006 0
M  V30 118 H 6.8986 1.70523 -4.73214 0
M  V30 119 H 6.5986 0.363291 -5.86476 0
M  V30 120 H 8.1226 1.28996 -5.96818 0
M  V30 121 H 9.5366 -0.959379 -5.65216 0
M  V30 122 H 7.9336 -1.7455 -5.74154 0
M  V30 123 H 9.0036 -2.09663 -4.37229 0
M  V30 124 N 10.3467 1.47872 -0.545128 0
M  V30 125 C 11.3097 2.28337 0.198717 0
M  V30 126 C 12.3097 1.36255 0.853888 0
M  V30 127 O 13.4997 1.59003 0.711606 0
M  V30 128 C 10.6317 3.15585 1.28915 0
M  V30 129 H 11.8247 2.95567 -0.507941 0
M  V30 130 H 9.3777 1.53362 -0.301616 0
M  V30 131 H 10.1127 2.53019 2.02859 0
M  V30 132 H 9.8977 3.83337 0.824309 0
M  V30 133 H 11.3877 3.76243 1.81194 0
M  V30 134 N 11.8248 0.280983 1.55075 0
M  V30 135 C 12.7548 -0.597469 2.25727 0
M  V30 136 C 13.7358 -1.15417 1.24952 0
M  V30 137 O 14.9208 -1.18722 1.53684 0
M  V30 138 C 12.0508 -1.7789 2.98283 0
M  V30 139 C 11.0048 -1.35347 4.06036 0
M  V30 140 C 10.3308 -2.61846 4.66198 0
M  V30 141 C 11.6308 -0.499354 5.19907 0
M  V30 142 H 13.3248 -0.00824265 2.99399 0
M  V30 143 H 10.8708 -0.0025244 1.44 0
M  V30 144 H 12.8238 -2.39937 3.46422 0
M  V30 145 H 11.5478 -2.39405 2.22155 0
M  V30 146 H 10.2068 -0.756156 3.58717 0
M  V30 147 H 9.8548 -3.21632 3.86732 0
M  V30 148 H 9.5548 -2.3409 5.38958 0
M  V30 149 H 11.0788 -3.24732 5.1709 0
M  V30 150 H 12.4928 -1.02498 5.64063 0
M  V30 151 H 10.8898 -0.316424 5.99265 0
M  V30 152 H 11.9598 0.480459 4.82514 0
M  V30 153 N 13.3029 -1.57598 0.00835791 0
M  V30 154 C 14.2329 -2.1198 -0.979113 0
M  V30 155 C 15.2139 -1.03091 -1.35301 0
M  V30 156 O 16.3989 -1.30818 -1.43528 0
M  V30 157 C 13.5289 -2.62995 -2.26828 0
M  V30 158 C 12.4829 -3.76485 -2.03576 0
M  V30 159 C 11.8089 -4.13846 -3.38579 0
M  V30 160 C 13.1089 -5.0342 -1.39161 0
M  V30 161 H 14.8029 -2.94738 -0.526281 0
M  V30 162 H 12.3489 -1.41783 -0.251704 0
M  V30 163 H 14.3019 -2.99669 -2.96271 0
M  V30 164 H 13.0259 -1.7737 -2.7424 0
M  V30 165 H 11.6849 -3.40217 -1.36557 0
M  V30 166 H 11.3329 -3.25232 -3.83709 0
M  V30 167 H 11.0329 -4.90312 -3.23834 0
M  V30 168 H 12.5569 -4.53086 -4.09323 0
M  V30 169 H 13.9709 -5.37812 -1.98573 0
M  V30 170 H 12.3679 -5.84746 -1.34878 0
M  V30 171 H 13.4379 -4.83548 -0.361868 0
M  V30 172 N 14.781 0.264519 -1.55364 0
M  V30 173 C 15.744 1.31046 -1.88042 0
M  V30 174 C 16.744 1.41943 -0.755569 0
M  V30 175 O 17.934 1.40947 -1.02369 0
M  V30 176 C 15.066 2.69067 -2.09323 0
M  V30 177 H 16.259 1.03297 -2.81549 0
M  V30 178 H 13.812 0.502989 -1.47986 0
M  V30 179 H 14.547 3.01982 -1.18226 0
M  V30 180 H 14.332 2.62542 -2.91229 0
M  V30 181 H 15.822 3.44623 -2.35848 0
M  V30 182 N 16.2591 1.48442 0.529413 0
M  V30 183 C 17.1891 1.65902 1.64313 0
M  V30 184 C 18.1701 0.507897 1.6234 0
M  V30 185 O 19.3551 0.740503 1.79528 0
M  V30 186 C 16.4851 1.69911 3.02898 0
M  V30 187 C 15.4391 2.8453 3.19729 0
M  V30 188 C 14.7651 2.73629 4.59381 0
M  V30 189 C 16.0651 4.25821 3.02447 0
M  V30 190 H 17.7591 2.5914 1.49955 0
M  V30 191 H 15.3051 1.24709 0.719982 0
M  V30 192 H 17.2581 1.80715 3.80684 0
M  V30 193 H 15.9821 0.732524 3.18279 0
M  V30 194 H 14.6411 2.73283 2.44361 0
M  V30 195 H 14.2891 1.74938 4.71599 0
M  V30 196 H 13.9891 3.50541 4.71588 0
M  V30 197 H 15.5131 2.86401 5.39265 0
M  V30 198 H 16.9271 4.37898 3.70024 0
M  V30 199 H 15.3241 5.03735 3.26146 0
M  V30 200 H 16.3941 4.42244 1.98867 0
M  V30 201 N 17.7372 -0.778329 1.37039 0
M  V30 202 C 18.7002 -1.87301 1.32102 0
M  V30 203 C 19.7002 -1.59198 0.226405 0
M  V30 204 O 20.8902 -1.67403 0.481861 0
M  V30 205 C 18.0222 -3.24309 1.05055 0
M  V30 206 H 19.2152 -1.93093 2.29467 0
M  V30 207 H 16.7682 -0.977358 1.21973 0
M  V30 208 H 17.5032 -3.24196 0.0819373 0
M  V30 209 H 17.2882 -3.46098 1.84279 0
M  V30 210 H 18.7782 -4.04382 1.04234 0
M  V30 211 N 19.2153 -1.21501 -1.00376 0
M  V30 212 C 20.1783 -0.976927 -2.07337 0
M  V30 213 C 21.1783 0.0525322 -1.60714 0
M  V30 214 O 22.3683 -0.184869 -1.73216 0
M  V30 215 C 19.5003 -0.473423 -3.37597 0
M  V30 216 H 20.6933 -1.92587 -2.29892 0
M  V30 217 H 18.2463 -1.03217 -1.17371 0
M  V30 218 H 18.9813 0.480379 -3.20722 0
M  V30 219 H 18.7663 -1.216 -3.72768 0
M  V30 220 H 20.2563 -0.32675 -4.1632 0
M  V30 221 N 20.6934 1.19889 -1.02296 0
M  V30 222 C 21.6234 2.25141 -0.619174 0
M  V30 223 C 22.6044 1.66051 0.368915 0
M  V30 224 O 23.7894 1.92546 0.252941 0
M  V30 225 C 20.9194 3.4728 0.0368783 0
M  V30 226 C 19.8734 4.19005 -0.872865 0
M  V30 227 C 19.1994 5.34637 -0.0822402 0
M  V30 228 C 20.4994 4.74452 -2.18387 0
M  V30 229 H 22.1934 2.59171 -1.49903 0
M  V30 230 H 19.7394 1.24579 -0.722222 0
M  V30 231 H 21.6924 4.20098 0.330958 0
M  V30 232 H 20.4164 3.12433 0.95149 0
M  V30 233 H 19.0754 3.48061 -1.15105 0
M  V30 234 H 18.7234 4.96034 0.83422 0
M  V30 235 H 18.4234 5.83557 -0.688149 0
M  V30 236 H 19.9474 6.10255 0.205238 0
M  V30 237 H 21.3614 5.39055 -1.95172 0
M  V30 238 H 19.7584 5.33834 -2.74119 0
M  V30 239 H 20.8284 3.92844 -2.84257 0
M  V30 240 N 22.1715 0.800033 1.35784 0
M  V30 241 C 23.4115 0.382891 2.00782 0
M  V30 242 C 23.7755 -1.02891 1.62103 0
M  V30 243 O 24.9765 -1.54771 2.19771 0
M  V30 244 C 23.2475 0.553299 3.53091 0
M  V30 245 S 24.8065 0.225608 4.3822 0
M  V30 246 H 21.6245 0.145737 0.695904 0
M  V30 247 H 24.2265 1.04085 1.65489 0
M  V30 248 H 22.9305 1.58091 3.78729 0
M  V30 249 H 22.4615 -0.120214 3.93216 0
M  V30 250 H 24.4765 -0.969074 4.86645 0
M  V30 251 N 23.6496 -1.47581 0.552962 0
M  V30 252 C 24.8986 -2.01684 0.0251995 0
M  V30 253 C 25.2116 -1.43317 -1.33115 0
M  V30 254 O 26.4176 -1.89057 -1.94858 0
M  V30 255 C 24.8736 -3.599 -0.00542052 0
M  V30 256 C 24.4816 -4.27257 1.34742 0
M  V30 257 C 26.2256 -4.21768 -0.4808 0
M  V30 258 C 24.1326 -5.77467 1.27614 0
M  V30 259 H 23.0626 -0.753979 0.00565033 0
M  V30 260 H 25.7136 -1.69616 0.70018 0
M  V30 261 H 24.0956 -3.88911 -0.745961 0
M  V30 262 H 25.2696 -4.09893 2.10534 0
M  V30 263 H 23.5846 -3.77358 1.76039 0
M  V30 264 H 26.1816 -5.31838 -0.55246 0
M  V30 265 H 26.5246 -3.88651 -1.49184 0
M  V30 266 H 27.0576 -3.97273 0.204752 0
M  V30 267 H 23.7966 -6.15196 2.26304 0
M  V30 268 H 23.3166 -5.9718 0.55996 0
M  V30 269 H 24.9956 -6.3959 0.976421 0
M  V30 270 N 25.1277 -0.289203 -1.54924 0
M  V30 271 C 26.0907 0.579144 -2.21762 0
M  V30 272 C 27.0907 1.07047 -1.1999 0
M  V30 273 O 28.2807 0.968384 -1.44803 0
M  V30 274 C 25.4127 1.80055 -2.8947 0
M  V30 275 H 26.6057 -0.00464908 -2.999 0
M  V30 276 H 24.1587 -0.0399306 -1.56249 0
M  V30 277 H 24.8937 2.42449 -2.15381 0
M  V30 278 H 24.6787 1.45602 -3.64064 0
M  V30 279 H 26.1687 2.41773 -3.40493 0
M  V30 280 N 26.6058 1.57591 -0.0167156 0
M  V30 281 C 27.8538 1.90906 0.663285 0
M  V30 282 C 28.1748 0.892509 1.73376 0
M  V30 283 O 27.4448 -0.0677623 1.95783 0
M  V30 284 H 26.0248 0.704637 0.247983 0
M  V30 285 H 28.6868 1.94803 -0.0615909 0
M  V30 286 H 27.7828 2.9116 1.12393 0
M  V30 287 N 28.0839 -0.256276 1.55502 0
M  V30 288 C 29.0159 -1.33981 1.85962 0
M  V30 289 C 30.0289 -1.44743 0.745212 0
M  V30 290 O 31.2179 -1.4626 1.02324 0
M  V30 291 C 28.3179 -2.7194 2.02242 0
M  V30 292 C 27.4909 -2.83562 3.33033 0
M  V30 293 C 26.5499 -4.02304 3.39172 0
M  V30 294 O 25.5759 -3.92273 4.12444 0
M  V30 295 N 26.7779 -5.15045 2.67784 0
M  V30 296 H 29.5429 -1.08191 2.7949 0
M  V30 297 H 27.1039 -0.446388 1.55624 0
M  V30 298 H 29.0959 -3.49697 2.03701 0
M  V30 299 H 27.6659 -2.90479 1.15502 0
M  V30 300 H 26.8859 -1.92555 3.43971 0
M  V30 301 H 28.1739 -2.88271 4.19258 0
M  V30 302 H 27.5719 -5.26085 2.07968 0
M  V30 303 H 26.1289 -5.90972 2.74947 0
M  V30 304 N 29.562 -1.4872 -0.521534 0
M  V30 305 C 30.525 -1.63379 -1.60748 0
M  V30 306 C 31.525 -0.50661 -1.52611 0
M  V30 307 O 32.715 -0.772601 -1.5613 0
M  V30 308 C 29.847 -1.61192 -3.00383 0
M  V30 309 H 31.04 -2.60217 -1.49087 0
M  V30 310 H 28.593 -1.37444 -0.744235 0
M  V30 311 H 29.328 -0.65863 -3.17541 0
M  V30 312 H 29.113 -2.43032 -3.07698 0
M  V30 313 H 30.603 -1.7466 -3.7932 0
M  V30 314 N 31.0401 0.771051 -1.3745 0
M  V30 315 C 32.2881 1.52661 -1.32435 0
M  V30 316 C 32.6091 1.9479 0.0905024 0
M  V30 317 O 31.8791 1.66348 1.03466 0
M  V30 318 H 30.4591 0.566218 -0.487244 0
M  V30 319 H 33.1211 0.917636 -1.71946 0
M  V30 320 H 32.2171 2.42568 -1.96385 0
M  V30 321 N 32.5182 1.22032 0.997298 0
M  V30 322 C 33.4812 0.987909 2.06816 0
M  V30 323 C 34.4812 -0.0440084 1.6074 0
M  V30 324 O 35.6712 0.194053 1.73116 0
M  V30 325 C 32.8032 0.49132 3.37341 0
M  V30 326 H 33.9962 1.93803 2.28868 0
M  V30 327 H 31.5492 1.03838 1.16822 0
M  V30 328 H 32.2842 -0.463364 3.20973 0
M  V30 329 H 32.0692 1.23575 3.72118 0
M  V30 330 H 33.5592 0.348824 4.16141 0
M  V30 331 N 33.9963 -1.19345 1.0293 0
M  V30 332 C 34.9433 -2.2258 0.610464 0
M  V30 333 C 35.9133 -1.6179 -0.375946 0
M  V30 334 O 37.0983 -1.88844 -0.272511 0
M  V30 335 C 34.2383 -3.45085 -0.0321473 0
M  V30 336 C 33.3513 -4.20258 1.00035 0
M  V30 337 C 32.4863 -5.3019 0.32746 0
M  V30 338 C 31.5253 -5.97121 1.34584 0
M  V30 339 N 30.6623 -6.98615 0.698726 0
M  V30 340 H 35.5023 -2.57764 1.49538 0
M  V30 341 H 33.0393 -1.26644 0.748311 0
M  V30 342 H 34.9973 -4.15061 -0.421966 0
M  V30 343 H 33.6273 -3.10555 -0.88064 0
M  V30 344 H 32.6793 -3.49223 1.50823 0
M  V30 345 H 33.9913 -4.66175 1.77433 0
M  V30 346 H 33.1453 -6.06587 -0.11718 0
M  V30 347 H 31.8843 -4.85345 -0.478713 0
M  V30 348 H 30.8893 -5.19474 1.80074 0
M  V30 349 H 32.1143 -6.4405 2.15352 0
M  V30 350 H 30.0603 -6.55942 -0.0873471 0
M  V30 351 H 29.9773 -7.42724 1.41058 0
M  V30 352 H 31.2453 -7.79004 0.278102 0
M  V30 353 N 35.4744 -0.807222 -1.35358 0
M  V30 354 C 36.8854 -0.44876 -1.81226 0
M  V30 355 C 37.2364 1.02929 -1.67033 0
M  V30 356 O 36.3614 1.79991 -1.20133 0
M  V30 357 C 36.9564 -0.807774 -3.2903 0
M  V30 358 C 35.5154 -0.501901 -3.73039 0
M  V30 359 C 34.6624 -1.03304 -2.57339 0
M  V30 360 H 37.6134 -0.998808 -1.23327 0
M  V30 361 H 37.6344 -0.10554 -3.80354 0
M  V30 362 H 37.1464 -1.88357 -3.39328 0
M  V30 363 H 35.2474 0.565128 -3.68289 0
M  V30 364 H 35.3604 -1.03497 -4.67787 0
M  V30 365 H 33.7244 -0.455339 -2.50597 0
M  V30 366 H 34.5074 -2.11496 -2.70415 0
M  V30 367 N 36.9525 1.47285 -0.560781 0
M  V30 368 C 38.1775 2.07359 -0.0410566 0
M  V30 369 C 38.6025 1.41017 1.24483 0
M  V30 370 O 37.9605 0.486368 1.74654 0
M  V30 371 C 38.0085 3.6035 0.134123 0
M  V30 372 O 37.1125 3.94681 1.19587 0
M  V30 373 H 36.4535 0.661887 -0.0529291 0
M  V30 374 H 38.9835 1.89252 -0.777482 0
M  V30 375 H 38.9935 4.0652 0.347207 0
M  V30 376 H 37.6685 4.08034 -0.805047 0
M  V30 377 H 36.2455 3.60251 0.962987 0
M  V30 378 N 38.4306 0.297415 1.54768 0
M  V30 379 C 39.6786 -0.312295 1.99673 0
M  V30 380 C 39.9996 -1.54686 1.18732 0
M  V30 381 O 39.2696 -1.93854 0.282382 0
M  V30 382 H 37.8496 -0.118381 0.73756 0
M  V30 383 H 40.5116 0.407915 1.90583 0
M  V30 384 H 39.6076 -0.586813 3.06534 0
M  V30 385 N 39.9087 -1.5758 0.0250728 0
M  V30 386 C 40.8717 -2.08896 -0.943139 0
M  V30 387 C 41.8717 -1.00321 -1.25668 0
M  V30 388 O 43.0617 -1.26495 -1.19769 0
M  V30 389 C 40.1937 -2.55143 -2.26086 0
M  V30 390 H 41.3867 -2.95723 -0.498775 0
M  V30 391 H 38.9397 -1.54703 -0.222888 0
M  V30 392 H 39.6747 -1.71633 -2.75159 0
M  V30 393 H 39.4597 -3.34461 -2.04641 0
M  V30 394 H 40.9497 -2.95083 -2.95492 0
M  V30 395 N 41.3868 0.248026 -1.55636 0
M  V30 396 C 42.2968 1.32859 -1.93354 0
M  V30 397 C 43.3128 1.52719 -0.833838 0
M  V30 398 O 44.4888 1.66363 -1.13513 0
M  V30 399 C 41.5538 2.66337 -2.21958 0
M  V30 400 C 40.6148 2.55008 -3.45354 0
M  V30 401 C 39.8478 3.82121 -3.72584 0
M  V30 402 O 40.0708 4.83951 -3.01907 0
M  V30 403 O 39.0048 3.80822 -4.6611 0
M  V30 404 H 42.8308 1.03862 -2.85388 0
M  V30 405 H 40.4158 0.448686 -1.42503 0
M  V30 406 H 42.2978 3.45216 -2.4167 0
M  V30 407 H 40.9728 2.95068 -1.33103 0
M  V30 408 H 39.8798 1.7442 -3.30951 0
M  V30 409 H 41.2128 2.31222 -4.34508 0
M  V30 410 N 42.8649 1.48995 0.513639 0
M  V30 411 C 44.0899 1.61792 1.29762 0
M  V30 412 C 44.5149 0.284475 1.85936 0
M  V30 413 O 43.8729 -0.746185 1.65232 0
M  V30 414 C 43.9209 2.67993 2.41272 0
M  V30 415 O 43.0249 2.26287 3.44772 0
M  V30 416 H 42.3659 0.541963 0.38363 0
M  V30 417 H 44.8959 1.95097 0.616307 0
M  V30 418 H 44.9059 2.89772 2.87221 0
M  V30 419 H 43.5809 3.64791 1.9975 0
M  V30 420 H 42.1579 2.14788 3.04829 0
M  V30 421 N 44.343 -0.763751 1.37857 0
M  V30 422 C 45.568 -1.55805 1.36893 0
M  V30 423 C 45.993 -1.88054 -0.0416135 0
M  V30 424 O 45.351 -1.49825 -1.02089 0
M  V30 425 C 45.399 -2.84012 2.22192 0
M  V30 426 O 44.503 -3.78732 1.63204 0
M  V30 427 H 43.844 -0.471638 0.46739 0
M  V30 428 H 46.374 -0.944657 1.81487 0
M  V30 429 H 46.384 -3.33037 2.35691 0
M  V30 430 H 45.059 -2.59869 3.24716 0
M  V30 431 H 43.636 -3.37402 1.58791 0
M  V30 432 N 45.8211 -1.22559 -0.990812 0
M  V30 433 C 46.7681 -0.997519 -2.0813 0
M  V30 434 C 47.7381 0.0814702 -1.659 0
M  V30 435 O 48.9231 -0.0685424 -1.90677 0
M  V30 436 C 46.0631 -0.583615 -3.40129 0
M  V30 437 C 45.1761 -1.7336 -3.9569 0
M  V30 438 C 44.3111 -1.26748 -5.15857 0
M  V30 439 C 43.3501 -2.38888 -5.63559 0
M  V30 440 N 42.4871 -1.93308 -6.74964 0
M  V30 441 H 47.3271 -1.93099 -2.26973 0
M  V30 442 H 44.8641 -0.962114 -1.11273 0
M  V30 443 H 46.8221 -0.324801 -4.15934 0
M  V30 444 H 45.4521 0.312845 -3.2128 0
M  V30 445 H 44.5041 -2.10669 -3.16738 0
M  V30 446 H 45.8161 -2.57704 -4.27071 0
M  V30 447 H 44.9701 -0.966173 -5.98957 0
M  V30 448 H 43.7091 -0.394272 -4.86104 0
M  V30 449 H 42.7141 -2.69805 -4.79046 0
M  V30 450 H 43.9391 -3.26728 -5.95336 0
M  V30 451 H 41.8851 -1.08352 -6.4699 0
M  V30 452 H 41.8021 -2.71217 -7.05675 0
M  V30 453 H 43.0701 -1.66252 -7.61564 0
M  V30 454 N 47.2992 1.18797 -1.03562 0
M  V30 455 C 48.5472 1.88278 -0.734569 0
M  V30 456 C 48.8682 1.8043 0.739586 0
M  V30 457 O 48.1382 1.21925 1.53333 0
M  V30 458 H 46.7182 0.696991 -0.268725 0
M  V30 459 H 49.3802 1.44192 -1.31129 0
M  V30 460 H 48.4762 2.94443 -1.03489 0
M  V30 461 N 48.7773 0.814389 1.34928 0
M  V30 462 C 49.7403 0.235759 2.27984 0
M  V30 463 C 50.7403 -0.581412 1.49921 0
M  V30 464 O 51.9303 -0.398758 1.69575 0
M  V30 465 C 49.0623 -0.670433 3.34242 0
M  V30 466 H 50.2553 1.05659 2.80671 0
M  V30 467 H 47.8083 0.585614 1.44915 0
M  V30 468 H 48.5433 -1.51466 2.86755 0
M  V30 469 H 48.3283 -0.0860822 3.92005 0
M  V30 470 H 49.8183 -1.06935 4.03676 0
M  V30 471 N 50.2554 -1.46986 0.568584 0
M  V30 472 C 51.2184 -2.28624 -0.162366 0
M  V30 473 C 52.2184 -1.37596 -0.832103 0
M  V30 474 O 53.4084 -1.60115 -0.68622 0
M  V30 475 C 50.5404 -3.17596 -1.23878 0
M  V30 476 H 51.7334 -2.94722 0.554899 0
M  V30 477 H 49.2864 -1.52863 0.325976 0
M  V30 478 H 50.0214 -2.56214 -1.98808 0
M  V30 479 H 49.8064 -3.846 -0.763219 0
M  V30 480 H 51.2964 -3.79078 -1.75185 0
M  V30 481 N 51.7335 -0.305618 -1.54608 0
M  V30 482 C 52.9805 0.302298 -2.00231 0
M  V30 483 C 53.3085 1.5354 -1.19398 0
M  V30 484 O 52.5635 1.93973 -0.259423 0
M  V30 485 C 52.8625 0.698983 -3.50498 0
M  V30 486 C 52.5285 -0.432903 -4.48817 0
M  V30 487 C 51.1905 -0.743622 -4.75419 0
M  V30 488 C 53.5425 -1.19409 -5.07337 0
M  V30 489 C 50.8705 -1.81857 -5.57804 0
M  V30 490 C 53.2225 -2.25899 -5.90891 0
M  V30 491 C 51.8865 -2.57572 -6.15803 0
M  V30 492 H 51.1565 0.110619 -0.732697 0
M  V30 493 H 53.8035 -0.425674 -1.86709 0
M  V30 494 H 52.1085 1.50711 -3.61654 0
M  V30 495 H 53.8055 1.1806 -3.83227 0
M  V30 496 H 50.3955 -0.18063 -4.28219 0
M  V30 497 H 54.5795 -0.967295 -4.86782 0
M  V30 498 H 49.8355 -2.06864 -5.75341 0
M  V30 499 H 54.0095 -2.85335 -6.35261 0
M  V30 500 H 51.6365 -3.40998 -6.7943 0
M  V30 501 N 53.2116 1.57565 -0.0334293 0
M  V30 502 C 54.4576 1.92262 0.645226 0
M  V30 503 C 54.7906 0.910543 1.71531 0
M  V30 504 O 54.0656 -0.066099 1.94388 0
M  V30 505 C 54.3486 3.37422 1.2577 0
M  V30 506 C 54.2016 4.49369 0.196891 0
M  V30 507 C 55.5206 3.82628 2.17449 0
M  V30 508 H 52.6396 0.699171 0.233085 0
M  V30 509 H 55.2816 1.89779 -0.0915694 0
M  V30 510 H 53.4316 3.39669 1.88566 0
M  V30 511 H 55.1036 4.59254 -0.433962 0
M  V30 512 H 53.3466 4.31168 -0.477137 0
M  V30 513 H 54.0176 5.47978 0.665124 0
M  V30 514 H 56.4936 3.82145 1.64634 0
M  V30 515 H 55.3696 4.84883 2.57254 0
M  V30 516 H 55.6306 3.18376 3.0674 0
M  V30 517 N 54.6897 -0.239769 1.55765 0
M  V30 518 C 55.9147 -0.988373 1.82335 0
M  V30 519 C 56.3397 -1.77886 0.611421 0
M  V30 520 O 55.6977 -1.75889 -0.439639 0
M  V30 521 C 55.7457 -1.89627 3.06715 0
M  V30 522 O 54.8497 -2.98904 2.84131 0
M  V30 523 H 54.1907 -0.280858 0.601677 0
M  V30 524 H 56.7207 -0.258597 2.02959 0
M  V30 525 H 56.7307 -2.30957 3.36338 0
M  V30 526 H 55.4057 -1.31511 3.9456 0
M  V30 527 H 53.9827 -2.61651 2.65694 0
M  V30 528 N 56.1678 -1.49265 -0.50573 0
M  V30 529 C 57.1148 -1.65585 -1.6078 0
M  V30 530 C 58.0848 -0.497396 -1.58478 0
M  V30 531 O 59.2698 -0.72385 -1.76536 0
M  V30 532 C 56.4098 -1.72408 -2.98948 0
M  V30 533 C 55.5228 -2.99525 -3.11301 0
M  V30 534 C 54.6578 -2.97356 -4.40174 0
M  V30 535 C 53.6968 -4.19074 -4.46143 0
M  V30 536 N 52.8338 -4.14841 -5.66437 0
M  V30 537 H 57.6738 -2.59688 -1.46172 0
M  V30 538 H 55.2108 -1.28761 -0.711261 0
M  V30 539 H 57.1688 -1.74344 -3.79025 0
M  V30 540 H 55.7988 -0.817753 -3.1227 0
M  V30 541 H 54.8508 -3.07222 -2.24318 0
M  V30 542 H 56.1628 -3.89518 -3.11572 0
M  V30 543 H 55.3168 -2.97829 -5.28567 0
M  V30 544 H 54.0558 -2.05133 -4.42461 0
M  V30 545 H 53.0608 -4.1885 -3.56153 0
M  V30 546 H 54.2858 -5.12483 -4.45575 0
M  V30 547 H 52.2318 -3.25453 -5.69575 0
M  V30 548 H 52.1488 -4.98564 -5.68304 0
M  V30 549 H 53.4168 -4.1941 -6.57051 0
M  V30 550 N 57.6459 0.756429 -1.3826 0
M  V30 551 C 58.5779 1.87971 -1.31147 0
M  V30 552 C 59.5909 1.61248 -0.224239 0
M  V30 553 O 60.7799 1.71881 -0.481581 0
M  V30 554 C 57.8799 3.23545 -1.00857 0
M  V30 555 C 57.0529 3.77794 -2.20432 0
M  V30 556 C 56.1119 4.91877 -1.86931 0
M  V30 557 O 55.1379 5.06659 -2.59395 0
M  V30 558 N 56.3399 5.74643 -0.822568 0
M  V30 559 H 59.1049 1.94585 -2.2794 0
M  V30 560 H 56.6659 0.936234 -1.32084 0
M  V30 561 H 58.6579 3.97403 -0.765021 0
M  V30 562 H 57.2279 3.12335 -0.128687 0
M  V30 563 H 56.4479 2.95534 -2.6087 0
M  V30 564 H 57.7359 4.10771 -3.00241 0
M  V30 565 H 57.1339 5.65266 -0.221575 0
M  V30 566 H 55.6909 6.48661 -0.638899 0
M  V30 567 N 59.124 1.23083 0.984299 0
M  V30 568 C 60.034 1.02515 2.11016 0
M  V30 569 C 61.05 -0.0291702 1.73976 0
M  V30 570 O 62.226 0.165434 2.00719 0
M  V30 571 C 59.291 0.614673 3.41208 0
M  V30 572 C 58.352 1.74359 3.92297 0
M  V30 573 C 57.585 1.35261 5.16275 0
M  V30 574 O 57.808 0.235136 5.69915 0
M  V30 575 O 56.742 2.17227 5.61334 0
M  V30 576 H 60.568 1.96862 2.31255 0
M  V30 577 H 58.153 1.01753 1.09392 0
M  V30 578 H 60.035 0.396518 4.1953 0
M  V30 579 H 58.71 -0.299851 3.22308 0
M  V30 580 H 57.617 2.01635 3.1511 0
M  V30 581 H 58.95 2.63629 4.15645 0
M  V30 582 N 60.6021 -1.18246 1.0419 0
M  V30 583 C 61.8501 -1.87886 0.744543 0
M  V30 584 C 62.1711 -1.8082 -0.730006 0
M  V30 585 O 61.4411 -1.22736 -1.52685 0
M  V30 586 H 60.0211 -0.695556 0.272417 0
M  V30 587 H 62.6831 -1.43494 1.31892 0
M  V30 588 H 61.7791 -2.9389 1.05049 0
M  V30 589 N 62.0802 -0.821533 -1.34494 0
M  V30 590 C 63.3052 -0.420873 -2.03085 0
M  V30 591 C 63.7302 0.964915 -1.61465 0
M  V30 592 O 63.0882 1.62763 -0.798607 0
M  V30 593 C 63.1362 -0.529414 -3.56693 0
M  V30 594 O 62.2402 0.451302 -4.09923 0
M  V30 595 H 61.5812 -0.173489 -0.640935 0
M  V30 596 H 64.1112 -1.11157 -1.71771 0
M  V30 597 H 64.1212 -0.404671 -4.05988 0
M  V30 598 H 62.7962 -1.54014 -3.86332 0
M  V30 599 H 61.3732 0.285558 -3.71805 0
M  V30 600 N 63.5583 1.46682 -0.576371 0
M  V30 601 C 64.4683 2.34032 0.163141 0
M  V30 602 C 65.4843 1.49367 0.892501 0
M  V30 603 O 66.6603 1.82252 0.857106 0
M  V30 604 C 63.7253 3.26435 1.16795 0
M  V30 605 C 62.7863 4.26998 0.443944 0
M  V30 606 C 62.0193 5.14986 1.40088 0
M  V30 607 O 62.2423 5.05785 2.637 0
M  V30 608 O 61.1763 5.94906 0.914917 0
M  V30 609 H 65.0023 2.98607 -0.55388 0
M  V30 610 H 62.5873 1.45554 -0.336821 0
M  V30 611 H 64.4693 3.83459 1.74748 0
M  V30 612 H 63.1443 2.64465 1.86655 0
M  V30 613 H 62.0513 3.7368 -0.177271 0
M  V30 614 H 63.3843 4.91736 -0.213566 0
M  V30 615 N 65.0364 0.313813 1.54444 0
M  V30 616 C 66.2824 -0.292108 2.00685 0
M  V30 617 C 66.6154 -1.52548 1.20177 0
M  V30 618 O 65.8904 -1.92452 0.281531 0
M  V30 619 C 66.1734 -0.635968 3.5444 0
M  V30 620 C 66.0264 0.607437 4.4568 0
M  V30 621 C 67.3454 -1.45747 4.15266 0
M  V30 622 H 64.4644 -0.104697 0.729526 0
M  V30 623 H 67.1064 0.428457 1.85106 0
M  V30 624 H 65.2564 -1.24986 3.67846 0
M  V30 625 H 66.9284 1.24581 4.44159 0
M  V30 626 H 65.1714 1.23822 4.15753 0
M  V30 627 H 65.8424 0.322515 5.51057 0
M  V30 628 H 68.3184 -0.938645 4.05375 0
M  V30 629 H 67.1944 -1.66683 5.2298 0
M  V30 630 H 67.4554 -2.45063 3.67963 0
M  V30 631 N 66.5145 -1.57545 0.0417849 0
M  V30 632 C 67.7605 -1.92601 -0.635021 0
M  V30 633 C 68.0935 -0.919627 -1.71045 0
M  V30 634 O 67.3685 0.0557892 -1.9442 0
M  V30 635 C 67.6515 -3.38085 -1.23979 0
M  V30 636 C 67.5045 -4.49467 -0.173057 0
M  V30 637 C 68.8235 -3.83776 -2.15416 0
M  V30 638 H 65.9425 -0.700397 -0.229374 0
M  V30 639 H 68.5845 -1.89728 0.101633 0
M  V30 640 H 66.7345 -3.40664 -1.86762 0
M  V30 641 H 68.4065 -4.59018 0.458312 0
M  V30 642 H 66.6495 -4.30909 0.499996 0
M  V30 643 H 67.3205 -5.48323 -0.636054 0
M  V30 644 H 69.7965 -3.83013 -1.62605 0
M  V30 645 H 68.6725 -4.8624 -2.54679 0
M  V30 646 H 68.9335 -3.19998 -3.05047 0
M  V30 647 N 67.9926 0.231505 -1.5589 0
M  V30 648 C 68.9396 1.28682 -1.91598 0
M  V30 649 C 69.9096 1.47071 -0.771974 0
M  V30 650 O 71.0946 1.60802 -1.027 0
M  V30 651 C 68.2346 2.6342 -2.22944 0
M  V30 652 C 67.3476 2.52912 -3.50228 0
M  V30 653 C 66.4826 3.80106 -3.7107 0
M  V30 654 C 65.5216 3.64279 -4.91902 0
M  V30 655 N 64.6586 4.834 -5.09184 0
M  V30 656 H 69.4986 0.975305 -2.81588 0
M  V30 657 H 67.0356 0.470299 -1.39379 0
M  V30 658 H 68.9936 3.41869 -2.39126 0
M  V30 659 H 67.6236 2.92687 -1.36139 0
M  V30 660 H 66.6756 1.6595 -3.42294 0
M  V30 661 H 67.9876 2.37133 -4.38827 0
M  V30 662 H 67.1416 4.66999 -3.87295 0
M  V30 663 H 65.8806 3.98799 -2.80733 0
M  V30 664 H 64.8856 2.7577 -4.75637 0
M  V30 665 H 66.1106 3.47067 -5.83714 0
M  V30 666 H 64.0566 5.02425 -4.21788 0
M  V30 667 H 63.9736 4.70311 -5.91898 0
M  V30 668 H 65.2416 5.71747 -5.29835 0
M  V30 669 N 69.4707 1.49531 0.497807 0
M  V30 670 C 70.8867 1.36365 0.829266 0
M  V30 671 C 71.0867 0.399184 1.97506 0
M  V30 672 O 70.1427 -0.167977 2.51941 0
M  V30 673 C 71.4557 2.77153 1.16647 0
M  V30 674 C 73.0037 2.85877 1.27449 0
M  V30 675 C 73.4787 4.2744 1.64497 0
M  V30 676 N 74.9697 4.30265 1.7154 0
M  V30 677 C 75.7047 5.3677 2.01656 0
M  V30 678 N 75.2007 6.53516 2.29976 0
M  V30 679 N 76.9937 5.24189 2.02934 0
M  V30 680 H 69.1447 2.10831 -0.257703 0
M  V30 681 H 71.4077 0.946534 -0.0527091 0
M  V30 682 H 71.1137 3.49442 0.397872 0
M  V30 683 H 70.9877 3.12722 2.10915 0
M  V30 684 H 73.3747 2.13824 2.0338 0
M  V30 685 H 73.4557 2.53887 0.312244 0
M  V30 686 H 73.0997 5.00021 0.891151 0
M  V30 687 H 73.0297 4.56896 2.61827 0
M  V30 688 H 75.5207 3.4607 1.51802 0
M  V30 689 H 75.8337 7.30506 2.52153 0
M  V30 690 H 74.1787 6.56737 2.27425 0
M  V30 691 H 77.3697 4.31988 1.80289 0
M  V30 692 H 77.5427 6.07286 2.26071 0
M  V30 693 N 70.9488 -0.749086 1.3866 0
M  V30 694 C 72.3598 -1.32664 1.31366 0
M  V30 695 C 72.7108 -1.96179 -0.028484 0
M  V30 696 O 71.8358 -1.9537 -0.93057 0
M  V30 697 C 72.4308 -2.41219 2.37905 0
M  V30 698 C 70.9898 -2.94684 2.34176 0
M  V30 699 C 70.1368 -1.68108 2.20533 0
M  V30 700 H 73.0878 -0.547628 1.48952 0
M  V30 701 H 73.1088 -3.21268 2.0388 0
M  V30 702 H 72.6208 -1.94962 3.35576 0
M  V30 703 H 70.7218 -3.45258 1.401 0
M  V30 704 H 70.8348 -3.48757 3.2849 0
M  V30 705 H 69.1988 -1.91907 1.67463 0
M  V30 706 H 69.9818 -1.23923 3.20153 0
M  V30 707 N 72.4269 -1.23603 -0.977757 0
M  V30 708 C 73.8429 -0.999251 -1.24447 0
M  V30 709 C 74.0429 0.298053 -1.99283 0
M  V30 710 O 73.0989 1.01681 -2.31122 0
M  V30 711 C 74.4119 -2.20784 -2.04144 0
M  V30 712 C 75.9599 -2.25303 -2.17273 0
M  V30 713 C 76.4349 -3.45755 -3.00362 0
M  V30 714 N 77.9259 -3.4601 -3.07947 0
M  V30 715 C 78.6609 -4.35868 -3.72568 0
M  V30 716 N 78.1569 -5.35966 -4.38991 0
M  V30 717 N 79.9499 -4.23605 -3.6948 0
M  V30 718 H 72.1009 -2.06986 -0.476483 0
M  V30 719 H 74.3639 -0.907801 -0.273134 0
M  V30 720 H 74.0699 -3.14945 -1.56533 0
M  V30 721 H 73.9439 -2.22085 -3.04891 0
M  V30 722 H 76.3309 -1.3168 -2.64092 0
M  V30 723 H 76.4119 -2.28033 -1.15907 0
M  V30 724 H 76.0559 -4.39687 -2.5424 0
M  V30 725 H 75.9859 -3.40266 -4.01904 0
M  V30 726 H 78.4769 -2.73588 -2.60688 0
M  V30 727 H 78.7899 -6.00783 -4.86086 0
M  V30 728 H 77.1349 -5.39863 -4.37691 0
M  V30 729 H 80.3259 -3.44647 -3.16759 0
M  V30 730 H 80.4989 -4.93836 -4.1956 0
M  V30 731 N 73.905 1.17692 -1.04816 0
M  V30 732 C 75.321 1.39863 -0.768794 0
M  V30 733 C 75.521 1.91118 0.638451 0
M  V30 734 O 74.577 2.10036 1.40146 0
M  V30 735 C 75.89 2.39274 -1.82122 0
M  V30 736 C 77.438 2.52987 -1.843 0
M  V30 737 C 77.913 3.55669 -2.88555 0
M  V30 738 N 79.404 3.63183 -2.87493 0
M  V30 739 C 80.139 4.42381 -3.64811 0
M  V30 740 N 79.635 5.25125 -4.51903 0
M  V30 741 N 81.428 4.37217 -3.53267 0
M  V30 742 H 73.579 0.82752 -1.95617 0
M  V30 743 H 75.842 0.426123 -0.846831 0
M  V30 744 H 75.548 2.08678 -2.83102 0
M  V30 745 H 75.422 3.38725 -1.65967 0
M  V30 746 H 77.809 2.82896 -0.839869 0
M  V30 747 H 77.89 1.53623 -2.04532 0
M  V30 748 H 77.534 3.26499 -3.89051 0
M  V30 749 H 77.464 4.54728 -2.65575 0
M  V30 750 H 79.955 3.04103 -2.24343 0
M  V30 751 H 80.268 5.82728 -5.07591 0
M  V30 752 H 78.613 5.24519 -4.55966 0
M  V30 753 H 81.804 3.71626 -2.84625 0
M  V30 754 H 81.977 4.98696 -4.13771 0
M  V30 755 N 75.3831 0.828654 1.34056 0
M  V30 756 C 76.6131 0.431993 2.02033 0
M  V30 757 C 77.0211 -0.96844 1.62536 0
M  V30 758 O 76.3641 -1.6391 0.829408 0
M  V30 759 C 76.4261 0.461224 3.56529 0
M  V30 760 C 76.0901 1.81599 4.1937 0
M  V30 761 C 77.0871 2.7777 4.39477 0
M  V30 762 C 74.7721 2.10604 4.56017 0
M  V30 763 C 76.7661 4.01115 4.95364 0
M  V30 764 C 74.4531 3.34207 5.11614 0
M  V30 765 C 75.4511 4.2928 5.31232 0
M  V30 766 O 75.1391 5.50699 5.8565 0
M  V30 767 H 74.8711 0.170943 0.654029 0
M  V30 768 H 77.4251 1.11988 1.72185 0
M  V30 769 H 75.6551 -0.283388 3.8566 0
M  V30 770 H 77.3441 0.0838149 4.05813 0
M  V30 771 H 78.1101 2.56659 4.11523 0
M  V30 772 H 73.9891 1.37402 4.40047 0
M  V30 773 H 77.5331 4.75333 5.10592 0
M  V30 774 H 73.4301 3.55179 5.38997 0
M  V30 775 H 74.1981 5.52298 6.04077 0
M  V30 776 N 76.8612 -1.46375 0.584142 0
M  V30 777 C 77.7912 -2.33103 -0.136037 0
M  V30 778 C 78.7722 -1.45431 -0.882255 0
M  V30 779 O 79.9572 -1.74246 -0.857434 0
M  V30 780 C 77.0872 -3.27731 -1.14933 0
M  V30 781 C 76.0412 -4.24855 -0.517862 0
M  V30 782 C 75.3672 -5.09001 -1.63773 0
M  V30 783 C 76.6672 -5.19439 0.545886 0
M  V30 784 H 78.3612 -2.93568 0.588086 0
M  V30 785 H 75.9072 -1.41166 0.284259 0
M  V30 786 H 77.8602 -3.87261 -1.66153 0
M  V30 787 H 76.5842 -2.65377 -1.90375 0
M  V30 788 H 75.2432 -3.6659 -0.0267361 0
M  V30 789 H 74.8912 -4.43031 -2.38185 0
M  V30 790 H 74.5912 -5.74777 -1.22085 0
M  V30 791 H 76.1152 -5.71396 -2.15266 0
M  V30 792 H 77.5292 -5.73177 0.118704 0
M  V30 793 H 75.9262 -5.93566 0.88317 0
M  V30 794 H 76.9962 -4.63285 1.43162 0
M  V30 795 N 78.3393 -0.321999 -1.54275 0
M  V30 796 C 79.5693 0.282642 -2.04658 0
M  V30 797 C 79.9773 1.46453 -1.19784 0
M  V30 798 O 79.3203 1.82367 -0.220932 0
M  V30 799 C 79.3823 0.781857 -3.50895 0
M  V30 800 C 79.0463 -0.277517 -4.56157 0
M  V30 801 C 80.0433 -1.11307 -5.07845 0
M  V30 802 C 77.7283 -0.425256 -5.00497 0
M  V30 803 C 79.7223 -2.08211 -6.02434 0
M  V30 804 C 77.4093 -1.39771 -5.94901 0
M  V30 805 C 78.4073 -2.2246 -6.45756 0
M  V30 806 O 78.0953 -3.18054 -7.38307 0
M  V30 807 H 77.8273 0.0622636 -0.673126 0
M  V30 808 H 80.3813 -0.465792 -2.00049 0
M  V30 809 H 78.6113 1.58118 -3.52896 0
M  V30 810 H 80.3003 1.30467 -3.84361 0
M  V30 811 H 81.0663 -1.00991 -4.74369 0
M  V30 812 H 76.9453 0.20847 -4.60528 0
M  V30 813 H 80.4893 -2.72791 -6.42052 0
M  V30 814 H 76.3863 -1.50152 -6.27794 0
M  V30 815 H 77.1543 -3.13275 -7.56175 0
M  V30 816 N 79.8174 1.5752 -0.0501392 0
M  V30 817 C 80.7494 2.08413 0.95376 0
M  V30 818 C 81.7624 1.01175 1.27544 0
M  V30 819 O 82.9514 1.28744 1.23641 0
M  V30 820 C 80.0514 2.51138 2.27559 0
M  V30 821 C 79.2244 3.817 2.13598 0
M  V30 822 C 78.2834 4.10749 3.28895 0
M  V30 823 O 77.3094 4.80685 3.04845 0
M  V30 824 N 78.5114 3.62579 4.5334 0
M  V30 825 H 81.2764 2.95165 0.519383 0
M  V30 826 H 78.8374 1.61327 0.136127 0
M  V30 827 H 80.8294 2.67648 3.03557 0
M  V30 828 H 79.3994 1.6964 2.62567 0
M  V30 829 H 78.6194 3.74782 1.22197 0
M  V30 830 H 79.9074 4.67201 2.01496 0
M  V30 831 H 79.3054 3.06039 4.75769 0
M  V30 832 H 77.8624 3.84329 5.26436 0
M  V30 833 N 81.2955 -0.223234 1.56011 0
M  V30 834 C 82.5415 -0.944891 1.8012 0
M  V30 835 C 82.8965 -1.82039 0.622862 0
M  V30 836 O 82.1895 -1.8773 -0.383143 0
M  V30 837 C 82.3835 -1.81948 3.0762 0
M  V30 838 C 82.2125 -1.03014 4.37742 0
M  V30 839 C 80.9825 -0.72574 5.00061 0
M  V30 840 C 83.1805 -0.396256 5.12771 0
M  V30 841 N 81.1625 0.0851816 6.13841 0
M  V30 842 C 82.5335 0.278137 6.19376 0
M  V30 843 C 84.5885 -0.309117 4.9694 0
M  V30 844 C 83.2915 1.03133 7.11868 0
M  V30 845 C 85.3175 0.430607 5.8983 0
M  V30 846 C 84.6795 1.09355 6.9586 0
M  V30 847 H 80.7785 -0.326081 0.710771 0
M  V30 848 H 83.3625 -0.215914 1.93499 0
M  V30 849 H 81.5335 -2.52029 2.95527 0
M  V30 850 H 83.2655 -2.47848 3.19927 0
M  V30 851 H 80.0205 -1.04335 4.61964 0
M  V30 852 H 80.4445 0.479428 6.753 0
M  V30 853 H 85.0865 -0.807313 4.15021 0
M  V30 854 H 82.8045 1.54105 7.9327 0
M  V30 855 H 86.3905 0.499012 5.79656 0
M  V30 856 H 85.2705 1.65679 7.66499 0
M  V30 857 N 82.7736 -1.49793 -0.48987 0
M  V30 858 C 83.7036 -1.70201 -1.59856 0
M  V30 859 C 84.6846 -0.55076 -1.60937 0
M  V30 860 O 85.8696 -0.787841 -1.77501 0
M  V30 861 C 82.9996 -1.77882 -2.98287 0
M  V30 862 C 81.9536 -2.92907 -3.12073 0
M  V30 863 C 81.2796 -2.85712 -4.51965 0
M  V30 864 C 82.5796 -4.3369 -2.91051 0
M  V30 865 H 84.2736 -2.63025 -1.43032 0
M  V30 866 H 81.8196 -1.26574 -0.686664 0
M  V30 867 H 83.7726 -1.90744 -3.75759 0
M  V30 868 H 82.4966 -0.816653 -3.16225 0
M  V30 869 H 81.1556 -2.79665 -2.37029 0
M  V30 870 H 80.8036 -1.8738 -4.66795 0
M  V30 871 H 80.5036 -3.62921 -4.62128 0
M  V30 872 H 82.0276 -3.00598 -5.31482 0
M  V30 873 H 83.4416 -4.47555 -3.58284 0
M  V30 874 H 81.8386 -5.12205 -3.12675 0
M  V30 875 H 82.9086 -4.47362 -1.87071 0
M  V30 876 N 84.2517 0.741722 -1.39055 0
M  V30 877 C 85.4997 1.49818 -1.35643 0
M  V30 878 C 85.8207 1.94938 0.0491642 0
M  V30 879 O 85.0907 1.68505 0.999141 0
M  V30 880 H 83.6707 0.555755 -0.499144 0
M  V30 881 H 86.3327 0.880957 -1.73854 0
M  V30 882 H 85.4287 2.38348 -2.01486 0
M  V30 883 N 85.7298 1.2412 0.971189 0
M  V30 884 C 86.6928 1.03156 2.04674 0
M  V30 885 C 87.6928 -0.00990322 1.60797 0
M  V30 886 O 88.8828 0.230729 1.72665 0
M  V30 887 C 86.0148 0.562765 3.36223 0
M  V30 888 H 87.2078 1.98614 2.24705 0
M  V30 889 H 84.7608 1.06293 1.14593 0
M  V30 890 H 85.4958 -0.395176 3.21883 0
M  V30 891 H 85.2808 1.31441 3.69413 0
M  V30 892 H 86.7708 0.437015 4.15307 0
M  V30 893 N 87.2079 -1.17134 1.05439 0
M  V30 894 C 88.6189 -1.69084 0.791676 0
M  V30 895 C 88.9699 -1.83822 -0.685839 0
M  V30 896 O 88.0949 -1.52757 -1.53278 0
M  V30 897 C 88.6899 -3.07119 1.4305 0
M  V30 898 C 87.2489 -3.56225 1.21577 0
M  V30 899 C 86.3959 -2.32421 1.51247 0
M  V30 900 H 89.3469 -1.01617 1.219 0
M  V30 901 H 89.3679 -3.71087 0.84112 0
M  V30 902 H 88.8799 -2.9636 2.50584 0
M  V30 903 H 86.9809 -3.72257 0.159787 0
M  V30 904 H 87.0939 -4.38837 1.92246 0
M  V30 905 H 85.4579 -2.3701 0.932653 0
M  V30 906 H 86.2409 -2.24268 2.5992 0
M  V30 907 N 88.686 -0.835752 -1.33615 0
M  V30 908 C 89.932 -0.430596 -1.98176 0
M  V30 909 C 90.265 1.00684 -1.66061 0
M  V30 910 O 89.54 1.70339 -0.938877 0
M  V30 911 C 89.823 -0.648065 -3.5422 0
M  V30 912 C 89.676 -2.13255 -3.96033 0
M  V30 913 C 90.995 -0.0922113 -4.40003 0
M  V30 914 H 88.114 -0.157924 -0.719881 0
M  V30 915 H 90.756 -1.05069 -1.58305 0
M  V30 916 H 88.906 -0.120237 -3.88314 0
M  V30 917 H 90.578 -2.725 -3.72211 0
M  V30 918 H 88.821 -2.61823 -3.45878 0
M  V30 919 H 89.492 -2.23547 -5.04708 0
M  V30 920 H 91.968 -0.543343 -4.12537 0
M  V30 921 H 90.844 -0.274083 -5.48215 0
M  V30 922 H 91.105 1.00378 -4.30554 0
M  V30 923 N 90.1641 1.46063 -0.591896 0
M  V30 924 C 91.5751 1.85944 -0.167822 0
M  V30 925 C 91.9261 1.49429 1.27143 0
M  V30 926 O 91.0511 0.913515 1.96173 0
M  V30 927 C 91.6461 3.37489 -0.297794 0
M  V30 928 C 90.2051 3.76332 0.0714732 0
M  V30 929 C 89.3521 2.7006 -0.629509 0
M  V30 930 H 92.3031 1.37087 -0.799555 0
M  V30 931 H 92.3241 3.77532 0.474349 0
M  V30 932 H 91.8361 3.64034 -1.3454 0
M  V30 933 H 89.9371 3.55405 1.11886 0
M  V30 934 H 90.0501 4.78088 -0.311245 0
M  V30 935 H 88.4141 2.54607 -0.0687867 0
M  V30 936 H 89.1971 2.99444 -1.67894 0
M  V30 937 N 91.6422 0.330177 1.54103 0
M  V30 938 C 92.8722 -0.271784 2.04805 0
M  V30 939 C 93.2802 -1.45816 1.20559 0
M  V30 940 O 92.6232 -1.82247 0.2306 0
M  V30 941 C 92.6852 -0.763238 3.51305 0
M  V30 942 C 92.3492 0.301705 4.56003 0
M  V30 943 C 93.3462 1.13999 5.07248 0
M  V30 944 C 91.0312 0.451793 5.00264 0
M  V30 945 C 93.0252 2.11402 6.01322 0
M  V30 946 C 90.7122 1.42924 5.94151 0
M  V30 947 C 91.7102 2.25882 6.44567 0
M  V30 948 O 91.3982 3.21965 7.3661 0
M  V30 949 H 91.1302 -0.058693 0.673447 0
M  V30 950 H 93.6842 0.476395 1.99799 0
M  V30 951 H 91.9142 -1.56244 3.5373 0
M  V30 952 H 93.6032 -1.28427 3.85047 0
M  V30 953 H 94.3692 1.03505 4.73827 0
M  V30 954 H 90.2482 -0.184044 4.60632 0
M  V30 955 H 93.7922 2.76192 6.40596 0
M  V30 956 H 89.6892 1.53479 6.26988 0
M  V30 957 H 90.4572 3.17281 7.54503 0
M  V30 958 N 93.1203 -1.57491 0.0584922 0
M  V30 959 C 94.5313 -1.80526 -0.476138 0
M  V30 960 C 94.8823 -0.971334 -1.70469 0
M  V30 961 O 94.0073 -0.190012 -2.15564 0
M  V30 962 C 94.6023 -3.27424 -0.870587 0
M  V30 963 C 93.1613 -3.51351 -1.35015 0
M  V30 964 C 92.3083 -2.75343 -0.32887 0
M  V30 965 H 95.2593 -1.56133 0.284312 0
M  V30 966 H 95.2803 -3.38745 -1.73299 0
M  V30 967 H 94.7923 -3.88093 0.0237627 0
M  V30 968 H 92.8933 -2.95971 -2.26345 0
M  V30 969 H 93.0063 -4.60059 -1.33726 0
M  V30 970 H 91.3703 -2.417 -0.803321 0
M  V30 971 H 92.1533 -3.38743 0.557521 0
M  V30 972 N 94.5984 0.214957 -1.56127 0
M  V30 973 C 95.8754 0.963093 -1.70247 0
M  V30 974 C 96.2554 2.02166 -0.60764 0
M  V30 975 O 95.6034 2.25244 0.384385 0
M  V30 976 C 95.8134 1.56756 -3.11815 0
M  V30 977 C 97.1614 2.0573 -3.7143 0
M  V30 978 O 98.1854 1.66637 -3.14818 0
M  V30 979 O 97.0444 2.77603 -4.70743 0
M  V30 980 H 94.1384 0.450321 -0.693643 0
M  V30 981 H 96.6844 0.206219 -1.68442 0
M  V30 982 H 95.4564 0.803533 -3.82961 0
M  V30 983 H 95.0794 2.3898 -3.17765 0
M  V30 984 N 96.0765 1.50051 0.48192 0
M  V30 985 C 97.4875 1.5348 1.06305 0
M  V30 986 C 97.8385 0.331997 1.93371 0
M  V30 987 O 96.9635 -0.556256 2.09129 0
M  V30 988 C 97.5585 2.7813 1.93466 0
M  V30 989 C 96.1175 2.84275 2.46707 0
M  V30 990 C 95.2645 2.47637 1.24785 0
M  V30 991 H 98.2155 1.56472 0.264995 0
M  V30 992 H 98.2365 2.59372 2.78399 0
M  V30 993 H 97.7485 3.65654 1.30072 0
M  V30 994 H 95.8495 2.01077 3.13686 0
M  V30 995 H 95.9625 3.8691 2.82555 0
M  V30 996 H 94.3265 1.99835 1.57918 0
M  V30 997 H 95.1095 3.37457 0.630694 0
M  V30 998 N 97.5546 -0.734337 1.39446 0
M  V30 999 C 98.4846 -1.86155 1.40955 0
M  V30 1000 C 99.4656 -1.67898 0.272827 0
M  V30 1001 O 100.651 -1.88207 0.478743 0
M  V30 1002 C 97.7806 -3.23912 1.25294 0
M  V30 1003 C 96.7346 -3.56808 2.36373 0
M  V30 1004 C 96.0606 -4.93508 2.058 0
M  V30 1005 C 97.3606 -3.59713 3.78687 0
M  V30 1006 H 99.0546 -1.8515 2.35287 0
M  V30 1007 H 96.6006 -0.889367 1.13253 0
M  V30 1008 H 98.5536 -4.02443 1.2497 0
M  V30 1009 H 97.2776 -3.25446 0.274308 0
M  V30 1010 H 95.9366 -2.80606 2.35914 0
M  V30 1011 H 95.5846 -4.91623 1.06374 0
M  V30 1012 H 95.2846 -5.16486 2.80208 0
M  V30 1013 H 96.8086 -5.74396 2.07128 0
M  V30 1014 H 98.2226 -4.2832 3.81071 0
M  V30 1015 H 96.6196 -3.94209 4.52459 0
M  V30 1016 H 97.6896 -2.59504 4.09617 0
M  V30 1017 N 99.0327 -1.24633 -0.964593 0
M  V30 1018 C 99.9427 -1.05859 -2.09359 0
M  V30 1019 C 100.959 0.00148855 -1.74 0
M  V30 1020 O 102.135 -0.197346 -2.00431 0
M  V30 1021 C 99.1997 -0.668879 -3.40187 0
M  V30 1022 C 98.2607 -1.80578 -3.89474 0
M  V30 1023 C 97.4937 -1.43457 -5.14058 0
M  V30 1024 O 97.7167 -0.325775 -5.69469 0
M  V30 1025 O 96.6507 -2.2613 -5.57807 0
M  V30 1026 H 100.477 -2.00516 -2.28094 0
M  V30 1027 H 98.0617 -1.03481 -1.0776 0
M  V30 1028 H 99.9437 -0.463211 -4.18846 0
M  V30 1029 H 98.6187 0.248536 -3.22744 0
M  V30 1030 H 97.5257 -2.06623 -3.11862 0
M  V30 1031 H 98.8587 -2.70208 -4.11398 0
M  V30 1032 N 100.511 1.16574 -1.06058 0
M  V30 1033 C 101.922 1.68662 -0.800632 0
M  V30 1034 C 102.273 1.84184 0.67608 0
M  V30 1035 O 101.398 1.53568 1.52466 0
M  V30 1036 C 101.993 3.06356 -1.44676 0
M  V30 1037 C 100.552 3.55575 -1.23465 0
M  V30 1038 C 99.6988 2.31616 -1.52477 0
M  V30 1039 H 102.65 1.00969 -1.22438 0
M  V30 1040 H 102.671 3.70636 -0.860788 0
M  V30 1041 H 102.183 2.95027 -2.52152 0
M  V30 1042 H 100.284 3.72167 -0.179527 0
M  V30 1043 H 100.397 4.37812 -1.94571 0
M  V30 1044 H 98.7608 2.36512 -0.945209 0
M  V30 1045 H 99.5438 2.22887 -2.61106 0
M  V30 1046 N 101.989 0.842826 1.3317 0
M  V30 1047 C 103.405 0.531128 1.50503 0
M  V30 1048 C 103.605 -0.940734 1.78192 0
M  V30 1049 O 102.661 -1.72436 1.84451 0
M  V30 1050 C 103.974 1.40789 2.65705 0
M  V30 1051 C 105.522 1.40708 2.79589 0
M  V30 1052 C 105.997 2.26878 3.97857 0
M  V30 1053 N 107.488 2.24609 4.05099 0
M  V30 1054 C 108.223 2.88019 4.95815 0
M  V30 1055 N 107.719 3.60496 5.9162 0
M  V30 1056 N 109.512 2.77469 4.88843 0
M  V30 1057 H 101.663 1.79557 1.1346 0
M  V30 1058 H 103.926 0.766267 0.558156 0
M  V30 1059 H 103.632 2.454 2.51936 0
M  V30 1060 H 103.506 1.08677 3.61205 0
M  V30 1061 H 105.893 0.368668 2.92788 0
M  V30 1062 H 105.974 1.76829 1.84838 0
M  V30 1063 H 105.618 3.3078 3.85418 0
M  V30 1064 H 105.548 1.88096 4.91861 0
M  V30 1065 H 108.039 1.71906 3.36536 0
M  V30 1066 H 108.352 4.06076 6.57512 0
M  V30 1067 H 106.697 3.64604 5.91683 0
M  V30 1068 H 109.888 2.20406 4.12963 0
M  V30 1069 H 110.061 3.2717 5.59342 0
M  V30 1070 N 103.467 -1.45747 0.599634 0
M  V30 1071 C 104.883 -1.57424 0.26264 0
M  V30 1072 C 105.083 -1.59222 -1.23493 0
M  V30 1073 O 104.139 -1.51825 -2.01756 0
M  V30 1074 C 105.452 -2.86061 0.926795 0
M  V30 1075 C 107 -2.99722 0.901967 0
M  V30 1076 C 107.475 -4.31119 1.54598 0
M  V30 1077 N 108.966 -4.37858 1.5111 0
M  V30 1078 C 109.701 -5.3818 1.97863 0
M  V30 1079 N 109.197 -6.45083 2.52666 0
M  V30 1080 N 110.99 -5.29487 1.88679 0
M  V30 1081 H 103.141 -1.42823 1.57211 0
M  V30 1082 H 105.404 -0.68235 0.658105 0
M  V30 1083 H 105.11 -2.90605 1.98095 0
M  V30 1084 H 104.984 -3.74563 0.445238 0
M  V30 1085 H 107.371 -2.9475 -0.143617 0
M  V30 1086 H 107.452 -2.12652 1.42171 0
M  V30 1087 H 107.096 -4.36849 2.59085 0
M  V30 1088 H 107.026 -5.16992 1.00132 0
M  V30 1089 H 109.517 -3.61209 1.11068 0
M  V30 1090 H 109.83 -7.17869 2.86155 0
M  V30 1091 H 108.175 -6.45856 2.56701 0
M  V30 1092 H 111.366 -4.44877 1.4561 0
M  V30 1093 H 111.539 -6.07524 2.25429 0
M  V30 1094 N 104.945 -0.338344 -1.53925 0
M  V30 1095 C 105.855 0.529421 -2.28548 0
M  V30 1096 C 106.871 1.11645 -1.3346 0
M  V30 1097 O 108.047 1.13325 -1.66492 0
M  V30 1098 C 105.112 1.66713 -3.03987 0
M  V30 1099 C 104.173 1.11041 -4.14691 0
M  V30 1100 C 103.406 2.19389 -4.86522 0
M  V30 1101 O 103.629 3.40013 -4.57982 0
M  V30 1102 O 102.563 1.83976 -5.73094 0
M  V30 1103 H 106.389 -0.0770399 -3.03602 0
M  V30 1104 H 103.974 -0.103555 -1.49041 0
M  V30 1105 H 105.856 2.32918 -3.5118 0
M  V30 1106 H 104.531 2.25949 -2.31794 0
M  V30 1107 H 103.438 0.413024 -3.71813 0
M  V30 1108 H 104.771 0.562975 -4.8897 0
M  V30 1109 N 106.423 1.57458 -0.0668435 0
M  V30 1110 C 107.669 1.93587 0.6043 0
M  V30 1111 C 108.002 0.946722 1.69561 0
M  V30 1112 O 107.277 -0.0248516 1.94484 0
M  V30 1113 C 107.56 3.40014 1.18585 0
M  V30 1114 C 107.413 4.49685 0.101529 0
M  V30 1115 C 108.732 3.87154 2.09284 0
M  V30 1116 H 105.851 0.703958 0.218202 0
M  V30 1117 H 108.493 1.89542 -0.131804 0
M  V30 1118 H 106.643 3.43592 1.81319 0
M  V30 1119 H 108.315 4.5823 -0.531279 0
M  V30 1120 H 106.558 4.30059 -0.568487 0
M  V30 1121 H 107.229 5.49266 0.54874 0
M  V30 1122 H 109.705 3.85551 1.56491 0
M  V30 1123 H 108.581 4.90231 2.46911 0
M  V30 1124 H 108.842 3.2481 2.99918 0
M  V30 1125 N 107.901 -0.206675 1.56239 0
M  V30 1126 C 109.141 -0.93574 1.81723 0
M  V30 1127 C 109.505 -1.80927 0.642609 0
M  V30 1128 O 110.706 -2.57323 0.777081 0
M  V30 1129 C 108.977 -1.74012 3.12177 0
M  V30 1130 S 110.536 -2.52279 3.59028 0
M  V30 1131 H 107.354 -0.314065 0.637875 0
M  V30 1132 H 109.956 -0.200071 1.94474 0
M  V30 1133 H 108.66 -1.0888 3.95693 0
M  V30 1134 H 108.191 -2.51782 3.02274 0
M  V30 1135 H 110.206 -3.76209 3.23545 0
M  V30 1136 N 109.379 -1.50304 -0.473955 0
M  V30 1137 C 110.289 -1.7174 -1.5982 0
M  V30 1138 C 111.305 -0.600457 -1.63311 0
M  V30 1139 O 112.481 -0.878441 -1.81233 0
M  V30 1140 C 109.546 -1.80427 -2.96052 0
M  V30 1141 C 108.607 -3.04148 -3.02972 0
M  V30 1142 C 107.84 -3.12411 -4.32706 0
M  V30 1143 O 108.063 -2.27542 -5.23049 0
M  V30 1144 O 106.997 -4.05113 -4.45159 0
M  V30 1145 H 110.823 -2.67035 -1.44657 0
M  V30 1146 H 108.408 -1.34366 -0.653148 0
M  V30 1147 H 110.29 -1.88338 -3.7697 0
M  V30 1148 H 108.965 -0.883156 -3.11419 0
M  V30 1149 H 107.872 -3.0174 -2.21142 0
M  V30 1150 H 109.205 -3.95829 -2.92541 0
M  V30 1151 N 110.857 0.726932 -1.39834 0
M  V30 1152 C 111.787 1.85405 -1.41941 0
M  V30 1153 C 112.768 1.67751 -0.281728 0
M  V30 1154 O 113.953 1.8795 -0.488717 0
M  V30 1155 C 111.083 3.23243 -1.2701 0
M  V30 1156 C 110.037 3.55549 -2.38262 0
M  V30 1157 C 109.363 4.9241 -2.08415 0
M  V30 1158 C 110.663 3.577 -3.80589 0
M  V30 1159 H 112.357 1.83899 -2.36266 0
M  V30 1160 H 109.903 0.883349 -1.13723 0
M  V30 1161 H 111.856 4.01775 -1.27103 0
M  V30 1162 H 110.58 3.25296 -0.291564 0
M  V30 1163 H 109.239 2.79351 -2.37399 0
M  V30 1164 H 108.887 4.91052 -1.0898 0
M  V30 1165 H 108.587 5.14992 -2.82943 0
M  V30 1166 H 110.111 5.73289 -2.10171 0
M  V30 1167 H 111.525 4.26293 -3.83337 0
M  V30 1168 H 109.922 3.91804 -4.54543 0
M  V30 1169 H 110.992 2.57328 -4.10987 0
M  V30 1170 N 112.336 1.25143 0.95797 0
M  V30 1171 C 113.284 1.05019 2.07542 0
M  V30 1172 C 114.278 -0.0178751 1.69391 0
M  V30 1173 O 115.484 0.137472 1.79474 0
M  V30 1174 H 111.859 0.32265 0.679265 0
M  V30 1175 H 113.83 1.99759 2.21673 0
M  V30 1176 C 112.579 0.682074 3.40944 0
M  V30 1177 H 111.902 1.49573 3.70767 0
M  V30 1178 H 113.342 0.580945 4.20001 0
M  V30 1179 C 111.801 -0.611608 3.31302 0
M  V30 1180 O 112.331 -1.65465 3.66038 0
M  V30 1181 N 110.537 -0.595982 2.84423 0
M  V30 1182 H 110.084 0.253192 2.56353 0
M  V30 1183 H 110.042 -1.46173 2.78354 0
M  V30 1184 N 113.814 -1.1601 1.06675 0
M  V30 1185 C 115.225 -1.68235 0.809565 0
M  V30 1186 C 115.576 -1.8454 -0.666303 0
M  V30 1187 O 114.701 -1.54374 -1.5165 0
M  V30 1188 C 115.296 -3.05585 1.46299 0
M  V30 1189 C 113.855 -3.54915 1.25349 0
M  V30 1190 C 113.002 -2.30804 1.53703 0
M  V30 1191 H 115.953 -1.00318 1.22971 0
M  V30 1192 H 115.974 -3.70174 0.880431 0
M  V30 1193 H 115.486 -2.93686 2.53713 0
M  V30 1194 H 113.587 -3.72067 0.199261 0
M  V30 1195 H 113.7 -4.36774 1.9689 0
M  V30 1196 H 112.064 -2.36007 0.957739 0
M  V30 1197 H 112.847 -2.21499 2.62284 0
M  V30 1198 N 115.292 -0.849877 -1.32721 0
M  V30 1199 C 116.569 -0.372405 -1.92022 0
M  V30 1200 C 116.949 1.1435 -1.77447 0
M  V30 1201 O 116.297 1.96296 -1.16962 0
M  V30 1202 C 116.507 -0.831482 -3.3895 0
M  V30 1203 C 117.855 -0.845882 -4.16089 0
M  V30 1204 O 118.879 -0.775806 -3.47649 0
M  V30 1205 O 117.738 -0.943753 -5.38289 0
M  V30 1206 H 114.832 -0.107667 -0.819961 0
M  V30 1207 H 117.378 -0.93646 -1.41522 0
M  V30 1208 H 116.15 -1.87448 -3.4348 0
M  V30 1209 H 115.773 -0.24461 -3.96847 0
M  V30 1210 N 116.77 1.45427 -0.607355 0
M  V30 1211 C 118.01 2.04128 -0.105458 0
M  V30 1212 C 118.374 1.46555 1.24039 0
M  V30 1213 O 119.575 1.96608 1.833 0
M  V30 1214 C 117.846 3.57338 -0.0665324 0
M  V30 1215 S 119.405 4.37201 0.374207 0
M  V30 1216 H 116.223 0.709278 -0.0494575 0
M  V30 1217 H 118.825 1.78139 -0.805404 0
M  V30 1218 H 117.529 3.96752 -1.04957 0
M  V30 1219 H 117.06 3.87902 0.655415 0
M  V30 1220 H 119.075 4.6888 1.62377 0
M  V30 1221 N 118.248 0.346503 1.53744 0
M  V30 1222 C 119.525 -0.304532 1.93215 0
M  V30 1223 C 119.905 -1.67993 1.27834 0
M  V30 1224 O 119.253 -2.24411 0.430352 0
M  V30 1225 C 119.463 -0.373852 3.46992 0
M  V30 1226 C 120.811 -0.62329 4.2 0
M  V30 1227 O 121.835 -0.455847 3.53271 0
M  V30 1228 O 120.694 -0.947879 5.38217 0
M  V30 1229 H 117.788 -0.178318 0.807547 0
M  V30 1230 H 120.334 0.397895 1.64969 0
M  V30 1231 H 119.106 0.591224 3.86808 0
M  V30 1232 H 118.729 -1.12294 3.81413 0
M  V30 1233 N 119.726 -1.57421 0.075193 0
M  V30 1234 C 120.636 -2.1642 -0.905511 0
M  V30 1235 C 121.652 -1.12828 -1.32461 0
M  V30 1236 O 122.828 -1.45109 -1.39661 0
M  V30 1237 C 119.893 -2.71693 -2.15369 0
M  V30 1238 C 118.954 -3.90171 -1.79068 0
M  V30 1239 C 118.187 -4.42798 -2.97936 0
M  V30 1240 O 118.41 -3.94416 -4.12058 0
M  V30 1241 O 117.344 -5.34085 -2.77555 0
M  V30 1242 H 121.17 -3.00588 -0.433626 0
M  V30 1243 H 118.755 -1.48664 -0.148067 0
M  V30 1244 H 120.637 -3.07104 -2.88557 0
M  V30 1245 H 119.312 -1.90582 -2.61649 0
M  V30 1246 H 118.219 -3.59606 -1.03122 0
M  V30 1247 H 119.552 -4.72584 -1.37569 0
M  V30 1248 N 121.204 0.198386 -1.56346 0
M  V30 1249 C 122.134 1.24865 -1.9731 0
M  V30 1250 C 123.115 1.47651 -0.844576 0
M  V30 1251 O 124.3 1.59444 -1.10866 0
M  V30 1252 C 121.43 2.59358 -2.30977 0
M  V30 1253 C 120.384 2.5119 -3.46537 0
M  V30 1254 C 119.71 3.89926 -3.65871 0
M  V30 1255 C 121.01 2.03977 -4.80823 0
M  V30 1256 H 122.704 0.908252 -2.85291 0
M  V30 1257 H 120.25 0.435462 -1.37258 0
M  V30 1258 H 122.203 3.33011 -2.58228 0
M  V30 1259 H 120.927 2.95132 -1.39874 0
M  V30 1260 H 119.586 1.79993 -3.19371 0
M  V30 1261 H 119.234 4.23046 -2.72105 0
M  V30 1262 H 118.934 3.85336 -4.4361 0
M  V30 1263 H 120.458 4.65205 -3.95495 0
M  V30 1264 H 121.872 2.67386 -5.07127 0
M  V30 1265 H 120.269 2.10397 -5.62008 0
M  V30 1266 H 121.339 0.992861 -4.74626 0
M  V30 1267 N 122.682 1.50554 0.465978 0
M  V30 1268 C 123.645 1.69233 1.54574 0
M  V30 1269 C 124.645 0.562901 1.50626 0
M  V30 1270 O 125.835 0.830016 1.53155 0
M  V30 1271 C 122.967 1.7223 2.94193 0
M  V30 1272 H 124.16 2.65571 1.39327 0
M  V30 1273 H 121.713 1.40111 0.692711 0
M  V30 1274 H 122.448 0.77603 3.14878 0
M  V30 1275 H 122.233 2.54285 2.98466 0
M  V30 1276 H 123.723 1.88618 3.72576 0
M  V30 1277 N 124.16 -0.719506 1.40217 0
M  V30 1278 C 125.437 -1.47221 1.28784 0
M  V30 1279 C 125.817 -2.10883 -0.0956067 0
M  V30 1280 O 125.165 -1.99833 -1.10811 0
M  V30 1281 C 125.375 -2.5111 2.42373 0
M  V30 1282 C 126.723 -3.17053 2.82423 0
M  V30 1283 O 127.747 -2.61429 2.41937 0
M  V30 1284 O 126.606 -4.17742 3.52355 0
M  V30 1285 H 123.7 -0.654491 0.50554 0
M  V30 1286 H 126.246 -0.752014 1.52128 0
M  V30 1287 H 125.018 -2.02556 3.34793 0
M  V30 1288 H 124.641 -3.3067 2.20778 0
M  V30 1289 N 125.638 -1.25649 -0.95132 0
M  V30 1290 C 126.588 -1.03004 -2.03406 0
M  V30 1291 C 127.572 0.034187 -1.60864 0
M  V30 1292 O 128.764 -0.181549 -1.76066 0
M  V30 1293 C 125.893 -0.654255 -3.37008 0
M  V30 1294 C 124.979 -1.75542 -3.86065 0
M  V30 1295 N 125.37 -2.99113 -4.07879 0
M  V30 1296 C 123.668 -1.63669 -4.14884 0
M  V30 1297 C 124.369 -3.70611 -4.48356 0
M  V30 1298 N 123.345 -2.98247 -4.54477 0
M  V30 1299 H 127.147 -1.96813 -2.1827 0
M  V30 1300 H 124.661 -1.16017 -1.13639 0
M  V30 1301 H 126.658 -0.473206 -4.14206 0
M  V30 1302 H 125.318 0.276468 -3.23521 0
M  V30 1303 H 126.329 -3.35124 -3.94857 0
M  V30 1304 H 123.006 -0.775161 -4.10241 0
M  V30 1305 H 124.396 -4.76695 -4.73509 0
M  V30 1306 N 127.117 1.15442 -1.07289 0
M  V30 1307 C 128.366 1.85557 -0.790669 0
M  V30 1308 C 128.679 1.83186 0.685739 0
M  V30 1309 O 129.885 2.48977 1.0827 0
M  V30 1310 C 128.341 3.33038 -1.36433 0
M  V30 1311 C 127.949 3.43856 -2.8717 0
M  V30 1312 C 129.693 4.0834 -1.1601 0
M  V30 1313 C 127.6 4.85482 -3.3773 0
M  V30 1314 H 126.53 0.695122 -0.292098 0
M  V30 1315 H 129.181 1.30219 -1.29287 0
M  V30 1316 H 127.563 3.88043 -0.789864 0
M  V30 1317 H 128.737 2.98961 -3.50655 0
M  V30 1318 H 127.052 2.81998 -3.06376 0
M  V30 1319 H 129.649 5.12859 -1.51262 0
M  V30 1320 H 129.992 4.16182 -0.0991007 0
M  V30 1321 H 130.525 3.59603 -1.70089 0
M  V30 1322 H 127.264 4.82823 -4.43353 0
M  V30 1323 H 126.784 5.30961 -2.78999 0
M  V30 1324 H 128.463 5.54335 -3.33648 0
M  V30 1325 N 128.595 0.856903 1.32268 0
M  V30 1326 C 129.843 0.460474 1.96784 0
M  V30 1327 C 130.164 -0.987701 1.68135 0
M  V30 1328 O 129.434 -1.69058 0.989765 0
M  V30 1329 H 128.014 0.167289 0.728027 0
M  V30 1330 H 130.676 1.09383 1.61312 0
M  V30 1331 H 129.772 0.60739 3.06133 0
M  V30 1332 N 130.073 -1.45103 0.615059 0
M  V30 1333 C 131.32 -2.02183 0.113179 0
M  V30 1334 C 131.648 -1.48249 -1.25906 0
M  V30 1335 O 130.903 -0.650265 -1.84581 0
M  V30 1336 C 131.202 -3.57386 0.0318797 0
M  V30 1337 C 130.868 -4.30505 1.34077 0
M  V30 1338 C 129.53 -4.50197 1.69929 0
M  V30 1339 C 131.882 -4.72238 2.20546 0
M  V30 1340 C 129.21 -5.08881 2.91988 0
M  V30 1341 C 131.562 -5.32272 3.41861 0
M  V30 1342 C 130.226 -5.50187 3.77956 0
M  V30 1343 H 129.496 -0.739842 0.0414151 0
M  V30 1344 H 132.143 -1.74073 0.798168 0
M  V30 1345 H 130.448 -3.84817 -0.736409 0
M  V30 1346 H 132.145 -3.99264 -0.372712 0
M  V30 1347 H 128.735 -4.15496 1.05173 0
M  V30 1348 H 132.919 -4.56751 1.94146 0
M  V30 1349 H 128.175 -5.20939 3.2005 0
M  V30 1350 H 132.349 -5.63563 4.09109 0
M  V30 1351 H 129.976 -5.95427 4.72622 0
M  V30 1352 N 131.551 -0.354651 -1.53558 0
M  V30 1353 C 132.483 0.5315 -2.22952 0
M  V30 1354 C 133.496 1.05503 -1.23988 0
M  V30 1355 O 134.685 0.963279 -1.50277 0
M  V30 1356 C 131.785 1.74538 -2.90499 0
M  V30 1357 C 130.958 1.35524 -4.15875 0
M  V30 1358 C 130.017 2.42999 -4.66731 0
M  V30 1359 O 129.043 2.05844 -5.30676 0
M  V30 1360 N 130.245 3.74423 -4.43608 0
M  V30 1361 H 133.01 -0.0628615 -2.99634 0
M  V30 1362 H 130.571 -0.179302 -1.60904 0
M  V30 1363 H 132.563 2.45892 -3.21433 0
M  V30 1364 H 131.133 2.24686 -2.17336 0
M  V30 1365 H 130.353 0.471998 -3.91364 0
M  V30 1366 H 131.641 1.07071 -4.97406 0
M  V30 1367 H 131.039 4.07391 -3.92491 0
M  V30 1368 H 129.596 4.41913 -4.7912 0
M  V30 1369 N 133.029 1.57378 -0.0835403 0
M  V30 1370 C 133.939 2.16897 0.894021 0
M  V30 1371 C 134.955 1.13528 1.31861 0
M  V30 1372 O 136.131 1.45848 1.3889 0
M  V30 1373 C 133.196 2.72831 2.13925 0
M  V30 1374 C 132.257 3.91115 1.76997 0
M  V30 1375 C 131.49 4.44371 2.95584 0
M  V30 1376 O 131.713 3.96596 4.09961 0
M  V30 1377 O 130.647 5.35549 2.74719 0
M  V30 1378 H 134.473 3.00814 0.417679 0
M  V30 1379 H 132.058 1.48741 0.140181 0
M  V30 1380 H 133.94 3.0863 2.86924 0
M  V30 1381 H 132.615 1.91967 2.60635 0
M  V30 1382 H 131.522 3.60148 1.01214 0
M  V30 1383 H 132.855 4.73307 1.3506 0
M  V30 1384 N 134.507 -0.190092 1.56449 0
M  V30 1385 C 135.47 -1.21925 1.9408 0
M  V30 1386 C 136.47 -1.38176 0.822431 0
M  V30 1387 O 137.66 -1.35903 1.08977 0
M  V30 1388 C 134.792 -2.58773 2.21922 0
M  V30 1389 H 135.985 -0.897464 2.86157 0
M  V30 1390 H 133.538 -0.43181 1.50217 0
M  V30 1391 H 134.273 -2.95998 1.32499 0
M  V30 1392 H 134.058 -2.48348 3.03424 0
M  V30 1393 H 135.548 -3.32978 2.52022 0
M  V30 1394 N 135.985 -1.50799 -0.457987 0
M  V30 1395 C 137.215 -1.65977 -1.23025 0
M  V30 1396 C 137.623 -0.347918 -1.85974 0
M  V30 1397 O 136.966 0.68148 -1.70592 0
M  V30 1398 C 137.028 -2.70309 -2.3701 0
M  V30 1399 C 136.692 -4.135 -1.94594 0
M  V30 1400 C 137.689 -4.98949 -1.46101 0
M  V30 1401 C 135.374 -4.5949 -2.02915 0
M  V30 1402 C 137.368 -6.28442 -1.06489 0
M  V30 1403 C 135.055 -5.88984 -1.62914 0
M  V30 1404 C 136.053 -6.73286 -1.1478 0
M  V30 1405 O 135.741 -8.00362 -0.75339 0
M  V30 1406 H 135.473 -0.56064 -0.377702 0
M  V30 1407 H 138.027 -1.97857 -0.551537 0
M  V30 1408 H 136.257 -2.337 -3.08093 0
M  V30 1409 H 137.946 -2.74574 -2.98938 0
M  V30 1410 H 138.712 -4.6463 -1.39084 0
M  V30 1411 H 134.591 -3.94009 -2.39328 0
M  V30 1412 H 138.135 -6.94194 -0.688488 0
M  V30 1413 H 134.032 -6.22822 -1.69595 0
M  V30 1414 H 134.8 -8.13744 -0.88108 0
M  V30 1415 N 137.463 0.71206 -1.40597 0
M  V30 1416 C 138.879 1.02058 -1.22704 0
M  V30 1417 C 139.079 2.01228 -0.104729 0
M  V30 1418 O 138.135 2.4674 0.53624 0
M  V30 1419 C 139.448 1.56094 -2.57012 0
M  V30 1420 C 140.996 1.6806 -2.64054 0
M  V30 1421 C 141.471 2.25501 -3.9864 0
M  V30 1422 N 142.962 2.32882 -4.004 0
M  V30 1423 C 143.697 2.78317 -5.01325 0
M  V30 1424 N 143.193 3.23478 -6.12645 0
M  V30 1425 N 144.986 2.77733 -4.88693 0
M  V30 1426 H 137.137 0.0547896 -2.12329 0
M  V30 1427 H 139.4 0.0869027 -0.944008 0
M  V30 1428 H 139.106 0.906865 -3.39807 0
M  V30 1429 H 138.98 2.54564 -2.78347 0
M  V30 1430 H 141.367 2.32583 -1.81629 0
M  V30 1431 H 141.448 0.681802 -2.46546 0
M  V30 1432 H 141.092 1.61598 -4.81506 0
M  V30 1433 H 141.022 3.26102 -4.13479 0
M  V30 1434 H 143.513 2.00991 -3.20017 0
M  V30 1435 H 143.826 3.56725 -6.85542 0
M  V30 1436 H 142.171 3.21429 -6.16205 0
M  V30 1437 H 145.362 2.4179 -4.00818 0
M  V30 1438 H 145.535 3.12826 -5.67489 0
M  V30 1439 N 138.941 1.26152 0.944643 0
M  V30 1440 C 140.357 1.03189 1.21754 0
M  V30 1441 C 140.557 -0.245112 2.00004 0
M  V30 1442 O 139.613 -0.955176 2.33736 0
M  V30 1443 C 140.926 2.26119 1.98219 0
M  V30 1444 C 142.474 2.30984 2.11224 0
M  V30 1445 C 142.949 3.53597 2.91089 0
M  V30 1446 N 144.44 3.54053 2.98664 0
M  V30 1447 C 145.175 4.45593 3.60881 0
M  V30 1448 N 144.671 5.47416 4.24626 0
M  V30 1449 N 146.464 4.33252 3.58119 0
M  V30 1450 H 138.615 2.08177 0.421437 0
M  V30 1451 H 140.878 0.914723 0.248969 0
M  V30 1452 H 140.584 3.18984 1.48128 0
M  V30 1453 H 140.458 2.3009 2.98895 0
M  V30 1454 H 142.845 1.38635 2.60508 0
M  V30 1455 H 142.926 2.31026 1.09821 0
M  V30 1456 H 142.57 4.46273 2.42493 0
M  V30 1457 H 142.5 3.50802 3.92741 0
M  V30 1458 H 144.991 2.80403 2.53343 0
M  V30 1459 H 145.304 6.13459 4.69987 0
M  V30 1460 H 143.649 5.51278 4.23223 0
M  V30 1461 H 146.84 3.52924 3.0751 0
M  V30 1462 H 147.013 5.04786 4.06319 0
M  V30 1463 N 140.419 -1.14872 1.07899 0
M  V30 1464 C 141.666 -1.85789 0.805532 0
M  V30 1465 C 141.994 -1.82649 -0.668561 0
M  V30 1466 O 141.249 -1.24858 -1.50695 0
M  V30 1467 C 141.548 -3.34223 1.26609 0
M  V30 1468 C 141.214 -3.57555 2.74709 0
M  V30 1469 C 139.876 -3.63631 3.1516 0
M  V30 1470 C 142.228 -3.66803 3.70277 0
M  V30 1471 C 139.556 -3.76473 4.49983 0
M  V30 1472 C 141.908 -3.8117 5.04869 0
M  V30 1473 C 140.572 -3.85494 5.44932 0
M  V30 1474 H 139.842 -0.679849 0.294765 0
M  V30 1475 H 142.489 -1.3572 1.35101 0
M  V30 1476 H 140.794 -3.86536 0.640103 0
M  V30 1477 H 142.491 -3.87511 1.03132 0
M  V30 1478 H 139.081 -3.5347 2.42398 0
M  V30 1479 H 143.265 -3.61404 3.40149 0
M  V30 1480 H 138.521 -3.7808 4.80484 0
M  V30 1481 H 142.695 -3.87268 5.78789 0
M  V30 1482 H 140.322 -3.95197 6.49403 0
M  V30 1483 N 141.898 -0.863906 -1.31812 0
M  V30 1484 C 143.128 -0.485406 -2.00817 0
M  V30 1485 C 143.536 0.925007 -1.65046 0
M  V30 1486 O 142.879 1.61653 -0.872574 0
M  V30 1487 C 142.941 -0.555589 -3.55181 0
M  V30 1488 C 142.605 -1.92654 -4.14407 0
M  V30 1489 C 143.602 -2.89324 -4.31958 0
M  V30 1490 C 141.287 -2.2262 -4.50273 0
M  V30 1491 C 143.281 -4.14108 -4.84555 0
M  V30 1492 C 140.968 -3.47654 -5.02573 0
M  V30 1493 C 141.966 -4.43214 -5.19664 0
M  V30 1494 O 141.654 -5.66033 -5.70843 0
M  V30 1495 H 141.386 -0.188224 -0.649267 0
M  V30 1496 H 143.94 -1.16514 -1.69156 0
M  V30 1497 H 142.17 0.181037 -3.86276 0
M  V30 1498 H 143.859 -0.19138 -4.05449 0
M  V30 1499 H 144.625 -2.6748 -4.04573 0
M  V30 1500 H 140.504 -1.4902 -4.3625 0
M  V30 1501 H 144.048 -4.88703 -4.9781 0
M  V30 1502 H 139.945 -3.69345 -5.29391 0
M  V30 1503 H 140.713 -5.6812 -5.89222 0
M  V30 1504 N 143.376 1.44774 -0.622745 0
M  V30 1505 C 144.624 2.01721 -0.123655 0
M  V30 1506 C 144.945 1.49172 1.25589 0
M  V30 1507 O 144.215 0.691974 1.83272 0
M  V30 1508 H 142.795 0.745777 -0.0427225 0
M  V30 1509 H 145.457 1.77382 -0.807559 0
M  V30 1510 H 144.553 3.11984 -0.0849534 0
M  V30 1511 N 144.854 0.36279 1.53368 0
M  V30 1512 C 146.265 -0.117022 1.86333 0
M  V30 1513 C 146.616 -1.48397 1.28347 0
M  V30 1514 O 145.741 -2.07787 0.604428 0
M  V30 1515 C 146.336 -0.21912 3.38091 0
M  V30 1516 C 144.895 -0.643184 3.70864 0
M  V30 1517 C 144.042 0.211318 2.76494 0
M  V30 1518 H 146.993 0.581687 1.47655 0
M  V30 1519 H 147.014 -1.04319 3.6592 0
M  V30 1520 H 146.526 0.775902 3.80265 0
M  V30 1521 H 144.627 -1.64654 3.34245 0
M  V30 1522 H 144.74 -0.41973 4.77258 0
M  V30 1523 H 143.104 -0.319367 2.5269 0
M  V30 1524 H 143.887 1.20383 3.21501 0
M  V30 1525 N 146.332 -1.57332 0.0918853 0
M  V30 1526 C 147.578 -1.94524 -0.573425 0
M  V30 1527 C 147.911 -0.973578 -1.68033 0
M  V30 1528 O 147.186 -0.00609226 -1.94499 0
M  V30 1529 C 147.469 -3.41858 -1.13161 0
M  V30 1530 C 147.322 -4.4979 -0.0299747 0
M  V30 1531 C 148.641 -3.90435 -2.03098 0
M  V30 1532 H 145.76 -0.70734 -0.206975 0
M  V30 1533 H 148.402 -1.89309 0.161942 0
M  V30 1534 H 146.552 -3.46433 -1.7583 0
M  V30 1535 H 148.224 -4.57327 0.604112 0
M  V30 1536 H 146.467 -4.291 0.636833 0
M  V30 1537 H 147.138 -5.50069 -0.461287 0
M  V30 1538 H 149.614 -3.87992 -1.50338 0
M  V30 1539 H 148.49 -4.94097 -2.39081 0
M  V30 1540 H 148.751 -3.29541 -2.94712 0
M  V30 1541 O 147.849 0.0482292 -1.61428 0
M  V30 1542 H 148.54 0.671226 -1.81698 0
M  V30 END ATOM
M  V30 BEGIN BOND
M  V30 END BOND
M  V30 END CTAB
M  END
$$$$
