drugbank_target|Q8RQE8 DNA-directed RNA polymerase subunit beta' (DB04788; DB08226; DB08266)
 OpenBabel12092120303D

  0  0  0     0  0            999 V3000
M  V30 BEGIN CTAB
M  V30 COUNTS 34135 36446 0 0 0
M  V30 BEGIN ATOM
M  V30 1 H -2.588 8.49073 -0.0679273 0
M  V30 2 O -1.492 9.37262 0.0843559 0
M  V30 3 P 0 8.791 0 0
M  V30 4 O 1.422 9.31096 0.027933 0
M  V30 5 O -0.36 7.77869 -1.04071 0
M  V30 6 O -0.323 8.09533 1.41463 0
M  V30 7 C -0.483 9.0349 2.53943 0
M  V30 8 C 0.057 8.35226 3.79016 0
M  V30 9 O -0.999 7.57992 4.15078 0
M  V30 10 C 1.275 7.45087 3.67298 0
M  V30 11 O 2.013 7.27796 4.85194 0
M  V30 12 C 0.606 6.17323 3.12027 0
M  V30 13 O 1.405 5.04231 3.47188 0
M  V30 14 C -0.731 6.19961 3.81809 0
M  V30 15 H -0.699 5.58218 4.73051 0
M  V30 16 H 0.484 6.21726 2.02589 0
M  V30 17 H 1.968 7.86112 2.9231 0
M  V30 18 H 0.274 9.11627 4.55076 0
M  V30 19 H 0.084 9.9573 2.34194 0
M  V30 20 H -1.546 9.2792 2.67832 0
M  V30 21 H 1.093 4.67702 4.28772 0
M  V30 22 P 2.95057 7.39546 4.75277 0
M  V30 23 O 4.37257 7.81777 5.05738 0
M  V30 24 O 2.59057 7.1065 3.32998 0
M  V30 25 O 2.62757 6.04542 5.56673 0
M  V30 26 C 2.46757 6.22772 7.02095 0
M  V30 27 C 3.00757 4.97725 7.70406 0
M  V30 28 O 1.95157 4.13256 7.58987 0
M  V30 29 C 4.22557 4.28231 7.11815 0
M  V30 30 O 4.96357 3.49945 8.01648 0
M  V30 31 C 3.55657 3.5063 5.96244 0
M  V30 32 O 4.35557 2.36482 5.64681 0
M  V30 33 C 2.21957 3.15122 6.56374 0
M  V30 34 H 2.25157 2.13853 6.99751 0
M  V30 35 H 3.43457 4.13501 5.06559 0
M  V30 36 H 4.91857 5.03285 6.70911 0
M  V30 37 H 3.22457 5.20877 8.75697 0
M  V30 38 H 3.03457 7.11046 7.35349 0
M  V30 39 H 1.40457 6.35815 7.26986 0
M  V30 40 H 4.04357 1.61644 6.13565 0
M  V30 41 P 5.90114 3.65191 7.99657 0
M  V30 42 O 7.32314 3.8425 8.48115 0
M  V30 43 O 5.54114 4.17805 6.64342 0
M  V30 44 O 5.57814 2.07613 7.95143 0
M  V30 45 C 5.41814 1.44328 9.27336 0
M  V30 46 C 5.95814 0.0220036 9.17197 0
M  V30 47 O 4.90214 -0.626867 8.61923 0
M  V30 48 C 7.17614 -0.24586 8.30336 0
M  V30 49 O 7.91414 -1.39011 8.63583 0
M  V30 50 C 6.50714 -0.273849 6.91158 0
M  V30 51 O 7.30614 -1.06348 6.02892 0
M  V30 52 C 5.17014 -0.897649 7.22545 0
M  V30 53 H 5.20214 -1.9841 7.04286 0
M  V30 54 H 6.38514 0.739928 6.497 0
M  V30 55 H 7.86914 0.60668 8.36503 0
M  V30 56 H 6.17514 -0.352479 10.1829 0
M  V30 57 H 5.98514 2.00611 10.0304 0
M  V30 58 H 4.35514 1.41843 9.55327 0
M  V30 59 H 6.99414 -1.95734 6.03555 0
M  V30 60 P 8.85171 -1.25109 8.70152 0
M  V30 61 O 10.2737 -1.35274 9.21221 0
M  V30 62 O 8.49171 -0.0769065 7.84762 0
M  V30 63 O 8.52871 -2.55232 7.81161 0
M  V30 64 C 8.36871 -3.79939 8.58154 0
M  V30 65 C 8.90871 -4.94023 7.72785 0
M  V30 66 O 7.85271 -5.18726 6.91205 0
M  V30 67 C 10.1267 -4.69597 6.85231 0
M  V30 68 O 10.8647 -5.83832 6.51337 0
M  V30 69 C 9.45771 -3.96706 5.66633 0
M  V30 70 O 10.2567 -4.15414 4.49689 0
M  V30 71 C 8.12071 -4.66153 5.59313 0
M  V30 72 H 8.15271 -5.47679 4.85214 0
M  V30 73 H 9.33571 -2.89008 5.86566 0
M  V30 74 H 10.8197 -4.0121 7.36511 0
M  V30 75 H 9.12571 -5.80182 8.37584 0
M  V30 76 H 8.93571 -3.73517 9.52265 0
M  V30 77 H 7.30571 -3.97163 8.80359 0
M  V30 78 H 9.94471 -4.90969 4.01921 0
M  V30 79 P 11.8023 -5.75688 6.64379 0
M  V30 80 O 13.2243 -6.11849 7.01846 0
M  V30 81 O 11.4423 -4.30744 6.56026 0
M  V30 82 O 11.4793 -6.37042 5.19165 0
M  V30 83 C 11.3193 -7.83578 5.16515 0
M  V30 84 C 11.8593 -8.33398 3.83019 0
M  V30 85 O 10.8033 -8.10074 3.01034 0
M  V30 86 C 13.0773 -7.65514 3.2257 0
M  V30 87 O 13.8153 -8.4329 2.32297 0
M  V30 88 C 12.4083 -6.40075 2.62207 0
M  V30 89 O 13.2073 -5.92589 1.53712 0
M  V30 90 C 11.0713 -6.9454 2.18503 0
M  V30 91 H 11.1033 -7.23063 1.12091 0
M  V30 92 H 12.2863 -5.6025 3.37201 0
M  V30 93 H 13.7703 -7.35707 4.02681 0
M  V30 94 H 12.0763 -9.40912 3.9095 0
M  V30 95 H 11.8863 -8.29056 5.99158 0
M  V30 96 H 10.2563 -8.10073 5.25882 0
M  V30 97 H 12.8953 -6.30324 0.726794 0
M  V30 98 P 14.7528 -8.4349 2.47671 0
M  V30 99 O 16.1738 -8.94263 2.59668 0
M  V30 100 O 14.3928 -7.1704 3.19006 0
M  V30 101 O 14.4298 -8.16596 0.923387 0
M  V30 102 C 14.2688 -9.38537 0.108869 0
M  V30 103 C 14.8098 -9.08175 -1.28353 0
M  V30 104 O 13.7548 -8.44131 -1.84692 0
M  V30 105 C 16.0278 -8.18386 -1.42505 0
M  V30 106 O 16.7659 -8.3501 -2.60497 0
M  V30 107 C 15.3598 -6.80225 -1.25468 0
M  V30 108 O 16.1578 -5.81716 -1.90454 0
M  V30 109 C 14.0218 -7.02416 -1.9168 0
M  V30 110 N 12.9788 -6.31033 -1.20314 0
M  V30 111 C 13.1478 -5.98817 0.0994088 0
M  V30 112 N 12.1208 -5.35403 0.621694 0
M  V30 113 C 11.2358 -5.25212 -0.43376 0
M  V30 114 C 9.96885 -4.64602 -0.519722 0
M  V30 115 N 9.40385 -4.7568 -1.76013 0
M  V30 116 C 10.0058 -5.3653 -2.83017 0
M  V30 117 N 11.1828 -5.93676 -2.79782 0
M  V30 118 C 11.7578 -5.84061 -1.56249 0
M  V30 119 H 15.2368 -6.53498 -0.198729 0
M  V30 120 H 16.7198 -8.36622 -0.589963 0
M  V30 121 H 15.0258 -10.0273 -1.8081 0
M  V30 122 H 14.8358 -10.2138 0.558219 0
M  V30 123 H 13.2058 -9.6579 0.0444202 0
M  V30 124 H 14.0478 -6.23209 0.660562 0
M  V30 125 H 15.8458 -5.69466 -2.79593 0
M  V30 126 P 17.7034 -8.4349 -2.47671 0
M  V30 127 O 19.1254 -8.92593 -2.65 0
M  V30 128 O 17.3434 -7.7568 -1.19296 0
M  V30 129 O 17.3804 -7.36886 -3.63805 0
M  V30 130 C 17.2204 -7.95349 -4.982 0
M  V30 131 C 17.7604 -6.94612 -5.98974 0
M  V30 132 O 16.7044 -6.10347 -6.11815 0
M  V30 133 C 18.9784 -6.11426 -5.62335 0
M  V30 134 O 19.7164 -5.6162 -6.70584 0
M  V30 135 C 18.3094 -5.04409 -4.73308 0
M  V30 136 O 19.1084 -3.85992 -4.75183 0
M  V30 137 C 16.9724 -4.8728 -5.41006 0
M  V30 138 H 17.0044 -4.02333 -6.11157 0
M  V30 139 H 18.1874 -5.39466 -3.69543 0
M  V30 140 H 19.6714 -6.71916 -5.01943 0
M  V30 141 H 17.9774 -7.4649 -6.93477 0
M  V30 142 H 17.7874 -8.89416 -5.05237 0
M  V30 143 H 16.1574 -8.14876 -5.18409 0
M  V30 144 H 18.7964 -3.27957 -5.4317 0
M  V30 145 P 20.654 -5.75688 -6.64379 0
M  V30 146 O 22.076 -6.07627 -7.05504 0
M  V30 147 O 20.294 -5.88047 -5.19722 0
M  V30 148 O 20.331 -4.2322 -7.04443 0
M  V30 149 C 20.171 -3.99743 -8.4911 0
M  V30 150 C 20.711 -2.60516 -8.79425 0
M  V30 151 O 19.655 -1.82684 -8.4467 0
M  V30 152 C 21.929 -2.10343 -8.03628 0
M  V30 153 O 22.667 -1.09919 -8.67766 0
M  V30 154 C 21.26 -1.68446 -6.70876 0
M  V30 155 O 22.059 -0.678137 -6.08433 0
M  V30 156 C 19.923 -1.17436 -7.18567 0
M  V30 157 H 19.955 -0.0804732 -7.31656 0
M  V30 158 H 21.138 -2.54037 -6.02537 0
M  V30 159 H 22.622 -2.93881 -7.85526 0
M  V30 160 H 20.928 -2.53065 -9.86973 0
M  V30 161 H 20.738 -4.75072 -9.05887 0
M  V30 162 H 19.108 -4.05244 -8.76668 0
M  V30 163 H 21.747 0.177647 -6.34251 0
M  V30 164 P 23.6046 -1.25109 -8.70152 0
M  V30 165 O 25.0256 -1.29758 -9.22115 0
M  V30 166 O 23.2446 -2.13714 -7.55141 0
M  V30 167 O 23.2816 0.248149 -8.21425 0
M  V30 168 C 23.1206 1.22792 -9.30533 0
M  V30 169 C 23.6616 2.56293 -8.80664 0
M  V30 170 O 22.6066 3.02944 -8.09255 0
M  V30 171 C 24.8796 2.57523 -7.89775 0
M  V30 172 O 25.6176 3.7668 -7.89438 0
M  V30 173 C 24.2116 2.20997 -6.55446 0
M  V30 174 O 25.0096 2.71302 -5.48691 0
M  V30 175 C 22.8736 2.89693 -6.67988 0
M  V30 176 N 21.8306 2.08895 -6.07487 0
M  V30 177 C 21.9996 0.753809 -5.94137 0
M  V30 178 N 20.9726 0.146592 -5.38801 0
M  V30 179 C 20.0876 1.1768 -5.13693 0
M  V30 180 C 18.8206 1.17563 -4.52477 0
M  V30 181 N 18.2556 2.41918 -4.45789 0
M  V30 182 C 18.8576 3.56493 -4.90792 0
M  V30 183 N 20.0346 3.61423 -5.47817 0
M  V30 184 C 20.6096 2.37779 -5.5588 0
M  V30 185 H 24.0886 1.12673 -6.44018 0
M  V30 186 H 25.5716 1.7746 -8.19711 0
M  V30 187 H 23.8776 3.21673 -9.66791 0
M  V30 188 H 23.6876 0.901032 -10.1892 0
M  V30 189 H 22.0576 1.33049 -9.56592 0
M  V30 190 H 22.8996 0.233081 -6.26266 0
M  V30 191 H 24.6976 3.5779 -5.23879 0
M  V30 192 P 26.5551 3.65191 -7.99657 0
M  V30 193 O 27.9771 3.89332 -8.45794 0
M  V30 194 O 26.1951 2.28472 -7.50807 0
M  V30 195 O 26.2321 4.64972 -6.77611 0
M  V30 196 C 26.0721 6.06319 -7.16352 0
M  V30 197 C 26.6121 6.91731 -6.02299 0
M  V30 198 O 25.5561 6.92449 -5.17064 0
M  V30 199 C 27.8301 6.43627 -5.25174 0
M  V30 200 O 28.5681 7.43686 -4.60469 0
M  V30 201 C 27.1611 5.40275 -4.31916 0
M  V30 202 O 27.9601 5.25279 -3.14438 0
M  V30 203 C 25.8241 6.04847 -4.05327 0
M  V30 204 H 25.8561 6.62195 -3.11261 0
M  V30 205 H 27.0391 4.42556 -4.81383 0
M  V30 206 H 28.5231 5.92458 -5.93643 0
M  V30 207 H 26.8291 7.92655 -6.402 0
M  V30 208 H 26.6391 6.26671 -8.0846 0
M  V30 209 H 25.0091 6.29101 -7.32804 0
M  V30 210 H 27.6481 5.84315 -2.47318 0
M  V30 211 P 29.5057 7.39546 -4.75277 0
M  V30 212 O 30.9267 7.84882 -5.01092 0
M  V30 213 O 29.1457 5.9812 -5.08098 0
M  V30 214 O 29.1827 7.57503 -3.1866 0
M  V30 215 C 29.0217 8.97452 -2.74862 0
M  V30 216 C 29.5627 9.07548 -1.32709 0
M  V30 217 O 28.5077 8.61972 -0.606089 0
M  V30 218 C 30.7807 8.25383 -0.938334 0
M  V30 219 O 31.5187 8.74577 0.146954 0
M  V30 220 C 30.1127 6.8802 -0.712559 0
M  V30 221 O 30.9107 6.1181 0.188505 0
M  V30 222 C 28.7747 7.27966 -0.139777 0
M  V30 223 N 27.7317 6.39368 -0.623421 0
M  V30 224 C 27.9007 5.71761 -1.78245 0
M  V30 225 N 26.8737 4.962 -2.10491 0
M  V30 226 C 25.9887 5.16158 -1.0635 0
M  V30 227 C 24.7217 4.60425 -0.810266 0
M  V30 228 N 24.1227 3.7057 -1.62914 0
M  V30 229 N 24.1567 5.06 0.348685 0
M  V30 230 C 24.7587 5.94532 1.20395 0
M  V30 231 N 25.9357 6.48452 1.01191 0
M  V30 232 C 26.5107 6.04423 -0.146291 0
M  V30 233 H 28.8067 7.25255 0.961469 0
M  V30 234 H 29.9897 6.32625 -1.65044 0
M  V30 235 H 31.4727 8.19355 -1.79097 0
M  V30 236 H 29.7787 10.1305 -1.09016 0
M  V30 237 H 29.5887 9.64276 -3.41316 0
M  V30 238 H 27.9587 9.25417 -2.76357 0
M  V30 239 H 24.2227 6.21659 2.10714 0
M  V30 240 H 28.8007 5.79354 -2.38959 0
M  V30 241 H 23.1927 3.33174 -1.38982 0
M  V30 242 H 24.5967 3.39714 -2.48836 0
M  V30 243 H 30.5987 6.25169 1.0783 0
M  V30 244 P 32.4563 8.791 -9.96115e-15 0
M  V30 245 O 33.8783 9.31096 0.027933 0
M  V30 246 O 32.0963 7.77869 -1.04071 0
M  V30 247 O 32.1333 8.09533 1.41463 0
M  V30 248 C 31.9733 9.0349 2.53943 0
M  V30 249 C 32.5133 8.35226 3.79016 0
M  V30 250 O 31.4573 7.57992 4.15078 0
M  V30 251 C 33.7313 7.45087 3.67298 0
M  V30 252 O 34.4693 7.27796 4.85194 0
M  V30 253 C 33.0623 6.17323 3.12027 0
M  V30 254 O 33.8613 5.04231 3.47188 0
M  V30 255 C 31.7253 6.19961 3.81809 0
M  V30 256 H 31.7573 5.58218 4.73051 0
M  V30 257 H 32.9403 6.21726 2.02589 0
M  V30 258 H 34.4243 7.86112 2.9231 0
M  V30 259 H 32.7303 9.11627 4.55076 0
M  V30 260 H 32.5403 9.9573 2.34194 0
M  V30 261 H 30.9103 9.2792 2.67832 0
M  V30 262 H 33.5493 4.67702 4.28772 0
M  V30 263 P 35.4068 7.39546 4.75277 0
M  V30 264 O 36.8278 7.81861 5.05793 0
M  V30 265 O 35.0468 7.1065 3.32998 0
M  V30 266 O 35.0838 6.04542 5.56673 0
M  V30 267 C 34.9228 6.22839 7.02169 0
M  V30 268 C 35.4638 4.97725 7.70406 0
M  V30 269 O 34.4088 4.13208 7.58899 0
M  V30 270 C 36.6818 4.28231 7.11815 0
M  V30 271 O 37.4198 3.49945 8.01648 0
M  V30 272 C 36.0138 3.5063 5.96244 0
M  V30 273 O 36.8118 2.37008 5.64352 0
M  V30 274 C 34.6758 3.15122 6.56374 0
M  V30 275 N 33.6328 3.22311 5.55692 0
M  V30 276 C 33.8018 3.99655 4.46046 0
M  V30 277 N 32.7748 3.97599 3.63918 0
M  V30 278 C 31.8898 3.11159 4.25334 0
M  V30 279 C 30.6228 2.64972 3.85157 0
M  V30 280 N 30.0238 3.02132 2.69405 0
M  V30 281 N 30.0578 1.78482 4.74759 0
M  V30 282 C 30.6598 1.37463 5.90819 0
M  V30 283 N 31.8368 1.7733 6.31889 0
M  V30 284 C 32.4118 2.64393 5.43725 0
M  V30 285 H 34.7078 2.13823 6.99656 0
M  V30 286 H 35.8908 4.12931 5.06895 0
M  V30 287 H 37.3738 5.03285 6.70911 0
M  V30 288 H 35.6798 5.20001 8.76217 0
M  V30 289 H 35.4898 7.11046 7.35349 0
M  V30 290 H 33.8598 6.35815 7.26986 0
M  V30 291 H 30.1238 0.66574 6.53015 0
M  V30 292 H 34.7018 4.58037 4.27732 0
M  V30 293 H 29.0938 2.64828 2.45331 0
M  V30 294 H 30.4978 3.67472 2.05644 0
M  V30 295 H 36.4998 1.61619 6.13468 0
M  V30 296 P 38.3574 3.65191 7.99657 0
M  V30 297 O 39.7794 3.8425 8.48115 0
M  V30 298 O 37.9974 4.17805 6.64342 0
M  V30 299 O 38.0344 2.07613 7.95143 0
M  V30 300 C 37.8744 1.44328 9.27336 0
M  V30 301 C 38.4144 0.0220036 9.17197 0
M  V30 302 O 37.3584 -0.626867 8.61923 0
M  V30 303 C 39.6324 -0.24586 8.30336 0
M  V30 304 O 40.3704 -1.39011 8.63583 0
M  V30 305 C 38.9634 -0.273849 6.91158 0
M  V30 306 O 39.7624 -1.06348 6.02892 0
M  V30 307 C 37.6264 -0.897649 7.22545 0
M  V30 308 H 37.6584 -1.9841 7.04286 0
M  V30 309 H 38.8414 0.739928 6.497 0
M  V30 310 H 40.3254 0.60668 8.36503 0
M  V30 311 H 38.6314 -0.352479 10.1829 0
M  V30 312 H 38.4414 2.00611 10.0304 0
M  V30 313 H 36.8114 1.41843 9.55327 0
M  V30 314 H 39.4504 -1.95734 6.03555 0
M  V30 315 P 41.308 -1.25109 8.70152 0
M  V30 316 O 42.73 -1.35274 9.21221 0
M  V30 317 O 40.948 -0.0769065 7.84762 0
M  V30 318 O 40.985 -2.55232 7.81161 0
M  V30 319 C 40.825 -3.79939 8.58154 0
M  V30 320 C 41.365 -4.94023 7.72785 0
M  V30 321 O 40.309 -5.18726 6.91205 0
M  V30 322 C 42.583 -4.69597 6.85231 0
M  V30 323 O 43.321 -5.83832 6.51337 0
M  V30 324 C 41.914 -3.96706 5.66633 0
M  V30 325 O 42.713 -4.15414 4.49689 0
M  V30 326 C 40.577 -4.66153 5.59313 0
M  V30 327 H 40.609 -5.47679 4.85214 0
M  V30 328 H 41.792 -2.89008 5.86566 0
M  V30 329 H 43.276 -4.0121 7.36511 0
M  V30 330 H 41.582 -5.80182 8.37584 0
M  V30 331 H 41.392 -3.73517 9.52265 0
M  V30 332 H 39.762 -3.97163 8.80359 0
M  V30 333 H 42.401 -4.90969 4.01921 0
M  V30 334 P 44.2585 -5.75688 6.64379 0
M  V30 335 O 45.6805 -6.11849 7.01846 0
M  V30 336 O 43.8985 -4.30744 6.56026 0
M  V30 337 O 43.9355 -6.37042 5.19165 0
M  V30 338 C 43.7755 -7.83578 5.16515 0
M  V30 339 C 44.3155 -8.33398 3.83019 0
M  V30 340 O 43.2595 -8.10074 3.01034 0
M  V30 341 C 45.5335 -7.65514 3.2257 0
M  V30 342 O 46.2715 -8.4329 2.32297 0
M  V30 343 C 44.8645 -6.40075 2.62207 0
M  V30 344 O 45.6635 -5.92589 1.53712 0
M  V30 345 C 43.5275 -6.9454 2.18503 0
M  V30 346 H 43.5595 -7.23063 1.12091 0
M  V30 347 H 44.7425 -5.6025 3.37201 0
M  V30 348 H 46.2265 -7.35707 4.02681 0
M  V30 349 H 44.5325 -9.40912 3.9095 0
M  V30 350 H 44.3425 -8.29056 5.99158 0
M  V30 351 H 42.7125 -8.10073 5.25882 0
M  V30 352 H 45.3515 -6.30324 0.726794 0
M  V30 353 P 47.2091 -8.4349 2.47671 0
M  V30 354 O 48.6311 -8.94167 2.5964 0
M  V30 355 O 46.8491 -7.1704 3.19006 0
M  V30 356 O 46.8861 -8.16596 0.923387 0
M  V30 357 C 46.7261 -9.38437 0.108857 0
M  V30 358 C 47.2661 -9.08175 -1.28353 0
M  V30 359 O 46.2101 -8.44229 -1.84713 0
M  V30 360 C 48.4841 -8.18386 -1.42505 0
M  V30 361 O 49.2221 -8.3501 -2.60497 0
M  V30 362 C 47.8151 -6.80225 -1.25468 0
M  V30 363 O 48.6141 -5.81621 -1.91066 0
M  V30 364 C 46.4781 -7.02416 -1.9168 0
M  V30 365 H 46.5101 -6.6888 -2.96621 0
M  V30 366 H 47.6931 -6.53617 -0.192223 0
M  V30 367 H 49.1771 -8.36622 -0.589963 0
M  V30 368 H 47.4831 -10.0291 -1.79807 0
M  V30 369 H 47.2931 -10.2138 0.558219 0
M  V30 370 H 45.6631 -9.6579 0.0444202 0
M  V30 371 H 48.3021 -5.69556 -2.79637 0
M  V30 372 P 50.1597 -8.4349 -2.47671 0
M  V30 373 O 51.5817 -8.92593 -2.65 0
M  V30 374 O 49.7997 -7.7568 -1.19296 0
M  V30 375 O 49.8367 -7.36886 -3.63805 0
M  V30 376 C 49.6767 -7.95349 -4.982 0
M  V30 377 C 50.2167 -6.94612 -5.98974 0
M  V30 378 O 49.1607 -6.10347 -6.11815 0
M  V30 379 C 51.4347 -6.11426 -5.62335 0
M  V30 380 O 52.1727 -5.6162 -6.70584 0
M  V30 381 C 50.7657 -5.04409 -4.73308 0
M  V30 382 O 51.5647 -3.85992 -4.75183 0
M  V30 383 C 49.4287 -4.8728 -5.41006 0
M  V30 384 H 49.4607 -4.02333 -6.11157 0
M  V30 385 H 50.6437 -5.39466 -3.69543 0
M  V30 386 H 52.1277 -6.71916 -5.01943 0
M  V30 387 H 50.4337 -7.4649 -6.93477 0
M  V30 388 H 50.2437 -8.89416 -5.05237 0
M  V30 389 H 48.6137 -8.14876 -5.18409 0
M  V30 390 H 51.2527 -3.27957 -5.4317 0
M  V30 391 P 53.1103 -5.75688 -6.64379 0
M  V30 392 O 54.5313 -6.07692 -7.0558 0
M  V30 393 O 52.7503 -5.88047 -5.19722 0
M  V30 394 O 52.7873 -4.2322 -7.04443 0
M  V30 395 C 52.6263 -3.99785 -8.49201 0
M  V30 396 C 53.1673 -2.60516 -8.79425 0
M  V30 397 O 52.1123 -1.82663 -8.44573 0
M  V30 398 C 54.3853 -2.10343 -8.03628 0
M  V30 399 O 55.1233 -1.09919 -8.67766 0
M  V30 400 C 53.7173 -1.68446 -6.70876 0
M  V30 401 O 54.5153 -0.684109 -6.08265 0
M  V30 402 C 52.3793 -1.17436 -7.18567 0
M  V30 403 N 51.3363 -1.52699 -6.23988 0
M  V30 404 C 51.5053 -2.578 -5.40574 0
M  V30 405 N 50.4783 -2.78966 -4.61193 0
M  V30 406 C 49.5933 -1.78725 -4.95769 0
M  V30 407 C 48.3263 -1.45727 -4.44207 0
M  V30 408 N 47.7613 -0.374977 -5.05812 0
M  V30 409 C 48.3633 0.345585 -6.05615 0
M  V30 410 N 49.5403 0.0787651 -6.56253 0
M  V30 411 C 50.1153 -1.00499 -5.96189 0
M  V30 412 H 53.5943 -2.53396 -6.02698 0
M  V30 413 H 55.0773 -2.93881 -7.85526 0
M  V30 414 H 53.3833 -2.52078 -9.87225 0
M  V30 415 H 53.1933 -4.75072 -9.05887 0
M  V30 416 H 51.5633 -4.05244 -8.76668 0
M  V30 417 H 52.4053 -3.18977 -5.3945 0
M  V30 418 H 54.2033 0.177619 -6.34151 0
M  V30 419 P 56.0608 -1.25109 -8.70152 0
M  V30 420 O 57.4828 -1.29744 -9.22016 0
M  V30 421 O 55.7008 -2.13714 -7.55141 0
M  V30 422 O 55.7378 0.248149 -8.21425 0
M  V30 423 C 55.5778 1.22779 -9.30434 0
M  V30 424 C 56.1178 2.56293 -8.80664 0
M  V30 425 O 55.0618 3.02979 -8.09349 0
M  V30 426 C 57.3358 2.57523 -7.89775 0
M  V30 427 O 58.0738 3.7668 -7.89438 0
M  V30 428 C 56.6668 2.20997 -6.55446 0
M  V30 429 O 57.4658 2.71895 -5.48509 0
M  V30 430 C 55.3298 2.89693 -6.67988 0
M  V30 431 H 55.3618 3.88793 -6.19859 0
M  V30 432 H 56.5448 1.12046 -6.44229 0
M  V30 433 H 58.0288 1.7746 -8.19711 0
M  V30 434 H 56.3348 3.20706 -9.67112 0
M  V30 435 H 56.1448 0.901032 -10.1892 0
M  V30 436 H 54.5148 1.33049 -9.56592 0
M  V30 437 H 57.1538 3.57847 -5.23962 0
M  V30 438 P 59.0114 3.65191 -7.99657 0
M  V30 439 O 60.4334 3.89332 -8.45794 0
M  V30 440 O 58.6514 2.28472 -7.50807 0
M  V30 441 O 58.6884 4.64972 -6.77611 0
M  V30 442 C 58.5284 6.06319 -7.16352 0
M  V30 443 C 59.0684 6.91731 -6.02299 0
M  V30 444 O 58.0124 6.92449 -5.17064 0
M  V30 445 C 60.2864 6.43627 -5.25174 0
M  V30 446 O 61.0244 7.43686 -4.60469 0
M  V30 447 C 59.6174 5.40275 -4.31916 0
M  V30 448 O 60.4164 5.25279 -3.14438 0
M  V30 449 C 58.2804 6.04847 -4.05327 0
M  V30 450 H 58.3124 6.62195 -3.11261 0
M  V30 451 H 59.4954 4.42556 -4.81383 0
M  V30 452 H 60.9794 5.92458 -5.93643 0
M  V30 453 H 59.2854 7.92655 -6.402 0
M  V30 454 H 59.0954 6.26671 -8.0846 0
M  V30 455 H 57.4654 6.29101 -7.32804 0
M  V30 456 H 60.1044 5.84315 -2.47318 0
M  V30 457 P 61.962 7.39546 -4.75277 0
M  V30 458 O 63.384 7.84798 -5.01039 0
M  V30 459 O 61.602 5.9812 -5.08098 0
M  V30 460 O 61.639 7.57503 -3.1866 0
M  V30 461 C 61.479 8.97357 -2.74833 0
M  V30 462 C 62.019 9.07548 -1.32709 0
M  V30 463 O 60.963 8.62072 -0.606159 0
M  V30 464 C 63.237 8.25383 -0.938334 0
M  V30 465 O 63.975 8.74577 0.146954 0
M  V30 466 C 62.568 6.8802 -0.712559 0
M  V30 467 O 63.367 6.1189 0.194655 0
M  V30 468 C 61.231 7.27966 -0.139777 0
M  V30 469 H 61.263 7.25354 0.961601 0
M  V30 470 H 62.446 6.32557 -1.65702 0
M  V30 471 H 63.93 8.19355 -1.79097 0
M  V30 472 H 62.236 10.1294 -1.10029 0
M  V30 473 H 62.046 9.64276 -3.41316 0
M  V30 474 H 60.416 9.25417 -2.76357 0
M  V30 475 H 63.055 6.25267 1.07847 0
M  V30 476 P 64.9125 8.791 -3.55383e-14 0
M  V30 477 O 66.3135 9.36698 -0.018734 0
M  V30 478 O 64.5345 7.82499 -1.07878 0
M  V30 479 O 64.5895 8.09434 1.41446 0
M  V30 480 C 64.4295 9.0349 2.53943 0
M  V30 481 C 64.9695 8.35135 3.78975 0
M  V30 482 O 63.9135 7.57904 4.1503 0
M  V30 483 C 66.1865 7.45087 3.67298 0
M  V30 484 O 66.9255 7.27796 4.85194 0
M  V30 485 C 65.5195 6.17323 3.12027 0
M  V30 486 O 66.3175 5.04149 3.47132 0
M  V30 487 C 64.1815 6.19961 3.81809 0
M  V30 488 N 63.1385 5.71575 2.93223 0
M  V30 489 C 62.1035 4.99452 3.47592 0
M  V30 490 O 62.1425 4.7199 4.69732 0
M  V30 491 N 61.0915 4.58505 2.6803 0
M  V30 492 C 61.1395 4.85544 1.36995 0
M  V30 493 C 62.2355 5.55532 0.788532 0
M  V30 494 C 63.2015 5.97426 1.60849 0
M  V30 495 H 64.2135 5.58142 4.72986 0
M  V30 496 H 65.3965 6.21428 2.0318 0
M  V30 497 H 66.8805 7.85913 2.93131 0
M  V30 498 H 65.1865 9.11171 4.55987 0
M  V30 499 H 64.9955 9.9573 2.34194 0
M  V30 500 H 63.3655 9.27824 2.67805 0
M  V30 501 H 62.2835 5.7421 -0.281588 0
M  V30 502 H 64.0475 6.53132 1.202 0
M  V30 503 H 66.1015 4.76386 4.34983 0
M  V30 504 P 67.8631 7.39546 4.75277 0
M  V30 505 O 69.2851 7.81945 5.05847 0
M  V30 506 O 67.5031 7.1065 3.32998 0
M  V30 507 O 67.5401 6.04542 5.56673 0
M  V30 508 C 67.3801 6.22772 7.02095 0
M  V30 509 C 67.9201 4.97671 7.70322 0
M  V30 510 O 66.8651 4.13256 7.58987 0
M  V30 511 C 69.1381 4.28231 7.11815 0
M  V30 512 O 69.8761 3.49945 8.01648 0
M  V30 513 C 68.4701 3.5063 5.96244 0
M  V30 514 O 69.2681 2.36443 5.64589 0
M  V30 515 C 67.1321 3.15122 6.56374 0
M  V30 516 N 66.0891 3.22311 5.55692 0
M  V30 517 C 66.1511 4.14382 4.59701 0
M  V30 518 N 65.1061 4.04476 3.76958 0
M  V30 519 C 64.3721 3.04892 4.26534 0
M  V30 520 C 63.0661 2.57447 3.88189 0
M  V30 521 O 62.3331 2.9785 2.96543 0
M  V30 522 N 62.6361 1.55228 4.65922 0
M  V30 523 C 63.3851 1.01152 5.73447 0
M  V30 524 N 62.7881 -0.0472117 6.37783 0
M  V30 525 N 64.5381 1.467 6.13813 0
M  V30 526 C 64.9951 2.4931 5.38487 0
M  V30 527 H 67.1641 2.13853 6.99751 0
M  V30 528 H 68.3471 4.13438 5.06482 0
M  V30 529 H 69.8321 5.02614 6.71414 0
M  V30 530 H 68.1371 5.20877 8.75697 0
M  V30 531 H 67.9471 7.11046 7.35349 0
M  V30 532 H 66.3161 6.35815 7.26986 0
M  V30 533 H 61.7401 1.15238 4.46468 0
M  V30 534 H 66.9471 4.88312 4.49647 0
M  V30 535 H 61.8771 -0.396382 6.05203 0
M  V30 536 H 63.2531 -0.484997 7.18465 0
M  V30 537 H 68.9571 1.61619 6.13468 0
M  V30 538 P 70.8137 3.65191 7.99657 0
M  V30 539 O 72.2357 3.8425 8.48115 0
M  V30 540 O 70.4537 4.17805 6.64342 0
M  V30 541 O 70.4907 2.07613 7.95143 0
M  V30 542 C 70.3307 1.44328 9.27336 0
M  V30 543 C 70.8707 0.0220036 9.17197 0
M  V30 544 O 69.8147 -0.626867 8.61923 0
M  V30 545 C 72.0887 -0.24586 8.30336 0
M  V30 546 O 72.8267 -1.39011 8.63583 0
M  V30 547 C 71.4197 -0.273849 6.91158 0
M  V30 548 O 72.2187 -1.06348 6.02892 0
M  V30 549 C 70.0827 -0.897649 7.22545 0
M  V30 550 H 70.1147 -1.9841 7.04286 0
M  V30 551 H 71.2977 0.739928 6.497 0
M  V30 552 H 72.7817 0.60668 8.36503 0
M  V30 553 H 71.0877 -0.352479 10.1829 0
M  V30 554 H 70.8977 2.00611 10.0304 0
M  V30 555 H 69.2677 1.41843 9.55327 0
M  V30 556 H 71.9067 -1.95734 6.03555 0
M  V30 557 P 73.7642 -1.25109 8.70152 0
M  V30 558 O 75.1862 -1.35274 9.21221 0
M  V30 559 O 73.4042 -0.0769065 7.84762 0
M  V30 560 O 73.4412 -2.55232 7.81161 0
M  V30 561 C 73.2812 -3.79939 8.58154 0
M  V30 562 C 73.8212 -4.94023 7.72785 0
M  V30 563 O 72.7652 -5.18726 6.91205 0
M  V30 564 C 75.0392 -4.69597 6.85231 0
M  V30 565 O 75.7772 -5.83832 6.51337 0
M  V30 566 C 74.3702 -3.96706 5.66633 0
M  V30 567 O 75.1692 -4.15414 4.49689 0
M  V30 568 C 73.0332 -4.66153 5.59313 0
M  V30 569 H 73.0652 -5.47679 4.85214 0
M  V30 570 H 74.2482 -2.89008 5.86566 0
M  V30 571 H 75.7322 -4.0121 7.36511 0
M  V30 572 H 74.0382 -5.80182 8.37584 0
M  V30 573 H 73.8482 -3.73517 9.52265 0
M  V30 574 H 72.2182 -3.97163 8.80359 0
M  V30 575 H 74.8572 -4.90969 4.01921 0
M  V30 576 P 76.7148 -5.75688 6.64379 0
M  V30 577 O 78.1368 -6.11849 7.01846 0
M  V30 578 O 76.3548 -4.30744 6.56026 0
M  V30 579 O 76.3918 -6.37042 5.19165 0
M  V30 580 C 76.2318 -7.83578 5.16515 0
M  V30 581 C 76.7718 -8.33398 3.83019 0
M  V30 582 O 75.7158 -8.10074 3.01034 0
M  V30 583 C 77.9898 -7.65514 3.2257 0
M  V30 584 O 78.7278 -8.4329 2.32297 0
M  V30 585 C 77.3208 -6.40075 2.62207 0
M  V30 586 O 78.1198 -5.92589 1.53712 0
M  V30 587 C 75.9838 -6.9454 2.18503 0
M  V30 588 H 76.0158 -7.23063 1.12091 0
M  V30 589 H 77.1988 -5.6025 3.37201 0
M  V30 590 H 78.6828 -7.35707 4.02681 0
M  V30 591 H 76.9888 -9.40912 3.9095 0
M  V30 592 H 76.7988 -8.29056 5.99158 0
M  V30 593 H 75.1688 -8.10073 5.25882 0
M  V30 594 H 77.8078 -6.30324 0.726794 0
M  V30 595 P 79.6654 -8.4349 2.47671 0
M  V30 596 O 81.0874 -8.94167 2.5964 0
M  V30 597 O 79.3054 -7.1704 3.19006 0
M  V30 598 O 79.3424 -8.16596 0.923387 0
M  V30 599 C 79.1824 -9.38437 0.108857 0
M  V30 600 C 79.7224 -9.08175 -1.28353 0
M  V30 601 O 78.6664 -8.44229 -1.84713 0
M  V30 602 C 80.9404 -8.18386 -1.42505 0
M  V30 603 O 81.6784 -8.3501 -2.60497 0
M  V30 604 C 80.2714 -6.80225 -1.25468 0
M  V30 605 O 81.0704 -5.81621 -1.91066 0
M  V30 606 C 78.9344 -7.02416 -1.9168 0
M  V30 607 H 78.9664 -6.6888 -2.96621 0
M  V30 608 H 80.1494 -6.53617 -0.192223 0
M  V30 609 H 81.6334 -8.36622 -0.589963 0
M  V30 610 H 79.9394 -10.0291 -1.79807 0
M  V30 611 H 79.7494 -10.2138 0.558219 0
M  V30 612 H 78.1194 -9.6579 0.0444202 0
M  V30 613 H 80.7584 -5.69556 -2.79637 0
M  V30 614 P 82.616 -8.4349 -2.47671 0
M  V30 615 O 84.038 -8.92593 -2.65 0
M  V30 616 O 82.256 -7.7568 -1.19296 0
M  V30 617 O 82.293 -7.36886 -3.63805 0
M  V30 618 C 82.133 -7.95349 -4.982 0
M  V30 619 C 82.673 -6.94612 -5.98974 0
M  V30 620 O 81.617 -6.10347 -6.11815 0
M  V30 621 C 83.891 -6.11426 -5.62335 0
M  V30 622 O 84.629 -5.6162 -6.70584 0
M  V30 623 C 83.222 -5.04409 -4.73308 0
M  V30 624 O 84.021 -3.85992 -4.75183 0
M  V30 625 C 81.885 -4.8728 -5.41006 0
M  V30 626 H 81.917 -4.02333 -6.11157 0
M  V30 627 H 83.1 -5.39466 -3.69543 0
M  V30 628 H 84.584 -6.71916 -5.01943 0
M  V30 629 H 82.89 -7.4649 -6.93477 0
M  V30 630 H 82.7 -8.89416 -5.05237 0
M  V30 631 H 81.07 -8.14876 -5.18409 0
M  V30 632 H 83.709 -3.27957 -5.4317 0
M  V30 633 P 85.5665 -5.75688 -6.64379 0
M  V30 634 O 86.9885 -6.07627 -7.05504 0
M  V30 635 O 85.2065 -5.88047 -5.19722 0
M  V30 636 O 85.2435 -4.2322 -7.04443 0
M  V30 637 C 85.0835 -3.99743 -8.4911 0
M  V30 638 C 85.6235 -2.60516 -8.79425 0
M  V30 639 O 84.5675 -1.82684 -8.4467 0
M  V30 640 C 86.8415 -2.10343 -8.03628 0
M  V30 641 O 87.5795 -1.09919 -8.67766 0
M  V30 642 C 86.1725 -1.68446 -6.70876 0
M  V30 643 O 86.9715 -0.678137 -6.08433 0
M  V30 644 C 84.8355 -1.17436 -7.18567 0
M  V30 645 H 84.8675 -0.0804732 -7.31656 0
M  V30 646 H 86.0505 -2.54037 -6.02537 0
M  V30 647 H 87.5345 -2.93881 -7.85526 0
M  V30 648 H 85.8405 -2.53065 -9.86973 0
M  V30 649 H 85.6505 -4.75072 -9.05887 0
M  V30 650 H 84.0205 -4.05244 -8.76668 0
M  V30 651 H 86.6595 0.177647 -6.34251 0
M  V30 652 P 88.5171 -1.25109 -8.70152 0
M  V30 653 O 89.9391 -1.29744 -9.22016 0
M  V30 654 O 88.1571 -2.13714 -7.55141 0
M  V30 655 O 88.1941 0.248149 -8.21425 0
M  V30 656 C 88.0341 1.22779 -9.30434 0
M  V30 657 C 88.5741 2.56293 -8.80664 0
M  V30 658 O 87.5181 3.02979 -8.09349 0
M  V30 659 C 89.7921 2.57523 -7.89775 0
M  V30 660 O 90.5301 3.7668 -7.89438 0
M  V30 661 C 89.1231 2.20997 -6.55446 0
M  V30 662 O 89.9221 2.71895 -5.48509 0
M  V30 663 C 87.7861 2.89693 -6.67988 0
M  V30 664 H 87.8181 3.88793 -6.19859 0
M  V30 665 H 89.0011 1.12046 -6.44229 0
M  V30 666 H 90.4851 1.7746 -8.19711 0
M  V30 667 H 88.7911 3.20706 -9.67112 0
M  V30 668 H 88.6011 0.901032 -10.1892 0
M  V30 669 H 86.9711 1.33049 -9.56592 0
M  V30 670 H 89.6101 3.57847 -5.23962 0
M  V30 671 P 91.4677 3.65191 -7.99657 0
M  V30 672 O 92.8897 3.89332 -8.45794 0
M  V30 673 O 91.1077 2.28472 -7.50807 0
M  V30 674 O 91.1447 4.64972 -6.77611 0
M  V30 675 C 90.9847 6.06319 -7.16352 0
M  V30 676 C 91.5247 6.91731 -6.02299 0
M  V30 677 O 90.4687 6.92449 -5.17064 0
M  V30 678 C 92.7427 6.43627 -5.25174 0
M  V30 679 O 93.4807 7.43686 -4.60469 0
M  V30 680 C 92.0737 5.40275 -4.31916 0
M  V30 681 O 92.8727 5.25279 -3.14438 0
M  V30 682 C 90.7367 6.04847 -4.05327 0
M  V30 683 H 90.7687 6.62195 -3.11261 0
M  V30 684 H 91.9517 4.42556 -4.81383 0
M  V30 685 H 93.4357 5.92458 -5.93643 0
M  V30 686 H 91.7417 7.92655 -6.402 0
M  V30 687 H 91.5517 6.26671 -8.0846 0
M  V30 688 H 89.9217 6.29101 -7.32804 0
M  V30 689 H 92.5607 5.84315 -2.47318 0
M  V30 690 P 94.4182 7.39546 -4.75277 0
M  V30 691 O 95.8402 7.84798 -5.01039 0
M  V30 692 O 94.0582 5.9812 -5.08098 0
M  V30 693 O 94.0952 7.57503 -3.1866 0
M  V30 694 C 93.9352 8.97357 -2.74833 0
M  V30 695 C 94.4752 9.07548 -1.32709 0
M  V30 696 O 93.4192 8.62072 -0.606159 0
M  V30 697 C 95.6932 8.25383 -0.938334 0
M  V30 698 O 96.4312 8.74577 0.146954 0
M  V30 699 C 95.0242 6.8802 -0.712559 0
M  V30 700 O 95.8232 6.1189 0.194655 0
M  V30 701 C 93.6872 7.27966 -0.139777 0
M  V30 702 H 93.7192 7.25354 0.961601 0
M  V30 703 H 94.9022 6.32557 -1.65702 0
M  V30 704 H 96.3862 8.19355 -1.79097 0
M  V30 705 H 94.6922 10.1294 -1.10029 0
M  V30 706 H 94.5022 9.64276 -3.41316 0
M  V30 707 H 92.8722 9.25417 -2.76357 0
M  V30 708 H 95.5112 6.25267 1.07847 0
M  V30 709 P 97.3688 8.791 -6.89233e-14 0
M  V30 710 O 98.7698 9.36698 -0.018734 0
M  V30 711 O 96.9908 7.82499 -1.07878 0
M  V30 712 O 97.0458 8.09434 1.41446 0
M  V30 713 C 96.8858 9.0349 2.53943 0
M  V30 714 C 97.4258 8.35135 3.78975 0
M  V30 715 O 96.3698 7.57904 4.1503 0
M  V30 716 C 98.6428 7.45087 3.67298 0
M  V30 717 O 99.3818 7.27796 4.85194 0
M  V30 718 C 97.9758 6.17323 3.12027 0
M  V30 719 O 98.7738 5.04149 3.47132 0
M  V30 720 C 96.6378 6.19961 3.81809 0
M  V30 721 N 95.5948 5.71575 2.93223 0
M  V30 722 C 94.5598 4.99452 3.47592 0
M  V30 723 O 94.5988 4.7199 4.69732 0
M  V30 724 N 93.5478 4.58505 2.6803 0
M  V30 725 C 93.5958 4.85544 1.36995 0
M  V30 726 C 94.6918 5.55532 0.788532 0
M  V30 727 C 95.6578 5.97426 1.60849 0
M  V30 728 H 96.6698 5.58142 4.72986 0
M  V30 729 H 97.8528 6.21428 2.0318 0
M  V30 730 H 99.3368 7.85913 2.93131 0
M  V30 731 H 97.6428 9.11171 4.55987 0
M  V30 732 H 97.4518 9.9573 2.34194 0
M  V30 733 H 95.8218 9.27824 2.67805 0
M  V30 734 H 94.7398 5.7421 -0.281588 0
M  V30 735 H 96.5038 6.53132 1.202 0
M  V30 736 H 98.5578 4.76386 4.34983 0
M  V30 737 P 100.319 7.39546 4.75277 0
M  V30 738 O 101.74 7.81861 5.05793 0
M  V30 739 O 99.9594 7.1065 3.32998 0
M  V30 740 O 99.9964 6.04542 5.56673 0
M  V30 741 C 99.8354 6.22839 7.02169 0
M  V30 742 C 100.376 4.97725 7.70406 0
M  V30 743 O 99.3214 4.13208 7.58899 0
M  V30 744 C 101.594 4.28231 7.11815 0
M  V30 745 O 102.332 3.49945 8.01648 0
M  V30 746 C 100.926 3.5063 5.96244 0
M  V30 747 O 101.724 2.37008 5.64352 0
M  V30 748 C 99.5884 3.15122 6.56374 0
M  V30 749 N 98.5454 3.22311 5.55692 0
M  V30 750 C 98.7144 3.99655 4.46046 0
M  V30 751 N 97.6874 3.97599 3.63918 0
M  V30 752 C 96.8024 3.11159 4.25334 0
M  V30 753 C 95.5354 2.64972 3.85157 0
M  V30 754 N 94.9704 1.78482 4.74759 0
M  V30 755 C 95.5724 1.37463 5.90819 0
M  V30 756 N 96.7494 1.7733 6.31889 0
M  V30 757 C 97.3244 2.64393 5.43725 0
M  V30 758 H 100.803 4.12931 5.06895 0
M  V30 759 H 102.286 5.03285 6.70911 0
M  V30 760 H 100.592 5.20001 8.76217 0
M  V30 761 H 100.402 7.11046 7.35349 0
M  V30 762 H 98.7724 6.35815 7.26986 0
M  V30 763 H 99.6144 4.58037 4.27732 0
M  V30 764 H 101.412 1.61619 6.13468 0
M  V30 765 P 103.27 3.65191 7.99657 0
M  V30 766 O 104.692 3.8425 8.48115 0
M  V30 767 O 102.91 4.17805 6.64342 0
M  V30 768 O 102.947 2.07613 7.95143 0
M  V30 769 C 102.787 1.44328 9.27336 0
M  V30 770 C 103.327 0.0220036 9.17197 0
M  V30 771 O 102.271 -0.626867 8.61923 0
M  V30 772 C 104.545 -0.24586 8.30336 0
M  V30 773 O 105.283 -1.39011 8.63583 0
M  V30 774 C 103.876 -0.273849 6.91158 0
M  V30 775 O 104.675 -1.06348 6.02892 0
M  V30 776 C 102.539 -0.897649 7.22545 0
M  V30 777 H 102.571 -1.9841 7.04286 0
M  V30 778 H 103.754 0.739928 6.497 0
M  V30 779 H 105.238 0.60668 8.36503 0
M  V30 780 H 103.544 -0.352479 10.1829 0
M  V30 781 H 103.354 2.00611 10.0304 0
M  V30 782 H 101.724 1.41843 9.55327 0
M  V30 783 H 104.363 -1.95734 6.03555 0
M  V30 784 P 106.221 -1.25109 8.70152 0
M  V30 785 O 107.643 -1.35274 9.21221 0
M  V30 786 O 105.861 -0.0769065 7.84762 0
M  V30 787 O 105.898 -2.55232 7.81161 0
M  V30 788 C 105.738 -3.79939 8.58154 0
M  V30 789 C 106.278 -4.94023 7.72785 0
M  V30 790 O 105.222 -5.18726 6.91205 0
M  V30 791 C 107.496 -4.69597 6.85231 0
M  V30 792 O 108.234 -5.83832 6.51337 0
M  V30 793 C 106.827 -3.96706 5.66633 0
M  V30 794 O 107.626 -4.15414 4.49689 0
M  V30 795 C 105.49 -4.66153 5.59313 0
M  V30 796 H 105.522 -5.47679 4.85214 0
M  V30 797 H 106.705 -2.89008 5.86566 0
M  V30 798 H 108.189 -4.0121 7.36511 0
M  V30 799 H 106.495 -5.80182 8.37584 0
M  V30 800 H 106.305 -3.73517 9.52265 0
M  V30 801 H 104.675 -3.97163 8.80359 0
M  V30 802 H 107.314 -4.90969 4.01921 0
M  V30 803 P 109.171 -5.75688 6.64379 0
M  V30 804 O 110.593 -6.11849 7.01846 0
M  V30 805 O 108.811 -4.30744 6.56026 0
M  V30 806 O 108.848 -6.37042 5.19165 0
M  V30 807 C 108.688 -7.83578 5.16515 0
M  V30 808 C 109.228 -8.33398 3.83019 0
M  V30 809 O 108.172 -8.10074 3.01034 0
M  V30 810 C 110.446 -7.65514 3.2257 0
M  V30 811 O 111.184 -8.4329 2.32297 0
M  V30 812 C 109.777 -6.40075 2.62207 0
M  V30 813 O 110.576 -5.92589 1.53712 0
M  V30 814 C 108.44 -6.9454 2.18503 0
M  V30 815 H 108.472 -7.23063 1.12091 0
M  V30 816 H 109.655 -5.6025 3.37201 0
M  V30 817 H 111.139 -7.35707 4.02681 0
M  V30 818 H 109.445 -9.40912 3.9095 0
M  V30 819 H 109.255 -8.29056 5.99158 0
M  V30 820 H 107.625 -8.10073 5.25882 0
M  V30 821 H 110.264 -6.30324 0.726794 0
M  V30 822 P 112.122 -8.4349 2.47671 0
M  V30 823 O 113.544 -8.94167 2.5964 0
M  V30 824 O 111.762 -7.1704 3.19006 0
M  V30 825 O 111.799 -8.16596 0.923387 0
M  V30 826 C 111.639 -9.38437 0.108857 0
M  V30 827 C 112.179 -9.08175 -1.28353 0
M  V30 828 O 111.123 -8.44229 -1.84713 0
M  V30 829 C 113.397 -8.18386 -1.42505 0
M  V30 830 O 114.135 -8.3501 -2.60497 0
M  V30 831 C 112.728 -6.80225 -1.25468 0
M  V30 832 O 113.527 -5.81621 -1.91066 0
M  V30 833 C 111.391 -7.02416 -1.9168 0
M  V30 834 H 111.423 -6.6888 -2.96621 0
M  V30 835 H 112.606 -6.53617 -0.192223 0
M  V30 836 H 114.09 -8.36622 -0.589963 0
M  V30 837 H 112.396 -10.0291 -1.79807 0
M  V30 838 H 112.206 -10.2138 0.558219 0
M  V30 839 H 110.576 -9.6579 0.0444202 0
M  V30 840 H 113.215 -5.69556 -2.79637 0
M  V30 841 P 115.072 -8.4349 -2.47671 0
M  V30 842 O 116.494 -8.92593 -2.65 0
M  V30 843 O 114.712 -7.7568 -1.19296 0
M  V30 844 O 114.749 -7.36886 -3.63805 0
M  V30 845 C 114.589 -7.95349 -4.982 0
M  V30 846 C 115.129 -6.94612 -5.98974 0
M  V30 847 O 114.073 -6.10347 -6.11815 0
M  V30 848 C 116.347 -6.11426 -5.62335 0
M  V30 849 O 117.085 -5.6162 -6.70584 0
M  V30 850 C 115.678 -5.04409 -4.73308 0
M  V30 851 O 116.477 -3.85992 -4.75183 0
M  V30 852 C 114.341 -4.8728 -5.41006 0
M  V30 853 H 114.373 -4.02333 -6.11157 0
M  V30 854 H 115.556 -5.39466 -3.69543 0
M  V30 855 H 117.04 -6.71916 -5.01943 0
M  V30 856 H 115.346 -7.4649 -6.93477 0
M  V30 857 H 115.156 -8.89416 -5.05237 0
M  V30 858 H 113.526 -8.14876 -5.18409 0
M  V30 859 H 116.165 -3.27957 -5.4317 0
M  V30 860 P 118.023 -5.75688 -6.64379 0
M  V30 861 O 119.444 -6.07692 -7.0558 0
M  V30 862 O 117.663 -5.88047 -5.19722 0
M  V30 863 O 117.7 -4.2322 -7.04443 0
M  V30 864 C 117.539 -3.99785 -8.49201 0
M  V30 865 C 118.08 -2.60516 -8.79425 0
M  V30 866 O 117.025 -1.82663 -8.44573 0
M  V30 867 C 119.298 -2.10343 -8.03628 0
M  V30 868 O 120.036 -1.09919 -8.67766 0
M  V30 869 C 118.63 -1.68446 -6.70876 0
M  V30 870 O 119.428 -0.684109 -6.08265 0
M  V30 871 C 117.292 -1.17436 -7.18567 0
M  V30 872 N 116.249 -1.52699 -6.23988 0
M  V30 873 C 116.418 -2.578 -5.40574 0
M  V30 874 N 115.391 -2.78966 -4.61193 0
M  V30 875 C 114.506 -1.78725 -4.95769 0
M  V30 876 C 113.239 -1.45727 -4.44207 0
M  V30 877 N 112.674 -0.374977 -5.05812 0
M  V30 878 C 113.276 0.345585 -6.05615 0
M  V30 879 N 114.453 0.0787651 -6.56253 0
M  V30 880 C 115.028 -1.00499 -5.96189 0
M  V30 881 H 118.507 -2.53396 -6.02698 0
M  V30 882 H 119.99 -2.93881 -7.85526 0
M  V30 883 H 118.296 -2.52078 -9.87225 0
M  V30 884 H 118.106 -4.75072 -9.05887 0
M  V30 885 H 116.476 -4.05244 -8.76668 0
M  V30 886 H 117.318 -3.18977 -5.3945 0
M  V30 887 H 119.116 0.177619 -6.34151 0
M  V30 888 P 120.973 -1.25109 -8.70152 0
M  V30 889 O 122.395 -1.29744 -9.22016 0
M  V30 890 O 120.613 -2.13714 -7.55141 0
M  V30 891 O 120.65 0.248149 -8.21425 0
M  V30 892 C 120.49 1.22779 -9.30434 0
M  V30 893 C 121.03 2.56293 -8.80664 0
M  V30 894 O 119.974 3.02979 -8.09349 0
M  V30 895 C 122.248 2.57523 -7.89775 0
M  V30 896 O 122.986 3.7668 -7.89438 0
M  V30 897 C 121.579 2.20997 -6.55446 0
M  V30 898 O 122.378 2.71895 -5.48509 0
M  V30 899 C 120.242 2.89693 -6.67988 0
M  V30 900 H 120.274 3.88793 -6.19859 0
M  V30 901 H 121.457 1.12046 -6.44229 0
M  V30 902 H 122.941 1.7746 -8.19711 0
M  V30 903 H 121.247 3.20706 -9.67112 0
M  V30 904 H 121.057 0.901032 -10.1892 0
M  V30 905 H 119.427 1.33049 -9.56592 0
M  V30 906 H 122.066 3.57847 -5.23962 0
M  V30 907 P 123.924 3.65191 -7.99657 0
M  V30 908 O 125.346 3.89416 -8.45976 0
M  V30 909 O 123.564 2.28472 -7.50807 0
M  V30 910 O 123.601 4.64972 -6.77611 0
M  V30 911 C 123.441 6.06319 -7.16352 0
M  V30 912 C 123.981 6.91655 -6.02234 0
M  V30 913 O 122.926 6.92449 -5.17064 0
M  V30 914 C 125.199 6.43627 -5.25174 0
M  V30 915 O 125.937 7.43686 -4.60469 0
M  V30 916 C 124.531 5.40275 -4.31916 0
M  V30 917 O 125.329 5.25193 -3.14386 0
M  V30 918 C 123.193 6.04847 -4.05327 0
M  V30 919 N 122.15 5.04166 -3.98114 0
M  V30 920 C 122.212 3.96049 -4.75587 0
M  V30 921 N 121.167 3.15559 -4.54006 0
M  V30 922 C 120.433 3.78802 -3.62491 0
M  V30 923 C 119.127 3.476 -3.10071 0
M  V30 924 O 118.394 2.51136 -3.37021 0
M  V30 925 N 118.697 4.39088 -2.19956 0
M  V30 926 C 119.446 5.53215 -1.81733 0
M  V30 927 N 118.849 6.31963 -0.860928 0
M  V30 928 N 120.599 5.86688 -2.32562 0
M  V30 929 C 121.056 4.97525 -3.23407 0
M  V30 930 H 123.225 6.62195 -3.11261 0
M  V30 931 H 124.408 4.42488 -4.8131 0
M  V30 932 H 125.893 5.93051 -5.9305 0
M  V30 933 H 124.198 7.92655 -6.402 0
M  V30 934 H 124.008 6.26671 -8.0846 0
M  V30 935 H 122.377 6.29101 -7.32804 0
M  V30 936 H 117.801 4.25523 -1.77604 0
M  V30 937 H 123.008 3.75576 -5.47333 0
M  V30 938 H 117.938 6.04684 -0.468946 0
M  V30 939 H 119.314 7.18054 -0.542422 0
M  V30 940 H 125.018 5.84223 -2.47279 0
M  V30 941 P 126.875 7.39546 -4.75277 0
M  V30 942 O 128.297 7.84798 -5.01039 0
M  V30 943 O 126.515 5.9812 -5.08098 0
M  V30 944 O 126.552 7.57503 -3.1866 0
M  V30 945 C 126.392 8.97357 -2.74833 0
M  V30 946 C 126.932 9.07548 -1.32709 0
M  V30 947 O 125.876 8.62072 -0.606159 0
M  V30 948 C 128.15 8.25383 -0.938334 0
M  V30 949 O 128.888 8.74577 0.146954 0
M  V30 950 C 127.481 6.8802 -0.712559 0
M  V30 951 O 128.28 6.1189 0.194655 0
M  V30 952 C 126.144 7.27966 -0.139777 0
M  V30 953 H 126.176 7.25354 0.961601 0
M  V30 954 H 127.359 6.32557 -1.65702 0
M  V30 955 H 128.843 8.19355 -1.79097 0
M  V30 956 H 127.149 10.1294 -1.10029 0
M  V30 957 H 126.959 9.64276 -3.41316 0
M  V30 958 H 125.329 9.25417 -2.76357 0
M  V30 959 H 127.968 6.25267 1.07847 0
M  V30 960 P 129.825 8.791 -1.02308e-13 0
M  V30 961 O 131.247 9.31096 0.027933 0
M  V30 962 O 129.465 7.77869 -1.04071 0
M  V30 963 O 129.502 8.09533 1.41463 0
M  V30 964 C 129.342 9.0349 2.53943 0
M  V30 965 C 129.882 8.35226 3.79016 0
M  V30 966 O 128.826 7.57992 4.15078 0
M  V30 967 C 131.1 7.45087 3.67298 0
M  V30 968 O 131.838 7.27796 4.85194 0
M  V30 969 C 130.431 6.17323 3.12027 0
M  V30 970 O 131.23 5.04231 3.47188 0
M  V30 971 C 129.094 6.19961 3.81809 0
M  V30 972 H 129.126 5.58218 4.73051 0
M  V30 973 H 130.309 6.21726 2.02589 0
M  V30 974 H 131.793 7.86112 2.9231 0
M  V30 975 H 130.099 9.11627 4.55076 0
M  V30 976 H 129.909 9.9573 2.34194 0
M  V30 977 H 128.279 9.2792 2.67832 0
M  V30 978 H 130.918 4.67702 4.28772 0
M  V30 979 P 132.776 7.39546 4.75277 0
M  V30 980 O 134.198 7.81777 5.05738 0
M  V30 981 O 132.416 7.1065 3.32998 0
M  V30 982 O 132.453 6.04542 5.56673 0
M  V30 983 C 132.293 6.22772 7.02095 0
M  V30 984 C 132.833 4.97725 7.70406 0
M  V30 985 O 131.777 4.13256 7.58987 0
M  V30 986 C 134.051 4.28231 7.11815 0
M  V30 987 O 134.789 3.49945 8.01648 0
M  V30 988 C 133.382 3.5063 5.96244 0
M  V30 989 O 134.181 2.36482 5.64681 0
M  V30 990 C 132.045 3.15122 6.56374 0
M  V30 991 H 132.077 2.13853 6.99751 0
M  V30 992 H 133.26 4.13501 5.06559 0
M  V30 993 H 134.744 5.03285 6.70911 0
M  V30 994 H 133.05 5.20877 8.75697 0
M  V30 995 H 132.86 7.11046 7.35349 0
M  V30 996 H 131.23 6.35815 7.26986 0
M  V30 997 H 133.869 1.61644 6.13565 0
M  V30 998 P 135.726 3.65191 7.99657 0
M  V30 999 O 137.148 3.8425 8.48115 0
M  V30 1000 O 135.366 4.17805 6.64342 0
M  V30 1001 O 135.403 2.07613 7.95143 0
M  V30 1002 C 135.243 1.44328 9.27336 0
M  V30 1003 C 135.783 0.0220036 9.17197 0
M  V30 1004 O 134.727 -0.626867 8.61923 0
M  V30 1005 C 137.001 -0.24586 8.30336 0
M  V30 1006 O 137.739 -1.39011 8.63583 0
M  V30 1007 C 136.332 -0.273849 6.91158 0
M  V30 1008 O 137.131 -1.06348 6.02892 0
M  V30 1009 C 134.995 -0.897649 7.22545 0
M  V30 1010 H 135.027 -1.9841 7.04286 0
M  V30 1011 H 136.21 0.739928 6.497 0
M  V30 1012 H 137.694 0.60668 8.36503 0
M  V30 1013 H 136 -0.352479 10.1829 0
M  V30 1014 H 135.81 2.00611 10.0304 0
M  V30 1015 H 134.18 1.41843 9.55327 0
M  V30 1016 H 136.819 -1.95734 6.03555 0
M  V30 1017 P 138.677 -1.25109 8.70152 0
M  V30 1018 O 140.098 -1.35288 9.2132 0
M  V30 1019 O 138.317 -0.0769065 7.84762 0
M  V30 1020 O 138.354 -2.55232 7.81161 0
M  V30 1021 C 138.193 -3.79979 8.58246 0
M  V30 1022 C 138.734 -4.94023 7.72785 0
M  V30 1023 O 137.679 -5.18666 6.91125 0
M  V30 1024 C 139.952 -4.69597 6.85231 0
M  V30 1025 O 140.69 -5.83832 6.51337 0
M  V30 1026 C 139.284 -3.96706 5.66633 0
M  V30 1027 O 140.082 -4.14896 4.5003 0
M  V30 1028 C 137.946 -4.66153 5.59313 0
M  V30 1029 N 136.903 -3.71582 5.24027 0
M  V30 1030 C 137.072 -2.39715 5.48833 0
M  V30 1031 N 136.045 -1.65863 5.12845 0
M  V30 1032 C 135.16 -2.57637 4.5973 0
M  V30 1033 C 133.893 -2.40278 4.01027 0
M  V30 1034 N 133.328 -3.57711 3.59575 0
M  V30 1035 C 133.93 -4.80324 3.70476 0
M  V30 1036 N 135.107 -5.01121 4.23801 0
M  V30 1037 C 135.682 -3.84757 4.66372 0
M  V30 1038 H 139.161 -2.8955 5.86187 0
M  V30 1039 H 140.644 -4.0121 7.36511 0
M  V30 1040 H 138.95 -5.81019 8.37003 0
M  V30 1041 H 138.76 -3.73517 9.52265 0
M  V30 1042 H 137.13 -3.97163 8.80359 0
M  V30 1043 H 137.972 -1.98804 5.94332 0
M  V30 1044 H 139.77 -4.90891 4.01857 0
M  V30 1045 P 141.627 -5.75688 6.64379 0
M  V30 1046 O 143.049 -6.11849 7.01846 0
M  V30 1047 O 141.267 -4.30744 6.56026 0
M  V30 1048 O 141.304 -6.37042 5.19165 0
M  V30 1049 C 141.144 -7.83578 5.16515 0
M  V30 1050 C 141.684 -8.33398 3.83019 0
M  V30 1051 O 140.628 -8.10074 3.01034 0
M  V30 1052 C 142.902 -7.65514 3.2257 0
M  V30 1053 O 143.64 -8.4329 2.32297 0
M  V30 1054 C 142.233 -6.40075 2.62207 0
M  V30 1055 O 143.032 -5.92589 1.53712 0
M  V30 1056 C 140.896 -6.9454 2.18503 0
M  V30 1057 H 140.928 -7.23063 1.12091 0
M  V30 1058 H 142.111 -5.6025 3.37201 0
M  V30 1059 H 143.595 -7.35707 4.02681 0
M  V30 1060 H 141.901 -9.40912 3.9095 0
M  V30 1061 H 141.711 -8.29056 5.99158 0
M  V30 1062 H 140.081 -8.10073 5.25882 0
M  V30 1063 H 142.72 -6.30324 0.726794 0
M  V30 1064 P 144.578 -8.4349 2.47671 0
M  V30 1065 O 146 -8.94167 2.5964 0
M  V30 1066 O 144.218 -7.1704 3.19006 0
M  V30 1067 O 144.255 -8.16596 0.923387 0
M  V30 1068 C 144.095 -9.38437 0.108857 0
M  V30 1069 C 144.635 -9.08175 -1.28353 0
M  V30 1070 O 143.579 -8.44229 -1.84713 0
M  V30 1071 C 145.853 -8.18386 -1.42505 0
M  V30 1072 O 146.591 -8.3501 -2.60497 0
M  V30 1073 C 145.184 -6.80225 -1.25468 0
M  V30 1074 O 145.983 -5.81621 -1.91066 0
M  V30 1075 C 143.847 -7.02416 -1.9168 0
M  V30 1076 H 143.879 -6.6888 -2.96621 0
M  V30 1077 H 145.062 -6.53617 -0.192223 0
M  V30 1078 H 146.546 -8.36622 -0.589963 0
M  V30 1079 H 144.852 -10.0291 -1.79807 0
M  V30 1080 H 144.662 -10.2138 0.558219 0
M  V30 1081 H 143.032 -9.6579 0.0444202 0
M  V30 1082 H 145.671 -5.69556 -2.79637 0
M  V30 1083 P 147.528 -8.4349 -2.47671 0
M  V30 1084 O 148.95 -8.92785 -2.65057 0
M  V30 1085 O 147.168 -7.7568 -1.19296 0
M  V30 1086 O 147.205 -7.36886 -3.63805 0
M  V30 1087 C 147.045 -7.95349 -4.982 0
M  V30 1088 C 147.585 -6.94537 -5.98908 0
M  V30 1089 O 146.53 -6.10347 -6.11815 0
M  V30 1090 C 148.803 -6.11426 -5.62335 0
M  V30 1091 O 149.541 -5.6162 -6.70584 0
M  V30 1092 C 148.135 -5.04409 -4.73308 0
M  V30 1093 O 148.933 -3.85929 -4.75106 0
M  V30 1094 C 146.797 -4.8728 -5.41006 0
M  V30 1095 N 145.754 -4.65812 -4.42377 0
M  V30 1096 C 145.816 -5.27109 -3.24335 0
M  V30 1097 N 144.771 -4.94293 -2.47735 0
M  V30 1098 C 144.037 -4.1271 -3.23359 0
M  V30 1099 C 142.731 -3.56384 -2.99934 0
M  V30 1100 O 141.998 -3.69331 -2.00616 0
M  V30 1101 N 142.301 -2.80206 -4.03316 0
M  V30 1102 C 143.05 -2.58614 -5.2172 0
M  V30 1103 N 142.453 -1.75154 -6.13278 0
M  V30 1104 N 144.203 -3.13689 -5.47619 0
M  V30 1105 C 144.66 -3.90921 -4.46436 0
M  V30 1106 H 146.829 -4.02333 -6.11157 0
M  V30 1107 H 148.012 -5.39383 -3.69487 0
M  V30 1108 H 149.497 -6.71414 -5.02615 0
M  V30 1109 H 147.802 -7.4649 -6.93477 0
M  V30 1110 H 147.612 -8.89416 -5.05237 0
M  V30 1111 H 145.981 -8.14876 -5.18409 0
M  V30 1112 H 141.405 -2.36355 -3.95916 0
M  V30 1113 H 146.612 -5.95212 -2.93859 0
M  V30 1114 H 141.542 -1.32473 -5.91856 0
M  V30 1115 H 142.918 -1.5588 -7.03026 0
M  V30 1116 H 148.622 -3.27906 -5.43085 0
M  V30 1117 P 150.479 -5.75688 -6.64379 0
M  V30 1118 O 151.901 -6.07627 -7.05504 0
M  V30 1119 O 150.119 -5.88047 -5.19722 0
M  V30 1120 O 150.156 -4.2322 -7.04443 0
M  V30 1121 C 149.996 -3.99743 -8.4911 0
M  V30 1122 C 150.536 -2.60516 -8.79425 0
M  V30 1123 O 149.48 -1.82684 -8.4467 0
M  V30 1124 C 151.754 -2.10343 -8.03628 0
M  V30 1125 O 152.492 -1.09919 -8.67766 0
M  V30 1126 C 151.085 -1.68446 -6.70876 0
M  V30 1127 O 151.884 -0.678137 -6.08433 0
M  V30 1128 C 149.748 -1.17436 -7.18567 0
M  V30 1129 H 149.78 -0.0804732 -7.31656 0
M  V30 1130 H 150.963 -2.54037 -6.02537 0
M  V30 1131 H 152.447 -2.93881 -7.85526 0
M  V30 1132 H 150.753 -2.53065 -9.86973 0
M  V30 1133 H 150.563 -4.75072 -9.05887 0
M  V30 1134 H 148.933 -4.05244 -8.76668 0
M  V30 1135 H 151.572 0.177647 -6.34251 0
M  V30 1136 P 153.43 -1.25109 -8.70152 0
M  V30 1137 O 154.852 -1.29744 -9.22016 0
M  V30 1138 O 153.07 -2.13714 -7.55141 0
M  V30 1139 O 153.107 0.248149 -8.21425 0
M  V30 1140 C 152.947 1.22779 -9.30434 0
M  V30 1141 C 153.487 2.56293 -8.80664 0
M  V30 1142 O 152.431 3.02979 -8.09349 0
M  V30 1143 C 154.705 2.57523 -7.89775 0
M  V30 1144 O 155.443 3.7668 -7.89438 0
M  V30 1145 C 154.036 2.20997 -6.55446 0
M  V30 1146 O 154.835 2.71895 -5.48509 0
M  V30 1147 C 152.699 2.89693 -6.67988 0
M  V30 1148 H 152.731 3.88793 -6.19859 0
M  V30 1149 H 153.914 1.12046 -6.44229 0
M  V30 1150 H 155.398 1.7746 -8.19711 0
M  V30 1151 H 153.704 3.20706 -9.67112 0
M  V30 1152 H 153.514 0.901032 -10.1892 0
M  V30 1153 H 151.884 1.33049 -9.56592 0
M  V30 1154 H 154.523 3.57847 -5.23962 0
M  V30 1155 P 156.38 3.65191 -7.99657 0
M  V30 1156 O 157.802 3.89332 -8.45794 0
M  V30 1157 O 156.02 2.28472 -7.50807 0
M  V30 1158 O 156.057 4.64972 -6.77611 0
M  V30 1159 C 155.897 6.06319 -7.16352 0
M  V30 1160 C 156.437 6.91731 -6.02299 0
M  V30 1161 O 155.381 6.92449 -5.17064 0
M  V30 1162 C 157.655 6.43627 -5.25174 0
M  V30 1163 O 158.393 7.43686 -4.60469 0
M  V30 1164 C 156.986 5.40275 -4.31916 0
M  V30 1165 O 157.785 5.25279 -3.14438 0
M  V30 1166 C 155.649 6.04847 -4.05327 0
M  V30 1167 H 155.681 6.62195 -3.11261 0
M  V30 1168 H 156.864 4.42556 -4.81383 0
M  V30 1169 H 158.348 5.92458 -5.93643 0
M  V30 1170 H 156.654 7.92655 -6.402 0
M  V30 1171 H 156.464 6.26671 -8.0846 0
M  V30 1172 H 154.834 6.29101 -7.32804 0
M  V30 1173 H 157.473 5.84315 -2.47318 0
M  V30 1174 P 159.331 7.39546 -4.75277 0
M  V30 1175 O 160.753 7.84798 -5.01039 0
M  V30 1176 O 158.971 5.9812 -5.08098 0
M  V30 1177 O 159.008 7.57503 -3.1866 0
M  V30 1178 C 158.848 8.97357 -2.74833 0
M  V30 1179 C 159.388 9.07548 -1.32709 0
M  V30 1180 O 158.332 8.62072 -0.606159 0
M  V30 1181 C 160.606 8.25383 -0.938334 0
M  V30 1182 O 161.344 8.74577 0.146954 0
M  V30 1183 C 159.937 6.8802 -0.712559 0
M  V30 1184 O 160.736 6.1189 0.194655 0
M  V30 1185 C 158.6 7.27966 -0.139777 0
M  V30 1186 H 158.632 7.25354 0.961601 0
M  V30 1187 H 159.815 6.32557 -1.65702 0
M  V30 1188 H 161.299 8.19355 -1.79097 0
M  V30 1189 H 159.605 10.1294 -1.10029 0
M  V30 1190 H 159.415 9.64276 -3.41316 0
M  V30 1191 H 157.785 9.25417 -2.76357 0
M  V30 1192 H 160.424 6.25267 1.07847 0
M  V30 1193 P 162.281 8.791 -1.35693e-13 0
M  V30 1194 O 163.682 9.36698 -0.018734 0
M  V30 1195 O 161.903 7.82499 -1.07878 0
M  V30 1196 O 161.958 8.09434 1.41446 0
M  V30 1197 C 161.798 9.0349 2.53943 0
M  V30 1198 C 162.338 8.35135 3.78975 0
M  V30 1199 O 161.282 7.57904 4.1503 0
M  V30 1200 C 163.555 7.45087 3.67298 0
M  V30 1201 O 164.294 7.27796 4.85194 0
M  V30 1202 C 162.888 6.17323 3.12027 0
M  V30 1203 O 163.686 5.04149 3.47132 0
M  V30 1204 C 161.55 6.19961 3.81809 0
M  V30 1205 N 160.507 5.71575 2.93223 0
M  V30 1206 C 159.472 4.99452 3.47592 0
M  V30 1207 O 159.511 4.7199 4.69732 0
M  V30 1208 N 158.46 4.58505 2.6803 0
M  V30 1209 C 158.508 4.85544 1.36995 0
M  V30 1210 C 159.604 5.55532 0.788532 0
M  V30 1211 C 160.57 5.97426 1.60849 0
M  V30 1212 H 161.582 5.58142 4.72986 0
M  V30 1213 H 162.765 6.21428 2.0318 0
M  V30 1214 H 164.249 7.85913 2.93131 0
M  V30 1215 H 162.555 9.11171 4.55987 0
M  V30 1216 H 162.364 9.9573 2.34194 0
M  V30 1217 H 160.734 9.27824 2.67805 0
M  V30 1218 H 159.652 5.7421 -0.281588 0
M  V30 1219 H 161.416 6.53132 1.202 0
M  V30 1220 H 163.47 4.76386 4.34983 0
M  V30 1221 P 165.232 7.39546 4.75277 0
M  V30 1222 O 166.654 7.81777 5.05738 0
M  V30 1223 O 164.872 7.1065 3.32998 0
M  V30 1224 O 164.909 6.04542 5.56673 0
M  V30 1225 C 164.749 6.22772 7.02095 0
M  V30 1226 C 165.289 4.97725 7.70406 0
M  V30 1227 O 164.233 4.13256 7.58987 0
M  V30 1228 C 166.507 4.28231 7.11815 0
M  V30 1229 O 167.245 3.49945 8.01648 0
M  V30 1230 C 165.838 3.5063 5.96244 0
M  V30 1231 O 166.637 2.36482 5.64681 0
M  V30 1232 C 164.501 3.15122 6.56374 0
M  V30 1233 H 164.533 2.13853 6.99751 0
M  V30 1234 H 165.716 4.13501 5.06559 0
M  V30 1235 H 167.2 5.03285 6.70911 0
M  V30 1236 H 165.506 5.20877 8.75697 0
M  V30 1237 H 165.316 7.11046 7.35349 0
M  V30 1238 H 163.686 6.35815 7.26986 0
M  V30 1239 H 166.325 1.61644 6.13565 0
M  V30 1240 P 168.182 3.65191 7.99657 0
M  V30 1241 O 169.583 3.90823 8.51272 0
M  V30 1242 O 167.804 4.23191 6.66972 0
M  V30 1243 O 167.859 2.07587 7.95046 0
M  V30 1244 C 167.699 1.44328 9.27336 0
M  V30 1245 C 168.239 0.0220012 9.17097 0
M  V30 1246 O 167.183 -0.626794 8.61824 0
M  V30 1247 C 169.456 -0.24586 8.30336 0
M  V30 1248 O 170.195 -1.39011 8.63583 0
M  V30 1249 C 168.789 -0.273849 6.91158 0
M  V30 1250 O 169.587 -1.06331 6.02794 0
M  V30 1251 C 167.451 -0.897649 7.22545 0
M  V30 1252 N 166.408 -0.292839 6.41732 0
M  V30 1253 C 165.373 -1.08701 5.98712 0
M  V30 1254 O 165.412 -2.31211 6.24471 0
M  V30 1255 N 164.361 -0.533391 5.28415 0
M  V30 1256 C 164.409 0.770866 4.98576 0
M  V30 1257 N 163.399 1.29482 4.30134 0
M  V30 1258 C 165.505 1.59049 5.38086 0
M  V30 1259 C 166.471 1.01866 6.10256 0
M  V30 1260 H 167.483 -1.98383 7.04189 0
M  V30 1261 H 168.666 0.733318 6.49674 0
M  V30 1262 H 170.15 0.598386 8.36663 0
M  V30 1263 H 168.456 -0.362662 10.1825 0
M  V30 1264 H 168.265 2.00611 10.0304 0
M  V30 1265 H 166.635 1.41828 9.55228 0
M  V30 1266 H 165.553 2.6415 5.10622 0
M  V30 1267 H 167.317 1.61983 6.44042 0
M  V30 1268 H 162.609 0.69888 4.01361 0
M  V30 1269 H 163.404 2.29327 4.05781 0
M  V30 1270 H 169.371 -1.97777 6.14035 0
M  V30 1271 P 171.133 -1.25109 8.70152 0
M  V30 1272 O 172.554 -1.35288 9.2132 0
M  V30 1273 O 170.773 -0.0769065 7.84762 0
M  V30 1274 O 170.81 -2.55232 7.81161 0
M  V30 1275 C 170.649 -3.79979 8.58246 0
M  V30 1276 C 171.19 -4.94023 7.72785 0
M  V30 1277 O 170.135 -5.18666 6.91125 0
M  V30 1278 C 172.408 -4.69597 6.85231 0
M  V30 1279 O 173.146 -5.83832 6.51337 0
M  V30 1280 C 171.74 -3.96706 5.66633 0
M  V30 1281 O 172.538 -4.14896 4.5003 0
M  V30 1282 C 170.402 -4.66153 5.59313 0
M  V30 1283 N 169.359 -3.71582 5.24027 0
M  V30 1284 C 169.528 -2.39715 5.48833 0
M  V30 1285 N 168.501 -1.65863 5.12845 0
M  V30 1286 C 167.616 -2.57637 4.5973 0
M  V30 1287 C 166.349 -2.40278 4.01027 0
M  V30 1288 N 165.75 -1.19549 3.86744 0
M  V30 1289 N 165.784 -3.57711 3.59575 0
M  V30 1290 C 166.386 -4.80324 3.70476 0
M  V30 1291 N 167.563 -5.01121 4.23801 0
M  V30 1292 C 168.138 -3.84757 4.66372 0
M  V30 1293 H 170.434 -5.47604 4.85148 0
M  V30 1294 H 171.617 -2.8955 5.86187 0
M  V30 1295 H 173.1 -4.0121 7.36511 0
M  V30 1296 H 171.406 -5.81019 8.37003 0
M  V30 1297 H 171.216 -3.73517 9.52265 0
M  V30 1298 H 169.586 -3.97163 8.80359 0
M  V30 1299 H 165.85 -5.66348 3.3183 0
M  V30 1300 H 170.428 -1.98804 5.94332 0
M  V30 1301 H 164.82 -1.13147 3.4281 0
M  V30 1302 H 166.224 -0.344074 4.19692 0
M  V30 1303 H 172.226 -4.90891 4.01857 0
M  V30 1304 P 174.084 -5.75688 6.64379 0
M  V30 1305 O 175.485 -6.11991 7.09136 0
M  V30 1306 O 173.706 -4.30899 6.62018 0
M  V30 1307 O 173.761 -6.36965 5.19102 0
M  V30 1308 C 173.601 -7.83578 5.16515 0
M  V30 1309 C 174.141 -8.33307 3.82977 0
M  V30 1310 O 173.085 -8.0998 3.00999 0
M  V30 1311 C 175.358 -7.65514 3.2257 0
M  V30 1312 O 176.097 -8.4329 2.32297 0
M  V30 1313 C 174.691 -6.40075 2.62207 0
M  V30 1314 O 175.489 -5.92492 1.53687 0
M  V30 1315 C 173.353 -6.9454 2.18503 0
M  V30 1316 N 172.31 -5.95905 2.39948 0
M  V30 1317 C 171.275 -5.89764 1.49837 0
M  V30 1318 O 171.314 -6.64088 0.490975 0
M  V30 1319 N 170.263 -5.02821 1.70992 0
M  V30 1320 C 170.311 -4.21498 2.77236 0
M  V30 1321 N 169.301 -3.37475 2.96465 0
M  V30 1322 C 171.407 -4.23389 3.68205 0
M  V30 1323 C 172.373 -5.12792 3.46171 0
M  V30 1324 H 173.385 -7.22964 1.12076 0
M  V30 1325 H 174.568 -5.60502 3.36589 0
M  V30 1326 H 176.052 -7.36197 4.01993 0
M  V30 1327 H 174.358 -9.41302 3.90009 0
M  V30 1328 H 174.167 -8.29056 5.99158 0
M  V30 1329 H 172.537 -8.09989 5.25828 0
M  V30 1330 H 171.455 -3.54747 4.52399 0
M  V30 1331 H 173.219 -5.18551 4.1489 0
M  V30 1332 H 168.511 -3.36058 2.30304 0
M  V30 1333 H 169.306 -2.73846 3.77171 0
M  V30 1334 H 175.273 -6.40705 0.751752 0
M  V30 1335 P 177.034 -8.4349 2.47671 0
M  V30 1336 O 178.456 -8.94359 2.59696 0
M  V30 1337 O 176.674 -7.1704 3.19006 0
M  V30 1338 O 176.711 -8.16596 0.923387 0
M  V30 1339 C 176.551 -9.38437 0.108857 0
M  V30 1340 C 177.091 -9.08076 -1.28339 0
M  V30 1341 O 176.036 -8.44229 -1.84713 0
M  V30 1342 C 178.309 -8.18386 -1.42505 0
M  V30 1343 O 179.047 -8.3501 -2.60497 0
M  V30 1344 C 177.641 -6.80225 -1.25468 0
M  V30 1345 O 178.439 -5.81526 -1.91035 0
M  V30 1346 C 176.303 -7.02416 -1.9168 0
M  V30 1347 N 175.26 -6.31033 -1.20314 0
M  V30 1348 C 175.322 -6.18781 0.121293 0
M  V30 1349 N 174.277 -5.49762 0.588272 0
M  V30 1350 C 173.543 -5.22015 -0.488988 0
M  V30 1351 C 172.237 -4.61966 -0.596448 0
M  V30 1352 O 171.504 -4.19162 0.309059 0
M  V30 1353 N 171.807 -4.53773 -1.878 0
M  V30 1354 C 172.556 -4.99623 -2.99082 0
M  V30 1355 N 171.959 -4.78912 -4.21227 0
M  V30 1356 N 173.709 -5.59957 -2.91093 0
M  V30 1357 C 174.166 -5.70225 -1.64218 0
M  V30 1358 H 176.335 -6.6888 -2.96621 0
M  V30 1359 H 177.518 -6.53517 -0.192194 0
M  V30 1360 H 179.003 -8.36563 -0.598329 0
M  V30 1361 H 177.308 -10.0291 -1.79807 0
M  V30 1362 H 177.118 -10.2138 0.558219 0
M  V30 1363 H 175.487 -9.6579 0.0444202 0
M  V30 1364 H 170.911 -4.12883 -2.05283 0
M  V30 1365 H 176.118 -6.59596 0.745856 0
M  V30 1366 H 171.048 -4.31425 -4.2628 0
M  V30 1367 H 172.424 -5.11219 -5.07148 0
M  V30 1368 H 178.128 -5.69466 -2.79593 0
M  V30 1369 P 179.985 -8.4349 -2.47671 0
M  V30 1370 O 181.407 -8.92593 -2.65 0
M  V30 1371 O 179.625 -7.7568 -1.19296 0
M  V30 1372 O 179.662 -7.36886 -3.63805 0
M  V30 1373 C 179.502 -7.95349 -4.982 0
M  V30 1374 C 180.042 -6.94612 -5.98974 0
M  V30 1375 O 178.986 -6.10347 -6.11815 0
M  V30 1376 C 181.26 -6.11426 -5.62335 0
M  V30 1377 O 181.998 -5.6162 -6.70584 0
M  V30 1378 C 180.591 -5.04409 -4.73308 0
M  V30 1379 O 181.39 -3.85992 -4.75183 0
M  V30 1380 C 179.254 -4.8728 -5.41006 0
M  V30 1381 H 179.286 -4.02333 -6.11157 0
M  V30 1382 H 180.469 -5.39466 -3.69543 0
M  V30 1383 H 181.953 -6.71916 -5.01943 0
M  V30 1384 H 180.259 -7.4649 -6.93477 0
M  V30 1385 H 180.069 -8.89416 -5.05237 0
M  V30 1386 H 178.439 -8.14876 -5.18409 0
M  V30 1387 H 181.078 -3.27957 -5.4317 0
M  V30 1388 P 182.935 -5.75688 -6.64379 0
M  V30 1389 O 184.336 -6.14823 -7.06682 0
M  V30 1390 O 182.557 -5.93957 -5.20728 0
M  V30 1391 O 182.612 -4.23169 -7.04357 0
M  V30 1392 C 182.452 -3.99743 -8.4911 0
M  V30 1393 C 182.992 -2.60487 -8.79329 0
M  V30 1394 O 181.936 -1.82663 -8.44573 0
M  V30 1395 C 184.209 -2.10343 -8.03628 0
M  V30 1396 O 184.948 -1.09919 -8.67766 0
M  V30 1397 C 183.542 -1.68446 -6.70876 0
M  V30 1398 O 184.34 -0.678026 -6.08333 0
M  V30 1399 C 182.204 -1.17436 -7.18567 0
M  V30 1400 N 181.161 -1.52699 -6.23988 0
M  V30 1401 C 180.126 -0.643793 -6.05085 0
M  V30 1402 O 180.165 0.459118 -6.64315 0
M  V30 1403 N 179.114 -0.976931 -5.22038 0
M  V30 1404 C 179.162 -2.14429 -4.56662 0
M  V30 1405 C 180.258 -3.04203 -4.71481 0
M  V30 1406 C 181.224 -2.69669 -5.56838 0
M  V30 1407 H 182.236 -0.0804622 -7.31556 0
M  V30 1408 H 183.419 -2.53396 -6.02698 0
M  V30 1409 H 184.903 -2.9313 -7.85914 0
M  V30 1410 H 183.209 -2.52078 -9.87225 0
M  V30 1411 H 183.018 -4.75072 -9.05887 0
M  V30 1412 H 181.388 -4.05202 -8.76577 0
M  V30 1413 H 180.306 -3.97309 -4.15519 0
M  V30 1414 H 182.07 -3.36869 -5.72318 0
M  V30 1415 H 184.124 0.167718 -6.44882 0
M  V30 1416 P 185.886 -1.25109 -8.70152 0
M  V30 1417 O 187.308 -1.29744 -9.22016 0
M  V30 1418 O 185.526 -2.13714 -7.55141 0
M  V30 1419 O 185.563 0.248149 -8.21425 0
M  V30 1420 C 185.403 1.22779 -9.30434 0
M  V30 1421 C 185.943 2.56293 -8.80664 0
M  V30 1422 O 184.887 3.02979 -8.09349 0
M  V30 1423 C 187.161 2.57523 -7.89775 0
M  V30 1424 O 187.899 3.7668 -7.89438 0
M  V30 1425 C 186.492 2.20997 -6.55446 0
M  V30 1426 O 187.291 2.71895 -5.48509 0
M  V30 1427 C 185.155 2.89693 -6.67988 0
M  V30 1428 H 185.187 3.88793 -6.19859 0
M  V30 1429 H 186.37 1.12046 -6.44229 0
M  V30 1430 H 187.854 1.7746 -8.19711 0
M  V30 1431 H 186.16 3.20706 -9.67112 0
M  V30 1432 H 185.97 0.901032 -10.1892 0
M  V30 1433 H 184.34 1.33049 -9.56592 0
M  V30 1434 H 186.979 3.57847 -5.23962 0
M  V30 1435 P 188.836 3.65191 -7.99657 0
M  V30 1436 O 190.257 3.89374 -8.45885 0
M  V30 1437 O 188.476 2.28472 -7.50807 0
M  V30 1438 O 188.513 4.64972 -6.77611 0
M  V30 1439 C 188.352 6.06383 -7.16428 0
M  V30 1440 C 188.893 6.91731 -6.02299 0
M  V30 1441 O 187.838 6.92369 -5.17005 0
M  V30 1442 C 190.111 6.43627 -5.25174 0
M  V30 1443 O 190.849 7.43686 -4.60469 0
M  V30 1444 C 189.443 5.40275 -4.31916 0
M  V30 1445 O 190.241 5.24878 -3.14911 0
M  V30 1446 C 188.105 6.04847 -4.05327 0
M  V30 1447 N 187.062 5.04166 -3.98114 0
M  V30 1448 C 187.231 3.84629 -4.59066 0
M  V30 1449 N 186.204 3.0363 -4.45343 0
M  V30 1450 C 185.319 3.76722 -3.68523 0
M  V30 1451 C 184.052 3.43528 -3.17088 0
M  V30 1452 N 183.487 4.44526 -2.44231 0
M  V30 1453 C 184.089 5.65243 -2.20146 0
M  V30 1454 N 185.266 6.00221 -2.65453 0
M  V30 1455 C 185.841 5.00564 -3.39083 0
M  V30 1456 H 189.32 4.42969 -4.80867 0
M  V30 1457 H 190.803 5.92458 -5.93643 0
M  V30 1458 H 189.109 7.93295 -6.39407 0
M  V30 1459 H 188.919 6.26671 -8.0846 0
M  V30 1460 H 187.289 6.29101 -7.32804 0
M  V30 1461 H 188.131 3.58193 -5.14248 0
M  V30 1462 H 189.929 5.84223 -2.47279 0
M  V30 1463 P 191.787 7.39546 -4.75277 0
M  V30 1464 O 193.209 7.84798 -5.01039 0
M  V30 1465 O 191.427 5.9812 -5.08098 0
M  V30 1466 O 191.464 7.57503 -3.1866 0
M  V30 1467 C 191.304 8.97357 -2.74833 0
M  V30 1468 C 191.844 9.07548 -1.32709 0
M  V30 1469 O 190.788 8.62072 -0.606159 0
M  V30 1470 C 193.062 8.25383 -0.938334 0
M  V30 1471 O 193.8 8.74577 0.146954 0
M  V30 1472 C 192.393 6.8802 -0.712559 0
M  V30 1473 O 193.192 6.1189 0.194655 0
M  V30 1474 C 191.056 7.27966 -0.139777 0
M  V30 1475 H 191.088 7.25354 0.961601 0
M  V30 1476 H 192.271 6.32557 -1.65702 0
M  V30 1477 H 193.755 8.19355 -1.79097 0
M  V30 1478 H 192.061 10.1294 -1.10029 0
M  V30 1479 H 191.871 9.64276 -3.41316 0
M  V30 1480 H 190.241 9.25417 -2.76357 0
M  V30 1481 H 192.88 6.25267 1.07847 0
M  V30 1482 P 194.738 8.791 1.12009e-13 0
M  V30 1483 O 196.159 9.31196 0.027936 0
M  V30 1484 O 194.378 7.77869 -1.04071 0
M  V30 1485 O 194.415 8.09533 1.41463 0
M  V30 1486 C 194.254 9.03587 2.5397 0
M  V30 1487 C 194.795 8.35226 3.79016 0
M  V30 1488 O 193.74 7.57904 4.1503 0
M  V30 1489 C 196.013 7.45087 3.67298 0
M  V30 1490 O 196.751 7.27796 4.85194 0
M  V30 1491 C 195.345 6.17323 3.12027 0
M  V30 1492 O 196.143 5.04496 3.46627 0
M  V30 1493 C 194.007 6.19961 3.81809 0
M  V30 1494 N 192.964 5.71575 2.93223 0
M  V30 1495 C 193.133 5.77362 1.59168 0
M  V30 1496 N 192.106 5.3123 0.911893 0
M  V30 1497 C 191.221 4.91717 1.89588 0
M  V30 1498 C 189.954 4.3114 1.8076 0
M  V30 1499 N 189.389 4.06823 3.02898 0
M  V30 1500 C 189.991 4.35062 4.22711 0
M  V30 1501 N 191.168 4.90805 4.35707 0
M  V30 1502 C 191.743 5.16382 3.14469 0
M  V30 1503 H 195.222 6.21428 2.0318 0
M  V30 1504 H 196.705 7.86112 2.9231 0
M  V30 1505 H 195.011 9.11171 4.55987 0
M  V30 1506 H 194.821 9.9573 2.34194 0
M  V30 1507 H 193.191 9.2792 2.67832 0
M  V30 1508 H 194.033 6.16575 1.12198 0
M  V30 1509 H 195.831 4.67628 4.28704 0
M  V30 1510 P 197.688 7.39546 4.75277 0
M  V30 1511 O 199.11 7.81777 5.05738 0
M  V30 1512 O 197.328 7.1065 3.32998 0
M  V30 1513 O 197.365 6.04542 5.56673 0
M  V30 1514 C 197.205 6.22772 7.02095 0
M  V30 1515 C 197.745 4.97725 7.70406 0
M  V30 1516 O 196.689 4.13256 7.58987 0
M  V30 1517 C 198.963 4.28231 7.11815 0
M  V30 1518 O 199.701 3.49945 8.01648 0
M  V30 1519 C 198.294 3.5063 5.96244 0
M  V30 1520 O 199.093 2.36482 5.64681 0
M  V30 1521 C 196.957 3.15122 6.56374 0
M  V30 1522 H 196.989 2.13853 6.99751 0
M  V30 1523 H 198.172 4.13501 5.06559 0
M  V30 1524 H 199.656 5.03285 6.70911 0
M  V30 1525 H 197.962 5.20877 8.75697 0
M  V30 1526 H 197.772 7.11046 7.35349 0
M  V30 1527 H 196.142 6.35815 7.26986 0
M  V30 1528 H 198.781 1.61644 6.13565 0
M  V30 1529 P 200.639 3.65191 7.99657 0
M  V30 1530 O 202.061 3.8425 8.48115 0
M  V30 1531 O 200.279 4.17805 6.64342 0
M  V30 1532 O 200.316 2.07613 7.95143 0
M  V30 1533 C 200.156 1.44328 9.27336 0
M  V30 1534 C 200.696 0.0220036 9.17197 0
M  V30 1535 O 199.64 -0.626867 8.61923 0
M  V30 1536 C 201.914 -0.24586 8.30336 0
M  V30 1537 O 202.652 -1.39011 8.63583 0
M  V30 1538 C 201.245 -0.273849 6.91158 0
M  V30 1539 O 202.044 -1.06348 6.02892 0
M  V30 1540 C 199.908 -0.897649 7.22545 0
M  V30 1541 H 199.94 -1.9841 7.04286 0
M  V30 1542 H 201.123 0.739928 6.497 0
M  V30 1543 H 202.607 0.60668 8.36503 0
M  V30 1544 H 200.913 -0.352479 10.1829 0
M  V30 1545 H 200.723 2.00611 10.0304 0
M  V30 1546 H 199.093 1.41843 9.55327 0
M  V30 1547 H 201.732 -1.95734 6.03555 0
M  V30 1548 P 203.589 -1.25109 8.70152 0
M  V30 1549 O 205.011 -1.35303 9.21419 0
M  V30 1550 O 203.229 -0.0769065 7.84762 0
M  V30 1551 O 203.266 -2.55232 7.81161 0
M  V30 1552 C 203.106 -3.79939 8.58154 0
M  V30 1553 C 203.646 -4.93969 7.72701 0
M  V30 1554 O 202.591 -5.18726 6.91205 0
M  V30 1555 C 204.864 -4.69597 6.85231 0
M  V30 1556 O 205.602 -5.83832 6.51337 0
M  V30 1557 C 204.196 -3.96706 5.66633 0
M  V30 1558 O 204.994 -4.15346 4.49615 0
M  V30 1559 C 202.858 -4.66153 5.59313 0
M  V30 1560 N 201.815 -3.71582 5.24027 0
M  V30 1561 C 201.877 -2.46018 5.67902 0
M  V30 1562 N 200.832 -1.74868 5.24518 0
M  V30 1563 C 200.098 -2.61333 4.54528 0
M  V30 1564 C 198.792 -2.46162 3.95441 0
M  V30 1565 O 198.059 -1.46013 3.94122 0
M  V30 1566 N 198.362 -3.59334 3.34752 0
M  V30 1567 C 199.111 -4.79605 3.3023 0
M  V30 1568 N 198.514 -5.82109 2.6065 0
M  V30 1569 N 200.264 -4.97402 3.8843 0
M  V30 1570 C 200.721 -3.86258 4.50476 0
M  V30 1571 H 202.89 -5.47679 4.85214 0
M  V30 1572 H 204.073 -2.88964 5.86476 0
M  V30 1573 H 205.558 -4.01947 7.36109 0
M  V30 1574 H 203.863 -5.80182 8.37584 0
M  V30 1575 H 203.673 -3.73517 9.52265 0
M  V30 1576 H 202.042 -3.97163 8.80359 0
M  V30 1577 H 197.466 -3.5825 2.90294 0
M  V30 1578 H 202.673 -2.06161 6.30974 0
M  V30 1579 H 197.603 -5.66979 2.15354 0
M  V30 1580 H 198.979 -6.73686 2.54344 0
M  V30 1581 H 204.683 -4.90891 4.01857 0
M  V30 1582 P 206.54 -5.75688 6.64379 0
M  V30 1583 O 207.962 -6.11849 7.01846 0
M  V30 1584 O 206.18 -4.30744 6.56026 0
M  V30 1585 O 206.217 -6.37042 5.19165 0
M  V30 1586 C 206.057 -7.83578 5.16515 0
M  V30 1587 C 206.597 -8.33398 3.83019 0
M  V30 1588 O 205.541 -8.10074 3.01034 0
M  V30 1589 C 207.815 -7.65514 3.2257 0
M  V30 1590 O 208.553 -8.4329 2.32297 0
M  V30 1591 C 207.146 -6.40075 2.62207 0
M  V30 1592 O 207.945 -5.92589 1.53712 0
M  V30 1593 C 205.809 -6.9454 2.18503 0
M  V30 1594 H 205.841 -7.23063 1.12091 0
M  V30 1595 H 207.024 -5.6025 3.37201 0
M  V30 1596 H 208.508 -7.35707 4.02681 0
M  V30 1597 H 206.814 -9.40912 3.9095 0
M  V30 1598 H 206.624 -8.29056 5.99158 0
M  V30 1599 H 204.994 -8.10073 5.25882 0
M  V30 1600 H 207.633 -6.30324 0.726794 0
M  V30 1601 P 209.49 -8.4349 2.47671 0
M  V30 1602 O 210.912 -8.94167 2.5964 0
M  V30 1603 O 209.13 -7.1704 3.19006 0
M  V30 1604 O 209.167 -8.16596 0.923387 0
M  V30 1605 C 209.007 -9.38437 0.108857 0
M  V30 1606 C 209.547 -9.08175 -1.28353 0
M  V30 1607 O 208.491 -8.44229 -1.84713 0
M  V30 1608 C 210.765 -8.18386 -1.42505 0
M  V30 1609 O 211.503 -8.3501 -2.60497 0
M  V30 1610 C 210.096 -6.80225 -1.25468 0
M  V30 1611 O 210.895 -5.81621 -1.91066 0
M  V30 1612 C 208.759 -7.02416 -1.9168 0
M  V30 1613 H 208.791 -6.6888 -2.96621 0
M  V30 1614 H 209.974 -6.53617 -0.192223 0
M  V30 1615 H 211.458 -8.36622 -0.589963 0
M  V30 1616 H 209.764 -10.0291 -1.79807 0
M  V30 1617 H 209.574 -10.2138 0.558219 0
M  V30 1618 H 207.944 -9.6579 0.0444202 0
M  V30 1619 H 210.583 -5.69556 -2.79637 0
M  V30 1620 P 212.441 -8.4349 -2.47671 0
M  V30 1621 O 213.842 -8.99283 -2.62101 0
M  V30 1622 O 212.063 -7.81195 -1.16947 0
M  V30 1623 O 212.118 -7.36797 -3.63761 0
M  V30 1624 C 211.958 -7.95349 -4.982 0
M  V30 1625 C 212.498 -6.94537 -5.98908 0
M  V30 1626 O 211.442 -6.10277 -6.11744 0
M  V30 1627 C 213.715 -6.11426 -5.62335 0
M  V30 1628 O 214.454 -5.6162 -6.70584 0
M  V30 1629 C 213.048 -5.04409 -4.73308 0
M  V30 1630 O 213.846 -3.85929 -4.75106 0
M  V30 1631 C 211.71 -4.8728 -5.41006 0
M  V30 1632 N 210.667 -4.65812 -4.42377 0
M  V30 1633 C 209.632 -3.81293 -4.74224 0
M  V30 1634 O 209.671 -3.20533 -5.83679 0
M  V30 1635 N 208.62 -3.6442 -3.86349 0
M  V30 1636 C 208.668 -4.2728 -2.6824 0
M  V30 1637 N 207.658 -4.09866 -1.83822 0
M  V30 1638 C 209.764 -5.10813 -2.3217 0
M  V30 1639 C 210.73 -5.27909 -3.22647 0
M  V30 1640 H 211.742 -4.02278 -6.11074 0
M  V30 1641 H 212.925 -5.39013 -3.70026 0
M  V30 1642 H 214.409 -6.71494 -5.02675 0
M  V30 1643 H 212.715 -7.45796 -6.94223 0
M  V30 1644 H 212.524 -8.89416 -5.05237 0
M  V30 1645 H 210.894 -8.14791 -5.18355 0
M  V30 1646 H 209.812 -5.58884 -1.34755 0
M  V30 1647 H 211.576 -5.92811 -2.9934 0
M  V30 1648 H 206.868 -3.49095 -2.10018 0
M  V30 1649 H 207.663 -4.56846 -0.924167 0
M  V30 1650 H 213.63 -3.3454 -5.51577 0
M  V30 1651 P 215.392 -5.75688 -6.64379 0
M  V30 1652 O 216.814 -6.07627 -7.05504 0
M  V30 1653 O 215.032 -5.88047 -5.19722 0
M  V30 1654 O 215.069 -4.2322 -7.04443 0
M  V30 1655 C 214.909 -3.99743 -8.4911 0
M  V30 1656 C 215.449 -2.60516 -8.79425 0
M  V30 1657 O 214.393 -1.82684 -8.4467 0
M  V30 1658 C 216.667 -2.10343 -8.03628 0
M  V30 1659 O 217.405 -1.09919 -8.67766 0
M  V30 1660 C 215.998 -1.68446 -6.70876 0
M  V30 1661 O 216.797 -0.678137 -6.08433 0
M  V30 1662 C 214.661 -1.17436 -7.18567 0
M  V30 1663 H 214.693 -0.0804732 -7.31656 0
M  V30 1664 H 215.876 -2.54037 -6.02537 0
M  V30 1665 H 217.36 -2.93881 -7.85526 0
M  V30 1666 H 215.666 -2.53065 -9.86973 0
M  V30 1667 H 215.476 -4.75072 -9.05887 0
M  V30 1668 H 213.846 -4.05244 -8.76668 0
M  V30 1669 H 216.485 0.177647 -6.34251 0
M  V30 1670 P 218.342 -1.25109 -8.70152 0
M  V30 1671 O 219.763 -1.29758 -9.22115 0
M  V30 1672 O 217.982 -2.13714 -7.55141 0
M  V30 1673 O 218.019 0.248149 -8.21425 0
M  V30 1674 C 217.858 1.22792 -9.30533 0
M  V30 1675 C 218.399 2.56293 -8.80664 0
M  V30 1676 O 217.344 3.02944 -8.09255 0
M  V30 1677 C 219.617 2.57523 -7.89775 0
M  V30 1678 O 220.355 3.7668 -7.89438 0
M  V30 1679 C 218.949 2.20997 -6.55446 0
M  V30 1680 O 219.747 2.71302 -5.48691 0
M  V30 1681 C 217.611 2.89693 -6.67988 0
M  V30 1682 N 216.568 2.08895 -6.07487 0
M  V30 1683 C 216.737 0.753809 -5.94137 0
M  V30 1684 N 215.71 0.146592 -5.38801 0
M  V30 1685 C 214.825 1.1768 -5.13693 0
M  V30 1686 C 213.558 1.17563 -4.52477 0
M  V30 1687 N 212.993 2.41918 -4.45789 0
M  V30 1688 C 213.595 3.56493 -4.90792 0
M  V30 1689 N 214.772 3.61423 -5.47817 0
M  V30 1690 C 215.347 2.37779 -5.5588 0
M  V30 1691 H 218.826 1.12673 -6.44018 0
M  V30 1692 H 220.309 1.7746 -8.19711 0
M  V30 1693 H 218.615 3.21673 -9.66791 0
M  V30 1694 H 218.425 0.901032 -10.1892 0
M  V30 1695 H 216.795 1.33049 -9.56592 0
M  V30 1696 H 217.637 0.233081 -6.26266 0
M  V30 1697 H 219.435 3.5779 -5.23879 0
M  V30 1698 P 221.293 3.65191 -7.99657 0
M  V30 1699 O 222.694 3.87414 -8.52829 0
M  V30 1700 O 220.915 2.26932 -7.566 0
M  V30 1701 O 220.97 4.64915 -6.77529 0
M  V30 1702 C 220.81 6.06319 -7.16352 0
M  V30 1703 C 221.35 6.91655 -6.02234 0
M  V30 1704 O 220.294 6.92369 -5.17005 0
M  V30 1705 C 222.567 6.43627 -5.25174 0
M  V30 1706 O 223.306 7.43686 -4.60469 0
M  V30 1707 C 221.9 5.40275 -4.31916 0
M  V30 1708 O 222.698 5.25193 -3.14386 0
M  V30 1709 C 220.562 6.04847 -4.05327 0
M  V30 1710 N 219.519 5.04166 -3.98114 0
M  V30 1711 C 218.484 5.2366 -3.09923 0
M  V30 1712 O 218.523 6.23355 -2.34204 0
M  V30 1713 N 217.472 4.34279 -3.05727 0
M  V30 1714 C 217.52 3.26317 -3.84756 0
M  V30 1715 N 216.51 2.40281 -3.79534 0
M  V30 1716 C 218.616 3.02504 -4.72573 0
M  V30 1717 C 219.582 3.94493 -4.76618 0
M  V30 1718 H 220.594 6.62104 -3.11218 0
M  V30 1719 H 221.777 4.42969 -4.80867 0
M  V30 1720 H 223.261 5.93122 -5.93121 0
M  V30 1721 H 221.567 7.93295 -6.39407 0
M  V30 1722 H 221.376 6.26671 -8.0846 0
M  V30 1723 H 219.746 6.29036 -7.32728 0
M  V30 1724 H 218.664 2.12921 -5.34017 0
M  V30 1725 H 220.428 3.80658 -5.44176 0
M  V30 1726 H 215.72 2.57561 -3.15653 0
M  V30 1727 H 216.515 1.56492 -4.39044 0
M  V30 1728 H 222.482 5.93572 -2.52637 0
M  V30 1729 P 224.243 7.39546 -4.75277 0
M  V30 1730 O 225.665 7.84966 -5.01146 0
M  V30 1731 O 223.883 5.9812 -5.08098 0
M  V30 1732 O 223.92 7.57503 -3.1866 0
M  V30 1733 C 223.76 8.97357 -2.74833 0
M  V30 1734 C 224.3 9.0745 -1.32694 0
M  V30 1735 O 223.245 8.62072 -0.606159 0
M  V30 1736 C 225.518 8.25383 -0.938334 0
M  V30 1737 O 226.256 8.74577 0.146954 0
M  V30 1738 C 224.85 6.8802 -0.712559 0
M  V30 1739 O 225.648 6.11791 0.194623 0
M  V30 1740 C 223.512 7.27966 -0.139777 0
M  V30 1741 N 222.469 6.39368 -0.623421 0
M  V30 1742 C 222.531 5.90299 -1.85969 0
M  V30 1743 N 221.486 5.10919 -2.1133 0
M  V30 1744 C 220.752 5.14646 -1.0015 0
M  V30 1745 C 219.446 4.60057 -0.729219 0
M  V30 1746 O 218.713 3.93476 -1.47746 0
M  V30 1747 N 219.016 4.88302 0.523505 0
M  V30 1748 C 219.765 5.63646 1.46207 0
M  V30 1749 N 219.168 5.78186 2.69239 0
M  V30 1750 N 220.918 6.19285 1.21544 0
M  V30 1751 C 221.375 5.93392 -0.0308487 0
M  V30 1752 H 223.544 7.25354 0.961601 0
M  V30 1753 H 224.727 6.3246 -1.65676 0
M  V30 1754 H 226.212 8.19533 -1.78278 0
M  V30 1755 H 224.517 10.1294 -1.10029 0
M  V30 1756 H 224.327 9.64276 -3.41316 0
M  V30 1757 H 222.696 9.25417 -2.76357 0
M  V30 1758 H 218.12 4.53993 0.806451 0
M  V30 1759 H 223.327 6.11865 -2.57394 0
M  V30 1760 H 218.257 5.34046 2.87467 0
M  V30 1761 H 219.633 6.33391 3.42578 0
M  V30 1762 H 225.337 6.25169 1.0783 0
M  V30 1763 P 227.194 8.791 4.22174e-13 0
M  V30 1764 O 228.616 9.31096 0.027933 0
M  V30 1765 O 226.834 7.77869 -1.04071 0
M  V30 1766 O 226.871 8.09533 1.41463 0
M  V30 1767 C 226.711 9.0349 2.53943 0
M  V30 1768 C 227.251 8.35226 3.79016 0
M  V30 1769 O 226.195 7.57992 4.15078 0
M  V30 1770 C 228.469 7.45087 3.67298 0
M  V30 1771 O 229.207 7.27796 4.85194 0
M  V30 1772 C 227.8 6.17323 3.12027 0
M  V30 1773 O 228.599 5.04231 3.47188 0
M  V30 1774 C 226.463 6.19961 3.81809 0
M  V30 1775 H 226.495 5.58218 4.73051 0
M  V30 1776 H 227.678 6.21726 2.02589 0
M  V30 1777 H 229.162 7.86112 2.9231 0
M  V30 1778 H 227.468 9.11627 4.55076 0
M  V30 1779 H 227.278 9.9573 2.34194 0
M  V30 1780 H 225.648 9.2792 2.67832 0
M  V30 1781 H 228.287 4.67702 4.28772 0
M  V30 1782 P 230.144 7.39546 4.75277 0
M  V30 1783 O 231.566 7.81777 5.05738 0
M  V30 1784 O 229.784 7.1065 3.32998 0
M  V30 1785 O 229.821 6.04542 5.56673 0
M  V30 1786 C 229.661 6.22772 7.02095 0
M  V30 1787 C 230.201 4.97725 7.70406 0
M  V30 1788 O 229.145 4.13256 7.58987 0
M  V30 1789 C 231.419 4.28231 7.11815 0
M  V30 1790 O 232.157 3.49945 8.01648 0
M  V30 1791 C 230.75 3.5063 5.96244 0
M  V30 1792 O 231.549 2.36482 5.64681 0
M  V30 1793 C 229.413 3.15122 6.56374 0
M  V30 1794 H 229.445 2.13853 6.99751 0
M  V30 1795 H 230.628 4.13501 5.06559 0
M  V30 1796 H 232.112 5.03285 6.70911 0
M  V30 1797 H 230.418 5.20877 8.75697 0
M  V30 1798 H 230.228 7.11046 7.35349 0
M  V30 1799 H 228.598 6.35815 7.26986 0
M  V30 1800 H 231.237 1.61644 6.13565 0
M  V30 1801 P 233.095 3.65191 7.99657 0
M  V30 1802 O 234.517 3.8425 8.48115 0
M  V30 1803 O 232.735 4.17805 6.64342 0
M  V30 1804 O 232.772 2.07613 7.95143 0
M  V30 1805 C 232.612 1.44328 9.27336 0
M  V30 1806 C 233.152 0.0220036 9.17197 0
M  V30 1807 O 232.096 -0.626867 8.61923 0
M  V30 1808 C 234.37 -0.24586 8.30336 0
M  V30 1809 O 235.108 -1.39011 8.63583 0
M  V30 1810 C 233.701 -0.273849 6.91158 0
M  V30 1811 O 234.5 -1.06348 6.02892 0
M  V30 1812 C 232.364 -0.897649 7.22545 0
M  V30 1813 H 232.396 -1.9841 7.04286 0
M  V30 1814 H 233.579 0.739928 6.497 0
M  V30 1815 H 235.063 0.60668 8.36503 0
M  V30 1816 H 233.369 -0.352479 10.1829 0
M  V30 1817 H 233.179 2.00611 10.0304 0
M  V30 1818 H 231.549 1.41843 9.55327 0
M  V30 1819 H 234.188 -1.95734 6.03555 0
M  V30 1820 P 236.046 -1.25109 8.70152 0
M  V30 1821 O 237.468 -1.35274 9.21221 0
M  V30 1822 O 235.686 -0.0769065 7.84762 0
M  V30 1823 O 235.723 -2.55232 7.81161 0
M  V30 1824 C 235.563 -3.79939 8.58154 0
M  V30 1825 C 236.103 -4.94023 7.72785 0
M  V30 1826 O 235.047 -5.18726 6.91205 0
M  V30 1827 C 237.321 -4.69597 6.85231 0
M  V30 1828 O 238.059 -5.83832 6.51337 0
M  V30 1829 C 236.652 -3.96706 5.66633 0
M  V30 1830 O 237.451 -4.15414 4.49689 0
M  V30 1831 C 235.315 -4.66153 5.59313 0
M  V30 1832 H 235.347 -5.47679 4.85214 0
M  V30 1833 H 236.53 -2.89008 5.86566 0
M  V30 1834 H 238.014 -4.0121 7.36511 0
M  V30 1835 H 236.32 -5.80182 8.37584 0
M  V30 1836 H 236.13 -3.73517 9.52265 0
M  V30 1837 H 234.5 -3.97163 8.80359 0
M  V30 1838 H 237.139 -4.90969 4.01921 0
M  V30 1839 P 238.996 -5.75688 6.64379 0
M  V30 1840 O 240.418 -6.11849 7.01846 0
M  V30 1841 O 238.636 -4.30744 6.56026 0
M  V30 1842 O 238.673 -6.37042 5.19165 0
M  V30 1843 C 238.513 -7.83578 5.16515 0
M  V30 1844 C 239.053 -8.33398 3.83019 0
M  V30 1845 O 237.997 -8.10074 3.01034 0
M  V30 1846 C 240.271 -7.65514 3.2257 0
M  V30 1847 O 241.009 -8.4329 2.32297 0
M  V30 1848 C 239.602 -6.40075 2.62207 0
M  V30 1849 O 240.401 -5.92589 1.53712 0
M  V30 1850 C 238.265 -6.9454 2.18503 0
M  V30 1851 H 238.297 -7.23063 1.12091 0
M  V30 1852 H 239.48 -5.6025 3.37201 0
M  V30 1853 H 240.964 -7.35707 4.02681 0
M  V30 1854 H 239.27 -9.40912 3.9095 0
M  V30 1855 H 239.08 -8.29056 5.99158 0
M  V30 1856 H 237.45 -8.10073 5.25882 0
M  V30 1857 H 240.089 -6.30324 0.726794 0
M  V30 1858 P 241.947 -8.4349 2.47671 0
M  V30 1859 O 243.369 -8.94167 2.5964 0
M  V30 1860 O 241.587 -7.1704 3.19006 0
M  V30 1861 O 241.624 -8.16596 0.923387 0
M  V30 1862 C 241.464 -9.38437 0.108857 0
M  V30 1863 C 242.004 -9.08175 -1.28353 0
M  V30 1864 O 240.948 -8.44229 -1.84713 0
M  V30 1865 C 243.222 -8.18386 -1.42505 0
M  V30 1866 O 243.96 -8.3501 -2.60497 0
M  V30 1867 C 242.553 -6.80225 -1.25468 0
M  V30 1868 O 243.352 -5.81621 -1.91066 0
M  V30 1869 C 241.216 -7.02416 -1.9168 0
M  V30 1870 H 241.248 -6.6888 -2.96621 0
M  V30 1871 H 242.431 -6.53617 -0.192223 0
M  V30 1872 H 243.915 -8.36622 -0.589963 0
M  V30 1873 H 242.221 -10.0291 -1.79807 0
M  V30 1874 H 242.031 -10.2138 0.558219 0
M  V30 1875 H 240.401 -9.6579 0.0444202 0
M  V30 1876 H 243.04 -5.69556 -2.79637 0
M  V30 1877 P 244.897 -8.4349 -2.47671 0
M  V30 1878 O 246.319 -8.92593 -2.65 0
M  V30 1879 O 244.537 -7.7568 -1.19296 0
M  V30 1880 O 244.574 -7.36886 -3.63805 0
M  V30 1881 C 244.414 -7.95349 -4.982 0
M  V30 1882 C 244.954 -6.94612 -5.98974 0
M  V30 1883 O 243.898 -6.10347 -6.11815 0
M  V30 1884 C 246.172 -6.11426 -5.62335 0
M  V30 1885 O 246.91 -5.6162 -6.70584 0
M  V30 1886 C 245.503 -5.04409 -4.73308 0
M  V30 1887 O 246.302 -3.85992 -4.75183 0
M  V30 1888 C 244.166 -4.8728 -5.41006 0
M  V30 1889 H 244.198 -4.02333 -6.11157 0
M  V30 1890 H 245.381 -5.39466 -3.69543 0
M  V30 1891 H 246.865 -6.71916 -5.01943 0
M  V30 1892 H 245.171 -7.4649 -6.93477 0
M  V30 1893 H 244.981 -8.89416 -5.05237 0
M  V30 1894 H 243.351 -8.14876 -5.18409 0
M  V30 1895 H 245.99 -3.27957 -5.4317 0
M  V30 1896 P 247.848 -5.75688 -6.64379 0
M  V30 1897 O 249.27 -6.07627 -7.05504 0
M  V30 1898 O 247.488 -5.88047 -5.19722 0
M  V30 1899 O 247.525 -4.2322 -7.04443 0
M  V30 1900 C 247.365 -3.99743 -8.4911 0
M  V30 1901 C 247.905 -2.60516 -8.79425 0
M  V30 1902 O 246.849 -1.82684 -8.4467 0
M  V30 1903 C 249.123 -2.10343 -8.03628 0
M  V30 1904 O 249.861 -1.09919 -8.67766 0
M  V30 1905 C 248.454 -1.68446 -6.70876 0
M  V30 1906 O 249.253 -0.678137 -6.08433 0
M  V30 1907 C 247.117 -1.17436 -7.18567 0
M  V30 1908 H 247.149 -0.0804732 -7.31656 0
M  V30 1909 H 248.332 -2.54037 -6.02537 0
M  V30 1910 H 249.816 -2.93881 -7.85526 0
M  V30 1911 H 248.122 -2.53065 -9.86973 0
M  V30 1912 H 247.932 -4.75072 -9.05887 0
M  V30 1913 H 246.302 -4.05244 -8.76668 0
M  V30 1914 H 248.941 0.177647 -6.34251 0
M  V30 1915 P 250.798 -1.25109 -8.70152 0
M  V30 1916 O 252.219 -1.29758 -9.22115 0
M  V30 1917 O 250.438 -2.13714 -7.55141 0
M  V30 1918 O 250.475 0.248149 -8.21425 0
M  V30 1919 C 250.314 1.22792 -9.30533 0
M  V30 1920 C 250.855 2.56293 -8.80664 0
M  V30 1921 O 249.8 3.02944 -8.09255 0
M  V30 1922 C 252.073 2.57523 -7.89775 0
M  V30 1923 O 252.811 3.7668 -7.89438 0
M  V30 1924 C 251.405 2.20997 -6.55446 0
M  V30 1925 O 252.203 2.71302 -5.48691 0
M  V30 1926 C 250.067 2.89693 -6.67988 0
M  V30 1927 N 249.024 2.08895 -6.07487 0
M  V30 1928 C 249.193 0.753809 -5.94137 0
M  V30 1929 N 248.166 0.146592 -5.38801 0
M  V30 1930 C 247.281 1.1768 -5.13693 0
M  V30 1931 C 246.014 1.17563 -4.52477 0
M  V30 1932 N 245.449 2.41918 -4.45789 0
M  V30 1933 C 246.051 3.56493 -4.90792 0
M  V30 1934 N 247.228 3.61423 -5.47817 0
M  V30 1935 C 247.803 2.37779 -5.5588 0
M  V30 1936 H 251.282 1.12673 -6.44018 0
M  V30 1937 H 252.765 1.7746 -8.19711 0
M  V30 1938 H 251.071 3.21673 -9.66791 0
M  V30 1939 H 250.881 0.901032 -10.1892 0
M  V30 1940 H 249.251 1.33049 -9.56592 0
M  V30 1941 H 250.093 0.233081 -6.26266 0
M  V30 1942 H 251.891 3.5779 -5.23879 0
M  V30 1943 P 253.749 3.65191 -7.99657 0
M  V30 1944 O 255.17 3.89374 -8.45885 0
M  V30 1945 O 253.389 2.28472 -7.50807 0
M  V30 1946 O 253.426 4.64972 -6.77611 0
M  V30 1947 C 253.265 6.06383 -7.16428 0
M  V30 1948 C 253.806 6.91731 -6.02299 0
M  V30 1949 O 252.751 6.92369 -5.17005 0
M  V30 1950 C 255.024 6.43627 -5.25174 0
M  V30 1951 O 255.762 7.43686 -4.60469 0
M  V30 1952 C 254.356 5.40275 -4.31916 0
M  V30 1953 O 255.154 5.24878 -3.14911 0
M  V30 1954 C 253.018 6.04847 -4.05327 0
M  V30 1955 N 251.975 5.04166 -3.98114 0
M  V30 1956 C 252.144 3.84629 -4.59066 0
M  V30 1957 N 251.117 3.0363 -4.45343 0
M  V30 1958 C 250.232 3.76722 -3.68523 0
M  V30 1959 C 248.965 3.43528 -3.17088 0
M  V30 1960 N 248.4 4.44526 -2.44231 0
M  V30 1961 C 249.002 5.65243 -2.20146 0
M  V30 1962 N 250.179 6.00221 -2.65453 0
M  V30 1963 C 250.754 5.00564 -3.39083 0
M  V30 1964 H 254.233 4.42969 -4.80867 0
M  V30 1965 H 255.716 5.92458 -5.93643 0
M  V30 1966 H 254.022 7.93295 -6.39407 0
M  V30 1967 H 253.832 6.26671 -8.0846 0
M  V30 1968 H 252.202 6.29101 -7.32804 0
M  V30 1969 H 253.044 3.58193 -5.14248 0
M  V30 1970 H 254.842 5.84223 -2.47279 0
M  V30 1971 P 256.7 7.39546 -4.75277 0
M  V30 1972 O 258.101 7.86988 -5.07993 0
M  V30 1973 O 256.322 5.99957 -5.13804 0
M  V30 1974 O 256.377 7.57411 -3.18621 0
M  V30 1975 C 256.217 8.97357 -2.74833 0
M  V30 1976 C 256.757 9.0745 -1.32694 0
M  V30 1977 O 255.701 8.61972 -0.606089 0
M  V30 1978 C 257.974 8.25383 -0.938334 0
M  V30 1979 O 258.713 8.74577 0.146954 0
M  V30 1980 C 257.307 6.8802 -0.712559 0
M  V30 1981 O 258.105 6.11791 0.194623 0
M  V30 1982 C 255.969 7.27966 -0.139777 0
M  V30 1983 N 254.926 6.39368 -0.623421 0
M  V30 1984 C 253.891 6.08088 0.223886 0
M  V30 1985 O 253.93 6.5102 1.39986 0
M  V30 1986 N 252.879 5.30627 -0.224051 0
M  V30 1987 C 252.927 4.82531 -1.47257 0
M  V30 1988 C 254.023 5.09974 -2.34008 0
M  V30 1989 C 254.989 5.89548 -1.87678 0
M  V30 1990 H 256.001 7.25255 0.961469 0
M  V30 1991 H 257.184 6.32625 -1.65044 0
M  V30 1992 H 258.668 8.19631 -1.78299 0
M  V30 1993 H 256.974 10.1305 -1.09016 0
M  V30 1994 H 256.783 9.64276 -3.41316 0
M  V30 1995 H 255.153 9.25321 -2.76328 0
M  V30 1996 H 254.071 4.67832 -3.3413 0
M  V30 1997 H 255.835 6.14434 -2.51991 0
M  V30 1998 H 257.889 6.35931 1.08377 0
M  V30 1999 P 259.65 8.791 7.3234e-13 0
M  V30 2000 O 261.071 9.31196 0.027936 0
M  V30 2001 O 259.29 7.77869 -1.04071 0
M  V30 2002 O 259.327 8.09533 1.41463 0
M  V30 2003 C 259.166 9.03587 2.5397 0
M  V30 2004 C 259.707 8.35226 3.79016 0
M  V30 2005 O 258.652 7.57904 4.1503 0
M  V30 2006 C 260.925 7.45087 3.67298 0
M  V30 2007 O 261.663 7.27796 4.85194 0
M  V30 2008 C 260.257 6.17323 3.12027 0
M  V30 2009 O 261.055 5.04496 3.46627 0
M  V30 2010 C 258.919 6.19961 3.81809 0
M  V30 2011 N 257.876 5.71575 2.93223 0
M  V30 2012 C 258.045 5.77362 1.59168 0
M  V30 2013 N 257.018 5.3123 0.911893 0
M  V30 2014 C 256.133 4.91717 1.89588 0
M  V30 2015 C 254.866 4.3114 1.8076 0
M  V30 2016 N 254.301 4.06823 3.02898 0
M  V30 2017 C 254.903 4.35062 4.22711 0
M  V30 2018 N 256.08 4.90805 4.35707 0
M  V30 2019 C 256.655 5.16382 3.14469 0
M  V30 2020 H 260.134 6.21428 2.0318 0
M  V30 2021 H 261.617 7.86112 2.9231 0
M  V30 2022 H 259.923 9.11171 4.55987 0
M  V30 2023 H 259.733 9.9573 2.34194 0
M  V30 2024 H 258.103 9.2792 2.67832 0
M  V30 2025 H 258.945 6.16575 1.12198 0
M  V30 2026 H 260.743 4.67628 4.28704 0
M  V30 2027 P 262.601 7.39546 4.75277 0
M  V30 2028 O 264.023 7.81777 5.05738 0
M  V30 2029 O 262.241 7.1065 3.32998 0
M  V30 2030 O 262.278 6.04542 5.56673 0
M  V30 2031 C 262.118 6.22772 7.02095 0
M  V30 2032 C 262.658 4.97725 7.70406 0
M  V30 2033 O 261.602 4.13256 7.58987 0
M  V30 2034 C 263.876 4.28231 7.11815 0
M  V30 2035 O 264.614 3.49945 8.01648 0
M  V30 2036 C 263.207 3.5063 5.96244 0
M  V30 2037 O 264.006 2.36482 5.64681 0
M  V30 2038 C 261.87 3.15122 6.56374 0
M  V30 2039 H 261.902 2.13853 6.99751 0
M  V30 2040 H 263.085 4.13501 5.06559 0
M  V30 2041 H 264.569 5.03285 6.70911 0
M  V30 2042 H 262.875 5.20877 8.75697 0
M  V30 2043 H 262.685 7.11046 7.35349 0
M  V30 2044 H 261.055 6.35815 7.26986 0
M  V30 2045 H 263.694 1.61644 6.13565 0
M  V30 2046 P 265.551 3.65191 7.99657 0
M  V30 2047 O 266.973 3.84333 8.48297 0
M  V30 2048 O 265.191 4.17805 6.64342 0
M  V30 2049 O 265.228 2.07613 7.95143 0
M  V30 2050 C 265.068 1.44328 9.27336 0
M  V30 2051 C 265.608 0.0220012 9.17097 0
M  V30 2052 O 264.553 -0.626867 8.61923 0
M  V30 2053 C 266.826 -0.24586 8.30336 0
M  V30 2054 O 267.564 -1.39011 8.63583 0
M  V30 2055 C 266.158 -0.273849 6.91158 0
M  V30 2056 O 266.956 -1.06331 6.02794 0
M  V30 2057 C 264.82 -0.897649 7.22545 0
M  V30 2058 N 263.777 -0.292839 6.41732 0
M  V30 2059 C 263.839 1.00068 6.10757 0
M  V30 2060 N 262.794 1.36468 5.35794 0
M  V30 2061 C 262.06 0.258894 5.2366 0
M  V30 2062 C 260.754 0.0670682 4.65752 0
M  V30 2063 O 260.021 0.902443 4.10497 0
M  V30 2064 N 260.324 -1.2131 4.75881 0
M  V30 2065 C 261.073 -2.24934 5.37101 0
M  V30 2066 N 260.476 -3.48783 5.33984 0
M  V30 2067 N 262.226 -2.0844 5.95684 0
M  V30 2068 C 262.683 -0.81395 5.87791 0
M  V30 2069 H 264.852 -1.9841 7.04286 0
M  V30 2070 H 266.035 0.739815 6.49601 0
M  V30 2071 H 267.52 0.598315 8.36563 0
M  V30 2072 H 265.825 -0.352479 10.1829 0
M  V30 2073 H 265.635 2.00611 10.0304 0
M  V30 2074 H 264.004 1.41843 9.55327 0
M  V30 2075 H 259.428 -1.44434 4.37895 0
M  V30 2076 H 264.635 1.67697 6.42268 0
M  V30 2077 H 259.565 -3.60543 4.87699 0
M  V30 2078 H 260.941 -4.29232 5.7819 0
M  V30 2079 H 266.645 -1.95704 6.0346 0
M  V30 2080 P 268.502 -1.25109 8.70152 0
M  V30 2081 O 269.924 -1.35274 9.21221 0
M  V30 2082 O 268.142 -0.0769065 7.84762 0
M  V30 2083 O 268.179 -2.55232 7.81161 0
M  V30 2084 C 268.019 -3.79939 8.58154 0
M  V30 2085 C 268.559 -4.94023 7.72785 0
M  V30 2086 O 267.503 -5.18726 6.91205 0
M  V30 2087 C 269.777 -4.69597 6.85231 0
M  V30 2088 O 270.515 -5.83832 6.51337 0
M  V30 2089 C 269.108 -3.96706 5.66633 0
M  V30 2090 O 269.907 -4.15414 4.49689 0
M  V30 2091 C 267.771 -4.66153 5.59313 0
M  V30 2092 H 267.803 -5.47679 4.85214 0
M  V30 2093 H 268.986 -2.89008 5.86566 0
M  V30 2094 H 270.47 -4.0121 7.36511 0
M  V30 2095 H 268.776 -5.80182 8.37584 0
M  V30 2096 H 268.586 -3.73517 9.52265 0
M  V30 2097 H 266.956 -3.97163 8.80359 0
M  V30 2098 H 269.595 -4.90969 4.01921 0
M  V30 2099 P 271.452 -5.75688 6.64379 0
M  V30 2100 O 272.874 -6.11849 7.01846 0
M  V30 2101 O 271.092 -4.30744 6.56026 0
M  V30 2102 O 271.129 -6.37042 5.19165 0
M  V30 2103 C 270.969 -7.83578 5.16515 0
M  V30 2104 C 271.509 -8.33398 3.83019 0
M  V30 2105 O 270.453 -8.10074 3.01034 0
M  V30 2106 C 272.727 -7.65514 3.2257 0
M  V30 2107 O 273.465 -8.4329 2.32297 0
M  V30 2108 C 272.058 -6.40075 2.62207 0
M  V30 2109 O 272.857 -5.92589 1.53712 0
M  V30 2110 C 270.721 -6.9454 2.18503 0
M  V30 2111 H 270.753 -7.23063 1.12091 0
M  V30 2112 H 271.936 -5.6025 3.37201 0
M  V30 2113 H 273.42 -7.35707 4.02681 0
M  V30 2114 H 271.726 -9.40912 3.9095 0
M  V30 2115 H 271.536 -8.29056 5.99158 0
M  V30 2116 H 269.906 -8.10073 5.25882 0
M  V30 2117 H 272.545 -6.30324 0.726794 0
M  V30 2118 P 274.403 -8.4349 2.47671 0
M  V30 2119 O 275.825 -8.94167 2.5964 0
M  V30 2120 O 274.043 -7.1704 3.19006 0
M  V30 2121 O 274.08 -8.16596 0.923387 0
M  V30 2122 C 273.92 -9.38437 0.108857 0
M  V30 2123 C 274.46 -9.08175 -1.28353 0
M  V30 2124 O 273.404 -8.44229 -1.84713 0
M  V30 2125 C 275.678 -8.18386 -1.42505 0
M  V30 2126 O 276.416 -8.3501 -2.60497 0
M  V30 2127 C 275.009 -6.80225 -1.25468 0
M  V30 2128 O 275.808 -5.81621 -1.91066 0
M  V30 2129 C 273.672 -7.02416 -1.9168 0
M  V30 2130 H 273.704 -6.6888 -2.96621 0
M  V30 2131 H 274.887 -6.53617 -0.192223 0
M  V30 2132 H 276.371 -8.36622 -0.589963 0
M  V30 2133 H 274.677 -10.0291 -1.79807 0
M  V30 2134 H 274.487 -10.2138 0.558219 0
M  V30 2135 H 272.857 -9.6579 0.0444202 0
M  V30 2136 H 275.496 -5.69556 -2.79637 0
M  V30 2137 P 277.354 -8.4349 -2.47671 0
M  V30 2138 O 278.776 -8.92593 -2.65 0
M  V30 2139 O 276.994 -7.7568 -1.19296 0
M  V30 2140 O 277.031 -7.36886 -3.63805 0
M  V30 2141 C 276.871 -7.95349 -4.982 0
M  V30 2142 C 277.411 -6.94612 -5.98974 0
M  V30 2143 O 276.355 -6.10347 -6.11815 0
M  V30 2144 C 278.629 -6.11426 -5.62335 0
M  V30 2145 O 279.367 -5.6162 -6.70584 0
M  V30 2146 C 277.96 -5.04409 -4.73308 0
M  V30 2147 O 278.759 -3.85992 -4.75183 0
M  V30 2148 C 276.623 -4.8728 -5.41006 0
M  V30 2149 H 276.655 -4.02333 -6.11157 0
M  V30 2150 H 277.838 -5.39466 -3.69543 0
M  V30 2151 H 279.322 -6.71916 -5.01943 0
M  V30 2152 H 277.628 -7.4649 -6.93477 0
M  V30 2153 H 277.438 -8.89416 -5.05237 0
M  V30 2154 H 275.808 -8.14876 -5.18409 0
M  V30 2155 H 278.447 -3.27957 -5.4317 0
M  V30 2156 P 280.304 -5.75688 -6.64379 0
M  V30 2157 O 281.725 -6.07692 -7.0558 0
M  V30 2158 O 279.944 -5.88047 -5.19722 0
M  V30 2159 O 279.981 -4.2322 -7.04443 0
M  V30 2160 C 279.82 -3.99785 -8.49201 0
M  V30 2161 C 280.361 -2.60516 -8.79425 0
M  V30 2162 O 279.306 -1.82663 -8.44573 0
M  V30 2163 C 281.579 -2.10343 -8.03628 0
M  V30 2164 O 282.317 -1.09919 -8.67766 0
M  V30 2165 C 280.911 -1.68446 -6.70876 0
M  V30 2166 O 281.709 -0.684109 -6.08265 0
M  V30 2167 C 279.573 -1.17436 -7.18567 0
M  V30 2168 N 278.53 -1.52699 -6.23988 0
M  V30 2169 C 278.699 -2.578 -5.40574 0
M  V30 2170 N 277.672 -2.78966 -4.61193 0
M  V30 2171 C 276.787 -1.78725 -4.95769 0
M  V30 2172 C 275.52 -1.45727 -4.44207 0
M  V30 2173 N 274.921 -2.13994 -3.43613 0
M  V30 2174 N 274.955 -0.374977 -5.05812 0
M  V30 2175 C 275.557 0.345585 -6.05615 0
M  V30 2176 N 276.734 0.0787651 -6.56253 0
M  V30 2177 C 277.309 -1.00499 -5.96189 0
M  V30 2178 H 279.605 -0.0804622 -7.31556 0
M  V30 2179 H 280.788 -2.53396 -6.02698 0
M  V30 2180 H 282.271 -2.93881 -7.85526 0
M  V30 2181 H 280.577 -2.52078 -9.87225 0
M  V30 2182 H 280.387 -4.75072 -9.05887 0
M  V30 2183 H 278.757 -4.05244 -8.76668 0
M  V30 2184 H 275.021 1.20098 -6.4532 0
M  V30 2185 H 279.599 -3.18977 -5.3945 0
M  V30 2186 H 273.991 -1.84983 -3.10004 0
M  V30 2187 H 275.395 -2.9465 -3.00843 0
M  V30 2188 H 281.397 0.177619 -6.34151 0
M  V30 2189 P 283.255 -1.25109 -8.70152 0
M  V30 2190 O 284.677 -1.29744 -9.22016 0
M  V30 2191 O 282.895 -2.13714 -7.55141 0
M  V30 2192 O 282.932 0.248149 -8.21425 0
M  V30 2193 C 282.772 1.22779 -9.30434 0
M  V30 2194 C 283.312 2.56293 -8.80664 0
M  V30 2195 O 282.256 3.02979 -8.09349 0
M  V30 2196 C 284.53 2.57523 -7.89775 0
M  V30 2197 O 285.268 3.7668 -7.89438 0
M  V30 2198 C 283.861 2.20997 -6.55446 0
M  V30 2199 O 284.66 2.71895 -5.48509 0
M  V30 2200 C 282.524 2.89693 -6.67988 0
M  V30 2201 H 282.556 3.88793 -6.19859 0
M  V30 2202 H 283.739 1.12046 -6.44229 0
M  V30 2203 H 285.223 1.7746 -8.19711 0
M  V30 2204 H 283.529 3.20706 -9.67112 0
M  V30 2205 H 283.339 0.901032 -10.1892 0
M  V30 2206 H 281.709 1.33049 -9.56592 0
M  V30 2207 H 284.348 3.57847 -5.23962 0
M  V30 2208 P 286.205 3.65191 -7.99657 0
M  V30 2209 O 287.627 3.89332 -8.45794 0
M  V30 2210 O 285.845 2.28472 -7.50807 0
M  V30 2211 O 285.882 4.64972 -6.77611 0
M  V30 2212 C 285.722 6.06319 -7.16352 0
M  V30 2213 C 286.262 6.91731 -6.02299 0
M  V30 2214 O 285.206 6.92449 -5.17064 0
M  V30 2215 C 287.48 6.43627 -5.25174 0
M  V30 2216 O 288.218 7.43686 -4.60469 0
M  V30 2217 C 286.811 5.40275 -4.31916 0
M  V30 2218 O 287.61 5.25279 -3.14438 0
M  V30 2219 C 285.474 6.04847 -4.05327 0
M  V30 2220 H 285.506 6.62195 -3.11261 0
M  V30 2221 H 286.689 4.42556 -4.81383 0
M  V30 2222 H 288.173 5.92458 -5.93643 0
M  V30 2223 H 286.479 7.92655 -6.402 0
M  V30 2224 H 286.289 6.26671 -8.0846 0
M  V30 2225 H 284.659 6.29101 -7.32804 0
M  V30 2226 H 287.298 5.84315 -2.47318 0
M  V30 2227 P 289.156 7.39546 -4.75277 0
M  V30 2228 O 290.577 7.84882 -5.01092 0
M  V30 2229 O 288.796 5.9812 -5.08098 0
M  V30 2230 O 288.833 7.57503 -3.1866 0
M  V30 2231 C 288.672 8.97452 -2.74862 0
M  V30 2232 C 289.213 9.07548 -1.32709 0
M  V30 2233 O 288.158 8.61972 -0.606089 0
M  V30 2234 C 290.431 8.25383 -0.938334 0
M  V30 2235 O 291.169 8.74577 0.146954 0
M  V30 2236 C 289.763 6.8802 -0.712559 0
M  V30 2237 O 290.561 6.1181 0.188505 0
M  V30 2238 C 288.425 7.27966 -0.139777 0
M  V30 2239 N 287.382 6.39368 -0.623421 0
M  V30 2240 C 287.551 5.71761 -1.78245 0
M  V30 2241 N 286.524 4.962 -2.10491 0
M  V30 2242 C 285.639 5.16158 -1.0635 0
M  V30 2243 C 284.372 4.60425 -0.810266 0
M  V30 2244 N 283.773 3.7057 -1.62914 0
M  V30 2245 N 283.807 5.06 0.348685 0
M  V30 2246 C 284.409 5.94532 1.20395 0
M  V30 2247 N 285.586 6.48452 1.01191 0
M  V30 2248 C 286.161 6.04423 -0.146291 0
M  V30 2249 H 288.457 7.25255 0.961469 0
M  V30 2250 H 289.64 6.32625 -1.65044 0
M  V30 2251 H 291.123 8.19355 -1.79097 0
M  V30 2252 H 289.429 10.1305 -1.09016 0
M  V30 2253 H 289.239 9.64276 -3.41316 0
M  V30 2254 H 287.609 9.25417 -2.76357 0
M  V30 2255 H 283.873 6.21659 2.10714 0
M  V30 2256 H 288.451 5.79354 -2.38959 0
M  V30 2257 H 282.843 3.33174 -1.38982 0
M  V30 2258 H 284.247 3.39714 -2.48836 0
M  V30 2259 H 290.249 6.25169 1.0783 0
M  V30 2260 P 292.106 8.791 1.04251e-12 0
M  V30 2261 O 293.527 9.31196 0.027936 0
M  V30 2262 O 291.746 7.77869 -1.04071 0
M  V30 2263 O 291.783 8.09533 1.41463 0
M  V30 2264 C 291.622 9.03587 2.5397 0
M  V30 2265 C 292.163 8.35226 3.79016 0
M  V30 2266 O 291.108 7.57904 4.1503 0
M  V30 2267 C 293.381 7.45087 3.67298 0
M  V30 2268 O 294.119 7.27796 4.85194 0
M  V30 2269 C 292.713 6.17323 3.12027 0
M  V30 2270 O 293.511 5.04496 3.46627 0
M  V30 2271 C 291.375 6.19961 3.81809 0
M  V30 2272 N 290.332 5.71575 2.93223 0
M  V30 2273 C 290.501 5.77362 1.59168 0
M  V30 2274 N 289.474 5.3123 0.911893 0
M  V30 2275 C 288.589 4.91717 1.89588 0
M  V30 2276 C 287.322 4.3114 1.8076 0
M  V30 2277 N 286.723 3.99821 0.632928 0
M  V30 2278 N 286.757 4.06823 3.02898 0
M  V30 2279 C 287.359 4.35062 4.22711 0
M  V30 2280 N 288.536 4.90805 4.35707 0
M  V30 2281 C 289.111 5.16382 3.14469 0
M  V30 2282 H 291.407 5.58142 4.72986 0
M  V30 2283 H 292.59 6.21428 2.0318 0
M  V30 2284 H 294.073 7.86112 2.9231 0
M  V30 2285 H 292.379 9.11171 4.55987 0
M  V30 2286 H 292.189 9.9573 2.34194 0
M  V30 2287 H 290.559 9.2792 2.67832 0
M  V30 2288 H 286.823 4.09052 5.13359 0
M  V30 2289 H 291.401 6.16575 1.12198 0
M  V30 2290 H 285.793 3.55423 0.632085 0
M  V30 2291 H 287.197 4.20317 -0.256712 0
M  V30 2292 H 293.199 4.67628 4.28704 0
M  V30 2293 P 295.057 7.39546 4.75277 0
M  V30 2294 O 296.479 7.81777 5.05738 0
M  V30 2295 O 294.697 7.1065 3.32998 0
M  V30 2296 O 294.734 6.04542 5.56673 0
M  V30 2297 C 294.574 6.22772 7.02095 0
M  V30 2298 C 295.114 4.97725 7.70406 0
M  V30 2299 O 294.058 4.13256 7.58987 0
M  V30 2300 C 296.332 4.28231 7.11815 0
M  V30 2301 O 297.07 3.49945 8.01648 0
M  V30 2302 C 295.663 3.5063 5.96244 0
M  V30 2303 O 296.462 2.36482 5.64681 0
M  V30 2304 C 294.326 3.15122 6.56374 0
M  V30 2305 H 294.358 2.13853 6.99751 0
M  V30 2306 H 295.541 4.13501 5.06559 0
M  V30 2307 H 297.025 5.03285 6.70911 0
M  V30 2308 H 295.331 5.20877 8.75697 0
M  V30 2309 H 295.141 7.11046 7.35349 0
M  V30 2310 H 293.511 6.35815 7.26986 0
M  V30 2311 H 296.15 1.61644 6.13565 0
M  V30 2312 P 298.008 3.65191 7.99657 0
M  V30 2313 O 299.43 3.8425 8.48115 0
M  V30 2314 O 297.648 4.17805 6.64342 0
M  V30 2315 O 297.685 2.07613 7.95143 0
M  V30 2316 C 297.525 1.44328 9.27336 0
M  V30 2317 C 298.065 0.0220036 9.17197 0
M  V30 2318 O 297.009 -0.626867 8.61923 0
M  V30 2319 C 299.283 -0.24586 8.30336 0
M  V30 2320 O 300.021 -1.39011 8.63583 0
M  V30 2321 C 298.614 -0.273849 6.91158 0
M  V30 2322 O 299.413 -1.06348 6.02892 0
M  V30 2323 C 297.277 -0.897649 7.22545 0
M  V30 2324 H 297.309 -1.9841 7.04286 0
M  V30 2325 H 298.492 0.739928 6.497 0
M  V30 2326 H 299.976 0.60668 8.36503 0
M  V30 2327 H 298.282 -0.352479 10.1829 0
M  V30 2328 H 298.092 2.00611 10.0304 0
M  V30 2329 H 296.462 1.41843 9.55327 0
M  V30 2330 H 299.101 -1.95734 6.03555 0
M  V30 2331 P 300.958 -1.25109 8.70152 0
M  V30 2332 O 302.38 -1.35274 9.21221 0
M  V30 2333 O 300.598 -0.0769065 7.84762 0
M  V30 2334 O 300.635 -2.55232 7.81161 0
M  V30 2335 C 300.475 -3.79939 8.58154 0
M  V30 2336 C 301.015 -4.94023 7.72785 0
M  V30 2337 O 299.959 -5.18726 6.91205 0
M  V30 2338 C 302.233 -4.69597 6.85231 0
M  V30 2339 O 302.971 -5.83832 6.51337 0
M  V30 2340 C 301.564 -3.96706 5.66633 0
M  V30 2341 O 302.363 -4.15414 4.49689 0
M  V30 2342 C 300.227 -4.66153 5.59313 0
M  V30 2343 H 300.259 -5.47679 4.85214 0
M  V30 2344 H 301.442 -2.89008 5.86566 0
M  V30 2345 H 302.926 -4.0121 7.36511 0
M  V30 2346 H 301.232 -5.80182 8.37584 0
M  V30 2347 H 301.042 -3.73517 9.52265 0
M  V30 2348 H 299.412 -3.97163 8.80359 0
M  V30 2349 H 302.051 -4.90969 4.01921 0
M  V30 2350 P 303.909 -5.75688 6.64379 0
M  V30 2351 O 305.331 -6.11849 7.01846 0
M  V30 2352 O 303.549 -4.30744 6.56026 0
M  V30 2353 O 303.586 -6.37042 5.19165 0
M  V30 2354 C 303.426 -7.83578 5.16515 0
M  V30 2355 C 303.966 -8.33398 3.83019 0
M  V30 2356 O 302.91 -8.10074 3.01034 0
M  V30 2357 C 305.184 -7.65514 3.2257 0
M  V30 2358 O 305.922 -8.4329 2.32297 0
M  V30 2359 C 304.515 -6.40075 2.62207 0
M  V30 2360 O 305.314 -5.92589 1.53712 0
M  V30 2361 C 303.178 -6.9454 2.18503 0
M  V30 2362 H 303.21 -7.23063 1.12091 0
M  V30 2363 H 304.393 -5.6025 3.37201 0
M  V30 2364 H 305.877 -7.35707 4.02681 0
M  V30 2365 H 304.183 -9.40912 3.9095 0
M  V30 2366 H 303.993 -8.29056 5.99158 0
M  V30 2367 H 302.363 -8.10073 5.25882 0
M  V30 2368 H 305.002 -6.30324 0.726794 0
M  V30 2369 P 306.859 -8.4349 2.47671 0
M  V30 2370 O 308.281 -8.94167 2.5964 0
M  V30 2371 O 306.499 -7.1704 3.19006 0
M  V30 2372 O 306.536 -8.16596 0.923387 0
M  V30 2373 C 306.376 -9.38437 0.108857 0
M  V30 2374 C 306.916 -9.08175 -1.28353 0
M  V30 2375 O 305.86 -8.44229 -1.84713 0
M  V30 2376 C 308.134 -8.18386 -1.42505 0
M  V30 2377 O 308.872 -8.3501 -2.60497 0
M  V30 2378 C 307.465 -6.80225 -1.25468 0
M  V30 2379 O 308.264 -5.81621 -1.91066 0
M  V30 2380 C 306.128 -7.02416 -1.9168 0
M  V30 2381 H 306.16 -6.6888 -2.96621 0
M  V30 2382 H 307.343 -6.53617 -0.192223 0
M  V30 2383 H 308.827 -8.36622 -0.589963 0
M  V30 2384 H 307.133 -10.0291 -1.79807 0
M  V30 2385 H 306.943 -10.2138 0.558219 0
M  V30 2386 H 305.313 -9.6579 0.0444202 0
M  V30 2387 H 307.952 -5.69556 -2.79637 0
M  V30 2388 P 309.81 -8.4349 -2.47671 0
M  V30 2389 O 311.232 -8.92593 -2.65 0
M  V30 2390 O 309.45 -7.7568 -1.19296 0
M  V30 2391 O 309.487 -7.36886 -3.63805 0
M  V30 2392 C 309.327 -7.95349 -4.982 0
M  V30 2393 C 309.867 -6.94612 -5.98974 0
M  V30 2394 O 308.811 -6.10347 -6.11815 0
M  V30 2395 C 311.085 -6.11426 -5.62335 0
M  V30 2396 O 311.823 -5.6162 -6.70584 0
M  V30 2397 C 310.416 -5.04409 -4.73308 0
M  V30 2398 O 311.215 -3.85992 -4.75183 0
M  V30 2399 C 309.079 -4.8728 -5.41006 0
M  V30 2400 H 309.111 -4.02333 -6.11157 0
M  V30 2401 H 310.294 -5.39466 -3.69543 0
M  V30 2402 H 311.778 -6.71916 -5.01943 0
M  V30 2403 H 310.084 -7.4649 -6.93477 0
M  V30 2404 H 309.894 -8.89416 -5.05237 0
M  V30 2405 H 308.264 -8.14876 -5.18409 0
M  V30 2406 H 310.903 -3.27957 -5.4317 0
M  V30 2407 P 312.76 -5.75688 -6.64379 0
M  V30 2408 O 314.182 -6.07627 -7.05504 0
M  V30 2409 O 312.4 -5.88047 -5.19722 0
M  V30 2410 O 312.437 -4.2322 -7.04443 0
M  V30 2411 C 312.277 -3.99743 -8.4911 0
M  V30 2412 C 312.817 -2.60516 -8.79425 0
M  V30 2413 O 311.761 -1.82684 -8.4467 0
M  V30 2414 C 314.035 -2.10343 -8.03628 0
M  V30 2415 O 314.773 -1.09919 -8.67766 0
M  V30 2416 C 313.366 -1.68446 -6.70876 0
M  V30 2417 O 314.165 -0.678137 -6.08433 0
M  V30 2418 C 312.029 -1.17436 -7.18567 0
M  V30 2419 H 312.061 -0.0804732 -7.31656 0
M  V30 2420 H 313.244 -2.54037 -6.02537 0
M  V30 2421 H 314.728 -2.93881 -7.85526 0
M  V30 2422 H 313.034 -2.53065 -9.86973 0
M  V30 2423 H 312.844 -4.75072 -9.05887 0
M  V30 2424 H 311.214 -4.05244 -8.76668 0
M  V30 2425 H 313.853 0.177647 -6.34251 0
M  V30 2426 P 315.711 -1.25109 -8.70152 0
M  V30 2427 O 317.133 -1.29744 -9.22016 0
M  V30 2428 O 315.351 -2.13714 -7.55141 0
M  V30 2429 O 315.388 0.248149 -8.21425 0
M  V30 2430 C 315.228 1.22779 -9.30434 0
M  V30 2431 C 315.768 2.56293 -8.80664 0
M  V30 2432 O 314.712 3.02979 -8.09349 0
M  V30 2433 C 316.986 2.57523 -7.89775 0
M  V30 2434 O 317.724 3.7668 -7.89438 0
M  V30 2435 C 316.317 2.20997 -6.55446 0
M  V30 2436 O 317.116 2.71895 -5.48509 0
M  V30 2437 C 314.98 2.89693 -6.67988 0
M  V30 2438 H 315.012 3.88793 -6.19859 0
M  V30 2439 H 316.195 1.12046 -6.44229 0
M  V30 2440 H 317.679 1.7746 -8.19711 0
M  V30 2441 H 315.985 3.20706 -9.67112 0
M  V30 2442 H 315.795 0.901032 -10.1892 0
M  V30 2443 H 314.165 1.33049 -9.56592 0
M  V30 2444 H 316.804 3.57847 -5.23962 0
M  V30 2445 P 318.662 3.65191 -7.99657 0
M  V30 2446 O 320.084 3.89332 -8.45794 0
M  V30 2447 O 318.302 2.28472 -7.50807 0
M  V30 2448 O 318.339 4.64972 -6.77611 0
M  V30 2449 C 318.179 6.06319 -7.16352 0
M  V30 2450 C 318.719 6.91731 -6.02299 0
M  V30 2451 O 317.663 6.92449 -5.17064 0
M  V30 2452 C 319.937 6.43627 -5.25174 0
M  V30 2453 O 320.675 7.43686 -4.60469 0
M  V30 2454 C 319.268 5.40275 -4.31916 0
M  V30 2455 O 320.067 5.25279 -3.14438 0
M  V30 2456 C 317.931 6.04847 -4.05327 0
M  V30 2457 H 317.963 6.62195 -3.11261 0
M  V30 2458 H 319.146 4.42556 -4.81383 0
M  V30 2459 H 320.63 5.92458 -5.93643 0
M  V30 2460 H 318.936 7.92655 -6.402 0
M  V30 2461 H 318.746 6.26671 -8.0846 0
M  V30 2462 H 317.116 6.29101 -7.32804 0
M  V30 2463 H 319.755 5.84315 -2.47318 0
M  V30 2464 P 321.612 7.39546 -4.75277 0
M  V30 2465 O 323.034 7.84798 -5.01039 0
M  V30 2466 O 321.252 5.9812 -5.08098 0
M  V30 2467 O 321.289 7.57503 -3.1866 0
M  V30 2468 C 321.129 8.97357 -2.74833 0
M  V30 2469 C 321.669 9.07548 -1.32709 0
M  V30 2470 O 320.613 8.62072 -0.606159 0
M  V30 2471 C 322.887 8.25383 -0.938334 0
M  V30 2472 O 323.625 8.74577 0.146954 0
M  V30 2473 C 322.218 6.8802 -0.712559 0
M  V30 2474 O 323.017 6.1189 0.194655 0
M  V30 2475 C 320.881 7.27966 -0.139777 0
M  V30 2476 H 320.913 7.25354 0.961601 0
M  V30 2477 H 322.096 6.32557 -1.65702 0
M  V30 2478 H 323.58 8.19355 -1.79097 0
M  V30 2479 H 321.886 10.1294 -1.10029 0
M  V30 2480 H 321.696 9.64276 -3.41316 0
M  V30 2481 H 320.066 9.25417 -2.76357 0
M  V30 2482 H 322.705 6.25267 1.07847 0
M  V30 2483 P 324.563 8.791 1.35267e-12 0
M  V30 2484 O 325.985 9.31096 0.027933 0
M  V30 2485 O 324.203 7.77869 -1.04071 0
M  V30 2486 O 324.24 8.09533 1.41463 0
M  V30 2487 C 324.08 9.0349 2.53943 0
M  V30 2488 C 324.62 8.35226 3.79016 0
M  V30 2489 O 323.564 7.57992 4.15078 0
M  V30 2490 C 325.838 7.45087 3.67298 0
M  V30 2491 O 326.576 7.27796 4.85194 0
M  V30 2492 C 325.169 6.17323 3.12027 0
M  V30 2493 O 325.968 5.04231 3.47188 0
M  V30 2494 C 323.832 6.19961 3.81809 0
M  V30 2495 H 323.864 5.58218 4.73051 0
M  V30 2496 H 325.047 6.21726 2.02589 0
M  V30 2497 H 326.531 7.86112 2.9231 0
M  V30 2498 H 324.837 9.11627 4.55076 0
M  V30 2499 H 324.647 9.9573 2.34194 0
M  V30 2500 H 323.017 9.2792 2.67832 0
M  V30 2501 H 325.656 4.67702 4.28772 0
M  V30 2502 P 327.513 7.39546 4.75277 0
M  V30 2503 O 328.935 7.81777 5.05738 0
M  V30 2504 O 327.153 7.1065 3.32998 0
M  V30 2505 O 327.19 6.04542 5.56673 0
M  V30 2506 C 327.03 6.22772 7.02095 0
M  V30 2507 C 327.57 4.97725 7.70406 0
M  V30 2508 O 326.514 4.13256 7.58987 0
M  V30 2509 C 328.788 4.28231 7.11815 0
M  V30 2510 O 329.526 3.49945 8.01648 0
M  V30 2511 C 328.119 3.5063 5.96244 0
M  V30 2512 O 328.918 2.36482 5.64681 0
M  V30 2513 C 326.782 3.15122 6.56374 0
M  V30 2514 H 326.814 2.13853 6.99751 0
M  V30 2515 H 327.997 4.13501 5.06559 0
M  V30 2516 H 329.481 5.03285 6.70911 0
M  V30 2517 H 327.787 5.20877 8.75697 0
M  V30 2518 H 327.597 7.11046 7.35349 0
M  V30 2519 H 325.967 6.35815 7.26986 0
M  V30 2520 H 328.606 1.61644 6.13565 0
M  V30 2521 P 330.464 3.65191 7.99657 0
M  V30 2522 O 331.886 3.84333 8.48297 0
M  V30 2523 O 330.104 4.17805 6.64342 0
M  V30 2524 O 330.141 2.07613 7.95143 0
M  V30 2525 C 329.981 1.44328 9.27336 0
M  V30 2526 C 330.521 0.0220012 9.17097 0
M  V30 2527 O 329.466 -0.626867 8.61923 0
M  V30 2528 C 331.739 -0.24586 8.30336 0
M  V30 2529 O 332.477 -1.39011 8.63583 0
M  V30 2530 C 331.071 -0.273849 6.91158 0
M  V30 2531 O 331.869 -1.06331 6.02794 0
M  V30 2532 C 329.733 -0.897649 7.22545 0
M  V30 2533 N 328.69 -0.292839 6.41732 0
M  V30 2534 C 328.752 1.00068 6.10757 0
M  V30 2535 N 327.707 1.36468 5.35794 0
M  V30 2536 C 326.973 0.258894 5.2366 0
M  V30 2537 C 325.667 0.0670682 4.65752 0
M  V30 2538 O 324.934 0.902443 4.10497 0
M  V30 2539 N 325.237 -1.2131 4.75881 0
M  V30 2540 C 325.986 -2.24934 5.37101 0
M  V30 2541 N 325.389 -3.48783 5.33984 0
M  V30 2542 N 327.139 -2.0844 5.95684 0
M  V30 2543 C 327.596 -0.81395 5.87791 0
M  V30 2544 H 329.765 -1.9841 7.04286 0
M  V30 2545 H 330.948 0.739815 6.49601 0
M  V30 2546 H 332.433 0.598315 8.36563 0
M  V30 2547 H 330.738 -0.352479 10.1829 0
M  V30 2548 H 330.548 2.00611 10.0304 0
M  V30 2549 H 328.917 1.41843 9.55327 0
M  V30 2550 H 324.341 -1.44434 4.37895 0
M  V30 2551 H 329.548 1.67697 6.42268 0
M  V30 2552 H 324.478 -3.60543 4.87699 0
M  V30 2553 H 325.854 -4.29232 5.7819 0
M  V30 2554 H 331.558 -1.95704 6.0346 0
M  V30 2555 P 333.414 -1.25109 8.70152 0
M  V30 2556 O 334.836 -1.35274 9.21221 0
M  V30 2557 O 333.054 -0.0769065 7.84762 0
M  V30 2558 O 333.091 -2.55232 7.81161 0
M  V30 2559 C 332.931 -3.79939 8.58154 0
M  V30 2560 C 333.471 -4.94023 7.72785 0
M  V30 2561 O 332.415 -5.18726 6.91205 0
M  V30 2562 C 334.689 -4.69597 6.85231 0
M  V30 2563 O 335.427 -5.83832 6.51337 0
M  V30 2564 C 334.02 -3.96706 5.66633 0
M  V30 2565 O 334.819 -4.15414 4.49689 0
M  V30 2566 C 332.683 -4.66153 5.59313 0
M  V30 2567 H 332.715 -5.47679 4.85214 0
M  V30 2568 H 333.898 -2.89008 5.86566 0
M  V30 2569 H 335.382 -4.0121 7.36511 0
M  V30 2570 H 333.688 -5.80182 8.37584 0
M  V30 2571 H 333.498 -3.73517 9.52265 0
M  V30 2572 H 331.868 -3.97163 8.80359 0
M  V30 2573 H 334.507 -4.90969 4.01921 0
M  V30 2574 P 336.365 -5.75688 6.64379 0
M  V30 2575 O 337.787 -6.11849 7.01846 0
M  V30 2576 O 336.005 -4.30744 6.56026 0
M  V30 2577 O 336.042 -6.37042 5.19165 0
M  V30 2578 C 335.882 -7.83578 5.16515 0
M  V30 2579 C 336.422 -8.33398 3.83019 0
M  V30 2580 O 335.366 -8.10074 3.01034 0
M  V30 2581 C 337.64 -7.65514 3.2257 0
M  V30 2582 O 338.378 -8.4329 2.32297 0
M  V30 2583 C 336.971 -6.40075 2.62207 0
M  V30 2584 O 337.77 -5.92589 1.53712 0
M  V30 2585 C 335.634 -6.9454 2.18503 0
M  V30 2586 H 335.666 -7.23063 1.12091 0
M  V30 2587 H 336.849 -5.6025 3.37201 0
M  V30 2588 H 338.333 -7.35707 4.02681 0
M  V30 2589 H 336.639 -9.40912 3.9095 0
M  V30 2590 H 336.449 -8.29056 5.99158 0
M  V30 2591 H 334.819 -8.10073 5.25882 0
M  V30 2592 H 337.458 -6.30324 0.726794 0
M  V30 2593 P 339.316 -8.4349 2.47671 0
M  V30 2594 O 340.738 -8.94167 2.5964 0
M  V30 2595 O 338.956 -7.1704 3.19006 0
M  V30 2596 O 338.993 -8.16596 0.923387 0
M  V30 2597 C 338.833 -9.38437 0.108857 0
M  V30 2598 C 339.373 -9.08175 -1.28353 0
M  V30 2599 O 338.317 -8.44229 -1.84713 0
M  V30 2600 C 340.591 -8.18386 -1.42505 0
M  V30 2601 O 341.329 -8.3501 -2.60497 0
M  V30 2602 C 339.922 -6.80225 -1.25468 0
M  V30 2603 O 340.721 -5.81621 -1.91066 0
M  V30 2604 C 338.585 -7.02416 -1.9168 0
M  V30 2605 H 338.617 -6.6888 -2.96621 0
M  V30 2606 H 339.8 -6.53617 -0.192223 0
M  V30 2607 H 341.284 -8.36622 -0.589963 0
M  V30 2608 H 339.59 -10.0291 -1.79807 0
M  V30 2609 H 339.4 -10.2138 0.558219 0
M  V30 2610 H 337.77 -9.6579 0.0444202 0
M  V30 2611 H 340.409 -5.69556 -2.79637 0
M  V30 2612 P 342.266 -8.4349 -2.47671 0
M  V30 2613 O 343.688 -8.92593 -2.65 0
M  V30 2614 O 341.906 -7.7568 -1.19296 0
M  V30 2615 O 341.943 -7.36886 -3.63805 0
M  V30 2616 C 341.783 -7.95349 -4.982 0
M  V30 2617 C 342.323 -6.94612 -5.98974 0
M  V30 2618 O 341.267 -6.10347 -6.11815 0
M  V30 2619 C 343.541 -6.11426 -5.62335 0
M  V30 2620 O 344.279 -5.6162 -6.70584 0
M  V30 2621 C 342.872 -5.04409 -4.73308 0
M  V30 2622 O 343.671 -3.85992 -4.75183 0
M  V30 2623 C 341.535 -4.8728 -5.41006 0
M  V30 2624 H 341.567 -4.02333 -6.11157 0
M  V30 2625 H 342.75 -5.39466 -3.69543 0
M  V30 2626 H 344.234 -6.71916 -5.01943 0
M  V30 2627 H 342.54 -7.4649 -6.93477 0
M  V30 2628 H 342.35 -8.89416 -5.05237 0
M  V30 2629 H 340.72 -8.14876 -5.18409 0
M  V30 2630 H 343.359 -3.27957 -5.4317 0
M  V30 2631 P 345.217 -5.75688 -6.64379 0
M  V30 2632 O 346.639 -6.07627 -7.05504 0
M  V30 2633 O 344.857 -5.88047 -5.19722 0
M  V30 2634 O 344.894 -4.2322 -7.04443 0
M  V30 2635 C 344.734 -3.99743 -8.4911 0
M  V30 2636 C 345.274 -2.60516 -8.79425 0
M  V30 2637 O 344.218 -1.82684 -8.4467 0
M  V30 2638 C 346.492 -2.10343 -8.03628 0
M  V30 2639 O 347.23 -1.09919 -8.67766 0
M  V30 2640 C 345.823 -1.68446 -6.70876 0
M  V30 2641 O 346.622 -0.678137 -6.08433 0
M  V30 2642 C 344.486 -1.17436 -7.18567 0
M  V30 2643 H 344.518 -0.0804732 -7.31656 0
M  V30 2644 H 345.701 -2.54037 -6.02537 0
M  V30 2645 H 347.185 -2.93881 -7.85526 0
M  V30 2646 H 345.491 -2.53065 -9.86973 0
M  V30 2647 H 345.301 -4.75072 -9.05887 0
M  V30 2648 H 343.671 -4.05244 -8.76668 0
M  V30 2649 H 346.31 0.177647 -6.34251 0
M  V30 2650 P 348.167 -1.25109 -8.70152 0
M  V30 2651 O 349.589 -1.29744 -9.22016 0
M  V30 2652 O 347.807 -2.13714 -7.55141 0
M  V30 2653 O 347.844 0.248149 -8.21425 0
M  V30 2654 C 347.684 1.22779 -9.30434 0
M  V30 2655 C 348.224 2.56293 -8.80664 0
M  V30 2656 O 347.168 3.02979 -8.09349 0
M  V30 2657 C 349.442 2.57523 -7.89775 0
M  V30 2658 O 350.18 3.7668 -7.89438 0
M  V30 2659 C 348.773 2.20997 -6.55446 0
M  V30 2660 O 349.572 2.71895 -5.48509 0
M  V30 2661 C 347.436 2.89693 -6.67988 0
M  V30 2662 H 347.468 3.88793 -6.19859 0
M  V30 2663 H 348.651 1.12046 -6.44229 0
M  V30 2664 H 350.135 1.7746 -8.19711 0
M  V30 2665 H 348.441 3.20706 -9.67112 0
M  V30 2666 H 348.251 0.901032 -10.1892 0
M  V30 2667 H 346.621 1.33049 -9.56592 0
M  V30 2668 H 349.26 3.57847 -5.23962 0
M  V30 2669 P 351.118 3.65191 -7.99657 0
M  V30 2670 O 352.539 3.89374 -8.45885 0
M  V30 2671 O 350.758 2.28472 -7.50807 0
M  V30 2672 O 350.795 4.64972 -6.77611 0
M  V30 2673 C 350.634 6.06383 -7.16428 0
M  V30 2674 C 351.175 6.91731 -6.02299 0
M  V30 2675 O 350.12 6.92369 -5.17005 0
M  V30 2676 C 352.393 6.43627 -5.25174 0
M  V30 2677 O 353.131 7.43686 -4.60469 0
M  V30 2678 C 351.725 5.40275 -4.31916 0
M  V30 2679 O 352.523 5.24878 -3.14911 0
M  V30 2680 C 350.387 6.04847 -4.05327 0
M  V30 2681 N 349.344 5.04166 -3.98114 0
M  V30 2682 C 349.513 3.84629 -4.59066 0
M  V30 2683 N 348.486 3.0363 -4.45343 0
M  V30 2684 C 347.601 3.76722 -3.68523 0
M  V30 2685 C 346.334 3.43528 -3.17088 0
M  V30 2686 N 345.735 2.23665 -3.37397 0
M  V30 2687 N 345.769 4.44526 -2.44231 0
M  V30 2688 C 346.371 5.65243 -2.20146 0
M  V30 2689 N 347.548 6.00221 -2.65453 0
M  V30 2690 C 348.123 5.00564 -3.39083 0
M  V30 2691 H 350.419 6.62104 -3.11218 0
M  V30 2692 H 351.602 4.42969 -4.80867 0
M  V30 2693 H 353.085 5.92458 -5.93643 0
M  V30 2694 H 351.391 7.93295 -6.39407 0
M  V30 2695 H 351.201 6.26671 -8.0846 0
M  V30 2696 H 349.571 6.29101 -7.32804 0
M  V30 2697 H 345.835 6.36894 -1.5883 0
M  V30 2698 H 350.413 3.58193 -5.14248 0
M  V30 2699 H 344.805 2.05145 -2.97047 0
M  V30 2700 H 346.209 1.51255 -3.92998 0
M  V30 2701 H 352.211 5.84223 -2.47279 0
M  V30 2702 P 354.068 7.39546 -4.75277 0
M  V30 2703 O 355.49 7.84798 -5.01039 0
M  V30 2704 O 353.708 5.9812 -5.08098 0
M  V30 2705 O 353.745 7.57503 -3.1866 0
M  V30 2706 C 353.585 8.97357 -2.74833 0
M  V30 2707 C 354.125 9.07548 -1.32709 0
M  V30 2708 O 353.069 8.62072 -0.606159 0
M  V30 2709 C 355.343 8.25383 -0.938334 0
M  V30 2710 O 356.081 8.74577 0.146954 0
M  V30 2711 C 354.674 6.8802 -0.712559 0
M  V30 2712 O 355.473 6.1189 0.194655 0
M  V30 2713 C 353.337 7.27966 -0.139777 0
M  V30 2714 H 353.369 7.25354 0.961601 0
M  V30 2715 H 354.552 6.32557 -1.65702 0
M  V30 2716 H 356.036 8.19355 -1.79097 0
M  V30 2717 H 354.342 10.1294 -1.10029 0
M  V30 2718 H 354.152 9.64276 -3.41316 0
M  V30 2719 H 352.522 9.25417 -2.76357 0
M  V30 2720 H 355.161 6.25267 1.07847 0
M  V30 2721 P 357.019 8.791 1.66284e-12 0
M  V30 2722 O 358.441 9.31096 0.027933 0
M  V30 2723 O 356.659 7.77869 -1.04071 0
M  V30 2724 O 356.696 8.09533 1.41463 0
M  V30 2725 C 356.536 9.0349 2.53943 0
M  V30 2726 C 357.076 8.35226 3.79016 0
M  V30 2727 O 356.02 7.57992 4.15078 0
M  V30 2728 C 358.294 7.45087 3.67298 0
M  V30 2729 O 359.032 7.27796 4.85194 0
M  V30 2730 C 357.625 6.17323 3.12027 0
M  V30 2731 O 358.424 5.04231 3.47188 0
M  V30 2732 C 356.288 6.19961 3.81809 0
M  V30 2733 H 356.32 5.58218 4.73051 0
M  V30 2734 H 357.503 6.21726 2.02589 0
M  V30 2735 H 358.987 7.86112 2.9231 0
M  V30 2736 H 357.293 9.11627 4.55076 0
M  V30 2737 H 357.103 9.9573 2.34194 0
M  V30 2738 H 355.473 9.2792 2.67832 0
M  V30 2739 H 358.112 4.67702 4.28772 0
M  V30 2740 P 359.97 7.39546 4.75277 0
M  V30 2741 O 361.392 7.81777 5.05738 0
M  V30 2742 O 359.61 7.1065 3.32998 0
M  V30 2743 O 359.647 6.04542 5.56673 0
M  V30 2744 C 359.487 6.22772 7.02095 0
M  V30 2745 C 360.027 4.97725 7.70406 0
M  V30 2746 O 358.971 4.13256 7.58987 0
M  V30 2747 C 361.245 4.28231 7.11815 0
M  V30 2748 O 361.983 3.49945 8.01648 0
M  V30 2749 C 360.576 3.5063 5.96244 0
M  V30 2750 O 361.375 2.36482 5.64681 0
M  V30 2751 C 359.239 3.15122 6.56374 0
M  V30 2752 H 359.271 2.13853 6.99751 0
M  V30 2753 H 360.454 4.13501 5.06559 0
M  V30 2754 H 361.938 5.03285 6.70911 0
M  V30 2755 H 360.244 5.20877 8.75697 0
M  V30 2756 H 360.054 7.11046 7.35349 0
M  V30 2757 H 358.424 6.35815 7.26986 0
M  V30 2758 H 361.063 1.61644 6.13565 0
M  V30 2759 P 362.92 3.65191 7.99657 0
M  V30 2760 O 364.342 3.8425 8.48115 0
M  V30 2761 O 362.56 4.17805 6.64342 0
M  V30 2762 O 362.597 2.07613 7.95143 0
M  V30 2763 C 362.437 1.44328 9.27336 0
M  V30 2764 C 362.977 0.0220036 9.17197 0
M  V30 2765 O 361.921 -0.626867 8.61923 0
M  V30 2766 C 364.195 -0.24586 8.30336 0
M  V30 2767 O 364.933 -1.39011 8.63583 0
M  V30 2768 C 363.526 -0.273849 6.91158 0
M  V30 2769 O 364.325 -1.06348 6.02892 0
M  V30 2770 C 362.189 -0.897649 7.22545 0
M  V30 2771 H 362.221 -1.9841 7.04286 0
M  V30 2772 H 363.404 0.739928 6.497 0
M  V30 2773 H 364.888 0.60668 8.36503 0
M  V30 2774 H 363.194 -0.352479 10.1829 0
M  V30 2775 H 363.004 2.00611 10.0304 0
M  V30 2776 H 361.374 1.41843 9.55327 0
M  V30 2777 H 364.013 -1.95734 6.03555 0
M  V30 2778 P 365.871 -1.25109 8.70152 0
M  V30 2779 O 367.293 -1.35274 9.21221 0
M  V30 2780 O 365.511 -0.0769065 7.84762 0
M  V30 2781 O 365.548 -2.55232 7.81161 0
M  V30 2782 C 365.388 -3.79939 8.58154 0
M  V30 2783 C 365.928 -4.94023 7.72785 0
M  V30 2784 O 364.872 -5.18726 6.91205 0
M  V30 2785 C 367.146 -4.69597 6.85231 0
M  V30 2786 O 367.884 -5.83832 6.51337 0
M  V30 2787 C 366.477 -3.96706 5.66633 0
M  V30 2788 O 367.276 -4.15414 4.49689 0
M  V30 2789 C 365.14 -4.66153 5.59313 0
M  V30 2790 H 365.172 -5.47679 4.85214 0
M  V30 2791 H 366.355 -2.89008 5.86566 0
M  V30 2792 H 367.839 -4.0121 7.36511 0
M  V30 2793 H 366.145 -5.80182 8.37584 0
M  V30 2794 H 365.955 -3.73517 9.52265 0
M  V30 2795 H 364.325 -3.97163 8.80359 0
M  V30 2796 H 366.964 -4.90969 4.01921 0
M  V30 2797 P 368.821 -5.75688 6.64379 0
M  V30 2798 O 370.243 -6.11849 7.01846 0
M  V30 2799 O 368.461 -4.30744 6.56026 0
M  V30 2800 O 368.498 -6.37042 5.19165 0
M  V30 2801 C 368.338 -7.83578 5.16515 0
M  V30 2802 C 368.878 -8.33398 3.83019 0
M  V30 2803 O 367.822 -8.10074 3.01034 0
M  V30 2804 C 370.096 -7.65514 3.2257 0
M  V30 2805 O 370.834 -8.4329 2.32297 0
M  V30 2806 C 369.427 -6.40075 2.62207 0
M  V30 2807 O 370.226 -5.92589 1.53712 0
M  V30 2808 C 368.09 -6.9454 2.18503 0
M  V30 2809 H 368.122 -7.23063 1.12091 0
M  V30 2810 H 369.305 -5.6025 3.37201 0
M  V30 2811 H 370.789 -7.35707 4.02681 0
M  V30 2812 H 369.095 -9.40912 3.9095 0
M  V30 2813 H 368.905 -8.29056 5.99158 0
M  V30 2814 H 367.275 -8.10073 5.25882 0
M  V30 2815 H 369.914 -6.30324 0.726794 0
M  V30 2816 P 371.772 -8.4349 2.47671 0
M  V30 2817 O 373.194 -8.94167 2.5964 0
M  V30 2818 O 371.412 -7.1704 3.19006 0
M  V30 2819 O 371.449 -8.16596 0.923387 0
M  V30 2820 C 371.289 -9.38437 0.108857 0
M  V30 2821 C 371.829 -9.08175 -1.28353 0
M  V30 2822 O 370.773 -8.44229 -1.84713 0
M  V30 2823 C 373.047 -8.18386 -1.42505 0
M  V30 2824 O 373.785 -8.3501 -2.60497 0
M  V30 2825 C 372.378 -6.80225 -1.25468 0
M  V30 2826 O 373.177 -5.81621 -1.91066 0
M  V30 2827 C 371.041 -7.02416 -1.9168 0
M  V30 2828 H 371.073 -6.6888 -2.96621 0
M  V30 2829 H 372.256 -6.53617 -0.192223 0
M  V30 2830 H 373.74 -8.36622 -0.589963 0
M  V30 2831 H 372.046 -10.0291 -1.79807 0
M  V30 2832 H 371.856 -10.2138 0.558219 0
M  V30 2833 H 370.226 -9.6579 0.0444202 0
M  V30 2834 H 372.865 -5.69556 -2.79637 0
M  V30 2835 P 374.722 -8.4349 -2.47671 0
M  V30 2836 O 376.123 -8.99283 -2.62101 0
M  V30 2837 O 374.344 -7.81195 -1.16947 0
M  V30 2838 O 374.399 -7.36797 -3.63761 0
M  V30 2839 C 374.239 -7.95349 -4.982 0
M  V30 2840 C 374.779 -6.94537 -5.98908 0
M  V30 2841 O 373.723 -6.10277 -6.11744 0
M  V30 2842 C 375.996 -6.11426 -5.62335 0
M  V30 2843 O 376.735 -5.6162 -6.70584 0
M  V30 2844 C 375.329 -5.04409 -4.73308 0
M  V30 2845 O 376.127 -3.85929 -4.75106 0
M  V30 2846 C 373.991 -4.8728 -5.41006 0
M  V30 2847 N 372.948 -4.65812 -4.42377 0
M  V30 2848 C 371.913 -3.81293 -4.74224 0
M  V30 2849 O 371.952 -3.20533 -5.83679 0
M  V30 2850 N 370.901 -3.6442 -3.86349 0
M  V30 2851 C 370.949 -4.2728 -2.6824 0
M  V30 2852 C 372.045 -5.10813 -2.3217 0
M  V30 2853 C 373.011 -5.27909 -3.22647 0
M  V30 2854 H 374.023 -4.02278 -6.11074 0
M  V30 2855 H 375.206 -5.39013 -3.70026 0
M  V30 2856 H 376.69 -6.71494 -5.02675 0
M  V30 2857 H 374.996 -7.45796 -6.94223 0
M  V30 2858 H 374.805 -8.89416 -5.05237 0
M  V30 2859 H 373.175 -8.14791 -5.18355 0
M  V30 2860 H 372.093 -5.58884 -1.34755 0
M  V30 2861 H 373.857 -5.92811 -2.9934 0
M  V30 2862 H 375.911 -3.3454 -5.51577 0
M  V30 2863 P 377.673 -5.75688 -6.64379 0
M  V30 2864 O 379.095 -6.07627 -7.05504 0
M  V30 2865 O 377.313 -5.88047 -5.19722 0
M  V30 2866 O 377.35 -4.2322 -7.04443 0
M  V30 2867 C 377.19 -3.99743 -8.4911 0
M  V30 2868 C 377.73 -2.60516 -8.79425 0
M  V30 2869 O 376.674 -1.82684 -8.4467 0
M  V30 2870 C 378.948 -2.10343 -8.03628 0
M  V30 2871 O 379.686 -1.09919 -8.67766 0
M  V30 2872 C 378.279 -1.68446 -6.70876 0
M  V30 2873 O 379.078 -0.678137 -6.08433 0
M  V30 2874 C 376.942 -1.17436 -7.18567 0
M  V30 2875 H 376.974 -0.0804732 -7.31656 0
M  V30 2876 H 378.157 -2.54037 -6.02537 0
M  V30 2877 H 379.641 -2.93881 -7.85526 0
M  V30 2878 H 377.947 -2.53065 -9.86973 0
M  V30 2879 H 377.757 -4.75072 -9.05887 0
M  V30 2880 H 376.127 -4.05244 -8.76668 0
M  V30 2881 H 378.766 0.177647 -6.34251 0
M  V30 2882 P 380.624 -1.25109 -8.70152 0
M  V30 2883 O 382.046 -1.29744 -9.22016 0
M  V30 2884 O 380.264 -2.13714 -7.55141 0
M  V30 2885 O 380.301 0.248149 -8.21425 0
M  V30 2886 C 380.141 1.22779 -9.30434 0
M  V30 2887 C 380.681 2.56293 -8.80664 0
M  V30 2888 O 379.625 3.02979 -8.09349 0
M  V30 2889 C 381.899 2.57523 -7.89775 0
M  V30 2890 O 382.637 3.7668 -7.89438 0
M  V30 2891 C 381.23 2.20997 -6.55446 0
M  V30 2892 O 382.029 2.71895 -5.48509 0
M  V30 2893 C 379.893 2.89693 -6.67988 0
M  V30 2894 H 379.925 3.88793 -6.19859 0
M  V30 2895 H 381.108 1.12046 -6.44229 0
M  V30 2896 H 382.592 1.7746 -8.19711 0
M  V30 2897 H 380.898 3.20706 -9.67112 0
M  V30 2898 H 380.708 0.901032 -10.1892 0
M  V30 2899 H 379.078 1.33049 -9.56592 0
M  V30 2900 H 381.717 3.57847 -5.23962 0
M  V30 2901 P 383.574 3.65191 -7.99657 0
M  V30 2902 O 384.996 3.89332 -8.45794 0
M  V30 2903 O 383.214 2.28472 -7.50807 0
M  V30 2904 O 383.251 4.64972 -6.77611 0
M  V30 2905 C 383.091 6.06319 -7.16352 0
M  V30 2906 C 383.631 6.91731 -6.02299 0
M  V30 2907 O 382.575 6.92449 -5.17064 0
M  V30 2908 C 384.849 6.43627 -5.25174 0
M  V30 2909 O 385.587 7.43686 -4.60469 0
M  V30 2910 C 384.18 5.40275 -4.31916 0
M  V30 2911 O 384.979 5.25279 -3.14438 0
M  V30 2912 C 382.843 6.04847 -4.05327 0
M  V30 2913 H 382.875 6.62195 -3.11261 0
M  V30 2914 H 384.058 4.42556 -4.81383 0
M  V30 2915 H 385.542 5.92458 -5.93643 0
M  V30 2916 H 383.848 7.92655 -6.402 0
M  V30 2917 H 383.658 6.26671 -8.0846 0
M  V30 2918 H 382.028 6.29101 -7.32804 0
M  V30 2919 H 384.667 5.84315 -2.47318 0
M  V30 2920 P 386.525 7.39546 -4.75277 0
M  V30 2921 O 387.926 7.86988 -5.07993 0
M  V30 2922 O 386.147 5.99957 -5.13804 0
M  V30 2923 O 386.202 7.57411 -3.18621 0
M  V30 2924 C 386.042 8.97357 -2.74833 0
M  V30 2925 C 386.582 9.0745 -1.32694 0
M  V30 2926 O 385.526 8.61972 -0.606089 0
M  V30 2927 C 387.799 8.25383 -0.938334 0
M  V30 2928 O 388.538 8.74577 0.146954 0
M  V30 2929 C 387.132 6.8802 -0.712559 0
M  V30 2930 O 387.93 6.11791 0.194623 0
M  V30 2931 C 385.794 7.27966 -0.139777 0
M  V30 2932 N 384.751 6.39368 -0.623421 0
M  V30 2933 C 383.716 6.08088 0.223886 0
M  V30 2934 O 383.755 6.5102 1.39986 0
M  V30 2935 N 382.704 5.30627 -0.224051 0
M  V30 2936 C 382.752 4.82531 -1.47257 0
M  V30 2937 C 383.848 5.09974 -2.34008 0
M  V30 2938 C 384.814 5.89548 -1.87678 0
M  V30 2939 H 385.826 7.25255 0.961469 0
M  V30 2940 H 387.009 6.32625 -1.65044 0
M  V30 2941 H 388.493 8.19631 -1.78299 0
M  V30 2942 H 386.799 10.1305 -1.09016 0
M  V30 2943 H 386.608 9.64276 -3.41316 0
M  V30 2944 H 384.978 9.25321 -2.76328 0
M  V30 2945 H 383.896 4.67832 -3.3413 0
M  V30 2946 H 385.66 6.14434 -2.51991 0
M  V30 2947 H 387.714 6.35931 1.08377 0
M  V30 2948 P 389.475 8.791 1.973e-12 0
M  V30 2949 O 390.897 9.31096 0.027933 0
M  V30 2950 O 389.115 7.77869 -1.04071 0
M  V30 2951 O 389.152 8.09533 1.41463 0
M  V30 2952 C 388.992 9.0349 2.53943 0
M  V30 2953 C 389.532 8.35226 3.79016 0
M  V30 2954 O 388.476 7.57992 4.15078 0
M  V30 2955 C 390.75 7.45087 3.67298 0
M  V30 2956 O 391.488 7.27796 4.85194 0
M  V30 2957 C 390.081 6.17323 3.12027 0
M  V30 2958 O 390.88 5.04231 3.47188 0
M  V30 2959 C 388.744 6.19961 3.81809 0
M  V30 2960 H 388.776 5.58218 4.73051 0
M  V30 2961 H 389.959 6.21726 2.02589 0
M  V30 2962 H 391.443 7.86112 2.9231 0
M  V30 2963 H 389.749 9.11627 4.55076 0
M  V30 2964 H 389.559 9.9573 2.34194 0
M  V30 2965 H 387.929 9.2792 2.67832 0
M  V30 2966 H 390.568 4.67702 4.28772 0
M  V30 2967 P 392.426 7.39546 4.75277 0
M  V30 2968 O 393.848 7.81777 5.05738 0
M  V30 2969 O 392.066 7.1065 3.32998 0
M  V30 2970 O 392.103 6.04542 5.56673 0
M  V30 2971 C 391.943 6.22772 7.02095 0
M  V30 2972 C 392.483 4.97725 7.70406 0
M  V30 2973 O 391.427 4.13256 7.58987 0
M  V30 2974 C 393.701 4.28231 7.11815 0
M  V30 2975 O 394.439 3.49945 8.01648 0
M  V30 2976 C 393.032 3.5063 5.96244 0
M  V30 2977 O 393.831 2.36482 5.64681 0
M  V30 2978 C 391.695 3.15122 6.56374 0
M  V30 2979 H 391.727 2.13853 6.99751 0
M  V30 2980 H 392.91 4.13501 5.06559 0
M  V30 2981 H 394.394 5.03285 6.70911 0
M  V30 2982 H 392.7 5.20877 8.75697 0
M  V30 2983 H 392.51 7.11046 7.35349 0
M  V30 2984 H 390.88 6.35815 7.26986 0
M  V30 2985 H 393.519 1.61644 6.13565 0
M  V30 2986 P 395.376 3.65191 7.99657 0
M  V30 2987 O 396.798 3.8425 8.48115 0
M  V30 2988 O 395.016 4.17805 6.64342 0
M  V30 2989 O 395.053 2.07613 7.95143 0
M  V30 2990 C 394.893 1.44328 9.27336 0
M  V30 2991 C 395.433 0.0220036 9.17197 0
M  V30 2992 O 394.377 -0.626867 8.61923 0
M  V30 2993 C 396.651 -0.24586 8.30336 0
M  V30 2994 O 397.389 -1.39011 8.63583 0
M  V30 2995 C 395.982 -0.273849 6.91158 0
M  V30 2996 O 396.781 -1.06348 6.02892 0
M  V30 2997 C 394.645 -0.897649 7.22545 0
M  V30 2998 H 394.677 -1.9841 7.04286 0
M  V30 2999 H 395.86 0.739928 6.497 0
M  V30 3000 H 397.344 0.60668 8.36503 0
M  V30 3001 H 395.65 -0.352479 10.1829 0
M  V30 3002 H 395.46 2.00611 10.0304 0
M  V30 3003 H 393.83 1.41843 9.55327 0
M  V30 3004 H 396.469 -1.95734 6.03555 0
M  V30 3005 P 398.327 -1.25109 8.70152 0
M  V30 3006 O 399.749 -1.35274 9.21221 0
M  V30 3007 O 397.967 -0.0769065 7.84762 0
M  V30 3008 O 398.004 -2.55232 7.81161 0
M  V30 3009 C 397.844 -3.79939 8.58154 0
M  V30 3010 C 398.384 -4.94023 7.72785 0
M  V30 3011 O 397.328 -5.18726 6.91205 0
M  V30 3012 C 399.602 -4.69597 6.85231 0
M  V30 3013 O 400.34 -5.83832 6.51337 0
M  V30 3014 C 398.933 -3.96706 5.66633 0
M  V30 3015 O 399.732 -4.15414 4.49689 0
M  V30 3016 C 397.596 -4.66153 5.59313 0
M  V30 3017 H 397.628 -5.47679 4.85214 0
M  V30 3018 H 398.811 -2.89008 5.86566 0
M  V30 3019 H 400.295 -4.0121 7.36511 0
M  V30 3020 H 398.601 -5.80182 8.37584 0
M  V30 3021 H 398.411 -3.73517 9.52265 0
M  V30 3022 H 396.781 -3.97163 8.80359 0
M  V30 3023 H 399.42 -4.90969 4.01921 0
M  V30 3024 P 401.278 -5.75688 6.64379 0
M  V30 3025 O 402.7 -6.11849 7.01846 0
M  V30 3026 O 400.918 -4.30744 6.56026 0
M  V30 3027 O 400.955 -6.37042 5.19165 0
M  V30 3028 C 400.795 -7.83578 5.16515 0
M  V30 3029 C 401.335 -8.33398 3.83019 0
M  V30 3030 O 400.279 -8.10074 3.01034 0
M  V30 3031 C 402.553 -7.65514 3.2257 0
M  V30 3032 O 403.291 -8.4329 2.32297 0
M  V30 3033 C 401.884 -6.40075 2.62207 0
M  V30 3034 O 402.683 -5.92589 1.53712 0
M  V30 3035 C 400.547 -6.9454 2.18503 0
M  V30 3036 H 400.579 -7.23063 1.12091 0
M  V30 3037 H 401.762 -5.6025 3.37201 0
M  V30 3038 H 403.246 -7.35707 4.02681 0
M  V30 3039 H 401.552 -9.40912 3.9095 0
M  V30 3040 H 401.362 -8.29056 5.99158 0
M  V30 3041 H 399.732 -8.10073 5.25882 0
M  V30 3042 H 402.371 -6.30324 0.726794 0
M  V30 3043 P 404.228 -8.4349 2.47671 0
M  V30 3044 O 405.65 -8.94167 2.5964 0
M  V30 3045 O 403.868 -7.1704 3.19006 0
M  V30 3046 O 403.905 -8.16596 0.923387 0
M  V30 3047 C 403.745 -9.38437 0.108857 0
M  V30 3048 C 404.285 -9.08175 -1.28353 0
M  V30 3049 O 403.229 -8.44229 -1.84713 0
M  V30 3050 C 405.503 -8.18386 -1.42505 0
M  V30 3051 O 406.241 -8.3501 -2.60497 0
M  V30 3052 C 404.834 -6.80225 -1.25468 0
M  V30 3053 O 405.633 -5.81621 -1.91066 0
M  V30 3054 C 403.497 -7.02416 -1.9168 0
M  V30 3055 H 403.529 -6.6888 -2.96621 0
M  V30 3056 H 404.712 -6.53617 -0.192223 0
M  V30 3057 H 406.196 -8.36622 -0.589963 0
M  V30 3058 H 404.502 -10.0291 -1.79807 0
M  V30 3059 H 404.312 -10.2138 0.558219 0
M  V30 3060 H 402.682 -9.6579 0.0444202 0
M  V30 3061 H 405.321 -5.69556 -2.79637 0
M  V30 3062 P 407.179 -8.4349 -2.47671 0
M  V30 3063 O 408.601 -8.92785 -2.65057 0
M  V30 3064 O 406.819 -7.7568 -1.19296 0
M  V30 3065 O 406.856 -7.36886 -3.63805 0
M  V30 3066 C 406.696 -7.95349 -4.982 0
M  V30 3067 C 407.236 -6.94537 -5.98908 0
M  V30 3068 O 406.181 -6.10347 -6.11815 0
M  V30 3069 C 408.454 -6.11426 -5.62335 0
M  V30 3070 O 409.192 -5.6162 -6.70584 0
M  V30 3071 C 407.786 -5.04409 -4.73308 0
M  V30 3072 O 408.584 -3.85929 -4.75106 0
M  V30 3073 C 406.448 -4.8728 -5.41006 0
M  V30 3074 N 405.405 -4.65812 -4.42377 0
M  V30 3075 C 405.467 -5.27109 -3.24335 0
M  V30 3076 N 404.422 -4.94293 -2.47735 0
M  V30 3077 C 403.688 -4.1271 -3.23359 0
M  V30 3078 C 402.382 -3.56384 -2.99934 0
M  V30 3079 O 401.649 -3.69331 -2.00616 0
M  V30 3080 N 401.952 -2.80206 -4.03316 0
M  V30 3081 C 402.701 -2.58614 -5.2172 0
M  V30 3082 N 402.104 -1.75154 -6.13278 0
M  V30 3083 N 403.854 -3.13689 -5.47619 0
M  V30 3084 C 404.311 -3.90921 -4.46436 0
M  V30 3085 H 406.48 -4.02333 -6.11157 0
M  V30 3086 H 407.663 -5.39383 -3.69487 0
M  V30 3087 H 409.148 -6.71414 -5.02615 0
M  V30 3088 H 407.453 -7.4649 -6.93477 0
M  V30 3089 H 407.263 -8.89416 -5.05237 0
M  V30 3090 H 405.632 -8.14876 -5.18409 0
M  V30 3091 H 401.056 -2.36355 -3.95916 0
M  V30 3092 H 406.263 -5.95212 -2.93859 0
M  V30 3093 H 401.193 -1.32473 -5.91856 0
M  V30 3094 H 402.569 -1.5588 -7.03026 0
M  V30 3095 H 408.273 -3.27906 -5.43085 0
M  V30 3096 P 410.129 -5.75688 -6.64379 0
M  V30 3097 O 411.55 -6.07692 -7.0558 0
M  V30 3098 O 409.769 -5.88047 -5.19722 0
M  V30 3099 O 409.806 -4.2322 -7.04443 0
M  V30 3100 C 409.645 -3.99785 -8.49201 0
M  V30 3101 C 410.186 -2.60516 -8.79425 0
M  V30 3102 O 409.131 -1.82663 -8.44573 0
M  V30 3103 C 411.404 -2.10343 -8.03628 0
M  V30 3104 O 412.142 -1.09919 -8.67766 0
M  V30 3105 C 410.736 -1.68446 -6.70876 0
M  V30 3106 O 411.534 -0.684109 -6.08265 0
M  V30 3107 C 409.398 -1.17436 -7.18567 0
M  V30 3108 N 408.355 -1.52699 -6.23988 0
M  V30 3109 C 408.524 -2.578 -5.40574 0
M  V30 3110 N 407.497 -2.78966 -4.61193 0
M  V30 3111 C 406.612 -1.78725 -4.95769 0
M  V30 3112 C 405.345 -1.45727 -4.44207 0
M  V30 3113 N 404.746 -2.13994 -3.43613 0
M  V30 3114 N 404.78 -0.374977 -5.05812 0
M  V30 3115 C 405.382 0.345585 -6.05615 0
M  V30 3116 N 406.559 0.0787651 -6.56253 0
M  V30 3117 C 407.134 -1.00499 -5.96189 0
M  V30 3118 H 409.43 -0.0804622 -7.31556 0
M  V30 3119 H 410.613 -2.53396 -6.02698 0
M  V30 3120 H 412.096 -2.93881 -7.85526 0
M  V30 3121 H 410.402 -2.52078 -9.87225 0
M  V30 3122 H 410.212 -4.75072 -9.05887 0
M  V30 3123 H 408.582 -4.05244 -8.76668 0
M  V30 3124 H 404.846 1.20098 -6.4532 0
M  V30 3125 H 409.424 -3.18977 -5.3945 0
M  V30 3126 H 403.816 -1.84983 -3.10004 0
M  V30 3127 H 405.22 -2.9465 -3.00843 0
M  V30 3128 H 411.222 0.177619 -6.34151 0
M  V30 3129 P 413.08 -1.25109 -8.70152 0
M  V30 3130 O 414.502 -1.29744 -9.22016 0
M  V30 3131 O 412.72 -2.13714 -7.55141 0
M  V30 3132 O 412.757 0.248149 -8.21425 0
M  V30 3133 C 412.597 1.22779 -9.30434 0
M  V30 3134 C 413.137 2.56293 -8.80664 0
M  V30 3135 O 412.081 3.02979 -8.09349 0
M  V30 3136 C 414.355 2.57523 -7.89775 0
M  V30 3137 O 415.093 3.7668 -7.89438 0
M  V30 3138 C 413.686 2.20997 -6.55446 0
M  V30 3139 O 414.485 2.71895 -5.48509 0
M  V30 3140 C 412.349 2.89693 -6.67988 0
M  V30 3141 H 412.381 3.88793 -6.19859 0
M  V30 3142 H 413.564 1.12046 -6.44229 0
M  V30 3143 H 415.048 1.7746 -8.19711 0
M  V30 3144 H 413.354 3.20706 -9.67112 0
M  V30 3145 H 413.164 0.901032 -10.1892 0
M  V30 3146 H 411.534 1.33049 -9.56592 0
M  V30 3147 H 414.173 3.57847 -5.23962 0
M  V30 3148 P 416.03 3.65191 -7.99657 0
M  V30 3149 O 417.452 3.89332 -8.45794 0
M  V30 3150 O 415.67 2.28472 -7.50807 0
M  V30 3151 O 415.707 4.64972 -6.77611 0
M  V30 3152 C 415.547 6.06319 -7.16352 0
M  V30 3153 C 416.087 6.91731 -6.02299 0
M  V30 3154 O 415.031 6.92449 -5.17064 0
M  V30 3155 C 417.305 6.43627 -5.25174 0
M  V30 3156 O 418.043 7.43686 -4.60469 0
M  V30 3157 C 416.636 5.40275 -4.31916 0
M  V30 3158 O 417.435 5.25279 -3.14438 0
M  V30 3159 C 415.299 6.04847 -4.05327 0
M  V30 3160 H 415.331 6.62195 -3.11261 0
M  V30 3161 H 416.514 4.42556 -4.81383 0
M  V30 3162 H 417.998 5.92458 -5.93643 0
M  V30 3163 H 416.304 7.92655 -6.402 0
M  V30 3164 H 416.114 6.26671 -8.0846 0
M  V30 3165 H 414.484 6.29101 -7.32804 0
M  V30 3166 H 417.123 5.84315 -2.47318 0
M  V30 3167 P 418.981 7.39546 -4.75277 0
M  V30 3168 O 420.403 7.84798 -5.01039 0
M  V30 3169 O 418.621 5.9812 -5.08098 0
M  V30 3170 O 418.658 7.57503 -3.1866 0
M  V30 3171 C 418.498 8.97357 -2.74833 0
M  V30 3172 C 419.038 9.07548 -1.32709 0
M  V30 3173 O 417.982 8.62072 -0.606159 0
M  V30 3174 C 420.256 8.25383 -0.938334 0
M  V30 3175 O 420.994 8.74577 0.146954 0
M  V30 3176 C 419.587 6.8802 -0.712559 0
M  V30 3177 O 420.386 6.1189 0.194655 0
M  V30 3178 C 418.25 7.27966 -0.139777 0
M  V30 3179 H 418.282 7.25354 0.961601 0
M  V30 3180 H 419.465 6.32557 -1.65702 0
M  V30 3181 H 420.949 8.19355 -1.79097 0
M  V30 3182 H 419.255 10.1294 -1.10029 0
M  V30 3183 H 419.065 9.64276 -3.41316 0
M  V30 3184 H 417.435 9.25417 -2.76357 0
M  V30 3185 H 420.074 6.25267 1.07847 0
M  V30 3186 P 421.932 8.791 2.28317e-12 0
M  V30 3187 O 423.354 9.31296 0.027939 0
M  V30 3188 O 421.572 7.77869 -1.04071 0
M  V30 3189 O 421.609 8.09533 1.41463 0
M  V30 3190 C 421.449 9.0349 2.53943 0
M  V30 3191 C 421.989 8.35135 3.78975 0
M  V30 3192 O 420.934 7.57992 4.15078 0
M  V30 3193 C 423.207 7.45087 3.67298 0
M  V30 3194 O 423.945 7.27796 4.85194 0
M  V30 3195 C 422.539 6.17323 3.12027 0
M  V30 3196 O 423.337 5.04149 3.47132 0
M  V30 3197 C 421.201 6.19961 3.81809 0
M  V30 3198 N 420.158 5.71575 2.93223 0
M  V30 3199 C 420.22 5.97133 1.62693 0
M  V30 3200 N 419.175 5.44066 0.984414 0
M  V30 3201 C 418.441 4.87093 1.93987 0
M  V30 3202 C 417.135 4.26449 1.8738 0
M  V30 3203 O 416.402 4.1089 0.884377 0
M  V30 3204 N 416.705 3.82483 3.08036 0
M  V30 3205 C 417.454 3.95124 4.27727 0
M  V30 3206 N 416.857 3.4084 5.39089 0
M  V30 3207 N 418.607 4.55264 4.3706 0
M  V30 3208 C 419.064 5.00861 3.18217 0
M  V30 3209 H 421.233 5.58218 4.73051 0
M  V30 3210 H 422.416 6.21631 2.02558 0
M  V30 3211 H 423.901 7.85819 2.93096 0
M  V30 3212 H 422.206 9.11627 4.55076 0
M  V30 3213 H 422.016 9.9573 2.34194 0
M  V30 3214 H 420.385 9.2792 2.67832 0
M  V30 3215 H 415.809 3.38323 3.1329 0
M  V30 3216 H 421.016 6.53891 1.14265 0
M  V30 3217 H 415.946 2.93852 5.30559 0
M  V30 3218 H 417.322 3.47631 6.30632 0
M  V30 3219 H 423.026 4.67628 4.28704 0
M  V30 3220 P 424.882 7.39546 4.75277 0
M  V30 3221 O 426.304 7.81777 5.05738 0
M  V30 3222 O 424.522 7.1065 3.32998 0
M  V30 3223 O 424.559 6.04542 5.56673 0
M  V30 3224 C 424.399 6.22772 7.02095 0
M  V30 3225 C 424.939 4.97725 7.70406 0
M  V30 3226 O 423.883 4.13256 7.58987 0
M  V30 3227 C 426.157 4.28231 7.11815 0
M  V30 3228 O 426.895 3.49945 8.01648 0
M  V30 3229 C 425.488 3.5063 5.96244 0
M  V30 3230 O 426.287 2.36482 5.64681 0
M  V30 3231 C 424.151 3.15122 6.56374 0
M  V30 3232 H 424.183 2.13853 6.99751 0
M  V30 3233 H 425.366 4.13501 5.06559 0
M  V30 3234 H 426.85 5.03285 6.70911 0
M  V30 3235 H 425.156 5.20877 8.75697 0
M  V30 3236 H 424.966 7.11046 7.35349 0
M  V30 3237 H 423.336 6.35815 7.26986 0
M  V30 3238 H 425.975 1.61644 6.13565 0
M  V30 3239 P 427.833 3.65191 7.99657 0
M  V30 3240 O 429.255 3.8425 8.48115 0
M  V30 3241 O 427.473 4.17805 6.64342 0
M  V30 3242 O 427.51 2.07613 7.95143 0
M  V30 3243 C 427.35 1.44328 9.27336 0
M  V30 3244 C 427.89 0.0220036 9.17197 0
M  V30 3245 O 426.834 -0.626867 8.61923 0
M  V30 3246 C 429.108 -0.24586 8.30336 0
M  V30 3247 O 429.846 -1.39011 8.63583 0
M  V30 3248 C 428.439 -0.273849 6.91158 0
M  V30 3249 O 429.238 -1.06348 6.02892 0
M  V30 3250 C 427.102 -0.897649 7.22545 0
M  V30 3251 H 427.134 -1.9841 7.04286 0
M  V30 3252 H 428.317 0.739928 6.497 0
M  V30 3253 H 429.801 0.60668 8.36503 0
M  V30 3254 H 428.107 -0.352479 10.1829 0
M  V30 3255 H 427.917 2.00611 10.0304 0
M  V30 3256 H 426.287 1.41843 9.55327 0
M  V30 3257 H 428.926 -1.95734 6.03555 0
M  V30 3258 P 430.783 -1.25109 8.70152 0
M  V30 3259 O 432.205 -1.35274 9.21221 0
M  V30 3260 O 430.423 -0.0769065 7.84762 0
M  V30 3261 O 430.46 -2.55232 7.81161 0
M  V30 3262 C 430.3 -3.79939 8.58154 0
M  V30 3263 C 430.84 -4.94023 7.72785 0
M  V30 3264 O 429.784 -5.18726 6.91205 0
M  V30 3265 C 432.058 -4.69597 6.85231 0
M  V30 3266 O 432.796 -5.83832 6.51337 0
M  V30 3267 C 431.389 -3.96706 5.66633 0
M  V30 3268 O 432.188 -4.15414 4.49689 0
M  V30 3269 C 430.052 -4.66153 5.59313 0
M  V30 3270 H 430.084 -5.47679 4.85214 0
M  V30 3271 H 431.267 -2.89008 5.86566 0
M  V30 3272 H 432.751 -4.0121 7.36511 0
M  V30 3273 H 431.057 -5.80182 8.37584 0
M  V30 3274 H 430.867 -3.73517 9.52265 0
M  V30 3275 H 429.237 -3.97163 8.80359 0
M  V30 3276 H 431.876 -4.90969 4.01921 0
M  V30 3277 P 433.734 -5.75688 6.64379 0
M  V30 3278 O 435.156 -6.11849 7.01846 0
M  V30 3279 O 433.374 -4.30744 6.56026 0
M  V30 3280 O 433.411 -6.37042 5.19165 0
M  V30 3281 C 433.251 -7.83578 5.16515 0
M  V30 3282 C 433.791 -8.33398 3.83019 0
M  V30 3283 O 432.735 -8.10074 3.01034 0
M  V30 3284 C 435.009 -7.65514 3.2257 0
M  V30 3285 O 435.747 -8.4329 2.32297 0
M  V30 3286 C 434.34 -6.40075 2.62207 0
M  V30 3287 O 435.139 -5.92589 1.53712 0
M  V30 3288 C 433.003 -6.9454 2.18503 0
M  V30 3289 H 433.035 -7.23063 1.12091 0
M  V30 3290 H 434.218 -5.6025 3.37201 0
M  V30 3291 H 435.702 -7.35707 4.02681 0
M  V30 3292 H 434.008 -9.40912 3.9095 0
M  V30 3293 H 433.818 -8.29056 5.99158 0
M  V30 3294 H 432.188 -8.10073 5.25882 0
M  V30 3295 H 434.827 -6.30324 0.726794 0
M  V30 3296 P 436.684 -8.4349 2.47671 0
M  V30 3297 O 438.106 -8.94167 2.5964 0
M  V30 3298 O 436.324 -7.1704 3.19006 0
M  V30 3299 O 436.361 -8.16596 0.923387 0
M  V30 3300 C 436.201 -9.38437 0.108857 0
M  V30 3301 C 436.741 -9.08175 -1.28353 0
M  V30 3302 O 435.685 -8.44229 -1.84713 0
M  V30 3303 C 437.959 -8.18386 -1.42505 0
M  V30 3304 O 438.697 -8.3501 -2.60497 0
M  V30 3305 C 437.29 -6.80225 -1.25468 0
M  V30 3306 O 438.089 -5.81621 -1.91066 0
M  V30 3307 C 435.953 -7.02416 -1.9168 0
M  V30 3308 H 435.985 -6.6888 -2.96621 0
M  V30 3309 H 437.168 -6.53617 -0.192223 0
M  V30 3310 H 438.652 -8.36622 -0.589963 0
M  V30 3311 H 436.958 -10.0291 -1.79807 0
M  V30 3312 H 436.768 -10.2138 0.558219 0
M  V30 3313 H 435.138 -9.6579 0.0444202 0
M  V30 3314 H 437.777 -5.69556 -2.79637 0
M  V30 3315 P 439.635 -8.4349 -2.47671 0
M  V30 3316 O 441.056 -8.92689 -2.65029 0
M  V30 3317 O 439.275 -7.7568 -1.19296 0
M  V30 3318 O 439.312 -7.36886 -3.63805 0
M  V30 3319 C 439.151 -7.95433 -4.98253 0
M  V30 3320 C 439.692 -6.94612 -5.98974 0
M  V30 3321 O 438.637 -6.10277 -6.11744 0
M  V30 3322 C 440.91 -6.11426 -5.62335 0
M  V30 3323 O 441.648 -5.6162 -6.70584 0
M  V30 3324 C 440.242 -5.04409 -4.73308 0
M  V30 3325 O 441.04 -3.86404 -4.74719 0
M  V30 3326 C 438.904 -4.8728 -5.41006 0
M  V30 3327 N 437.861 -4.65812 -4.42377 0
M  V30 3328 C 438.03 -5.09132 -3.15382 0
M  V30 3329 N 437.003 -4.84021 -2.3716 0
M  V30 3330 C 436.118 -4.18386 -3.20441 0
M  V30 3331 C 434.851 -3.6275 -2.94905 0
M  V30 3332 N 434.286 -3.05008 -4.05243 0
M  V30 3333 C 434.888 -2.98348 -5.28159 0
M  V30 3334 N 436.065 -3.48171 -5.56333 0
M  V30 3335 C 436.64 -4.06869 -4.47212 0
M  V30 3336 H 440.119 -5.39013 -3.70026 0
M  V30 3337 H 441.602 -6.71916 -5.01943 0
M  V30 3338 H 439.908 -7.45796 -6.94223 0
M  V30 3339 H 439.718 -8.89416 -5.05237 0
M  V30 3340 H 438.088 -8.14876 -5.18409 0
M  V30 3341 H 438.93 -5.59989 -2.81362 0
M  V30 3342 H 440.728 -3.27906 -5.43085 0
M  V30 3343 P 442.586 -5.75688 -6.64379 0
M  V30 3344 O 444.008 -6.07627 -7.05504 0
M  V30 3345 O 442.226 -5.88047 -5.19722 0
M  V30 3346 O 442.263 -4.2322 -7.04443 0
M  V30 3347 C 442.103 -3.99743 -8.4911 0
M  V30 3348 C 442.643 -2.60516 -8.79425 0
M  V30 3349 O 441.587 -1.82684 -8.4467 0
M  V30 3350 C 443.861 -2.10343 -8.03628 0
M  V30 3351 O 444.599 -1.09919 -8.67766 0
M  V30 3352 C 443.192 -1.68446 -6.70876 0
M  V30 3353 O 443.991 -0.678137 -6.08433 0
M  V30 3354 C 441.855 -1.17436 -7.18567 0
M  V30 3355 H 441.887 -0.0804732 -7.31656 0
M  V30 3356 H 443.07 -2.54037 -6.02537 0
M  V30 3357 H 444.554 -2.93881 -7.85526 0
M  V30 3358 H 442.86 -2.53065 -9.86973 0
M  V30 3359 H 442.67 -4.75072 -9.05887 0
M  V30 3360 H 441.04 -4.05244 -8.76668 0
M  V30 3361 H 443.679 0.177647 -6.34251 0
M  V30 3362 P 445.536 -1.25109 -8.70152 0
M  V30 3363 O 446.958 -1.29744 -9.22016 0
M  V30 3364 O 445.176 -2.13714 -7.55141 0
M  V30 3365 O 445.213 0.248149 -8.21425 0
M  V30 3366 C 445.053 1.22779 -9.30434 0
M  V30 3367 C 445.593 2.56293 -8.80664 0
M  V30 3368 O 444.537 3.02979 -8.09349 0
M  V30 3369 C 446.811 2.57523 -7.89775 0
M  V30 3370 O 447.549 3.7668 -7.89438 0
M  V30 3371 C 446.142 2.20997 -6.55446 0
M  V30 3372 O 446.941 2.71895 -5.48509 0
M  V30 3373 C 444.805 2.89693 -6.67988 0
M  V30 3374 H 444.837 3.88793 -6.19859 0
M  V30 3375 H 446.02 1.12046 -6.44229 0
M  V30 3376 H 447.504 1.7746 -8.19711 0
M  V30 3377 H 445.81 3.20706 -9.67112 0
M  V30 3378 H 445.62 0.901032 -10.1892 0
M  V30 3379 H 443.99 1.33049 -9.56592 0
M  V30 3380 H 446.629 3.57847 -5.23962 0
M  V30 3381 P 448.487 3.65191 -7.99657 0
M  V30 3382 O 449.909 3.89332 -8.45794 0
M  V30 3383 O 448.127 2.28472 -7.50807 0
M  V30 3384 O 448.164 4.64972 -6.77611 0
M  V30 3385 C 448.004 6.06319 -7.16352 0
M  V30 3386 C 448.544 6.91731 -6.02299 0
M  V30 3387 O 447.488 6.92449 -5.17064 0
M  V30 3388 C 449.762 6.43627 -5.25174 0
M  V30 3389 O 450.5 7.43686 -4.60469 0
M  V30 3390 C 449.093 5.40275 -4.31916 0
M  V30 3391 O 449.892 5.25279 -3.14438 0
M  V30 3392 C 447.756 6.04847 -4.05327 0
M  V30 3393 H 447.788 6.62195 -3.11261 0
M  V30 3394 H 448.971 4.42556 -4.81383 0
M  V30 3395 H 450.455 5.92458 -5.93643 0
M  V30 3396 H 448.761 7.92655 -6.402 0
M  V30 3397 H 448.571 6.26671 -8.0846 0
M  V30 3398 H 446.941 6.29101 -7.32804 0
M  V30 3399 H 449.58 5.84315 -2.47318 0
M  V30 3400 P 451.437 7.39546 -4.75277 0
M  V30 3401 O 452.859 7.84798 -5.01039 0
M  V30 3402 O 451.077 5.9812 -5.08098 0
M  V30 3403 O 451.114 7.57503 -3.1866 0
M  V30 3404 C 450.954 8.97357 -2.74833 0
M  V30 3405 C 451.494 9.07548 -1.32709 0
M  V30 3406 O 450.438 8.62072 -0.606159 0
M  V30 3407 C 452.712 8.25383 -0.938334 0
M  V30 3408 O 453.45 8.74577 0.146954 0
M  V30 3409 C 452.043 6.8802 -0.712559 0
M  V30 3410 O 452.842 6.1189 0.194655 0
M  V30 3411 C 450.706 7.27966 -0.139777 0
M  V30 3412 H 450.738 7.25354 0.961601 0
M  V30 3413 H 451.921 6.32557 -1.65702 0
M  V30 3414 H 453.405 8.19355 -1.79097 0
M  V30 3415 H 451.711 10.1294 -1.10029 0
M  V30 3416 H 451.521 9.64276 -3.41316 0
M  V30 3417 H 449.891 9.25417 -2.76357 0
M  V30 3418 H 452.53 6.25267 1.07847 0
M  V30 3419 P 454.388 8.791 2.59334e-12 0
M  V30 3420 O 455.81 9.31096 0.027933 0
M  V30 3421 O 454.028 7.77869 -1.04071 0
M  V30 3422 O 454.065 8.09533 1.41463 0
M  V30 3423 C 453.905 9.0349 2.53943 0
M  V30 3424 C 454.445 8.35226 3.79016 0
M  V30 3425 O 453.389 7.57992 4.15078 0
M  V30 3426 C 455.663 7.45087 3.67298 0
M  V30 3427 O 456.401 7.27796 4.85194 0
M  V30 3428 C 454.994 6.17323 3.12027 0
M  V30 3429 O 455.793 5.04231 3.47188 0
M  V30 3430 C 453.657 6.19961 3.81809 0
M  V30 3431 H 453.689 5.58218 4.73051 0
M  V30 3432 H 454.872 6.21726 2.02589 0
M  V30 3433 H 456.356 7.86112 2.9231 0
M  V30 3434 H 454.662 9.11627 4.55076 0
M  V30 3435 H 454.472 9.9573 2.34194 0
M  V30 3436 H 452.842 9.2792 2.67832 0
M  V30 3437 H 455.481 4.67702 4.28772 0
M  V30 3438 P 457.338 7.39546 4.75277 0
M  V30 3439 O 458.76 7.81777 5.05738 0
M  V30 3440 O 456.978 7.1065 3.32998 0
M  V30 3441 O 457.015 6.04542 5.56673 0
M  V30 3442 C 456.855 6.22772 7.02095 0
M  V30 3443 C 457.395 4.97725 7.70406 0
M  V30 3444 O 456.339 4.13256 7.58987 0
M  V30 3445 C 458.613 4.28231 7.11815 0
M  V30 3446 O 459.351 3.49945 8.01648 0
M  V30 3447 C 457.944 3.5063 5.96244 0
M  V30 3448 O 458.743 2.36482 5.64681 0
M  V30 3449 C 456.607 3.15122 6.56374 0
M  V30 3450 H 456.639 2.13853 6.99751 0
M  V30 3451 H 457.822 4.13501 5.06559 0
M  V30 3452 H 459.306 5.03285 6.70911 0
M  V30 3453 H 457.612 5.20877 8.75697 0
M  V30 3454 H 457.422 7.11046 7.35349 0
M  V30 3455 H 455.792 6.35815 7.26986 0
M  V30 3456 H 458.431 1.61644 6.13565 0
M  V30 3457 P 460.289 3.65191 7.99657 0
M  V30 3458 O 461.711 3.8425 8.48115 0
M  V30 3459 O 459.929 4.17805 6.64342 0
M  V30 3460 O 459.966 2.07613 7.95143 0
M  V30 3461 C 459.806 1.44328 9.27336 0
M  V30 3462 C 460.346 0.0220036 9.17197 0
M  V30 3463 O 459.29 -0.626867 8.61923 0
M  V30 3464 C 461.564 -0.24586 8.30336 0
M  V30 3465 O 462.302 -1.39011 8.63583 0
M  V30 3466 C 460.895 -0.273849 6.91158 0
M  V30 3467 O 461.694 -1.06348 6.02892 0
M  V30 3468 C 459.558 -0.897649 7.22545 0
M  V30 3469 H 459.59 -1.9841 7.04286 0
M  V30 3470 H 460.773 0.739928 6.497 0
M  V30 3471 H 462.257 0.60668 8.36503 0
M  V30 3472 H 460.563 -0.352479 10.1829 0
M  V30 3473 H 460.373 2.00611 10.0304 0
M  V30 3474 H 458.743 1.41843 9.55327 0
M  V30 3475 H 461.382 -1.95734 6.03555 0
M  V30 3476 P 463.239 -1.25109 8.70152 0
M  V30 3477 O 464.64 -1.31452 9.27431 0
M  V30 3478 O 462.861 -0.0458113 7.89887 0
M  V30 3479 O 462.916 -2.55201 7.81066 0
M  V30 3480 C 462.756 -3.79939 8.58154 0
M  V30 3481 C 463.296 -4.93969 7.72701 0
M  V30 3482 O 462.24 -5.18666 6.91125 0
M  V30 3483 C 464.513 -4.69597 6.85231 0
M  V30 3484 O 465.252 -5.83832 6.51337 0
M  V30 3485 C 463.846 -3.96706 5.66633 0
M  V30 3486 O 464.644 -4.15346 4.49615 0
M  V30 3487 C 462.508 -4.66153 5.59313 0
M  V30 3488 N 461.465 -3.71582 5.24027 0
M  V30 3489 C 460.43 -4.15133 4.44901 0
M  V30 3490 O 460.469 -5.32122 4.00336 0
M  V30 3491 N 459.418 -3.30554 4.15693 0
M  V30 3492 C 459.466 -2.04701 4.61105 0
M  V30 3493 C 460.562 -1.57111 5.38655 0
M  V30 3494 C 461.528 -2.44234 5.68454 0
M  V30 3495 H 462.54 -5.47604 4.85148 0
M  V30 3496 H 463.723 -2.8955 5.86187 0
M  V30 3497 H 465.207 -4.01995 7.36197 0
M  V30 3498 H 463.513 -5.81019 8.37003 0
M  V30 3499 H 463.322 -3.73517 9.52265 0
M  V30 3500 H 461.692 -3.97122 8.80267 0
M  V30 3501 H 460.61 -0.538464 5.72373 0
M  V30 3502 H 462.374 -2.11927 6.29377 0
M  V30 3503 H 464.428 -4.98352 4.09633 0
M  V30 3504 P 466.19 -5.75688 6.64379 0
M  V30 3505 O 467.611 -6.11915 7.01921 0
M  V30 3506 O 465.83 -4.30744 6.56026 0
M  V30 3507 O 465.867 -6.37042 5.19165 0
M  V30 3508 C 465.706 -7.83662 5.1657 0
M  V30 3509 C 466.247 -8.33398 3.83019 0
M  V30 3510 O 465.192 -8.0998 3.00999 0
M  V30 3511 C 467.465 -7.65514 3.2257 0
M  V30 3512 O 468.203 -8.4329 2.32297 0
M  V30 3513 C 466.797 -6.40075 2.62207 0
M  V30 3514 O 467.595 -5.92338 1.5428 0
M  V30 3515 C 465.459 -6.9454 2.18503 0
M  V30 3516 N 464.416 -5.95905 2.39948 0
M  V30 3517 C 464.585 -4.98383 3.32108 0
M  V30 3518 N 463.558 -4.16798 3.41761 0
M  V30 3519 C 462.673 -4.65287 2.47461 0
M  V30 3520 C 461.406 -4.18946 2.07461 0
M  V30 3521 N 460.841 -4.95327 1.09101 0
M  V30 3522 C 461.443 -6.04369 0.519812 0
M  V30 3523 N 462.62 -6.50694 0.855982 0
M  V30 3524 C 463.195 -5.75818 1.84322 0
M  V30 3525 H 466.674 -5.60502 3.36589 0
M  V30 3526 H 468.157 -7.35707 4.02681 0
M  V30 3527 H 466.463 -9.41302 3.90009 0
M  V30 3528 H 466.273 -8.29056 5.99158 0
M  V30 3529 H 464.643 -8.10073 5.25882 0
M  V30 3530 H 465.485 -4.88564 3.92502 0
M  V30 3531 H 467.283 -6.30224 0.72668 0
M  V30 3532 P 469.141 -8.4349 2.47671 0
M  V30 3533 O 470.563 -8.94167 2.5964 0
M  V30 3534 O 468.781 -7.1704 3.19006 0
M  V30 3535 O 468.818 -8.16596 0.923387 0
M  V30 3536 C 468.658 -9.38437 0.108857 0
M  V30 3537 C 469.198 -9.08175 -1.28353 0
M  V30 3538 O 468.142 -8.44229 -1.84713 0
M  V30 3539 C 470.416 -8.18386 -1.42505 0
M  V30 3540 O 471.154 -8.3501 -2.60497 0
M  V30 3541 C 469.747 -6.80225 -1.25468 0
M  V30 3542 O 470.546 -5.81621 -1.91066 0
M  V30 3543 C 468.41 -7.02416 -1.9168 0
M  V30 3544 H 468.442 -6.6888 -2.96621 0
M  V30 3545 H 469.625 -6.53617 -0.192223 0
M  V30 3546 H 471.109 -8.36622 -0.589963 0
M  V30 3547 H 469.415 -10.0291 -1.79807 0
M  V30 3548 H 469.225 -10.2138 0.558219 0
M  V30 3549 H 467.595 -9.6579 0.0444202 0
M  V30 3550 H 470.234 -5.69556 -2.79637 0
M  V30 3551 P 472.091 -8.4349 -2.47671 0
M  V30 3552 O 473.513 -8.92593 -2.65 0
M  V30 3553 O 471.731 -7.7568 -1.19296 0
M  V30 3554 O 471.768 -7.36886 -3.63805 0
M  V30 3555 C 471.608 -7.95349 -4.982 0
M  V30 3556 C 472.148 -6.94612 -5.98974 0
M  V30 3557 O 471.092 -6.10347 -6.11815 0
M  V30 3558 C 473.366 -6.11426 -5.62335 0
M  V30 3559 O 474.104 -5.6162 -6.70584 0
M  V30 3560 C 472.697 -5.04409 -4.73308 0
M  V30 3561 O 473.496 -3.85992 -4.75183 0
M  V30 3562 C 471.36 -4.8728 -5.41006 0
M  V30 3563 H 471.392 -4.02333 -6.11157 0
M  V30 3564 H 472.575 -5.39466 -3.69543 0
M  V30 3565 H 474.059 -6.71916 -5.01943 0
M  V30 3566 H 472.365 -7.4649 -6.93477 0
M  V30 3567 H 472.175 -8.89416 -5.05237 0
M  V30 3568 H 470.545 -8.14876 -5.18409 0
M  V30 3569 H 473.184 -3.27957 -5.4317 0
M  V30 3570 P 475.042 -5.75688 -6.64379 0
M  V30 3571 O 476.463 -6.07692 -7.0558 0
M  V30 3572 O 474.682 -5.88047 -5.19722 0
M  V30 3573 O 474.719 -4.2322 -7.04443 0
M  V30 3574 C 474.558 -3.99785 -8.49201 0
M  V30 3575 C 475.099 -2.60516 -8.79425 0
M  V30 3576 O 474.044 -1.82663 -8.44573 0
M  V30 3577 C 476.317 -2.10343 -8.03628 0
M  V30 3578 O 477.055 -1.09919 -8.67766 0
M  V30 3579 C 475.649 -1.68446 -6.70876 0
M  V30 3580 O 476.447 -0.684109 -6.08265 0
M  V30 3581 C 474.311 -1.17436 -7.18567 0
M  V30 3582 N 473.268 -1.52699 -6.23988 0
M  V30 3583 C 473.437 -2.578 -5.40574 0
M  V30 3584 N 472.41 -2.78966 -4.61193 0
M  V30 3585 C 471.525 -1.78725 -4.95769 0
M  V30 3586 C 470.258 -1.45727 -4.44207 0
M  V30 3587 N 469.693 -0.374977 -5.05812 0
M  V30 3588 C 470.295 0.345585 -6.05615 0
M  V30 3589 N 471.472 0.0787651 -6.56253 0
M  V30 3590 C 472.047 -1.00499 -5.96189 0
M  V30 3591 H 475.526 -2.53396 -6.02698 0
M  V30 3592 H 477.009 -2.93881 -7.85526 0
M  V30 3593 H 475.315 -2.52078 -9.87225 0
M  V30 3594 H 475.125 -4.75072 -9.05887 0
M  V30 3595 H 473.495 -4.05244 -8.76668 0
M  V30 3596 H 474.337 -3.18977 -5.3945 0
M  V30 3597 H 476.135 0.177619 -6.34151 0
M  V30 3598 P 477.992 -1.25109 -8.70152 0
M  V30 3599 O 479.393 -1.3516 -9.26897 0
M  V30 3600 O 477.614 -2.18141 -7.59181 0
M  V30 3601 O 477.669 0.248118 -8.21325 0
M  V30 3602 C 477.509 1.22779 -9.30434 0
M  V30 3603 C 478.049 2.56265 -8.80568 0
M  V30 3604 O 476.993 3.02944 -8.09255 0
M  V30 3605 C 479.266 2.57523 -7.89775 0
M  V30 3606 O 480.005 3.7668 -7.89438 0
M  V30 3607 C 478.599 2.20997 -6.55446 0
M  V30 3608 O 479.397 2.71851 -5.48419 0
M  V30 3609 C 477.261 2.89693 -6.67988 0
M  V30 3610 N 476.218 2.08895 -6.07487 0
M  V30 3611 C 475.183 2.72974 -5.43836 0
M  V30 3612 O 475.222 3.97779 -5.34036 0
M  V30 3613 N 474.171 2.0005 -4.91983 0
M  V30 3614 C 474.219 0.66501 -5.00098 0
M  V30 3615 C 475.315 -0.0100979 -5.61099 0
M  V30 3616 C 476.281 0.74189 -6.14236 0
M  V30 3617 H 477.293 3.8874 -6.19774 0
M  V30 3618 H 478.476 1.12673 -6.44018 0
M  V30 3619 H 479.96 1.783 -8.19631 0
M  V30 3620 H 478.266 3.21673 -9.66791 0
M  V30 3621 H 478.075 0.901032 -10.1892 0
M  V30 3622 H 476.445 1.33036 -9.56493 0
M  V30 3623 H 475.363 -1.09591 -5.64358 0
M  V30 3624 H 477.127 0.260263 -6.6359 0
M  V30 3625 H 479.181 3.62759 -5.33442 0
M  V30 3626 P 480.943 3.65191 -7.99657 0
M  V30 3627 O 482.365 3.89416 -8.45976 0
M  V30 3628 O 480.583 2.28472 -7.50807 0
M  V30 3629 O 480.62 4.64972 -6.77611 0
M  V30 3630 C 480.46 6.06319 -7.16352 0
M  V30 3631 C 481 6.91655 -6.02234 0
M  V30 3632 O 479.945 6.92449 -5.17064 0
M  V30 3633 C 482.218 6.43627 -5.25174 0
M  V30 3634 O 482.956 7.43686 -4.60469 0
M  V30 3635 C 481.55 5.40275 -4.31916 0
M  V30 3636 O 482.348 5.25193 -3.14386 0
M  V30 3637 C 480.212 6.04847 -4.05327 0
M  V30 3638 N 479.169 5.04166 -3.98114 0
M  V30 3639 C 479.231 3.96049 -4.75587 0
M  V30 3640 N 478.186 3.15559 -4.54006 0
M  V30 3641 C 477.452 3.78802 -3.62491 0
M  V30 3642 C 476.146 3.476 -3.10071 0
M  V30 3643 O 475.413 2.51136 -3.37021 0
M  V30 3644 N 475.716 4.39088 -2.19956 0
M  V30 3645 C 476.465 5.53215 -1.81733 0
M  V30 3646 N 475.868 6.31963 -0.860928 0
M  V30 3647 N 477.618 5.86688 -2.32562 0
M  V30 3648 C 478.075 4.97525 -3.23407 0
M  V30 3649 H 480.244 6.62195 -3.11261 0
M  V30 3650 H 481.427 4.42488 -4.8131 0
M  V30 3651 H 482.912 5.93051 -5.9305 0
M  V30 3652 H 481.217 7.92655 -6.402 0
M  V30 3653 H 481.027 6.26671 -8.0846 0
M  V30 3654 H 479.396 6.29101 -7.32804 0
M  V30 3655 H 474.82 4.25523 -1.77604 0
M  V30 3656 H 480.027 3.75576 -5.47333 0
M  V30 3657 H 474.957 6.04684 -0.468946 0
M  V30 3658 H 476.333 7.18054 -0.542422 0
M  V30 3659 H 482.037 5.84223 -2.47279 0
M  V30 3660 P 483.893 7.39546 -4.75277 0
M  V30 3661 O 485.315 7.84798 -5.01039 0
M  V30 3662 O 483.533 5.9812 -5.08098 0
M  V30 3663 O 483.57 7.57503 -3.1866 0
M  V30 3664 C 483.41 8.97357 -2.74833 0
M  V30 3665 C 483.95 9.07548 -1.32709 0
M  V30 3666 O 482.894 8.62072 -0.606159 0
M  V30 3667 C 485.168 8.25383 -0.938334 0
M  V30 3668 O 485.906 8.74577 0.146954 0
M  V30 3669 C 484.499 6.8802 -0.712559 0
M  V30 3670 O 485.298 6.1189 0.194655 0
M  V30 3671 C 483.162 7.27966 -0.139777 0
M  V30 3672 H 483.194 7.25354 0.961601 0
M  V30 3673 H 484.377 6.32557 -1.65702 0
M  V30 3674 H 485.861 8.19355 -1.79097 0
M  V30 3675 H 484.167 10.1294 -1.10029 0
M  V30 3676 H 483.977 9.64276 -3.41316 0
M  V30 3677 H 482.347 9.25417 -2.76357 0
M  V30 3678 H 484.986 6.25267 1.07847 0
M  V30 3679 P 486.844 8.791 2.9035e-12 0
M  V30 3680 O 488.266 9.31096 0.027933 0
M  V30 3681 O 486.484 7.77869 -1.04071 0
M  V30 3682 O 486.521 8.09533 1.41463 0
M  V30 3683 C 486.361 9.0349 2.53943 0
M  V30 3684 C 486.901 8.35226 3.79016 0
M  V30 3685 O 485.845 7.57992 4.15078 0
M  V30 3686 C 488.119 7.45087 3.67298 0
M  V30 3687 O 488.857 7.27796 4.85194 0
M  V30 3688 C 487.45 6.17323 3.12027 0
M  V30 3689 O 488.249 5.04231 3.47188 0
M  V30 3690 C 486.113 6.19961 3.81809 0
M  V30 3691 H 486.145 5.58218 4.73051 0
M  V30 3692 H 487.328 6.21726 2.02589 0
M  V30 3693 H 488.812 7.86112 2.9231 0
M  V30 3694 H 487.118 9.11627 4.55076 0
M  V30 3695 H 486.928 9.9573 2.34194 0
M  V30 3696 H 485.298 9.2792 2.67832 0
M  V30 3697 H 487.937 4.67702 4.28772 0
M  V30 3698 P 489.795 7.39546 4.75277 0
M  V30 3699 O 491.217 7.81777 5.05738 0
M  V30 3700 O 489.435 7.1065 3.32998 0
M  V30 3701 O 489.472 6.04542 5.56673 0
M  V30 3702 C 489.312 6.22772 7.02095 0
M  V30 3703 C 489.852 4.97725 7.70406 0
M  V30 3704 O 488.796 4.13256 7.58987 0
M  V30 3705 C 491.07 4.28231 7.11815 0
M  V30 3706 O 491.808 3.49945 8.01648 0
M  V30 3707 C 490.401 3.5063 5.96244 0
M  V30 3708 O 491.2 2.36482 5.64681 0
M  V30 3709 C 489.064 3.15122 6.56374 0
M  V30 3710 H 489.096 2.13853 6.99751 0
M  V30 3711 H 490.279 4.13501 5.06559 0
M  V30 3712 H 491.763 5.03285 6.70911 0
M  V30 3713 H 490.069 5.20877 8.75697 0
M  V30 3714 H 489.879 7.11046 7.35349 0
M  V30 3715 H 488.249 6.35815 7.26986 0
M  V30 3716 H 490.888 1.61644 6.13565 0
M  V30 3717 P 492.745 3.65191 7.99657 0
M  V30 3718 O 494.167 3.8425 8.48115 0
M  V30 3719 O 492.385 4.17805 6.64342 0
M  V30 3720 O 492.422 2.07613 7.95143 0
M  V30 3721 C 492.262 1.44328 9.27336 0
M  V30 3722 C 492.802 0.0220036 9.17197 0
M  V30 3723 O 491.746 -0.626867 8.61923 0
M  V30 3724 C 494.02 -0.24586 8.30336 0
M  V30 3725 O 494.758 -1.39011 8.63583 0
M  V30 3726 C 493.351 -0.273849 6.91158 0
M  V30 3727 O 494.15 -1.06348 6.02892 0
M  V30 3728 C 492.014 -0.897649 7.22545 0
M  V30 3729 H 492.046 -1.9841 7.04286 0
M  V30 3730 H 493.229 0.739928 6.497 0
M  V30 3731 H 494.713 0.60668 8.36503 0
M  V30 3732 H 493.019 -0.352479 10.1829 0
M  V30 3733 H 492.829 2.00611 10.0304 0
M  V30 3734 H 491.199 1.41843 9.55327 0
M  V30 3735 H 493.838 -1.95734 6.03555 0
M  V30 3736 P 495.696 -1.25109 8.70152 0
M  V30 3737 O 497.097 -1.31452 9.27431 0
M  V30 3738 O 495.318 -0.0458113 7.89887 0
M  V30 3739 O 495.373 -2.55201 7.81066 0
M  V30 3740 C 495.213 -3.79939 8.58154 0
M  V30 3741 C 495.753 -4.93969 7.72701 0
M  V30 3742 O 494.697 -5.18666 6.91125 0
M  V30 3743 C 496.97 -4.69597 6.85231 0
M  V30 3744 O 497.709 -5.83832 6.51337 0
M  V30 3745 C 496.303 -3.96706 5.66633 0
M  V30 3746 O 497.101 -4.15346 4.49615 0
M  V30 3747 C 494.965 -4.66153 5.59313 0
M  V30 3748 N 493.922 -3.71582 5.24027 0
M  V30 3749 C 492.887 -4.15133 4.44901 0
M  V30 3750 O 492.926 -5.32122 4.00336 0
M  V30 3751 N 491.875 -3.30554 4.15693 0
M  V30 3752 C 491.923 -2.04701 4.61105 0
M  V30 3753 C 493.019 -1.57111 5.38655 0
M  V30 3754 C 493.985 -2.44234 5.68454 0
M  V30 3755 H 494.997 -5.47604 4.85148 0
M  V30 3756 H 496.18 -2.8955 5.86187 0
M  V30 3757 H 497.664 -4.01995 7.36197 0
M  V30 3758 H 495.97 -5.81019 8.37003 0
M  V30 3759 H 495.779 -3.73517 9.52265 0
M  V30 3760 H 494.149 -3.97122 8.80267 0
M  V30 3761 H 493.067 -0.538464 5.72373 0
M  V30 3762 H 494.831 -2.11927 6.29377 0
M  V30 3763 H 496.885 -4.98352 4.09633 0
M  V30 3764 P 498.646 -5.75688 6.64379 0
M  V30 3765 O 500.068 -6.11849 7.01846 0
M  V30 3766 O 498.286 -4.30744 6.56026 0
M  V30 3767 O 498.323 -6.37042 5.19165 0
M  V30 3768 C 498.163 -7.83578 5.16515 0
M  V30 3769 C 498.703 -8.33398 3.83019 0
M  V30 3770 O 497.647 -8.10074 3.01034 0
M  V30 3771 C 499.921 -7.65514 3.2257 0
M  V30 3772 O 500.659 -8.4329 2.32297 0
M  V30 3773 C 499.252 -6.40075 2.62207 0
M  V30 3774 O 500.051 -5.92589 1.53712 0
M  V30 3775 C 497.915 -6.9454 2.18503 0
M  V30 3776 H 497.947 -7.23063 1.12091 0
M  V30 3777 H 499.13 -5.6025 3.37201 0
M  V30 3778 H 500.614 -7.35707 4.02681 0
M  V30 3779 H 498.92 -9.40912 3.9095 0
M  V30 3780 H 498.73 -8.29056 5.99158 0
M  V30 3781 H 497.1 -8.10073 5.25882 0
M  V30 3782 H 499.739 -6.30324 0.726794 0
M  V30 3783 P 501.597 -8.4349 2.47671 0
M  V30 3784 O 503.019 -8.94167 2.5964 0
M  V30 3785 O 501.237 -7.1704 3.19006 0
M  V30 3786 O 501.274 -8.16596 0.923387 0
M  V30 3787 C 501.114 -9.38437 0.108857 0
M  V30 3788 C 501.654 -9.08175 -1.28353 0
M  V30 3789 O 500.598 -8.44229 -1.84713 0
M  V30 3790 C 502.872 -8.18386 -1.42505 0
M  V30 3791 O 503.61 -8.3501 -2.60497 0
M  V30 3792 C 502.203 -6.80225 -1.25468 0
M  V30 3793 O 503.002 -5.81621 -1.91066 0
M  V30 3794 C 500.866 -7.02416 -1.9168 0
M  V30 3795 H 500.898 -6.6888 -2.96621 0
M  V30 3796 H 502.081 -6.53617 -0.192223 0
M  V30 3797 H 503.565 -8.36622 -0.589963 0
M  V30 3798 H 501.871 -10.0291 -1.79807 0
M  V30 3799 H 501.681 -10.2138 0.558219 0
M  V30 3800 H 500.051 -9.6579 0.0444202 0
M  V30 3801 H 502.69 -5.69556 -2.79637 0
M  V30 3802 P 504.547 -8.4349 -2.47671 0
M  V30 3803 O 505.969 -8.92593 -2.65 0
M  V30 3804 O 504.187 -7.7568 -1.19296 0
M  V30 3805 O 504.224 -7.36886 -3.63805 0
M  V30 3806 C 504.064 -7.95349 -4.982 0
M  V30 3807 C 504.604 -6.94612 -5.98974 0
M  V30 3808 O 503.548 -6.10347 -6.11815 0
M  V30 3809 C 505.822 -6.11426 -5.62335 0
M  V30 3810 O 506.56 -5.6162 -6.70584 0
M  V30 3811 C 505.153 -5.04409 -4.73308 0
M  V30 3812 O 505.952 -3.85992 -4.75183 0
M  V30 3813 C 503.816 -4.8728 -5.41006 0
M  V30 3814 H 503.848 -4.02333 -6.11157 0
M  V30 3815 H 505.031 -5.39466 -3.69543 0
M  V30 3816 H 506.515 -6.71916 -5.01943 0
M  V30 3817 H 504.821 -7.4649 -6.93477 0
M  V30 3818 H 504.631 -8.89416 -5.05237 0
M  V30 3819 H 503.001 -8.14876 -5.18409 0
M  V30 3820 H 505.64 -3.27957 -5.4317 0
M  V30 3821 P 507.498 -5.75688 -6.64379 0
M  V30 3822 O 508.92 -6.07627 -7.05504 0
M  V30 3823 O 507.138 -5.88047 -5.19722 0
M  V30 3824 O 507.175 -4.2322 -7.04443 0
M  V30 3825 C 507.015 -3.99743 -8.4911 0
M  V30 3826 C 507.555 -2.60516 -8.79425 0
M  V30 3827 O 506.499 -1.82684 -8.4467 0
M  V30 3828 C 508.773 -2.10343 -8.03628 0
M  V30 3829 O 509.511 -1.09919 -8.67766 0
M  V30 3830 C 508.104 -1.68446 -6.70876 0
M  V30 3831 O 508.903 -0.678137 -6.08433 0
M  V30 3832 C 506.767 -1.17436 -7.18567 0
M  V30 3833 H 506.799 -0.0804732 -7.31656 0
M  V30 3834 H 507.982 -2.54037 -6.02537 0
M  V30 3835 H 509.466 -2.93881 -7.85526 0
M  V30 3836 H 507.772 -2.53065 -9.86973 0
M  V30 3837 H 507.582 -4.75072 -9.05887 0
M  V30 3838 H 505.952 -4.05244 -8.76668 0
M  V30 3839 H 508.591 0.177647 -6.34251 0
M  V30 3840 P 510.449 -1.25109 -8.70152 0
M  V30 3841 O 511.871 -1.29772 -9.22214 0
M  V30 3842 O 510.089 -2.13714 -7.55141 0
M  V30 3843 O 510.126 0.248149 -8.21425 0
M  V30 3844 C 509.966 1.22779 -9.30434 0
M  V30 3845 C 510.506 2.56265 -8.80568 0
M  V30 3846 O 509.451 3.02979 -8.09349 0
M  V30 3847 C 511.724 2.57523 -7.89775 0
M  V30 3848 O 512.462 3.7668 -7.89438 0
M  V30 3849 C 511.056 2.20997 -6.55446 0
M  V30 3850 O 511.854 2.71851 -5.48419 0
M  V30 3851 C 509.718 2.89693 -6.67988 0
M  V30 3852 N 508.675 2.08895 -6.07487 0
M  V30 3853 C 508.737 0.760559 -6.14209 0
M  V30 3854 N 507.692 0.200108 -5.52538 0
M  V30 3855 C 506.958 1.22692 -5.09742 0
M  V30 3856 C 505.652 1.24782 -4.48775 0
M  V30 3857 O 504.919 0.290617 -4.19294 0
M  V30 3858 N 505.222 2.50468 -4.22428 0
M  V30 3859 C 505.971 3.67142 -4.51974 0
M  V30 3860 N 505.374 4.85096 -4.14091 0
M  V30 3861 N 507.124 3.67821 -5.12831 0
M  V30 3862 C 507.581 2.43698 -5.4105 0
M  V30 3863 H 509.75 3.88793 -6.19859 0
M  V30 3864 H 510.933 1.12029 -6.4413 0
M  V30 3865 H 512.418 1.78279 -8.19533 0
M  V30 3866 H 510.723 3.20706 -9.67112 0
M  V30 3867 H 510.533 0.901032 -10.1892 0
M  V30 3868 H 508.902 1.33049 -9.56592 0
M  V30 3869 H 504.326 2.61953 -3.79465 0
M  V30 3870 H 509.533 0.200439 -6.63497 0
M  V30 3871 H 504.463 4.8334 -3.66367 0
M  V30 3872 H 505.839 5.7474 -4.33841 0
M  V30 3873 H 511.543 3.5779 -5.23879 0
M  V30 3874 P 513.399 3.65191 -7.99657 0
M  V30 3875 O 514.821 3.89332 -8.45794 0
M  V30 3876 O 513.039 2.28472 -7.50807 0
M  V30 3877 O 513.076 4.64972 -6.77611 0
M  V30 3878 C 512.916 6.06319 -7.16352 0
M  V30 3879 C 513.456 6.91731 -6.02299 0
M  V30 3880 O 512.4 6.92449 -5.17064 0
M  V30 3881 C 514.674 6.43627 -5.25174 0
M  V30 3882 O 515.412 7.43686 -4.60469 0
M  V30 3883 C 514.005 5.40275 -4.31916 0
M  V30 3884 O 514.804 5.25279 -3.14438 0
M  V30 3885 C 512.668 6.04847 -4.05327 0
M  V30 3886 H 512.7 6.62195 -3.11261 0
M  V30 3887 H 513.883 4.42556 -4.81383 0
M  V30 3888 H 515.367 5.92458 -5.93643 0
M  V30 3889 H 513.673 7.92655 -6.402 0
M  V30 3890 H 513.483 6.26671 -8.0846 0
M  V30 3891 H 511.853 6.29101 -7.32804 0
M  V30 3892 H 514.492 5.84315 -2.47318 0
M  V30 3893 P 516.35 7.39546 -4.75277 0
M  V30 3894 O 517.772 7.84798 -5.01039 0
M  V30 3895 O 515.99 5.9812 -5.08098 0
M  V30 3896 O 516.027 7.57503 -3.1866 0
M  V30 3897 C 515.867 8.97357 -2.74833 0
M  V30 3898 C 516.407 9.07548 -1.32709 0
M  V30 3899 O 515.351 8.62072 -0.606159 0
M  V30 3900 C 517.625 8.25383 -0.938334 0
M  V30 3901 O 518.363 8.74577 0.146954 0
M  V30 3902 C 516.956 6.8802 -0.712559 0
M  V30 3903 O 517.755 6.1189 0.194655 0
M  V30 3904 C 515.619 7.27966 -0.139777 0
M  V30 3905 H 515.651 7.25354 0.961601 0
M  V30 3906 H 516.834 6.32557 -1.65702 0
M  V30 3907 H 518.318 8.19355 -1.79097 0
M  V30 3908 H 516.624 10.1294 -1.10029 0
M  V30 3909 H 516.434 9.64276 -3.41316 0
M  V30 3910 H 514.804 9.25417 -2.76357 0
M  V30 3911 H 517.443 6.25267 1.07847 0
M  V30 3912 P 519.3 8.791 3.21367e-12 0
M  V30 3913 O 520.721 9.31196 0.027936 0
M  V30 3914 O 518.94 7.77869 -1.04071 0
M  V30 3915 O 518.977 8.09533 1.41463 0
M  V30 3916 C 518.816 9.03587 2.5397 0
M  V30 3917 C 519.357 8.35226 3.79016 0
M  V30 3918 O 518.302 7.57904 4.1503 0
M  V30 3919 C 520.575 7.45087 3.67298 0
M  V30 3920 O 521.313 7.27796 4.85194 0
M  V30 3921 C 519.907 6.17323 3.12027 0
M  V30 3922 O 520.705 5.04496 3.46627 0
M  V30 3923 C 518.569 6.19961 3.81809 0
M  V30 3924 N 517.526 5.71575 2.93223 0
M  V30 3925 C 517.695 5.77362 1.59168 0
M  V30 3926 N 516.668 5.3123 0.911893 0
M  V30 3927 C 515.783 4.91717 1.89588 0
M  V30 3928 C 514.516 4.3114 1.8076 0
M  V30 3929 N 513.917 3.99821 0.632928 0
M  V30 3930 N 513.951 4.06823 3.02898 0
M  V30 3931 C 514.553 4.35062 4.22711 0
M  V30 3932 N 515.73 4.90805 4.35707 0
M  V30 3933 C 516.305 5.16382 3.14469 0
M  V30 3934 H 518.601 5.58142 4.72986 0
M  V30 3935 H 519.784 6.21428 2.0318 0
M  V30 3936 H 521.267 7.86112 2.9231 0
M  V30 3937 H 519.573 9.11171 4.55987 0
M  V30 3938 H 519.383 9.9573 2.34194 0
M  V30 3939 H 517.753 9.2792 2.67832 0
M  V30 3940 H 514.017 4.09052 5.13359 0
M  V30 3941 H 518.595 6.16575 1.12198 0
M  V30 3942 H 512.987 3.55423 0.632085 0
M  V30 3943 H 514.391 4.20317 -0.256712 0
M  V30 3944 H 520.393 4.67628 4.28704 0
M  V30 3945 P 522.251 7.39546 4.75277 0
M  V30 3946 O 523.673 7.81777 5.05738 0
M  V30 3947 O 521.891 7.1065 3.32998 0
M  V30 3948 O 521.928 6.04542 5.56673 0
M  V30 3949 C 521.768 6.22772 7.02095 0
M  V30 3950 C 522.308 4.97725 7.70406 0
M  V30 3951 O 521.252 4.13256 7.58987 0
M  V30 3952 C 523.526 4.28231 7.11815 0
M  V30 3953 O 524.264 3.49945 8.01648 0
M  V30 3954 C 522.857 3.5063 5.96244 0
M  V30 3955 O 523.656 2.36482 5.64681 0
M  V30 3956 C 521.52 3.15122 6.56374 0
M  V30 3957 H 521.552 2.13853 6.99751 0
M  V30 3958 H 522.735 4.13501 5.06559 0
M  V30 3959 H 524.219 5.03285 6.70911 0
M  V30 3960 H 522.525 5.20877 8.75697 0
M  V30 3961 H 522.335 7.11046 7.35349 0
M  V30 3962 H 520.705 6.35815 7.26986 0
M  V30 3963 H 523.344 1.61644 6.13565 0
M  V30 3964 P 525.201 3.65191 7.99657 0
M  V30 3965 O 526.623 3.8425 8.48115 0
M  V30 3966 O 524.841 4.17805 6.64342 0
M  V30 3967 O 524.878 2.07613 7.95143 0
M  V30 3968 C 524.718 1.44328 9.27336 0
M  V30 3969 C 525.258 0.0220036 9.17197 0
M  V30 3970 O 524.202 -0.626867 8.61923 0
M  V30 3971 C 526.476 -0.24586 8.30336 0
M  V30 3972 O 527.214 -1.39011 8.63583 0
M  V30 3973 C 525.807 -0.273849 6.91158 0
M  V30 3974 O 526.606 -1.06348 6.02892 0
M  V30 3975 C 524.47 -0.897649 7.22545 0
M  V30 3976 H 524.502 -1.9841 7.04286 0
M  V30 3977 H 525.685 0.739928 6.497 0
M  V30 3978 H 527.169 0.60668 8.36503 0
M  V30 3979 H 525.475 -0.352479 10.1829 0
M  V30 3980 H 525.285 2.00611 10.0304 0
M  V30 3981 H 523.655 1.41843 9.55327 0
M  V30 3982 H 526.294 -1.95734 6.03555 0
M  V30 3983 P 528.152 -1.25109 8.70152 0
M  V30 3984 O 529.574 -1.35274 9.21221 0
M  V30 3985 O 527.792 -0.0769065 7.84762 0
M  V30 3986 O 527.829 -2.55232 7.81161 0
M  V30 3987 C 527.669 -3.79939 8.58154 0
M  V30 3988 C 528.209 -4.94023 7.72785 0
M  V30 3989 O 527.153 -5.18726 6.91205 0
M  V30 3990 C 529.427 -4.69597 6.85231 0
M  V30 3991 O 530.165 -5.83832 6.51337 0
M  V30 3992 C 528.758 -3.96706 5.66633 0
M  V30 3993 O 529.557 -4.15414 4.49689 0
M  V30 3994 C 527.421 -4.66153 5.59313 0
M  V30 3995 H 527.453 -5.47679 4.85214 0
M  V30 3996 H 528.636 -2.89008 5.86566 0
M  V30 3997 H 530.12 -4.0121 7.36511 0
M  V30 3998 H 528.426 -5.80182 8.37584 0
M  V30 3999 H 528.236 -3.73517 9.52265 0
M  V30 4000 H 526.606 -3.97163 8.80359 0
M  V30 4001 H 529.245 -4.90969 4.01921 0
M  V30 4002 P 531.103 -5.75688 6.64379 0
M  V30 4003 O 532.525 -6.11849 7.01846 0
M  V30 4004 O 530.743 -4.30744 6.56026 0
M  V30 4005 O 530.78 -6.37042 5.19165 0
M  V30 4006 C 530.62 -7.83578 5.16515 0
M  V30 4007 C 531.16 -8.33398 3.83019 0
M  V30 4008 O 530.104 -8.10074 3.01034 0
M  V30 4009 C 532.378 -7.65514 3.2257 0
M  V30 4010 O 533.116 -8.4329 2.32297 0
M  V30 4011 C 531.709 -6.40075 2.62207 0
M  V30 4012 O 532.508 -5.92589 1.53712 0
M  V30 4013 C 530.372 -6.9454 2.18503 0
M  V30 4014 H 530.404 -7.23063 1.12091 0
M  V30 4015 H 531.587 -5.6025 3.37201 0
M  V30 4016 H 533.071 -7.35707 4.02681 0
M  V30 4017 H 531.377 -9.40912 3.9095 0
M  V30 4018 H 531.187 -8.29056 5.99158 0
M  V30 4019 H 529.557 -8.10073 5.25882 0
M  V30 4020 H 532.196 -6.30324 0.726794 0
M  V30 4021 P 534.053 -8.4349 2.47671 0
M  V30 4022 O 535.475 -8.94359 2.59696 0
M  V30 4023 O 533.693 -7.1704 3.19006 0
M  V30 4024 O 533.73 -8.16596 0.923387 0
M  V30 4025 C 533.57 -9.38437 0.108857 0
M  V30 4026 C 534.11 -9.08076 -1.28339 0
M  V30 4027 O 533.055 -8.44229 -1.84713 0
M  V30 4028 C 535.328 -8.18386 -1.42505 0
M  V30 4029 O 536.066 -8.3501 -2.60497 0
M  V30 4030 C 534.66 -6.80225 -1.25468 0
M  V30 4031 O 535.458 -5.81526 -1.91035 0
M  V30 4032 C 533.322 -7.02416 -1.9168 0
M  V30 4033 N 532.279 -6.31033 -1.20314 0
M  V30 4034 C 532.341 -6.18781 0.121293 0
M  V30 4035 N 531.296 -5.49762 0.588272 0
M  V30 4036 C 530.562 -5.22015 -0.488988 0
M  V30 4037 C 529.256 -4.61966 -0.596448 0
M  V30 4038 O 528.523 -4.19162 0.309059 0
M  V30 4039 N 528.826 -4.53773 -1.878 0
M  V30 4040 C 529.575 -4.99623 -2.99082 0
M  V30 4041 N 528.978 -4.78912 -4.21227 0
M  V30 4042 N 530.728 -5.59957 -2.91093 0
M  V30 4043 C 531.185 -5.70225 -1.64218 0
M  V30 4044 H 533.354 -6.6888 -2.96621 0
M  V30 4045 H 534.537 -6.53517 -0.192194 0
M  V30 4046 H 536.022 -8.36563 -0.598329 0
M  V30 4047 H 534.327 -10.0291 -1.79807 0
M  V30 4048 H 534.137 -10.2138 0.558219 0
M  V30 4049 H 532.506 -9.6579 0.0444202 0
M  V30 4050 H 527.93 -4.12883 -2.05283 0
M  V30 4051 H 533.137 -6.59596 0.745856 0
M  V30 4052 H 528.067 -4.31425 -4.2628 0
M  V30 4053 H 529.443 -5.11219 -5.07148 0
M  V30 4054 H 535.147 -5.69466 -2.79593 0
M  V30 4055 P 537.004 -8.4349 -2.47671 0
M  V30 4056 O 538.426 -8.92593 -2.65 0
M  V30 4057 O 536.644 -7.7568 -1.19296 0
M  V30 4058 O 536.681 -7.36886 -3.63805 0
M  V30 4059 C 536.521 -7.95349 -4.982 0
M  V30 4060 C 537.061 -6.94612 -5.98974 0
M  V30 4061 O 536.005 -6.10347 -6.11815 0
M  V30 4062 C 538.279 -6.11426 -5.62335 0
M  V30 4063 O 539.017 -5.6162 -6.70584 0
M  V30 4064 C 537.61 -5.04409 -4.73308 0
M  V30 4065 O 538.409 -3.85992 -4.75183 0
M  V30 4066 C 536.273 -4.8728 -5.41006 0
M  V30 4067 H 536.305 -4.02333 -6.11157 0
M  V30 4068 H 537.488 -5.39466 -3.69543 0
M  V30 4069 H 538.972 -6.71916 -5.01943 0
M  V30 4070 H 537.278 -7.4649 -6.93477 0
M  V30 4071 H 537.088 -8.89416 -5.05237 0
M  V30 4072 H 535.458 -8.14876 -5.18409 0
M  V30 4073 H 538.097 -3.27957 -5.4317 0
M  V30 4074 P 539.954 -5.75688 -6.64379 0
M  V30 4075 O 541.376 -6.07627 -7.05504 0
M  V30 4076 O 539.594 -5.88047 -5.19722 0
M  V30 4077 O 539.631 -4.2322 -7.04443 0
M  V30 4078 C 539.471 -3.99743 -8.4911 0
M  V30 4079 C 540.011 -2.60516 -8.79425 0
M  V30 4080 O 538.955 -1.82684 -8.4467 0
M  V30 4081 C 541.229 -2.10343 -8.03628 0
M  V30 4082 O 541.967 -1.09919 -8.67766 0
M  V30 4083 C 540.56 -1.68446 -6.70876 0
M  V30 4084 O 541.359 -0.678137 -6.08433 0
M  V30 4085 C 539.223 -1.17436 -7.18567 0
M  V30 4086 H 539.255 -0.0804732 -7.31656 0
M  V30 4087 H 540.438 -2.54037 -6.02537 0
M  V30 4088 H 541.922 -2.93881 -7.85526 0
M  V30 4089 H 540.228 -2.53065 -9.86973 0
M  V30 4090 H 540.038 -4.75072 -9.05887 0
M  V30 4091 H 538.408 -4.05244 -8.76668 0
M  V30 4092 H 541.047 0.177647 -6.34251 0
M  V30 4093 P 542.905 -1.25109 -8.70152 0
M  V30 4094 O 544.327 -1.29744 -9.22016 0
M  V30 4095 O 542.545 -2.13714 -7.55141 0
M  V30 4096 O 542.582 0.248149 -8.21425 0
M  V30 4097 C 542.422 1.22779 -9.30434 0
M  V30 4098 C 542.962 2.56293 -8.80664 0
M  V30 4099 O 541.906 3.02979 -8.09349 0
M  V30 4100 C 544.18 2.57523 -7.89775 0
M  V30 4101 O 544.918 3.7668 -7.89438 0
M  V30 4102 C 543.511 2.20997 -6.55446 0
M  V30 4103 O 544.31 2.71895 -5.48509 0
M  V30 4104 C 542.174 2.89693 -6.67988 0
M  V30 4105 H 542.206 3.88793 -6.19859 0
M  V30 4106 H 543.389 1.12046 -6.44229 0
M  V30 4107 H 544.873 1.7746 -8.19711 0
M  V30 4108 H 543.179 3.20706 -9.67112 0
M  V30 4109 H 542.989 0.901032 -10.1892 0
M  V30 4110 H 541.359 1.33049 -9.56592 0
M  V30 4111 H 543.998 3.57847 -5.23962 0
M  V30 4112 P 545.855 3.65191 -7.99657 0
M  V30 4113 O 547.277 3.89332 -8.45794 0
M  V30 4114 O 545.495 2.28472 -7.50807 0
M  V30 4115 O 545.532 4.64972 -6.77611 0
M  V30 4116 C 545.372 6.06319 -7.16352 0
M  V30 4117 C 545.912 6.91731 -6.02299 0
M  V30 4118 O 544.856 6.92449 -5.17064 0
M  V30 4119 C 547.13 6.43627 -5.25174 0
M  V30 4120 O 547.868 7.43686 -4.60469 0
M  V30 4121 C 546.461 5.40275 -4.31916 0
M  V30 4122 O 547.26 5.25279 -3.14438 0
M  V30 4123 C 545.124 6.04847 -4.05327 0
M  V30 4124 H 545.156 6.62195 -3.11261 0
M  V30 4125 H 546.339 4.42556 -4.81383 0
M  V30 4126 H 547.823 5.92458 -5.93643 0
M  V30 4127 H 546.129 7.92655 -6.402 0
M  V30 4128 H 545.939 6.26671 -8.0846 0
M  V30 4129 H 544.309 6.29101 -7.32804 0
M  V30 4130 H 546.948 5.84315 -2.47318 0
M  V30 4131 P 548.806 7.39546 -4.75277 0
M  V30 4132 O 550.228 7.84798 -5.01039 0
M  V30 4133 O 548.446 5.9812 -5.08098 0
M  V30 4134 O 548.483 7.57503 -3.1866 0
M  V30 4135 C 548.323 8.97357 -2.74833 0
M  V30 4136 C 548.863 9.07548 -1.32709 0
M  V30 4137 O 547.807 8.62072 -0.606159 0
M  V30 4138 C 550.081 8.25383 -0.938334 0
M  V30 4139 O 550.819 8.74577 0.146954 0
M  V30 4140 C 549.412 6.8802 -0.712559 0
M  V30 4141 O 550.211 6.1189 0.194655 0
M  V30 4142 C 548.075 7.27966 -0.139777 0
M  V30 4143 H 548.107 7.25354 0.961601 0
M  V30 4144 H 549.29 6.32557 -1.65702 0
M  V30 4145 H 550.774 8.19355 -1.79097 0
M  V30 4146 H 549.08 10.1294 -1.10029 0
M  V30 4147 H 548.89 9.64276 -3.41316 0
M  V30 4148 H 547.26 9.25417 -2.76357 0
M  V30 4149 H 549.899 6.25267 1.07847 0
M  V30 4150 P 551.757 8.791 3.52383e-12 0
M  V30 4151 O 553.179 9.31296 0.027939 0
M  V30 4152 O 551.397 7.77869 -1.04071 0
M  V30 4153 O 551.434 8.09533 1.41463 0
M  V30 4154 C 551.274 9.0349 2.53943 0
M  V30 4155 C 551.814 8.35135 3.78975 0
M  V30 4156 O 550.759 7.57992 4.15078 0
M  V30 4157 C 553.032 7.45087 3.67298 0
M  V30 4158 O 553.77 7.27796 4.85194 0
M  V30 4159 C 552.364 6.17323 3.12027 0
M  V30 4160 O 553.162 5.04149 3.47132 0
M  V30 4161 C 551.026 6.19961 3.81809 0
M  V30 4162 N 549.983 5.71575 2.93223 0
M  V30 4163 C 550.045 5.97133 1.62693 0
M  V30 4164 N 549 5.44066 0.984414 0
M  V30 4165 C 548.266 4.87093 1.93987 0
M  V30 4166 C 546.96 4.26449 1.8738 0
M  V30 4167 O 546.227 4.1089 0.884377 0
M  V30 4168 N 546.53 3.82483 3.08036 0
M  V30 4169 C 547.279 3.95124 4.27727 0
M  V30 4170 N 546.682 3.4084 5.39089 0
M  V30 4171 N 548.432 4.55264 4.3706 0
M  V30 4172 C 548.889 5.00861 3.18217 0
M  V30 4173 H 551.058 5.58218 4.73051 0
M  V30 4174 H 552.241 6.21631 2.02558 0
M  V30 4175 H 553.726 7.85819 2.93096 0
M  V30 4176 H 552.031 9.11627 4.55076 0
M  V30 4177 H 551.841 9.9573 2.34194 0
M  V30 4178 H 550.21 9.2792 2.67832 0
M  V30 4179 H 545.634 3.38323 3.1329 0
M  V30 4180 H 550.841 6.53891 1.14265 0
M  V30 4181 H 545.771 2.93852 5.30559 0
M  V30 4182 H 547.147 3.47631 6.30632 0
M  V30 4183 H 552.851 4.67628 4.28704 0
M  V30 4184 P 554.707 7.39546 4.75277 0
M  V30 4185 O 556.129 7.81777 5.05738 0
M  V30 4186 O 554.347 7.1065 3.32998 0
M  V30 4187 O 554.384 6.04542 5.56673 0
M  V30 4188 C 554.224 6.22772 7.02095 0
M  V30 4189 C 554.764 4.97725 7.70406 0
M  V30 4190 O 553.708 4.13256 7.58987 0
M  V30 4191 C 555.982 4.28231 7.11815 0
M  V30 4192 O 556.72 3.49945 8.01648 0
M  V30 4193 C 555.313 3.5063 5.96244 0
M  V30 4194 O 556.112 2.36482 5.64681 0
M  V30 4195 C 553.976 3.15122 6.56374 0
M  V30 4196 H 554.008 2.13853 6.99751 0
M  V30 4197 H 555.191 4.13501 5.06559 0
M  V30 4198 H 556.675 5.03285 6.70911 0
M  V30 4199 H 554.981 5.20877 8.75697 0
M  V30 4200 H 554.791 7.11046 7.35349 0
M  V30 4201 H 553.161 6.35815 7.26986 0
M  V30 4202 H 555.8 1.61644 6.13565 0
M  V30 4203 P 557.658 3.65191 7.99657 0
M  V30 4204 O 559.08 3.8425 8.48115 0
M  V30 4205 O 557.298 4.17805 6.64342 0
M  V30 4206 O 557.335 2.07613 7.95143 0
M  V30 4207 C 557.175 1.44328 9.27336 0
M  V30 4208 C 557.715 0.0220036 9.17197 0
M  V30 4209 O 556.659 -0.626867 8.61923 0
M  V30 4210 C 558.933 -0.24586 8.30336 0
M  V30 4211 O 559.671 -1.39011 8.63583 0
M  V30 4212 C 558.264 -0.273849 6.91158 0
M  V30 4213 O 559.063 -1.06348 6.02892 0
M  V30 4214 C 556.927 -0.897649 7.22545 0
M  V30 4215 H 556.959 -1.9841 7.04286 0
M  V30 4216 H 558.142 0.739928 6.497 0
M  V30 4217 H 559.626 0.60668 8.36503 0
M  V30 4218 H 557.932 -0.352479 10.1829 0
M  V30 4219 H 557.742 2.00611 10.0304 0
M  V30 4220 H 556.112 1.41843 9.55327 0
M  V30 4221 H 558.751 -1.95734 6.03555 0
M  V30 4222 P 560.608 -1.25109 8.70152 0
M  V30 4223 O 562.03 -1.35274 9.21221 0
M  V30 4224 O 560.248 -0.0769065 7.84762 0
M  V30 4225 O 560.285 -2.55232 7.81161 0
M  V30 4226 C 560.125 -3.79939 8.58154 0
M  V30 4227 C 560.665 -4.94023 7.72785 0
M  V30 4228 O 559.609 -5.18726 6.91205 0
M  V30 4229 C 561.883 -4.69597 6.85231 0
M  V30 4230 O 562.621 -5.83832 6.51337 0
M  V30 4231 C 561.214 -3.96706 5.66633 0
M  V30 4232 O 562.013 -4.15414 4.49689 0
M  V30 4233 C 559.877 -4.66153 5.59313 0
M  V30 4234 H 559.909 -5.47679 4.85214 0
M  V30 4235 H 561.092 -2.89008 5.86566 0
M  V30 4236 H 562.576 -4.0121 7.36511 0
M  V30 4237 H 560.882 -5.80182 8.37584 0
M  V30 4238 H 560.692 -3.73517 9.52265 0
M  V30 4239 H 559.062 -3.97163 8.80359 0
M  V30 4240 H 561.701 -4.90969 4.01921 0
M  V30 4241 P 563.559 -5.75688 6.64379 0
M  V30 4242 O 564.98 -6.11915 7.01921 0
M  V30 4243 O 563.199 -4.30744 6.56026 0
M  V30 4244 O 563.236 -6.37042 5.19165 0
M  V30 4245 C 563.075 -7.83662 5.1657 0
M  V30 4246 C 563.616 -8.33398 3.83019 0
M  V30 4247 O 562.561 -8.0998 3.00999 0
M  V30 4248 C 564.834 -7.65514 3.2257 0
M  V30 4249 O 565.572 -8.4329 2.32297 0
M  V30 4250 C 564.166 -6.40075 2.62207 0
M  V30 4251 O 564.964 -5.92338 1.5428 0
M  V30 4252 C 562.828 -6.9454 2.18503 0
M  V30 4253 N 561.785 -5.95905 2.39948 0
M  V30 4254 C 561.954 -4.98383 3.32108 0
M  V30 4255 N 560.927 -4.16798 3.41761 0
M  V30 4256 C 560.042 -4.65287 2.47461 0
M  V30 4257 C 558.775 -4.18946 2.07461 0
M  V30 4258 N 558.176 -3.09661 2.60717 0
M  V30 4259 N 558.21 -4.95327 1.09101 0
M  V30 4260 C 558.812 -6.04369 0.519812 0
M  V30 4261 N 559.989 -6.50694 0.855982 0
M  V30 4262 C 560.564 -5.75818 1.84322 0
M  V30 4263 H 562.86 -7.22964 1.12076 0
M  V30 4264 H 564.043 -5.60502 3.36589 0
M  V30 4265 H 565.526 -7.35707 4.02681 0
M  V30 4266 H 563.832 -9.41302 3.90009 0
M  V30 4267 H 563.642 -8.29056 5.99158 0
M  V30 4268 H 562.012 -8.10073 5.25882 0
M  V30 4269 H 558.276 -6.55843 -0.270373 0
M  V30 4270 H 562.854 -4.88564 3.92502 0
M  V30 4271 H 557.246 -2.80523 2.27218 0
M  V30 4272 H 558.65 -2.55848 3.34465 0
M  V30 4273 H 564.652 -6.30224 0.72668 0
M  V30 4274 P 566.509 -8.4349 2.47671 0
M  V30 4275 O 567.931 -8.94167 2.5964 0
M  V30 4276 O 566.149 -7.1704 3.19006 0
M  V30 4277 O 566.186 -8.16596 0.923387 0
M  V30 4278 C 566.026 -9.38437 0.108857 0
M  V30 4279 C 566.566 -9.08175 -1.28353 0
M  V30 4280 O 565.51 -8.44229 -1.84713 0
M  V30 4281 C 567.784 -8.18386 -1.42505 0
M  V30 4282 O 568.522 -8.3501 -2.60497 0
M  V30 4283 C 567.115 -6.80225 -1.25468 0
M  V30 4284 O 567.914 -5.81621 -1.91066 0
M  V30 4285 C 565.778 -7.02416 -1.9168 0
M  V30 4286 H 565.81 -6.6888 -2.96621 0
M  V30 4287 H 566.993 -6.53617 -0.192223 0
M  V30 4288 H 568.477 -8.36622 -0.589963 0
M  V30 4289 H 566.783 -10.0291 -1.79807 0
M  V30 4290 H 566.593 -10.2138 0.558219 0
M  V30 4291 H 564.963 -9.6579 0.0444202 0
M  V30 4292 H 567.602 -5.69556 -2.79637 0
M  V30 4293 P 569.46 -8.4349 -2.47671 0
M  V30 4294 O 570.882 -8.92785 -2.65057 0
M  V30 4295 O 569.1 -7.7568 -1.19296 0
M  V30 4296 O 569.137 -7.36886 -3.63805 0
M  V30 4297 C 568.977 -7.95349 -4.982 0
M  V30 4298 C 569.517 -6.94537 -5.98908 0
M  V30 4299 O 568.462 -6.10347 -6.11815 0
M  V30 4300 C 570.735 -6.11426 -5.62335 0
M  V30 4301 O 571.473 -5.6162 -6.70584 0
M  V30 4302 C 570.067 -5.04409 -4.73308 0
M  V30 4303 O 570.865 -3.85929 -4.75106 0
M  V30 4304 C 568.729 -4.8728 -5.41006 0
M  V30 4305 N 567.686 -4.65812 -4.42377 0
M  V30 4306 C 567.748 -5.27109 -3.24335 0
M  V30 4307 N 566.703 -4.94293 -2.47735 0
M  V30 4308 C 565.969 -4.1271 -3.23359 0
M  V30 4309 C 564.663 -3.56384 -2.99934 0
M  V30 4310 O 563.93 -3.69331 -2.00616 0
M  V30 4311 N 564.233 -2.80206 -4.03316 0
M  V30 4312 C 564.982 -2.58614 -5.2172 0
M  V30 4313 N 564.385 -1.75154 -6.13278 0
M  V30 4314 N 566.135 -3.13689 -5.47619 0
M  V30 4315 C 566.592 -3.90921 -4.46436 0
M  V30 4316 H 568.761 -4.02333 -6.11157 0
M  V30 4317 H 569.944 -5.39383 -3.69487 0
M  V30 4318 H 571.429 -6.71414 -5.02615 0
M  V30 4319 H 569.734 -7.4649 -6.93477 0
M  V30 4320 H 569.544 -8.89416 -5.05237 0
M  V30 4321 H 567.913 -8.14876 -5.18409 0
M  V30 4322 H 563.337 -2.36355 -3.95916 0
M  V30 4323 H 568.544 -5.95212 -2.93859 0
M  V30 4324 H 563.474 -1.32473 -5.91856 0
M  V30 4325 H 564.85 -1.5588 -7.03026 0
M  V30 4326 H 570.554 -3.27906 -5.43085 0
M  V30 4327 P 572.411 -5.75688 -6.64379 0
M  V30 4328 O 573.833 -6.07627 -7.05504 0
M  V30 4329 O 572.051 -5.88047 -5.19722 0
M  V30 4330 O 572.088 -4.2322 -7.04443 0
M  V30 4331 C 571.928 -3.99743 -8.4911 0
M  V30 4332 C 572.468 -2.60516 -8.79425 0
M  V30 4333 O 571.412 -1.82684 -8.4467 0
M  V30 4334 C 573.686 -2.10343 -8.03628 0
M  V30 4335 O 574.424 -1.09919 -8.67766 0
M  V30 4336 C 573.017 -1.68446 -6.70876 0
M  V30 4337 O 573.816 -0.678137 -6.08433 0
M  V30 4338 C 571.68 -1.17436 -7.18567 0
M  V30 4339 H 571.712 -0.0804732 -7.31656 0
M  V30 4340 H 572.895 -2.54037 -6.02537 0
M  V30 4341 H 574.379 -2.93881 -7.85526 0
M  V30 4342 H 572.685 -2.53065 -9.86973 0
M  V30 4343 H 572.495 -4.75072 -9.05887 0
M  V30 4344 H 570.865 -4.05244 -8.76668 0
M  V30 4345 H 573.504 0.177647 -6.34251 0
M  V30 4346 P 575.361 -1.25109 -8.70152 0
M  V30 4347 O 576.783 -1.29744 -9.22016 0
M  V30 4348 O 575.001 -2.13714 -7.55141 0
M  V30 4349 O 575.038 0.248149 -8.21425 0
M  V30 4350 C 574.878 1.22779 -9.30434 0
M  V30 4351 C 575.418 2.56293 -8.80664 0
M  V30 4352 O 574.362 3.02979 -8.09349 0
M  V30 4353 C 576.636 2.57523 -7.89775 0
M  V30 4354 O 577.374 3.7668 -7.89438 0
M  V30 4355 C 575.967 2.20997 -6.55446 0
M  V30 4356 O 576.766 2.71895 -5.48509 0
M  V30 4357 C 574.63 2.89693 -6.67988 0
M  V30 4358 H 574.662 3.88793 -6.19859 0
M  V30 4359 H 575.845 1.12046 -6.44229 0
M  V30 4360 H 577.329 1.7746 -8.19711 0
M  V30 4361 H 575.635 3.20706 -9.67112 0
M  V30 4362 H 575.445 0.901032 -10.1892 0
M  V30 4363 H 573.815 1.33049 -9.56592 0
M  V30 4364 H 576.454 3.57847 -5.23962 0
M  V30 4365 P 578.312 3.65191 -7.99657 0
M  V30 4366 O 579.734 3.89332 -8.45794 0
M  V30 4367 O 577.952 2.28472 -7.50807 0
M  V30 4368 O 577.989 4.64972 -6.77611 0
M  V30 4369 C 577.829 6.06319 -7.16352 0
M  V30 4370 C 578.369 6.91731 -6.02299 0
M  V30 4371 O 577.313 6.92449 -5.17064 0
M  V30 4372 C 579.587 6.43627 -5.25174 0
M  V30 4373 O 580.325 7.43686 -4.60469 0
M  V30 4374 C 578.918 5.40275 -4.31916 0
M  V30 4375 O 579.717 5.25279 -3.14438 0
M  V30 4376 C 577.581 6.04847 -4.05327 0
M  V30 4377 H 577.613 6.62195 -3.11261 0
M  V30 4378 H 578.796 4.42556 -4.81383 0
M  V30 4379 H 580.28 5.92458 -5.93643 0
M  V30 4380 H 578.586 7.92655 -6.402 0
M  V30 4381 H 578.396 6.26671 -8.0846 0
M  V30 4382 H 576.766 6.29101 -7.32804 0
M  V30 4383 H 579.405 5.84315 -2.47318 0
M  V30 4384 P 581.262 7.39546 -4.75277 0
M  V30 4385 O 582.683 7.84882 -5.01092 0
M  V30 4386 O 580.902 5.9812 -5.08098 0
M  V30 4387 O 580.939 7.57503 -3.1866 0
M  V30 4388 C 580.778 8.97452 -2.74862 0
M  V30 4389 C 581.319 9.07548 -1.32709 0
M  V30 4390 O 580.264 8.61972 -0.606089 0
M  V30 4391 C 582.537 8.25383 -0.938334 0
M  V30 4392 O 583.275 8.74577 0.146954 0
M  V30 4393 C 581.869 6.8802 -0.712559 0
M  V30 4394 O 582.667 6.1181 0.188505 0
M  V30 4395 C 580.531 7.27966 -0.139777 0
M  V30 4396 N 579.488 6.39368 -0.623421 0
M  V30 4397 C 579.657 5.71761 -1.78245 0
M  V30 4398 N 578.63 4.962 -2.10491 0
M  V30 4399 C 577.745 5.16158 -1.0635 0
M  V30 4400 C 576.478 4.60425 -0.810266 0
M  V30 4401 N 575.913 5.06 0.348685 0
M  V30 4402 C 576.515 5.94532 1.20395 0
M  V30 4403 N 577.692 6.48452 1.01191 0
M  V30 4404 C 578.267 6.04423 -0.146291 0
M  V30 4405 H 581.746 6.32625 -1.65044 0
M  V30 4406 H 583.229 8.19355 -1.79097 0
M  V30 4407 H 581.535 10.1305 -1.09016 0
M  V30 4408 H 581.345 9.64276 -3.41316 0
M  V30 4409 H 579.715 9.25417 -2.76357 0
M  V30 4410 H 580.557 5.79354 -2.38959 0
M  V30 4411 H 582.355 6.25169 1.0783 0
M  V30 4412 P 584.213 8.791 3.834e-12 0
M  V30 4413 O 585.635 9.31096 0.027933 0
M  V30 4414 O 583.853 7.77869 -1.04071 0
M  V30 4415 O 583.89 8.09533 1.41463 0
M  V30 4416 C 583.73 9.0349 2.53943 0
M  V30 4417 C 584.27 8.35226 3.79016 0
M  V30 4418 O 583.214 7.57992 4.15078 0
M  V30 4419 C 585.488 7.45087 3.67298 0
M  V30 4420 O 586.226 7.27796 4.85194 0
M  V30 4421 C 584.819 6.17323 3.12027 0
M  V30 4422 O 585.618 5.04231 3.47188 0
M  V30 4423 C 583.482 6.19961 3.81809 0
M  V30 4424 H 583.514 5.58218 4.73051 0
M  V30 4425 H 584.697 6.21726 2.02589 0
M  V30 4426 H 586.181 7.86112 2.9231 0
M  V30 4427 H 584.487 9.11627 4.55076 0
M  V30 4428 H 584.297 9.9573 2.34194 0
M  V30 4429 H 582.667 9.2792 2.67832 0
M  V30 4430 H 585.306 4.67702 4.28772 0
M  V30 4431 P 587.163 7.39546 4.75277 0
M  V30 4432 O 588.585 7.81777 5.05738 0
M  V30 4433 O 586.803 7.1065 3.32998 0
M  V30 4434 O 586.84 6.04542 5.56673 0
M  V30 4435 C 586.68 6.22772 7.02095 0
M  V30 4436 C 587.22 4.97725 7.70406 0
M  V30 4437 O 586.164 4.13256 7.58987 0
M  V30 4438 C 588.438 4.28231 7.11815 0
M  V30 4439 O 589.176 3.49945 8.01648 0
M  V30 4440 C 587.769 3.5063 5.96244 0
M  V30 4441 O 588.568 2.36482 5.64681 0
M  V30 4442 C 586.432 3.15122 6.56374 0
M  V30 4443 H 586.464 2.13853 6.99751 0
M  V30 4444 H 587.647 4.13501 5.06559 0
M  V30 4445 H 589.131 5.03285 6.70911 0
M  V30 4446 H 587.437 5.20877 8.75697 0
M  V30 4447 H 587.247 7.11046 7.35349 0
M  V30 4448 H 585.617 6.35815 7.26986 0
M  V30 4449 H 588.256 1.61644 6.13565 0
M  V30 4450 P 590.114 3.65191 7.99657 0
M  V30 4451 O 591.536 3.84333 8.48297 0
M  V30 4452 O 589.754 4.17805 6.64342 0
M  V30 4453 O 589.791 2.07613 7.95143 0
M  V30 4454 C 589.631 1.44328 9.27336 0
M  V30 4455 C 590.171 0.0220012 9.17097 0
M  V30 4456 O 589.116 -0.626867 8.61923 0
M  V30 4457 C 591.389 -0.24586 8.30336 0
M  V30 4458 O 592.127 -1.39011 8.63583 0
M  V30 4459 C 590.721 -0.273849 6.91158 0
M  V30 4460 O 591.519 -1.06331 6.02794 0
M  V30 4461 C 589.383 -0.897649 7.22545 0
M  V30 4462 N 588.34 -0.292839 6.41732 0
M  V30 4463 C 588.402 1.00068 6.10757 0
M  V30 4464 N 587.357 1.36468 5.35794 0
M  V30 4465 C 586.623 0.258894 5.2366 0
M  V30 4466 C 585.317 0.0670682 4.65752 0
M  V30 4467 O 584.584 0.902443 4.10497 0
M  V30 4468 N 584.887 -1.2131 4.75881 0
M  V30 4469 C 585.636 -2.24934 5.37101 0
M  V30 4470 N 585.039 -3.48783 5.33984 0
M  V30 4471 N 586.789 -2.0844 5.95684 0
M  V30 4472 C 587.246 -0.81395 5.87791 0
M  V30 4473 H 589.415 -1.9841 7.04286 0
M  V30 4474 H 590.598 0.739815 6.49601 0
M  V30 4475 H 592.083 0.598315 8.36563 0
M  V30 4476 H 590.388 -0.352479 10.1829 0
M  V30 4477 H 590.198 2.00611 10.0304 0
M  V30 4478 H 588.567 1.41843 9.55327 0
M  V30 4479 H 583.991 -1.44434 4.37895 0
M  V30 4480 H 589.198 1.67697 6.42268 0
M  V30 4481 H 584.128 -3.60543 4.87699 0
M  V30 4482 H 585.504 -4.29232 5.7819 0
M  V30 4483 H 591.208 -1.95704 6.0346 0
M  V30 4484 P 593.065 -1.25109 8.70152 0
M  V30 4485 O 594.487 -1.35274 9.21221 0
M  V30 4486 O 592.705 -0.0769065 7.84762 0
M  V30 4487 O 592.742 -2.55232 7.81161 0
M  V30 4488 C 592.582 -3.79939 8.58154 0
M  V30 4489 C 593.122 -4.94023 7.72785 0
M  V30 4490 O 592.066 -5.18726 6.91205 0
M  V30 4491 C 594.34 -4.69597 6.85231 0
M  V30 4492 O 595.078 -5.83832 6.51337 0
M  V30 4493 C 593.671 -3.96706 5.66633 0
M  V30 4494 O 594.47 -4.15414 4.49689 0
M  V30 4495 C 592.334 -4.66153 5.59313 0
M  V30 4496 H 592.366 -5.47679 4.85214 0
M  V30 4497 H 593.549 -2.89008 5.86566 0
M  V30 4498 H 595.033 -4.0121 7.36511 0
M  V30 4499 H 593.339 -5.80182 8.37584 0
M  V30 4500 H 593.149 -3.73517 9.52265 0
M  V30 4501 H 591.519 -3.97163 8.80359 0
M  V30 4502 H 594.158 -4.90969 4.01921 0
M  V30 4503 P 596.015 -5.75688 6.64379 0
M  V30 4504 O 597.436 -6.11915 7.01921 0
M  V30 4505 O 595.655 -4.30744 6.56026 0
M  V30 4506 O 595.692 -6.37042 5.19165 0
M  V30 4507 C 595.531 -7.83662 5.1657 0
M  V30 4508 C 596.072 -8.33398 3.83019 0
M  V30 4509 O 595.017 -8.0998 3.00999 0
M  V30 4510 C 597.29 -7.65514 3.2257 0
M  V30 4511 O 598.028 -8.4329 2.32297 0
M  V30 4512 C 596.622 -6.40075 2.62207 0
M  V30 4513 O 597.42 -5.92338 1.5428 0
M  V30 4514 C 595.284 -6.9454 2.18503 0
M  V30 4515 N 594.241 -5.95905 2.39948 0
M  V30 4516 C 594.41 -4.98383 3.32108 0
M  V30 4517 N 593.383 -4.16798 3.41761 0
M  V30 4518 C 592.498 -4.65287 2.47461 0
M  V30 4519 C 591.231 -4.18946 2.07461 0
M  V30 4520 N 590.632 -3.09661 2.60717 0
M  V30 4521 N 590.666 -4.95327 1.09101 0
M  V30 4522 C 591.268 -6.04369 0.519812 0
M  V30 4523 N 592.445 -6.50694 0.855982 0
M  V30 4524 C 593.02 -5.75818 1.84322 0
M  V30 4525 H 595.316 -7.22964 1.12076 0
M  V30 4526 H 596.499 -5.60502 3.36589 0
M  V30 4527 H 597.982 -7.35707 4.02681 0
M  V30 4528 H 596.288 -9.41302 3.90009 0
M  V30 4529 H 596.098 -8.29056 5.99158 0
M  V30 4530 H 594.468 -8.10073 5.25882 0
M  V30 4531 H 590.732 -6.55843 -0.270373 0
M  V30 4532 H 595.31 -4.88564 3.92502 0
M  V30 4533 H 589.702 -2.80523 2.27218 0
M  V30 4534 H 591.106 -2.55848 3.34465 0
M  V30 4535 H 597.108 -6.30224 0.72668 0
M  V30 4536 P 598.966 -8.4349 2.47671 0
M  V30 4537 O 600.388 -8.94167 2.5964 0
M  V30 4538 O 598.606 -7.1704 3.19006 0
M  V30 4539 O 598.643 -8.16596 0.923387 0
M  V30 4540 C 598.483 -9.38437 0.108857 0
M  V30 4541 C 599.023 -9.08175 -1.28353 0
M  V30 4542 O 597.967 -8.44229 -1.84713 0
M  V30 4543 C 600.241 -8.18386 -1.42505 0
M  V30 4544 O 600.979 -8.3501 -2.60497 0
M  V30 4545 C 599.572 -6.80225 -1.25468 0
M  V30 4546 O 600.371 -5.81621 -1.91066 0
M  V30 4547 C 598.235 -7.02416 -1.9168 0
M  V30 4548 H 598.267 -6.6888 -2.96621 0
M  V30 4549 H 599.45 -6.53617 -0.192223 0
M  V30 4550 H 600.934 -8.36622 -0.589963 0
M  V30 4551 H 599.24 -10.0291 -1.79807 0
M  V30 4552 H 599.05 -10.2138 0.558219 0
M  V30 4553 H 597.42 -9.6579 0.0444202 0
M  V30 4554 H 600.059 -5.69556 -2.79637 0
M  V30 4555 P 601.916 -8.4349 -2.47671 0
M  V30 4556 O 603.317 -8.99283 -2.62101 0
M  V30 4557 O 601.538 -7.81195 -1.16947 0
M  V30 4558 O 601.593 -7.36797 -3.63761 0
M  V30 4559 C 601.433 -7.95349 -4.982 0
M  V30 4560 C 601.973 -6.94537 -5.98908 0
M  V30 4561 O 600.917 -6.10277 -6.11744 0
M  V30 4562 C 603.19 -6.11426 -5.62335 0
M  V30 4563 O 603.929 -5.6162 -6.70584 0
M  V30 4564 C 602.523 -5.04409 -4.73308 0
M  V30 4565 O 603.321 -3.85929 -4.75106 0
M  V30 4566 C 601.185 -4.8728 -5.41006 0
M  V30 4567 N 600.142 -4.65812 -4.42377 0
M  V30 4568 C 599.107 -3.81293 -4.74224 0
M  V30 4569 O 599.146 -3.20533 -5.83679 0
M  V30 4570 N 598.095 -3.6442 -3.86349 0
M  V30 4571 C 598.143 -4.2728 -2.6824 0
M  V30 4572 C 599.239 -5.10813 -2.3217 0
M  V30 4573 C 600.205 -5.27909 -3.22647 0
M  V30 4574 H 601.217 -4.02278 -6.11074 0
M  V30 4575 H 602.4 -5.39013 -3.70026 0
M  V30 4576 H 603.884 -6.71494 -5.02675 0
M  V30 4577 H 602.19 -7.45796 -6.94223 0
M  V30 4578 H 601.999 -8.89416 -5.05237 0
M  V30 4579 H 600.369 -8.14791 -5.18355 0
M  V30 4580 H 599.287 -5.58884 -1.34755 0
M  V30 4581 H 601.051 -5.92811 -2.9934 0
M  V30 4582 H 603.105 -3.3454 -5.51577 0
M  V30 4583 P 604.867 -5.75688 -6.64379 0
M  V30 4584 O 606.288 -6.07692 -7.0558 0
M  V30 4585 O 604.507 -5.88047 -5.19722 0
M  V30 4586 O 604.544 -4.2322 -7.04443 0
M  V30 4587 C 604.383 -3.99785 -8.49201 0
M  V30 4588 C 604.924 -2.60516 -8.79425 0
M  V30 4589 O 603.869 -1.82663 -8.44573 0
M  V30 4590 C 606.142 -2.10343 -8.03628 0
M  V30 4591 O 606.88 -1.09919 -8.67766 0
M  V30 4592 C 605.474 -1.68446 -6.70876 0
M  V30 4593 O 606.272 -0.684109 -6.08265 0
M  V30 4594 C 604.136 -1.17436 -7.18567 0
M  V30 4595 N 603.093 -1.52699 -6.23988 0
M  V30 4596 C 603.262 -2.578 -5.40574 0
M  V30 4597 N 602.235 -2.78966 -4.61193 0
M  V30 4598 C 601.35 -1.78725 -4.95769 0
M  V30 4599 C 600.083 -1.45727 -4.44207 0
M  V30 4600 N 599.518 -0.374977 -5.05812 0
M  V30 4601 C 600.12 0.345585 -6.05615 0
M  V30 4602 N 601.297 0.0787651 -6.56253 0
M  V30 4603 C 601.872 -1.00499 -5.96189 0
M  V30 4604 H 605.351 -2.53396 -6.02698 0
M  V30 4605 H 606.834 -2.93881 -7.85526 0
M  V30 4606 H 605.14 -2.52078 -9.87225 0
M  V30 4607 H 604.95 -4.75072 -9.05887 0
M  V30 4608 H 603.32 -4.05244 -8.76668 0
M  V30 4609 H 604.162 -3.18977 -5.3945 0
M  V30 4610 H 605.96 0.177619 -6.34151 0
M  V30 4611 P 607.817 -1.25109 -8.70152 0
M  V30 4612 O 609.239 -1.29744 -9.22016 0
M  V30 4613 O 607.457 -2.13714 -7.55141 0
M  V30 4614 O 607.494 0.248149 -8.21425 0
M  V30 4615 C 607.334 1.22779 -9.30434 0
M  V30 4616 C 607.874 2.56293 -8.80664 0
M  V30 4617 O 606.818 3.02979 -8.09349 0
M  V30 4618 C 609.092 2.57523 -7.89775 0
M  V30 4619 O 609.83 3.7668 -7.89438 0
M  V30 4620 C 608.423 2.20997 -6.55446 0
M  V30 4621 O 609.222 2.71895 -5.48509 0
M  V30 4622 C 607.086 2.89693 -6.67988 0
M  V30 4623 H 607.118 3.88793 -6.19859 0
M  V30 4624 H 608.301 1.12046 -6.44229 0
M  V30 4625 H 609.785 1.7746 -8.19711 0
M  V30 4626 H 608.091 3.20706 -9.67112 0
M  V30 4627 H 607.901 0.901032 -10.1892 0
M  V30 4628 H 606.271 1.33049 -9.56592 0
M  V30 4629 H 608.91 3.57847 -5.23962 0
M  V30 4630 P 610.768 3.65191 -7.99657 0
M  V30 4631 O 612.19 3.89332 -8.45794 0
M  V30 4632 O 610.408 2.28472 -7.50807 0
M  V30 4633 O 610.445 4.64972 -6.77611 0
M  V30 4634 C 610.285 6.06319 -7.16352 0
M  V30 4635 C 610.825 6.91731 -6.02299 0
M  V30 4636 O 609.769 6.92449 -5.17064 0
M  V30 4637 C 612.043 6.43627 -5.25174 0
M  V30 4638 O 612.781 7.43686 -4.60469 0
M  V30 4639 C 611.374 5.40275 -4.31916 0
M  V30 4640 O 612.173 5.25279 -3.14438 0
M  V30 4641 C 610.037 6.04847 -4.05327 0
M  V30 4642 H 610.069 6.62195 -3.11261 0
M  V30 4643 H 611.252 4.42556 -4.81383 0
M  V30 4644 H 612.736 5.92458 -5.93643 0
M  V30 4645 H 611.042 7.92655 -6.402 0
M  V30 4646 H 610.852 6.26671 -8.0846 0
M  V30 4647 H 609.222 6.29101 -7.32804 0
M  V30 4648 H 611.861 5.84315 -2.47318 0
M  V30 4649 P 613.719 7.39546 -4.75277 0
M  V30 4650 O 615.14 7.84882 -5.01092 0
M  V30 4651 O 613.359 5.9812 -5.08098 0
M  V30 4652 O 613.396 7.57503 -3.1866 0
M  V30 4653 C 613.235 8.97452 -2.74862 0
M  V30 4654 C 613.776 9.07548 -1.32709 0
M  V30 4655 O 612.721 8.61972 -0.606089 0
M  V30 4656 C 614.994 8.25383 -0.938334 0
M  V30 4657 O 615.732 8.74577 0.146954 0
M  V30 4658 C 614.326 6.8802 -0.712559 0
M  V30 4659 O 615.124 6.1181 0.188505 0
M  V30 4660 C 612.988 7.27966 -0.139777 0
M  V30 4661 N 611.945 6.39368 -0.623421 0
M  V30 4662 C 612.114 5.71761 -1.78245 0
M  V30 4663 N 611.087 4.962 -2.10491 0
M  V30 4664 C 610.202 5.16158 -1.0635 0
M  V30 4665 C 608.935 4.60425 -0.810266 0
M  V30 4666 N 608.37 5.06 0.348685 0
M  V30 4667 C 608.972 5.94532 1.20395 0
M  V30 4668 N 610.149 6.48452 1.01191 0
M  V30 4669 C 610.724 6.04423 -0.146291 0
M  V30 4670 H 614.203 6.32625 -1.65044 0
M  V30 4671 H 615.686 8.19355 -1.79097 0
M  V30 4672 H 613.992 10.1305 -1.09016 0
M  V30 4673 H 613.802 9.64276 -3.41316 0
M  V30 4674 H 612.172 9.25417 -2.76357 0
M  V30 4675 H 613.014 5.79354 -2.38959 0
M  V30 4676 H 614.812 6.25169 1.0783 0
M  V30 4677 P 616.669 8.791 4.14417e-12 0
M  V30 4678 O 618.09 9.31196 0.027936 0
M  V30 4679 O 616.309 7.77869 -1.04071 0
M  V30 4680 O 616.346 8.09533 1.41463 0
M  V30 4681 C 616.185 9.03587 2.5397 0
M  V30 4682 C 616.726 8.35226 3.79016 0
M  V30 4683 O 615.671 7.57904 4.1503 0
M  V30 4684 C 617.944 7.45087 3.67298 0
M  V30 4685 O 618.682 7.27796 4.85194 0
M  V30 4686 C 617.276 6.17323 3.12027 0
M  V30 4687 O 618.074 5.04496 3.46627 0
M  V30 4688 C 615.938 6.19961 3.81809 0
M  V30 4689 N 614.895 5.71575 2.93223 0
M  V30 4690 C 615.064 5.77362 1.59168 0
M  V30 4691 N 614.037 5.3123 0.911893 0
M  V30 4692 C 613.152 4.91717 1.89588 0
M  V30 4693 C 611.885 4.3114 1.8076 0
M  V30 4694 N 611.32 4.06823 3.02898 0
M  V30 4695 C 611.922 4.35062 4.22711 0
M  V30 4696 N 613.099 4.90805 4.35707 0
M  V30 4697 C 613.674 5.16382 3.14469 0
M  V30 4698 H 617.153 6.21428 2.0318 0
M  V30 4699 H 618.636 7.86112 2.9231 0
M  V30 4700 H 616.942 9.11171 4.55987 0
M  V30 4701 H 616.752 9.9573 2.34194 0
M  V30 4702 H 615.122 9.2792 2.67832 0
M  V30 4703 H 615.964 6.16575 1.12198 0
M  V30 4704 H 617.762 4.67628 4.28704 0
M  V30 4705 P 619.62 7.39546 4.75277 0
M  V30 4706 O 621.042 7.81777 5.05738 0
M  V30 4707 O 619.26 7.1065 3.32998 0
M  V30 4708 O 619.297 6.04542 5.56673 0
M  V30 4709 C 619.137 6.22772 7.02095 0
M  V30 4710 C 619.677 4.97725 7.70406 0
M  V30 4711 O 618.621 4.13256 7.58987 0
M  V30 4712 C 620.895 4.28231 7.11815 0
M  V30 4713 O 621.633 3.49945 8.01648 0
M  V30 4714 C 620.226 3.5063 5.96244 0
M  V30 4715 O 621.025 2.36482 5.64681 0
M  V30 4716 C 618.889 3.15122 6.56374 0
M  V30 4717 H 618.921 2.13853 6.99751 0
M  V30 4718 H 620.104 4.13501 5.06559 0
M  V30 4719 H 621.588 5.03285 6.70911 0
M  V30 4720 H 619.894 5.20877 8.75697 0
M  V30 4721 H 619.704 7.11046 7.35349 0
M  V30 4722 H 618.074 6.35815 7.26986 0
M  V30 4723 H 620.713 1.61644 6.13565 0
M  V30 4724 P 622.57 3.65191 7.99657 0
M  V30 4725 O 623.991 3.84292 8.48206 0
M  V30 4726 O 622.21 4.17805 6.64342 0
M  V30 4727 O 622.247 2.07613 7.95143 0
M  V30 4728 C 622.086 1.44344 9.27435 0
M  V30 4729 C 622.627 0.0220036 9.17197 0
M  V30 4730 O 621.572 -0.626794 8.61824 0
M  V30 4731 C 623.845 -0.24586 8.30336 0
M  V30 4732 O 624.583 -1.39011 8.63583 0
M  V30 4733 C 623.177 -0.273849 6.91158 0
M  V30 4734 O 623.975 -1.05728 6.029 0
M  V30 4735 C 621.839 -0.897649 7.22545 0
M  V30 4736 N 620.796 -0.292839 6.41732 0
M  V30 4737 C 620.965 0.950603 5.91308 0
M  V30 4738 N 619.938 1.37732 5.21105 0
M  V30 4739 C 619.053 0.318109 5.26039 0
M  V30 4740 C 617.786 0.146766 4.6727 0
M  V30 4741 N 617.221 -1.06525 4.95887 0
M  V30 4742 C 617.823 -2.0378 5.71347 0
M  V30 4743 N 619 -1.92445 6.27451 0
M  V30 4744 C 619.575 -0.715382 6.00353 0
M  V30 4745 H 623.054 0.733318 6.49674 0
M  V30 4746 H 624.537 0.60668 8.36503 0
M  V30 4747 H 622.843 -0.362662 10.1825 0
M  V30 4748 H 622.653 2.00611 10.0304 0
M  V30 4749 H 621.023 1.41843 9.55327 0
M  V30 4750 H 621.865 1.54076 6.07465 0
M  V30 4751 H 623.663 -1.95704 6.0346 0
M  V30 4752 P 625.521 -1.25109 8.70152 0
M  V30 4753 O 626.943 -1.35274 9.21221 0
M  V30 4754 O 625.161 -0.0769065 7.84762 0
M  V30 4755 O 625.198 -2.55232 7.81161 0
M  V30 4756 C 625.038 -3.79939 8.58154 0
M  V30 4757 C 625.578 -4.94023 7.72785 0
M  V30 4758 O 624.522 -5.18726 6.91205 0
M  V30 4759 C 626.796 -4.69597 6.85231 0
M  V30 4760 O 627.534 -5.83832 6.51337 0
M  V30 4761 C 626.127 -3.96706 5.66633 0
M  V30 4762 O 626.926 -4.15414 4.49689 0
M  V30 4763 C 624.79 -4.66153 5.59313 0
M  V30 4764 H 624.822 -5.47679 4.85214 0
M  V30 4765 H 626.005 -2.89008 5.86566 0
M  V30 4766 H 627.489 -4.0121 7.36511 0
M  V30 4767 H 625.795 -5.80182 8.37584 0
M  V30 4768 H 625.605 -3.73517 9.52265 0
M  V30 4769 H 623.975 -3.97163 8.80359 0
M  V30 4770 H 626.614 -4.90969 4.01921 0
M  V30 4771 P 628.471 -5.75688 6.64379 0
M  V30 4772 O 629.893 -6.11849 7.01846 0
M  V30 4773 O 628.111 -4.30744 6.56026 0
M  V30 4774 O 628.148 -6.37042 5.19165 0
M  V30 4775 C 627.988 -7.83578 5.16515 0
M  V30 4776 C 628.528 -8.33398 3.83019 0
M  V30 4777 O 627.472 -8.10074 3.01034 0
M  V30 4778 C 629.746 -7.65514 3.2257 0
M  V30 4779 O 630.484 -8.4329 2.32297 0
M  V30 4780 C 629.077 -6.40075 2.62207 0
M  V30 4781 O 629.876 -5.92589 1.53712 0
M  V30 4782 C 627.74 -6.9454 2.18503 0
M  V30 4783 H 627.772 -7.23063 1.12091 0
M  V30 4784 H 628.955 -5.6025 3.37201 0
M  V30 4785 H 630.439 -7.35707 4.02681 0
M  V30 4786 H 628.745 -9.40912 3.9095 0
M  V30 4787 H 628.555 -8.29056 5.99158 0
M  V30 4788 H 626.925 -8.10073 5.25882 0
M  V30 4789 H 629.564 -6.30324 0.726794 0
M  V30 4790 P 631.422 -8.4349 2.47671 0
M  V30 4791 O 632.823 -8.98227 2.65696 0
M  V30 4792 O 631.044 -7.20409 3.23964 0
M  V30 4793 O 631.099 -8.16496 0.923275 0
M  V30 4794 C 630.939 -9.38437 0.108857 0
M  V30 4795 C 631.479 -9.08076 -1.28339 0
M  V30 4796 O 630.423 -8.44131 -1.84692 0
M  V30 4797 C 632.696 -8.18386 -1.42505 0
M  V30 4798 O 633.435 -8.3501 -2.60497 0
M  V30 4799 C 632.029 -6.80225 -1.25468 0
M  V30 4800 O 632.827 -5.81526 -1.91035 0
M  V30 4801 C 630.691 -7.02416 -1.9168 0
M  V30 4802 N 629.648 -6.31033 -1.20314 0
M  V30 4803 C 628.613 -5.77149 -1.928 0
M  V30 4804 O 628.652 -5.8521 -3.17729 0
M  V30 4805 N 627.601 -5.15445 -1.27997 0
M  V30 4806 C 627.649 -5.04472 0.0534726 0
M  V30 4807 C 628.745 -5.55244 0.808522 0
M  V30 4808 C 629.711 -6.18542 0.13981 0
M  V30 4809 H 630.723 -6.68789 -2.9658 0
M  V30 4810 H 631.906 -6.53498 -0.198729 0
M  V30 4811 H 633.39 -8.36663 -0.5984 0
M  V30 4812 H 631.696 -10.0273 -1.8081 0
M  V30 4813 H 631.505 -10.2138 0.558219 0
M  V30 4814 H 629.875 -9.6569 0.0444156 0
M  V30 4815 H 628.793 -5.43017 1.88792 0
M  V30 4816 H 630.557 -6.60539 0.686773 0
M  V30 4817 H 632.611 -5.79638 -2.8315 0
M  V30 4818 P 634.373 -8.4349 -2.47671 0
M  V30 4819 O 635.795 -8.92593 -2.65 0
M  V30 4820 O 634.013 -7.7568 -1.19296 0
M  V30 4821 O 634.05 -7.36886 -3.63805 0
M  V30 4822 C 633.89 -7.95349 -4.982 0
M  V30 4823 C 634.43 -6.94612 -5.98974 0
M  V30 4824 O 633.374 -6.10347 -6.11815 0
M  V30 4825 C 635.648 -6.11426 -5.62335 0
M  V30 4826 O 636.386 -5.6162 -6.70584 0
M  V30 4827 C 634.979 -5.04409 -4.73308 0
M  V30 4828 O 635.778 -3.85992 -4.75183 0
M  V30 4829 C 633.642 -4.8728 -5.41006 0
M  V30 4830 H 633.674 -4.02333 -6.11157 0
M  V30 4831 H 634.857 -5.39466 -3.69543 0
M  V30 4832 H 636.341 -6.71916 -5.01943 0
M  V30 4833 H 634.647 -7.4649 -6.93477 0
M  V30 4834 H 634.457 -8.89416 -5.05237 0
M  V30 4835 H 632.827 -8.14876 -5.18409 0
M  V30 4836 H 635.466 -3.27957 -5.4317 0
M  V30 4837 P 637.323 -5.75688 -6.64379 0
M  V30 4838 O 638.745 -6.07627 -7.05504 0
M  V30 4839 O 636.963 -5.88047 -5.19722 0
M  V30 4840 O 637 -4.2322 -7.04443 0
M  V30 4841 C 636.84 -3.99743 -8.4911 0
M  V30 4842 C 637.38 -2.60516 -8.79425 0
M  V30 4843 O 636.324 -1.82684 -8.4467 0
M  V30 4844 C 638.598 -2.10343 -8.03628 0
M  V30 4845 O 639.336 -1.09919 -8.67766 0
M  V30 4846 C 637.929 -1.68446 -6.70876 0
M  V30 4847 O 638.728 -0.678137 -6.08433 0
M  V30 4848 C 636.592 -1.17436 -7.18567 0
M  V30 4849 H 636.624 -0.0804732 -7.31656 0
M  V30 4850 H 637.807 -2.54037 -6.02537 0
M  V30 4851 H 639.291 -2.93881 -7.85526 0
M  V30 4852 H 637.597 -2.53065 -9.86973 0
M  V30 4853 H 637.407 -4.75072 -9.05887 0
M  V30 4854 H 635.777 -4.05244 -8.76668 0
M  V30 4855 H 638.416 0.177647 -6.34251 0
M  V30 4856 P 640.274 -1.25109 -8.70152 0
M  V30 4857 O 641.696 -1.29744 -9.22016 0
M  V30 4858 O 639.914 -2.13714 -7.55141 0
M  V30 4859 O 639.951 0.248149 -8.21425 0
M  V30 4860 C 639.791 1.22779 -9.30434 0
M  V30 4861 C 640.331 2.56293 -8.80664 0
M  V30 4862 O 639.275 3.02979 -8.09349 0
M  V30 4863 C 641.549 2.57523 -7.89775 0
M  V30 4864 O 642.287 3.7668 -7.89438 0
M  V30 4865 C 640.88 2.20997 -6.55446 0
M  V30 4866 O 641.679 2.71895 -5.48509 0
M  V30 4867 C 639.543 2.89693 -6.67988 0
M  V30 4868 H 639.575 3.88793 -6.19859 0
M  V30 4869 H 640.758 1.12046 -6.44229 0
M  V30 4870 H 642.242 1.7746 -8.19711 0
M  V30 4871 H 640.548 3.20706 -9.67112 0
M  V30 4872 H 640.358 0.901032 -10.1892 0
M  V30 4873 H 638.728 1.33049 -9.56592 0
M  V30 4874 H 641.367 3.57847 -5.23962 0
M  V30 4875 P 643.224 3.65191 -7.99657 0
M  V30 4876 O 644.646 3.89332 -8.45794 0
M  V30 4877 O 642.864 2.28472 -7.50807 0
M  V30 4878 O 642.901 4.64972 -6.77611 0
M  V30 4879 C 642.741 6.06319 -7.16352 0
M  V30 4880 C 643.281 6.91731 -6.02299 0
M  V30 4881 O 642.225 6.92449 -5.17064 0
M  V30 4882 C 644.499 6.43627 -5.25174 0
M  V30 4883 O 645.237 7.43686 -4.60469 0
M  V30 4884 C 643.83 5.40275 -4.31916 0
M  V30 4885 O 644.629 5.25279 -3.14438 0
M  V30 4886 C 642.493 6.04847 -4.05327 0
M  V30 4887 H 642.525 6.62195 -3.11261 0
M  V30 4888 H 643.708 4.42556 -4.81383 0
M  V30 4889 H 645.192 5.92458 -5.93643 0
M  V30 4890 H 643.498 7.92655 -6.402 0
M  V30 4891 H 643.308 6.26671 -8.0846 0
M  V30 4892 H 641.678 6.29101 -7.32804 0
M  V30 4893 H 644.317 5.84315 -2.47318 0
M  V30 4894 P 646.175 7.39546 -4.75277 0
M  V30 4895 O 647.596 7.84882 -5.01092 0
M  V30 4896 O 645.815 5.9812 -5.08098 0
M  V30 4897 O 645.852 7.57503 -3.1866 0
M  V30 4898 C 645.691 8.97452 -2.74862 0
M  V30 4899 C 646.232 9.07548 -1.32709 0
M  V30 4900 O 645.177 8.61972 -0.606089 0
M  V30 4901 C 647.45 8.25383 -0.938334 0
M  V30 4902 O 648.188 8.74577 0.146954 0
M  V30 4903 C 646.782 6.8802 -0.712559 0
M  V30 4904 O 647.58 6.1181 0.188505 0
M  V30 4905 C 645.444 7.27966 -0.139777 0
M  V30 4906 N 644.401 6.39368 -0.623421 0
M  V30 4907 C 644.57 5.71761 -1.78245 0
M  V30 4908 N 643.543 4.962 -2.10491 0
M  V30 4909 C 642.658 5.16158 -1.0635 0
M  V30 4910 C 641.391 4.60425 -0.810266 0
M  V30 4911 N 640.826 5.06 0.348685 0
M  V30 4912 C 641.428 5.94532 1.20395 0
M  V30 4913 N 642.605 6.48452 1.01191 0
M  V30 4914 C 643.18 6.04423 -0.146291 0
M  V30 4915 H 646.659 6.32625 -1.65044 0
M  V30 4916 H 648.142 8.19355 -1.79097 0
M  V30 4917 H 646.448 10.1305 -1.09016 0
M  V30 4918 H 646.258 9.64276 -3.41316 0
M  V30 4919 H 644.628 9.25417 -2.76357 0
M  V30 4920 H 645.47 5.79354 -2.38959 0
M  V30 4921 H 647.268 6.25169 1.0783 0
M  V30 4922 P 649.125 8.791 4.45433e-12 0
M  V30 4923 O 650.546 9.31196 0.027936 0
M  V30 4924 O 648.765 7.77869 -1.04071 0
M  V30 4925 O 648.802 8.09533 1.41463 0
M  V30 4926 C 648.641 9.03587 2.5397 0
M  V30 4927 C 649.182 8.35226 3.79016 0
M  V30 4928 O 648.127 7.57904 4.1503 0
M  V30 4929 C 650.4 7.45087 3.67298 0
M  V30 4930 O 651.138 7.27796 4.85194 0
M  V30 4931 C 649.732 6.17323 3.12027 0
M  V30 4932 O 650.53 5.04496 3.46627 0
M  V30 4933 C 648.394 6.19961 3.81809 0
M  V30 4934 N 647.351 5.71575 2.93223 0
M  V30 4935 C 647.52 5.77362 1.59168 0
M  V30 4936 N 646.493 5.3123 0.911893 0
M  V30 4937 C 645.608 4.91717 1.89588 0
M  V30 4938 C 644.341 4.3114 1.8076 0
M  V30 4939 N 643.742 3.99821 0.632928 0
M  V30 4940 N 643.776 4.06823 3.02898 0
M  V30 4941 C 644.378 4.35062 4.22711 0
M  V30 4942 N 645.555 4.90805 4.35707 0
M  V30 4943 C 646.13 5.16382 3.14469 0
M  V30 4944 H 648.426 5.58142 4.72986 0
M  V30 4945 H 649.609 6.21428 2.0318 0
M  V30 4946 H 651.092 7.86112 2.9231 0
M  V30 4947 H 649.398 9.11171 4.55987 0
M  V30 4948 H 649.208 9.9573 2.34194 0
M  V30 4949 H 647.578 9.2792 2.67832 0
M  V30 4950 H 643.842 4.09052 5.13359 0
M  V30 4951 H 648.42 6.16575 1.12198 0
M  V30 4952 H 642.812 3.55423 0.632085 0
M  V30 4953 H 644.216 4.20317 -0.256712 0
M  V30 4954 H 650.218 4.67628 4.28704 0
M  V30 4955 P 652.076 7.39546 4.75277 0
M  V30 4956 O 653.498 7.81945 5.05847 0
M  V30 4957 O 651.716 7.1065 3.32998 0
M  V30 4958 O 651.753 6.04542 5.56673 0
M  V30 4959 C 651.593 6.22772 7.02095 0
M  V30 4960 C 652.133 4.97671 7.70322 0
M  V30 4961 O 651.078 4.13256 7.58987 0
M  V30 4962 C 653.351 4.28231 7.11815 0
M  V30 4963 O 654.089 3.49945 8.01648 0
M  V30 4964 C 652.683 3.5063 5.96244 0
M  V30 4965 O 653.481 2.36443 5.64589 0
M  V30 4966 C 651.345 3.15122 6.56374 0
M  V30 4967 N 650.302 3.22311 5.55692 0
M  V30 4968 C 650.364 4.14382 4.59701 0
M  V30 4969 N 649.319 4.04476 3.76958 0
M  V30 4970 C 648.585 3.04892 4.26534 0
M  V30 4971 C 647.279 2.57447 3.88189 0
M  V30 4972 O 646.546 2.9785 2.96543 0
M  V30 4973 N 646.849 1.55228 4.65922 0
M  V30 4974 C 647.598 1.01152 5.73447 0
M  V30 4975 N 647.001 -0.0472117 6.37783 0
M  V30 4976 N 648.751 1.467 6.13813 0
M  V30 4977 C 649.208 2.4931 5.38487 0
M  V30 4978 H 651.377 2.13853 6.99751 0
M  V30 4979 H 652.56 4.13438 5.06482 0
M  V30 4980 H 654.045 5.02614 6.71414 0
M  V30 4981 H 652.35 5.20877 8.75697 0
M  V30 4982 H 652.16 7.11046 7.35349 0
M  V30 4983 H 650.529 6.35815 7.26986 0
M  V30 4984 H 645.953 1.15238 4.46468 0
M  V30 4985 H 651.16 4.88312 4.49647 0
M  V30 4986 H 646.09 -0.396382 6.05203 0
M  V30 4987 H 647.466 -0.484997 7.18465 0
M  V30 4988 H 653.17 1.61619 6.13468 0
M  V30 4989 P 655.027 3.65191 7.99657 0
M  V30 4990 O 656.449 3.8425 8.48115 0
M  V30 4991 O 654.667 4.17805 6.64342 0
M  V30 4992 O 654.704 2.07613 7.95143 0
M  V30 4993 C 654.544 1.44328 9.27336 0
M  V30 4994 C 655.084 0.0220036 9.17197 0
M  V30 4995 O 654.028 -0.626867 8.61923 0
M  V30 4996 C 656.302 -0.24586 8.30336 0
M  V30 4997 O 657.04 -1.39011 8.63583 0
M  V30 4998 C 655.633 -0.273849 6.91158 0
M  V30 4999 O 656.432 -1.06348 6.02892 0
M  V30 5000 C 654.296 -0.897649 7.22545 0
M  V30 5001 H 654.328 -1.9841 7.04286 0
M  V30 5002 H 655.511 0.739928 6.497 0
M  V30 5003 H 656.995 0.60668 8.36503 0
M  V30 5004 H 655.301 -0.352479 10.1829 0
M  V30 5005 H 655.111 2.00611 10.0304 0
M  V30 5006 H 653.481 1.41843 9.55327 0
M  V30 5007 H 656.12 -1.95734 6.03555 0
M  V30 5008 P 657.977 -1.25109 8.70152 0
M  V30 5009 O 659.398 -1.35288 9.2132 0
M  V30 5010 O 657.617 -0.0769065 7.84762 0
M  V30 5011 O 657.654 -2.55232 7.81161 0
M  V30 5012 C 657.493 -3.79979 8.58246 0
M  V30 5013 C 658.034 -4.94023 7.72785 0
M  V30 5014 O 656.979 -5.18666 6.91125 0
M  V30 5015 C 659.252 -4.69597 6.85231 0
M  V30 5016 O 659.99 -5.83832 6.51337 0
M  V30 5017 C 658.584 -3.96706 5.66633 0
M  V30 5018 O 659.382 -4.14896 4.5003 0
M  V30 5019 C 657.246 -4.66153 5.59313 0
M  V30 5020 N 656.203 -3.71582 5.24027 0
M  V30 5021 C 656.372 -2.39715 5.48833 0
M  V30 5022 N 655.345 -1.65863 5.12845 0
M  V30 5023 C 654.46 -2.57637 4.5973 0
M  V30 5024 C 653.193 -2.40278 4.01027 0
M  V30 5025 N 652.628 -3.57711 3.59575 0
M  V30 5026 C 653.23 -4.80324 3.70476 0
M  V30 5027 N 654.407 -5.01121 4.23801 0
M  V30 5028 C 654.982 -3.84757 4.66372 0
M  V30 5029 H 658.461 -2.8955 5.86187 0
M  V30 5030 H 659.944 -4.0121 7.36511 0
M  V30 5031 H 658.25 -5.81019 8.37003 0
M  V30 5032 H 658.06 -3.73517 9.52265 0
M  V30 5033 H 656.43 -3.97163 8.80359 0
M  V30 5034 H 657.272 -1.98804 5.94332 0
M  V30 5035 H 659.07 -4.90891 4.01857 0
M  V30 5036 P 660.928 -5.75688 6.64379 0
M  V30 5037 O 662.35 -6.11849 7.01846 0
M  V30 5038 O 660.568 -4.30744 6.56026 0
M  V30 5039 O 660.605 -6.37042 5.19165 0
M  V30 5040 C 660.445 -7.83578 5.16515 0
M  V30 5041 C 660.985 -8.33398 3.83019 0
M  V30 5042 O 659.929 -8.10074 3.01034 0
M  V30 5043 C 662.203 -7.65514 3.2257 0
M  V30 5044 O 662.941 -8.4329 2.32297 0
M  V30 5045 C 661.534 -6.40075 2.62207 0
M  V30 5046 O 662.333 -5.92589 1.53712 0
M  V30 5047 C 660.197 -6.9454 2.18503 0
M  V30 5048 H 660.229 -7.23063 1.12091 0
M  V30 5049 H 661.412 -5.6025 3.37201 0
M  V30 5050 H 662.896 -7.35707 4.02681 0
M  V30 5051 H 661.202 -9.40912 3.9095 0
M  V30 5052 H 661.012 -8.29056 5.99158 0
M  V30 5053 H 659.382 -8.10073 5.25882 0
M  V30 5054 H 662.021 -6.30324 0.726794 0
M  V30 5055 P 663.878 -8.4349 2.47671 0
M  V30 5056 O 665.3 -8.94167 2.5964 0
M  V30 5057 O 663.518 -7.1704 3.19006 0
M  V30 5058 O 663.555 -8.16596 0.923387 0
M  V30 5059 C 663.395 -9.38437 0.108857 0
M  V30 5060 C 663.935 -9.08175 -1.28353 0
M  V30 5061 O 662.879 -8.44229 -1.84713 0
M  V30 5062 C 665.153 -8.18386 -1.42505 0
M  V30 5063 O 665.891 -8.3501 -2.60497 0
M  V30 5064 C 664.484 -6.80225 -1.25468 0
M  V30 5065 O 665.283 -5.81621 -1.91066 0
M  V30 5066 C 663.147 -7.02416 -1.9168 0
M  V30 5067 H 663.179 -6.6888 -2.96621 0
M  V30 5068 H 664.362 -6.53617 -0.192223 0
M  V30 5069 H 665.846 -8.36622 -0.589963 0
M  V30 5070 H 664.152 -10.0291 -1.79807 0
M  V30 5071 H 663.962 -10.2138 0.558219 0
M  V30 5072 H 662.332 -9.6579 0.0444202 0
M  V30 5073 H 664.971 -5.69556 -2.79637 0
M  V30 5074 P 666.829 -8.4349 -2.47671 0
M  V30 5075 O 668.251 -8.92593 -2.65 0
M  V30 5076 O 666.469 -7.7568 -1.19296 0
M  V30 5077 O 666.506 -7.36886 -3.63805 0
M  V30 5078 C 666.346 -7.95349 -4.982 0
M  V30 5079 C 666.886 -6.94612 -5.98974 0
M  V30 5080 O 665.83 -6.10347 -6.11815 0
M  V30 5081 C 668.104 -6.11426 -5.62335 0
M  V30 5082 O 668.842 -5.6162 -6.70584 0
M  V30 5083 C 667.435 -5.04409 -4.73308 0
M  V30 5084 O 668.234 -3.85992 -4.75183 0
M  V30 5085 C 666.098 -4.8728 -5.41006 0
M  V30 5086 H 666.13 -4.02333 -6.11157 0
M  V30 5087 H 667.313 -5.39466 -3.69543 0
M  V30 5088 H 668.797 -6.71916 -5.01943 0
M  V30 5089 H 667.103 -7.4649 -6.93477 0
M  V30 5090 H 666.913 -8.89416 -5.05237 0
M  V30 5091 H 665.283 -8.14876 -5.18409 0
M  V30 5092 H 667.922 -3.27957 -5.4317 0
M  V30 5093 P 669.779 -5.75688 -6.64379 0
M  V30 5094 O 671.2 -6.07692 -7.0558 0
M  V30 5095 O 669.419 -5.88047 -5.19722 0
M  V30 5096 O 669.456 -4.2322 -7.04443 0
M  V30 5097 C 669.295 -3.99785 -8.49201 0
M  V30 5098 C 669.836 -2.60516 -8.79425 0
M  V30 5099 O 668.781 -1.82663 -8.44573 0
M  V30 5100 C 671.054 -2.10343 -8.03628 0
M  V30 5101 O 671.792 -1.09919 -8.67766 0
M  V30 5102 C 670.386 -1.68446 -6.70876 0
M  V30 5103 O 671.184 -0.684109 -6.08265 0
M  V30 5104 C 669.048 -1.17436 -7.18567 0
M  V30 5105 N 668.005 -1.52699 -6.23988 0
M  V30 5106 C 668.174 -2.578 -5.40574 0
M  V30 5107 N 667.147 -2.78966 -4.61193 0
M  V30 5108 C 666.262 -1.78725 -4.95769 0
M  V30 5109 C 664.995 -1.45727 -4.44207 0
M  V30 5110 N 664.396 -2.13994 -3.43613 0
M  V30 5111 N 664.43 -0.374977 -5.05812 0
M  V30 5112 C 665.032 0.345585 -6.05615 0
M  V30 5113 N 666.209 0.0787651 -6.56253 0
M  V30 5114 C 666.784 -1.00499 -5.96189 0
M  V30 5115 H 669.08 -0.0804622 -7.31556 0
M  V30 5116 H 670.263 -2.53396 -6.02698 0
M  V30 5117 H 671.746 -2.93881 -7.85526 0
M  V30 5118 H 670.052 -2.52078 -9.87225 0
M  V30 5119 H 669.862 -4.75072 -9.05887 0
M  V30 5120 H 668.232 -4.05244 -8.76668 0
M  V30 5121 H 664.496 1.20098 -6.4532 0
M  V30 5122 H 669.074 -3.18977 -5.3945 0
M  V30 5123 H 663.466 -1.84983 -3.10004 0
M  V30 5124 H 664.87 -2.9465 -3.00843 0
M  V30 5125 H 670.872 0.177619 -6.34151 0
M  V30 5126 P 672.73 -1.25109 -8.70152 0
M  V30 5127 O 674.151 -1.29758 -9.22115 0
M  V30 5128 O 672.37 -2.13714 -7.55141 0
M  V30 5129 O 672.407 0.248149 -8.21425 0
M  V30 5130 C 672.246 1.22792 -9.30533 0
M  V30 5131 C 672.787 2.56293 -8.80664 0
M  V30 5132 O 671.732 3.02944 -8.09255 0
M  V30 5133 C 674.005 2.57523 -7.89775 0
M  V30 5134 O 674.743 3.7668 -7.89438 0
M  V30 5135 C 673.337 2.20997 -6.55446 0
M  V30 5136 O 674.135 2.71302 -5.48691 0
M  V30 5137 C 671.999 2.89693 -6.67988 0
M  V30 5138 N 670.956 2.08895 -6.07487 0
M  V30 5139 C 671.125 0.753809 -5.94137 0
M  V30 5140 N 670.098 0.146592 -5.38801 0
M  V30 5141 C 669.213 1.1768 -5.13693 0
M  V30 5142 C 667.946 1.17563 -4.52477 0
M  V30 5143 N 667.347 0.057481 -4.04759 0
M  V30 5144 N 667.381 2.41918 -4.45789 0
M  V30 5145 C 667.983 3.56493 -4.90792 0
M  V30 5146 N 669.16 3.61423 -5.47817 0
M  V30 5147 C 669.735 2.37779 -5.5588 0
M  V30 5148 H 672.031 3.8874 -6.19774 0
M  V30 5149 H 673.214 1.12673 -6.44018 0
M  V30 5150 H 674.697 1.7746 -8.19711 0
M  V30 5151 H 673.003 3.21673 -9.66791 0
M  V30 5152 H 672.813 0.901032 -10.1892 0
M  V30 5153 H 671.183 1.33049 -9.56592 0
M  V30 5154 H 667.447 4.49919 -4.77947 0
M  V30 5155 H 672.025 0.233081 -6.26266 0
M  V30 5156 H 666.417 0.119831 -3.60801 0
M  V30 5157 H 667.821 -0.852272 -4.12385 0
M  V30 5158 H 673.823 3.5779 -5.23879 0
M  V30 5159 P 675.681 3.65191 -7.99657 0
M  V30 5160 O 677.103 3.89332 -8.45794 0
M  V30 5161 O 675.321 2.28472 -7.50807 0
M  V30 5162 O 675.358 4.64972 -6.77611 0
M  V30 5163 C 675.198 6.06319 -7.16352 0
M  V30 5164 C 675.738 6.91731 -6.02299 0
M  V30 5165 O 674.682 6.92449 -5.17064 0
M  V30 5166 C 676.956 6.43627 -5.25174 0
M  V30 5167 O 677.694 7.43686 -4.60469 0
M  V30 5168 C 676.287 5.40275 -4.31916 0
M  V30 5169 O 677.086 5.25279 -3.14438 0
M  V30 5170 C 674.95 6.04847 -4.05327 0
M  V30 5171 H 674.982 6.62195 -3.11261 0
M  V30 5172 H 676.165 4.42556 -4.81383 0
M  V30 5173 H 677.649 5.92458 -5.93643 0
M  V30 5174 H 675.955 7.92655 -6.402 0
M  V30 5175 H 675.765 6.26671 -8.0846 0
M  V30 5176 H 674.135 6.29101 -7.32804 0
M  V30 5177 H 676.774 5.84315 -2.47318 0
M  V30 5178 P 678.631 7.39546 -4.75277 0
M  V30 5179 O 680.053 7.84798 -5.01039 0
M  V30 5180 O 678.271 5.9812 -5.08098 0
M  V30 5181 O 678.308 7.57503 -3.1866 0
M  V30 5182 C 678.148 8.97357 -2.74833 0
M  V30 5183 C 678.688 9.07548 -1.32709 0
M  V30 5184 O 677.632 8.62072 -0.606159 0
M  V30 5185 C 679.906 8.25383 -0.938334 0
M  V30 5186 O 680.644 8.74577 0.146954 0
M  V30 5187 C 679.237 6.8802 -0.712559 0
M  V30 5188 O 680.036 6.1189 0.194655 0
M  V30 5189 C 677.9 7.27966 -0.139777 0
M  V30 5190 H 677.932 7.25354 0.961601 0
M  V30 5191 H 679.115 6.32557 -1.65702 0
M  V30 5192 H 680.599 8.19355 -1.79097 0
M  V30 5193 H 678.905 10.1294 -1.10029 0
M  V30 5194 H 678.715 9.64276 -3.41316 0
M  V30 5195 H 677.085 9.25417 -2.76357 0
M  V30 5196 H 679.724 6.25267 1.07847 0
M  V30 5197 P 681.582 8.791 4.7645e-12 0
M  V30 5198 O 683.004 9.31096 0.027933 0
M  V30 5199 O 681.222 7.77869 -1.04071 0
M  V30 5200 O 681.259 8.09533 1.41463 0
M  V30 5201 C 681.099 9.0349 2.53943 0
M  V30 5202 C 681.639 8.35226 3.79016 0
M  V30 5203 O 680.583 7.57992 4.15078 0
M  V30 5204 C 682.857 7.45087 3.67298 0
M  V30 5205 O 683.595 7.27796 4.85194 0
M  V30 5206 C 682.188 6.17323 3.12027 0
M  V30 5207 O 682.987 5.04231 3.47188 0
M  V30 5208 C 680.851 6.19961 3.81809 0
M  V30 5209 H 680.883 5.58218 4.73051 0
M  V30 5210 H 682.066 6.21726 2.02589 0
M  V30 5211 H 683.55 7.86112 2.9231 0
M  V30 5212 H 681.856 9.11627 4.55076 0
M  V30 5213 H 681.666 9.9573 2.34194 0
M  V30 5214 H 680.036 9.2792 2.67832 0
M  V30 5215 H 682.675 4.67702 4.28772 0
M  V30 5216 P 684.532 7.39546 4.75277 0
M  V30 5217 O 685.954 7.81777 5.05738 0
M  V30 5218 O 684.172 7.1065 3.32998 0
M  V30 5219 O 684.209 6.04542 5.56673 0
M  V30 5220 C 684.049 6.22772 7.02095 0
M  V30 5221 C 684.589 4.97725 7.70406 0
M  V30 5222 O 683.533 4.13256 7.58987 0
M  V30 5223 C 685.807 4.28231 7.11815 0
M  V30 5224 O 686.545 3.49945 8.01648 0
M  V30 5225 C 685.138 3.5063 5.96244 0
M  V30 5226 O 685.937 2.36482 5.64681 0
M  V30 5227 C 683.801 3.15122 6.56374 0
M  V30 5228 H 683.833 2.13853 6.99751 0
M  V30 5229 H 685.016 4.13501 5.06559 0
M  V30 5230 H 686.5 5.03285 6.70911 0
M  V30 5231 H 684.806 5.20877 8.75697 0
M  V30 5232 H 684.616 7.11046 7.35349 0
M  V30 5233 H 682.986 6.35815 7.26986 0
M  V30 5234 H 685.625 1.61644 6.13565 0
M  V30 5235 P 687.483 3.65191 7.99657 0
M  V30 5236 O 688.905 3.8425 8.48115 0
M  V30 5237 O 687.123 4.17805 6.64342 0
M  V30 5238 O 687.16 2.07613 7.95143 0
M  V30 5239 C 687 1.44328 9.27336 0
M  V30 5240 C 687.54 0.0220036 9.17197 0
M  V30 5241 O 686.484 -0.626867 8.61923 0
M  V30 5242 C 688.758 -0.24586 8.30336 0
M  V30 5243 O 689.496 -1.39011 8.63583 0
M  V30 5244 C 688.089 -0.273849 6.91158 0
M  V30 5245 O 688.888 -1.06348 6.02892 0
M  V30 5246 C 686.752 -0.897649 7.22545 0
M  V30 5247 H 686.784 -1.9841 7.04286 0
M  V30 5248 H 687.967 0.739928 6.497 0
M  V30 5249 H 689.451 0.60668 8.36503 0
M  V30 5250 H 687.757 -0.352479 10.1829 0
M  V30 5251 H 687.567 2.00611 10.0304 0
M  V30 5252 H 685.937 1.41843 9.55327 0
M  V30 5253 H 688.576 -1.95734 6.03555 0
M  V30 5254 P 690.433 -1.25109 8.70152 0
M  V30 5255 O 691.854 -1.35288 9.2132 0
M  V30 5256 O 690.073 -0.0769065 7.84762 0
M  V30 5257 O 690.11 -2.55232 7.81161 0
M  V30 5258 C 689.949 -3.79979 8.58246 0
M  V30 5259 C 690.49 -4.94023 7.72785 0
M  V30 5260 O 689.435 -5.18666 6.91125 0
M  V30 5261 C 691.708 -4.69597 6.85231 0
M  V30 5262 O 692.446 -5.83832 6.51337 0
M  V30 5263 C 691.04 -3.96706 5.66633 0
M  V30 5264 O 691.838 -4.14896 4.5003 0
M  V30 5265 C 689.702 -4.66153 5.59313 0
M  V30 5266 N 688.659 -3.71582 5.24027 0
M  V30 5267 C 688.828 -2.39715 5.48833 0
M  V30 5268 N 687.801 -1.65863 5.12845 0
M  V30 5269 C 686.916 -2.57637 4.5973 0
M  V30 5270 C 685.649 -2.40278 4.01027 0
M  V30 5271 N 685.05 -1.19549 3.86744 0
M  V30 5272 N 685.084 -3.57711 3.59575 0
M  V30 5273 C 685.686 -4.80324 3.70476 0
M  V30 5274 N 686.863 -5.01121 4.23801 0
M  V30 5275 C 687.438 -3.84757 4.66372 0
M  V30 5276 H 689.734 -5.47604 4.85148 0
M  V30 5277 H 690.917 -2.8955 5.86187 0
M  V30 5278 H 692.4 -4.0121 7.36511 0
M  V30 5279 H 690.706 -5.81019 8.37003 0
M  V30 5280 H 690.516 -3.73517 9.52265 0
M  V30 5281 H 688.886 -3.97163 8.80359 0
M  V30 5282 H 685.15 -5.66348 3.3183 0
M  V30 5283 H 689.728 -1.98804 5.94332 0
M  V30 5284 H 684.12 -1.13147 3.4281 0
M  V30 5285 H 685.524 -0.344074 4.19692 0
M  V30 5286 H 691.526 -4.90891 4.01857 0
M  V30 5287 P 693.384 -5.75688 6.64379 0
M  V30 5288 O 694.785 -6.11991 7.09136 0
M  V30 5289 O 693.006 -4.30899 6.62018 0
M  V30 5290 O 693.061 -6.36965 5.19102 0
M  V30 5291 C 692.901 -7.83578 5.16515 0
M  V30 5292 C 693.441 -8.33307 3.82977 0
M  V30 5293 O 692.385 -8.0998 3.00999 0
M  V30 5294 C 694.658 -7.65514 3.2257 0
M  V30 5295 O 695.397 -8.4329 2.32297 0
M  V30 5296 C 693.991 -6.40075 2.62207 0
M  V30 5297 O 694.789 -5.92492 1.53687 0
M  V30 5298 C 692.653 -6.9454 2.18503 0
M  V30 5299 N 691.61 -5.95905 2.39948 0
M  V30 5300 C 690.575 -5.89764 1.49837 0
M  V30 5301 O 690.614 -6.64088 0.490975 0
M  V30 5302 N 689.563 -5.02821 1.70992 0
M  V30 5303 C 689.611 -4.21498 2.77236 0
M  V30 5304 C 690.707 -4.23389 3.68205 0
M  V30 5305 C 691.673 -5.12792 3.46171 0
M  V30 5306 H 692.685 -7.22964 1.12076 0
M  V30 5307 H 693.868 -5.60502 3.36589 0
M  V30 5308 H 695.352 -7.36197 4.01993 0
M  V30 5309 H 693.658 -9.41302 3.90009 0
M  V30 5310 H 693.467 -8.29056 5.99158 0
M  V30 5311 H 691.837 -8.09989 5.25828 0
M  V30 5312 H 690.755 -3.54747 4.52399 0
M  V30 5313 H 692.519 -5.18551 4.1489 0
M  V30 5314 H 694.573 -6.40705 0.751752 0
M  V30 5315 P 696.335 -8.4349 2.47671 0
M  V30 5316 O 697.757 -8.94167 2.5964 0
M  V30 5317 O 695.975 -7.1704 3.19006 0
M  V30 5318 O 696.012 -8.16596 0.923387 0
M  V30 5319 C 695.852 -9.38437 0.108857 0
M  V30 5320 C 696.392 -9.08175 -1.28353 0
M  V30 5321 O 695.336 -8.44229 -1.84713 0
M  V30 5322 C 697.61 -8.18386 -1.42505 0
M  V30 5323 O 698.348 -8.3501 -2.60497 0
M  V30 5324 C 696.941 -6.80225 -1.25468 0
M  V30 5325 O 697.74 -5.81621 -1.91066 0
M  V30 5326 C 695.604 -7.02416 -1.9168 0
M  V30 5327 H 695.636 -6.6888 -2.96621 0
M  V30 5328 H 696.819 -6.53617 -0.192223 0
M  V30 5329 H 698.303 -8.36622 -0.589963 0
M  V30 5330 H 696.609 -10.0291 -1.79807 0
M  V30 5331 H 696.419 -10.2138 0.558219 0
M  V30 5332 H 694.789 -9.6579 0.0444202 0
M  V30 5333 H 697.428 -5.69556 -2.79637 0
M  V30 5334 P 699.285 -8.4349 -2.47671 0
M  V30 5335 O 700.707 -8.92593 -2.65 0
M  V30 5336 O 698.925 -7.7568 -1.19296 0
M  V30 5337 O 698.962 -7.36886 -3.63805 0
M  V30 5338 C 698.802 -7.95349 -4.982 0
M  V30 5339 C 699.342 -6.94612 -5.98974 0
M  V30 5340 O 698.286 -6.10347 -6.11815 0
M  V30 5341 C 700.56 -6.11426 -5.62335 0
M  V30 5342 O 701.298 -5.6162 -6.70584 0
M  V30 5343 C 699.891 -5.04409 -4.73308 0
M  V30 5344 O 700.69 -3.85992 -4.75183 0
M  V30 5345 C 698.554 -4.8728 -5.41006 0
M  V30 5346 H 698.586 -4.02333 -6.11157 0
M  V30 5347 H 699.769 -5.39466 -3.69543 0
M  V30 5348 H 701.253 -6.71916 -5.01943 0
M  V30 5349 H 699.559 -7.4649 -6.93477 0
M  V30 5350 H 699.369 -8.89416 -5.05237 0
M  V30 5351 H 697.739 -8.14876 -5.18409 0
M  V30 5352 H 700.378 -3.27957 -5.4317 0
M  V30 5353 P 702.236 -5.75688 -6.64379 0
M  V30 5354 O 703.658 -6.07758 -7.05656 0
M  V30 5355 O 701.876 -5.88047 -5.19722 0
M  V30 5356 O 701.913 -4.2322 -7.04443 0
M  V30 5357 C 701.753 -3.99743 -8.4911 0
M  V30 5358 C 702.293 -2.60487 -8.79329 0
M  V30 5359 O 701.238 -1.82684 -8.4467 0
M  V30 5360 C 703.511 -2.10343 -8.03628 0
M  V30 5361 O 704.249 -1.09919 -8.67766 0
M  V30 5362 C 702.843 -1.68446 -6.70876 0
M  V30 5363 O 703.641 -0.678026 -6.08333 0
M  V30 5364 C 701.505 -1.17436 -7.18567 0
M  V30 5365 N 700.462 -1.52699 -6.23988 0
M  V30 5366 C 700.524 -2.68084 -5.57824 0
M  V30 5367 N 699.479 -2.8189 -4.75643 0
M  V30 5368 C 698.745 -1.72373 -4.95155 0
M  V30 5369 C 697.439 -1.37653 -4.44996 0
M  V30 5370 O 696.706 -2.02239 -3.68445 0
M  V30 5371 N 697.009 -0.17675 -4.90782 0
M  V30 5372 C 697.758 0.645036 -5.78716 0
M  V30 5373 N 697.161 1.84214 -6.10618 0
M  V30 5374 N 698.911 0.321732 -6.30279 0
M  V30 5375 C 699.368 -0.87502 -5.86913 0
M  V30 5376 H 701.537 -0.0804732 -7.31656 0
M  V30 5377 H 702.72 -2.53998 -6.02444 0
M  V30 5378 H 704.205 -2.93095 -7.8582 0
M  V30 5379 H 702.51 -2.53065 -9.86973 0
M  V30 5380 H 702.32 -4.75072 -9.05887 0
M  V30 5381 H 700.689 -4.05244 -8.76668 0
M  V30 5382 H 696.113 0.152143 -4.60849 0
M  V30 5383 H 701.32 -3.41852 -5.69006 0
M  V30 5384 H 696.25 2.08538 -5.69521 0
M  V30 5385 H 697.626 2.4895 -6.75698 0
M  V30 5386 H 703.33 0.177619 -6.34151 0
M  V30 5387 P 705.186 -1.25109 -8.70152 0
M  V30 5388 O 706.608 -1.29744 -9.22016 0
M  V30 5389 O 704.826 -2.13714 -7.55141 0
M  V30 5390 O 704.863 0.248149 -8.21425 0
M  V30 5391 C 704.703 1.22779 -9.30434 0
M  V30 5392 C 705.243 2.56293 -8.80664 0
M  V30 5393 O 704.187 3.02979 -8.09349 0
M  V30 5394 C 706.461 2.57523 -7.89775 0
M  V30 5395 O 707.199 3.7668 -7.89438 0
M  V30 5396 C 705.792 2.20997 -6.55446 0
M  V30 5397 O 706.591 2.71895 -5.48509 0
M  V30 5398 C 704.455 2.89693 -6.67988 0
M  V30 5399 H 704.487 3.88793 -6.19859 0
M  V30 5400 H 705.67 1.12046 -6.44229 0
M  V30 5401 H 707.154 1.7746 -8.19711 0
M  V30 5402 H 705.46 3.20706 -9.67112 0
M  V30 5403 H 705.27 0.901032 -10.1892 0
M  V30 5404 H 703.64 1.33049 -9.56592 0
M  V30 5405 H 706.279 3.57847 -5.23962 0
M  V30 5406 P 708.137 3.65191 -7.99657 0
M  V30 5407 O 709.559 3.89332 -8.45794 0
M  V30 5408 O 707.777 2.28472 -7.50807 0
M  V30 5409 O 707.814 4.64972 -6.77611 0
M  V30 5410 C 707.654 6.06319 -7.16352 0
M  V30 5411 C 708.194 6.91731 -6.02299 0
M  V30 5412 O 707.138 6.92449 -5.17064 0
M  V30 5413 C 709.412 6.43627 -5.25174 0
M  V30 5414 O 710.15 7.43686 -4.60469 0
M  V30 5415 C 708.743 5.40275 -4.31916 0
M  V30 5416 O 709.542 5.25279 -3.14438 0
M  V30 5417 C 707.406 6.04847 -4.05327 0
M  V30 5418 H 707.438 6.62195 -3.11261 0
M  V30 5419 H 708.621 4.42556 -4.81383 0
M  V30 5420 H 710.105 5.92458 -5.93643 0
M  V30 5421 H 708.411 7.92655 -6.402 0
M  V30 5422 H 708.221 6.26671 -8.0846 0
M  V30 5423 H 706.591 6.29101 -7.32804 0
M  V30 5424 H 709.23 5.84315 -2.47318 0
M  V30 5425 P 711.087 7.39546 -4.75277 0
M  V30 5426 O 712.509 7.84798 -5.01039 0
M  V30 5427 O 710.727 5.9812 -5.08098 0
M  V30 5428 O 710.764 7.57503 -3.1866 0
M  V30 5429 C 710.604 8.97357 -2.74833 0
M  V30 5430 C 711.144 9.07548 -1.32709 0
M  V30 5431 O 710.088 8.62072 -0.606159 0
M  V30 5432 C 712.362 8.25383 -0.938334 0
M  V30 5433 O 713.1 8.74577 0.146954 0
M  V30 5434 C 711.693 6.8802 -0.712559 0
M  V30 5435 O 712.492 6.1189 0.194655 0
M  V30 5436 C 710.356 7.27966 -0.139777 0
M  V30 5437 H 710.388 7.25354 0.961601 0
M  V30 5438 H 711.571 6.32557 -1.65702 0
M  V30 5439 H 713.055 8.19355 -1.79097 0
M  V30 5440 H 711.361 10.1294 -1.10029 0
M  V30 5441 H 711.171 9.64276 -3.41316 0
M  V30 5442 H 709.541 9.25417 -2.76357 0
M  V30 5443 H 712.18 6.25267 1.07847 0
M  V30 5444 P 714.038 8.791 5.07466e-12 0
M  V30 5445 O 715.459 9.31196 0.027936 0
M  V30 5446 O 713.678 7.77869 -1.04071 0
M  V30 5447 O 713.715 8.09533 1.41463 0
M  V30 5448 C 713.554 9.03587 2.5397 0
M  V30 5449 C 714.095 8.35226 3.79016 0
M  V30 5450 O 713.04 7.57904 4.1503 0
M  V30 5451 C 715.313 7.45087 3.67298 0
M  V30 5452 O 716.051 7.27796 4.85194 0
M  V30 5453 C 714.645 6.17323 3.12027 0
M  V30 5454 O 715.443 5.04496 3.46627 0
M  V30 5455 C 713.307 6.19961 3.81809 0
M  V30 5456 N 712.264 5.71575 2.93223 0
M  V30 5457 C 712.433 5.77362 1.59168 0
M  V30 5458 N 711.406 5.3123 0.911893 0
M  V30 5459 C 710.521 4.91717 1.89588 0
M  V30 5460 C 709.254 4.3114 1.8076 0
M  V30 5461 N 708.655 3.99821 0.632928 0
M  V30 5462 N 708.689 4.06823 3.02898 0
M  V30 5463 C 709.291 4.35062 4.22711 0
M  V30 5464 N 710.468 4.90805 4.35707 0
M  V30 5465 C 711.043 5.16382 3.14469 0
M  V30 5466 H 713.339 5.58142 4.72986 0
M  V30 5467 H 714.522 6.21428 2.0318 0
M  V30 5468 H 716.005 7.86112 2.9231 0
M  V30 5469 H 714.311 9.11171 4.55987 0
M  V30 5470 H 714.121 9.9573 2.34194 0
M  V30 5471 H 712.491 9.2792 2.67832 0
M  V30 5472 H 708.755 4.09052 5.13359 0
M  V30 5473 H 713.333 6.16575 1.12198 0
M  V30 5474 H 707.725 3.55423 0.632085 0
M  V30 5475 H 709.129 4.20317 -0.256712 0
M  V30 5476 H 715.131 4.67628 4.28704 0
M  V30 5477 P 716.989 7.39546 4.75277 0
M  V30 5478 O 718.411 7.81777 5.05738 0
M  V30 5479 O 716.629 7.1065 3.32998 0
M  V30 5480 O 716.666 6.04542 5.56673 0
M  V30 5481 C 716.506 6.22772 7.02095 0
M  V30 5482 C 717.046 4.97725 7.70406 0
M  V30 5483 O 715.99 4.13256 7.58987 0
M  V30 5484 C 718.264 4.28231 7.11815 0
M  V30 5485 O 719.002 3.49945 8.01648 0
M  V30 5486 C 717.595 3.5063 5.96244 0
M  V30 5487 O 718.394 2.36482 5.64681 0
M  V30 5488 C 716.258 3.15122 6.56374 0
M  V30 5489 H 716.29 2.13853 6.99751 0
M  V30 5490 H 717.473 4.13501 5.06559 0
M  V30 5491 H 718.957 5.03285 6.70911 0
M  V30 5492 H 717.263 5.20877 8.75697 0
M  V30 5493 H 717.073 7.11046 7.35349 0
M  V30 5494 H 715.443 6.35815 7.26986 0
M  V30 5495 H 718.082 1.61644 6.13565 0
M  V30 5496 P 719.939 3.65191 7.99657 0
M  V30 5497 O 721.361 3.8425 8.48115 0
M  V30 5498 O 719.579 4.17805 6.64342 0
M  V30 5499 O 719.616 2.07613 7.95143 0
M  V30 5500 C 719.456 1.44328 9.27336 0
M  V30 5501 C 719.996 0.0220036 9.17197 0
M  V30 5502 O 718.94 -0.626867 8.61923 0
M  V30 5503 C 721.214 -0.24586 8.30336 0
M  V30 5504 O 721.952 -1.39011 8.63583 0
M  V30 5505 C 720.545 -0.273849 6.91158 0
M  V30 5506 O 721.344 -1.06348 6.02892 0
M  V30 5507 C 719.208 -0.897649 7.22545 0
M  V30 5508 H 719.24 -1.9841 7.04286 0
M  V30 5509 H 720.423 0.739928 6.497 0
M  V30 5510 H 721.907 0.60668 8.36503 0
M  V30 5511 H 720.213 -0.352479 10.1829 0
M  V30 5512 H 720.023 2.00611 10.0304 0
M  V30 5513 H 718.393 1.41843 9.55327 0
M  V30 5514 H 721.032 -1.95734 6.03555 0
M  V30 5515 P 722.89 -1.25109 8.70152 0
M  V30 5516 O 724.312 -1.35274 9.21221 0
M  V30 5517 O 722.53 -0.0769065 7.84762 0
M  V30 5518 O 722.567 -2.55232 7.81161 0
M  V30 5519 C 722.407 -3.79939 8.58154 0
M  V30 5520 C 722.947 -4.94023 7.72785 0
M  V30 5521 O 721.891 -5.18726 6.91205 0
M  V30 5522 C 724.165 -4.69597 6.85231 0
M  V30 5523 O 724.903 -5.83832 6.51337 0
M  V30 5524 C 723.496 -3.96706 5.66633 0
M  V30 5525 O 724.295 -4.15414 4.49689 0
M  V30 5526 C 722.159 -4.66153 5.59313 0
M  V30 5527 H 722.191 -5.47679 4.85214 0
M  V30 5528 H 723.374 -2.89008 5.86566 0
M  V30 5529 H 724.858 -4.0121 7.36511 0
M  V30 5530 H 723.164 -5.80182 8.37584 0
M  V30 5531 H 722.974 -3.73517 9.52265 0
M  V30 5532 H 721.344 -3.97163 8.80359 0
M  V30 5533 H 723.983 -4.90969 4.01921 0
M  V30 5534 P 725.84 -5.75688 6.64379 0
M  V30 5535 O 727.262 -6.11849 7.01846 0
M  V30 5536 O 725.48 -4.30744 6.56026 0
M  V30 5537 O 725.517 -6.37042 5.19165 0
M  V30 5538 C 725.357 -7.83578 5.16515 0
M  V30 5539 C 725.897 -8.33398 3.83019 0
M  V30 5540 O 724.841 -8.10074 3.01034 0
M  V30 5541 C 727.115 -7.65514 3.2257 0
M  V30 5542 O 727.853 -8.4329 2.32297 0
M  V30 5543 C 726.446 -6.40075 2.62207 0
M  V30 5544 O 727.245 -5.92589 1.53712 0
M  V30 5545 C 725.109 -6.9454 2.18503 0
M  V30 5546 H 725.141 -7.23063 1.12091 0
M  V30 5547 H 726.324 -5.6025 3.37201 0
M  V30 5548 H 727.808 -7.35707 4.02681 0
M  V30 5549 H 726.114 -9.40912 3.9095 0
M  V30 5550 H 725.924 -8.29056 5.99158 0
M  V30 5551 H 724.294 -8.10073 5.25882 0
M  V30 5552 H 726.933 -6.30324 0.726794 0
M  V30 5553 P 728.791 -8.4349 2.47671 0
M  V30 5554 O 730.213 -8.94167 2.5964 0
M  V30 5555 O 728.431 -7.1704 3.19006 0
M  V30 5556 O 728.468 -8.16596 0.923387 0
M  V30 5557 C 728.308 -9.38437 0.108857 0
M  V30 5558 C 728.848 -9.08175 -1.28353 0
M  V30 5559 O 727.792 -8.44229 -1.84713 0
M  V30 5560 C 730.066 -8.18386 -1.42505 0
M  V30 5561 O 730.804 -8.3501 -2.60497 0
M  V30 5562 C 729.397 -6.80225 -1.25468 0
M  V30 5563 O 730.196 -5.81621 -1.91066 0
M  V30 5564 C 728.06 -7.02416 -1.9168 0
M  V30 5565 H 728.092 -6.6888 -2.96621 0
M  V30 5566 H 729.275 -6.53617 -0.192223 0
M  V30 5567 H 730.759 -8.36622 -0.589963 0
M  V30 5568 H 729.065 -10.0291 -1.79807 0
M  V30 5569 H 728.875 -10.2138 0.558219 0
M  V30 5570 H 727.245 -9.6579 0.0444202 0
M  V30 5571 H 729.884 -5.69556 -2.79637 0
M  V30 5572 P 731.741 -8.4349 -2.47671 0
M  V30 5573 O 733.142 -8.99283 -2.62101 0
M  V30 5574 O 731.363 -7.81195 -1.16947 0
M  V30 5575 O 731.418 -7.36797 -3.63761 0
M  V30 5576 C 731.258 -7.95349 -4.982 0
M  V30 5577 C 731.798 -6.94537 -5.98908 0
M  V30 5578 O 730.742 -6.10277 -6.11744 0
M  V30 5579 C 733.015 -6.11426 -5.62335 0
M  V30 5580 O 733.754 -5.6162 -6.70584 0
M  V30 5581 C 732.348 -5.04409 -4.73308 0
M  V30 5582 O 733.146 -3.85929 -4.75106 0
M  V30 5583 C 731.01 -4.8728 -5.41006 0
M  V30 5584 N 729.967 -4.65812 -4.42377 0
M  V30 5585 C 728.932 -3.81293 -4.74224 0
M  V30 5586 O 728.971 -3.20533 -5.83679 0
M  V30 5587 N 727.92 -3.6442 -3.86349 0
M  V30 5588 C 727.968 -4.2728 -2.6824 0
M  V30 5589 C 729.064 -5.10813 -2.3217 0
M  V30 5590 C 730.03 -5.27909 -3.22647 0
M  V30 5591 H 731.042 -4.02278 -6.11074 0
M  V30 5592 H 732.225 -5.39013 -3.70026 0
M  V30 5593 H 733.709 -6.71494 -5.02675 0
M  V30 5594 H 732.015 -7.45796 -6.94223 0
M  V30 5595 H 731.824 -8.89416 -5.05237 0
M  V30 5596 H 730.194 -8.14791 -5.18355 0
M  V30 5597 H 729.112 -5.58884 -1.34755 0
M  V30 5598 H 730.876 -5.92811 -2.9934 0
M  V30 5599 H 732.93 -3.3454 -5.51577 0
M  V30 5600 P 734.692 -5.75688 -6.64379 0
M  V30 5601 O 736.114 -6.07627 -7.05504 0
M  V30 5602 O 734.332 -5.88047 -5.19722 0
M  V30 5603 O 734.369 -4.2322 -7.04443 0
M  V30 5604 C 734.209 -3.99743 -8.4911 0
M  V30 5605 C 734.749 -2.60516 -8.79425 0
M  V30 5606 O 733.693 -1.82684 -8.4467 0
M  V30 5607 C 735.967 -2.10343 -8.03628 0
M  V30 5608 O 736.705 -1.09919 -8.67766 0
M  V30 5609 C 735.298 -1.68446 -6.70876 0
M  V30 5610 O 736.097 -0.678137 -6.08433 0
M  V30 5611 C 733.961 -1.17436 -7.18567 0
M  V30 5612 H 733.993 -0.0804732 -7.31656 0
M  V30 5613 H 735.176 -2.54037 -6.02537 0
M  V30 5614 H 736.66 -2.93881 -7.85526 0
M  V30 5615 H 734.966 -2.53065 -9.86973 0
M  V30 5616 H 734.776 -4.75072 -9.05887 0
M  V30 5617 H 733.146 -4.05244 -8.76668 0
M  V30 5618 H 735.785 0.177647 -6.34251 0
M  V30 5619 P 737.643 -1.25109 -8.70152 0
M  V30 5620 O 739.065 -1.29744 -9.22016 0
M  V30 5621 O 737.283 -2.13714 -7.55141 0
M  V30 5622 O 737.32 0.248149 -8.21425 0
M  V30 5623 C 737.16 1.22779 -9.30434 0
M  V30 5624 C 737.7 2.56293 -8.80664 0
M  V30 5625 O 736.644 3.02979 -8.09349 0
M  V30 5626 C 738.918 2.57523 -7.89775 0
M  V30 5627 O 739.656 3.7668 -7.89438 0
M  V30 5628 C 738.249 2.20997 -6.55446 0
M  V30 5629 O 739.048 2.71895 -5.48509 0
M  V30 5630 C 736.912 2.89693 -6.67988 0
M  V30 5631 H 736.944 3.88793 -6.19859 0
M  V30 5632 H 738.127 1.12046 -6.44229 0
M  V30 5633 H 739.611 1.7746 -8.19711 0
M  V30 5634 H 737.917 3.20706 -9.67112 0
M  V30 5635 H 737.726 0.901032 -10.1892 0
M  V30 5636 H 736.096 1.33049 -9.56592 0
M  V30 5637 H 738.736 3.57847 -5.23962 0
M  V30 5638 P 740.593 3.65191 -7.99657 0
M  V30 5639 O 742.014 3.89374 -8.45885 0
M  V30 5640 O 740.233 2.28472 -7.50807 0
M  V30 5641 O 740.27 4.64972 -6.77611 0
M  V30 5642 C 740.109 6.06383 -7.16428 0
M  V30 5643 C 740.65 6.91731 -6.02299 0
M  V30 5644 O 739.595 6.92369 -5.17005 0
M  V30 5645 C 741.868 6.43627 -5.25174 0
M  V30 5646 O 742.606 7.43686 -4.60469 0
M  V30 5647 C 741.2 5.40275 -4.31916 0
M  V30 5648 O 741.998 5.24878 -3.14911 0
M  V30 5649 C 739.862 6.04847 -4.05327 0
M  V30 5650 N 738.819 5.04166 -3.98114 0
M  V30 5651 C 738.988 3.84629 -4.59066 0
M  V30 5652 N 737.961 3.0363 -4.45343 0
M  V30 5653 C 737.076 3.76722 -3.68523 0
M  V30 5654 C 735.809 3.43528 -3.17088 0
M  V30 5655 N 735.244 4.44526 -2.44231 0
M  V30 5656 C 735.846 5.65243 -2.20146 0
M  V30 5657 N 737.023 6.00221 -2.65453 0
M  V30 5658 C 737.598 5.00564 -3.39083 0
M  V30 5659 H 741.077 4.42969 -4.80867 0
M  V30 5660 H 742.56 5.92458 -5.93643 0
M  V30 5661 H 740.866 7.93295 -6.39407 0
M  V30 5662 H 740.676 6.26671 -8.0846 0
M  V30 5663 H 739.046 6.29101 -7.32804 0
M  V30 5664 H 739.888 3.58193 -5.14248 0
M  V30 5665 H 741.686 5.84223 -2.47279 0
M  V30 5666 P 743.544 7.39546 -4.75277 0
M  V30 5667 O 744.965 7.84882 -5.01092 0
M  V30 5668 O 743.184 5.9812 -5.08098 0
M  V30 5669 O 743.221 7.57503 -3.1866 0
M  V30 5670 C 743.06 8.97452 -2.74862 0
M  V30 5671 C 743.601 9.07548 -1.32709 0
M  V30 5672 O 742.546 8.61972 -0.606089 0
M  V30 5673 C 744.819 8.25383 -0.938334 0
M  V30 5674 O 745.557 8.74577 0.146954 0
M  V30 5675 C 744.151 6.8802 -0.712559 0
M  V30 5676 O 744.949 6.1181 0.188505 0
M  V30 5677 C 742.813 7.27966 -0.139777 0
M  V30 5678 N 741.77 6.39368 -0.623421 0
M  V30 5679 C 741.939 5.71761 -1.78245 0
M  V30 5680 N 740.912 4.962 -2.10491 0
M  V30 5681 C 740.027 5.16158 -1.0635 0
M  V30 5682 C 738.76 4.60425 -0.810266 0
M  V30 5683 N 738.161 3.7057 -1.62914 0
M  V30 5684 N 738.195 5.06 0.348685 0
M  V30 5685 C 738.797 5.94532 1.20395 0
M  V30 5686 N 739.974 6.48452 1.01191 0
M  V30 5687 C 740.549 6.04423 -0.146291 0
M  V30 5688 H 742.845 7.25255 0.961469 0
M  V30 5689 H 744.028 6.32625 -1.65044 0
M  V30 5690 H 745.511 8.19355 -1.79097 0
M  V30 5691 H 743.817 10.1305 -1.09016 0
M  V30 5692 H 743.627 9.64276 -3.41316 0
M  V30 5693 H 741.997 9.25417 -2.76357 0
M  V30 5694 H 738.261 6.21659 2.10714 0
M  V30 5695 H 742.839 5.79354 -2.38959 0
M  V30 5696 H 737.231 3.33174 -1.38982 0
M  V30 5697 H 738.635 3.39714 -2.48836 0
M  V30 5698 H 744.637 6.25169 1.0783 0
M  V30 5699 P 746.494 8.791 5.38483e-12 0
M  V30 5700 O 747.916 9.31096 0.027933 0
M  V30 5701 O 746.134 7.77869 -1.04071 0
M  V30 5702 O 746.171 8.09533 1.41463 0
M  V30 5703 C 746.011 9.0349 2.53943 0
M  V30 5704 C 746.551 8.35226 3.79016 0
M  V30 5705 O 745.495 7.57992 4.15078 0
M  V30 5706 C 747.769 7.45087 3.67298 0
M  V30 5707 O 748.507 7.27796 4.85194 0
M  V30 5708 C 747.1 6.17323 3.12027 0
M  V30 5709 O 747.899 5.04231 3.47188 0
M  V30 5710 C 745.763 6.19961 3.81809 0
M  V30 5711 H 745.795 5.58218 4.73051 0
M  V30 5712 H 746.978 6.21726 2.02589 0
M  V30 5713 H 748.462 7.86112 2.9231 0
M  V30 5714 H 746.768 9.11627 4.55076 0
M  V30 5715 H 746.578 9.9573 2.34194 0
M  V30 5716 H 744.948 9.2792 2.67832 0
M  V30 5717 H 747.587 4.67702 4.28772 0
M  V30 5718 P 749.445 7.39546 4.75277 0
M  V30 5719 O 750.867 7.81777 5.05738 0
M  V30 5720 O 749.085 7.1065 3.32998 0
M  V30 5721 O 749.122 6.04542 5.56673 0
M  V30 5722 C 748.962 6.22772 7.02095 0
M  V30 5723 C 749.502 4.97725 7.70406 0
M  V30 5724 O 748.446 4.13256 7.58987 0
M  V30 5725 C 750.72 4.28231 7.11815 0
M  V30 5726 O 751.458 3.49945 8.01648 0
M  V30 5727 C 750.051 3.5063 5.96244 0
M  V30 5728 O 750.85 2.36482 5.64681 0
M  V30 5729 C 748.714 3.15122 6.56374 0
M  V30 5730 H 748.746 2.13853 6.99751 0
M  V30 5731 H 749.929 4.13501 5.06559 0
M  V30 5732 H 751.413 5.03285 6.70911 0
M  V30 5733 H 749.719 5.20877 8.75697 0
M  V30 5734 H 749.529 7.11046 7.35349 0
M  V30 5735 H 747.899 6.35815 7.26986 0
M  V30 5736 H 750.538 1.61644 6.13565 0
M  V30 5737 P 752.395 3.65191 7.99657 0
M  V30 5738 O 753.817 3.8425 8.48115 0
M  V30 5739 O 752.035 4.17805 6.64342 0
M  V30 5740 O 752.072 2.07613 7.95143 0
M  V30 5741 C 751.912 1.44328 9.27336 0
M  V30 5742 C 752.452 0.0220036 9.17197 0
M  V30 5743 O 751.396 -0.626867 8.61923 0
M  V30 5744 C 753.67 -0.24586 8.30336 0
M  V30 5745 O 754.408 -1.39011 8.63583 0
M  V30 5746 C 753.001 -0.273849 6.91158 0
M  V30 5747 O 753.8 -1.06348 6.02892 0
M  V30 5748 C 751.664 -0.897649 7.22545 0
M  V30 5749 H 751.696 -1.9841 7.04286 0
M  V30 5750 H 752.879 0.739928 6.497 0
M  V30 5751 H 754.363 0.60668 8.36503 0
M  V30 5752 H 752.669 -0.352479 10.1829 0
M  V30 5753 H 752.479 2.00611 10.0304 0
M  V30 5754 H 750.849 1.41843 9.55327 0
M  V30 5755 H 753.488 -1.95734 6.03555 0
M  V30 5756 P 755.346 -1.25109 8.70152 0
M  V30 5757 O 756.768 -1.35303 9.21419 0
M  V30 5758 O 754.986 -0.0769065 7.84762 0
M  V30 5759 O 755.023 -2.55232 7.81161 0
M  V30 5760 C 754.863 -3.79939 8.58154 0
M  V30 5761 C 755.403 -4.93969 7.72701 0
M  V30 5762 O 754.348 -5.18726 6.91205 0
M  V30 5763 C 756.621 -4.69597 6.85231 0
M  V30 5764 O 757.359 -5.83832 6.51337 0
M  V30 5765 C 755.953 -3.96706 5.66633 0
M  V30 5766 O 756.751 -4.15346 4.49615 0
M  V30 5767 C 754.615 -4.66153 5.59313 0
M  V30 5768 N 753.572 -3.71582 5.24027 0
M  V30 5769 C 753.634 -2.46018 5.67902 0
M  V30 5770 N 752.589 -1.74868 5.24518 0
M  V30 5771 C 751.855 -2.61333 4.54528 0
M  V30 5772 C 750.549 -2.46162 3.95441 0
M  V30 5773 O 749.816 -1.46013 3.94122 0
M  V30 5774 N 750.119 -3.59334 3.34752 0
M  V30 5775 C 750.868 -4.79605 3.3023 0
M  V30 5776 N 750.271 -5.82109 2.6065 0
M  V30 5777 N 752.021 -4.97402 3.8843 0
M  V30 5778 C 752.478 -3.86258 4.50476 0
M  V30 5779 H 754.647 -5.47679 4.85214 0
M  V30 5780 H 755.83 -2.88964 5.86476 0
M  V30 5781 H 757.315 -4.01947 7.36109 0
M  V30 5782 H 755.62 -5.80182 8.37584 0
M  V30 5783 H 755.43 -3.73517 9.52265 0
M  V30 5784 H 753.799 -3.97163 8.80359 0
M  V30 5785 H 749.223 -3.5825 2.90294 0
M  V30 5786 H 754.43 -2.06161 6.30974 0
M  V30 5787 H 749.36 -5.66979 2.15354 0
M  V30 5788 H 750.736 -6.73686 2.54344 0
M  V30 5789 H 756.44 -4.90891 4.01857 0
M  V30 5790 P 758.296 -5.75688 6.64379 0
M  V30 5791 O 759.718 -6.11849 7.01846 0
M  V30 5792 O 757.936 -4.30744 6.56026 0
M  V30 5793 O 757.973 -6.37042 5.19165 0
M  V30 5794 C 757.813 -7.83578 5.16515 0
M  V30 5795 C 758.353 -8.33398 3.83019 0
M  V30 5796 O 757.297 -8.10074 3.01034 0
M  V30 5797 C 759.571 -7.65514 3.2257 0
M  V30 5798 O 760.309 -8.4329 2.32297 0
M  V30 5799 C 758.902 -6.40075 2.62207 0
M  V30 5800 O 759.701 -5.92589 1.53712 0
M  V30 5801 C 757.565 -6.9454 2.18503 0
M  V30 5802 H 757.597 -7.23063 1.12091 0
M  V30 5803 H 758.78 -5.6025 3.37201 0
M  V30 5804 H 760.264 -7.35707 4.02681 0
M  V30 5805 H 758.57 -9.40912 3.9095 0
M  V30 5806 H 758.38 -8.29056 5.99158 0
M  V30 5807 H 756.75 -8.10073 5.25882 0
M  V30 5808 H 759.389 -6.30324 0.726794 0
M  V30 5809 P 761.247 -8.4349 2.47671 0
M  V30 5810 O 762.669 -8.94167 2.5964 0
M  V30 5811 O 760.887 -7.1704 3.19006 0
M  V30 5812 O 760.924 -8.16596 0.923387 0
M  V30 5813 C 760.764 -9.38437 0.108857 0
M  V30 5814 C 761.304 -9.08175 -1.28353 0
M  V30 5815 O 760.248 -8.44229 -1.84713 0
M  V30 5816 C 762.522 -8.18386 -1.42505 0
M  V30 5817 O 763.26 -8.3501 -2.60497 0
M  V30 5818 C 761.853 -6.80225 -1.25468 0
M  V30 5819 O 762.652 -5.81621 -1.91066 0
M  V30 5820 C 760.516 -7.02416 -1.9168 0
M  V30 5821 H 760.548 -6.6888 -2.96621 0
M  V30 5822 H 761.731 -6.53617 -0.192223 0
M  V30 5823 H 763.215 -8.36622 -0.589963 0
M  V30 5824 H 761.521 -10.0291 -1.79807 0
M  V30 5825 H 761.331 -10.2138 0.558219 0
M  V30 5826 H 759.701 -9.6579 0.0444202 0
M  V30 5827 H 762.34 -5.69556 -2.79637 0
M  V30 5828 P 764.198 -8.4349 -2.47671 0
M  V30 5829 O 765.62 -8.92593 -2.65 0
M  V30 5830 O 763.838 -7.7568 -1.19296 0
M  V30 5831 O 763.875 -7.36886 -3.63805 0
M  V30 5832 C 763.715 -7.95349 -4.982 0
M  V30 5833 C 764.255 -6.94612 -5.98974 0
M  V30 5834 O 763.199 -6.10347 -6.11815 0
M  V30 5835 C 765.473 -6.11426 -5.62335 0
M  V30 5836 O 766.211 -5.6162 -6.70584 0
M  V30 5837 C 764.804 -5.04409 -4.73308 0
M  V30 5838 O 765.603 -3.85992 -4.75183 0
M  V30 5839 C 763.467 -4.8728 -5.41006 0
M  V30 5840 H 763.499 -4.02333 -6.11157 0
M  V30 5841 H 764.682 -5.39466 -3.69543 0
M  V30 5842 H 766.166 -6.71916 -5.01943 0
M  V30 5843 H 764.472 -7.4649 -6.93477 0
M  V30 5844 H 764.282 -8.89416 -5.05237 0
M  V30 5845 H 762.652 -8.14876 -5.18409 0
M  V30 5846 H 765.291 -3.27957 -5.4317 0
M  V30 5847 P 767.148 -5.75688 -6.64379 0
M  V30 5848 O 768.57 -6.07627 -7.05504 0
M  V30 5849 O 766.788 -5.88047 -5.19722 0
M  V30 5850 O 766.825 -4.2322 -7.04443 0
M  V30 5851 C 766.665 -3.99743 -8.4911 0
M  V30 5852 C 767.205 -2.60516 -8.79425 0
M  V30 5853 O 766.149 -1.82684 -8.4467 0
M  V30 5854 C 768.423 -2.10343 -8.03628 0
M  V30 5855 O 769.161 -1.09919 -8.67766 0
M  V30 5856 C 767.754 -1.68446 -6.70876 0
M  V30 5857 O 768.553 -0.678137 -6.08433 0
M  V30 5858 C 766.417 -1.17436 -7.18567 0
M  V30 5859 H 766.449 -0.0804732 -7.31656 0
M  V30 5860 H 767.632 -2.54037 -6.02537 0
M  V30 5861 H 769.116 -2.93881 -7.85526 0
M  V30 5862 H 767.422 -2.53065 -9.86973 0
M  V30 5863 H 767.232 -4.75072 -9.05887 0
M  V30 5864 H 765.602 -4.05244 -8.76668 0
M  V30 5865 H 768.241 0.177647 -6.34251 0
M  V30 5866 P 770.099 -1.25109 -8.70152 0
M  V30 5867 O 771.521 -1.29744 -9.22016 0
M  V30 5868 O 769.739 -2.13714 -7.55141 0
M  V30 5869 O 769.776 0.248149 -8.21425 0
M  V30 5870 C 769.616 1.22779 -9.30434 0
M  V30 5871 C 770.156 2.56293 -8.80664 0
M  V30 5872 O 769.1 3.02979 -8.09349 0
M  V30 5873 C 771.374 2.57523 -7.89775 0
M  V30 5874 O 772.112 3.7668 -7.89438 0
M  V30 5875 C 770.705 2.20997 -6.55446 0
M  V30 5876 O 771.504 2.71895 -5.48509 0
M  V30 5877 C 769.368 2.89693 -6.67988 0
M  V30 5878 H 769.4 3.88793 -6.19859 0
M  V30 5879 H 770.583 1.12046 -6.44229 0
M  V30 5880 H 772.067 1.7746 -8.19711 0
M  V30 5881 H 770.373 3.20706 -9.67112 0
M  V30 5882 H 770.183 0.901032 -10.1892 0
M  V30 5883 H 768.553 1.33049 -9.56592 0
M  V30 5884 H 771.192 3.57847 -5.23962 0
M  V30 5885 P 773.049 3.65191 -7.99657 0
M  V30 5886 O 774.471 3.89332 -8.45794 0
M  V30 5887 O 772.689 2.28472 -7.50807 0
M  V30 5888 O 772.726 4.64972 -6.77611 0
M  V30 5889 C 772.566 6.06319 -7.16352 0
M  V30 5890 C 773.106 6.91731 -6.02299 0
M  V30 5891 O 772.05 6.92449 -5.17064 0
M  V30 5892 C 774.324 6.43627 -5.25174 0
M  V30 5893 O 775.062 7.43686 -4.60469 0
M  V30 5894 C 773.655 5.40275 -4.31916 0
M  V30 5895 O 774.454 5.25279 -3.14438 0
M  V30 5896 C 772.318 6.04847 -4.05327 0
M  V30 5897 H 772.35 6.62195 -3.11261 0
M  V30 5898 H 773.533 4.42556 -4.81383 0
M  V30 5899 H 775.017 5.92458 -5.93643 0
M  V30 5900 H 773.323 7.92655 -6.402 0
M  V30 5901 H 773.133 6.26671 -8.0846 0
M  V30 5902 H 771.503 6.29101 -7.32804 0
M  V30 5903 H 774.142 5.84315 -2.47318 0
M  V30 5904 P 776 7.39546 -4.75277 0
M  V30 5905 O 777.422 7.84798 -5.01039 0
M  V30 5906 O 775.64 5.9812 -5.08098 0
M  V30 5907 O 775.677 7.57503 -3.1866 0
M  V30 5908 C 775.517 8.97357 -2.74833 0
M  V30 5909 C 776.057 9.07548 -1.32709 0
M  V30 5910 O 775.001 8.62072 -0.606159 0
M  V30 5911 C 777.275 8.25383 -0.938334 0
M  V30 5912 O 778.013 8.74577 0.146954 0
M  V30 5913 C 776.606 6.8802 -0.712559 0
M  V30 5914 O 777.405 6.1189 0.194655 0
M  V30 5915 C 775.269 7.27966 -0.139777 0
M  V30 5916 H 775.301 7.25354 0.961601 0
M  V30 5917 H 776.484 6.32557 -1.65702 0
M  V30 5918 H 777.968 8.19355 -1.79097 0
M  V30 5919 H 776.274 10.1294 -1.10029 0
M  V30 5920 H 776.084 9.64276 -3.41316 0
M  V30 5921 H 774.454 9.25417 -2.76357 0
M  V30 5922 H 777.093 6.25267 1.07847 0
M  V30 5923 P 778.95 8.791 5.69499e-12 0
M  V30 5924 O 780.372 9.31096 0.027933 0
M  V30 5925 O 778.59 7.77869 -1.04071 0
M  V30 5926 O 778.627 8.09533 1.41463 0
M  V30 5927 C 778.467 9.0349 2.53943 0
M  V30 5928 C 779.007 8.35226 3.79016 0
M  V30 5929 O 777.951 7.57992 4.15078 0
M  V30 5930 C 780.225 7.45087 3.67298 0
M  V30 5931 O 780.963 7.27796 4.85194 0
M  V30 5932 C 779.556 6.17323 3.12027 0
M  V30 5933 O 780.355 5.04231 3.47188 0
M  V30 5934 C 778.219 6.19961 3.81809 0
M  V30 5935 H 778.251 5.58218 4.73051 0
M  V30 5936 H 779.434 6.21726 2.02589 0
M  V30 5937 H 780.918 7.86112 2.9231 0
M  V30 5938 H 779.224 9.11627 4.55076 0
M  V30 5939 H 779.034 9.9573 2.34194 0
M  V30 5940 H 777.404 9.2792 2.67832 0
M  V30 5941 H 780.043 4.67702 4.28772 0
M  V30 5942 P 781.901 7.39546 4.75277 0
M  V30 5943 O 783.323 7.81777 5.05738 0
M  V30 5944 O 781.541 7.1065 3.32998 0
M  V30 5945 O 781.578 6.04542 5.56673 0
M  V30 5946 C 781.418 6.22772 7.02095 0
M  V30 5947 C 781.958 4.97725 7.70406 0
M  V30 5948 O 780.902 4.13256 7.58987 0
M  V30 5949 C 783.176 4.28231 7.11815 0
M  V30 5950 O 783.914 3.49945 8.01648 0
M  V30 5951 C 782.507 3.5063 5.96244 0
M  V30 5952 O 783.306 2.36482 5.64681 0
M  V30 5953 C 781.17 3.15122 6.56374 0
M  V30 5954 H 781.202 2.13853 6.99751 0
M  V30 5955 H 782.385 4.13501 5.06559 0
M  V30 5956 H 783.869 5.03285 6.70911 0
M  V30 5957 H 782.175 5.20877 8.75697 0
M  V30 5958 H 781.985 7.11046 7.35349 0
M  V30 5959 H 780.355 6.35815 7.26986 0
M  V30 5960 H 782.994 1.61644 6.13565 0
M  V30 5961 P 784.852 3.65191 7.99657 0
M  V30 5962 O 786.274 3.84333 8.48297 0
M  V30 5963 O 784.492 4.17805 6.64342 0
M  V30 5964 O 784.529 2.07613 7.95143 0
M  V30 5965 C 784.369 1.44328 9.27336 0
M  V30 5966 C 784.909 0.0220012 9.17097 0
M  V30 5967 O 783.854 -0.626867 8.61923 0
M  V30 5968 C 786.127 -0.24586 8.30336 0
M  V30 5969 O 786.865 -1.39011 8.63583 0
M  V30 5970 C 785.459 -0.273849 6.91158 0
M  V30 5971 O 786.257 -1.06331 6.02794 0
M  V30 5972 C 784.121 -0.897649 7.22545 0
M  V30 5973 N 783.078 -0.292839 6.41732 0
M  V30 5974 C 783.14 1.00068 6.10757 0
M  V30 5975 N 782.095 1.36468 5.35794 0
M  V30 5976 C 781.361 0.258894 5.2366 0
M  V30 5977 C 780.055 0.0670682 4.65752 0
M  V30 5978 O 779.322 0.902443 4.10497 0
M  V30 5979 N 779.625 -1.2131 4.75881 0
M  V30 5980 C 780.374 -2.24934 5.37101 0
M  V30 5981 N 779.777 -3.48783 5.33984 0
M  V30 5982 N 781.527 -2.0844 5.95684 0
M  V30 5983 C 781.984 -0.81395 5.87791 0
M  V30 5984 H 784.153 -1.9841 7.04286 0
M  V30 5985 H 785.336 0.739815 6.49601 0
M  V30 5986 H 786.821 0.598315 8.36563 0
M  V30 5987 H 785.126 -0.352479 10.1829 0
M  V30 5988 H 784.936 2.00611 10.0304 0
M  V30 5989 H 783.305 1.41843 9.55327 0
M  V30 5990 H 778.729 -1.44434 4.37895 0
M  V30 5991 H 783.936 1.67697 6.42268 0
M  V30 5992 H 778.866 -3.60543 4.87699 0
M  V30 5993 H 780.242 -4.29232 5.7819 0
M  V30 5994 H 785.946 -1.95704 6.0346 0
M  V30 5995 P 787.802 -1.25109 8.70152 0
M  V30 5996 O 789.223 -1.35288 9.2132 0
M  V30 5997 O 787.442 -0.0769065 7.84762 0
M  V30 5998 O 787.479 -2.55232 7.81161 0
M  V30 5999 C 787.318 -3.79979 8.58246 0
M  V30 6000 C 787.859 -4.94023 7.72785 0
M  V30 6001 O 786.804 -5.18666 6.91125 0
M  V30 6002 C 789.077 -4.69597 6.85231 0
M  V30 6003 O 789.815 -5.83832 6.51337 0
M  V30 6004 C 788.409 -3.96706 5.66633 0
M  V30 6005 O 789.207 -4.14896 4.5003 0
M  V30 6006 C 787.071 -4.66153 5.59313 0
M  V30 6007 N 786.028 -3.71582 5.24027 0
M  V30 6008 C 786.197 -2.39715 5.48833 0
M  V30 6009 N 785.17 -1.65863 5.12845 0
M  V30 6010 C 784.285 -2.57637 4.5973 0
M  V30 6011 C 783.018 -2.40278 4.01027 0
M  V30 6012 N 782.419 -1.19549 3.86744 0
M  V30 6013 N 782.453 -3.57711 3.59575 0
M  V30 6014 C 783.055 -4.80324 3.70476 0
M  V30 6015 N 784.232 -5.01121 4.23801 0
M  V30 6016 C 784.807 -3.84757 4.66372 0
M  V30 6017 H 787.103 -5.47604 4.85148 0
M  V30 6018 H 788.286 -2.8955 5.86187 0
M  V30 6019 H 789.769 -4.0121 7.36511 0
M  V30 6020 H 788.075 -5.81019 8.37003 0
M  V30 6021 H 787.885 -3.73517 9.52265 0
M  V30 6022 H 786.255 -3.97163 8.80359 0
M  V30 6023 H 782.519 -5.66348 3.3183 0
M  V30 6024 H 787.097 -1.98804 5.94332 0
M  V30 6025 H 781.489 -1.13147 3.4281 0
M  V30 6026 H 782.893 -0.344074 4.19692 0
M  V30 6027 H 788.895 -4.90891 4.01857 0
M  V30 6028 P 790.753 -5.75688 6.64379 0
M  V30 6029 O 792.175 -6.11849 7.01846 0
M  V30 6030 O 790.393 -4.30744 6.56026 0
M  V30 6031 O 790.43 -6.37042 5.19165 0
M  V30 6032 C 790.27 -7.83578 5.16515 0
M  V30 6033 C 790.81 -8.33398 3.83019 0
M  V30 6034 O 789.754 -8.10074 3.01034 0
M  V30 6035 C 792.028 -7.65514 3.2257 0
M  V30 6036 O 792.766 -8.4329 2.32297 0
M  V30 6037 C 791.359 -6.40075 2.62207 0
M  V30 6038 O 792.158 -5.92589 1.53712 0
M  V30 6039 C 790.022 -6.9454 2.18503 0
M  V30 6040 H 790.054 -7.23063 1.12091 0
M  V30 6041 H 791.237 -5.6025 3.37201 0
M  V30 6042 H 792.721 -7.35707 4.02681 0
M  V30 6043 H 791.027 -9.40912 3.9095 0
M  V30 6044 H 790.837 -8.29056 5.99158 0
M  V30 6045 H 789.207 -8.10073 5.25882 0
M  V30 6046 H 791.846 -6.30324 0.726794 0
M  V30 6047 P 793.703 -8.4349 2.47671 0
M  V30 6048 O 795.125 -8.94167 2.5964 0
M  V30 6049 O 793.343 -7.1704 3.19006 0
M  V30 6050 O 793.38 -8.16596 0.923387 0
M  V30 6051 C 793.22 -9.38437 0.108857 0
M  V30 6052 C 793.76 -9.08175 -1.28353 0
M  V30 6053 O 792.704 -8.44229 -1.84713 0
M  V30 6054 C 794.978 -8.18386 -1.42505 0
M  V30 6055 O 795.716 -8.3501 -2.60497 0
M  V30 6056 C 794.309 -6.80225 -1.25468 0
M  V30 6057 O 795.108 -5.81621 -1.91066 0
M  V30 6058 C 792.972 -7.02416 -1.9168 0
M  V30 6059 H 793.004 -6.6888 -2.96621 0
M  V30 6060 H 794.187 -6.53617 -0.192223 0
M  V30 6061 H 795.671 -8.36622 -0.589963 0
M  V30 6062 H 793.977 -10.0291 -1.79807 0
M  V30 6063 H 793.787 -10.2138 0.558219 0
M  V30 6064 H 792.157 -9.6579 0.0444202 0
M  V30 6065 H 794.796 -5.69556 -2.79637 0
M  V30 6066 P 796.654 -8.4349 -2.47671 0
M  V30 6067 O 798.076 -8.92593 -2.65 0
M  V30 6068 O 796.294 -7.7568 -1.19296 0
M  V30 6069 O 796.331 -7.36886 -3.63805 0
M  V30 6070 C 796.171 -7.95349 -4.982 0
M  V30 6071 C 796.711 -6.94612 -5.98974 0
M  V30 6072 O 795.655 -6.10347 -6.11815 0
M  V30 6073 C 797.929 -6.11426 -5.62335 0
M  V30 6074 O 798.667 -5.6162 -6.70584 0
M  V30 6075 C 797.26 -5.04409 -4.73308 0
M  V30 6076 O 798.059 -3.85992 -4.75183 0
M  V30 6077 C 795.923 -4.8728 -5.41006 0
M  V30 6078 H 795.955 -4.02333 -6.11157 0
M  V30 6079 H 797.138 -5.39466 -3.69543 0
M  V30 6080 H 798.622 -6.71916 -5.01943 0
M  V30 6081 H 796.928 -7.4649 -6.93477 0
M  V30 6082 H 796.738 -8.89416 -5.05237 0
M  V30 6083 H 795.108 -8.14876 -5.18409 0
M  V30 6084 H 797.747 -3.27957 -5.4317 0
M  V30 6085 P 799.604 -5.75688 -6.64379 0
M  V30 6086 O 801.026 -6.07627 -7.05504 0
M  V30 6087 O 799.244 -5.88047 -5.19722 0
M  V30 6088 O 799.281 -4.2322 -7.04443 0
M  V30 6089 C 799.121 -3.99743 -8.4911 0
M  V30 6090 C 799.661 -2.60516 -8.79425 0
M  V30 6091 O 798.605 -1.82684 -8.4467 0
M  V30 6092 C 800.879 -2.10343 -8.03628 0
M  V30 6093 O 801.617 -1.09919 -8.67766 0
M  V30 6094 C 800.21 -1.68446 -6.70876 0
M  V30 6095 O 801.009 -0.678137 -6.08433 0
M  V30 6096 C 798.873 -1.17436 -7.18567 0
M  V30 6097 H 798.905 -0.0804732 -7.31656 0
M  V30 6098 H 800.088 -2.54037 -6.02537 0
M  V30 6099 H 801.572 -2.93881 -7.85526 0
M  V30 6100 H 799.878 -2.53065 -9.86973 0
M  V30 6101 H 799.688 -4.75072 -9.05887 0
M  V30 6102 H 798.058 -4.05244 -8.76668 0
M  V30 6103 H 800.697 0.177647 -6.34251 0
M  V30 6104 P 802.555 -1.25109 -8.70152 0
M  V30 6105 O 803.976 -1.29758 -9.22115 0
M  V30 6106 O 802.195 -2.13714 -7.55141 0
M  V30 6107 O 802.232 0.248149 -8.21425 0
M  V30 6108 C 802.071 1.22792 -9.30533 0
M  V30 6109 C 802.612 2.56293 -8.80664 0
M  V30 6110 O 801.557 3.02944 -8.09255 0
M  V30 6111 C 803.83 2.57523 -7.89775 0
M  V30 6112 O 804.568 3.7668 -7.89438 0
M  V30 6113 C 803.162 2.20997 -6.55446 0
M  V30 6114 O 803.96 2.71302 -5.48691 0
M  V30 6115 C 801.824 2.89693 -6.67988 0
M  V30 6116 N 800.781 2.08895 -6.07487 0
M  V30 6117 C 800.95 0.753809 -5.94137 0
M  V30 6118 N 799.923 0.146592 -5.38801 0
M  V30 6119 C 799.038 1.1768 -5.13693 0
M  V30 6120 C 797.771 1.17563 -4.52477 0
M  V30 6121 N 797.206 2.41918 -4.45789 0
M  V30 6122 C 797.808 3.56493 -4.90792 0
M  V30 6123 N 798.985 3.61423 -5.47817 0
M  V30 6124 C 799.56 2.37779 -5.5588 0
M  V30 6125 H 803.039 1.12673 -6.44018 0
M  V30 6126 H 804.522 1.7746 -8.19711 0
M  V30 6127 H 802.828 3.21673 -9.66791 0
M  V30 6128 H 802.638 0.901032 -10.1892 0
M  V30 6129 H 801.008 1.33049 -9.56592 0
M  V30 6130 H 801.85 0.233081 -6.26266 0
M  V30 6131 H 803.648 3.5779 -5.23879 0
M  V30 6132 P 805.506 3.65191 -7.99657 0
M  V30 6133 O 806.927 3.89374 -8.45885 0
M  V30 6134 O 805.146 2.28472 -7.50807 0
M  V30 6135 O 805.183 4.64972 -6.77611 0
M  V30 6136 C 805.022 6.06383 -7.16428 0
M  V30 6137 C 805.563 6.91731 -6.02299 0
M  V30 6138 O 804.508 6.92369 -5.17005 0
M  V30 6139 C 806.781 6.43627 -5.25174 0
M  V30 6140 O 807.519 7.43686 -4.60469 0
M  V30 6141 C 806.113 5.40275 -4.31916 0
M  V30 6142 O 806.911 5.24878 -3.14911 0
M  V30 6143 C 804.775 6.04847 -4.05327 0
M  V30 6144 N 803.732 5.04166 -3.98114 0
M  V30 6145 C 803.901 3.84629 -4.59066 0
M  V30 6146 N 802.874 3.0363 -4.45343 0
M  V30 6147 C 801.989 3.76722 -3.68523 0
M  V30 6148 C 800.722 3.43528 -3.17088 0
M  V30 6149 N 800.157 4.44526 -2.44231 0
M  V30 6150 C 800.759 5.65243 -2.20146 0
M  V30 6151 N 801.936 6.00221 -2.65453 0
M  V30 6152 C 802.511 5.00564 -3.39083 0
M  V30 6153 H 805.99 4.42969 -4.80867 0
M  V30 6154 H 807.473 5.92458 -5.93643 0
M  V30 6155 H 805.779 7.93295 -6.39407 0
M  V30 6156 H 805.589 6.26671 -8.0846 0
M  V30 6157 H 803.959 6.29101 -7.32804 0
M  V30 6158 H 804.801 3.58193 -5.14248 0
M  V30 6159 H 806.599 5.84223 -2.47279 0
M  V30 6160 P 808.456 7.39546 -4.75277 0
M  V30 6161 O 809.878 7.84798 -5.01039 0
M  V30 6162 O 808.096 5.9812 -5.08098 0
M  V30 6163 O 808.133 7.57503 -3.1866 0
M  V30 6164 C 807.973 8.97357 -2.74833 0
M  V30 6165 C 808.513 9.07548 -1.32709 0
M  V30 6166 O 807.457 8.62072 -0.606159 0
M  V30 6167 C 809.731 8.25383 -0.938334 0
M  V30 6168 O 810.469 8.74577 0.146954 0
M  V30 6169 C 809.062 6.8802 -0.712559 0
M  V30 6170 O 809.861 6.1189 0.194655 0
M  V30 6171 C 807.725 7.27966 -0.139777 0
M  V30 6172 H 807.757 7.25354 0.961601 0
M  V30 6173 H 808.94 6.32557 -1.65702 0
M  V30 6174 H 810.424 8.19355 -1.79097 0
M  V30 6175 H 808.73 10.1294 -1.10029 0
M  V30 6176 H 808.54 9.64276 -3.41316 0
M  V30 6177 H 806.91 9.25417 -2.76357 0
M  V30 6178 H 809.549 6.25267 1.07847 0
M  V30 6179 P 811.407 8.791 6.00516e-12 0
M  V30 6180 O 812.829 9.31096 0.027933 0
M  V30 6181 O 811.047 7.77869 -1.04071 0
M  V30 6182 O 811.084 8.09533 1.41463 0
M  V30 6183 C 810.924 9.0349 2.53943 0
M  V30 6184 C 811.464 8.35226 3.79016 0
M  V30 6185 O 810.408 7.57992 4.15078 0
M  V30 6186 C 812.682 7.45087 3.67298 0
M  V30 6187 O 813.42 7.27796 4.85194 0
M  V30 6188 C 812.013 6.17323 3.12027 0
M  V30 6189 O 812.812 5.04231 3.47188 0
M  V30 6190 C 810.676 6.19961 3.81809 0
M  V30 6191 H 810.708 5.58218 4.73051 0
M  V30 6192 H 811.891 6.21726 2.02589 0
M  V30 6193 H 813.375 7.86112 2.9231 0
M  V30 6194 H 811.681 9.11627 4.55076 0
M  V30 6195 H 811.491 9.9573 2.34194 0
M  V30 6196 H 809.861 9.2792 2.67832 0
M  V30 6197 H 812.5 4.67702 4.28772 0
M  V30 6198 P 814.357 7.39546 4.75277 0
M  V30 6199 O 815.779 7.81777 5.05738 0
M  V30 6200 O 813.997 7.1065 3.32998 0
M  V30 6201 O 814.034 6.04542 5.56673 0
M  V30 6202 C 813.874 6.22772 7.02095 0
M  V30 6203 C 814.414 4.97725 7.70406 0
M  V30 6204 O 813.358 4.13256 7.58987 0
M  V30 6205 C 815.632 4.28231 7.11815 0
M  V30 6206 O 816.37 3.49945 8.01648 0
M  V30 6207 C 814.963 3.5063 5.96244 0
M  V30 6208 O 815.762 2.36482 5.64681 0
M  V30 6209 C 813.626 3.15122 6.56374 0
M  V30 6210 H 813.658 2.13853 6.99751 0
M  V30 6211 H 814.841 4.13501 5.06559 0
M  V30 6212 H 816.325 5.03285 6.70911 0
M  V30 6213 H 814.631 5.20877 8.75697 0
M  V30 6214 H 814.441 7.11046 7.35349 0
M  V30 6215 H 812.811 6.35815 7.26986 0
M  V30 6216 H 815.45 1.61644 6.13565 0
M  V30 6217 P 817.308 3.65191 7.99657 0
M  V30 6218 O 818.73 3.8425 8.48115 0
M  V30 6219 O 816.948 4.17805 6.64342 0
M  V30 6220 O 816.985 2.07613 7.95143 0
M  V30 6221 C 816.825 1.44328 9.27336 0
M  V30 6222 C 817.365 0.0220036 9.17197 0
M  V30 6223 O 816.309 -0.626867 8.61923 0
M  V30 6224 C 818.583 -0.24586 8.30336 0
M  V30 6225 O 819.321 -1.39011 8.63583 0
M  V30 6226 C 817.914 -0.273849 6.91158 0
M  V30 6227 O 818.713 -1.06348 6.02892 0
M  V30 6228 C 816.577 -0.897649 7.22545 0
M  V30 6229 H 816.609 -1.9841 7.04286 0
M  V30 6230 H 817.792 0.739928 6.497 0
M  V30 6231 H 819.276 0.60668 8.36503 0
M  V30 6232 H 817.582 -0.352479 10.1829 0
M  V30 6233 H 817.392 2.00611 10.0304 0
M  V30 6234 H 815.762 1.41843 9.55327 0
M  V30 6235 H 818.401 -1.95734 6.03555 0
M  V30 6236 P 820.258 -1.25109 8.70152 0
M  V30 6237 O 821.68 -1.35274 9.21221 0
M  V30 6238 O 819.898 -0.0769065 7.84762 0
M  V30 6239 O 819.935 -2.55232 7.81161 0
M  V30 6240 C 819.775 -3.79939 8.58154 0
M  V30 6241 C 820.315 -4.94023 7.72785 0
M  V30 6242 O 819.259 -5.18726 6.91205 0
M  V30 6243 C 821.533 -4.69597 6.85231 0
M  V30 6244 O 822.271 -5.83832 6.51337 0
M  V30 6245 C 820.864 -3.96706 5.66633 0
M  V30 6246 O 821.663 -4.15414 4.49689 0
M  V30 6247 C 819.527 -4.66153 5.59313 0
M  V30 6248 H 819.559 -5.47679 4.85214 0
M  V30 6249 H 820.742 -2.89008 5.86566 0
M  V30 6250 H 822.226 -4.0121 7.36511 0
M  V30 6251 H 820.532 -5.80182 8.37584 0
M  V30 6252 H 820.342 -3.73517 9.52265 0
M  V30 6253 H 818.712 -3.97163 8.80359 0
M  V30 6254 H 821.351 -4.90969 4.01921 0
M  V30 6255 P 823.209 -5.75688 6.64379 0
M  V30 6256 O 824.63 -6.11915 7.01921 0
M  V30 6257 O 822.849 -4.30744 6.56026 0
M  V30 6258 O 822.886 -6.37042 5.19165 0
M  V30 6259 C 822.725 -7.83662 5.1657 0
M  V30 6260 C 823.266 -8.33398 3.83019 0
M  V30 6261 O 822.211 -8.0998 3.00999 0
M  V30 6262 C 824.484 -7.65514 3.2257 0
M  V30 6263 O 825.222 -8.4329 2.32297 0
M  V30 6264 C 823.816 -6.40075 2.62207 0
M  V30 6265 O 824.614 -5.92338 1.5428 0
M  V30 6266 C 822.478 -6.9454 2.18503 0
M  V30 6267 N 821.435 -5.95905 2.39948 0
M  V30 6268 C 821.604 -4.98383 3.32108 0
M  V30 6269 N 820.577 -4.16798 3.41761 0
M  V30 6270 C 819.692 -4.65287 2.47461 0
M  V30 6271 C 818.425 -4.18946 2.07461 0
M  V30 6272 N 817.826 -3.09661 2.60717 0
M  V30 6273 N 817.86 -4.95327 1.09101 0
M  V30 6274 C 818.462 -6.04369 0.519812 0
M  V30 6275 N 819.639 -6.50694 0.855982 0
M  V30 6276 C 820.214 -5.75818 1.84322 0
M  V30 6277 H 822.51 -7.22964 1.12076 0
M  V30 6278 H 823.693 -5.60502 3.36589 0
M  V30 6279 H 825.176 -7.35707 4.02681 0
M  V30 6280 H 823.482 -9.41302 3.90009 0
M  V30 6281 H 823.292 -8.29056 5.99158 0
M  V30 6282 H 821.662 -8.10073 5.25882 0
M  V30 6283 H 817.926 -6.55843 -0.270373 0
M  V30 6284 H 822.504 -4.88564 3.92502 0
M  V30 6285 H 816.896 -2.80523 2.27218 0
M  V30 6286 H 818.3 -2.55848 3.34465 0
M  V30 6287 H 824.302 -6.30224 0.72668 0
M  V30 6288 P 826.16 -8.4349 2.47671 0
M  V30 6289 O 827.582 -8.94167 2.5964 0
M  V30 6290 O 825.8 -7.1704 3.19006 0
M  V30 6291 O 825.837 -8.16596 0.923387 0
M  V30 6292 C 825.677 -9.38437 0.108857 0
M  V30 6293 C 826.217 -9.08175 -1.28353 0
M  V30 6294 O 825.161 -8.44229 -1.84713 0
M  V30 6295 C 827.435 -8.18386 -1.42505 0
M  V30 6296 O 828.173 -8.3501 -2.60497 0
M  V30 6297 C 826.766 -6.80225 -1.25468 0
M  V30 6298 O 827.565 -5.81621 -1.91066 0
M  V30 6299 C 825.429 -7.02416 -1.9168 0
M  V30 6300 H 825.461 -6.6888 -2.96621 0
M  V30 6301 H 826.644 -6.53617 -0.192223 0
M  V30 6302 H 828.128 -8.36622 -0.589963 0
M  V30 6303 H 826.434 -10.0291 -1.79807 0
M  V30 6304 H 826.244 -10.2138 0.558219 0
M  V30 6305 H 824.614 -9.6579 0.0444202 0
M  V30 6306 H 827.253 -5.69556 -2.79637 0
M  V30 6307 P 829.11 -8.4349 -2.47671 0
M  V30 6308 O 830.511 -8.99283 -2.62101 0
M  V30 6309 O 828.732 -7.81195 -1.16947 0
M  V30 6310 O 828.787 -7.36797 -3.63761 0
M  V30 6311 C 828.627 -7.95349 -4.982 0
M  V30 6312 C 829.167 -6.94537 -5.98908 0
M  V30 6313 O 828.111 -6.10277 -6.11744 0
M  V30 6314 C 830.384 -6.11426 -5.62335 0
M  V30 6315 O 831.123 -5.6162 -6.70584 0
M  V30 6316 C 829.717 -5.04409 -4.73308 0
M  V30 6317 O 830.515 -3.85929 -4.75106 0
M  V30 6318 C 828.379 -4.8728 -5.41006 0
M  V30 6319 N 827.336 -4.65812 -4.42377 0
M  V30 6320 C 826.301 -3.81293 -4.74224 0
M  V30 6321 O 826.34 -3.20533 -5.83679 0
M  V30 6322 N 825.289 -3.6442 -3.86349 0
M  V30 6323 C 825.337 -4.2728 -2.6824 0
M  V30 6324 C 826.433 -5.10813 -2.3217 0
M  V30 6325 C 827.399 -5.27909 -3.22647 0
M  V30 6326 H 828.411 -4.02278 -6.11074 0
M  V30 6327 H 829.594 -5.39013 -3.70026 0
M  V30 6328 H 831.078 -6.71494 -5.02675 0
M  V30 6329 H 829.384 -7.45796 -6.94223 0
M  V30 6330 H 829.193 -8.89416 -5.05237 0
M  V30 6331 H 827.563 -8.14791 -5.18355 0
M  V30 6332 H 826.481 -5.58884 -1.34755 0
M  V30 6333 H 828.245 -5.92811 -2.9934 0
M  V30 6334 H 830.299 -3.3454 -5.51577 0
M  V30 6335 P 832.061 -5.75688 -6.64379 0
M  V30 6336 O 833.483 -6.07627 -7.05504 0
M  V30 6337 O 831.701 -5.88047 -5.19722 0
M  V30 6338 O 831.738 -4.2322 -7.04443 0
M  V30 6339 C 831.578 -3.99743 -8.4911 0
M  V30 6340 C 832.118 -2.60516 -8.79425 0
M  V30 6341 O 831.062 -1.82684 -8.4467 0
M  V30 6342 C 833.336 -2.10343 -8.03628 0
M  V30 6343 O 834.074 -1.09919 -8.67766 0
M  V30 6344 C 832.667 -1.68446 -6.70876 0
M  V30 6345 O 833.466 -0.678137 -6.08433 0
M  V30 6346 C 831.33 -1.17436 -7.18567 0
M  V30 6347 H 831.362 -0.0804732 -7.31656 0
M  V30 6348 H 832.545 -2.54037 -6.02537 0
M  V30 6349 H 834.029 -2.93881 -7.85526 0
M  V30 6350 H 832.335 -2.53065 -9.86973 0
M  V30 6351 H 832.145 -4.75072 -9.05887 0
M  V30 6352 H 830.515 -4.05244 -8.76668 0
M  V30 6353 H 833.154 0.177647 -6.34251 0
M  V30 6354 P 835.011 -1.25109 -8.70152 0
M  V30 6355 O 836.433 -1.29744 -9.22016 0
M  V30 6356 O 834.651 -2.13714 -7.55141 0
M  V30 6357 O 834.688 0.248149 -8.21425 0
M  V30 6358 C 834.528 1.22779 -9.30434 0
M  V30 6359 C 835.068 2.56293 -8.80664 0
M  V30 6360 O 834.012 3.02979 -8.09349 0
M  V30 6361 C 836.286 2.57523 -7.89775 0
M  V30 6362 O 837.024 3.7668 -7.89438 0
M  V30 6363 C 835.617 2.20997 -6.55446 0
M  V30 6364 O 836.416 2.71895 -5.48509 0
M  V30 6365 C 834.28 2.89693 -6.67988 0
M  V30 6366 H 834.312 3.88793 -6.19859 0
M  V30 6367 H 835.495 1.12046 -6.44229 0
M  V30 6368 H 836.979 1.7746 -8.19711 0
M  V30 6369 H 835.285 3.20706 -9.67112 0
M  V30 6370 H 835.095 0.901032 -10.1892 0
M  V30 6371 H 833.465 1.33049 -9.56592 0
M  V30 6372 H 836.104 3.57847 -5.23962 0
M  V30 6373 P 837.962 3.65191 -7.99657 0
M  V30 6374 O 839.384 3.89332 -8.45794 0
M  V30 6375 O 837.602 2.28472 -7.50807 0
M  V30 6376 O 837.639 4.64972 -6.77611 0
M  V30 6377 C 837.479 6.06319 -7.16352 0
M  V30 6378 C 838.019 6.91731 -6.02299 0
M  V30 6379 O 836.963 6.92449 -5.17064 0
M  V30 6380 C 839.237 6.43627 -5.25174 0
M  V30 6381 O 839.975 7.43686 -4.60469 0
M  V30 6382 C 838.568 5.40275 -4.31916 0
M  V30 6383 O 839.367 5.25279 -3.14438 0
M  V30 6384 C 837.231 6.04847 -4.05327 0
M  V30 6385 H 837.263 6.62195 -3.11261 0
M  V30 6386 H 838.446 4.42556 -4.81383 0
M  V30 6387 H 839.93 5.92458 -5.93643 0
M  V30 6388 H 838.236 7.92655 -6.402 0
M  V30 6389 H 838.046 6.26671 -8.0846 0
M  V30 6390 H 836.416 6.29101 -7.32804 0
M  V30 6391 H 839.055 5.84315 -2.47318 0
M  V30 6392 P 840.912 7.39546 -4.75277 0
M  V30 6393 O 842.334 7.84798 -5.01039 0
M  V30 6394 O 840.552 5.9812 -5.08098 0
M  V30 6395 O 840.589 7.57503 -3.1866 0
M  V30 6396 C 840.429 8.97357 -2.74833 0
M  V30 6397 C 840.969 9.07548 -1.32709 0
M  V30 6398 O 839.913 8.62072 -0.606159 0
M  V30 6399 C 842.187 8.25383 -0.938334 0
M  V30 6400 O 842.925 8.74577 0.146954 0
M  V30 6401 C 841.518 6.8802 -0.712559 0
M  V30 6402 O 842.317 6.1189 0.194655 0
M  V30 6403 C 840.181 7.27966 -0.139777 0
M  V30 6404 H 840.213 7.25354 0.961601 0
M  V30 6405 H 841.396 6.32557 -1.65702 0
M  V30 6406 H 842.88 8.19355 -1.79097 0
M  V30 6407 H 841.186 10.1294 -1.10029 0
M  V30 6408 H 840.996 9.64276 -3.41316 0
M  V30 6409 H 839.366 9.25417 -2.76357 0
M  V30 6410 H 842.005 6.25267 1.07847 0
M  V30 6411 P 843.863 8.791 6.31533e-12 0
M  V30 6412 O 845.285 9.31296 0.027939 0
M  V30 6413 O 843.503 7.77869 -1.04071 0
M  V30 6414 O 843.54 8.09533 1.41463 0
M  V30 6415 C 843.38 9.0349 2.53943 0
M  V30 6416 C 843.92 8.35135 3.78975 0
M  V30 6417 O 842.865 7.57992 4.15078 0
M  V30 6418 C 845.138 7.45087 3.67298 0
M  V30 6419 O 845.876 7.27796 4.85194 0
M  V30 6420 C 844.47 6.17323 3.12027 0
M  V30 6421 O 845.268 5.04149 3.47132 0
M  V30 6422 C 843.132 6.19961 3.81809 0
M  V30 6423 N 842.089 5.71575 2.93223 0
M  V30 6424 C 842.151 5.97133 1.62693 0
M  V30 6425 N 841.106 5.44066 0.984414 0
M  V30 6426 C 840.372 4.87093 1.93987 0
M  V30 6427 C 839.066 4.26449 1.8738 0
M  V30 6428 O 838.333 4.1089 0.884377 0
M  V30 6429 N 838.636 3.82483 3.08036 0
M  V30 6430 C 839.385 3.95124 4.27727 0
M  V30 6431 N 838.788 3.4084 5.39089 0
M  V30 6432 N 840.538 4.55264 4.3706 0
M  V30 6433 C 840.995 5.00861 3.18217 0
M  V30 6434 H 843.164 5.58218 4.73051 0
M  V30 6435 H 844.347 6.21631 2.02558 0
M  V30 6436 H 845.832 7.85819 2.93096 0
M  V30 6437 H 844.137 9.11627 4.55076 0
M  V30 6438 H 843.947 9.9573 2.34194 0
M  V30 6439 H 842.316 9.2792 2.67832 0
M  V30 6440 H 837.74 3.38323 3.1329 0
M  V30 6441 H 842.947 6.53891 1.14265 0
M  V30 6442 H 837.877 2.93852 5.30559 0
M  V30 6443 H 839.253 3.47631 6.30632 0
M  V30 6444 H 844.957 4.67628 4.28704 0
M  V30 6445 P 846.814 7.39546 4.75277 0
M  V30 6446 O 848.236 7.81777 5.05738 0
M  V30 6447 O 846.454 7.1065 3.32998 0
M  V30 6448 O 846.491 6.04542 5.56673 0
M  V30 6449 C 846.331 6.22772 7.02095 0
M  V30 6450 C 846.871 4.97725 7.70406 0
M  V30 6451 O 845.815 4.13256 7.58987 0
M  V30 6452 C 848.089 4.28231 7.11815 0
M  V30 6453 O 848.827 3.49945 8.01648 0
M  V30 6454 C 847.42 3.5063 5.96244 0
M  V30 6455 O 848.219 2.36482 5.64681 0
M  V30 6456 C 846.083 3.15122 6.56374 0
M  V30 6457 H 846.115 2.13853 6.99751 0
M  V30 6458 H 847.298 4.13501 5.06559 0
M  V30 6459 H 848.782 5.03285 6.70911 0
M  V30 6460 H 847.088 5.20877 8.75697 0
M  V30 6461 H 846.898 7.11046 7.35349 0
M  V30 6462 H 845.268 6.35815 7.26986 0
M  V30 6463 H 847.907 1.61644 6.13565 0
M  V30 6464 P 849.764 3.65191 7.99657 0
M  V30 6465 O 851.186 3.8425 8.48115 0
M  V30 6466 O 849.404 4.17805 6.64342 0
M  V30 6467 O 849.441 2.07613 7.95143 0
M  V30 6468 C 849.281 1.44328 9.27336 0
M  V30 6469 C 849.821 0.0220036 9.17197 0
M  V30 6470 O 848.765 -0.626867 8.61923 0
M  V30 6471 C 851.039 -0.24586 8.30336 0
M  V30 6472 O 851.777 -1.39011 8.63583 0
M  V30 6473 C 850.37 -0.273849 6.91158 0
M  V30 6474 O 851.169 -1.06348 6.02892 0
M  V30 6475 C 849.033 -0.897649 7.22545 0
M  V30 6476 H 849.065 -1.9841 7.04286 0
M  V30 6477 H 850.248 0.739928 6.497 0
M  V30 6478 H 851.732 0.60668 8.36503 0
M  V30 6479 H 850.038 -0.352479 10.1829 0
M  V30 6480 H 849.848 2.00611 10.0304 0
M  V30 6481 H 848.218 1.41843 9.55327 0
M  V30 6482 H 850.857 -1.95734 6.03555 0
M  V30 6483 P 852.715 -1.25109 8.70152 0
M  V30 6484 O 854.137 -1.35274 9.21221 0
M  V30 6485 O 852.355 -0.0769065 7.84762 0
M  V30 6486 O 852.392 -2.55232 7.81161 0
M  V30 6487 C 852.232 -3.79939 8.58154 0
M  V30 6488 C 852.772 -4.94023 7.72785 0
M  V30 6489 O 851.716 -5.18726 6.91205 0
M  V30 6490 C 853.99 -4.69597 6.85231 0
M  V30 6491 O 854.728 -5.83832 6.51337 0
M  V30 6492 C 853.321 -3.96706 5.66633 0
M  V30 6493 O 854.12 -4.15414 4.49689 0
M  V30 6494 C 851.984 -4.66153 5.59313 0
M  V30 6495 H 852.016 -5.47679 4.85214 0
M  V30 6496 H 853.199 -2.89008 5.86566 0
M  V30 6497 H 854.683 -4.0121 7.36511 0
M  V30 6498 H 852.989 -5.80182 8.37584 0
M  V30 6499 H 852.799 -3.73517 9.52265 0
M  V30 6500 H 851.169 -3.97163 8.80359 0
M  V30 6501 H 853.808 -4.90969 4.01921 0
M  V30 6502 P 855.665 -5.75688 6.64379 0
M  V30 6503 O 857.087 -6.11849 7.01846 0
M  V30 6504 O 855.305 -4.30744 6.56026 0
M  V30 6505 O 855.342 -6.37042 5.19165 0
M  V30 6506 C 855.182 -7.83578 5.16515 0
M  V30 6507 C 855.722 -8.33398 3.83019 0
M  V30 6508 O 854.666 -8.10074 3.01034 0
M  V30 6509 C 856.94 -7.65514 3.2257 0
M  V30 6510 O 857.678 -8.4329 2.32297 0
M  V30 6511 C 856.271 -6.40075 2.62207 0
M  V30 6512 O 857.07 -5.92589 1.53712 0
M  V30 6513 C 854.934 -6.9454 2.18503 0
M  V30 6514 H 854.966 -7.23063 1.12091 0
M  V30 6515 H 856.149 -5.6025 3.37201 0
M  V30 6516 H 857.633 -7.35707 4.02681 0
M  V30 6517 H 855.939 -9.40912 3.9095 0
M  V30 6518 H 855.749 -8.29056 5.99158 0
M  V30 6519 H 854.119 -8.10073 5.25882 0
M  V30 6520 H 856.758 -6.30324 0.726794 0
M  V30 6521 P 858.616 -8.4349 2.47671 0
M  V30 6522 O 860.038 -8.94167 2.5964 0
M  V30 6523 O 858.256 -7.1704 3.19006 0
M  V30 6524 O 858.293 -8.16596 0.923387 0
M  V30 6525 C 858.133 -9.38437 0.108857 0
M  V30 6526 C 858.673 -9.08175 -1.28353 0
M  V30 6527 O 857.617 -8.44229 -1.84713 0
M  V30 6528 C 859.891 -8.18386 -1.42505 0
M  V30 6529 O 860.629 -8.3501 -2.60497 0
M  V30 6530 C 859.222 -6.80225 -1.25468 0
M  V30 6531 O 860.021 -5.81621 -1.91066 0
M  V30 6532 C 857.885 -7.02416 -1.9168 0
M  V30 6533 H 857.917 -6.6888 -2.96621 0
M  V30 6534 H 859.1 -6.53617 -0.192223 0
M  V30 6535 H 860.584 -8.36622 -0.589963 0
M  V30 6536 H 858.89 -10.0291 -1.79807 0
M  V30 6537 H 858.7 -10.2138 0.558219 0
M  V30 6538 H 857.07 -9.6579 0.0444202 0
M  V30 6539 H 859.709 -5.69556 -2.79637 0
M  V30 6540 P 861.566 -8.4349 -2.47671 0
M  V30 6541 O 862.988 -8.92593 -2.65 0
M  V30 6542 O 861.206 -7.7568 -1.19296 0
M  V30 6543 O 861.243 -7.36886 -3.63805 0
M  V30 6544 C 861.083 -7.95349 -4.982 0
M  V30 6545 C 861.623 -6.94612 -5.98974 0
M  V30 6546 O 860.567 -6.10347 -6.11815 0
M  V30 6547 C 862.841 -6.11426 -5.62335 0
M  V30 6548 O 863.579 -5.6162 -6.70584 0
M  V30 6549 C 862.172 -5.04409 -4.73308 0
M  V30 6550 O 862.971 -3.85992 -4.75183 0
M  V30 6551 C 860.835 -4.8728 -5.41006 0
M  V30 6552 H 860.867 -4.02333 -6.11157 0
M  V30 6553 H 862.05 -5.39466 -3.69543 0
M  V30 6554 H 863.534 -6.71916 -5.01943 0
M  V30 6555 H 861.84 -7.4649 -6.93477 0
M  V30 6556 H 861.65 -8.89416 -5.05237 0
M  V30 6557 H 860.02 -8.14876 -5.18409 0
M  V30 6558 H 862.659 -3.27957 -5.4317 0
M  V30 6559 P 864.517 -5.75688 -6.64379 0
M  V30 6560 O 865.939 -6.07627 -7.05504 0
M  V30 6561 O 864.157 -5.88047 -5.19722 0
M  V30 6562 O 864.194 -4.2322 -7.04443 0
M  V30 6563 C 864.034 -3.99743 -8.4911 0
M  V30 6564 C 864.574 -2.60516 -8.79425 0
M  V30 6565 O 863.518 -1.82684 -8.4467 0
M  V30 6566 C 865.792 -2.10343 -8.03628 0
M  V30 6567 O 866.53 -1.09919 -8.67766 0
M  V30 6568 C 865.123 -1.68446 -6.70876 0
M  V30 6569 O 865.922 -0.678137 -6.08433 0
M  V30 6570 C 863.786 -1.17436 -7.18567 0
M  V30 6571 H 863.818 -0.0804732 -7.31656 0
M  V30 6572 H 865.001 -2.54037 -6.02537 0
M  V30 6573 H 866.485 -2.93881 -7.85526 0
M  V30 6574 H 864.791 -2.53065 -9.86973 0
M  V30 6575 H 864.601 -4.75072 -9.05887 0
M  V30 6576 H 862.971 -4.05244 -8.76668 0
M  V30 6577 H 865.61 0.177647 -6.34251 0
M  V30 6578 P 867.468 -1.25109 -8.70152 0
M  V30 6579 O 868.89 -1.29772 -9.22214 0
M  V30 6580 O 867.108 -2.13714 -7.55141 0
M  V30 6581 O 867.145 0.248149 -8.21425 0
M  V30 6582 C 866.985 1.22779 -9.30434 0
M  V30 6583 C 867.525 2.56265 -8.80568 0
M  V30 6584 O 866.47 3.02979 -8.09349 0
M  V30 6585 C 868.743 2.57523 -7.89775 0
M  V30 6586 O 869.481 3.7668 -7.89438 0
M  V30 6587 C 868.075 2.20997 -6.55446 0
M  V30 6588 O 868.873 2.71851 -5.48419 0
M  V30 6589 C 866.737 2.89693 -6.67988 0
M  V30 6590 N 865.694 2.08895 -6.07487 0
M  V30 6591 C 865.756 0.760559 -6.14209 0
M  V30 6592 N 864.711 0.200108 -5.52538 0
M  V30 6593 C 863.977 1.22692 -5.09742 0
M  V30 6594 C 862.671 1.24782 -4.48775 0
M  V30 6595 O 861.938 0.290617 -4.19294 0
M  V30 6596 N 862.241 2.50468 -4.22428 0
M  V30 6597 C 862.99 3.67142 -4.51974 0
M  V30 6598 N 862.393 4.85096 -4.14091 0
M  V30 6599 N 864.143 3.67821 -5.12831 0
M  V30 6600 C 864.6 2.43698 -5.4105 0
M  V30 6601 H 866.769 3.88793 -6.19859 0
M  V30 6602 H 867.952 1.12029 -6.4413 0
M  V30 6603 H 869.437 1.78279 -8.19533 0
M  V30 6604 H 867.742 3.20706 -9.67112 0
M  V30 6605 H 867.552 0.901032 -10.1892 0
M  V30 6606 H 865.921 1.33049 -9.56592 0
M  V30 6607 H 861.345 2.61953 -3.79465 0
M  V30 6608 H 866.552 0.200439 -6.63497 0
M  V30 6609 H 861.482 4.8334 -3.66367 0
M  V30 6610 H 862.858 5.7474 -4.33841 0
M  V30 6611 H 868.562 3.5779 -5.23879 0
M  V30 6612 P 870.418 3.65191 -7.99657 0
M  V30 6613 O 871.84 3.89332 -8.45794 0
M  V30 6614 O 870.058 2.28472 -7.50807 0
M  V30 6615 O 870.095 4.64972 -6.77611 0
M  V30 6616 C 869.935 6.06319 -7.16352 0
M  V30 6617 C 870.475 6.91731 -6.02299 0
M  V30 6618 O 869.419 6.92449 -5.17064 0
M  V30 6619 C 871.693 6.43627 -5.25174 0
M  V30 6620 O 872.431 7.43686 -4.60469 0
M  V30 6621 C 871.024 5.40275 -4.31916 0
M  V30 6622 O 871.823 5.25279 -3.14438 0
M  V30 6623 C 869.687 6.04847 -4.05327 0
M  V30 6624 H 869.719 6.62195 -3.11261 0
M  V30 6625 H 870.902 4.42556 -4.81383 0
M  V30 6626 H 872.386 5.92458 -5.93643 0
M  V30 6627 H 870.692 7.92655 -6.402 0
M  V30 6628 H 870.502 6.26671 -8.0846 0
M  V30 6629 H 868.872 6.29101 -7.32804 0
M  V30 6630 H 871.511 5.84315 -2.47318 0
M  V30 6631 P 873.369 7.39546 -4.75277 0
M  V30 6632 O 874.791 7.84798 -5.01039 0
M  V30 6633 O 873.009 5.9812 -5.08098 0
M  V30 6634 O 873.046 7.57503 -3.1866 0
M  V30 6635 C 872.886 8.97357 -2.74833 0
M  V30 6636 C 873.426 9.07548 -1.32709 0
M  V30 6637 O 872.37 8.62072 -0.606159 0
M  V30 6638 C 874.644 8.25383 -0.938334 0
M  V30 6639 O 875.382 8.74577 0.146954 0
M  V30 6640 C 873.975 6.8802 -0.712559 0
M  V30 6641 O 874.774 6.1189 0.194655 0
M  V30 6642 C 872.638 7.27966 -0.139777 0
M  V30 6643 H 872.67 7.25354 0.961601 0
M  V30 6644 H 873.853 6.32557 -1.65702 0
M  V30 6645 H 875.337 8.19355 -1.79097 0
M  V30 6646 H 873.643 10.1294 -1.10029 0
M  V30 6647 H 873.453 9.64276 -3.41316 0
M  V30 6648 H 871.823 9.25417 -2.76357 0
M  V30 6649 H 874.462 6.25267 1.07847 0
M  V30 6650 P 876.319 8.791 6.62549e-12 0
M  V30 6651 O 877.741 9.31096 0.027933 0
M  V30 6652 O 875.959 7.77869 -1.04071 0
M  V30 6653 O 875.996 8.09533 1.41463 0
M  V30 6654 C 875.836 9.0349 2.53943 0
M  V30 6655 C 876.376 8.35226 3.79016 0
M  V30 6656 O 875.32 7.57992 4.15078 0
M  V30 6657 C 877.594 7.45087 3.67298 0
M  V30 6658 O 878.332 7.27796 4.85194 0
M  V30 6659 C 876.925 6.17323 3.12027 0
M  V30 6660 O 877.724 5.04231 3.47188 0
M  V30 6661 C 875.588 6.19961 3.81809 0
M  V30 6662 H 875.62 5.58218 4.73051 0
M  V30 6663 H 876.803 6.21726 2.02589 0
M  V30 6664 H 878.287 7.86112 2.9231 0
M  V30 6665 H 876.593 9.11627 4.55076 0
M  V30 6666 H 876.403 9.9573 2.34194 0
M  V30 6667 H 874.773 9.2792 2.67832 0
M  V30 6668 H 877.412 4.67702 4.28772 0
M  V30 6669 P 879.27 7.39546 4.75277 0
M  V30 6670 O 880.692 7.81777 5.05738 0
M  V30 6671 O 878.91 7.1065 3.32998 0
M  V30 6672 O 878.947 6.04542 5.56673 0
M  V30 6673 C 878.787 6.22772 7.02095 0
M  V30 6674 C 879.327 4.97725 7.70406 0
M  V30 6675 O 878.271 4.13256 7.58987 0
M  V30 6676 C 880.545 4.28231 7.11815 0
M  V30 6677 O 881.283 3.49945 8.01648 0
M  V30 6678 C 879.876 3.5063 5.96244 0
M  V30 6679 O 880.675 2.36482 5.64681 0
M  V30 6680 C 878.539 3.15122 6.56374 0
M  V30 6681 H 878.571 2.13853 6.99751 0
M  V30 6682 H 879.754 4.13501 5.06559 0
M  V30 6683 H 881.238 5.03285 6.70911 0
M  V30 6684 H 879.544 5.20877 8.75697 0
M  V30 6685 H 879.354 7.11046 7.35349 0
M  V30 6686 H 877.724 6.35815 7.26986 0
M  V30 6687 H 880.363 1.61644 6.13565 0
M  V30 6688 P 882.22 3.65191 7.99657 0
M  V30 6689 O 883.642 3.8425 8.48115 0
M  V30 6690 O 881.86 4.17805 6.64342 0
M  V30 6691 O 881.897 2.07613 7.95143 0
M  V30 6692 C 881.737 1.44328 9.27336 0
M  V30 6693 C 882.277 0.0220036 9.17197 0
M  V30 6694 O 881.221 -0.626867 8.61923 0
M  V30 6695 C 883.495 -0.24586 8.30336 0
M  V30 6696 O 884.233 -1.39011 8.63583 0
M  V30 6697 C 882.826 -0.273849 6.91158 0
M  V30 6698 O 883.625 -1.06348 6.02892 0
M  V30 6699 C 881.489 -0.897649 7.22545 0
M  V30 6700 H 881.521 -1.9841 7.04286 0
M  V30 6701 H 882.704 0.739928 6.497 0
M  V30 6702 H 884.188 0.60668 8.36503 0
M  V30 6703 H 882.494 -0.352479 10.1829 0
M  V30 6704 H 882.304 2.00611 10.0304 0
M  V30 6705 H 880.674 1.41843 9.55327 0
M  V30 6706 H 883.313 -1.95734 6.03555 0
M  V30 6707 P 885.171 -1.25109 8.70152 0
M  V30 6708 O 886.593 -1.35303 9.21419 0
M  V30 6709 O 884.811 -0.0769065 7.84762 0
M  V30 6710 O 884.848 -2.55232 7.81161 0
M  V30 6711 C 884.688 -3.79939 8.58154 0
M  V30 6712 C 885.228 -4.93969 7.72701 0
M  V30 6713 O 884.173 -5.18726 6.91205 0
M  V30 6714 C 886.446 -4.69597 6.85231 0
M  V30 6715 O 887.184 -5.83832 6.51337 0
M  V30 6716 C 885.778 -3.96706 5.66633 0
M  V30 6717 O 886.576 -4.15346 4.49615 0
M  V30 6718 C 884.44 -4.66153 5.59313 0
M  V30 6719 N 883.397 -3.71582 5.24027 0
M  V30 6720 C 883.459 -2.46018 5.67902 0
M  V30 6721 N 882.414 -1.74868 5.24518 0
M  V30 6722 C 881.68 -2.61333 4.54528 0
M  V30 6723 C 880.374 -2.46162 3.95441 0
M  V30 6724 O 879.641 -1.46013 3.94122 0
M  V30 6725 N 879.944 -3.59334 3.34752 0
M  V30 6726 C 880.693 -4.79605 3.3023 0
M  V30 6727 N 880.096 -5.82109 2.6065 0
M  V30 6728 N 881.846 -4.97402 3.8843 0
M  V30 6729 C 882.303 -3.86258 4.50476 0
M  V30 6730 H 884.472 -5.47679 4.85214 0
M  V30 6731 H 885.655 -2.88964 5.86476 0
M  V30 6732 H 887.14 -4.01947 7.36109 0
M  V30 6733 H 885.445 -5.80182 8.37584 0
M  V30 6734 H 885.255 -3.73517 9.52265 0
M  V30 6735 H 883.624 -3.97163 8.80359 0
M  V30 6736 H 879.048 -3.5825 2.90294 0
M  V30 6737 H 884.255 -2.06161 6.30974 0
M  V30 6738 H 879.185 -5.66979 2.15354 0
M  V30 6739 H 880.561 -6.73686 2.54344 0
M  V30 6740 H 886.265 -4.90891 4.01857 0
M  V30 6741 P 888.122 -5.75688 6.64379 0
M  V30 6742 O 889.544 -6.11849 7.01846 0
M  V30 6743 O 887.762 -4.30744 6.56026 0
M  V30 6744 O 887.799 -6.37042 5.19165 0
M  V30 6745 C 887.639 -7.83578 5.16515 0
M  V30 6746 C 888.179 -8.33398 3.83019 0
M  V30 6747 O 887.123 -8.10074 3.01034 0
M  V30 6748 C 889.397 -7.65514 3.2257 0
M  V30 6749 O 890.135 -8.4329 2.32297 0
M  V30 6750 C 888.728 -6.40075 2.62207 0
M  V30 6751 O 889.527 -5.92589 1.53712 0
M  V30 6752 C 887.391 -6.9454 2.18503 0
M  V30 6753 H 887.423 -7.23063 1.12091 0
M  V30 6754 H 888.606 -5.6025 3.37201 0
M  V30 6755 H 890.09 -7.35707 4.02681 0
M  V30 6756 H 888.396 -9.40912 3.9095 0
M  V30 6757 H 888.206 -8.29056 5.99158 0
M  V30 6758 H 886.576 -8.10073 5.25882 0
M  V30 6759 H 889.215 -6.30324 0.726794 0
M  V30 6760 P 891.072 -8.4349 2.47671 0
M  V30 6761 O 892.494 -8.94167 2.5964 0
M  V30 6762 O 890.712 -7.1704 3.19006 0
M  V30 6763 O 890.749 -8.16596 0.923387 0
M  V30 6764 C 890.589 -9.38437 0.108857 0
M  V30 6765 C 891.129 -9.08175 -1.28353 0
M  V30 6766 O 890.073 -8.44229 -1.84713 0
M  V30 6767 C 892.347 -8.18386 -1.42505 0
M  V30 6768 O 893.085 -8.3501 -2.60497 0
M  V30 6769 C 891.678 -6.80225 -1.25468 0
M  V30 6770 O 892.477 -5.81621 -1.91066 0
M  V30 6771 C 890.341 -7.02416 -1.9168 0
M  V30 6772 H 890.373 -6.6888 -2.96621 0
M  V30 6773 H 891.556 -6.53617 -0.192223 0
M  V30 6774 H 893.04 -8.36622 -0.589963 0
M  V30 6775 H 891.346 -10.0291 -1.79807 0
M  V30 6776 H 891.156 -10.2138 0.558219 0
M  V30 6777 H 889.526 -9.6579 0.0444202 0
M  V30 6778 H 892.165 -5.69556 -2.79637 0
M  V30 6779 P 894.023 -8.4349 -2.47671 0
M  V30 6780 O 895.445 -8.92593 -2.65 0
M  V30 6781 O 893.663 -7.7568 -1.19296 0
M  V30 6782 O 893.7 -7.36886 -3.63805 0
M  V30 6783 C 893.54 -7.95349 -4.982 0
M  V30 6784 C 894.08 -6.94612 -5.98974 0
M  V30 6785 O 893.024 -6.10347 -6.11815 0
M  V30 6786 C 895.298 -6.11426 -5.62335 0
M  V30 6787 O 896.036 -5.6162 -6.70584 0
M  V30 6788 C 894.629 -5.04409 -4.73308 0
M  V30 6789 O 895.428 -3.85992 -4.75183 0
M  V30 6790 C 893.292 -4.8728 -5.41006 0
M  V30 6791 H 893.324 -4.02333 -6.11157 0
M  V30 6792 H 894.507 -5.39466 -3.69543 0
M  V30 6793 H 895.991 -6.71916 -5.01943 0
M  V30 6794 H 894.297 -7.4649 -6.93477 0
M  V30 6795 H 894.107 -8.89416 -5.05237 0
M  V30 6796 H 892.477 -8.14876 -5.18409 0
M  V30 6797 H 895.116 -3.27957 -5.4317 0
M  V30 6798 P 896.973 -5.75688 -6.64379 0
M  V30 6799 O 898.394 -6.07692 -7.0558 0
M  V30 6800 O 896.613 -5.88047 -5.19722 0
M  V30 6801 O 896.65 -4.2322 -7.04443 0
M  V30 6802 C 896.489 -3.99785 -8.49201 0
M  V30 6803 C 897.03 -2.60516 -8.79425 0
M  V30 6804 O 895.975 -1.82663 -8.44573 0
M  V30 6805 C 898.248 -2.10343 -8.03628 0
M  V30 6806 O 898.986 -1.09919 -8.67766 0
M  V30 6807 C 897.58 -1.68446 -6.70876 0
M  V30 6808 O 898.378 -0.684109 -6.08265 0
M  V30 6809 C 896.242 -1.17436 -7.18567 0
M  V30 6810 N 895.199 -1.52699 -6.23988 0
M  V30 6811 C 895.368 -2.578 -5.40574 0
M  V30 6812 N 894.341 -2.78966 -4.61193 0
M  V30 6813 C 893.456 -1.78725 -4.95769 0
M  V30 6814 C 892.189 -1.45727 -4.44207 0
M  V30 6815 N 891.59 -2.13994 -3.43613 0
M  V30 6816 N 891.624 -0.374977 -5.05812 0
M  V30 6817 C 892.226 0.345585 -6.05615 0
M  V30 6818 N 893.403 0.0787651 -6.56253 0
M  V30 6819 C 893.978 -1.00499 -5.96189 0
M  V30 6820 H 896.274 -0.0804622 -7.31556 0
M  V30 6821 H 897.457 -2.53396 -6.02698 0
M  V30 6822 H 898.94 -2.93881 -7.85526 0
M  V30 6823 H 897.246 -2.52078 -9.87225 0
M  V30 6824 H 897.056 -4.75072 -9.05887 0
M  V30 6825 H 895.426 -4.05244 -8.76668 0
M  V30 6826 H 891.69 1.20098 -6.4532 0
M  V30 6827 H 896.268 -3.18977 -5.3945 0
M  V30 6828 H 890.66 -1.84983 -3.10004 0
M  V30 6829 H 892.064 -2.9465 -3.00843 0
M  V30 6830 H 898.066 0.177619 -6.34151 0
M  V30 6831 P 899.924 -1.25109 -8.70152 0
M  V30 6832 O 901.346 -1.29744 -9.22016 0
M  V30 6833 O 899.564 -2.13714 -7.55141 0
M  V30 6834 O 899.601 0.248149 -8.21425 0
M  V30 6835 C 899.441 1.22779 -9.30434 0
M  V30 6836 C 899.981 2.56293 -8.80664 0
M  V30 6837 O 898.925 3.02979 -8.09349 0
M  V30 6838 C 901.199 2.57523 -7.89775 0
M  V30 6839 O 901.937 3.7668 -7.89438 0
M  V30 6840 C 900.53 2.20997 -6.55446 0
M  V30 6841 O 901.329 2.71895 -5.48509 0
M  V30 6842 C 899.193 2.89693 -6.67988 0
M  V30 6843 H 899.225 3.88793 -6.19859 0
M  V30 6844 H 900.408 1.12046 -6.44229 0
M  V30 6845 H 901.892 1.7746 -8.19711 0
M  V30 6846 H 900.198 3.20706 -9.67112 0
M  V30 6847 H 900.008 0.901032 -10.1892 0
M  V30 6848 H 898.378 1.33049 -9.56592 0
M  V30 6849 H 901.017 3.57847 -5.23962 0
M  V30 6850 P 902.874 3.65191 -7.99657 0
M  V30 6851 O 904.295 3.89374 -8.45885 0
M  V30 6852 O 902.514 2.28472 -7.50807 0
M  V30 6853 O 902.551 4.64972 -6.77611 0
M  V30 6854 C 902.39 6.06383 -7.16428 0
M  V30 6855 C 902.931 6.91731 -6.02299 0
M  V30 6856 O 901.876 6.92369 -5.17005 0
M  V30 6857 C 904.149 6.43627 -5.25174 0
M  V30 6858 O 904.887 7.43686 -4.60469 0
M  V30 6859 C 903.481 5.40275 -4.31916 0
M  V30 6860 O 904.279 5.24878 -3.14911 0
M  V30 6861 C 902.143 6.04847 -4.05327 0
M  V30 6862 N 901.1 5.04166 -3.98114 0
M  V30 6863 C 901.269 3.84629 -4.59066 0
M  V30 6864 N 900.242 3.0363 -4.45343 0
M  V30 6865 C 899.357 3.76722 -3.68523 0
M  V30 6866 C 898.09 3.43528 -3.17088 0
M  V30 6867 N 897.491 2.23665 -3.37397 0
M  V30 6868 N 897.525 4.44526 -2.44231 0
M  V30 6869 C 898.127 5.65243 -2.20146 0
M  V30 6870 N 899.304 6.00221 -2.65453 0
M  V30 6871 C 899.879 5.00564 -3.39083 0
M  V30 6872 H 902.175 6.62104 -3.11218 0
M  V30 6873 H 903.358 4.42969 -4.80867 0
M  V30 6874 H 904.841 5.92458 -5.93643 0
M  V30 6875 H 903.147 7.93295 -6.39407 0
M  V30 6876 H 902.957 6.26671 -8.0846 0
M  V30 6877 H 901.327 6.29101 -7.32804 0
M  V30 6878 H 897.591 6.36894 -1.5883 0
M  V30 6879 H 902.169 3.58193 -5.14248 0
M  V30 6880 H 896.561 2.05145 -2.97047 0
M  V30 6881 H 897.965 1.51255 -3.92998 0
M  V30 6882 H 903.967 5.84223 -2.47279 0
M  V30 6883 P 905.825 7.39546 -4.75277 0
M  V30 6884 O 907.247 7.84798 -5.01039 0
M  V30 6885 O 905.465 5.9812 -5.08098 0
M  V30 6886 O 905.502 7.57503 -3.1866 0
M  V30 6887 C 905.342 8.97357 -2.74833 0
M  V30 6888 C 905.882 9.07548 -1.32709 0
M  V30 6889 O 904.826 8.62072 -0.606159 0
M  V30 6890 C 907.1 8.25383 -0.938334 0
M  V30 6891 O 907.838 8.74577 0.146954 0
M  V30 6892 C 906.431 6.8802 -0.712559 0
M  V30 6893 O 907.23 6.1189 0.194655 0
M  V30 6894 C 905.094 7.27966 -0.139777 0
M  V30 6895 H 905.126 7.25354 0.961601 0
M  V30 6896 H 906.309 6.32557 -1.65702 0
M  V30 6897 H 907.793 8.19355 -1.79097 0
M  V30 6898 H 906.099 10.1294 -1.10029 0
M  V30 6899 H 905.909 9.64276 -3.41316 0
M  V30 6900 H 904.279 9.25417 -2.76357 0
M  V30 6901 H 906.918 6.25267 1.07847 0
M  V30 6902 P 908.776 8.791 6.93566e-12 0
M  V30 6903 O 910.198 9.31296 0.027939 0
M  V30 6904 O 908.416 7.77869 -1.04071 0
M  V30 6905 O 908.453 8.09533 1.41463 0
M  V30 6906 C 908.293 9.0349 2.53943 0
M  V30 6907 C 908.833 8.35135 3.78975 0
M  V30 6908 O 907.778 7.57992 4.15078 0
M  V30 6909 C 910.051 7.45087 3.67298 0
M  V30 6910 O 910.789 7.27796 4.85194 0
M  V30 6911 C 909.383 6.17323 3.12027 0
M  V30 6912 O 910.181 5.04149 3.47132 0
M  V30 6913 C 908.045 6.19961 3.81809 0
M  V30 6914 N 907.002 5.71575 2.93223 0
M  V30 6915 C 907.064 5.97133 1.62693 0
M  V30 6916 N 906.019 5.44066 0.984414 0
M  V30 6917 C 905.285 4.87093 1.93987 0
M  V30 6918 C 903.979 4.26449 1.8738 0
M  V30 6919 O 903.246 4.1089 0.884377 0
M  V30 6920 N 903.549 3.82483 3.08036 0
M  V30 6921 C 904.298 3.95124 4.27727 0
M  V30 6922 N 903.701 3.4084 5.39089 0
M  V30 6923 N 905.451 4.55264 4.3706 0
M  V30 6924 C 905.908 5.00861 3.18217 0
M  V30 6925 H 908.077 5.58218 4.73051 0
M  V30 6926 H 909.26 6.21631 2.02558 0
M  V30 6927 H 910.745 7.85819 2.93096 0
M  V30 6928 H 909.05 9.11627 4.55076 0
M  V30 6929 H 908.86 9.9573 2.34194 0
M  V30 6930 H 907.229 9.2792 2.67832 0
M  V30 6931 H 902.653 3.38323 3.1329 0
M  V30 6932 H 907.86 6.53891 1.14265 0
M  V30 6933 H 902.79 2.93852 5.30559 0
M  V30 6934 H 904.166 3.47631 6.30632 0
M  V30 6935 H 909.87 4.67628 4.28704 0
M  V30 6936 P 911.726 7.39546 4.75277 0
M  V30 6937 O 913.148 7.81777 5.05738 0
M  V30 6938 O 911.366 7.1065 3.32998 0
M  V30 6939 O 911.403 6.04542 5.56673 0
M  V30 6940 C 911.243 6.22772 7.02095 0
M  V30 6941 C 911.783 4.97725 7.70406 0
M  V30 6942 O 910.727 4.13256 7.58987 0
M  V30 6943 C 913.001 4.28231 7.11815 0
M  V30 6944 O 913.739 3.49945 8.01648 0
M  V30 6945 C 912.332 3.5063 5.96244 0
M  V30 6946 O 913.131 2.36482 5.64681 0
M  V30 6947 C 910.995 3.15122 6.56374 0
M  V30 6948 H 911.027 2.13853 6.99751 0
M  V30 6949 H 912.21 4.13501 5.06559 0
M  V30 6950 H 913.694 5.03285 6.70911 0
M  V30 6951 H 912 5.20877 8.75697 0
M  V30 6952 H 911.81 7.11046 7.35349 0
M  V30 6953 H 910.18 6.35815 7.26986 0
M  V30 6954 H 912.819 1.61644 6.13565 0
M  V30 6955 P 914.677 3.65191 7.99657 0
M  V30 6956 O 916.099 3.8425 8.48115 0
M  V30 6957 O 914.317 4.17805 6.64342 0
M  V30 6958 O 914.354 2.07613 7.95143 0
M  V30 6959 C 914.194 1.44328 9.27336 0
M  V30 6960 C 914.734 0.0220036 9.17197 0
M  V30 6961 O 913.678 -0.626867 8.61923 0
M  V30 6962 C 915.952 -0.24586 8.30336 0
M  V30 6963 O 916.69 -1.39011 8.63583 0
M  V30 6964 C 915.283 -0.273849 6.91158 0
M  V30 6965 O 916.082 -1.06348 6.02892 0
M  V30 6966 C 913.946 -0.897649 7.22545 0
M  V30 6967 H 913.978 -1.9841 7.04286 0
M  V30 6968 H 915.161 0.739928 6.497 0
M  V30 6969 H 916.645 0.60668 8.36503 0
M  V30 6970 H 914.951 -0.352479 10.1829 0
M  V30 6971 H 914.761 2.00611 10.0304 0
M  V30 6972 H 913.131 1.41843 9.55327 0
M  V30 6973 H 915.77 -1.95734 6.03555 0
M  V30 6974 P 917.627 -1.25109 8.70152 0
M  V30 6975 O 919.048 -1.35288 9.2132 0
M  V30 6976 O 917.267 -0.0769065 7.84762 0
M  V30 6977 O 917.304 -2.55232 7.81161 0
M  V30 6978 C 917.143 -3.79979 8.58246 0
M  V30 6979 C 917.684 -4.94023 7.72785 0
M  V30 6980 O 916.629 -5.18666 6.91125 0
M  V30 6981 C 918.902 -4.69597 6.85231 0
M  V30 6982 O 919.64 -5.83832 6.51337 0
M  V30 6983 C 918.234 -3.96706 5.66633 0
M  V30 6984 O 919.032 -4.14896 4.5003 0
M  V30 6985 C 916.896 -4.66153 5.59313 0
M  V30 6986 N 915.853 -3.71582 5.24027 0
M  V30 6987 C 916.022 -2.39715 5.48833 0
M  V30 6988 N 914.995 -1.65863 5.12845 0
M  V30 6989 C 914.11 -2.57637 4.5973 0
M  V30 6990 C 912.843 -2.40278 4.01027 0
M  V30 6991 N 912.278 -3.57711 3.59575 0
M  V30 6992 C 912.88 -4.80324 3.70476 0
M  V30 6993 N 914.057 -5.01121 4.23801 0
M  V30 6994 C 914.632 -3.84757 4.66372 0
M  V30 6995 H 918.111 -2.8955 5.86187 0
M  V30 6996 H 919.594 -4.0121 7.36511 0
M  V30 6997 H 917.9 -5.81019 8.37003 0
M  V30 6998 H 917.71 -3.73517 9.52265 0
M  V30 6999 H 916.08 -3.97163 8.80359 0
M  V30 7000 H 916.922 -1.98804 5.94332 0
M  V30 7001 H 918.72 -4.90891 4.01857 0
M  V30 7002 P 920.578 -5.75688 6.64379 0
M  V30 7003 O 922 -6.11849 7.01846 0
M  V30 7004 O 920.218 -4.30744 6.56026 0
M  V30 7005 O 920.255 -6.37042 5.19165 0
M  V30 7006 C 920.095 -7.83578 5.16515 0
M  V30 7007 C 920.635 -8.33398 3.83019 0
M  V30 7008 O 919.579 -8.10074 3.01034 0
M  V30 7009 C 921.853 -7.65514 3.2257 0
M  V30 7010 O 922.591 -8.4329 2.32297 0
M  V30 7011 C 921.184 -6.40075 2.62207 0
M  V30 7012 O 921.983 -5.92589 1.53712 0
M  V30 7013 C 919.847 -6.9454 2.18503 0
M  V30 7014 H 919.879 -7.23063 1.12091 0
M  V30 7015 H 921.062 -5.6025 3.37201 0
M  V30 7016 H 922.546 -7.35707 4.02681 0
M  V30 7017 H 920.852 -9.40912 3.9095 0
M  V30 7018 H 920.662 -8.29056 5.99158 0
M  V30 7019 H 919.032 -8.10073 5.25882 0
M  V30 7020 H 921.671 -6.30324 0.726794 0
M  V30 7021 P 923.528 -8.4349 2.47671 0
M  V30 7022 O 924.95 -8.94167 2.5964 0
M  V30 7023 O 923.168 -7.1704 3.19006 0
M  V30 7024 O 923.205 -8.16596 0.923387 0
M  V30 7025 C 923.045 -9.38437 0.108857 0
M  V30 7026 C 923.585 -9.08175 -1.28353 0
M  V30 7027 O 922.529 -8.44229 -1.84713 0
M  V30 7028 C 924.803 -8.18386 -1.42505 0
M  V30 7029 O 925.541 -8.3501 -2.60497 0
M  V30 7030 C 924.134 -6.80225 -1.25468 0
M  V30 7031 O 924.933 -5.81621 -1.91066 0
M  V30 7032 C 922.797 -7.02416 -1.9168 0
M  V30 7033 H 922.829 -6.6888 -2.96621 0
M  V30 7034 H 924.012 -6.53617 -0.192223 0
M  V30 7035 H 925.496 -8.36622 -0.589963 0
M  V30 7036 H 923.802 -10.0291 -1.79807 0
M  V30 7037 H 923.612 -10.2138 0.558219 0
M  V30 7038 H 921.982 -9.6579 0.0444202 0
M  V30 7039 H 924.621 -5.69556 -2.79637 0
M  V30 7040 P 926.479 -8.4349 -2.47671 0
M  V30 7041 O 927.9 -8.92689 -2.65029 0
M  V30 7042 O 926.119 -7.7568 -1.19296 0
M  V30 7043 O 926.156 -7.36886 -3.63805 0
M  V30 7044 C 925.995 -7.95433 -4.98253 0
M  V30 7045 C 926.536 -6.94612 -5.98974 0
M  V30 7046 O 925.481 -6.10277 -6.11744 0
M  V30 7047 C 927.754 -6.11426 -5.62335 0
M  V30 7048 O 928.492 -5.6162 -6.70584 0
M  V30 7049 C 927.086 -5.04409 -4.73308 0
M  V30 7050 O 927.884 -3.86404 -4.74719 0
M  V30 7051 C 925.748 -4.8728 -5.41006 0
M  V30 7052 N 924.705 -4.65812 -4.42377 0
M  V30 7053 C 924.874 -5.09132 -3.15382 0
M  V30 7054 N 923.847 -4.84021 -2.3716 0
M  V30 7055 C 922.962 -4.18386 -3.20441 0
M  V30 7056 C 921.695 -3.6275 -2.94905 0
M  V30 7057 N 921.13 -3.05008 -4.05243 0
M  V30 7058 C 921.732 -2.98348 -5.28159 0
M  V30 7059 N 922.909 -3.48171 -5.56333 0
M  V30 7060 C 923.484 -4.06869 -4.47212 0
M  V30 7061 H 926.963 -5.39013 -3.70026 0
M  V30 7062 H 928.446 -6.71916 -5.01943 0
M  V30 7063 H 926.752 -7.45796 -6.94223 0
M  V30 7064 H 926.562 -8.89416 -5.05237 0
M  V30 7065 H 924.932 -8.14876 -5.18409 0
M  V30 7066 H 925.774 -5.59989 -2.81362 0
M  V30 7067 H 927.572 -3.27906 -5.43085 0
M  V30 7068 P 929.43 -5.75688 -6.64379 0
M  V30 7069 O 930.852 -6.07627 -7.05504 0
M  V30 7070 O 929.07 -5.88047 -5.19722 0
M  V30 7071 O 929.107 -4.2322 -7.04443 0
M  V30 7072 C 928.947 -3.99743 -8.4911 0
M  V30 7073 C 929.487 -2.60516 -8.79425 0
M  V30 7074 O 928.431 -1.82684 -8.4467 0
M  V30 7075 C 930.705 -2.10343 -8.03628 0
M  V30 7076 O 931.443 -1.09919 -8.67766 0
M  V30 7077 C 930.036 -1.68446 -6.70876 0
M  V30 7078 O 930.835 -0.678137 -6.08433 0
M  V30 7079 C 928.699 -1.17436 -7.18567 0
M  V30 7080 H 928.731 -0.0804732 -7.31656 0
M  V30 7081 H 929.914 -2.54037 -6.02537 0
M  V30 7082 H 931.398 -2.93881 -7.85526 0
M  V30 7083 H 929.704 -2.53065 -9.86973 0
M  V30 7084 H 929.514 -4.75072 -9.05887 0
M  V30 7085 H 927.884 -4.05244 -8.76668 0
M  V30 7086 H 930.523 0.177647 -6.34251 0
M  V30 7087 P 932.38 -1.25109 -8.70152 0
M  V30 7088 O 933.802 -1.29744 -9.22016 0
M  V30 7089 O 932.02 -2.13714 -7.55141 0
M  V30 7090 O 932.057 0.248149 -8.21425 0
M  V30 7091 C 931.897 1.22779 -9.30434 0
M  V30 7092 C 932.437 2.56293 -8.80664 0
M  V30 7093 O 931.381 3.02979 -8.09349 0
M  V30 7094 C 933.655 2.57523 -7.89775 0
M  V30 7095 O 934.393 3.7668 -7.89438 0
M  V30 7096 C 932.986 2.20997 -6.55446 0
M  V30 7097 O 933.785 2.71895 -5.48509 0
M  V30 7098 C 931.649 2.89693 -6.67988 0
M  V30 7099 H 931.681 3.88793 -6.19859 0
M  V30 7100 H 932.864 1.12046 -6.44229 0
M  V30 7101 H 934.348 1.7746 -8.19711 0
M  V30 7102 H 932.654 3.20706 -9.67112 0
M  V30 7103 H 932.464 0.901032 -10.1892 0
M  V30 7104 H 930.834 1.33049 -9.56592 0
M  V30 7105 H 933.473 3.57847 -5.23962 0
M  V30 7106 P 935.331 3.65191 -7.99657 0
M  V30 7107 O 936.752 3.89374 -8.45885 0
M  V30 7108 O 934.971 2.28472 -7.50807 0
M  V30 7109 O 935.008 4.64972 -6.77611 0
M  V30 7110 C 934.847 6.06383 -7.16428 0
M  V30 7111 C 935.388 6.91731 -6.02299 0
M  V30 7112 O 934.333 6.92369 -5.17005 0
M  V30 7113 C 936.606 6.43627 -5.25174 0
M  V30 7114 O 937.344 7.43686 -4.60469 0
M  V30 7115 C 935.938 5.40275 -4.31916 0
M  V30 7116 O 936.736 5.24878 -3.14911 0
M  V30 7117 C 934.6 6.04847 -4.05327 0
M  V30 7118 N 933.557 5.04166 -3.98114 0
M  V30 7119 C 933.726 3.84629 -4.59066 0
M  V30 7120 N 932.699 3.0363 -4.45343 0
M  V30 7121 C 931.814 3.76722 -3.68523 0
M  V30 7122 C 930.547 3.43528 -3.17088 0
M  V30 7123 N 929.982 4.44526 -2.44231 0
M  V30 7124 C 930.584 5.65243 -2.20146 0
M  V30 7125 N 931.761 6.00221 -2.65453 0
M  V30 7126 C 932.336 5.00564 -3.39083 0
M  V30 7127 H 935.815 4.42969 -4.80867 0
M  V30 7128 H 937.298 5.92458 -5.93643 0
M  V30 7129 H 935.604 7.93295 -6.39407 0
M  V30 7130 H 935.414 6.26671 -8.0846 0
M  V30 7131 H 933.784 6.29101 -7.32804 0
M  V30 7132 H 934.626 3.58193 -5.14248 0
M  V30 7133 H 936.424 5.84223 -2.47279 0
M  V30 7134 P 938.281 7.39546 -4.75277 0
M  V30 7135 O 939.702 7.84882 -5.01092 0
M  V30 7136 O 937.921 5.9812 -5.08098 0
M  V30 7137 O 937.958 7.57503 -3.1866 0
M  V30 7138 C 937.797 8.97452 -2.74862 0
M  V30 7139 C 938.338 9.07548 -1.32709 0
M  V30 7140 O 937.283 8.61972 -0.606089 0
M  V30 7141 C 939.556 8.25383 -0.938334 0
M  V30 7142 O 940.294 8.74577 0.146954 0
M  V30 7143 C 938.888 6.8802 -0.712559 0
M  V30 7144 O 939.686 6.1181 0.188505 0
M  V30 7145 C 937.55 7.27966 -0.139777 0
M  V30 7146 N 936.507 6.39368 -0.623421 0
M  V30 7147 C 936.676 5.71761 -1.78245 0
M  V30 7148 N 935.649 4.962 -2.10491 0
M  V30 7149 C 934.764 5.16158 -1.0635 0
M  V30 7150 C 933.497 4.60425 -0.810266 0
M  V30 7151 N 932.898 3.7057 -1.62914 0
M  V30 7152 N 932.932 5.06 0.348685 0
M  V30 7153 C 933.534 5.94532 1.20395 0
M  V30 7154 N 934.711 6.48452 1.01191 0
M  V30 7155 C 935.286 6.04423 -0.146291 0
M  V30 7156 H 937.582 7.25255 0.961469 0
M  V30 7157 H 938.765 6.32625 -1.65044 0
M  V30 7158 H 940.248 8.19355 -1.79097 0
M  V30 7159 H 938.554 10.1305 -1.09016 0
M  V30 7160 H 938.364 9.64276 -3.41316 0
M  V30 7161 H 936.734 9.25417 -2.76357 0
M  V30 7162 H 932.998 6.21659 2.10714 0
M  V30 7163 H 937.576 5.79354 -2.38959 0
M  V30 7164 H 931.968 3.33174 -1.38982 0
M  V30 7165 H 933.372 3.39714 -2.48836 0
M  V30 7166 H 939.374 6.25169 1.0783 0
M  V30 7167 P 941.232 8.791 7.24582e-12 0
M  V30 7168 O 942.653 9.31196 0.027936 0
M  V30 7169 O 940.872 7.77869 -1.04071 0
M  V30 7170 O 940.909 8.09533 1.41463 0
M  V30 7171 C 940.748 9.03587 2.5397 0
M  V30 7172 C 941.289 8.35226 3.79016 0
M  V30 7173 O 940.234 7.57904 4.1503 0
M  V30 7174 C 942.507 7.45087 3.67298 0
M  V30 7175 O 943.245 7.27796 4.85194 0
M  V30 7176 C 941.839 6.17323 3.12027 0
M  V30 7177 O 942.637 5.04496 3.46627 0
M  V30 7178 C 940.501 6.19961 3.81809 0
M  V30 7179 N 939.458 5.71575 2.93223 0
M  V30 7180 C 939.627 5.77362 1.59168 0
M  V30 7181 N 938.6 5.3123 0.911893 0
M  V30 7182 C 937.715 4.91717 1.89588 0
M  V30 7183 C 936.448 4.3114 1.8076 0
M  V30 7184 N 935.849 3.99821 0.632928 0
M  V30 7185 N 935.883 4.06823 3.02898 0
M  V30 7186 C 936.485 4.35062 4.22711 0
M  V30 7187 N 937.662 4.90805 4.35707 0
M  V30 7188 C 938.237 5.16382 3.14469 0
M  V30 7189 H 940.533 5.58142 4.72986 0
M  V30 7190 H 941.716 6.21428 2.0318 0
M  V30 7191 H 943.199 7.86112 2.9231 0
M  V30 7192 H 941.505 9.11171 4.55987 0
M  V30 7193 H 941.315 9.9573 2.34194 0
M  V30 7194 H 939.685 9.2792 2.67832 0
M  V30 7195 H 935.949 4.09052 5.13359 0
M  V30 7196 H 940.527 6.16575 1.12198 0
M  V30 7197 H 934.919 3.55423 0.632085 0
M  V30 7198 H 936.323 4.20317 -0.256712 0
M  V30 7199 H 942.325 4.67628 4.28704 0
M  V30 7200 P 944.182 7.39546 4.75277 0
M  V30 7201 O 945.604 7.81777 5.05738 0
M  V30 7202 O 943.822 7.1065 3.32998 0
M  V30 7203 O 943.859 6.04542 5.56673 0
M  V30 7204 C 943.699 6.22772 7.02095 0
M  V30 7205 C 944.239 4.97725 7.70406 0
M  V30 7206 O 943.183 4.13256 7.58987 0
M  V30 7207 C 945.457 4.28231 7.11815 0
M  V30 7208 O 946.195 3.49945 8.01648 0
M  V30 7209 C 944.788 3.5063 5.96244 0
M  V30 7210 O 945.587 2.36482 5.64681 0
M  V30 7211 C 943.451 3.15122 6.56374 0
M  V30 7212 H 943.483 2.13853 6.99751 0
M  V30 7213 H 944.666 4.13501 5.06559 0
M  V30 7214 H 946.15 5.03285 6.70911 0
M  V30 7215 H 944.456 5.20877 8.75697 0
M  V30 7216 H 944.266 7.11046 7.35349 0
M  V30 7217 H 942.636 6.35815 7.26986 0
M  V30 7218 H 945.275 1.61644 6.13565 0
M  V30 7219 P 947.133 3.65191 7.99657 0
M  V30 7220 O 948.555 3.8425 8.48115 0
M  V30 7221 O 946.773 4.17805 6.64342 0
M  V30 7222 O 946.81 2.07613 7.95143 0
M  V30 7223 C 946.65 1.44328 9.27336 0
M  V30 7224 C 947.19 0.0220036 9.17197 0
M  V30 7225 O 946.134 -0.626867 8.61923 0
M  V30 7226 C 948.408 -0.24586 8.30336 0
M  V30 7227 O 949.146 -1.39011 8.63583 0
M  V30 7228 C 947.739 -0.273849 6.91158 0
M  V30 7229 O 948.538 -1.06348 6.02892 0
M  V30 7230 C 946.402 -0.897649 7.22545 0
M  V30 7231 H 946.434 -1.9841 7.04286 0
M  V30 7232 H 947.617 0.739928 6.497 0
M  V30 7233 H 949.101 0.60668 8.36503 0
M  V30 7234 H 947.407 -0.352479 10.1829 0
M  V30 7235 H 947.217 2.00611 10.0304 0
M  V30 7236 H 945.587 1.41843 9.55327 0
M  V30 7237 H 948.226 -1.95734 6.03555 0
M  V30 7238 P 950.084 -1.25109 8.70152 0
M  V30 7239 O 951.506 -1.35274 9.21221 0
M  V30 7240 O 949.724 -0.0769065 7.84762 0
M  V30 7241 O 949.761 -2.55232 7.81161 0
M  V30 7242 C 949.601 -3.79939 8.58154 0
M  V30 7243 C 950.141 -4.94023 7.72785 0
M  V30 7244 O 949.085 -5.18726 6.91205 0
M  V30 7245 C 951.359 -4.69597 6.85231 0
M  V30 7246 O 952.097 -5.83832 6.51337 0
M  V30 7247 C 950.69 -3.96706 5.66633 0
M  V30 7248 O 951.489 -4.15414 4.49689 0
M  V30 7249 C 949.353 -4.66153 5.59313 0
M  V30 7250 H 949.385 -5.47679 4.85214 0
M  V30 7251 H 950.568 -2.89008 5.86566 0
M  V30 7252 H 952.052 -4.0121 7.36511 0
M  V30 7253 H 950.358 -5.80182 8.37584 0
M  V30 7254 H 950.168 -3.73517 9.52265 0
M  V30 7255 H 948.538 -3.97163 8.80359 0
M  V30 7256 H 951.177 -4.90969 4.01921 0
M  V30 7257 P 953.034 -5.75688 6.64379 0
M  V30 7258 O 954.455 -6.11915 7.01921 0
M  V30 7259 O 952.674 -4.30744 6.56026 0
M  V30 7260 O 952.711 -6.37042 5.19165 0
M  V30 7261 C 952.55 -7.83662 5.1657 0
M  V30 7262 C 953.091 -8.33398 3.83019 0
M  V30 7263 O 952.036 -8.0998 3.00999 0
M  V30 7264 C 954.309 -7.65514 3.2257 0
M  V30 7265 O 955.047 -8.4329 2.32297 0
M  V30 7266 C 953.641 -6.40075 2.62207 0
M  V30 7267 O 954.439 -5.92338 1.5428 0
M  V30 7268 C 952.303 -6.9454 2.18503 0
M  V30 7269 N 951.26 -5.95905 2.39948 0
M  V30 7270 C 951.429 -4.98383 3.32108 0
M  V30 7271 N 950.402 -4.16798 3.41761 0
M  V30 7272 C 949.517 -4.65287 2.47461 0
M  V30 7273 C 948.25 -4.18946 2.07461 0
M  V30 7274 N 947.651 -3.09661 2.60717 0
M  V30 7275 N 947.685 -4.95327 1.09101 0
M  V30 7276 C 948.287 -6.04369 0.519812 0
M  V30 7277 N 949.464 -6.50694 0.855982 0
M  V30 7278 C 950.039 -5.75818 1.84322 0
M  V30 7279 H 952.335 -7.22964 1.12076 0
M  V30 7280 H 953.518 -5.60502 3.36589 0
M  V30 7281 H 955.001 -7.35707 4.02681 0
M  V30 7282 H 953.307 -9.41302 3.90009 0
M  V30 7283 H 953.117 -8.29056 5.99158 0
M  V30 7284 H 951.487 -8.10073 5.25882 0
M  V30 7285 H 947.751 -6.55843 -0.270373 0
M  V30 7286 H 952.329 -4.88564 3.92502 0
M  V30 7287 H 946.721 -2.80523 2.27218 0
M  V30 7288 H 948.125 -2.55848 3.34465 0
M  V30 7289 H 954.127 -6.30224 0.72668 0
M  V30 7290 P 955.985 -8.4349 2.47671 0
M  V30 7291 O 957.407 -8.94167 2.5964 0
M  V30 7292 O 955.625 -7.1704 3.19006 0
M  V30 7293 O 955.662 -8.16596 0.923387 0
M  V30 7294 C 955.502 -9.38437 0.108857 0
M  V30 7295 C 956.042 -9.08175 -1.28353 0
M  V30 7296 O 954.986 -8.44229 -1.84713 0
M  V30 7297 C 957.26 -8.18386 -1.42505 0
M  V30 7298 O 957.998 -8.3501 -2.60497 0
M  V30 7299 C 956.591 -6.80225 -1.25468 0
M  V30 7300 O 957.39 -5.81621 -1.91066 0
M  V30 7301 C 955.254 -7.02416 -1.9168 0
M  V30 7302 H 955.286 -6.6888 -2.96621 0
M  V30 7303 H 956.469 -6.53617 -0.192223 0
M  V30 7304 H 957.953 -8.36622 -0.589963 0
M  V30 7305 H 956.259 -10.0291 -1.79807 0
M  V30 7306 H 956.069 -10.2138 0.558219 0
M  V30 7307 H 954.439 -9.6579 0.0444202 0
M  V30 7308 H 957.078 -5.69556 -2.79637 0
M  V30 7309 P 958.935 -8.4349 -2.47671 0
M  V30 7310 O 960.357 -8.92593 -2.65 0
M  V30 7311 O 958.575 -7.7568 -1.19296 0
M  V30 7312 O 958.612 -7.36886 -3.63805 0
M  V30 7313 C 958.452 -7.95349 -4.982 0
M  V30 7314 C 958.992 -6.94612 -5.98974 0
M  V30 7315 O 957.936 -6.10347 -6.11815 0
M  V30 7316 C 960.21 -6.11426 -5.62335 0
M  V30 7317 O 960.948 -5.6162 -6.70584 0
M  V30 7318 C 959.541 -5.04409 -4.73308 0
M  V30 7319 O 960.34 -3.85992 -4.75183 0
M  V30 7320 C 958.204 -4.8728 -5.41006 0
M  V30 7321 H 958.236 -4.02333 -6.11157 0
M  V30 7322 H 959.419 -5.39466 -3.69543 0
M  V30 7323 H 960.903 -6.71916 -5.01943 0
M  V30 7324 H 959.209 -7.4649 -6.93477 0
M  V30 7325 H 959.019 -8.89416 -5.05237 0
M  V30 7326 H 957.389 -8.14876 -5.18409 0
M  V30 7327 H 960.028 -3.27957 -5.4317 0
M  V30 7328 P 961.886 -5.75688 -6.64379 0
M  V30 7329 O 963.308 -6.07627 -7.05504 0
M  V30 7330 O 961.526 -5.88047 -5.19722 0
M  V30 7331 O 961.563 -4.2322 -7.04443 0
M  V30 7332 C 961.403 -3.99743 -8.4911 0
M  V30 7333 C 961.943 -2.60516 -8.79425 0
M  V30 7334 O 960.887 -1.82684 -8.4467 0
M  V30 7335 C 963.161 -2.10343 -8.03628 0
M  V30 7336 O 963.899 -1.09919 -8.67766 0
M  V30 7337 C 962.492 -1.68446 -6.70876 0
M  V30 7338 O 963.291 -0.678137 -6.08433 0
M  V30 7339 C 961.155 -1.17436 -7.18567 0
M  V30 7340 H 961.187 -0.0804732 -7.31656 0
M  V30 7341 H 962.37 -2.54037 -6.02537 0
M  V30 7342 H 963.854 -2.93881 -7.85526 0
M  V30 7343 H 962.16 -2.53065 -9.86973 0
M  V30 7344 H 961.97 -4.75072 -9.05887 0
M  V30 7345 H 960.34 -4.05244 -8.76668 0
M  V30 7346 H 962.979 0.177647 -6.34251 0
M  V30 7347 P 964.836 -1.25109 -8.70152 0
M  V30 7348 O 966.258 -1.29772 -9.22214 0
M  V30 7349 O 964.476 -2.13714 -7.55141 0
M  V30 7350 O 964.513 0.248149 -8.21425 0
M  V30 7351 C 964.353 1.22779 -9.30434 0
M  V30 7352 C 964.893 2.56265 -8.80568 0
M  V30 7353 O 963.838 3.02979 -8.09349 0
M  V30 7354 C 966.111 2.57523 -7.89775 0
M  V30 7355 O 966.849 3.7668 -7.89438 0
M  V30 7356 C 965.443 2.20997 -6.55446 0
M  V30 7357 O 966.241 2.71851 -5.48419 0
M  V30 7358 C 964.105 2.89693 -6.67988 0
M  V30 7359 N 963.062 2.08895 -6.07487 0
M  V30 7360 C 963.124 0.760559 -6.14209 0
M  V30 7361 N 962.079 0.200108 -5.52538 0
M  V30 7362 C 961.345 1.22692 -5.09742 0
M  V30 7363 C 960.039 1.24782 -4.48775 0
M  V30 7364 O 959.306 0.290617 -4.19294 0
M  V30 7365 N 959.609 2.50468 -4.22428 0
M  V30 7366 C 960.358 3.67142 -4.51974 0
M  V30 7367 N 959.761 4.85096 -4.14091 0
M  V30 7368 N 961.511 3.67821 -5.12831 0
M  V30 7369 C 961.968 2.43698 -5.4105 0
M  V30 7370 H 964.137 3.88793 -6.19859 0
M  V30 7371 H 965.32 1.12029 -6.4413 0
M  V30 7372 H 966.805 1.78279 -8.19533 0
M  V30 7373 H 965.11 3.20706 -9.67112 0
M  V30 7374 H 964.92 0.901032 -10.1892 0
M  V30 7375 H 963.289 1.33049 -9.56592 0
M  V30 7376 H 958.713 2.61953 -3.79465 0
M  V30 7377 H 963.92 0.200439 -6.63497 0
M  V30 7378 H 958.85 4.8334 -3.66367 0
M  V30 7379 H 960.226 5.7474 -4.33841 0
M  V30 7380 H 965.93 3.5779 -5.23879 0
M  V30 7381 P 967.787 3.65191 -7.99657 0
M  V30 7382 O 969.209 3.89332 -8.45794 0
M  V30 7383 O 967.427 2.28472 -7.50807 0
M  V30 7384 O 967.464 4.64972 -6.77611 0
M  V30 7385 C 967.304 6.06319 -7.16352 0
M  V30 7386 C 967.844 6.91731 -6.02299 0
M  V30 7387 O 966.788 6.92449 -5.17064 0
M  V30 7388 C 969.062 6.43627 -5.25174 0
M  V30 7389 O 969.8 7.43686 -4.60469 0
M  V30 7390 C 968.393 5.40275 -4.31916 0
M  V30 7391 O 969.192 5.25279 -3.14438 0
M  V30 7392 C 967.056 6.04847 -4.05327 0
M  V30 7393 H 967.088 6.62195 -3.11261 0
M  V30 7394 H 968.271 4.42556 -4.81383 0
M  V30 7395 H 969.755 5.92458 -5.93643 0
M  V30 7396 H 968.061 7.92655 -6.402 0
M  V30 7397 H 967.871 6.26671 -8.0846 0
M  V30 7398 H 966.241 6.29101 -7.32804 0
M  V30 7399 H 968.88 5.84315 -2.47318 0
M  V30 7400 P 970.738 7.39546 -4.75277 0
M  V30 7401 O 972.16 7.84798 -5.01039 0
M  V30 7402 O 970.378 5.9812 -5.08098 0
M  V30 7403 O 970.415 7.57503 -3.1866 0
M  V30 7404 C 970.255 8.97357 -2.74833 0
M  V30 7405 C 970.795 9.07548 -1.32709 0
M  V30 7406 O 969.739 8.62072 -0.606159 0
M  V30 7407 C 972.013 8.25383 -0.938334 0
M  V30 7408 O 972.751 8.74577 0.146954 0
M  V30 7409 C 971.344 6.8802 -0.712559 0
M  V30 7410 O 972.143 6.1189 0.194655 0
M  V30 7411 C 970.007 7.27966 -0.139777 0
M  V30 7412 H 970.039 7.25354 0.961601 0
M  V30 7413 H 971.222 6.32557 -1.65702 0
M  V30 7414 H 972.706 8.19355 -1.79097 0
M  V30 7415 H 971.012 10.1294 -1.10029 0
M  V30 7416 H 970.822 9.64276 -3.41316 0
M  V30 7417 H 969.192 9.25417 -2.76357 0
M  V30 7418 H 971.831 6.25267 1.07847 0
M  V30 7419 P 973.688 8.791 7.55599e-12 0
M  V30 7420 O 975.11 9.31096 0.027933 0
M  V30 7421 O 973.328 7.77869 -1.04071 0
M  V30 7422 O 973.365 8.09533 1.41463 0
M  V30 7423 C 973.205 9.0349 2.53943 0
M  V30 7424 C 973.745 8.35226 3.79016 0
M  V30 7425 O 972.689 7.57992 4.15078 0
M  V30 7426 C 974.963 7.45087 3.67298 0
M  V30 7427 O 975.701 7.27796 4.85194 0
M  V30 7428 C 974.294 6.17323 3.12027 0
M  V30 7429 O 975.093 5.04231 3.47188 0
M  V30 7430 C 972.957 6.19961 3.81809 0
M  V30 7431 H 972.989 5.58218 4.73051 0
M  V30 7432 H 974.172 6.21726 2.02589 0
M  V30 7433 H 975.656 7.86112 2.9231 0
M  V30 7434 H 973.962 9.11627 4.55076 0
M  V30 7435 H 973.772 9.9573 2.34194 0
M  V30 7436 H 972.142 9.2792 2.67832 0
M  V30 7437 H 974.781 4.67702 4.28772 0
M  V30 7438 P 976.639 7.39546 4.75277 0
M  V30 7439 O 978.04 7.89013 5.04841 0
M  V30 7440 O 976.261 7.16603 3.32298 0
M  V30 7441 O 976.316 6.04468 5.56605 0
M  V30 7442 C 976.156 6.22772 7.02095 0
M  V30 7443 C 976.696 4.97671 7.70322 0
M  V30 7444 O 975.64 4.13208 7.58899 0
M  V30 7445 C 977.913 4.28231 7.11815 0
M  V30 7446 O 978.652 3.49945 8.01648 0
M  V30 7447 C 977.246 3.5063 5.96244 0
M  V30 7448 O 978.044 2.36443 5.64589 0
M  V30 7449 C 975.908 3.15122 6.56374 0
M  V30 7450 N 974.865 3.22311 5.55692 0
M  V30 7451 C 973.83 2.32244 5.62437 0
M  V30 7452 O 973.869 1.43107 6.50341 0
M  V30 7453 N 972.818 2.40811 4.73368 0
M  V30 7454 C 972.866 3.344 3.77753 0
M  V30 7455 C 973.962 4.24712 3.66679 0
M  V30 7456 C 974.928 4.15625 4.58307 0
M  V30 7457 H 975.94 2.13823 6.99656 0
M  V30 7458 H 977.123 4.12931 5.06895 0
M  V30 7459 H 978.607 5.02674 6.71494 0
M  V30 7460 H 976.913 5.20001 8.76217 0
M  V30 7461 H 976.722 7.11046 7.35349 0
M  V30 7462 H 975.092 6.35749 7.26911 0
M  V30 7463 H 974.01 4.9828 2.86753 0
M  V30 7464 H 975.774 4.84464 4.54228 0
M  V30 7465 H 977.828 1.65592 6.23485 0
M  V30 7466 P 979.589 3.65191 7.99657 0
M  V30 7467 O 981.011 3.8425 8.48115 0
M  V30 7468 O 979.229 4.17805 6.64342 0
M  V30 7469 O 979.266 2.07613 7.95143 0
M  V30 7470 C 979.106 1.44328 9.27336 0
M  V30 7471 C 979.646 0.0220036 9.17197 0
M  V30 7472 O 978.59 -0.626867 8.61923 0
M  V30 7473 C 980.864 -0.24586 8.30336 0
M  V30 7474 O 981.602 -1.39011 8.63583 0
M  V30 7475 C 980.195 -0.273849 6.91158 0
M  V30 7476 O 980.994 -1.06348 6.02892 0
M  V30 7477 C 978.858 -0.897649 7.22545 0
M  V30 7478 H 978.89 -1.9841 7.04286 0
M  V30 7479 H 980.073 0.739928 6.497 0
M  V30 7480 H 981.557 0.60668 8.36503 0
M  V30 7481 H 979.863 -0.352479 10.1829 0
M  V30 7482 H 979.673 2.00611 10.0304 0
M  V30 7483 H 978.043 1.41843 9.55327 0
M  V30 7484 H 980.682 -1.95734 6.03555 0
M  V30 7485 P 982.54 -1.25109 8.70152 0
M  V30 7486 O 983.962 -1.35274 9.21221 0
M  V30 7487 O 982.18 -0.0769065 7.84762 0
M  V30 7488 O 982.217 -2.55232 7.81161 0
M  V30 7489 C 982.057 -3.79939 8.58154 0
M  V30 7490 C 982.597 -4.94023 7.72785 0
M  V30 7491 O 981.541 -5.18726 6.91205 0
M  V30 7492 C 983.815 -4.69597 6.85231 0
M  V30 7493 O 984.553 -5.83832 6.51337 0
M  V30 7494 C 983.146 -3.96706 5.66633 0
M  V30 7495 O 983.945 -4.15414 4.49689 0
M  V30 7496 C 981.809 -4.66153 5.59313 0
M  V30 7497 H 981.841 -5.47679 4.85214 0
M  V30 7498 H 983.024 -2.89008 5.86566 0
M  V30 7499 H 984.508 -4.0121 7.36511 0
M  V30 7500 H 982.814 -5.80182 8.37584 0
M  V30 7501 H 982.624 -3.73517 9.52265 0
M  V30 7502 H 980.994 -3.97163 8.80359 0
M  V30 7503 H 983.633 -4.90969 4.01921 0
M  V30 7504 P 985.49 -5.75688 6.64379 0
M  V30 7505 O 986.912 -6.11849 7.01846 0
M  V30 7506 O 985.13 -4.30744 6.56026 0
M  V30 7507 O 985.167 -6.37042 5.19165 0
M  V30 7508 C 985.007 -7.83578 5.16515 0
M  V30 7509 C 985.547 -8.33398 3.83019 0
M  V30 7510 O 984.491 -8.10074 3.01034 0
M  V30 7511 C 986.765 -7.65514 3.2257 0
M  V30 7512 O 987.503 -8.4329 2.32297 0
M  V30 7513 C 986.096 -6.40075 2.62207 0
M  V30 7514 O 986.895 -5.92589 1.53712 0
M  V30 7515 C 984.759 -6.9454 2.18503 0
M  V30 7516 H 984.791 -7.23063 1.12091 0
M  V30 7517 H 985.974 -5.6025 3.37201 0
M  V30 7518 H 987.458 -7.35707 4.02681 0
M  V30 7519 H 985.764 -9.40912 3.9095 0
M  V30 7520 H 985.574 -8.29056 5.99158 0
M  V30 7521 H 983.944 -8.10073 5.25882 0
M  V30 7522 H 986.583 -6.30324 0.726794 0
M  V30 7523 P 988.441 -8.4349 2.47671 0
M  V30 7524 O 989.863 -8.94167 2.5964 0
M  V30 7525 O 988.081 -7.1704 3.19006 0
M  V30 7526 O 988.118 -8.16596 0.923387 0
M  V30 7527 C 987.958 -9.38437 0.108857 0
M  V30 7528 C 988.498 -9.08175 -1.28353 0
M  V30 7529 O 987.442 -8.44229 -1.84713 0
M  V30 7530 C 989.716 -8.18386 -1.42505 0
M  V30 7531 O 990.454 -8.3501 -2.60497 0
M  V30 7532 C 989.047 -6.80225 -1.25468 0
M  V30 7533 O 989.846 -5.81621 -1.91066 0
M  V30 7534 C 987.71 -7.02416 -1.9168 0
M  V30 7535 H 987.742 -6.6888 -2.96621 0
M  V30 7536 H 988.925 -6.53617 -0.192223 0
M  V30 7537 H 990.409 -8.36622 -0.589963 0
M  V30 7538 H 988.715 -10.0291 -1.79807 0
M  V30 7539 H 988.525 -10.2138 0.558219 0
M  V30 7540 H 986.895 -9.6579 0.0444202 0
M  V30 7541 H 989.534 -5.69556 -2.79637 0
M  V30 7542 P 991.392 -8.4349 -2.47671 0
M  V30 7543 O 992.814 -8.92593 -2.65 0
M  V30 7544 O 991.032 -7.7568 -1.19296 0
M  V30 7545 O 991.069 -7.36886 -3.63805 0
M  V30 7546 C 990.909 -7.95349 -4.982 0
M  V30 7547 C 991.449 -6.94612 -5.98974 0
M  V30 7548 O 990.393 -6.10347 -6.11815 0
M  V30 7549 C 992.667 -6.11426 -5.62335 0
M  V30 7550 O 993.405 -5.6162 -6.70584 0
M  V30 7551 C 991.998 -5.04409 -4.73308 0
M  V30 7552 O 992.797 -3.85992 -4.75183 0
M  V30 7553 C 990.661 -4.8728 -5.41006 0
M  V30 7554 H 990.693 -4.02333 -6.11157 0
M  V30 7555 H 991.876 -5.39466 -3.69543 0
M  V30 7556 H 993.36 -6.71916 -5.01943 0
M  V30 7557 H 991.666 -7.4649 -6.93477 0
M  V30 7558 H 991.476 -8.89416 -5.05237 0
M  V30 7559 H 989.846 -8.14876 -5.18409 0
M  V30 7560 H 992.485 -3.27957 -5.4317 0
M  V30 7561 P 994.342 -5.75688 -6.64379 0
M  V30 7562 O 995.764 -6.07627 -7.05504 0
M  V30 7563 O 993.982 -5.88047 -5.19722 0
M  V30 7564 O 994.019 -4.2322 -7.04443 0
M  V30 7565 C 993.859 -3.99743 -8.4911 0
M  V30 7566 C 994.399 -2.60516 -8.79425 0
M  V30 7567 O 993.343 -1.82684 -8.4467 0
M  V30 7568 C 995.617 -2.10343 -8.03628 0
M  V30 7569 O 996.355 -1.09919 -8.67766 0
M  V30 7570 C 994.948 -1.68446 -6.70876 0
M  V30 7571 O 995.747 -0.678137 -6.08433 0
M  V30 7572 C 993.611 -1.17436 -7.18567 0
M  V30 7573 H 993.643 -0.0804732 -7.31656 0
M  V30 7574 H 994.826 -2.54037 -6.02537 0
M  V30 7575 H 996.31 -2.93881 -7.85526 0
M  V30 7576 H 994.616 -2.53065 -9.86973 0
M  V30 7577 H 994.426 -4.75072 -9.05887 0
M  V30 7578 H 992.796 -4.05244 -8.76668 0
M  V30 7579 H 995.435 0.177647 -6.34251 0
M  V30 7580 P 997.293 -1.25109 -8.70152 0
M  V30 7581 O 998.715 -1.29744 -9.22016 0
M  V30 7582 O 996.933 -2.13714 -7.55141 0
M  V30 7583 O 996.97 0.248149 -8.21425 0
M  V30 7584 C 996.81 1.22779 -9.30434 0
M  V30 7585 C 997.35 2.56293 -8.80664 0
M  V30 7586 O 996.294 3.02979 -8.09349 0
M  V30 7587 C 998.568 2.57523 -7.89775 0
M  V30 7588 O 999.306 3.7668 -7.89438 0
M  V30 7589 C 997.899 2.20997 -6.55446 0
M  V30 7590 O 998.698 2.71895 -5.48509 0
M  V30 7591 C 996.562 2.89693 -6.67988 0
M  V30 7592 H 996.594 3.88793 -6.19859 0
M  V30 7593 H 997.777 1.12046 -6.44229 0
M  V30 7594 H 999.261 1.7746 -8.19711 0
M  V30 7595 H 997.567 3.20706 -9.67112 0
M  V30 7596 H 997.377 0.901032 -10.1892 0
M  V30 7597 H 995.747 1.33049 -9.56592 0
M  V30 7598 H 998.386 3.57847 -5.23962 0
M  V30 7599 P 1000.24 3.65191 -7.99657 0
M  V30 7600 O 1001.67 3.89332 -8.45794 0
M  V30 7601 O 999.883 2.28472 -7.50807 0
M  V30 7602 O 999.92 4.64972 -6.77611 0
M  V30 7603 C 999.76 6.06319 -7.16352 0
M  V30 7604 C 1000.3 6.91731 -6.02299 0
M  V30 7605 O 999.244 6.92449 -5.17064 0
M  V30 7606 C 1001.52 6.43627 -5.25174 0
M  V30 7607 O 1002.26 7.43686 -4.60469 0
M  V30 7608 C 1000.85 5.40275 -4.31916 0
M  V30 7609 O 1001.65 5.25279 -3.14438 0
M  V30 7610 C 999.512 6.04847 -4.05327 0
M  V30 7611 H 999.544 6.62195 -3.11261 0
M  V30 7612 H 1000.73 4.42556 -4.81383 0
M  V30 7613 H 1002.21 5.92458 -5.93643 0
M  V30 7614 H 1000.52 7.92655 -6.402 0
M  V30 7615 H 1000.33 6.26671 -8.0846 0
M  V30 7616 H 998.697 6.29101 -7.32804 0
M  V30 7617 H 1001.34 5.84315 -2.47318 0
M  V30 7618 P 1003.19 7.39546 -4.75277 0
M  V30 7619 O 1004.62 7.84798 -5.01039 0
M  V30 7620 O 1002.83 5.9812 -5.08098 0
M  V30 7621 O 1002.87 7.57503 -3.1866 0
M  V30 7622 C 1002.71 8.97357 -2.74833 0
M  V30 7623 C 1003.25 9.07548 -1.32709 0
M  V30 7624 O 1002.19 8.62072 -0.606159 0
M  V30 7625 C 1004.47 8.25383 -0.938334 0
M  V30 7626 O 1005.21 8.74577 0.146954 0
M  V30 7627 C 1003.8 6.8802 -0.712559 0
M  V30 7628 O 1004.6 6.1189 0.194655 0
M  V30 7629 C 1002.46 7.27966 -0.139777 0
M  V30 7630 H 1002.49 7.25354 0.961601 0
M  V30 7631 H 1003.68 6.32557 -1.65702 0
M  V30 7632 H 1005.16 8.19355 -1.79097 0
M  V30 7633 H 1003.47 10.1294 -1.10029 0
M  V30 7634 H 1003.28 9.64276 -3.41316 0
M  V30 7635 H 1001.65 9.25417 -2.76357 0
M  V30 7636 H 1004.29 6.25267 1.07847 0
M  V30 7637 P 1006.14 8.791 7.86616e-12 0
M  V30 7638 O 1007.57 9.31096 0.027933 0
M  V30 7639 O 1005.78 7.77869 -1.04071 0
M  V30 7640 O 1005.82 8.09533 1.41463 0
M  V30 7641 C 1005.66 9.0349 2.53943 0
M  V30 7642 C 1006.2 8.35226 3.79016 0
M  V30 7643 O 1005.15 7.57992 4.15078 0
M  V30 7644 C 1007.42 7.45087 3.67298 0
M  V30 7645 O 1008.16 7.27796 4.85194 0
M  V30 7646 C 1006.75 6.17323 3.12027 0
M  V30 7647 O 1007.55 5.04231 3.47188 0
M  V30 7648 C 1005.41 6.19961 3.81809 0
M  V30 7649 H 1005.45 5.58218 4.73051 0
M  V30 7650 H 1006.63 6.21726 2.02589 0
M  V30 7651 H 1008.11 7.86112 2.9231 0
M  V30 7652 H 1006.42 9.11627 4.55076 0
M  V30 7653 H 1006.23 9.9573 2.34194 0
M  V30 7654 H 1004.6 9.2792 2.67832 0
M  V30 7655 H 1007.24 4.67702 4.28772 0
M  V30 7656 P 1009.09 7.39546 4.75277 0
M  V30 7657 O 1010.52 7.81777 5.05738 0
M  V30 7658 O 1008.73 7.1065 3.32998 0
M  V30 7659 O 1008.77 6.04542 5.56673 0
M  V30 7660 C 1008.61 6.22772 7.02095 0
M  V30 7661 C 1009.15 4.97725 7.70406 0
M  V30 7662 O 1008.1 4.13256 7.58987 0
M  V30 7663 C 1010.37 4.28231 7.11815 0
M  V30 7664 O 1011.11 3.49945 8.01648 0
M  V30 7665 C 1009.7 3.5063 5.96244 0
M  V30 7666 O 1010.5 2.36482 5.64681 0
M  V30 7667 C 1008.36 3.15122 6.56374 0
M  V30 7668 H 1008.4 2.13853 6.99751 0
M  V30 7669 H 1009.58 4.13501 5.06559 0
M  V30 7670 H 1011.06 5.03285 6.70911 0
M  V30 7671 H 1009.37 5.20877 8.75697 0
M  V30 7672 H 1009.18 7.11046 7.35349 0
M  V30 7673 H 1007.55 6.35815 7.26986 0
M  V30 7674 H 1010.19 1.61644 6.13565 0
M  V30 7675 P 1012.05 3.65191 7.99657 0
M  V30 7676 O 1013.47 3.8425 8.48115 0
M  V30 7677 O 1011.69 4.17805 6.64342 0
M  V30 7678 O 1011.72 2.07613 7.95143 0
M  V30 7679 C 1011.56 1.44328 9.27336 0
M  V30 7680 C 1012.1 0.0220036 9.17197 0
M  V30 7681 O 1011.05 -0.626867 8.61923 0
M  V30 7682 C 1013.32 -0.24586 8.30336 0
M  V30 7683 O 1014.06 -1.39011 8.63583 0
M  V30 7684 C 1012.65 -0.273849 6.91158 0
M  V30 7685 O 1013.45 -1.06348 6.02892 0
M  V30 7686 C 1011.31 -0.897649 7.22545 0
M  V30 7687 H 1011.35 -1.9841 7.04286 0
M  V30 7688 H 1012.53 0.739928 6.497 0
M  V30 7689 H 1014.01 0.60668 8.36503 0
M  V30 7690 H 1012.32 -0.352479 10.1829 0
M  V30 7691 H 1012.13 2.00611 10.0304 0
M  V30 7692 H 1010.5 1.41843 9.55327 0
M  V30 7693 H 1013.14 -1.95734 6.03555 0
M  V30 7694 P 1015 -1.25109 8.70152 0
M  V30 7695 O 1016.4 -1.31452 9.27431 0
M  V30 7696 O 1014.62 -0.0458113 7.89887 0
M  V30 7697 O 1014.67 -2.55201 7.81066 0
M  V30 7698 C 1014.51 -3.79939 8.58154 0
M  V30 7699 C 1015.05 -4.93969 7.72701 0
M  V30 7700 O 1014 -5.18666 6.91125 0
M  V30 7701 C 1016.27 -4.69597 6.85231 0
M  V30 7702 O 1017.01 -5.83832 6.51337 0
M  V30 7703 C 1015.6 -3.96706 5.66633 0
M  V30 7704 O 1016.4 -4.15346 4.49615 0
M  V30 7705 C 1014.27 -4.66153 5.59313 0
M  V30 7706 N 1013.22 -3.71582 5.24027 0
M  V30 7707 C 1012.19 -4.15133 4.44901 0
M  V30 7708 O 1012.23 -5.32122 4.00336 0
M  V30 7709 N 1011.18 -3.30554 4.15693 0
M  V30 7710 C 1011.22 -2.04701 4.61105 0
M  V30 7711 C 1012.32 -1.57111 5.38655 0
M  V30 7712 C 1013.29 -2.44234 5.68454 0
M  V30 7713 H 1014.3 -5.47604 4.85148 0
M  V30 7714 H 1015.48 -2.8955 5.86187 0
M  V30 7715 H 1016.96 -4.01995 7.36197 0
M  V30 7716 H 1015.27 -5.81019 8.37003 0
M  V30 7717 H 1015.08 -3.73517 9.52265 0
M  V30 7718 H 1013.45 -3.97122 8.80267 0
M  V30 7719 H 1012.37 -0.538464 5.72373 0
M  V30 7720 H 1014.13 -2.11927 6.29377 0
M  V30 7721 H 1016.19 -4.98352 4.09633 0
M  V30 7722 P 1017.95 -5.75688 6.64379 0
M  V30 7723 O 1019.37 -6.11915 7.01921 0
M  V30 7724 O 1017.59 -4.30744 6.56026 0
M  V30 7725 O 1017.62 -6.37042 5.19165 0
M  V30 7726 C 1017.46 -7.83662 5.1657 0
M  V30 7727 C 1018 -8.33398 3.83019 0
M  V30 7728 O 1016.95 -8.0998 3.00999 0
M  V30 7729 C 1019.22 -7.65514 3.2257 0
M  V30 7730 O 1019.96 -8.4329 2.32297 0
M  V30 7731 C 1018.55 -6.40075 2.62207 0
M  V30 7732 O 1019.35 -5.92338 1.5428 0
M  V30 7733 C 1017.22 -6.9454 2.18503 0
M  V30 7734 N 1016.17 -5.95905 2.39948 0
M  V30 7735 C 1016.34 -4.98383 3.32108 0
M  V30 7736 N 1015.31 -4.16798 3.41761 0
M  V30 7737 C 1014.43 -4.65287 2.47461 0
M  V30 7738 C 1013.16 -4.18946 2.07461 0
M  V30 7739 N 1012.6 -4.95327 1.09101 0
M  V30 7740 C 1013.2 -6.04369 0.519812 0
M  V30 7741 N 1014.38 -6.50694 0.855982 0
M  V30 7742 C 1014.95 -5.75818 1.84322 0
M  V30 7743 H 1018.43 -5.60502 3.36589 0
M  V30 7744 H 1019.91 -7.35707 4.02681 0
M  V30 7745 H 1018.22 -9.41302 3.90009 0
M  V30 7746 H 1018.03 -8.29056 5.99158 0
M  V30 7747 H 1016.4 -8.10073 5.25882 0
M  V30 7748 H 1017.24 -4.88564 3.92502 0
M  V30 7749 H 1019.04 -6.30224 0.72668 0
M  V30 7750 P 1020.9 -8.4349 2.47671 0
M  V30 7751 O 1022.32 -8.94167 2.5964 0
M  V30 7752 O 1020.54 -7.1704 3.19006 0
M  V30 7753 O 1020.57 -8.16596 0.923387 0
M  V30 7754 C 1020.41 -9.38437 0.108857 0
M  V30 7755 C 1020.95 -9.08175 -1.28353 0
M  V30 7756 O 1019.9 -8.44229 -1.84713 0
M  V30 7757 C 1022.17 -8.18386 -1.42505 0
M  V30 7758 O 1022.91 -8.3501 -2.60497 0
M  V30 7759 C 1021.5 -6.80225 -1.25468 0
M  V30 7760 O 1022.3 -5.81621 -1.91066 0
M  V30 7761 C 1020.17 -7.02416 -1.9168 0
M  V30 7762 H 1020.2 -6.6888 -2.96621 0
M  V30 7763 H 1021.38 -6.53617 -0.192223 0
M  V30 7764 H 1022.87 -8.36622 -0.589963 0
M  V30 7765 H 1021.17 -10.0291 -1.79807 0
M  V30 7766 H 1020.98 -10.2138 0.558219 0
M  V30 7767 H 1019.35 -9.6579 0.0444202 0
M  V30 7768 H 1021.99 -5.69556 -2.79637 0
M  V30 7769 P 1023.85 -8.4349 -2.47671 0
M  V30 7770 O 1025.27 -8.92593 -2.65 0
M  V30 7771 O 1023.49 -7.7568 -1.19296 0
M  V30 7772 O 1023.52 -7.36886 -3.63805 0
M  V30 7773 C 1023.36 -7.95349 -4.982 0
M  V30 7774 C 1023.9 -6.94612 -5.98974 0
M  V30 7775 O 1022.85 -6.10347 -6.11815 0
M  V30 7776 C 1025.12 -6.11426 -5.62335 0
M  V30 7777 O 1025.86 -5.6162 -6.70584 0
M  V30 7778 C 1024.45 -5.04409 -4.73308 0
M  V30 7779 O 1025.25 -3.85992 -4.75183 0
M  V30 7780 C 1023.12 -4.8728 -5.41006 0
M  V30 7781 H 1023.15 -4.02333 -6.11157 0
M  V30 7782 H 1024.33 -5.39466 -3.69543 0
M  V30 7783 H 1025.82 -6.71916 -5.01943 0
M  V30 7784 H 1024.12 -7.4649 -6.93477 0
M  V30 7785 H 1023.93 -8.89416 -5.05237 0
M  V30 7786 H 1022.3 -8.14876 -5.18409 0
M  V30 7787 H 1024.94 -3.27957 -5.4317 0
M  V30 7788 P 1026.8 -5.75688 -6.64379 0
M  V30 7789 O 1028.22 -6.07627 -7.05504 0
M  V30 7790 O 1026.44 -5.88047 -5.19722 0
M  V30 7791 O 1026.48 -4.2322 -7.04443 0
M  V30 7792 C 1026.32 -3.99743 -8.4911 0
M  V30 7793 C 1026.86 -2.60516 -8.79425 0
M  V30 7794 O 1025.8 -1.82684 -8.4467 0
M  V30 7795 C 1028.07 -2.10343 -8.03628 0
M  V30 7796 O 1028.81 -1.09919 -8.67766 0
M  V30 7797 C 1027.4 -1.68446 -6.70876 0
M  V30 7798 O 1028.2 -0.678137 -6.08433 0
M  V30 7799 C 1026.07 -1.17436 -7.18567 0
M  V30 7800 H 1026.1 -0.0804732 -7.31656 0
M  V30 7801 H 1027.28 -2.54037 -6.02537 0
M  V30 7802 H 1028.77 -2.93881 -7.85526 0
M  V30 7803 H 1027.07 -2.53065 -9.86973 0
M  V30 7804 H 1026.88 -4.75072 -9.05887 0
M  V30 7805 H 1025.25 -4.05244 -8.76668 0
M  V30 7806 H 1027.89 0.177647 -6.34251 0
M  V30 7807 P 1029.75 -1.25109 -8.70152 0
M  V30 7808 O 1031.17 -1.29744 -9.22016 0
M  V30 7809 O 1029.39 -2.13714 -7.55141 0
M  V30 7810 O 1029.43 0.248149 -8.21425 0
M  V30 7811 C 1029.27 1.22779 -9.30434 0
M  V30 7812 C 1029.81 2.56293 -8.80664 0
M  V30 7813 O 1028.75 3.02979 -8.09349 0
M  V30 7814 C 1031.02 2.57523 -7.89775 0
M  V30 7815 O 1031.76 3.7668 -7.89438 0
M  V30 7816 C 1030.35 2.20997 -6.55446 0
M  V30 7817 O 1031.15 2.71895 -5.48509 0
M  V30 7818 C 1029.02 2.89693 -6.67988 0
M  V30 7819 H 1029.05 3.88793 -6.19859 0
M  V30 7820 H 1030.23 1.12046 -6.44229 0
M  V30 7821 H 1031.72 1.7746 -8.19711 0
M  V30 7822 H 1030.02 3.20706 -9.67112 0
M  V30 7823 H 1029.83 0.901032 -10.1892 0
M  V30 7824 H 1028.2 1.33049 -9.56592 0
M  V30 7825 H 1030.84 3.57847 -5.23962 0
M  V30 7826 P 1032.7 3.65191 -7.99657 0
M  V30 7827 O 1034.12 3.89332 -8.45794 0
M  V30 7828 O 1032.34 2.28472 -7.50807 0
M  V30 7829 O 1032.38 4.64972 -6.77611 0
M  V30 7830 C 1032.22 6.06319 -7.16352 0
M  V30 7831 C 1032.76 6.91731 -6.02299 0
M  V30 7832 O 1031.7 6.92449 -5.17064 0
M  V30 7833 C 1033.97 6.43627 -5.25174 0
M  V30 7834 O 1034.71 7.43686 -4.60469 0
M  V30 7835 C 1033.31 5.40275 -4.31916 0
M  V30 7836 O 1034.1 5.25279 -3.14438 0
M  V30 7837 C 1031.97 6.04847 -4.05327 0
M  V30 7838 H 1032 6.62195 -3.11261 0
M  V30 7839 H 1033.18 4.42556 -4.81383 0
M  V30 7840 H 1034.67 5.92458 -5.93643 0
M  V30 7841 H 1032.97 7.92655 -6.402 0
M  V30 7842 H 1032.78 6.26671 -8.0846 0
M  V30 7843 H 1031.15 6.29101 -7.32804 0
M  V30 7844 H 1033.79 5.84315 -2.47318 0
M  V30 7845 P 1035.65 7.39546 -4.75277 0
M  V30 7846 O 1037.07 7.84798 -5.01039 0
M  V30 7847 O 1035.29 5.9812 -5.08098 0
M  V30 7848 O 1035.33 7.57503 -3.1866 0
M  V30 7849 C 1035.17 8.97357 -2.74833 0
M  V30 7850 C 1035.71 9.07548 -1.32709 0
M  V30 7851 O 1034.65 8.62072 -0.606159 0
M  V30 7852 C 1036.93 8.25383 -0.938334 0
M  V30 7853 O 1037.66 8.74577 0.146954 0
M  V30 7854 C 1036.26 6.8802 -0.712559 0
M  V30 7855 O 1037.06 6.1189 0.194655 0
M  V30 7856 C 1034.92 7.27966 -0.139777 0
M  V30 7857 H 1034.95 7.25354 0.961601 0
M  V30 7858 H 1036.13 6.32557 -1.65702 0
M  V30 7859 H 1037.62 8.19355 -1.79097 0
M  V30 7860 H 1035.92 10.1294 -1.10029 0
M  V30 7861 H 1035.73 9.64276 -3.41316 0
M  V30 7862 H 1034.1 9.25417 -2.76357 0
M  V30 7863 H 1036.74 6.25267 1.07847 0
M  V30 7864 P 1038.6 8.791 8.17632e-12 0
M  V30 7865 O 1040.02 9.31096 0.027933 0
M  V30 7866 O 1038.24 7.77869 -1.04071 0
M  V30 7867 O 1038.28 8.09533 1.41463 0
M  V30 7868 C 1038.12 9.0349 2.53943 0
M  V30 7869 C 1038.66 8.35226 3.79016 0
M  V30 7870 O 1037.6 7.57992 4.15078 0
M  V30 7871 C 1039.88 7.45087 3.67298 0
M  V30 7872 O 1040.61 7.27796 4.85194 0
M  V30 7873 C 1039.21 6.17323 3.12027 0
M  V30 7874 O 1040.01 5.04231 3.47188 0
M  V30 7875 C 1037.87 6.19961 3.81809 0
M  V30 7876 H 1037.9 5.58218 4.73051 0
M  V30 7877 H 1039.08 6.21726 2.02589 0
M  V30 7878 H 1040.57 7.86112 2.9231 0
M  V30 7879 H 1038.87 9.11627 4.55076 0
M  V30 7880 H 1038.68 9.9573 2.34194 0
M  V30 7881 H 1037.05 9.2792 2.67832 0
M  V30 7882 H 1039.69 4.67702 4.28772 0
M  V30 7883 P 1041.55 7.39546 4.75277 0
M  V30 7884 O 1042.97 7.81777 5.05738 0
M  V30 7885 O 1041.19 7.1065 3.32998 0
M  V30 7886 O 1041.23 6.04542 5.56673 0
M  V30 7887 C 1041.07 6.22772 7.02095 0
M  V30 7888 C 1041.61 4.97725 7.70406 0
M  V30 7889 O 1040.55 4.13256 7.58987 0
M  V30 7890 C 1042.83 4.28231 7.11815 0
M  V30 7891 O 1043.56 3.49945 8.01648 0
M  V30 7892 C 1042.16 3.5063 5.96244 0
M  V30 7893 O 1042.96 2.36482 5.64681 0
M  V30 7894 C 1040.82 3.15122 6.56374 0
M  V30 7895 H 1040.85 2.13853 6.99751 0
M  V30 7896 H 1042.04 4.13501 5.06559 0
M  V30 7897 H 1043.52 5.03285 6.70911 0
M  V30 7898 H 1041.83 5.20877 8.75697 0
M  V30 7899 H 1041.64 7.11046 7.35349 0
M  V30 7900 H 1040.01 6.35815 7.26986 0
M  V30 7901 H 1042.64 1.61644 6.13565 0
M  V30 7902 P 1044.5 3.65191 7.99657 0
M  V30 7903 O 1045.92 3.8425 8.48115 0
M  V30 7904 O 1044.14 4.17805 6.64342 0
M  V30 7905 O 1044.18 2.07613 7.95143 0
M  V30 7906 C 1044.02 1.44328 9.27336 0
M  V30 7907 C 1044.56 0.0220036 9.17197 0
M  V30 7908 O 1043.5 -0.626867 8.61923 0
M  V30 7909 C 1045.78 -0.24586 8.30336 0
M  V30 7910 O 1046.51 -1.39011 8.63583 0
M  V30 7911 C 1045.11 -0.273849 6.91158 0
M  V30 7912 O 1045.91 -1.06348 6.02892 0
M  V30 7913 C 1043.77 -0.897649 7.22545 0
M  V30 7914 H 1043.8 -1.9841 7.04286 0
M  V30 7915 H 1044.99 0.739928 6.497 0
M  V30 7916 H 1046.47 0.60668 8.36503 0
M  V30 7917 H 1044.78 -0.352479 10.1829 0
M  V30 7918 H 1044.59 2.00611 10.0304 0
M  V30 7919 H 1042.96 1.41843 9.55327 0
M  V30 7920 H 1045.59 -1.95734 6.03555 0
M  V30 7921 P 1047.45 -1.25109 8.70152 0
M  V30 7922 O 1048.87 -1.35274 9.21221 0
M  V30 7923 O 1047.09 -0.0769065 7.84762 0
M  V30 7924 O 1047.13 -2.55232 7.81161 0
M  V30 7925 C 1046.97 -3.79939 8.58154 0
M  V30 7926 C 1047.51 -4.94023 7.72785 0
M  V30 7927 O 1046.45 -5.18726 6.91205 0
M  V30 7928 C 1048.73 -4.69597 6.85231 0
M  V30 7929 O 1049.47 -5.83832 6.51337 0
M  V30 7930 C 1048.06 -3.96706 5.66633 0
M  V30 7931 O 1048.86 -4.15414 4.49689 0
M  V30 7932 C 1046.72 -4.66153 5.59313 0
M  V30 7933 H 1046.75 -5.47679 4.85214 0
M  V30 7934 H 1047.94 -2.89008 5.86566 0
M  V30 7935 H 1049.42 -4.0121 7.36511 0
M  V30 7936 H 1047.73 -5.80182 8.37584 0
M  V30 7937 H 1047.54 -3.73517 9.52265 0
M  V30 7938 H 1045.91 -3.97163 8.80359 0
M  V30 7939 H 1048.55 -4.90969 4.01921 0
M  V30 7940 P 1050.4 -5.75688 6.64379 0
M  V30 7941 O 1051.82 -6.11849 7.01846 0
M  V30 7942 O 1050.04 -4.30744 6.56026 0
M  V30 7943 O 1050.08 -6.37042 5.19165 0
M  V30 7944 C 1049.92 -7.83578 5.16515 0
M  V30 7945 C 1050.46 -8.33398 3.83019 0
M  V30 7946 O 1049.4 -8.10074 3.01034 0
M  V30 7947 C 1051.68 -7.65514 3.2257 0
M  V30 7948 O 1052.42 -8.4329 2.32297 0
M  V30 7949 C 1051.01 -6.40075 2.62207 0
M  V30 7950 O 1051.81 -5.92589 1.53712 0
M  V30 7951 C 1049.67 -6.9454 2.18503 0
M  V30 7952 H 1049.7 -7.23063 1.12091 0
M  V30 7953 H 1050.89 -5.6025 3.37201 0
M  V30 7954 H 1052.37 -7.35707 4.02681 0
M  V30 7955 H 1050.68 -9.40912 3.9095 0
M  V30 7956 H 1050.49 -8.29056 5.99158 0
M  V30 7957 H 1048.86 -8.10073 5.25882 0
M  V30 7958 H 1051.5 -6.30324 0.726794 0
M  V30 7959 P 1053.35 -8.4349 2.47671 0
M  V30 7960 O 1054.78 -8.94359 2.59696 0
M  V30 7961 O 1052.99 -7.1704 3.19006 0
M  V30 7962 O 1053.03 -8.16596 0.923387 0
M  V30 7963 C 1052.87 -9.38437 0.108857 0
M  V30 7964 C 1053.41 -9.08076 -1.28339 0
M  V30 7965 O 1052.36 -8.44229 -1.84713 0
M  V30 7966 C 1054.63 -8.18386 -1.42505 0
M  V30 7967 O 1055.37 -8.3501 -2.60497 0
M  V30 7968 C 1053.96 -6.80225 -1.25468 0
M  V30 7969 O 1054.76 -5.81526 -1.91035 0
M  V30 7970 C 1052.62 -7.02416 -1.9168 0
M  V30 7971 N 1051.58 -6.31033 -1.20314 0
M  V30 7972 C 1051.64 -6.18781 0.121293 0
M  V30 7973 N 1050.6 -5.49762 0.588272 0
M  V30 7974 C 1049.86 -5.22015 -0.488988 0
M  V30 7975 C 1048.56 -4.61966 -0.596448 0
M  V30 7976 O 1047.82 -4.19162 0.309059 0
M  V30 7977 N 1048.13 -4.53773 -1.878 0
M  V30 7978 C 1048.88 -4.99623 -2.99082 0
M  V30 7979 N 1048.28 -4.78912 -4.21227 0
M  V30 7980 N 1050.03 -5.59957 -2.91093 0
M  V30 7981 C 1050.49 -5.70225 -1.64218 0
M  V30 7982 H 1052.65 -6.6888 -2.96621 0
M  V30 7983 H 1053.84 -6.53517 -0.192194 0
M  V30 7984 H 1055.32 -8.36563 -0.598329 0
M  V30 7985 H 1053.63 -10.0291 -1.79807 0
M  V30 7986 H 1053.44 -10.2138 0.558219 0
M  V30 7987 H 1051.81 -9.6579 0.0444202 0
M  V30 7988 H 1047.23 -4.12883 -2.05283 0
M  V30 7989 H 1052.44 -6.59596 0.745856 0
M  V30 7990 H 1047.37 -4.31425 -4.2628 0
M  V30 7991 H 1048.74 -5.11219 -5.07148 0
M  V30 7992 H 1054.45 -5.69466 -2.79593 0
M  V30 7993 P 1056.3 -8.4349 -2.47671 0
M  V30 7994 O 1057.73 -8.92689 -2.65029 0
M  V30 7995 O 1055.94 -7.7568 -1.19296 0
M  V30 7996 O 1055.98 -7.36886 -3.63805 0
M  V30 7997 C 1055.82 -7.95433 -4.98253 0
M  V30 7998 C 1056.36 -6.94612 -5.98974 0
M  V30 7999 O 1055.31 -6.10277 -6.11744 0
M  V30 8000 C 1057.58 -6.11426 -5.62335 0
M  V30 8001 O 1058.32 -5.6162 -6.70584 0
M  V30 8002 C 1056.91 -5.04409 -4.73308 0
M  V30 8003 O 1057.71 -3.86404 -4.74719 0
M  V30 8004 C 1055.57 -4.8728 -5.41006 0
M  V30 8005 N 1054.53 -4.65812 -4.42377 0
M  V30 8006 C 1054.7 -5.09132 -3.15382 0
M  V30 8007 N 1053.67 -4.84021 -2.3716 0
M  V30 8008 C 1052.79 -4.18386 -3.20441 0
M  V30 8009 C 1051.52 -3.6275 -2.94905 0
M  V30 8010 N 1050.92 -3.65794 -1.73372 0
M  V30 8011 N 1050.96 -3.05008 -4.05243 0
M  V30 8012 C 1051.56 -2.98348 -5.28159 0
M  V30 8013 N 1052.73 -3.48171 -5.56333 0
M  V30 8014 C 1053.31 -4.06869 -4.47212 0
M  V30 8015 H 1055.61 -4.02278 -6.11074 0
M  V30 8016 H 1056.79 -5.39013 -3.70026 0
M  V30 8017 H 1058.27 -6.71916 -5.01943 0
M  V30 8018 H 1056.58 -7.45796 -6.94223 0
M  V30 8019 H 1056.39 -8.89416 -5.05237 0
M  V30 8020 H 1054.76 -8.14876 -5.18409 0
M  V30 8021 H 1051.02 -2.47853 -6.07807 0
M  V30 8022 H 1055.6 -5.59989 -2.81362 0
M  V30 8023 H 1049.99 -3.23218 -1.60782 0
M  V30 8024 H 1051.4 -4.10523 -0.937856 0
M  V30 8025 H 1057.4 -3.27906 -5.43085 0
M  V30 8026 P 1059.25 -5.75688 -6.64379 0
M  V30 8027 O 1060.68 -6.07692 -7.0558 0
M  V30 8028 O 1058.89 -5.88047 -5.19722 0
M  V30 8029 O 1058.93 -4.2322 -7.04443 0
M  V30 8030 C 1058.77 -3.99785 -8.49201 0
M  V30 8031 C 1059.31 -2.60516 -8.79425 0
M  V30 8032 O 1058.26 -1.82663 -8.44573 0
M  V30 8033 C 1060.53 -2.10343 -8.03628 0
M  V30 8034 O 1061.27 -1.09919 -8.67766 0
M  V30 8035 C 1059.86 -1.68446 -6.70876 0
M  V30 8036 O 1060.66 -0.684109 -6.08265 0
M  V30 8037 C 1058.52 -1.17436 -7.18567 0
M  V30 8038 N 1057.48 -1.52699 -6.23988 0
M  V30 8039 C 1057.65 -2.578 -5.40574 0
M  V30 8040 N 1056.62 -2.78966 -4.61193 0
M  V30 8041 C 1055.74 -1.78725 -4.95769 0
M  V30 8042 C 1054.47 -1.45727 -4.44207 0
M  V30 8043 N 1053.91 -0.374977 -5.05812 0
M  V30 8044 C 1054.51 0.345585 -6.05615 0
M  V30 8045 N 1055.68 0.0787651 -6.56253 0
M  V30 8046 C 1056.26 -1.00499 -5.96189 0
M  V30 8047 H 1059.74 -2.53396 -6.02698 0
M  V30 8048 H 1061.22 -2.93881 -7.85526 0
M  V30 8049 H 1059.53 -2.52078 -9.87225 0
M  V30 8050 H 1059.34 -4.75072 -9.05887 0
M  V30 8051 H 1057.71 -4.05244 -8.76668 0
M  V30 8052 H 1058.55 -3.18977 -5.3945 0
M  V30 8053 H 1060.35 0.177619 -6.34151 0
M  V30 8054 P 1062.21 -1.25109 -8.70152 0
M  V30 8055 O 1063.63 -1.29744 -9.22016 0
M  V30 8056 O 1061.85 -2.13714 -7.55141 0
M  V30 8057 O 1061.88 0.248149 -8.21425 0
M  V30 8058 C 1061.72 1.22779 -9.30434 0
M  V30 8059 C 1062.26 2.56293 -8.80664 0
M  V30 8060 O 1061.21 3.02979 -8.09349 0
M  V30 8061 C 1063.48 2.57523 -7.89775 0
M  V30 8062 O 1064.22 3.7668 -7.89438 0
M  V30 8063 C 1062.81 2.20997 -6.55446 0
M  V30 8064 O 1063.61 2.71895 -5.48509 0
M  V30 8065 C 1061.47 2.89693 -6.67988 0
M  V30 8066 H 1061.51 3.88793 -6.19859 0
M  V30 8067 H 1062.69 1.12046 -6.44229 0
M  V30 8068 H 1064.17 1.7746 -8.19711 0
M  V30 8069 H 1062.48 3.20706 -9.67112 0
M  V30 8070 H 1062.29 0.901032 -10.1892 0
M  V30 8071 H 1060.66 1.33049 -9.56592 0
M  V30 8072 H 1063.3 3.57847 -5.23962 0
M  V30 8073 P 1065.16 3.65191 -7.99657 0
M  V30 8074 O 1066.58 3.89332 -8.45794 0
M  V30 8075 O 1064.8 2.28472 -7.50807 0
M  V30 8076 O 1064.83 4.64972 -6.77611 0
M  V30 8077 C 1064.67 6.06319 -7.16352 0
M  V30 8078 C 1065.21 6.91731 -6.02299 0
M  V30 8079 O 1064.16 6.92449 -5.17064 0
M  V30 8080 C 1066.43 6.43627 -5.25174 0
M  V30 8081 O 1067.17 7.43686 -4.60469 0
M  V30 8082 C 1065.76 5.40275 -4.31916 0
M  V30 8083 O 1066.56 5.25279 -3.14438 0
M  V30 8084 C 1064.42 6.04847 -4.05327 0
M  V30 8085 H 1064.46 6.62195 -3.11261 0
M  V30 8086 H 1065.64 4.42556 -4.81383 0
M  V30 8087 H 1067.12 5.92458 -5.93643 0
M  V30 8088 H 1065.43 7.92655 -6.402 0
M  V30 8089 H 1065.24 6.26671 -8.0846 0
M  V30 8090 H 1063.61 6.29101 -7.32804 0
M  V30 8091 H 1066.25 5.84315 -2.47318 0
M  V30 8092 P 1068.11 7.39546 -4.75277 0
M  V30 8093 O 1069.53 7.84882 -5.01092 0
M  V30 8094 O 1067.75 5.9812 -5.08098 0
M  V30 8095 O 1067.78 7.57503 -3.1866 0
M  V30 8096 C 1067.62 8.97452 -2.74862 0
M  V30 8097 C 1068.16 9.07548 -1.32709 0
M  V30 8098 O 1067.11 8.61972 -0.606089 0
M  V30 8099 C 1069.38 8.25383 -0.938334 0
M  V30 8100 O 1070.12 8.74577 0.146954 0
M  V30 8101 C 1068.71 6.8802 -0.712559 0
M  V30 8102 O 1069.51 6.1181 0.188505 0
M  V30 8103 C 1067.38 7.27966 -0.139777 0
M  V30 8104 N 1066.33 6.39368 -0.623421 0
M  V30 8105 C 1066.5 5.71761 -1.78245 0
M  V30 8106 N 1065.47 4.962 -2.10491 0
M  V30 8107 C 1064.59 5.16158 -1.0635 0
M  V30 8108 C 1063.32 4.60425 -0.810266 0
M  V30 8109 N 1062.72 3.7057 -1.62914 0
M  V30 8110 N 1062.76 5.06 0.348685 0
M  V30 8111 C 1063.36 5.94532 1.20395 0
M  V30 8112 N 1064.54 6.48452 1.01191 0
M  V30 8113 C 1065.11 6.04423 -0.146291 0
M  V30 8114 H 1067.41 7.25255 0.961469 0
M  V30 8115 H 1068.59 6.32625 -1.65044 0
M  V30 8116 H 1070.07 8.19355 -1.79097 0
M  V30 8117 H 1068.38 10.1305 -1.09016 0
M  V30 8118 H 1068.19 9.64276 -3.41316 0
M  V30 8119 H 1066.56 9.25417 -2.76357 0
M  V30 8120 H 1062.82 6.21659 2.10714 0
M  V30 8121 H 1067.4 5.79354 -2.38959 0
M  V30 8122 H 1061.79 3.33174 -1.38982 0
M  V30 8123 H 1063.2 3.39714 -2.48836 0
M  V30 8124 H 1069.2 6.25169 1.0783 0
M  V30 8125 P 1071.06 8.791 8.48649e-12 0
M  V30 8126 O 1072.48 9.31296 0.027939 0
M  V30 8127 O 1070.7 7.77869 -1.04071 0
M  V30 8128 O 1070.73 8.09533 1.41463 0
M  V30 8129 C 1070.57 9.0349 2.53943 0
M  V30 8130 C 1071.11 8.35135 3.78975 0
M  V30 8131 O 1070.06 7.57992 4.15078 0
M  V30 8132 C 1072.33 7.45087 3.67298 0
M  V30 8133 O 1073.07 7.27796 4.85194 0
M  V30 8134 C 1071.66 6.17323 3.12027 0
M  V30 8135 O 1072.46 5.04149 3.47132 0
M  V30 8136 C 1070.33 6.19961 3.81809 0
M  V30 8137 N 1069.28 5.71575 2.93223 0
M  V30 8138 C 1069.34 5.97133 1.62693 0
M  V30 8139 N 1068.3 5.44066 0.984414 0
M  V30 8140 C 1067.57 4.87093 1.93987 0
M  V30 8141 C 1066.26 4.26449 1.8738 0
M  V30 8142 O 1065.53 4.1089 0.884377 0
M  V30 8143 N 1065.83 3.82483 3.08036 0
M  V30 8144 C 1066.58 3.95124 4.27727 0
M  V30 8145 N 1065.98 3.4084 5.39089 0
M  V30 8146 N 1067.73 4.55264 4.3706 0
M  V30 8147 C 1068.19 5.00861 3.18217 0
M  V30 8148 H 1070.36 5.58218 4.73051 0
M  V30 8149 H 1071.54 6.21631 2.02558 0
M  V30 8150 H 1073.03 7.85819 2.93096 0
M  V30 8151 H 1071.33 9.11627 4.55076 0
M  V30 8152 H 1071.14 9.9573 2.34194 0
M  V30 8153 H 1069.51 9.2792 2.67832 0
M  V30 8154 H 1064.93 3.38323 3.1329 0
M  V30 8155 H 1070.14 6.53891 1.14265 0
M  V30 8156 H 1065.07 2.93852 5.30559 0
M  V30 8157 H 1066.45 3.47631 6.30632 0
M  V30 8158 H 1072.15 4.67628 4.28704 0
M  V30 8159 P 1074.01 7.39546 4.75277 0
M  V30 8160 O 1075.43 7.81777 5.05738 0
M  V30 8161 O 1073.65 7.1065 3.32998 0
M  V30 8162 O 1073.68 6.04542 5.56673 0
M  V30 8163 C 1073.52 6.22772 7.02095 0
M  V30 8164 C 1074.06 4.97725 7.70406 0
M  V30 8165 O 1073.01 4.13256 7.58987 0
M  V30 8166 C 1075.28 4.28231 7.11815 0
M  V30 8167 O 1076.02 3.49945 8.01648 0
M  V30 8168 C 1074.61 3.5063 5.96244 0
M  V30 8169 O 1075.41 2.36482 5.64681 0
M  V30 8170 C 1073.28 3.15122 6.56374 0
M  V30 8171 H 1073.31 2.13853 6.99751 0
M  V30 8172 H 1074.49 4.13501 5.06559 0
M  V30 8173 H 1075.98 5.03285 6.70911 0
M  V30 8174 H 1074.28 5.20877 8.75697 0
M  V30 8175 H 1074.09 7.11046 7.35349 0
M  V30 8176 H 1072.46 6.35815 7.26986 0
M  V30 8177 H 1075.1 1.61644 6.13565 0
M  V30 8178 P 1076.96 3.65191 7.99657 0
M  V30 8179 O 1078.38 3.8425 8.48115 0
M  V30 8180 O 1076.6 4.17805 6.64342 0
M  V30 8181 O 1076.64 2.07613 7.95143 0
M  V30 8182 C 1076.48 1.44328 9.27336 0
M  V30 8183 C 1077.02 0.0220036 9.17197 0
M  V30 8184 O 1075.96 -0.626867 8.61923 0
M  V30 8185 C 1078.23 -0.24586 8.30336 0
M  V30 8186 O 1078.97 -1.39011 8.63583 0
M  V30 8187 C 1077.56 -0.273849 6.91158 0
M  V30 8188 O 1078.36 -1.06348 6.02892 0
M  V30 8189 C 1076.23 -0.897649 7.22545 0
M  V30 8190 H 1076.26 -1.9841 7.04286 0
M  V30 8191 H 1077.44 0.739928 6.497 0
M  V30 8192 H 1078.93 0.60668 8.36503 0
M  V30 8193 H 1077.23 -0.352479 10.1829 0
M  V30 8194 H 1077.04 2.00611 10.0304 0
M  V30 8195 H 1075.41 1.41843 9.55327 0
M  V30 8196 H 1078.05 -1.95734 6.03555 0
M  V30 8197 P 1079.91 -1.25109 8.70152 0
M  V30 8198 O 1081.33 -1.35274 9.21221 0
M  V30 8199 O 1079.55 -0.0769065 7.84762 0
M  V30 8200 O 1079.59 -2.55232 7.81161 0
M  V30 8201 C 1079.43 -3.79939 8.58154 0
M  V30 8202 C 1079.97 -4.94023 7.72785 0
M  V30 8203 O 1078.91 -5.18726 6.91205 0
M  V30 8204 C 1081.18 -4.69597 6.85231 0
M  V30 8205 O 1081.92 -5.83832 6.51337 0
M  V30 8206 C 1080.51 -3.96706 5.66633 0
M  V30 8207 O 1081.31 -4.15414 4.49689 0
M  V30 8208 C 1079.18 -4.66153 5.59313 0
M  V30 8209 H 1079.21 -5.47679 4.85214 0
M  V30 8210 H 1080.39 -2.89008 5.86566 0
M  V30 8211 H 1081.88 -4.0121 7.36511 0
M  V30 8212 H 1080.18 -5.80182 8.37584 0
M  V30 8213 H 1079.99 -3.73517 9.52265 0
M  V30 8214 H 1078.36 -3.97163 8.80359 0
M  V30 8215 H 1081 -4.90969 4.01921 0
M  V30 8216 P 1082.86 -5.75688 6.64379 0
M  V30 8217 O 1084.28 -6.11849 7.01846 0
M  V30 8218 O 1082.5 -4.30744 6.56026 0
M  V30 8219 O 1082.54 -6.37042 5.19165 0
M  V30 8220 C 1082.38 -7.83578 5.16515 0
M  V30 8221 C 1082.92 -8.33398 3.83019 0
M  V30 8222 O 1081.86 -8.10074 3.01034 0
M  V30 8223 C 1084.13 -7.65514 3.2257 0
M  V30 8224 O 1084.87 -8.4329 2.32297 0
M  V30 8225 C 1083.47 -6.40075 2.62207 0
M  V30 8226 O 1084.26 -5.92589 1.53712 0
M  V30 8227 C 1082.13 -6.9454 2.18503 0
M  V30 8228 H 1082.16 -7.23063 1.12091 0
M  V30 8229 H 1083.34 -5.6025 3.37201 0
M  V30 8230 H 1084.83 -7.35707 4.02681 0
M  V30 8231 H 1083.13 -9.40912 3.9095 0
M  V30 8232 H 1082.94 -8.29056 5.99158 0
M  V30 8233 H 1081.31 -8.10073 5.25882 0
M  V30 8234 H 1083.95 -6.30324 0.726794 0
M  V30 8235 P 1085.81 -8.4349 2.47671 0
M  V30 8236 O 1087.23 -8.94263 2.59668 0
M  V30 8237 O 1085.45 -7.1704 3.19006 0
M  V30 8238 O 1085.49 -8.16596 0.923387 0
M  V30 8239 C 1085.33 -9.38537 0.108869 0
M  V30 8240 C 1085.87 -9.08175 -1.28353 0
M  V30 8241 O 1084.81 -8.44131 -1.84692 0
M  V30 8242 C 1087.08 -8.18386 -1.42505 0
M  V30 8243 O 1087.82 -8.3501 -2.60497 0
M  V30 8244 C 1086.42 -6.80225 -1.25468 0
M  V30 8245 O 1087.21 -5.81716 -1.90454 0
M  V30 8246 C 1085.08 -7.02416 -1.9168 0
M  V30 8247 N 1084.04 -6.31033 -1.20314 0
M  V30 8248 C 1084.2 -5.98817 0.0994088 0
M  V30 8249 N 1083.18 -5.35403 0.621694 0
M  V30 8250 C 1082.29 -5.25212 -0.43376 0
M  V30 8251 C 1081.03 -4.64602 -0.519722 0
M  V30 8252 N 1080.43 -4.01457 0.519136 0
M  V30 8253 N 1080.46 -4.7568 -1.76013 0
M  V30 8254 C 1081.06 -5.3653 -2.83017 0
M  V30 8255 N 1082.24 -5.93676 -2.79782 0
M  V30 8256 C 1082.81 -5.84061 -1.56249 0
M  V30 8257 H 1085.11 -6.68789 -2.9658 0
M  V30 8258 H 1086.29 -6.53498 -0.198729 0
M  V30 8259 H 1087.78 -8.36622 -0.589963 0
M  V30 8260 H 1086.08 -10.0273 -1.8081 0
M  V30 8261 H 1085.89 -10.2138 0.558219 0
M  V30 8262 H 1084.26 -9.6579 0.0444202 0
M  V30 8263 H 1080.53 -5.37113 -3.77321 0
M  V30 8264 H 1085.1 -6.23209 0.660562 0
M  V30 8265 H 1079.5 -3.58834 0.394862 0
M  V30 8266 H 1080.9 -3.96059 1.43048 0
M  V30 8267 H 1086.9 -5.69466 -2.79593 0
M  V30 8268 P 1088.76 -8.4349 -2.47671 0
M  V30 8269 O 1090.18 -8.92689 -2.65029 0
M  V30 8270 O 1088.4 -7.7568 -1.19296 0
M  V30 8271 O 1088.44 -7.36886 -3.63805 0
M  V30 8272 C 1088.28 -7.95433 -4.98253 0
M  V30 8273 C 1088.82 -6.94612 -5.98974 0
M  V30 8274 O 1087.76 -6.10277 -6.11744 0
M  V30 8275 C 1090.04 -6.11426 -5.62335 0
M  V30 8276 O 1090.77 -5.6162 -6.70584 0
M  V30 8277 C 1089.37 -5.04409 -4.73308 0
M  V30 8278 O 1090.17 -3.86404 -4.74719 0
M  V30 8279 C 1088.03 -4.8728 -5.41006 0
M  V30 8280 N 1086.99 -4.65812 -4.42377 0
M  V30 8281 C 1087.16 -5.09132 -3.15382 0
M  V30 8282 N 1086.13 -4.84021 -2.3716 0
M  V30 8283 C 1085.24 -4.18386 -3.20441 0
M  V30 8284 C 1083.98 -3.6275 -2.94905 0
M  V30 8285 N 1083.38 -3.65794 -1.73372 0
M  V30 8286 N 1083.41 -3.05008 -4.05243 0
M  V30 8287 C 1084.01 -2.98348 -5.28159 0
M  V30 8288 N 1085.19 -3.48171 -5.56333 0
M  V30 8289 C 1085.77 -4.06869 -4.47212 0
M  V30 8290 H 1088.06 -4.02278 -6.11074 0
M  V30 8291 H 1089.24 -5.39013 -3.70026 0
M  V30 8292 H 1090.73 -6.71916 -5.01943 0
M  V30 8293 H 1089.03 -7.45796 -6.94223 0
M  V30 8294 H 1088.84 -8.89416 -5.05237 0
M  V30 8295 H 1087.21 -8.14876 -5.18409 0
M  V30 8296 H 1083.48 -2.47853 -6.07807 0
M  V30 8297 H 1088.06 -5.59989 -2.81362 0
M  V30 8298 H 1082.45 -3.23218 -1.60782 0
M  V30 8299 H 1083.85 -4.10523 -0.937856 0
M  V30 8300 H 1089.85 -3.27906 -5.43085 0
M  V30 8301 P 1091.71 -5.75688 -6.64379 0
M  V30 8302 O 1093.13 -6.07627 -7.05504 0
M  V30 8303 O 1091.35 -5.88047 -5.19722 0
M  V30 8304 O 1091.39 -4.2322 -7.04443 0
M  V30 8305 C 1091.23 -3.99743 -8.4911 0
M  V30 8306 C 1091.77 -2.60516 -8.79425 0
M  V30 8307 O 1090.71 -1.82684 -8.4467 0
M  V30 8308 C 1092.99 -2.10343 -8.03628 0
M  V30 8309 O 1093.72 -1.09919 -8.67766 0
M  V30 8310 C 1092.32 -1.68446 -6.70876 0
M  V30 8311 O 1093.12 -0.678137 -6.08433 0
M  V30 8312 C 1090.98 -1.17436 -7.18567 0
M  V30 8313 H 1091.01 -0.0804732 -7.31656 0
M  V30 8314 H 1092.19 -2.54037 -6.02537 0
M  V30 8315 H 1093.68 -2.93881 -7.85526 0
M  V30 8316 H 1091.98 -2.53065 -9.86973 0
M  V30 8317 H 1091.79 -4.75072 -9.05887 0
M  V30 8318 H 1090.16 -4.05244 -8.76668 0
M  V30 8319 H 1092.8 0.177647 -6.34251 0
M  V30 8320 P 1094.66 -1.25109 -8.70152 0
M  V30 8321 O 1096.08 -1.29744 -9.22016 0
M  V30 8322 O 1094.3 -2.13714 -7.55141 0
M  V30 8323 O 1094.34 0.248149 -8.21425 0
M  V30 8324 C 1094.18 1.22779 -9.30434 0
M  V30 8325 C 1094.72 2.56293 -8.80664 0
M  V30 8326 O 1093.66 3.02979 -8.09349 0
M  V30 8327 C 1095.94 2.57523 -7.89775 0
M  V30 8328 O 1096.67 3.7668 -7.89438 0
M  V30 8329 C 1095.27 2.20997 -6.55446 0
M  V30 8330 O 1096.07 2.71895 -5.48509 0
M  V30 8331 C 1093.93 2.89693 -6.67988 0
M  V30 8332 H 1093.96 3.88793 -6.19859 0
M  V30 8333 H 1095.15 1.12046 -6.44229 0
M  V30 8334 H 1096.63 1.7746 -8.19711 0
M  V30 8335 H 1094.94 3.20706 -9.67112 0
M  V30 8336 H 1094.75 0.901032 -10.1892 0
M  V30 8337 H 1093.12 1.33049 -9.56592 0
M  V30 8338 H 1095.75 3.57847 -5.23962 0
M  V30 8339 P 1097.61 3.65191 -7.99657 0
M  V30 8340 O 1099.03 3.89332 -8.45794 0
M  V30 8341 O 1097.25 2.28472 -7.50807 0
M  V30 8342 O 1097.29 4.64972 -6.77611 0
M  V30 8343 C 1097.13 6.06319 -7.16352 0
M  V30 8344 C 1097.67 6.91731 -6.02299 0
M  V30 8345 O 1096.61 6.92449 -5.17064 0
M  V30 8346 C 1098.89 6.43627 -5.25174 0
M  V30 8347 O 1099.63 7.43686 -4.60469 0
M  V30 8348 C 1098.22 5.40275 -4.31916 0
M  V30 8349 O 1099.02 5.25279 -3.14438 0
M  V30 8350 C 1096.88 6.04847 -4.05327 0
M  V30 8351 H 1096.91 6.62195 -3.11261 0
M  V30 8352 H 1098.1 4.42556 -4.81383 0
M  V30 8353 H 1099.58 5.92458 -5.93643 0
M  V30 8354 H 1097.89 7.92655 -6.402 0
M  V30 8355 H 1097.7 6.26671 -8.0846 0
M  V30 8356 H 1096.07 6.29101 -7.32804 0
M  V30 8357 H 1098.71 5.84315 -2.47318 0
M  V30 8358 P 1100.56 7.39546 -4.75277 0
M  V30 8359 O 1101.98 7.84798 -5.01039 0
M  V30 8360 O 1100.2 5.9812 -5.08098 0
M  V30 8361 O 1100.24 7.57503 -3.1866 0
M  V30 8362 C 1100.08 8.97357 -2.74833 0
M  V30 8363 C 1100.62 9.07548 -1.32709 0
M  V30 8364 O 1099.56 8.62072 -0.606159 0
M  V30 8365 C 1101.84 8.25383 -0.938334 0
M  V30 8366 O 1102.58 8.74577 0.146954 0
M  V30 8367 C 1101.17 6.8802 -0.712559 0
M  V30 8368 O 1101.97 6.1189 0.194655 0
M  V30 8369 C 1099.83 7.27966 -0.139777 0
M  V30 8370 H 1099.86 7.25354 0.961601 0
M  V30 8371 H 1101.05 6.32557 -1.65702 0
M  V30 8372 H 1102.53 8.19355 -1.79097 0
M  V30 8373 H 1100.84 10.1294 -1.10029 0
M  V30 8374 H 1100.65 9.64276 -3.41316 0
M  V30 8375 H 1099.02 9.25417 -2.76357 0
M  V30 8376 H 1101.66 6.25267 1.07847 0
M  V30 8377 P 1103.51 8.791 8.79665e-12 0
M  V30 8378 O 1104.94 9.31096 0.027933 0
M  V30 8379 O 1103.15 7.77869 -1.04071 0
M  V30 8380 O 1103.19 8.09533 1.41463 0
M  V30 8381 C 1103.03 9.0349 2.53943 0
M  V30 8382 C 1103.57 8.35226 3.79016 0
M  V30 8383 O 1102.51 7.57992 4.15078 0
M  V30 8384 C 1104.79 7.45087 3.67298 0
M  V30 8385 O 1105.53 7.27796 4.85194 0
M  V30 8386 C 1104.12 6.17323 3.12027 0
M  V30 8387 O 1104.92 5.04231 3.47188 0
M  V30 8388 C 1102.78 6.19961 3.81809 0
M  V30 8389 H 1102.81 5.58218 4.73051 0
M  V30 8390 H 1104 6.21726 2.02589 0
M  V30 8391 H 1105.48 7.86112 2.9231 0
M  V30 8392 H 1103.79 9.11627 4.55076 0
M  V30 8393 H 1103.6 9.9573 2.34194 0
M  V30 8394 H 1101.97 9.2792 2.67832 0
M  V30 8395 H 1104.61 4.67702 4.28772 0
M  V30 8396 P 1106.46 7.39546 4.75277 0
M  V30 8397 O 1107.89 7.81777 5.05738 0
M  V30 8398 O 1106.1 7.1065 3.32998 0
M  V30 8399 O 1106.14 6.04542 5.56673 0
M  V30 8400 C 1105.98 6.22772 7.02095 0
M  V30 8401 C 1106.52 4.97725 7.70406 0
M  V30 8402 O 1105.46 4.13256 7.58987 0
M  V30 8403 C 1107.74 4.28231 7.11815 0
M  V30 8404 O 1108.48 3.49945 8.01648 0
M  V30 8405 C 1107.07 3.5063 5.96244 0
M  V30 8406 O 1107.87 2.36482 5.64681 0
M  V30 8407 C 1105.73 3.15122 6.56374 0
M  V30 8408 H 1105.76 2.13853 6.99751 0
M  V30 8409 H 1106.95 4.13501 5.06559 0
M  V30 8410 H 1108.43 5.03285 6.70911 0
M  V30 8411 H 1106.74 5.20877 8.75697 0
M  V30 8412 H 1106.55 7.11046 7.35349 0
M  V30 8413 H 1104.92 6.35815 7.26986 0
M  V30 8414 H 1107.56 1.61644 6.13565 0
M  V30 8415 P 1109.41 3.65191 7.99657 0
M  V30 8416 O 1110.84 3.8425 8.48115 0
M  V30 8417 O 1109.05 4.17805 6.64342 0
M  V30 8418 O 1109.09 2.07613 7.95143 0
M  V30 8419 C 1108.93 1.44328 9.27336 0
M  V30 8420 C 1109.47 0.0220036 9.17197 0
M  V30 8421 O 1108.42 -0.626867 8.61923 0
M  V30 8422 C 1110.69 -0.24586 8.30336 0
M  V30 8423 O 1111.43 -1.39011 8.63583 0
M  V30 8424 C 1110.02 -0.273849 6.91158 0
M  V30 8425 O 1110.82 -1.06348 6.02892 0
M  V30 8426 C 1108.68 -0.897649 7.22545 0
M  V30 8427 H 1108.72 -1.9841 7.04286 0
M  V30 8428 H 1109.9 0.739928 6.497 0
M  V30 8429 H 1111.38 0.60668 8.36503 0
M  V30 8430 H 1109.69 -0.352479 10.1829 0
M  V30 8431 H 1109.5 2.00611 10.0304 0
M  V30 8432 H 1107.87 1.41843 9.55327 0
M  V30 8433 H 1110.51 -1.95734 6.03555 0
M  V30 8434 P 1112.36 -1.25109 8.70152 0
M  V30 8435 O 1113.79 -1.35274 9.21221 0
M  V30 8436 O 1112 -0.0769065 7.84762 0
M  V30 8437 O 1112.04 -2.55232 7.81161 0
M  V30 8438 C 1111.88 -3.79939 8.58154 0
M  V30 8439 C 1112.42 -4.94023 7.72785 0
M  V30 8440 O 1111.37 -5.18726 6.91205 0
M  V30 8441 C 1113.64 -4.69597 6.85231 0
M  V30 8442 O 1114.38 -5.83832 6.51337 0
M  V30 8443 C 1112.97 -3.96706 5.66633 0
M  V30 8444 O 1113.77 -4.15414 4.49689 0
M  V30 8445 C 1111.63 -4.66153 5.59313 0
M  V30 8446 H 1111.67 -5.47679 4.85214 0
M  V30 8447 H 1112.85 -2.89008 5.86566 0
M  V30 8448 H 1114.33 -4.0121 7.36511 0
M  V30 8449 H 1112.64 -5.80182 8.37584 0
M  V30 8450 H 1112.45 -3.73517 9.52265 0
M  V30 8451 H 1110.82 -3.97163 8.80359 0
M  V30 8452 H 1113.46 -4.90969 4.01921 0
M  V30 8453 P 1115.32 -5.75688 6.64379 0
M  V30 8454 O 1116.74 -6.11915 7.01921 0
M  V30 8455 O 1114.96 -4.30744 6.56026 0
M  V30 8456 O 1114.99 -6.37042 5.19165 0
M  V30 8457 C 1114.83 -7.83662 5.1657 0
M  V30 8458 C 1115.37 -8.33398 3.83019 0
M  V30 8459 O 1114.32 -8.0998 3.00999 0
M  V30 8460 C 1116.59 -7.65514 3.2257 0
M  V30 8461 O 1117.33 -8.4329 2.32297 0
M  V30 8462 C 1115.92 -6.40075 2.62207 0
M  V30 8463 O 1116.72 -5.92338 1.5428 0
M  V30 8464 C 1114.58 -6.9454 2.18503 0
M  V30 8465 N 1113.54 -5.95905 2.39948 0
M  V30 8466 C 1113.71 -4.98383 3.32108 0
M  V30 8467 N 1112.68 -4.16798 3.41761 0
M  V30 8468 C 1111.8 -4.65287 2.47461 0
M  V30 8469 C 1110.53 -4.18946 2.07461 0
M  V30 8470 N 1109.93 -3.09661 2.60717 0
M  V30 8471 N 1109.97 -4.95327 1.09101 0
M  V30 8472 C 1110.57 -6.04369 0.519812 0
M  V30 8473 N 1111.75 -6.50694 0.855982 0
M  V30 8474 C 1112.32 -5.75818 1.84322 0
M  V30 8475 H 1114.62 -7.22964 1.12076 0
M  V30 8476 H 1115.8 -5.60502 3.36589 0
M  V30 8477 H 1117.28 -7.35707 4.02681 0
M  V30 8478 H 1115.59 -9.41302 3.90009 0
M  V30 8479 H 1115.4 -8.29056 5.99158 0
M  V30 8480 H 1113.77 -8.10073 5.25882 0
M  V30 8481 H 1110.03 -6.55843 -0.270373 0
M  V30 8482 H 1114.61 -4.88564 3.92502 0
M  V30 8483 H 1109 -2.80523 2.27218 0
M  V30 8484 H 1110.41 -2.55848 3.34465 0
M  V30 8485 H 1116.41 -6.30224 0.72668 0
M  V30 8486 P 1118.27 -8.4349 2.47671 0
M  V30 8487 O 1119.69 -8.94167 2.5964 0
M  V30 8488 O 1117.91 -7.1704 3.19006 0
M  V30 8489 O 1117.94 -8.16596 0.923387 0
M  V30 8490 C 1117.78 -9.38437 0.108857 0
M  V30 8491 C 1118.32 -9.08175 -1.28353 0
M  V30 8492 O 1117.27 -8.44229 -1.84713 0
M  V30 8493 C 1119.54 -8.18386 -1.42505 0
M  V30 8494 O 1120.28 -8.3501 -2.60497 0
M  V30 8495 C 1118.87 -6.80225 -1.25468 0
M  V30 8496 O 1119.67 -5.81621 -1.91066 0
M  V30 8497 C 1117.54 -7.02416 -1.9168 0
M  V30 8498 H 1117.57 -6.6888 -2.96621 0
M  V30 8499 H 1118.75 -6.53617 -0.192223 0
M  V30 8500 H 1120.23 -8.36622 -0.589963 0
M  V30 8501 H 1118.54 -10.0291 -1.79807 0
M  V30 8502 H 1118.35 -10.2138 0.558219 0
M  V30 8503 H 1116.72 -9.6579 0.0444202 0
M  V30 8504 H 1119.36 -5.69556 -2.79637 0
M  V30 8505 P 1121.22 -8.4349 -2.47671 0
M  V30 8506 O 1122.64 -8.92689 -2.65029 0
M  V30 8507 O 1120.86 -7.7568 -1.19296 0
M  V30 8508 O 1120.89 -7.36886 -3.63805 0
M  V30 8509 C 1120.73 -7.95433 -4.98253 0
M  V30 8510 C 1121.27 -6.94612 -5.98974 0
M  V30 8511 O 1120.22 -6.10277 -6.11744 0
M  V30 8512 C 1122.49 -6.11426 -5.62335 0
M  V30 8513 O 1123.23 -5.6162 -6.70584 0
M  V30 8514 C 1121.82 -5.04409 -4.73308 0
M  V30 8515 O 1122.62 -3.86404 -4.74719 0
M  V30 8516 C 1120.49 -4.8728 -5.41006 0
M  V30 8517 N 1119.44 -4.65812 -4.42377 0
M  V30 8518 C 1119.61 -5.09132 -3.15382 0
M  V30 8519 N 1118.58 -4.84021 -2.3716 0
M  V30 8520 C 1117.7 -4.18386 -3.20441 0
M  V30 8521 C 1116.43 -3.6275 -2.94905 0
M  V30 8522 N 1115.83 -3.65794 -1.73372 0
M  V30 8523 N 1115.87 -3.05008 -4.05243 0
M  V30 8524 C 1116.47 -2.98348 -5.28159 0
M  V30 8525 N 1117.65 -3.48171 -5.56333 0
M  V30 8526 C 1118.22 -4.06869 -4.47212 0
M  V30 8527 H 1120.52 -4.02278 -6.11074 0
M  V30 8528 H 1121.7 -5.39013 -3.70026 0
M  V30 8529 H 1123.18 -6.71916 -5.01943 0
M  V30 8530 H 1121.49 -7.45796 -6.94223 0
M  V30 8531 H 1121.3 -8.89416 -5.05237 0
M  V30 8532 H 1119.67 -8.14876 -5.18409 0
M  V30 8533 H 1115.93 -2.47853 -6.07807 0
M  V30 8534 H 1120.51 -5.59989 -2.81362 0
M  V30 8535 H 1114.9 -3.23218 -1.60782 0
M  V30 8536 H 1116.31 -4.10523 -0.937856 0
M  V30 8537 H 1122.31 -3.27906 -5.43085 0
M  V30 8538 P 1124.17 -5.75688 -6.64379 0
M  V30 8539 O 1125.59 -6.07627 -7.05504 0
M  V30 8540 O 1123.81 -5.88047 -5.19722 0
M  V30 8541 O 1123.84 -4.2322 -7.04443 0
M  V30 8542 C 1123.68 -3.99743 -8.4911 0
M  V30 8543 C 1124.22 -2.60516 -8.79425 0
M  V30 8544 O 1123.17 -1.82684 -8.4467 0
M  V30 8545 C 1125.44 -2.10343 -8.03628 0
M  V30 8546 O 1126.18 -1.09919 -8.67766 0
M  V30 8547 C 1124.77 -1.68446 -6.70876 0
M  V30 8548 O 1125.57 -0.678137 -6.08433 0
M  V30 8549 C 1123.44 -1.17436 -7.18567 0
M  V30 8550 H 1123.47 -0.0804732 -7.31656 0
M  V30 8551 H 1124.65 -2.54037 -6.02537 0
M  V30 8552 H 1126.14 -2.93881 -7.85526 0
M  V30 8553 H 1124.44 -2.53065 -9.86973 0
M  V30 8554 H 1124.25 -4.75072 -9.05887 0
M  V30 8555 H 1122.62 -4.05244 -8.76668 0
M  V30 8556 H 1125.26 0.177647 -6.34251 0
M  V30 8557 P 1127.12 -1.25109 -8.70152 0
M  V30 8558 O 1128.54 -1.29772 -9.22214 0
M  V30 8559 O 1126.76 -2.13714 -7.55141 0
M  V30 8560 O 1126.79 0.248149 -8.21425 0
M  V30 8561 C 1126.63 1.22779 -9.30434 0
M  V30 8562 C 1127.17 2.56265 -8.80568 0
M  V30 8563 O 1126.12 3.02979 -8.09349 0
M  V30 8564 C 1128.39 2.57523 -7.89775 0
M  V30 8565 O 1129.13 3.7668 -7.89438 0
M  V30 8566 C 1127.72 2.20997 -6.55446 0
M  V30 8567 O 1128.52 2.71851 -5.48419 0
M  V30 8568 C 1126.39 2.89693 -6.67988 0
M  V30 8569 N 1125.34 2.08895 -6.07487 0
M  V30 8570 C 1125.41 0.760559 -6.14209 0
M  V30 8571 N 1124.36 0.200108 -5.52538 0
M  V30 8572 C 1123.63 1.22692 -5.09742 0
M  V30 8573 C 1122.32 1.24782 -4.48775 0
M  V30 8574 O 1121.59 0.290617 -4.19294 0
M  V30 8575 N 1121.89 2.50468 -4.22428 0
M  V30 8576 C 1122.64 3.67142 -4.51974 0
M  V30 8577 N 1122.04 4.85096 -4.14091 0
M  V30 8578 N 1123.79 3.67821 -5.12831 0
M  V30 8579 C 1124.25 2.43698 -5.4105 0
M  V30 8580 H 1126.42 3.88793 -6.19859 0
M  V30 8581 H 1127.6 1.12029 -6.4413 0
M  V30 8582 H 1129.09 1.78279 -8.19533 0
M  V30 8583 H 1127.39 3.20706 -9.67112 0
M  V30 8584 H 1127.2 0.901032 -10.1892 0
M  V30 8585 H 1125.57 1.33049 -9.56592 0
M  V30 8586 H 1120.99 2.61953 -3.79465 0
M  V30 8587 H 1126.2 0.200439 -6.63497 0
M  V30 8588 H 1121.13 4.8334 -3.66367 0
M  V30 8589 H 1122.51 5.7474 -4.33841 0
M  V30 8590 H 1128.21 3.5779 -5.23879 0
M  V30 8591 P 1130.07 3.65191 -7.99657 0
M  V30 8592 O 1131.49 3.89332 -8.45794 0
M  V30 8593 O 1129.71 2.28472 -7.50807 0
M  V30 8594 O 1129.75 4.64972 -6.77611 0
M  V30 8595 C 1129.59 6.06319 -7.16352 0
M  V30 8596 C 1130.13 6.91731 -6.02299 0
M  V30 8597 O 1129.07 6.92449 -5.17064 0
M  V30 8598 C 1131.34 6.43627 -5.25174 0
M  V30 8599 O 1132.08 7.43686 -4.60469 0
M  V30 8600 C 1130.67 5.40275 -4.31916 0
M  V30 8601 O 1131.47 5.25279 -3.14438 0
M  V30 8602 C 1129.34 6.04847 -4.05327 0
M  V30 8603 H 1129.37 6.62195 -3.11261 0
M  V30 8604 H 1130.55 4.42556 -4.81383 0
M  V30 8605 H 1132.04 5.92458 -5.93643 0
M  V30 8606 H 1130.34 7.92655 -6.402 0
M  V30 8607 H 1130.15 6.26671 -8.0846 0
M  V30 8608 H 1128.52 6.29101 -7.32804 0
M  V30 8609 H 1131.16 5.84315 -2.47318 0
M  V30 8610 P 1133.02 7.39546 -4.75277 0
M  V30 8611 O 1134.44 7.84798 -5.01039 0
M  V30 8612 O 1132.66 5.9812 -5.08098 0
M  V30 8613 O 1132.7 7.57503 -3.1866 0
M  V30 8614 C 1132.54 8.97357 -2.74833 0
M  V30 8615 C 1133.08 9.07548 -1.32709 0
M  V30 8616 O 1132.02 8.62072 -0.606159 0
M  V30 8617 C 1134.29 8.25383 -0.938334 0
M  V30 8618 O 1135.03 8.74577 0.146954 0
M  V30 8619 C 1133.62 6.8802 -0.712559 0
M  V30 8620 O 1134.42 6.1189 0.194655 0
M  V30 8621 C 1132.29 7.27966 -0.139777 0
M  V30 8622 H 1132.32 7.25354 0.961601 0
M  V30 8623 H 1133.5 6.32557 -1.65702 0
M  V30 8624 H 1134.99 8.19355 -1.79097 0
M  V30 8625 H 1133.29 10.1294 -1.10029 0
M  V30 8626 H 1133.1 9.64276 -3.41316 0
M  V30 8627 H 1131.47 9.25417 -2.76357 0
M  V30 8628 H 1134.11 6.25267 1.07847 0
M  V30 8629 P 1135.97 8.791 9.10682e-12 0
M  V30 8630 O 1137.39 9.31096 0.027933 0
M  V30 8631 O 1135.61 7.77869 -1.04071 0
M  V30 8632 O 1135.65 8.09533 1.41463 0
M  V30 8633 C 1135.49 9.0349 2.53943 0
M  V30 8634 C 1136.03 8.35226 3.79016 0
M  V30 8635 O 1134.97 7.57992 4.15078 0
M  V30 8636 C 1137.24 7.45087 3.67298 0
M  V30 8637 O 1137.98 7.27796 4.85194 0
M  V30 8638 C 1136.58 6.17323 3.12027 0
M  V30 8639 O 1137.37 5.04231 3.47188 0
M  V30 8640 C 1135.24 6.19961 3.81809 0
M  V30 8641 H 1135.27 5.58218 4.73051 0
M  V30 8642 H 1136.45 6.21726 2.02589 0
M  V30 8643 H 1137.94 7.86112 2.9231 0
M  V30 8644 H 1136.24 9.11627 4.55076 0
M  V30 8645 H 1136.05 9.9573 2.34194 0
M  V30 8646 H 1134.42 9.2792 2.67832 0
M  V30 8647 H 1137.06 4.67702 4.28772 0
M  V30 8648 P 1138.92 7.39546 4.75277 0
M  V30 8649 O 1140.34 7.81777 5.05738 0
M  V30 8650 O 1138.56 7.1065 3.32998 0
M  V30 8651 O 1138.6 6.04542 5.56673 0
M  V30 8652 C 1138.44 6.22772 7.02095 0
M  V30 8653 C 1138.98 4.97725 7.70406 0
M  V30 8654 O 1137.92 4.13256 7.58987 0
M  V30 8655 C 1140.2 4.28231 7.11815 0
M  V30 8656 O 1140.93 3.49945 8.01648 0
M  V30 8657 C 1139.53 3.5063 5.96244 0
M  V30 8658 O 1140.33 2.36482 5.64681 0
M  V30 8659 C 1138.19 3.15122 6.56374 0
M  V30 8660 H 1138.22 2.13853 6.99751 0
M  V30 8661 H 1139.4 4.13501 5.06559 0
M  V30 8662 H 1140.89 5.03285 6.70911 0
M  V30 8663 H 1139.19 5.20877 8.75697 0
M  V30 8664 H 1139 7.11046 7.35349 0
M  V30 8665 H 1137.37 6.35815 7.26986 0
M  V30 8666 H 1140.01 1.61644 6.13565 0
M  V30 8667 P 1141.87 3.65191 7.99657 0
M  V30 8668 O 1143.29 3.8425 8.48115 0
M  V30 8669 O 1141.51 4.17805 6.64342 0
M  V30 8670 O 1141.55 2.07613 7.95143 0
M  V30 8671 C 1141.39 1.44328 9.27336 0
M  V30 8672 C 1141.93 0.0220036 9.17197 0
M  V30 8673 O 1140.87 -0.626867 8.61923 0
M  V30 8674 C 1143.15 -0.24586 8.30336 0
M  V30 8675 O 1143.88 -1.39011 8.63583 0
M  V30 8676 C 1142.48 -0.273849 6.91158 0
M  V30 8677 O 1143.28 -1.06348 6.02892 0
M  V30 8678 C 1141.14 -0.897649 7.22545 0
M  V30 8679 H 1141.17 -1.9841 7.04286 0
M  V30 8680 H 1142.35 0.739928 6.497 0
M  V30 8681 H 1143.84 0.60668 8.36503 0
M  V30 8682 H 1142.14 -0.352479 10.1829 0
M  V30 8683 H 1141.95 2.00611 10.0304 0
M  V30 8684 H 1140.32 1.41843 9.55327 0
M  V30 8685 H 1142.96 -1.95734 6.03555 0
M  V30 8686 P 1144.82 -1.25109 8.70152 0
M  V30 8687 O 1146.24 -1.35274 9.21221 0
M  V30 8688 O 1144.46 -0.0769065 7.84762 0
M  V30 8689 O 1144.5 -2.55232 7.81161 0
M  V30 8690 C 1144.34 -3.79939 8.58154 0
M  V30 8691 C 1144.88 -4.94023 7.72785 0
M  V30 8692 O 1143.82 -5.18726 6.91205 0
M  V30 8693 C 1146.1 -4.69597 6.85231 0
M  V30 8694 O 1146.83 -5.83832 6.51337 0
M  V30 8695 C 1145.43 -3.96706 5.66633 0
M  V30 8696 O 1146.23 -4.15414 4.49689 0
M  V30 8697 C 1144.09 -4.66153 5.59313 0
M  V30 8698 H 1144.12 -5.47679 4.85214 0
M  V30 8699 H 1145.31 -2.89008 5.86566 0
M  V30 8700 H 1146.79 -4.0121 7.36511 0
M  V30 8701 H 1145.1 -5.80182 8.37584 0
M  V30 8702 H 1144.91 -3.73517 9.52265 0
M  V30 8703 H 1143.28 -3.97163 8.80359 0
M  V30 8704 H 1145.91 -4.90969 4.01921 0
M  V30 8705 P 1147.77 -5.75688 6.64379 0
M  V30 8706 O 1149.19 -6.11849 7.01846 0
M  V30 8707 O 1147.41 -4.30744 6.56026 0
M  V30 8708 O 1147.45 -6.37042 5.19165 0
M  V30 8709 C 1147.29 -7.83578 5.16515 0
M  V30 8710 C 1147.83 -8.33398 3.83019 0
M  V30 8711 O 1146.77 -8.10074 3.01034 0
M  V30 8712 C 1149.05 -7.65514 3.2257 0
M  V30 8713 O 1149.78 -8.4329 2.32297 0
M  V30 8714 C 1148.38 -6.40075 2.62207 0
M  V30 8715 O 1149.18 -5.92589 1.53712 0
M  V30 8716 C 1147.04 -6.9454 2.18503 0
M  V30 8717 H 1147.07 -7.23063 1.12091 0
M  V30 8718 H 1148.26 -5.6025 3.37201 0
M  V30 8719 H 1149.74 -7.35707 4.02681 0
M  V30 8720 H 1148.05 -9.40912 3.9095 0
M  V30 8721 H 1147.86 -8.29056 5.99158 0
M  V30 8722 H 1146.23 -8.10073 5.25882 0
M  V30 8723 H 1148.86 -6.30324 0.726794 0
M  V30 8724 P 1150.72 -8.4349 2.47671 0
M  V30 8725 O 1152.14 -8.94263 2.59668 0
M  V30 8726 O 1150.36 -7.1704 3.19006 0
M  V30 8727 O 1150.4 -8.16596 0.923387 0
M  V30 8728 C 1150.24 -9.38537 0.108869 0
M  V30 8729 C 1150.78 -9.08175 -1.28353 0
M  V30 8730 O 1149.72 -8.44131 -1.84692 0
M  V30 8731 C 1152 -8.18386 -1.42505 0
M  V30 8732 O 1152.74 -8.3501 -2.60497 0
M  V30 8733 C 1151.33 -6.80225 -1.25468 0
M  V30 8734 O 1152.13 -5.81716 -1.90454 0
M  V30 8735 C 1149.99 -7.02416 -1.9168 0
M  V30 8736 N 1148.95 -6.31033 -1.20314 0
M  V30 8737 C 1149.12 -5.98817 0.0994088 0
M  V30 8738 N 1148.09 -5.35403 0.621694 0
M  V30 8739 C 1147.21 -5.25212 -0.43376 0
M  V30 8740 C 1145.94 -4.64602 -0.519722 0
M  V30 8741 N 1145.34 -4.01457 0.519136 0
M  V30 8742 N 1145.37 -4.7568 -1.76013 0
M  V30 8743 C 1145.98 -5.3653 -2.83017 0
M  V30 8744 N 1147.15 -5.93676 -2.79782 0
M  V30 8745 C 1147.73 -5.84061 -1.56249 0
M  V30 8746 H 1150.02 -6.68789 -2.9658 0
M  V30 8747 H 1151.21 -6.53498 -0.198729 0
M  V30 8748 H 1152.69 -8.36622 -0.589963 0
M  V30 8749 H 1151 -10.0273 -1.8081 0
M  V30 8750 H 1150.81 -10.2138 0.558219 0
M  V30 8751 H 1149.18 -9.6579 0.0444202 0
M  V30 8752 H 1145.44 -5.37113 -3.77321 0
M  V30 8753 H 1150.02 -6.23209 0.660562 0
M  V30 8754 H 1144.41 -3.58834 0.394862 0
M  V30 8755 H 1145.81 -3.96059 1.43048 0
M  V30 8756 H 1151.82 -5.69466 -2.79593 0
M  V30 8757 P 1153.67 -8.4349 -2.47671 0
M  V30 8758 O 1155.09 -8.92593 -2.65 0
M  V30 8759 O 1153.31 -7.7568 -1.19296 0
M  V30 8760 O 1153.35 -7.36886 -3.63805 0
M  V30 8761 C 1153.19 -7.95349 -4.982 0
M  V30 8762 C 1153.73 -6.94612 -5.98974 0
M  V30 8763 O 1152.67 -6.10347 -6.11815 0
M  V30 8764 C 1154.95 -6.11426 -5.62335 0
M  V30 8765 O 1155.69 -5.6162 -6.70584 0
M  V30 8766 C 1154.28 -5.04409 -4.73308 0
M  V30 8767 O 1155.08 -3.85992 -4.75183 0
M  V30 8768 C 1152.94 -4.8728 -5.41006 0
M  V30 8769 H 1152.97 -4.02333 -6.11157 0
M  V30 8770 H 1154.16 -5.39466 -3.69543 0
M  V30 8771 H 1155.64 -6.71916 -5.01943 0
M  V30 8772 H 1153.95 -7.4649 -6.93477 0
M  V30 8773 H 1153.76 -8.89416 -5.05237 0
M  V30 8774 H 1152.13 -8.14876 -5.18409 0
M  V30 8775 H 1154.77 -3.27957 -5.4317 0
M  V30 8776 P 1156.62 -5.75688 -6.64379 0
M  V30 8777 O 1158.05 -6.07627 -7.05504 0
M  V30 8778 O 1156.26 -5.88047 -5.19722 0
M  V30 8779 O 1156.3 -4.2322 -7.04443 0
M  V30 8780 C 1156.14 -3.99743 -8.4911 0
M  V30 8781 C 1156.68 -2.60516 -8.79425 0
M  V30 8782 O 1155.62 -1.82684 -8.4467 0
M  V30 8783 C 1157.9 -2.10343 -8.03628 0
M  V30 8784 O 1158.64 -1.09919 -8.67766 0
M  V30 8785 C 1157.23 -1.68446 -6.70876 0
M  V30 8786 O 1158.03 -0.678137 -6.08433 0
M  V30 8787 C 1155.89 -1.17436 -7.18567 0
M  V30 8788 H 1155.92 -0.0804732 -7.31656 0
M  V30 8789 H 1157.11 -2.54037 -6.02537 0
M  V30 8790 H 1158.59 -2.93881 -7.85526 0
M  V30 8791 H 1156.9 -2.53065 -9.86973 0
M  V30 8792 H 1156.71 -4.75072 -9.05887 0
M  V30 8793 H 1155.08 -4.05244 -8.76668 0
M  V30 8794 H 1157.72 0.177647 -6.34251 0
M  V30 8795 P 1159.57 -1.25109 -8.70152 0
M  V30 8796 O 1161 -1.29744 -9.22016 0
M  V30 8797 O 1159.21 -2.13714 -7.55141 0
M  V30 8798 O 1159.25 0.248149 -8.21425 0
M  V30 8799 C 1159.09 1.22779 -9.30434 0
M  V30 8800 C 1159.63 2.56293 -8.80664 0
M  V30 8801 O 1158.58 3.02979 -8.09349 0
M  V30 8802 C 1160.85 2.57523 -7.89775 0
M  V30 8803 O 1161.59 3.7668 -7.89438 0
M  V30 8804 C 1160.18 2.20997 -6.55446 0
M  V30 8805 O 1160.98 2.71895 -5.48509 0
M  V30 8806 C 1158.84 2.89693 -6.67988 0
M  V30 8807 H 1158.88 3.88793 -6.19859 0
M  V30 8808 H 1160.06 1.12046 -6.44229 0
M  V30 8809 H 1161.54 1.7746 -8.19711 0
M  V30 8810 H 1159.85 3.20706 -9.67112 0
M  V30 8811 H 1159.66 0.901032 -10.1892 0
M  V30 8812 H 1158.03 1.33049 -9.56592 0
M  V30 8813 H 1160.67 3.57847 -5.23962 0
M  V30 8814 P 1162.52 3.65191 -7.99657 0
M  V30 8815 O 1163.95 3.89332 -8.45794 0
M  V30 8816 O 1162.16 2.28472 -7.50807 0
M  V30 8817 O 1162.2 4.64972 -6.77611 0
M  V30 8818 C 1162.04 6.06319 -7.16352 0
M  V30 8819 C 1162.58 6.91731 -6.02299 0
M  V30 8820 O 1161.53 6.92449 -5.17064 0
M  V30 8821 C 1163.8 6.43627 -5.25174 0
M  V30 8822 O 1164.54 7.43686 -4.60469 0
M  V30 8823 C 1163.13 5.40275 -4.31916 0
M  V30 8824 O 1163.93 5.25279 -3.14438 0
M  V30 8825 C 1161.79 6.04847 -4.05327 0
M  V30 8826 H 1161.83 6.62195 -3.11261 0
M  V30 8827 H 1163.01 4.42556 -4.81383 0
M  V30 8828 H 1164.49 5.92458 -5.93643 0
M  V30 8829 H 1162.8 7.92655 -6.402 0
M  V30 8830 H 1162.61 6.26671 -8.0846 0
M  V30 8831 H 1160.98 6.29101 -7.32804 0
M  V30 8832 H 1163.62 5.84315 -2.47318 0
M  V30 8833 P 1165.48 7.39546 -4.75277 0
M  V30 8834 O 1166.9 7.84798 -5.01039 0
M  V30 8835 O 1165.12 5.9812 -5.08098 0
M  V30 8836 O 1165.15 7.57503 -3.1866 0
M  V30 8837 C 1164.99 8.97357 -2.74833 0
M  V30 8838 C 1165.53 9.07548 -1.32709 0
M  V30 8839 O 1164.48 8.62072 -0.606159 0
M  V30 8840 C 1166.75 8.25383 -0.938334 0
M  V30 8841 O 1167.49 8.74577 0.146954 0
M  V30 8842 C 1166.08 6.8802 -0.712559 0
M  V30 8843 O 1166.88 6.1189 0.194655 0
M  V30 8844 C 1164.74 7.27966 -0.139777 0
M  V30 8845 H 1164.78 7.25354 0.961601 0
M  V30 8846 H 1165.96 6.32557 -1.65702 0
M  V30 8847 H 1167.44 8.19355 -1.79097 0
M  V30 8848 H 1165.75 10.1294 -1.10029 0
M  V30 8849 H 1165.56 9.64276 -3.41316 0
M  V30 8850 H 1163.93 9.25417 -2.76357 0
M  V30 8851 H 1166.57 6.25267 1.07847 0
M  V30 8852 P 1168.43 8.791 9.41699e-12 0
M  V30 8853 O 1169.85 9.31096 0.027933 0
M  V30 8854 O 1168.07 7.77869 -1.04071 0
M  V30 8855 O 1168.1 8.09533 1.41463 0
M  V30 8856 C 1167.94 9.0349 2.53943 0
M  V30 8857 C 1168.48 8.35226 3.79016 0
M  V30 8858 O 1167.43 7.57992 4.15078 0
M  V30 8859 C 1169.7 7.45087 3.67298 0
M  V30 8860 O 1170.44 7.27796 4.85194 0
M  V30 8861 C 1169.03 6.17323 3.12027 0
M  V30 8862 O 1169.83 5.04231 3.47188 0
M  V30 8863 C 1167.69 6.19961 3.81809 0
M  V30 8864 H 1167.73 5.58218 4.73051 0
M  V30 8865 H 1168.91 6.21726 2.02589 0
M  V30 8866 H 1170.39 7.86112 2.9231 0
M  V30 8867 H 1168.7 9.11627 4.55076 0
M  V30 8868 H 1168.51 9.9573 2.34194 0
M  V30 8869 H 1166.88 9.2792 2.67832 0
M  V30 8870 H 1169.52 4.67702 4.28772 0
M  V30 8871 P 1171.38 7.39546 4.75277 0
M  V30 8872 O 1172.8 7.81861 5.05793 0
M  V30 8873 O 1171.02 7.1065 3.32998 0
M  V30 8874 O 1171.05 6.04542 5.56673 0
M  V30 8875 C 1170.89 6.22839 7.02169 0
M  V30 8876 C 1171.43 4.97725 7.70406 0
M  V30 8877 O 1170.38 4.13208 7.58899 0
M  V30 8878 C 1172.65 4.28231 7.11815 0
M  V30 8879 O 1173.39 3.49945 8.01648 0
M  V30 8880 C 1171.98 3.5063 5.96244 0
M  V30 8881 O 1172.78 2.37008 5.64352 0
M  V30 8882 C 1170.65 3.15122 6.56374 0
M  V30 8883 N 1169.6 3.22311 5.55692 0
M  V30 8884 C 1169.77 3.99655 4.46046 0
M  V30 8885 N 1168.74 3.97599 3.63918 0
M  V30 8886 C 1167.86 3.11159 4.25334 0
M  V30 8887 C 1166.59 2.64972 3.85157 0
M  V30 8888 N 1165.99 3.02132 2.69405 0
M  V30 8889 N 1166.03 1.78482 4.74759 0
M  V30 8890 C 1166.63 1.37463 5.90819 0
M  V30 8891 N 1167.81 1.7733 6.31889 0
M  V30 8892 C 1168.38 2.64393 5.43725 0
M  V30 8893 H 1170.68 2.13823 6.99656 0
M  V30 8894 H 1171.86 4.12931 5.06895 0
M  V30 8895 H 1173.34 5.03285 6.70911 0
M  V30 8896 H 1171.65 5.20001 8.76217 0
M  V30 8897 H 1171.46 7.11046 7.35349 0
M  V30 8898 H 1169.83 6.35815 7.26986 0
M  V30 8899 H 1166.09 0.66574 6.53015 0
M  V30 8900 H 1170.67 4.58037 4.27732 0
M  V30 8901 H 1165.06 2.64828 2.45331 0
M  V30 8902 H 1166.47 3.67472 2.05644 0
M  V30 8903 H 1172.47 1.61619 6.13468 0
M  V30 8904 P 1174.33 3.65191 7.99657 0
M  V30 8905 O 1175.75 3.84292 8.48206 0
M  V30 8906 O 1173.97 4.17805 6.64342 0
M  V30 8907 O 1174 2.07613 7.95143 0
M  V30 8908 C 1173.84 1.44344 9.27435 0
M  V30 8909 C 1174.38 0.0220036 9.17197 0
M  V30 8910 O 1173.33 -0.626794 8.61824 0
M  V30 8911 C 1175.6 -0.24586 8.30336 0
M  V30 8912 O 1176.34 -1.39011 8.63583 0
M  V30 8913 C 1174.93 -0.273849 6.91158 0
M  V30 8914 O 1175.73 -1.05728 6.029 0
M  V30 8915 C 1173.6 -0.897649 7.22545 0
M  V30 8916 N 1172.55 -0.292839 6.41732 0
M  V30 8917 C 1172.72 0.950603 5.91308 0
M  V30 8918 N 1171.69 1.37732 5.21105 0
M  V30 8919 C 1170.81 0.318109 5.26039 0
M  V30 8920 C 1169.54 0.146766 4.6727 0
M  V30 8921 N 1168.98 -1.06525 4.95887 0
M  V30 8922 C 1169.58 -2.0378 5.71347 0
M  V30 8923 N 1170.76 -1.92445 6.27451 0
M  V30 8924 C 1171.33 -0.715382 6.00353 0
M  V30 8925 H 1174.81 0.733318 6.49674 0
M  V30 8926 H 1176.29 0.60668 8.36503 0
M  V30 8927 H 1174.6 -0.362662 10.1825 0
M  V30 8928 H 1174.41 2.00611 10.0304 0
M  V30 8929 H 1172.78 1.41843 9.55327 0
M  V30 8930 H 1173.62 1.54076 6.07465 0
M  V30 8931 H 1175.42 -1.95704 6.0346 0
M  V30 8932 P 1177.28 -1.25109 8.70152 0
M  V30 8933 O 1178.7 -1.35274 9.21221 0
M  V30 8934 O 1176.92 -0.0769065 7.84762 0
M  V30 8935 O 1176.95 -2.55232 7.81161 0
M  V30 8936 C 1176.79 -3.79939 8.58154 0
M  V30 8937 C 1177.33 -4.94023 7.72785 0
M  V30 8938 O 1176.28 -5.18726 6.91205 0
M  V30 8939 C 1178.55 -4.69597 6.85231 0
M  V30 8940 O 1179.29 -5.83832 6.51337 0
M  V30 8941 C 1177.88 -3.96706 5.66633 0
M  V30 8942 O 1178.68 -4.15414 4.49689 0
M  V30 8943 C 1176.55 -4.66153 5.59313 0
M  V30 8944 H 1176.58 -5.47679 4.85214 0
M  V30 8945 H 1177.76 -2.89008 5.86566 0
M  V30 8946 H 1179.25 -4.0121 7.36511 0
M  V30 8947 H 1177.55 -5.80182 8.37584 0
M  V30 8948 H 1177.36 -3.73517 9.52265 0
M  V30 8949 H 1175.73 -3.97163 8.80359 0
M  V30 8950 H 1178.37 -4.90969 4.01921 0
M  V30 8951 P 1180.23 -5.75688 6.64379 0
M  V30 8952 O 1181.63 -6.11991 7.09136 0
M  V30 8953 O 1179.85 -4.30899 6.62018 0
M  V30 8954 O 1179.9 -6.36965 5.19102 0
M  V30 8955 C 1179.74 -7.83578 5.16515 0
M  V30 8956 C 1180.28 -8.33307 3.82977 0
M  V30 8957 O 1179.23 -8.0998 3.00999 0
M  V30 8958 C 1181.5 -7.65514 3.2257 0
M  V30 8959 O 1182.24 -8.4329 2.32297 0
M  V30 8960 C 1180.83 -6.40075 2.62207 0
M  V30 8961 O 1181.63 -5.92492 1.53687 0
M  V30 8962 C 1179.5 -6.9454 2.18503 0
M  V30 8963 N 1178.45 -5.95905 2.39948 0
M  V30 8964 C 1177.42 -5.89764 1.49837 0
M  V30 8965 O 1177.46 -6.64088 0.490975 0
M  V30 8966 N 1176.41 -5.02821 1.70992 0
M  V30 8967 C 1176.45 -4.21498 2.77236 0
M  V30 8968 C 1177.55 -4.23389 3.68205 0
M  V30 8969 C 1178.52 -5.12792 3.46171 0
M  V30 8970 H 1179.53 -7.22964 1.12076 0
M  V30 8971 H 1180.71 -5.60502 3.36589 0
M  V30 8972 H 1182.2 -7.36197 4.01993 0
M  V30 8973 H 1180.5 -9.41302 3.90009 0
M  V30 8974 H 1180.31 -8.29056 5.99158 0
M  V30 8975 H 1178.68 -8.09989 5.25828 0
M  V30 8976 H 1177.6 -3.54747 4.52399 0
M  V30 8977 H 1179.36 -5.18551 4.1489 0
M  V30 8978 H 1181.42 -6.40705 0.751752 0
M  V30 8979 P 1183.18 -8.4349 2.47671 0
M  V30 8980 O 1184.6 -8.94167 2.5964 0
M  V30 8981 O 1182.82 -7.1704 3.19006 0
M  V30 8982 O 1182.86 -8.16596 0.923387 0
M  V30 8983 C 1182.7 -9.38437 0.108857 0
M  V30 8984 C 1183.24 -9.08175 -1.28353 0
M  V30 8985 O 1182.18 -8.44229 -1.84713 0
M  V30 8986 C 1184.45 -8.18386 -1.42505 0
M  V30 8987 O 1185.19 -8.3501 -2.60497 0
M  V30 8988 C 1183.78 -6.80225 -1.25468 0
M  V30 8989 O 1184.58 -5.81621 -1.91066 0
M  V30 8990 C 1182.45 -7.02416 -1.9168 0
M  V30 8991 H 1182.48 -6.6888 -2.96621 0
M  V30 8992 H 1183.66 -6.53617 -0.192223 0
M  V30 8993 H 1185.15 -8.36622 -0.589963 0
M  V30 8994 H 1183.45 -10.0291 -1.79807 0
M  V30 8995 H 1183.26 -10.2138 0.558219 0
M  V30 8996 H 1181.63 -9.6579 0.0444202 0
M  V30 8997 H 1184.27 -5.69556 -2.79637 0
M  V30 8998 P 1186.13 -8.4349 -2.47671 0
M  V30 8999 O 1187.55 -8.92593 -2.65 0
M  V30 9000 O 1185.77 -7.7568 -1.19296 0
M  V30 9001 O 1185.81 -7.36886 -3.63805 0
M  V30 9002 C 1185.65 -7.95349 -4.982 0
M  V30 9003 C 1186.19 -6.94612 -5.98974 0
M  V30 9004 O 1185.13 -6.10347 -6.11815 0
M  V30 9005 C 1187.4 -6.11426 -5.62335 0
M  V30 9006 O 1188.14 -5.6162 -6.70584 0
M  V30 9007 C 1186.74 -5.04409 -4.73308 0
M  V30 9008 O 1187.53 -3.85992 -4.75183 0
M  V30 9009 C 1185.4 -4.8728 -5.41006 0
M  V30 9010 H 1185.43 -4.02333 -6.11157 0
M  V30 9011 H 1186.61 -5.39466 -3.69543 0
M  V30 9012 H 1188.1 -6.71916 -5.01943 0
M  V30 9013 H 1186.4 -7.4649 -6.93477 0
M  V30 9014 H 1186.21 -8.89416 -5.05237 0
M  V30 9015 H 1184.58 -8.14876 -5.18409 0
M  V30 9016 H 1187.22 -3.27957 -5.4317 0
M  V30 9017 P 1189.08 -5.75688 -6.64379 0
M  V30 9018 O 1190.5 -6.07627 -7.05504 0
M  V30 9019 O 1188.72 -5.88047 -5.19722 0
M  V30 9020 O 1188.76 -4.2322 -7.04443 0
M  V30 9021 C 1188.6 -3.99743 -8.4911 0
M  V30 9022 C 1189.14 -2.60516 -8.79425 0
M  V30 9023 O 1188.08 -1.82684 -8.4467 0
M  V30 9024 C 1190.35 -2.10343 -8.03628 0
M  V30 9025 O 1191.09 -1.09919 -8.67766 0
M  V30 9026 C 1189.69 -1.68446 -6.70876 0
M  V30 9027 O 1190.48 -0.678137 -6.08433 0
M  V30 9028 C 1188.35 -1.17436 -7.18567 0
M  V30 9029 H 1188.38 -0.0804732 -7.31656 0
M  V30 9030 H 1189.56 -2.54037 -6.02537 0
M  V30 9031 H 1191.05 -2.93881 -7.85526 0
M  V30 9032 H 1189.35 -2.53065 -9.86973 0
M  V30 9033 H 1189.16 -4.75072 -9.05887 0
M  V30 9034 H 1187.53 -4.05244 -8.76668 0
M  V30 9035 H 1190.17 0.177647 -6.34251 0
M  V30 9036 P 1192.03 -1.25109 -8.70152 0
M  V30 9037 O 1193.45 -1.29744 -9.22016 0
M  V30 9038 O 1191.67 -2.13714 -7.55141 0
M  V30 9039 O 1191.71 0.248149 -8.21425 0
M  V30 9040 C 1191.55 1.22779 -9.30434 0
M  V30 9041 C 1192.09 2.56293 -8.80664 0
M  V30 9042 O 1191.03 3.02979 -8.09349 0
M  V30 9043 C 1193.31 2.57523 -7.89775 0
M  V30 9044 O 1194.04 3.7668 -7.89438 0
M  V30 9045 C 1192.64 2.20997 -6.55446 0
M  V30 9046 O 1193.44 2.71895 -5.48509 0
M  V30 9047 C 1191.3 2.89693 -6.67988 0
M  V30 9048 H 1191.33 3.88793 -6.19859 0
M  V30 9049 H 1192.51 1.12046 -6.44229 0
M  V30 9050 H 1194 1.7746 -8.19711 0
M  V30 9051 H 1192.3 3.20706 -9.67112 0
M  V30 9052 H 1192.11 0.901032 -10.1892 0
M  V30 9053 H 1190.48 1.33049 -9.56592 0
M  V30 9054 H 1193.12 3.57847 -5.23962 0
M  V30 9055 P 1194.98 3.65191 -7.99657 0
M  V30 9056 O 1196.4 3.89332 -8.45794 0
M  V30 9057 O 1194.62 2.28472 -7.50807 0
M  V30 9058 O 1194.66 4.64972 -6.77611 0
M  V30 9059 C 1194.5 6.06319 -7.16352 0
M  V30 9060 C 1195.04 6.91731 -6.02299 0
M  V30 9061 O 1193.98 6.92449 -5.17064 0
M  V30 9062 C 1196.26 6.43627 -5.25174 0
M  V30 9063 O 1196.99 7.43686 -4.60469 0
M  V30 9064 C 1195.59 5.40275 -4.31916 0
M  V30 9065 O 1196.39 5.25279 -3.14438 0
M  V30 9066 C 1194.25 6.04847 -4.05327 0
M  V30 9067 H 1194.28 6.62195 -3.11261 0
M  V30 9068 H 1195.46 4.42556 -4.81383 0
M  V30 9069 H 1196.95 5.92458 -5.93643 0
M  V30 9070 H 1195.25 7.92655 -6.402 0
M  V30 9071 H 1195.06 6.26671 -8.0846 0
M  V30 9072 H 1193.43 6.29101 -7.32804 0
M  V30 9073 H 1196.07 5.84315 -2.47318 0
M  V30 9074 P 1197.93 7.39546 -4.75277 0
M  V30 9075 O 1199.35 7.84798 -5.01039 0
M  V30 9076 O 1197.57 5.9812 -5.08098 0
M  V30 9077 O 1197.61 7.57503 -3.1866 0
M  V30 9078 C 1197.45 8.97357 -2.74833 0
M  V30 9079 C 1197.99 9.07548 -1.32709 0
M  V30 9080 O 1196.93 8.62072 -0.606159 0
M  V30 9081 C 1199.21 8.25383 -0.938334 0
M  V30 9082 O 1199.94 8.74577 0.146954 0
M  V30 9083 C 1198.54 6.8802 -0.712559 0
M  V30 9084 O 1199.34 6.1189 0.194655 0
M  V30 9085 C 1197.2 7.27966 -0.139777 0
M  V30 9086 H 1197.23 7.25354 0.961601 0
M  V30 9087 H 1198.42 6.32557 -1.65702 0
M  V30 9088 H 1199.9 8.19355 -1.79097 0
M  V30 9089 H 1198.21 10.1294 -1.10029 0
M  V30 9090 H 1198.02 9.64276 -3.41316 0
M  V30 9091 H 1196.39 9.25417 -2.76357 0
M  V30 9092 H 1199.02 6.25267 1.07847 0
M  V30 9093 P 1200.88 8.791 9.72715e-12 0
M  V30 9094 O 1202.3 9.31096 0.027933 0
M  V30 9095 O 1200.52 7.77869 -1.04071 0
M  V30 9096 O 1200.56 8.09533 1.41463 0
M  V30 9097 C 1200.4 9.0349 2.53943 0
M  V30 9098 C 1200.94 8.35226 3.79016 0
M  V30 9099 O 1199.88 7.57992 4.15078 0
M  V30 9100 C 1202.16 7.45087 3.67298 0
M  V30 9101 O 1202.89 7.27796 4.85194 0
M  V30 9102 C 1201.49 6.17323 3.12027 0
M  V30 9103 O 1202.29 5.04231 3.47188 0
M  V30 9104 C 1200.15 6.19961 3.81809 0
M  V30 9105 H 1200.18 5.58218 4.73051 0
M  V30 9106 H 1201.37 6.21726 2.02589 0
M  V30 9107 H 1202.85 7.86112 2.9231 0
M  V30 9108 H 1201.16 9.11627 4.55076 0
M  V30 9109 H 1200.97 9.9573 2.34194 0
M  V30 9110 H 1199.34 9.2792 2.67832 0
M  V30 9111 H 1201.97 4.67702 4.28772 0
M  V30 9112 P 1203.83 7.39546 4.75277 0
M  V30 9113 O 1205.25 7.81777 5.05738 0
M  V30 9114 O 1203.47 7.1065 3.32998 0
M  V30 9115 O 1203.51 6.04542 5.56673 0
M  V30 9116 C 1203.35 6.22772 7.02095 0
M  V30 9117 C 1203.89 4.97725 7.70406 0
M  V30 9118 O 1202.83 4.13256 7.58987 0
M  V30 9119 C 1205.11 4.28231 7.11815 0
M  V30 9120 O 1205.85 3.49945 8.01648 0
M  V30 9121 C 1204.44 3.5063 5.96244 0
M  V30 9122 O 1205.24 2.36482 5.64681 0
M  V30 9123 C 1203.1 3.15122 6.56374 0
M  V30 9124 H 1203.13 2.13853 6.99751 0
M  V30 9125 H 1204.32 4.13501 5.06559 0
M  V30 9126 H 1205.8 5.03285 6.70911 0
M  V30 9127 H 1204.11 5.20877 8.75697 0
M  V30 9128 H 1203.92 7.11046 7.35349 0
M  V30 9129 H 1202.29 6.35815 7.26986 0
M  V30 9130 H 1204.93 1.61644 6.13565 0
M  V30 9131 P 1206.78 3.65191 7.99657 0
M  V30 9132 O 1208.21 3.8425 8.48115 0
M  V30 9133 O 1206.42 4.17805 6.64342 0
M  V30 9134 O 1206.46 2.07613 7.95143 0
M  V30 9135 C 1206.3 1.44328 9.27336 0
M  V30 9136 C 1206.84 0.0220036 9.17197 0
M  V30 9137 O 1205.78 -0.626867 8.61923 0
M  V30 9138 C 1208.06 -0.24586 8.30336 0
M  V30 9139 O 1208.8 -1.39011 8.63583 0
M  V30 9140 C 1207.39 -0.273849 6.91158 0
M  V30 9141 O 1208.19 -1.06348 6.02892 0
M  V30 9142 C 1206.05 -0.897649 7.22545 0
M  V30 9143 H 1206.08 -1.9841 7.04286 0
M  V30 9144 H 1207.27 0.739928 6.497 0
M  V30 9145 H 1208.75 0.60668 8.36503 0
M  V30 9146 H 1207.06 -0.352479 10.1829 0
M  V30 9147 H 1206.87 2.00611 10.0304 0
M  V30 9148 H 1205.24 1.41843 9.55327 0
M  V30 9149 H 1207.88 -1.95734 6.03555 0
M  V30 9150 P 1209.73 -1.25109 8.70152 0
M  V30 9151 O 1211.16 -1.35274 9.21221 0
M  V30 9152 O 1209.37 -0.0769065 7.84762 0
M  V30 9153 O 1209.41 -2.55232 7.81161 0
M  V30 9154 C 1209.25 -3.79939 8.58154 0
M  V30 9155 C 1209.79 -4.94023 7.72785 0
M  V30 9156 O 1208.73 -5.18726 6.91205 0
M  V30 9157 C 1211.01 -4.69597 6.85231 0
M  V30 9158 O 1211.75 -5.83832 6.51337 0
M  V30 9159 C 1210.34 -3.96706 5.66633 0
M  V30 9160 O 1211.14 -4.15414 4.49689 0
M  V30 9161 C 1209 -4.66153 5.59313 0
M  V30 9162 H 1209.03 -5.47679 4.85214 0
M  V30 9163 H 1210.22 -2.89008 5.86566 0
M  V30 9164 H 1211.7 -4.0121 7.36511 0
M  V30 9165 H 1210.01 -5.80182 8.37584 0
M  V30 9166 H 1209.82 -3.73517 9.52265 0
M  V30 9167 H 1208.19 -3.97163 8.80359 0
M  V30 9168 H 1210.83 -4.90969 4.01921 0
M  V30 9169 P 1212.68 -5.75688 6.64379 0
M  V30 9170 O 1214.11 -6.11981 7.01997 0
M  V30 9171 O 1212.32 -4.30744 6.56026 0
M  V30 9172 O 1212.36 -6.37042 5.19165 0
M  V30 9173 C 1212.2 -7.83578 5.16515 0
M  V30 9174 C 1212.74 -8.33307 3.82977 0
M  V30 9175 O 1211.69 -8.10074 3.01034 0
M  V30 9176 C 1213.96 -7.65514 3.2257 0
M  V30 9177 O 1214.7 -8.4329 2.32297 0
M  V30 9178 C 1213.29 -6.40075 2.62207 0
M  V30 9179 O 1214.09 -5.92492 1.53687 0
M  V30 9180 C 1211.95 -6.9454 2.18503 0
M  V30 9181 N 1210.91 -5.95905 2.39948 0
M  V30 9182 C 1210.97 -5.13994 3.44742 0
M  V30 9183 N 1209.93 -4.30684 3.46712 0
M  V30 9184 C 1209.19 -4.65583 2.41086 0
M  V30 9185 C 1207.89 -4.20877 1.99581 0
M  V30 9186 O 1207.15 -3.35913 2.52616 0
M  V30 9187 N 1207.46 -4.83271 0.873406 0
M  V30 9188 C 1208.21 -5.82006 0.185129 0
M  V30 9189 N 1207.61 -6.30619 -0.95439 0
M  V30 9190 N 1209.36 -6.28443 0.578524 0
M  V30 9191 C 1209.82 -5.68486 1.70138 0
M  V30 9192 H 1211.99 -7.23063 1.12091 0
M  V30 9193 H 1213.17 -5.60165 3.3715 0
M  V30 9194 H 1214.65 -7.3611 4.01946 0
M  V30 9195 H 1212.96 -9.40912 3.9095 0
M  V30 9196 H 1212.77 -8.29056 5.99158 0
M  V30 9197 H 1211.14 -8.10073 5.25882 0
M  V30 9198 H 1206.56 -4.58323 0.505262 0
M  V30 9199 H 1211.77 -5.14564 4.1935 0
M  V30 9200 H 1206.7 -5.93402 -1.25364 0
M  V30 9201 H 1208.07 -7.0425 -1.50254 0
M  V30 9202 H 1213.78 -6.30224 0.72668 0
M  V30 9203 P 1215.63 -8.4349 2.47671 0
M  V30 9204 O 1217.06 -8.94167 2.5964 0
M  V30 9205 O 1215.27 -7.1704 3.19006 0
M  V30 9206 O 1215.31 -8.16596 0.923387 0
M  V30 9207 C 1215.15 -9.38437 0.108857 0
M  V30 9208 C 1215.69 -9.08175 -1.28353 0
M  V30 9209 O 1214.64 -8.44229 -1.84713 0
M  V30 9210 C 1216.91 -8.18386 -1.42505 0
M  V30 9211 O 1217.65 -8.3501 -2.60497 0
M  V30 9212 C 1216.24 -6.80225 -1.25468 0
M  V30 9213 O 1217.04 -5.81621 -1.91066 0
M  V30 9214 C 1214.9 -7.02416 -1.9168 0
M  V30 9215 H 1214.94 -6.6888 -2.96621 0
M  V30 9216 H 1216.12 -6.53617 -0.192223 0
M  V30 9217 H 1217.6 -8.36622 -0.589963 0
M  V30 9218 H 1215.91 -10.0291 -1.79807 0
M  V30 9219 H 1215.72 -10.2138 0.558219 0
M  V30 9220 H 1214.09 -9.6579 0.0444202 0
M  V30 9221 H 1216.73 -5.69556 -2.79637 0
M  V30 9222 P 1218.59 -8.4349 -2.47671 0
M  V30 9223 O 1220.01 -8.92689 -2.65029 0
M  V30 9224 O 1218.23 -7.7568 -1.19296 0
M  V30 9225 O 1218.26 -7.36886 -3.63805 0
M  V30 9226 C 1218.1 -7.95433 -4.98253 0
M  V30 9227 C 1218.64 -6.94612 -5.98974 0
M  V30 9228 O 1217.59 -6.10277 -6.11744 0
M  V30 9229 C 1219.86 -6.11426 -5.62335 0
M  V30 9230 O 1220.6 -5.6162 -6.70584 0
M  V30 9231 C 1219.19 -5.04409 -4.73308 0
M  V30 9232 O 1219.99 -3.86404 -4.74719 0
M  V30 9233 C 1217.85 -4.8728 -5.41006 0
M  V30 9234 N 1216.81 -4.65812 -4.42377 0
M  V30 9235 C 1216.98 -5.09132 -3.15382 0
M  V30 9236 N 1215.95 -4.84021 -2.3716 0
M  V30 9237 C 1215.07 -4.18386 -3.20441 0
M  V30 9238 C 1213.8 -3.6275 -2.94905 0
M  V30 9239 N 1213.24 -3.05008 -4.05243 0
M  V30 9240 C 1213.84 -2.98348 -5.28159 0
M  V30 9241 N 1215.02 -3.48171 -5.56333 0
M  V30 9242 C 1215.59 -4.06869 -4.47212 0
M  V30 9243 H 1219.07 -5.39013 -3.70026 0
M  V30 9244 H 1220.55 -6.71916 -5.01943 0
M  V30 9245 H 1218.86 -7.45796 -6.94223 0
M  V30 9246 H 1218.67 -8.89416 -5.05237 0
M  V30 9247 H 1217.04 -8.14876 -5.18409 0
M  V30 9248 H 1217.88 -5.59989 -2.81362 0
M  V30 9249 H 1219.68 -3.27906 -5.43085 0
M  V30 9250 P 1221.54 -5.75688 -6.64379 0
M  V30 9251 O 1222.96 -6.07627 -7.05504 0
M  V30 9252 O 1221.18 -5.88047 -5.19722 0
M  V30 9253 O 1221.21 -4.2322 -7.04443 0
M  V30 9254 C 1221.05 -3.99743 -8.4911 0
M  V30 9255 C 1221.59 -2.60516 -8.79425 0
M  V30 9256 O 1220.54 -1.82684 -8.4467 0
M  V30 9257 C 1222.81 -2.10343 -8.03628 0
M  V30 9258 O 1223.55 -1.09919 -8.67766 0
M  V30 9259 C 1222.14 -1.68446 -6.70876 0
M  V30 9260 O 1222.94 -0.678137 -6.08433 0
M  V30 9261 C 1220.8 -1.17436 -7.18567 0
M  V30 9262 H 1220.84 -0.0804732 -7.31656 0
M  V30 9263 H 1222.02 -2.54037 -6.02537 0
M  V30 9264 H 1223.5 -2.93881 -7.85526 0
M  V30 9265 H 1221.81 -2.53065 -9.86973 0
M  V30 9266 H 1221.62 -4.75072 -9.05887 0
M  V30 9267 H 1219.99 -4.05244 -8.76668 0
M  V30 9268 H 1222.63 0.177647 -6.34251 0
M  V30 9269 P 1224.49 -1.25109 -8.70152 0
M  V30 9270 O 1225.91 -1.29758 -9.22115 0
M  V30 9271 O 1224.13 -2.13714 -7.55141 0
M  V30 9272 O 1224.16 0.248149 -8.21425 0
M  V30 9273 C 1224 1.22792 -9.30533 0
M  V30 9274 C 1224.54 2.56293 -8.80664 0
M  V30 9275 O 1223.49 3.02944 -8.09255 0
M  V30 9276 C 1225.76 2.57523 -7.89775 0
M  V30 9277 O 1226.5 3.7668 -7.89438 0
M  V30 9278 C 1225.09 2.20997 -6.55446 0
M  V30 9279 O 1225.89 2.71302 -5.48691 0
M  V30 9280 C 1223.76 2.89693 -6.67988 0
M  V30 9281 N 1222.71 2.08895 -6.07487 0
M  V30 9282 C 1222.88 0.753809 -5.94137 0
M  V30 9283 N 1221.85 0.146592 -5.38801 0
M  V30 9284 C 1220.97 1.1768 -5.13693 0
M  V30 9285 C 1219.7 1.17563 -4.52477 0
M  V30 9286 N 1219.1 0.057481 -4.04759 0
M  V30 9287 N 1219.14 2.41918 -4.45789 0
M  V30 9288 C 1219.74 3.56493 -4.90792 0
M  V30 9289 N 1220.92 3.61423 -5.47817 0
M  V30 9290 C 1221.49 2.37779 -5.5588 0
M  V30 9291 H 1223.79 3.8874 -6.19774 0
M  V30 9292 H 1224.97 1.12673 -6.44018 0
M  V30 9293 H 1226.45 1.7746 -8.19711 0
M  V30 9294 H 1224.76 3.21673 -9.66791 0
M  V30 9295 H 1224.57 0.901032 -10.1892 0
M  V30 9296 H 1222.94 1.33049 -9.56592 0
M  V30 9297 H 1219.2 4.49919 -4.77947 0
M  V30 9298 H 1223.78 0.233081 -6.26266 0
M  V30 9299 H 1218.17 0.119831 -3.60801 0
M  V30 9300 H 1219.58 -0.852272 -4.12385 0
M  V30 9301 H 1225.58 3.5779 -5.23879 0
M  V30 9302 P 1227.44 3.65191 -7.99657 0
M  V30 9303 O 1228.86 3.89332 -8.45794 0
M  V30 9304 O 1227.08 2.28472 -7.50807 0
M  V30 9305 O 1227.11 4.64972 -6.77611 0
M  V30 9306 C 1226.95 6.06319 -7.16352 0
M  V30 9307 C 1227.49 6.91731 -6.02299 0
M  V30 9308 O 1226.44 6.92449 -5.17064 0
M  V30 9309 C 1228.71 6.43627 -5.25174 0
M  V30 9310 O 1229.45 7.43686 -4.60469 0
M  V30 9311 C 1228.04 5.40275 -4.31916 0
M  V30 9312 O 1228.84 5.25279 -3.14438 0
M  V30 9313 C 1226.71 6.04847 -4.05327 0
M  V30 9314 H 1226.74 6.62195 -3.11261 0
M  V30 9315 H 1227.92 4.42556 -4.81383 0
M  V30 9316 H 1229.41 5.92458 -5.93643 0
M  V30 9317 H 1227.71 7.92655 -6.402 0
M  V30 9318 H 1227.52 6.26671 -8.0846 0
M  V30 9319 H 1225.89 6.29101 -7.32804 0
M  V30 9320 H 1228.53 5.84315 -2.47318 0
M  V30 9321 P 1230.39 7.39546 -4.75277 0
M  V30 9322 O 1231.81 7.84966 -5.01146 0
M  V30 9323 O 1230.03 5.9812 -5.08098 0
M  V30 9324 O 1230.06 7.57503 -3.1866 0
M  V30 9325 C 1229.9 8.97357 -2.74833 0
M  V30 9326 C 1230.44 9.0745 -1.32694 0
M  V30 9327 O 1229.39 8.62072 -0.606159 0
M  V30 9328 C 1231.66 8.25383 -0.938334 0
M  V30 9329 O 1232.4 8.74577 0.146954 0
M  V30 9330 C 1230.99 6.8802 -0.712559 0
M  V30 9331 O 1231.79 6.11791 0.194623 0
M  V30 9332 C 1229.66 7.27966 -0.139777 0
M  V30 9333 N 1228.61 6.39368 -0.623421 0
M  V30 9334 C 1228.68 5.90299 -1.85969 0
M  V30 9335 N 1227.63 5.10919 -2.1133 0
M  V30 9336 C 1226.9 5.14646 -1.0015 0
M  V30 9337 C 1225.59 4.60057 -0.729219 0
M  V30 9338 O 1224.86 3.93476 -1.47746 0
M  V30 9339 N 1225.16 4.88302 0.523505 0
M  V30 9340 C 1225.91 5.63646 1.46207 0
M  V30 9341 N 1225.31 5.78186 2.69239 0
M  V30 9342 N 1227.06 6.19285 1.21544 0
M  V30 9343 C 1227.52 5.93392 -0.0308487 0
M  V30 9344 H 1229.69 7.25354 0.961601 0
M  V30 9345 H 1230.87 6.3246 -1.65676 0
M  V30 9346 H 1232.36 8.19533 -1.78278 0
M  V30 9347 H 1230.66 10.1294 -1.10029 0
M  V30 9348 H 1230.47 9.64276 -3.41316 0
M  V30 9349 H 1228.84 9.25417 -2.76357 0
M  V30 9350 H 1224.26 4.53993 0.806451 0
M  V30 9351 H 1229.47 6.11865 -2.57394 0
M  V30 9352 H 1224.4 5.34046 2.87467 0
M  V30 9353 H 1225.78 6.33391 3.42578 0
M  V30 9354 H 1231.48 6.25169 1.0783 0
M  V30 9355 P 1233.34 8.791 1.00373e-11 0
M  V30 9356 O 1234.76 9.31096 0.027933 0
M  V30 9357 O 1232.98 7.77869 -1.04071 0
M  V30 9358 O 1233.02 8.09533 1.41463 0
M  V30 9359 C 1232.86 9.0349 2.53943 0
M  V30 9360 C 1233.4 8.35226 3.79016 0
M  V30 9361 O 1232.34 7.57992 4.15078 0
M  V30 9362 C 1234.61 7.45087 3.67298 0
M  V30 9363 O 1235.35 7.27796 4.85194 0
M  V30 9364 C 1233.94 6.17323 3.12027 0
M  V30 9365 O 1234.74 5.04231 3.47188 0
M  V30 9366 C 1232.61 6.19961 3.81809 0
M  V30 9367 H 1232.64 5.58218 4.73051 0
M  V30 9368 H 1233.82 6.21726 2.02589 0
M  V30 9369 H 1235.31 7.86112 2.9231 0
M  V30 9370 H 1233.61 9.11627 4.55076 0
M  V30 9371 H 1233.42 9.9573 2.34194 0
M  V30 9372 H 1231.79 9.2792 2.67832 0
M  V30 9373 H 1234.43 4.67702 4.28772 0
M  V30 9374 P 1236.29 7.39546 4.75277 0
M  V30 9375 O 1237.71 7.81777 5.05738 0
M  V30 9376 O 1235.93 7.1065 3.32998 0
M  V30 9377 O 1235.97 6.04542 5.56673 0
M  V30 9378 C 1235.81 6.22772 7.02095 0
M  V30 9379 C 1236.35 4.97725 7.70406 0
M  V30 9380 O 1235.29 4.13256 7.58987 0
M  V30 9381 C 1237.56 4.28231 7.11815 0
M  V30 9382 O 1238.3 3.49945 8.01648 0
M  V30 9383 C 1236.89 3.5063 5.96244 0
M  V30 9384 O 1237.69 2.36482 5.64681 0
M  V30 9385 C 1235.56 3.15122 6.56374 0
M  V30 9386 H 1235.59 2.13853 6.99751 0
M  V30 9387 H 1236.77 4.13501 5.06559 0
M  V30 9388 H 1238.26 5.03285 6.70911 0
M  V30 9389 H 1236.56 5.20877 8.75697 0
M  V30 9390 H 1236.37 7.11046 7.35349 0
M  V30 9391 H 1234.74 6.35815 7.26986 0
M  V30 9392 H 1237.38 1.61644 6.13565 0
M  V30 9393 P 1239.24 3.65191 7.99657 0
M  V30 9394 O 1240.66 3.8425 8.48115 0
M  V30 9395 O 1238.88 4.17805 6.64342 0
M  V30 9396 O 1238.92 2.07613 7.95143 0
M  V30 9397 C 1238.76 1.44328 9.27336 0
M  V30 9398 C 1239.3 0.0220036 9.17197 0
M  V30 9399 O 1238.24 -0.626867 8.61923 0
M  V30 9400 C 1240.51 -0.24586 8.30336 0
M  V30 9401 O 1241.25 -1.39011 8.63583 0
M  V30 9402 C 1239.85 -0.273849 6.91158 0
M  V30 9403 O 1240.64 -1.06348 6.02892 0
M  V30 9404 C 1238.51 -0.897649 7.22545 0
M  V30 9405 H 1238.54 -1.9841 7.04286 0
M  V30 9406 H 1239.72 0.739928 6.497 0
M  V30 9407 H 1241.21 0.60668 8.36503 0
M  V30 9408 H 1239.51 -0.352479 10.1829 0
M  V30 9409 H 1239.32 2.00611 10.0304 0
M  V30 9410 H 1237.69 1.41843 9.55327 0
M  V30 9411 H 1240.33 -1.95734 6.03555 0
M  V30 9412 P 1242.19 -1.25109 8.70152 0
M  V30 9413 O 1243.61 -1.35288 9.2132 0
M  V30 9414 O 1241.83 -0.0769065 7.84762 0
M  V30 9415 O 1241.87 -2.55232 7.81161 0
M  V30 9416 C 1241.71 -3.79979 8.58246 0
M  V30 9417 C 1242.25 -4.94023 7.72785 0
M  V30 9418 O 1241.19 -5.18666 6.91125 0
M  V30 9419 C 1243.46 -4.69597 6.85231 0
M  V30 9420 O 1244.2 -5.83832 6.51337 0
M  V30 9421 C 1242.8 -3.96706 5.66633 0
M  V30 9422 O 1243.59 -4.14896 4.5003 0
M  V30 9423 C 1241.46 -4.66153 5.59313 0
M  V30 9424 N 1240.42 -3.71582 5.24027 0
M  V30 9425 C 1240.58 -2.39715 5.48833 0
M  V30 9426 N 1239.56 -1.65863 5.12845 0
M  V30 9427 C 1238.67 -2.57637 4.5973 0
M  V30 9428 C 1237.41 -2.40278 4.01027 0
M  V30 9429 N 1236.81 -1.19549 3.86744 0
M  V30 9430 N 1236.84 -3.57711 3.59575 0
M  V30 9431 C 1237.44 -4.80324 3.70476 0
M  V30 9432 N 1238.62 -5.01121 4.23801 0
M  V30 9433 C 1239.19 -3.84757 4.66372 0
M  V30 9434 H 1241.49 -5.47604 4.85148 0
M  V30 9435 H 1242.67 -2.8955 5.86187 0
M  V30 9436 H 1244.16 -4.0121 7.36511 0
M  V30 9437 H 1242.46 -5.81019 8.37003 0
M  V30 9438 H 1242.27 -3.73517 9.52265 0
M  V30 9439 H 1240.64 -3.97163 8.80359 0
M  V30 9440 H 1236.91 -5.66348 3.3183 0
M  V30 9441 H 1241.48 -1.98804 5.94332 0
M  V30 9442 H 1235.88 -1.13147 3.4281 0
M  V30 9443 H 1237.28 -0.344074 4.19692 0
M  V30 9444 H 1243.28 -4.90891 4.01857 0
M  V30 9445 P 1245.14 -5.75688 6.64379 0
M  V30 9446 O 1246.56 -6.11849 7.01846 0
M  V30 9447 O 1244.78 -4.30744 6.56026 0
M  V30 9448 O 1244.82 -6.37042 5.19165 0
M  V30 9449 C 1244.66 -7.83578 5.16515 0
M  V30 9450 C 1245.2 -8.33398 3.83019 0
M  V30 9451 O 1244.14 -8.10074 3.01034 0
M  V30 9452 C 1246.42 -7.65514 3.2257 0
M  V30 9453 O 1247.15 -8.4329 2.32297 0
M  V30 9454 C 1245.75 -6.40075 2.62207 0
M  V30 9455 O 1246.55 -5.92589 1.53712 0
M  V30 9456 C 1244.41 -6.9454 2.18503 0
M  V30 9457 H 1244.44 -7.23063 1.12091 0
M  V30 9458 H 1245.62 -5.6025 3.37201 0
M  V30 9459 H 1247.11 -7.35707 4.02681 0
M  V30 9460 H 1245.41 -9.40912 3.9095 0
M  V30 9461 H 1245.22 -8.29056 5.99158 0
M  V30 9462 H 1243.59 -8.10073 5.25882 0
M  V30 9463 H 1246.23 -6.30324 0.726794 0
M  V30 9464 P 1248.09 -8.4349 2.47671 0
M  V30 9465 O 1249.51 -8.94359 2.59696 0
M  V30 9466 O 1247.73 -7.1704 3.19006 0
M  V30 9467 O 1247.77 -8.16596 0.923387 0
M  V30 9468 C 1247.61 -9.38437 0.108857 0
M  V30 9469 C 1248.15 -9.08076 -1.28339 0
M  V30 9470 O 1247.09 -8.44229 -1.84713 0
M  V30 9471 C 1249.37 -8.18386 -1.42505 0
M  V30 9472 O 1250.1 -8.3501 -2.60497 0
M  V30 9473 C 1248.7 -6.80225 -1.25468 0
M  V30 9474 O 1249.5 -5.81526 -1.91035 0
M  V30 9475 C 1247.36 -7.02416 -1.9168 0
M  V30 9476 N 1246.32 -6.31033 -1.20314 0
M  V30 9477 C 1246.38 -6.18781 0.121293 0
M  V30 9478 N 1245.33 -5.49762 0.588272 0
M  V30 9479 C 1244.6 -5.22015 -0.488988 0
M  V30 9480 C 1243.29 -4.61966 -0.596448 0
M  V30 9481 O 1242.56 -4.19162 0.309059 0
M  V30 9482 N 1242.86 -4.53773 -1.878 0
M  V30 9483 C 1243.61 -4.99623 -2.99082 0
M  V30 9484 N 1243.02 -4.78912 -4.21227 0
M  V30 9485 N 1244.77 -5.59957 -2.91093 0
M  V30 9486 C 1245.22 -5.70225 -1.64218 0
M  V30 9487 H 1247.39 -6.6888 -2.96621 0
M  V30 9488 H 1248.58 -6.53517 -0.192194 0
M  V30 9489 H 1250.06 -8.36563 -0.598329 0
M  V30 9490 H 1248.37 -10.0291 -1.79807 0
M  V30 9491 H 1248.18 -10.2138 0.558219 0
M  V30 9492 H 1246.54 -9.6579 0.0444202 0
M  V30 9493 H 1241.97 -4.12883 -2.05283 0
M  V30 9494 H 1247.18 -6.59596 0.745856 0
M  V30 9495 H 1242.11 -4.31425 -4.2628 0
M  V30 9496 H 1243.48 -5.11219 -5.07148 0
M  V30 9497 H 1249.19 -5.69466 -2.79593 0
M  V30 9498 P 1251.04 -8.4349 -2.47671 0
M  V30 9499 O 1252.46 -8.92785 -2.65057 0
M  V30 9500 O 1250.68 -7.7568 -1.19296 0
M  V30 9501 O 1250.72 -7.36886 -3.63805 0
M  V30 9502 C 1250.56 -7.95349 -4.982 0
M  V30 9503 C 1251.1 -6.94537 -5.98908 0
M  V30 9504 O 1250.04 -6.10347 -6.11815 0
M  V30 9505 C 1252.32 -6.11426 -5.62335 0
M  V30 9506 O 1253.05 -5.6162 -6.70584 0
M  V30 9507 C 1251.65 -5.04409 -4.73308 0
M  V30 9508 O 1252.45 -3.85929 -4.75106 0
M  V30 9509 C 1250.31 -4.8728 -5.41006 0
M  V30 9510 N 1249.27 -4.65812 -4.42377 0
M  V30 9511 C 1249.33 -5.27109 -3.24335 0
M  V30 9512 N 1248.28 -4.94293 -2.47735 0
M  V30 9513 C 1247.55 -4.1271 -3.23359 0
M  V30 9514 C 1246.24 -3.56384 -2.99934 0
M  V30 9515 O 1245.51 -3.69331 -2.00616 0
M  V30 9516 N 1245.81 -2.80206 -4.03316 0
M  V30 9517 C 1246.56 -2.58614 -5.2172 0
M  V30 9518 N 1245.97 -1.75154 -6.13278 0
M  V30 9519 N 1247.72 -3.13689 -5.47619 0
M  V30 9520 C 1248.17 -3.90921 -4.46436 0
M  V30 9521 H 1250.34 -4.02333 -6.11157 0
M  V30 9522 H 1251.53 -5.39383 -3.69487 0
M  V30 9523 H 1253.01 -6.71414 -5.02615 0
M  V30 9524 H 1251.32 -7.4649 -6.93477 0
M  V30 9525 H 1251.13 -8.89416 -5.05237 0
M  V30 9526 H 1249.49 -8.14876 -5.18409 0
M  V30 9527 H 1244.92 -2.36355 -3.95916 0
M  V30 9528 H 1250.13 -5.95212 -2.93859 0
M  V30 9529 H 1245.06 -1.32473 -5.91856 0
M  V30 9530 H 1246.43 -1.5588 -7.03026 0
M  V30 9531 H 1252.14 -3.27906 -5.43085 0
M  V30 9532 P 1253.99 -5.75688 -6.64379 0
M  V30 9533 O 1255.41 -6.07627 -7.05504 0
M  V30 9534 O 1253.63 -5.88047 -5.19722 0
M  V30 9535 O 1253.67 -4.2322 -7.04443 0
M  V30 9536 C 1253.51 -3.99743 -8.4911 0
M  V30 9537 C 1254.05 -2.60516 -8.79425 0
M  V30 9538 O 1252.99 -1.82684 -8.4467 0
M  V30 9539 C 1255.27 -2.10343 -8.03628 0
M  V30 9540 O 1256.01 -1.09919 -8.67766 0
M  V30 9541 C 1254.6 -1.68446 -6.70876 0
M  V30 9542 O 1255.4 -0.678137 -6.08433 0
M  V30 9543 C 1253.26 -1.17436 -7.18567 0
M  V30 9544 H 1253.29 -0.0804732 -7.31656 0
M  V30 9545 H 1254.48 -2.54037 -6.02537 0
M  V30 9546 H 1255.96 -2.93881 -7.85526 0
M  V30 9547 H 1254.27 -2.53065 -9.86973 0
M  V30 9548 H 1254.08 -4.75072 -9.05887 0
M  V30 9549 H 1252.45 -4.05244 -8.76668 0
M  V30 9550 H 1255.09 0.177647 -6.34251 0
M  V30 9551 P 1256.94 -1.25109 -8.70152 0
M  V30 9552 O 1258.36 -1.29744 -9.22016 0
M  V30 9553 O 1256.58 -2.13714 -7.55141 0
M  V30 9554 O 1256.62 0.248149 -8.21425 0
M  V30 9555 C 1256.46 1.22779 -9.30434 0
M  V30 9556 C 1257 2.56293 -8.80664 0
M  V30 9557 O 1255.94 3.02979 -8.09349 0
M  V30 9558 C 1258.22 2.57523 -7.89775 0
M  V30 9559 O 1258.96 3.7668 -7.89438 0
M  V30 9560 C 1257.55 2.20997 -6.55446 0
M  V30 9561 O 1258.35 2.71895 -5.48509 0
M  V30 9562 C 1256.21 2.89693 -6.67988 0
M  V30 9563 H 1256.24 3.88793 -6.19859 0
M  V30 9564 H 1257.43 1.12046 -6.44229 0
M  V30 9565 H 1258.91 1.7746 -8.19711 0
M  V30 9566 H 1257.22 3.20706 -9.67112 0
M  V30 9567 H 1257.03 0.901032 -10.1892 0
M  V30 9568 H 1255.4 1.33049 -9.56592 0
M  V30 9569 H 1258.04 3.57847 -5.23962 0
M  V30 9570 P 1259.89 3.65191 -7.99657 0
M  V30 9571 O 1261.32 3.89332 -8.45794 0
M  V30 9572 O 1259.53 2.28472 -7.50807 0
M  V30 9573 O 1259.57 4.64972 -6.77611 0
M  V30 9574 C 1259.41 6.06319 -7.16352 0
M  V30 9575 C 1259.95 6.91731 -6.02299 0
M  V30 9576 O 1258.89 6.92449 -5.17064 0
M  V30 9577 C 1261.17 6.43627 -5.25174 0
M  V30 9578 O 1261.91 7.43686 -4.60469 0
M  V30 9579 C 1260.5 5.40275 -4.31916 0
M  V30 9580 O 1261.3 5.25279 -3.14438 0
M  V30 9581 C 1259.16 6.04847 -4.05327 0
M  V30 9582 H 1259.19 6.62195 -3.11261 0
M  V30 9583 H 1260.38 4.42556 -4.81383 0
M  V30 9584 H 1261.86 5.92458 -5.93643 0
M  V30 9585 H 1260.17 7.92655 -6.402 0
M  V30 9586 H 1259.98 6.26671 -8.0846 0
M  V30 9587 H 1258.35 6.29101 -7.32804 0
M  V30 9588 H 1260.99 5.84315 -2.47318 0
M  V30 9589 P 1262.84 7.39546 -4.75277 0
M  V30 9590 O 1264.27 7.84798 -5.01039 0
M  V30 9591 O 1262.48 5.9812 -5.08098 0
M  V30 9592 O 1262.52 7.57503 -3.1866 0
M  V30 9593 C 1262.36 8.97357 -2.74833 0
M  V30 9594 C 1262.9 9.07548 -1.32709 0
M  V30 9595 O 1261.84 8.62072 -0.606159 0
M  V30 9596 C 1264.12 8.25383 -0.938334 0
M  V30 9597 O 1264.86 8.74577 0.146954 0
M  V30 9598 C 1263.45 6.8802 -0.712559 0
M  V30 9599 O 1264.25 6.1189 0.194655 0
M  V30 9600 C 1262.11 7.27966 -0.139777 0
M  V30 9601 H 1262.14 7.25354 0.961601 0
M  V30 9602 H 1263.33 6.32557 -1.65702 0
M  V30 9603 H 1264.81 8.19355 -1.79097 0
M  V30 9604 H 1263.12 10.1294 -1.10029 0
M  V30 9605 H 1262.93 9.64276 -3.41316 0
M  V30 9606 H 1261.3 9.25417 -2.76357 0
M  V30 9607 H 1263.94 6.25267 1.07847 0
M  V30 9608 P 1265.79 8.791 1.03475e-11 0
M  V30 9609 O 1267.22 9.31096 0.027933 0
M  V30 9610 O 1265.43 7.77869 -1.04071 0
M  V30 9611 O 1265.47 8.09533 1.41463 0
M  V30 9612 C 1265.31 9.0349 2.53943 0
M  V30 9613 C 1265.85 8.35226 3.79016 0
M  V30 9614 O 1264.8 7.57992 4.15078 0
M  V30 9615 C 1267.07 7.45087 3.67298 0
M  V30 9616 O 1267.81 7.27796 4.85194 0
M  V30 9617 C 1266.4 6.17323 3.12027 0
M  V30 9618 O 1267.2 5.04231 3.47188 0
M  V30 9619 C 1265.06 6.19961 3.81809 0
M  V30 9620 H 1265.1 5.58218 4.73051 0
M  V30 9621 H 1266.28 6.21726 2.02589 0
M  V30 9622 H 1267.76 7.86112 2.9231 0
M  V30 9623 H 1266.07 9.11627 4.55076 0
M  V30 9624 H 1265.88 9.9573 2.34194 0
M  V30 9625 H 1264.25 9.2792 2.67832 0
M  V30 9626 H 1266.89 4.67702 4.28772 0
M  V30 9627 P 1268.75 7.39546 4.75277 0
M  V30 9628 O 1270.17 7.81777 5.05738 0
M  V30 9629 O 1268.39 7.1065 3.32998 0
M  V30 9630 O 1268.42 6.04542 5.56673 0
M  V30 9631 C 1268.26 6.22772 7.02095 0
M  V30 9632 C 1268.8 4.97725 7.70406 0
M  V30 9633 O 1267.75 4.13256 7.58987 0
M  V30 9634 C 1270.02 4.28231 7.11815 0
M  V30 9635 O 1270.76 3.49945 8.01648 0
M  V30 9636 C 1269.35 3.5063 5.96244 0
M  V30 9637 O 1270.15 2.36482 5.64681 0
M  V30 9638 C 1268.01 3.15122 6.56374 0
M  V30 9639 H 1268.05 2.13853 6.99751 0
M  V30 9640 H 1269.23 4.13501 5.06559 0
M  V30 9641 H 1270.71 5.03285 6.70911 0
M  V30 9642 H 1269.02 5.20877 8.75697 0
M  V30 9643 H 1268.83 7.11046 7.35349 0
M  V30 9644 H 1267.2 6.35815 7.26986 0
M  V30 9645 H 1269.84 1.61644 6.13565 0
M  V30 9646 P 1271.7 3.65191 7.99657 0
M  V30 9647 O 1273.1 3.90823 8.51272 0
M  V30 9648 O 1271.32 4.23191 6.66972 0
M  V30 9649 O 1271.37 2.07587 7.95046 0
M  V30 9650 C 1271.21 1.44328 9.27336 0
M  V30 9651 C 1271.75 0.0220012 9.17097 0
M  V30 9652 O 1270.7 -0.626794 8.61824 0
M  V30 9653 C 1272.97 -0.24586 8.30336 0
M  V30 9654 O 1273.71 -1.39011 8.63583 0
M  V30 9655 C 1272.3 -0.273849 6.91158 0
M  V30 9656 O 1273.1 -1.06331 6.02794 0
M  V30 9657 C 1270.96 -0.897649 7.22545 0
M  V30 9658 N 1269.92 -0.292839 6.41732 0
M  V30 9659 C 1268.89 -1.08701 5.98712 0
M  V30 9660 O 1268.93 -2.31211 6.24471 0
M  V30 9661 N 1267.87 -0.533391 5.28415 0
M  V30 9662 C 1267.92 0.770866 4.98576 0
M  V30 9663 C 1269.02 1.59049 5.38086 0
M  V30 9664 C 1269.98 1.01866 6.10256 0
M  V30 9665 H 1271 -1.98383 7.04189 0
M  V30 9666 H 1272.18 0.733318 6.49674 0
M  V30 9667 H 1273.66 0.598386 8.36663 0
M  V30 9668 H 1271.97 -0.362662 10.1825 0
M  V30 9669 H 1271.78 2.00611 10.0304 0
M  V30 9670 H 1270.15 1.41828 9.55228 0
M  V30 9671 H 1269.07 2.6415 5.10622 0
M  V30 9672 H 1270.83 1.61983 6.44042 0
M  V30 9673 H 1272.88 -1.97777 6.14035 0
M  V30 9674 P 1274.65 -1.25109 8.70152 0
M  V30 9675 O 1276.07 -1.35303 9.21419 0
M  V30 9676 O 1274.29 -0.0769065 7.84762 0
M  V30 9677 O 1274.32 -2.55232 7.81161 0
M  V30 9678 C 1274.16 -3.79939 8.58154 0
M  V30 9679 C 1274.7 -4.93969 7.72701 0
M  V30 9680 O 1273.65 -5.18726 6.91205 0
M  V30 9681 C 1275.92 -4.69597 6.85231 0
M  V30 9682 O 1276.66 -5.83832 6.51337 0
M  V30 9683 C 1275.25 -3.96706 5.66633 0
M  V30 9684 O 1276.05 -4.15346 4.49615 0
M  V30 9685 C 1273.92 -4.66153 5.59313 0
M  V30 9686 N 1272.87 -3.71582 5.24027 0
M  V30 9687 C 1272.93 -2.46018 5.67902 0
M  V30 9688 N 1271.89 -1.74868 5.24518 0
M  V30 9689 C 1271.16 -2.61333 4.54528 0
M  V30 9690 C 1269.85 -2.46162 3.95441 0
M  V30 9691 O 1269.12 -1.46013 3.94122 0
M  V30 9692 N 1269.42 -3.59334 3.34752 0
M  V30 9693 C 1270.17 -4.79605 3.3023 0
M  V30 9694 N 1269.57 -5.82109 2.6065 0
M  V30 9695 N 1271.32 -4.97402 3.8843 0
M  V30 9696 C 1271.78 -3.86258 4.50476 0
M  V30 9697 H 1273.95 -5.47679 4.85214 0
M  V30 9698 H 1275.13 -2.88964 5.86476 0
M  V30 9699 H 1276.62 -4.01947 7.36109 0
M  V30 9700 H 1274.92 -5.80182 8.37584 0
M  V30 9701 H 1274.73 -3.73517 9.52265 0
M  V30 9702 H 1273.1 -3.97163 8.80359 0
M  V30 9703 H 1268.52 -3.5825 2.90294 0
M  V30 9704 H 1273.73 -2.06161 6.30974 0
M  V30 9705 H 1268.66 -5.66979 2.15354 0
M  V30 9706 H 1270.04 -6.73686 2.54344 0
M  V30 9707 H 1275.74 -4.90891 4.01857 0
M  V30 9708 P 1277.6 -5.75688 6.64379 0
M  V30 9709 O 1279.02 -6.11915 7.01921 0
M  V30 9710 O 1277.24 -4.30744 6.56026 0
M  V30 9711 O 1277.27 -6.37042 5.19165 0
M  V30 9712 C 1277.11 -7.83662 5.1657 0
M  V30 9713 C 1277.65 -8.33398 3.83019 0
M  V30 9714 O 1276.6 -8.0998 3.00999 0
M  V30 9715 C 1278.87 -7.65514 3.2257 0
M  V30 9716 O 1279.61 -8.4329 2.32297 0
M  V30 9717 C 1278.2 -6.40075 2.62207 0
M  V30 9718 O 1279 -5.92338 1.5428 0
M  V30 9719 C 1276.87 -6.9454 2.18503 0
M  V30 9720 N 1275.82 -5.95905 2.39948 0
M  V30 9721 C 1275.99 -4.98383 3.32108 0
M  V30 9722 N 1274.96 -4.16798 3.41761 0
M  V30 9723 C 1274.08 -4.65287 2.47461 0
M  V30 9724 C 1272.81 -4.18946 2.07461 0
M  V30 9725 N 1272.25 -4.95327 1.09101 0
M  V30 9726 C 1272.85 -6.04369 0.519812 0
M  V30 9727 N 1274.03 -6.50694 0.855982 0
M  V30 9728 C 1274.6 -5.75818 1.84322 0
M  V30 9729 H 1278.08 -5.60502 3.36589 0
M  V30 9730 H 1279.56 -7.35707 4.02681 0
M  V30 9731 H 1277.87 -9.41302 3.90009 0
M  V30 9732 H 1277.68 -8.29056 5.99158 0
M  V30 9733 H 1276.05 -8.10073 5.25882 0
M  V30 9734 H 1276.89 -4.88564 3.92502 0
M  V30 9735 H 1278.69 -6.30224 0.72668 0
M  V30 9736 P 1280.55 -8.4349 2.47671 0
M  V30 9737 O 1281.97 -8.94167 2.5964 0
M  V30 9738 O 1280.19 -7.1704 3.19006 0
M  V30 9739 O 1280.22 -8.16596 0.923387 0
M  V30 9740 C 1280.06 -9.38437 0.108857 0
M  V30 9741 C 1280.6 -9.08175 -1.28353 0
M  V30 9742 O 1279.55 -8.44229 -1.84713 0
M  V30 9743 C 1281.82 -8.18386 -1.42505 0
M  V30 9744 O 1282.56 -8.3501 -2.60497 0
M  V30 9745 C 1281.15 -6.80225 -1.25468 0
M  V30 9746 O 1281.95 -5.81621 -1.91066 0
M  V30 9747 C 1279.82 -7.02416 -1.9168 0
M  V30 9748 H 1279.85 -6.6888 -2.96621 0
M  V30 9749 H 1281.03 -6.53617 -0.192223 0
M  V30 9750 H 1282.52 -8.36622 -0.589963 0
M  V30 9751 H 1280.82 -10.0291 -1.79807 0
M  V30 9752 H 1280.63 -10.2138 0.558219 0
M  V30 9753 H 1279 -9.6579 0.0444202 0
M  V30 9754 H 1281.64 -5.69556 -2.79637 0
M  V30 9755 P 1283.5 -8.4349 -2.47671 0
M  V30 9756 O 1284.92 -8.92593 -2.65 0
M  V30 9757 O 1283.14 -7.7568 -1.19296 0
M  V30 9758 O 1283.17 -7.36886 -3.63805 0
M  V30 9759 C 1283.01 -7.95349 -4.982 0
M  V30 9760 C 1283.55 -6.94612 -5.98974 0
M  V30 9761 O 1282.5 -6.10347 -6.11815 0
M  V30 9762 C 1284.77 -6.11426 -5.62335 0
M  V30 9763 O 1285.51 -5.6162 -6.70584 0
M  V30 9764 C 1284.1 -5.04409 -4.73308 0
M  V30 9765 O 1284.9 -3.85992 -4.75183 0
M  V30 9766 C 1282.77 -4.8728 -5.41006 0
M  V30 9767 H 1282.8 -4.02333 -6.11157 0
M  V30 9768 H 1283.98 -5.39466 -3.69543 0
M  V30 9769 H 1285.47 -6.71916 -5.01943 0
M  V30 9770 H 1283.77 -7.4649 -6.93477 0
M  V30 9771 H 1283.58 -8.89416 -5.05237 0
M  V30 9772 H 1281.95 -8.14876 -5.18409 0
M  V30 9773 H 1284.59 -3.27957 -5.4317 0
M  V30 9774 P 1286.45 -5.75688 -6.64379 0
M  V30 9775 O 1287.87 -6.07627 -7.05504 0
M  V30 9776 O 1286.09 -5.88047 -5.19722 0
M  V30 9777 O 1286.13 -4.2322 -7.04443 0
M  V30 9778 C 1285.97 -3.99743 -8.4911 0
M  V30 9779 C 1286.51 -2.60516 -8.79425 0
M  V30 9780 O 1285.45 -1.82684 -8.4467 0
M  V30 9781 C 1287.72 -2.10343 -8.03628 0
M  V30 9782 O 1288.46 -1.09919 -8.67766 0
M  V30 9783 C 1287.05 -1.68446 -6.70876 0
M  V30 9784 O 1287.85 -0.678137 -6.08433 0
M  V30 9785 C 1285.72 -1.17436 -7.18567 0
M  V30 9786 H 1285.75 -0.0804732 -7.31656 0
M  V30 9787 H 1286.93 -2.54037 -6.02537 0
M  V30 9788 H 1288.42 -2.93881 -7.85526 0
M  V30 9789 H 1286.72 -2.53065 -9.86973 0
M  V30 9790 H 1286.53 -4.75072 -9.05887 0
M  V30 9791 H 1284.9 -4.05244 -8.76668 0
M  V30 9792 H 1287.54 0.177647 -6.34251 0
M  V30 9793 P 1289.4 -1.25109 -8.70152 0
M  V30 9794 O 1290.82 -1.29744 -9.22016 0
M  V30 9795 O 1289.04 -2.13714 -7.55141 0
M  V30 9796 O 1289.08 0.248149 -8.21425 0
M  V30 9797 C 1288.92 1.22779 -9.30434 0
M  V30 9798 C 1289.46 2.56293 -8.80664 0
M  V30 9799 O 1288.4 3.02979 -8.09349 0
M  V30 9800 C 1290.67 2.57523 -7.89775 0
M  V30 9801 O 1291.41 3.7668 -7.89438 0
M  V30 9802 C 1290.01 2.20997 -6.55446 0
M  V30 9803 O 1290.8 2.71895 -5.48509 0
M  V30 9804 C 1288.67 2.89693 -6.67988 0
M  V30 9805 H 1288.7 3.88793 -6.19859 0
M  V30 9806 H 1289.88 1.12046 -6.44229 0
M  V30 9807 H 1291.37 1.7746 -8.19711 0
M  V30 9808 H 1289.67 3.20706 -9.67112 0
M  V30 9809 H 1289.48 0.901032 -10.1892 0
M  V30 9810 H 1287.85 1.33049 -9.56592 0
M  V30 9811 H 1290.49 3.57847 -5.23962 0
M  V30 9812 P 1292.35 3.65191 -7.99657 0
M  V30 9813 O 1293.77 3.89332 -8.45794 0
M  V30 9814 O 1291.99 2.28472 -7.50807 0
M  V30 9815 O 1292.03 4.64972 -6.77611 0
M  V30 9816 C 1291.87 6.06319 -7.16352 0
M  V30 9817 C 1292.41 6.91731 -6.02299 0
M  V30 9818 O 1291.35 6.92449 -5.17064 0
M  V30 9819 C 1293.62 6.43627 -5.25174 0
M  V30 9820 O 1294.36 7.43686 -4.60469 0
M  V30 9821 C 1292.96 5.40275 -4.31916 0
M  V30 9822 O 1293.75 5.25279 -3.14438 0
M  V30 9823 C 1291.62 6.04847 -4.05327 0
M  V30 9824 H 1291.65 6.62195 -3.11261 0
M  V30 9825 H 1292.83 4.42556 -4.81383 0
M  V30 9826 H 1294.32 5.92458 -5.93643 0
M  V30 9827 H 1292.62 7.92655 -6.402 0
M  V30 9828 H 1292.43 6.26671 -8.0846 0
M  V30 9829 H 1290.8 6.29101 -7.32804 0
M  V30 9830 H 1293.44 5.84315 -2.47318 0
M  V30 9831 P 1295.3 7.39546 -4.75277 0
M  V30 9832 O 1296.72 7.84798 -5.01039 0
M  V30 9833 O 1294.94 5.9812 -5.08098 0
M  V30 9834 O 1294.98 7.57503 -3.1866 0
M  V30 9835 C 1294.82 8.97357 -2.74833 0
M  V30 9836 C 1295.36 9.07548 -1.32709 0
M  V30 9837 O 1294.3 8.62072 -0.606159 0
M  V30 9838 C 1296.58 8.25383 -0.938334 0
M  V30 9839 O 1297.31 8.74577 0.146954 0
M  V30 9840 C 1295.91 6.8802 -0.712559 0
M  V30 9841 O 1296.71 6.1189 0.194655 0
M  V30 9842 C 1294.57 7.27966 -0.139777 0
M  V30 9843 H 1294.6 7.25354 0.961601 0
M  V30 9844 H 1295.78 6.32557 -1.65702 0
M  V30 9845 H 1297.27 8.19355 -1.79097 0
M  V30 9846 H 1295.57 10.1294 -1.10029 0
M  V30 9847 H 1295.38 9.64276 -3.41316 0
M  V30 9848 H 1293.75 9.25417 -2.76357 0
M  V30 9849 H 1296.39 6.25267 1.07847 0
M  V30 9850 P 1298.25 8.791 1.06576e-11 0
M  V30 9851 O 1299.67 9.31196 0.027936 0
M  V30 9852 O 1297.89 7.77869 -1.04071 0
M  V30 9853 O 1297.93 8.09533 1.41463 0
M  V30 9854 C 1297.77 9.03587 2.5397 0
M  V30 9855 C 1298.31 8.35226 3.79016 0
M  V30 9856 O 1297.25 7.57904 4.1503 0
M  V30 9857 C 1299.53 7.45087 3.67298 0
M  V30 9858 O 1300.26 7.27796 4.85194 0
M  V30 9859 C 1298.86 6.17323 3.12027 0
M  V30 9860 O 1299.66 5.04496 3.46627 0
M  V30 9861 C 1297.52 6.19961 3.81809 0
M  V30 9862 N 1296.48 5.71575 2.93223 0
M  V30 9863 C 1296.65 5.77362 1.59168 0
M  V30 9864 N 1295.62 5.3123 0.911893 0
M  V30 9865 C 1294.73 4.91717 1.89588 0
M  V30 9866 C 1293.47 4.3114 1.8076 0
M  V30 9867 N 1292.9 4.06823 3.02898 0
M  V30 9868 C 1293.5 4.35062 4.22711 0
M  V30 9869 N 1294.68 4.90805 4.35707 0
M  V30 9870 C 1295.26 5.16382 3.14469 0
M  V30 9871 H 1298.73 6.21428 2.0318 0
M  V30 9872 H 1300.22 7.86112 2.9231 0
M  V30 9873 H 1298.52 9.11171 4.55987 0
M  V30 9874 H 1298.33 9.9573 2.34194 0
M  V30 9875 H 1296.7 9.2792 2.67832 0
M  V30 9876 H 1297.55 6.16575 1.12198 0
M  V30 9877 H 1299.34 4.67628 4.28704 0
M  V30 9878 P 1301.2 7.39546 4.75277 0
M  V30 9879 O 1302.62 7.81777 5.05738 0
M  V30 9880 O 1300.84 7.1065 3.32998 0
M  V30 9881 O 1300.88 6.04542 5.56673 0
M  V30 9882 C 1300.72 6.22772 7.02095 0
M  V30 9883 C 1301.26 4.97725 7.70406 0
M  V30 9884 O 1300.2 4.13256 7.58987 0
M  V30 9885 C 1302.48 4.28231 7.11815 0
M  V30 9886 O 1303.21 3.49945 8.01648 0
M  V30 9887 C 1301.81 3.5063 5.96244 0
M  V30 9888 O 1302.61 2.36482 5.64681 0
M  V30 9889 C 1300.47 3.15122 6.56374 0
M  V30 9890 H 1300.5 2.13853 6.99751 0
M  V30 9891 H 1301.69 4.13501 5.06559 0
M  V30 9892 H 1303.17 5.03285 6.70911 0
M  V30 9893 H 1301.48 5.20877 8.75697 0
M  V30 9894 H 1301.29 7.11046 7.35349 0
M  V30 9895 H 1299.66 6.35815 7.26986 0
M  V30 9896 H 1302.29 1.61644 6.13565 0
M  V30 9897 P 1304.15 3.65191 7.99657 0
M  V30 9898 O 1305.57 3.8425 8.48115 0
M  V30 9899 O 1303.79 4.17805 6.64342 0
M  V30 9900 O 1303.83 2.07613 7.95143 0
M  V30 9901 C 1303.67 1.44328 9.27336 0
M  V30 9902 C 1304.21 0.0220036 9.17197 0
M  V30 9903 O 1303.15 -0.626867 8.61923 0
M  V30 9904 C 1305.43 -0.24586 8.30336 0
M  V30 9905 O 1306.16 -1.39011 8.63583 0
M  V30 9906 C 1304.76 -0.273849 6.91158 0
M  V30 9907 O 1305.56 -1.06348 6.02892 0
M  V30 9908 C 1303.42 -0.897649 7.22545 0
M  V30 9909 H 1303.45 -1.9841 7.04286 0
M  V30 9910 H 1304.64 0.739928 6.497 0
M  V30 9911 H 1306.12 0.60668 8.36503 0
M  V30 9912 H 1304.43 -0.352479 10.1829 0
M  V30 9913 H 1304.24 2.00611 10.0304 0
M  V30 9914 H 1302.61 1.41843 9.55327 0
M  V30 9915 H 1305.24 -1.95734 6.03555 0
M  V30 9916 P 1307.1 -1.25109 8.70152 0
M  V30 9917 O 1308.52 -1.35274 9.21221 0
M  V30 9918 O 1306.74 -0.0769065 7.84762 0
M  V30 9919 O 1306.78 -2.55232 7.81161 0
M  V30 9920 C 1306.62 -3.79939 8.58154 0
M  V30 9921 C 1307.16 -4.94023 7.72785 0
M  V30 9922 O 1306.1 -5.18726 6.91205 0
M  V30 9923 C 1308.38 -4.69597 6.85231 0
M  V30 9924 O 1309.12 -5.83832 6.51337 0
M  V30 9925 C 1307.71 -3.96706 5.66633 0
M  V30 9926 O 1308.51 -4.15414 4.49689 0
M  V30 9927 C 1306.37 -4.66153 5.59313 0
M  V30 9928 H 1306.4 -5.47679 4.85214 0
M  V30 9929 H 1307.59 -2.89008 5.86566 0
M  V30 9930 H 1309.07 -4.0121 7.36511 0
M  V30 9931 H 1307.38 -5.80182 8.37584 0
M  V30 9932 H 1307.19 -3.73517 9.52265 0
M  V30 9933 H 1305.56 -3.97163 8.80359 0
M  V30 9934 H 1308.2 -4.90969 4.01921 0
M  V30 9935 P 1310.05 -5.75688 6.64379 0
M  V30 9936 O 1311.47 -6.11915 7.01921 0
M  V30 9937 O 1309.69 -4.30744 6.56026 0
M  V30 9938 O 1309.73 -6.37042 5.19165 0
M  V30 9939 C 1309.57 -7.83662 5.1657 0
M  V30 9940 C 1310.11 -8.33398 3.83019 0
M  V30 9941 O 1309.06 -8.0998 3.00999 0
M  V30 9942 C 1311.33 -7.65514 3.2257 0
M  V30 9943 O 1312.07 -8.4329 2.32297 0
M  V30 9944 C 1310.66 -6.40075 2.62207 0
M  V30 9945 O 1311.46 -5.92338 1.5428 0
M  V30 9946 C 1309.32 -6.9454 2.18503 0
M  V30 9947 N 1308.28 -5.95905 2.39948 0
M  V30 9948 C 1308.45 -4.98383 3.32108 0
M  V30 9949 N 1307.42 -4.16798 3.41761 0
M  V30 9950 C 1306.54 -4.65287 2.47461 0
M  V30 9951 C 1305.27 -4.18946 2.07461 0
M  V30 9952 N 1304.7 -4.95327 1.09101 0
M  V30 9953 C 1305.31 -6.04369 0.519812 0
M  V30 9954 N 1306.48 -6.50694 0.855982 0
M  V30 9955 C 1307.06 -5.75818 1.84322 0
M  V30 9956 H 1310.54 -5.60502 3.36589 0
M  V30 9957 H 1312.02 -7.35707 4.02681 0
M  V30 9958 H 1310.33 -9.41302 3.90009 0
M  V30 9959 H 1310.14 -8.29056 5.99158 0
M  V30 9960 H 1308.51 -8.10073 5.25882 0
M  V30 9961 H 1309.35 -4.88564 3.92502 0
M  V30 9962 H 1311.15 -6.30224 0.72668 0
M  V30 9963 P 1313 -8.4349 2.47671 0
M  V30 9964 O 1314.43 -8.94167 2.5964 0
M  V30 9965 O 1312.64 -7.1704 3.19006 0
M  V30 9966 O 1312.68 -8.16596 0.923387 0
M  V30 9967 C 1312.52 -9.38437 0.108857 0
M  V30 9968 C 1313.06 -9.08175 -1.28353 0
M  V30 9969 O 1312 -8.44229 -1.84713 0
M  V30 9970 C 1314.28 -8.18386 -1.42505 0
M  V30 9971 O 1315.02 -8.3501 -2.60497 0
M  V30 9972 C 1313.61 -6.80225 -1.25468 0
M  V30 9973 O 1314.41 -5.81621 -1.91066 0
M  V30 9974 C 1312.27 -7.02416 -1.9168 0
M  V30 9975 H 1312.3 -6.6888 -2.96621 0
M  V30 9976 H 1313.49 -6.53617 -0.192223 0
M  V30 9977 H 1314.97 -8.36622 -0.589963 0
M  V30 9978 H 1313.28 -10.0291 -1.79807 0
M  V30 9979 H 1313.09 -10.2138 0.558219 0
M  V30 9980 H 1311.46 -9.6579 0.0444202 0
M  V30 9981 H 1314.1 -5.69556 -2.79637 0
M  V30 9982 P 1315.95 -8.4349 -2.47671 0
M  V30 9983 O 1317.38 -8.92593 -2.65 0
M  V30 9984 O 1315.59 -7.7568 -1.19296 0
M  V30 9985 O 1315.63 -7.36886 -3.63805 0
M  V30 9986 C 1315.47 -7.95349 -4.982 0
M  V30 9987 C 1316.01 -6.94612 -5.98974 0
M  V30 9988 O 1314.96 -6.10347 -6.11815 0
M  V30 9989 C 1317.23 -6.11426 -5.62335 0
M  V30 9990 O 1317.97 -5.6162 -6.70584 0
M  V30 9991 C 1316.56 -5.04409 -4.73308 0
M  V30 9992 O 1317.36 -3.85992 -4.75183 0
M  V30 9993 C 1315.22 -4.8728 -5.41006 0
M  V30 9994 H 1315.26 -4.02333 -6.11157 0
M  V30 9995 H 1316.44 -5.39466 -3.69543 0
M  V30 9996 H 1317.92 -6.71916 -5.01943 0
M  V30 9997 H 1316.23 -7.4649 -6.93477 0
M  V30 9998 H 1316.04 -8.89416 -5.05237 0
M  V30 9999 H 1314.41 -8.14876 -5.18409 0
M  V30 10000 H 1317.05 -3.27957 -5.4317 0
M  V30 10001 P 1318.9 -5.75688 -6.64379 0
M  V30 10002 O 1320.33 -6.07627 -7.05504 0
M  V30 10003 O 1318.54 -5.88047 -5.19722 0
M  V30 10004 O 1318.58 -4.2322 -7.04443 0
M  V30 10005 C 1318.42 -3.99743 -8.4911 0
M  V30 10006 C 1318.96 -2.60516 -8.79425 0
M  V30 10007 O 1317.91 -1.82684 -8.4467 0
M  V30 10008 C 1320.18 -2.10343 -8.03628 0
M  V30 10009 O 1320.92 -1.09919 -8.67766 0
M  V30 10010 C 1319.51 -1.68446 -6.70876 0
M  V30 10011 O 1320.31 -0.678137 -6.08433 0
M  V30 10012 C 1318.17 -1.17436 -7.18567 0
M  V30 10013 H 1318.21 -0.0804732 -7.31656 0
M  V30 10014 H 1319.39 -2.54037 -6.02537 0
M  V30 10015 H 1320.87 -2.93881 -7.85526 0
M  V30 10016 H 1319.18 -2.53065 -9.86973 0
M  V30 10017 H 1318.99 -4.75072 -9.05887 0
M  V30 10018 H 1317.36 -4.05244 -8.76668 0
M  V30 10019 H 1320 0.177647 -6.34251 0
M  V30 10020 P 1321.86 -1.25109 -8.70152 0
M  V30 10021 O 1323.28 -1.29744 -9.22016 0
M  V30 10022 O 1321.5 -2.13714 -7.55141 0
M  V30 10023 O 1321.53 0.248149 -8.21425 0
M  V30 10024 C 1321.37 1.22779 -9.30434 0
M  V30 10025 C 1321.91 2.56293 -8.80664 0
M  V30 10026 O 1320.86 3.02979 -8.09349 0
M  V30 10027 C 1323.13 2.57523 -7.89775 0
M  V30 10028 O 1323.87 3.7668 -7.89438 0
M  V30 10029 C 1322.46 2.20997 -6.55446 0
M  V30 10030 O 1323.26 2.71895 -5.48509 0
M  V30 10031 C 1321.12 2.89693 -6.67988 0
M  V30 10032 H 1321.16 3.88793 -6.19859 0
M  V30 10033 H 1322.34 1.12046 -6.44229 0
M  V30 10034 H 1323.82 1.7746 -8.19711 0
M  V30 10035 H 1322.13 3.20706 -9.67112 0
M  V30 10036 H 1321.94 0.901032 -10.1892 0
M  V30 10037 H 1320.31 1.33049 -9.56592 0
M  V30 10038 H 1322.95 3.57847 -5.23962 0
M  V30 10039 P 1324.81 3.65191 -7.99657 0
M  V30 10040 O 1326.21 3.87414 -8.52829 0
M  V30 10041 O 1324.43 2.26932 -7.566 0
M  V30 10042 O 1324.48 4.64915 -6.77529 0
M  V30 10043 C 1324.32 6.06319 -7.16352 0
M  V30 10044 C 1324.86 6.91655 -6.02234 0
M  V30 10045 O 1323.81 6.92369 -5.17005 0
M  V30 10046 C 1326.08 6.43627 -5.25174 0
M  V30 10047 O 1326.82 7.43686 -4.60469 0
M  V30 10048 C 1325.41 5.40275 -4.31916 0
M  V30 10049 O 1326.21 5.25193 -3.14386 0
M  V30 10050 C 1324.07 6.04847 -4.05327 0
M  V30 10051 N 1323.03 5.04166 -3.98114 0
M  V30 10052 C 1322 5.2366 -3.09923 0
M  V30 10053 O 1322.04 6.23355 -2.34204 0
M  V30 10054 N 1320.98 4.34279 -3.05727 0
M  V30 10055 C 1321.03 3.26317 -3.84756 0
M  V30 10056 C 1322.13 3.02504 -4.72573 0
M  V30 10057 C 1323.09 3.94493 -4.76618 0
M  V30 10058 H 1324.11 6.62104 -3.11218 0
M  V30 10059 H 1325.29 4.42969 -4.80867 0
M  V30 10060 H 1326.77 5.93122 -5.93121 0
M  V30 10061 H 1325.08 7.93295 -6.39407 0
M  V30 10062 H 1324.89 6.26671 -8.0846 0
M  V30 10063 H 1323.26 6.29036 -7.32728 0
M  V30 10064 H 1322.18 2.12921 -5.34017 0
M  V30 10065 H 1323.94 3.80658 -5.44176 0
M  V30 10066 H 1325.99 5.93572 -2.52637 0
M  V30 10067 P 1327.76 7.39546 -4.75277 0
M  V30 10068 O 1329.18 7.84798 -5.01039 0
M  V30 10069 O 1327.4 5.9812 -5.08098 0
M  V30 10070 O 1327.43 7.57503 -3.1866 0
M  V30 10071 C 1327.27 8.97357 -2.74833 0
M  V30 10072 C 1327.81 9.07548 -1.32709 0
M  V30 10073 O 1326.76 8.62072 -0.606159 0
M  V30 10074 C 1329.03 8.25383 -0.938334 0
M  V30 10075 O 1329.77 8.74577 0.146954 0
M  V30 10076 C 1328.36 6.8802 -0.712559 0
M  V30 10077 O 1329.16 6.1189 0.194655 0
M  V30 10078 C 1327.03 7.27966 -0.139777 0
M  V30 10079 H 1327.06 7.25354 0.961601 0
M  V30 10080 H 1328.24 6.32557 -1.65702 0
M  V30 10081 H 1329.72 8.19355 -1.79097 0
M  V30 10082 H 1328.03 10.1294 -1.10029 0
M  V30 10083 H 1327.84 9.64276 -3.41316 0
M  V30 10084 H 1326.21 9.25417 -2.76357 0
M  V30 10085 H 1328.85 6.25267 1.07847 0
M  V30 10086 P 1330.71 8.791 1.0718e-11 0
M  V30 10087 O 1332.13 9.31096 0.027933 0
M  V30 10088 O 1330.35 7.77869 -1.04071 0
M  V30 10089 O 1330.38 8.09533 1.41463 0
M  V30 10090 C 1330.22 9.0349 2.53943 0
M  V30 10091 C 1330.76 8.35226 3.79016 0
M  V30 10092 O 1329.71 7.57992 4.15078 0
M  V30 10093 C 1331.98 7.45087 3.67298 0
M  V30 10094 O 1332.72 7.27796 4.85194 0
M  V30 10095 C 1331.31 6.17323 3.12027 0
M  V30 10096 O 1332.11 5.04231 3.47188 0
M  V30 10097 C 1329.98 6.19961 3.81809 0
M  V30 10098 H 1330.01 5.58218 4.73051 0
M  V30 10099 H 1331.19 6.21726 2.02589 0
M  V30 10100 H 1332.68 7.86112 2.9231 0
M  V30 10101 H 1330.98 9.11627 4.55076 0
M  V30 10102 H 1330.79 9.9573 2.34194 0
M  V30 10103 H 1329.16 9.2792 2.67832 0
M  V30 10104 H 1331.8 4.67702 4.28772 0
M  V30 10105 P 1333.66 7.39546 4.75277 0
M  V30 10106 O 1335.08 7.81777 5.05738 0
M  V30 10107 O 1333.3 7.1065 3.32998 0
M  V30 10108 O 1333.33 6.04542 5.56673 0
M  V30 10109 C 1333.17 6.22772 7.02095 0
M  V30 10110 C 1333.71 4.97725 7.70406 0
M  V30 10111 O 1332.66 4.13256 7.58987 0
M  V30 10112 C 1334.93 4.28231 7.11815 0
M  V30 10113 O 1335.67 3.49945 8.01648 0
M  V30 10114 C 1334.26 3.5063 5.96244 0
M  V30 10115 O 1335.06 2.36482 5.64681 0
M  V30 10116 C 1332.93 3.15122 6.56374 0
M  V30 10117 H 1332.96 2.13853 6.99751 0
M  V30 10118 H 1334.14 4.13501 5.06559 0
M  V30 10119 H 1335.63 5.03285 6.70911 0
M  V30 10120 H 1333.93 5.20877 8.75697 0
M  V30 10121 H 1333.74 7.11046 7.35349 0
M  V30 10122 H 1332.11 6.35815 7.26986 0
M  V30 10123 H 1334.75 1.61644 6.13565 0
M  V30 10124 P 1336.61 3.65191 7.99657 0
M  V30 10125 O 1338.03 3.84292 8.48206 0
M  V30 10126 O 1336.25 4.17805 6.64342 0
M  V30 10127 O 1336.29 2.07613 7.95143 0
M  V30 10128 C 1336.12 1.44344 9.27435 0
M  V30 10129 C 1336.67 0.0220036 9.17197 0
M  V30 10130 O 1335.61 -0.626794 8.61824 0
M  V30 10131 C 1337.88 -0.24586 8.30336 0
M  V30 10132 O 1338.62 -1.39011 8.63583 0
M  V30 10133 C 1337.22 -0.273849 6.91158 0
M  V30 10134 O 1338.01 -1.05728 6.029 0
M  V30 10135 C 1335.88 -0.897649 7.22545 0
M  V30 10136 N 1334.83 -0.292839 6.41732 0
M  V30 10137 C 1335 0.950603 5.91308 0
M  V30 10138 N 1333.98 1.37732 5.21105 0
M  V30 10139 C 1333.09 0.318109 5.26039 0
M  V30 10140 C 1331.82 0.146766 4.6727 0
M  V30 10141 N 1331.23 1.08519 3.89983 0
M  V30 10142 N 1331.26 -1.06525 4.95887 0
M  V30 10143 C 1331.86 -2.0378 5.71347 0
M  V30 10144 N 1333.04 -1.92445 6.27451 0
M  V30 10145 C 1333.61 -0.715382 6.00353 0
M  V30 10146 H 1335.91 -1.98383 7.04189 0
M  V30 10147 H 1337.09 0.733318 6.49674 0
M  V30 10148 H 1338.58 0.60668 8.36503 0
M  V30 10149 H 1336.88 -0.362662 10.1825 0
M  V30 10150 H 1336.69 2.00611 10.0304 0
M  V30 10151 H 1335.06 1.41843 9.55327 0
M  V30 10152 H 1331.33 -2.97041 5.85344 0
M  V30 10153 H 1335.9 1.54076 6.07465 0
M  V30 10154 H 1330.3 0.901517 3.49562 0
M  V30 10155 H 1331.7 1.97957 3.71669 0
M  V30 10156 H 1337.7 -1.95704 6.0346 0
M  V30 10157 P 1339.56 -1.25109 8.70152 0
M  V30 10158 O 1340.98 -1.35288 9.2132 0
M  V30 10159 O 1339.2 -0.0769065 7.84762 0
M  V30 10160 O 1339.24 -2.55232 7.81161 0
M  V30 10161 C 1339.07 -3.79979 8.58246 0
M  V30 10162 C 1339.62 -4.94023 7.72785 0
M  V30 10163 O 1338.56 -5.18666 6.91125 0
M  V30 10164 C 1340.83 -4.69597 6.85231 0
M  V30 10165 O 1341.57 -5.83832 6.51337 0
M  V30 10166 C 1340.17 -3.96706 5.66633 0
M  V30 10167 O 1340.96 -4.14896 4.5003 0
M  V30 10168 C 1338.83 -4.66153 5.59313 0
M  V30 10169 N 1337.78 -3.71582 5.24027 0
M  V30 10170 C 1337.95 -2.39715 5.48833 0
M  V30 10171 N 1336.93 -1.65863 5.12845 0
M  V30 10172 C 1336.04 -2.57637 4.5973 0
M  V30 10173 C 1334.77 -2.40278 4.01027 0
M  V30 10174 N 1334.21 -3.57711 3.59575 0
M  V30 10175 C 1334.81 -4.80324 3.70476 0
M  V30 10176 N 1335.99 -5.01121 4.23801 0
M  V30 10177 C 1336.56 -3.84757 4.66372 0
M  V30 10178 H 1340.04 -2.8955 5.86187 0
M  V30 10179 H 1341.53 -4.0121 7.36511 0
M  V30 10180 H 1339.83 -5.81019 8.37003 0
M  V30 10181 H 1339.64 -3.73517 9.52265 0
M  V30 10182 H 1338.01 -3.97163 8.80359 0
M  V30 10183 H 1338.85 -1.98804 5.94332 0
M  V30 10184 H 1340.65 -4.90891 4.01857 0
M  V30 10185 P 1342.51 -5.75688 6.64379 0
M  V30 10186 O 1343.93 -6.11849 7.01846 0
M  V30 10187 O 1342.15 -4.30744 6.56026 0
M  V30 10188 O 1342.19 -6.37042 5.19165 0
M  V30 10189 C 1342.03 -7.83578 5.16515 0
M  V30 10190 C 1342.57 -8.33398 3.83019 0
M  V30 10191 O 1341.51 -8.10074 3.01034 0
M  V30 10192 C 1343.78 -7.65514 3.2257 0
M  V30 10193 O 1344.52 -8.4329 2.32297 0
M  V30 10194 C 1343.12 -6.40075 2.62207 0
M  V30 10195 O 1343.91 -5.92589 1.53712 0
M  V30 10196 C 1341.78 -6.9454 2.18503 0
M  V30 10197 H 1341.81 -7.23063 1.12091 0
M  V30 10198 H 1342.99 -5.6025 3.37201 0
M  V30 10199 H 1344.48 -7.35707 4.02681 0
M  V30 10200 H 1342.78 -9.40912 3.9095 0
M  V30 10201 H 1342.59 -8.29056 5.99158 0
M  V30 10202 H 1340.96 -8.10073 5.25882 0
M  V30 10203 H 1343.6 -6.30324 0.726794 0
M  V30 10204 P 1345.46 -8.4349 2.47671 0
M  V30 10205 O 1346.88 -8.94359 2.59696 0
M  V30 10206 O 1345.1 -7.1704 3.19006 0
M  V30 10207 O 1345.14 -8.16596 0.923387 0
M  V30 10208 C 1344.98 -9.38437 0.108857 0
M  V30 10209 C 1345.52 -9.08076 -1.28339 0
M  V30 10210 O 1344.46 -8.44229 -1.84713 0
M  V30 10211 C 1346.73 -8.18386 -1.42505 0
M  V30 10212 O 1347.47 -8.3501 -2.60497 0
M  V30 10213 C 1346.07 -6.80225 -1.25468 0
M  V30 10214 O 1346.86 -5.81526 -1.91035 0
M  V30 10215 C 1344.73 -7.02416 -1.9168 0
M  V30 10216 N 1343.69 -6.31033 -1.20314 0
M  V30 10217 C 1343.75 -6.18781 0.121293 0
M  V30 10218 N 1342.7 -5.49762 0.588272 0
M  V30 10219 C 1341.97 -5.22015 -0.488988 0
M  V30 10220 C 1340.66 -4.61966 -0.596448 0
M  V30 10221 O 1339.93 -4.19162 0.309059 0
M  V30 10222 N 1340.23 -4.53773 -1.878 0
M  V30 10223 C 1340.98 -4.99623 -2.99082 0
M  V30 10224 N 1340.38 -4.78912 -4.21227 0
M  V30 10225 N 1342.13 -5.59957 -2.91093 0
M  V30 10226 C 1342.59 -5.70225 -1.64218 0
M  V30 10227 H 1344.76 -6.6888 -2.96621 0
M  V30 10228 H 1345.94 -6.53517 -0.192194 0
M  V30 10229 H 1347.43 -8.36563 -0.598329 0
M  V30 10230 H 1345.73 -10.0291 -1.79807 0
M  V30 10231 H 1345.54 -10.2138 0.558219 0
M  V30 10232 H 1343.91 -9.6579 0.0444202 0
M  V30 10233 H 1339.34 -4.12883 -2.05283 0
M  V30 10234 H 1344.54 -6.59596 0.745856 0
M  V30 10235 H 1339.47 -4.31425 -4.2628 0
M  V30 10236 H 1340.85 -5.11219 -5.07148 0
M  V30 10237 H 1346.55 -5.69466 -2.79593 0
M  V30 10238 P 1348.41 -8.4349 -2.47671 0
M  V30 10239 O 1349.83 -8.92689 -2.65029 0
M  V30 10240 O 1348.05 -7.7568 -1.19296 0
M  V30 10241 O 1348.09 -7.36886 -3.63805 0
M  V30 10242 C 1347.93 -7.95433 -4.98253 0
M  V30 10243 C 1348.47 -6.94612 -5.98974 0
M  V30 10244 O 1347.41 -6.10277 -6.11744 0
M  V30 10245 C 1349.69 -6.11426 -5.62335 0
M  V30 10246 O 1350.42 -5.6162 -6.70584 0
M  V30 10247 C 1349.02 -5.04409 -4.73308 0
M  V30 10248 O 1349.82 -3.86404 -4.74719 0
M  V30 10249 C 1347.68 -4.8728 -5.41006 0
M  V30 10250 N 1346.64 -4.65812 -4.42377 0
M  V30 10251 C 1346.81 -5.09132 -3.15382 0
M  V30 10252 N 1345.78 -4.84021 -2.3716 0
M  V30 10253 C 1344.89 -4.18386 -3.20441 0
M  V30 10254 C 1343.63 -3.6275 -2.94905 0
M  V30 10255 N 1343.03 -3.65794 -1.73372 0
M  V30 10256 N 1343.06 -3.05008 -4.05243 0
M  V30 10257 C 1343.66 -2.98348 -5.28159 0
M  V30 10258 N 1344.84 -3.48171 -5.56333 0
M  V30 10259 C 1345.42 -4.06869 -4.47212 0
M  V30 10260 H 1347.71 -4.02278 -6.11074 0
M  V30 10261 H 1348.89 -5.39013 -3.70026 0
M  V30 10262 H 1350.38 -6.71916 -5.01943 0
M  V30 10263 H 1348.68 -7.45796 -6.94223 0
M  V30 10264 H 1348.49 -8.89416 -5.05237 0
M  V30 10265 H 1346.86 -8.14876 -5.18409 0
M  V30 10266 H 1343.13 -2.47853 -6.07807 0
M  V30 10267 H 1347.71 -5.59989 -2.81362 0
M  V30 10268 H 1342.1 -3.23218 -1.60782 0
M  V30 10269 H 1343.5 -4.10523 -0.937856 0
M  V30 10270 H 1349.5 -3.27906 -5.43085 0
M  V30 10271 P 1351.36 -5.75688 -6.64379 0
M  V30 10272 O 1352.78 -6.07627 -7.05504 0
M  V30 10273 O 1351 -5.88047 -5.19722 0
M  V30 10274 O 1351.04 -4.2322 -7.04443 0
M  V30 10275 C 1350.88 -3.99743 -8.4911 0
M  V30 10276 C 1351.42 -2.60516 -8.79425 0
M  V30 10277 O 1350.36 -1.82684 -8.4467 0
M  V30 10278 C 1352.64 -2.10343 -8.03628 0
M  V30 10279 O 1353.37 -1.09919 -8.67766 0
M  V30 10280 C 1351.97 -1.68446 -6.70876 0
M  V30 10281 O 1352.77 -0.678137 -6.08433 0
M  V30 10282 C 1350.63 -1.17436 -7.18567 0
M  V30 10283 H 1350.66 -0.0804732 -7.31656 0
M  V30 10284 H 1351.85 -2.54037 -6.02537 0
M  V30 10285 H 1353.33 -2.93881 -7.85526 0
M  V30 10286 H 1351.64 -2.53065 -9.86973 0
M  V30 10287 H 1351.45 -4.75072 -9.05887 0
M  V30 10288 H 1349.82 -4.05244 -8.76668 0
M  V30 10289 H 1352.45 0.177647 -6.34251 0
M  V30 10290 P 1354.31 -1.25109 -8.70152 0
M  V30 10291 O 1355.73 -1.29758 -9.22115 0
M  V30 10292 O 1353.95 -2.13714 -7.55141 0
M  V30 10293 O 1353.99 0.248149 -8.21425 0
M  V30 10294 C 1353.83 1.22792 -9.30533 0
M  V30 10295 C 1354.37 2.56293 -8.80664 0
M  V30 10296 O 1353.31 3.02944 -8.09255 0
M  V30 10297 C 1355.59 2.57523 -7.89775 0
M  V30 10298 O 1356.32 3.7668 -7.89438 0
M  V30 10299 C 1354.92 2.20997 -6.55446 0
M  V30 10300 O 1355.72 2.71302 -5.48691 0
M  V30 10301 C 1353.58 2.89693 -6.67988 0
M  V30 10302 N 1352.54 2.08895 -6.07487 0
M  V30 10303 C 1352.71 0.753809 -5.94137 0
M  V30 10304 N 1351.68 0.146592 -5.38801 0
M  V30 10305 C 1350.79 1.1768 -5.13693 0
M  V30 10306 C 1349.53 1.17563 -4.52477 0
M  V30 10307 N 1348.93 0.057481 -4.04759 0
M  V30 10308 N 1348.96 2.41918 -4.45789 0
M  V30 10309 C 1349.56 3.56493 -4.90792 0
M  V30 10310 N 1350.74 3.61423 -5.47817 0
M  V30 10311 C 1351.32 2.37779 -5.5588 0
M  V30 10312 H 1353.61 3.8874 -6.19774 0
M  V30 10313 H 1354.8 1.12673 -6.44018 0
M  V30 10314 H 1356.28 1.7746 -8.19711 0
M  V30 10315 H 1354.58 3.21673 -9.66791 0
M  V30 10316 H 1354.39 0.901032 -10.1892 0
M  V30 10317 H 1352.76 1.33049 -9.56592 0
M  V30 10318 H 1349.03 4.49919 -4.77947 0
M  V30 10319 H 1353.61 0.233081 -6.26266 0
M  V30 10320 H 1348 0.119831 -3.60801 0
M  V30 10321 H 1349.4 -0.852272 -4.12385 0
M  V30 10322 H 1355.4 3.5779 -5.23879 0
M  V30 10323 P 1357.26 3.65191 -7.99657 0
M  V30 10324 O 1358.68 3.89332 -8.45794 0
M  V30 10325 O 1356.9 2.28472 -7.50807 0
M  V30 10326 O 1356.94 4.64972 -6.77611 0
M  V30 10327 C 1356.78 6.06319 -7.16352 0
M  V30 10328 C 1357.32 6.91731 -6.02299 0
M  V30 10329 O 1356.26 6.92449 -5.17064 0
M  V30 10330 C 1358.54 6.43627 -5.25174 0
M  V30 10331 O 1359.28 7.43686 -4.60469 0
M  V30 10332 C 1357.87 5.40275 -4.31916 0
M  V30 10333 O 1358.67 5.25279 -3.14438 0
M  V30 10334 C 1356.53 6.04847 -4.05327 0
M  V30 10335 H 1356.56 6.62195 -3.11261 0
M  V30 10336 H 1357.75 4.42556 -4.81383 0
M  V30 10337 H 1359.23 5.92458 -5.93643 0
M  V30 10338 H 1357.54 7.92655 -6.402 0
M  V30 10339 H 1357.35 6.26671 -8.0846 0
M  V30 10340 H 1355.72 6.29101 -7.32804 0
M  V30 10341 H 1358.36 5.84315 -2.47318 0
M  V30 10342 P 1360.21 7.39546 -4.75277 0
M  V30 10343 O 1361.63 7.84798 -5.01039 0
M  V30 10344 O 1359.85 5.9812 -5.08098 0
M  V30 10345 O 1359.89 7.57503 -3.1866 0
M  V30 10346 C 1359.73 8.97357 -2.74833 0
M  V30 10347 C 1360.27 9.07548 -1.32709 0
M  V30 10348 O 1359.21 8.62072 -0.606159 0
M  V30 10349 C 1361.49 8.25383 -0.938334 0
M  V30 10350 O 1362.23 8.74577 0.146954 0
M  V30 10351 C 1360.82 6.8802 -0.712559 0
M  V30 10352 O 1361.62 6.1189 0.194655 0
M  V30 10353 C 1359.48 7.27966 -0.139777 0
M  V30 10354 H 1359.51 7.25354 0.961601 0
M  V30 10355 H 1360.7 6.32557 -1.65702 0
M  V30 10356 H 1362.18 8.19355 -1.79097 0
M  V30 10357 H 1360.49 10.1294 -1.10029 0
M  V30 10358 H 1360.3 9.64276 -3.41316 0
M  V30 10359 H 1358.67 9.25417 -2.76357 0
M  V30 10360 H 1361.31 6.25267 1.07847 0
M  V30 10361 P 1363.16 8.791 1.10281e-11 0
M  V30 10362 O 1364.59 9.31096 0.027933 0
M  V30 10363 O 1362.8 7.77869 -1.04071 0
M  V30 10364 O 1362.84 8.09533 1.41463 0
M  V30 10365 C 1362.68 9.0349 2.53943 0
M  V30 10366 C 1363.22 8.35226 3.79016 0
M  V30 10367 O 1362.16 7.57992 4.15078 0
M  V30 10368 C 1364.44 7.45087 3.67298 0
M  V30 10369 O 1365.18 7.27796 4.85194 0
M  V30 10370 C 1363.77 6.17323 3.12027 0
M  V30 10371 O 1364.57 5.04231 3.47188 0
M  V30 10372 C 1362.43 6.19961 3.81809 0
M  V30 10373 H 1362.46 5.58218 4.73051 0
M  V30 10374 H 1363.65 6.21726 2.02589 0
M  V30 10375 H 1365.13 7.86112 2.9231 0
M  V30 10376 H 1363.44 9.11627 4.55076 0
M  V30 10377 H 1363.25 9.9573 2.34194 0
M  V30 10378 H 1361.62 9.2792 2.67832 0
M  V30 10379 H 1364.26 4.67702 4.28772 0
M  V30 10380 P 1366.11 7.39546 4.75277 0
M  V30 10381 O 1367.54 7.81777 5.05738 0
M  V30 10382 O 1365.75 7.1065 3.32998 0
M  V30 10383 O 1365.79 6.04542 5.56673 0
M  V30 10384 C 1365.63 6.22772 7.02095 0
M  V30 10385 C 1366.17 4.97725 7.70406 0
M  V30 10386 O 1365.11 4.13256 7.58987 0
M  V30 10387 C 1367.39 4.28231 7.11815 0
M  V30 10388 O 1368.13 3.49945 8.01648 0
M  V30 10389 C 1366.72 3.5063 5.96244 0
M  V30 10390 O 1367.52 2.36482 5.64681 0
M  V30 10391 C 1365.38 3.15122 6.56374 0
M  V30 10392 H 1365.41 2.13853 6.99751 0
M  V30 10393 H 1366.6 4.13501 5.06559 0
M  V30 10394 H 1368.08 5.03285 6.70911 0
M  V30 10395 H 1366.39 5.20877 8.75697 0
M  V30 10396 H 1366.2 7.11046 7.35349 0
M  V30 10397 H 1364.57 6.35815 7.26986 0
M  V30 10398 H 1367.21 1.61644 6.13565 0
M  V30 10399 P 1369.06 3.65191 7.99657 0
M  V30 10400 O 1370.49 3.8425 8.48115 0
M  V30 10401 O 1368.7 4.17805 6.64342 0
M  V30 10402 O 1368.74 2.07613 7.95143 0
M  V30 10403 C 1368.58 1.44328 9.27336 0
M  V30 10404 C 1369.12 0.0220036 9.17197 0
M  V30 10405 O 1368.07 -0.626867 8.61923 0
M  V30 10406 C 1370.34 -0.24586 8.30336 0
M  V30 10407 O 1371.08 -1.39011 8.63583 0
M  V30 10408 C 1369.67 -0.273849 6.91158 0
M  V30 10409 O 1370.47 -1.06348 6.02892 0
M  V30 10410 C 1368.33 -0.897649 7.22545 0
M  V30 10411 H 1368.37 -1.9841 7.04286 0
M  V30 10412 H 1369.55 0.739928 6.497 0
M  V30 10413 H 1371.03 0.60668 8.36503 0
M  V30 10414 H 1369.34 -0.352479 10.1829 0
M  V30 10415 H 1369.15 2.00611 10.0304 0
M  V30 10416 H 1367.52 1.41843 9.55327 0
M  V30 10417 H 1370.16 -1.95734 6.03555 0
M  V30 10418 P 1372.02 -1.25109 8.70152 0
M  V30 10419 O 1373.44 -1.35274 9.21221 0
M  V30 10420 O 1371.66 -0.0769065 7.84762 0
M  V30 10421 O 1371.69 -2.55232 7.81161 0
M  V30 10422 C 1371.53 -3.79939 8.58154 0
M  V30 10423 C 1372.07 -4.94023 7.72785 0
M  V30 10424 O 1371.02 -5.18726 6.91205 0
M  V30 10425 C 1373.29 -4.69597 6.85231 0
M  V30 10426 O 1374.03 -5.83832 6.51337 0
M  V30 10427 C 1372.62 -3.96706 5.66633 0
M  V30 10428 O 1373.42 -4.15414 4.49689 0
M  V30 10429 C 1371.28 -4.66153 5.59313 0
M  V30 10430 H 1371.32 -5.47679 4.85214 0
M  V30 10431 H 1372.5 -2.89008 5.86566 0
M  V30 10432 H 1373.98 -4.0121 7.36511 0
M  V30 10433 H 1372.29 -5.80182 8.37584 0
M  V30 10434 H 1372.1 -3.73517 9.52265 0
M  V30 10435 H 1370.47 -3.97163 8.80359 0
M  V30 10436 H 1373.11 -4.90969 4.01921 0
M  V30 10437 P 1374.97 -5.75688 6.64379 0
M  V30 10438 O 1376.39 -6.11849 7.01846 0
M  V30 10439 O 1374.61 -4.30744 6.56026 0
M  V30 10440 O 1374.64 -6.37042 5.19165 0
M  V30 10441 C 1374.48 -7.83578 5.16515 0
M  V30 10442 C 1375.02 -8.33398 3.83019 0
M  V30 10443 O 1373.97 -8.10074 3.01034 0
M  V30 10444 C 1376.24 -7.65514 3.2257 0
M  V30 10445 O 1376.98 -8.4329 2.32297 0
M  V30 10446 C 1375.57 -6.40075 2.62207 0
M  V30 10447 O 1376.37 -5.92589 1.53712 0
M  V30 10448 C 1374.23 -6.9454 2.18503 0
M  V30 10449 H 1374.27 -7.23063 1.12091 0
M  V30 10450 H 1375.45 -5.6025 3.37201 0
M  V30 10451 H 1376.93 -7.35707 4.02681 0
M  V30 10452 H 1375.24 -9.40912 3.9095 0
M  V30 10453 H 1375.05 -8.29056 5.99158 0
M  V30 10454 H 1373.42 -8.10073 5.25882 0
M  V30 10455 H 1376.06 -6.30324 0.726794 0
M  V30 10456 P 1377.92 -8.4349 2.47671 0
M  V30 10457 O 1379.34 -8.94167 2.5964 0
M  V30 10458 O 1377.56 -7.1704 3.19006 0
M  V30 10459 O 1377.59 -8.16596 0.923387 0
M  V30 10460 C 1377.43 -9.38437 0.108857 0
M  V30 10461 C 1377.97 -9.08175 -1.28353 0
M  V30 10462 O 1376.92 -8.44229 -1.84713 0
M  V30 10463 C 1379.19 -8.18386 -1.42505 0
M  V30 10464 O 1379.93 -8.3501 -2.60497 0
M  V30 10465 C 1378.52 -6.80225 -1.25468 0
M  V30 10466 O 1379.32 -5.81621 -1.91066 0
M  V30 10467 C 1377.19 -7.02416 -1.9168 0
M  V30 10468 H 1377.22 -6.6888 -2.96621 0
M  V30 10469 H 1378.4 -6.53617 -0.192223 0
M  V30 10470 H 1379.88 -8.36622 -0.589963 0
M  V30 10471 H 1378.19 -10.0291 -1.79807 0
M  V30 10472 H 1378 -10.2138 0.558219 0
M  V30 10473 H 1376.37 -9.6579 0.0444202 0
M  V30 10474 H 1379.01 -5.69556 -2.79637 0
M  V30 10475 P 1380.87 -8.4349 -2.47671 0
M  V30 10476 O 1382.29 -8.92593 -2.65 0
M  V30 10477 O 1380.51 -7.7568 -1.19296 0
M  V30 10478 O 1380.54 -7.36886 -3.63805 0
M  V30 10479 C 1380.38 -7.95349 -4.982 0
M  V30 10480 C 1380.92 -6.94612 -5.98974 0
M  V30 10481 O 1379.87 -6.10347 -6.11815 0
M  V30 10482 C 1382.14 -6.11426 -5.62335 0
M  V30 10483 O 1382.88 -5.6162 -6.70584 0
M  V30 10484 C 1381.47 -5.04409 -4.73308 0
M  V30 10485 O 1382.27 -3.85992 -4.75183 0
M  V30 10486 C 1380.14 -4.8728 -5.41006 0
M  V30 10487 H 1380.17 -4.02333 -6.11157 0
M  V30 10488 H 1381.35 -5.39466 -3.69543 0
M  V30 10489 H 1382.83 -6.71916 -5.01943 0
M  V30 10490 H 1381.14 -7.4649 -6.93477 0
M  V30 10491 H 1380.95 -8.89416 -5.05237 0
M  V30 10492 H 1379.32 -8.14876 -5.18409 0
M  V30 10493 H 1381.96 -3.27957 -5.4317 0
M  V30 10494 P 1383.82 -5.75688 -6.64379 0
M  V30 10495 O 1385.24 -6.07627 -7.05504 0
M  V30 10496 O 1383.46 -5.88047 -5.19722 0
M  V30 10497 O 1383.49 -4.2322 -7.04443 0
M  V30 10498 C 1383.33 -3.99743 -8.4911 0
M  V30 10499 C 1383.87 -2.60516 -8.79425 0
M  V30 10500 O 1382.82 -1.82684 -8.4467 0
M  V30 10501 C 1385.09 -2.10343 -8.03628 0
M  V30 10502 O 1385.83 -1.09919 -8.67766 0
M  V30 10503 C 1384.42 -1.68446 -6.70876 0
M  V30 10504 O 1385.22 -0.678137 -6.08433 0
M  V30 10505 C 1383.09 -1.17436 -7.18567 0
M  V30 10506 H 1383.12 -0.0804732 -7.31656 0
M  V30 10507 H 1384.3 -2.54037 -6.02537 0
M  V30 10508 H 1385.79 -2.93881 -7.85526 0
M  V30 10509 H 1384.09 -2.53065 -9.86973 0
M  V30 10510 H 1383.9 -4.75072 -9.05887 0
M  V30 10511 H 1382.27 -4.05244 -8.76668 0
M  V30 10512 H 1384.91 0.177647 -6.34251 0
M  V30 10513 P 1386.77 -1.25109 -8.70152 0
M  V30 10514 O 1388.19 -1.29744 -9.22016 0
M  V30 10515 O 1386.41 -2.13714 -7.55141 0
M  V30 10516 O 1386.44 0.248149 -8.21425 0
M  V30 10517 C 1386.28 1.22779 -9.30434 0
M  V30 10518 C 1386.82 2.56293 -8.80664 0
M  V30 10519 O 1385.77 3.02979 -8.09349 0
M  V30 10520 C 1388.04 2.57523 -7.89775 0
M  V30 10521 O 1388.78 3.7668 -7.89438 0
M  V30 10522 C 1387.37 2.20997 -6.55446 0
M  V30 10523 O 1388.17 2.71895 -5.48509 0
M  V30 10524 C 1386.04 2.89693 -6.67988 0
M  V30 10525 H 1386.07 3.88793 -6.19859 0
M  V30 10526 H 1387.25 1.12046 -6.44229 0
M  V30 10527 H 1388.74 1.7746 -8.19711 0
M  V30 10528 H 1387.04 3.20706 -9.67112 0
M  V30 10529 H 1386.85 0.901032 -10.1892 0
M  V30 10530 H 1385.22 1.33049 -9.56592 0
M  V30 10531 H 1387.86 3.57847 -5.23962 0
M  V30 10532 P 1389.72 3.65191 -7.99657 0
M  V30 10533 O 1391.14 3.89374 -8.45885 0
M  V30 10534 O 1389.36 2.28472 -7.50807 0
M  V30 10535 O 1389.4 4.64972 -6.77611 0
M  V30 10536 C 1389.23 6.06383 -7.16428 0
M  V30 10537 C 1389.78 6.91731 -6.02299 0
M  V30 10538 O 1388.72 6.92369 -5.17005 0
M  V30 10539 C 1390.99 6.43627 -5.25174 0
M  V30 10540 O 1391.73 7.43686 -4.60469 0
M  V30 10541 C 1390.33 5.40275 -4.31916 0
M  V30 10542 O 1391.12 5.24878 -3.14911 0
M  V30 10543 C 1388.99 6.04847 -4.05327 0
M  V30 10544 N 1387.94 5.04166 -3.98114 0
M  V30 10545 C 1388.11 3.84629 -4.59066 0
M  V30 10546 N 1387.09 3.0363 -4.45343 0
M  V30 10547 C 1386.2 3.76722 -3.68523 0
M  V30 10548 C 1384.93 3.43528 -3.17088 0
M  V30 10549 N 1384.34 2.23665 -3.37397 0
M  V30 10550 N 1384.37 4.44526 -2.44231 0
M  V30 10551 C 1384.97 5.65243 -2.20146 0
M  V30 10552 N 1386.15 6.00221 -2.65453 0
M  V30 10553 C 1386.72 5.00564 -3.39083 0
M  V30 10554 H 1389.02 6.62104 -3.11218 0
M  V30 10555 H 1390.2 4.42969 -4.80867 0
M  V30 10556 H 1391.69 5.92458 -5.93643 0
M  V30 10557 H 1389.99 7.93295 -6.39407 0
M  V30 10558 H 1389.8 6.26671 -8.0846 0
M  V30 10559 H 1388.17 6.29101 -7.32804 0
M  V30 10560 H 1384.44 6.36894 -1.5883 0
M  V30 10561 H 1389.01 3.58193 -5.14248 0
M  V30 10562 H 1383.41 2.05145 -2.97047 0
M  V30 10563 H 1384.81 1.51255 -3.92998 0
M  V30 10564 H 1390.81 5.84223 -2.47279 0
M  V30 10565 P 1392.67 7.39546 -4.75277 0
M  V30 10566 O 1394.09 7.84798 -5.01039 0
M  V30 10567 O 1392.31 5.9812 -5.08098 0
M  V30 10568 O 1392.35 7.57503 -3.1866 0
M  V30 10569 C 1392.19 8.97357 -2.74833 0
M  V30 10570 C 1392.73 9.07548 -1.32709 0
M  V30 10571 O 1391.67 8.62072 -0.606159 0
M  V30 10572 C 1393.94 8.25383 -0.938334 0
M  V30 10573 O 1394.68 8.74577 0.146954 0
M  V30 10574 C 1393.28 6.8802 -0.712559 0
M  V30 10575 O 1394.07 6.1189 0.194655 0
M  V30 10576 C 1391.94 7.27966 -0.139777 0
M  V30 10577 H 1391.97 7.25354 0.961601 0
M  V30 10578 H 1393.15 6.32557 -1.65702 0
M  V30 10579 H 1394.64 8.19355 -1.79097 0
M  V30 10580 H 1392.94 10.1294 -1.10029 0
M  V30 10581 H 1392.75 9.64276 -3.41316 0
M  V30 10582 H 1391.12 9.25417 -2.76357 0
M  V30 10583 H 1393.76 6.25267 1.07847 0
M  V30 10584 P 1395.62 8.791 1.13383e-11 0
M  V30 10585 O 1397.04 9.31096 0.027933 0
M  V30 10586 O 1395.26 7.77869 -1.04071 0
M  V30 10587 O 1395.3 8.09533 1.41463 0
M  V30 10588 C 1395.14 9.0349 2.53943 0
M  V30 10589 C 1395.68 8.35226 3.79016 0
M  V30 10590 O 1394.62 7.57992 4.15078 0
M  V30 10591 C 1396.89 7.45087 3.67298 0
M  V30 10592 O 1397.63 7.27796 4.85194 0
M  V30 10593 C 1396.23 6.17323 3.12027 0
M  V30 10594 O 1397.02 5.04231 3.47188 0
M  V30 10595 C 1394.89 6.19961 3.81809 0
M  V30 10596 H 1394.92 5.58218 4.73051 0
M  V30 10597 H 1396.1 6.21726 2.02589 0
M  V30 10598 H 1397.59 7.86112 2.9231 0
M  V30 10599 H 1395.89 9.11627 4.55076 0
M  V30 10600 H 1395.7 9.9573 2.34194 0
M  V30 10601 H 1394.07 9.2792 2.67832 0
M  V30 10602 H 1396.71 4.67702 4.28772 0
M  V30 10603 P 1398.57 7.39546 4.75277 0
M  V30 10604 O 1399.99 7.81777 5.05738 0
M  V30 10605 O 1398.21 7.1065 3.32998 0
M  V30 10606 O 1398.25 6.04542 5.56673 0
M  V30 10607 C 1398.09 6.22772 7.02095 0
M  V30 10608 C 1398.63 4.97725 7.70406 0
M  V30 10609 O 1397.57 4.13256 7.58987 0
M  V30 10610 C 1399.85 4.28231 7.11815 0
M  V30 10611 O 1400.58 3.49945 8.01648 0
M  V30 10612 C 1399.18 3.5063 5.96244 0
M  V30 10613 O 1399.98 2.36482 5.64681 0
M  V30 10614 C 1397.84 3.15122 6.56374 0
M  V30 10615 H 1397.87 2.13853 6.99751 0
M  V30 10616 H 1399.05 4.13501 5.06559 0
M  V30 10617 H 1400.54 5.03285 6.70911 0
M  V30 10618 H 1398.84 5.20877 8.75697 0
M  V30 10619 H 1398.65 7.11046 7.35349 0
M  V30 10620 H 1397.02 6.35815 7.26986 0
M  V30 10621 H 1399.66 1.61644 6.13565 0
M  V30 10622 P 1401.52 3.65191 7.99657 0
M  V30 10623 O 1402.94 3.8425 8.48115 0
M  V30 10624 O 1401.16 4.17805 6.64342 0
M  V30 10625 O 1401.2 2.07613 7.95143 0
M  V30 10626 C 1401.04 1.44328 9.27336 0
M  V30 10627 C 1401.58 0.0220036 9.17197 0
M  V30 10628 O 1400.52 -0.626867 8.61923 0
M  V30 10629 C 1402.8 -0.24586 8.30336 0
M  V30 10630 O 1403.53 -1.39011 8.63583 0
M  V30 10631 C 1402.13 -0.273849 6.91158 0
M  V30 10632 O 1402.93 -1.06348 6.02892 0
M  V30 10633 C 1400.79 -0.897649 7.22545 0
M  V30 10634 H 1400.82 -1.9841 7.04286 0
M  V30 10635 H 1402 0.739928 6.497 0
M  V30 10636 H 1403.49 0.60668 8.36503 0
M  V30 10637 H 1401.79 -0.352479 10.1829 0
M  V30 10638 H 1401.6 2.00611 10.0304 0
M  V30 10639 H 1399.97 1.41843 9.55327 0
M  V30 10640 H 1402.61 -1.95734 6.03555 0
M  V30 10641 P 1404.47 -1.25109 8.70152 0
M  V30 10642 O 1405.89 -1.35274 9.21221 0
M  V30 10643 O 1404.11 -0.0769065 7.84762 0
M  V30 10644 O 1404.15 -2.55232 7.81161 0
M  V30 10645 C 1403.99 -3.79939 8.58154 0
M  V30 10646 C 1404.53 -4.94023 7.72785 0
M  V30 10647 O 1403.47 -5.18726 6.91205 0
M  V30 10648 C 1405.75 -4.69597 6.85231 0
M  V30 10649 O 1406.48 -5.83832 6.51337 0
M  V30 10650 C 1405.08 -3.96706 5.66633 0
M  V30 10651 O 1405.88 -4.15414 4.49689 0
M  V30 10652 C 1403.74 -4.66153 5.59313 0
M  V30 10653 H 1403.77 -5.47679 4.85214 0
M  V30 10654 H 1404.96 -2.89008 5.86566 0
M  V30 10655 H 1406.44 -4.0121 7.36511 0
M  V30 10656 H 1404.75 -5.80182 8.37584 0
M  V30 10657 H 1404.56 -3.73517 9.52265 0
M  V30 10658 H 1402.93 -3.97163 8.80359 0
M  V30 10659 H 1405.56 -4.90969 4.01921 0
M  V30 10660 P 1407.42 -5.75688 6.64379 0
M  V30 10661 O 1408.84 -6.11849 7.01846 0
M  V30 10662 O 1407.06 -4.30744 6.56026 0
M  V30 10663 O 1407.1 -6.37042 5.19165 0
M  V30 10664 C 1406.94 -7.83578 5.16515 0
M  V30 10665 C 1407.48 -8.33398 3.83019 0
M  V30 10666 O 1406.42 -8.10074 3.01034 0
M  V30 10667 C 1408.7 -7.65514 3.2257 0
M  V30 10668 O 1409.43 -8.4329 2.32297 0
M  V30 10669 C 1408.03 -6.40075 2.62207 0
M  V30 10670 O 1408.83 -5.92589 1.53712 0
M  V30 10671 C 1406.69 -6.9454 2.18503 0
M  V30 10672 H 1406.72 -7.23063 1.12091 0
M  V30 10673 H 1407.91 -5.6025 3.37201 0
M  V30 10674 H 1409.39 -7.35707 4.02681 0
M  V30 10675 H 1407.7 -9.40912 3.9095 0
M  V30 10676 H 1407.51 -8.29056 5.99158 0
M  V30 10677 H 1405.88 -8.10073 5.25882 0
M  V30 10678 H 1408.51 -6.30324 0.726794 0
M  V30 10679 P 1410.37 -8.4349 2.47671 0
M  V30 10680 O 1411.79 -8.94167 2.5964 0
M  V30 10681 O 1410.01 -7.1704 3.19006 0
M  V30 10682 O 1410.05 -8.16596 0.923387 0
M  V30 10683 C 1409.89 -9.38437 0.108857 0
M  V30 10684 C 1410.43 -9.08175 -1.28353 0
M  V30 10685 O 1409.37 -8.44229 -1.84713 0
M  V30 10686 C 1411.65 -8.18386 -1.42505 0
M  V30 10687 O 1412.39 -8.3501 -2.60497 0
M  V30 10688 C 1410.98 -6.80225 -1.25468 0
M  V30 10689 O 1411.78 -5.81621 -1.91066 0
M  V30 10690 C 1409.64 -7.02416 -1.9168 0
M  V30 10691 H 1409.67 -6.6888 -2.96621 0
M  V30 10692 H 1410.86 -6.53617 -0.192223 0
M  V30 10693 H 1412.34 -8.36622 -0.589963 0
M  V30 10694 H 1410.65 -10.0291 -1.79807 0
M  V30 10695 H 1410.46 -10.2138 0.558219 0
M  V30 10696 H 1408.83 -9.6579 0.0444202 0
M  V30 10697 H 1411.47 -5.69556 -2.79637 0
M  V30 10698 P 1413.32 -8.4349 -2.47671 0
M  V30 10699 O 1414.75 -8.92593 -2.65 0
M  V30 10700 O 1412.96 -7.7568 -1.19296 0
M  V30 10701 O 1413 -7.36886 -3.63805 0
M  V30 10702 C 1412.84 -7.95349 -4.982 0
M  V30 10703 C 1413.38 -6.94612 -5.98974 0
M  V30 10704 O 1412.32 -6.10347 -6.11815 0
M  V30 10705 C 1414.6 -6.11426 -5.62335 0
M  V30 10706 O 1415.34 -5.6162 -6.70584 0
M  V30 10707 C 1413.93 -5.04409 -4.73308 0
M  V30 10708 O 1414.73 -3.85992 -4.75183 0
M  V30 10709 C 1412.59 -4.8728 -5.41006 0
M  V30 10710 H 1412.62 -4.02333 -6.11157 0
M  V30 10711 H 1413.81 -5.39466 -3.69543 0
M  V30 10712 H 1415.29 -6.71916 -5.01943 0
M  V30 10713 H 1413.6 -7.4649 -6.93477 0
M  V30 10714 H 1413.41 -8.89416 -5.05237 0
M  V30 10715 H 1411.78 -8.14876 -5.18409 0
M  V30 10716 H 1414.42 -3.27957 -5.4317 0
M  V30 10717 P 1416.27 -5.75688 -6.64379 0
M  V30 10718 O 1417.7 -6.07627 -7.05504 0
M  V30 10719 O 1415.91 -5.88047 -5.19722 0
M  V30 10720 O 1415.95 -4.2322 -7.04443 0
M  V30 10721 C 1415.79 -3.99743 -8.4911 0
M  V30 10722 C 1416.33 -2.60516 -8.79425 0
M  V30 10723 O 1415.27 -1.82684 -8.4467 0
M  V30 10724 C 1417.55 -2.10343 -8.03628 0
M  V30 10725 O 1418.29 -1.09919 -8.67766 0
M  V30 10726 C 1416.88 -1.68446 -6.70876 0
M  V30 10727 O 1417.68 -0.678137 -6.08433 0
M  V30 10728 C 1415.54 -1.17436 -7.18567 0
M  V30 10729 H 1415.57 -0.0804732 -7.31656 0
M  V30 10730 H 1416.76 -2.54037 -6.02537 0
M  V30 10731 H 1418.24 -2.93881 -7.85526 0
M  V30 10732 H 1416.55 -2.53065 -9.86973 0
M  V30 10733 H 1416.36 -4.75072 -9.05887 0
M  V30 10734 H 1414.73 -4.05244 -8.76668 0
M  V30 10735 H 1417.37 0.177647 -6.34251 0
M  V30 10736 P 1419.22 -1.25109 -8.70152 0
M  V30 10737 O 1420.65 -1.29744 -9.22016 0
M  V30 10738 O 1418.86 -2.13714 -7.55141 0
M  V30 10739 O 1418.9 0.248149 -8.21425 0
M  V30 10740 C 1418.74 1.22779 -9.30434 0
M  V30 10741 C 1419.28 2.56293 -8.80664 0
M  V30 10742 O 1418.23 3.02979 -8.09349 0
M  V30 10743 C 1420.5 2.57523 -7.89775 0
M  V30 10744 O 1421.24 3.7668 -7.89438 0
M  V30 10745 C 1419.83 2.20997 -6.55446 0
M  V30 10746 O 1420.63 2.71895 -5.48509 0
M  V30 10747 C 1418.49 2.89693 -6.67988 0
M  V30 10748 H 1418.53 3.88793 -6.19859 0
M  V30 10749 H 1419.71 1.12046 -6.44229 0
M  V30 10750 H 1421.19 1.7746 -8.19711 0
M  V30 10751 H 1419.5 3.20706 -9.67112 0
M  V30 10752 H 1419.31 0.901032 -10.1892 0
M  V30 10753 H 1417.68 1.33049 -9.56592 0
M  V30 10754 H 1420.32 3.57847 -5.23962 0
M  V30 10755 P 1422.17 3.65191 -7.99657 0
M  V30 10756 O 1423.6 3.89332 -8.45794 0
M  V30 10757 O 1421.81 2.28472 -7.50807 0
M  V30 10758 O 1421.85 4.64972 -6.77611 0
M  V30 10759 C 1421.69 6.06319 -7.16352 0
M  V30 10760 C 1422.23 6.91731 -6.02299 0
M  V30 10761 O 1421.18 6.92449 -5.17064 0
M  V30 10762 C 1423.45 6.43627 -5.25174 0
M  V30 10763 O 1424.19 7.43686 -4.60469 0
M  V30 10764 C 1422.78 5.40275 -4.31916 0
M  V30 10765 O 1423.58 5.25279 -3.14438 0
M  V30 10766 C 1421.44 6.04847 -4.05327 0
M  V30 10767 H 1421.48 6.62195 -3.11261 0
M  V30 10768 H 1422.66 4.42556 -4.81383 0
M  V30 10769 H 1424.14 5.92458 -5.93643 0
M  V30 10770 H 1422.45 7.92655 -6.402 0
M  V30 10771 H 1422.26 6.26671 -8.0846 0
M  V30 10772 H 1420.63 6.29101 -7.32804 0
M  V30 10773 H 1423.27 5.84315 -2.47318 0
M  V30 10774 P 1425.13 7.39546 -4.75277 0
M  V30 10775 O 1426.55 7.84798 -5.01039 0
M  V30 10776 O 1424.77 5.9812 -5.08098 0
M  V30 10777 O 1424.8 7.57503 -3.1866 0
M  V30 10778 C 1424.64 8.97357 -2.74833 0
M  V30 10779 C 1425.18 9.07548 -1.32709 0
M  V30 10780 O 1424.13 8.62072 -0.606159 0
M  V30 10781 C 1426.4 8.25383 -0.938334 0
M  V30 10782 O 1427.14 8.74577 0.146954 0
M  V30 10783 C 1425.73 6.8802 -0.712559 0
M  V30 10784 O 1426.53 6.1189 0.194655 0
M  V30 10785 C 1424.39 7.27966 -0.139777 0
M  V30 10786 H 1424.43 7.25354 0.961601 0
M  V30 10787 H 1425.61 6.32557 -1.65702 0
M  V30 10788 H 1427.09 8.19355 -1.79097 0
M  V30 10789 H 1425.4 10.1294 -1.10029 0
M  V30 10790 H 1425.21 9.64276 -3.41316 0
M  V30 10791 H 1423.58 9.25417 -2.76357 0
M  V30 10792 H 1426.22 6.25267 1.07847 0
M  V30 10793 P 1428.08 8.791 1.16485e-11 0
M  V30 10794 O 1429.5 9.31096 0.027933 0
M  V30 10795 O 1427.72 7.77869 -1.04071 0
M  V30 10796 O 1427.75 8.09533 1.41463 0
M  V30 10797 C 1427.59 9.0349 2.53943 0
M  V30 10798 C 1428.13 8.35226 3.79016 0
M  V30 10799 O 1427.08 7.57992 4.15078 0
M  V30 10800 C 1429.35 7.45087 3.67298 0
M  V30 10801 O 1430.09 7.27796 4.85194 0
M  V30 10802 C 1428.68 6.17323 3.12027 0
M  V30 10803 O 1429.48 5.04231 3.47188 0
M  V30 10804 C 1427.34 6.19961 3.81809 0
M  V30 10805 H 1427.38 5.58218 4.73051 0
M  V30 10806 H 1428.56 6.21726 2.02589 0
M  V30 10807 H 1430.04 7.86112 2.9231 0
M  V30 10808 H 1428.35 9.11627 4.55076 0
M  V30 10809 H 1428.16 9.9573 2.34194 0
M  V30 10810 H 1426.53 9.2792 2.67832 0
M  V30 10811 H 1429.17 4.67702 4.28772 0
M  V30 10812 P 1431.03 7.39546 4.75277 0
M  V30 10813 O 1432.45 7.81861 5.05793 0
M  V30 10814 O 1430.67 7.1065 3.32998 0
M  V30 10815 O 1430.7 6.04542 5.56673 0
M  V30 10816 C 1430.54 6.22839 7.02169 0
M  V30 10817 C 1431.08 4.97725 7.70406 0
M  V30 10818 O 1430.03 4.13208 7.58899 0
M  V30 10819 C 1432.3 4.28231 7.11815 0
M  V30 10820 O 1433.04 3.49945 8.01648 0
M  V30 10821 C 1431.63 3.5063 5.96244 0
M  V30 10822 O 1432.43 2.37008 5.64352 0
M  V30 10823 C 1430.3 3.15122 6.56374 0
M  V30 10824 N 1429.25 3.22311 5.55692 0
M  V30 10825 C 1429.42 3.99655 4.46046 0
M  V30 10826 N 1428.39 3.97599 3.63918 0
M  V30 10827 C 1427.51 3.11159 4.25334 0
M  V30 10828 C 1426.24 2.64972 3.85157 0
M  V30 10829 N 1425.68 1.78482 4.74759 0
M  V30 10830 C 1426.28 1.37463 5.90819 0
M  V30 10831 N 1427.46 1.7733 6.31889 0
M  V30 10832 C 1428.03 2.64393 5.43725 0
M  V30 10833 H 1431.51 4.12931 5.06895 0
M  V30 10834 H 1432.99 5.03285 6.70911 0
M  V30 10835 H 1431.3 5.20001 8.76217 0
M  V30 10836 H 1431.11 7.11046 7.35349 0
M  V30 10837 H 1429.48 6.35815 7.26986 0
M  V30 10838 H 1430.32 4.58037 4.27732 0
M  V30 10839 H 1432.12 1.61619 6.13468 0
M  V30 10840 P 1433.98 3.65191 7.99657 0
M  V30 10841 O 1435.4 3.84292 8.48206 0
M  V30 10842 O 1433.62 4.17805 6.64342 0
M  V30 10843 O 1433.65 2.07613 7.95143 0
M  V30 10844 C 1433.49 1.44344 9.27435 0
M  V30 10845 C 1434.03 0.0220036 9.17197 0
M  V30 10846 O 1432.98 -0.626794 8.61824 0
M  V30 10847 C 1435.25 -0.24586 8.30336 0
M  V30 10848 O 1435.99 -1.39011 8.63583 0
M  V30 10849 C 1434.58 -0.273849 6.91158 0
M  V30 10850 O 1435.38 -1.05728 6.029 0
M  V30 10851 C 1433.25 -0.897649 7.22545 0
M  V30 10852 N 1432.2 -0.292839 6.41732 0
M  V30 10853 C 1432.37 0.950603 5.91308 0
M  V30 10854 N 1431.35 1.37732 5.21105 0
M  V30 10855 C 1430.46 0.318109 5.26039 0
M  V30 10856 C 1429.19 0.146766 4.6727 0
M  V30 10857 N 1428.59 1.08519 3.89983 0
M  V30 10858 N 1428.63 -1.06525 4.95887 0
M  V30 10859 C 1429.23 -2.0378 5.71347 0
M  V30 10860 N 1430.41 -1.92445 6.27451 0
M  V30 10861 C 1430.98 -0.715382 6.00353 0
M  V30 10862 H 1433.28 -1.98383 7.04189 0
M  V30 10863 H 1434.46 0.733318 6.49674 0
M  V30 10864 H 1435.94 0.60668 8.36503 0
M  V30 10865 H 1434.25 -0.362662 10.1825 0
M  V30 10866 H 1434.06 2.00611 10.0304 0
M  V30 10867 H 1432.43 1.41843 9.55327 0
M  V30 10868 H 1428.69 -2.97041 5.85344 0
M  V30 10869 H 1433.27 1.54076 6.07465 0
M  V30 10870 H 1427.66 0.901517 3.49562 0
M  V30 10871 H 1429.07 1.97957 3.71669 0
M  V30 10872 H 1435.07 -1.95704 6.0346 0
M  V30 10873 P 1436.93 -1.25109 8.70152 0
M  V30 10874 O 1438.35 -1.35288 9.2132 0
M  V30 10875 O 1436.57 -0.0769065 7.84762 0
M  V30 10876 O 1436.6 -2.55232 7.81161 0
M  V30 10877 C 1436.44 -3.79979 8.58246 0
M  V30 10878 C 1436.98 -4.94023 7.72785 0
M  V30 10879 O 1435.93 -5.18666 6.91125 0
M  V30 10880 C 1438.2 -4.69597 6.85231 0
M  V30 10881 O 1438.94 -5.83832 6.51337 0
M  V30 10882 C 1437.53 -3.96706 5.66633 0
M  V30 10883 O 1438.33 -4.14896 4.5003 0
M  V30 10884 C 1436.2 -4.66153 5.59313 0
M  V30 10885 N 1435.15 -3.71582 5.24027 0
M  V30 10886 C 1435.32 -2.39715 5.48833 0
M  V30 10887 N 1434.3 -1.65863 5.12845 0
M  V30 10888 C 1433.41 -2.57637 4.5973 0
M  V30 10889 C 1432.14 -2.40278 4.01027 0
M  V30 10890 N 1431.58 -3.57711 3.59575 0
M  V30 10891 C 1432.18 -4.80324 3.70476 0
M  V30 10892 N 1433.36 -5.01121 4.23801 0
M  V30 10893 C 1433.93 -3.84757 4.66372 0
M  V30 10894 H 1437.41 -2.8955 5.86187 0
M  V30 10895 H 1438.89 -4.0121 7.36511 0
M  V30 10896 H 1437.2 -5.81019 8.37003 0
M  V30 10897 H 1437.01 -3.73517 9.52265 0
M  V30 10898 H 1435.38 -3.97163 8.80359 0
M  V30 10899 H 1436.22 -1.98804 5.94332 0
M  V30 10900 H 1438.02 -4.90891 4.01857 0
M  V30 10901 P 1439.88 -5.75688 6.64379 0
M  V30 10902 O 1441.3 -6.11915 7.01921 0
M  V30 10903 O 1439.52 -4.30744 6.56026 0
M  V30 10904 O 1439.56 -6.37042 5.19165 0
M  V30 10905 C 1439.39 -7.83662 5.1657 0
M  V30 10906 C 1439.94 -8.33398 3.83019 0
M  V30 10907 O 1438.88 -8.0998 3.00999 0
M  V30 10908 C 1441.15 -7.65514 3.2257 0
M  V30 10909 O 1441.89 -8.4329 2.32297 0
M  V30 10910 C 1440.49 -6.40075 2.62207 0
M  V30 10911 O 1441.28 -5.92338 1.5428 0
M  V30 10912 C 1439.15 -6.9454 2.18503 0
M  V30 10913 N 1438.1 -5.95905 2.39948 0
M  V30 10914 C 1438.27 -4.98383 3.32108 0
M  V30 10915 N 1437.25 -4.16798 3.41761 0
M  V30 10916 C 1436.36 -4.65287 2.47461 0
M  V30 10917 C 1435.09 -4.18946 2.07461 0
M  V30 10918 N 1434.53 -4.95327 1.09101 0
M  V30 10919 C 1435.13 -6.04369 0.519812 0
M  V30 10920 N 1436.31 -6.50694 0.855982 0
M  V30 10921 C 1436.88 -5.75818 1.84322 0
M  V30 10922 H 1440.36 -5.60502 3.36589 0
M  V30 10923 H 1441.85 -7.35707 4.02681 0
M  V30 10924 H 1440.15 -9.41302 3.90009 0
M  V30 10925 H 1439.96 -8.29056 5.99158 0
M  V30 10926 H 1438.33 -8.10073 5.25882 0
M  V30 10927 H 1439.17 -4.88564 3.92502 0
M  V30 10928 H 1440.97 -6.30224 0.72668 0
M  V30 10929 P 1442.83 -8.4349 2.47671 0
M  V30 10930 O 1444.25 -8.94263 2.59668 0
M  V30 10931 O 1442.47 -7.1704 3.19006 0
M  V30 10932 O 1442.51 -8.16596 0.923387 0
M  V30 10933 C 1442.34 -9.38537 0.108869 0
M  V30 10934 C 1442.89 -9.08175 -1.28353 0
M  V30 10935 O 1441.83 -8.44131 -1.84692 0
M  V30 10936 C 1444.1 -8.18386 -1.42505 0
M  V30 10937 O 1444.84 -8.3501 -2.60497 0
M  V30 10938 C 1443.44 -6.80225 -1.25468 0
M  V30 10939 O 1444.23 -5.81716 -1.90454 0
M  V30 10940 C 1442.1 -7.02416 -1.9168 0
M  V30 10941 N 1441.05 -6.31033 -1.20314 0
M  V30 10942 C 1441.22 -5.98817 0.0994088 0
M  V30 10943 N 1440.2 -5.35403 0.621694 0
M  V30 10944 C 1439.31 -5.25212 -0.43376 0
M  V30 10945 C 1438.04 -4.64602 -0.519722 0
M  V30 10946 N 1437.45 -4.01457 0.519136 0
M  V30 10947 N 1437.48 -4.7568 -1.76013 0
M  V30 10948 C 1438.08 -5.3653 -2.83017 0
M  V30 10949 N 1439.26 -5.93676 -2.79782 0
M  V30 10950 C 1439.83 -5.84061 -1.56249 0
M  V30 10951 H 1442.13 -6.68789 -2.9658 0
M  V30 10952 H 1443.31 -6.53498 -0.198729 0
M  V30 10953 H 1444.8 -8.36622 -0.589963 0
M  V30 10954 H 1443.1 -10.0273 -1.8081 0
M  V30 10955 H 1442.91 -10.2138 0.558219 0
M  V30 10956 H 1441.28 -9.6579 0.0444202 0
M  V30 10957 H 1437.55 -5.37113 -3.77321 0
M  V30 10958 H 1442.12 -6.23209 0.660562 0
M  V30 10959 H 1436.52 -3.58834 0.394862 0
M  V30 10960 H 1437.92 -3.96059 1.43048 0
M  V30 10961 H 1443.92 -5.69466 -2.79593 0
M  V30 10962 P 1445.78 -8.4349 -2.47671 0
M  V30 10963 O 1447.2 -8.92593 -2.65 0
M  V30 10964 O 1445.42 -7.7568 -1.19296 0
M  V30 10965 O 1445.46 -7.36886 -3.63805 0
M  V30 10966 C 1445.3 -7.95349 -4.982 0
M  V30 10967 C 1445.84 -6.94612 -5.98974 0
M  V30 10968 O 1444.78 -6.10347 -6.11815 0
M  V30 10969 C 1447.05 -6.11426 -5.62335 0
M  V30 10970 O 1447.79 -5.6162 -6.70584 0
M  V30 10971 C 1446.39 -5.04409 -4.73308 0
M  V30 10972 O 1447.18 -3.85992 -4.75183 0
M  V30 10973 C 1445.05 -4.8728 -5.41006 0
M  V30 10974 H 1445.08 -4.02333 -6.11157 0
M  V30 10975 H 1446.26 -5.39466 -3.69543 0
M  V30 10976 H 1447.75 -6.71916 -5.01943 0
M  V30 10977 H 1446.05 -7.4649 -6.93477 0
M  V30 10978 H 1445.86 -8.89416 -5.05237 0
M  V30 10979 H 1444.23 -8.14876 -5.18409 0
M  V30 10980 H 1446.87 -3.27957 -5.4317 0
M  V30 10981 P 1448.73 -5.75688 -6.64379 0
M  V30 10982 O 1450.15 -6.07692 -7.0558 0
M  V30 10983 O 1448.37 -5.88047 -5.19722 0
M  V30 10984 O 1448.41 -4.2322 -7.04443 0
M  V30 10985 C 1448.25 -3.99785 -8.49201 0
M  V30 10986 C 1448.79 -2.60516 -8.79425 0
M  V30 10987 O 1447.73 -1.82663 -8.44573 0
M  V30 10988 C 1450 -2.10343 -8.03628 0
M  V30 10989 O 1450.74 -1.09919 -8.67766 0
M  V30 10990 C 1449.34 -1.68446 -6.70876 0
M  V30 10991 O 1450.13 -0.684109 -6.08265 0
M  V30 10992 C 1448 -1.17436 -7.18567 0
M  V30 10993 N 1446.96 -1.52699 -6.23988 0
M  V30 10994 C 1447.12 -2.578 -5.40574 0
M  V30 10995 N 1446.1 -2.78966 -4.61193 0
M  V30 10996 C 1445.21 -1.78725 -4.95769 0
M  V30 10997 C 1443.95 -1.45727 -4.44207 0
M  V30 10998 N 1443.35 -2.13994 -3.43613 0
M  V30 10999 N 1443.38 -0.374977 -5.05812 0
M  V30 11000 C 1443.98 0.345585 -6.05615 0
M  V30 11001 N 1445.16 0.0787651 -6.56253 0
M  V30 11002 C 1445.73 -1.00499 -5.96189 0
M  V30 11003 H 1448.03 -0.0804622 -7.31556 0
M  V30 11004 H 1449.21 -2.53396 -6.02698 0
M  V30 11005 H 1450.7 -2.93881 -7.85526 0
M  V30 11006 H 1449 -2.52078 -9.87225 0
M  V30 11007 H 1448.81 -4.75072 -9.05887 0
M  V30 11008 H 1447.18 -4.05244 -8.76668 0
M  V30 11009 H 1443.45 1.20098 -6.4532 0
M  V30 11010 H 1448.02 -3.18977 -5.3945 0
M  V30 11011 H 1442.42 -1.84983 -3.10004 0
M  V30 11012 H 1443.82 -2.9465 -3.00843 0
M  V30 11013 H 1449.82 0.177619 -6.34151 0
M  V30 11014 P 1451.68 -1.25109 -8.70152 0
M  V30 11015 O 1453.1 -1.29758 -9.22115 0
M  V30 11016 O 1451.32 -2.13714 -7.55141 0
M  V30 11017 O 1451.36 0.248149 -8.21425 0
M  V30 11018 C 1451.2 1.22792 -9.30533 0
M  V30 11019 C 1451.74 2.56293 -8.80664 0
M  V30 11020 O 1450.68 3.02944 -8.09255 0
M  V30 11021 C 1452.96 2.57523 -7.89775 0
M  V30 11022 O 1453.69 3.7668 -7.89438 0
M  V30 11023 C 1452.29 2.20997 -6.55446 0
M  V30 11024 O 1453.09 2.71302 -5.48691 0
M  V30 11025 C 1450.95 2.89693 -6.67988 0
M  V30 11026 N 1449.91 2.08895 -6.07487 0
M  V30 11027 C 1450.08 0.753809 -5.94137 0
M  V30 11028 N 1449.05 0.146592 -5.38801 0
M  V30 11029 C 1448.16 1.1768 -5.13693 0
M  V30 11030 C 1446.9 1.17563 -4.52477 0
M  V30 11031 N 1446.33 2.41918 -4.45789 0
M  V30 11032 C 1446.93 3.56493 -4.90792 0
M  V30 11033 N 1448.11 3.61423 -5.47817 0
M  V30 11034 C 1448.69 2.37779 -5.5588 0
M  V30 11035 H 1452.16 1.12673 -6.44018 0
M  V30 11036 H 1453.65 1.7746 -8.19711 0
M  V30 11037 H 1451.95 3.21673 -9.66791 0
M  V30 11038 H 1451.76 0.901032 -10.1892 0
M  V30 11039 H 1450.13 1.33049 -9.56592 0
M  V30 11040 H 1450.98 0.233081 -6.26266 0
M  V30 11041 H 1452.77 3.5779 -5.23879 0
M  V30 11042 P 1454.63 3.65191 -7.99657 0
M  V30 11043 O 1456.05 3.89332 -8.45794 0
M  V30 11044 O 1454.27 2.28472 -7.50807 0
M  V30 11045 O 1454.31 4.64972 -6.77611 0
M  V30 11046 C 1454.15 6.06319 -7.16352 0
M  V30 11047 C 1454.69 6.91731 -6.02299 0
M  V30 11048 O 1453.63 6.92449 -5.17064 0
M  V30 11049 C 1455.91 6.43627 -5.25174 0
M  V30 11050 O 1456.64 7.43686 -4.60469 0
M  V30 11051 C 1455.24 5.40275 -4.31916 0
M  V30 11052 O 1456.04 5.25279 -3.14438 0
M  V30 11053 C 1453.9 6.04847 -4.05327 0
M  V30 11054 H 1453.93 6.62195 -3.11261 0
M  V30 11055 H 1455.12 4.42556 -4.81383 0
M  V30 11056 H 1456.6 5.92458 -5.93643 0
M  V30 11057 H 1454.91 7.92655 -6.402 0
M  V30 11058 H 1454.72 6.26671 -8.0846 0
M  V30 11059 H 1453.09 6.29101 -7.32804 0
M  V30 11060 H 1455.72 5.84315 -2.47318 0
M  V30 11061 P 1457.58 7.39546 -4.75277 0
M  V30 11062 O 1459 7.84882 -5.01092 0
M  V30 11063 O 1457.22 5.9812 -5.08098 0
M  V30 11064 O 1457.26 7.57503 -3.1866 0
M  V30 11065 C 1457.1 8.97452 -2.74862 0
M  V30 11066 C 1457.64 9.07548 -1.32709 0
M  V30 11067 O 1456.58 8.61972 -0.606089 0
M  V30 11068 C 1458.86 8.25383 -0.938334 0
M  V30 11069 O 1459.59 8.74577 0.146954 0
M  V30 11070 C 1458.19 6.8802 -0.712559 0
M  V30 11071 O 1458.99 6.1181 0.188505 0
M  V30 11072 C 1456.85 7.27966 -0.139777 0
M  V30 11073 N 1455.81 6.39368 -0.623421 0
M  V30 11074 C 1455.98 5.71761 -1.78245 0
M  V30 11075 N 1454.95 4.962 -2.10491 0
M  V30 11076 C 1454.06 5.16158 -1.0635 0
M  V30 11077 C 1452.8 4.60425 -0.810266 0
M  V30 11078 N 1452.23 5.06 0.348685 0
M  V30 11079 C 1452.83 5.94532 1.20395 0
M  V30 11080 N 1454.01 6.48452 1.01191 0
M  V30 11081 C 1454.59 6.04423 -0.146291 0
M  V30 11082 H 1458.07 6.32625 -1.65044 0
M  V30 11083 H 1459.55 8.19355 -1.79097 0
M  V30 11084 H 1457.85 10.1305 -1.09016 0
M  V30 11085 H 1457.66 9.64276 -3.41316 0
M  V30 11086 H 1456.03 9.25417 -2.76357 0
M  V30 11087 H 1456.88 5.79354 -2.38959 0
M  V30 11088 H 1458.67 6.25169 1.0783 0
M  V30 11089 P 1460.53 8.791 1.19586e-11 0
M  V30 11090 O 1461.95 9.31096 0.027933 0
M  V30 11091 O 1460.17 7.77869 -1.04071 0
M  V30 11092 O 1460.21 8.09533 1.41463 0
M  V30 11093 C 1460.05 9.0349 2.53943 0
M  V30 11094 C 1460.59 8.35226 3.79016 0
M  V30 11095 O 1459.53 7.57992 4.15078 0
M  V30 11096 C 1461.81 7.45087 3.67298 0
M  V30 11097 O 1462.55 7.27796 4.85194 0
M  V30 11098 C 1461.14 6.17323 3.12027 0
M  V30 11099 O 1461.94 5.04231 3.47188 0
M  V30 11100 C 1459.8 6.19961 3.81809 0
M  V30 11101 H 1459.83 5.58218 4.73051 0
M  V30 11102 H 1461.02 6.21726 2.02589 0
M  V30 11103 H 1462.5 7.86112 2.9231 0
M  V30 11104 H 1460.81 9.11627 4.55076 0
M  V30 11105 H 1460.62 9.9573 2.34194 0
M  V30 11106 H 1458.99 9.2792 2.67832 0
M  V30 11107 H 1461.63 4.67702 4.28772 0
M  V30 11108 P 1463.48 7.39546 4.75277 0
M  V30 11109 O 1464.9 7.81777 5.05738 0
M  V30 11110 O 1463.12 7.1065 3.32998 0
M  V30 11111 O 1463.16 6.04542 5.56673 0
M  V30 11112 C 1463 6.22772 7.02095 0
M  V30 11113 C 1463.54 4.97725 7.70406 0
M  V30 11114 O 1462.48 4.13256 7.58987 0
M  V30 11115 C 1464.76 4.28231 7.11815 0
M  V30 11116 O 1465.5 3.49945 8.01648 0
M  V30 11117 C 1464.09 3.5063 5.96244 0
M  V30 11118 O 1464.89 2.36482 5.64681 0
M  V30 11119 C 1462.75 3.15122 6.56374 0
M  V30 11120 H 1462.78 2.13853 6.99751 0
M  V30 11121 H 1463.97 4.13501 5.06559 0
M  V30 11122 H 1465.45 5.03285 6.70911 0
M  V30 11123 H 1463.76 5.20877 8.75697 0
M  V30 11124 H 1463.57 7.11046 7.35349 0
M  V30 11125 H 1461.94 6.35815 7.26986 0
M  V30 11126 H 1464.58 1.61644 6.13565 0
M  V30 11127 P 1466.43 3.65191 7.99657 0
M  V30 11128 O 1467.86 3.8425 8.48115 0
M  V30 11129 O 1466.07 4.17805 6.64342 0
M  V30 11130 O 1466.11 2.07613 7.95143 0
M  V30 11131 C 1465.95 1.44328 9.27336 0
M  V30 11132 C 1466.49 0.0220036 9.17197 0
M  V30 11133 O 1465.43 -0.626867 8.61923 0
M  V30 11134 C 1467.71 -0.24586 8.30336 0
M  V30 11135 O 1468.45 -1.39011 8.63583 0
M  V30 11136 C 1467.04 -0.273849 6.91158 0
M  V30 11137 O 1467.84 -1.06348 6.02892 0
M  V30 11138 C 1465.7 -0.897649 7.22545 0
M  V30 11139 H 1465.73 -1.9841 7.04286 0
M  V30 11140 H 1466.92 0.739928 6.497 0
M  V30 11141 H 1468.4 0.60668 8.36503 0
M  V30 11142 H 1466.71 -0.352479 10.1829 0
M  V30 11143 H 1466.52 2.00611 10.0304 0
M  V30 11144 H 1464.89 1.41843 9.55327 0
M  V30 11145 H 1467.53 -1.95734 6.03555 0
M  V30 11146 P 1469.38 -1.25109 8.70152 0
M  V30 11147 O 1470.81 -1.35274 9.21221 0
M  V30 11148 O 1469.02 -0.0769065 7.84762 0
M  V30 11149 O 1469.06 -2.55232 7.81161 0
M  V30 11150 C 1468.9 -3.79939 8.58154 0
M  V30 11151 C 1469.44 -4.94023 7.72785 0
M  V30 11152 O 1468.38 -5.18726 6.91205 0
M  V30 11153 C 1470.66 -4.69597 6.85231 0
M  V30 11154 O 1471.4 -5.83832 6.51337 0
M  V30 11155 C 1469.99 -3.96706 5.66633 0
M  V30 11156 O 1470.79 -4.15414 4.49689 0
M  V30 11157 C 1468.65 -4.66153 5.59313 0
M  V30 11158 H 1468.68 -5.47679 4.85214 0
M  V30 11159 H 1469.87 -2.89008 5.86566 0
M  V30 11160 H 1471.35 -4.0121 7.36511 0
M  V30 11161 H 1469.66 -5.80182 8.37584 0
M  V30 11162 H 1469.47 -3.73517 9.52265 0
M  V30 11163 H 1467.84 -3.97163 8.80359 0
M  V30 11164 H 1470.48 -4.90969 4.01921 0
M  V30 11165 P 1472.33 -5.75688 6.64379 0
M  V30 11166 O 1473.76 -6.11915 7.01921 0
M  V30 11167 O 1471.97 -4.30744 6.56026 0
M  V30 11168 O 1472.01 -6.37042 5.19165 0
M  V30 11169 C 1471.85 -7.83662 5.1657 0
M  V30 11170 C 1472.39 -8.33398 3.83019 0
M  V30 11171 O 1471.34 -8.0998 3.00999 0
M  V30 11172 C 1473.61 -7.65514 3.2257 0
M  V30 11173 O 1474.35 -8.4329 2.32297 0
M  V30 11174 C 1472.94 -6.40075 2.62207 0
M  V30 11175 O 1473.74 -5.92338 1.5428 0
M  V30 11176 C 1471.6 -6.9454 2.18503 0
M  V30 11177 N 1470.56 -5.95905 2.39948 0
M  V30 11178 C 1470.73 -4.98383 3.32108 0
M  V30 11179 N 1469.7 -4.16798 3.41761 0
M  V30 11180 C 1468.82 -4.65287 2.47461 0
M  V30 11181 C 1467.55 -4.18946 2.07461 0
M  V30 11182 N 1466.99 -4.95327 1.09101 0
M  V30 11183 C 1467.59 -6.04369 0.519812 0
M  V30 11184 N 1468.76 -6.50694 0.855982 0
M  V30 11185 C 1469.34 -5.75818 1.84322 0
M  V30 11186 H 1472.82 -5.60502 3.36589 0
M  V30 11187 H 1474.3 -7.35707 4.02681 0
M  V30 11188 H 1472.61 -9.41302 3.90009 0
M  V30 11189 H 1472.42 -8.29056 5.99158 0
M  V30 11190 H 1470.79 -8.10073 5.25882 0
M  V30 11191 H 1471.63 -4.88564 3.92502 0
M  V30 11192 H 1473.43 -6.30224 0.72668 0
M  V30 11193 P 1475.28 -8.4349 2.47671 0
M  V30 11194 O 1476.71 -8.94263 2.59668 0
M  V30 11195 O 1474.92 -7.1704 3.19006 0
M  V30 11196 O 1474.96 -8.16596 0.923387 0
M  V30 11197 C 1474.8 -9.38537 0.108869 0
M  V30 11198 C 1475.34 -9.08175 -1.28353 0
M  V30 11199 O 1474.29 -8.44131 -1.84692 0
M  V30 11200 C 1476.56 -8.18386 -1.42505 0
M  V30 11201 O 1477.3 -8.3501 -2.60497 0
M  V30 11202 C 1475.89 -6.80225 -1.25468 0
M  V30 11203 O 1476.69 -5.81716 -1.90454 0
M  V30 11204 C 1474.55 -7.02416 -1.9168 0
M  V30 11205 N 1473.51 -6.31033 -1.20314 0
M  V30 11206 C 1473.68 -5.98817 0.0994088 0
M  V30 11207 N 1472.65 -5.35403 0.621694 0
M  V30 11208 C 1471.77 -5.25212 -0.43376 0
M  V30 11209 C 1470.5 -4.64602 -0.519722 0
M  V30 11210 N 1469.9 -4.01457 0.519136 0
M  V30 11211 N 1469.94 -4.7568 -1.76013 0
M  V30 11212 C 1470.54 -5.3653 -2.83017 0
M  V30 11213 N 1471.71 -5.93676 -2.79782 0
M  V30 11214 C 1472.29 -5.84061 -1.56249 0
M  V30 11215 H 1474.59 -6.68789 -2.9658 0
M  V30 11216 H 1475.77 -6.53498 -0.198729 0
M  V30 11217 H 1477.25 -8.36622 -0.589963 0
M  V30 11218 H 1475.56 -10.0273 -1.8081 0
M  V30 11219 H 1475.37 -10.2138 0.558219 0
M  V30 11220 H 1473.74 -9.6579 0.0444202 0
M  V30 11221 H 1470 -5.37113 -3.77321 0
M  V30 11222 H 1474.58 -6.23209 0.660562 0
M  V30 11223 H 1468.97 -3.58834 0.394862 0
M  V30 11224 H 1470.38 -3.96059 1.43048 0
M  V30 11225 H 1476.38 -5.69466 -2.79593 0
M  V30 11226 P 1478.24 -8.4349 -2.47671 0
M  V30 11227 O 1479.66 -8.92593 -2.65 0
M  V30 11228 O 1477.88 -7.7568 -1.19296 0
M  V30 11229 O 1477.91 -7.36886 -3.63805 0
M  V30 11230 C 1477.75 -7.95349 -4.982 0
M  V30 11231 C 1478.29 -6.94612 -5.98974 0
M  V30 11232 O 1477.24 -6.10347 -6.11815 0
M  V30 11233 C 1479.51 -6.11426 -5.62335 0
M  V30 11234 O 1480.25 -5.6162 -6.70584 0
M  V30 11235 C 1478.84 -5.04409 -4.73308 0
M  V30 11236 O 1479.64 -3.85992 -4.75183 0
M  V30 11237 C 1477.5 -4.8728 -5.41006 0
M  V30 11238 H 1477.54 -4.02333 -6.11157 0
M  V30 11239 H 1478.72 -5.39466 -3.69543 0
M  V30 11240 H 1480.2 -6.71916 -5.01943 0
M  V30 11241 H 1478.51 -7.4649 -6.93477 0
M  V30 11242 H 1478.32 -8.89416 -5.05237 0
M  V30 11243 H 1476.69 -8.14876 -5.18409 0
M  V30 11244 H 1479.33 -3.27957 -5.4317 0
M  V30 11245 P 1481.19 -5.75688 -6.64379 0
M  V30 11246 O 1482.61 -6.07627 -7.05504 0
M  V30 11247 O 1480.83 -5.88047 -5.19722 0
M  V30 11248 O 1480.86 -4.2322 -7.04443 0
M  V30 11249 C 1480.7 -3.99743 -8.4911 0
M  V30 11250 C 1481.24 -2.60516 -8.79425 0
M  V30 11251 O 1480.19 -1.82684 -8.4467 0
M  V30 11252 C 1482.46 -2.10343 -8.03628 0
M  V30 11253 O 1483.2 -1.09919 -8.67766 0
M  V30 11254 C 1481.79 -1.68446 -6.70876 0
M  V30 11255 O 1482.59 -0.678137 -6.08433 0
M  V30 11256 C 1480.46 -1.17436 -7.18567 0
M  V30 11257 H 1480.49 -0.0804732 -7.31656 0
M  V30 11258 H 1481.67 -2.54037 -6.02537 0
M  V30 11259 H 1483.15 -2.93881 -7.85526 0
M  V30 11260 H 1481.46 -2.53065 -9.86973 0
M  V30 11261 H 1481.27 -4.75072 -9.05887 0
M  V30 11262 H 1479.64 -4.05244 -8.76668 0
M  V30 11263 H 1482.28 0.177647 -6.34251 0
M  V30 11264 P 1484.14 -1.25109 -8.70152 0
M  V30 11265 O 1485.56 -1.29744 -9.22016 0
M  V30 11266 O 1483.78 -2.13714 -7.55141 0
M  V30 11267 O 1483.81 0.248149 -8.21425 0
M  V30 11268 C 1483.65 1.22779 -9.30434 0
M  V30 11269 C 1484.19 2.56293 -8.80664 0
M  V30 11270 O 1483.14 3.02979 -8.09349 0
M  V30 11271 C 1485.41 2.57523 -7.89775 0
M  V30 11272 O 1486.15 3.7668 -7.89438 0
M  V30 11273 C 1484.74 2.20997 -6.55446 0
M  V30 11274 O 1485.54 2.71895 -5.48509 0
M  V30 11275 C 1483.41 2.89693 -6.67988 0
M  V30 11276 H 1483.44 3.88793 -6.19859 0
M  V30 11277 H 1484.62 1.12046 -6.44229 0
M  V30 11278 H 1486.1 1.7746 -8.19711 0
M  V30 11279 H 1484.41 3.20706 -9.67112 0
M  V30 11280 H 1484.22 0.901032 -10.1892 0
M  V30 11281 H 1482.59 1.33049 -9.56592 0
M  V30 11282 H 1485.23 3.57847 -5.23962 0
M  V30 11283 P 1487.09 3.65191 -7.99657 0
M  V30 11284 O 1488.51 3.89332 -8.45794 0
M  V30 11285 O 1486.73 2.28472 -7.50807 0
M  V30 11286 O 1486.76 4.64972 -6.77611 0
M  V30 11287 C 1486.6 6.06319 -7.16352 0
M  V30 11288 C 1487.14 6.91731 -6.02299 0
M  V30 11289 O 1486.09 6.92449 -5.17064 0
M  V30 11290 C 1488.36 6.43627 -5.25174 0
M  V30 11291 O 1489.1 7.43686 -4.60469 0
M  V30 11292 C 1487.69 5.40275 -4.31916 0
M  V30 11293 O 1488.49 5.25279 -3.14438 0
M  V30 11294 C 1486.36 6.04847 -4.05327 0
M  V30 11295 H 1486.39 6.62195 -3.11261 0
M  V30 11296 H 1487.57 4.42556 -4.81383 0
M  V30 11297 H 1489.06 5.92458 -5.93643 0
M  V30 11298 H 1487.36 7.92655 -6.402 0
M  V30 11299 H 1487.17 6.26671 -8.0846 0
M  V30 11300 H 1485.54 6.29101 -7.32804 0
M  V30 11301 H 1488.18 5.84315 -2.47318 0
M  V30 11302 P 1490.04 7.39546 -4.75277 0
M  V30 11303 O 1491.46 7.84966 -5.01146 0
M  V30 11304 O 1489.68 5.9812 -5.08098 0
M  V30 11305 O 1489.71 7.57503 -3.1866 0
M  V30 11306 C 1489.55 8.97357 -2.74833 0
M  V30 11307 C 1490.09 9.0745 -1.32694 0
M  V30 11308 O 1489.04 8.62072 -0.606159 0
M  V30 11309 C 1491.31 8.25383 -0.938334 0
M  V30 11310 O 1492.05 8.74577 0.146954 0
M  V30 11311 C 1490.64 6.8802 -0.712559 0
M  V30 11312 O 1491.44 6.11791 0.194623 0
M  V30 11313 C 1489.31 7.27966 -0.139777 0
M  V30 11314 N 1488.26 6.39368 -0.623421 0
M  V30 11315 C 1488.33 5.90299 -1.85969 0
M  V30 11316 N 1487.28 5.10919 -2.1133 0
M  V30 11317 C 1486.55 5.14646 -1.0015 0
M  V30 11318 C 1485.24 4.60057 -0.729219 0
M  V30 11319 O 1484.51 3.93476 -1.47746 0
M  V30 11320 N 1484.81 4.88302 0.523505 0
M  V30 11321 C 1485.56 5.63646 1.46207 0
M  V30 11322 N 1484.96 5.78186 2.69239 0
M  V30 11323 N 1486.71 6.19285 1.21544 0
M  V30 11324 C 1487.17 5.93392 -0.0308487 0
M  V30 11325 H 1489.34 7.25354 0.961601 0
M  V30 11326 H 1490.52 6.3246 -1.65676 0
M  V30 11327 H 1492.01 8.19533 -1.78278 0
M  V30 11328 H 1490.31 10.1294 -1.10029 0
M  V30 11329 H 1490.12 9.64276 -3.41316 0
M  V30 11330 H 1488.49 9.25417 -2.76357 0
M  V30 11331 H 1483.91 4.53993 0.806451 0
M  V30 11332 H 1489.12 6.11865 -2.57394 0
M  V30 11333 H 1484.05 5.34046 2.87467 0
M  V30 11334 H 1485.43 6.33391 3.42578 0
M  V30 11335 H 1491.13 6.25169 1.0783 0
M  V30 11336 P 1492.99 8.791 1.22688e-11 0
M  V30 11337 O 1494.41 9.31096 0.027933 0
M  V30 11338 O 1492.63 7.77869 -1.04071 0
M  V30 11339 O 1492.67 8.09533 1.41463 0
M  V30 11340 C 1492.51 9.0349 2.53943 0
M  V30 11341 C 1493.05 8.35226 3.79016 0
M  V30 11342 O 1491.99 7.57992 4.15078 0
M  V30 11343 C 1494.26 7.45087 3.67298 0
M  V30 11344 O 1495 7.27796 4.85194 0
M  V30 11345 C 1493.59 6.17323 3.12027 0
M  V30 11346 O 1494.39 5.04231 3.47188 0
M  V30 11347 C 1492.26 6.19961 3.81809 0
M  V30 11348 H 1492.29 5.58218 4.73051 0
M  V30 11349 H 1493.47 6.21726 2.02589 0
M  V30 11350 H 1494.96 7.86112 2.9231 0
M  V30 11351 H 1493.26 9.11627 4.55076 0
M  V30 11352 H 1493.07 9.9573 2.34194 0
M  V30 11353 H 1491.44 9.2792 2.67832 0
M  V30 11354 H 1494.08 4.67702 4.28772 0
M  V30 11355 P 1495.94 7.39546 4.75277 0
M  V30 11356 O 1497.36 7.81861 5.05793 0
M  V30 11357 O 1495.58 7.1065 3.32998 0
M  V30 11358 O 1495.62 6.04542 5.56673 0
M  V30 11359 C 1495.45 6.22839 7.02169 0
M  V30 11360 C 1496 4.97725 7.70406 0
M  V30 11361 O 1494.94 4.13208 7.58899 0
M  V30 11362 C 1497.21 4.28231 7.11815 0
M  V30 11363 O 1497.95 3.49945 8.01648 0
M  V30 11364 C 1496.55 3.5063 5.96244 0
M  V30 11365 O 1497.34 2.37008 5.64352 0
M  V30 11366 C 1495.21 3.15122 6.56374 0
M  V30 11367 N 1494.16 3.22311 5.55692 0
M  V30 11368 C 1494.33 3.99655 4.46046 0
M  V30 11369 N 1493.31 3.97599 3.63918 0
M  V30 11370 C 1492.42 3.11159 4.25334 0
M  V30 11371 C 1491.15 2.64972 3.85157 0
M  V30 11372 N 1490.59 1.78482 4.74759 0
M  V30 11373 C 1491.19 1.37463 5.90819 0
M  V30 11374 N 1492.37 1.7733 6.31889 0
M  V30 11375 C 1492.94 2.64393 5.43725 0
M  V30 11376 H 1496.42 4.12931 5.06895 0
M  V30 11377 H 1497.91 5.03285 6.70911 0
M  V30 11378 H 1496.21 5.20001 8.76217 0
M  V30 11379 H 1496.02 7.11046 7.35349 0
M  V30 11380 H 1494.39 6.35815 7.26986 0
M  V30 11381 H 1495.23 4.58037 4.27732 0
M  V30 11382 H 1497.03 1.61619 6.13468 0
M  V30 11383 P 1498.89 3.65191 7.99657 0
M  V30 11384 O 1500.31 3.8425 8.48115 0
M  V30 11385 O 1498.53 4.17805 6.64342 0
M  V30 11386 O 1498.57 2.07613 7.95143 0
M  V30 11387 C 1498.41 1.44328 9.27336 0
M  V30 11388 C 1498.95 0.0220036 9.17197 0
M  V30 11389 O 1497.89 -0.626867 8.61923 0
M  V30 11390 C 1500.16 -0.24586 8.30336 0
M  V30 11391 O 1500.9 -1.39011 8.63583 0
M  V30 11392 C 1499.5 -0.273849 6.91158 0
M  V30 11393 O 1500.29 -1.06348 6.02892 0
M  V30 11394 C 1498.16 -0.897649 7.22545 0
M  V30 11395 H 1498.19 -1.9841 7.04286 0
M  V30 11396 H 1499.37 0.739928 6.497 0
M  V30 11397 H 1500.86 0.60668 8.36503 0
M  V30 11398 H 1499.16 -0.352479 10.1829 0
M  V30 11399 H 1498.97 2.00611 10.0304 0
M  V30 11400 H 1497.34 1.41843 9.55327 0
M  V30 11401 H 1499.98 -1.95734 6.03555 0
M  V30 11402 P 1501.84 -1.25109 8.70152 0
M  V30 11403 O 1503.26 -1.35274 9.21221 0
M  V30 11404 O 1501.48 -0.0769065 7.84762 0
M  V30 11405 O 1501.52 -2.55232 7.81161 0
M  V30 11406 C 1501.36 -3.79939 8.58154 0
M  V30 11407 C 1501.9 -4.94023 7.72785 0
M  V30 11408 O 1500.84 -5.18726 6.91205 0
M  V30 11409 C 1503.12 -4.69597 6.85231 0
M  V30 11410 O 1503.85 -5.83832 6.51337 0
M  V30 11411 C 1502.45 -3.96706 5.66633 0
M  V30 11412 O 1503.25 -4.15414 4.49689 0
M  V30 11413 C 1501.11 -4.66153 5.59313 0
M  V30 11414 H 1501.14 -5.47679 4.85214 0
M  V30 11415 H 1502.32 -2.89008 5.86566 0
M  V30 11416 H 1503.81 -4.0121 7.36511 0
M  V30 11417 H 1502.11 -5.80182 8.37584 0
M  V30 11418 H 1501.92 -3.73517 9.52265 0
M  V30 11419 H 1500.29 -3.97163 8.80359 0
M  V30 11420 H 1502.93 -4.90969 4.01921 0
M  V30 11421 P 1504.79 -5.75688 6.64379 0
M  V30 11422 O 1506.21 -6.11849 7.01846 0
M  V30 11423 O 1504.43 -4.30744 6.56026 0
M  V30 11424 O 1504.47 -6.37042 5.19165 0
M  V30 11425 C 1504.31 -7.83578 5.16515 0
M  V30 11426 C 1504.85 -8.33398 3.83019 0
M  V30 11427 O 1503.79 -8.10074 3.01034 0
M  V30 11428 C 1506.07 -7.65514 3.2257 0
M  V30 11429 O 1506.8 -8.4329 2.32297 0
M  V30 11430 C 1505.4 -6.40075 2.62207 0
M  V30 11431 O 1506.2 -5.92589 1.53712 0
M  V30 11432 C 1504.06 -6.9454 2.18503 0
M  V30 11433 H 1504.09 -7.23063 1.12091 0
M  V30 11434 H 1505.27 -5.6025 3.37201 0
M  V30 11435 H 1506.76 -7.35707 4.02681 0
M  V30 11436 H 1505.06 -9.40912 3.9095 0
M  V30 11437 H 1504.87 -8.29056 5.99158 0
M  V30 11438 H 1503.24 -8.10073 5.25882 0
M  V30 11439 H 1505.88 -6.30324 0.726794 0
M  V30 11440 P 1507.74 -8.4349 2.47671 0
M  V30 11441 O 1509.16 -8.94167 2.5964 0
M  V30 11442 O 1507.38 -7.1704 3.19006 0
M  V30 11443 O 1507.42 -8.16596 0.923387 0
M  V30 11444 C 1507.26 -9.38437 0.108857 0
M  V30 11445 C 1507.8 -9.08175 -1.28353 0
M  V30 11446 O 1506.74 -8.44229 -1.84713 0
M  V30 11447 C 1509.02 -8.18386 -1.42505 0
M  V30 11448 O 1509.75 -8.3501 -2.60497 0
M  V30 11449 C 1508.35 -6.80225 -1.25468 0
M  V30 11450 O 1509.15 -5.81621 -1.91066 0
M  V30 11451 C 1507.01 -7.02416 -1.9168 0
M  V30 11452 H 1507.04 -6.6888 -2.96621 0
M  V30 11453 H 1508.23 -6.53617 -0.192223 0
M  V30 11454 H 1509.71 -8.36622 -0.589963 0
M  V30 11455 H 1508.02 -10.0291 -1.79807 0
M  V30 11456 H 1507.83 -10.2138 0.558219 0
M  V30 11457 H 1506.2 -9.6579 0.0444202 0
M  V30 11458 H 1508.83 -5.69556 -2.79637 0
M  V30 11459 P 1510.69 -8.4349 -2.47671 0
M  V30 11460 O 1512.11 -8.92593 -2.65 0
M  V30 11461 O 1510.33 -7.7568 -1.19296 0
M  V30 11462 O 1510.37 -7.36886 -3.63805 0
M  V30 11463 C 1510.21 -7.95349 -4.982 0
M  V30 11464 C 1510.75 -6.94612 -5.98974 0
M  V30 11465 O 1509.69 -6.10347 -6.11815 0
M  V30 11466 C 1511.97 -6.11426 -5.62335 0
M  V30 11467 O 1512.7 -5.6162 -6.70584 0
M  V30 11468 C 1511.3 -5.04409 -4.73308 0
M  V30 11469 O 1512.1 -3.85992 -4.75183 0
M  V30 11470 C 1509.96 -4.8728 -5.41006 0
M  V30 11471 H 1509.99 -4.02333 -6.11157 0
M  V30 11472 H 1511.18 -5.39466 -3.69543 0
M  V30 11473 H 1512.66 -6.71916 -5.01943 0
M  V30 11474 H 1510.97 -7.4649 -6.93477 0
M  V30 11475 H 1510.78 -8.89416 -5.05237 0
M  V30 11476 H 1509.15 -8.14876 -5.18409 0
M  V30 11477 H 1511.78 -3.27957 -5.4317 0
M  V30 11478 P 1513.64 -5.75688 -6.64379 0
M  V30 11479 O 1515.06 -6.07627 -7.05504 0
M  V30 11480 O 1513.28 -5.88047 -5.19722 0
M  V30 11481 O 1513.32 -4.2322 -7.04443 0
M  V30 11482 C 1513.16 -3.99743 -8.4911 0
M  V30 11483 C 1513.7 -2.60516 -8.79425 0
M  V30 11484 O 1512.64 -1.82684 -8.4467 0
M  V30 11485 C 1514.92 -2.10343 -8.03628 0
M  V30 11486 O 1515.66 -1.09919 -8.67766 0
M  V30 11487 C 1514.25 -1.68446 -6.70876 0
M  V30 11488 O 1515.05 -0.678137 -6.08433 0
M  V30 11489 C 1512.91 -1.17436 -7.18567 0
M  V30 11490 H 1512.94 -0.0804732 -7.31656 0
M  V30 11491 H 1514.13 -2.54037 -6.02537 0
M  V30 11492 H 1515.61 -2.93881 -7.85526 0
M  V30 11493 H 1513.92 -2.53065 -9.86973 0
M  V30 11494 H 1513.73 -4.75072 -9.05887 0
M  V30 11495 H 1512.1 -4.05244 -8.76668 0
M  V30 11496 H 1514.74 0.177647 -6.34251 0
M  V30 11497 P 1516.59 -1.25109 -8.70152 0
M  V30 11498 O 1518.01 -1.29744 -9.22016 0
M  V30 11499 O 1516.23 -2.13714 -7.55141 0
M  V30 11500 O 1516.27 0.248149 -8.21425 0
M  V30 11501 C 1516.11 1.22779 -9.30434 0
M  V30 11502 C 1516.65 2.56293 -8.80664 0
M  V30 11503 O 1515.59 3.02979 -8.09349 0
M  V30 11504 C 1517.87 2.57523 -7.89775 0
M  V30 11505 O 1518.61 3.7668 -7.89438 0
M  V30 11506 C 1517.2 2.20997 -6.55446 0
M  V30 11507 O 1518 2.71895 -5.48509 0
M  V30 11508 C 1515.86 2.89693 -6.67988 0
M  V30 11509 H 1515.89 3.88793 -6.19859 0
M  V30 11510 H 1517.08 1.12046 -6.44229 0
M  V30 11511 H 1518.56 1.7746 -8.19711 0
M  V30 11512 H 1516.87 3.20706 -9.67112 0
M  V30 11513 H 1516.68 0.901032 -10.1892 0
M  V30 11514 H 1515.05 1.33049 -9.56592 0
M  V30 11515 H 1517.69 3.57847 -5.23962 0
M  V30 11516 P 1519.54 3.65191 -7.99657 0
M  V30 11517 O 1520.96 3.89374 -8.45885 0
M  V30 11518 O 1519.18 2.28472 -7.50807 0
M  V30 11519 O 1519.22 4.64972 -6.77611 0
M  V30 11520 C 1519.06 6.06383 -7.16428 0
M  V30 11521 C 1519.6 6.91731 -6.02299 0
M  V30 11522 O 1518.55 6.92369 -5.17005 0
M  V30 11523 C 1520.82 6.43627 -5.25174 0
M  V30 11524 O 1521.56 7.43686 -4.60469 0
M  V30 11525 C 1520.15 5.40275 -4.31916 0
M  V30 11526 O 1520.95 5.24878 -3.14911 0
M  V30 11527 C 1518.81 6.04847 -4.05327 0
M  V30 11528 N 1517.77 5.04166 -3.98114 0
M  V30 11529 C 1517.94 3.84629 -4.59066 0
M  V30 11530 N 1516.91 3.0363 -4.45343 0
M  V30 11531 C 1516.03 3.76722 -3.68523 0
M  V30 11532 C 1514.76 3.43528 -3.17088 0
M  V30 11533 N 1514.16 2.23665 -3.37397 0
M  V30 11534 N 1514.19 4.44526 -2.44231 0
M  V30 11535 C 1514.8 5.65243 -2.20146 0
M  V30 11536 N 1515.97 6.00221 -2.65453 0
M  V30 11537 C 1516.55 5.00564 -3.39083 0
M  V30 11538 H 1518.84 6.62104 -3.11218 0
M  V30 11539 H 1520.03 4.42969 -4.80867 0
M  V30 11540 H 1521.51 5.92458 -5.93643 0
M  V30 11541 H 1519.82 7.93295 -6.39407 0
M  V30 11542 H 1519.63 6.26671 -8.0846 0
M  V30 11543 H 1518 6.29101 -7.32804 0
M  V30 11544 H 1514.26 6.36894 -1.5883 0
M  V30 11545 H 1518.84 3.58193 -5.14248 0
M  V30 11546 H 1513.23 2.05145 -2.97047 0
M  V30 11547 H 1514.63 1.51255 -3.92998 0
M  V30 11548 H 1520.64 5.84223 -2.47279 0
M  V30 11549 P 1522.49 7.39546 -4.75277 0
M  V30 11550 O 1523.92 7.84798 -5.01039 0
M  V30 11551 O 1522.13 5.9812 -5.08098 0
M  V30 11552 O 1522.17 7.57503 -3.1866 0
M  V30 11553 C 1522.01 8.97357 -2.74833 0
M  V30 11554 C 1522.55 9.07548 -1.32709 0
M  V30 11555 O 1521.5 8.62072 -0.606159 0
M  V30 11556 C 1523.77 8.25383 -0.938334 0
M  V30 11557 O 1524.51 8.74577 0.146954 0
M  V30 11558 C 1523.1 6.8802 -0.712559 0
M  V30 11559 O 1523.9 6.1189 0.194655 0
M  V30 11560 C 1521.76 7.27966 -0.139777 0
M  V30 11561 H 1521.8 7.25354 0.961601 0
M  V30 11562 H 1522.98 6.32557 -1.65702 0
M  V30 11563 H 1524.46 8.19355 -1.79097 0
M  V30 11564 H 1522.77 10.1294 -1.10029 0
M  V30 11565 H 1522.58 9.64276 -3.41316 0
M  V30 11566 H 1520.95 9.25417 -2.76357 0
M  V30 11567 H 1523.59 6.25267 1.07847 0
M  V30 11568 P 1525.44 8.791 1.2579e-11 0
M  V30 11569 O 1526.87 9.31096 0.027933 0
M  V30 11570 O 1525.08 7.77869 -1.04071 0
M  V30 11571 O 1525.12 8.09533 1.41463 0
M  V30 11572 C 1524.96 9.0349 2.53943 0
M  V30 11573 C 1525.5 8.35226 3.79016 0
M  V30 11574 O 1524.45 7.57992 4.15078 0
M  V30 11575 C 1526.72 7.45087 3.67298 0
M  V30 11576 O 1527.46 7.27796 4.85194 0
M  V30 11577 C 1526.05 6.17323 3.12027 0
M  V30 11578 O 1526.85 5.04231 3.47188 0
M  V30 11579 C 1524.71 6.19961 3.81809 0
M  V30 11580 H 1524.75 5.58218 4.73051 0
M  V30 11581 H 1525.93 6.21726 2.02589 0
M  V30 11582 H 1527.41 7.86112 2.9231 0
M  V30 11583 H 1525.72 9.11627 4.55076 0
M  V30 11584 H 1525.53 9.9573 2.34194 0
M  V30 11585 H 1523.9 9.2792 2.67832 0
M  V30 11586 H 1526.54 4.67702 4.28772 0
M  V30 11587 P 1528.4 7.39546 4.75277 0
M  V30 11588 O 1529.82 7.81777 5.05738 0
M  V30 11589 O 1528.04 7.1065 3.32998 0
M  V30 11590 O 1528.07 6.04542 5.56673 0
M  V30 11591 C 1527.91 6.22772 7.02095 0
M  V30 11592 C 1528.45 4.97725 7.70406 0
M  V30 11593 O 1527.4 4.13256 7.58987 0
M  V30 11594 C 1529.67 4.28231 7.11815 0
M  V30 11595 O 1530.41 3.49945 8.01648 0
M  V30 11596 C 1529 3.5063 5.96244 0
M  V30 11597 O 1529.8 2.36482 5.64681 0
M  V30 11598 C 1527.66 3.15122 6.56374 0
M  V30 11599 H 1527.7 2.13853 6.99751 0
M  V30 11600 H 1528.88 4.13501 5.06559 0
M  V30 11601 H 1530.36 5.03285 6.70911 0
M  V30 11602 H 1528.67 5.20877 8.75697 0
M  V30 11603 H 1528.48 7.11046 7.35349 0
M  V30 11604 H 1526.85 6.35815 7.26986 0
M  V30 11605 H 1529.49 1.61644 6.13565 0
M  V30 11606 P 1531.35 3.65191 7.99657 0
M  V30 11607 O 1532.77 3.8425 8.48115 0
M  V30 11608 O 1530.99 4.17805 6.64342 0
M  V30 11609 O 1531.02 2.07613 7.95143 0
M  V30 11610 C 1530.86 1.44328 9.27336 0
M  V30 11611 C 1531.4 0.0220036 9.17197 0
M  V30 11612 O 1530.35 -0.626867 8.61923 0
M  V30 11613 C 1532.62 -0.24586 8.30336 0
M  V30 11614 O 1533.36 -1.39011 8.63583 0
M  V30 11615 C 1531.95 -0.273849 6.91158 0
M  V30 11616 O 1532.75 -1.06348 6.02892 0
M  V30 11617 C 1530.61 -0.897649 7.22545 0
M  V30 11618 H 1530.65 -1.9841 7.04286 0
M  V30 11619 H 1531.83 0.739928 6.497 0
M  V30 11620 H 1533.31 0.60668 8.36503 0
M  V30 11621 H 1531.62 -0.352479 10.1829 0
M  V30 11622 H 1531.43 2.00611 10.0304 0
M  V30 11623 H 1529.8 1.41843 9.55327 0
M  V30 11624 H 1532.44 -1.95734 6.03555 0
M  V30 11625 P 1534.3 -1.25109 8.70152 0
M  V30 11626 O 1535.72 -1.35274 9.21221 0
M  V30 11627 O 1533.94 -0.0769065 7.84762 0
M  V30 11628 O 1533.97 -2.55232 7.81161 0
M  V30 11629 C 1533.81 -3.79939 8.58154 0
M  V30 11630 C 1534.35 -4.94023 7.72785 0
M  V30 11631 O 1533.3 -5.18726 6.91205 0
M  V30 11632 C 1535.57 -4.69597 6.85231 0
M  V30 11633 O 1536.31 -5.83832 6.51337 0
M  V30 11634 C 1534.9 -3.96706 5.66633 0
M  V30 11635 O 1535.7 -4.15414 4.49689 0
M  V30 11636 C 1533.57 -4.66153 5.59313 0
M  V30 11637 H 1533.6 -5.47679 4.85214 0
M  V30 11638 H 1534.78 -2.89008 5.86566 0
M  V30 11639 H 1536.26 -4.0121 7.36511 0
M  V30 11640 H 1534.57 -5.80182 8.37584 0
M  V30 11641 H 1534.38 -3.73517 9.52265 0
M  V30 11642 H 1532.75 -3.97163 8.80359 0
M  V30 11643 H 1535.39 -4.90969 4.01921 0
M  V30 11644 P 1537.25 -5.75688 6.64379 0
M  V30 11645 O 1538.67 -6.11849 7.01846 0
M  V30 11646 O 1536.89 -4.30744 6.56026 0
M  V30 11647 O 1536.92 -6.37042 5.19165 0
M  V30 11648 C 1536.76 -7.83578 5.16515 0
M  V30 11649 C 1537.3 -8.33398 3.83019 0
M  V30 11650 O 1536.25 -8.10074 3.01034 0
M  V30 11651 C 1538.52 -7.65514 3.2257 0
M  V30 11652 O 1539.26 -8.4329 2.32297 0
M  V30 11653 C 1537.85 -6.40075 2.62207 0
M  V30 11654 O 1538.65 -5.92589 1.53712 0
M  V30 11655 C 1536.52 -6.9454 2.18503 0
M  V30 11656 H 1536.55 -7.23063 1.12091 0
M  V30 11657 H 1537.73 -5.6025 3.37201 0
M  V30 11658 H 1539.21 -7.35707 4.02681 0
M  V30 11659 H 1537.52 -9.40912 3.9095 0
M  V30 11660 H 1537.33 -8.29056 5.99158 0
M  V30 11661 H 1535.7 -8.10073 5.25882 0
M  V30 11662 H 1538.34 -6.30324 0.726794 0
M  V30 11663 P 1540.2 -8.4349 2.47671 0
M  V30 11664 O 1541.62 -8.94167 2.5964 0
M  V30 11665 O 1539.84 -7.1704 3.19006 0
M  V30 11666 O 1539.87 -8.16596 0.923387 0
M  V30 11667 C 1539.71 -9.38437 0.108857 0
M  V30 11668 C 1540.25 -9.08175 -1.28353 0
M  V30 11669 O 1539.2 -8.44229 -1.84713 0
M  V30 11670 C 1541.47 -8.18386 -1.42505 0
M  V30 11671 O 1542.21 -8.3501 -2.60497 0
M  V30 11672 C 1540.8 -6.80225 -1.25468 0
M  V30 11673 O 1541.6 -5.81621 -1.91066 0
M  V30 11674 C 1539.47 -7.02416 -1.9168 0
M  V30 11675 H 1539.5 -6.6888 -2.96621 0
M  V30 11676 H 1540.68 -6.53617 -0.192223 0
M  V30 11677 H 1542.17 -8.36622 -0.589963 0
M  V30 11678 H 1540.47 -10.0291 -1.79807 0
M  V30 11679 H 1540.28 -10.2138 0.558219 0
M  V30 11680 H 1538.65 -9.6579 0.0444202 0
M  V30 11681 H 1541.29 -5.69556 -2.79637 0
M  V30 11682 P 1543.15 -8.4349 -2.47671 0
M  V30 11683 O 1544.57 -8.92593 -2.65 0
M  V30 11684 O 1542.79 -7.7568 -1.19296 0
M  V30 11685 O 1542.83 -7.36886 -3.63805 0
M  V30 11686 C 1542.67 -7.95349 -4.982 0
M  V30 11687 C 1543.21 -6.94612 -5.98974 0
M  V30 11688 O 1542.15 -6.10347 -6.11815 0
M  V30 11689 C 1544.42 -6.11426 -5.62335 0
M  V30 11690 O 1545.16 -5.6162 -6.70584 0
M  V30 11691 C 1543.75 -5.04409 -4.73308 0
M  V30 11692 O 1544.55 -3.85992 -4.75183 0
M  V30 11693 C 1542.42 -4.8728 -5.41006 0
M  V30 11694 H 1542.45 -4.02333 -6.11157 0
M  V30 11695 H 1543.63 -5.39466 -3.69543 0
M  V30 11696 H 1545.12 -6.71916 -5.01943 0
M  V30 11697 H 1543.42 -7.4649 -6.93477 0
M  V30 11698 H 1543.23 -8.89416 -5.05237 0
M  V30 11699 H 1541.6 -8.14876 -5.18409 0
M  V30 11700 H 1544.24 -3.27957 -5.4317 0
M  V30 11701 P 1546.1 -5.75688 -6.64379 0
M  V30 11702 O 1547.52 -6.07692 -7.0558 0
M  V30 11703 O 1545.74 -5.88047 -5.19722 0
M  V30 11704 O 1545.78 -4.2322 -7.04443 0
M  V30 11705 C 1545.61 -3.99785 -8.49201 0
M  V30 11706 C 1546.16 -2.60516 -8.79425 0
M  V30 11707 O 1545.1 -1.82663 -8.44573 0
M  V30 11708 C 1547.37 -2.10343 -8.03628 0
M  V30 11709 O 1548.11 -1.09919 -8.67766 0
M  V30 11710 C 1546.71 -1.68446 -6.70876 0
M  V30 11711 O 1547.5 -0.684109 -6.08265 0
M  V30 11712 C 1545.37 -1.17436 -7.18567 0
M  V30 11713 N 1544.32 -1.52699 -6.23988 0
M  V30 11714 C 1544.49 -2.578 -5.40574 0
M  V30 11715 N 1543.47 -2.78966 -4.61193 0
M  V30 11716 C 1542.58 -1.78725 -4.95769 0
M  V30 11717 C 1541.31 -1.45727 -4.44207 0
M  V30 11718 N 1540.75 -0.374977 -5.05812 0
M  V30 11719 C 1541.35 0.345585 -6.05615 0
M  V30 11720 N 1542.53 0.0787651 -6.56253 0
M  V30 11721 C 1543.1 -1.00499 -5.96189 0
M  V30 11722 H 1546.58 -2.53396 -6.02698 0
M  V30 11723 H 1548.07 -2.93881 -7.85526 0
M  V30 11724 H 1546.37 -2.52078 -9.87225 0
M  V30 11725 H 1546.18 -4.75072 -9.05887 0
M  V30 11726 H 1544.55 -4.05244 -8.76668 0
M  V30 11727 H 1545.39 -3.18977 -5.3945 0
M  V30 11728 H 1547.19 0.177619 -6.34151 0
M  V30 11729 P 1549.05 -1.25109 -8.70152 0
M  V30 11730 O 1550.47 -1.29744 -9.22016 0
M  V30 11731 O 1548.69 -2.13714 -7.55141 0
M  V30 11732 O 1548.73 0.248149 -8.21425 0
M  V30 11733 C 1548.57 1.22779 -9.30434 0
M  V30 11734 C 1549.11 2.56293 -8.80664 0
M  V30 11735 O 1548.05 3.02979 -8.09349 0
M  V30 11736 C 1550.32 2.57523 -7.89775 0
M  V30 11737 O 1551.06 3.7668 -7.89438 0
M  V30 11738 C 1549.66 2.20997 -6.55446 0
M  V30 11739 O 1550.45 2.71895 -5.48509 0
M  V30 11740 C 1548.32 2.89693 -6.67988 0
M  V30 11741 H 1548.35 3.88793 -6.19859 0
M  V30 11742 H 1549.53 1.12046 -6.44229 0
M  V30 11743 H 1551.02 1.7746 -8.19711 0
M  V30 11744 H 1549.32 3.20706 -9.67112 0
M  V30 11745 H 1549.13 0.901032 -10.1892 0
M  V30 11746 H 1547.5 1.33049 -9.56592 0
M  V30 11747 H 1550.14 3.57847 -5.23962 0
M  V30 11748 P 1552 3.65191 -7.99657 0
M  V30 11749 O 1553.42 3.89332 -8.45794 0
M  V30 11750 O 1551.64 2.28472 -7.50807 0
M  V30 11751 O 1551.68 4.64972 -6.77611 0
M  V30 11752 C 1551.52 6.06319 -7.16352 0
M  V30 11753 C 1552.06 6.91731 -6.02299 0
M  V30 11754 O 1551 6.92449 -5.17064 0
M  V30 11755 C 1553.27 6.43627 -5.25174 0
M  V30 11756 O 1554.01 7.43686 -4.60469 0
M  V30 11757 C 1552.61 5.40275 -4.31916 0
M  V30 11758 O 1553.4 5.25279 -3.14438 0
M  V30 11759 C 1551.27 6.04847 -4.05327 0
M  V30 11760 H 1551.3 6.62195 -3.11261 0
M  V30 11761 H 1552.48 4.42556 -4.81383 0
M  V30 11762 H 1553.97 5.92458 -5.93643 0
M  V30 11763 H 1552.27 7.92655 -6.402 0
M  V30 11764 H 1552.08 6.26671 -8.0846 0
M  V30 11765 H 1550.45 6.29101 -7.32804 0
M  V30 11766 H 1553.09 5.84315 -2.47318 0
M  V30 11767 P 1554.95 7.39546 -4.75277 0
M  V30 11768 O 1556.37 7.84798 -5.01039 0
M  V30 11769 O 1554.59 5.9812 -5.08098 0
M  V30 11770 O 1554.63 7.57503 -3.1866 0
M  V30 11771 C 1554.47 8.97357 -2.74833 0
M  V30 11772 C 1555.01 9.07548 -1.32709 0
M  V30 11773 O 1553.95 8.62072 -0.606159 0
M  V30 11774 C 1556.23 8.25383 -0.938334 0
M  V30 11775 O 1556.96 8.74577 0.146954 0
M  V30 11776 C 1555.56 6.8802 -0.712559 0
M  V30 11777 O 1556.36 6.1189 0.194655 0
M  V30 11778 C 1554.22 7.27966 -0.139777 0
M  V30 11779 H 1554.25 7.25354 0.961601 0
M  V30 11780 H 1555.43 6.32557 -1.65702 0
M  V30 11781 H 1556.92 8.19355 -1.79097 0
M  V30 11782 H 1555.22 10.1294 -1.10029 0
M  V30 11783 H 1555.03 9.64276 -3.41316 0
M  V30 11784 H 1553.4 9.25417 -2.76357 0
M  V30 11785 H 1556.04 6.25267 1.07847 0
M  V30 11786 P 1557.9 8.791 1.28891e-11 0
M  V30 11787 O 1559.32 9.31096 0.027933 0
M  V30 11788 O 1557.54 7.77869 -1.04071 0
M  V30 11789 O 1557.58 8.09533 1.41463 0
M  V30 11790 C 1557.42 9.0349 2.53943 0
M  V30 11791 C 1557.96 8.35226 3.79016 0
M  V30 11792 O 1556.9 7.57992 4.15078 0
M  V30 11793 C 1559.18 7.45087 3.67298 0
M  V30 11794 O 1559.91 7.27796 4.85194 0
M  V30 11795 C 1558.51 6.17323 3.12027 0
M  V30 11796 O 1559.31 5.04231 3.47188 0
M  V30 11797 C 1557.17 6.19961 3.81809 0
M  V30 11798 H 1557.2 5.58218 4.73051 0
M  V30 11799 H 1558.38 6.21726 2.02589 0
M  V30 11800 H 1559.87 7.86112 2.9231 0
M  V30 11801 H 1558.17 9.11627 4.55076 0
M  V30 11802 H 1557.98 9.9573 2.34194 0
M  V30 11803 H 1556.35 9.2792 2.67832 0
M  V30 11804 H 1558.99 4.67702 4.28772 0
M  V30 11805 P 1560.85 7.39546 4.75277 0
M  V30 11806 O 1562.27 7.81777 5.05738 0
M  V30 11807 O 1560.49 7.1065 3.32998 0
M  V30 11808 O 1560.53 6.04542 5.56673 0
M  V30 11809 C 1560.37 6.22772 7.02095 0
M  V30 11810 C 1560.91 4.97725 7.70406 0
M  V30 11811 O 1559.85 4.13256 7.58987 0
M  V30 11812 C 1562.13 4.28231 7.11815 0
M  V30 11813 O 1562.86 3.49945 8.01648 0
M  V30 11814 C 1561.46 3.5063 5.96244 0
M  V30 11815 O 1562.26 2.36482 5.64681 0
M  V30 11816 C 1560.12 3.15122 6.56374 0
M  V30 11817 H 1560.15 2.13853 6.99751 0
M  V30 11818 H 1561.34 4.13501 5.06559 0
M  V30 11819 H 1562.82 5.03285 6.70911 0
M  V30 11820 H 1561.13 5.20877 8.75697 0
M  V30 11821 H 1560.94 7.11046 7.35349 0
M  V30 11822 H 1559.31 6.35815 7.26986 0
M  V30 11823 H 1561.94 1.61644 6.13565 0
M  V30 11824 P 1563.8 3.65191 7.99657 0
M  V30 11825 O 1565.22 3.8425 8.48115 0
M  V30 11826 O 1563.44 4.17805 6.64342 0
M  V30 11827 O 1563.48 2.07613 7.95143 0
M  V30 11828 C 1563.32 1.44328 9.27336 0
M  V30 11829 C 1563.86 0.0220036 9.17197 0
M  V30 11830 O 1562.8 -0.626867 8.61923 0
M  V30 11831 C 1565.08 -0.24586 8.30336 0
M  V30 11832 O 1565.82 -1.39011 8.63583 0
M  V30 11833 C 1564.41 -0.273849 6.91158 0
M  V30 11834 O 1565.21 -1.06348 6.02892 0
M  V30 11835 C 1563.07 -0.897649 7.22545 0
M  V30 11836 H 1563.1 -1.9841 7.04286 0
M  V30 11837 H 1564.29 0.739928 6.497 0
M  V30 11838 H 1565.77 0.60668 8.36503 0
M  V30 11839 H 1564.08 -0.352479 10.1829 0
M  V30 11840 H 1563.89 2.00611 10.0304 0
M  V30 11841 H 1562.26 1.41843 9.55327 0
M  V30 11842 H 1564.9 -1.95734 6.03555 0
M  V30 11843 P 1566.75 -1.25109 8.70152 0
M  V30 11844 O 1568.17 -1.35303 9.21419 0
M  V30 11845 O 1566.39 -0.0769065 7.84762 0
M  V30 11846 O 1566.43 -2.55232 7.81161 0
M  V30 11847 C 1566.27 -3.79939 8.58154 0
M  V30 11848 C 1566.81 -4.93969 7.72701 0
M  V30 11849 O 1565.75 -5.18726 6.91205 0
M  V30 11850 C 1568.03 -4.69597 6.85231 0
M  V30 11851 O 1568.77 -5.83832 6.51337 0
M  V30 11852 C 1567.36 -3.96706 5.66633 0
M  V30 11853 O 1568.16 -4.15346 4.49615 0
M  V30 11854 C 1566.02 -4.66153 5.59313 0
M  V30 11855 N 1564.98 -3.71582 5.24027 0
M  V30 11856 C 1565.04 -2.46018 5.67902 0
M  V30 11857 N 1564 -1.74868 5.24518 0
M  V30 11858 C 1563.26 -2.61333 4.54528 0
M  V30 11859 C 1561.96 -2.46162 3.95441 0
M  V30 11860 O 1561.22 -1.46013 3.94122 0
M  V30 11861 N 1561.53 -3.59334 3.34752 0
M  V30 11862 C 1562.27 -4.79605 3.3023 0
M  V30 11863 N 1561.68 -5.82109 2.6065 0
M  V30 11864 N 1563.43 -4.97402 3.8843 0
M  V30 11865 C 1563.88 -3.86258 4.50476 0
M  V30 11866 H 1566.05 -5.47679 4.85214 0
M  V30 11867 H 1567.24 -2.88964 5.86476 0
M  V30 11868 H 1568.72 -4.01947 7.36109 0
M  V30 11869 H 1567.03 -5.80182 8.37584 0
M  V30 11870 H 1566.84 -3.73517 9.52265 0
M  V30 11871 H 1565.21 -3.97163 8.80359 0
M  V30 11872 H 1560.63 -3.5825 2.90294 0
M  V30 11873 H 1565.84 -2.06161 6.30974 0
M  V30 11874 H 1560.77 -5.66979 2.15354 0
M  V30 11875 H 1562.14 -6.73686 2.54344 0
M  V30 11876 H 1567.85 -4.90891 4.01857 0
M  V30 11877 P 1569.7 -5.75688 6.64379 0
M  V30 11878 O 1571.13 -6.11981 7.01997 0
M  V30 11879 O 1569.34 -4.30744 6.56026 0
M  V30 11880 O 1569.38 -6.37042 5.19165 0
M  V30 11881 C 1569.22 -7.83578 5.16515 0
M  V30 11882 C 1569.76 -8.33307 3.82977 0
M  V30 11883 O 1568.71 -8.10074 3.01034 0
M  V30 11884 C 1570.98 -7.65514 3.2257 0
M  V30 11885 O 1571.72 -8.4329 2.32297 0
M  V30 11886 C 1570.31 -6.40075 2.62207 0
M  V30 11887 O 1571.11 -5.92492 1.53687 0
M  V30 11888 C 1568.97 -6.9454 2.18503 0
M  V30 11889 N 1567.93 -5.95905 2.39948 0
M  V30 11890 C 1567.99 -5.13994 3.44742 0
M  V30 11891 N 1566.95 -4.30684 3.46712 0
M  V30 11892 C 1566.21 -4.65583 2.41086 0
M  V30 11893 C 1564.91 -4.20877 1.99581 0
M  V30 11894 O 1564.17 -3.35913 2.52616 0
M  V30 11895 N 1564.48 -4.83271 0.873406 0
M  V30 11896 C 1565.23 -5.82006 0.185129 0
M  V30 11897 N 1564.63 -6.30619 -0.95439 0
M  V30 11898 N 1566.38 -6.28443 0.578524 0
M  V30 11899 C 1566.84 -5.68486 1.70138 0
M  V30 11900 H 1569 -7.23063 1.12091 0
M  V30 11901 H 1570.19 -5.60165 3.3715 0
M  V30 11902 H 1571.67 -7.3611 4.01946 0
M  V30 11903 H 1569.98 -9.40912 3.9095 0
M  V30 11904 H 1569.79 -8.29056 5.99158 0
M  V30 11905 H 1568.16 -8.10073 5.25882 0
M  V30 11906 H 1563.58 -4.58323 0.505262 0
M  V30 11907 H 1568.79 -5.14564 4.1935 0
M  V30 11908 H 1563.72 -5.93402 -1.25364 0
M  V30 11909 H 1565.09 -7.0425 -1.50254 0
M  V30 11910 H 1570.8 -6.30224 0.72668 0
M  V30 11911 P 1572.65 -8.4349 2.47671 0
M  V30 11912 O 1574.07 -8.94263 2.59668 0
M  V30 11913 O 1572.29 -7.1704 3.19006 0
M  V30 11914 O 1572.33 -8.16596 0.923387 0
M  V30 11915 C 1572.17 -9.38537 0.108869 0
M  V30 11916 C 1572.71 -9.08175 -1.28353 0
M  V30 11917 O 1571.66 -8.44131 -1.84692 0
M  V30 11918 C 1573.93 -8.18386 -1.42505 0
M  V30 11919 O 1574.67 -8.3501 -2.60497 0
M  V30 11920 C 1573.26 -6.80225 -1.25468 0
M  V30 11921 O 1574.06 -5.81716 -1.90454 0
M  V30 11922 C 1571.92 -7.02416 -1.9168 0
M  V30 11923 N 1570.88 -6.31033 -1.20314 0
M  V30 11924 C 1571.05 -5.98817 0.0994088 0
M  V30 11925 N 1570.02 -5.35403 0.621694 0
M  V30 11926 C 1569.14 -5.25212 -0.43376 0
M  V30 11927 C 1567.87 -4.64602 -0.519722 0
M  V30 11928 N 1567.3 -4.7568 -1.76013 0
M  V30 11929 C 1567.91 -5.3653 -2.83017 0
M  V30 11930 N 1569.08 -5.93676 -2.79782 0
M  V30 11931 C 1569.66 -5.84061 -1.56249 0
M  V30 11932 H 1573.14 -6.53498 -0.198729 0
M  V30 11933 H 1574.62 -8.36622 -0.589963 0
M  V30 11934 H 1572.93 -10.0273 -1.8081 0
M  V30 11935 H 1572.74 -10.2138 0.558219 0
M  V30 11936 H 1571.11 -9.6579 0.0444202 0
M  V30 11937 H 1571.95 -6.23209 0.660562 0
M  V30 11938 H 1573.75 -5.69466 -2.79593 0
M  V30 11939 P 1575.6 -8.4349 -2.47671 0
M  V30 11940 O 1577.03 -8.92593 -2.65 0
M  V30 11941 O 1575.24 -7.7568 -1.19296 0
M  V30 11942 O 1575.28 -7.36886 -3.63805 0
M  V30 11943 C 1575.12 -7.95349 -4.982 0
M  V30 11944 C 1575.66 -6.94612 -5.98974 0
M  V30 11945 O 1574.61 -6.10347 -6.11815 0
M  V30 11946 C 1576.88 -6.11426 -5.62335 0
M  V30 11947 O 1577.62 -5.6162 -6.70584 0
M  V30 11948 C 1576.21 -5.04409 -4.73308 0
M  V30 11949 O 1577.01 -3.85992 -4.75183 0
M  V30 11950 C 1574.87 -4.8728 -5.41006 0
M  V30 11951 H 1574.91 -4.02333 -6.11157 0
M  V30 11952 H 1576.09 -5.39466 -3.69543 0
M  V30 11953 H 1577.57 -6.71916 -5.01943 0
M  V30 11954 H 1575.88 -7.4649 -6.93477 0
M  V30 11955 H 1575.69 -8.89416 -5.05237 0
M  V30 11956 H 1574.06 -8.14876 -5.18409 0
M  V30 11957 H 1576.7 -3.27957 -5.4317 0
M  V30 11958 P 1578.55 -5.75688 -6.64379 0
M  V30 11959 O 1579.98 -6.07692 -7.0558 0
M  V30 11960 O 1578.19 -5.88047 -5.19722 0
M  V30 11961 O 1578.23 -4.2322 -7.04443 0
M  V30 11962 C 1578.07 -3.99785 -8.49201 0
M  V30 11963 C 1578.61 -2.60516 -8.79425 0
M  V30 11964 O 1577.56 -1.82663 -8.44573 0
M  V30 11965 C 1579.83 -2.10343 -8.03628 0
M  V30 11966 O 1580.57 -1.09919 -8.67766 0
M  V30 11967 C 1579.16 -1.68446 -6.70876 0
M  V30 11968 O 1579.96 -0.684109 -6.08265 0
M  V30 11969 C 1577.82 -1.17436 -7.18567 0
M  V30 11970 N 1576.78 -1.52699 -6.23988 0
M  V30 11971 C 1576.95 -2.578 -5.40574 0
M  V30 11972 N 1575.92 -2.78966 -4.61193 0
M  V30 11973 C 1575.04 -1.78725 -4.95769 0
M  V30 11974 C 1573.77 -1.45727 -4.44207 0
M  V30 11975 N 1573.17 -2.13994 -3.43613 0
M  V30 11976 N 1573.21 -0.374977 -5.05812 0
M  V30 11977 C 1573.81 0.345585 -6.05615 0
M  V30 11978 N 1574.98 0.0787651 -6.56253 0
M  V30 11979 C 1575.56 -1.00499 -5.96189 0
M  V30 11980 H 1577.86 -0.0804622 -7.31556 0
M  V30 11981 H 1579.04 -2.53396 -6.02698 0
M  V30 11982 H 1580.52 -2.93881 -7.85526 0
M  V30 11983 H 1578.83 -2.52078 -9.87225 0
M  V30 11984 H 1578.64 -4.75072 -9.05887 0
M  V30 11985 H 1577.01 -4.05244 -8.76668 0
M  V30 11986 H 1573.27 1.20098 -6.4532 0
M  V30 11987 H 1577.85 -3.18977 -5.3945 0
M  V30 11988 H 1572.24 -1.84983 -3.10004 0
M  V30 11989 H 1573.65 -2.9465 -3.00843 0
M  V30 11990 H 1579.65 0.177619 -6.34151 0
M  V30 11991 P 1581.51 -1.25109 -8.70152 0
M  V30 11992 O 1582.93 -1.29744 -9.22016 0
M  V30 11993 O 1581.15 -2.13714 -7.55141 0
M  V30 11994 O 1581.18 0.248149 -8.21425 0
M  V30 11995 C 1581.02 1.22779 -9.30434 0
M  V30 11996 C 1581.56 2.56293 -8.80664 0
M  V30 11997 O 1580.51 3.02979 -8.09349 0
M  V30 11998 C 1582.78 2.57523 -7.89775 0
M  V30 11999 O 1583.52 3.7668 -7.89438 0
M  V30 12000 C 1582.11 2.20997 -6.55446 0
M  V30 12001 O 1582.91 2.71895 -5.48509 0
M  V30 12002 C 1580.77 2.89693 -6.67988 0
M  V30 12003 H 1580.81 3.88793 -6.19859 0
M  V30 12004 H 1581.99 1.12046 -6.44229 0
M  V30 12005 H 1583.47 1.7746 -8.19711 0
M  V30 12006 H 1581.78 3.20706 -9.67112 0
M  V30 12007 H 1581.59 0.901032 -10.1892 0
M  V30 12008 H 1579.96 1.33049 -9.56592 0
M  V30 12009 H 1582.6 3.57847 -5.23962 0
M  V30 12010 P 1584.46 3.65191 -7.99657 0
M  V30 12011 O 1585.88 3.89332 -8.45794 0
M  V30 12012 O 1584.1 2.28472 -7.50807 0
M  V30 12013 O 1584.13 4.64972 -6.77611 0
M  V30 12014 C 1583.97 6.06319 -7.16352 0
M  V30 12015 C 1584.51 6.91731 -6.02299 0
M  V30 12016 O 1583.46 6.92449 -5.17064 0
M  V30 12017 C 1585.73 6.43627 -5.25174 0
M  V30 12018 O 1586.47 7.43686 -4.60469 0
M  V30 12019 C 1585.06 5.40275 -4.31916 0
M  V30 12020 O 1585.86 5.25279 -3.14438 0
M  V30 12021 C 1583.73 6.04847 -4.05327 0
M  V30 12022 H 1583.76 6.62195 -3.11261 0
M  V30 12023 H 1584.94 4.42556 -4.81383 0
M  V30 12024 H 1586.42 5.92458 -5.93643 0
M  V30 12025 H 1584.73 7.92655 -6.402 0
M  V30 12026 H 1584.54 6.26671 -8.0846 0
M  V30 12027 H 1582.91 6.29101 -7.32804 0
M  V30 12028 H 1585.55 5.84315 -2.47318 0
M  V30 12029 P 1587.41 7.39546 -4.75277 0
M  V30 12030 O 1588.83 7.84798 -5.01039 0
M  V30 12031 O 1587.05 5.9812 -5.08098 0
M  V30 12032 O 1587.08 7.57503 -3.1866 0
M  V30 12033 C 1586.92 8.97357 -2.74833 0
M  V30 12034 C 1587.46 9.07548 -1.32709 0
M  V30 12035 O 1586.41 8.62072 -0.606159 0
M  V30 12036 C 1588.68 8.25383 -0.938334 0
M  V30 12037 O 1589.42 8.74577 0.146954 0
M  V30 12038 C 1588.01 6.8802 -0.712559 0
M  V30 12039 O 1588.81 6.1189 0.194655 0
M  V30 12040 C 1586.68 7.27966 -0.139777 0
M  V30 12041 H 1586.71 7.25354 0.961601 0
M  V30 12042 H 1587.89 6.32557 -1.65702 0
M  V30 12043 H 1589.37 8.19355 -1.79097 0
M  V30 12044 H 1587.68 10.1294 -1.10029 0
M  V30 12045 H 1587.49 9.64276 -3.41316 0
M  V30 12046 H 1585.86 9.25417 -2.76357 0
M  V30 12047 H 1588.5 6.25267 1.07847 0
M  V30 12048 P 1590.36 8.791 1.31993e-11 0
M  V30 12049 O 1591.78 9.31096 0.027933 0
M  V30 12050 O 1590 7.77869 -1.04071 0
M  V30 12051 O 1590.03 8.09533 1.41463 0
M  V30 12052 C 1589.87 9.0349 2.53943 0
M  V30 12053 C 1590.41 8.35226 3.79016 0
M  V30 12054 O 1589.36 7.57992 4.15078 0
M  V30 12055 C 1591.63 7.45087 3.67298 0
M  V30 12056 O 1592.37 7.27796 4.85194 0
M  V30 12057 C 1590.96 6.17323 3.12027 0
M  V30 12058 O 1591.76 5.04231 3.47188 0
M  V30 12059 C 1589.63 6.19961 3.81809 0
M  V30 12060 H 1589.66 5.58218 4.73051 0
M  V30 12061 H 1590.84 6.21726 2.02589 0
M  V30 12062 H 1592.33 7.86112 2.9231 0
M  V30 12063 H 1590.63 9.11627 4.55076 0
M  V30 12064 H 1590.44 9.9573 2.34194 0
M  V30 12065 H 1588.81 9.2792 2.67832 0
M  V30 12066 H 1591.45 4.67702 4.28772 0
M  V30 12067 P 1593.31 7.39546 4.75277 0
M  V30 12068 O 1594.73 7.81777 5.05738 0
M  V30 12069 O 1592.95 7.1065 3.32998 0
M  V30 12070 O 1592.98 6.04542 5.56673 0
M  V30 12071 C 1592.82 6.22772 7.02095 0
M  V30 12072 C 1593.36 4.97725 7.70406 0
M  V30 12073 O 1592.31 4.13256 7.58987 0
M  V30 12074 C 1594.58 4.28231 7.11815 0
M  V30 12075 O 1595.32 3.49945 8.01648 0
M  V30 12076 C 1593.91 3.5063 5.96244 0
M  V30 12077 O 1594.71 2.36482 5.64681 0
M  V30 12078 C 1592.58 3.15122 6.56374 0
M  V30 12079 H 1592.61 2.13853 6.99751 0
M  V30 12080 H 1593.79 4.13501 5.06559 0
M  V30 12081 H 1595.28 5.03285 6.70911 0
M  V30 12082 H 1593.58 5.20877 8.75697 0
M  V30 12083 H 1593.39 7.11046 7.35349 0
M  V30 12084 H 1591.76 6.35815 7.26986 0
M  V30 12085 H 1594.4 1.61644 6.13565 0
M  V30 12086 P 1596.26 3.65191 7.99657 0
M  V30 12087 O 1597.68 3.8425 8.48115 0
M  V30 12088 O 1595.9 4.17805 6.64342 0
M  V30 12089 O 1595.94 2.07613 7.95143 0
M  V30 12090 C 1595.78 1.44328 9.27336 0
M  V30 12091 C 1596.32 0.0220036 9.17197 0
M  V30 12092 O 1595.26 -0.626867 8.61923 0
M  V30 12093 C 1597.53 -0.24586 8.30336 0
M  V30 12094 O 1598.27 -1.39011 8.63583 0
M  V30 12095 C 1596.86 -0.273849 6.91158 0
M  V30 12096 O 1597.66 -1.06348 6.02892 0
M  V30 12097 C 1595.53 -0.897649 7.22545 0
M  V30 12098 H 1595.56 -1.9841 7.04286 0
M  V30 12099 H 1596.74 0.739928 6.497 0
M  V30 12100 H 1598.23 0.60668 8.36503 0
M  V30 12101 H 1596.53 -0.352479 10.1829 0
M  V30 12102 H 1596.34 2.00611 10.0304 0
M  V30 12103 H 1594.71 1.41843 9.55327 0
M  V30 12104 H 1597.35 -1.95734 6.03555 0
M  V30 12105 P 1599.21 -1.25109 8.70152 0
M  V30 12106 O 1600.63 -1.35274 9.21221 0
M  V30 12107 O 1598.85 -0.0769065 7.84762 0
M  V30 12108 O 1598.89 -2.55232 7.81161 0
M  V30 12109 C 1598.73 -3.79939 8.58154 0
M  V30 12110 C 1599.27 -4.94023 7.72785 0
M  V30 12111 O 1598.21 -5.18726 6.91205 0
M  V30 12112 C 1600.48 -4.69597 6.85231 0
M  V30 12113 O 1601.22 -5.83832 6.51337 0
M  V30 12114 C 1599.81 -3.96706 5.66633 0
M  V30 12115 O 1600.61 -4.15414 4.49689 0
M  V30 12116 C 1598.48 -4.66153 5.59313 0
M  V30 12117 H 1598.51 -5.47679 4.85214 0
M  V30 12118 H 1599.69 -2.89008 5.86566 0
M  V30 12119 H 1601.18 -4.0121 7.36511 0
M  V30 12120 H 1599.48 -5.80182 8.37584 0
M  V30 12121 H 1599.29 -3.73517 9.52265 0
M  V30 12122 H 1597.66 -3.97163 8.80359 0
M  V30 12123 H 1600.3 -4.90969 4.01921 0
M  V30 12124 P 1602.16 -5.75688 6.64379 0
M  V30 12125 O 1603.56 -6.11991 7.09136 0
M  V30 12126 O 1601.78 -4.30899 6.62018 0
M  V30 12127 O 1601.84 -6.36965 5.19102 0
M  V30 12128 C 1601.68 -7.83578 5.16515 0
M  V30 12129 C 1602.22 -8.33307 3.82977 0
M  V30 12130 O 1601.16 -8.0998 3.00999 0
M  V30 12131 C 1603.43 -7.65514 3.2257 0
M  V30 12132 O 1604.17 -8.4329 2.32297 0
M  V30 12133 C 1602.77 -6.40075 2.62207 0
M  V30 12134 O 1603.56 -5.92492 1.53687 0
M  V30 12135 C 1601.43 -6.9454 2.18503 0
M  V30 12136 N 1600.39 -5.95905 2.39948 0
M  V30 12137 C 1599.35 -5.89764 1.49837 0
M  V30 12138 O 1599.39 -6.64088 0.490975 0
M  V30 12139 N 1598.34 -5.02821 1.70992 0
M  V30 12140 C 1598.39 -4.21498 2.77236 0
M  V30 12141 C 1599.48 -4.23389 3.68205 0
M  V30 12142 C 1600.45 -5.12792 3.46171 0
M  V30 12143 H 1601.46 -7.22964 1.12076 0
M  V30 12144 H 1602.64 -5.60502 3.36589 0
M  V30 12145 H 1604.13 -7.36197 4.01993 0
M  V30 12146 H 1602.43 -9.41302 3.90009 0
M  V30 12147 H 1602.24 -8.29056 5.99158 0
M  V30 12148 H 1600.61 -8.09989 5.25828 0
M  V30 12149 H 1599.53 -3.54747 4.52399 0
M  V30 12150 H 1601.29 -5.18551 4.1489 0
M  V30 12151 H 1603.35 -6.40705 0.751752 0
M  V30 12152 P 1605.11 -8.4349 2.47671 0
M  V30 12153 O 1606.53 -8.94263 2.59668 0
M  V30 12154 O 1604.75 -7.1704 3.19006 0
M  V30 12155 O 1604.79 -8.16596 0.923387 0
M  V30 12156 C 1604.63 -9.38537 0.108869 0
M  V30 12157 C 1605.17 -9.08175 -1.28353 0
M  V30 12158 O 1604.11 -8.44131 -1.84692 0
M  V30 12159 C 1606.39 -8.18386 -1.42505 0
M  V30 12160 O 1607.12 -8.3501 -2.60497 0
M  V30 12161 C 1605.72 -6.80225 -1.25468 0
M  V30 12162 O 1606.52 -5.81716 -1.90454 0
M  V30 12163 C 1604.38 -7.02416 -1.9168 0
M  V30 12164 N 1603.34 -6.31033 -1.20314 0
M  V30 12165 C 1603.51 -5.98817 0.0994088 0
M  V30 12166 N 1602.48 -5.35403 0.621694 0
M  V30 12167 C 1601.59 -5.25212 -0.43376 0
M  V30 12168 C 1600.33 -4.64602 -0.519722 0
M  V30 12169 N 1599.76 -4.7568 -1.76013 0
M  V30 12170 C 1600.36 -5.3653 -2.83017 0
M  V30 12171 N 1601.54 -5.93676 -2.79782 0
M  V30 12172 C 1602.12 -5.84061 -1.56249 0
M  V30 12173 H 1605.59 -6.53498 -0.198729 0
M  V30 12174 H 1607.08 -8.36622 -0.589963 0
M  V30 12175 H 1605.38 -10.0273 -1.8081 0
M  V30 12176 H 1605.19 -10.2138 0.558219 0
M  V30 12177 H 1603.56 -9.6579 0.0444202 0
M  V30 12178 H 1604.41 -6.23209 0.660562 0
M  V30 12179 H 1606.2 -5.69466 -2.79593 0
M  V30 12180 P 1608.06 -8.4349 -2.47671 0
M  V30 12181 O 1609.48 -8.92689 -2.65029 0
M  V30 12182 O 1607.7 -7.7568 -1.19296 0
M  V30 12183 O 1607.74 -7.36886 -3.63805 0
M  V30 12184 C 1607.58 -7.95433 -4.98253 0
M  V30 12185 C 1608.12 -6.94612 -5.98974 0
M  V30 12186 O 1607.06 -6.10277 -6.11744 0
M  V30 12187 C 1609.34 -6.11426 -5.62335 0
M  V30 12188 O 1610.07 -5.6162 -6.70584 0
M  V30 12189 C 1608.67 -5.04409 -4.73308 0
M  V30 12190 O 1609.47 -3.86404 -4.74719 0
M  V30 12191 C 1607.33 -4.8728 -5.41006 0
M  V30 12192 N 1606.29 -4.65812 -4.42377 0
M  V30 12193 C 1606.46 -5.09132 -3.15382 0
M  V30 12194 N 1605.43 -4.84021 -2.3716 0
M  V30 12195 C 1604.54 -4.18386 -3.20441 0
M  V30 12196 C 1603.28 -3.6275 -2.94905 0
M  V30 12197 N 1602.71 -3.05008 -4.05243 0
M  V30 12198 C 1603.31 -2.98348 -5.28159 0
M  V30 12199 N 1604.49 -3.48171 -5.56333 0
M  V30 12200 C 1605.07 -4.06869 -4.47212 0
M  V30 12201 H 1608.54 -5.39013 -3.70026 0
M  V30 12202 H 1610.03 -6.71916 -5.01943 0
M  V30 12203 H 1608.33 -7.45796 -6.94223 0
M  V30 12204 H 1608.14 -8.89416 -5.05237 0
M  V30 12205 H 1606.51 -8.14876 -5.18409 0
M  V30 12206 H 1607.36 -5.59989 -2.81362 0
M  V30 12207 H 1609.15 -3.27906 -5.43085 0
M  V30 12208 P 1611.01 -5.75688 -6.64379 0
M  V30 12209 O 1612.43 -6.07627 -7.05504 0
M  V30 12210 O 1610.65 -5.88047 -5.19722 0
M  V30 12211 O 1610.69 -4.2322 -7.04443 0
M  V30 12212 C 1610.53 -3.99743 -8.4911 0
M  V30 12213 C 1611.07 -2.60516 -8.79425 0
M  V30 12214 O 1610.01 -1.82684 -8.4467 0
M  V30 12215 C 1612.29 -2.10343 -8.03628 0
M  V30 12216 O 1613.02 -1.09919 -8.67766 0
M  V30 12217 C 1611.62 -1.68446 -6.70876 0
M  V30 12218 O 1612.42 -0.678137 -6.08433 0
M  V30 12219 C 1610.28 -1.17436 -7.18567 0
M  V30 12220 H 1610.31 -0.0804732 -7.31656 0
M  V30 12221 H 1611.5 -2.54037 -6.02537 0
M  V30 12222 H 1612.98 -2.93881 -7.85526 0
M  V30 12223 H 1611.29 -2.53065 -9.86973 0
M  V30 12224 H 1611.1 -4.75072 -9.05887 0
M  V30 12225 H 1609.47 -4.05244 -8.76668 0
M  V30 12226 H 1612.1 0.177647 -6.34251 0
M  V30 12227 P 1613.96 -1.25109 -8.70152 0
M  V30 12228 O 1615.38 -1.29744 -9.22016 0
M  V30 12229 O 1613.6 -2.13714 -7.55141 0
M  V30 12230 O 1613.64 0.248149 -8.21425 0
M  V30 12231 C 1613.48 1.22779 -9.30434 0
M  V30 12232 C 1614.02 2.56293 -8.80664 0
M  V30 12233 O 1612.96 3.02979 -8.09349 0
M  V30 12234 C 1615.24 2.57523 -7.89775 0
M  V30 12235 O 1615.97 3.7668 -7.89438 0
M  V30 12236 C 1614.57 2.20997 -6.55446 0
M  V30 12237 O 1615.37 2.71895 -5.48509 0
M  V30 12238 C 1613.23 2.89693 -6.67988 0
M  V30 12239 H 1613.26 3.88793 -6.19859 0
M  V30 12240 H 1614.45 1.12046 -6.44229 0
M  V30 12241 H 1615.93 1.7746 -8.19711 0
M  V30 12242 H 1614.24 3.20706 -9.67112 0
M  V30 12243 H 1614.05 0.901032 -10.1892 0
M  V30 12244 H 1612.42 1.33049 -9.56592 0
M  V30 12245 H 1615.05 3.57847 -5.23962 0
M  V30 12246 P 1616.91 3.65191 -7.99657 0
M  V30 12247 O 1618.33 3.89332 -8.45794 0
M  V30 12248 O 1616.55 2.28472 -7.50807 0
M  V30 12249 O 1616.59 4.64972 -6.77611 0
M  V30 12250 C 1616.43 6.06319 -7.16352 0
M  V30 12251 C 1616.97 6.91731 -6.02299 0
M  V30 12252 O 1615.91 6.92449 -5.17064 0
M  V30 12253 C 1618.19 6.43627 -5.25174 0
M  V30 12254 O 1618.93 7.43686 -4.60469 0
M  V30 12255 C 1617.52 5.40275 -4.31916 0
M  V30 12256 O 1618.32 5.25279 -3.14438 0
M  V30 12257 C 1616.18 6.04847 -4.05327 0
M  V30 12258 H 1616.21 6.62195 -3.11261 0
M  V30 12259 H 1617.4 4.42556 -4.81383 0
M  V30 12260 H 1618.88 5.92458 -5.93643 0
M  V30 12261 H 1617.19 7.92655 -6.402 0
M  V30 12262 H 1617 6.26671 -8.0846 0
M  V30 12263 H 1615.37 6.29101 -7.32804 0
M  V30 12264 H 1618.01 5.84315 -2.47318 0
M  V30 12265 P 1619.86 7.39546 -4.75277 0
M  V30 12266 O 1621.28 7.84882 -5.01092 0
M  V30 12267 O 1619.5 5.9812 -5.08098 0
M  V30 12268 O 1619.54 7.57503 -3.1866 0
M  V30 12269 C 1619.38 8.97452 -2.74862 0
M  V30 12270 C 1619.92 9.07548 -1.32709 0
M  V30 12271 O 1618.86 8.61972 -0.606089 0
M  V30 12272 C 1621.14 8.25383 -0.938334 0
M  V30 12273 O 1621.88 8.74577 0.146954 0
M  V30 12274 C 1620.47 6.8802 -0.712559 0
M  V30 12275 O 1621.27 6.1181 0.188505 0
M  V30 12276 C 1619.13 7.27966 -0.139777 0
M  V30 12277 N 1618.09 6.39368 -0.623421 0
M  V30 12278 C 1618.26 5.71761 -1.78245 0
M  V30 12279 N 1617.23 4.962 -2.10491 0
M  V30 12280 C 1616.35 5.16158 -1.0635 0
M  V30 12281 C 1615.08 4.60425 -0.810266 0
M  V30 12282 N 1614.51 5.06 0.348685 0
M  V30 12283 C 1615.12 5.94532 1.20395 0
M  V30 12284 N 1616.29 6.48452 1.01191 0
M  V30 12285 C 1616.87 6.04423 -0.146291 0
M  V30 12286 H 1620.35 6.32625 -1.65044 0
M  V30 12287 H 1621.83 8.19355 -1.79097 0
M  V30 12288 H 1620.14 10.1305 -1.09016 0
M  V30 12289 H 1619.95 9.64276 -3.41316 0
M  V30 12290 H 1618.32 9.25417 -2.76357 0
M  V30 12291 H 1619.16 5.79354 -2.38959 0
M  V30 12292 H 1620.96 6.25169 1.0783 0
M  V30 12293 P 1622.81 8.791 1.35095e-11 0
M  V30 12294 O 1624.24 9.31096 0.027933 0
M  V30 12295 O 1622.45 7.77869 -1.04071 0
M  V30 12296 O 1622.49 8.09533 1.41463 0
M  V30 12297 C 1622.33 9.0349 2.53943 0
M  V30 12298 C 1622.87 8.35226 3.79016 0
M  V30 12299 O 1621.81 7.57992 4.15078 0
M  V30 12300 C 1624.09 7.45087 3.67298 0
M  V30 12301 O 1624.83 7.27796 4.85194 0
M  V30 12302 C 1623.42 6.17323 3.12027 0
M  V30 12303 O 1624.22 5.04231 3.47188 0
M  V30 12304 C 1622.08 6.19961 3.81809 0
M  V30 12305 H 1622.11 5.58218 4.73051 0
M  V30 12306 H 1623.3 6.21726 2.02589 0
M  V30 12307 H 1624.78 7.86112 2.9231 0
M  V30 12308 H 1623.09 9.11627 4.55076 0
M  V30 12309 H 1622.9 9.9573 2.34194 0
M  V30 12310 H 1621.27 9.2792 2.67832 0
M  V30 12311 H 1623.91 4.67702 4.28772 0
M  V30 12312 P 1625.76 7.39546 4.75277 0
M  V30 12313 O 1627.19 7.81777 5.05738 0
M  V30 12314 O 1625.4 7.1065 3.32998 0
M  V30 12315 O 1625.44 6.04542 5.56673 0
M  V30 12316 C 1625.28 6.22772 7.02095 0
M  V30 12317 C 1625.82 4.97725 7.70406 0
M  V30 12318 O 1624.77 4.13256 7.58987 0
M  V30 12319 C 1627.04 4.28231 7.11815 0
M  V30 12320 O 1627.78 3.49945 8.01648 0
M  V30 12321 C 1626.37 3.5063 5.96244 0
M  V30 12322 O 1627.17 2.36482 5.64681 0
M  V30 12323 C 1625.03 3.15122 6.56374 0
M  V30 12324 H 1625.07 2.13853 6.99751 0
M  V30 12325 H 1626.25 4.13501 5.06559 0
M  V30 12326 H 1627.73 5.03285 6.70911 0
M  V30 12327 H 1626.04 5.20877 8.75697 0
M  V30 12328 H 1625.85 7.11046 7.35349 0
M  V30 12329 H 1624.22 6.35815 7.26986 0
M  V30 12330 H 1626.86 1.61644 6.13565 0
M  V30 12331 P 1628.71 3.65191 7.99657 0
M  V30 12332 O 1630.14 3.84292 8.48206 0
M  V30 12333 O 1628.35 4.17805 6.64342 0
M  V30 12334 O 1628.39 2.07613 7.95143 0
M  V30 12335 C 1628.23 1.44344 9.27435 0
M  V30 12336 C 1628.77 0.0220036 9.17197 0
M  V30 12337 O 1627.72 -0.626794 8.61824 0
M  V30 12338 C 1629.99 -0.24586 8.30336 0
M  V30 12339 O 1630.73 -1.39011 8.63583 0
M  V30 12340 C 1629.32 -0.273849 6.91158 0
M  V30 12341 O 1630.12 -1.05728 6.029 0
M  V30 12342 C 1627.98 -0.897649 7.22545 0
M  V30 12343 N 1626.94 -0.292839 6.41732 0
M  V30 12344 C 1627.11 0.950603 5.91308 0
M  V30 12345 N 1626.08 1.37732 5.21105 0
M  V30 12346 C 1625.2 0.318109 5.26039 0
M  V30 12347 C 1623.93 0.146766 4.6727 0
M  V30 12348 N 1623.37 -1.06525 4.95887 0
M  V30 12349 C 1623.97 -2.0378 5.71347 0
M  V30 12350 N 1625.14 -1.92445 6.27451 0
M  V30 12351 C 1625.72 -0.715382 6.00353 0
M  V30 12352 H 1629.2 0.733318 6.49674 0
M  V30 12353 H 1630.68 0.60668 8.36503 0
M  V30 12354 H 1628.99 -0.362662 10.1825 0
M  V30 12355 H 1628.8 2.00611 10.0304 0
M  V30 12356 H 1627.17 1.41843 9.55327 0
M  V30 12357 H 1628.01 1.54076 6.07465 0
M  V30 12358 H 1629.81 -1.95704 6.0346 0
M  V30 12359 P 1631.67 -1.25109 8.70152 0
M  V30 12360 O 1633.09 -1.35274 9.21221 0
M  V30 12361 O 1631.31 -0.0769065 7.84762 0
M  V30 12362 O 1631.34 -2.55232 7.81161 0
M  V30 12363 C 1631.18 -3.79939 8.58154 0
M  V30 12364 C 1631.72 -4.94023 7.72785 0
M  V30 12365 O 1630.67 -5.18726 6.91205 0
M  V30 12366 C 1632.94 -4.69597 6.85231 0
M  V30 12367 O 1633.68 -5.83832 6.51337 0
M  V30 12368 C 1632.27 -3.96706 5.66633 0
M  V30 12369 O 1633.07 -4.15414 4.49689 0
M  V30 12370 C 1630.93 -4.66153 5.59313 0
M  V30 12371 H 1630.97 -5.47679 4.85214 0
M  V30 12372 H 1632.15 -2.89008 5.86566 0
M  V30 12373 H 1633.63 -4.0121 7.36511 0
M  V30 12374 H 1631.94 -5.80182 8.37584 0
M  V30 12375 H 1631.75 -3.73517 9.52265 0
M  V30 12376 H 1630.12 -3.97163 8.80359 0
M  V30 12377 H 1632.76 -4.90969 4.01921 0
M  V30 12378 P 1634.62 -5.75688 6.64379 0
M  V30 12379 O 1636.04 -6.11849 7.01846 0
M  V30 12380 O 1634.26 -4.30744 6.56026 0
M  V30 12381 O 1634.29 -6.37042 5.19165 0
M  V30 12382 C 1634.13 -7.83578 5.16515 0
M  V30 12383 C 1634.67 -8.33398 3.83019 0
M  V30 12384 O 1633.62 -8.10074 3.01034 0
M  V30 12385 C 1635.89 -7.65514 3.2257 0
M  V30 12386 O 1636.63 -8.4329 2.32297 0
M  V30 12387 C 1635.22 -6.40075 2.62207 0
M  V30 12388 O 1636.02 -5.92589 1.53712 0
M  V30 12389 C 1633.88 -6.9454 2.18503 0
M  V30 12390 H 1633.92 -7.23063 1.12091 0
M  V30 12391 H 1635.1 -5.6025 3.37201 0
M  V30 12392 H 1636.58 -7.35707 4.02681 0
M  V30 12393 H 1634.89 -9.40912 3.9095 0
M  V30 12394 H 1634.7 -8.29056 5.99158 0
M  V30 12395 H 1633.07 -8.10073 5.25882 0
M  V30 12396 H 1635.71 -6.30324 0.726794 0
M  V30 12397 P 1637.57 -8.4349 2.47671 0
M  V30 12398 O 1638.99 -8.94167 2.5964 0
M  V30 12399 O 1637.21 -7.1704 3.19006 0
M  V30 12400 O 1637.24 -8.16596 0.923387 0
M  V30 12401 C 1637.08 -9.38437 0.108857 0
M  V30 12402 C 1637.62 -9.08175 -1.28353 0
M  V30 12403 O 1636.57 -8.44229 -1.84713 0
M  V30 12404 C 1638.84 -8.18386 -1.42505 0
M  V30 12405 O 1639.58 -8.3501 -2.60497 0
M  V30 12406 C 1638.17 -6.80225 -1.25468 0
M  V30 12407 O 1638.97 -5.81621 -1.91066 0
M  V30 12408 C 1636.84 -7.02416 -1.9168 0
M  V30 12409 H 1636.87 -6.6888 -2.96621 0
M  V30 12410 H 1638.05 -6.53617 -0.192223 0
M  V30 12411 H 1639.53 -8.36622 -0.589963 0
M  V30 12412 H 1637.84 -10.0291 -1.79807 0
M  V30 12413 H 1637.65 -10.2138 0.558219 0
M  V30 12414 H 1636.02 -9.6579 0.0444202 0
M  V30 12415 H 1638.66 -5.69556 -2.79637 0
M  V30 12416 P 1640.52 -8.4349 -2.47671 0
M  V30 12417 O 1641.94 -8.92593 -2.65 0
M  V30 12418 O 1640.16 -7.7568 -1.19296 0
M  V30 12419 O 1640.19 -7.36886 -3.63805 0
M  V30 12420 C 1640.03 -7.95349 -4.982 0
M  V30 12421 C 1640.57 -6.94612 -5.98974 0
M  V30 12422 O 1639.52 -6.10347 -6.11815 0
M  V30 12423 C 1641.79 -6.11426 -5.62335 0
M  V30 12424 O 1642.53 -5.6162 -6.70584 0
M  V30 12425 C 1641.12 -5.04409 -4.73308 0
M  V30 12426 O 1641.92 -3.85992 -4.75183 0
M  V30 12427 C 1639.79 -4.8728 -5.41006 0
M  V30 12428 H 1639.82 -4.02333 -6.11157 0
M  V30 12429 H 1641 -5.39466 -3.69543 0
M  V30 12430 H 1642.48 -6.71916 -5.01943 0
M  V30 12431 H 1640.79 -7.4649 -6.93477 0
M  V30 12432 H 1640.6 -8.89416 -5.05237 0
M  V30 12433 H 1638.97 -8.14876 -5.18409 0
M  V30 12434 H 1641.61 -3.27957 -5.4317 0
M  V30 12435 P 1643.47 -5.75688 -6.64379 0
M  V30 12436 O 1644.89 -6.07627 -7.05504 0
M  V30 12437 O 1643.11 -5.88047 -5.19722 0
M  V30 12438 O 1643.14 -4.2322 -7.04443 0
M  V30 12439 C 1642.98 -3.99743 -8.4911 0
M  V30 12440 C 1643.52 -2.60516 -8.79425 0
M  V30 12441 O 1642.47 -1.82684 -8.4467 0
M  V30 12442 C 1644.74 -2.10343 -8.03628 0
M  V30 12443 O 1645.48 -1.09919 -8.67766 0
M  V30 12444 C 1644.07 -1.68446 -6.70876 0
M  V30 12445 O 1644.87 -0.678137 -6.08433 0
M  V30 12446 C 1642.74 -1.17436 -7.18567 0
M  V30 12447 H 1642.77 -0.0804732 -7.31656 0
M  V30 12448 H 1643.95 -2.54037 -6.02537 0
M  V30 12449 H 1645.44 -2.93881 -7.85526 0
M  V30 12450 H 1643.74 -2.53065 -9.86973 0
M  V30 12451 H 1643.55 -4.75072 -9.05887 0
M  V30 12452 H 1641.92 -4.05244 -8.76668 0
M  V30 12453 H 1644.56 0.177647 -6.34251 0
M  V30 12454 P 1646.42 -1.25109 -8.70152 0
M  V30 12455 O 1647.84 -1.29758 -9.22115 0
M  V30 12456 O 1646.06 -2.13714 -7.55141 0
M  V30 12457 O 1646.1 0.248149 -8.21425 0
M  V30 12458 C 1645.93 1.22792 -9.30533 0
M  V30 12459 C 1646.48 2.56293 -8.80664 0
M  V30 12460 O 1645.42 3.02944 -8.09255 0
M  V30 12461 C 1647.69 2.57523 -7.89775 0
M  V30 12462 O 1648.43 3.7668 -7.89438 0
M  V30 12463 C 1647.03 2.20997 -6.55446 0
M  V30 12464 O 1647.82 2.71302 -5.48691 0
M  V30 12465 C 1645.69 2.89693 -6.67988 0
M  V30 12466 N 1644.64 2.08895 -6.07487 0
M  V30 12467 C 1644.81 0.753809 -5.94137 0
M  V30 12468 N 1643.79 0.146592 -5.38801 0
M  V30 12469 C 1642.9 1.1768 -5.13693 0
M  V30 12470 C 1641.63 1.17563 -4.52477 0
M  V30 12471 N 1641.04 0.057481 -4.04759 0
M  V30 12472 N 1641.07 2.41918 -4.45789 0
M  V30 12473 C 1641.67 3.56493 -4.90792 0
M  V30 12474 N 1642.85 3.61423 -5.47817 0
M  V30 12475 C 1643.42 2.37779 -5.5588 0
M  V30 12476 H 1645.72 3.8874 -6.19774 0
M  V30 12477 H 1646.9 1.12673 -6.44018 0
M  V30 12478 H 1648.39 1.7746 -8.19711 0
M  V30 12479 H 1646.69 3.21673 -9.66791 0
M  V30 12480 H 1646.5 0.901032 -10.1892 0
M  V30 12481 H 1644.87 1.33049 -9.56592 0
M  V30 12482 H 1641.14 4.49919 -4.77947 0
M  V30 12483 H 1645.71 0.233081 -6.26266 0
M  V30 12484 H 1640.11 0.119831 -3.60801 0
M  V30 12485 H 1641.51 -0.852272 -4.12385 0
M  V30 12486 H 1647.51 3.5779 -5.23879 0
M  V30 12487 P 1649.37 3.65191 -7.99657 0
M  V30 12488 O 1650.79 3.89332 -8.45794 0
M  V30 12489 O 1649.01 2.28472 -7.50807 0
M  V30 12490 O 1649.05 4.64972 -6.77611 0
M  V30 12491 C 1648.89 6.06319 -7.16352 0
M  V30 12492 C 1649.43 6.91731 -6.02299 0
M  V30 12493 O 1648.37 6.92449 -5.17064 0
M  V30 12494 C 1650.64 6.43627 -5.25174 0
M  V30 12495 O 1651.38 7.43686 -4.60469 0
M  V30 12496 C 1649.97 5.40275 -4.31916 0
M  V30 12497 O 1650.77 5.25279 -3.14438 0
M  V30 12498 C 1648.64 6.04847 -4.05327 0
M  V30 12499 H 1648.67 6.62195 -3.11261 0
M  V30 12500 H 1649.85 4.42556 -4.81383 0
M  V30 12501 H 1651.34 5.92458 -5.93643 0
M  V30 12502 H 1649.64 7.92655 -6.402 0
M  V30 12503 H 1649.45 6.26671 -8.0846 0
M  V30 12504 H 1647.82 6.29101 -7.32804 0
M  V30 12505 H 1650.46 5.84315 -2.47318 0
M  V30 12506 P 1652.32 7.39546 -4.75277 0
M  V30 12507 O 1653.74 7.84966 -5.01146 0
M  V30 12508 O 1651.96 5.9812 -5.08098 0
M  V30 12509 O 1652 7.57503 -3.1866 0
M  V30 12510 C 1651.84 8.97357 -2.74833 0
M  V30 12511 C 1652.38 9.0745 -1.32694 0
M  V30 12512 O 1651.32 8.62072 -0.606159 0
M  V30 12513 C 1653.59 8.25383 -0.938334 0
M  V30 12514 O 1654.33 8.74577 0.146954 0
M  V30 12515 C 1652.93 6.8802 -0.712559 0
M  V30 12516 O 1653.72 6.11791 0.194623 0
M  V30 12517 C 1651.59 7.27966 -0.139777 0
M  V30 12518 N 1650.55 6.39368 -0.623421 0
M  V30 12519 C 1650.61 5.90299 -1.85969 0
M  V30 12520 N 1649.56 5.10919 -2.1133 0
M  V30 12521 C 1648.83 5.14646 -1.0015 0
M  V30 12522 C 1647.52 4.60057 -0.729219 0
M  V30 12523 O 1646.79 3.93476 -1.47746 0
M  V30 12524 N 1647.09 4.88302 0.523505 0
M  V30 12525 C 1647.84 5.63646 1.46207 0
M  V30 12526 N 1647.24 5.78186 2.69239 0
M  V30 12527 N 1648.99 6.19285 1.21544 0
M  V30 12528 C 1649.45 5.93392 -0.0308487 0
M  V30 12529 H 1651.62 7.25354 0.961601 0
M  V30 12530 H 1652.8 6.3246 -1.65676 0
M  V30 12531 H 1654.29 8.19533 -1.78278 0
M  V30 12532 H 1652.59 10.1294 -1.10029 0
M  V30 12533 H 1652.4 9.64276 -3.41316 0
M  V30 12534 H 1650.77 9.25417 -2.76357 0
M  V30 12535 H 1646.2 4.53993 0.806451 0
M  V30 12536 H 1651.4 6.11865 -2.57394 0
M  V30 12537 H 1646.33 5.34046 2.87467 0
M  V30 12538 H 1647.71 6.33391 3.42578 0
M  V30 12539 H 1653.41 6.25169 1.0783 0
M  V30 12540 P 1655.27 8.791 1.38196e-11 0
M  V30 12541 O 1656.69 9.31196 0.027936 0
M  V30 12542 O 1654.91 7.77869 -1.04071 0
M  V30 12543 O 1654.95 8.09533 1.41463 0
M  V30 12544 C 1654.79 9.03587 2.5397 0
M  V30 12545 C 1655.33 8.35226 3.79016 0
M  V30 12546 O 1654.27 7.57904 4.1503 0
M  V30 12547 C 1656.54 7.45087 3.67298 0
M  V30 12548 O 1657.28 7.27796 4.85194 0
M  V30 12549 C 1655.88 6.17323 3.12027 0
M  V30 12550 O 1656.67 5.04496 3.46627 0
M  V30 12551 C 1654.54 6.19961 3.81809 0
M  V30 12552 N 1653.5 5.71575 2.93223 0
M  V30 12553 C 1653.66 5.77362 1.59168 0
M  V30 12554 N 1652.64 5.3123 0.911893 0
M  V30 12555 C 1651.75 4.91717 1.89588 0
M  V30 12556 C 1650.49 4.3114 1.8076 0
M  V30 12557 N 1649.89 3.99821 0.632928 0
M  V30 12558 N 1649.92 4.06823 3.02898 0
M  V30 12559 C 1650.52 4.35062 4.22711 0
M  V30 12560 N 1651.7 4.90805 4.35707 0
M  V30 12561 C 1652.27 5.16382 3.14469 0
M  V30 12562 H 1654.57 5.58142 4.72986 0
M  V30 12563 H 1655.75 6.21428 2.0318 0
M  V30 12564 H 1657.24 7.86112 2.9231 0
M  V30 12565 H 1655.54 9.11171 4.55987 0
M  V30 12566 H 1655.35 9.9573 2.34194 0
M  V30 12567 H 1653.72 9.2792 2.67832 0
M  V30 12568 H 1649.99 4.09052 5.13359 0
M  V30 12569 H 1654.56 6.16575 1.12198 0
M  V30 12570 H 1648.96 3.55423 0.632085 0
M  V30 12571 H 1650.36 4.20317 -0.256712 0
M  V30 12572 H 1656.36 4.67628 4.28704 0
M  V30 12573 P 1658.22 7.39546 4.75277 0
M  V30 12574 O 1659.64 7.81777 5.05738 0
M  V30 12575 O 1657.86 7.1065 3.32998 0
M  V30 12576 O 1657.9 6.04542 5.56673 0
M  V30 12577 C 1657.74 6.22772 7.02095 0
M  V30 12578 C 1658.28 4.97725 7.70406 0
M  V30 12579 O 1657.22 4.13256 7.58987 0
M  V30 12580 C 1659.5 4.28231 7.11815 0
M  V30 12581 O 1660.23 3.49945 8.01648 0
M  V30 12582 C 1658.83 3.5063 5.96244 0
M  V30 12583 O 1659.63 2.36482 5.64681 0
M  V30 12584 C 1657.49 3.15122 6.56374 0
M  V30 12585 H 1657.52 2.13853 6.99751 0
M  V30 12586 H 1658.7 4.13501 5.06559 0
M  V30 12587 H 1660.19 5.03285 6.70911 0
M  V30 12588 H 1658.49 5.20877 8.75697 0
M  V30 12589 H 1658.3 7.11046 7.35349 0
M  V30 12590 H 1656.67 6.35815 7.26986 0
M  V30 12591 H 1659.31 1.61644 6.13565 0
M  V30 12592 P 1661.17 3.65191 7.99657 0
M  V30 12593 O 1662.59 3.8425 8.48115 0
M  V30 12594 O 1660.81 4.17805 6.64342 0
M  V30 12595 O 1660.85 2.07613 7.95143 0
M  V30 12596 C 1660.69 1.44328 9.27336 0
M  V30 12597 C 1661.23 0.0220036 9.17197 0
M  V30 12598 O 1660.17 -0.626867 8.61923 0
M  V30 12599 C 1662.45 -0.24586 8.30336 0
M  V30 12600 O 1663.18 -1.39011 8.63583 0
M  V30 12601 C 1661.78 -0.273849 6.91158 0
M  V30 12602 O 1662.58 -1.06348 6.02892 0
M  V30 12603 C 1660.44 -0.897649 7.22545 0
M  V30 12604 H 1660.47 -1.9841 7.04286 0
M  V30 12605 H 1661.65 0.739928 6.497 0
M  V30 12606 H 1663.14 0.60668 8.36503 0
M  V30 12607 H 1661.44 -0.352479 10.1829 0
M  V30 12608 H 1661.25 2.00611 10.0304 0
M  V30 12609 H 1659.62 1.41843 9.55327 0
M  V30 12610 H 1662.26 -1.95734 6.03555 0
M  V30 12611 P 1664.12 -1.25109 8.70152 0
M  V30 12612 O 1665.54 -1.35274 9.21221 0
M  V30 12613 O 1663.76 -0.0769065 7.84762 0
M  V30 12614 O 1663.8 -2.55232 7.81161 0
M  V30 12615 C 1663.64 -3.79939 8.58154 0
M  V30 12616 C 1664.18 -4.94023 7.72785 0
M  V30 12617 O 1663.12 -5.18726 6.91205 0
M  V30 12618 C 1665.4 -4.69597 6.85231 0
M  V30 12619 O 1666.13 -5.83832 6.51337 0
M  V30 12620 C 1664.73 -3.96706 5.66633 0
M  V30 12621 O 1665.53 -4.15414 4.49689 0
M  V30 12622 C 1663.39 -4.66153 5.59313 0
M  V30 12623 H 1663.42 -5.47679 4.85214 0
M  V30 12624 H 1664.61 -2.89008 5.86566 0
M  V30 12625 H 1666.09 -4.0121 7.36511 0
M  V30 12626 H 1664.4 -5.80182 8.37584 0
M  V30 12627 H 1664.21 -3.73517 9.52265 0
M  V30 12628 H 1662.58 -3.97163 8.80359 0
M  V30 12629 H 1665.21 -4.90969 4.01921 0
M  V30 12630 P 1667.07 -5.75688 6.64379 0
M  V30 12631 O 1668.49 -6.11849 7.01846 0
M  V30 12632 O 1666.71 -4.30744 6.56026 0
M  V30 12633 O 1666.75 -6.37042 5.19165 0
M  V30 12634 C 1666.59 -7.83578 5.16515 0
M  V30 12635 C 1667.13 -8.33398 3.83019 0
M  V30 12636 O 1666.07 -8.10074 3.01034 0
M  V30 12637 C 1668.35 -7.65514 3.2257 0
M  V30 12638 O 1669.09 -8.4329 2.32297 0
M  V30 12639 C 1667.68 -6.40075 2.62207 0
M  V30 12640 O 1668.48 -5.92589 1.53712 0
M  V30 12641 C 1666.34 -6.9454 2.18503 0
M  V30 12642 H 1666.37 -7.23063 1.12091 0
M  V30 12643 H 1667.56 -5.6025 3.37201 0
M  V30 12644 H 1669.04 -7.35707 4.02681 0
M  V30 12645 H 1667.35 -9.40912 3.9095 0
M  V30 12646 H 1667.16 -8.29056 5.99158 0
M  V30 12647 H 1665.53 -8.10073 5.25882 0
M  V30 12648 H 1668.17 -6.30324 0.726794 0
M  V30 12649 P 1670.02 -8.4349 2.47671 0
M  V30 12650 O 1671.44 -8.94167 2.5964 0
M  V30 12651 O 1669.66 -7.1704 3.19006 0
M  V30 12652 O 1669.7 -8.16596 0.923387 0
M  V30 12653 C 1669.54 -9.38437 0.108857 0
M  V30 12654 C 1670.08 -9.08175 -1.28353 0
M  V30 12655 O 1669.02 -8.44229 -1.84713 0
M  V30 12656 C 1671.3 -8.18386 -1.42505 0
M  V30 12657 O 1672.04 -8.3501 -2.60497 0
M  V30 12658 C 1670.63 -6.80225 -1.25468 0
M  V30 12659 O 1671.43 -5.81621 -1.91066 0
M  V30 12660 C 1669.29 -7.02416 -1.9168 0
M  V30 12661 H 1669.32 -6.6888 -2.96621 0
M  V30 12662 H 1670.51 -6.53617 -0.192223 0
M  V30 12663 H 1671.99 -8.36622 -0.589963 0
M  V30 12664 H 1670.3 -10.0291 -1.79807 0
M  V30 12665 H 1670.11 -10.2138 0.558219 0
M  V30 12666 H 1668.48 -9.6579 0.0444202 0
M  V30 12667 H 1671.12 -5.69556 -2.79637 0
M  V30 12668 P 1672.97 -8.4349 -2.47671 0
M  V30 12669 O 1674.39 -8.92689 -2.65029 0
M  V30 12670 O 1672.61 -7.7568 -1.19296 0
M  V30 12671 O 1672.65 -7.36886 -3.63805 0
M  V30 12672 C 1672.49 -7.95433 -4.98253 0
M  V30 12673 C 1673.03 -6.94612 -5.98974 0
M  V30 12674 O 1671.98 -6.10277 -6.11744 0
M  V30 12675 C 1674.25 -6.11426 -5.62335 0
M  V30 12676 O 1674.99 -5.6162 -6.70584 0
M  V30 12677 C 1673.58 -5.04409 -4.73308 0
M  V30 12678 O 1674.38 -3.86404 -4.74719 0
M  V30 12679 C 1672.24 -4.8728 -5.41006 0
M  V30 12680 N 1671.2 -4.65812 -4.42377 0
M  V30 12681 C 1671.37 -5.09132 -3.15382 0
M  V30 12682 N 1670.34 -4.84021 -2.3716 0
M  V30 12683 C 1669.46 -4.18386 -3.20441 0
M  V30 12684 C 1668.19 -3.6275 -2.94905 0
M  V30 12685 N 1667.62 -3.05008 -4.05243 0
M  V30 12686 C 1668.23 -2.98348 -5.28159 0
M  V30 12687 N 1669.4 -3.48171 -5.56333 0
M  V30 12688 C 1669.98 -4.06869 -4.47212 0
M  V30 12689 H 1673.46 -5.39013 -3.70026 0
M  V30 12690 H 1674.94 -6.71916 -5.01943 0
M  V30 12691 H 1673.25 -7.45796 -6.94223 0
M  V30 12692 H 1673.06 -8.89416 -5.05237 0
M  V30 12693 H 1671.43 -8.14876 -5.18409 0
M  V30 12694 H 1672.27 -5.59989 -2.81362 0
M  V30 12695 H 1674.07 -3.27906 -5.43085 0
M  V30 12696 P 1675.92 -5.75688 -6.64379 0
M  V30 12697 O 1677.35 -6.07627 -7.05504 0
M  V30 12698 O 1675.56 -5.88047 -5.19722 0
M  V30 12699 O 1675.6 -4.2322 -7.04443 0
M  V30 12700 C 1675.44 -3.99743 -8.4911 0
M  V30 12701 C 1675.98 -2.60516 -8.79425 0
M  V30 12702 O 1674.92 -1.82684 -8.4467 0
M  V30 12703 C 1677.2 -2.10343 -8.03628 0
M  V30 12704 O 1677.94 -1.09919 -8.67766 0
M  V30 12705 C 1676.53 -1.68446 -6.70876 0
M  V30 12706 O 1677.33 -0.678137 -6.08433 0
M  V30 12707 C 1675.19 -1.17436 -7.18567 0
M  V30 12708 H 1675.22 -0.0804732 -7.31656 0
M  V30 12709 H 1676.41 -2.54037 -6.02537 0
M  V30 12710 H 1677.89 -2.93881 -7.85526 0
M  V30 12711 H 1676.2 -2.53065 -9.86973 0
M  V30 12712 H 1676.01 -4.75072 -9.05887 0
M  V30 12713 H 1674.38 -4.05244 -8.76668 0
M  V30 12714 H 1677.02 0.177647 -6.34251 0
M  V30 12715 P 1678.87 -1.25109 -8.70152 0
M  V30 12716 O 1680.3 -1.29744 -9.22016 0
M  V30 12717 O 1678.51 -2.13714 -7.55141 0
M  V30 12718 O 1678.55 0.248149 -8.21425 0
M  V30 12719 C 1678.39 1.22779 -9.30434 0
M  V30 12720 C 1678.93 2.56293 -8.80664 0
M  V30 12721 O 1677.88 3.02979 -8.09349 0
M  V30 12722 C 1680.15 2.57523 -7.89775 0
M  V30 12723 O 1680.89 3.7668 -7.89438 0
M  V30 12724 C 1679.48 2.20997 -6.55446 0
M  V30 12725 O 1680.28 2.71895 -5.48509 0
M  V30 12726 C 1678.14 2.89693 -6.67988 0
M  V30 12727 H 1678.18 3.88793 -6.19859 0
M  V30 12728 H 1679.36 1.12046 -6.44229 0
M  V30 12729 H 1680.84 1.7746 -8.19711 0
M  V30 12730 H 1679.15 3.20706 -9.67112 0
M  V30 12731 H 1678.96 0.901032 -10.1892 0
M  V30 12732 H 1677.33 1.33049 -9.56592 0
M  V30 12733 H 1679.97 3.57847 -5.23962 0
M  V30 12734 P 1681.82 3.65191 -7.99657 0
M  V30 12735 O 1683.25 3.89332 -8.45794 0
M  V30 12736 O 1681.46 2.28472 -7.50807 0
M  V30 12737 O 1681.5 4.64972 -6.77611 0
M  V30 12738 C 1681.34 6.06319 -7.16352 0
M  V30 12739 C 1681.88 6.91731 -6.02299 0
M  V30 12740 O 1680.83 6.92449 -5.17064 0
M  V30 12741 C 1683.1 6.43627 -5.25174 0
M  V30 12742 O 1683.84 7.43686 -4.60469 0
M  V30 12743 C 1682.43 5.40275 -4.31916 0
M  V30 12744 O 1683.23 5.25279 -3.14438 0
M  V30 12745 C 1681.09 6.04847 -4.05327 0
M  V30 12746 H 1681.13 6.62195 -3.11261 0
M  V30 12747 H 1682.31 4.42556 -4.81383 0
M  V30 12748 H 1683.79 5.92458 -5.93643 0
M  V30 12749 H 1682.1 7.92655 -6.402 0
M  V30 12750 H 1681.91 6.26671 -8.0846 0
M  V30 12751 H 1680.28 6.29101 -7.32804 0
M  V30 12752 H 1682.92 5.84315 -2.47318 0
M  V30 12753 P 1684.78 7.39546 -4.75277 0
M  V30 12754 O 1686.2 7.84882 -5.01092 0
M  V30 12755 O 1684.42 5.9812 -5.08098 0
M  V30 12756 O 1684.45 7.57503 -3.1866 0
M  V30 12757 C 1684.29 8.97452 -2.74862 0
M  V30 12758 C 1684.83 9.07548 -1.32709 0
M  V30 12759 O 1683.78 8.61972 -0.606089 0
M  V30 12760 C 1686.05 8.25383 -0.938334 0
M  V30 12761 O 1686.79 8.74577 0.146954 0
M  V30 12762 C 1685.38 6.8802 -0.712559 0
M  V30 12763 O 1686.18 6.1181 0.188505 0
M  V30 12764 C 1684.04 7.27966 -0.139777 0
M  V30 12765 N 1683 6.39368 -0.623421 0
M  V30 12766 C 1683.17 5.71761 -1.78245 0
M  V30 12767 N 1682.14 4.962 -2.10491 0
M  V30 12768 C 1681.26 5.16158 -1.0635 0
M  V30 12769 C 1679.99 4.60425 -0.810266 0
M  V30 12770 N 1679.43 5.06 0.348685 0
M  V30 12771 C 1680.03 5.94532 1.20395 0
M  V30 12772 N 1681.21 6.48452 1.01191 0
M  V30 12773 C 1681.78 6.04423 -0.146291 0
M  V30 12774 H 1685.26 6.32625 -1.65044 0
M  V30 12775 H 1686.74 8.19355 -1.79097 0
M  V30 12776 H 1685.05 10.1305 -1.09016 0
M  V30 12777 H 1684.86 9.64276 -3.41316 0
M  V30 12778 H 1683.23 9.25417 -2.76357 0
M  V30 12779 H 1684.07 5.79354 -2.38959 0
M  V30 12780 H 1685.87 6.25169 1.0783 0
M  V30 12781 P 1687.73 8.791 1.41298e-11 0
M  V30 12782 O 1689.15 9.31096 0.027933 0
M  V30 12783 O 1687.37 7.77869 -1.04071 0
M  V30 12784 O 1687.4 8.09533 1.41463 0
M  V30 12785 C 1687.24 9.0349 2.53943 0
M  V30 12786 C 1687.78 8.35226 3.79016 0
M  V30 12787 O 1686.73 7.57992 4.15078 0
M  V30 12788 C 1689 7.45087 3.67298 0
M  V30 12789 O 1689.74 7.27796 4.85194 0
M  V30 12790 C 1688.33 6.17323 3.12027 0
M  V30 12791 O 1689.13 5.04231 3.47188 0
M  V30 12792 C 1687 6.19961 3.81809 0
M  V30 12793 H 1687.03 5.58218 4.73051 0
M  V30 12794 H 1688.21 6.21726 2.02589 0
M  V30 12795 H 1689.69 7.86112 2.9231 0
M  V30 12796 H 1688 9.11627 4.55076 0
M  V30 12797 H 1687.81 9.9573 2.34194 0
M  V30 12798 H 1686.18 9.2792 2.67832 0
M  V30 12799 H 1688.82 4.67702 4.28772 0
M  V30 12800 P 1690.68 7.39546 4.75277 0
M  V30 12801 O 1692.1 7.81777 5.05738 0
M  V30 12802 O 1690.32 7.1065 3.32998 0
M  V30 12803 O 1690.35 6.04542 5.56673 0
M  V30 12804 C 1690.19 6.22772 7.02095 0
M  V30 12805 C 1690.73 4.97725 7.70406 0
M  V30 12806 O 1689.68 4.13256 7.58987 0
M  V30 12807 C 1691.95 4.28231 7.11815 0
M  V30 12808 O 1692.69 3.49945 8.01648 0
M  V30 12809 C 1691.28 3.5063 5.96244 0
M  V30 12810 O 1692.08 2.36482 5.64681 0
M  V30 12811 C 1689.95 3.15122 6.56374 0
M  V30 12812 H 1689.98 2.13853 6.99751 0
M  V30 12813 H 1691.16 4.13501 5.06559 0
M  V30 12814 H 1692.64 5.03285 6.70911 0
M  V30 12815 H 1690.95 5.20877 8.75697 0
M  V30 12816 H 1690.76 7.11046 7.35349 0
M  V30 12817 H 1689.13 6.35815 7.26986 0
M  V30 12818 H 1691.77 1.61644 6.13565 0
M  V30 12819 P 1693.63 3.65191 7.99657 0
M  V30 12820 O 1695.05 3.8425 8.48115 0
M  V30 12821 O 1693.27 4.17805 6.64342 0
M  V30 12822 O 1693.3 2.07613 7.95143 0
M  V30 12823 C 1693.14 1.44328 9.27336 0
M  V30 12824 C 1693.68 0.0220036 9.17197 0
M  V30 12825 O 1692.63 -0.626867 8.61923 0
M  V30 12826 C 1694.9 -0.24586 8.30336 0
M  V30 12827 O 1695.64 -1.39011 8.63583 0
M  V30 12828 C 1694.23 -0.273849 6.91158 0
M  V30 12829 O 1695.03 -1.06348 6.02892 0
M  V30 12830 C 1692.9 -0.897649 7.22545 0
M  V30 12831 H 1692.93 -1.9841 7.04286 0
M  V30 12832 H 1694.11 0.739928 6.497 0
M  V30 12833 H 1695.6 0.60668 8.36503 0
M  V30 12834 H 1693.9 -0.352479 10.1829 0
M  V30 12835 H 1693.71 2.00611 10.0304 0
M  V30 12836 H 1692.08 1.41843 9.55327 0
M  V30 12837 H 1694.72 -1.95734 6.03555 0
M  V30 12838 P 1696.58 -1.25109 8.70152 0
M  V30 12839 O 1698 -1.35274 9.21221 0
M  V30 12840 O 1696.22 -0.0769065 7.84762 0
M  V30 12841 O 1696.25 -2.55232 7.81161 0
M  V30 12842 C 1696.09 -3.79939 8.58154 0
M  V30 12843 C 1696.63 -4.94023 7.72785 0
M  V30 12844 O 1695.58 -5.18726 6.91205 0
M  V30 12845 C 1697.85 -4.69597 6.85231 0
M  V30 12846 O 1698.59 -5.83832 6.51337 0
M  V30 12847 C 1697.18 -3.96706 5.66633 0
M  V30 12848 O 1697.98 -4.15414 4.49689 0
M  V30 12849 C 1695.85 -4.66153 5.59313 0
M  V30 12850 H 1695.88 -5.47679 4.85214 0
M  V30 12851 H 1697.06 -2.89008 5.86566 0
M  V30 12852 H 1698.55 -4.0121 7.36511 0
M  V30 12853 H 1696.85 -5.80182 8.37584 0
M  V30 12854 H 1696.66 -3.73517 9.52265 0
M  V30 12855 H 1695.03 -3.97163 8.80359 0
M  V30 12856 H 1697.67 -4.90969 4.01921 0
M  V30 12857 P 1699.53 -5.75688 6.64379 0
M  V30 12858 O 1700.95 -6.11915 7.01921 0
M  V30 12859 O 1699.17 -4.30744 6.56026 0
M  V30 12860 O 1699.21 -6.37042 5.19165 0
M  V30 12861 C 1699.04 -7.83662 5.1657 0
M  V30 12862 C 1699.59 -8.33398 3.83019 0
M  V30 12863 O 1698.53 -8.0998 3.00999 0
M  V30 12864 C 1700.8 -7.65514 3.2257 0
M  V30 12865 O 1701.54 -8.4329 2.32297 0
M  V30 12866 C 1700.14 -6.40075 2.62207 0
M  V30 12867 O 1700.93 -5.92338 1.5428 0
M  V30 12868 C 1698.8 -6.9454 2.18503 0
M  V30 12869 N 1697.75 -5.95905 2.39948 0
M  V30 12870 C 1697.92 -4.98383 3.32108 0
M  V30 12871 N 1696.9 -4.16798 3.41761 0
M  V30 12872 C 1696.01 -4.65287 2.47461 0
M  V30 12873 C 1694.74 -4.18946 2.07461 0
M  V30 12874 N 1694.15 -3.09661 2.60717 0
M  V30 12875 N 1694.18 -4.95327 1.09101 0
M  V30 12876 C 1694.78 -6.04369 0.519812 0
M  V30 12877 N 1695.96 -6.50694 0.855982 0
M  V30 12878 C 1696.53 -5.75818 1.84322 0
M  V30 12879 H 1698.83 -7.22964 1.12076 0
M  V30 12880 H 1700.01 -5.60502 3.36589 0
M  V30 12881 H 1701.5 -7.35707 4.02681 0
M  V30 12882 H 1699.8 -9.41302 3.90009 0
M  V30 12883 H 1699.61 -8.29056 5.99158 0
M  V30 12884 H 1697.98 -8.10073 5.25882 0
M  V30 12885 H 1694.25 -6.55843 -0.270373 0
M  V30 12886 H 1698.82 -4.88564 3.92502 0
M  V30 12887 H 1693.22 -2.80523 2.27218 0
M  V30 12888 H 1694.62 -2.55848 3.34465 0
M  V30 12889 H 1700.62 -6.30224 0.72668 0
M  V30 12890 P 1702.48 -8.4349 2.47671 0
M  V30 12891 O 1703.9 -8.94167 2.5964 0
M  V30 12892 O 1702.12 -7.1704 3.19006 0
M  V30 12893 O 1702.16 -8.16596 0.923387 0
M  V30 12894 C 1702 -9.38437 0.108857 0
M  V30 12895 C 1702.54 -9.08175 -1.28353 0
M  V30 12896 O 1701.48 -8.44229 -1.84713 0
M  V30 12897 C 1703.75 -8.18386 -1.42505 0
M  V30 12898 O 1704.49 -8.3501 -2.60497 0
M  V30 12899 C 1703.08 -6.80225 -1.25468 0
M  V30 12900 O 1703.88 -5.81621 -1.91066 0
M  V30 12901 C 1701.75 -7.02416 -1.9168 0
M  V30 12902 H 1701.78 -6.6888 -2.96621 0
M  V30 12903 H 1702.96 -6.53617 -0.192223 0
M  V30 12904 H 1704.45 -8.36622 -0.589963 0
M  V30 12905 H 1702.75 -10.0291 -1.79807 0
M  V30 12906 H 1702.56 -10.2138 0.558219 0
M  V30 12907 H 1700.93 -9.6579 0.0444202 0
M  V30 12908 H 1703.57 -5.69556 -2.79637 0
M  V30 12909 P 1705.43 -8.4349 -2.47671 0
M  V30 12910 O 1706.85 -8.92593 -2.65 0
M  V30 12911 O 1705.07 -7.7568 -1.19296 0
M  V30 12912 O 1705.11 -7.36886 -3.63805 0
M  V30 12913 C 1704.95 -7.95349 -4.982 0
M  V30 12914 C 1705.49 -6.94612 -5.98974 0
M  V30 12915 O 1704.43 -6.10347 -6.11815 0
M  V30 12916 C 1706.7 -6.11426 -5.62335 0
M  V30 12917 O 1707.44 -5.6162 -6.70584 0
M  V30 12918 C 1706.04 -5.04409 -4.73308 0
M  V30 12919 O 1706.83 -3.85992 -4.75183 0
M  V30 12920 C 1704.7 -4.8728 -5.41006 0
M  V30 12921 H 1704.73 -4.02333 -6.11157 0
M  V30 12922 H 1705.91 -5.39466 -3.69543 0
M  V30 12923 H 1707.4 -6.71916 -5.01943 0
M  V30 12924 H 1705.7 -7.4649 -6.93477 0
M  V30 12925 H 1705.51 -8.89416 -5.05237 0
M  V30 12926 H 1703.88 -8.14876 -5.18409 0
M  V30 12927 H 1706.52 -3.27957 -5.4317 0
M  V30 12928 P 1708.38 -5.75688 -6.64379 0
M  V30 12929 O 1709.8 -6.07692 -7.0558 0
M  V30 12930 O 1708.02 -5.88047 -5.19722 0
M  V30 12931 O 1708.06 -4.2322 -7.04443 0
M  V30 12932 C 1707.9 -3.99785 -8.49201 0
M  V30 12933 C 1708.44 -2.60516 -8.79425 0
M  V30 12934 O 1707.38 -1.82663 -8.44573 0
M  V30 12935 C 1709.66 -2.10343 -8.03628 0
M  V30 12936 O 1710.39 -1.09919 -8.67766 0
M  V30 12937 C 1708.99 -1.68446 -6.70876 0
M  V30 12938 O 1709.79 -0.684109 -6.08265 0
M  V30 12939 C 1707.65 -1.17436 -7.18567 0
M  V30 12940 N 1706.61 -1.52699 -6.23988 0
M  V30 12941 C 1706.78 -2.578 -5.40574 0
M  V30 12942 N 1705.75 -2.78966 -4.61193 0
M  V30 12943 C 1704.86 -1.78725 -4.95769 0
M  V30 12944 C 1703.6 -1.45727 -4.44207 0
M  V30 12945 N 1703 -2.13994 -3.43613 0
M  V30 12946 N 1703.03 -0.374977 -5.05812 0
M  V30 12947 C 1703.63 0.345585 -6.05615 0
M  V30 12948 N 1704.81 0.0787651 -6.56253 0
M  V30 12949 C 1705.39 -1.00499 -5.96189 0
M  V30 12950 H 1707.68 -0.0804622 -7.31556 0
M  V30 12951 H 1708.86 -2.53396 -6.02698 0
M  V30 12952 H 1710.35 -2.93881 -7.85526 0
M  V30 12953 H 1708.65 -2.52078 -9.87225 0
M  V30 12954 H 1708.46 -4.75072 -9.05887 0
M  V30 12955 H 1706.83 -4.05244 -8.76668 0
M  V30 12956 H 1703.1 1.20098 -6.4532 0
M  V30 12957 H 1707.68 -3.18977 -5.3945 0
M  V30 12958 H 1702.07 -1.84983 -3.10004 0
M  V30 12959 H 1703.47 -2.9465 -3.00843 0
M  V30 12960 H 1709.47 0.177619 -6.34151 0
M  V30 12961 P 1711.33 -1.25109 -8.70152 0
M  V30 12962 O 1712.75 -1.29744 -9.22016 0
M  V30 12963 O 1710.97 -2.13714 -7.55141 0
M  V30 12964 O 1711.01 0.248149 -8.21425 0
M  V30 12965 C 1710.85 1.22779 -9.30434 0
M  V30 12966 C 1711.39 2.56293 -8.80664 0
M  V30 12967 O 1710.33 3.02979 -8.09349 0
M  V30 12968 C 1712.61 2.57523 -7.89775 0
M  V30 12969 O 1713.34 3.7668 -7.89438 0
M  V30 12970 C 1711.94 2.20997 -6.55446 0
M  V30 12971 O 1712.74 2.71895 -5.48509 0
M  V30 12972 C 1710.6 2.89693 -6.67988 0
M  V30 12973 H 1710.63 3.88793 -6.19859 0
M  V30 12974 H 1711.81 1.12046 -6.44229 0
M  V30 12975 H 1713.3 1.7746 -8.19711 0
M  V30 12976 H 1711.6 3.20706 -9.67112 0
M  V30 12977 H 1711.41 0.901032 -10.1892 0
M  V30 12978 H 1709.78 1.33049 -9.56592 0
M  V30 12979 H 1712.42 3.57847 -5.23962 0
M  V30 12980 P 1714.28 3.65191 -7.99657 0
M  V30 12981 O 1715.7 3.89332 -8.45794 0
M  V30 12982 O 1713.92 2.28472 -7.50807 0
M  V30 12983 O 1713.96 4.64972 -6.77611 0
M  V30 12984 C 1713.8 6.06319 -7.16352 0
M  V30 12985 C 1714.34 6.91731 -6.02299 0
M  V30 12986 O 1713.28 6.92449 -5.17064 0
M  V30 12987 C 1715.56 6.43627 -5.25174 0
M  V30 12988 O 1716.29 7.43686 -4.60469 0
M  V30 12989 C 1714.89 5.40275 -4.31916 0
M  V30 12990 O 1715.69 5.25279 -3.14438 0
M  V30 12991 C 1713.55 6.04847 -4.05327 0
M  V30 12992 H 1713.58 6.62195 -3.11261 0
M  V30 12993 H 1714.77 4.42556 -4.81383 0
M  V30 12994 H 1716.25 5.92458 -5.93643 0
M  V30 12995 H 1714.56 7.92655 -6.402 0
M  V30 12996 H 1714.37 6.26671 -8.0846 0
M  V30 12997 H 1712.74 6.29101 -7.32804 0
M  V30 12998 H 1715.37 5.84315 -2.47318 0
M  V30 12999 P 1717.23 7.39546 -4.75277 0
M  V30 13000 O 1718.65 7.84798 -5.01039 0
M  V30 13001 O 1716.87 5.9812 -5.08098 0
M  V30 13002 O 1716.91 7.57503 -3.1866 0
M  V30 13003 C 1716.75 8.97357 -2.74833 0
M  V30 13004 C 1717.29 9.07548 -1.32709 0
M  V30 13005 O 1716.23 8.62072 -0.606159 0
M  V30 13006 C 1718.51 8.25383 -0.938334 0
M  V30 13007 O 1719.24 8.74577 0.146954 0
M  V30 13008 C 1717.84 6.8802 -0.712559 0
M  V30 13009 O 1718.64 6.1189 0.194655 0
M  V30 13010 C 1716.5 7.27966 -0.139777 0
M  V30 13011 H 1716.53 7.25354 0.961601 0
M  V30 13012 H 1717.72 6.32557 -1.65702 0
M  V30 13013 H 1719.2 8.19355 -1.79097 0
M  V30 13014 H 1717.51 10.1294 -1.10029 0
M  V30 13015 H 1717.32 9.64276 -3.41316 0
M  V30 13016 H 1715.69 9.25417 -2.76357 0
M  V30 13017 H 1718.32 6.25267 1.07847 0
M  V30 13018 P 1720.18 8.791 1.44399e-11 0
M  V30 13019 O 1721.6 9.31096 0.027933 0
M  V30 13020 O 1719.82 7.77869 -1.04071 0
M  V30 13021 O 1719.86 8.09533 1.41463 0
M  V30 13022 C 1719.7 9.0349 2.53943 0
M  V30 13023 C 1720.24 8.35226 3.79016 0
M  V30 13024 O 1719.18 7.57992 4.15078 0
M  V30 13025 C 1721.46 7.45087 3.67298 0
M  V30 13026 O 1722.2 7.27796 4.85194 0
M  V30 13027 C 1720.79 6.17323 3.12027 0
M  V30 13028 O 1721.59 5.04231 3.47188 0
M  V30 13029 C 1719.45 6.19961 3.81809 0
M  V30 13030 H 1719.48 5.58218 4.73051 0
M  V30 13031 H 1720.67 6.21726 2.02589 0
M  V30 13032 H 1722.15 7.86112 2.9231 0
M  V30 13033 H 1720.46 9.11627 4.55076 0
M  V30 13034 H 1720.27 9.9573 2.34194 0
M  V30 13035 H 1718.64 9.2792 2.67832 0
M  V30 13036 H 1721.28 4.67702 4.28772 0
M  V30 13037 P 1723.13 7.39546 4.75277 0
M  V30 13038 O 1724.55 7.81945 5.05847 0
M  V30 13039 O 1722.77 7.1065 3.32998 0
M  V30 13040 O 1722.81 6.04542 5.56673 0
M  V30 13041 C 1722.65 6.22772 7.02095 0
M  V30 13042 C 1723.19 4.97671 7.70322 0
M  V30 13043 O 1722.13 4.13256 7.58987 0
M  V30 13044 C 1724.41 4.28231 7.11815 0
M  V30 13045 O 1725.15 3.49945 8.01648 0
M  V30 13046 C 1723.74 3.5063 5.96244 0
M  V30 13047 O 1724.54 2.36443 5.64589 0
M  V30 13048 C 1722.4 3.15122 6.56374 0
M  V30 13049 N 1721.36 3.22311 5.55692 0
M  V30 13050 C 1721.42 4.14382 4.59701 0
M  V30 13051 N 1720.38 4.04476 3.76958 0
M  V30 13052 C 1719.64 3.04892 4.26534 0
M  V30 13053 C 1718.34 2.57447 3.88189 0
M  V30 13054 O 1717.6 2.9785 2.96543 0
M  V30 13055 N 1717.91 1.55228 4.65922 0
M  V30 13056 C 1718.65 1.01152 5.73447 0
M  V30 13057 N 1718.06 -0.0472117 6.37783 0
M  V30 13058 N 1719.81 1.467 6.13813 0
M  V30 13059 C 1720.26 2.4931 5.38487 0
M  V30 13060 H 1722.43 2.13853 6.99751 0
M  V30 13061 H 1723.62 4.13438 5.06482 0
M  V30 13062 H 1725.1 5.02614 6.71414 0
M  V30 13063 H 1723.41 5.20877 8.75697 0
M  V30 13064 H 1723.22 7.11046 7.35349 0
M  V30 13065 H 1721.59 6.35815 7.26986 0
M  V30 13066 H 1717.01 1.15238 4.46468 0
M  V30 13067 H 1722.22 4.88312 4.49647 0
M  V30 13068 H 1717.15 -0.396382 6.05203 0
M  V30 13069 H 1718.52 -0.484997 7.18465 0
M  V30 13070 H 1724.23 1.61619 6.13468 0
M  V30 13071 P 1726.08 3.65191 7.99657 0
M  V30 13072 O 1727.5 3.84292 8.48206 0
M  V30 13073 O 1725.72 4.17805 6.64342 0
M  V30 13074 O 1725.76 2.07613 7.95143 0
M  V30 13075 C 1725.6 1.44344 9.27435 0
M  V30 13076 C 1726.14 0.0220036 9.17197 0
M  V30 13077 O 1725.09 -0.626794 8.61824 0
M  V30 13078 C 1727.36 -0.24586 8.30336 0
M  V30 13079 O 1728.1 -1.39011 8.63583 0
M  V30 13080 C 1726.69 -0.273849 6.91158 0
M  V30 13081 O 1727.49 -1.05728 6.029 0
M  V30 13082 C 1725.35 -0.897649 7.22545 0
M  V30 13083 N 1724.31 -0.292839 6.41732 0
M  V30 13084 C 1724.48 0.950603 5.91308 0
M  V30 13085 N 1723.45 1.37732 5.21105 0
M  V30 13086 C 1722.57 0.318109 5.26039 0
M  V30 13087 C 1721.3 0.146766 4.6727 0
M  V30 13088 N 1720.73 -1.06525 4.95887 0
M  V30 13089 C 1721.34 -2.0378 5.71347 0
M  V30 13090 N 1722.51 -1.92445 6.27451 0
M  V30 13091 C 1723.09 -0.715382 6.00353 0
M  V30 13092 H 1726.57 0.733318 6.49674 0
M  V30 13093 H 1728.05 0.60668 8.36503 0
M  V30 13094 H 1726.36 -0.362662 10.1825 0
M  V30 13095 H 1726.17 2.00611 10.0304 0
M  V30 13096 H 1724.54 1.41843 9.55327 0
M  V30 13097 H 1725.38 1.54076 6.07465 0
M  V30 13098 H 1727.18 -1.95704 6.0346 0
M  V30 13099 P 1729.03 -1.25109 8.70152 0
M  V30 13100 O 1730.46 -1.35288 9.2132 0
M  V30 13101 O 1728.67 -0.0769065 7.84762 0
M  V30 13102 O 1728.71 -2.55232 7.81161 0
M  V30 13103 C 1728.55 -3.79979 8.58246 0
M  V30 13104 C 1729.09 -4.94023 7.72785 0
M  V30 13105 O 1728.04 -5.18666 6.91125 0
M  V30 13106 C 1730.31 -4.69597 6.85231 0
M  V30 13107 O 1731.05 -5.83832 6.51337 0
M  V30 13108 C 1729.64 -3.96706 5.66633 0
M  V30 13109 O 1730.44 -4.14896 4.5003 0
M  V30 13110 C 1728.3 -4.66153 5.59313 0
M  V30 13111 N 1727.26 -3.71582 5.24027 0
M  V30 13112 C 1727.43 -2.39715 5.48833 0
M  V30 13113 N 1726.4 -1.65863 5.12845 0
M  V30 13114 C 1725.52 -2.57637 4.5973 0
M  V30 13115 C 1724.25 -2.40278 4.01027 0
M  V30 13116 N 1723.69 -3.57711 3.59575 0
M  V30 13117 C 1724.29 -4.80324 3.70476 0
M  V30 13118 N 1725.46 -5.01121 4.23801 0
M  V30 13119 C 1726.04 -3.84757 4.66372 0
M  V30 13120 H 1729.52 -2.8955 5.86187 0
M  V30 13121 H 1731 -4.0121 7.36511 0
M  V30 13122 H 1729.31 -5.81019 8.37003 0
M  V30 13123 H 1729.12 -3.73517 9.52265 0
M  V30 13124 H 1727.49 -3.97163 8.80359 0
M  V30 13125 H 1728.33 -1.98804 5.94332 0
M  V30 13126 H 1730.13 -4.90891 4.01857 0
M  V30 13127 P 1731.98 -5.75688 6.64379 0
M  V30 13128 O 1733.41 -6.11981 7.01997 0
M  V30 13129 O 1731.62 -4.30744 6.56026 0
M  V30 13130 O 1731.66 -6.37042 5.19165 0
M  V30 13131 C 1731.5 -7.83578 5.16515 0
M  V30 13132 C 1732.04 -8.33307 3.82977 0
M  V30 13133 O 1730.99 -8.10074 3.01034 0
M  V30 13134 C 1733.26 -7.65514 3.2257 0
M  V30 13135 O 1734 -8.4329 2.32297 0
M  V30 13136 C 1732.59 -6.40075 2.62207 0
M  V30 13137 O 1733.39 -5.92492 1.53687 0
M  V30 13138 C 1731.25 -6.9454 2.18503 0
M  V30 13139 N 1730.21 -5.95905 2.39948 0
M  V30 13140 C 1730.27 -5.13994 3.44742 0
M  V30 13141 N 1729.23 -4.30684 3.46712 0
M  V30 13142 C 1728.49 -4.65583 2.41086 0
M  V30 13143 C 1727.19 -4.20877 1.99581 0
M  V30 13144 O 1726.45 -3.35913 2.52616 0
M  V30 13145 N 1726.76 -4.83271 0.873406 0
M  V30 13146 C 1727.51 -5.82006 0.185129 0
M  V30 13147 N 1726.91 -6.30619 -0.95439 0
M  V30 13148 N 1728.66 -6.28443 0.578524 0
M  V30 13149 C 1729.12 -5.68486 1.70138 0
M  V30 13150 H 1731.29 -7.23063 1.12091 0
M  V30 13151 H 1732.47 -5.60165 3.3715 0
M  V30 13152 H 1733.95 -7.3611 4.01946 0
M  V30 13153 H 1732.26 -9.40912 3.9095 0
M  V30 13154 H 1732.07 -8.29056 5.99158 0
M  V30 13155 H 1730.44 -8.10073 5.25882 0
M  V30 13156 H 1725.86 -4.58323 0.505262 0
M  V30 13157 H 1731.07 -5.14564 4.1935 0
M  V30 13158 H 1726 -5.93402 -1.25364 0
M  V30 13159 H 1727.37 -7.0425 -1.50254 0
M  V30 13160 H 1733.08 -6.30224 0.72668 0
M  V30 13161 P 1734.94 -8.4349 2.47671 0
M  V30 13162 O 1736.36 -8.94263 2.59668 0
M  V30 13163 O 1734.58 -7.1704 3.19006 0
M  V30 13164 O 1734.61 -8.16596 0.923387 0
M  V30 13165 C 1734.45 -9.38537 0.108869 0
M  V30 13166 C 1734.99 -9.08175 -1.28353 0
M  V30 13167 O 1733.94 -8.44131 -1.84692 0
M  V30 13168 C 1736.21 -8.18386 -1.42505 0
M  V30 13169 O 1736.95 -8.3501 -2.60497 0
M  V30 13170 C 1735.54 -6.80225 -1.25468 0
M  V30 13171 O 1736.34 -5.81716 -1.90454 0
M  V30 13172 C 1734.2 -7.02416 -1.9168 0
M  V30 13173 N 1733.16 -6.31033 -1.20314 0
M  V30 13174 C 1733.33 -5.98817 0.0994088 0
M  V30 13175 N 1732.3 -5.35403 0.621694 0
M  V30 13176 C 1731.42 -5.25212 -0.43376 0
M  V30 13177 C 1730.15 -4.64602 -0.519722 0
M  V30 13178 N 1729.55 -4.01457 0.519136 0
M  V30 13179 N 1729.59 -4.7568 -1.76013 0
M  V30 13180 C 1730.19 -5.3653 -2.83017 0
M  V30 13181 N 1731.37 -5.93676 -2.79782 0
M  V30 13182 C 1731.94 -5.84061 -1.56249 0
M  V30 13183 H 1734.24 -6.68789 -2.9658 0
M  V30 13184 H 1735.42 -6.53498 -0.198729 0
M  V30 13185 H 1736.9 -8.36622 -0.589963 0
M  V30 13186 H 1735.21 -10.0273 -1.8081 0
M  V30 13187 H 1735.02 -10.2138 0.558219 0
M  V30 13188 H 1733.39 -9.6579 0.0444202 0
M  V30 13189 H 1729.65 -5.37113 -3.77321 0
M  V30 13190 H 1734.23 -6.23209 0.660562 0
M  V30 13191 H 1728.62 -3.58834 0.394862 0
M  V30 13192 H 1730.03 -3.96059 1.43048 0
M  V30 13193 H 1736.03 -5.69466 -2.79593 0
M  V30 13194 P 1737.89 -8.4349 -2.47671 0
M  V30 13195 O 1739.31 -8.92593 -2.65 0
M  V30 13196 O 1737.53 -7.7568 -1.19296 0
M  V30 13197 O 1737.56 -7.36886 -3.63805 0
M  V30 13198 C 1737.4 -7.95349 -4.982 0
M  V30 13199 C 1737.94 -6.94612 -5.98974 0
M  V30 13200 O 1736.89 -6.10347 -6.11815 0
M  V30 13201 C 1739.16 -6.11426 -5.62335 0
M  V30 13202 O 1739.9 -5.6162 -6.70584 0
M  V30 13203 C 1738.49 -5.04409 -4.73308 0
M  V30 13204 O 1739.29 -3.85992 -4.75183 0
M  V30 13205 C 1737.15 -4.8728 -5.41006 0
M  V30 13206 H 1737.19 -4.02333 -6.11157 0
M  V30 13207 H 1738.37 -5.39466 -3.69543 0
M  V30 13208 H 1739.85 -6.71916 -5.01943 0
M  V30 13209 H 1738.16 -7.4649 -6.93477 0
M  V30 13210 H 1737.97 -8.89416 -5.05237 0
M  V30 13211 H 1736.34 -8.14876 -5.18409 0
M  V30 13212 H 1738.98 -3.27957 -5.4317 0
M  V30 13213 P 1740.84 -5.75688 -6.64379 0
M  V30 13214 O 1742.26 -6.07627 -7.05504 0
M  V30 13215 O 1740.48 -5.88047 -5.19722 0
M  V30 13216 O 1740.51 -4.2322 -7.04443 0
M  V30 13217 C 1740.35 -3.99743 -8.4911 0
M  V30 13218 C 1740.89 -2.60516 -8.79425 0
M  V30 13219 O 1739.84 -1.82684 -8.4467 0
M  V30 13220 C 1742.11 -2.10343 -8.03628 0
M  V30 13221 O 1742.85 -1.09919 -8.67766 0
M  V30 13222 C 1741.44 -1.68446 -6.70876 0
M  V30 13223 O 1742.24 -0.678137 -6.08433 0
M  V30 13224 C 1740.11 -1.17436 -7.18567 0
M  V30 13225 H 1740.14 -0.0804732 -7.31656 0
M  V30 13226 H 1741.32 -2.54037 -6.02537 0
M  V30 13227 H 1742.8 -2.93881 -7.85526 0
M  V30 13228 H 1741.11 -2.53065 -9.86973 0
M  V30 13229 H 1740.92 -4.75072 -9.05887 0
M  V30 13230 H 1739.29 -4.05244 -8.76668 0
M  V30 13231 H 1741.93 0.177647 -6.34251 0
M  V30 13232 P 1743.79 -1.25109 -8.70152 0
M  V30 13233 O 1745.21 -1.29744 -9.22016 0
M  V30 13234 O 1743.43 -2.13714 -7.55141 0
M  V30 13235 O 1743.46 0.248149 -8.21425 0
M  V30 13236 C 1743.3 1.22779 -9.30434 0
M  V30 13237 C 1743.84 2.56293 -8.80664 0
M  V30 13238 O 1742.79 3.02979 -8.09349 0
M  V30 13239 C 1745.06 2.57523 -7.89775 0
M  V30 13240 O 1745.8 3.7668 -7.89438 0
M  V30 13241 C 1744.39 2.20997 -6.55446 0
M  V30 13242 O 1745.19 2.71895 -5.48509 0
M  V30 13243 C 1743.06 2.89693 -6.67988 0
M  V30 13244 H 1743.09 3.88793 -6.19859 0
M  V30 13245 H 1744.27 1.12046 -6.44229 0
M  V30 13246 H 1745.75 1.7746 -8.19711 0
M  V30 13247 H 1744.06 3.20706 -9.67112 0
M  V30 13248 H 1743.87 0.901032 -10.1892 0
M  V30 13249 H 1742.24 1.33049 -9.56592 0
M  V30 13250 H 1744.88 3.57847 -5.23962 0
M  V30 13251 P 1746.74 3.65191 -7.99657 0
M  V30 13252 O 1748.16 3.89332 -8.45794 0
M  V30 13253 O 1746.38 2.28472 -7.50807 0
M  V30 13254 O 1746.41 4.64972 -6.77611 0
M  V30 13255 C 1746.25 6.06319 -7.16352 0
M  V30 13256 C 1746.79 6.91731 -6.02299 0
M  V30 13257 O 1745.74 6.92449 -5.17064 0
M  V30 13258 C 1748.01 6.43627 -5.25174 0
M  V30 13259 O 1748.75 7.43686 -4.60469 0
M  V30 13260 C 1747.34 5.40275 -4.31916 0
M  V30 13261 O 1748.14 5.25279 -3.14438 0
M  V30 13262 C 1746.01 6.04847 -4.05327 0
M  V30 13263 H 1746.04 6.62195 -3.11261 0
M  V30 13264 H 1747.22 4.42556 -4.81383 0
M  V30 13265 H 1748.71 5.92458 -5.93643 0
M  V30 13266 H 1747.01 7.92655 -6.402 0
M  V30 13267 H 1746.82 6.26671 -8.0846 0
M  V30 13268 H 1745.19 6.29101 -7.32804 0
M  V30 13269 H 1747.83 5.84315 -2.47318 0
M  V30 13270 P 1749.69 7.39546 -4.75277 0
M  V30 13271 O 1751.11 7.84798 -5.01039 0
M  V30 13272 O 1749.33 5.9812 -5.08098 0
M  V30 13273 O 1749.37 7.57503 -3.1866 0
M  V30 13274 C 1749.21 8.97357 -2.74833 0
M  V30 13275 C 1749.75 9.07548 -1.32709 0
M  V30 13276 O 1748.69 8.62072 -0.606159 0
M  V30 13277 C 1750.96 8.25383 -0.938334 0
M  V30 13278 O 1751.7 8.74577 0.146954 0
M  V30 13279 C 1750.29 6.8802 -0.712559 0
M  V30 13280 O 1751.09 6.1189 0.194655 0
M  V30 13281 C 1748.96 7.27966 -0.139777 0
M  V30 13282 H 1748.99 7.25354 0.961601 0
M  V30 13283 H 1750.17 6.32557 -1.65702 0
M  V30 13284 H 1751.66 8.19355 -1.79097 0
M  V30 13285 H 1749.96 10.1294 -1.10029 0
M  V30 13286 H 1749.77 9.64276 -3.41316 0
M  V30 13287 H 1748.14 9.25417 -2.76357 0
M  V30 13288 H 1750.78 6.25267 1.07847 0
M  V30 13289 P 1752.64 8.791 1.47501e-11 0
M  V30 13290 O 1754.06 9.31296 0.027939 0
M  V30 13291 O 1752.28 7.77869 -1.04071 0
M  V30 13292 O 1752.32 8.09533 1.41463 0
M  V30 13293 C 1752.16 9.0349 2.53943 0
M  V30 13294 C 1752.7 8.35135 3.78975 0
M  V30 13295 O 1751.64 7.57992 4.15078 0
M  V30 13296 C 1753.91 7.45087 3.67298 0
M  V30 13297 O 1754.65 7.27796 4.85194 0
M  V30 13298 C 1753.25 6.17323 3.12027 0
M  V30 13299 O 1754.04 5.04149 3.47132 0
M  V30 13300 C 1751.91 6.19961 3.81809 0
M  V30 13301 N 1750.86 5.71575 2.93223 0
M  V30 13302 C 1750.93 5.97133 1.62693 0
M  V30 13303 N 1749.88 5.44066 0.984414 0
M  V30 13304 C 1749.15 4.87093 1.93987 0
M  V30 13305 C 1747.84 4.26449 1.8738 0
M  V30 13306 O 1747.11 4.1089 0.884377 0
M  V30 13307 N 1747.41 3.82483 3.08036 0
M  V30 13308 C 1748.16 3.95124 4.27727 0
M  V30 13309 N 1747.56 3.4084 5.39089 0
M  V30 13310 N 1749.31 4.55264 4.3706 0
M  V30 13311 C 1749.77 5.00861 3.18217 0
M  V30 13312 H 1751.94 5.58218 4.73051 0
M  V30 13313 H 1753.12 6.21631 2.02558 0
M  V30 13314 H 1754.61 7.85819 2.93096 0
M  V30 13315 H 1752.91 9.11627 4.55076 0
M  V30 13316 H 1752.72 9.9573 2.34194 0
M  V30 13317 H 1751.09 9.2792 2.67832 0
M  V30 13318 H 1746.52 3.38323 3.1329 0
M  V30 13319 H 1751.72 6.53891 1.14265 0
M  V30 13320 H 1746.65 2.93852 5.30559 0
M  V30 13321 H 1748.03 3.47631 6.30632 0
M  V30 13322 H 1753.73 4.67628 4.28704 0
M  V30 13323 P 1755.59 7.39546 4.75277 0
M  V30 13324 O 1757.01 7.81777 5.05738 0
M  V30 13325 O 1755.23 7.1065 3.32998 0
M  V30 13326 O 1755.27 6.04542 5.56673 0
M  V30 13327 C 1755.11 6.22772 7.02095 0
M  V30 13328 C 1755.65 4.97725 7.70406 0
M  V30 13329 O 1754.59 4.13256 7.58987 0
M  V30 13330 C 1756.86 4.28231 7.11815 0
M  V30 13331 O 1757.6 3.49945 8.01648 0
M  V30 13332 C 1756.2 3.5063 5.96244 0
M  V30 13333 O 1756.99 2.36482 5.64681 0
M  V30 13334 C 1754.86 3.15122 6.56374 0
M  V30 13335 H 1754.89 2.13853 6.99751 0
M  V30 13336 H 1756.07 4.13501 5.06559 0
M  V30 13337 H 1757.56 5.03285 6.70911 0
M  V30 13338 H 1755.86 5.20877 8.75697 0
M  V30 13339 H 1755.67 7.11046 7.35349 0
M  V30 13340 H 1754.04 6.35815 7.26986 0
M  V30 13341 H 1756.68 1.61644 6.13565 0
M  V30 13342 P 1758.54 3.65191 7.99657 0
M  V30 13343 O 1759.96 3.8425 8.48115 0
M  V30 13344 O 1758.18 4.17805 6.64342 0
M  V30 13345 O 1758.22 2.07613 7.95143 0
M  V30 13346 C 1758.06 1.44328 9.27336 0
M  V30 13347 C 1758.6 0.0220036 9.17197 0
M  V30 13348 O 1757.54 -0.626867 8.61923 0
M  V30 13349 C 1759.81 -0.24586 8.30336 0
M  V30 13350 O 1760.55 -1.39011 8.63583 0
M  V30 13351 C 1759.15 -0.273849 6.91158 0
M  V30 13352 O 1759.94 -1.06348 6.02892 0
M  V30 13353 C 1757.81 -0.897649 7.22545 0
M  V30 13354 H 1757.84 -1.9841 7.04286 0
M  V30 13355 H 1759.02 0.739928 6.497 0
M  V30 13356 H 1760.51 0.60668 8.36503 0
M  V30 13357 H 1758.81 -0.352479 10.1829 0
M  V30 13358 H 1758.62 2.00611 10.0304 0
M  V30 13359 H 1756.99 1.41843 9.55327 0
M  V30 13360 H 1759.63 -1.95734 6.03555 0
M  V30 13361 P 1761.49 -1.25109 8.70152 0
M  V30 13362 O 1762.91 -1.35288 9.2132 0
M  V30 13363 O 1761.13 -0.0769065 7.84762 0
M  V30 13364 O 1761.17 -2.55232 7.81161 0
M  V30 13365 C 1761.01 -3.79979 8.58246 0
M  V30 13366 C 1761.55 -4.94023 7.72785 0
M  V30 13367 O 1760.49 -5.18666 6.91125 0
M  V30 13368 C 1762.77 -4.69597 6.85231 0
M  V30 13369 O 1763.5 -5.83832 6.51337 0
M  V30 13370 C 1762.1 -3.96706 5.66633 0
M  V30 13371 O 1762.9 -4.14896 4.5003 0
M  V30 13372 C 1760.76 -4.66153 5.59313 0
M  V30 13373 N 1759.72 -3.71582 5.24027 0
M  V30 13374 C 1759.89 -2.39715 5.48833 0
M  V30 13375 N 1758.86 -1.65863 5.12845 0
M  V30 13376 C 1757.97 -2.57637 4.5973 0
M  V30 13377 C 1756.71 -2.40278 4.01027 0
M  V30 13378 N 1756.14 -3.57711 3.59575 0
M  V30 13379 C 1756.74 -4.80324 3.70476 0
M  V30 13380 N 1757.92 -5.01121 4.23801 0
M  V30 13381 C 1758.5 -3.84757 4.66372 0
M  V30 13382 H 1761.97 -2.8955 5.86187 0
M  V30 13383 H 1763.46 -4.0121 7.36511 0
M  V30 13384 H 1761.76 -5.81019 8.37003 0
M  V30 13385 H 1761.57 -3.73517 9.52265 0
M  V30 13386 H 1759.94 -3.97163 8.80359 0
M  V30 13387 H 1760.79 -1.98804 5.94332 0
M  V30 13388 H 1762.58 -4.90891 4.01857 0
M  V30 13389 P 1764.44 -5.75688 6.64379 0
M  V30 13390 O 1765.86 -6.11849 7.01846 0
M  V30 13391 O 1764.08 -4.30744 6.56026 0
M  V30 13392 O 1764.12 -6.37042 5.19165 0
M  V30 13393 C 1763.96 -7.83578 5.16515 0
M  V30 13394 C 1764.5 -8.33398 3.83019 0
M  V30 13395 O 1763.44 -8.10074 3.01034 0
M  V30 13396 C 1765.72 -7.65514 3.2257 0
M  V30 13397 O 1766.45 -8.4329 2.32297 0
M  V30 13398 C 1765.05 -6.40075 2.62207 0
M  V30 13399 O 1765.85 -5.92589 1.53712 0
M  V30 13400 C 1763.71 -6.9454 2.18503 0
M  V30 13401 H 1763.74 -7.23063 1.12091 0
M  V30 13402 H 1764.92 -5.6025 3.37201 0
M  V30 13403 H 1766.41 -7.35707 4.02681 0
M  V30 13404 H 1764.71 -9.40912 3.9095 0
M  V30 13405 H 1764.52 -8.29056 5.99158 0
M  V30 13406 H 1762.89 -8.10073 5.25882 0
M  V30 13407 H 1765.53 -6.30324 0.726794 0
M  V30 13408 P 1767.39 -8.4349 2.47671 0
M  V30 13409 O 1768.81 -8.94167 2.5964 0
M  V30 13410 O 1767.03 -7.1704 3.19006 0
M  V30 13411 O 1767.07 -8.16596 0.923387 0
M  V30 13412 C 1766.91 -9.38437 0.108857 0
M  V30 13413 C 1767.45 -9.08175 -1.28353 0
M  V30 13414 O 1766.39 -8.44229 -1.84713 0
M  V30 13415 C 1768.67 -8.18386 -1.42505 0
M  V30 13416 O 1769.4 -8.3501 -2.60497 0
M  V30 13417 C 1768 -6.80225 -1.25468 0
M  V30 13418 O 1768.8 -5.81621 -1.91066 0
M  V30 13419 C 1766.66 -7.02416 -1.9168 0
M  V30 13420 H 1766.69 -6.6888 -2.96621 0
M  V30 13421 H 1767.88 -6.53617 -0.192223 0
M  V30 13422 H 1769.36 -8.36622 -0.589963 0
M  V30 13423 H 1767.67 -10.0291 -1.79807 0
M  V30 13424 H 1767.48 -10.2138 0.558219 0
M  V30 13425 H 1765.85 -9.6579 0.0444202 0
M  V30 13426 H 1768.48 -5.69556 -2.79637 0
M  V30 13427 P 1770.34 -8.4349 -2.47671 0
M  V30 13428 O 1771.76 -8.92689 -2.65029 0
M  V30 13429 O 1769.98 -7.7568 -1.19296 0
M  V30 13430 O 1770.02 -7.36886 -3.63805 0
M  V30 13431 C 1769.86 -7.95433 -4.98253 0
M  V30 13432 C 1770.4 -6.94612 -5.98974 0
M  V30 13433 O 1769.34 -6.10277 -6.11744 0
M  V30 13434 C 1771.62 -6.11426 -5.62335 0
M  V30 13435 O 1772.35 -5.6162 -6.70584 0
M  V30 13436 C 1770.95 -5.04409 -4.73308 0
M  V30 13437 O 1771.75 -3.86404 -4.74719 0
M  V30 13438 C 1769.61 -4.8728 -5.41006 0
M  V30 13439 N 1768.57 -4.65812 -4.42377 0
M  V30 13440 C 1768.74 -5.09132 -3.15382 0
M  V30 13441 N 1767.71 -4.84021 -2.3716 0
M  V30 13442 C 1766.82 -4.18386 -3.20441 0
M  V30 13443 C 1765.56 -3.6275 -2.94905 0
M  V30 13444 N 1764.99 -3.05008 -4.05243 0
M  V30 13445 C 1765.59 -2.98348 -5.28159 0
M  V30 13446 N 1766.77 -3.48171 -5.56333 0
M  V30 13447 C 1767.35 -4.06869 -4.47212 0
M  V30 13448 H 1770.83 -5.39013 -3.70026 0
M  V30 13449 H 1772.31 -6.71916 -5.01943 0
M  V30 13450 H 1770.61 -7.45796 -6.94223 0
M  V30 13451 H 1770.42 -8.89416 -5.05237 0
M  V30 13452 H 1768.79 -8.14876 -5.18409 0
M  V30 13453 H 1769.64 -5.59989 -2.81362 0
M  V30 13454 H 1771.43 -3.27906 -5.43085 0
M  V30 13455 P 1773.29 -5.75688 -6.64379 0
M  V30 13456 O 1774.71 -6.07627 -7.05504 0
M  V30 13457 O 1772.93 -5.88047 -5.19722 0
M  V30 13458 O 1772.97 -4.2322 -7.04443 0
M  V30 13459 C 1772.81 -3.99743 -8.4911 0
M  V30 13460 C 1773.35 -2.60516 -8.79425 0
M  V30 13461 O 1772.29 -1.82684 -8.4467 0
M  V30 13462 C 1774.57 -2.10343 -8.03628 0
M  V30 13463 O 1775.31 -1.09919 -8.67766 0
M  V30 13464 C 1773.9 -1.68446 -6.70876 0
M  V30 13465 O 1774.7 -0.678137 -6.08433 0
M  V30 13466 C 1772.56 -1.17436 -7.18567 0
M  V30 13467 H 1772.59 -0.0804732 -7.31656 0
M  V30 13468 H 1773.78 -2.54037 -6.02537 0
M  V30 13469 H 1775.26 -2.93881 -7.85526 0
M  V30 13470 H 1773.57 -2.53065 -9.86973 0
M  V30 13471 H 1773.38 -4.75072 -9.05887 0
M  V30 13472 H 1771.75 -4.05244 -8.76668 0
M  V30 13473 H 1774.39 0.177647 -6.34251 0
M  V30 13474 P 1776.24 -1.25109 -8.70152 0
M  V30 13475 O 1777.67 -1.29744 -9.22016 0
M  V30 13476 O 1775.88 -2.13714 -7.55141 0
M  V30 13477 O 1775.92 0.248149 -8.21425 0
M  V30 13478 C 1775.76 1.22779 -9.30434 0
M  V30 13479 C 1776.3 2.56293 -8.80664 0
M  V30 13480 O 1775.24 3.02979 -8.09349 0
M  V30 13481 C 1777.52 2.57523 -7.89775 0
M  V30 13482 O 1778.26 3.7668 -7.89438 0
M  V30 13483 C 1776.85 2.20997 -6.55446 0
M  V30 13484 O 1777.65 2.71895 -5.48509 0
M  V30 13485 C 1775.51 2.89693 -6.67988 0
M  V30 13486 H 1775.54 3.88793 -6.19859 0
M  V30 13487 H 1776.73 1.12046 -6.44229 0
M  V30 13488 H 1778.21 1.7746 -8.19711 0
M  V30 13489 H 1776.52 3.20706 -9.67112 0
M  V30 13490 H 1776.33 0.901032 -10.1892 0
M  V30 13491 H 1774.7 1.33049 -9.56592 0
M  V30 13492 H 1777.34 3.57847 -5.23962 0
M  V30 13493 P 1779.19 3.65191 -7.99657 0
M  V30 13494 O 1780.62 3.89332 -8.45794 0
M  V30 13495 O 1778.83 2.28472 -7.50807 0
M  V30 13496 O 1778.87 4.64972 -6.77611 0
M  V30 13497 C 1778.71 6.06319 -7.16352 0
M  V30 13498 C 1779.25 6.91731 -6.02299 0
M  V30 13499 O 1778.19 6.92449 -5.17064 0
M  V30 13500 C 1780.47 6.43627 -5.25174 0
M  V30 13501 O 1781.21 7.43686 -4.60469 0
M  V30 13502 C 1779.8 5.40275 -4.31916 0
M  V30 13503 O 1780.6 5.25279 -3.14438 0
M  V30 13504 C 1778.46 6.04847 -4.05327 0
M  V30 13505 H 1778.49 6.62195 -3.11261 0
M  V30 13506 H 1779.68 4.42556 -4.81383 0
M  V30 13507 H 1781.16 5.92458 -5.93643 0
M  V30 13508 H 1779.47 7.92655 -6.402 0
M  V30 13509 H 1779.28 6.26671 -8.0846 0
M  V30 13510 H 1777.65 6.29101 -7.32804 0
M  V30 13511 H 1780.29 5.84315 -2.47318 0
M  V30 13512 P 1782.14 7.39546 -4.75277 0
M  V30 13513 O 1783.57 7.84798 -5.01039 0
M  V30 13514 O 1781.78 5.9812 -5.08098 0
M  V30 13515 O 1781.82 7.57503 -3.1866 0
M  V30 13516 C 1781.66 8.97357 -2.74833 0
M  V30 13517 C 1782.2 9.07548 -1.32709 0
M  V30 13518 O 1781.15 8.62072 -0.606159 0
M  V30 13519 C 1783.42 8.25383 -0.938334 0
M  V30 13520 O 1784.16 8.74577 0.146954 0
M  V30 13521 C 1782.75 6.8802 -0.712559 0
M  V30 13522 O 1783.55 6.1189 0.194655 0
M  V30 13523 C 1781.41 7.27966 -0.139777 0
M  V30 13524 H 1781.45 7.25354 0.961601 0
M  V30 13525 H 1782.63 6.32557 -1.65702 0
M  V30 13526 H 1784.11 8.19355 -1.79097 0
M  V30 13527 H 1782.42 10.1294 -1.10029 0
M  V30 13528 H 1782.23 9.64276 -3.41316 0
M  V30 13529 H 1780.6 9.25417 -2.76357 0
M  V30 13530 H 1783.24 6.25267 1.07847 0
M  V30 13531 P 1785.09 8.791 1.50603e-11 0
M  V30 13532 O 1786.52 9.31096 0.027933 0
M  V30 13533 O 1784.73 7.77869 -1.04071 0
M  V30 13534 O 1784.77 8.09533 1.41463 0
M  V30 13535 C 1784.61 9.0349 2.53943 0
M  V30 13536 C 1785.15 8.35226 3.79016 0
M  V30 13537 O 1784.1 7.57992 4.15078 0
M  V30 13538 C 1786.37 7.45087 3.67298 0
M  V30 13539 O 1787.11 7.27796 4.85194 0
M  V30 13540 C 1785.7 6.17323 3.12027 0
M  V30 13541 O 1786.5 5.04231 3.47188 0
M  V30 13542 C 1784.36 6.19961 3.81809 0
M  V30 13543 H 1784.4 5.58218 4.73051 0
M  V30 13544 H 1785.58 6.21726 2.02589 0
M  V30 13545 H 1787.06 7.86112 2.9231 0
M  V30 13546 H 1785.37 9.11627 4.55076 0
M  V30 13547 H 1785.18 9.9573 2.34194 0
M  V30 13548 H 1783.55 9.2792 2.67832 0
M  V30 13549 H 1786.19 4.67702 4.28772 0
M  V30 13550 P 1788.05 7.39546 4.75277 0
M  V30 13551 O 1789.47 7.81777 5.05738 0
M  V30 13552 O 1787.69 7.1065 3.32998 0
M  V30 13553 O 1787.72 6.04542 5.56673 0
M  V30 13554 C 1787.56 6.22772 7.02095 0
M  V30 13555 C 1788.1 4.97725 7.70406 0
M  V30 13556 O 1787.05 4.13256 7.58987 0
M  V30 13557 C 1789.32 4.28231 7.11815 0
M  V30 13558 O 1790.06 3.49945 8.01648 0
M  V30 13559 C 1788.65 3.5063 5.96244 0
M  V30 13560 O 1789.45 2.36482 5.64681 0
M  V30 13561 C 1787.31 3.15122 6.56374 0
M  V30 13562 H 1787.35 2.13853 6.99751 0
M  V30 13563 H 1788.53 4.13501 5.06559 0
M  V30 13564 H 1790.01 5.03285 6.70911 0
M  V30 13565 H 1788.32 5.20877 8.75697 0
M  V30 13566 H 1788.13 7.11046 7.35349 0
M  V30 13567 H 1786.5 6.35815 7.26986 0
M  V30 13568 H 1789.14 1.61644 6.13565 0
M  V30 13569 P 1791 3.65191 7.99657 0
M  V30 13570 O 1792.42 3.8425 8.48115 0
M  V30 13571 O 1790.64 4.17805 6.64342 0
M  V30 13572 O 1790.67 2.07613 7.95143 0
M  V30 13573 C 1790.51 1.44328 9.27336 0
M  V30 13574 C 1791.05 0.0220036 9.17197 0
M  V30 13575 O 1790 -0.626867 8.61923 0
M  V30 13576 C 1792.27 -0.24586 8.30336 0
M  V30 13577 O 1793.01 -1.39011 8.63583 0
M  V30 13578 C 1791.6 -0.273849 6.91158 0
M  V30 13579 O 1792.4 -1.06348 6.02892 0
M  V30 13580 C 1790.26 -0.897649 7.22545 0
M  V30 13581 H 1790.3 -1.9841 7.04286 0
M  V30 13582 H 1791.48 0.739928 6.497 0
M  V30 13583 H 1792.96 0.60668 8.36503 0
M  V30 13584 H 1791.27 -0.352479 10.1829 0
M  V30 13585 H 1791.08 2.00611 10.0304 0
M  V30 13586 H 1789.45 1.41843 9.55327 0
M  V30 13587 H 1792.09 -1.95734 6.03555 0
M  V30 13588 P 1793.95 -1.25109 8.70152 0
M  V30 13589 O 1795.37 -1.35303 9.21419 0
M  V30 13590 O 1793.59 -0.0769065 7.84762 0
M  V30 13591 O 1793.62 -2.55232 7.81161 0
M  V30 13592 C 1793.46 -3.79939 8.58154 0
M  V30 13593 C 1794 -4.93969 7.72701 0
M  V30 13594 O 1792.95 -5.18726 6.91205 0
M  V30 13595 C 1795.22 -4.69597 6.85231 0
M  V30 13596 O 1795.96 -5.83832 6.51337 0
M  V30 13597 C 1794.55 -3.96706 5.66633 0
M  V30 13598 O 1795.35 -4.15346 4.49615 0
M  V30 13599 C 1793.22 -4.66153 5.59313 0
M  V30 13600 N 1792.17 -3.71582 5.24027 0
M  V30 13601 C 1792.23 -2.46018 5.67902 0
M  V30 13602 N 1791.19 -1.74868 5.24518 0
M  V30 13603 C 1790.46 -2.61333 4.54528 0
M  V30 13604 C 1789.15 -2.46162 3.95441 0
M  V30 13605 O 1788.42 -1.46013 3.94122 0
M  V30 13606 N 1788.72 -3.59334 3.34752 0
M  V30 13607 C 1789.47 -4.79605 3.3023 0
M  V30 13608 N 1788.87 -5.82109 2.6065 0
M  V30 13609 N 1790.62 -4.97402 3.8843 0
M  V30 13610 C 1791.08 -3.86258 4.50476 0
M  V30 13611 H 1793.25 -5.47679 4.85214 0
M  V30 13612 H 1794.43 -2.88964 5.86476 0
M  V30 13613 H 1795.92 -4.01947 7.36109 0
M  V30 13614 H 1794.22 -5.80182 8.37584 0
M  V30 13615 H 1794.03 -3.73517 9.52265 0
M  V30 13616 H 1792.4 -3.97163 8.80359 0
M  V30 13617 H 1787.82 -3.5825 2.90294 0
M  V30 13618 H 1793.03 -2.06161 6.30974 0
M  V30 13619 H 1787.96 -5.66979 2.15354 0
M  V30 13620 H 1789.34 -6.73686 2.54344 0
M  V30 13621 H 1795.04 -4.90891 4.01857 0
M  V30 13622 P 1796.9 -5.75688 6.64379 0
M  V30 13623 O 1798.32 -6.11849 7.01846 0
M  V30 13624 O 1796.54 -4.30744 6.56026 0
M  V30 13625 O 1796.57 -6.37042 5.19165 0
M  V30 13626 C 1796.41 -7.83578 5.16515 0
M  V30 13627 C 1796.95 -8.33398 3.83019 0
M  V30 13628 O 1795.9 -8.10074 3.01034 0
M  V30 13629 C 1798.17 -7.65514 3.2257 0
M  V30 13630 O 1798.91 -8.4329 2.32297 0
M  V30 13631 C 1797.5 -6.40075 2.62207 0
M  V30 13632 O 1798.3 -5.92589 1.53712 0
M  V30 13633 C 1796.17 -6.9454 2.18503 0
M  V30 13634 H 1796.2 -7.23063 1.12091 0
M  V30 13635 H 1797.38 -5.6025 3.37201 0
M  V30 13636 H 1798.87 -7.35707 4.02681 0
M  V30 13637 H 1797.17 -9.40912 3.9095 0
M  V30 13638 H 1796.98 -8.29056 5.99158 0
M  V30 13639 H 1795.35 -8.10073 5.25882 0
M  V30 13640 H 1797.99 -6.30324 0.726794 0
M  V30 13641 P 1799.85 -8.4349 2.47671 0
M  V30 13642 O 1801.27 -8.94167 2.5964 0
M  V30 13643 O 1799.49 -7.1704 3.19006 0
M  V30 13644 O 1799.52 -8.16596 0.923387 0
M  V30 13645 C 1799.36 -9.38437 0.108857 0
M  V30 13646 C 1799.9 -9.08175 -1.28353 0
M  V30 13647 O 1798.85 -8.44229 -1.84713 0
M  V30 13648 C 1801.12 -8.18386 -1.42505 0
M  V30 13649 O 1801.86 -8.3501 -2.60497 0
M  V30 13650 C 1800.45 -6.80225 -1.25468 0
M  V30 13651 O 1801.25 -5.81621 -1.91066 0
M  V30 13652 C 1799.12 -7.02416 -1.9168 0
M  V30 13653 H 1799.15 -6.6888 -2.96621 0
M  V30 13654 H 1800.33 -6.53617 -0.192223 0
M  V30 13655 H 1801.82 -8.36622 -0.589963 0
M  V30 13656 H 1800.12 -10.0291 -1.79807 0
M  V30 13657 H 1799.93 -10.2138 0.558219 0
M  V30 13658 H 1798.3 -9.6579 0.0444202 0
M  V30 13659 H 1800.94 -5.69556 -2.79637 0
M  V30 13660 P 1802.8 -8.4349 -2.47671 0
M  V30 13661 O 1804.22 -8.92785 -2.65057 0
M  V30 13662 O 1802.44 -7.7568 -1.19296 0
M  V30 13663 O 1802.48 -7.36886 -3.63805 0
M  V30 13664 C 1802.32 -7.95349 -4.982 0
M  V30 13665 C 1802.86 -6.94537 -5.98908 0
M  V30 13666 O 1801.8 -6.10347 -6.11815 0
M  V30 13667 C 1804.07 -6.11426 -5.62335 0
M  V30 13668 O 1804.81 -5.6162 -6.70584 0
M  V30 13669 C 1803.41 -5.04409 -4.73308 0
M  V30 13670 O 1804.2 -3.85929 -4.75106 0
M  V30 13671 C 1802.07 -4.8728 -5.41006 0
M  V30 13672 N 1801.02 -4.65812 -4.42377 0
M  V30 13673 C 1801.09 -5.27109 -3.24335 0
M  V30 13674 N 1800.04 -4.94293 -2.47735 0
M  V30 13675 C 1799.31 -4.1271 -3.23359 0
M  V30 13676 C 1798 -3.56384 -2.99934 0
M  V30 13677 O 1797.27 -3.69331 -2.00616 0
M  V30 13678 N 1797.57 -2.80206 -4.03316 0
M  V30 13679 C 1798.32 -2.58614 -5.2172 0
M  V30 13680 N 1797.72 -1.75154 -6.13278 0
M  V30 13681 N 1799.47 -3.13689 -5.47619 0
M  V30 13682 C 1799.93 -3.90921 -4.46436 0
M  V30 13683 H 1802.1 -4.02333 -6.11157 0
M  V30 13684 H 1803.28 -5.39383 -3.69487 0
M  V30 13685 H 1804.77 -6.71414 -5.02615 0
M  V30 13686 H 1803.07 -7.4649 -6.93477 0
M  V30 13687 H 1802.88 -8.89416 -5.05237 0
M  V30 13688 H 1801.25 -8.14876 -5.18409 0
M  V30 13689 H 1796.68 -2.36355 -3.95916 0
M  V30 13690 H 1801.88 -5.95212 -2.93859 0
M  V30 13691 H 1796.81 -1.32473 -5.91856 0
M  V30 13692 H 1798.19 -1.5588 -7.03026 0
M  V30 13693 H 1803.89 -3.27906 -5.43085 0
M  V30 13694 P 1805.75 -5.75688 -6.64379 0
M  V30 13695 O 1807.17 -6.07692 -7.0558 0
M  V30 13696 O 1805.39 -5.88047 -5.19722 0
M  V30 13697 O 1805.43 -4.2322 -7.04443 0
M  V30 13698 C 1805.26 -3.99785 -8.49201 0
M  V30 13699 C 1805.81 -2.60516 -8.79425 0
M  V30 13700 O 1804.75 -1.82663 -8.44573 0
M  V30 13701 C 1807.02 -2.10343 -8.03628 0
M  V30 13702 O 1807.76 -1.09919 -8.67766 0
M  V30 13703 C 1806.36 -1.68446 -6.70876 0
M  V30 13704 O 1807.15 -0.684109 -6.08265 0
M  V30 13705 C 1805.02 -1.17436 -7.18567 0
M  V30 13706 N 1803.97 -1.52699 -6.23988 0
M  V30 13707 C 1804.14 -2.578 -5.40574 0
M  V30 13708 N 1803.12 -2.78966 -4.61193 0
M  V30 13709 C 1802.23 -1.78725 -4.95769 0
M  V30 13710 C 1800.96 -1.45727 -4.44207 0
M  V30 13711 N 1800.4 -0.374977 -5.05812 0
M  V30 13712 C 1801 0.345585 -6.05615 0
M  V30 13713 N 1802.18 0.0787651 -6.56253 0
M  V30 13714 C 1802.75 -1.00499 -5.96189 0
M  V30 13715 H 1806.23 -2.53396 -6.02698 0
M  V30 13716 H 1807.72 -2.93881 -7.85526 0
M  V30 13717 H 1806.02 -2.52078 -9.87225 0
M  V30 13718 H 1805.83 -4.75072 -9.05887 0
M  V30 13719 H 1804.2 -4.05244 -8.76668 0
M  V30 13720 H 1805.04 -3.18977 -5.3945 0
M  V30 13721 H 1806.84 0.177619 -6.34151 0
M  V30 13722 P 1808.7 -1.25109 -8.70152 0
M  V30 13723 O 1810.12 -1.29744 -9.22016 0
M  V30 13724 O 1808.34 -2.13714 -7.55141 0
M  V30 13725 O 1808.38 0.248149 -8.21425 0
M  V30 13726 C 1808.22 1.22779 -9.30434 0
M  V30 13727 C 1808.76 2.56293 -8.80664 0
M  V30 13728 O 1807.7 3.02979 -8.09349 0
M  V30 13729 C 1809.97 2.57523 -7.89775 0
M  V30 13730 O 1810.71 3.7668 -7.89438 0
M  V30 13731 C 1809.31 2.20997 -6.55446 0
M  V30 13732 O 1810.1 2.71895 -5.48509 0
M  V30 13733 C 1807.97 2.89693 -6.67988 0
M  V30 13734 H 1808 3.88793 -6.19859 0
M  V30 13735 H 1809.18 1.12046 -6.44229 0
M  V30 13736 H 1810.67 1.7746 -8.19711 0
M  V30 13737 H 1808.97 3.20706 -9.67112 0
M  V30 13738 H 1808.78 0.901032 -10.1892 0
M  V30 13739 H 1807.15 1.33049 -9.56592 0
M  V30 13740 H 1809.79 3.57847 -5.23962 0
M  V30 13741 P 1811.65 3.65191 -7.99657 0
M  V30 13742 O 1813.07 3.89374 -8.45885 0
M  V30 13743 O 1811.29 2.28472 -7.50807 0
M  V30 13744 O 1811.33 4.64972 -6.77611 0
M  V30 13745 C 1811.17 6.06383 -7.16428 0
M  V30 13746 C 1811.71 6.91731 -6.02299 0
M  V30 13747 O 1810.65 6.92369 -5.17005 0
M  V30 13748 C 1812.92 6.43627 -5.25174 0
M  V30 13749 O 1813.66 7.43686 -4.60469 0
M  V30 13750 C 1812.26 5.40275 -4.31916 0
M  V30 13751 O 1813.05 5.24878 -3.14911 0
M  V30 13752 C 1810.92 6.04847 -4.05327 0
M  V30 13753 N 1809.88 5.04166 -3.98114 0
M  V30 13754 C 1810.04 3.84629 -4.59066 0
M  V30 13755 N 1809.02 3.0363 -4.45343 0
M  V30 13756 C 1808.13 3.76722 -3.68523 0
M  V30 13757 C 1806.87 3.43528 -3.17088 0
M  V30 13758 N 1806.3 4.44526 -2.44231 0
M  V30 13759 C 1806.9 5.65243 -2.20146 0
M  V30 13760 N 1808.08 6.00221 -2.65453 0
M  V30 13761 C 1808.65 5.00564 -3.39083 0
M  V30 13762 H 1812.13 4.42969 -4.80867 0
M  V30 13763 H 1813.62 5.92458 -5.93643 0
M  V30 13764 H 1811.92 7.93295 -6.39407 0
M  V30 13765 H 1811.73 6.26671 -8.0846 0
M  V30 13766 H 1810.1 6.29101 -7.32804 0
M  V30 13767 H 1810.94 3.58193 -5.14248 0
M  V30 13768 H 1812.74 5.84223 -2.47279 0
M  V30 13769 P 1814.6 7.39546 -4.75277 0
M  V30 13770 O 1816.02 7.84798 -5.01039 0
M  V30 13771 O 1814.24 5.9812 -5.08098 0
M  V30 13772 O 1814.28 7.57503 -3.1866 0
M  V30 13773 C 1814.12 8.97357 -2.74833 0
M  V30 13774 C 1814.66 9.07548 -1.32709 0
M  V30 13775 O 1813.6 8.62072 -0.606159 0
M  V30 13776 C 1815.88 8.25383 -0.938334 0
M  V30 13777 O 1816.61 8.74577 0.146954 0
M  V30 13778 C 1815.21 6.8802 -0.712559 0
M  V30 13779 O 1816.01 6.1189 0.194655 0
M  V30 13780 C 1813.87 7.27966 -0.139777 0
M  V30 13781 H 1813.9 7.25354 0.961601 0
M  V30 13782 H 1815.08 6.32557 -1.65702 0
M  V30 13783 H 1816.57 8.19355 -1.79097 0
M  V30 13784 H 1814.87 10.1294 -1.10029 0
M  V30 13785 H 1814.68 9.64276 -3.41316 0
M  V30 13786 H 1813.05 9.25417 -2.76357 0
M  V30 13787 H 1815.69 6.25267 1.07847 0
M  V30 13788 P 1817.55 8.791 1.53704e-11 0
M  V30 13789 O 1818.97 9.31096 0.027933 0
M  V30 13790 O 1817.19 7.77869 -1.04071 0
M  V30 13791 O 1817.23 8.09533 1.41463 0
M  V30 13792 C 1817.07 9.0349 2.53943 0
M  V30 13793 C 1817.61 8.35226 3.79016 0
M  V30 13794 O 1816.55 7.57992 4.15078 0
M  V30 13795 C 1818.83 7.45087 3.67298 0
M  V30 13796 O 1819.56 7.27796 4.85194 0
M  V30 13797 C 1818.16 6.17323 3.12027 0
M  V30 13798 O 1818.96 5.04231 3.47188 0
M  V30 13799 C 1816.82 6.19961 3.81809 0
M  V30 13800 H 1816.85 5.58218 4.73051 0
M  V30 13801 H 1818.04 6.21726 2.02589 0
M  V30 13802 H 1819.52 7.86112 2.9231 0
M  V30 13803 H 1817.83 9.11627 4.55076 0
M  V30 13804 H 1817.64 9.9573 2.34194 0
M  V30 13805 H 1816.01 9.2792 2.67832 0
M  V30 13806 H 1818.64 4.67702 4.28772 0
M  V30 13807 P 1820.5 7.39546 4.75277 0
M  V30 13808 O 1821.92 7.81777 5.05738 0
M  V30 13809 O 1820.14 7.1065 3.32998 0
M  V30 13810 O 1820.18 6.04542 5.56673 0
M  V30 13811 C 1820.02 6.22772 7.02095 0
M  V30 13812 C 1820.56 4.97725 7.70406 0
M  V30 13813 O 1819.5 4.13256 7.58987 0
M  V30 13814 C 1821.78 4.28231 7.11815 0
M  V30 13815 O 1822.51 3.49945 8.01648 0
M  V30 13816 C 1821.11 3.5063 5.96244 0
M  V30 13817 O 1821.91 2.36482 5.64681 0
M  V30 13818 C 1819.77 3.15122 6.56374 0
M  V30 13819 H 1819.8 2.13853 6.99751 0
M  V30 13820 H 1820.99 4.13501 5.06559 0
M  V30 13821 H 1822.47 5.03285 6.70911 0
M  V30 13822 H 1820.78 5.20877 8.75697 0
M  V30 13823 H 1820.59 7.11046 7.35349 0
M  V30 13824 H 1818.96 6.35815 7.26986 0
M  V30 13825 H 1821.59 1.61644 6.13565 0
M  V30 13826 P 1823.45 3.65191 7.99657 0
M  V30 13827 O 1824.87 3.8425 8.48115 0
M  V30 13828 O 1823.09 4.17805 6.64342 0
M  V30 13829 O 1823.13 2.07613 7.95143 0
M  V30 13830 C 1822.97 1.44328 9.27336 0
M  V30 13831 C 1823.51 0.0220036 9.17197 0
M  V30 13832 O 1822.45 -0.626867 8.61923 0
M  V30 13833 C 1824.73 -0.24586 8.30336 0
M  V30 13834 O 1825.47 -1.39011 8.63583 0
M  V30 13835 C 1824.06 -0.273849 6.91158 0
M  V30 13836 O 1824.86 -1.06348 6.02892 0
M  V30 13837 C 1822.72 -0.897649 7.22545 0
M  V30 13838 H 1822.75 -1.9841 7.04286 0
M  V30 13839 H 1823.94 0.739928 6.497 0
M  V30 13840 H 1825.42 0.60668 8.36503 0
M  V30 13841 H 1823.73 -0.352479 10.1829 0
M  V30 13842 H 1823.54 2.00611 10.0304 0
M  V30 13843 H 1821.91 1.41843 9.55327 0
M  V30 13844 H 1824.55 -1.95734 6.03555 0
M  V30 13845 P 1826.4 -1.25109 8.70152 0
M  V30 13846 O 1827.82 -1.35303 9.21419 0
M  V30 13847 O 1826.04 -0.0769065 7.84762 0
M  V30 13848 O 1826.08 -2.55232 7.81161 0
M  V30 13849 C 1825.92 -3.79939 8.58154 0
M  V30 13850 C 1826.46 -4.93969 7.72701 0
M  V30 13851 O 1825.4 -5.18726 6.91205 0
M  V30 13852 C 1827.68 -4.69597 6.85231 0
M  V30 13853 O 1828.42 -5.83832 6.51337 0
M  V30 13854 C 1827.01 -3.96706 5.66633 0
M  V30 13855 O 1827.81 -4.15346 4.49615 0
M  V30 13856 C 1825.67 -4.66153 5.59313 0
M  V30 13857 N 1824.63 -3.71582 5.24027 0
M  V30 13858 C 1824.69 -2.46018 5.67902 0
M  V30 13859 N 1823.65 -1.74868 5.24518 0
M  V30 13860 C 1822.91 -2.61333 4.54528 0
M  V30 13861 C 1821.61 -2.46162 3.95441 0
M  V30 13862 O 1820.87 -1.46013 3.94122 0
M  V30 13863 N 1821.18 -3.59334 3.34752 0
M  V30 13864 C 1821.92 -4.79605 3.3023 0
M  V30 13865 N 1821.33 -5.82109 2.6065 0
M  V30 13866 N 1823.08 -4.97402 3.8843 0
M  V30 13867 C 1823.53 -3.86258 4.50476 0
M  V30 13868 H 1825.7 -5.47679 4.85214 0
M  V30 13869 H 1826.89 -2.88964 5.86476 0
M  V30 13870 H 1828.37 -4.01947 7.36109 0
M  V30 13871 H 1826.68 -5.80182 8.37584 0
M  V30 13872 H 1826.49 -3.73517 9.52265 0
M  V30 13873 H 1824.86 -3.97163 8.80359 0
M  V30 13874 H 1820.28 -3.5825 2.90294 0
M  V30 13875 H 1825.49 -2.06161 6.30974 0
M  V30 13876 H 1820.42 -5.66979 2.15354 0
M  V30 13877 H 1821.79 -6.73686 2.54344 0
M  V30 13878 H 1827.5 -4.90891 4.01857 0
M  V30 13879 P 1829.35 -5.75688 6.64379 0
M  V30 13880 O 1830.78 -6.11849 7.01846 0
M  V30 13881 O 1828.99 -4.30744 6.56026 0
M  V30 13882 O 1829.03 -6.37042 5.19165 0
M  V30 13883 C 1828.87 -7.83578 5.16515 0
M  V30 13884 C 1829.41 -8.33398 3.83019 0
M  V30 13885 O 1828.35 -8.10074 3.01034 0
M  V30 13886 C 1830.63 -7.65514 3.2257 0
M  V30 13887 O 1831.37 -8.4329 2.32297 0
M  V30 13888 C 1829.96 -6.40075 2.62207 0
M  V30 13889 O 1830.76 -5.92589 1.53712 0
M  V30 13890 C 1828.62 -6.9454 2.18503 0
M  V30 13891 H 1828.65 -7.23063 1.12091 0
M  V30 13892 H 1829.84 -5.6025 3.37201 0
M  V30 13893 H 1831.32 -7.35707 4.02681 0
M  V30 13894 H 1829.63 -9.40912 3.9095 0
M  V30 13895 H 1829.44 -8.29056 5.99158 0
M  V30 13896 H 1827.81 -8.10073 5.25882 0
M  V30 13897 H 1830.45 -6.30324 0.726794 0
M  V30 13898 P 1832.3 -8.4349 2.47671 0
M  V30 13899 O 1833.72 -8.94263 2.59668 0
M  V30 13900 O 1831.94 -7.1704 3.19006 0
M  V30 13901 O 1831.98 -8.16596 0.923387 0
M  V30 13902 C 1831.82 -9.38537 0.108869 0
M  V30 13903 C 1832.36 -9.08175 -1.28353 0
M  V30 13904 O 1831.31 -8.44131 -1.84692 0
M  V30 13905 C 1833.58 -8.18386 -1.42505 0
M  V30 13906 O 1834.32 -8.3501 -2.60497 0
M  V30 13907 C 1832.91 -6.80225 -1.25468 0
M  V30 13908 O 1833.71 -5.81716 -1.90454 0
M  V30 13909 C 1831.57 -7.02416 -1.9168 0
M  V30 13910 N 1830.53 -6.31033 -1.20314 0
M  V30 13911 C 1830.7 -5.98817 0.0994088 0
M  V30 13912 N 1829.67 -5.35403 0.621694 0
M  V30 13913 C 1828.79 -5.25212 -0.43376 0
M  V30 13914 C 1827.52 -4.64602 -0.519722 0
M  V30 13915 N 1826.95 -4.7568 -1.76013 0
M  V30 13916 C 1827.56 -5.3653 -2.83017 0
M  V30 13917 N 1828.73 -5.93676 -2.79782 0
M  V30 13918 C 1829.31 -5.84061 -1.56249 0
M  V30 13919 H 1832.79 -6.53498 -0.198729 0
M  V30 13920 H 1834.27 -8.36622 -0.589963 0
M  V30 13921 H 1832.58 -10.0273 -1.8081 0
M  V30 13922 H 1832.39 -10.2138 0.558219 0
M  V30 13923 H 1830.76 -9.6579 0.0444202 0
M  V30 13924 H 1831.6 -6.23209 0.660562 0
M  V30 13925 H 1833.4 -5.69466 -2.79593 0
M  V30 13926 P 1835.25 -8.4349 -2.47671 0
M  V30 13927 O 1836.68 -8.92593 -2.65 0
M  V30 13928 O 1834.89 -7.7568 -1.19296 0
M  V30 13929 O 1834.93 -7.36886 -3.63805 0
M  V30 13930 C 1834.77 -7.95349 -4.982 0
M  V30 13931 C 1835.31 -6.94612 -5.98974 0
M  V30 13932 O 1834.26 -6.10347 -6.11815 0
M  V30 13933 C 1836.53 -6.11426 -5.62335 0
M  V30 13934 O 1837.27 -5.6162 -6.70584 0
M  V30 13935 C 1835.86 -5.04409 -4.73308 0
M  V30 13936 O 1836.66 -3.85992 -4.75183 0
M  V30 13937 C 1834.52 -4.8728 -5.41006 0
M  V30 13938 H 1834.56 -4.02333 -6.11157 0
M  V30 13939 H 1835.74 -5.39466 -3.69543 0
M  V30 13940 H 1837.22 -6.71916 -5.01943 0
M  V30 13941 H 1835.53 -7.4649 -6.93477 0
M  V30 13942 H 1835.34 -8.89416 -5.05237 0
M  V30 13943 H 1833.71 -8.14876 -5.18409 0
M  V30 13944 H 1836.35 -3.27957 -5.4317 0
M  V30 13945 P 1838.21 -5.75688 -6.64379 0
M  V30 13946 O 1839.63 -6.07627 -7.05504 0
M  V30 13947 O 1837.85 -5.88047 -5.19722 0
M  V30 13948 O 1837.88 -4.2322 -7.04443 0
M  V30 13949 C 1837.72 -3.99743 -8.4911 0
M  V30 13950 C 1838.26 -2.60516 -8.79425 0
M  V30 13951 O 1837.21 -1.82684 -8.4467 0
M  V30 13952 C 1839.48 -2.10343 -8.03628 0
M  V30 13953 O 1840.22 -1.09919 -8.67766 0
M  V30 13954 C 1838.81 -1.68446 -6.70876 0
M  V30 13955 O 1839.61 -0.678137 -6.08433 0
M  V30 13956 C 1837.47 -1.17436 -7.18567 0
M  V30 13957 H 1837.51 -0.0804732 -7.31656 0
M  V30 13958 H 1838.69 -2.54037 -6.02537 0
M  V30 13959 H 1840.17 -2.93881 -7.85526 0
M  V30 13960 H 1838.48 -2.53065 -9.86973 0
M  V30 13961 H 1838.29 -4.75072 -9.05887 0
M  V30 13962 H 1836.66 -4.05244 -8.76668 0
M  V30 13963 H 1839.3 0.177647 -6.34251 0
M  V30 13964 P 1841.16 -1.25109 -8.70152 0
M  V30 13965 O 1842.56 -1.3516 -9.26897 0
M  V30 13966 O 1840.78 -2.18141 -7.59181 0
M  V30 13967 O 1840.83 0.248118 -8.21325 0
M  V30 13968 C 1840.67 1.22779 -9.30434 0
M  V30 13969 C 1841.21 2.56265 -8.80568 0
M  V30 13970 O 1840.16 3.02944 -8.09255 0
M  V30 13971 C 1842.43 2.57523 -7.89775 0
M  V30 13972 O 1843.17 3.7668 -7.89438 0
M  V30 13973 C 1841.76 2.20997 -6.55446 0
M  V30 13974 O 1842.56 2.71851 -5.48419 0
M  V30 13975 C 1840.42 2.89693 -6.67988 0
M  V30 13976 N 1839.38 2.08895 -6.07487 0
M  V30 13977 C 1838.35 2.72974 -5.43836 0
M  V30 13978 O 1838.39 3.97779 -5.34036 0
M  V30 13979 N 1837.33 2.0005 -4.91983 0
M  V30 13980 C 1837.38 0.66501 -5.00098 0
M  V30 13981 C 1838.48 -0.0100979 -5.61099 0
M  V30 13982 C 1839.44 0.74189 -6.14236 0
M  V30 13983 H 1840.46 3.8874 -6.19774 0
M  V30 13984 H 1841.64 1.12673 -6.44018 0
M  V30 13985 H 1843.12 1.783 -8.19631 0
M  V30 13986 H 1841.43 3.21673 -9.66791 0
M  V30 13987 H 1841.24 0.901032 -10.1892 0
M  V30 13988 H 1839.61 1.33036 -9.56493 0
M  V30 13989 H 1838.53 -1.09591 -5.64358 0
M  V30 13990 H 1840.29 0.260263 -6.6359 0
M  V30 13991 H 1842.34 3.62759 -5.33442 0
M  V30 13992 P 1844.11 3.65191 -7.99657 0
M  V30 13993 O 1845.53 3.89332 -8.45794 0
M  V30 13994 O 1843.75 2.28472 -7.50807 0
M  V30 13995 O 1843.78 4.64972 -6.77611 0
M  V30 13996 C 1843.62 6.06319 -7.16352 0
M  V30 13997 C 1844.16 6.91731 -6.02299 0
M  V30 13998 O 1843.11 6.92449 -5.17064 0
M  V30 13999 C 1845.38 6.43627 -5.25174 0
M  V30 14000 O 1846.12 7.43686 -4.60469 0
M  V30 14001 C 1844.71 5.40275 -4.31916 0
M  V30 14002 O 1845.51 5.25279 -3.14438 0
M  V30 14003 C 1843.38 6.04847 -4.05327 0
M  V30 14004 H 1843.41 6.62195 -3.11261 0
M  V30 14005 H 1844.59 4.42556 -4.81383 0
M  V30 14006 H 1846.07 5.92458 -5.93643 0
M  V30 14007 H 1844.38 7.92655 -6.402 0
M  V30 14008 H 1844.19 6.26671 -8.0846 0
M  V30 14009 H 1842.56 6.29101 -7.32804 0
M  V30 14010 H 1845.2 5.84315 -2.47318 0
M  V30 14011 P 1847.06 7.39546 -4.75277 0
M  V30 14012 O 1848.48 7.84966 -5.01146 0
M  V30 14013 O 1846.7 5.9812 -5.08098 0
M  V30 14014 O 1846.73 7.57503 -3.1866 0
M  V30 14015 C 1846.57 8.97357 -2.74833 0
M  V30 14016 C 1847.11 9.0745 -1.32694 0
M  V30 14017 O 1846.06 8.62072 -0.606159 0
M  V30 14018 C 1848.33 8.25383 -0.938334 0
M  V30 14019 O 1849.07 8.74577 0.146954 0
M  V30 14020 C 1847.66 6.8802 -0.712559 0
M  V30 14021 O 1848.46 6.11791 0.194623 0
M  V30 14022 C 1846.33 7.27966 -0.139777 0
M  V30 14023 N 1845.28 6.39368 -0.623421 0
M  V30 14024 C 1845.34 5.90299 -1.85969 0
M  V30 14025 N 1844.3 5.10919 -2.1133 0
M  V30 14026 C 1843.57 5.14646 -1.0015 0
M  V30 14027 C 1842.26 4.60057 -0.729219 0
M  V30 14028 O 1841.53 3.93476 -1.47746 0
M  V30 14029 N 1841.83 4.88302 0.523505 0
M  V30 14030 C 1842.58 5.63646 1.46207 0
M  V30 14031 N 1841.98 5.78186 2.69239 0
M  V30 14032 N 1843.73 6.19285 1.21544 0
M  V30 14033 C 1844.19 5.93392 -0.0308487 0
M  V30 14034 H 1846.36 7.25354 0.961601 0
M  V30 14035 H 1847.54 6.3246 -1.65676 0
M  V30 14036 H 1849.03 8.19533 -1.78278 0
M  V30 14037 H 1847.33 10.1294 -1.10029 0
M  V30 14038 H 1847.14 9.64276 -3.41316 0
M  V30 14039 H 1845.51 9.25417 -2.76357 0
M  V30 14040 H 1840.93 4.53993 0.806451 0
M  V30 14041 H 1846.14 6.11865 -2.57394 0
M  V30 14042 H 1841.07 5.34046 2.87467 0
M  V30 14043 H 1842.45 6.33391 3.42578 0
M  V30 14044 H 1848.15 6.25169 1.0783 0
M  V30 14045 P 1850.01 8.791 1.56806e-11 0
M  V30 14046 O 1851.43 9.31196 0.027936 0
M  V30 14047 O 1849.65 7.77869 -1.04071 0
M  V30 14048 O 1849.68 8.09533 1.41463 0
M  V30 14049 C 1849.52 9.03587 2.5397 0
M  V30 14050 C 1850.06 8.35226 3.79016 0
M  V30 14051 O 1849.01 7.57904 4.1503 0
M  V30 14052 C 1851.28 7.45087 3.67298 0
M  V30 14053 O 1852.02 7.27796 4.85194 0
M  V30 14054 C 1850.61 6.17323 3.12027 0
M  V30 14055 O 1851.41 5.04496 3.46627 0
M  V30 14056 C 1849.28 6.19961 3.81809 0
M  V30 14057 N 1848.23 5.71575 2.93223 0
M  V30 14058 C 1848.4 5.77362 1.59168 0
M  V30 14059 N 1847.38 5.3123 0.911893 0
M  V30 14060 C 1846.49 4.91717 1.89588 0
M  V30 14061 C 1845.22 4.3114 1.8076 0
M  V30 14062 N 1844.66 4.06823 3.02898 0
M  V30 14063 C 1845.26 4.35062 4.22711 0
M  V30 14064 N 1846.44 4.90805 4.35707 0
M  V30 14065 C 1847.01 5.16382 3.14469 0
M  V30 14066 H 1850.49 6.21428 2.0318 0
M  V30 14067 H 1851.97 7.86112 2.9231 0
M  V30 14068 H 1850.28 9.11171 4.55987 0
M  V30 14069 H 1850.09 9.9573 2.34194 0
M  V30 14070 H 1848.46 9.2792 2.67832 0
M  V30 14071 H 1849.3 6.16575 1.12198 0
M  V30 14072 H 1851.1 4.67628 4.28704 0
M  V30 14073 P 1852.96 7.39546 4.75277 0
M  V30 14074 O 1854.38 7.81777 5.05738 0
M  V30 14075 O 1852.6 7.1065 3.32998 0
M  V30 14076 O 1852.63 6.04542 5.56673 0
M  V30 14077 C 1852.47 6.22772 7.02095 0
M  V30 14078 C 1853.01 4.97725 7.70406 0
M  V30 14079 O 1851.96 4.13256 7.58987 0
M  V30 14080 C 1854.23 4.28231 7.11815 0
M  V30 14081 O 1854.97 3.49945 8.01648 0
M  V30 14082 C 1853.56 3.5063 5.96244 0
M  V30 14083 O 1854.36 2.36482 5.64681 0
M  V30 14084 C 1852.23 3.15122 6.56374 0
M  V30 14085 H 1852.26 2.13853 6.99751 0
M  V30 14086 H 1853.44 4.13501 5.06559 0
M  V30 14087 H 1854.93 5.03285 6.70911 0
M  V30 14088 H 1853.23 5.20877 8.75697 0
M  V30 14089 H 1853.04 7.11046 7.35349 0
M  V30 14090 H 1851.41 6.35815 7.26986 0
M  V30 14091 H 1854.05 1.61644 6.13565 0
M  V30 14092 P 1855.91 3.65191 7.99657 0
M  V30 14093 O 1857.33 3.8425 8.48115 0
M  V30 14094 O 1855.55 4.17805 6.64342 0
M  V30 14095 O 1855.59 2.07613 7.95143 0
M  V30 14096 C 1855.43 1.44328 9.27336 0
M  V30 14097 C 1855.97 0.0220036 9.17197 0
M  V30 14098 O 1854.91 -0.626867 8.61923 0
M  V30 14099 C 1857.18 -0.24586 8.30336 0
M  V30 14100 O 1857.92 -1.39011 8.63583 0
M  V30 14101 C 1856.51 -0.273849 6.91158 0
M  V30 14102 O 1857.31 -1.06348 6.02892 0
M  V30 14103 C 1855.18 -0.897649 7.22545 0
M  V30 14104 H 1855.21 -1.9841 7.04286 0
M  V30 14105 H 1856.39 0.739928 6.497 0
M  V30 14106 H 1857.88 0.60668 8.36503 0
M  V30 14107 H 1856.18 -0.352479 10.1829 0
M  V30 14108 H 1855.99 2.00611 10.0304 0
M  V30 14109 H 1854.36 1.41843 9.55327 0
M  V30 14110 H 1857 -1.95734 6.03555 0
M  V30 14111 P 1858.86 -1.25109 8.70152 0
M  V30 14112 O 1860.28 -1.35274 9.21221 0
M  V30 14113 O 1858.5 -0.0769065 7.84762 0
M  V30 14114 O 1858.54 -2.55232 7.81161 0
M  V30 14115 C 1858.38 -3.79939 8.58154 0
M  V30 14116 C 1858.92 -4.94023 7.72785 0
M  V30 14117 O 1857.86 -5.18726 6.91205 0
M  V30 14118 C 1860.13 -4.69597 6.85231 0
M  V30 14119 O 1860.87 -5.83832 6.51337 0
M  V30 14120 C 1859.47 -3.96706 5.66633 0
M  V30 14121 O 1860.26 -4.15414 4.49689 0
M  V30 14122 C 1858.13 -4.66153 5.59313 0
M  V30 14123 H 1858.16 -5.47679 4.85214 0
M  V30 14124 H 1859.34 -2.89008 5.86566 0
M  V30 14125 H 1860.83 -4.0121 7.36511 0
M  V30 14126 H 1859.13 -5.80182 8.37584 0
M  V30 14127 H 1858.94 -3.73517 9.52265 0
M  V30 14128 H 1857.31 -3.97163 8.80359 0
M  V30 14129 H 1859.95 -4.90969 4.01921 0
M  V30 14130 P 1861.81 -5.75688 6.64379 0
M  V30 14131 O 1863.23 -6.11849 7.01846 0
M  V30 14132 O 1861.45 -4.30744 6.56026 0
M  V30 14133 O 1861.49 -6.37042 5.19165 0
M  V30 14134 C 1861.33 -7.83578 5.16515 0
M  V30 14135 C 1861.87 -8.33398 3.83019 0
M  V30 14136 O 1860.81 -8.10074 3.01034 0
M  V30 14137 C 1863.08 -7.65514 3.2257 0
M  V30 14138 O 1863.82 -8.4329 2.32297 0
M  V30 14139 C 1862.42 -6.40075 2.62207 0
M  V30 14140 O 1863.21 -5.92589 1.53712 0
M  V30 14141 C 1861.08 -6.9454 2.18503 0
M  V30 14142 H 1861.11 -7.23063 1.12091 0
M  V30 14143 H 1862.29 -5.6025 3.37201 0
M  V30 14144 H 1863.78 -7.35707 4.02681 0
M  V30 14145 H 1862.08 -9.40912 3.9095 0
M  V30 14146 H 1861.89 -8.29056 5.99158 0
M  V30 14147 H 1860.26 -8.10073 5.25882 0
M  V30 14148 H 1862.9 -6.30324 0.726794 0
M  V30 14149 P 1864.76 -8.4349 2.47671 0
M  V30 14150 O 1866.18 -8.94167 2.5964 0
M  V30 14151 O 1864.4 -7.1704 3.19006 0
M  V30 14152 O 1864.44 -8.16596 0.923387 0
M  V30 14153 C 1864.28 -9.38437 0.108857 0
M  V30 14154 C 1864.82 -9.08175 -1.28353 0
M  V30 14155 O 1863.76 -8.44229 -1.84713 0
M  V30 14156 C 1866.04 -8.18386 -1.42505 0
M  V30 14157 O 1866.77 -8.3501 -2.60497 0
M  V30 14158 C 1865.37 -6.80225 -1.25468 0
M  V30 14159 O 1866.17 -5.81621 -1.91066 0
M  V30 14160 C 1864.03 -7.02416 -1.9168 0
M  V30 14161 H 1864.06 -6.6888 -2.96621 0
M  V30 14162 H 1865.24 -6.53617 -0.192223 0
M  V30 14163 H 1866.73 -8.36622 -0.589963 0
M  V30 14164 H 1865.03 -10.0291 -1.79807 0
M  V30 14165 H 1864.84 -10.2138 0.558219 0
M  V30 14166 H 1863.21 -9.6579 0.0444202 0
M  V30 14167 H 1865.85 -5.69556 -2.79637 0
M  V30 14168 P 1867.71 -8.4349 -2.47671 0
M  V30 14169 O 1869.13 -8.92785 -2.65057 0
M  V30 14170 O 1867.35 -7.7568 -1.19296 0
M  V30 14171 O 1867.39 -7.36886 -3.63805 0
M  V30 14172 C 1867.23 -7.95349 -4.982 0
M  V30 14173 C 1867.77 -6.94537 -5.98908 0
M  V30 14174 O 1866.71 -6.10347 -6.11815 0
M  V30 14175 C 1868.99 -6.11426 -5.62335 0
M  V30 14176 O 1869.72 -5.6162 -6.70584 0
M  V30 14177 C 1868.32 -5.04409 -4.73308 0
M  V30 14178 O 1869.12 -3.85929 -4.75106 0
M  V30 14179 C 1866.98 -4.8728 -5.41006 0
M  V30 14180 N 1865.94 -4.65812 -4.42377 0
M  V30 14181 C 1866 -5.27109 -3.24335 0
M  V30 14182 N 1864.95 -4.94293 -2.47735 0
M  V30 14183 C 1864.22 -4.1271 -3.23359 0
M  V30 14184 C 1862.91 -3.56384 -2.99934 0
M  V30 14185 O 1862.18 -3.69331 -2.00616 0
M  V30 14186 N 1862.48 -2.80206 -4.03316 0
M  V30 14187 C 1863.23 -2.58614 -5.2172 0
M  V30 14188 N 1862.64 -1.75154 -6.13278 0
M  V30 14189 N 1864.39 -3.13689 -5.47619 0
M  V30 14190 C 1864.84 -3.90921 -4.46436 0
M  V30 14191 H 1867.01 -4.02333 -6.11157 0
M  V30 14192 H 1868.19 -5.39383 -3.69487 0
M  V30 14193 H 1869.68 -6.71414 -5.02615 0
M  V30 14194 H 1867.98 -7.4649 -6.93477 0
M  V30 14195 H 1867.79 -8.89416 -5.05237 0
M  V30 14196 H 1866.16 -8.14876 -5.18409 0
M  V30 14197 H 1861.59 -2.36355 -3.95916 0
M  V30 14198 H 1866.79 -5.95212 -2.93859 0
M  V30 14199 H 1861.72 -1.32473 -5.91856 0
M  V30 14200 H 1863.1 -1.5588 -7.03026 0
M  V30 14201 H 1868.8 -3.27906 -5.43085 0
M  V30 14202 P 1870.66 -5.75688 -6.64379 0
M  V30 14203 O 1872.08 -6.07627 -7.05504 0
M  V30 14204 O 1870.3 -5.88047 -5.19722 0
M  V30 14205 O 1870.34 -4.2322 -7.04443 0
M  V30 14206 C 1870.18 -3.99743 -8.4911 0
M  V30 14207 C 1870.72 -2.60516 -8.79425 0
M  V30 14208 O 1869.66 -1.82684 -8.4467 0
M  V30 14209 C 1871.94 -2.10343 -8.03628 0
M  V30 14210 O 1872.67 -1.09919 -8.67766 0
M  V30 14211 C 1871.27 -1.68446 -6.70876 0
M  V30 14212 O 1872.07 -0.678137 -6.08433 0
M  V30 14213 C 1869.93 -1.17436 -7.18567 0
M  V30 14214 H 1869.96 -0.0804732 -7.31656 0
M  V30 14215 H 1871.15 -2.54037 -6.02537 0
M  V30 14216 H 1872.63 -2.93881 -7.85526 0
M  V30 14217 H 1870.94 -2.53065 -9.86973 0
M  V30 14218 H 1870.75 -4.75072 -9.05887 0
M  V30 14219 H 1869.12 -4.05244 -8.76668 0
M  V30 14220 H 1871.75 0.177647 -6.34251 0
M  V30 14221 P 1873.61 -1.25109 -8.70152 0
M  V30 14222 O 1875.03 -1.29744 -9.22016 0
M  V30 14223 O 1873.25 -2.13714 -7.55141 0
M  V30 14224 O 1873.29 0.248149 -8.21425 0
M  V30 14225 C 1873.13 1.22779 -9.30434 0
M  V30 14226 C 1873.67 2.56293 -8.80664 0
M  V30 14227 O 1872.61 3.02979 -8.09349 0
M  V30 14228 C 1874.89 2.57523 -7.89775 0
M  V30 14229 O 1875.62 3.7668 -7.89438 0
M  V30 14230 C 1874.22 2.20997 -6.55446 0
M  V30 14231 O 1875.02 2.71895 -5.48509 0
M  V30 14232 C 1872.88 2.89693 -6.67988 0
M  V30 14233 H 1872.91 3.88793 -6.19859 0
M  V30 14234 H 1874.1 1.12046 -6.44229 0
M  V30 14235 H 1875.58 1.7746 -8.19711 0
M  V30 14236 H 1873.89 3.20706 -9.67112 0
M  V30 14237 H 1873.7 0.901032 -10.1892 0
M  V30 14238 H 1872.07 1.33049 -9.56592 0
M  V30 14239 H 1874.7 3.57847 -5.23962 0
M  V30 14240 P 1876.56 3.65191 -7.99657 0
M  V30 14241 O 1877.98 3.89332 -8.45794 0
M  V30 14242 O 1876.2 2.28472 -7.50807 0
M  V30 14243 O 1876.24 4.64972 -6.77611 0
M  V30 14244 C 1876.08 6.06319 -7.16352 0
M  V30 14245 C 1876.62 6.91731 -6.02299 0
M  V30 14246 O 1875.56 6.92449 -5.17064 0
M  V30 14247 C 1877.84 6.43627 -5.25174 0
M  V30 14248 O 1878.58 7.43686 -4.60469 0
M  V30 14249 C 1877.17 5.40275 -4.31916 0
M  V30 14250 O 1877.97 5.25279 -3.14438 0
M  V30 14251 C 1875.83 6.04847 -4.05327 0
M  V30 14252 H 1875.86 6.62195 -3.11261 0
M  V30 14253 H 1877.05 4.42556 -4.81383 0
M  V30 14254 H 1878.53 5.92458 -5.93643 0
M  V30 14255 H 1876.84 7.92655 -6.402 0
M  V30 14256 H 1876.65 6.26671 -8.0846 0
M  V30 14257 H 1875.02 6.29101 -7.32804 0
M  V30 14258 H 1877.66 5.84315 -2.47318 0
M  V30 14259 P 1879.51 7.39546 -4.75277 0
M  V30 14260 O 1880.94 7.84798 -5.01039 0
M  V30 14261 O 1879.15 5.9812 -5.08098 0
M  V30 14262 O 1879.19 7.57503 -3.1866 0
M  V30 14263 C 1879.03 8.97357 -2.74833 0
M  V30 14264 C 1879.57 9.07548 -1.32709 0
M  V30 14265 O 1878.51 8.62072 -0.606159 0
M  V30 14266 C 1880.79 8.25383 -0.938334 0
M  V30 14267 O 1881.53 8.74577 0.146954 0
M  V30 14268 C 1880.12 6.8802 -0.712559 0
M  V30 14269 O 1880.92 6.1189 0.194655 0
M  V30 14270 C 1878.78 7.27966 -0.139777 0
M  V30 14271 H 1878.81 7.25354 0.961601 0
M  V30 14272 H 1880 6.32557 -1.65702 0
M  V30 14273 H 1881.48 8.19355 -1.79097 0
M  V30 14274 H 1879.79 10.1294 -1.10029 0
M  V30 14275 H 1879.6 9.64276 -3.41316 0
M  V30 14276 H 1877.97 9.25417 -2.76357 0
M  V30 14277 H 1880.61 6.25267 1.07847 0
M  V30 14278 P 1882.46 8.791 1.59908e-11 0
M  V30 14279 O 1883.89 9.31096 0.027933 0
M  V30 14280 O 1882.1 7.77869 -1.04071 0
M  V30 14281 O 1882.14 8.09533 1.41463 0
M  V30 14282 C 1881.98 9.0349 2.53943 0
M  V30 14283 C 1882.52 8.35226 3.79016 0
M  V30 14284 O 1881.46 7.57992 4.15078 0
M  V30 14285 C 1883.74 7.45087 3.67298 0
M  V30 14286 O 1884.48 7.27796 4.85194 0
M  V30 14287 C 1883.07 6.17323 3.12027 0
M  V30 14288 O 1883.87 5.04231 3.47188 0
M  V30 14289 C 1881.73 6.19961 3.81809 0
M  V30 14290 H 1881.76 5.58218 4.73051 0
M  V30 14291 H 1882.95 6.21726 2.02589 0
M  V30 14292 H 1884.43 7.86112 2.9231 0
M  V30 14293 H 1882.74 9.11627 4.55076 0
M  V30 14294 H 1882.55 9.9573 2.34194 0
M  V30 14295 H 1880.92 9.2792 2.67832 0
M  V30 14296 H 1883.56 4.67702 4.28772 0
M  V30 14297 P 1885.41 7.39546 4.75277 0
M  V30 14298 O 1886.84 7.81777 5.05738 0
M  V30 14299 O 1885.05 7.1065 3.32998 0
M  V30 14300 O 1885.09 6.04542 5.56673 0
M  V30 14301 C 1884.93 6.22772 7.02095 0
M  V30 14302 C 1885.47 4.97725 7.70406 0
M  V30 14303 O 1884.42 4.13256 7.58987 0
M  V30 14304 C 1886.69 4.28231 7.11815 0
M  V30 14305 O 1887.43 3.49945 8.01648 0
M  V30 14306 C 1886.02 3.5063 5.96244 0
M  V30 14307 O 1886.82 2.36482 5.64681 0
M  V30 14308 C 1884.68 3.15122 6.56374 0
M  V30 14309 H 1884.72 2.13853 6.99751 0
M  V30 14310 H 1885.9 4.13501 5.06559 0
M  V30 14311 H 1887.38 5.03285 6.70911 0
M  V30 14312 H 1885.69 5.20877 8.75697 0
M  V30 14313 H 1885.5 7.11046 7.35349 0
M  V30 14314 H 1883.87 6.35815 7.26986 0
M  V30 14315 H 1886.51 1.61644 6.13565 0
M  V30 14316 P 1888.36 3.65191 7.99657 0
M  V30 14317 O 1889.79 3.8425 8.48115 0
M  V30 14318 O 1888 4.17805 6.64342 0
M  V30 14319 O 1888.04 2.07613 7.95143 0
M  V30 14320 C 1887.88 1.44328 9.27336 0
M  V30 14321 C 1888.42 0.0220036 9.17197 0
M  V30 14322 O 1887.37 -0.626867 8.61923 0
M  V30 14323 C 1889.64 -0.24586 8.30336 0
M  V30 14324 O 1890.38 -1.39011 8.63583 0
M  V30 14325 C 1888.97 -0.273849 6.91158 0
M  V30 14326 O 1889.77 -1.06348 6.02892 0
M  V30 14327 C 1887.63 -0.897649 7.22545 0
M  V30 14328 H 1887.67 -1.9841 7.04286 0
M  V30 14329 H 1888.85 0.739928 6.497 0
M  V30 14330 H 1890.33 0.60668 8.36503 0
M  V30 14331 H 1888.64 -0.352479 10.1829 0
M  V30 14332 H 1888.45 2.00611 10.0304 0
M  V30 14333 H 1886.82 1.41843 9.55327 0
M  V30 14334 H 1889.46 -1.95734 6.03555 0
M  V30 14335 P 1891.32 -1.25109 8.70152 0
M  V30 14336 O 1892.72 -1.31452 9.27431 0
M  V30 14337 O 1890.94 -0.0458113 7.89887 0
M  V30 14338 O 1890.99 -2.55201 7.81066 0
M  V30 14339 C 1890.83 -3.79939 8.58154 0
M  V30 14340 C 1891.37 -4.93969 7.72701 0
M  V30 14341 O 1890.32 -5.18666 6.91125 0
M  V30 14342 C 1892.59 -4.69597 6.85231 0
M  V30 14343 O 1893.33 -5.83832 6.51337 0
M  V30 14344 C 1891.92 -3.96706 5.66633 0
M  V30 14345 O 1892.72 -4.15346 4.49615 0
M  V30 14346 C 1890.58 -4.66153 5.59313 0
M  V30 14347 N 1889.54 -3.71582 5.24027 0
M  V30 14348 C 1888.51 -4.15133 4.44901 0
M  V30 14349 O 1888.55 -5.32122 4.00336 0
M  V30 14350 N 1887.49 -3.30554 4.15693 0
M  V30 14351 C 1887.54 -2.04701 4.61105 0
M  V30 14352 N 1886.53 -1.23621 4.31855 0
M  V30 14353 C 1888.64 -1.57111 5.38655 0
M  V30 14354 C 1889.6 -2.44234 5.68454 0
M  V30 14355 H 1890.62 -5.47604 4.85148 0
M  V30 14356 H 1891.8 -2.8955 5.86187 0
M  V30 14357 H 1893.28 -4.01995 7.36197 0
M  V30 14358 H 1891.59 -5.81019 8.37003 0
M  V30 14359 H 1891.4 -3.73517 9.52265 0
M  V30 14360 H 1889.77 -3.97122 8.80267 0
M  V30 14361 H 1888.69 -0.538464 5.72373 0
M  V30 14362 H 1890.45 -2.11927 6.29377 0
M  V30 14363 H 1885.74 -1.58199 3.7543 0
M  V30 14364 H 1886.54 -0.264601 4.65348 0
M  V30 14365 H 1892.5 -4.98352 4.09633 0
M  V30 14366 P 1894.27 -5.75688 6.64379 0
M  V30 14367 O 1895.69 -6.11981 7.01997 0
M  V30 14368 O 1893.91 -4.30744 6.56026 0
M  V30 14369 O 1893.94 -6.37042 5.19165 0
M  V30 14370 C 1893.78 -7.83578 5.16515 0
M  V30 14371 C 1894.32 -8.33307 3.82977 0
M  V30 14372 O 1893.27 -8.10074 3.01034 0
M  V30 14373 C 1895.54 -7.65514 3.2257 0
M  V30 14374 O 1896.28 -8.4329 2.32297 0
M  V30 14375 C 1894.87 -6.40075 2.62207 0
M  V30 14376 O 1895.67 -5.92492 1.53687 0
M  V30 14377 C 1893.53 -6.9454 2.18503 0
M  V30 14378 N 1892.49 -5.95905 2.39948 0
M  V30 14379 C 1892.55 -5.13994 3.44742 0
M  V30 14380 N 1891.51 -4.30684 3.46712 0
M  V30 14381 C 1890.77 -4.65583 2.41086 0
M  V30 14382 C 1889.47 -4.20877 1.99581 0
M  V30 14383 O 1888.74 -3.35913 2.52616 0
M  V30 14384 N 1889.04 -4.83271 0.873406 0
M  V30 14385 C 1889.79 -5.82006 0.185129 0
M  V30 14386 N 1889.19 -6.30619 -0.95439 0
M  V30 14387 N 1890.94 -6.28443 0.578524 0
M  V30 14388 C 1891.4 -5.68486 1.70138 0
M  V30 14389 H 1893.57 -7.23063 1.12091 0
M  V30 14390 H 1894.75 -5.60165 3.3715 0
M  V30 14391 H 1896.23 -7.3611 4.01946 0
M  V30 14392 H 1894.54 -9.40912 3.9095 0
M  V30 14393 H 1894.35 -8.29056 5.99158 0
M  V30 14394 H 1892.72 -8.10073 5.25882 0
M  V30 14395 H 1888.14 -4.58323 0.505262 0
M  V30 14396 H 1893.35 -5.14564 4.1935 0
M  V30 14397 H 1888.28 -5.93402 -1.25364 0
M  V30 14398 H 1889.66 -7.0425 -1.50254 0
M  V30 14399 H 1895.36 -6.30224 0.72668 0
M  V30 14400 P 1897.22 -8.4349 2.47671 0
M  V30 14401 O 1898.64 -8.94167 2.5964 0
M  V30 14402 O 1896.86 -7.1704 3.19006 0
M  V30 14403 O 1896.89 -8.16596 0.923387 0
M  V30 14404 C 1896.73 -9.38437 0.108857 0
M  V30 14405 C 1897.27 -9.08175 -1.28353 0
M  V30 14406 O 1896.22 -8.44229 -1.84713 0
M  V30 14407 C 1898.49 -8.18386 -1.42505 0
M  V30 14408 O 1899.23 -8.3501 -2.60497 0
M  V30 14409 C 1897.82 -6.80225 -1.25468 0
M  V30 14410 O 1898.62 -5.81621 -1.91066 0
M  V30 14411 C 1896.49 -7.02416 -1.9168 0
M  V30 14412 H 1896.52 -6.6888 -2.96621 0
M  V30 14413 H 1897.7 -6.53617 -0.192223 0
M  V30 14414 H 1899.18 -8.36622 -0.589963 0
M  V30 14415 H 1897.49 -10.0291 -1.79807 0
M  V30 14416 H 1897.3 -10.2138 0.558219 0
M  V30 14417 H 1895.67 -9.6579 0.0444202 0
M  V30 14418 H 1898.31 -5.69556 -2.79637 0
M  V30 14419 P 1900.17 -8.4349 -2.47671 0
M  V30 14420 O 1901.59 -8.92593 -2.65 0
M  V30 14421 O 1899.81 -7.7568 -1.19296 0
M  V30 14422 O 1899.84 -7.36886 -3.63805 0
M  V30 14423 C 1899.68 -7.95349 -4.982 0
M  V30 14424 C 1900.22 -6.94612 -5.98974 0
M  V30 14425 O 1899.17 -6.10347 -6.11815 0
M  V30 14426 C 1901.44 -6.11426 -5.62335 0
M  V30 14427 O 1902.18 -5.6162 -6.70584 0
M  V30 14428 C 1900.77 -5.04409 -4.73308 0
M  V30 14429 O 1901.57 -3.85992 -4.75183 0
M  V30 14430 C 1899.44 -4.8728 -5.41006 0
M  V30 14431 H 1899.47 -4.02333 -6.11157 0
M  V30 14432 H 1900.65 -5.39466 -3.69543 0
M  V30 14433 H 1902.14 -6.71916 -5.01943 0
M  V30 14434 H 1900.44 -7.4649 -6.93477 0
M  V30 14435 H 1900.25 -8.89416 -5.05237 0
M  V30 14436 H 1898.62 -8.14876 -5.18409 0
M  V30 14437 H 1901.26 -3.27957 -5.4317 0
M  V30 14438 P 1903.12 -5.75688 -6.64379 0
M  V30 14439 O 1904.54 -6.07627 -7.05504 0
M  V30 14440 O 1902.76 -5.88047 -5.19722 0
M  V30 14441 O 1902.79 -4.2322 -7.04443 0
M  V30 14442 C 1902.63 -3.99743 -8.4911 0
M  V30 14443 C 1903.17 -2.60516 -8.79425 0
M  V30 14444 O 1902.12 -1.82684 -8.4467 0
M  V30 14445 C 1904.39 -2.10343 -8.03628 0
M  V30 14446 O 1905.13 -1.09919 -8.67766 0
M  V30 14447 C 1903.72 -1.68446 -6.70876 0
M  V30 14448 O 1904.52 -0.678137 -6.08433 0
M  V30 14449 C 1902.39 -1.17436 -7.18567 0
M  V30 14450 H 1902.42 -0.0804732 -7.31656 0
M  V30 14451 H 1903.6 -2.54037 -6.02537 0
M  V30 14452 H 1905.09 -2.93881 -7.85526 0
M  V30 14453 H 1903.39 -2.53065 -9.86973 0
M  V30 14454 H 1903.2 -4.75072 -9.05887 0
M  V30 14455 H 1901.57 -4.05244 -8.76668 0
M  V30 14456 H 1904.21 0.177647 -6.34251 0
M  V30 14457 P 1906.07 -1.25109 -8.70152 0
M  V30 14458 O 1907.49 -1.29758 -9.22115 0
M  V30 14459 O 1905.71 -2.13714 -7.55141 0
M  V30 14460 O 1905.75 0.248149 -8.21425 0
M  V30 14461 C 1905.58 1.22792 -9.30533 0
M  V30 14462 C 1906.13 2.56293 -8.80664 0
M  V30 14463 O 1905.07 3.02944 -8.09255 0
M  V30 14464 C 1907.34 2.57523 -7.89775 0
M  V30 14465 O 1908.08 3.7668 -7.89438 0
M  V30 14466 C 1906.68 2.20997 -6.55446 0
M  V30 14467 O 1907.47 2.71302 -5.48691 0
M  V30 14468 C 1905.34 2.89693 -6.67988 0
M  V30 14469 N 1904.29 2.08895 -6.07487 0
M  V30 14470 C 1904.46 0.753809 -5.94137 0
M  V30 14471 N 1903.44 0.146592 -5.38801 0
M  V30 14472 C 1902.55 1.1768 -5.13693 0
M  V30 14473 C 1901.28 1.17563 -4.52477 0
M  V30 14474 N 1900.72 2.41918 -4.45789 0
M  V30 14475 C 1901.32 3.56493 -4.90792 0
M  V30 14476 N 1902.5 3.61423 -5.47817 0
M  V30 14477 C 1903.07 2.37779 -5.5588 0
M  V30 14478 H 1906.55 1.12673 -6.44018 0
M  V30 14479 H 1908.04 1.7746 -8.19711 0
M  V30 14480 H 1906.34 3.21673 -9.66791 0
M  V30 14481 H 1906.15 0.901032 -10.1892 0
M  V30 14482 H 1904.52 1.33049 -9.56592 0
M  V30 14483 H 1905.36 0.233081 -6.26266 0
M  V30 14484 H 1907.16 3.5779 -5.23879 0
M  V30 14485 P 1909.02 3.65191 -7.99657 0
M  V30 14486 O 1910.44 3.89332 -8.45794 0
M  V30 14487 O 1908.66 2.28472 -7.50807 0
M  V30 14488 O 1908.7 4.64972 -6.77611 0
M  V30 14489 C 1908.54 6.06319 -7.16352 0
M  V30 14490 C 1909.08 6.91731 -6.02299 0
M  V30 14491 O 1908.02 6.92449 -5.17064 0
M  V30 14492 C 1910.29 6.43627 -5.25174 0
M  V30 14493 O 1911.03 7.43686 -4.60469 0
M  V30 14494 C 1909.62 5.40275 -4.31916 0
M  V30 14495 O 1910.42 5.25279 -3.14438 0
M  V30 14496 C 1908.29 6.04847 -4.05327 0
M  V30 14497 H 1908.32 6.62195 -3.11261 0
M  V30 14498 H 1909.5 4.42556 -4.81383 0
M  V30 14499 H 1910.99 5.92458 -5.93643 0
M  V30 14500 H 1909.29 7.92655 -6.402 0
M  V30 14501 H 1909.1 6.26671 -8.0846 0
M  V30 14502 H 1907.47 6.29101 -7.32804 0
M  V30 14503 H 1910.11 5.84315 -2.47318 0
M  V30 14504 P 1911.97 7.39546 -4.75277 0
M  V30 14505 O 1913.39 7.84882 -5.01092 0
M  V30 14506 O 1911.61 5.9812 -5.08098 0
M  V30 14507 O 1911.65 7.57503 -3.1866 0
M  V30 14508 C 1911.49 8.97452 -2.74862 0
M  V30 14509 C 1912.03 9.07548 -1.32709 0
M  V30 14510 O 1910.97 8.61972 -0.606089 0
M  V30 14511 C 1913.24 8.25383 -0.938334 0
M  V30 14512 O 1913.98 8.74577 0.146954 0
M  V30 14513 C 1912.58 6.8802 -0.712559 0
M  V30 14514 O 1913.37 6.1181 0.188505 0
M  V30 14515 C 1911.24 7.27966 -0.139777 0
M  V30 14516 N 1910.2 6.39368 -0.623421 0
M  V30 14517 C 1910.36 5.71761 -1.78245 0
M  V30 14518 N 1909.34 4.962 -2.10491 0
M  V30 14519 C 1908.45 5.16158 -1.0635 0
M  V30 14520 C 1907.19 4.60425 -0.810266 0
M  V30 14521 N 1906.59 3.7057 -1.62914 0
M  V30 14522 N 1906.62 5.06 0.348685 0
M  V30 14523 C 1907.22 5.94532 1.20395 0
M  V30 14524 N 1908.4 6.48452 1.01191 0
M  V30 14525 C 1908.97 6.04423 -0.146291 0
M  V30 14526 H 1911.27 7.25255 0.961469 0
M  V30 14527 H 1912.45 6.32625 -1.65044 0
M  V30 14528 H 1913.94 8.19355 -1.79097 0
M  V30 14529 H 1912.24 10.1305 -1.09016 0
M  V30 14530 H 1912.05 9.64276 -3.41316 0
M  V30 14531 H 1910.42 9.25417 -2.76357 0
M  V30 14532 H 1906.69 6.21659 2.10714 0
M  V30 14533 H 1911.26 5.79354 -2.38959 0
M  V30 14534 H 1905.66 3.33174 -1.38982 0
M  V30 14535 H 1907.06 3.39714 -2.48836 0
M  V30 14536 H 1913.06 6.25169 1.0783 0
M  V30 14537 P 1914.92 8.791 1.63009e-11 0
M  V30 14538 O 1916.34 9.31096 0.027933 0
M  V30 14539 O 1914.56 7.77869 -1.04071 0
M  V30 14540 O 1914.6 8.09533 1.41463 0
M  V30 14541 C 1914.44 9.0349 2.53943 0
M  V30 14542 C 1914.98 8.35226 3.79016 0
M  V30 14543 O 1913.92 7.57992 4.15078 0
M  V30 14544 C 1916.19 7.45087 3.67298 0
M  V30 14545 O 1916.93 7.27796 4.85194 0
M  V30 14546 C 1915.53 6.17323 3.12027 0
M  V30 14547 O 1916.32 5.04231 3.47188 0
M  V30 14548 C 1914.19 6.19961 3.81809 0
M  V30 14549 H 1914.22 5.58218 4.73051 0
M  V30 14550 H 1915.4 6.21726 2.02589 0
M  V30 14551 H 1916.89 7.86112 2.9231 0
M  V30 14552 H 1915.19 9.11627 4.55076 0
M  V30 14553 H 1915 9.9573 2.34194 0
M  V30 14554 H 1913.37 9.2792 2.67832 0
M  V30 14555 H 1916.01 4.67702 4.28772 0
M  V30 14556 P 1917.87 7.39546 4.75277 0
M  V30 14557 O 1919.29 7.81777 5.05738 0
M  V30 14558 O 1917.51 7.1065 3.32998 0
M  V30 14559 O 1917.55 6.04542 5.56673 0
M  V30 14560 C 1917.39 6.22772 7.02095 0
M  V30 14561 C 1917.93 4.97725 7.70406 0
M  V30 14562 O 1916.87 4.13256 7.58987 0
M  V30 14563 C 1919.15 4.28231 7.11815 0
M  V30 14564 O 1919.88 3.49945 8.01648 0
M  V30 14565 C 1918.48 3.5063 5.96244 0
M  V30 14566 O 1919.28 2.36482 5.64681 0
M  V30 14567 C 1917.14 3.15122 6.56374 0
M  V30 14568 H 1917.17 2.13853 6.99751 0
M  V30 14569 H 1918.35 4.13501 5.06559 0
M  V30 14570 H 1919.84 5.03285 6.70911 0
M  V30 14571 H 1918.14 5.20877 8.75697 0
M  V30 14572 H 1917.95 7.11046 7.35349 0
M  V30 14573 H 1916.32 6.35815 7.26986 0
M  V30 14574 H 1918.96 1.61644 6.13565 0
M  V30 14575 P 1920.82 3.65191 7.99657 0
M  V30 14576 O 1922.24 3.8425 8.48115 0
M  V30 14577 O 1920.46 4.17805 6.64342 0
M  V30 14578 O 1920.5 2.07613 7.95143 0
M  V30 14579 C 1920.34 1.44328 9.27336 0
M  V30 14580 C 1920.88 0.0220036 9.17197 0
M  V30 14581 O 1919.82 -0.626867 8.61923 0
M  V30 14582 C 1922.1 -0.24586 8.30336 0
M  V30 14583 O 1922.83 -1.39011 8.63583 0
M  V30 14584 C 1921.43 -0.273849 6.91158 0
M  V30 14585 O 1922.23 -1.06348 6.02892 0
M  V30 14586 C 1920.09 -0.897649 7.22545 0
M  V30 14587 H 1920.12 -1.9841 7.04286 0
M  V30 14588 H 1921.31 0.739928 6.497 0
M  V30 14589 H 1922.79 0.60668 8.36503 0
M  V30 14590 H 1921.1 -0.352479 10.1829 0
M  V30 14591 H 1920.91 2.00611 10.0304 0
M  V30 14592 H 1919.28 1.41843 9.55327 0
M  V30 14593 H 1921.91 -1.95734 6.03555 0
M  V30 14594 P 1923.77 -1.25109 8.70152 0
M  V30 14595 O 1925.19 -1.35274 9.21221 0
M  V30 14596 O 1923.41 -0.0769065 7.84762 0
M  V30 14597 O 1923.45 -2.55232 7.81161 0
M  V30 14598 C 1923.29 -3.79939 8.58154 0
M  V30 14599 C 1923.83 -4.94023 7.72785 0
M  V30 14600 O 1922.77 -5.18726 6.91205 0
M  V30 14601 C 1925.05 -4.69597 6.85231 0
M  V30 14602 O 1925.78 -5.83832 6.51337 0
M  V30 14603 C 1924.38 -3.96706 5.66633 0
M  V30 14604 O 1925.18 -4.15414 4.49689 0
M  V30 14605 C 1923.04 -4.66153 5.59313 0
M  V30 14606 H 1923.07 -5.47679 4.85214 0
M  V30 14607 H 1924.26 -2.89008 5.86566 0
M  V30 14608 H 1925.74 -4.0121 7.36511 0
M  V30 14609 H 1924.05 -5.80182 8.37584 0
M  V30 14610 H 1923.86 -3.73517 9.52265 0
M  V30 14611 H 1922.23 -3.97163 8.80359 0
M  V30 14612 H 1924.86 -4.90969 4.01921 0
M  V30 14613 P 1926.72 -5.75688 6.64379 0
M  V30 14614 O 1928.14 -6.11849 7.01846 0
M  V30 14615 O 1926.36 -4.30744 6.56026 0
M  V30 14616 O 1926.4 -6.37042 5.19165 0
M  V30 14617 C 1926.24 -7.83578 5.16515 0
M  V30 14618 C 1926.78 -8.33398 3.83019 0
M  V30 14619 O 1925.72 -8.10074 3.01034 0
M  V30 14620 C 1928 -7.65514 3.2257 0
M  V30 14621 O 1928.74 -8.4329 2.32297 0
M  V30 14622 C 1927.33 -6.40075 2.62207 0
M  V30 14623 O 1928.13 -5.92589 1.53712 0
M  V30 14624 C 1925.99 -6.9454 2.18503 0
M  V30 14625 H 1926.02 -7.23063 1.12091 0
M  V30 14626 H 1927.21 -5.6025 3.37201 0
M  V30 14627 H 1928.69 -7.35707 4.02681 0
M  V30 14628 H 1927 -9.40912 3.9095 0
M  V30 14629 H 1926.81 -8.29056 5.99158 0
M  V30 14630 H 1925.18 -8.10073 5.25882 0
M  V30 14631 H 1927.82 -6.30324 0.726794 0
M  V30 14632 P 1929.67 -8.4349 2.47671 0
M  V30 14633 O 1931.09 -8.94167 2.5964 0
M  V30 14634 O 1929.31 -7.1704 3.19006 0
M  V30 14635 O 1929.35 -8.16596 0.923387 0
M  V30 14636 C 1929.19 -9.38437 0.108857 0
M  V30 14637 C 1929.73 -9.08175 -1.28353 0
M  V30 14638 O 1928.67 -8.44229 -1.84713 0
M  V30 14639 C 1930.95 -8.18386 -1.42505 0
M  V30 14640 O 1931.69 -8.3501 -2.60497 0
M  V30 14641 C 1930.28 -6.80225 -1.25468 0
M  V30 14642 O 1931.08 -5.81621 -1.91066 0
M  V30 14643 C 1928.94 -7.02416 -1.9168 0
M  V30 14644 H 1928.97 -6.6888 -2.96621 0
M  V30 14645 H 1930.16 -6.53617 -0.192223 0
M  V30 14646 H 1931.64 -8.36622 -0.589963 0
M  V30 14647 H 1929.95 -10.0291 -1.79807 0
M  V30 14648 H 1929.76 -10.2138 0.558219 0
M  V30 14649 H 1928.13 -9.6579 0.0444202 0
M  V30 14650 H 1930.77 -5.69556 -2.79637 0
M  V30 14651 P 1932.62 -8.4349 -2.47671 0
M  V30 14652 O 1934.05 -8.92593 -2.65 0
M  V30 14653 O 1932.26 -7.7568 -1.19296 0
M  V30 14654 O 1932.3 -7.36886 -3.63805 0
M  V30 14655 C 1932.14 -7.95349 -4.982 0
M  V30 14656 C 1932.68 -6.94612 -5.98974 0
M  V30 14657 O 1931.62 -6.10347 -6.11815 0
M  V30 14658 C 1933.9 -6.11426 -5.62335 0
M  V30 14659 O 1934.64 -5.6162 -6.70584 0
M  V30 14660 C 1933.23 -5.04409 -4.73308 0
M  V30 14661 O 1934.03 -3.85992 -4.75183 0
M  V30 14662 C 1931.89 -4.8728 -5.41006 0
M  V30 14663 H 1931.92 -4.02333 -6.11157 0
M  V30 14664 H 1933.11 -5.39466 -3.69543 0
M  V30 14665 H 1934.59 -6.71916 -5.01943 0
M  V30 14666 H 1932.9 -7.4649 -6.93477 0
M  V30 14667 H 1932.71 -8.89416 -5.05237 0
M  V30 14668 H 1931.08 -8.14876 -5.18409 0
M  V30 14669 H 1933.72 -3.27957 -5.4317 0
M  V30 14670 P 1935.57 -5.75688 -6.64379 0
M  V30 14671 O 1937 -6.07627 -7.05504 0
M  V30 14672 O 1935.21 -5.88047 -5.19722 0
M  V30 14673 O 1935.25 -4.2322 -7.04443 0
M  V30 14674 C 1935.09 -3.99743 -8.4911 0
M  V30 14675 C 1935.63 -2.60516 -8.79425 0
M  V30 14676 O 1934.57 -1.82684 -8.4467 0
M  V30 14677 C 1936.85 -2.10343 -8.03628 0
M  V30 14678 O 1937.59 -1.09919 -8.67766 0
M  V30 14679 C 1936.18 -1.68446 -6.70876 0
M  V30 14680 O 1936.98 -0.678137 -6.08433 0
M  V30 14681 C 1934.84 -1.17436 -7.18567 0
M  V30 14682 H 1934.87 -0.0804732 -7.31656 0
M  V30 14683 H 1936.06 -2.54037 -6.02537 0
M  V30 14684 H 1937.54 -2.93881 -7.85526 0
M  V30 14685 H 1935.85 -2.53065 -9.86973 0
M  V30 14686 H 1935.66 -4.75072 -9.05887 0
M  V30 14687 H 1934.03 -4.05244 -8.76668 0
M  V30 14688 H 1936.67 0.177647 -6.34251 0
M  V30 14689 P 1938.52 -1.25109 -8.70152 0
M  V30 14690 O 1939.95 -1.29744 -9.22016 0
M  V30 14691 O 1938.16 -2.13714 -7.55141 0
M  V30 14692 O 1938.2 0.248149 -8.21425 0
M  V30 14693 C 1938.04 1.22779 -9.30434 0
M  V30 14694 C 1938.58 2.56293 -8.80664 0
M  V30 14695 O 1937.53 3.02979 -8.09349 0
M  V30 14696 C 1939.8 2.57523 -7.89775 0
M  V30 14697 O 1940.54 3.7668 -7.89438 0
M  V30 14698 C 1939.13 2.20997 -6.55446 0
M  V30 14699 O 1939.93 2.71895 -5.48509 0
M  V30 14700 C 1937.79 2.89693 -6.67988 0
M  V30 14701 H 1937.83 3.88793 -6.19859 0
M  V30 14702 H 1939.01 1.12046 -6.44229 0
M  V30 14703 H 1940.49 1.7746 -8.19711 0
M  V30 14704 H 1938.8 3.20706 -9.67112 0
M  V30 14705 H 1938.61 0.901032 -10.1892 0
M  V30 14706 H 1936.98 1.33049 -9.56592 0
M  V30 14707 H 1939.62 3.57847 -5.23962 0
M  V30 14708 P 1941.48 3.65191 -7.99657 0
M  V30 14709 O 1942.9 3.89332 -8.45794 0
M  V30 14710 O 1941.12 2.28472 -7.50807 0
M  V30 14711 O 1941.15 4.64972 -6.77611 0
M  V30 14712 C 1940.99 6.06319 -7.16352 0
M  V30 14713 C 1941.53 6.91731 -6.02299 0
M  V30 14714 O 1940.48 6.92449 -5.17064 0
M  V30 14715 C 1942.75 6.43627 -5.25174 0
M  V30 14716 O 1943.49 7.43686 -4.60469 0
M  V30 14717 C 1942.08 5.40275 -4.31916 0
M  V30 14718 O 1942.88 5.25279 -3.14438 0
M  V30 14719 C 1940.74 6.04847 -4.05327 0
M  V30 14720 H 1940.78 6.62195 -3.11261 0
M  V30 14721 H 1941.96 4.42556 -4.81383 0
M  V30 14722 H 1943.44 5.92458 -5.93643 0
M  V30 14723 H 1941.75 7.92655 -6.402 0
M  V30 14724 H 1941.56 6.26671 -8.0846 0
M  V30 14725 H 1939.93 6.29101 -7.32804 0
M  V30 14726 H 1942.57 5.84315 -2.47318 0
M  V30 14727 P 1944.43 7.39546 -4.75277 0
M  V30 14728 O 1945.85 7.84798 -5.01039 0
M  V30 14729 O 1944.07 5.9812 -5.08098 0
M  V30 14730 O 1944.1 7.57503 -3.1866 0
M  V30 14731 C 1943.94 8.97357 -2.74833 0
M  V30 14732 C 1944.48 9.07548 -1.32709 0
M  V30 14733 O 1943.43 8.62072 -0.606159 0
M  V30 14734 C 1945.7 8.25383 -0.938334 0
M  V30 14735 O 1946.44 8.74577 0.146954 0
M  V30 14736 C 1945.03 6.8802 -0.712559 0
M  V30 14737 O 1945.83 6.1189 0.194655 0
M  V30 14738 C 1943.69 7.27966 -0.139777 0
M  V30 14739 H 1943.73 7.25354 0.961601 0
M  V30 14740 H 1944.91 6.32557 -1.65702 0
M  V30 14741 H 1946.39 8.19355 -1.79097 0
M  V30 14742 H 1944.7 10.1294 -1.10029 0
M  V30 14743 H 1944.51 9.64276 -3.41316 0
M  V30 14744 H 1942.88 9.25417 -2.76357 0
M  V30 14745 H 1945.52 6.25267 1.07847 0
M  V30 14746 P 1947.38 8.791 1.66111e-11 0
M  V30 14747 O 1948.8 9.31096 0.027933 0
M  V30 14748 O 1947.02 7.77869 -1.04071 0
M  V30 14749 O 1947.05 8.09533 1.41463 0
M  V30 14750 C 1946.89 9.0349 2.53943 0
M  V30 14751 C 1947.43 8.35226 3.79016 0
M  V30 14752 O 1946.38 7.57992 4.15078 0
M  V30 14753 C 1948.65 7.45087 3.67298 0
M  V30 14754 O 1949.39 7.27796 4.85194 0
M  V30 14755 C 1947.98 6.17323 3.12027 0
M  V30 14756 O 1948.78 5.04231 3.47188 0
M  V30 14757 C 1946.65 6.19961 3.81809 0
M  V30 14758 H 1946.68 5.58218 4.73051 0
M  V30 14759 H 1947.86 6.21726 2.02589 0
M  V30 14760 H 1949.34 7.86112 2.9231 0
M  V30 14761 H 1947.65 9.11627 4.55076 0
M  V30 14762 H 1947.46 9.9573 2.34194 0
M  V30 14763 H 1945.83 9.2792 2.67832 0
M  V30 14764 H 1948.47 4.67702 4.28772 0
M  V30 14765 P 1950.33 7.39546 4.75277 0
M  V30 14766 O 1951.75 7.81777 5.05738 0
M  V30 14767 O 1949.97 7.1065 3.32998 0
M  V30 14768 O 1950 6.04542 5.56673 0
M  V30 14769 C 1949.84 6.22772 7.02095 0
M  V30 14770 C 1950.38 4.97725 7.70406 0
M  V30 14771 O 1949.33 4.13256 7.58987 0
M  V30 14772 C 1951.6 4.28231 7.11815 0
M  V30 14773 O 1952.34 3.49945 8.01648 0
M  V30 14774 C 1950.93 3.5063 5.96244 0
M  V30 14775 O 1951.73 2.36482 5.64681 0
M  V30 14776 C 1949.6 3.15122 6.56374 0
M  V30 14777 H 1949.63 2.13853 6.99751 0
M  V30 14778 H 1950.81 4.13501 5.06559 0
M  V30 14779 H 1952.29 5.03285 6.70911 0
M  V30 14780 H 1950.6 5.20877 8.75697 0
M  V30 14781 H 1950.41 7.11046 7.35349 0
M  V30 14782 H 1948.78 6.35815 7.26986 0
M  V30 14783 H 1951.42 1.61644 6.13565 0
M  V30 14784 P 1953.28 3.65191 7.99657 0
M  V30 14785 O 1954.7 3.8425 8.48115 0
M  V30 14786 O 1952.92 4.17805 6.64342 0
M  V30 14787 O 1952.95 2.07613 7.95143 0
M  V30 14788 C 1952.79 1.44328 9.27336 0
M  V30 14789 C 1953.33 0.0220036 9.17197 0
M  V30 14790 O 1952.28 -0.626867 8.61923 0
M  V30 14791 C 1954.55 -0.24586 8.30336 0
M  V30 14792 O 1955.29 -1.39011 8.63583 0
M  V30 14793 C 1953.88 -0.273849 6.91158 0
M  V30 14794 O 1954.68 -1.06348 6.02892 0
M  V30 14795 C 1952.55 -0.897649 7.22545 0
M  V30 14796 H 1952.58 -1.9841 7.04286 0
M  V30 14797 H 1953.76 0.739928 6.497 0
M  V30 14798 H 1955.25 0.60668 8.36503 0
M  V30 14799 H 1953.55 -0.352479 10.1829 0
M  V30 14800 H 1953.36 2.00611 10.0304 0
M  V30 14801 H 1951.73 1.41843 9.55327 0
M  V30 14802 H 1954.37 -1.95734 6.03555 0
M  V30 14803 P 1956.23 -1.25109 8.70152 0
M  V30 14804 O 1957.65 -1.35274 9.21221 0
M  V30 14805 O 1955.87 -0.0769065 7.84762 0
M  V30 14806 O 1955.9 -2.55232 7.81161 0
M  V30 14807 C 1955.74 -3.79939 8.58154 0
M  V30 14808 C 1956.28 -4.94023 7.72785 0
M  V30 14809 O 1955.23 -5.18726 6.91205 0
M  V30 14810 C 1957.5 -4.69597 6.85231 0
M  V30 14811 O 1958.24 -5.83832 6.51337 0
M  V30 14812 C 1956.83 -3.96706 5.66633 0
M  V30 14813 O 1957.63 -4.15414 4.49689 0
M  V30 14814 C 1955.5 -4.66153 5.59313 0
M  V30 14815 H 1955.53 -5.47679 4.85214 0
M  V30 14816 H 1956.71 -2.89008 5.86566 0
M  V30 14817 H 1958.2 -4.0121 7.36511 0
M  V30 14818 H 1956.5 -5.80182 8.37584 0
M  V30 14819 H 1956.31 -3.73517 9.52265 0
M  V30 14820 H 1954.68 -3.97163 8.80359 0
M  V30 14821 H 1957.32 -4.90969 4.01921 0
M  V30 14822 P 1959.18 -5.75688 6.64379 0
M  V30 14823 O 1960.6 -6.11981 7.01997 0
M  V30 14824 O 1958.82 -4.30744 6.56026 0
M  V30 14825 O 1958.86 -6.37042 5.19165 0
M  V30 14826 C 1958.7 -7.83578 5.16515 0
M  V30 14827 C 1959.24 -8.33307 3.82977 0
M  V30 14828 O 1958.18 -8.10074 3.01034 0
M  V30 14829 C 1960.45 -7.65514 3.2257 0
M  V30 14830 O 1961.19 -8.4329 2.32297 0
M  V30 14831 C 1959.79 -6.40075 2.62207 0
M  V30 14832 O 1960.58 -5.92492 1.53687 0
M  V30 14833 C 1958.45 -6.9454 2.18503 0
M  V30 14834 N 1957.4 -5.95905 2.39948 0
M  V30 14835 C 1957.47 -5.13994 3.44742 0
M  V30 14836 N 1956.42 -4.30684 3.46712 0
M  V30 14837 C 1955.69 -4.65583 2.41086 0
M  V30 14838 C 1954.38 -4.20877 1.99581 0
M  V30 14839 O 1953.65 -3.35913 2.52616 0
M  V30 14840 N 1953.95 -4.83271 0.873406 0
M  V30 14841 C 1954.7 -5.82006 0.185129 0
M  V30 14842 N 1954.1 -6.30619 -0.95439 0
M  V30 14843 N 1955.85 -6.28443 0.578524 0
M  V30 14844 C 1956.31 -5.68486 1.70138 0
M  V30 14845 H 1958.48 -7.23063 1.12091 0
M  V30 14846 H 1959.66 -5.60165 3.3715 0
M  V30 14847 H 1961.15 -7.3611 4.01946 0
M  V30 14848 H 1959.45 -9.40912 3.9095 0
M  V30 14849 H 1959.26 -8.29056 5.99158 0
M  V30 14850 H 1957.63 -8.10073 5.25882 0
M  V30 14851 H 1953.06 -4.58323 0.505262 0
M  V30 14852 H 1958.26 -5.14564 4.1935 0
M  V30 14853 H 1953.19 -5.93402 -1.25364 0
M  V30 14854 H 1954.57 -7.0425 -1.50254 0
M  V30 14855 H 1960.27 -6.30224 0.72668 0
M  V30 14856 P 1962.13 -8.4349 2.47671 0
M  V30 14857 O 1963.55 -8.94167 2.5964 0
M  V30 14858 O 1961.77 -7.1704 3.19006 0
M  V30 14859 O 1961.81 -8.16596 0.923387 0
M  V30 14860 C 1961.65 -9.38437 0.108857 0
M  V30 14861 C 1962.19 -9.08175 -1.28353 0
M  V30 14862 O 1961.13 -8.44229 -1.84713 0
M  V30 14863 C 1963.4 -8.18386 -1.42505 0
M  V30 14864 O 1964.14 -8.3501 -2.60497 0
M  V30 14865 C 1962.74 -6.80225 -1.25468 0
M  V30 14866 O 1963.53 -5.81621 -1.91066 0
M  V30 14867 C 1961.4 -7.02416 -1.9168 0
M  V30 14868 H 1961.43 -6.6888 -2.96621 0
M  V30 14869 H 1962.61 -6.53617 -0.192223 0
M  V30 14870 H 1964.1 -8.36622 -0.589963 0
M  V30 14871 H 1962.4 -10.0291 -1.79807 0
M  V30 14872 H 1962.21 -10.2138 0.558219 0
M  V30 14873 H 1960.58 -9.6579 0.0444202 0
M  V30 14874 H 1963.22 -5.69556 -2.79637 0
M  V30 14875 P 1965.08 -8.4349 -2.47671 0
M  V30 14876 O 1966.5 -8.92689 -2.65029 0
M  V30 14877 O 1964.72 -7.7568 -1.19296 0
M  V30 14878 O 1964.76 -7.36886 -3.63805 0
M  V30 14879 C 1964.6 -7.95433 -4.98253 0
M  V30 14880 C 1965.14 -6.94612 -5.98974 0
M  V30 14881 O 1964.08 -6.10277 -6.11744 0
M  V30 14882 C 1966.35 -6.11426 -5.62335 0
M  V30 14883 O 1967.09 -5.6162 -6.70584 0
M  V30 14884 C 1965.69 -5.04409 -4.73308 0
M  V30 14885 O 1966.48 -3.86404 -4.74719 0
M  V30 14886 C 1964.35 -4.8728 -5.41006 0
M  V30 14887 N 1963.31 -4.65812 -4.42377 0
M  V30 14888 C 1963.47 -5.09132 -3.15382 0
M  V30 14889 N 1962.45 -4.84021 -2.3716 0
M  V30 14890 C 1961.56 -4.18386 -3.20441 0
M  V30 14891 C 1960.3 -3.6275 -2.94905 0
M  V30 14892 N 1959.7 -3.65794 -1.73372 0
M  V30 14893 N 1959.73 -3.05008 -4.05243 0
M  V30 14894 C 1960.33 -2.98348 -5.28159 0
M  V30 14895 N 1961.51 -3.48171 -5.56333 0
M  V30 14896 C 1962.08 -4.06869 -4.47212 0
M  V30 14897 H 1964.38 -4.02278 -6.11074 0
M  V30 14898 H 1965.56 -5.39013 -3.70026 0
M  V30 14899 H 1967.05 -6.71916 -5.01943 0
M  V30 14900 H 1965.35 -7.45796 -6.94223 0
M  V30 14901 H 1965.16 -8.89416 -5.05237 0
M  V30 14902 H 1963.53 -8.14876 -5.18409 0
M  V30 14903 H 1959.8 -2.47853 -6.07807 0
M  V30 14904 H 1964.37 -5.59989 -2.81362 0
M  V30 14905 H 1958.77 -3.23218 -1.60782 0
M  V30 14906 H 1960.17 -4.10523 -0.937856 0
M  V30 14907 H 1966.17 -3.27906 -5.43085 0
M  V30 14908 P 1968.03 -5.75688 -6.64379 0
M  V30 14909 O 1969.45 -6.07627 -7.05504 0
M  V30 14910 O 1967.67 -5.88047 -5.19722 0
M  V30 14911 O 1967.71 -4.2322 -7.04443 0
M  V30 14912 C 1967.55 -3.99743 -8.4911 0
M  V30 14913 C 1968.09 -2.60516 -8.79425 0
M  V30 14914 O 1967.03 -1.82684 -8.4467 0
M  V30 14915 C 1969.31 -2.10343 -8.03628 0
M  V30 14916 O 1970.04 -1.09919 -8.67766 0
M  V30 14917 C 1968.64 -1.68446 -6.70876 0
M  V30 14918 O 1969.44 -0.678137 -6.08433 0
M  V30 14919 C 1967.3 -1.17436 -7.18567 0
M  V30 14920 H 1967.33 -0.0804732 -7.31656 0
M  V30 14921 H 1968.51 -2.54037 -6.02537 0
M  V30 14922 H 1970 -2.93881 -7.85526 0
M  V30 14923 H 1968.3 -2.53065 -9.86973 0
M  V30 14924 H 1968.11 -4.75072 -9.05887 0
M  V30 14925 H 1966.48 -4.05244 -8.76668 0
M  V30 14926 H 1969.12 0.177647 -6.34251 0
M  V30 14927 P 1970.98 -1.25109 -8.70152 0
M  V30 14928 O 1972.4 -1.29744 -9.22016 0
M  V30 14929 O 1970.62 -2.13714 -7.55141 0
M  V30 14930 O 1970.66 0.248149 -8.21425 0
M  V30 14931 C 1970.5 1.22779 -9.30434 0
M  V30 14932 C 1971.04 2.56293 -8.80664 0
M  V30 14933 O 1969.98 3.02979 -8.09349 0
M  V30 14934 C 1972.26 2.57523 -7.89775 0
M  V30 14935 O 1972.99 3.7668 -7.89438 0
M  V30 14936 C 1971.59 2.20997 -6.55446 0
M  V30 14937 O 1972.39 2.71895 -5.48509 0
M  V30 14938 C 1970.25 2.89693 -6.67988 0
M  V30 14939 H 1970.28 3.88793 -6.19859 0
M  V30 14940 H 1971.46 1.12046 -6.44229 0
M  V30 14941 H 1972.95 1.7746 -8.19711 0
M  V30 14942 H 1971.25 3.20706 -9.67112 0
M  V30 14943 H 1971.06 0.901032 -10.1892 0
M  V30 14944 H 1969.43 1.33049 -9.56592 0
M  V30 14945 H 1972.07 3.57847 -5.23962 0
M  V30 14946 P 1973.93 3.65191 -7.99657 0
M  V30 14947 O 1975.35 3.89332 -8.45794 0
M  V30 14948 O 1973.57 2.28472 -7.50807 0
M  V30 14949 O 1973.61 4.64972 -6.77611 0
M  V30 14950 C 1973.45 6.06319 -7.16352 0
M  V30 14951 C 1973.99 6.91731 -6.02299 0
M  V30 14952 O 1972.93 6.92449 -5.17064 0
M  V30 14953 C 1975.21 6.43627 -5.25174 0
M  V30 14954 O 1975.94 7.43686 -4.60469 0
M  V30 14955 C 1974.54 5.40275 -4.31916 0
M  V30 14956 O 1975.34 5.25279 -3.14438 0
M  V30 14957 C 1973.2 6.04847 -4.05327 0
M  V30 14958 H 1973.23 6.62195 -3.11261 0
M  V30 14959 H 1974.42 4.42556 -4.81383 0
M  V30 14960 H 1975.9 5.92458 -5.93643 0
M  V30 14961 H 1974.21 7.92655 -6.402 0
M  V30 14962 H 1974.02 6.26671 -8.0846 0
M  V30 14963 H 1972.39 6.29101 -7.32804 0
M  V30 14964 H 1975.02 5.84315 -2.47318 0
M  V30 14965 P 1976.88 7.39546 -4.75277 0
M  V30 14966 O 1978.3 7.84798 -5.01039 0
M  V30 14967 O 1976.52 5.9812 -5.08098 0
M  V30 14968 O 1976.56 7.57503 -3.1866 0
M  V30 14969 C 1976.4 8.97357 -2.74833 0
M  V30 14970 C 1976.94 9.07548 -1.32709 0
M  V30 14971 O 1975.88 8.62072 -0.606159 0
M  V30 14972 C 1978.16 8.25383 -0.938334 0
M  V30 14973 O 1978.89 8.74577 0.146954 0
M  V30 14974 C 1977.49 6.8802 -0.712559 0
M  V30 14975 O 1978.29 6.1189 0.194655 0
M  V30 14976 C 1976.15 7.27966 -0.139777 0
M  V30 14977 H 1976.18 7.25354 0.961601 0
M  V30 14978 H 1977.37 6.32557 -1.65702 0
M  V30 14979 H 1978.85 8.19355 -1.79097 0
M  V30 14980 H 1977.16 10.1294 -1.10029 0
M  V30 14981 H 1976.97 9.64276 -3.41316 0
M  V30 14982 H 1975.34 9.25417 -2.76357 0
M  V30 14983 H 1977.97 6.25267 1.07847 0
M  V30 14984 P 1979.83 8.791 1.69213e-11 0
M  V30 14985 O 1981.25 9.31196 0.027936 0
M  V30 14986 O 1979.47 7.77869 -1.04071 0
M  V30 14987 O 1979.51 8.09533 1.41463 0
M  V30 14988 C 1979.35 9.03587 2.5397 0
M  V30 14989 C 1979.89 8.35226 3.79016 0
M  V30 14990 O 1978.83 7.57904 4.1503 0
M  V30 14991 C 1981.11 7.45087 3.67298 0
M  V30 14992 O 1981.85 7.27796 4.85194 0
M  V30 14993 C 1980.44 6.17323 3.12027 0
M  V30 14994 O 1981.24 5.04496 3.46627 0
M  V30 14995 C 1979.1 6.19961 3.81809 0
M  V30 14996 N 1978.06 5.71575 2.93223 0
M  V30 14997 C 1978.23 5.77362 1.59168 0
M  V30 14998 N 1977.2 5.3123 0.911893 0
M  V30 14999 C 1976.32 4.91717 1.89588 0
M  V30 15000 C 1975.05 4.3114 1.8076 0
M  V30 15001 N 1974.45 3.99821 0.632928 0
M  V30 15002 N 1974.48 4.06823 3.02898 0
M  V30 15003 C 1975.09 4.35062 4.22711 0
M  V30 15004 N 1976.26 4.90805 4.35707 0
M  V30 15005 C 1976.84 5.16382 3.14469 0
M  V30 15006 H 1979.13 5.58142 4.72986 0
M  V30 15007 H 1980.32 6.21428 2.0318 0
M  V30 15008 H 1981.8 7.86112 2.9231 0
M  V30 15009 H 1980.11 9.11171 4.55987 0
M  V30 15010 H 1979.92 9.9573 2.34194 0
M  V30 15011 H 1978.29 9.2792 2.67832 0
M  V30 15012 H 1974.55 4.09052 5.13359 0
M  V30 15013 H 1979.13 6.16575 1.12198 0
M  V30 15014 H 1973.52 3.55423 0.632085 0
M  V30 15015 H 1974.92 4.20317 -0.256712 0
M  V30 15016 H 1980.93 4.67628 4.28704 0
M  V30 15017 P 1982.78 7.39546 4.75277 0
M  V30 15018 O 1984.2 7.81861 5.05793 0
M  V30 15019 O 1982.42 7.1065 3.32998 0
M  V30 15020 O 1982.46 6.04542 5.56673 0
M  V30 15021 C 1982.3 6.22839 7.02169 0
M  V30 15022 C 1982.84 4.97725 7.70406 0
M  V30 15023 O 1981.79 4.13208 7.58899 0
M  V30 15024 C 1984.06 4.28231 7.11815 0
M  V30 15025 O 1984.8 3.49945 8.01648 0
M  V30 15026 C 1983.39 3.5063 5.96244 0
M  V30 15027 O 1984.19 2.37008 5.64352 0
M  V30 15028 C 1982.05 3.15122 6.56374 0
M  V30 15029 N 1981.01 3.22311 5.55692 0
M  V30 15030 C 1981.18 3.99655 4.46046 0
M  V30 15031 N 1980.15 3.97599 3.63918 0
M  V30 15032 C 1979.27 3.11159 4.25334 0
M  V30 15033 C 1978 2.64972 3.85157 0
M  V30 15034 N 1977.4 3.02132 2.69405 0
M  V30 15035 N 1977.43 1.78482 4.74759 0
M  V30 15036 C 1978.04 1.37463 5.90819 0
M  V30 15037 N 1979.21 1.7733 6.31889 0
M  V30 15038 C 1979.79 2.64393 5.43725 0
M  V30 15039 H 1982.08 2.13823 6.99656 0
M  V30 15040 H 1983.27 4.12931 5.06895 0
M  V30 15041 H 1984.75 5.03285 6.70911 0
M  V30 15042 H 1983.06 5.20001 8.76217 0
M  V30 15043 H 1982.87 7.11046 7.35349 0
M  V30 15044 H 1981.24 6.35815 7.26986 0
M  V30 15045 H 1977.5 0.66574 6.53015 0
M  V30 15046 H 1982.08 4.58037 4.27732 0
M  V30 15047 H 1976.47 2.64828 2.45331 0
M  V30 15048 H 1977.87 3.67472 2.05644 0
M  V30 15049 H 1983.88 1.61619 6.13468 0
M  V30 15050 P 1985.73 3.65191 7.99657 0
M  V30 15051 O 1987.15 3.84292 8.48206 0
M  V30 15052 O 1985.37 4.17805 6.64342 0
M  V30 15053 O 1985.41 2.07613 7.95143 0
M  V30 15054 C 1985.25 1.44344 9.27435 0
M  V30 15055 C 1985.79 0.0220036 9.17197 0
M  V30 15056 O 1984.74 -0.626794 8.61824 0
M  V30 15057 C 1987.01 -0.24586 8.30336 0
M  V30 15058 O 1987.75 -1.39011 8.63583 0
M  V30 15059 C 1986.34 -0.273849 6.91158 0
M  V30 15060 O 1987.14 -1.05728 6.029 0
M  V30 15061 C 1985 -0.897649 7.22545 0
M  V30 15062 N 1983.96 -0.292839 6.41732 0
M  V30 15063 C 1984.13 0.950603 5.91308 0
M  V30 15064 N 1983.1 1.37732 5.21105 0
M  V30 15065 C 1982.22 0.318109 5.26039 0
M  V30 15066 C 1980.95 0.146766 4.6727 0
M  V30 15067 N 1980.38 -1.06525 4.95887 0
M  V30 15068 C 1980.99 -2.0378 5.71347 0
M  V30 15069 N 1982.16 -1.92445 6.27451 0
M  V30 15070 C 1982.74 -0.715382 6.00353 0
M  V30 15071 H 1986.22 0.733318 6.49674 0
M  V30 15072 H 1987.7 0.60668 8.36503 0
M  V30 15073 H 1986.01 -0.362662 10.1825 0
M  V30 15074 H 1985.82 2.00611 10.0304 0
M  V30 15075 H 1984.19 1.41843 9.55327 0
M  V30 15076 H 1985.03 1.54076 6.07465 0
M  V30 15077 H 1986.83 -1.95704 6.0346 0
M  V30 15078 P 1988.68 -1.25109 8.70152 0
M  V30 15079 O 1990.11 -1.35288 9.2132 0
M  V30 15080 O 1988.32 -0.0769065 7.84762 0
M  V30 15081 O 1988.36 -2.55232 7.81161 0
M  V30 15082 C 1988.2 -3.79979 8.58246 0
M  V30 15083 C 1988.74 -4.94023 7.72785 0
M  V30 15084 O 1987.69 -5.18666 6.91125 0
M  V30 15085 C 1989.96 -4.69597 6.85231 0
M  V30 15086 O 1990.7 -5.83832 6.51337 0
M  V30 15087 C 1989.29 -3.96706 5.66633 0
M  V30 15088 O 1990.09 -4.14896 4.5003 0
M  V30 15089 C 1987.95 -4.66153 5.59313 0
M  V30 15090 N 1986.91 -3.71582 5.24027 0
M  V30 15091 C 1987.08 -2.39715 5.48833 0
M  V30 15092 N 1986.05 -1.65863 5.12845 0
M  V30 15093 C 1985.17 -2.57637 4.5973 0
M  V30 15094 C 1983.9 -2.40278 4.01027 0
M  V30 15095 N 1983.34 -3.57711 3.59575 0
M  V30 15096 C 1983.94 -4.80324 3.70476 0
M  V30 15097 N 1985.11 -5.01121 4.23801 0
M  V30 15098 C 1985.69 -3.84757 4.66372 0
M  V30 15099 H 1989.17 -2.8955 5.86187 0
M  V30 15100 H 1990.65 -4.0121 7.36511 0
M  V30 15101 H 1988.96 -5.81019 8.37003 0
M  V30 15102 H 1988.77 -3.73517 9.52265 0
M  V30 15103 H 1987.14 -3.97163 8.80359 0
M  V30 15104 H 1987.98 -1.98804 5.94332 0
M  V30 15105 H 1989.78 -4.90891 4.01857 0
M  V30 15106 P 1991.63 -5.75688 6.64379 0
M  V30 15107 O 1993.06 -6.11849 7.01846 0
M  V30 15108 O 1991.27 -4.30744 6.56026 0
M  V30 15109 O 1991.31 -6.37042 5.19165 0
M  V30 15110 C 1991.15 -7.83578 5.16515 0
M  V30 15111 C 1991.69 -8.33398 3.83019 0
M  V30 15112 O 1990.64 -8.10074 3.01034 0
M  V30 15113 C 1992.91 -7.65514 3.2257 0
M  V30 15114 O 1993.65 -8.4329 2.32297 0
M  V30 15115 C 1992.24 -6.40075 2.62207 0
M  V30 15116 O 1993.04 -5.92589 1.53712 0
M  V30 15117 C 1990.9 -6.9454 2.18503 0
M  V30 15118 H 1990.94 -7.23063 1.12091 0
M  V30 15119 H 1992.12 -5.6025 3.37201 0
M  V30 15120 H 1993.6 -7.35707 4.02681 0
M  V30 15121 H 1991.91 -9.40912 3.9095 0
M  V30 15122 H 1991.72 -8.29056 5.99158 0
M  V30 15123 H 1990.09 -8.10073 5.25882 0
M  V30 15124 H 1992.73 -6.30324 0.726794 0
M  V30 15125 P 1994.59 -8.4349 2.47671 0
M  V30 15126 O 1996.01 -8.94167 2.5964 0
M  V30 15127 O 1994.23 -7.1704 3.19006 0
M  V30 15128 O 1994.26 -8.16596 0.923387 0
M  V30 15129 C 1994.1 -9.38437 0.108857 0
M  V30 15130 C 1994.64 -9.08175 -1.28353 0
M  V30 15131 O 1993.59 -8.44229 -1.84713 0
M  V30 15132 C 1995.86 -8.18386 -1.42505 0
M  V30 15133 O 1996.6 -8.3501 -2.60497 0
M  V30 15134 C 1995.19 -6.80225 -1.25468 0
M  V30 15135 O 1995.99 -5.81621 -1.91066 0
M  V30 15136 C 1993.85 -7.02416 -1.9168 0
M  V30 15137 H 1993.89 -6.6888 -2.96621 0
M  V30 15138 H 1995.07 -6.53617 -0.192223 0
M  V30 15139 H 1996.55 -8.36622 -0.589963 0
M  V30 15140 H 1994.86 -10.0291 -1.79807 0
M  V30 15141 H 1994.67 -10.2138 0.558219 0
M  V30 15142 H 1993.04 -9.6579 0.0444202 0
M  V30 15143 H 1995.68 -5.69556 -2.79637 0
M  V30 15144 P 1997.54 -8.4349 -2.47671 0
M  V30 15145 O 1998.96 -8.92593 -2.65 0
M  V30 15146 O 1997.18 -7.7568 -1.19296 0
M  V30 15147 O 1997.21 -7.36886 -3.63805 0
M  V30 15148 C 1997.05 -7.95349 -4.982 0
M  V30 15149 C 1997.59 -6.94612 -5.98974 0
M  V30 15150 O 1996.54 -6.10347 -6.11815 0
M  V30 15151 C 1998.81 -6.11426 -5.62335 0
M  V30 15152 O 1999.55 -5.6162 -6.70584 0
M  V30 15153 C 1998.14 -5.04409 -4.73308 0
M  V30 15154 O 1998.94 -3.85992 -4.75183 0
M  V30 15155 C 1996.8 -4.8728 -5.41006 0
M  V30 15156 H 1996.84 -4.02333 -6.11157 0
M  V30 15157 H 1998.02 -5.39466 -3.69543 0
M  V30 15158 H 1999.5 -6.71916 -5.01943 0
M  V30 15159 H 1997.81 -7.4649 -6.93477 0
M  V30 15160 H 1997.62 -8.89416 -5.05237 0
M  V30 15161 H 1995.99 -8.14876 -5.18409 0
M  V30 15162 H 1998.63 -3.27957 -5.4317 0
M  V30 15163 P 2000.49 -5.75688 -6.64379 0
M  V30 15164 O 2001.91 -6.07692 -7.0558 0
M  V30 15165 O 2000.13 -5.88047 -5.19722 0
M  V30 15166 O 2000.16 -4.2322 -7.04443 0
M  V30 15167 C 2000 -3.99785 -8.49201 0
M  V30 15168 C 2000.54 -2.60516 -8.79425 0
M  V30 15169 O 1999.49 -1.82663 -8.44573 0
M  V30 15170 C 2001.76 -2.10343 -8.03628 0
M  V30 15171 O 2002.5 -1.09919 -8.67766 0
M  V30 15172 C 2001.09 -1.68446 -6.70876 0
M  V30 15173 O 2001.89 -0.684109 -6.08265 0
M  V30 15174 C 1999.76 -1.17436 -7.18567 0
M  V30 15175 N 1998.71 -1.52699 -6.23988 0
M  V30 15176 C 1998.88 -2.578 -5.40574 0
M  V30 15177 N 1997.85 -2.78966 -4.61193 0
M  V30 15178 C 1996.97 -1.78725 -4.95769 0
M  V30 15179 C 1995.7 -1.45727 -4.44207 0
M  V30 15180 N 1995.14 -0.374977 -5.05812 0
M  V30 15181 C 1995.74 0.345585 -6.05615 0
M  V30 15182 N 1996.92 0.0787651 -6.56253 0
M  V30 15183 C 1997.49 -1.00499 -5.96189 0
M  V30 15184 H 2000.97 -2.53396 -6.02698 0
M  V30 15185 H 2002.45 -2.93881 -7.85526 0
M  V30 15186 H 2000.76 -2.52078 -9.87225 0
M  V30 15187 H 2000.57 -4.75072 -9.05887 0
M  V30 15188 H 1998.94 -4.05244 -8.76668 0
M  V30 15189 H 1999.78 -3.18977 -5.3945 0
M  V30 15190 H 2001.58 0.177619 -6.34151 0
M  V30 15191 P 2003.44 -1.25109 -8.70152 0
M  V30 15192 O 2004.86 -1.29744 -9.22016 0
M  V30 15193 O 2003.08 -2.13714 -7.55141 0
M  V30 15194 O 2003.11 0.248149 -8.21425 0
M  V30 15195 C 2002.95 1.22779 -9.30434 0
M  V30 15196 C 2003.49 2.56293 -8.80664 0
M  V30 15197 O 2002.44 3.02979 -8.09349 0
M  V30 15198 C 2004.71 2.57523 -7.89775 0
M  V30 15199 O 2005.45 3.7668 -7.89438 0
M  V30 15200 C 2004.04 2.20997 -6.55446 0
M  V30 15201 O 2004.84 2.71895 -5.48509 0
M  V30 15202 C 2002.71 2.89693 -6.67988 0
M  V30 15203 H 2002.74 3.88793 -6.19859 0
M  V30 15204 H 2003.92 1.12046 -6.44229 0
M  V30 15205 H 2005.41 1.7746 -8.19711 0
M  V30 15206 H 2003.71 3.20706 -9.67112 0
M  V30 15207 H 2003.52 0.901032 -10.1892 0
M  V30 15208 H 2001.89 1.33049 -9.56592 0
M  V30 15209 H 2004.53 3.57847 -5.23962 0
M  V30 15210 P 2006.39 3.65191 -7.99657 0
M  V30 15211 O 2007.81 3.89374 -8.45885 0
M  V30 15212 O 2006.03 2.28472 -7.50807 0
M  V30 15213 O 2006.06 4.64972 -6.77611 0
M  V30 15214 C 2005.9 6.06383 -7.16428 0
M  V30 15215 C 2006.44 6.91731 -6.02299 0
M  V30 15216 O 2005.39 6.92369 -5.17005 0
M  V30 15217 C 2007.66 6.43627 -5.25174 0
M  V30 15218 O 2008.4 7.43686 -4.60469 0
M  V30 15219 C 2006.99 5.40275 -4.31916 0
M  V30 15220 O 2007.79 5.24878 -3.14911 0
M  V30 15221 C 2005.66 6.04847 -4.05327 0
M  V30 15222 N 2004.61 5.04166 -3.98114 0
M  V30 15223 C 2004.78 3.84629 -4.59066 0
M  V30 15224 N 2003.76 3.0363 -4.45343 0
M  V30 15225 C 2002.87 3.76722 -3.68523 0
M  V30 15226 C 2001.6 3.43528 -3.17088 0
M  V30 15227 N 2001.04 4.44526 -2.44231 0
M  V30 15228 C 2001.64 5.65243 -2.20146 0
M  V30 15229 N 2002.82 6.00221 -2.65453 0
M  V30 15230 C 2003.39 5.00564 -3.39083 0
M  V30 15231 H 2006.87 4.42969 -4.80867 0
M  V30 15232 H 2008.35 5.92458 -5.93643 0
M  V30 15233 H 2006.66 7.93295 -6.39407 0
M  V30 15234 H 2006.47 6.26671 -8.0846 0
M  V30 15235 H 2004.84 6.29101 -7.32804 0
M  V30 15236 H 2005.68 3.58193 -5.14248 0
M  V30 15237 H 2007.48 5.84223 -2.47279 0
M  V30 15238 P 2009.34 7.39546 -4.75277 0
M  V30 15239 O 2010.76 7.84798 -5.01039 0
M  V30 15240 O 2008.98 5.9812 -5.08098 0
M  V30 15241 O 2009.02 7.57503 -3.1866 0
M  V30 15242 C 2008.86 8.97357 -2.74833 0
M  V30 15243 C 2009.4 9.07548 -1.32709 0
M  V30 15244 O 2008.34 8.62072 -0.606159 0
M  V30 15245 C 2010.61 8.25383 -0.938334 0
M  V30 15246 O 2011.35 8.74577 0.146954 0
M  V30 15247 C 2009.94 6.8802 -0.712559 0
M  V30 15248 O 2010.74 6.1189 0.194655 0
M  V30 15249 C 2008.61 7.27966 -0.139777 0
M  V30 15250 H 2008.64 7.25354 0.961601 0
M  V30 15251 H 2009.82 6.32557 -1.65702 0
M  V30 15252 H 2011.31 8.19355 -1.79097 0
M  V30 15253 H 2009.61 10.1294 -1.10029 0
M  V30 15254 H 2009.42 9.64276 -3.41316 0
M  V30 15255 H 2007.79 9.25417 -2.76357 0
M  V30 15256 H 2010.43 6.25267 1.07847 0
M  V30 15257 P 2012.29 8.791 1.72314e-11 0
M  V30 15258 O 2013.71 9.31096 0.027933 0
M  V30 15259 O 2011.93 7.77869 -1.04071 0
M  V30 15260 O 2011.97 8.09533 1.41463 0
M  V30 15261 C 2011.81 9.0349 2.53943 0
M  V30 15262 C 2012.35 8.35226 3.79016 0
M  V30 15263 O 2011.29 7.57992 4.15078 0
M  V30 15264 C 2013.56 7.45087 3.67298 0
M  V30 15265 O 2014.3 7.27796 4.85194 0
M  V30 15266 C 2012.89 6.17323 3.12027 0
M  V30 15267 O 2013.69 5.04231 3.47188 0
M  V30 15268 C 2011.56 6.19961 3.81809 0
M  V30 15269 H 2011.59 5.58218 4.73051 0
M  V30 15270 H 2012.77 6.21726 2.02589 0
M  V30 15271 H 2014.26 7.86112 2.9231 0
M  V30 15272 H 2012.56 9.11627 4.55076 0
M  V30 15273 H 2012.37 9.9573 2.34194 0
M  V30 15274 H 2010.74 9.2792 2.67832 0
M  V30 15275 H 2013.38 4.67702 4.28772 0
M  V30 15276 P 2015.24 7.39546 4.75277 0
M  V30 15277 O 2016.66 7.81777 5.05738 0
M  V30 15278 O 2014.88 7.1065 3.32998 0
M  V30 15279 O 2014.92 6.04542 5.56673 0
M  V30 15280 C 2014.76 6.22772 7.02095 0
M  V30 15281 C 2015.3 4.97725 7.70406 0
M  V30 15282 O 2014.24 4.13256 7.58987 0
M  V30 15283 C 2016.51 4.28231 7.11815 0
M  V30 15284 O 2017.25 3.49945 8.01648 0
M  V30 15285 C 2015.85 3.5063 5.96244 0
M  V30 15286 O 2016.64 2.36482 5.64681 0
M  V30 15287 C 2014.51 3.15122 6.56374 0
M  V30 15288 H 2014.54 2.13853 6.99751 0
M  V30 15289 H 2015.72 4.13501 5.06559 0
M  V30 15290 H 2017.21 5.03285 6.70911 0
M  V30 15291 H 2015.51 5.20877 8.75697 0
M  V30 15292 H 2015.32 7.11046 7.35349 0
M  V30 15293 H 2013.69 6.35815 7.26986 0
M  V30 15294 H 2016.33 1.61644 6.13565 0
M  V30 15295 P 2018.19 3.65191 7.99657 0
M  V30 15296 O 2019.61 3.8425 8.48115 0
M  V30 15297 O 2017.83 4.17805 6.64342 0
M  V30 15298 O 2017.87 2.07613 7.95143 0
M  V30 15299 C 2017.71 1.44328 9.27336 0
M  V30 15300 C 2018.25 0.0220036 9.17197 0
M  V30 15301 O 2017.19 -0.626867 8.61923 0
M  V30 15302 C 2019.46 -0.24586 8.30336 0
M  V30 15303 O 2020.2 -1.39011 8.63583 0
M  V30 15304 C 2018.8 -0.273849 6.91158 0
M  V30 15305 O 2019.59 -1.06348 6.02892 0
M  V30 15306 C 2017.46 -0.897649 7.22545 0
M  V30 15307 H 2017.49 -1.9841 7.04286 0
M  V30 15308 H 2018.67 0.739928 6.497 0
M  V30 15309 H 2020.16 0.60668 8.36503 0
M  V30 15310 H 2018.46 -0.352479 10.1829 0
M  V30 15311 H 2018.27 2.00611 10.0304 0
M  V30 15312 H 2016.64 1.41843 9.55327 0
M  V30 15313 H 2019.28 -1.95734 6.03555 0
M  V30 15314 P 2021.14 -1.25109 8.70152 0
M  V30 15315 O 2022.56 -1.35274 9.21221 0
M  V30 15316 O 2020.78 -0.0769065 7.84762 0
M  V30 15317 O 2020.82 -2.55232 7.81161 0
M  V30 15318 C 2020.66 -3.79939 8.58154 0
M  V30 15319 C 2021.2 -4.94023 7.72785 0
M  V30 15320 O 2020.14 -5.18726 6.91205 0
M  V30 15321 C 2022.42 -4.69597 6.85231 0
M  V30 15322 O 2023.15 -5.83832 6.51337 0
M  V30 15323 C 2021.75 -3.96706 5.66633 0
M  V30 15324 O 2022.55 -4.15414 4.49689 0
M  V30 15325 C 2020.41 -4.66153 5.59313 0
M  V30 15326 H 2020.44 -5.47679 4.85214 0
M  V30 15327 H 2021.62 -2.89008 5.86566 0
M  V30 15328 H 2023.11 -4.0121 7.36511 0
M  V30 15329 H 2021.41 -5.80182 8.37584 0
M  V30 15330 H 2021.22 -3.73517 9.52265 0
M  V30 15331 H 2019.59 -3.97163 8.80359 0
M  V30 15332 H 2022.23 -4.90969 4.01921 0
M  V30 15333 P 2024.09 -5.75688 6.64379 0
M  V30 15334 O 2025.51 -6.11849 7.01846 0
M  V30 15335 O 2023.73 -4.30744 6.56026 0
M  V30 15336 O 2023.77 -6.37042 5.19165 0
M  V30 15337 C 2023.61 -7.83578 5.16515 0
M  V30 15338 C 2024.15 -8.33398 3.83019 0
M  V30 15339 O 2023.09 -8.10074 3.01034 0
M  V30 15340 C 2025.37 -7.65514 3.2257 0
M  V30 15341 O 2026.1 -8.4329 2.32297 0
M  V30 15342 C 2024.7 -6.40075 2.62207 0
M  V30 15343 O 2025.5 -5.92589 1.53712 0
M  V30 15344 C 2023.36 -6.9454 2.18503 0
M  V30 15345 H 2023.39 -7.23063 1.12091 0
M  V30 15346 H 2024.58 -5.6025 3.37201 0
M  V30 15347 H 2026.06 -7.35707 4.02681 0
M  V30 15348 H 2024.37 -9.40912 3.9095 0
M  V30 15349 H 2024.18 -8.29056 5.99158 0
M  V30 15350 H 2022.55 -8.10073 5.25882 0
M  V30 15351 H 2025.18 -6.30324 0.726794 0
M  V30 15352 P 2027.04 -8.4349 2.47671 0
M  V30 15353 O 2028.46 -8.94167 2.5964 0
M  V30 15354 O 2026.68 -7.1704 3.19006 0
M  V30 15355 O 2026.72 -8.16596 0.923387 0
M  V30 15356 C 2026.56 -9.38437 0.108857 0
M  V30 15357 C 2027.1 -9.08175 -1.28353 0
M  V30 15358 O 2026.04 -8.44229 -1.84713 0
M  V30 15359 C 2028.32 -8.18386 -1.42505 0
M  V30 15360 O 2029.05 -8.3501 -2.60497 0
M  V30 15361 C 2027.65 -6.80225 -1.25468 0
M  V30 15362 O 2028.45 -5.81621 -1.91066 0
M  V30 15363 C 2026.31 -7.02416 -1.9168 0
M  V30 15364 H 2026.34 -6.6888 -2.96621 0
M  V30 15365 H 2027.53 -6.53617 -0.192223 0
M  V30 15366 H 2029.01 -8.36622 -0.589963 0
M  V30 15367 H 2027.32 -10.0291 -1.79807 0
M  V30 15368 H 2027.13 -10.2138 0.558219 0
M  V30 15369 H 2025.5 -9.6579 0.0444202 0
M  V30 15370 H 2028.13 -5.69556 -2.79637 0
M  V30 15371 P 2029.99 -8.4349 -2.47671 0
M  V30 15372 O 2031.41 -8.92593 -2.65 0
M  V30 15373 O 2029.63 -7.7568 -1.19296 0
M  V30 15374 O 2029.67 -7.36886 -3.63805 0
M  V30 15375 C 2029.51 -7.95349 -4.982 0
M  V30 15376 C 2030.05 -6.94612 -5.98974 0
M  V30 15377 O 2028.99 -6.10347 -6.11815 0
M  V30 15378 C 2031.27 -6.11426 -5.62335 0
M  V30 15379 O 2032.01 -5.6162 -6.70584 0
M  V30 15380 C 2030.6 -5.04409 -4.73308 0
M  V30 15381 O 2031.4 -3.85992 -4.75183 0
M  V30 15382 C 2029.26 -4.8728 -5.41006 0
M  V30 15383 H 2029.29 -4.02333 -6.11157 0
M  V30 15384 H 2030.48 -5.39466 -3.69543 0
M  V30 15385 H 2031.96 -6.71916 -5.01943 0
M  V30 15386 H 2030.27 -7.4649 -6.93477 0
M  V30 15387 H 2030.08 -8.89416 -5.05237 0
M  V30 15388 H 2028.45 -8.14876 -5.18409 0
M  V30 15389 H 2031.09 -3.27957 -5.4317 0
M  V30 15390 P 2032.94 -5.75688 -6.64379 0
M  V30 15391 O 2034.36 -6.07692 -7.0558 0
M  V30 15392 O 2032.58 -5.88047 -5.19722 0
M  V30 15393 O 2032.62 -4.2322 -7.04443 0
M  V30 15394 C 2032.46 -3.99785 -8.49201 0
M  V30 15395 C 2033 -2.60516 -8.79425 0
M  V30 15396 O 2031.94 -1.82663 -8.44573 0
M  V30 15397 C 2034.22 -2.10343 -8.03628 0
M  V30 15398 O 2034.96 -1.09919 -8.67766 0
M  V30 15399 C 2033.55 -1.68446 -6.70876 0
M  V30 15400 O 2034.35 -0.684109 -6.08265 0
M  V30 15401 C 2032.21 -1.17436 -7.18567 0
M  V30 15402 N 2031.17 -1.52699 -6.23988 0
M  V30 15403 C 2031.34 -2.578 -5.40574 0
M  V30 15404 N 2030.31 -2.78966 -4.61193 0
M  V30 15405 C 2029.43 -1.78725 -4.95769 0
M  V30 15406 C 2028.16 -1.45727 -4.44207 0
M  V30 15407 N 2027.56 -2.13994 -3.43613 0
M  V30 15408 N 2027.59 -0.374977 -5.05812 0
M  V30 15409 C 2028.2 0.345585 -6.05615 0
M  V30 15410 N 2029.37 0.0787651 -6.56253 0
M  V30 15411 C 2029.95 -1.00499 -5.96189 0
M  V30 15412 H 2032.24 -0.0804622 -7.31556 0
M  V30 15413 H 2033.43 -2.53396 -6.02698 0
M  V30 15414 H 2034.91 -2.93881 -7.85526 0
M  V30 15415 H 2033.22 -2.52078 -9.87225 0
M  V30 15416 H 2033.03 -4.75072 -9.05887 0
M  V30 15417 H 2031.4 -4.05244 -8.76668 0
M  V30 15418 H 2027.66 1.20098 -6.4532 0
M  V30 15419 H 2032.24 -3.18977 -5.3945 0
M  V30 15420 H 2026.63 -1.84983 -3.10004 0
M  V30 15421 H 2028.03 -2.9465 -3.00843 0
M  V30 15422 H 2034.04 0.177619 -6.34151 0
M  V30 15423 P 2035.89 -1.25109 -8.70152 0
M  V30 15424 O 2037.32 -1.29744 -9.22016 0
M  V30 15425 O 2035.53 -2.13714 -7.55141 0
M  V30 15426 O 2035.57 0.248149 -8.21425 0
M  V30 15427 C 2035.41 1.22779 -9.30434 0
M  V30 15428 C 2035.95 2.56293 -8.80664 0
M  V30 15429 O 2034.89 3.02979 -8.09349 0
M  V30 15430 C 2037.17 2.57523 -7.89775 0
M  V30 15431 O 2037.91 3.7668 -7.89438 0
M  V30 15432 C 2036.5 2.20997 -6.55446 0
M  V30 15433 O 2037.3 2.71895 -5.48509 0
M  V30 15434 C 2035.16 2.89693 -6.67988 0
M  V30 15435 H 2035.19 3.88793 -6.19859 0
M  V30 15436 H 2036.38 1.12046 -6.44229 0
M  V30 15437 H 2037.86 1.7746 -8.19711 0
M  V30 15438 H 2036.17 3.20706 -9.67112 0
M  V30 15439 H 2035.98 0.901032 -10.1892 0
M  V30 15440 H 2034.35 1.33049 -9.56592 0
M  V30 15441 H 2036.99 3.57847 -5.23962 0
M  V30 15442 P 2038.84 3.65191 -7.99657 0
M  V30 15443 O 2040.27 3.89332 -8.45794 0
M  V30 15444 O 2038.48 2.28472 -7.50807 0
M  V30 15445 O 2038.52 4.64972 -6.77611 0
M  V30 15446 C 2038.36 6.06319 -7.16352 0
M  V30 15447 C 2038.9 6.91731 -6.02299 0
M  V30 15448 O 2037.84 6.92449 -5.17064 0
M  V30 15449 C 2040.12 6.43627 -5.25174 0
M  V30 15450 O 2040.86 7.43686 -4.60469 0
M  V30 15451 C 2039.45 5.40275 -4.31916 0
M  V30 15452 O 2040.25 5.25279 -3.14438 0
M  V30 15453 C 2038.11 6.04847 -4.05327 0
M  V30 15454 H 2038.14 6.62195 -3.11261 0
M  V30 15455 H 2039.33 4.42556 -4.81383 0
M  V30 15456 H 2040.81 5.92458 -5.93643 0
M  V30 15457 H 2039.12 7.92655 -6.402 0
M  V30 15458 H 2038.93 6.26671 -8.0846 0
M  V30 15459 H 2037.3 6.29101 -7.32804 0
M  V30 15460 H 2039.94 5.84315 -2.47318 0
M  V30 15461 P 2041.79 7.39546 -4.75277 0
M  V30 15462 O 2043.22 7.84798 -5.01039 0
M  V30 15463 O 2041.43 5.9812 -5.08098 0
M  V30 15464 O 2041.47 7.57503 -3.1866 0
M  V30 15465 C 2041.31 8.97357 -2.74833 0
M  V30 15466 C 2041.85 9.07548 -1.32709 0
M  V30 15467 O 2040.8 8.62072 -0.606159 0
M  V30 15468 C 2043.07 8.25383 -0.938334 0
M  V30 15469 O 2043.81 8.74577 0.146954 0
M  V30 15470 C 2042.4 6.8802 -0.712559 0
M  V30 15471 O 2043.2 6.1189 0.194655 0
M  V30 15472 C 2041.06 7.27966 -0.139777 0
M  V30 15473 H 2041.1 7.25354 0.961601 0
M  V30 15474 H 2042.28 6.32557 -1.65702 0
M  V30 15475 H 2043.76 8.19355 -1.79097 0
M  V30 15476 H 2042.07 10.1294 -1.10029 0
M  V30 15477 H 2041.88 9.64276 -3.41316 0
M  V30 15478 H 2040.25 9.25417 -2.76357 0
M  V30 15479 H 2042.89 6.25267 1.07847 0
M  V30 15480 P 2044.75 8.791 1.75416e-11 0
M  V30 15481 O 2046.17 9.31096 0.027933 0
M  V30 15482 O 2044.39 7.77869 -1.04071 0
M  V30 15483 O 2044.42 8.09533 1.41463 0
M  V30 15484 C 2044.26 9.0349 2.53943 0
M  V30 15485 C 2044.8 8.35226 3.79016 0
M  V30 15486 O 2043.75 7.57992 4.15078 0
M  V30 15487 C 2046.02 7.45087 3.67298 0
M  V30 15488 O 2046.76 7.27796 4.85194 0
M  V30 15489 C 2045.35 6.17323 3.12027 0
M  V30 15490 O 2046.15 5.04231 3.47188 0
M  V30 15491 C 2044.01 6.19961 3.81809 0
M  V30 15492 H 2044.05 5.58218 4.73051 0
M  V30 15493 H 2045.23 6.21726 2.02589 0
M  V30 15494 H 2046.71 7.86112 2.9231 0
M  V30 15495 H 2045.02 9.11627 4.55076 0
M  V30 15496 H 2044.83 9.9573 2.34194 0
M  V30 15497 H 2043.2 9.2792 2.67832 0
M  V30 15498 H 2045.84 4.67702 4.28772 0
M  V30 15499 P 2047.7 7.39546 4.75277 0
M  V30 15500 O 2049.12 7.81777 5.05738 0
M  V30 15501 O 2047.34 7.1065 3.32998 0
M  V30 15502 O 2047.37 6.04542 5.56673 0
M  V30 15503 C 2047.21 6.22772 7.02095 0
M  V30 15504 C 2047.75 4.97725 7.70406 0
M  V30 15505 O 2046.7 4.13256 7.58987 0
M  V30 15506 C 2048.97 4.28231 7.11815 0
M  V30 15507 O 2049.71 3.49945 8.01648 0
M  V30 15508 C 2048.3 3.5063 5.96244 0
M  V30 15509 O 2049.1 2.36482 5.64681 0
M  V30 15510 C 2046.96 3.15122 6.56374 0
M  V30 15511 H 2047 2.13853 6.99751 0
M  V30 15512 H 2048.18 4.13501 5.06559 0
M  V30 15513 H 2049.66 5.03285 6.70911 0
M  V30 15514 H 2047.97 5.20877 8.75697 0
M  V30 15515 H 2047.78 7.11046 7.35349 0
M  V30 15516 H 2046.15 6.35815 7.26986 0
M  V30 15517 H 2048.79 1.61644 6.13565 0
M  V30 15518 P 2050.65 3.65191 7.99657 0
M  V30 15519 O 2052.07 3.8425 8.48115 0
M  V30 15520 O 2050.29 4.17805 6.64342 0
M  V30 15521 O 2050.32 2.07613 7.95143 0
M  V30 15522 C 2050.16 1.44328 9.27336 0
M  V30 15523 C 2050.7 0.0220036 9.17197 0
M  V30 15524 O 2049.65 -0.626867 8.61923 0
M  V30 15525 C 2051.92 -0.24586 8.30336 0
M  V30 15526 O 2052.66 -1.39011 8.63583 0
M  V30 15527 C 2051.25 -0.273849 6.91158 0
M  V30 15528 O 2052.05 -1.06348 6.02892 0
M  V30 15529 C 2049.92 -0.897649 7.22545 0
M  V30 15530 H 2049.95 -1.9841 7.04286 0
M  V30 15531 H 2051.13 0.739928 6.497 0
M  V30 15532 H 2052.61 0.60668 8.36503 0
M  V30 15533 H 2050.92 -0.352479 10.1829 0
M  V30 15534 H 2050.73 2.00611 10.0304 0
M  V30 15535 H 2049.1 1.41843 9.55327 0
M  V30 15536 H 2051.74 -1.95734 6.03555 0
M  V30 15537 P 2053.6 -1.25109 8.70152 0
M  V30 15538 O 2055.02 -1.35303 9.21419 0
M  V30 15539 O 2053.24 -0.0769065 7.84762 0
M  V30 15540 O 2053.27 -2.55232 7.81161 0
M  V30 15541 C 2053.11 -3.79939 8.58154 0
M  V30 15542 C 2053.65 -4.93969 7.72701 0
M  V30 15543 O 2052.6 -5.18726 6.91205 0
M  V30 15544 C 2054.87 -4.69597 6.85231 0
M  V30 15545 O 2055.61 -5.83832 6.51337 0
M  V30 15546 C 2054.2 -3.96706 5.66633 0
M  V30 15547 O 2055 -4.15346 4.49615 0
M  V30 15548 C 2052.87 -4.66153 5.59313 0
M  V30 15549 N 2051.82 -3.71582 5.24027 0
M  V30 15550 C 2051.88 -2.46018 5.67902 0
M  V30 15551 N 2050.84 -1.74868 5.24518 0
M  V30 15552 C 2050.11 -2.61333 4.54528 0
M  V30 15553 C 2048.8 -2.46162 3.95441 0
M  V30 15554 O 2048.07 -1.46013 3.94122 0
M  V30 15555 N 2048.37 -3.59334 3.34752 0
M  V30 15556 C 2049.12 -4.79605 3.3023 0
M  V30 15557 N 2048.52 -5.82109 2.6065 0
M  V30 15558 N 2050.27 -4.97402 3.8843 0
M  V30 15559 C 2050.73 -3.86258 4.50476 0
M  V30 15560 H 2052.9 -5.47679 4.85214 0
M  V30 15561 H 2054.08 -2.88964 5.86476 0
M  V30 15562 H 2055.57 -4.01947 7.36109 0
M  V30 15563 H 2053.87 -5.80182 8.37584 0
M  V30 15564 H 2053.68 -3.73517 9.52265 0
M  V30 15565 H 2052.05 -3.97163 8.80359 0
M  V30 15566 H 2047.47 -3.5825 2.90294 0
M  V30 15567 H 2052.68 -2.06161 6.30974 0
M  V30 15568 H 2047.61 -5.66979 2.15354 0
M  V30 15569 H 2048.99 -6.73686 2.54344 0
M  V30 15570 H 2054.69 -4.90891 4.01857 0
M  V30 15571 P 2056.55 -5.75688 6.64379 0
M  V30 15572 O 2057.97 -6.11849 7.01846 0
M  V30 15573 O 2056.19 -4.30744 6.56026 0
M  V30 15574 O 2056.22 -6.37042 5.19165 0
M  V30 15575 C 2056.06 -7.83578 5.16515 0
M  V30 15576 C 2056.6 -8.33398 3.83019 0
M  V30 15577 O 2055.55 -8.10074 3.01034 0
M  V30 15578 C 2057.82 -7.65514 3.2257 0
M  V30 15579 O 2058.56 -8.4329 2.32297 0
M  V30 15580 C 2057.15 -6.40075 2.62207 0
M  V30 15581 O 2057.95 -5.92589 1.53712 0
M  V30 15582 C 2055.82 -6.9454 2.18503 0
M  V30 15583 H 2055.85 -7.23063 1.12091 0
M  V30 15584 H 2057.03 -5.6025 3.37201 0
M  V30 15585 H 2058.52 -7.35707 4.02681 0
M  V30 15586 H 2056.82 -9.40912 3.9095 0
M  V30 15587 H 2056.63 -8.29056 5.99158 0
M  V30 15588 H 2055 -8.10073 5.25882 0
M  V30 15589 H 2057.64 -6.30324 0.726794 0
M  V30 15590 P 2059.5 -8.4349 2.47671 0
M  V30 15591 O 2060.92 -8.94167 2.5964 0
M  V30 15592 O 2059.14 -7.1704 3.19006 0
M  V30 15593 O 2059.17 -8.16596 0.923387 0
M  V30 15594 C 2059.01 -9.38437 0.108857 0
M  V30 15595 C 2059.55 -9.08175 -1.28353 0
M  V30 15596 O 2058.5 -8.44229 -1.84713 0
M  V30 15597 C 2060.77 -8.18386 -1.42505 0
M  V30 15598 O 2061.51 -8.3501 -2.60497 0
M  V30 15599 C 2060.1 -6.80225 -1.25468 0
M  V30 15600 O 2060.9 -5.81621 -1.91066 0
M  V30 15601 C 2058.77 -7.02416 -1.9168 0
M  V30 15602 H 2058.8 -6.6888 -2.96621 0
M  V30 15603 H 2059.98 -6.53617 -0.192223 0
M  V30 15604 H 2061.47 -8.36622 -0.589963 0
M  V30 15605 H 2059.77 -10.0291 -1.79807 0
M  V30 15606 H 2059.58 -10.2138 0.558219 0
M  V30 15607 H 2057.95 -9.6579 0.0444202 0
M  V30 15608 H 2060.59 -5.69556 -2.79637 0
M  V30 15609 P 2062.45 -8.4349 -2.47671 0
M  V30 15610 O 2063.87 -8.92593 -2.65 0
M  V30 15611 O 2062.09 -7.7568 -1.19296 0
M  V30 15612 O 2062.13 -7.36886 -3.63805 0
M  V30 15613 C 2061.97 -7.95349 -4.982 0
M  V30 15614 C 2062.51 -6.94612 -5.98974 0
M  V30 15615 O 2061.45 -6.10347 -6.11815 0
M  V30 15616 C 2063.72 -6.11426 -5.62335 0
M  V30 15617 O 2064.46 -5.6162 -6.70584 0
M  V30 15618 C 2063.05 -5.04409 -4.73308 0
M  V30 15619 O 2063.85 -3.85992 -4.75183 0
M  V30 15620 C 2061.72 -4.8728 -5.41006 0
M  V30 15621 H 2061.75 -4.02333 -6.11157 0
M  V30 15622 H 2062.93 -5.39466 -3.69543 0
M  V30 15623 H 2064.42 -6.71916 -5.01943 0
M  V30 15624 H 2062.72 -7.4649 -6.93477 0
M  V30 15625 H 2062.53 -8.89416 -5.05237 0
M  V30 15626 H 2060.9 -8.14876 -5.18409 0
M  V30 15627 H 2063.54 -3.27957 -5.4317 0
M  V30 15628 P 2065.4 -5.75688 -6.64379 0
M  V30 15629 O 2066.82 -6.07627 -7.05504 0
M  V30 15630 O 2065.04 -5.88047 -5.19722 0
M  V30 15631 O 2065.08 -4.2322 -7.04443 0
M  V30 15632 C 2064.92 -3.99743 -8.4911 0
M  V30 15633 C 2065.46 -2.60516 -8.79425 0
M  V30 15634 O 2064.4 -1.82684 -8.4467 0
M  V30 15635 C 2066.67 -2.10343 -8.03628 0
M  V30 15636 O 2067.41 -1.09919 -8.67766 0
M  V30 15637 C 2066 -1.68446 -6.70876 0
M  V30 15638 O 2066.8 -0.678137 -6.08433 0
M  V30 15639 C 2064.67 -1.17436 -7.18567 0
M  V30 15640 H 2064.7 -0.0804732 -7.31656 0
M  V30 15641 H 2065.88 -2.54037 -6.02537 0
M  V30 15642 H 2067.37 -2.93881 -7.85526 0
M  V30 15643 H 2065.67 -2.53065 -9.86973 0
M  V30 15644 H 2065.48 -4.75072 -9.05887 0
M  V30 15645 H 2063.85 -4.05244 -8.76668 0
M  V30 15646 H 2066.49 0.177647 -6.34251 0
M  V30 15647 P 2068.35 -1.25109 -8.70152 0
M  V30 15648 O 2069.77 -1.29744 -9.22016 0
M  V30 15649 O 2067.99 -2.13714 -7.55141 0
M  V30 15650 O 2068.03 0.248149 -8.21425 0
M  V30 15651 C 2067.87 1.22779 -9.30434 0
M  V30 15652 C 2068.41 2.56293 -8.80664 0
M  V30 15653 O 2067.35 3.02979 -8.09349 0
M  V30 15654 C 2069.62 2.57523 -7.89775 0
M  V30 15655 O 2070.36 3.7668 -7.89438 0
M  V30 15656 C 2068.96 2.20997 -6.55446 0
M  V30 15657 O 2069.75 2.71895 -5.48509 0
M  V30 15658 C 2067.62 2.89693 -6.67988 0
M  V30 15659 H 2067.65 3.88793 -6.19859 0
M  V30 15660 H 2068.83 1.12046 -6.44229 0
M  V30 15661 H 2070.32 1.7746 -8.19711 0
M  V30 15662 H 2068.62 3.20706 -9.67112 0
M  V30 15663 H 2068.43 0.901032 -10.1892 0
M  V30 15664 H 2066.8 1.33049 -9.56592 0
M  V30 15665 H 2069.44 3.57847 -5.23962 0
M  V30 15666 P 2071.3 3.65191 -7.99657 0
M  V30 15667 O 2072.72 3.89332 -8.45794 0
M  V30 15668 O 2070.94 2.28472 -7.50807 0
M  V30 15669 O 2070.98 4.64972 -6.77611 0
M  V30 15670 C 2070.82 6.06319 -7.16352 0
M  V30 15671 C 2071.36 6.91731 -6.02299 0
M  V30 15672 O 2070.3 6.92449 -5.17064 0
M  V30 15673 C 2072.58 6.43627 -5.25174 0
M  V30 15674 O 2073.31 7.43686 -4.60469 0
M  V30 15675 C 2071.91 5.40275 -4.31916 0
M  V30 15676 O 2072.71 5.25279 -3.14438 0
M  V30 15677 C 2070.57 6.04847 -4.05327 0
M  V30 15678 H 2070.6 6.62195 -3.11261 0
M  V30 15679 H 2071.78 4.42556 -4.81383 0
M  V30 15680 H 2073.27 5.92458 -5.93643 0
M  V30 15681 H 2071.57 7.92655 -6.402 0
M  V30 15682 H 2071.38 6.26671 -8.0846 0
M  V30 15683 H 2069.75 6.29101 -7.32804 0
M  V30 15684 H 2072.39 5.84315 -2.47318 0
M  V30 15685 P 2074.25 7.39546 -4.75277 0
M  V30 15686 O 2075.67 7.84882 -5.01092 0
M  V30 15687 O 2073.89 5.9812 -5.08098 0
M  V30 15688 O 2073.93 7.57503 -3.1866 0
M  V30 15689 C 2073.77 8.97452 -2.74862 0
M  V30 15690 C 2074.31 9.07548 -1.32709 0
M  V30 15691 O 2073.25 8.61972 -0.606089 0
M  V30 15692 C 2075.53 8.25383 -0.938334 0
M  V30 15693 O 2076.26 8.74577 0.146954 0
M  V30 15694 C 2074.86 6.8802 -0.712559 0
M  V30 15695 O 2075.66 6.1181 0.188505 0
M  V30 15696 C 2073.52 7.27966 -0.139777 0
M  V30 15697 N 2072.48 6.39368 -0.623421 0
M  V30 15698 C 2072.65 5.71761 -1.78245 0
M  V30 15699 N 2071.62 4.962 -2.10491 0
M  V30 15700 C 2070.73 5.16158 -1.0635 0
M  V30 15701 C 2069.47 4.60425 -0.810266 0
M  V30 15702 N 2068.9 5.06 0.348685 0
M  V30 15703 C 2069.5 5.94532 1.20395 0
M  V30 15704 N 2070.68 6.48452 1.01191 0
M  V30 15705 C 2071.26 6.04423 -0.146291 0
M  V30 15706 H 2074.73 6.32625 -1.65044 0
M  V30 15707 H 2076.22 8.19355 -1.79097 0
M  V30 15708 H 2074.52 10.1305 -1.09016 0
M  V30 15709 H 2074.33 9.64276 -3.41316 0
M  V30 15710 H 2072.7 9.25417 -2.76357 0
M  V30 15711 H 2073.55 5.79354 -2.38959 0
M  V30 15712 H 2075.34 6.25169 1.0783 0
M  V30 15713 P 2077.2 8.791 1.78518e-11 0
M  V30 15714 O 2078.62 9.31196 0.027936 0
M  V30 15715 O 2076.84 7.77869 -1.04071 0
M  V30 15716 O 2076.88 8.09533 1.41463 0
M  V30 15717 C 2076.72 9.03587 2.5397 0
M  V30 15718 C 2077.26 8.35226 3.79016 0
M  V30 15719 O 2076.2 7.57904 4.1503 0
M  V30 15720 C 2078.48 7.45087 3.67298 0
M  V30 15721 O 2079.21 7.27796 4.85194 0
M  V30 15722 C 2077.81 6.17323 3.12027 0
M  V30 15723 O 2078.61 5.04496 3.46627 0
M  V30 15724 C 2076.47 6.19961 3.81809 0
M  V30 15725 N 2075.43 5.71575 2.93223 0
M  V30 15726 C 2075.6 5.77362 1.59168 0
M  V30 15727 N 2074.57 5.3123 0.911893 0
M  V30 15728 C 2073.68 4.91717 1.89588 0
M  V30 15729 C 2072.42 4.3114 1.8076 0
M  V30 15730 N 2071.82 3.99821 0.632928 0
M  V30 15731 N 2071.85 4.06823 3.02898 0
M  V30 15732 C 2072.45 4.35062 4.22711 0
M  V30 15733 N 2073.63 4.90805 4.35707 0
M  V30 15734 C 2074.21 5.16382 3.14469 0
M  V30 15735 H 2076.5 5.58142 4.72986 0
M  V30 15736 H 2077.69 6.21428 2.0318 0
M  V30 15737 H 2079.17 7.86112 2.9231 0
M  V30 15738 H 2077.47 9.11171 4.55987 0
M  V30 15739 H 2077.28 9.9573 2.34194 0
M  V30 15740 H 2075.65 9.2792 2.67832 0
M  V30 15741 H 2071.92 4.09052 5.13359 0
M  V30 15742 H 2076.5 6.16575 1.12198 0
M  V30 15743 H 2070.89 3.55423 0.632085 0
M  V30 15744 H 2072.29 4.20317 -0.256712 0
M  V30 15745 H 2078.29 4.67628 4.28704 0
M  V30 15746 P 2080.15 7.39546 4.75277 0
M  V30 15747 O 2081.57 7.81777 5.05738 0
M  V30 15748 O 2079.79 7.1065 3.32998 0
M  V30 15749 O 2079.83 6.04542 5.56673 0
M  V30 15750 C 2079.67 6.22772 7.02095 0
M  V30 15751 C 2080.21 4.97725 7.70406 0
M  V30 15752 O 2079.15 4.13256 7.58987 0
M  V30 15753 C 2081.43 4.28231 7.11815 0
M  V30 15754 O 2082.16 3.49945 8.01648 0
M  V30 15755 C 2080.76 3.5063 5.96244 0
M  V30 15756 O 2081.56 2.36482 5.64681 0
M  V30 15757 C 2079.42 3.15122 6.56374 0
M  V30 15758 H 2079.45 2.13853 6.99751 0
M  V30 15759 H 2080.64 4.13501 5.06559 0
M  V30 15760 H 2082.12 5.03285 6.70911 0
M  V30 15761 H 2080.43 5.20877 8.75697 0
M  V30 15762 H 2080.24 7.11046 7.35349 0
M  V30 15763 H 2078.61 6.35815 7.26986 0
M  V30 15764 H 2081.24 1.61644 6.13565 0
M  V30 15765 P 2083.1 3.65191 7.99657 0
M  V30 15766 O 2084.52 3.8425 8.48115 0
M  V30 15767 O 2082.74 4.17805 6.64342 0
M  V30 15768 O 2082.78 2.07613 7.95143 0
M  V30 15769 C 2082.62 1.44328 9.27336 0
M  V30 15770 C 2083.16 0.0220036 9.17197 0
M  V30 15771 O 2082.1 -0.626867 8.61923 0
M  V30 15772 C 2084.38 -0.24586 8.30336 0
M  V30 15773 O 2085.12 -1.39011 8.63583 0
M  V30 15774 C 2083.71 -0.273849 6.91158 0
M  V30 15775 O 2084.51 -1.06348 6.02892 0
M  V30 15776 C 2082.37 -0.897649 7.22545 0
M  V30 15777 H 2082.4 -1.9841 7.04286 0
M  V30 15778 H 2083.59 0.739928 6.497 0
M  V30 15779 H 2085.07 0.60668 8.36503 0
M  V30 15780 H 2083.38 -0.352479 10.1829 0
M  V30 15781 H 2083.19 2.00611 10.0304 0
M  V30 15782 H 2081.56 1.41843 9.55327 0
M  V30 15783 H 2084.2 -1.95734 6.03555 0
M  V30 15784 P 2086.05 -1.25109 8.70152 0
M  V30 15785 O 2087.47 -1.35274 9.21221 0
M  V30 15786 O 2085.69 -0.0769065 7.84762 0
M  V30 15787 O 2085.73 -2.55232 7.81161 0
M  V30 15788 C 2085.57 -3.79939 8.58154 0
M  V30 15789 C 2086.11 -4.94023 7.72785 0
M  V30 15790 O 2085.05 -5.18726 6.91205 0
M  V30 15791 C 2087.33 -4.69597 6.85231 0
M  V30 15792 O 2088.07 -5.83832 6.51337 0
M  V30 15793 C 2086.66 -3.96706 5.66633 0
M  V30 15794 O 2087.46 -4.15414 4.49689 0
M  V30 15795 C 2085.32 -4.66153 5.59313 0
M  V30 15796 H 2085.35 -5.47679 4.85214 0
M  V30 15797 H 2086.54 -2.89008 5.86566 0
M  V30 15798 H 2088.02 -4.0121 7.36511 0
M  V30 15799 H 2086.33 -5.80182 8.37584 0
M  V30 15800 H 2086.14 -3.73517 9.52265 0
M  V30 15801 H 2084.51 -3.97163 8.80359 0
M  V30 15802 H 2087.15 -4.90969 4.01921 0
M  V30 15803 P 2089 -5.75688 6.64379 0
M  V30 15804 O 2090.43 -6.11849 7.01846 0
M  V30 15805 O 2088.64 -4.30744 6.56026 0
M  V30 15806 O 2088.68 -6.37042 5.19165 0
M  V30 15807 C 2088.52 -7.83578 5.16515 0
M  V30 15808 C 2089.06 -8.33398 3.83019 0
M  V30 15809 O 2088 -8.10074 3.01034 0
M  V30 15810 C 2090.28 -7.65514 3.2257 0
M  V30 15811 O 2091.02 -8.4329 2.32297 0
M  V30 15812 C 2089.61 -6.40075 2.62207 0
M  V30 15813 O 2090.41 -5.92589 1.53712 0
M  V30 15814 C 2088.27 -6.9454 2.18503 0
M  V30 15815 H 2088.3 -7.23063 1.12091 0
M  V30 15816 H 2089.49 -5.6025 3.37201 0
M  V30 15817 H 2090.97 -7.35707 4.02681 0
M  V30 15818 H 2089.28 -9.40912 3.9095 0
M  V30 15819 H 2089.09 -8.29056 5.99158 0
M  V30 15820 H 2087.46 -8.10073 5.25882 0
M  V30 15821 H 2090.1 -6.30324 0.726794 0
M  V30 15822 P 2091.95 -8.4349 2.47671 0
M  V30 15823 O 2093.38 -8.94263 2.59668 0
M  V30 15824 O 2091.59 -7.1704 3.19006 0
M  V30 15825 O 2091.63 -8.16596 0.923387 0
M  V30 15826 C 2091.47 -9.38537 0.108869 0
M  V30 15827 C 2092.01 -9.08175 -1.28353 0
M  V30 15828 O 2090.96 -8.44131 -1.84692 0
M  V30 15829 C 2093.23 -8.18386 -1.42505 0
M  V30 15830 O 2093.97 -8.3501 -2.60497 0
M  V30 15831 C 2092.56 -6.80225 -1.25468 0
M  V30 15832 O 2093.36 -5.81716 -1.90454 0
M  V30 15833 C 2091.22 -7.02416 -1.9168 0
M  V30 15834 N 2090.18 -6.31033 -1.20314 0
M  V30 15835 C 2090.35 -5.98817 0.0994088 0
M  V30 15836 N 2089.32 -5.35403 0.621694 0
M  V30 15837 C 2088.44 -5.25212 -0.43376 0
M  V30 15838 C 2087.17 -4.64602 -0.519722 0
M  V30 15839 N 2086.61 -4.7568 -1.76013 0
M  V30 15840 C 2087.21 -5.3653 -2.83017 0
M  V30 15841 N 2088.38 -5.93676 -2.79782 0
M  V30 15842 C 2088.96 -5.84061 -1.56249 0
M  V30 15843 H 2092.44 -6.53498 -0.198729 0
M  V30 15844 H 2093.92 -8.36622 -0.589963 0
M  V30 15845 H 2092.23 -10.0273 -1.8081 0
M  V30 15846 H 2092.04 -10.2138 0.558219 0
M  V30 15847 H 2090.41 -9.6579 0.0444202 0
M  V30 15848 H 2091.25 -6.23209 0.660562 0
M  V30 15849 H 2093.05 -5.69466 -2.79593 0
M  V30 15850 P 2094.9 -8.4349 -2.47671 0
M  V30 15851 O 2096.33 -8.92593 -2.65 0
M  V30 15852 O 2094.54 -7.7568 -1.19296 0
M  V30 15853 O 2094.58 -7.36886 -3.63805 0
M  V30 15854 C 2094.42 -7.95349 -4.982 0
M  V30 15855 C 2094.96 -6.94612 -5.98974 0
M  V30 15856 O 2093.91 -6.10347 -6.11815 0
M  V30 15857 C 2096.18 -6.11426 -5.62335 0
M  V30 15858 O 2096.92 -5.6162 -6.70584 0
M  V30 15859 C 2095.51 -5.04409 -4.73308 0
M  V30 15860 O 2096.31 -3.85992 -4.75183 0
M  V30 15861 C 2094.17 -4.8728 -5.41006 0
M  V30 15862 H 2094.21 -4.02333 -6.11157 0
M  V30 15863 H 2095.39 -5.39466 -3.69543 0
M  V30 15864 H 2096.87 -6.71916 -5.01943 0
M  V30 15865 H 2095.18 -7.4649 -6.93477 0
M  V30 15866 H 2094.99 -8.89416 -5.05237 0
M  V30 15867 H 2093.36 -8.14876 -5.18409 0
M  V30 15868 H 2096 -3.27957 -5.4317 0
M  V30 15869 P 2097.86 -5.75688 -6.64379 0
M  V30 15870 O 2099.28 -6.07758 -7.05656 0
M  V30 15871 O 2097.5 -5.88047 -5.19722 0
M  V30 15872 O 2097.53 -4.2322 -7.04443 0
M  V30 15873 C 2097.37 -3.99743 -8.4911 0
M  V30 15874 C 2097.91 -2.60487 -8.79329 0
M  V30 15875 O 2096.86 -1.82684 -8.4467 0
M  V30 15876 C 2099.13 -2.10343 -8.03628 0
M  V30 15877 O 2099.87 -1.09919 -8.67766 0
M  V30 15878 C 2098.46 -1.68446 -6.70876 0
M  V30 15879 O 2099.26 -0.678026 -6.08333 0
M  V30 15880 C 2097.12 -1.17436 -7.18567 0
M  V30 15881 N 2096.08 -1.52699 -6.23988 0
M  V30 15882 C 2096.14 -2.68084 -5.57824 0
M  V30 15883 N 2095.1 -2.8189 -4.75643 0
M  V30 15884 C 2094.36 -1.72373 -4.95155 0
M  V30 15885 C 2093.06 -1.37653 -4.44996 0
M  V30 15886 O 2092.33 -2.02239 -3.68445 0
M  V30 15887 N 2092.63 -0.17675 -4.90782 0
M  V30 15888 C 2093.38 0.645036 -5.78716 0
M  V30 15889 N 2092.78 1.84214 -6.10618 0
M  V30 15890 N 2094.53 0.321732 -6.30279 0
M  V30 15891 C 2094.99 -0.87502 -5.86913 0
M  V30 15892 H 2097.16 -0.0804732 -7.31656 0
M  V30 15893 H 2098.34 -2.53998 -6.02444 0
M  V30 15894 H 2099.82 -2.93095 -7.8582 0
M  V30 15895 H 2098.13 -2.53065 -9.86973 0
M  V30 15896 H 2097.94 -4.75072 -9.05887 0
M  V30 15897 H 2096.31 -4.05244 -8.76668 0
M  V30 15898 H 2091.73 0.152143 -4.60849 0
M  V30 15899 H 2096.94 -3.41852 -5.69006 0
M  V30 15900 H 2091.87 2.08538 -5.69521 0
M  V30 15901 H 2093.25 2.4895 -6.75698 0
M  V30 15902 H 2098.95 0.177619 -6.34151 0
M  V30 15903 P 2100.81 -1.25109 -8.70152 0
M  V30 15904 O 2102.23 -1.29744 -9.22016 0
M  V30 15905 O 2100.45 -2.13714 -7.55141 0
M  V30 15906 O 2100.48 0.248149 -8.21425 0
M  V30 15907 C 2100.32 1.22779 -9.30434 0
M  V30 15908 C 2100.86 2.56293 -8.80664 0
M  V30 15909 O 2099.81 3.02979 -8.09349 0
M  V30 15910 C 2102.08 2.57523 -7.89775 0
M  V30 15911 O 2102.82 3.7668 -7.89438 0
M  V30 15912 C 2101.41 2.20997 -6.55446 0
M  V30 15913 O 2102.21 2.71895 -5.48509 0
M  V30 15914 C 2100.07 2.89693 -6.67988 0
M  V30 15915 H 2100.11 3.88793 -6.19859 0
M  V30 15916 H 2101.29 1.12046 -6.44229 0
M  V30 15917 H 2102.77 1.7746 -8.19711 0
M  V30 15918 H 2101.08 3.20706 -9.67112 0
M  V30 15919 H 2100.89 0.901032 -10.1892 0
M  V30 15920 H 2099.26 1.33049 -9.56592 0
M  V30 15921 H 2101.9 3.57847 -5.23962 0
M  V30 15922 P 2103.76 3.65191 -7.99657 0
M  V30 15923 O 2105.18 3.89332 -8.45794 0
M  V30 15924 O 2103.4 2.28472 -7.50807 0
M  V30 15925 O 2103.43 4.64972 -6.77611 0
M  V30 15926 C 2103.27 6.06319 -7.16352 0
M  V30 15927 C 2103.81 6.91731 -6.02299 0
M  V30 15928 O 2102.76 6.92449 -5.17064 0
M  V30 15929 C 2105.03 6.43627 -5.25174 0
M  V30 15930 O 2105.77 7.43686 -4.60469 0
M  V30 15931 C 2104.36 5.40275 -4.31916 0
M  V30 15932 O 2105.16 5.25279 -3.14438 0
M  V30 15933 C 2103.03 6.04847 -4.05327 0
M  V30 15934 H 2103.06 6.62195 -3.11261 0
M  V30 15935 H 2104.24 4.42556 -4.81383 0
M  V30 15936 H 2105.72 5.92458 -5.93643 0
M  V30 15937 H 2104.03 7.92655 -6.402 0
M  V30 15938 H 2103.84 6.26671 -8.0846 0
M  V30 15939 H 2102.21 6.29101 -7.32804 0
M  V30 15940 H 2104.85 5.84315 -2.47318 0
M  V30 15941 P 2106.71 7.39546 -4.75277 0
M  V30 15942 O 2108.13 7.84882 -5.01092 0
M  V30 15943 O 2106.35 5.9812 -5.08098 0
M  V30 15944 O 2106.38 7.57503 -3.1866 0
M  V30 15945 C 2106.22 8.97452 -2.74862 0
M  V30 15946 C 2106.76 9.07548 -1.32709 0
M  V30 15947 O 2105.71 8.61972 -0.606089 0
M  V30 15948 C 2107.98 8.25383 -0.938334 0
M  V30 15949 O 2108.72 8.74577 0.146954 0
M  V30 15950 C 2107.31 6.8802 -0.712559 0
M  V30 15951 O 2108.11 6.1181 0.188505 0
M  V30 15952 C 2105.98 7.27966 -0.139777 0
M  V30 15953 N 2104.93 6.39368 -0.623421 0
M  V30 15954 C 2105.1 5.71761 -1.78245 0
M  V30 15955 N 2104.07 4.962 -2.10491 0
M  V30 15956 C 2103.19 5.16158 -1.0635 0
M  V30 15957 C 2101.92 4.60425 -0.810266 0
M  V30 15958 N 2101.32 3.7057 -1.62914 0
M  V30 15959 N 2101.36 5.06 0.348685 0
M  V30 15960 C 2101.96 5.94532 1.20395 0
M  V30 15961 N 2103.14 6.48452 1.01191 0
M  V30 15962 C 2103.71 6.04423 -0.146291 0
M  V30 15963 H 2106.01 7.25255 0.961469 0
M  V30 15964 H 2107.19 6.32625 -1.65044 0
M  V30 15965 H 2108.67 8.19355 -1.79097 0
M  V30 15966 H 2106.98 10.1305 -1.09016 0
M  V30 15967 H 2106.79 9.64276 -3.41316 0
M  V30 15968 H 2105.16 9.25417 -2.76357 0
M  V30 15969 H 2101.42 6.21659 2.10714 0
M  V30 15970 H 2106 5.79354 -2.38959 0
M  V30 15971 H 2100.39 3.33174 -1.38982 0
M  V30 15972 H 2101.8 3.39714 -2.48836 0
M  V30 15973 H 2107.8 6.25169 1.0783 0
M  V30 15974 P 2109.66 8.791 1.81619e-11 0
M  V30 15975 O 2111.08 9.31096 0.027933 0
M  V30 15976 O 2109.3 7.77869 -1.04071 0
M  V30 15977 O 2109.33 8.09533 1.41463 0
M  V30 15978 C 2109.17 9.0349 2.53943 0
M  V30 15979 C 2109.71 8.35226 3.79016 0
M  V30 15980 O 2108.66 7.57992 4.15078 0
M  V30 15981 C 2110.93 7.45087 3.67298 0
M  V30 15982 O 2111.67 7.27796 4.85194 0
M  V30 15983 C 2110.26 6.17323 3.12027 0
M  V30 15984 O 2111.06 5.04231 3.47188 0
M  V30 15985 C 2108.93 6.19961 3.81809 0
M  V30 15986 H 2108.96 5.58218 4.73051 0
M  V30 15987 H 2110.14 6.21726 2.02589 0
M  V30 15988 H 2111.63 7.86112 2.9231 0
M  V30 15989 H 2109.93 9.11627 4.55076 0
M  V30 15990 H 2109.74 9.9573 2.34194 0
M  V30 15991 H 2108.11 9.2792 2.67832 0
M  V30 15992 H 2110.75 4.67702 4.28772 0
M  V30 15993 P 2112.61 7.39546 4.75277 0
M  V30 15994 O 2114.03 7.81777 5.05738 0
M  V30 15995 O 2112.25 7.1065 3.32998 0
M  V30 15996 O 2112.29 6.04542 5.56673 0
M  V30 15997 C 2112.13 6.22772 7.02095 0
M  V30 15998 C 2112.67 4.97725 7.70406 0
M  V30 15999 O 2111.61 4.13256 7.58987 0
M  V30 16000 C 2113.88 4.28231 7.11815 0
M  V30 16001 O 2114.62 3.49945 8.01648 0
M  V30 16002 C 2113.21 3.5063 5.96244 0
M  V30 16003 O 2114.01 2.36482 5.64681 0
M  V30 16004 C 2111.88 3.15122 6.56374 0
M  V30 16005 H 2111.91 2.13853 6.99751 0
M  V30 16006 H 2113.09 4.13501 5.06559 0
M  V30 16007 H 2114.58 5.03285 6.70911 0
M  V30 16008 H 2112.88 5.20877 8.75697 0
M  V30 16009 H 2112.69 7.11046 7.35349 0
M  V30 16010 H 2111.06 6.35815 7.26986 0
M  V30 16011 H 2113.7 1.61644 6.13565 0
M  V30 16012 P 2115.56 3.65191 7.99657 0
M  V30 16013 O 2116.98 3.8425 8.48115 0
M  V30 16014 O 2115.2 4.17805 6.64342 0
M  V30 16015 O 2115.24 2.07613 7.95143 0
M  V30 16016 C 2115.08 1.44328 9.27336 0
M  V30 16017 C 2115.62 0.0220036 9.17197 0
M  V30 16018 O 2114.56 -0.626867 8.61923 0
M  V30 16019 C 2116.83 -0.24586 8.30336 0
M  V30 16020 O 2117.57 -1.39011 8.63583 0
M  V30 16021 C 2116.16 -0.273849 6.91158 0
M  V30 16022 O 2116.96 -1.06348 6.02892 0
M  V30 16023 C 2114.83 -0.897649 7.22545 0
M  V30 16024 H 2114.86 -1.9841 7.04286 0
M  V30 16025 H 2116.04 0.739928 6.497 0
M  V30 16026 H 2117.53 0.60668 8.36503 0
M  V30 16027 H 2115.83 -0.352479 10.1829 0
M  V30 16028 H 2115.64 2.00611 10.0304 0
M  V30 16029 H 2114.01 1.41843 9.55327 0
M  V30 16030 H 2116.65 -1.95734 6.03555 0
M  V30 16031 P 2118.51 -1.25109 8.70152 0
M  V30 16032 O 2119.93 -1.35274 9.21221 0
M  V30 16033 O 2118.15 -0.0769065 7.84762 0
M  V30 16034 O 2118.19 -2.55232 7.81161 0
M  V30 16035 C 2118.03 -3.79939 8.58154 0
M  V30 16036 C 2118.57 -4.94023 7.72785 0
M  V30 16037 O 2117.51 -5.18726 6.91205 0
M  V30 16038 C 2119.78 -4.69597 6.85231 0
M  V30 16039 O 2120.52 -5.83832 6.51337 0
M  V30 16040 C 2119.12 -3.96706 5.66633 0
M  V30 16041 O 2119.91 -4.15414 4.49689 0
M  V30 16042 C 2117.78 -4.66153 5.59313 0
M  V30 16043 H 2117.81 -5.47679 4.85214 0
M  V30 16044 H 2118.99 -2.89008 5.86566 0
M  V30 16045 H 2120.48 -4.0121 7.36511 0
M  V30 16046 H 2118.78 -5.80182 8.37584 0
M  V30 16047 H 2118.59 -3.73517 9.52265 0
M  V30 16048 H 2116.96 -3.97163 8.80359 0
M  V30 16049 H 2119.6 -4.90969 4.01921 0
M  V30 16050 P 2121.46 -5.75688 6.64379 0
M  V30 16051 O 2122.88 -6.11849 7.01846 0
M  V30 16052 O 2121.1 -4.30744 6.56026 0
M  V30 16053 O 2121.14 -6.37042 5.19165 0
M  V30 16054 C 2120.98 -7.83578 5.16515 0
M  V30 16055 C 2121.52 -8.33398 3.83019 0
M  V30 16056 O 2120.46 -8.10074 3.01034 0
M  V30 16057 C 2122.73 -7.65514 3.2257 0
M  V30 16058 O 2123.47 -8.4329 2.32297 0
M  V30 16059 C 2122.07 -6.40075 2.62207 0
M  V30 16060 O 2122.86 -5.92589 1.53712 0
M  V30 16061 C 2120.73 -6.9454 2.18503 0
M  V30 16062 H 2120.76 -7.23063 1.12091 0
M  V30 16063 H 2121.94 -5.6025 3.37201 0
M  V30 16064 H 2123.43 -7.35707 4.02681 0
M  V30 16065 H 2121.73 -9.40912 3.9095 0
M  V30 16066 H 2121.54 -8.29056 5.99158 0
M  V30 16067 H 2119.91 -8.10073 5.25882 0
M  V30 16068 H 2122.55 -6.30324 0.726794 0
M  V30 16069 P 2124.41 -8.4349 2.47671 0
M  V30 16070 O 2125.83 -8.94167 2.5964 0
M  V30 16071 O 2124.05 -7.1704 3.19006 0
M  V30 16072 O 2124.09 -8.16596 0.923387 0
M  V30 16073 C 2123.93 -9.38437 0.108857 0
M  V30 16074 C 2124.47 -9.08175 -1.28353 0
M  V30 16075 O 2123.41 -8.44229 -1.84713 0
M  V30 16076 C 2125.69 -8.18386 -1.42505 0
M  V30 16077 O 2126.42 -8.3501 -2.60497 0
M  V30 16078 C 2125.02 -6.80225 -1.25468 0
M  V30 16079 O 2125.82 -5.81621 -1.91066 0
M  V30 16080 C 2123.68 -7.02416 -1.9168 0
M  V30 16081 H 2123.71 -6.6888 -2.96621 0
M  V30 16082 H 2124.89 -6.53617 -0.192223 0
M  V30 16083 H 2126.38 -8.36622 -0.589963 0
M  V30 16084 H 2124.68 -10.0291 -1.79807 0
M  V30 16085 H 2124.49 -10.2138 0.558219 0
M  V30 16086 H 2122.86 -9.6579 0.0444202 0
M  V30 16087 H 2125.5 -5.69556 -2.79637 0
M  V30 16088 P 2127.36 -8.4349 -2.47671 0
M  V30 16089 O 2128.78 -8.92593 -2.65 0
M  V30 16090 O 2127 -7.7568 -1.19296 0
M  V30 16091 O 2127.04 -7.36886 -3.63805 0
M  V30 16092 C 2126.88 -7.95349 -4.982 0
M  V30 16093 C 2127.42 -6.94612 -5.98974 0
M  V30 16094 O 2126.36 -6.10347 -6.11815 0
M  V30 16095 C 2128.64 -6.11426 -5.62335 0
M  V30 16096 O 2129.37 -5.6162 -6.70584 0
M  V30 16097 C 2127.97 -5.04409 -4.73308 0
M  V30 16098 O 2128.77 -3.85992 -4.75183 0
M  V30 16099 C 2126.63 -4.8728 -5.41006 0
M  V30 16100 H 2126.66 -4.02333 -6.11157 0
M  V30 16101 H 2127.84 -5.39466 -3.69543 0
M  V30 16102 H 2129.33 -6.71916 -5.01943 0
M  V30 16103 H 2127.63 -7.4649 -6.93477 0
M  V30 16104 H 2127.44 -8.89416 -5.05237 0
M  V30 16105 H 2125.81 -8.14876 -5.18409 0
M  V30 16106 H 2128.45 -3.27957 -5.4317 0
M  V30 16107 P 2130.31 -5.75688 -6.64379 0
M  V30 16108 O 2131.73 -6.07758 -7.05656 0
M  V30 16109 O 2129.95 -5.88047 -5.19722 0
M  V30 16110 O 2129.99 -4.2322 -7.04443 0
M  V30 16111 C 2129.83 -3.99743 -8.4911 0
M  V30 16112 C 2130.37 -2.60487 -8.79329 0
M  V30 16113 O 2129.31 -1.82684 -8.4467 0
M  V30 16114 C 2131.59 -2.10343 -8.03628 0
M  V30 16115 O 2132.32 -1.09919 -8.67766 0
M  V30 16116 C 2130.92 -1.68446 -6.70876 0
M  V30 16117 O 2131.72 -0.678026 -6.08333 0
M  V30 16118 C 2129.58 -1.17436 -7.18567 0
M  V30 16119 N 2128.54 -1.52699 -6.23988 0
M  V30 16120 C 2128.6 -2.68084 -5.57824 0
M  V30 16121 N 2127.55 -2.8189 -4.75643 0
M  V30 16122 C 2126.82 -1.72373 -4.95155 0
M  V30 16123 C 2125.51 -1.37653 -4.44996 0
M  V30 16124 O 2124.78 -2.02239 -3.68445 0
M  V30 16125 N 2125.08 -0.17675 -4.90782 0
M  V30 16126 C 2125.83 0.645036 -5.78716 0
M  V30 16127 N 2125.24 1.84214 -6.10618 0
M  V30 16128 N 2126.99 0.321732 -6.30279 0
M  V30 16129 C 2127.44 -0.87502 -5.86913 0
M  V30 16130 H 2129.61 -0.0804732 -7.31656 0
M  V30 16131 H 2130.8 -2.53998 -6.02444 0
M  V30 16132 H 2132.28 -2.93095 -7.8582 0
M  V30 16133 H 2130.59 -2.53065 -9.86973 0
M  V30 16134 H 2130.4 -4.75072 -9.05887 0
M  V30 16135 H 2128.76 -4.05244 -8.76668 0
M  V30 16136 H 2124.19 0.152143 -4.60849 0
M  V30 16137 H 2129.4 -3.41852 -5.69006 0
M  V30 16138 H 2124.33 2.08538 -5.69521 0
M  V30 16139 H 2125.7 2.4895 -6.75698 0
M  V30 16140 H 2131.41 0.177619 -6.34151 0
M  V30 16141 P 2133.26 -1.25109 -8.70152 0
M  V30 16142 O 2134.68 -1.29744 -9.22016 0
M  V30 16143 O 2132.9 -2.13714 -7.55141 0
M  V30 16144 O 2132.94 0.248149 -8.21425 0
M  V30 16145 C 2132.78 1.22779 -9.30434 0
M  V30 16146 C 2133.32 2.56293 -8.80664 0
M  V30 16147 O 2132.26 3.02979 -8.09349 0
M  V30 16148 C 2134.54 2.57523 -7.89775 0
M  V30 16149 O 2135.28 3.7668 -7.89438 0
M  V30 16150 C 2133.87 2.20997 -6.55446 0
M  V30 16151 O 2134.67 2.71895 -5.48509 0
M  V30 16152 C 2132.53 2.89693 -6.67988 0
M  V30 16153 H 2132.56 3.88793 -6.19859 0
M  V30 16154 H 2133.75 1.12046 -6.44229 0
M  V30 16155 H 2135.23 1.7746 -8.19711 0
M  V30 16156 H 2133.54 3.20706 -9.67112 0
M  V30 16157 H 2133.35 0.901032 -10.1892 0
M  V30 16158 H 2131.72 1.33049 -9.56592 0
M  V30 16159 H 2134.36 3.57847 -5.23962 0
M  V30 16160 P 2136.21 3.65191 -7.99657 0
M  V30 16161 O 2137.63 3.89332 -8.45794 0
M  V30 16162 O 2135.85 2.28472 -7.50807 0
M  V30 16163 O 2135.89 4.64972 -6.77611 0
M  V30 16164 C 2135.73 6.06319 -7.16352 0
M  V30 16165 C 2136.27 6.91731 -6.02299 0
M  V30 16166 O 2135.21 6.92449 -5.17064 0
M  V30 16167 C 2137.49 6.43627 -5.25174 0
M  V30 16168 O 2138.23 7.43686 -4.60469 0
M  V30 16169 C 2136.82 5.40275 -4.31916 0
M  V30 16170 O 2137.62 5.25279 -3.14438 0
M  V30 16171 C 2135.48 6.04847 -4.05327 0
M  V30 16172 H 2135.51 6.62195 -3.11261 0
M  V30 16173 H 2136.7 4.42556 -4.81383 0
M  V30 16174 H 2138.18 5.92458 -5.93643 0
M  V30 16175 H 2136.49 7.92655 -6.402 0
M  V30 16176 H 2136.3 6.26671 -8.0846 0
M  V30 16177 H 2134.67 6.29101 -7.32804 0
M  V30 16178 H 2137.31 5.84315 -2.47318 0
M  V30 16179 P 2139.16 7.39546 -4.75277 0
M  V30 16180 O 2140.59 7.84798 -5.01039 0
M  V30 16181 O 2138.8 5.9812 -5.08098 0
M  V30 16182 O 2138.84 7.57503 -3.1866 0
M  V30 16183 C 2138.68 8.97357 -2.74833 0
M  V30 16184 C 2139.22 9.07548 -1.32709 0
M  V30 16185 O 2138.16 8.62072 -0.606159 0
M  V30 16186 C 2140.44 8.25383 -0.938334 0
M  V30 16187 O 2141.18 8.74577 0.146954 0
M  V30 16188 C 2139.77 6.8802 -0.712559 0
M  V30 16189 O 2140.57 6.1189 0.194655 0
M  V30 16190 C 2138.43 7.27966 -0.139777 0
M  V30 16191 H 2138.46 7.25354 0.961601 0
M  V30 16192 H 2139.65 6.32557 -1.65702 0
M  V30 16193 H 2141.13 8.19355 -1.79097 0
M  V30 16194 H 2139.44 10.1294 -1.10029 0
M  V30 16195 H 2139.25 9.64276 -3.41316 0
M  V30 16196 H 2137.62 9.25417 -2.76357 0
M  V30 16197 H 2140.26 6.25267 1.07847 0
M  V30 16198 P 2142.11 8.791 1.84721e-11 0
M  V30 16199 O 2143.54 9.31096 0.027933 0
M  V30 16200 O 2141.75 7.77869 -1.04071 0
M  V30 16201 O 2141.79 8.09533 1.41463 0
M  V30 16202 C 2141.63 9.0349 2.53943 0
M  V30 16203 C 2142.17 8.35226 3.79016 0
M  V30 16204 O 2141.11 7.57992 4.15078 0
M  V30 16205 C 2143.39 7.45087 3.67298 0
M  V30 16206 O 2144.13 7.27796 4.85194 0
M  V30 16207 C 2142.72 6.17323 3.12027 0
M  V30 16208 O 2143.52 5.04231 3.47188 0
M  V30 16209 C 2141.38 6.19961 3.81809 0
M  V30 16210 H 2141.41 5.58218 4.73051 0
M  V30 16211 H 2142.6 6.21726 2.02589 0
M  V30 16212 H 2144.08 7.86112 2.9231 0
M  V30 16213 H 2142.39 9.11627 4.55076 0
M  V30 16214 H 2142.2 9.9573 2.34194 0
M  V30 16215 H 2140.57 9.2792 2.67832 0
M  V30 16216 H 2143.21 4.67702 4.28772 0
M  V30 16217 P 2145.06 7.39546 4.75277 0
M  V30 16218 O 2146.49 7.81777 5.05738 0
M  V30 16219 O 2144.7 7.1065 3.32998 0
M  V30 16220 O 2144.74 6.04542 5.56673 0
M  V30 16221 C 2144.58 6.22772 7.02095 0
M  V30 16222 C 2145.12 4.97725 7.70406 0
M  V30 16223 O 2144.07 4.13256 7.58987 0
M  V30 16224 C 2146.34 4.28231 7.11815 0
M  V30 16225 O 2147.08 3.49945 8.01648 0
M  V30 16226 C 2145.67 3.5063 5.96244 0
M  V30 16227 O 2146.47 2.36482 5.64681 0
M  V30 16228 C 2144.33 3.15122 6.56374 0
M  V30 16229 H 2144.37 2.13853 6.99751 0
M  V30 16230 H 2145.55 4.13501 5.06559 0
M  V30 16231 H 2147.03 5.03285 6.70911 0
M  V30 16232 H 2145.34 5.20877 8.75697 0
M  V30 16233 H 2145.15 7.11046 7.35349 0
M  V30 16234 H 2143.52 6.35815 7.26986 0
M  V30 16235 H 2146.16 1.61644 6.13565 0
M  V30 16236 P 2148.01 3.65191 7.99657 0
M  V30 16237 O 2149.44 3.8425 8.48115 0
M  V30 16238 O 2147.65 4.17805 6.64342 0
M  V30 16239 O 2147.69 2.07613 7.95143 0
M  V30 16240 C 2147.53 1.44328 9.27336 0
M  V30 16241 C 2148.07 0.0220036 9.17197 0
M  V30 16242 O 2147.02 -0.626867 8.61923 0
M  V30 16243 C 2149.29 -0.24586 8.30336 0
M  V30 16244 O 2150.03 -1.39011 8.63583 0
M  V30 16245 C 2148.62 -0.273849 6.91158 0
M  V30 16246 O 2149.42 -1.06348 6.02892 0
M  V30 16247 C 2147.28 -0.897649 7.22545 0
M  V30 16248 H 2147.32 -1.9841 7.04286 0
M  V30 16249 H 2148.5 0.739928 6.497 0
M  V30 16250 H 2149.98 0.60668 8.36503 0
M  V30 16251 H 2148.29 -0.352479 10.1829 0
M  V30 16252 H 2148.1 2.00611 10.0304 0
M  V30 16253 H 2146.47 1.41843 9.55327 0
M  V30 16254 H 2149.11 -1.95734 6.03555 0
M  V30 16255 P 2150.97 -1.25109 8.70152 0
M  V30 16256 O 2152.39 -1.35274 9.21221 0
M  V30 16257 O 2150.61 -0.0769065 7.84762 0
M  V30 16258 O 2150.64 -2.55232 7.81161 0
M  V30 16259 C 2150.48 -3.79939 8.58154 0
M  V30 16260 C 2151.02 -4.94023 7.72785 0
M  V30 16261 O 2149.97 -5.18726 6.91205 0
M  V30 16262 C 2152.24 -4.69597 6.85231 0
M  V30 16263 O 2152.98 -5.83832 6.51337 0
M  V30 16264 C 2151.57 -3.96706 5.66633 0
M  V30 16265 O 2152.37 -4.15414 4.49689 0
M  V30 16266 C 2150.23 -4.66153 5.59313 0
M  V30 16267 H 2150.27 -5.47679 4.85214 0
M  V30 16268 H 2151.45 -2.89008 5.86566 0
M  V30 16269 H 2152.93 -4.0121 7.36511 0
M  V30 16270 H 2151.24 -5.80182 8.37584 0
M  V30 16271 H 2151.05 -3.73517 9.52265 0
M  V30 16272 H 2149.42 -3.97163 8.80359 0
M  V30 16273 H 2152.06 -4.90969 4.01921 0
M  V30 16274 P 2153.92 -5.75688 6.64379 0
M  V30 16275 O 2155.34 -6.11849 7.01846 0
M  V30 16276 O 2153.56 -4.30744 6.56026 0
M  V30 16277 O 2153.59 -6.37042 5.19165 0
M  V30 16278 C 2153.43 -7.83578 5.16515 0
M  V30 16279 C 2153.97 -8.33398 3.83019 0
M  V30 16280 O 2152.92 -8.10074 3.01034 0
M  V30 16281 C 2155.19 -7.65514 3.2257 0
M  V30 16282 O 2155.93 -8.4329 2.32297 0
M  V30 16283 C 2154.52 -6.40075 2.62207 0
M  V30 16284 O 2155.32 -5.92589 1.53712 0
M  V30 16285 C 2153.19 -6.9454 2.18503 0
M  V30 16286 H 2153.22 -7.23063 1.12091 0
M  V30 16287 H 2154.4 -5.6025 3.37201 0
M  V30 16288 H 2155.88 -7.35707 4.02681 0
M  V30 16289 H 2154.19 -9.40912 3.9095 0
M  V30 16290 H 2154 -8.29056 5.99158 0
M  V30 16291 H 2152.37 -8.10073 5.25882 0
M  V30 16292 H 2155.01 -6.30324 0.726794 0
M  V30 16293 P 2156.87 -8.4349 2.47671 0
M  V30 16294 O 2158.29 -8.94167 2.5964 0
M  V30 16295 O 2156.51 -7.1704 3.19006 0
M  V30 16296 O 2156.54 -8.16596 0.923387 0
M  V30 16297 C 2156.38 -9.38437 0.108857 0
M  V30 16298 C 2156.92 -9.08175 -1.28353 0
M  V30 16299 O 2155.87 -8.44229 -1.84713 0
M  V30 16300 C 2158.14 -8.18386 -1.42505 0
M  V30 16301 O 2158.88 -8.3501 -2.60497 0
M  V30 16302 C 2157.47 -6.80225 -1.25468 0
M  V30 16303 O 2158.27 -5.81621 -1.91066 0
M  V30 16304 C 2156.14 -7.02416 -1.9168 0
M  V30 16305 H 2156.17 -6.6888 -2.96621 0
M  V30 16306 H 2157.35 -6.53617 -0.192223 0
M  V30 16307 H 2158.83 -8.36622 -0.589963 0
M  V30 16308 H 2157.14 -10.0291 -1.79807 0
M  V30 16309 H 2156.95 -10.2138 0.558219 0
M  V30 16310 H 2155.32 -9.6579 0.0444202 0
M  V30 16311 H 2157.96 -5.69556 -2.79637 0
M  V30 16312 P 2159.82 -8.4349 -2.47671 0
M  V30 16313 O 2161.22 -8.99283 -2.62101 0
M  V30 16314 O 2159.44 -7.81195 -1.16947 0
M  V30 16315 O 2159.49 -7.36797 -3.63761 0
M  V30 16316 C 2159.33 -7.95349 -4.982 0
M  V30 16317 C 2159.87 -6.94537 -5.98908 0
M  V30 16318 O 2158.82 -6.10277 -6.11744 0
M  V30 16319 C 2161.09 -6.11426 -5.62335 0
M  V30 16320 O 2161.83 -5.6162 -6.70584 0
M  V30 16321 C 2160.42 -5.04409 -4.73308 0
M  V30 16322 O 2161.22 -3.85929 -4.75106 0
M  V30 16323 C 2159.09 -4.8728 -5.41006 0
M  V30 16324 N 2158.04 -4.65812 -4.42377 0
M  V30 16325 C 2157.01 -3.81293 -4.74224 0
M  V30 16326 O 2157.05 -3.20533 -5.83679 0
M  V30 16327 N 2156 -3.6442 -3.86349 0
M  V30 16328 C 2156.04 -4.2728 -2.6824 0
M  V30 16329 N 2155.03 -4.09866 -1.83822 0
M  V30 16330 C 2157.14 -5.10813 -2.3217 0
M  V30 16331 C 2158.11 -5.27909 -3.22647 0
M  V30 16332 H 2159.12 -4.02278 -6.11074 0
M  V30 16333 H 2160.3 -5.39013 -3.70026 0
M  V30 16334 H 2161.79 -6.71494 -5.02675 0
M  V30 16335 H 2160.09 -7.45796 -6.94223 0
M  V30 16336 H 2159.9 -8.89416 -5.05237 0
M  V30 16337 H 2158.27 -8.14791 -5.18355 0
M  V30 16338 H 2157.19 -5.58884 -1.34755 0
M  V30 16339 H 2158.95 -5.92811 -2.9934 0
M  V30 16340 H 2154.24 -3.49095 -2.10018 0
M  V30 16341 H 2155.04 -4.56846 -0.924167 0
M  V30 16342 H 2161.01 -3.3454 -5.51577 0
M  V30 16343 P 2162.77 -5.75688 -6.64379 0
M  V30 16344 O 2164.19 -6.07627 -7.05504 0
M  V30 16345 O 2162.41 -5.88047 -5.19722 0
M  V30 16346 O 2162.44 -4.2322 -7.04443 0
M  V30 16347 C 2162.28 -3.99743 -8.4911 0
M  V30 16348 C 2162.82 -2.60516 -8.79425 0
M  V30 16349 O 2161.77 -1.82684 -8.4467 0
M  V30 16350 C 2164.04 -2.10343 -8.03628 0
M  V30 16351 O 2164.78 -1.09919 -8.67766 0
M  V30 16352 C 2163.37 -1.68446 -6.70876 0
M  V30 16353 O 2164.17 -0.678137 -6.08433 0
M  V30 16354 C 2162.04 -1.17436 -7.18567 0
M  V30 16355 H 2162.07 -0.0804732 -7.31656 0
M  V30 16356 H 2163.25 -2.54037 -6.02537 0
M  V30 16357 H 2164.74 -2.93881 -7.85526 0
M  V30 16358 H 2163.04 -2.53065 -9.86973 0
M  V30 16359 H 2162.85 -4.75072 -9.05887 0
M  V30 16360 H 2161.22 -4.05244 -8.76668 0
M  V30 16361 H 2163.86 0.177647 -6.34251 0
M  V30 16362 P 2165.72 -1.25109 -8.70152 0
M  V30 16363 O 2167.14 -1.29758 -9.22115 0
M  V30 16364 O 2165.36 -2.13714 -7.55141 0
M  V30 16365 O 2165.4 0.248149 -8.21425 0
M  V30 16366 C 2165.23 1.22792 -9.30533 0
M  V30 16367 C 2165.78 2.56293 -8.80664 0
M  V30 16368 O 2164.72 3.02944 -8.09255 0
M  V30 16369 C 2166.99 2.57523 -7.89775 0
M  V30 16370 O 2167.73 3.7668 -7.89438 0
M  V30 16371 C 2166.33 2.20997 -6.55446 0
M  V30 16372 O 2167.12 2.71302 -5.48691 0
M  V30 16373 C 2164.99 2.89693 -6.67988 0
M  V30 16374 N 2163.94 2.08895 -6.07487 0
M  V30 16375 C 2164.11 0.753809 -5.94137 0
M  V30 16376 N 2163.09 0.146592 -5.38801 0
M  V30 16377 C 2162.2 1.1768 -5.13693 0
M  V30 16378 C 2160.93 1.17563 -4.52477 0
M  V30 16379 N 2160.34 0.057481 -4.04759 0
M  V30 16380 N 2160.37 2.41918 -4.45789 0
M  V30 16381 C 2160.97 3.56493 -4.90792 0
M  V30 16382 N 2162.15 3.61423 -5.47817 0
M  V30 16383 C 2162.72 2.37779 -5.5588 0
M  V30 16384 H 2165.02 3.8874 -6.19774 0
M  V30 16385 H 2166.2 1.12673 -6.44018 0
M  V30 16386 H 2167.69 1.7746 -8.19711 0
M  V30 16387 H 2165.99 3.21673 -9.66791 0
M  V30 16388 H 2165.8 0.901032 -10.1892 0
M  V30 16389 H 2164.17 1.33049 -9.56592 0
M  V30 16390 H 2160.44 4.49919 -4.77947 0
M  V30 16391 H 2165.01 0.233081 -6.26266 0
M  V30 16392 H 2159.41 0.119831 -3.60801 0
M  V30 16393 H 2160.81 -0.852272 -4.12385 0
M  V30 16394 H 2166.81 3.5779 -5.23879 0
M  V30 16395 P 2168.67 3.65191 -7.99657 0
M  V30 16396 O 2170.09 3.89332 -8.45794 0
M  V30 16397 O 2168.31 2.28472 -7.50807 0
M  V30 16398 O 2168.35 4.64972 -6.77611 0
M  V30 16399 C 2168.19 6.06319 -7.16352 0
M  V30 16400 C 2168.73 6.91731 -6.02299 0
M  V30 16401 O 2167.67 6.92449 -5.17064 0
M  V30 16402 C 2169.94 6.43627 -5.25174 0
M  V30 16403 O 2170.68 7.43686 -4.60469 0
M  V30 16404 C 2169.27 5.40275 -4.31916 0
M  V30 16405 O 2170.07 5.25279 -3.14438 0
M  V30 16406 C 2167.94 6.04847 -4.05327 0
M  V30 16407 H 2167.97 6.62195 -3.11261 0
M  V30 16408 H 2169.15 4.42556 -4.81383 0
M  V30 16409 H 2170.64 5.92458 -5.93643 0
M  V30 16410 H 2168.94 7.92655 -6.402 0
M  V30 16411 H 2168.75 6.26671 -8.0846 0
M  V30 16412 H 2167.12 6.29101 -7.32804 0
M  V30 16413 H 2169.76 5.84315 -2.47318 0
M  V30 16414 P 2171.62 7.39546 -4.75277 0
M  V30 16415 O 2173.04 7.84798 -5.01039 0
M  V30 16416 O 2171.26 5.9812 -5.08098 0
M  V30 16417 O 2171.3 7.57503 -3.1866 0
M  V30 16418 C 2171.14 8.97357 -2.74833 0
M  V30 16419 C 2171.68 9.07548 -1.32709 0
M  V30 16420 O 2170.62 8.62072 -0.606159 0
M  V30 16421 C 2172.89 8.25383 -0.938334 0
M  V30 16422 O 2173.63 8.74577 0.146954 0
M  V30 16423 C 2172.23 6.8802 -0.712559 0
M  V30 16424 O 2173.02 6.1189 0.194655 0
M  V30 16425 C 2170.89 7.27966 -0.139777 0
M  V30 16426 H 2170.92 7.25354 0.961601 0
M  V30 16427 H 2172.1 6.32557 -1.65702 0
M  V30 16428 H 2173.59 8.19355 -1.79097 0
M  V30 16429 H 2171.89 10.1294 -1.10029 0
M  V30 16430 H 2171.7 9.64276 -3.41316 0
M  V30 16431 H 2170.07 9.25417 -2.76357 0
M  V30 16432 H 2172.71 6.25267 1.07847 0
M  V30 16433 P 2174.57 8.791 1.87823e-11 0
M  V30 16434 O 2175.99 9.31196 0.027936 0
M  V30 16435 O 2174.21 7.77869 -1.04071 0
M  V30 16436 O 2174.25 8.09533 1.41463 0
M  V30 16437 C 2174.09 9.03587 2.5397 0
M  V30 16438 C 2174.63 8.35226 3.79016 0
M  V30 16439 O 2173.57 7.57904 4.1503 0
M  V30 16440 C 2175.85 7.45087 3.67298 0
M  V30 16441 O 2176.58 7.27796 4.85194 0
M  V30 16442 C 2175.18 6.17323 3.12027 0
M  V30 16443 O 2175.98 5.04496 3.46627 0
M  V30 16444 C 2173.84 6.19961 3.81809 0
M  V30 16445 N 2172.8 5.71575 2.93223 0
M  V30 16446 C 2172.97 5.77362 1.59168 0
M  V30 16447 N 2171.94 5.3123 0.911893 0
M  V30 16448 C 2171.05 4.91717 1.89588 0
M  V30 16449 C 2169.79 4.3114 1.8076 0
M  V30 16450 N 2169.19 3.99821 0.632928 0
M  V30 16451 N 2169.22 4.06823 3.02898 0
M  V30 16452 C 2169.82 4.35062 4.22711 0
M  V30 16453 N 2171 4.90805 4.35707 0
M  V30 16454 C 2171.58 5.16382 3.14469 0
M  V30 16455 H 2173.87 5.58142 4.72986 0
M  V30 16456 H 2175.05 6.21428 2.0318 0
M  V30 16457 H 2176.54 7.86112 2.9231 0
M  V30 16458 H 2174.84 9.11171 4.55987 0
M  V30 16459 H 2174.65 9.9573 2.34194 0
M  V30 16460 H 2173.02 9.2792 2.67832 0
M  V30 16461 H 2169.29 4.09052 5.13359 0
M  V30 16462 H 2173.87 6.16575 1.12198 0
M  V30 16463 H 2168.26 3.55423 0.632085 0
M  V30 16464 H 2169.66 4.20317 -0.256712 0
M  V30 16465 H 2175.66 4.67628 4.28704 0
M  V30 16466 P 2177.52 7.39546 4.75277 0
M  V30 16467 O 2178.94 7.81777 5.05738 0
M  V30 16468 O 2177.16 7.1065 3.32998 0
M  V30 16469 O 2177.2 6.04542 5.56673 0
M  V30 16470 C 2177.04 6.22772 7.02095 0
M  V30 16471 C 2177.58 4.97725 7.70406 0
M  V30 16472 O 2176.52 4.13256 7.58987 0
M  V30 16473 C 2178.8 4.28231 7.11815 0
M  V30 16474 O 2179.53 3.49945 8.01648 0
M  V30 16475 C 2178.13 3.5063 5.96244 0
M  V30 16476 O 2178.93 2.36482 5.64681 0
M  V30 16477 C 2176.79 3.15122 6.56374 0
M  V30 16478 H 2176.82 2.13853 6.99751 0
M  V30 16479 H 2178 4.13501 5.06559 0
M  V30 16480 H 2179.49 5.03285 6.70911 0
M  V30 16481 H 2177.79 5.20877 8.75697 0
M  V30 16482 H 2177.6 7.11046 7.35349 0
M  V30 16483 H 2175.97 6.35815 7.26986 0
M  V30 16484 H 2178.61 1.61644 6.13565 0
M  V30 16485 P 2180.47 3.65191 7.99657 0
M  V30 16486 O 2181.89 3.8425 8.48115 0
M  V30 16487 O 2180.11 4.17805 6.64342 0
M  V30 16488 O 2180.15 2.07613 7.95143 0
M  V30 16489 C 2179.99 1.44328 9.27336 0
M  V30 16490 C 2180.53 0.0220036 9.17197 0
M  V30 16491 O 2179.47 -0.626867 8.61923 0
M  V30 16492 C 2181.75 -0.24586 8.30336 0
M  V30 16493 O 2182.48 -1.39011 8.63583 0
M  V30 16494 C 2181.08 -0.273849 6.91158 0
M  V30 16495 O 2181.88 -1.06348 6.02892 0
M  V30 16496 C 2179.74 -0.897649 7.22545 0
M  V30 16497 H 2179.77 -1.9841 7.04286 0
M  V30 16498 H 2180.96 0.739928 6.497 0
M  V30 16499 H 2182.44 0.60668 8.36503 0
M  V30 16500 H 2180.75 -0.352479 10.1829 0
M  V30 16501 H 2180.56 2.00611 10.0304 0
M  V30 16502 H 2178.93 1.41843 9.55327 0
M  V30 16503 H 2181.56 -1.95734 6.03555 0
M  V30 16504 P 2183.42 -1.25109 8.70152 0
M  V30 16505 O 2184.84 -1.35274 9.21221 0
M  V30 16506 O 2183.06 -0.0769065 7.84762 0
M  V30 16507 O 2183.1 -2.55232 7.81161 0
M  V30 16508 C 2182.94 -3.79939 8.58154 0
M  V30 16509 C 2183.48 -4.94023 7.72785 0
M  V30 16510 O 2182.42 -5.18726 6.91205 0
M  V30 16511 C 2184.7 -4.69597 6.85231 0
M  V30 16512 O 2185.43 -5.83832 6.51337 0
M  V30 16513 C 2184.03 -3.96706 5.66633 0
M  V30 16514 O 2184.83 -4.15414 4.49689 0
M  V30 16515 C 2182.69 -4.66153 5.59313 0
M  V30 16516 H 2182.72 -5.47679 4.85214 0
M  V30 16517 H 2183.91 -2.89008 5.86566 0
M  V30 16518 H 2185.39 -4.0121 7.36511 0
M  V30 16519 H 2183.7 -5.80182 8.37584 0
M  V30 16520 H 2183.51 -3.73517 9.52265 0
M  V30 16521 H 2181.88 -3.97163 8.80359 0
M  V30 16522 H 2184.51 -4.90969 4.01921 0
M  V30 16523 P 2186.37 -5.75688 6.64379 0
M  V30 16524 O 2187.79 -6.11981 7.01997 0
M  V30 16525 O 2186.01 -4.30744 6.56026 0
M  V30 16526 O 2186.05 -6.37042 5.19165 0
M  V30 16527 C 2185.89 -7.83578 5.16515 0
M  V30 16528 C 2186.43 -8.33307 3.82977 0
M  V30 16529 O 2185.37 -8.10074 3.01034 0
M  V30 16530 C 2187.65 -7.65514 3.2257 0
M  V30 16531 O 2188.39 -8.4329 2.32297 0
M  V30 16532 C 2186.98 -6.40075 2.62207 0
M  V30 16533 O 2187.78 -5.92492 1.53687 0
M  V30 16534 C 2185.64 -6.9454 2.18503 0
M  V30 16535 N 2184.6 -5.95905 2.39948 0
M  V30 16536 C 2184.66 -5.13994 3.44742 0
M  V30 16537 N 2183.62 -4.30684 3.46712 0
M  V30 16538 C 2182.88 -4.65583 2.41086 0
M  V30 16539 C 2181.58 -4.20877 1.99581 0
M  V30 16540 O 2180.84 -3.35913 2.52616 0
M  V30 16541 N 2181.15 -4.83271 0.873406 0
M  V30 16542 C 2181.89 -5.82006 0.185129 0
M  V30 16543 N 2181.3 -6.30619 -0.95439 0
M  V30 16544 N 2183.05 -6.28443 0.578524 0
M  V30 16545 C 2183.5 -5.68486 1.70138 0
M  V30 16546 H 2185.67 -7.23063 1.12091 0
M  V30 16547 H 2186.86 -5.60165 3.3715 0
M  V30 16548 H 2188.34 -7.3611 4.01946 0
M  V30 16549 H 2186.65 -9.40912 3.9095 0
M  V30 16550 H 2186.46 -8.29056 5.99158 0
M  V30 16551 H 2184.83 -8.10073 5.25882 0
M  V30 16552 H 2180.25 -4.58323 0.505262 0
M  V30 16553 H 2185.46 -5.14564 4.1935 0
M  V30 16554 H 2180.39 -5.93402 -1.25364 0
M  V30 16555 H 2181.76 -7.0425 -1.50254 0
M  V30 16556 H 2187.47 -6.30224 0.72668 0
M  V30 16557 P 2189.32 -8.4349 2.47671 0
M  V30 16558 O 2190.74 -8.94167 2.5964 0
M  V30 16559 O 2188.96 -7.1704 3.19006 0
M  V30 16560 O 2189 -8.16596 0.923387 0
M  V30 16561 C 2188.84 -9.38437 0.108857 0
M  V30 16562 C 2189.38 -9.08175 -1.28353 0
M  V30 16563 O 2188.32 -8.44229 -1.84713 0
M  V30 16564 C 2190.6 -8.18386 -1.42505 0
M  V30 16565 O 2191.34 -8.3501 -2.60497 0
M  V30 16566 C 2189.93 -6.80225 -1.25468 0
M  V30 16567 O 2190.73 -5.81621 -1.91066 0
M  V30 16568 C 2188.59 -7.02416 -1.9168 0
M  V30 16569 H 2188.62 -6.6888 -2.96621 0
M  V30 16570 H 2189.81 -6.53617 -0.192223 0
M  V30 16571 H 2191.29 -8.36622 -0.589963 0
M  V30 16572 H 2189.6 -10.0291 -1.79807 0
M  V30 16573 H 2189.41 -10.2138 0.558219 0
M  V30 16574 H 2187.78 -9.6579 0.0444202 0
M  V30 16575 H 2190.42 -5.69556 -2.79637 0
M  V30 16576 P 2192.27 -8.4349 -2.47671 0
M  V30 16577 O 2193.7 -8.92593 -2.65 0
M  V30 16578 O 2191.91 -7.7568 -1.19296 0
M  V30 16579 O 2191.95 -7.36886 -3.63805 0
M  V30 16580 C 2191.79 -7.95349 -4.982 0
M  V30 16581 C 2192.33 -6.94612 -5.98974 0
M  V30 16582 O 2191.27 -6.10347 -6.11815 0
M  V30 16583 C 2193.55 -6.11426 -5.62335 0
M  V30 16584 O 2194.29 -5.6162 -6.70584 0
M  V30 16585 C 2192.88 -5.04409 -4.73308 0
M  V30 16586 O 2193.68 -3.85992 -4.75183 0
M  V30 16587 C 2191.54 -4.8728 -5.41006 0
M  V30 16588 H 2191.57 -4.02333 -6.11157 0
M  V30 16589 H 2192.76 -5.39466 -3.69543 0
M  V30 16590 H 2194.24 -6.71916 -5.01943 0
M  V30 16591 H 2192.55 -7.4649 -6.93477 0
M  V30 16592 H 2192.36 -8.89416 -5.05237 0
M  V30 16593 H 2190.73 -8.14876 -5.18409 0
M  V30 16594 H 2193.37 -3.27957 -5.4317 0
M  V30 16595 P 2195.22 -5.75688 -6.64379 0
M  V30 16596 O 2196.65 -6.07627 -7.05504 0
M  V30 16597 O 2194.86 -5.88047 -5.19722 0
M  V30 16598 O 2194.9 -4.2322 -7.04443 0
M  V30 16599 C 2194.74 -3.99743 -8.4911 0
M  V30 16600 C 2195.28 -2.60516 -8.79425 0
M  V30 16601 O 2194.23 -1.82684 -8.4467 0
M  V30 16602 C 2196.5 -2.10343 -8.03628 0
M  V30 16603 O 2197.24 -1.09919 -8.67766 0
M  V30 16604 C 2195.83 -1.68446 -6.70876 0
M  V30 16605 O 2196.63 -0.678137 -6.08433 0
M  V30 16606 C 2194.49 -1.17436 -7.18567 0
M  V30 16607 H 2194.53 -0.0804732 -7.31656 0
M  V30 16608 H 2195.71 -2.54037 -6.02537 0
M  V30 16609 H 2197.19 -2.93881 -7.85526 0
M  V30 16610 H 2195.5 -2.53065 -9.86973 0
M  V30 16611 H 2195.31 -4.75072 -9.05887 0
M  V30 16612 H 2193.68 -4.05244 -8.76668 0
M  V30 16613 H 2196.32 0.177647 -6.34251 0
M  V30 16614 P 2198.17 -1.25109 -8.70152 0
M  V30 16615 O 2199.6 -1.29758 -9.22115 0
M  V30 16616 O 2197.81 -2.13714 -7.55141 0
M  V30 16617 O 2197.85 0.248149 -8.21425 0
M  V30 16618 C 2197.69 1.22792 -9.30533 0
M  V30 16619 C 2198.23 2.56293 -8.80664 0
M  V30 16620 O 2197.18 3.02944 -8.09255 0
M  V30 16621 C 2199.45 2.57523 -7.89775 0
M  V30 16622 O 2200.19 3.7668 -7.89438 0
M  V30 16623 C 2198.78 2.20997 -6.55446 0
M  V30 16624 O 2199.58 2.71302 -5.48691 0
M  V30 16625 C 2197.44 2.89693 -6.67988 0
M  V30 16626 N 2196.4 2.08895 -6.07487 0
M  V30 16627 C 2196.57 0.753809 -5.94137 0
M  V30 16628 N 2195.54 0.146592 -5.38801 0
M  V30 16629 C 2194.66 1.1768 -5.13693 0
M  V30 16630 C 2193.39 1.17563 -4.52477 0
M  V30 16631 N 2192.79 0.057481 -4.04759 0
M  V30 16632 N 2192.83 2.41918 -4.45789 0
M  V30 16633 C 2193.43 3.56493 -4.90792 0
M  V30 16634 N 2194.6 3.61423 -5.47817 0
M  V30 16635 C 2195.18 2.37779 -5.5588 0
M  V30 16636 H 2197.48 3.8874 -6.19774 0
M  V30 16637 H 2198.66 1.12673 -6.44018 0
M  V30 16638 H 2200.14 1.7746 -8.19711 0
M  V30 16639 H 2198.45 3.21673 -9.66791 0
M  V30 16640 H 2198.26 0.901032 -10.1892 0
M  V30 16641 H 2196.63 1.33049 -9.56592 0
M  V30 16642 H 2192.89 4.49919 -4.77947 0
M  V30 16643 H 2197.47 0.233081 -6.26266 0
M  V30 16644 H 2191.86 0.119831 -3.60801 0
M  V30 16645 H 2193.27 -0.852272 -4.12385 0
M  V30 16646 H 2199.27 3.5779 -5.23879 0
M  V30 16647 P 2201.13 3.65191 -7.99657 0
M  V30 16648 O 2202.55 3.89332 -8.45794 0
M  V30 16649 O 2200.77 2.28472 -7.50807 0
M  V30 16650 O 2200.8 4.64972 -6.77611 0
M  V30 16651 C 2200.64 6.06319 -7.16352 0
M  V30 16652 C 2201.18 6.91731 -6.02299 0
M  V30 16653 O 2200.13 6.92449 -5.17064 0
M  V30 16654 C 2202.4 6.43627 -5.25174 0
M  V30 16655 O 2203.14 7.43686 -4.60469 0
M  V30 16656 C 2201.73 5.40275 -4.31916 0
M  V30 16657 O 2202.53 5.25279 -3.14438 0
M  V30 16658 C 2200.39 6.04847 -4.05327 0
M  V30 16659 H 2200.43 6.62195 -3.11261 0
M  V30 16660 H 2201.61 4.42556 -4.81383 0
M  V30 16661 H 2203.09 5.92458 -5.93643 0
M  V30 16662 H 2201.4 7.92655 -6.402 0
M  V30 16663 H 2201.21 6.26671 -8.0846 0
M  V30 16664 H 2199.58 6.29101 -7.32804 0
M  V30 16665 H 2202.22 5.84315 -2.47318 0
M  V30 16666 P 2204.08 7.39546 -4.75277 0
M  V30 16667 O 2205.5 7.84798 -5.01039 0
M  V30 16668 O 2203.72 5.9812 -5.08098 0
M  V30 16669 O 2203.75 7.57503 -3.1866 0
M  V30 16670 C 2203.59 8.97357 -2.74833 0
M  V30 16671 C 2204.13 9.07548 -1.32709 0
M  V30 16672 O 2203.08 8.62072 -0.606159 0
M  V30 16673 C 2205.35 8.25383 -0.938334 0
M  V30 16674 O 2206.09 8.74577 0.146954 0
M  V30 16675 C 2204.68 6.8802 -0.712559 0
M  V30 16676 O 2205.48 6.1189 0.194655 0
M  V30 16677 C 2203.34 7.27966 -0.139777 0
M  V30 16678 H 2203.38 7.25354 0.961601 0
M  V30 16679 H 2204.56 6.32557 -1.65702 0
M  V30 16680 H 2206.04 8.19355 -1.79097 0
M  V30 16681 H 2204.35 10.1294 -1.10029 0
M  V30 16682 H 2204.16 9.64276 -3.41316 0
M  V30 16683 H 2202.53 9.25417 -2.76357 0
M  V30 16684 H 2205.17 6.25267 1.07847 0
M  V30 16685 P 2207.03 8.791 1.90924e-11 0
M  V30 16686 O 2208.45 9.31096 0.027933 0
M  V30 16687 O 2206.67 7.77869 -1.04071 0
M  V30 16688 O 2206.7 8.09533 1.41463 0
M  V30 16689 C 2206.54 9.0349 2.53943 0
M  V30 16690 C 2207.08 8.35226 3.79016 0
M  V30 16691 O 2206.03 7.57992 4.15078 0
M  V30 16692 C 2208.3 7.45087 3.67298 0
M  V30 16693 O 2209.04 7.27796 4.85194 0
M  V30 16694 C 2207.63 6.17323 3.12027 0
M  V30 16695 O 2208.43 5.04231 3.47188 0
M  V30 16696 C 2206.3 6.19961 3.81809 0
M  V30 16697 H 2206.33 5.58218 4.73051 0
M  V30 16698 H 2207.51 6.21726 2.02589 0
M  V30 16699 H 2208.99 7.86112 2.9231 0
M  V30 16700 H 2207.3 9.11627 4.55076 0
M  V30 16701 H 2207.11 9.9573 2.34194 0
M  V30 16702 H 2205.48 9.2792 2.67832 0
M  V30 16703 H 2208.12 4.67702 4.28772 0
M  V30 16704 P 2209.98 7.39546 4.75277 0
M  V30 16705 O 2211.4 7.81777 5.05738 0
M  V30 16706 O 2209.62 7.1065 3.32998 0
M  V30 16707 O 2209.65 6.04542 5.56673 0
M  V30 16708 C 2209.49 6.22772 7.02095 0
M  V30 16709 C 2210.03 4.97725 7.70406 0
M  V30 16710 O 2208.98 4.13256 7.58987 0
M  V30 16711 C 2211.25 4.28231 7.11815 0
M  V30 16712 O 2211.99 3.49945 8.01648 0
M  V30 16713 C 2210.58 3.5063 5.96244 0
M  V30 16714 O 2211.38 2.36482 5.64681 0
M  V30 16715 C 2209.25 3.15122 6.56374 0
M  V30 16716 H 2209.28 2.13853 6.99751 0
M  V30 16717 H 2210.46 4.13501 5.06559 0
M  V30 16718 H 2211.94 5.03285 6.70911 0
M  V30 16719 H 2210.25 5.20877 8.75697 0
M  V30 16720 H 2210.06 7.11046 7.35349 0
M  V30 16721 H 2208.43 6.35815 7.26986 0
M  V30 16722 H 2211.07 1.61644 6.13565 0
M  V30 16723 P 2212.93 3.65191 7.99657 0
M  V30 16724 O 2214.35 3.8425 8.48115 0
M  V30 16725 O 2212.57 4.17805 6.64342 0
M  V30 16726 O 2212.6 2.07613 7.95143 0
M  V30 16727 C 2212.44 1.44328 9.27336 0
M  V30 16728 C 2212.98 0.0220036 9.17197 0
M  V30 16729 O 2211.93 -0.626867 8.61923 0
M  V30 16730 C 2214.2 -0.24586 8.30336 0
M  V30 16731 O 2214.94 -1.39011 8.63583 0
M  V30 16732 C 2213.53 -0.273849 6.91158 0
M  V30 16733 O 2214.33 -1.06348 6.02892 0
M  V30 16734 C 2212.2 -0.897649 7.22545 0
M  V30 16735 H 2212.23 -1.9841 7.04286 0
M  V30 16736 H 2213.41 0.739928 6.497 0
M  V30 16737 H 2214.9 0.60668 8.36503 0
M  V30 16738 H 2213.2 -0.352479 10.1829 0
M  V30 16739 H 2213.01 2.00611 10.0304 0
M  V30 16740 H 2211.38 1.41843 9.55327 0
M  V30 16741 H 2214.02 -1.95734 6.03555 0
M  V30 16742 P 2215.88 -1.25109 8.70152 0
M  V30 16743 O 2217.3 -1.35274 9.21221 0
M  V30 16744 O 2215.52 -0.0769065 7.84762 0
M  V30 16745 O 2215.56 -2.55232 7.81161 0
M  V30 16746 C 2215.4 -3.79939 8.58154 0
M  V30 16747 C 2215.94 -4.94023 7.72785 0
M  V30 16748 O 2214.88 -5.18726 6.91205 0
M  V30 16749 C 2217.15 -4.69597 6.85231 0
M  V30 16750 O 2217.89 -5.83832 6.51337 0
M  V30 16751 C 2216.48 -3.96706 5.66633 0
M  V30 16752 O 2217.28 -4.15414 4.49689 0
M  V30 16753 C 2215.15 -4.66153 5.59313 0
M  V30 16754 H 2215.18 -5.47679 4.85214 0
M  V30 16755 H 2216.36 -2.89008 5.86566 0
M  V30 16756 H 2217.85 -4.0121 7.36511 0
M  V30 16757 H 2216.15 -5.80182 8.37584 0
M  V30 16758 H 2215.96 -3.73517 9.52265 0
M  V30 16759 H 2214.33 -3.97163 8.80359 0
M  V30 16760 H 2216.97 -4.90969 4.01921 0
M  V30 16761 P 2218.83 -5.75688 6.64379 0
M  V30 16762 O 2220.25 -6.11849 7.01846 0
M  V30 16763 O 2218.47 -4.30744 6.56026 0
M  V30 16764 O 2218.51 -6.37042 5.19165 0
M  V30 16765 C 2218.35 -7.83578 5.16515 0
M  V30 16766 C 2218.89 -8.33398 3.83019 0
M  V30 16767 O 2217.83 -8.10074 3.01034 0
M  V30 16768 C 2220.1 -7.65514 3.2257 0
M  V30 16769 O 2220.84 -8.4329 2.32297 0
M  V30 16770 C 2219.43 -6.40075 2.62207 0
M  V30 16771 O 2220.23 -5.92589 1.53712 0
M  V30 16772 C 2218.1 -6.9454 2.18503 0
M  V30 16773 H 2218.13 -7.23063 1.12091 0
M  V30 16774 H 2219.31 -5.6025 3.37201 0
M  V30 16775 H 2220.8 -7.35707 4.02681 0
M  V30 16776 H 2219.1 -9.40912 3.9095 0
M  V30 16777 H 2218.91 -8.29056 5.99158 0
M  V30 16778 H 2217.28 -8.10073 5.25882 0
M  V30 16779 H 2219.92 -6.30324 0.726794 0
M  V30 16780 P 2221.78 -8.4349 2.47671 0
M  V30 16781 O 2223.2 -8.94167 2.5964 0
M  V30 16782 O 2221.42 -7.1704 3.19006 0
M  V30 16783 O 2221.46 -8.16596 0.923387 0
M  V30 16784 C 2221.3 -9.38437 0.108857 0
M  V30 16785 C 2221.84 -9.08175 -1.28353 0
M  V30 16786 O 2220.78 -8.44229 -1.84713 0
M  V30 16787 C 2223.05 -8.18386 -1.42505 0
M  V30 16788 O 2223.79 -8.3501 -2.60497 0
M  V30 16789 C 2222.39 -6.80225 -1.25468 0
M  V30 16790 O 2223.18 -5.81621 -1.91066 0
M  V30 16791 C 2221.05 -7.02416 -1.9168 0
M  V30 16792 H 2221.08 -6.6888 -2.96621 0
M  V30 16793 H 2222.26 -6.53617 -0.192223 0
M  V30 16794 H 2223.75 -8.36622 -0.589963 0
M  V30 16795 H 2222.05 -10.0291 -1.79807 0
M  V30 16796 H 2221.86 -10.2138 0.558219 0
M  V30 16797 H 2220.23 -9.6579 0.0444202 0
M  V30 16798 H 2222.87 -5.69556 -2.79637 0
M  V30 16799 P 2224.73 -8.4349 -2.47671 0
M  V30 16800 O 2226.15 -8.92689 -2.65029 0
M  V30 16801 O 2224.37 -7.7568 -1.19296 0
M  V30 16802 O 2224.41 -7.36886 -3.63805 0
M  V30 16803 C 2224.25 -7.95433 -4.98253 0
M  V30 16804 C 2224.79 -6.94612 -5.98974 0
M  V30 16805 O 2223.73 -6.10277 -6.11744 0
M  V30 16806 C 2226 -6.11426 -5.62335 0
M  V30 16807 O 2226.74 -5.6162 -6.70584 0
M  V30 16808 C 2225.34 -5.04409 -4.73308 0
M  V30 16809 O 2226.13 -3.86404 -4.74719 0
M  V30 16810 C 2224 -4.8728 -5.41006 0
M  V30 16811 N 2222.96 -4.65812 -4.42377 0
M  V30 16812 C 2223.12 -5.09132 -3.15382 0
M  V30 16813 N 2222.1 -4.84021 -2.3716 0
M  V30 16814 C 2221.21 -4.18386 -3.20441 0
M  V30 16815 C 2219.95 -3.6275 -2.94905 0
M  V30 16816 N 2219.35 -3.65794 -1.73372 0
M  V30 16817 N 2219.38 -3.05008 -4.05243 0
M  V30 16818 C 2219.98 -2.98348 -5.28159 0
M  V30 16819 N 2221.16 -3.48171 -5.56333 0
M  V30 16820 C 2221.73 -4.06869 -4.47212 0
M  V30 16821 H 2224.03 -4.02278 -6.11074 0
M  V30 16822 H 2225.21 -5.39013 -3.70026 0
M  V30 16823 H 2226.7 -6.71916 -5.01943 0
M  V30 16824 H 2225 -7.45796 -6.94223 0
M  V30 16825 H 2224.81 -8.89416 -5.05237 0
M  V30 16826 H 2223.18 -8.14876 -5.18409 0
M  V30 16827 H 2219.45 -2.47853 -6.07807 0
M  V30 16828 H 2224.02 -5.59989 -2.81362 0
M  V30 16829 H 2218.42 -3.23218 -1.60782 0
M  V30 16830 H 2219.82 -4.10523 -0.937856 0
M  V30 16831 H 2225.82 -3.27906 -5.43085 0
M  V30 16832 P 2227.68 -5.75688 -6.64379 0
M  V30 16833 O 2229.1 -6.07627 -7.05504 0
M  V30 16834 O 2227.32 -5.88047 -5.19722 0
M  V30 16835 O 2227.36 -4.2322 -7.04443 0
M  V30 16836 C 2227.2 -3.99743 -8.4911 0
M  V30 16837 C 2227.74 -2.60516 -8.79425 0
M  V30 16838 O 2226.68 -1.82684 -8.4467 0
M  V30 16839 C 2228.96 -2.10343 -8.03628 0
M  V30 16840 O 2229.69 -1.09919 -8.67766 0
M  V30 16841 C 2228.29 -1.68446 -6.70876 0
M  V30 16842 O 2229.09 -0.678137 -6.08433 0
M  V30 16843 C 2226.95 -1.17436 -7.18567 0
M  V30 16844 H 2226.98 -0.0804732 -7.31656 0
M  V30 16845 H 2228.16 -2.54037 -6.02537 0
M  V30 16846 H 2229.65 -2.93881 -7.85526 0
M  V30 16847 H 2227.95 -2.53065 -9.86973 0
M  V30 16848 H 2227.76 -4.75072 -9.05887 0
M  V30 16849 H 2226.13 -4.05244 -8.76668 0
M  V30 16850 H 2228.77 0.177647 -6.34251 0
M  V30 16851 P 2230.63 -1.25109 -8.70152 0
M  V30 16852 O 2232.05 -1.29758 -9.22115 0
M  V30 16853 O 2230.27 -2.13714 -7.55141 0
M  V30 16854 O 2230.31 0.248149 -8.21425 0
M  V30 16855 C 2230.15 1.22792 -9.30533 0
M  V30 16856 C 2230.69 2.56293 -8.80664 0
M  V30 16857 O 2229.63 3.02944 -8.09255 0
M  V30 16858 C 2231.91 2.57523 -7.89775 0
M  V30 16859 O 2232.64 3.7668 -7.89438 0
M  V30 16860 C 2231.24 2.20997 -6.55446 0
M  V30 16861 O 2232.04 2.71302 -5.48691 0
M  V30 16862 C 2229.9 2.89693 -6.67988 0
M  V30 16863 N 2228.86 2.08895 -6.07487 0
M  V30 16864 C 2229.03 0.753809 -5.94137 0
M  V30 16865 N 2228 0.146592 -5.38801 0
M  V30 16866 C 2227.11 1.1768 -5.13693 0
M  V30 16867 C 2225.85 1.17563 -4.52477 0
M  V30 16868 N 2225.25 0.057481 -4.04759 0
M  V30 16869 N 2225.28 2.41918 -4.45789 0
M  V30 16870 C 2225.88 3.56493 -4.90792 0
M  V30 16871 N 2227.06 3.61423 -5.47817 0
M  V30 16872 C 2227.64 2.37779 -5.5588 0
M  V30 16873 H 2229.93 3.8874 -6.19774 0
M  V30 16874 H 2231.11 1.12673 -6.44018 0
M  V30 16875 H 2232.6 1.7746 -8.19711 0
M  V30 16876 H 2230.9 3.21673 -9.66791 0
M  V30 16877 H 2230.71 0.901032 -10.1892 0
M  V30 16878 H 2229.08 1.33049 -9.56592 0
M  V30 16879 H 2225.35 4.49919 -4.77947 0
M  V30 16880 H 2229.93 0.233081 -6.26266 0
M  V30 16881 H 2224.32 0.119831 -3.60801 0
M  V30 16882 H 2225.72 -0.852272 -4.12385 0
M  V30 16883 H 2231.72 3.5779 -5.23879 0
M  V30 16884 P 2233.58 3.65191 -7.99657 0
M  V30 16885 O 2235 3.89332 -8.45794 0
M  V30 16886 O 2233.22 2.28472 -7.50807 0
M  V30 16887 O 2233.26 4.64972 -6.77611 0
M  V30 16888 C 2233.1 6.06319 -7.16352 0
M  V30 16889 C 2233.64 6.91731 -6.02299 0
M  V30 16890 O 2232.58 6.92449 -5.17064 0
M  V30 16891 C 2234.86 6.43627 -5.25174 0
M  V30 16892 O 2235.59 7.43686 -4.60469 0
M  V30 16893 C 2234.19 5.40275 -4.31916 0
M  V30 16894 O 2234.99 5.25279 -3.14438 0
M  V30 16895 C 2232.85 6.04847 -4.05327 0
M  V30 16896 H 2232.88 6.62195 -3.11261 0
M  V30 16897 H 2234.07 4.42556 -4.81383 0
M  V30 16898 H 2235.55 5.92458 -5.93643 0
M  V30 16899 H 2233.86 7.92655 -6.402 0
M  V30 16900 H 2233.67 6.26671 -8.0846 0
M  V30 16901 H 2232.04 6.29101 -7.32804 0
M  V30 16902 H 2234.67 5.84315 -2.47318 0
M  V30 16903 P 2236.53 7.39546 -4.75277 0
M  V30 16904 O 2237.95 7.84882 -5.01092 0
M  V30 16905 O 2236.17 5.9812 -5.08098 0
M  V30 16906 O 2236.21 7.57503 -3.1866 0
M  V30 16907 C 2236.05 8.97452 -2.74862 0
M  V30 16908 C 2236.59 9.07548 -1.32709 0
M  V30 16909 O 2235.53 8.61972 -0.606089 0
M  V30 16910 C 2237.81 8.25383 -0.938334 0
M  V30 16911 O 2238.55 8.74577 0.146954 0
M  V30 16912 C 2237.14 6.8802 -0.712559 0
M  V30 16913 O 2237.94 6.1181 0.188505 0
M  V30 16914 C 2235.8 7.27966 -0.139777 0
M  V30 16915 N 2234.76 6.39368 -0.623421 0
M  V30 16916 C 2234.93 5.71761 -1.78245 0
M  V30 16917 N 2233.9 4.962 -2.10491 0
M  V30 16918 C 2233.02 5.16158 -1.0635 0
M  V30 16919 C 2231.75 4.60425 -0.810266 0
M  V30 16920 N 2231.15 3.7057 -1.62914 0
M  V30 16921 N 2231.18 5.06 0.348685 0
M  V30 16922 C 2231.79 5.94532 1.20395 0
M  V30 16923 N 2232.96 6.48452 1.01191 0
M  V30 16924 C 2233.54 6.04423 -0.146291 0
M  V30 16925 H 2235.83 7.25255 0.961469 0
M  V30 16926 H 2237.02 6.32625 -1.65044 0
M  V30 16927 H 2238.5 8.19355 -1.79097 0
M  V30 16928 H 2236.81 10.1305 -1.09016 0
M  V30 16929 H 2236.62 9.64276 -3.41316 0
M  V30 16930 H 2234.99 9.25417 -2.76357 0
M  V30 16931 H 2231.25 6.21659 2.10714 0
M  V30 16932 H 2235.83 5.79354 -2.38959 0
M  V30 16933 H 2230.22 3.33174 -1.38982 0
M  V30 16934 H 2231.62 3.39714 -2.48836 0
M  V30 16935 H 2237.63 6.25169 1.0783 0
M  V30 16936 P 2239.48 8.791 1.94026e-11 0
M  V30 16937 O 2240.9 9.31196 0.027936 0
M  V30 16938 O 2239.12 7.77869 -1.04071 0
M  V30 16939 O 2239.16 8.09533 1.41463 0
M  V30 16940 C 2239 9.03587 2.5397 0
M  V30 16941 C 2239.54 8.35226 3.79016 0
M  V30 16942 O 2238.48 7.57904 4.1503 0
M  V30 16943 C 2240.76 7.45087 3.67298 0
M  V30 16944 O 2241.5 7.27796 4.85194 0
M  V30 16945 C 2240.09 6.17323 3.12027 0
M  V30 16946 O 2240.89 5.04496 3.46627 0
M  V30 16947 C 2238.75 6.19961 3.81809 0
M  V30 16948 N 2237.71 5.71575 2.93223 0
M  V30 16949 C 2237.88 5.77362 1.59168 0
M  V30 16950 N 2236.85 5.3123 0.911893 0
M  V30 16951 C 2235.97 4.91717 1.89588 0
M  V30 16952 C 2234.7 4.3114 1.8076 0
M  V30 16953 N 2234.13 4.06823 3.02898 0
M  V30 16954 C 2234.74 4.35062 4.22711 0
M  V30 16955 N 2235.91 4.90805 4.35707 0
M  V30 16956 C 2236.49 5.16382 3.14469 0
M  V30 16957 H 2239.97 6.21428 2.0318 0
M  V30 16958 H 2241.45 7.86112 2.9231 0
M  V30 16959 H 2239.76 9.11171 4.55987 0
M  V30 16960 H 2239.57 9.9573 2.34194 0
M  V30 16961 H 2237.94 9.2792 2.67832 0
M  V30 16962 H 2238.78 6.16575 1.12198 0
M  V30 16963 H 2240.58 4.67628 4.28704 0
M  V30 16964 P 2242.43 7.39546 4.75277 0
M  V30 16965 O 2243.86 7.81777 5.05738 0
M  V30 16966 O 2242.07 7.1065 3.32998 0
M  V30 16967 O 2242.11 6.04542 5.56673 0
M  V30 16968 C 2241.95 6.22772 7.02095 0
M  V30 16969 C 2242.49 4.97725 7.70406 0
M  V30 16970 O 2241.43 4.13256 7.58987 0
M  V30 16971 C 2243.71 4.28231 7.11815 0
M  V30 16972 O 2244.45 3.49945 8.01648 0
M  V30 16973 C 2243.04 3.5063 5.96244 0
M  V30 16974 O 2243.84 2.36482 5.64681 0
M  V30 16975 C 2241.7 3.15122 6.56374 0
M  V30 16976 H 2241.73 2.13853 6.99751 0
M  V30 16977 H 2242.92 4.13501 5.06559 0
M  V30 16978 H 2244.4 5.03285 6.70911 0
M  V30 16979 H 2242.71 5.20877 8.75697 0
M  V30 16980 H 2242.52 7.11046 7.35349 0
M  V30 16981 H 2240.89 6.35815 7.26986 0
M  V30 16982 H 2243.53 1.61644 6.13565 0
M  V30 16983 P 2245.38 3.65191 7.99657 0
M  V30 16984 O 2246.81 3.8425 8.48115 0
M  V30 16985 O 2245.02 4.17805 6.64342 0
M  V30 16986 O 2245.06 2.07613 7.95143 0
M  V30 16987 C 2244.9 1.44328 9.27336 0
M  V30 16988 C 2245.44 0.0220036 9.17197 0
M  V30 16989 O 2244.38 -0.626867 8.61923 0
M  V30 16990 C 2246.66 -0.24586 8.30336 0
M  V30 16991 O 2247.4 -1.39011 8.63583 0
M  V30 16992 C 2245.99 -0.273849 6.91158 0
M  V30 16993 O 2246.79 -1.06348 6.02892 0
M  V30 16994 C 2244.65 -0.897649 7.22545 0
M  V30 16995 H 2244.68 -1.9841 7.04286 0
M  V30 16996 H 2245.87 0.739928 6.497 0
M  V30 16997 H 2247.35 0.60668 8.36503 0
M  V30 16998 H 2245.66 -0.352479 10.1829 0
M  V30 16999 H 2245.47 2.00611 10.0304 0
M  V30 17000 H 2243.84 1.41843 9.55327 0
M  V30 17001 H 2246.48 -1.95734 6.03555 0
M  V30 17002 P 2248.33 -1.25109 8.70152 0
M  V30 17003 O 2249.76 -1.35274 9.21221 0
M  V30 17004 O 2247.97 -0.0769065 7.84762 0
M  V30 17005 O 2248.01 -2.55232 7.81161 0
M  V30 17006 C 2247.85 -3.79939 8.58154 0
M  V30 17007 C 2248.39 -4.94023 7.72785 0
M  V30 17008 O 2247.34 -5.18726 6.91205 0
M  V30 17009 C 2249.61 -4.69597 6.85231 0
M  V30 17010 O 2250.35 -5.83832 6.51337 0
M  V30 17011 C 2248.94 -3.96706 5.66633 0
M  V30 17012 O 2249.74 -4.15414 4.49689 0
M  V30 17013 C 2247.6 -4.66153 5.59313 0
M  V30 17014 H 2247.64 -5.47679 4.85214 0
M  V30 17015 H 2248.82 -2.89008 5.86566 0
M  V30 17016 H 2250.3 -4.0121 7.36511 0
M  V30 17017 H 2248.61 -5.80182 8.37584 0
M  V30 17018 H 2248.42 -3.73517 9.52265 0
M  V30 17019 H 2246.79 -3.97163 8.80359 0
M  V30 17020 H 2249.43 -4.90969 4.01921 0
M  V30 17021 P 2251.28 -5.75688 6.64379 0
M  V30 17022 O 2252.71 -6.11849 7.01846 0
M  V30 17023 O 2250.92 -4.30744 6.56026 0
M  V30 17024 O 2250.96 -6.37042 5.19165 0
M  V30 17025 C 2250.8 -7.83578 5.16515 0
M  V30 17026 C 2251.34 -8.33398 3.83019 0
M  V30 17027 O 2250.29 -8.10074 3.01034 0
M  V30 17028 C 2252.56 -7.65514 3.2257 0
M  V30 17029 O 2253.3 -8.4329 2.32297 0
M  V30 17030 C 2251.89 -6.40075 2.62207 0
M  V30 17031 O 2252.69 -5.92589 1.53712 0
M  V30 17032 C 2250.55 -6.9454 2.18503 0
M  V30 17033 H 2250.59 -7.23063 1.12091 0
M  V30 17034 H 2251.77 -5.6025 3.37201 0
M  V30 17035 H 2253.25 -7.35707 4.02681 0
M  V30 17036 H 2251.56 -9.40912 3.9095 0
M  V30 17037 H 2251.37 -8.29056 5.99158 0
M  V30 17038 H 2249.74 -8.10073 5.25882 0
M  V30 17039 H 2252.38 -6.30324 0.726794 0
M  V30 17040 P 2254.24 -8.4349 2.47671 0
M  V30 17041 O 2255.66 -8.94167 2.5964 0
M  V30 17042 O 2253.88 -7.1704 3.19006 0
M  V30 17043 O 2253.91 -8.16596 0.923387 0
M  V30 17044 C 2253.75 -9.38437 0.108857 0
M  V30 17045 C 2254.29 -9.08175 -1.28353 0
M  V30 17046 O 2253.24 -8.44229 -1.84713 0
M  V30 17047 C 2255.51 -8.18386 -1.42505 0
M  V30 17048 O 2256.25 -8.3501 -2.60497 0
M  V30 17049 C 2254.84 -6.80225 -1.25468 0
M  V30 17050 O 2255.64 -5.81621 -1.91066 0
M  V30 17051 C 2253.5 -7.02416 -1.9168 0
M  V30 17052 H 2253.54 -6.6888 -2.96621 0
M  V30 17053 H 2254.72 -6.53617 -0.192223 0
M  V30 17054 H 2256.2 -8.36622 -0.589963 0
M  V30 17055 H 2254.51 -10.0291 -1.79807 0
M  V30 17056 H 2254.32 -10.2138 0.558219 0
M  V30 17057 H 2252.69 -9.6579 0.0444202 0
M  V30 17058 H 2255.33 -5.69556 -2.79637 0
M  V30 17059 P 2257.19 -8.4349 -2.47671 0
M  V30 17060 O 2258.61 -8.92689 -2.65029 0
M  V30 17061 O 2256.83 -7.7568 -1.19296 0
M  V30 17062 O 2256.86 -7.36886 -3.63805 0
M  V30 17063 C 2256.7 -7.95433 -4.98253 0
M  V30 17064 C 2257.24 -6.94612 -5.98974 0
M  V30 17065 O 2256.19 -6.10277 -6.11744 0
M  V30 17066 C 2258.46 -6.11426 -5.62335 0
M  V30 17067 O 2259.2 -5.6162 -6.70584 0
M  V30 17068 C 2257.79 -5.04409 -4.73308 0
M  V30 17069 O 2258.59 -3.86404 -4.74719 0
M  V30 17070 C 2256.46 -4.8728 -5.41006 0
M  V30 17071 N 2255.41 -4.65812 -4.42377 0
M  V30 17072 C 2255.58 -5.09132 -3.15382 0
M  V30 17073 N 2254.55 -4.84021 -2.3716 0
M  V30 17074 C 2253.67 -4.18386 -3.20441 0
M  V30 17075 C 2252.4 -3.6275 -2.94905 0
M  V30 17076 N 2251.8 -3.65794 -1.73372 0
M  V30 17077 N 2251.84 -3.05008 -4.05243 0
M  V30 17078 C 2252.44 -2.98348 -5.28159 0
M  V30 17079 N 2253.62 -3.48171 -5.56333 0
M  V30 17080 C 2254.19 -4.06869 -4.47212 0
M  V30 17081 H 2256.49 -4.02278 -6.11074 0
M  V30 17082 H 2257.67 -5.39013 -3.70026 0
M  V30 17083 H 2259.15 -6.71916 -5.01943 0
M  V30 17084 H 2257.46 -7.45796 -6.94223 0
M  V30 17085 H 2257.27 -8.89416 -5.05237 0
M  V30 17086 H 2255.64 -8.14876 -5.18409 0
M  V30 17087 H 2251.9 -2.47853 -6.07807 0
M  V30 17088 H 2256.48 -5.59989 -2.81362 0
M  V30 17089 H 2250.87 -3.23218 -1.60782 0
M  V30 17090 H 2252.28 -4.10523 -0.937856 0
M  V30 17091 H 2258.28 -3.27906 -5.43085 0
M  V30 17092 P 2260.14 -5.75688 -6.64379 0
M  V30 17093 O 2261.56 -6.07627 -7.05504 0
M  V30 17094 O 2259.78 -5.88047 -5.19722 0
M  V30 17095 O 2259.81 -4.2322 -7.04443 0
M  V30 17096 C 2259.65 -3.99743 -8.4911 0
M  V30 17097 C 2260.19 -2.60516 -8.79425 0
M  V30 17098 O 2259.14 -1.82684 -8.4467 0
M  V30 17099 C 2261.41 -2.10343 -8.03628 0
M  V30 17100 O 2262.15 -1.09919 -8.67766 0
M  V30 17101 C 2260.74 -1.68446 -6.70876 0
M  V30 17102 O 2261.54 -0.678137 -6.08433 0
M  V30 17103 C 2259.41 -1.17436 -7.18567 0
M  V30 17104 H 2259.44 -0.0804732 -7.31656 0
M  V30 17105 H 2260.62 -2.54037 -6.02537 0
M  V30 17106 H 2262.1 -2.93881 -7.85526 0
M  V30 17107 H 2260.41 -2.53065 -9.86973 0
M  V30 17108 H 2260.22 -4.75072 -9.05887 0
M  V30 17109 H 2258.59 -4.05244 -8.76668 0
M  V30 17110 H 2261.23 0.177647 -6.34251 0
M  V30 17111 P 2263.09 -1.25109 -8.70152 0
M  V30 17112 O 2264.51 -1.29744 -9.22016 0
M  V30 17113 O 2262.73 -2.13714 -7.55141 0
M  V30 17114 O 2262.76 0.248149 -8.21425 0
M  V30 17115 C 2262.6 1.22779 -9.30434 0
M  V30 17116 C 2263.14 2.56293 -8.80664 0
M  V30 17117 O 2262.09 3.02979 -8.09349 0
M  V30 17118 C 2264.36 2.57523 -7.89775 0
M  V30 17119 O 2265.1 3.7668 -7.89438 0
M  V30 17120 C 2263.69 2.20997 -6.55446 0
M  V30 17121 O 2264.49 2.71895 -5.48509 0
M  V30 17122 C 2262.36 2.89693 -6.67988 0
M  V30 17123 H 2262.39 3.88793 -6.19859 0
M  V30 17124 H 2263.57 1.12046 -6.44229 0
M  V30 17125 H 2265.06 1.7746 -8.19711 0
M  V30 17126 H 2263.36 3.20706 -9.67112 0
M  V30 17127 H 2263.17 0.901032 -10.1892 0
M  V30 17128 H 2261.54 1.33049 -9.56592 0
M  V30 17129 H 2264.18 3.57847 -5.23962 0
M  V30 17130 P 2266.04 3.65191 -7.99657 0
M  V30 17131 O 2267.46 3.89332 -8.45794 0
M  V30 17132 O 2265.68 2.28472 -7.50807 0
M  V30 17133 O 2265.71 4.64972 -6.77611 0
M  V30 17134 C 2265.55 6.06319 -7.16352 0
M  V30 17135 C 2266.09 6.91731 -6.02299 0
M  V30 17136 O 2265.04 6.92449 -5.17064 0
M  V30 17137 C 2267.31 6.43627 -5.25174 0
M  V30 17138 O 2268.05 7.43686 -4.60469 0
M  V30 17139 C 2266.64 5.40275 -4.31916 0
M  V30 17140 O 2267.44 5.25279 -3.14438 0
M  V30 17141 C 2265.31 6.04847 -4.05327 0
M  V30 17142 H 2265.34 6.62195 -3.11261 0
M  V30 17143 H 2266.52 4.42556 -4.81383 0
M  V30 17144 H 2268.01 5.92458 -5.93643 0
M  V30 17145 H 2266.31 7.92655 -6.402 0
M  V30 17146 H 2266.12 6.26671 -8.0846 0
M  V30 17147 H 2264.49 6.29101 -7.32804 0
M  V30 17148 H 2267.13 5.84315 -2.47318 0
M  V30 17149 P 2268.99 7.39546 -4.75277 0
M  V30 17150 O 2270.41 7.84798 -5.01039 0
M  V30 17151 O 2268.63 5.9812 -5.08098 0
M  V30 17152 O 2268.67 7.57503 -3.1866 0
M  V30 17153 C 2268.51 8.97357 -2.74833 0
M  V30 17154 C 2269.05 9.07548 -1.32709 0
M  V30 17155 O 2267.99 8.62072 -0.606159 0
M  V30 17156 C 2270.26 8.25383 -0.938334 0
M  V30 17157 O 2271 8.74577 0.146954 0
M  V30 17158 C 2269.59 6.8802 -0.712559 0
M  V30 17159 O 2270.39 6.1189 0.194655 0
M  V30 17160 C 2268.26 7.27966 -0.139777 0
M  V30 17161 H 2268.29 7.25354 0.961601 0
M  V30 17162 H 2269.47 6.32557 -1.65702 0
M  V30 17163 H 2270.96 8.19355 -1.79097 0
M  V30 17164 H 2269.26 10.1294 -1.10029 0
M  V30 17165 H 2269.07 9.64276 -3.41316 0
M  V30 17166 H 2267.44 9.25417 -2.76357 0
M  V30 17167 H 2270.08 6.25267 1.07847 0
M  V30 17168 P 2271.94 8.791 1.97128e-11 0
M  V30 17169 O 2273.36 9.31096 0.027933 0
M  V30 17170 O 2271.58 7.77869 -1.04071 0
M  V30 17171 O 2271.62 8.09533 1.41463 0
M  V30 17172 C 2271.46 9.0349 2.53943 0
M  V30 17173 C 2272 8.35226 3.79016 0
M  V30 17174 O 2270.94 7.57992 4.15078 0
M  V30 17175 C 2273.21 7.45087 3.67298 0
M  V30 17176 O 2273.95 7.27796 4.85194 0
M  V30 17177 C 2272.54 6.17323 3.12027 0
M  V30 17178 O 2273.34 5.04231 3.47188 0
M  V30 17179 C 2271.21 6.19961 3.81809 0
M  V30 17180 H 2271.24 5.58218 4.73051 0
M  V30 17181 H 2272.42 6.21726 2.02589 0
M  V30 17182 H 2273.91 7.86112 2.9231 0
M  V30 17183 H 2272.21 9.11627 4.55076 0
M  V30 17184 H 2272.02 9.9573 2.34194 0
M  V30 17185 H 2270.39 9.2792 2.67832 0
M  V30 17186 H 2273.03 4.67702 4.28772 0
M  V30 17187 P 2274.89 7.39546 4.75277 0
M  V30 17188 O 2276.31 7.81777 5.05738 0
M  V30 17189 O 2274.53 7.1065 3.32998 0
M  V30 17190 O 2274.57 6.04542 5.56673 0
M  V30 17191 C 2274.41 6.22772 7.02095 0
M  V30 17192 C 2274.95 4.97725 7.70406 0
M  V30 17193 O 2273.89 4.13256 7.58987 0
M  V30 17194 C 2276.16 4.28231 7.11815 0
M  V30 17195 O 2276.9 3.49945 8.01648 0
M  V30 17196 C 2275.5 3.5063 5.96244 0
M  V30 17197 O 2276.29 2.36482 5.64681 0
M  V30 17198 C 2274.16 3.15122 6.56374 0
M  V30 17199 H 2274.19 2.13853 6.99751 0
M  V30 17200 H 2275.37 4.13501 5.06559 0
M  V30 17201 H 2276.86 5.03285 6.70911 0
M  V30 17202 H 2275.16 5.20877 8.75697 0
M  V30 17203 H 2274.97 7.11046 7.35349 0
M  V30 17204 H 2273.34 6.35815 7.26986 0
M  V30 17205 H 2275.98 1.61644 6.13565 0
M  V30 17206 P 2277.84 3.65191 7.99657 0
M  V30 17207 O 2279.26 3.84292 8.48206 0
M  V30 17208 O 2277.48 4.17805 6.64342 0
M  V30 17209 O 2277.52 2.07613 7.95143 0
M  V30 17210 C 2277.36 1.44344 9.27435 0
M  V30 17211 C 2277.9 0.0220036 9.17197 0
M  V30 17212 O 2276.84 -0.626794 8.61824 0
M  V30 17213 C 2279.12 -0.24586 8.30336 0
M  V30 17214 O 2279.85 -1.39011 8.63583 0
M  V30 17215 C 2278.45 -0.273849 6.91158 0
M  V30 17216 O 2279.25 -1.05728 6.029 0
M  V30 17217 C 2277.11 -0.897649 7.22545 0
M  V30 17218 N 2276.07 -0.292839 6.41732 0
M  V30 17219 C 2276.24 0.950603 5.91308 0
M  V30 17220 N 2275.21 1.37732 5.21105 0
M  V30 17221 C 2274.32 0.318109 5.26039 0
M  V30 17222 C 2273.06 0.146766 4.6727 0
M  V30 17223 N 2272.46 1.08519 3.89983 0
M  V30 17224 N 2272.49 -1.06525 4.95887 0
M  V30 17225 C 2273.09 -2.0378 5.71347 0
M  V30 17226 N 2274.27 -1.92445 6.27451 0
M  V30 17227 C 2274.85 -0.715382 6.00353 0
M  V30 17228 H 2277.14 -1.98383 7.04189 0
M  V30 17229 H 2278.32 0.733318 6.49674 0
M  V30 17230 H 2279.81 0.60668 8.36503 0
M  V30 17231 H 2278.11 -0.362662 10.1825 0
M  V30 17232 H 2277.92 2.00611 10.0304 0
M  V30 17233 H 2276.29 1.41843 9.55327 0
M  V30 17234 H 2272.56 -2.97041 5.85344 0
M  V30 17235 H 2277.14 1.54076 6.07465 0
M  V30 17236 H 2271.53 0.901517 3.49562 0
M  V30 17237 H 2272.93 1.97957 3.71669 0
M  V30 17238 H 2278.93 -1.95704 6.0346 0
M  V30 17239 P 2280.79 -1.25109 8.70152 0
M  V30 17240 O 2282.21 -1.35274 9.21221 0
M  V30 17241 O 2280.43 -0.0769065 7.84762 0
M  V30 17242 O 2280.47 -2.55232 7.81161 0
M  V30 17243 C 2280.31 -3.79939 8.58154 0
M  V30 17244 C 2280.85 -4.94023 7.72785 0
M  V30 17245 O 2279.79 -5.18726 6.91205 0
M  V30 17246 C 2282.07 -4.69597 6.85231 0
M  V30 17247 O 2282.8 -5.83832 6.51337 0
M  V30 17248 C 2281.4 -3.96706 5.66633 0
M  V30 17249 O 2282.2 -4.15414 4.49689 0
M  V30 17250 C 2280.06 -4.66153 5.59313 0
M  V30 17251 H 2280.09 -5.47679 4.85214 0
M  V30 17252 H 2281.27 -2.89008 5.86566 0
M  V30 17253 H 2282.76 -4.0121 7.36511 0
M  V30 17254 H 2281.06 -5.80182 8.37584 0
M  V30 17255 H 2280.87 -3.73517 9.52265 0
M  V30 17256 H 2279.24 -3.97163 8.80359 0
M  V30 17257 H 2281.88 -4.90969 4.01921 0
M  V30 17258 P 2283.74 -5.75688 6.64379 0
M  V30 17259 O 2285.16 -6.11981 7.01997 0
M  V30 17260 O 2283.38 -4.30744 6.56026 0
M  V30 17261 O 2283.42 -6.37042 5.19165 0
M  V30 17262 C 2283.26 -7.83578 5.16515 0
M  V30 17263 C 2283.8 -8.33307 3.82977 0
M  V30 17264 O 2282.74 -8.10074 3.01034 0
M  V30 17265 C 2285.02 -7.65514 3.2257 0
M  V30 17266 O 2285.75 -8.4329 2.32297 0
M  V30 17267 C 2284.35 -6.40075 2.62207 0
M  V30 17268 O 2285.15 -5.92492 1.53687 0
M  V30 17269 C 2283.01 -6.9454 2.18503 0
M  V30 17270 N 2281.97 -5.95905 2.39948 0
M  V30 17271 C 2282.03 -5.13994 3.44742 0
M  V30 17272 N 2280.98 -4.30684 3.46712 0
M  V30 17273 C 2280.25 -4.65583 2.41086 0
M  V30 17274 C 2278.94 -4.20877 1.99581 0
M  V30 17275 O 2278.21 -3.35913 2.52616 0
M  V30 17276 N 2278.51 -4.83271 0.873406 0
M  V30 17277 C 2279.26 -5.82006 0.185129 0
M  V30 17278 N 2278.67 -6.30619 -0.95439 0
M  V30 17279 N 2280.42 -6.28443 0.578524 0
M  V30 17280 C 2280.87 -5.68486 1.70138 0
M  V30 17281 H 2283.04 -7.23063 1.12091 0
M  V30 17282 H 2284.23 -5.60165 3.3715 0
M  V30 17283 H 2285.71 -7.3611 4.01946 0
M  V30 17284 H 2284.02 -9.40912 3.9095 0
M  V30 17285 H 2283.83 -8.29056 5.99158 0
M  V30 17286 H 2282.19 -8.10073 5.25882 0
M  V30 17287 H 2277.62 -4.58323 0.505262 0
M  V30 17288 H 2282.83 -5.14564 4.1935 0
M  V30 17289 H 2277.76 -5.93402 -1.25364 0
M  V30 17290 H 2279.13 -7.0425 -1.50254 0
M  V30 17291 H 2284.84 -6.30224 0.72668 0
M  V30 17292 P 2286.69 -8.4349 2.47671 0
M  V30 17293 O 2288.11 -8.94167 2.5964 0
M  V30 17294 O 2286.33 -7.1704 3.19006 0
M  V30 17295 O 2286.37 -8.16596 0.923387 0
M  V30 17296 C 2286.21 -9.38437 0.108857 0
M  V30 17297 C 2286.75 -9.08175 -1.28353 0
M  V30 17298 O 2285.69 -8.44229 -1.84713 0
M  V30 17299 C 2287.97 -8.18386 -1.42505 0
M  V30 17300 O 2288.7 -8.3501 -2.60497 0
M  V30 17301 C 2287.3 -6.80225 -1.25468 0
M  V30 17302 O 2288.1 -5.81621 -1.91066 0
M  V30 17303 C 2285.96 -7.02416 -1.9168 0
M  V30 17304 H 2285.99 -6.6888 -2.96621 0
M  V30 17305 H 2287.18 -6.53617 -0.192223 0
M  V30 17306 H 2288.66 -8.36622 -0.589963 0
M  V30 17307 H 2286.97 -10.0291 -1.79807 0
M  V30 17308 H 2286.78 -10.2138 0.558219 0
M  V30 17309 H 2285.15 -9.6579 0.0444202 0
M  V30 17310 H 2287.78 -5.69556 -2.79637 0
M  V30 17311 P 2289.64 -8.4349 -2.47671 0
M  V30 17312 O 2291.06 -8.92593 -2.65 0
M  V30 17313 O 2289.28 -7.7568 -1.19296 0
M  V30 17314 O 2289.32 -7.36886 -3.63805 0
M  V30 17315 C 2289.16 -7.95349 -4.982 0
M  V30 17316 C 2289.7 -6.94612 -5.98974 0
M  V30 17317 O 2288.64 -6.10347 -6.11815 0
M  V30 17318 C 2290.92 -6.11426 -5.62335 0
M  V30 17319 O 2291.66 -5.6162 -6.70584 0
M  V30 17320 C 2290.25 -5.04409 -4.73308 0
M  V30 17321 O 2291.05 -3.85992 -4.75183 0
M  V30 17322 C 2288.91 -4.8728 -5.41006 0
M  V30 17323 H 2288.94 -4.02333 -6.11157 0
M  V30 17324 H 2290.13 -5.39466 -3.69543 0
M  V30 17325 H 2291.61 -6.71916 -5.01943 0
M  V30 17326 H 2289.92 -7.4649 -6.93477 0
M  V30 17327 H 2289.73 -8.89416 -5.05237 0
M  V30 17328 H 2288.1 -8.14876 -5.18409 0
M  V30 17329 H 2290.74 -3.27957 -5.4317 0
M  V30 17330 P 2292.59 -5.75688 -6.64379 0
M  V30 17331 O 2294.01 -6.07627 -7.05504 0
M  V30 17332 O 2292.23 -5.88047 -5.19722 0
M  V30 17333 O 2292.27 -4.2322 -7.04443 0
M  V30 17334 C 2292.11 -3.99743 -8.4911 0
M  V30 17335 C 2292.65 -2.60516 -8.79425 0
M  V30 17336 O 2291.59 -1.82684 -8.4467 0
M  V30 17337 C 2293.87 -2.10343 -8.03628 0
M  V30 17338 O 2294.61 -1.09919 -8.67766 0
M  V30 17339 C 2293.2 -1.68446 -6.70876 0
M  V30 17340 O 2294 -0.678137 -6.08433 0
M  V30 17341 C 2291.86 -1.17436 -7.18567 0
M  V30 17342 H 2291.89 -0.0804732 -7.31656 0
M  V30 17343 H 2293.08 -2.54037 -6.02537 0
M  V30 17344 H 2294.56 -2.93881 -7.85526 0
M  V30 17345 H 2292.87 -2.53065 -9.86973 0
M  V30 17346 H 2292.68 -4.75072 -9.05887 0
M  V30 17347 H 2291.05 -4.05244 -8.76668 0
M  V30 17348 H 2293.69 0.177647 -6.34251 0
M  V30 17349 P 2295.54 -1.25109 -8.70152 0
M  V30 17350 O 2296.96 -1.29758 -9.22115 0
M  V30 17351 O 2295.18 -2.13714 -7.55141 0
M  V30 17352 O 2295.22 0.248149 -8.21425 0
M  V30 17353 C 2295.06 1.22792 -9.30533 0
M  V30 17354 C 2295.6 2.56293 -8.80664 0
M  V30 17355 O 2294.55 3.02944 -8.09255 0
M  V30 17356 C 2296.82 2.57523 -7.89775 0
M  V30 17357 O 2297.56 3.7668 -7.89438 0
M  V30 17358 C 2296.15 2.20997 -6.55446 0
M  V30 17359 O 2296.95 2.71302 -5.48691 0
M  V30 17360 C 2294.81 2.89693 -6.67988 0
M  V30 17361 N 2293.77 2.08895 -6.07487 0
M  V30 17362 C 2293.94 0.753809 -5.94137 0
M  V30 17363 N 2292.91 0.146592 -5.38801 0
M  V30 17364 C 2292.03 1.1768 -5.13693 0
M  V30 17365 C 2290.76 1.17563 -4.52477 0
M  V30 17366 N 2290.16 0.057481 -4.04759 0
M  V30 17367 N 2290.19 2.41918 -4.45789 0
M  V30 17368 C 2290.8 3.56493 -4.90792 0
M  V30 17369 N 2291.97 3.61423 -5.47817 0
M  V30 17370 C 2292.55 2.37779 -5.5588 0
M  V30 17371 H 2294.84 3.8874 -6.19774 0
M  V30 17372 H 2296.03 1.12673 -6.44018 0
M  V30 17373 H 2297.51 1.7746 -8.19711 0
M  V30 17374 H 2295.82 3.21673 -9.66791 0
M  V30 17375 H 2295.63 0.901032 -10.1892 0
M  V30 17376 H 2294 1.33049 -9.56592 0
M  V30 17377 H 2290.26 4.49919 -4.77947 0
M  V30 17378 H 2294.84 0.233081 -6.26266 0
M  V30 17379 H 2289.23 0.119831 -3.60801 0
M  V30 17380 H 2290.63 -0.852272 -4.12385 0
M  V30 17381 H 2296.64 3.5779 -5.23879 0
M  V30 17382 P 2298.49 3.65191 -7.99657 0
M  V30 17383 O 2299.92 3.89332 -8.45794 0
M  V30 17384 O 2298.13 2.28472 -7.50807 0
M  V30 17385 O 2298.17 4.64972 -6.77611 0
M  V30 17386 C 2298.01 6.06319 -7.16352 0
M  V30 17387 C 2298.55 6.91731 -6.02299 0
M  V30 17388 O 2297.5 6.92449 -5.17064 0
M  V30 17389 C 2299.77 6.43627 -5.25174 0
M  V30 17390 O 2300.51 7.43686 -4.60469 0
M  V30 17391 C 2299.1 5.40275 -4.31916 0
M  V30 17392 O 2299.9 5.25279 -3.14438 0
M  V30 17393 C 2297.76 6.04847 -4.05327 0
M  V30 17394 H 2297.8 6.62195 -3.11261 0
M  V30 17395 H 2298.98 4.42556 -4.81383 0
M  V30 17396 H 2300.46 5.92458 -5.93643 0
M  V30 17397 H 2298.77 7.92655 -6.402 0
M  V30 17398 H 2298.58 6.26671 -8.0846 0
M  V30 17399 H 2296.95 6.29101 -7.32804 0
M  V30 17400 H 2299.59 5.84315 -2.47318 0
M  V30 17401 P 2301.44 7.39546 -4.75277 0
M  V30 17402 O 2302.87 7.84798 -5.01039 0
M  V30 17403 O 2301.08 5.9812 -5.08098 0
M  V30 17404 O 2301.12 7.57503 -3.1866 0
M  V30 17405 C 2300.96 8.97357 -2.74833 0
M  V30 17406 C 2301.5 9.07548 -1.32709 0
M  V30 17407 O 2300.45 8.62072 -0.606159 0
M  V30 17408 C 2302.72 8.25383 -0.938334 0
M  V30 17409 O 2303.46 8.74577 0.146954 0
M  V30 17410 C 2302.05 6.8802 -0.712559 0
M  V30 17411 O 2302.85 6.1189 0.194655 0
M  V30 17412 C 2300.71 7.27966 -0.139777 0
M  V30 17413 H 2300.75 7.25354 0.961601 0
M  V30 17414 H 2301.93 6.32557 -1.65702 0
M  V30 17415 H 2303.41 8.19355 -1.79097 0
M  V30 17416 H 2301.72 10.1294 -1.10029 0
M  V30 17417 H 2301.53 9.64276 -3.41316 0
M  V30 17418 H 2299.9 9.25417 -2.76357 0
M  V30 17419 H 2302.54 6.25267 1.07847 0
M  V30 17420 P 2304.4 8.791 2.00229e-11 0
M  V30 17421 O 2305.82 9.31096 0.027933 0
M  V30 17422 O 2304.04 7.77869 -1.04071 0
M  V30 17423 O 2304.07 8.09533 1.41463 0
M  V30 17424 C 2303.91 9.0349 2.53943 0
M  V30 17425 C 2304.45 8.35226 3.79016 0
M  V30 17426 O 2303.4 7.57992 4.15078 0
M  V30 17427 C 2305.67 7.45087 3.67298 0
M  V30 17428 O 2306.41 7.27796 4.85194 0
M  V30 17429 C 2305 6.17323 3.12027 0
M  V30 17430 O 2305.8 5.04231 3.47188 0
M  V30 17431 C 2303.66 6.19961 3.81809 0
M  V30 17432 H 2303.7 5.58218 4.73051 0
M  V30 17433 H 2304.88 6.21726 2.02589 0
M  V30 17434 H 2306.36 7.86112 2.9231 0
M  V30 17435 H 2304.67 9.11627 4.55076 0
M  V30 17436 H 2304.48 9.9573 2.34194 0
M  V30 17437 H 2302.85 9.2792 2.67832 0
M  V30 17438 H 2305.49 4.67702 4.28772 0
M  V30 17439 P 2307.35 7.39546 4.75277 0
M  V30 17440 O 2308.77 7.81861 5.05793 0
M  V30 17441 O 2306.99 7.1065 3.32998 0
M  V30 17442 O 2307.02 6.04542 5.56673 0
M  V30 17443 C 2306.86 6.22839 7.02169 0
M  V30 17444 C 2307.4 4.97725 7.70406 0
M  V30 17445 O 2306.35 4.13208 7.58899 0
M  V30 17446 C 2308.62 4.28231 7.11815 0
M  V30 17447 O 2309.36 3.49945 8.01648 0
M  V30 17448 C 2307.95 3.5063 5.96244 0
M  V30 17449 O 2308.75 2.37008 5.64352 0
M  V30 17450 C 2306.61 3.15122 6.56374 0
M  V30 17451 N 2305.57 3.22311 5.55692 0
M  V30 17452 C 2305.74 3.99655 4.46046 0
M  V30 17453 N 2304.71 3.97599 3.63918 0
M  V30 17454 C 2303.83 3.11159 4.25334 0
M  V30 17455 C 2302.56 2.64972 3.85157 0
M  V30 17456 N 2302 1.78482 4.74759 0
M  V30 17457 C 2302.6 1.37463 5.90819 0
M  V30 17458 N 2303.78 1.7733 6.31889 0
M  V30 17459 C 2304.35 2.64393 5.43725 0
M  V30 17460 H 2307.83 4.12931 5.06895 0
M  V30 17461 H 2309.31 5.03285 6.70911 0
M  V30 17462 H 2307.62 5.20001 8.76217 0
M  V30 17463 H 2307.43 7.11046 7.35349 0
M  V30 17464 H 2305.8 6.35815 7.26986 0
M  V30 17465 H 2306.64 4.58037 4.27732 0
M  V30 17466 H 2308.44 1.61619 6.13468 0
M  V30 17467 P 2310.3 3.65191 7.99657 0
M  V30 17468 O 2311.72 3.8425 8.48115 0
M  V30 17469 O 2309.94 4.17805 6.64342 0
M  V30 17470 O 2309.97 2.07613 7.95143 0
M  V30 17471 C 2309.81 1.44328 9.27336 0
M  V30 17472 C 2310.35 0.0220036 9.17197 0
M  V30 17473 O 2309.3 -0.626867 8.61923 0
M  V30 17474 C 2311.57 -0.24586 8.30336 0
M  V30 17475 O 2312.31 -1.39011 8.63583 0
M  V30 17476 C 2310.9 -0.273849 6.91158 0
M  V30 17477 O 2311.7 -1.06348 6.02892 0
M  V30 17478 C 2309.57 -0.897649 7.22545 0
M  V30 17479 H 2309.6 -1.9841 7.04286 0
M  V30 17480 H 2310.78 0.739928 6.497 0
M  V30 17481 H 2312.26 0.60668 8.36503 0
M  V30 17482 H 2310.57 -0.352479 10.1829 0
M  V30 17483 H 2310.38 2.00611 10.0304 0
M  V30 17484 H 2308.75 1.41843 9.55327 0
M  V30 17485 H 2311.39 -1.95734 6.03555 0
M  V30 17486 P 2313.25 -1.25109 8.70152 0
M  V30 17487 O 2314.67 -1.35274 9.21221 0
M  V30 17488 O 2312.89 -0.0769065 7.84762 0
M  V30 17489 O 2312.92 -2.55232 7.81161 0
M  V30 17490 C 2312.76 -3.79939 8.58154 0
M  V30 17491 C 2313.3 -4.94023 7.72785 0
M  V30 17492 O 2312.25 -5.18726 6.91205 0
M  V30 17493 C 2314.52 -4.69597 6.85231 0
M  V30 17494 O 2315.26 -5.83832 6.51337 0
M  V30 17495 C 2313.85 -3.96706 5.66633 0
M  V30 17496 O 2314.65 -4.15414 4.49689 0
M  V30 17497 C 2312.52 -4.66153 5.59313 0
M  V30 17498 H 2312.55 -5.47679 4.85214 0
M  V30 17499 H 2313.73 -2.89008 5.86566 0
M  V30 17500 H 2315.21 -4.0121 7.36511 0
M  V30 17501 H 2313.52 -5.80182 8.37584 0
M  V30 17502 H 2313.33 -3.73517 9.52265 0
M  V30 17503 H 2311.7 -3.97163 8.80359 0
M  V30 17504 H 2314.34 -4.90969 4.01921 0
M  V30 17505 P 2316.2 -5.75688 6.64379 0
M  V30 17506 O 2317.62 -6.11849 7.01846 0
M  V30 17507 O 2315.84 -4.30744 6.56026 0
M  V30 17508 O 2315.87 -6.37042 5.19165 0
M  V30 17509 C 2315.71 -7.83578 5.16515 0
M  V30 17510 C 2316.25 -8.33398 3.83019 0
M  V30 17511 O 2315.2 -8.10074 3.01034 0
M  V30 17512 C 2317.47 -7.65514 3.2257 0
M  V30 17513 O 2318.21 -8.4329 2.32297 0
M  V30 17514 C 2316.8 -6.40075 2.62207 0
M  V30 17515 O 2317.6 -5.92589 1.53712 0
M  V30 17516 C 2315.47 -6.9454 2.18503 0
M  V30 17517 H 2315.5 -7.23063 1.12091 0
M  V30 17518 H 2316.68 -5.6025 3.37201 0
M  V30 17519 H 2318.17 -7.35707 4.02681 0
M  V30 17520 H 2316.47 -9.40912 3.9095 0
M  V30 17521 H 2316.28 -8.29056 5.99158 0
M  V30 17522 H 2314.65 -8.10073 5.25882 0
M  V30 17523 H 2317.29 -6.30324 0.726794 0
M  V30 17524 P 2319.15 -8.4349 2.47671 0
M  V30 17525 O 2320.57 -8.94167 2.5964 0
M  V30 17526 O 2318.79 -7.1704 3.19006 0
M  V30 17527 O 2318.83 -8.16596 0.923387 0
M  V30 17528 C 2318.67 -9.38437 0.108857 0
M  V30 17529 C 2319.21 -9.08175 -1.28353 0
M  V30 17530 O 2318.15 -8.44229 -1.84713 0
M  V30 17531 C 2320.42 -8.18386 -1.42505 0
M  V30 17532 O 2321.16 -8.3501 -2.60497 0
M  V30 17533 C 2319.75 -6.80225 -1.25468 0
M  V30 17534 O 2320.55 -5.81621 -1.91066 0
M  V30 17535 C 2318.42 -7.02416 -1.9168 0
M  V30 17536 H 2318.45 -6.6888 -2.96621 0
M  V30 17537 H 2319.63 -6.53617 -0.192223 0
M  V30 17538 H 2321.12 -8.36622 -0.589963 0
M  V30 17539 H 2319.42 -10.0291 -1.79807 0
M  V30 17540 H 2319.23 -10.2138 0.558219 0
M  V30 17541 H 2317.6 -9.6579 0.0444202 0
M  V30 17542 H 2320.24 -5.69556 -2.79637 0
M  V30 17543 P 2322.1 -8.4349 -2.47671 0
M  V30 17544 O 2323.52 -8.92785 -2.65057 0
M  V30 17545 O 2321.74 -7.7568 -1.19296 0
M  V30 17546 O 2321.78 -7.36886 -3.63805 0
M  V30 17547 C 2321.62 -7.95349 -4.982 0
M  V30 17548 C 2322.16 -6.94537 -5.98908 0
M  V30 17549 O 2321.1 -6.10347 -6.11815 0
M  V30 17550 C 2323.37 -6.11426 -5.62335 0
M  V30 17551 O 2324.11 -5.6162 -6.70584 0
M  V30 17552 C 2322.71 -5.04409 -4.73308 0
M  V30 17553 O 2323.5 -3.85929 -4.75106 0
M  V30 17554 C 2321.37 -4.8728 -5.41006 0
M  V30 17555 N 2320.32 -4.65812 -4.42377 0
M  V30 17556 C 2320.39 -5.27109 -3.24335 0
M  V30 17557 N 2319.34 -4.94293 -2.47735 0
M  V30 17558 C 2318.61 -4.1271 -3.23359 0
M  V30 17559 C 2317.3 -3.56384 -2.99934 0
M  V30 17560 O 2316.57 -3.69331 -2.00616 0
M  V30 17561 N 2316.87 -2.80206 -4.03316 0
M  V30 17562 C 2317.62 -2.58614 -5.2172 0
M  V30 17563 N 2317.02 -1.75154 -6.13278 0
M  V30 17564 N 2318.77 -3.13689 -5.47619 0
M  V30 17565 C 2319.23 -3.90921 -4.46436 0
M  V30 17566 H 2321.4 -4.02333 -6.11157 0
M  V30 17567 H 2322.58 -5.39383 -3.69487 0
M  V30 17568 H 2324.07 -6.71414 -5.02615 0
M  V30 17569 H 2322.37 -7.4649 -6.93477 0
M  V30 17570 H 2322.18 -8.89416 -5.05237 0
M  V30 17571 H 2320.55 -8.14876 -5.18409 0
M  V30 17572 H 2315.98 -2.36355 -3.95916 0
M  V30 17573 H 2321.18 -5.95212 -2.93859 0
M  V30 17574 H 2316.11 -1.32473 -5.91856 0
M  V30 17575 H 2317.49 -1.5588 -7.03026 0
M  V30 17576 H 2323.19 -3.27906 -5.43085 0
M  V30 17577 P 2325.05 -5.75688 -6.64379 0
M  V30 17578 O 2326.47 -6.07627 -7.05504 0
M  V30 17579 O 2324.69 -5.88047 -5.19722 0
M  V30 17580 O 2324.73 -4.2322 -7.04443 0
M  V30 17581 C 2324.57 -3.99743 -8.4911 0
M  V30 17582 C 2325.11 -2.60516 -8.79425 0
M  V30 17583 O 2324.05 -1.82684 -8.4467 0
M  V30 17584 C 2326.32 -2.10343 -8.03628 0
M  V30 17585 O 2327.06 -1.09919 -8.67766 0
M  V30 17586 C 2325.66 -1.68446 -6.70876 0
M  V30 17587 O 2326.45 -0.678137 -6.08433 0
M  V30 17588 C 2324.32 -1.17436 -7.18567 0
M  V30 17589 H 2324.35 -0.0804732 -7.31656 0
M  V30 17590 H 2325.53 -2.54037 -6.02537 0
M  V30 17591 H 2327.02 -2.93881 -7.85526 0
M  V30 17592 H 2325.32 -2.53065 -9.86973 0
M  V30 17593 H 2325.13 -4.75072 -9.05887 0
M  V30 17594 H 2323.5 -4.05244 -8.76668 0
M  V30 17595 H 2326.14 0.177647 -6.34251 0
M  V30 17596 P 2328 -1.25109 -8.70152 0
M  V30 17597 O 2329.4 -1.3516 -9.26897 0
M  V30 17598 O 2327.62 -2.18141 -7.59181 0
M  V30 17599 O 2327.68 0.248118 -8.21325 0
M  V30 17600 C 2327.52 1.22779 -9.30434 0
M  V30 17601 C 2328.06 2.56265 -8.80568 0
M  V30 17602 O 2327 3.02944 -8.09255 0
M  V30 17603 C 2329.27 2.57523 -7.89775 0
M  V30 17604 O 2330.01 3.7668 -7.89438 0
M  V30 17605 C 2328.61 2.20997 -6.55446 0
M  V30 17606 O 2329.4 2.71851 -5.48419 0
M  V30 17607 C 2327.27 2.89693 -6.67988 0
M  V30 17608 N 2326.23 2.08895 -6.07487 0
M  V30 17609 C 2325.19 2.72974 -5.43836 0
M  V30 17610 O 2325.23 3.97779 -5.34036 0
M  V30 17611 N 2324.18 2.0005 -4.91983 0
M  V30 17612 C 2324.23 0.66501 -5.00098 0
M  V30 17613 C 2325.32 -0.0100979 -5.61099 0
M  V30 17614 C 2326.29 0.74189 -6.14236 0
M  V30 17615 H 2327.3 3.8874 -6.19774 0
M  V30 17616 H 2328.48 1.12673 -6.44018 0
M  V30 17617 H 2329.97 1.783 -8.19631 0
M  V30 17618 H 2328.27 3.21673 -9.66791 0
M  V30 17619 H 2328.08 0.901032 -10.1892 0
M  V30 17620 H 2326.45 1.33036 -9.56493 0
M  V30 17621 H 2325.37 -1.09591 -5.64358 0
M  V30 17622 H 2327.13 0.260263 -6.6359 0
M  V30 17623 H 2329.19 3.62759 -5.33442 0
M  V30 17624 P 2330.95 3.65191 -7.99657 0
M  V30 17625 O 2332.35 3.87414 -8.52829 0
M  V30 17626 O 2330.57 2.26932 -7.566 0
M  V30 17627 O 2330.63 4.64915 -6.77529 0
M  V30 17628 C 2330.47 6.06319 -7.16352 0
M  V30 17629 C 2331.01 6.91655 -6.02234 0
M  V30 17630 O 2329.95 6.92369 -5.17005 0
M  V30 17631 C 2332.22 6.43627 -5.25174 0
M  V30 17632 O 2332.96 7.43686 -4.60469 0
M  V30 17633 C 2331.56 5.40275 -4.31916 0
M  V30 17634 O 2332.36 5.25193 -3.14386 0
M  V30 17635 C 2330.22 6.04847 -4.05327 0
M  V30 17636 N 2329.18 5.04166 -3.98114 0
M  V30 17637 C 2328.14 5.2366 -3.09923 0
M  V30 17638 O 2328.18 6.23355 -2.34204 0
M  V30 17639 N 2327.13 4.34279 -3.05727 0
M  V30 17640 C 2327.18 3.26317 -3.84756 0
M  V30 17641 C 2328.27 3.02504 -4.72573 0
M  V30 17642 C 2329.24 3.94493 -4.76618 0
M  V30 17643 H 2330.25 6.62104 -3.11218 0
M  V30 17644 H 2331.43 4.42969 -4.80867 0
M  V30 17645 H 2332.92 5.93122 -5.93121 0
M  V30 17646 H 2331.22 7.93295 -6.39407 0
M  V30 17647 H 2331.03 6.26671 -8.0846 0
M  V30 17648 H 2329.4 6.29036 -7.32728 0
M  V30 17649 H 2328.32 2.12921 -5.34017 0
M  V30 17650 H 2330.09 3.80658 -5.44176 0
M  V30 17651 H 2332.14 5.93572 -2.52637 0
M  V30 17652 P 2333.9 7.39546 -4.75277 0
M  V30 17653 O 2335.32 7.84798 -5.01039 0
M  V30 17654 O 2333.54 5.9812 -5.08098 0
M  V30 17655 O 2333.58 7.57503 -3.1866 0
M  V30 17656 C 2333.42 8.97357 -2.74833 0
M  V30 17657 C 2333.96 9.07548 -1.32709 0
M  V30 17658 O 2332.9 8.62072 -0.606159 0
M  V30 17659 C 2335.18 8.25383 -0.938334 0
M  V30 17660 O 2335.91 8.74577 0.146954 0
M  V30 17661 C 2334.51 6.8802 -0.712559 0
M  V30 17662 O 2335.31 6.1189 0.194655 0
M  V30 17663 C 2333.17 7.27966 -0.139777 0
M  V30 17664 H 2333.2 7.25354 0.961601 0
M  V30 17665 H 2334.38 6.32557 -1.65702 0
M  V30 17666 H 2335.87 8.19355 -1.79097 0
M  V30 17667 H 2334.17 10.1294 -1.10029 0
M  V30 17668 H 2333.98 9.64276 -3.41316 0
M  V30 17669 H 2332.35 9.25417 -2.76357 0
M  V30 17670 H 2334.99 6.25267 1.07847 0
M  V30 17671 P 2336.85 8.791 2.03331e-11 0
M  V30 17672 O 2338.27 9.31096 0.027933 0
M  V30 17673 O 2336.49 7.77869 -1.04071 0
M  V30 17674 O 2336.53 8.09533 1.41463 0
M  V30 17675 C 2336.37 9.0349 2.53943 0
M  V30 17676 C 2336.91 8.35226 3.79016 0
M  V30 17677 O 2335.85 7.57992 4.15078 0
M  V30 17678 C 2338.13 7.45087 3.67298 0
M  V30 17679 O 2338.86 7.27796 4.85194 0
M  V30 17680 C 2337.46 6.17323 3.12027 0
M  V30 17681 O 2338.26 5.04231 3.47188 0
M  V30 17682 C 2336.12 6.19961 3.81809 0
M  V30 17683 H 2336.15 5.58218 4.73051 0
M  V30 17684 H 2337.34 6.21726 2.02589 0
M  V30 17685 H 2338.82 7.86112 2.9231 0
M  V30 17686 H 2337.13 9.11627 4.55076 0
M  V30 17687 H 2336.94 9.9573 2.34194 0
M  V30 17688 H 2335.31 9.2792 2.67832 0
M  V30 17689 H 2337.94 4.67702 4.28772 0
M  V30 17690 P 2339.8 7.39546 4.75277 0
M  V30 17691 O 2341.22 7.81777 5.05738 0
M  V30 17692 O 2339.44 7.1065 3.32998 0
M  V30 17693 O 2339.48 6.04542 5.56673 0
M  V30 17694 C 2339.32 6.22772 7.02095 0
M  V30 17695 C 2339.86 4.97725 7.70406 0
M  V30 17696 O 2338.8 4.13256 7.58987 0
M  V30 17697 C 2341.08 4.28231 7.11815 0
M  V30 17698 O 2341.82 3.49945 8.01648 0
M  V30 17699 C 2340.41 3.5063 5.96244 0
M  V30 17700 O 2341.21 2.36482 5.64681 0
M  V30 17701 C 2339.07 3.15122 6.56374 0
M  V30 17702 H 2339.1 2.13853 6.99751 0
M  V30 17703 H 2340.29 4.13501 5.06559 0
M  V30 17704 H 2341.77 5.03285 6.70911 0
M  V30 17705 H 2340.08 5.20877 8.75697 0
M  V30 17706 H 2339.89 7.11046 7.35349 0
M  V30 17707 H 2338.26 6.35815 7.26986 0
M  V30 17708 H 2340.9 1.61644 6.13565 0
M  V30 17709 P 2342.75 3.65191 7.99657 0
M  V30 17710 O 2344.17 3.8425 8.48115 0
M  V30 17711 O 2342.39 4.17805 6.64342 0
M  V30 17712 O 2342.43 2.07613 7.95143 0
M  V30 17713 C 2342.27 1.44328 9.27336 0
M  V30 17714 C 2342.81 0.0220036 9.17197 0
M  V30 17715 O 2341.75 -0.626867 8.61923 0
M  V30 17716 C 2344.03 -0.24586 8.30336 0
M  V30 17717 O 2344.77 -1.39011 8.63583 0
M  V30 17718 C 2343.36 -0.273849 6.91158 0
M  V30 17719 O 2344.16 -1.06348 6.02892 0
M  V30 17720 C 2342.02 -0.897649 7.22545 0
M  V30 17721 H 2342.05 -1.9841 7.04286 0
M  V30 17722 H 2343.24 0.739928 6.497 0
M  V30 17723 H 2344.72 0.60668 8.36503 0
M  V30 17724 H 2343.03 -0.352479 10.1829 0
M  V30 17725 H 2342.84 2.00611 10.0304 0
M  V30 17726 H 2341.21 1.41843 9.55327 0
M  V30 17727 H 2343.85 -1.95734 6.03555 0
M  V30 17728 P 2345.7 -1.25109 8.70152 0
M  V30 17729 O 2347.12 -1.35288 9.2132 0
M  V30 17730 O 2345.34 -0.0769065 7.84762 0
M  V30 17731 O 2345.38 -2.55232 7.81161 0
M  V30 17732 C 2345.22 -3.79979 8.58246 0
M  V30 17733 C 2345.76 -4.94023 7.72785 0
M  V30 17734 O 2344.71 -5.18666 6.91125 0
M  V30 17735 C 2346.98 -4.69597 6.85231 0
M  V30 17736 O 2347.72 -5.83832 6.51337 0
M  V30 17737 C 2346.31 -3.96706 5.66633 0
M  V30 17738 O 2347.11 -4.14896 4.5003 0
M  V30 17739 C 2344.97 -4.66153 5.59313 0
M  V30 17740 N 2343.93 -3.71582 5.24027 0
M  V30 17741 C 2344.1 -2.39715 5.48833 0
M  V30 17742 N 2343.07 -1.65863 5.12845 0
M  V30 17743 C 2342.19 -2.57637 4.5973 0
M  V30 17744 C 2340.92 -2.40278 4.01027 0
M  V30 17745 N 2340.35 -3.57711 3.59575 0
M  V30 17746 C 2340.96 -4.80324 3.70476 0
M  V30 17747 N 2342.13 -5.01121 4.23801 0
M  V30 17748 C 2342.71 -3.84757 4.66372 0
M  V30 17749 H 2346.19 -2.8955 5.86187 0
M  V30 17750 H 2347.67 -4.0121 7.36511 0
M  V30 17751 H 2345.98 -5.81019 8.37003 0
M  V30 17752 H 2345.79 -3.73517 9.52265 0
M  V30 17753 H 2344.16 -3.97163 8.80359 0
M  V30 17754 H 2345 -1.98804 5.94332 0
M  V30 17755 H 2346.8 -4.90891 4.01857 0
M  V30 17756 P 2348.65 -5.75688 6.64379 0
M  V30 17757 O 2350.08 -6.11849 7.01846 0
M  V30 17758 O 2348.29 -4.30744 6.56026 0
M  V30 17759 O 2348.33 -6.37042 5.19165 0
M  V30 17760 C 2348.17 -7.83578 5.16515 0
M  V30 17761 C 2348.71 -8.33398 3.83019 0
M  V30 17762 O 2347.65 -8.10074 3.01034 0
M  V30 17763 C 2349.93 -7.65514 3.2257 0
M  V30 17764 O 2350.67 -8.4329 2.32297 0
M  V30 17765 C 2349.26 -6.40075 2.62207 0
M  V30 17766 O 2350.06 -5.92589 1.53712 0
M  V30 17767 C 2347.92 -6.9454 2.18503 0
M  V30 17768 H 2347.95 -7.23063 1.12091 0
M  V30 17769 H 2349.14 -5.6025 3.37201 0
M  V30 17770 H 2350.62 -7.35707 4.02681 0
M  V30 17771 H 2348.93 -9.40912 3.9095 0
M  V30 17772 H 2348.74 -8.29056 5.99158 0
M  V30 17773 H 2347.11 -8.10073 5.25882 0
M  V30 17774 H 2349.75 -6.30324 0.726794 0
M  V30 17775 P 2351.6 -8.4349 2.47671 0
M  V30 17776 O 2353.03 -8.94167 2.5964 0
M  V30 17777 O 2351.24 -7.1704 3.19006 0
M  V30 17778 O 2351.28 -8.16596 0.923387 0
M  V30 17779 C 2351.12 -9.38437 0.108857 0
M  V30 17780 C 2351.66 -9.08175 -1.28353 0
M  V30 17781 O 2350.61 -8.44229 -1.84713 0
M  V30 17782 C 2352.88 -8.18386 -1.42505 0
M  V30 17783 O 2353.62 -8.3501 -2.60497 0
M  V30 17784 C 2352.21 -6.80225 -1.25468 0
M  V30 17785 O 2353.01 -5.81621 -1.91066 0
M  V30 17786 C 2350.87 -7.02416 -1.9168 0
M  V30 17787 H 2350.91 -6.6888 -2.96621 0
M  V30 17788 H 2352.09 -6.53617 -0.192223 0
M  V30 17789 H 2353.57 -8.36622 -0.589963 0
M  V30 17790 H 2351.88 -10.0291 -1.79807 0
M  V30 17791 H 2351.69 -10.2138 0.558219 0
M  V30 17792 H 2350.06 -9.6579 0.0444202 0
M  V30 17793 H 2352.7 -5.69556 -2.79637 0
M  V30 17794 P 2354.55 -8.4349 -2.47671 0
M  V30 17795 O 2355.98 -8.92593 -2.65 0
M  V30 17796 O 2354.19 -7.7568 -1.19296 0
M  V30 17797 O 2354.23 -7.36886 -3.63805 0
M  V30 17798 C 2354.07 -7.95349 -4.982 0
M  V30 17799 C 2354.61 -6.94612 -5.98974 0
M  V30 17800 O 2353.56 -6.10347 -6.11815 0
M  V30 17801 C 2355.83 -6.11426 -5.62335 0
M  V30 17802 O 2356.57 -5.6162 -6.70584 0
M  V30 17803 C 2355.16 -5.04409 -4.73308 0
M  V30 17804 O 2355.96 -3.85992 -4.75183 0
M  V30 17805 C 2353.82 -4.8728 -5.41006 0
M  V30 17806 H 2353.86 -4.02333 -6.11157 0
M  V30 17807 H 2355.04 -5.39466 -3.69543 0
M  V30 17808 H 2356.52 -6.71916 -5.01943 0
M  V30 17809 H 2354.83 -7.4649 -6.93477 0
M  V30 17810 H 2354.64 -8.89416 -5.05237 0
M  V30 17811 H 2353.01 -8.14876 -5.18409 0
M  V30 17812 H 2355.65 -3.27957 -5.4317 0
M  V30 17813 P 2357.51 -5.75688 -6.64379 0
M  V30 17814 O 2358.93 -6.07627 -7.05504 0
M  V30 17815 O 2357.15 -5.88047 -5.19722 0
M  V30 17816 O 2357.18 -4.2322 -7.04443 0
M  V30 17817 C 2357.02 -3.99743 -8.4911 0
M  V30 17818 C 2357.56 -2.60516 -8.79425 0
M  V30 17819 O 2356.51 -1.82684 -8.4467 0
M  V30 17820 C 2358.78 -2.10343 -8.03628 0
M  V30 17821 O 2359.52 -1.09919 -8.67766 0
M  V30 17822 C 2358.11 -1.68446 -6.70876 0
M  V30 17823 O 2358.91 -0.678137 -6.08433 0
M  V30 17824 C 2356.77 -1.17436 -7.18567 0
M  V30 17825 H 2356.81 -0.0804732 -7.31656 0
M  V30 17826 H 2357.99 -2.54037 -6.02537 0
M  V30 17827 H 2359.47 -2.93881 -7.85526 0
M  V30 17828 H 2357.78 -2.53065 -9.86973 0
M  V30 17829 H 2357.59 -4.75072 -9.05887 0
M  V30 17830 H 2355.96 -4.05244 -8.76668 0
M  V30 17831 H 2358.6 0.177647 -6.34251 0
M  V30 17832 P 2360.46 -1.25109 -8.70152 0
M  V30 17833 O 2361.88 -1.29772 -9.22214 0
M  V30 17834 O 2360.1 -2.13714 -7.55141 0
M  V30 17835 O 2360.13 0.248149 -8.21425 0
M  V30 17836 C 2359.97 1.22779 -9.30434 0
M  V30 17837 C 2360.51 2.56265 -8.80568 0
M  V30 17838 O 2359.46 3.02979 -8.09349 0
M  V30 17839 C 2361.73 2.57523 -7.89775 0
M  V30 17840 O 2362.47 3.7668 -7.89438 0
M  V30 17841 C 2361.06 2.20997 -6.55446 0
M  V30 17842 O 2361.86 2.71851 -5.48419 0
M  V30 17843 C 2359.72 2.89693 -6.67988 0
M  V30 17844 N 2358.68 2.08895 -6.07487 0
M  V30 17845 C 2358.74 0.760559 -6.14209 0
M  V30 17846 N 2357.7 0.200108 -5.52538 0
M  V30 17847 C 2356.96 1.22692 -5.09742 0
M  V30 17848 C 2355.66 1.24782 -4.48775 0
M  V30 17849 O 2354.93 0.290617 -4.19294 0
M  V30 17850 N 2355.23 2.50468 -4.22428 0
M  V30 17851 C 2355.98 3.67142 -4.51974 0
M  V30 17852 N 2355.38 4.85096 -4.14091 0
M  V30 17853 N 2357.13 3.67821 -5.12831 0
M  V30 17854 C 2357.59 2.43698 -5.4105 0
M  V30 17855 H 2359.76 3.88793 -6.19859 0
M  V30 17856 H 2360.94 1.12029 -6.4413 0
M  V30 17857 H 2362.42 1.78279 -8.19533 0
M  V30 17858 H 2360.73 3.20706 -9.67112 0
M  V30 17859 H 2360.54 0.901032 -10.1892 0
M  V30 17860 H 2358.91 1.33049 -9.56592 0
M  V30 17861 H 2354.33 2.61953 -3.79465 0
M  V30 17862 H 2359.54 0.200439 -6.63497 0
M  V30 17863 H 2354.47 4.8334 -3.66367 0
M  V30 17864 H 2355.85 5.7474 -4.33841 0
M  V30 17865 H 2361.55 3.5779 -5.23879 0
M  V30 17866 P 2363.41 3.65191 -7.99657 0
M  V30 17867 O 2364.83 3.89374 -8.45885 0
M  V30 17868 O 2363.05 2.28472 -7.50807 0
M  V30 17869 O 2363.08 4.64972 -6.77611 0
M  V30 17870 C 2362.92 6.06383 -7.16428 0
M  V30 17871 C 2363.46 6.91731 -6.02299 0
M  V30 17872 O 2362.41 6.92369 -5.17005 0
M  V30 17873 C 2364.68 6.43627 -5.25174 0
M  V30 17874 O 2365.42 7.43686 -4.60469 0
M  V30 17875 C 2364.01 5.40275 -4.31916 0
M  V30 17876 O 2364.81 5.24878 -3.14911 0
M  V30 17877 C 2362.68 6.04847 -4.05327 0
M  V30 17878 N 2361.63 5.04166 -3.98114 0
M  V30 17879 C 2361.8 3.84629 -4.59066 0
M  V30 17880 N 2360.77 3.0363 -4.45343 0
M  V30 17881 C 2359.89 3.76722 -3.68523 0
M  V30 17882 C 2358.62 3.43528 -3.17088 0
M  V30 17883 N 2358.02 2.23665 -3.37397 0
M  V30 17884 N 2358.06 4.44526 -2.44231 0
M  V30 17885 C 2358.66 5.65243 -2.20146 0
M  V30 17886 N 2359.84 6.00221 -2.65453 0
M  V30 17887 C 2360.41 5.00564 -3.39083 0
M  V30 17888 H 2362.71 6.62104 -3.11218 0
M  V30 17889 H 2363.89 4.42969 -4.80867 0
M  V30 17890 H 2365.37 5.92458 -5.93643 0
M  V30 17891 H 2363.68 7.93295 -6.39407 0
M  V30 17892 H 2363.49 6.26671 -8.0846 0
M  V30 17893 H 2361.86 6.29101 -7.32804 0
M  V30 17894 H 2358.12 6.36894 -1.5883 0
M  V30 17895 H 2362.7 3.58193 -5.14248 0
M  V30 17896 H 2357.09 2.05145 -2.97047 0
M  V30 17897 H 2358.5 1.51255 -3.92998 0
M  V30 17898 H 2364.5 5.84223 -2.47279 0
M  V30 17899 P 2366.36 7.39546 -4.75277 0
M  V30 17900 O 2367.78 7.84966 -5.01146 0
M  V30 17901 O 2366 5.9812 -5.08098 0
M  V30 17902 O 2366.03 7.57503 -3.1866 0
M  V30 17903 C 2365.87 8.97357 -2.74833 0
M  V30 17904 C 2366.41 9.0745 -1.32694 0
M  V30 17905 O 2365.36 8.62072 -0.606159 0
M  V30 17906 C 2367.63 8.25383 -0.938334 0
M  V30 17907 O 2368.37 8.74577 0.146954 0
M  V30 17908 C 2366.96 6.8802 -0.712559 0
M  V30 17909 O 2367.76 6.11791 0.194623 0
M  V30 17910 C 2365.63 7.27966 -0.139777 0
M  V30 17911 N 2364.58 6.39368 -0.623421 0
M  V30 17912 C 2364.65 5.90299 -1.85969 0
M  V30 17913 N 2363.6 5.10919 -2.1133 0
M  V30 17914 C 2362.87 5.14646 -1.0015 0
M  V30 17915 C 2361.56 4.60057 -0.729219 0
M  V30 17916 O 2360.83 3.93476 -1.47746 0
M  V30 17917 N 2361.13 4.88302 0.523505 0
M  V30 17918 C 2361.88 5.63646 1.46207 0
M  V30 17919 N 2361.28 5.78186 2.69239 0
M  V30 17920 N 2363.03 6.19285 1.21544 0
M  V30 17921 C 2363.49 5.93392 -0.0308487 0
M  V30 17922 H 2365.66 7.25354 0.961601 0
M  V30 17923 H 2366.84 6.3246 -1.65676 0
M  V30 17924 H 2368.33 8.19533 -1.78278 0
M  V30 17925 H 2366.63 10.1294 -1.10029 0
M  V30 17926 H 2366.44 9.64276 -3.41316 0
M  V30 17927 H 2364.81 9.25417 -2.76357 0
M  V30 17928 H 2360.23 4.53993 0.806451 0
M  V30 17929 H 2365.44 6.11865 -2.57394 0
M  V30 17930 H 2360.37 5.34046 2.87467 0
M  V30 17931 H 2361.75 6.33391 3.42578 0
M  V30 17932 H 2367.45 6.25169 1.0783 0
M  V30 17933 P 2369.31 8.791 2.06433e-11 0
M  V30 17934 O 2370.73 9.31096 0.027933 0
M  V30 17935 O 2368.95 7.77869 -1.04071 0
M  V30 17936 O 2368.98 8.09533 1.41463 0
M  V30 17937 C 2368.82 9.0349 2.53943 0
M  V30 17938 C 2369.36 8.35226 3.79016 0
M  V30 17939 O 2368.31 7.57992 4.15078 0
M  V30 17940 C 2370.58 7.45087 3.67298 0
M  V30 17941 O 2371.32 7.27796 4.85194 0
M  V30 17942 C 2369.91 6.17323 3.12027 0
M  V30 17943 O 2370.71 5.04231 3.47188 0
M  V30 17944 C 2368.58 6.19961 3.81809 0
M  V30 17945 H 2368.61 5.58218 4.73051 0
M  V30 17946 H 2369.79 6.21726 2.02589 0
M  V30 17947 H 2371.28 7.86112 2.9231 0
M  V30 17948 H 2369.58 9.11627 4.55076 0
M  V30 17949 H 2369.39 9.9573 2.34194 0
M  V30 17950 H 2367.76 9.2792 2.67832 0
M  V30 17951 H 2370.4 4.67702 4.28772 0
M  V30 17952 P 2372.26 7.39546 4.75277 0
M  V30 17953 O 2373.68 7.81777 5.05738 0
M  V30 17954 O 2371.9 7.1065 3.32998 0
M  V30 17955 O 2371.94 6.04542 5.56673 0
M  V30 17956 C 2371.78 6.22772 7.02095 0
M  V30 17957 C 2372.32 4.97725 7.70406 0
M  V30 17958 O 2371.26 4.13256 7.58987 0
M  V30 17959 C 2373.53 4.28231 7.11815 0
M  V30 17960 O 2374.27 3.49945 8.01648 0
M  V30 17961 C 2372.86 3.5063 5.96244 0
M  V30 17962 O 2373.66 2.36482 5.64681 0
M  V30 17963 C 2371.53 3.15122 6.56374 0
M  V30 17964 H 2371.56 2.13853 6.99751 0
M  V30 17965 H 2372.74 4.13501 5.06559 0
M  V30 17966 H 2374.23 5.03285 6.70911 0
M  V30 17967 H 2372.53 5.20877 8.75697 0
M  V30 17968 H 2372.34 7.11046 7.35349 0
M  V30 17969 H 2370.71 6.35815 7.26986 0
M  V30 17970 H 2373.35 1.61644 6.13565 0
M  V30 17971 P 2375.21 3.65191 7.99657 0
M  V30 17972 O 2376.63 3.8425 8.48115 0
M  V30 17973 O 2374.85 4.17805 6.64342 0
M  V30 17974 O 2374.89 2.07613 7.95143 0
M  V30 17975 C 2374.73 1.44328 9.27336 0
M  V30 17976 C 2375.27 0.0220036 9.17197 0
M  V30 17977 O 2374.21 -0.626867 8.61923 0
M  V30 17978 C 2376.48 -0.24586 8.30336 0
M  V30 17979 O 2377.22 -1.39011 8.63583 0
M  V30 17980 C 2375.81 -0.273849 6.91158 0
M  V30 17981 O 2376.61 -1.06348 6.02892 0
M  V30 17982 C 2374.48 -0.897649 7.22545 0
M  V30 17983 H 2374.51 -1.9841 7.04286 0
M  V30 17984 H 2375.69 0.739928 6.497 0
M  V30 17985 H 2377.18 0.60668 8.36503 0
M  V30 17986 H 2375.48 -0.352479 10.1829 0
M  V30 17987 H 2375.29 2.00611 10.0304 0
M  V30 17988 H 2373.66 1.41843 9.55327 0
M  V30 17989 H 2376.3 -1.95734 6.03555 0
M  V30 17990 P 2378.16 -1.25109 8.70152 0
M  V30 17991 O 2379.58 -1.35288 9.2132 0
M  V30 17992 O 2377.8 -0.0769065 7.84762 0
M  V30 17993 O 2377.84 -2.55232 7.81161 0
M  V30 17994 C 2377.68 -3.79979 8.58246 0
M  V30 17995 C 2378.22 -4.94023 7.72785 0
M  V30 17996 O 2377.16 -5.18666 6.91125 0
M  V30 17997 C 2379.43 -4.69597 6.85231 0
M  V30 17998 O 2380.17 -5.83832 6.51337 0
M  V30 17999 C 2378.77 -3.96706 5.66633 0
M  V30 18000 O 2379.56 -4.14896 4.5003 0
M  V30 18001 C 2377.43 -4.66153 5.59313 0
M  V30 18002 N 2376.39 -3.71582 5.24027 0
M  V30 18003 C 2376.55 -2.39715 5.48833 0
M  V30 18004 N 2375.53 -1.65863 5.12845 0
M  V30 18005 C 2374.64 -2.57637 4.5973 0
M  V30 18006 C 2373.38 -2.40278 4.01027 0
M  V30 18007 N 2372.78 -1.19549 3.86744 0
M  V30 18008 N 2372.81 -3.57711 3.59575 0
M  V30 18009 C 2373.41 -4.80324 3.70476 0
M  V30 18010 N 2374.59 -5.01121 4.23801 0
M  V30 18011 C 2375.16 -3.84757 4.66372 0
M  V30 18012 H 2377.46 -5.47604 4.85148 0
M  V30 18013 H 2378.64 -2.8955 5.86187 0
M  V30 18014 H 2380.13 -4.0121 7.36511 0
M  V30 18015 H 2378.43 -5.81019 8.37003 0
M  V30 18016 H 2378.24 -3.73517 9.52265 0
M  V30 18017 H 2376.61 -3.97163 8.80359 0
M  V30 18018 H 2372.88 -5.66348 3.3183 0
M  V30 18019 H 2377.45 -1.98804 5.94332 0
M  V30 18020 H 2371.85 -1.13147 3.4281 0
M  V30 18021 H 2373.25 -0.344074 4.19692 0
M  V30 18022 H 2379.25 -4.90891 4.01857 0
M  V30 18023 P 2381.11 -5.75688 6.64379 0
M  V30 18024 O 2382.53 -6.11849 7.01846 0
M  V30 18025 O 2380.75 -4.30744 6.56026 0
M  V30 18026 O 2380.79 -6.37042 5.19165 0
M  V30 18027 C 2380.63 -7.83578 5.16515 0
M  V30 18028 C 2381.17 -8.33398 3.83019 0
M  V30 18029 O 2380.11 -8.10074 3.01034 0
M  V30 18030 C 2382.38 -7.65514 3.2257 0
M  V30 18031 O 2383.12 -8.4329 2.32297 0
M  V30 18032 C 2381.72 -6.40075 2.62207 0
M  V30 18033 O 2382.51 -5.92589 1.53712 0
M  V30 18034 C 2380.38 -6.9454 2.18503 0
M  V30 18035 H 2380.41 -7.23063 1.12091 0
M  V30 18036 H 2381.59 -5.6025 3.37201 0
M  V30 18037 H 2383.08 -7.35707 4.02681 0
M  V30 18038 H 2381.38 -9.40912 3.9095 0
M  V30 18039 H 2381.19 -8.29056 5.99158 0
M  V30 18040 H 2379.56 -8.10073 5.25882 0
M  V30 18041 H 2382.2 -6.30324 0.726794 0
M  V30 18042 P 2384.06 -8.4349 2.47671 0
M  V30 18043 O 2385.48 -8.94167 2.5964 0
M  V30 18044 O 2383.7 -7.1704 3.19006 0
M  V30 18045 O 2383.74 -8.16596 0.923387 0
M  V30 18046 C 2383.58 -9.38437 0.108857 0
M  V30 18047 C 2384.12 -9.08175 -1.28353 0
M  V30 18048 O 2383.06 -8.44229 -1.84713 0
M  V30 18049 C 2385.34 -8.18386 -1.42505 0
M  V30 18050 O 2386.07 -8.3501 -2.60497 0
M  V30 18051 C 2384.67 -6.80225 -1.25468 0
M  V30 18052 O 2385.47 -5.81621 -1.91066 0
M  V30 18053 C 2383.33 -7.02416 -1.9168 0
M  V30 18054 H 2383.36 -6.6888 -2.96621 0
M  V30 18055 H 2384.54 -6.53617 -0.192223 0
M  V30 18056 H 2386.03 -8.36622 -0.589963 0
M  V30 18057 H 2384.33 -10.0291 -1.79807 0
M  V30 18058 H 2384.14 -10.2138 0.558219 0
M  V30 18059 H 2382.51 -9.6579 0.0444202 0
M  V30 18060 H 2385.15 -5.69556 -2.79637 0
M  V30 18061 P 2387.01 -8.4349 -2.47671 0
M  V30 18062 O 2388.43 -8.92593 -2.65 0
M  V30 18063 O 2386.65 -7.7568 -1.19296 0
M  V30 18064 O 2386.69 -7.36886 -3.63805 0
M  V30 18065 C 2386.53 -7.95349 -4.982 0
M  V30 18066 C 2387.07 -6.94612 -5.98974 0
M  V30 18067 O 2386.01 -6.10347 -6.11815 0
M  V30 18068 C 2388.29 -6.11426 -5.62335 0
M  V30 18069 O 2389.02 -5.6162 -6.70584 0
M  V30 18070 C 2387.62 -5.04409 -4.73308 0
M  V30 18071 O 2388.42 -3.85992 -4.75183 0
M  V30 18072 C 2386.28 -4.8728 -5.41006 0
M  V30 18073 H 2386.31 -4.02333 -6.11157 0
M  V30 18074 H 2387.5 -5.39466 -3.69543 0
M  V30 18075 H 2388.98 -6.71916 -5.01943 0
M  V30 18076 H 2387.29 -7.4649 -6.93477 0
M  V30 18077 H 2387.1 -8.89416 -5.05237 0
M  V30 18078 H 2385.47 -8.14876 -5.18409 0
M  V30 18079 H 2388.1 -3.27957 -5.4317 0
M  V30 18080 P 2389.96 -5.75688 -6.64379 0
M  V30 18081 O 2391.38 -6.07627 -7.05504 0
M  V30 18082 O 2389.6 -5.88047 -5.19722 0
M  V30 18083 O 2389.64 -4.2322 -7.04443 0
M  V30 18084 C 2389.48 -3.99743 -8.4911 0
M  V30 18085 C 2390.02 -2.60516 -8.79425 0
M  V30 18086 O 2388.96 -1.82684 -8.4467 0
M  V30 18087 C 2391.24 -2.10343 -8.03628 0
M  V30 18088 O 2391.97 -1.09919 -8.67766 0
M  V30 18089 C 2390.57 -1.68446 -6.70876 0
M  V30 18090 O 2391.37 -0.678137 -6.08433 0
M  V30 18091 C 2389.23 -1.17436 -7.18567 0
M  V30 18092 H 2389.26 -0.0804732 -7.31656 0
M  V30 18093 H 2390.45 -2.54037 -6.02537 0
M  V30 18094 H 2391.93 -2.93881 -7.85526 0
M  V30 18095 H 2390.24 -2.53065 -9.86973 0
M  V30 18096 H 2390.05 -4.75072 -9.05887 0
M  V30 18097 H 2388.42 -4.05244 -8.76668 0
M  V30 18098 H 2391.05 0.177647 -6.34251 0
M  V30 18099 P 2392.91 -1.25109 -8.70152 0
M  V30 18100 O 2394.33 -1.29758 -9.22115 0
M  V30 18101 O 2392.55 -2.13714 -7.55141 0
M  V30 18102 O 2392.59 0.248149 -8.21425 0
M  V30 18103 C 2392.43 1.22792 -9.30533 0
M  V30 18104 C 2392.97 2.56293 -8.80664 0
M  V30 18105 O 2391.91 3.02944 -8.09255 0
M  V30 18106 C 2394.19 2.57523 -7.89775 0
M  V30 18107 O 2394.93 3.7668 -7.89438 0
M  V30 18108 C 2393.52 2.20997 -6.55446 0
M  V30 18109 O 2394.32 2.71302 -5.48691 0
M  V30 18110 C 2392.18 2.89693 -6.67988 0
M  V30 18111 N 2391.14 2.08895 -6.07487 0
M  V30 18112 C 2391.31 0.753809 -5.94137 0
M  V30 18113 N 2390.28 0.146592 -5.38801 0
M  V30 18114 C 2389.4 1.1768 -5.13693 0
M  V30 18115 C 2388.13 1.17563 -4.52477 0
M  V30 18116 N 2387.53 0.057481 -4.04759 0
M  V30 18117 N 2387.56 2.41918 -4.45789 0
M  V30 18118 C 2388.17 3.56493 -4.90792 0
M  V30 18119 N 2389.34 3.61423 -5.47817 0
M  V30 18120 C 2389.92 2.37779 -5.5588 0
M  V30 18121 H 2392.21 3.8874 -6.19774 0
M  V30 18122 H 2393.4 1.12673 -6.44018 0
M  V30 18123 H 2394.88 1.7746 -8.19711 0
M  V30 18124 H 2393.19 3.21673 -9.66791 0
M  V30 18125 H 2393 0.901032 -10.1892 0
M  V30 18126 H 2391.37 1.33049 -9.56592 0
M  V30 18127 H 2387.63 4.49919 -4.77947 0
M  V30 18128 H 2392.21 0.233081 -6.26266 0
M  V30 18129 H 2386.6 0.119831 -3.60801 0
M  V30 18130 H 2388 -0.852272 -4.12385 0
M  V30 18131 H 2394.01 3.5779 -5.23879 0
M  V30 18132 P 2395.86 3.65191 -7.99657 0
M  V30 18133 O 2397.28 3.89332 -8.45794 0
M  V30 18134 O 2395.5 2.28472 -7.50807 0
M  V30 18135 O 2395.54 4.64972 -6.77611 0
M  V30 18136 C 2395.38 6.06319 -7.16352 0
M  V30 18137 C 2395.92 6.91731 -6.02299 0
M  V30 18138 O 2394.86 6.92449 -5.17064 0
M  V30 18139 C 2397.14 6.43627 -5.25174 0
M  V30 18140 O 2397.88 7.43686 -4.60469 0
M  V30 18141 C 2396.47 5.40275 -4.31916 0
M  V30 18142 O 2397.27 5.25279 -3.14438 0
M  V30 18143 C 2395.13 6.04847 -4.05327 0
M  V30 18144 H 2395.16 6.62195 -3.11261 0
M  V30 18145 H 2396.35 4.42556 -4.81383 0
M  V30 18146 H 2397.83 5.92458 -5.93643 0
M  V30 18147 H 2396.14 7.92655 -6.402 0
M  V30 18148 H 2395.95 6.26671 -8.0846 0
M  V30 18149 H 2394.32 6.29101 -7.32804 0
M  V30 18150 H 2396.96 5.84315 -2.47318 0
M  V30 18151 P 2398.81 7.39546 -4.75277 0
M  V30 18152 O 2400.23 7.84882 -5.01092 0
M  V30 18153 O 2398.45 5.9812 -5.08098 0
M  V30 18154 O 2398.49 7.57503 -3.1866 0
M  V30 18155 C 2398.33 8.97452 -2.74862 0
M  V30 18156 C 2398.87 9.07548 -1.32709 0
M  V30 18157 O 2397.82 8.61972 -0.606089 0
M  V30 18158 C 2400.09 8.25383 -0.938334 0
M  V30 18159 O 2400.83 8.74577 0.146954 0
M  V30 18160 C 2399.42 6.8802 -0.712559 0
M  V30 18161 O 2400.22 6.1181 0.188505 0
M  V30 18162 C 2398.08 7.27966 -0.139777 0
M  V30 18163 N 2397.04 6.39368 -0.623421 0
M  V30 18164 C 2397.21 5.71761 -1.78245 0
M  V30 18165 N 2396.18 4.962 -2.10491 0
M  V30 18166 C 2395.3 5.16158 -1.0635 0
M  V30 18167 C 2394.03 4.60425 -0.810266 0
M  V30 18168 N 2393.43 3.7057 -1.62914 0
M  V30 18169 N 2393.46 5.06 0.348685 0
M  V30 18170 C 2394.07 5.94532 1.20395 0
M  V30 18171 N 2395.24 6.48452 1.01191 0
M  V30 18172 C 2395.82 6.04423 -0.146291 0
M  V30 18173 H 2398.11 7.25255 0.961469 0
M  V30 18174 H 2399.3 6.32625 -1.65044 0
M  V30 18175 H 2400.78 8.19355 -1.79097 0
M  V30 18176 H 2399.09 10.1305 -1.09016 0
M  V30 18177 H 2398.9 9.64276 -3.41316 0
M  V30 18178 H 2397.27 9.25417 -2.76357 0
M  V30 18179 H 2393.53 6.21659 2.10714 0
M  V30 18180 H 2398.11 5.79354 -2.38959 0
M  V30 18181 H 2392.5 3.33174 -1.38982 0
M  V30 18182 H 2393.9 3.39714 -2.48836 0
M  V30 18183 H 2399.91 6.25169 1.0783 0
M  V30 18184 P 2401.76 8.791 2.09534e-11 0
M  V30 18185 O 2403.18 9.31196 0.027936 0
M  V30 18186 O 2401.4 7.77869 -1.04071 0
M  V30 18187 O 2401.44 8.09533 1.41463 0
M  V30 18188 C 2401.28 9.03587 2.5397 0
M  V30 18189 C 2401.82 8.35226 3.79016 0
M  V30 18190 O 2400.77 7.57904 4.1503 0
M  V30 18191 C 2403.04 7.45087 3.67298 0
M  V30 18192 O 2403.78 7.27796 4.85194 0
M  V30 18193 C 2402.37 6.17323 3.12027 0
M  V30 18194 O 2403.17 5.04496 3.46627 0
M  V30 18195 C 2401.03 6.19961 3.81809 0
M  V30 18196 N 2399.99 5.71575 2.93223 0
M  V30 18197 C 2400.16 5.77362 1.59168 0
M  V30 18198 N 2399.13 5.3123 0.911893 0
M  V30 18199 C 2398.25 4.91717 1.89588 0
M  V30 18200 C 2396.98 4.3114 1.8076 0
M  V30 18201 N 2396.38 3.99821 0.632928 0
M  V30 18202 N 2396.41 4.06823 3.02898 0
M  V30 18203 C 2397.02 4.35062 4.22711 0
M  V30 18204 N 2398.19 4.90805 4.35707 0
M  V30 18205 C 2398.77 5.16382 3.14469 0
M  V30 18206 H 2401.06 5.58142 4.72986 0
M  V30 18207 H 2402.25 6.21428 2.0318 0
M  V30 18208 H 2403.73 7.86112 2.9231 0
M  V30 18209 H 2402.04 9.11171 4.55987 0
M  V30 18210 H 2401.85 9.9573 2.34194 0
M  V30 18211 H 2400.22 9.2792 2.67832 0
M  V30 18212 H 2396.48 4.09052 5.13359 0
M  V30 18213 H 2401.06 6.16575 1.12198 0
M  V30 18214 H 2395.45 3.55423 0.632085 0
M  V30 18215 H 2396.85 4.20317 -0.256712 0
M  V30 18216 H 2402.86 4.67628 4.28704 0
M  V30 18217 P 2404.71 7.39546 4.75277 0
M  V30 18218 O 2406.14 7.81777 5.05738 0
M  V30 18219 O 2404.35 7.1065 3.32998 0
M  V30 18220 O 2404.39 6.04542 5.56673 0
M  V30 18221 C 2404.23 6.22772 7.02095 0
M  V30 18222 C 2404.77 4.97725 7.70406 0
M  V30 18223 O 2403.72 4.13256 7.58987 0
M  V30 18224 C 2405.99 4.28231 7.11815 0
M  V30 18225 O 2406.73 3.49945 8.01648 0
M  V30 18226 C 2405.32 3.5063 5.96244 0
M  V30 18227 O 2406.12 2.36482 5.64681 0
M  V30 18228 C 2403.98 3.15122 6.56374 0
M  V30 18229 H 2404.02 2.13853 6.99751 0
M  V30 18230 H 2405.2 4.13501 5.06559 0
M  V30 18231 H 2406.68 5.03285 6.70911 0
M  V30 18232 H 2404.99 5.20877 8.75697 0
M  V30 18233 H 2404.8 7.11046 7.35349 0
M  V30 18234 H 2403.17 6.35815 7.26986 0
M  V30 18235 H 2405.81 1.61644 6.13565 0
M  V30 18236 P 2407.67 3.65191 7.99657 0
M  V30 18237 O 2409.09 3.8425 8.48115 0
M  V30 18238 O 2407.31 4.17805 6.64342 0
M  V30 18239 O 2407.34 2.07613 7.95143 0
M  V30 18240 C 2407.18 1.44328 9.27336 0
M  V30 18241 C 2407.72 0.0220036 9.17197 0
M  V30 18242 O 2406.67 -0.626867 8.61923 0
M  V30 18243 C 2408.94 -0.24586 8.30336 0
M  V30 18244 O 2409.68 -1.39011 8.63583 0
M  V30 18245 C 2408.27 -0.273849 6.91158 0
M  V30 18246 O 2409.07 -1.06348 6.02892 0
M  V30 18247 C 2406.93 -0.897649 7.22545 0
M  V30 18248 H 2406.97 -1.9841 7.04286 0
M  V30 18249 H 2408.15 0.739928 6.497 0
M  V30 18250 H 2409.63 0.60668 8.36503 0
M  V30 18251 H 2407.94 -0.352479 10.1829 0
M  V30 18252 H 2407.75 2.00611 10.0304 0
M  V30 18253 H 2406.12 1.41843 9.55327 0
M  V30 18254 H 2408.76 -1.95734 6.03555 0
M  V30 18255 P 2410.62 -1.25109 8.70152 0
M  V30 18256 O 2412.04 -1.35288 9.2132 0
M  V30 18257 O 2410.26 -0.0769065 7.84762 0
M  V30 18258 O 2410.29 -2.55232 7.81161 0
M  V30 18259 C 2410.13 -3.79979 8.58246 0
M  V30 18260 C 2410.67 -4.94023 7.72785 0
M  V30 18261 O 2409.62 -5.18666 6.91125 0
M  V30 18262 C 2411.89 -4.69597 6.85231 0
M  V30 18263 O 2412.63 -5.83832 6.51337 0
M  V30 18264 C 2411.22 -3.96706 5.66633 0
M  V30 18265 O 2412.02 -4.14896 4.5003 0
M  V30 18266 C 2409.88 -4.66153 5.59313 0
M  V30 18267 N 2408.84 -3.71582 5.24027 0
M  V30 18268 C 2409.01 -2.39715 5.48833 0
M  V30 18269 N 2407.98 -1.65863 5.12845 0
M  V30 18270 C 2407.1 -2.57637 4.5973 0
M  V30 18271 C 2405.83 -2.40278 4.01027 0
M  V30 18272 N 2405.27 -3.57711 3.59575 0
M  V30 18273 C 2405.87 -4.80324 3.70476 0
M  V30 18274 N 2407.05 -5.01121 4.23801 0
M  V30 18275 C 2407.62 -3.84757 4.66372 0
M  V30 18276 H 2411.1 -2.8955 5.86187 0
M  V30 18277 H 2412.58 -4.0121 7.36511 0
M  V30 18278 H 2410.89 -5.81019 8.37003 0
M  V30 18279 H 2410.7 -3.73517 9.52265 0
M  V30 18280 H 2409.07 -3.97163 8.80359 0
M  V30 18281 H 2409.91 -1.98804 5.94332 0
M  V30 18282 H 2411.71 -4.90891 4.01857 0
M  V30 18283 P 2413.57 -5.75688 6.64379 0
M  V30 18284 O 2414.99 -6.11981 7.01997 0
M  V30 18285 O 2413.21 -4.30744 6.56026 0
M  V30 18286 O 2413.24 -6.37042 5.19165 0
M  V30 18287 C 2413.08 -7.83578 5.16515 0
M  V30 18288 C 2413.62 -8.33307 3.82977 0
M  V30 18289 O 2412.57 -8.10074 3.01034 0
M  V30 18290 C 2414.84 -7.65514 3.2257 0
M  V30 18291 O 2415.58 -8.4329 2.32297 0
M  V30 18292 C 2414.17 -6.40075 2.62207 0
M  V30 18293 O 2414.97 -5.92492 1.53687 0
M  V30 18294 C 2412.84 -6.9454 2.18503 0
M  V30 18295 N 2411.79 -5.95905 2.39948 0
M  V30 18296 C 2411.85 -5.13994 3.44742 0
M  V30 18297 N 2410.81 -4.30684 3.46712 0
M  V30 18298 C 2410.08 -4.65583 2.41086 0
M  V30 18299 C 2408.77 -4.20877 1.99581 0
M  V30 18300 O 2408.04 -3.35913 2.52616 0
M  V30 18301 N 2408.34 -4.83271 0.873406 0
M  V30 18302 C 2409.09 -5.82006 0.185129 0
M  V30 18303 N 2408.49 -6.30619 -0.95439 0
M  V30 18304 N 2410.24 -6.28443 0.578524 0
M  V30 18305 C 2410.7 -5.68486 1.70138 0
M  V30 18306 H 2412.87 -7.23063 1.12091 0
M  V30 18307 H 2414.05 -5.60165 3.3715 0
M  V30 18308 H 2415.54 -7.3611 4.01946 0
M  V30 18309 H 2413.84 -9.40912 3.9095 0
M  V30 18310 H 2413.65 -8.29056 5.99158 0
M  V30 18311 H 2412.02 -8.10073 5.25882 0
M  V30 18312 H 2407.44 -4.58323 0.505262 0
M  V30 18313 H 2412.65 -5.14564 4.1935 0
M  V30 18314 H 2407.58 -5.93402 -1.25364 0
M  V30 18315 H 2408.96 -7.0425 -1.50254 0
M  V30 18316 H 2414.66 -6.30224 0.72668 0
M  V30 18317 P 2416.52 -8.4349 2.47671 0
M  V30 18318 O 2417.94 -8.94167 2.5964 0
M  V30 18319 O 2416.16 -7.1704 3.19006 0
M  V30 18320 O 2416.19 -8.16596 0.923387 0
M  V30 18321 C 2416.03 -9.38437 0.108857 0
M  V30 18322 C 2416.57 -9.08175 -1.28353 0
M  V30 18323 O 2415.52 -8.44229 -1.84713 0
M  V30 18324 C 2417.79 -8.18386 -1.42505 0
M  V30 18325 O 2418.53 -8.3501 -2.60497 0
M  V30 18326 C 2417.12 -6.80225 -1.25468 0
M  V30 18327 O 2417.92 -5.81621 -1.91066 0
M  V30 18328 C 2415.79 -7.02416 -1.9168 0
M  V30 18329 H 2415.82 -6.6888 -2.96621 0
M  V30 18330 H 2417 -6.53617 -0.192223 0
M  V30 18331 H 2418.48 -8.36622 -0.589963 0
M  V30 18332 H 2416.79 -10.0291 -1.79807 0
M  V30 18333 H 2416.6 -10.2138 0.558219 0
M  V30 18334 H 2414.97 -9.6579 0.0444202 0
M  V30 18335 H 2417.61 -5.69556 -2.79637 0
M  V30 18336 P 2419.47 -8.4349 -2.47671 0
M  V30 18337 O 2420.89 -8.92593 -2.65 0
M  V30 18338 O 2419.11 -7.7568 -1.19296 0
M  V30 18339 O 2419.14 -7.36886 -3.63805 0
M  V30 18340 C 2418.98 -7.95349 -4.982 0
M  V30 18341 C 2419.52 -6.94612 -5.98974 0
M  V30 18342 O 2418.47 -6.10347 -6.11815 0
M  V30 18343 C 2420.74 -6.11426 -5.62335 0
M  V30 18344 O 2421.48 -5.6162 -6.70584 0
M  V30 18345 C 2420.07 -5.04409 -4.73308 0
M  V30 18346 O 2420.87 -3.85992 -4.75183 0
M  V30 18347 C 2418.74 -4.8728 -5.41006 0
M  V30 18348 H 2418.77 -4.02333 -6.11157 0
M  V30 18349 H 2419.95 -5.39466 -3.69543 0
M  V30 18350 H 2421.44 -6.71916 -5.01943 0
M  V30 18351 H 2419.74 -7.4649 -6.93477 0
M  V30 18352 H 2419.55 -8.89416 -5.05237 0
M  V30 18353 H 2417.92 -8.14876 -5.18409 0
M  V30 18354 H 2420.56 -3.27957 -5.4317 0
M  V30 18355 P 2422.42 -5.75688 -6.64379 0
M  V30 18356 O 2423.84 -6.07692 -7.0558 0
M  V30 18357 O 2422.06 -5.88047 -5.19722 0
M  V30 18358 O 2422.09 -4.2322 -7.04443 0
M  V30 18359 C 2421.93 -3.99785 -8.49201 0
M  V30 18360 C 2422.47 -2.60516 -8.79425 0
M  V30 18361 O 2421.42 -1.82663 -8.44573 0
M  V30 18362 C 2423.69 -2.10343 -8.03628 0
M  V30 18363 O 2424.43 -1.09919 -8.67766 0
M  V30 18364 C 2423.02 -1.68446 -6.70876 0
M  V30 18365 O 2423.82 -0.684109 -6.08265 0
M  V30 18366 C 2421.69 -1.17436 -7.18567 0
M  V30 18367 N 2420.64 -1.52699 -6.23988 0
M  V30 18368 C 2420.81 -2.578 -5.40574 0
M  V30 18369 N 2419.79 -2.78966 -4.61193 0
M  V30 18370 C 2418.9 -1.78725 -4.95769 0
M  V30 18371 C 2417.63 -1.45727 -4.44207 0
M  V30 18372 N 2417.03 -2.13994 -3.43613 0
M  V30 18373 N 2417.07 -0.374977 -5.05812 0
M  V30 18374 C 2417.67 0.345585 -6.05615 0
M  V30 18375 N 2418.85 0.0787651 -6.56253 0
M  V30 18376 C 2419.42 -1.00499 -5.96189 0
M  V30 18377 H 2421.72 -0.0804622 -7.31556 0
M  V30 18378 H 2422.9 -2.53396 -6.02698 0
M  V30 18379 H 2424.38 -2.93881 -7.85526 0
M  V30 18380 H 2422.69 -2.52078 -9.87225 0
M  V30 18381 H 2422.5 -4.75072 -9.05887 0
M  V30 18382 H 2420.87 -4.05244 -8.76668 0
M  V30 18383 H 2417.13 1.20098 -6.4532 0
M  V30 18384 H 2421.71 -3.18977 -5.3945 0
M  V30 18385 H 2416.1 -1.84983 -3.10004 0
M  V30 18386 H 2417.51 -2.9465 -3.00843 0
M  V30 18387 H 2423.51 0.177619 -6.34151 0
M  V30 18388 P 2425.37 -1.25109 -8.70152 0
M  V30 18389 O 2426.79 -1.29744 -9.22016 0
M  V30 18390 O 2425.01 -2.13714 -7.55141 0
M  V30 18391 O 2425.05 0.248149 -8.21425 0
M  V30 18392 C 2424.89 1.22779 -9.30434 0
M  V30 18393 C 2425.43 2.56293 -8.80664 0
M  V30 18394 O 2424.37 3.02979 -8.09349 0
M  V30 18395 C 2426.64 2.57523 -7.89775 0
M  V30 18396 O 2427.38 3.7668 -7.89438 0
M  V30 18397 C 2425.97 2.20997 -6.55446 0
M  V30 18398 O 2426.77 2.71895 -5.48509 0
M  V30 18399 C 2424.64 2.89693 -6.67988 0
M  V30 18400 H 2424.67 3.88793 -6.19859 0
M  V30 18401 H 2425.85 1.12046 -6.44229 0
M  V30 18402 H 2427.34 1.7746 -8.19711 0
M  V30 18403 H 2425.64 3.20706 -9.67112 0
M  V30 18404 H 2425.45 0.901032 -10.1892 0
M  V30 18405 H 2423.82 1.33049 -9.56592 0
M  V30 18406 H 2426.46 3.57847 -5.23962 0
M  V30 18407 P 2428.32 3.65191 -7.99657 0
M  V30 18408 O 2429.74 3.89332 -8.45794 0
M  V30 18409 O 2427.96 2.28472 -7.50807 0
M  V30 18410 O 2428 4.64972 -6.77611 0
M  V30 18411 C 2427.84 6.06319 -7.16352 0
M  V30 18412 C 2428.38 6.91731 -6.02299 0
M  V30 18413 O 2427.32 6.92449 -5.17064 0
M  V30 18414 C 2429.59 6.43627 -5.25174 0
M  V30 18415 O 2430.33 7.43686 -4.60469 0
M  V30 18416 C 2428.93 5.40275 -4.31916 0
M  V30 18417 O 2429.72 5.25279 -3.14438 0
M  V30 18418 C 2427.59 6.04847 -4.05327 0
M  V30 18419 H 2427.62 6.62195 -3.11261 0
M  V30 18420 H 2428.8 4.42556 -4.81383 0
M  V30 18421 H 2430.29 5.92458 -5.93643 0
M  V30 18422 H 2428.59 7.92655 -6.402 0
M  V30 18423 H 2428.4 6.26671 -8.0846 0
M  V30 18424 H 2426.77 6.29101 -7.32804 0
M  V30 18425 H 2429.41 5.84315 -2.47318 0
M  V30 18426 P 2431.27 7.39546 -4.75277 0
M  V30 18427 O 2432.69 7.84882 -5.01092 0
M  V30 18428 O 2430.91 5.9812 -5.08098 0
M  V30 18429 O 2430.95 7.57503 -3.1866 0
M  V30 18430 C 2430.79 8.97452 -2.74862 0
M  V30 18431 C 2431.33 9.07548 -1.32709 0
M  V30 18432 O 2430.27 8.61972 -0.606089 0
M  V30 18433 C 2432.54 8.25383 -0.938334 0
M  V30 18434 O 2433.28 8.74577 0.146954 0
M  V30 18435 C 2431.88 6.8802 -0.712559 0
M  V30 18436 O 2432.67 6.1181 0.188505 0
M  V30 18437 C 2430.54 7.27966 -0.139777 0
M  V30 18438 N 2429.5 6.39368 -0.623421 0
M  V30 18439 C 2429.66 5.71761 -1.78245 0
M  V30 18440 N 2428.64 4.962 -2.10491 0
M  V30 18441 C 2427.75 5.16158 -1.0635 0
M  V30 18442 C 2426.49 4.60425 -0.810266 0
M  V30 18443 N 2425.89 3.7057 -1.62914 0
M  V30 18444 N 2425.92 5.06 0.348685 0
M  V30 18445 C 2426.52 5.94532 1.20395 0
M  V30 18446 N 2427.7 6.48452 1.01191 0
M  V30 18447 C 2428.27 6.04423 -0.146291 0
M  V30 18448 H 2430.57 7.25255 0.961469 0
M  V30 18449 H 2431.75 6.32625 -1.65044 0
M  V30 18450 H 2433.24 8.19355 -1.79097 0
M  V30 18451 H 2431.54 10.1305 -1.09016 0
M  V30 18452 H 2431.35 9.64276 -3.41316 0
M  V30 18453 H 2429.72 9.25417 -2.76357 0
M  V30 18454 H 2425.99 6.21659 2.10714 0
M  V30 18455 H 2430.56 5.79354 -2.38959 0
M  V30 18456 H 2424.96 3.33174 -1.38982 0
M  V30 18457 H 2426.36 3.39714 -2.48836 0
M  V30 18458 H 2432.36 6.25169 1.0783 0
M  V30 18459 P 2434.22 8.791 2.12636e-11 0
M  V30 18460 O 2435.64 9.31096 0.027933 0
M  V30 18461 O 2433.86 7.77869 -1.04071 0
M  V30 18462 O 2433.9 8.09533 1.41463 0
M  V30 18463 C 2433.74 9.0349 2.53943 0
M  V30 18464 C 2434.28 8.35226 3.79016 0
M  V30 18465 O 2433.22 7.57992 4.15078 0
M  V30 18466 C 2435.5 7.45087 3.67298 0
M  V30 18467 O 2436.23 7.27796 4.85194 0
M  V30 18468 C 2434.83 6.17323 3.12027 0
M  V30 18469 O 2435.63 5.04231 3.47188 0
M  V30 18470 C 2433.49 6.19961 3.81809 0
M  V30 18471 H 2433.52 5.58218 4.73051 0
M  V30 18472 H 2434.7 6.21726 2.02589 0
M  V30 18473 H 2436.19 7.86112 2.9231 0
M  V30 18474 H 2434.49 9.11627 4.55076 0
M  V30 18475 H 2434.3 9.9573 2.34194 0
M  V30 18476 H 2432.67 9.2792 2.67832 0
M  V30 18477 H 2435.31 4.67702 4.28772 0
M  V30 18478 P 2437.17 7.39546 4.75277 0
M  V30 18479 O 2438.59 7.81777 5.05738 0
M  V30 18480 O 2436.81 7.1065 3.32998 0
M  V30 18481 O 2436.85 6.04542 5.56673 0
M  V30 18482 C 2436.69 6.22772 7.02095 0
M  V30 18483 C 2437.23 4.97725 7.70406 0
M  V30 18484 O 2436.17 4.13256 7.58987 0
M  V30 18485 C 2438.45 4.28231 7.11815 0
M  V30 18486 O 2439.18 3.49945 8.01648 0
M  V30 18487 C 2437.78 3.5063 5.96244 0
M  V30 18488 O 2438.58 2.36482 5.64681 0
M  V30 18489 C 2436.44 3.15122 6.56374 0
M  V30 18490 H 2436.47 2.13853 6.99751 0
M  V30 18491 H 2437.65 4.13501 5.06559 0
M  V30 18492 H 2439.14 5.03285 6.70911 0
M  V30 18493 H 2437.44 5.20877 8.75697 0
M  V30 18494 H 2437.25 7.11046 7.35349 0
M  V30 18495 H 2435.62 6.35815 7.26986 0
M  V30 18496 H 2438.26 1.61644 6.13565 0
M  V30 18497 P 2440.12 3.65191 7.99657 0
M  V30 18498 O 2441.54 3.8425 8.48115 0
M  V30 18499 O 2439.76 4.17805 6.64342 0
M  V30 18500 O 2439.8 2.07613 7.95143 0
M  V30 18501 C 2439.64 1.44328 9.27336 0
M  V30 18502 C 2440.18 0.0220036 9.17197 0
M  V30 18503 O 2439.12 -0.626867 8.61923 0
M  V30 18504 C 2441.4 -0.24586 8.30336 0
M  V30 18505 O 2442.13 -1.39011 8.63583 0
M  V30 18506 C 2440.73 -0.273849 6.91158 0
M  V30 18507 O 2441.53 -1.06348 6.02892 0
M  V30 18508 C 2439.39 -0.897649 7.22545 0
M  V30 18509 H 2439.42 -1.9841 7.04286 0
M  V30 18510 H 2440.61 0.739928 6.497 0
M  V30 18511 H 2442.09 0.60668 8.36503 0
M  V30 18512 H 2440.4 -0.352479 10.1829 0
M  V30 18513 H 2440.21 2.00611 10.0304 0
M  V30 18514 H 2438.58 1.41843 9.55327 0
M  V30 18515 H 2441.21 -1.95734 6.03555 0
M  V30 18516 P 2443.07 -1.25109 8.70152 0
M  V30 18517 O 2444.49 -1.35274 9.21221 0
M  V30 18518 O 2442.71 -0.0769065 7.84762 0
M  V30 18519 O 2442.75 -2.55232 7.81161 0
M  V30 18520 C 2442.59 -3.79939 8.58154 0
M  V30 18521 C 2443.13 -4.94023 7.72785 0
M  V30 18522 O 2442.07 -5.18726 6.91205 0
M  V30 18523 C 2444.35 -4.69597 6.85231 0
M  V30 18524 O 2445.08 -5.83832 6.51337 0
M  V30 18525 C 2443.68 -3.96706 5.66633 0
M  V30 18526 O 2444.48 -4.15414 4.49689 0
M  V30 18527 C 2442.34 -4.66153 5.59313 0
M  V30 18528 H 2442.37 -5.47679 4.85214 0
M  V30 18529 H 2443.56 -2.89008 5.86566 0
M  V30 18530 H 2445.04 -4.0121 7.36511 0
M  V30 18531 H 2443.35 -5.80182 8.37584 0
M  V30 18532 H 2443.16 -3.73517 9.52265 0
M  V30 18533 H 2441.53 -3.97163 8.80359 0
M  V30 18534 H 2444.16 -4.90969 4.01921 0
M  V30 18535 P 2446.02 -5.75688 6.64379 0
M  V30 18536 O 2447.44 -6.11915 7.01921 0
M  V30 18537 O 2445.66 -4.30744 6.56026 0
M  V30 18538 O 2445.7 -6.37042 5.19165 0
M  V30 18539 C 2445.54 -7.83662 5.1657 0
M  V30 18540 C 2446.08 -8.33398 3.83019 0
M  V30 18541 O 2445.02 -8.0998 3.00999 0
M  V30 18542 C 2447.3 -7.65514 3.2257 0
M  V30 18543 O 2448.04 -8.4329 2.32297 0
M  V30 18544 C 2446.63 -6.40075 2.62207 0
M  V30 18545 O 2447.43 -5.92338 1.5428 0
M  V30 18546 C 2445.29 -6.9454 2.18503 0
M  V30 18547 N 2444.25 -5.95905 2.39948 0
M  V30 18548 C 2444.42 -4.98383 3.32108 0
M  V30 18549 N 2443.39 -4.16798 3.41761 0
M  V30 18550 C 2442.51 -4.65287 2.47461 0
M  V30 18551 C 2441.24 -4.18946 2.07461 0
M  V30 18552 N 2440.64 -3.09661 2.60717 0
M  V30 18553 N 2440.67 -4.95327 1.09101 0
M  V30 18554 C 2441.28 -6.04369 0.519812 0
M  V30 18555 N 2442.45 -6.50694 0.855982 0
M  V30 18556 C 2443.03 -5.75818 1.84322 0
M  V30 18557 H 2445.32 -7.22964 1.12076 0
M  V30 18558 H 2446.51 -5.60502 3.36589 0
M  V30 18559 H 2447.99 -7.35707 4.02681 0
M  V30 18560 H 2446.3 -9.41302 3.90009 0
M  V30 18561 H 2446.11 -8.29056 5.99158 0
M  V30 18562 H 2444.48 -8.10073 5.25882 0
M  V30 18563 H 2440.74 -6.55843 -0.270373 0
M  V30 18564 H 2445.32 -4.88564 3.92502 0
M  V30 18565 H 2439.71 -2.80523 2.27218 0
M  V30 18566 H 2441.11 -2.55848 3.34465 0
M  V30 18567 H 2447.12 -6.30224 0.72668 0
M  V30 18568 P 2448.97 -8.4349 2.47671 0
M  V30 18569 O 2450.4 -8.94359 2.59696 0
M  V30 18570 O 2448.61 -7.1704 3.19006 0
M  V30 18571 O 2448.65 -8.16596 0.923387 0
M  V30 18572 C 2448.49 -9.38437 0.108857 0
M  V30 18573 C 2449.03 -9.08076 -1.28339 0
M  V30 18574 O 2447.98 -8.44229 -1.84713 0
M  V30 18575 C 2450.25 -8.18386 -1.42505 0
M  V30 18576 O 2450.99 -8.3501 -2.60497 0
M  V30 18577 C 2449.58 -6.80225 -1.25468 0
M  V30 18578 O 2450.38 -5.81526 -1.91035 0
M  V30 18579 C 2448.24 -7.02416 -1.9168 0
M  V30 18580 N 2447.2 -6.31033 -1.20314 0
M  V30 18581 C 2447.26 -6.18781 0.121293 0
M  V30 18582 N 2446.22 -5.49762 0.588272 0
M  V30 18583 C 2445.48 -5.22015 -0.488988 0
M  V30 18584 C 2444.18 -4.61966 -0.596448 0
M  V30 18585 O 2443.44 -4.19162 0.309059 0
M  V30 18586 N 2443.75 -4.53773 -1.878 0
M  V30 18587 C 2444.5 -4.99623 -2.99082 0
M  V30 18588 N 2443.9 -4.78912 -4.21227 0
M  V30 18589 N 2445.65 -5.59957 -2.91093 0
M  V30 18590 C 2446.11 -5.70225 -1.64218 0
M  V30 18591 H 2448.27 -6.6888 -2.96621 0
M  V30 18592 H 2449.46 -6.53517 -0.192194 0
M  V30 18593 H 2450.94 -8.36563 -0.598329 0
M  V30 18594 H 2449.25 -10.0291 -1.79807 0
M  V30 18595 H 2449.06 -10.2138 0.558219 0
M  V30 18596 H 2447.43 -9.6579 0.0444202 0
M  V30 18597 H 2442.85 -4.12883 -2.05283 0
M  V30 18598 H 2448.06 -6.59596 0.745856 0
M  V30 18599 H 2442.99 -4.31425 -4.2628 0
M  V30 18600 H 2444.36 -5.11219 -5.07148 0
M  V30 18601 H 2450.07 -5.69466 -2.79593 0
M  V30 18602 P 2451.92 -8.4349 -2.47671 0
M  V30 18603 O 2453.34 -8.92689 -2.65029 0
M  V30 18604 O 2451.56 -7.7568 -1.19296 0
M  V30 18605 O 2451.6 -7.36886 -3.63805 0
M  V30 18606 C 2451.44 -7.95433 -4.98253 0
M  V30 18607 C 2451.98 -6.94612 -5.98974 0
M  V30 18608 O 2450.93 -6.10277 -6.11744 0
M  V30 18609 C 2453.2 -6.11426 -5.62335 0
M  V30 18610 O 2453.94 -5.6162 -6.70584 0
M  V30 18611 C 2452.53 -5.04409 -4.73308 0
M  V30 18612 O 2453.33 -3.86404 -4.74719 0
M  V30 18613 C 2451.19 -4.8728 -5.41006 0
M  V30 18614 N 2450.15 -4.65812 -4.42377 0
M  V30 18615 C 2450.32 -5.09132 -3.15382 0
M  V30 18616 N 2449.29 -4.84021 -2.3716 0
M  V30 18617 C 2448.41 -4.18386 -3.20441 0
M  V30 18618 C 2447.14 -3.6275 -2.94905 0
M  V30 18619 N 2446.57 -3.05008 -4.05243 0
M  V30 18620 C 2447.18 -2.98348 -5.28159 0
M  V30 18621 N 2448.35 -3.48171 -5.56333 0
M  V30 18622 C 2448.93 -4.06869 -4.47212 0
M  V30 18623 H 2452.41 -5.39013 -3.70026 0
M  V30 18624 H 2453.89 -6.71916 -5.01943 0
M  V30 18625 H 2452.2 -7.45796 -6.94223 0
M  V30 18626 H 2452.01 -8.89416 -5.05237 0
M  V30 18627 H 2450.38 -8.14876 -5.18409 0
M  V30 18628 H 2451.22 -5.59989 -2.81362 0
M  V30 18629 H 2453.02 -3.27906 -5.43085 0
M  V30 18630 P 2454.87 -5.75688 -6.64379 0
M  V30 18631 O 2456.3 -6.07627 -7.05504 0
M  V30 18632 O 2454.51 -5.88047 -5.19722 0
M  V30 18633 O 2454.55 -4.2322 -7.04443 0
M  V30 18634 C 2454.39 -3.99743 -8.4911 0
M  V30 18635 C 2454.93 -2.60516 -8.79425 0
M  V30 18636 O 2453.88 -1.82684 -8.4467 0
M  V30 18637 C 2456.15 -2.10343 -8.03628 0
M  V30 18638 O 2456.89 -1.09919 -8.67766 0
M  V30 18639 C 2455.48 -1.68446 -6.70876 0
M  V30 18640 O 2456.28 -0.678137 -6.08433 0
M  V30 18641 C 2454.14 -1.17436 -7.18567 0
M  V30 18642 H 2454.18 -0.0804732 -7.31656 0
M  V30 18643 H 2455.36 -2.54037 -6.02537 0
M  V30 18644 H 2456.84 -2.93881 -7.85526 0
M  V30 18645 H 2455.15 -2.53065 -9.86973 0
M  V30 18646 H 2454.96 -4.75072 -9.05887 0
M  V30 18647 H 2453.33 -4.05244 -8.76668 0
M  V30 18648 H 2455.97 0.177647 -6.34251 0
M  V30 18649 P 2457.82 -1.25109 -8.70152 0
M  V30 18650 O 2459.25 -1.29744 -9.22016 0
M  V30 18651 O 2457.46 -2.13714 -7.55141 0
M  V30 18652 O 2457.5 0.248149 -8.21425 0
M  V30 18653 C 2457.34 1.22779 -9.30434 0
M  V30 18654 C 2457.88 2.56293 -8.80664 0
M  V30 18655 O 2456.83 3.02979 -8.09349 0
M  V30 18656 C 2459.1 2.57523 -7.89775 0
M  V30 18657 O 2459.84 3.7668 -7.89438 0
M  V30 18658 C 2458.43 2.20997 -6.55446 0
M  V30 18659 O 2459.23 2.71895 -5.48509 0
M  V30 18660 C 2457.09 2.89693 -6.67988 0
M  V30 18661 H 2457.13 3.88793 -6.19859 0
M  V30 18662 H 2458.31 1.12046 -6.44229 0
M  V30 18663 H 2459.79 1.7746 -8.19711 0
M  V30 18664 H 2458.1 3.20706 -9.67112 0
M  V30 18665 H 2457.91 0.901032 -10.1892 0
M  V30 18666 H 2456.28 1.33049 -9.56592 0
M  V30 18667 H 2458.92 3.57847 -5.23962 0
M  V30 18668 P 2460.78 3.65191 -7.99657 0
M  V30 18669 O 2462.2 3.89332 -8.45794 0
M  V30 18670 O 2460.42 2.28472 -7.50807 0
M  V30 18671 O 2460.45 4.64972 -6.77611 0
M  V30 18672 C 2460.29 6.06319 -7.16352 0
M  V30 18673 C 2460.83 6.91731 -6.02299 0
M  V30 18674 O 2459.78 6.92449 -5.17064 0
M  V30 18675 C 2462.05 6.43627 -5.25174 0
M  V30 18676 O 2462.79 7.43686 -4.60469 0
M  V30 18677 C 2461.38 5.40275 -4.31916 0
M  V30 18678 O 2462.18 5.25279 -3.14438 0
M  V30 18679 C 2460.04 6.04847 -4.05327 0
M  V30 18680 H 2460.08 6.62195 -3.11261 0
M  V30 18681 H 2461.26 4.42556 -4.81383 0
M  V30 18682 H 2462.74 5.92458 -5.93643 0
M  V30 18683 H 2461.05 7.92655 -6.402 0
M  V30 18684 H 2460.86 6.26671 -8.0846 0
M  V30 18685 H 2459.23 6.29101 -7.32804 0
M  V30 18686 H 2461.87 5.84315 -2.47318 0
M  V30 18687 P 2463.73 7.39546 -4.75277 0
M  V30 18688 O 2465.15 7.84798 -5.01039 0
M  V30 18689 O 2463.37 5.9812 -5.08098 0
M  V30 18690 O 2463.4 7.57503 -3.1866 0
M  V30 18691 C 2463.24 8.97357 -2.74833 0
M  V30 18692 C 2463.78 9.07548 -1.32709 0
M  V30 18693 O 2462.73 8.62072 -0.606159 0
M  V30 18694 C 2465 8.25383 -0.938334 0
M  V30 18695 O 2465.74 8.74577 0.146954 0
M  V30 18696 C 2464.33 6.8802 -0.712559 0
M  V30 18697 O 2465.13 6.1189 0.194655 0
M  V30 18698 C 2462.99 7.27966 -0.139777 0
M  V30 18699 H 2463.03 7.25354 0.961601 0
M  V30 18700 H 2464.21 6.32557 -1.65702 0
M  V30 18701 H 2465.69 8.19355 -1.79097 0
M  V30 18702 H 2464 10.1294 -1.10029 0
M  V30 18703 H 2463.81 9.64276 -3.41316 0
M  V30 18704 H 2462.18 9.25417 -2.76357 0
M  V30 18705 H 2464.82 6.25267 1.07847 0
M  V30 18706 P 2466.68 8.791 2.15738e-11 0
M  V30 18707 O 2468.1 9.31296 0.027939 0
M  V30 18708 O 2466.32 7.77869 -1.04071 0
M  V30 18709 O 2466.35 8.09533 1.41463 0
M  V30 18710 C 2466.19 9.0349 2.53943 0
M  V30 18711 C 2466.73 8.35135 3.78975 0
M  V30 18712 O 2465.68 7.57992 4.15078 0
M  V30 18713 C 2467.95 7.45087 3.67298 0
M  V30 18714 O 2468.69 7.27796 4.85194 0
M  V30 18715 C 2467.28 6.17323 3.12027 0
M  V30 18716 O 2468.08 5.04149 3.47132 0
M  V30 18717 C 2465.95 6.19961 3.81809 0
M  V30 18718 N 2464.9 5.71575 2.93223 0
M  V30 18719 C 2464.96 5.97133 1.62693 0
M  V30 18720 N 2463.92 5.44066 0.984414 0
M  V30 18721 C 2463.19 4.87093 1.93987 0
M  V30 18722 C 2461.88 4.26449 1.8738 0
M  V30 18723 O 2461.15 4.1089 0.884377 0
M  V30 18724 N 2461.45 3.82483 3.08036 0
M  V30 18725 C 2462.2 3.95124 4.27727 0
M  V30 18726 N 2461.6 3.4084 5.39089 0
M  V30 18727 N 2463.35 4.55264 4.3706 0
M  V30 18728 C 2463.81 5.00861 3.18217 0
M  V30 18729 H 2465.98 5.58218 4.73051 0
M  V30 18730 H 2467.16 6.21631 2.02558 0
M  V30 18731 H 2468.65 7.85819 2.93096 0
M  V30 18732 H 2466.95 9.11627 4.55076 0
M  V30 18733 H 2466.76 9.9573 2.34194 0
M  V30 18734 H 2465.13 9.2792 2.67832 0
M  V30 18735 H 2460.55 3.38323 3.1329 0
M  V30 18736 H 2465.76 6.53891 1.14265 0
M  V30 18737 H 2460.69 2.93852 5.30559 0
M  V30 18738 H 2462.07 3.47631 6.30632 0
M  V30 18739 H 2467.77 4.67628 4.28704 0
M  V30 18740 P 2469.63 7.39546 4.75277 0
M  V30 18741 O 2471.05 7.81861 5.05793 0
M  V30 18742 O 2469.27 7.1065 3.32998 0
M  V30 18743 O 2469.3 6.04542 5.56673 0
M  V30 18744 C 2469.14 6.22839 7.02169 0
M  V30 18745 C 2469.68 4.97725 7.70406 0
M  V30 18746 O 2468.63 4.13208 7.58899 0
M  V30 18747 C 2470.9 4.28231 7.11815 0
M  V30 18748 O 2471.64 3.49945 8.01648 0
M  V30 18749 C 2470.23 3.5063 5.96244 0
M  V30 18750 O 2471.03 2.37008 5.64352 0
M  V30 18751 C 2468.9 3.15122 6.56374 0
M  V30 18752 N 2467.85 3.22311 5.55692 0
M  V30 18753 C 2468.02 3.99655 4.46046 0
M  V30 18754 N 2467 3.97599 3.63918 0
M  V30 18755 C 2466.11 3.11159 4.25334 0
M  V30 18756 C 2464.84 2.64972 3.85157 0
M  V30 18757 N 2464.28 1.78482 4.74759 0
M  V30 18758 C 2464.88 1.37463 5.90819 0
M  V30 18759 N 2466.06 1.7733 6.31889 0
M  V30 18760 C 2466.63 2.64393 5.43725 0
M  V30 18761 H 2470.11 4.12931 5.06895 0
M  V30 18762 H 2471.59 5.03285 6.70911 0
M  V30 18763 H 2469.9 5.20001 8.76217 0
M  V30 18764 H 2469.71 7.11046 7.35349 0
M  V30 18765 H 2468.08 6.35815 7.26986 0
M  V30 18766 H 2468.92 4.58037 4.27732 0
M  V30 18767 H 2470.72 1.61619 6.13468 0
M  V30 18768 P 2472.58 3.65191 7.99657 0
M  V30 18769 O 2474 3.8425 8.48115 0
M  V30 18770 O 2472.22 4.17805 6.64342 0
M  V30 18771 O 2472.25 2.07613 7.95143 0
M  V30 18772 C 2472.09 1.44328 9.27336 0
M  V30 18773 C 2472.63 0.0220036 9.17197 0
M  V30 18774 O 2471.58 -0.626867 8.61923 0
M  V30 18775 C 2473.85 -0.24586 8.30336 0
M  V30 18776 O 2474.59 -1.39011 8.63583 0
M  V30 18777 C 2473.18 -0.273849 6.91158 0
M  V30 18778 O 2473.98 -1.06348 6.02892 0
M  V30 18779 C 2471.85 -0.897649 7.22545 0
M  V30 18780 H 2471.88 -1.9841 7.04286 0
M  V30 18781 H 2473.06 0.739928 6.497 0
M  V30 18782 H 2474.55 0.60668 8.36503 0
M  V30 18783 H 2472.85 -0.352479 10.1829 0
M  V30 18784 H 2472.66 2.00611 10.0304 0
M  V30 18785 H 2471.03 1.41843 9.55327 0
M  V30 18786 H 2473.67 -1.95734 6.03555 0
M  V30 18787 P 2475.53 -1.25109 8.70152 0
M  V30 18788 O 2476.95 -1.35274 9.21221 0
M  V30 18789 O 2475.17 -0.0769065 7.84762 0
M  V30 18790 O 2475.21 -2.55232 7.81161 0
M  V30 18791 C 2475.05 -3.79939 8.58154 0
M  V30 18792 C 2475.59 -4.94023 7.72785 0
M  V30 18793 O 2474.53 -5.18726 6.91205 0
M  V30 18794 C 2476.8 -4.69597 6.85231 0
M  V30 18795 O 2477.54 -5.83832 6.51337 0
M  V30 18796 C 2476.13 -3.96706 5.66633 0
M  V30 18797 O 2476.93 -4.15414 4.49689 0
M  V30 18798 C 2474.8 -4.66153 5.59313 0
M  V30 18799 H 2474.83 -5.47679 4.85214 0
M  V30 18800 H 2476.01 -2.89008 5.86566 0
M  V30 18801 H 2477.5 -4.0121 7.36511 0
M  V30 18802 H 2475.8 -5.80182 8.37584 0
M  V30 18803 H 2475.61 -3.73517 9.52265 0
M  V30 18804 H 2473.98 -3.97163 8.80359 0
M  V30 18805 H 2476.62 -4.90969 4.01921 0
M  V30 18806 P 2478.48 -5.75688 6.64379 0
M  V30 18807 O 2479.88 -6.11991 7.09136 0
M  V30 18808 O 2478.1 -4.30899 6.62018 0
M  V30 18809 O 2478.16 -6.36965 5.19102 0
M  V30 18810 C 2478 -7.83578 5.16515 0
M  V30 18811 C 2478.54 -8.33307 3.82977 0
M  V30 18812 O 2477.48 -8.0998 3.00999 0
M  V30 18813 C 2479.75 -7.65514 3.2257 0
M  V30 18814 O 2480.49 -8.4329 2.32297 0
M  V30 18815 C 2479.09 -6.40075 2.62207 0
M  V30 18816 O 2479.88 -5.92492 1.53687 0
M  V30 18817 C 2477.75 -6.9454 2.18503 0
M  V30 18818 N 2476.7 -5.95905 2.39948 0
M  V30 18819 C 2475.67 -5.89764 1.49837 0
M  V30 18820 O 2475.71 -6.64088 0.490975 0
M  V30 18821 N 2474.66 -5.02821 1.70992 0
M  V30 18822 C 2474.71 -4.21498 2.77236 0
M  V30 18823 C 2475.8 -4.23389 3.68205 0
M  V30 18824 C 2476.77 -5.12792 3.46171 0
M  V30 18825 H 2477.78 -7.22964 1.12076 0
M  V30 18826 H 2478.96 -5.60502 3.36589 0
M  V30 18827 H 2480.45 -7.36197 4.01993 0
M  V30 18828 H 2478.75 -9.41302 3.90009 0
M  V30 18829 H 2478.56 -8.29056 5.99158 0
M  V30 18830 H 2476.93 -8.09989 5.25828 0
M  V30 18831 H 2475.85 -3.54747 4.52399 0
M  V30 18832 H 2477.61 -5.18551 4.1489 0
M  V30 18833 H 2479.67 -6.40705 0.751752 0
M  V30 18834 P 2481.43 -8.4349 2.47671 0
M  V30 18835 O 2482.85 -8.94167 2.5964 0
M  V30 18836 O 2481.07 -7.1704 3.19006 0
M  V30 18837 O 2481.11 -8.16596 0.923387 0
M  V30 18838 C 2480.95 -9.38437 0.108857 0
M  V30 18839 C 2481.49 -9.08175 -1.28353 0
M  V30 18840 O 2480.43 -8.44229 -1.84713 0
M  V30 18841 C 2482.7 -8.18386 -1.42505 0
M  V30 18842 O 2483.44 -8.3501 -2.60497 0
M  V30 18843 C 2482.04 -6.80225 -1.25468 0
M  V30 18844 O 2482.83 -5.81621 -1.91066 0
M  V30 18845 C 2480.7 -7.02416 -1.9168 0
M  V30 18846 H 2480.73 -6.6888 -2.96621 0
M  V30 18847 H 2481.91 -6.53617 -0.192223 0
M  V30 18848 H 2483.4 -8.36622 -0.589963 0
M  V30 18849 H 2481.7 -10.0291 -1.79807 0
M  V30 18850 H 2481.51 -10.2138 0.558219 0
M  V30 18851 H 2479.88 -9.6579 0.0444202 0
M  V30 18852 H 2482.52 -5.69556 -2.79637 0
M  V30 18853 P 2484.38 -8.4349 -2.47671 0
M  V30 18854 O 2485.8 -8.92593 -2.65 0
M  V30 18855 O 2484.02 -7.7568 -1.19296 0
M  V30 18856 O 2484.06 -7.36886 -3.63805 0
M  V30 18857 C 2483.9 -7.95349 -4.982 0
M  V30 18858 C 2484.44 -6.94612 -5.98974 0
M  V30 18859 O 2483.38 -6.10347 -6.11815 0
M  V30 18860 C 2485.65 -6.11426 -5.62335 0
M  V30 18861 O 2486.39 -5.6162 -6.70584 0
M  V30 18862 C 2484.99 -5.04409 -4.73308 0
M  V30 18863 O 2485.78 -3.85992 -4.75183 0
M  V30 18864 C 2483.65 -4.8728 -5.41006 0
M  V30 18865 H 2483.68 -4.02333 -6.11157 0
M  V30 18866 H 2484.86 -5.39466 -3.69543 0
M  V30 18867 H 2486.35 -6.71916 -5.01943 0
M  V30 18868 H 2484.65 -7.4649 -6.93477 0
M  V30 18869 H 2484.46 -8.89416 -5.05237 0
M  V30 18870 H 2482.83 -8.14876 -5.18409 0
M  V30 18871 H 2485.47 -3.27957 -5.4317 0
M  V30 18872 P 2487.33 -5.75688 -6.64379 0
M  V30 18873 O 2488.75 -6.07692 -7.0558 0
M  V30 18874 O 2486.97 -5.88047 -5.19722 0
M  V30 18875 O 2487.01 -4.2322 -7.04443 0
M  V30 18876 C 2486.85 -3.99785 -8.49201 0
M  V30 18877 C 2487.39 -2.60516 -8.79425 0
M  V30 18878 O 2486.33 -1.82663 -8.44573 0
M  V30 18879 C 2488.61 -2.10343 -8.03628 0
M  V30 18880 O 2489.34 -1.09919 -8.67766 0
M  V30 18881 C 2487.94 -1.68446 -6.70876 0
M  V30 18882 O 2488.74 -0.684109 -6.08265 0
M  V30 18883 C 2486.6 -1.17436 -7.18567 0
M  V30 18884 N 2485.56 -1.52699 -6.23988 0
M  V30 18885 C 2485.73 -2.578 -5.40574 0
M  V30 18886 N 2484.7 -2.78966 -4.61193 0
M  V30 18887 C 2483.81 -1.78725 -4.95769 0
M  V30 18888 C 2482.55 -1.45727 -4.44207 0
M  V30 18889 N 2481.95 -2.13994 -3.43613 0
M  V30 18890 N 2481.98 -0.374977 -5.05812 0
M  V30 18891 C 2482.58 0.345585 -6.05615 0
M  V30 18892 N 2483.76 0.0787651 -6.56253 0
M  V30 18893 C 2484.34 -1.00499 -5.96189 0
M  V30 18894 H 2486.63 -0.0804622 -7.31556 0
M  V30 18895 H 2487.81 -2.53396 -6.02698 0
M  V30 18896 H 2489.3 -2.93881 -7.85526 0
M  V30 18897 H 2487.6 -2.52078 -9.87225 0
M  V30 18898 H 2487.41 -4.75072 -9.05887 0
M  V30 18899 H 2485.78 -4.05244 -8.76668 0
M  V30 18900 H 2482.05 1.20098 -6.4532 0
M  V30 18901 H 2486.63 -3.18977 -5.3945 0
M  V30 18902 H 2481.02 -1.84983 -3.10004 0
M  V30 18903 H 2482.42 -2.9465 -3.00843 0
M  V30 18904 H 2488.42 0.177619 -6.34151 0
M  V30 18905 P 2490.28 -1.25109 -8.70152 0
M  V30 18906 O 2491.7 -1.29744 -9.22016 0
M  V30 18907 O 2489.92 -2.13714 -7.55141 0
M  V30 18908 O 2489.96 0.248149 -8.21425 0
M  V30 18909 C 2489.8 1.22779 -9.30434 0
M  V30 18910 C 2490.34 2.56293 -8.80664 0
M  V30 18911 O 2489.28 3.02979 -8.09349 0
M  V30 18912 C 2491.56 2.57523 -7.89775 0
M  V30 18913 O 2492.29 3.7668 -7.89438 0
M  V30 18914 C 2490.89 2.20997 -6.55446 0
M  V30 18915 O 2491.69 2.71895 -5.48509 0
M  V30 18916 C 2489.55 2.89693 -6.67988 0
M  V30 18917 H 2489.58 3.88793 -6.19859 0
M  V30 18918 H 2490.77 1.12046 -6.44229 0
M  V30 18919 H 2492.25 1.7746 -8.19711 0
M  V30 18920 H 2490.56 3.20706 -9.67112 0
M  V30 18921 H 2490.37 0.901032 -10.1892 0
M  V30 18922 H 2488.74 1.33049 -9.56592 0
M  V30 18923 H 2491.37 3.57847 -5.23962 0
M  V30 18924 P 2493.23 3.65191 -7.99657 0
M  V30 18925 O 2494.65 3.89332 -8.45794 0
M  V30 18926 O 2492.87 2.28472 -7.50807 0
M  V30 18927 O 2492.91 4.64972 -6.77611 0
M  V30 18928 C 2492.75 6.06319 -7.16352 0
M  V30 18929 C 2493.29 6.91731 -6.02299 0
M  V30 18930 O 2492.23 6.92449 -5.17064 0
M  V30 18931 C 2494.51 6.43627 -5.25174 0
M  V30 18932 O 2495.24 7.43686 -4.60469 0
M  V30 18933 C 2493.84 5.40275 -4.31916 0
M  V30 18934 O 2494.64 5.25279 -3.14438 0
M  V30 18935 C 2492.5 6.04847 -4.05327 0
M  V30 18936 H 2492.53 6.62195 -3.11261 0
M  V30 18937 H 2493.72 4.42556 -4.81383 0
M  V30 18938 H 2495.2 5.92458 -5.93643 0
M  V30 18939 H 2493.51 7.92655 -6.402 0
M  V30 18940 H 2493.32 6.26671 -8.0846 0
M  V30 18941 H 2491.69 6.29101 -7.32804 0
M  V30 18942 H 2494.32 5.84315 -2.47318 0
M  V30 18943 P 2496.18 7.39546 -4.75277 0
M  V30 18944 O 2497.6 7.84798 -5.01039 0
M  V30 18945 O 2495.82 5.9812 -5.08098 0
M  V30 18946 O 2495.86 7.57503 -3.1866 0
M  V30 18947 C 2495.7 8.97357 -2.74833 0
M  V30 18948 C 2496.24 9.07548 -1.32709 0
M  V30 18949 O 2495.18 8.62072 -0.606159 0
M  V30 18950 C 2497.46 8.25383 -0.938334 0
M  V30 18951 O 2498.2 8.74577 0.146954 0
M  V30 18952 C 2496.79 6.8802 -0.712559 0
M  V30 18953 O 2497.59 6.1189 0.194655 0
M  V30 18954 C 2495.45 7.27966 -0.139777 0
M  V30 18955 H 2495.48 7.25354 0.961601 0
M  V30 18956 H 2496.67 6.32557 -1.65702 0
M  V30 18957 H 2498.15 8.19355 -1.79097 0
M  V30 18958 H 2496.46 10.1294 -1.10029 0
M  V30 18959 H 2496.27 9.64276 -3.41316 0
M  V30 18960 H 2494.64 9.25417 -2.76357 0
M  V30 18961 H 2497.28 6.25267 1.07847 0
M  V30 18962 P 2499.13 8.791 2.18839e-11 0
M  V30 18963 O 2500.55 9.31096 0.027933 0
M  V30 18964 O 2498.77 7.77869 -1.04071 0
M  V30 18965 O 2498.81 8.09533 1.41463 0
M  V30 18966 C 2498.65 9.0349 2.53943 0
M  V30 18967 C 2499.19 8.35226 3.79016 0
M  V30 18968 O 2498.13 7.57992 4.15078 0
M  V30 18969 C 2500.41 7.45087 3.67298 0
M  V30 18970 O 2501.15 7.27796 4.85194 0
M  V30 18971 C 2499.74 6.17323 3.12027 0
M  V30 18972 O 2500.54 5.04231 3.47188 0
M  V30 18973 C 2498.4 6.19961 3.81809 0
M  V30 18974 H 2498.43 5.58218 4.73051 0
M  V30 18975 H 2499.62 6.21726 2.02589 0
M  V30 18976 H 2501.1 7.86112 2.9231 0
M  V30 18977 H 2499.41 9.11627 4.55076 0
M  V30 18978 H 2499.22 9.9573 2.34194 0
M  V30 18979 H 2497.59 9.2792 2.67832 0
M  V30 18980 H 2500.23 4.67702 4.28772 0
M  V30 18981 P 2502.08 7.39546 4.75277 0
M  V30 18982 O 2503.5 7.81861 5.05793 0
M  V30 18983 O 2501.72 7.1065 3.32998 0
M  V30 18984 O 2501.76 6.04542 5.56673 0
M  V30 18985 C 2501.6 6.22839 7.02169 0
M  V30 18986 C 2502.14 4.97725 7.70406 0
M  V30 18987 O 2501.09 4.13208 7.58899 0
M  V30 18988 C 2503.36 4.28231 7.11815 0
M  V30 18989 O 2504.1 3.49945 8.01648 0
M  V30 18990 C 2502.69 3.5063 5.96244 0
M  V30 18991 O 2503.49 2.37008 5.64352 0
M  V30 18992 C 2501.35 3.15122 6.56374 0
M  V30 18993 N 2500.31 3.22311 5.55692 0
M  V30 18994 C 2500.48 3.99655 4.46046 0
M  V30 18995 N 2499.45 3.97599 3.63918 0
M  V30 18996 C 2498.57 3.11159 4.25334 0
M  V30 18997 C 2497.3 2.64972 3.85157 0
M  V30 18998 N 2496.7 3.02132 2.69405 0
M  V30 18999 N 2496.73 1.78482 4.74759 0
M  V30 19000 C 2497.34 1.37463 5.90819 0
M  V30 19001 N 2498.51 1.7733 6.31889 0
M  V30 19002 C 2499.09 2.64393 5.43725 0
M  V30 19003 H 2501.38 2.13823 6.99656 0
M  V30 19004 H 2502.57 4.12931 5.06895 0
M  V30 19005 H 2504.05 5.03285 6.70911 0
M  V30 19006 H 2502.36 5.20001 8.76217 0
M  V30 19007 H 2502.17 7.11046 7.35349 0
M  V30 19008 H 2500.54 6.35815 7.26986 0
M  V30 19009 H 2496.8 0.66574 6.53015 0
M  V30 19010 H 2501.38 4.58037 4.27732 0
M  V30 19011 H 2495.77 2.64828 2.45331 0
M  V30 19012 H 2497.17 3.67472 2.05644 0
M  V30 19013 H 2503.18 1.61619 6.13468 0
M  V30 19014 P 2505.03 3.65191 7.99657 0
M  V30 19015 O 2506.46 3.8425 8.48115 0
M  V30 19016 O 2504.67 4.17805 6.64342 0
M  V30 19017 O 2504.71 2.07613 7.95143 0
M  V30 19018 C 2504.55 1.44328 9.27336 0
M  V30 19019 C 2505.09 0.0220036 9.17197 0
M  V30 19020 O 2504.03 -0.626867 8.61923 0
M  V30 19021 C 2506.31 -0.24586 8.30336 0
M  V30 19022 O 2507.05 -1.39011 8.63583 0
M  V30 19023 C 2505.64 -0.273849 6.91158 0
M  V30 19024 O 2506.44 -1.06348 6.02892 0
M  V30 19025 C 2504.3 -0.897649 7.22545 0
M  V30 19026 H 2504.33 -1.9841 7.04286 0
M  V30 19027 H 2505.52 0.739928 6.497 0
M  V30 19028 H 2507 0.60668 8.36503 0
M  V30 19029 H 2505.31 -0.352479 10.1829 0
M  V30 19030 H 2505.12 2.00611 10.0304 0
M  V30 19031 H 2503.49 1.41843 9.55327 0
M  V30 19032 H 2506.13 -1.95734 6.03555 0
M  V30 19033 P 2507.98 -1.25109 8.70152 0
M  V30 19034 O 2509.41 -1.35274 9.21221 0
M  V30 19035 O 2507.62 -0.0769065 7.84762 0
M  V30 19036 O 2507.66 -2.55232 7.81161 0
M  V30 19037 C 2507.5 -3.79939 8.58154 0
M  V30 19038 C 2508.04 -4.94023 7.72785 0
M  V30 19039 O 2506.99 -5.18726 6.91205 0
M  V30 19040 C 2509.26 -4.69597 6.85231 0
M  V30 19041 O 2510 -5.83832 6.51337 0
M  V30 19042 C 2508.59 -3.96706 5.66633 0
M  V30 19043 O 2509.39 -4.15414 4.49689 0
M  V30 19044 C 2507.25 -4.66153 5.59313 0
M  V30 19045 H 2507.29 -5.47679 4.85214 0
M  V30 19046 H 2508.47 -2.89008 5.86566 0
M  V30 19047 H 2509.95 -4.0121 7.36511 0
M  V30 19048 H 2508.26 -5.80182 8.37584 0
M  V30 19049 H 2508.07 -3.73517 9.52265 0
M  V30 19050 H 2506.44 -3.97163 8.80359 0
M  V30 19051 H 2509.08 -4.90969 4.01921 0
M  V30 19052 P 2510.94 -5.75688 6.64379 0
M  V30 19053 O 2512.36 -6.11915 7.01921 0
M  V30 19054 O 2510.58 -4.30744 6.56026 0
M  V30 19055 O 2510.61 -6.37042 5.19165 0
M  V30 19056 C 2510.45 -7.83662 5.1657 0
M  V30 19057 C 2510.99 -8.33398 3.83019 0
M  V30 19058 O 2509.94 -8.0998 3.00999 0
M  V30 19059 C 2512.21 -7.65514 3.2257 0
M  V30 19060 O 2512.95 -8.4329 2.32297 0
M  V30 19061 C 2511.54 -6.40075 2.62207 0
M  V30 19062 O 2512.34 -5.92338 1.5428 0
M  V30 19063 C 2510.2 -6.9454 2.18503 0
M  V30 19064 N 2509.16 -5.95905 2.39948 0
M  V30 19065 C 2509.33 -4.98383 3.32108 0
M  V30 19066 N 2508.3 -4.16798 3.41761 0
M  V30 19067 C 2507.42 -4.65287 2.47461 0
M  V30 19068 C 2506.15 -4.18946 2.07461 0
M  V30 19069 N 2505.55 -3.09661 2.60717 0
M  V30 19070 N 2505.59 -4.95327 1.09101 0
M  V30 19071 C 2506.19 -6.04369 0.519812 0
M  V30 19072 N 2507.37 -6.50694 0.855982 0
M  V30 19073 C 2507.94 -5.75818 1.84322 0
M  V30 19074 H 2510.24 -7.22964 1.12076 0
M  V30 19075 H 2511.42 -5.60502 3.36589 0
M  V30 19076 H 2512.9 -7.35707 4.02681 0
M  V30 19077 H 2511.21 -9.41302 3.90009 0
M  V30 19078 H 2511.02 -8.29056 5.99158 0
M  V30 19079 H 2509.39 -8.10073 5.25882 0
M  V30 19080 H 2505.65 -6.55843 -0.270373 0
M  V30 19081 H 2510.23 -4.88564 3.92502 0
M  V30 19082 H 2504.62 -2.80523 2.27218 0
M  V30 19083 H 2506.03 -2.55848 3.34465 0
M  V30 19084 H 2512.03 -6.30224 0.72668 0
M  V30 19085 P 2513.89 -8.4349 2.47671 0
M  V30 19086 O 2515.31 -8.94167 2.5964 0
M  V30 19087 O 2513.53 -7.1704 3.19006 0
M  V30 19088 O 2513.56 -8.16596 0.923387 0
M  V30 19089 C 2513.4 -9.38437 0.108857 0
M  V30 19090 C 2513.94 -9.08175 -1.28353 0
M  V30 19091 O 2512.89 -8.44229 -1.84713 0
M  V30 19092 C 2515.16 -8.18386 -1.42505 0
M  V30 19093 O 2515.9 -8.3501 -2.60497 0
M  V30 19094 C 2514.49 -6.80225 -1.25468 0
M  V30 19095 O 2515.29 -5.81621 -1.91066 0
M  V30 19096 C 2513.15 -7.02416 -1.9168 0
M  V30 19097 H 2513.19 -6.6888 -2.96621 0
M  V30 19098 H 2514.37 -6.53617 -0.192223 0
M  V30 19099 H 2515.85 -8.36622 -0.589963 0
M  V30 19100 H 2514.16 -10.0291 -1.79807 0
M  V30 19101 H 2513.97 -10.2138 0.558219 0
M  V30 19102 H 2512.34 -9.6579 0.0444202 0
M  V30 19103 H 2514.98 -5.69556 -2.79637 0
M  V30 19104 P 2516.84 -8.4349 -2.47671 0
M  V30 19105 O 2518.26 -8.92689 -2.65029 0
M  V30 19106 O 2516.48 -7.7568 -1.19296 0
M  V30 19107 O 2516.51 -7.36886 -3.63805 0
M  V30 19108 C 2516.35 -7.95433 -4.98253 0
M  V30 19109 C 2516.89 -6.94612 -5.98974 0
M  V30 19110 O 2515.84 -6.10277 -6.11744 0
M  V30 19111 C 2518.11 -6.11426 -5.62335 0
M  V30 19112 O 2518.85 -5.6162 -6.70584 0
M  V30 19113 C 2517.44 -5.04409 -4.73308 0
M  V30 19114 O 2518.24 -3.86404 -4.74719 0
M  V30 19115 C 2516.11 -4.8728 -5.41006 0
M  V30 19116 N 2515.06 -4.65812 -4.42377 0
M  V30 19117 C 2515.23 -5.09132 -3.15382 0
M  V30 19118 N 2514.2 -4.84021 -2.3716 0
M  V30 19119 C 2513.32 -4.18386 -3.20441 0
M  V30 19120 C 2512.05 -3.6275 -2.94905 0
M  V30 19121 N 2511.45 -3.65794 -1.73372 0
M  V30 19122 N 2511.49 -3.05008 -4.05243 0
M  V30 19123 C 2512.09 -2.98348 -5.28159 0
M  V30 19124 N 2513.27 -3.48171 -5.56333 0
M  V30 19125 C 2513.84 -4.06869 -4.47212 0
M  V30 19126 H 2516.14 -4.02278 -6.11074 0
M  V30 19127 H 2517.32 -5.39013 -3.70026 0
M  V30 19128 H 2518.8 -6.71916 -5.01943 0
M  V30 19129 H 2517.11 -7.45796 -6.94223 0
M  V30 19130 H 2516.92 -8.89416 -5.05237 0
M  V30 19131 H 2515.29 -8.14876 -5.18409 0
M  V30 19132 H 2511.55 -2.47853 -6.07807 0
M  V30 19133 H 2516.13 -5.59989 -2.81362 0
M  V30 19134 H 2510.52 -3.23218 -1.60782 0
M  V30 19135 H 2511.93 -4.10523 -0.937856 0
M  V30 19136 H 2517.93 -3.27906 -5.43085 0
M  V30 19137 P 2519.79 -5.75688 -6.64379 0
M  V30 19138 O 2521.21 -6.07627 -7.05504 0
M  V30 19139 O 2519.43 -5.88047 -5.19722 0
M  V30 19140 O 2519.46 -4.2322 -7.04443 0
M  V30 19141 C 2519.3 -3.99743 -8.4911 0
M  V30 19142 C 2519.84 -2.60516 -8.79425 0
M  V30 19143 O 2518.79 -1.82684 -8.4467 0
M  V30 19144 C 2521.06 -2.10343 -8.03628 0
M  V30 19145 O 2521.8 -1.09919 -8.67766 0
M  V30 19146 C 2520.39 -1.68446 -6.70876 0
M  V30 19147 O 2521.19 -0.678137 -6.08433 0
M  V30 19148 C 2519.06 -1.17436 -7.18567 0
M  V30 19149 H 2519.09 -0.0804732 -7.31656 0
M  V30 19150 H 2520.27 -2.54037 -6.02537 0
M  V30 19151 H 2521.75 -2.93881 -7.85526 0
M  V30 19152 H 2520.06 -2.53065 -9.86973 0
M  V30 19153 H 2519.87 -4.75072 -9.05887 0
M  V30 19154 H 2518.24 -4.05244 -8.76668 0
M  V30 19155 H 2520.88 0.177647 -6.34251 0
M  V30 19156 P 2522.74 -1.25109 -8.70152 0
M  V30 19157 O 2524.16 -1.29772 -9.22214 0
M  V30 19158 O 2522.38 -2.13714 -7.55141 0
M  V30 19159 O 2522.41 0.248149 -8.21425 0
M  V30 19160 C 2522.25 1.22779 -9.30434 0
M  V30 19161 C 2522.79 2.56265 -8.80568 0
M  V30 19162 O 2521.74 3.02979 -8.09349 0
M  V30 19163 C 2524.01 2.57523 -7.89775 0
M  V30 19164 O 2524.75 3.7668 -7.89438 0
M  V30 19165 C 2523.34 2.20997 -6.55446 0
M  V30 19166 O 2524.14 2.71851 -5.48419 0
M  V30 19167 C 2522.01 2.89693 -6.67988 0
M  V30 19168 N 2520.96 2.08895 -6.07487 0
M  V30 19169 C 2521.03 0.760559 -6.14209 0
M  V30 19170 N 2519.98 0.200108 -5.52538 0
M  V30 19171 C 2519.25 1.22692 -5.09742 0
M  V30 19172 C 2517.94 1.24782 -4.48775 0
M  V30 19173 O 2517.21 0.290617 -4.19294 0
M  V30 19174 N 2517.51 2.50468 -4.22428 0
M  V30 19175 C 2518.26 3.67142 -4.51974 0
M  V30 19176 N 2517.66 4.85096 -4.14091 0
M  V30 19177 N 2519.41 3.67821 -5.12831 0
M  V30 19178 C 2519.87 2.43698 -5.4105 0
M  V30 19179 H 2522.04 3.88793 -6.19859 0
M  V30 19180 H 2523.22 1.12029 -6.4413 0
M  V30 19181 H 2524.71 1.78279 -8.19533 0
M  V30 19182 H 2523.01 3.20706 -9.67112 0
M  V30 19183 H 2522.82 0.901032 -10.1892 0
M  V30 19184 H 2521.19 1.33049 -9.56592 0
M  V30 19185 H 2516.61 2.61953 -3.79465 0
M  V30 19186 H 2521.82 0.200439 -6.63497 0
M  V30 19187 H 2516.75 4.8334 -3.66367 0
M  V30 19188 H 2518.13 5.7474 -4.33841 0
M  V30 19189 H 2523.83 3.5779 -5.23879 0
M  V30 19190 P 2525.69 3.65191 -7.99657 0
M  V30 19191 O 2527.11 3.89332 -8.45794 0
M  V30 19192 O 2525.33 2.28472 -7.50807 0
M  V30 19193 O 2525.36 4.64972 -6.77611 0
M  V30 19194 C 2525.2 6.06319 -7.16352 0
M  V30 19195 C 2525.74 6.91731 -6.02299 0
M  V30 19196 O 2524.69 6.92449 -5.17064 0
M  V30 19197 C 2526.96 6.43627 -5.25174 0
M  V30 19198 O 2527.7 7.43686 -4.60469 0
M  V30 19199 C 2526.29 5.40275 -4.31916 0
M  V30 19200 O 2527.09 5.25279 -3.14438 0
M  V30 19201 C 2524.96 6.04847 -4.05327 0
M  V30 19202 H 2524.99 6.62195 -3.11261 0
M  V30 19203 H 2526.17 4.42556 -4.81383 0
M  V30 19204 H 2527.66 5.92458 -5.93643 0
M  V30 19205 H 2525.96 7.92655 -6.402 0
M  V30 19206 H 2525.77 6.26671 -8.0846 0
M  V30 19207 H 2524.14 6.29101 -7.32804 0
M  V30 19208 H 2526.78 5.84315 -2.47318 0
M  V30 19209 P 2528.64 7.39546 -4.75277 0
M  V30 19210 O 2530.06 7.84798 -5.01039 0
M  V30 19211 O 2528.28 5.9812 -5.08098 0
M  V30 19212 O 2528.32 7.57503 -3.1866 0
M  V30 19213 C 2528.16 8.97357 -2.74833 0
M  V30 19214 C 2528.7 9.07548 -1.32709 0
M  V30 19215 O 2527.64 8.62072 -0.606159 0
M  V30 19216 C 2529.91 8.25383 -0.938334 0
M  V30 19217 O 2530.65 8.74577 0.146954 0
M  V30 19218 C 2529.24 6.8802 -0.712559 0
M  V30 19219 O 2530.04 6.1189 0.194655 0
M  V30 19220 C 2527.91 7.27966 -0.139777 0
M  V30 19221 H 2527.94 7.25354 0.961601 0
M  V30 19222 H 2529.12 6.32557 -1.65702 0
M  V30 19223 H 2530.61 8.19355 -1.79097 0
M  V30 19224 H 2528.91 10.1294 -1.10029 0
M  V30 19225 H 2528.72 9.64276 -3.41316 0
M  V30 19226 H 2527.09 9.25417 -2.76357 0
M  V30 19227 H 2529.73 6.25267 1.07847 0
M  V30 19228 P 2531.59 8.791 2.21941e-11 0
M  V30 19229 O 2533.01 9.31096 0.027933 0
M  V30 19230 O 2531.23 7.77869 -1.04071 0
M  V30 19231 O 2531.27 8.09533 1.41463 0
M  V30 19232 C 2531.11 9.0349 2.53943 0
M  V30 19233 C 2531.65 8.35226 3.79016 0
M  V30 19234 O 2530.59 7.57992 4.15078 0
M  V30 19235 C 2532.86 7.45087 3.67298 0
M  V30 19236 O 2533.6 7.27796 4.85194 0
M  V30 19237 C 2532.2 6.17323 3.12027 0
M  V30 19238 O 2532.99 5.04231 3.47188 0
M  V30 19239 C 2530.86 6.19961 3.81809 0
M  V30 19240 H 2530.89 5.58218 4.73051 0
M  V30 19241 H 2532.07 6.21726 2.02589 0
M  V30 19242 H 2533.56 7.86112 2.9231 0
M  V30 19243 H 2531.86 9.11627 4.55076 0
M  V30 19244 H 2531.67 9.9573 2.34194 0
M  V30 19245 H 2530.04 9.2792 2.67832 0
M  V30 19246 H 2532.68 4.67702 4.28772 0
M  V30 19247 P 2534.54 7.39546 4.75277 0
M  V30 19248 O 2535.96 7.81777 5.05738 0
M  V30 19249 O 2534.18 7.1065 3.32998 0
M  V30 19250 O 2534.22 6.04542 5.56673 0
M  V30 19251 C 2534.06 6.22772 7.02095 0
M  V30 19252 C 2534.6 4.97725 7.70406 0
M  V30 19253 O 2533.54 4.13256 7.58987 0
M  V30 19254 C 2535.81 4.28231 7.11815 0
M  V30 19255 O 2536.55 3.49945 8.01648 0
M  V30 19256 C 2535.15 3.5063 5.96244 0
M  V30 19257 O 2535.94 2.36482 5.64681 0
M  V30 19258 C 2533.81 3.15122 6.56374 0
M  V30 19259 H 2533.84 2.13853 6.99751 0
M  V30 19260 H 2535.02 4.13501 5.06559 0
M  V30 19261 H 2536.51 5.03285 6.70911 0
M  V30 19262 H 2534.81 5.20877 8.75697 0
M  V30 19263 H 2534.62 7.11046 7.35349 0
M  V30 19264 H 2532.99 6.35815 7.26986 0
M  V30 19265 H 2535.63 1.61644 6.13565 0
M  V30 19266 P 2537.49 3.65191 7.99657 0
M  V30 19267 O 2538.91 3.8425 8.48115 0
M  V30 19268 O 2537.13 4.17805 6.64342 0
M  V30 19269 O 2537.17 2.07613 7.95143 0
M  V30 19270 C 2537.01 1.44328 9.27336 0
M  V30 19271 C 2537.55 0.0220036 9.17197 0
M  V30 19272 O 2536.49 -0.626867 8.61923 0
M  V30 19273 C 2538.77 -0.24586 8.30336 0
M  V30 19274 O 2539.5 -1.39011 8.63583 0
M  V30 19275 C 2538.1 -0.273849 6.91158 0
M  V30 19276 O 2538.9 -1.06348 6.02892 0
M  V30 19277 C 2536.76 -0.897649 7.22545 0
M  V30 19278 H 2536.79 -1.9841 7.04286 0
M  V30 19279 H 2537.97 0.739928 6.497 0
M  V30 19280 H 2539.46 0.60668 8.36503 0
M  V30 19281 H 2537.76 -0.352479 10.1829 0
M  V30 19282 H 2537.57 2.00611 10.0304 0
M  V30 19283 H 2535.94 1.41843 9.55327 0
M  V30 19284 H 2538.58 -1.95734 6.03555 0
M  V30 19285 P 2540.44 -1.25109 8.70152 0
M  V30 19286 O 2541.86 -1.35274 9.21221 0
M  V30 19287 O 2540.08 -0.0769065 7.84762 0
M  V30 19288 O 2540.12 -2.55232 7.81161 0
M  V30 19289 C 2539.96 -3.79939 8.58154 0
M  V30 19290 C 2540.5 -4.94023 7.72785 0
M  V30 19291 O 2539.44 -5.18726 6.91205 0
M  V30 19292 C 2541.72 -4.69597 6.85231 0
M  V30 19293 O 2542.45 -5.83832 6.51337 0
M  V30 19294 C 2541.05 -3.96706 5.66633 0
M  V30 19295 O 2541.85 -4.15414 4.49689 0
M  V30 19296 C 2539.71 -4.66153 5.59313 0
M  V30 19297 H 2539.74 -5.47679 4.85214 0
M  V30 19298 H 2540.92 -2.89008 5.86566 0
M  V30 19299 H 2542.41 -4.0121 7.36511 0
M  V30 19300 H 2540.71 -5.80182 8.37584 0
M  V30 19301 H 2540.52 -3.73517 9.52265 0
M  V30 19302 H 2538.89 -3.97163 8.80359 0
M  V30 19303 H 2541.53 -4.90969 4.01921 0
M  V30 19304 P 2543.39 -5.75688 6.64379 0
M  V30 19305 O 2544.81 -6.11849 7.01846 0
M  V30 19306 O 2543.03 -4.30744 6.56026 0
M  V30 19307 O 2543.07 -6.37042 5.19165 0
M  V30 19308 C 2542.91 -7.83578 5.16515 0
M  V30 19309 C 2543.45 -8.33398 3.83019 0
M  V30 19310 O 2542.39 -8.10074 3.01034 0
M  V30 19311 C 2544.67 -7.65514 3.2257 0
M  V30 19312 O 2545.4 -8.4329 2.32297 0
M  V30 19313 C 2544 -6.40075 2.62207 0
M  V30 19314 O 2544.8 -5.92589 1.53712 0
M  V30 19315 C 2542.66 -6.9454 2.18503 0
M  V30 19316 H 2542.69 -7.23063 1.12091 0
M  V30 19317 H 2543.88 -5.6025 3.37201 0
M  V30 19318 H 2545.36 -7.35707 4.02681 0
M  V30 19319 H 2543.67 -9.40912 3.9095 0
M  V30 19320 H 2543.48 -8.29056 5.99158 0
M  V30 19321 H 2541.85 -8.10073 5.25882 0
M  V30 19322 H 2544.48 -6.30324 0.726794 0
M  V30 19323 P 2546.34 -8.4349 2.47671 0
M  V30 19324 O 2547.76 -8.94167 2.5964 0
M  V30 19325 O 2545.98 -7.1704 3.19006 0
M  V30 19326 O 2546.02 -8.16596 0.923387 0
M  V30 19327 C 2545.86 -9.38437 0.108857 0
M  V30 19328 C 2546.4 -9.08175 -1.28353 0
M  V30 19329 O 2545.34 -8.44229 -1.84713 0
M  V30 19330 C 2547.62 -8.18386 -1.42505 0
M  V30 19331 O 2548.35 -8.3501 -2.60497 0
M  V30 19332 C 2546.95 -6.80225 -1.25468 0
M  V30 19333 O 2547.75 -5.81621 -1.91066 0
M  V30 19334 C 2545.61 -7.02416 -1.9168 0
M  V30 19335 H 2545.64 -6.6888 -2.96621 0
M  V30 19336 H 2546.83 -6.53617 -0.192223 0
M  V30 19337 H 2548.31 -8.36622 -0.589963 0
M  V30 19338 H 2546.62 -10.0291 -1.79807 0
M  V30 19339 H 2546.43 -10.2138 0.558219 0
M  V30 19340 H 2544.8 -9.6579 0.0444202 0
M  V30 19341 H 2547.43 -5.69556 -2.79637 0
M  V30 19342 P 2549.29 -8.4349 -2.47671 0
M  V30 19343 O 2550.71 -8.92593 -2.65 0
M  V30 19344 O 2548.93 -7.7568 -1.19296 0
M  V30 19345 O 2548.97 -7.36886 -3.63805 0
M  V30 19346 C 2548.81 -7.95349 -4.982 0
M  V30 19347 C 2549.35 -6.94612 -5.98974 0
M  V30 19348 O 2548.29 -6.10347 -6.11815 0
M  V30 19349 C 2550.57 -6.11426 -5.62335 0
M  V30 19350 O 2551.31 -5.6162 -6.70584 0
M  V30 19351 C 2549.9 -5.04409 -4.73308 0
M  V30 19352 O 2550.7 -3.85992 -4.75183 0
M  V30 19353 C 2548.56 -4.8728 -5.41006 0
M  V30 19354 H 2548.59 -4.02333 -6.11157 0
M  V30 19355 H 2549.78 -5.39466 -3.69543 0
M  V30 19356 H 2551.26 -6.71916 -5.01943 0
M  V30 19357 H 2549.57 -7.4649 -6.93477 0
M  V30 19358 H 2549.38 -8.89416 -5.05237 0
M  V30 19359 H 2547.75 -8.14876 -5.18409 0
M  V30 19360 H 2550.39 -3.27957 -5.4317 0
M  V30 19361 P 2552.24 -5.75688 -6.64379 0
M  V30 19362 O 2553.67 -6.07627 -7.05504 0
M  V30 19363 O 2551.88 -5.88047 -5.19722 0
M  V30 19364 O 2551.92 -4.2322 -7.04443 0
M  V30 19365 C 2551.76 -3.99743 -8.4911 0
M  V30 19366 C 2552.3 -2.60516 -8.79425 0
M  V30 19367 O 2551.24 -1.82684 -8.4467 0
M  V30 19368 C 2553.52 -2.10343 -8.03628 0
M  V30 19369 O 2554.26 -1.09919 -8.67766 0
M  V30 19370 C 2552.85 -1.68446 -6.70876 0
M  V30 19371 O 2553.65 -0.678137 -6.08433 0
M  V30 19372 C 2551.51 -1.17436 -7.18567 0
M  V30 19373 H 2551.54 -0.0804732 -7.31656 0
M  V30 19374 H 2552.73 -2.54037 -6.02537 0
M  V30 19375 H 2554.21 -2.93881 -7.85526 0
M  V30 19376 H 2552.52 -2.53065 -9.86973 0
M  V30 19377 H 2552.33 -4.75072 -9.05887 0
M  V30 19378 H 2550.7 -4.05244 -8.76668 0
M  V30 19379 H 2553.34 0.177647 -6.34251 0
M  V30 19380 P 2555.19 -1.25109 -8.70152 0
M  V30 19381 O 2556.61 -1.29758 -9.22115 0
M  V30 19382 O 2554.83 -2.13714 -7.55141 0
M  V30 19383 O 2554.87 0.248149 -8.21425 0
M  V30 19384 C 2554.71 1.22792 -9.30533 0
M  V30 19385 C 2555.25 2.56293 -8.80664 0
M  V30 19386 O 2554.2 3.02944 -8.09255 0
M  V30 19387 C 2556.47 2.57523 -7.89775 0
M  V30 19388 O 2557.21 3.7668 -7.89438 0
M  V30 19389 C 2555.8 2.20997 -6.55446 0
M  V30 19390 O 2556.6 2.71302 -5.48691 0
M  V30 19391 C 2554.46 2.89693 -6.67988 0
M  V30 19392 N 2553.42 2.08895 -6.07487 0
M  V30 19393 C 2553.59 0.753809 -5.94137 0
M  V30 19394 N 2552.56 0.146592 -5.38801 0
M  V30 19395 C 2551.68 1.1768 -5.13693 0
M  V30 19396 C 2550.41 1.17563 -4.52477 0
M  V30 19397 N 2549.84 2.41918 -4.45789 0
M  V30 19398 C 2550.45 3.56493 -4.90792 0
M  V30 19399 N 2551.62 3.61423 -5.47817 0
M  V30 19400 C 2552.2 2.37779 -5.5588 0
M  V30 19401 H 2555.68 1.12673 -6.44018 0
M  V30 19402 H 2557.16 1.7746 -8.19711 0
M  V30 19403 H 2555.47 3.21673 -9.66791 0
M  V30 19404 H 2555.28 0.901032 -10.1892 0
M  V30 19405 H 2553.65 1.33049 -9.56592 0
M  V30 19406 H 2554.49 0.233081 -6.26266 0
M  V30 19407 H 2556.29 3.5779 -5.23879 0
M  V30 19408 P 2558.14 3.65191 -7.99657 0
M  V30 19409 O 2559.55 3.87414 -8.52829 0
M  V30 19410 O 2557.77 2.26932 -7.566 0
M  V30 19411 O 2557.82 4.64915 -6.77529 0
M  V30 19412 C 2557.66 6.06319 -7.16352 0
M  V30 19413 C 2558.2 6.91655 -6.02234 0
M  V30 19414 O 2557.15 6.92369 -5.17005 0
M  V30 19415 C 2559.42 6.43627 -5.25174 0
M  V30 19416 O 2560.16 7.43686 -4.60469 0
M  V30 19417 C 2558.75 5.40275 -4.31916 0
M  V30 19418 O 2559.55 5.25193 -3.14386 0
M  V30 19419 C 2557.41 6.04847 -4.05327 0
M  V30 19420 N 2556.37 5.04166 -3.98114 0
M  V30 19421 C 2555.34 5.2366 -3.09923 0
M  V30 19422 O 2555.37 6.23355 -2.34204 0
M  V30 19423 N 2554.32 4.34279 -3.05727 0
M  V30 19424 C 2554.37 3.26317 -3.84756 0
M  V30 19425 C 2555.47 3.02504 -4.72573 0
M  V30 19426 C 2556.43 3.94493 -4.76618 0
M  V30 19427 H 2557.45 6.62104 -3.11218 0
M  V30 19428 H 2558.63 4.42969 -4.80867 0
M  V30 19429 H 2560.11 5.93122 -5.93121 0
M  V30 19430 H 2558.42 7.93295 -6.39407 0
M  V30 19431 H 2558.23 6.26671 -8.0846 0
M  V30 19432 H 2556.6 6.29036 -7.32728 0
M  V30 19433 H 2555.52 2.12921 -5.34017 0
M  V30 19434 H 2557.28 3.80658 -5.44176 0
M  V30 19435 H 2559.33 5.93572 -2.52637 0
M  V30 19436 P 2561.09 7.39546 -4.75277 0
M  V30 19437 O 2562.52 7.84798 -5.01039 0
M  V30 19438 O 2560.73 5.9812 -5.08098 0
M  V30 19439 O 2560.77 7.57503 -3.1866 0
M  V30 19440 C 2560.61 8.97357 -2.74833 0
M  V30 19441 C 2561.15 9.07548 -1.32709 0
M  V30 19442 O 2560.1 8.62072 -0.606159 0
M  V30 19443 C 2562.37 8.25383 -0.938334 0
M  V30 19444 O 2563.11 8.74577 0.146954 0
M  V30 19445 C 2561.7 6.8802 -0.712559 0
M  V30 19446 O 2562.5 6.1189 0.194655 0
M  V30 19447 C 2560.36 7.27966 -0.139777 0
M  V30 19448 H 2560.4 7.25354 0.961601 0
M  V30 19449 H 2561.58 6.32557 -1.65702 0
M  V30 19450 H 2563.06 8.19355 -1.79097 0
M  V30 19451 H 2561.37 10.1294 -1.10029 0
M  V30 19452 H 2561.18 9.64276 -3.41316 0
M  V30 19453 H 2559.55 9.25417 -2.76357 0
M  V30 19454 H 2562.19 6.25267 1.07847 0
M  V30 19455 P 2564.05 8.791 2.25043e-11 0
M  V30 19456 O 2565.47 9.31296 0.027939 0
M  V30 19457 O 2563.69 7.77869 -1.04071 0
M  V30 19458 O 2563.72 8.09533 1.41463 0
M  V30 19459 C 2563.56 9.0349 2.53943 0
M  V30 19460 C 2564.1 8.35135 3.78975 0
M  V30 19461 O 2563.05 7.57992 4.15078 0
M  V30 19462 C 2565.32 7.45087 3.67298 0
M  V30 19463 O 2566.06 7.27796 4.85194 0
M  V30 19464 C 2564.65 6.17323 3.12027 0
M  V30 19465 O 2565.45 5.04149 3.47132 0
M  V30 19466 C 2563.31 6.19961 3.81809 0
M  V30 19467 N 2562.27 5.71575 2.93223 0
M  V30 19468 C 2562.33 5.97133 1.62693 0
M  V30 19469 N 2561.29 5.44066 0.984414 0
M  V30 19470 C 2560.55 4.87093 1.93987 0
M  V30 19471 C 2559.25 4.26449 1.8738 0
M  V30 19472 O 2558.52 4.1089 0.884377 0
M  V30 19473 N 2558.82 3.82483 3.08036 0
M  V30 19474 C 2559.57 3.95124 4.27727 0
M  V30 19475 N 2558.97 3.4084 5.39089 0
M  V30 19476 N 2560.72 4.55264 4.3706 0
M  V30 19477 C 2561.18 5.00861 3.18217 0
M  V30 19478 H 2563.35 5.58218 4.73051 0
M  V30 19479 H 2564.53 6.21631 2.02558 0
M  V30 19480 H 2566.01 7.85819 2.93096 0
M  V30 19481 H 2564.32 9.11627 4.55076 0
M  V30 19482 H 2564.13 9.9573 2.34194 0
M  V30 19483 H 2562.5 9.2792 2.67832 0
M  V30 19484 H 2557.92 3.38323 3.1329 0
M  V30 19485 H 2563.13 6.53891 1.14265 0
M  V30 19486 H 2558.06 2.93852 5.30559 0
M  V30 19487 H 2559.44 3.47631 6.30632 0
M  V30 19488 H 2565.14 4.67628 4.28704 0
M  V30 19489 P 2567 7.39546 4.75277 0
M  V30 19490 O 2568.42 7.81777 5.05738 0
M  V30 19491 O 2566.64 7.1065 3.32998 0
M  V30 19492 O 2566.67 6.04542 5.56673 0
M  V30 19493 C 2566.51 6.22772 7.02095 0
M  V30 19494 C 2567.05 4.97725 7.70406 0
M  V30 19495 O 2566 4.13256 7.58987 0
M  V30 19496 C 2568.27 4.28231 7.11815 0
M  V30 19497 O 2569.01 3.49945 8.01648 0
M  V30 19498 C 2567.6 3.5063 5.96244 0
M  V30 19499 O 2568.4 2.36482 5.64681 0
M  V30 19500 C 2566.26 3.15122 6.56374 0
M  V30 19501 H 2566.3 2.13853 6.99751 0
M  V30 19502 H 2567.48 4.13501 5.06559 0
M  V30 19503 H 2568.96 5.03285 6.70911 0
M  V30 19504 H 2567.27 5.20877 8.75697 0
M  V30 19505 H 2567.08 7.11046 7.35349 0
M  V30 19506 H 2565.45 6.35815 7.26986 0
M  V30 19507 H 2568.09 1.61644 6.13565 0
M  V30 19508 P 2569.95 3.65191 7.99657 0
M  V30 19509 O 2571.37 3.84292 8.48206 0
M  V30 19510 O 2569.59 4.17805 6.64342 0
M  V30 19511 O 2569.62 2.07613 7.95143 0
M  V30 19512 C 2569.46 1.44344 9.27435 0
M  V30 19513 C 2570 0.0220036 9.17197 0
M  V30 19514 O 2568.95 -0.626794 8.61824 0
M  V30 19515 C 2571.22 -0.24586 8.30336 0
M  V30 19516 O 2571.96 -1.39011 8.63583 0
M  V30 19517 C 2570.55 -0.273849 6.91158 0
M  V30 19518 O 2571.35 -1.05728 6.029 0
M  V30 19519 C 2569.22 -0.897649 7.22545 0
M  V30 19520 N 2568.17 -0.292839 6.41732 0
M  V30 19521 C 2568.34 0.950603 5.91308 0
M  V30 19522 N 2567.31 1.37732 5.21105 0
M  V30 19523 C 2566.43 0.318109 5.26039 0
M  V30 19524 C 2565.16 0.146766 4.6727 0
M  V30 19525 N 2564.6 -1.06525 4.95887 0
M  V30 19526 C 2565.2 -2.0378 5.71347 0
M  V30 19527 N 2566.38 -1.92445 6.27451 0
M  V30 19528 C 2566.95 -0.715382 6.00353 0
M  V30 19529 H 2570.43 0.733318 6.49674 0
M  V30 19530 H 2571.91 0.60668 8.36503 0
M  V30 19531 H 2570.22 -0.362662 10.1825 0
M  V30 19532 H 2570.03 2.00611 10.0304 0
M  V30 19533 H 2568.4 1.41843 9.55327 0
M  V30 19534 H 2569.24 1.54076 6.07465 0
M  V30 19535 H 2571.04 -1.95704 6.0346 0
M  V30 19536 P 2572.9 -1.25109 8.70152 0
M  V30 19537 O 2574.32 -1.35274 9.21221 0
M  V30 19538 O 2572.54 -0.0769065 7.84762 0
M  V30 19539 O 2572.57 -2.55232 7.81161 0
M  V30 19540 C 2572.41 -3.79939 8.58154 0
M  V30 19541 C 2572.95 -4.94023 7.72785 0
M  V30 19542 O 2571.9 -5.18726 6.91205 0
M  V30 19543 C 2574.17 -4.69597 6.85231 0
M  V30 19544 O 2574.91 -5.83832 6.51337 0
M  V30 19545 C 2573.5 -3.96706 5.66633 0
M  V30 19546 O 2574.3 -4.15414 4.49689 0
M  V30 19547 C 2572.17 -4.66153 5.59313 0
M  V30 19548 H 2572.2 -5.47679 4.85214 0
M  V30 19549 H 2573.38 -2.89008 5.86566 0
M  V30 19550 H 2574.87 -4.0121 7.36511 0
M  V30 19551 H 2573.17 -5.80182 8.37584 0
M  V30 19552 H 2572.98 -3.73517 9.52265 0
M  V30 19553 H 2571.35 -3.97163 8.80359 0
M  V30 19554 H 2573.99 -4.90969 4.01921 0
M  V30 19555 P 2575.85 -5.75688 6.64379 0
M  V30 19556 O 2577.27 -6.11849 7.01846 0
M  V30 19557 O 2575.49 -4.30744 6.56026 0
M  V30 19558 O 2575.52 -6.37042 5.19165 0
M  V30 19559 C 2575.36 -7.83578 5.16515 0
M  V30 19560 C 2575.9 -8.33398 3.83019 0
M  V30 19561 O 2574.85 -8.10074 3.01034 0
M  V30 19562 C 2577.12 -7.65514 3.2257 0
M  V30 19563 O 2577.86 -8.4329 2.32297 0
M  V30 19564 C 2576.45 -6.40075 2.62207 0
M  V30 19565 O 2577.25 -5.92589 1.53712 0
M  V30 19566 C 2575.12 -6.9454 2.18503 0
M  V30 19567 H 2575.15 -7.23063 1.12091 0
M  V30 19568 H 2576.33 -5.6025 3.37201 0
M  V30 19569 H 2577.82 -7.35707 4.02681 0
M  V30 19570 H 2576.12 -9.40912 3.9095 0
M  V30 19571 H 2575.93 -8.29056 5.99158 0
M  V30 19572 H 2574.3 -8.10073 5.25882 0
M  V30 19573 H 2576.94 -6.30324 0.726794 0
M  V30 19574 P 2578.8 -8.4349 2.47671 0
M  V30 19575 O 2580.22 -8.94167 2.5964 0
M  V30 19576 O 2578.44 -7.1704 3.19006 0
M  V30 19577 O 2578.48 -8.16596 0.923387 0
M  V30 19578 C 2578.32 -9.38437 0.108857 0
M  V30 19579 C 2578.86 -9.08175 -1.28353 0
M  V30 19580 O 2577.8 -8.44229 -1.84713 0
M  V30 19581 C 2580.07 -8.18386 -1.42505 0
M  V30 19582 O 2580.81 -8.3501 -2.60497 0
M  V30 19583 C 2579.4 -6.80225 -1.25468 0
M  V30 19584 O 2580.2 -5.81621 -1.91066 0
M  V30 19585 C 2578.07 -7.02416 -1.9168 0
M  V30 19586 H 2578.1 -6.6888 -2.96621 0
M  V30 19587 H 2579.28 -6.53617 -0.192223 0
M  V30 19588 H 2580.77 -8.36622 -0.589963 0
M  V30 19589 H 2579.07 -10.0291 -1.79807 0
M  V30 19590 H 2578.88 -10.2138 0.558219 0
M  V30 19591 H 2577.25 -9.6579 0.0444202 0
M  V30 19592 H 2579.89 -5.69556 -2.79637 0
M  V30 19593 P 2581.75 -8.4349 -2.47671 0
M  V30 19594 O 2583.17 -8.92593 -2.65 0
M  V30 19595 O 2581.39 -7.7568 -1.19296 0
M  V30 19596 O 2581.43 -7.36886 -3.63805 0
M  V30 19597 C 2581.27 -7.95349 -4.982 0
M  V30 19598 C 2581.81 -6.94612 -5.98974 0
M  V30 19599 O 2580.75 -6.10347 -6.11815 0
M  V30 19600 C 2583.02 -6.11426 -5.62335 0
M  V30 19601 O 2583.76 -5.6162 -6.70584 0
M  V30 19602 C 2582.35 -5.04409 -4.73308 0
M  V30 19603 O 2583.15 -3.85992 -4.75183 0
M  V30 19604 C 2581.02 -4.8728 -5.41006 0
M  V30 19605 H 2581.05 -4.02333 -6.11157 0
M  V30 19606 H 2582.23 -5.39466 -3.69543 0
M  V30 19607 H 2583.72 -6.71916 -5.01943 0
M  V30 19608 H 2582.02 -7.4649 -6.93477 0
M  V30 19609 H 2581.83 -8.89416 -5.05237 0
M  V30 19610 H 2580.2 -8.14876 -5.18409 0
M  V30 19611 H 2582.84 -3.27957 -5.4317 0
M  V30 19612 P 2584.7 -5.75688 -6.64379 0
M  V30 19613 O 2586.12 -6.07627 -7.05504 0
M  V30 19614 O 2584.34 -5.88047 -5.19722 0
M  V30 19615 O 2584.38 -4.2322 -7.04443 0
M  V30 19616 C 2584.22 -3.99743 -8.4911 0
M  V30 19617 C 2584.76 -2.60516 -8.79425 0
M  V30 19618 O 2583.7 -1.82684 -8.4467 0
M  V30 19619 C 2585.97 -2.10343 -8.03628 0
M  V30 19620 O 2586.71 -1.09919 -8.67766 0
M  V30 19621 C 2585.31 -1.68446 -6.70876 0
M  V30 19622 O 2586.1 -0.678137 -6.08433 0
M  V30 19623 C 2583.97 -1.17436 -7.18567 0
M  V30 19624 H 2584 -0.0804732 -7.31656 0
M  V30 19625 H 2585.18 -2.54037 -6.02537 0
M  V30 19626 H 2586.67 -2.93881 -7.85526 0
M  V30 19627 H 2584.97 -2.53065 -9.86973 0
M  V30 19628 H 2584.78 -4.75072 -9.05887 0
M  V30 19629 H 2583.15 -4.05244 -8.76668 0
M  V30 19630 H 2585.79 0.177647 -6.34251 0
M  V30 19631 P 2587.65 -1.25109 -8.70152 0
M  V30 19632 O 2589.07 -1.29772 -9.22214 0
M  V30 19633 O 2587.29 -2.13714 -7.55141 0
M  V30 19634 O 2587.33 0.248149 -8.21425 0
M  V30 19635 C 2587.17 1.22779 -9.30434 0
M  V30 19636 C 2587.71 2.56265 -8.80568 0
M  V30 19637 O 2586.65 3.02979 -8.09349 0
M  V30 19638 C 2588.92 2.57523 -7.89775 0
M  V30 19639 O 2589.66 3.7668 -7.89438 0
M  V30 19640 C 2588.26 2.20997 -6.55446 0
M  V30 19641 O 2589.05 2.71851 -5.48419 0
M  V30 19642 C 2586.92 2.89693 -6.67988 0
M  V30 19643 N 2585.88 2.08895 -6.07487 0
M  V30 19644 C 2585.94 0.760559 -6.14209 0
M  V30 19645 N 2584.89 0.200108 -5.52538 0
M  V30 19646 C 2584.16 1.22692 -5.09742 0
M  V30 19647 C 2582.85 1.24782 -4.48775 0
M  V30 19648 O 2582.12 0.290617 -4.19294 0
M  V30 19649 N 2582.42 2.50468 -4.22428 0
M  V30 19650 C 2583.17 3.67142 -4.51974 0
M  V30 19651 N 2582.57 4.85096 -4.14091 0
M  V30 19652 N 2584.32 3.67821 -5.12831 0
M  V30 19653 C 2584.78 2.43698 -5.4105 0
M  V30 19654 H 2586.95 3.88793 -6.19859 0
M  V30 19655 H 2588.13 1.12029 -6.4413 0
M  V30 19656 H 2589.62 1.78279 -8.19533 0
M  V30 19657 H 2587.92 3.20706 -9.67112 0
M  V30 19658 H 2587.73 0.901032 -10.1892 0
M  V30 19659 H 2586.1 1.33049 -9.56592 0
M  V30 19660 H 2581.53 2.61953 -3.79465 0
M  V30 19661 H 2586.73 0.200439 -6.63497 0
M  V30 19662 H 2581.66 4.8334 -3.66367 0
M  V30 19663 H 2583.04 5.7474 -4.33841 0
M  V30 19664 H 2588.74 3.5779 -5.23879 0
M  V30 19665 P 2590.6 3.65191 -7.99657 0
M  V30 19666 O 2592.02 3.89374 -8.45885 0
M  V30 19667 O 2590.24 2.28472 -7.50807 0
M  V30 19668 O 2590.28 4.64972 -6.77611 0
M  V30 19669 C 2590.12 6.06383 -7.16428 0
M  V30 19670 C 2590.66 6.91731 -6.02299 0
M  V30 19671 O 2589.6 6.92369 -5.17005 0
M  V30 19672 C 2591.88 6.43627 -5.25174 0
M  V30 19673 O 2592.61 7.43686 -4.60469 0
M  V30 19674 C 2591.21 5.40275 -4.31916 0
M  V30 19675 O 2592.01 5.24878 -3.14911 0
M  V30 19676 C 2589.87 6.04847 -4.05327 0
M  V30 19677 N 2588.83 5.04166 -3.98114 0
M  V30 19678 C 2589 3.84629 -4.59066 0
M  V30 19679 N 2587.97 3.0363 -4.45343 0
M  V30 19680 C 2587.08 3.76722 -3.68523 0
M  V30 19681 C 2585.82 3.43528 -3.17088 0
M  V30 19682 N 2585.25 4.44526 -2.44231 0
M  V30 19683 C 2585.85 5.65243 -2.20146 0
M  V30 19684 N 2587.03 6.00221 -2.65453 0
M  V30 19685 C 2587.61 5.00564 -3.39083 0
M  V30 19686 H 2591.08 4.42969 -4.80867 0
M  V30 19687 H 2592.57 5.92458 -5.93643 0
M  V30 19688 H 2590.87 7.93295 -6.39407 0
M  V30 19689 H 2590.68 6.26671 -8.0846 0
M  V30 19690 H 2589.05 6.29101 -7.32804 0
M  V30 19691 H 2589.9 3.58193 -5.14248 0
M  V30 19692 H 2591.69 5.84223 -2.47279 0
M  V30 19693 P 2593.55 7.39546 -4.75277 0
M  V30 19694 O 2594.97 7.84798 -5.01039 0
M  V30 19695 O 2593.19 5.9812 -5.08098 0
M  V30 19696 O 2593.23 7.57503 -3.1866 0
M  V30 19697 C 2593.07 8.97357 -2.74833 0
M  V30 19698 C 2593.61 9.07548 -1.32709 0
M  V30 19699 O 2592.55 8.62072 -0.606159 0
M  V30 19700 C 2594.83 8.25383 -0.938334 0
M  V30 19701 O 2595.56 8.74577 0.146954 0
M  V30 19702 C 2594.16 6.8802 -0.712559 0
M  V30 19703 O 2594.96 6.1189 0.194655 0
M  V30 19704 C 2592.82 7.27966 -0.139777 0
M  V30 19705 H 2592.85 7.25354 0.961601 0
M  V30 19706 H 2594.04 6.32557 -1.65702 0
M  V30 19707 H 2595.52 8.19355 -1.79097 0
M  V30 19708 H 2593.83 10.1294 -1.10029 0
M  V30 19709 H 2593.64 9.64276 -3.41316 0
M  V30 19710 H 2592.01 9.25417 -2.76357 0
M  V30 19711 H 2594.64 6.25267 1.07847 0
M  V30 19712 P 2596.5 8.791 2.28144e-11 0
M  V30 19713 O 2597.92 9.31096 0.027933 0
M  V30 19714 O 2596.14 7.77869 -1.04071 0
M  V30 19715 O 2596.18 8.09533 1.41463 0
M  V30 19716 C 2596.02 9.0349 2.53943 0
M  V30 19717 C 2596.56 8.35226 3.79016 0
M  V30 19718 O 2595.5 7.57992 4.15078 0
M  V30 19719 C 2597.78 7.45087 3.67298 0
M  V30 19720 O 2598.51 7.27796 4.85194 0
M  V30 19721 C 2597.11 6.17323 3.12027 0
M  V30 19722 O 2597.91 5.04231 3.47188 0
M  V30 19723 C 2595.77 6.19961 3.81809 0
M  V30 19724 H 2595.8 5.58218 4.73051 0
M  V30 19725 H 2596.99 6.21726 2.02589 0
M  V30 19726 H 2598.47 7.86112 2.9231 0
M  V30 19727 H 2596.78 9.11627 4.55076 0
M  V30 19728 H 2596.59 9.9573 2.34194 0
M  V30 19729 H 2594.96 9.2792 2.67832 0
M  V30 19730 H 2597.59 4.67702 4.28772 0
M  V30 19731 P 2599.45 7.39546 4.75277 0
M  V30 19732 O 2600.87 7.81777 5.05738 0
M  V30 19733 O 2599.09 7.1065 3.32998 0
M  V30 19734 O 2599.13 6.04542 5.56673 0
M  V30 19735 C 2598.97 6.22772 7.02095 0
M  V30 19736 C 2599.51 4.97725 7.70406 0
M  V30 19737 O 2598.45 4.13256 7.58987 0
M  V30 19738 C 2600.73 4.28231 7.11815 0
M  V30 19739 O 2601.47 3.49945 8.01648 0
M  V30 19740 C 2600.06 3.5063 5.96244 0
M  V30 19741 O 2600.86 2.36482 5.64681 0
M  V30 19742 C 2598.72 3.15122 6.56374 0
M  V30 19743 H 2598.75 2.13853 6.99751 0
M  V30 19744 H 2599.94 4.13501 5.06559 0
M  V30 19745 H 2601.42 5.03285 6.70911 0
M  V30 19746 H 2599.73 5.20877 8.75697 0
M  V30 19747 H 2599.54 7.11046 7.35349 0
M  V30 19748 H 2597.91 6.35815 7.26986 0
M  V30 19749 H 2600.55 1.61644 6.13565 0
M  V30 19750 P 2602.4 3.65191 7.99657 0
M  V30 19751 O 2603.82 3.84292 8.48206 0
M  V30 19752 O 2602.04 4.17805 6.64342 0
M  V30 19753 O 2602.08 2.07613 7.95143 0
M  V30 19754 C 2601.92 1.44344 9.27435 0
M  V30 19755 C 2602.46 0.0220036 9.17197 0
M  V30 19756 O 2601.4 -0.626794 8.61824 0
M  V30 19757 C 2603.68 -0.24586 8.30336 0
M  V30 19758 O 2604.42 -1.39011 8.63583 0
M  V30 19759 C 2603.01 -0.273849 6.91158 0
M  V30 19760 O 2603.81 -1.05728 6.029 0
M  V30 19761 C 2601.67 -0.897649 7.22545 0
M  V30 19762 N 2600.63 -0.292839 6.41732 0
M  V30 19763 C 2600.8 0.950603 5.91308 0
M  V30 19764 N 2599.77 1.37732 5.21105 0
M  V30 19765 C 2598.89 0.318109 5.26039 0
M  V30 19766 C 2597.62 0.146766 4.6727 0
M  V30 19767 N 2597.02 1.08519 3.89983 0
M  V30 19768 N 2597.05 -1.06525 4.95887 0
M  V30 19769 C 2597.66 -2.0378 5.71347 0
M  V30 19770 N 2598.83 -1.92445 6.27451 0
M  V30 19771 C 2599.41 -0.715382 6.00353 0
M  V30 19772 H 2601.7 -1.98383 7.04189 0
M  V30 19773 H 2602.89 0.733318 6.49674 0
M  V30 19774 H 2604.37 0.60668 8.36503 0
M  V30 19775 H 2602.68 -0.362662 10.1825 0
M  V30 19776 H 2602.49 2.00611 10.0304 0
M  V30 19777 H 2600.86 1.41843 9.55327 0
M  V30 19778 H 2597.12 -2.97041 5.85344 0
M  V30 19779 H 2601.7 1.54076 6.07465 0
M  V30 19780 H 2596.09 0.901517 3.49562 0
M  V30 19781 H 2597.49 1.97957 3.71669 0
M  V30 19782 H 2603.5 -1.95704 6.0346 0
M  V30 19783 P 2605.35 -1.25109 8.70152 0
M  V30 19784 O 2606.77 -1.35288 9.2132 0
M  V30 19785 O 2604.99 -0.0769065 7.84762 0
M  V30 19786 O 2605.03 -2.55232 7.81161 0
M  V30 19787 C 2604.87 -3.79979 8.58246 0
M  V30 19788 C 2605.41 -4.94023 7.72785 0
M  V30 19789 O 2604.36 -5.18666 6.91125 0
M  V30 19790 C 2606.63 -4.69597 6.85231 0
M  V30 19791 O 2607.37 -5.83832 6.51337 0
M  V30 19792 C 2605.96 -3.96706 5.66633 0
M  V30 19793 O 2606.76 -4.14896 4.5003 0
M  V30 19794 C 2604.62 -4.66153 5.59313 0
M  V30 19795 N 2603.58 -3.71582 5.24027 0
M  V30 19796 C 2603.75 -2.39715 5.48833 0
M  V30 19797 N 2602.72 -1.65863 5.12845 0
M  V30 19798 C 2601.84 -2.57637 4.5973 0
M  V30 19799 C 2600.57 -2.40278 4.01027 0
M  V30 19800 N 2600 -3.57711 3.59575 0
M  V30 19801 C 2600.61 -4.80324 3.70476 0
M  V30 19802 N 2601.78 -5.01121 4.23801 0
M  V30 19803 C 2602.36 -3.84757 4.66372 0
M  V30 19804 H 2605.84 -2.8955 5.86187 0
M  V30 19805 H 2607.32 -4.0121 7.36511 0
M  V30 19806 H 2605.63 -5.81019 8.37003 0
M  V30 19807 H 2605.44 -3.73517 9.52265 0
M  V30 19808 H 2603.81 -3.97163 8.80359 0
M  V30 19809 H 2604.65 -1.98804 5.94332 0
M  V30 19810 H 2606.45 -4.90891 4.01857 0
M  V30 19811 P 2608.3 -5.75688 6.64379 0
M  V30 19812 O 2609.73 -6.11849 7.01846 0
M  V30 19813 O 2607.94 -4.30744 6.56026 0
M  V30 19814 O 2607.98 -6.37042 5.19165 0
M  V30 19815 C 2607.82 -7.83578 5.16515 0
M  V30 19816 C 2608.36 -8.33398 3.83019 0
M  V30 19817 O 2607.3 -8.10074 3.01034 0
M  V30 19818 C 2609.58 -7.65514 3.2257 0
M  V30 19819 O 2610.32 -8.4329 2.32297 0
M  V30 19820 C 2608.91 -6.40075 2.62207 0
M  V30 19821 O 2609.71 -5.92589 1.53712 0
M  V30 19822 C 2607.57 -6.9454 2.18503 0
M  V30 19823 H 2607.6 -7.23063 1.12091 0
M  V30 19824 H 2608.79 -5.6025 3.37201 0
M  V30 19825 H 2610.27 -7.35707 4.02681 0
M  V30 19826 H 2608.58 -9.40912 3.9095 0
M  V30 19827 H 2608.39 -8.29056 5.99158 0
M  V30 19828 H 2606.76 -8.10073 5.25882 0
M  V30 19829 H 2609.4 -6.30324 0.726794 0
M  V30 19830 P 2611.25 -8.4349 2.47671 0
M  V30 19831 O 2612.68 -8.94167 2.5964 0
M  V30 19832 O 2610.89 -7.1704 3.19006 0
M  V30 19833 O 2610.93 -8.16596 0.923387 0
M  V30 19834 C 2610.77 -9.38437 0.108857 0
M  V30 19835 C 2611.31 -9.08175 -1.28353 0
M  V30 19836 O 2610.26 -8.44229 -1.84713 0
M  V30 19837 C 2612.53 -8.18386 -1.42505 0
M  V30 19838 O 2613.27 -8.3501 -2.60497 0
M  V30 19839 C 2611.86 -6.80225 -1.25468 0
M  V30 19840 O 2612.66 -5.81621 -1.91066 0
M  V30 19841 C 2610.52 -7.02416 -1.9168 0
M  V30 19842 H 2610.56 -6.6888 -2.96621 0
M  V30 19843 H 2611.74 -6.53617 -0.192223 0
M  V30 19844 H 2613.22 -8.36622 -0.589963 0
M  V30 19845 H 2611.53 -10.0291 -1.79807 0
M  V30 19846 H 2611.34 -10.2138 0.558219 0
M  V30 19847 H 2609.71 -9.6579 0.0444202 0
M  V30 19848 H 2612.35 -5.69556 -2.79637 0
M  V30 19849 P 2614.21 -8.4349 -2.47671 0
M  V30 19850 O 2615.63 -8.92689 -2.65029 0
M  V30 19851 O 2613.85 -7.7568 -1.19296 0
M  V30 19852 O 2613.88 -7.36886 -3.63805 0
M  V30 19853 C 2613.72 -7.95433 -4.98253 0
M  V30 19854 C 2614.26 -6.94612 -5.98974 0
M  V30 19855 O 2613.21 -6.10277 -6.11744 0
M  V30 19856 C 2615.48 -6.11426 -5.62335 0
M  V30 19857 O 2616.22 -5.6162 -6.70584 0
M  V30 19858 C 2614.81 -5.04409 -4.73308 0
M  V30 19859 O 2615.61 -3.86404 -4.74719 0
M  V30 19860 C 2613.47 -4.8728 -5.41006 0
M  V30 19861 N 2612.43 -4.65812 -4.42377 0
M  V30 19862 C 2612.6 -5.09132 -3.15382 0
M  V30 19863 N 2611.57 -4.84021 -2.3716 0
M  V30 19864 C 2610.69 -4.18386 -3.20441 0
M  V30 19865 C 2609.42 -3.6275 -2.94905 0
M  V30 19866 N 2608.82 -3.65794 -1.73372 0
M  V30 19867 N 2608.86 -3.05008 -4.05243 0
M  V30 19868 C 2609.46 -2.98348 -5.28159 0
M  V30 19869 N 2610.64 -3.48171 -5.56333 0
M  V30 19870 C 2611.21 -4.06869 -4.47212 0
M  V30 19871 H 2613.51 -4.02278 -6.11074 0
M  V30 19872 H 2614.69 -5.39013 -3.70026 0
M  V30 19873 H 2616.17 -6.71916 -5.01943 0
M  V30 19874 H 2614.48 -7.45796 -6.94223 0
M  V30 19875 H 2614.29 -8.89416 -5.05237 0
M  V30 19876 H 2612.66 -8.14876 -5.18409 0
M  V30 19877 H 2608.92 -2.47853 -6.07807 0
M  V30 19878 H 2613.5 -5.59989 -2.81362 0
M  V30 19879 H 2607.89 -3.23218 -1.60782 0
M  V30 19880 H 2609.3 -4.10523 -0.937856 0
M  V30 19881 H 2615.3 -3.27906 -5.43085 0
M  V30 19882 P 2617.16 -5.75688 -6.64379 0
M  V30 19883 O 2618.58 -6.07627 -7.05504 0
M  V30 19884 O 2616.8 -5.88047 -5.19722 0
M  V30 19885 O 2616.83 -4.2322 -7.04443 0
M  V30 19886 C 2616.67 -3.99743 -8.4911 0
M  V30 19887 C 2617.21 -2.60516 -8.79425 0
M  V30 19888 O 2616.16 -1.82684 -8.4467 0
M  V30 19889 C 2618.43 -2.10343 -8.03628 0
M  V30 19890 O 2619.17 -1.09919 -8.67766 0
M  V30 19891 C 2617.76 -1.68446 -6.70876 0
M  V30 19892 O 2618.56 -0.678137 -6.08433 0
M  V30 19893 C 2616.42 -1.17436 -7.18567 0
M  V30 19894 H 2616.46 -0.0804732 -7.31656 0
M  V30 19895 H 2617.64 -2.54037 -6.02537 0
M  V30 19896 H 2619.12 -2.93881 -7.85526 0
M  V30 19897 H 2617.43 -2.53065 -9.86973 0
M  V30 19898 H 2617.24 -4.75072 -9.05887 0
M  V30 19899 H 2615.61 -4.05244 -8.76668 0
M  V30 19900 H 2618.25 0.177647 -6.34251 0
M  V30 19901 P 2620.11 -1.25109 -8.70152 0
M  V30 19902 O 2621.53 -1.29758 -9.22115 0
M  V30 19903 O 2619.75 -2.13714 -7.55141 0
M  V30 19904 O 2619.78 0.248149 -8.21425 0
M  V30 19905 C 2619.62 1.22792 -9.30533 0
M  V30 19906 C 2620.16 2.56293 -8.80664 0
M  V30 19907 O 2619.11 3.02944 -8.09255 0
M  V30 19908 C 2621.38 2.57523 -7.89775 0
M  V30 19909 O 2622.12 3.7668 -7.89438 0
M  V30 19910 C 2620.71 2.20997 -6.55446 0
M  V30 19911 O 2621.51 2.71302 -5.48691 0
M  V30 19912 C 2619.38 2.89693 -6.67988 0
M  V30 19913 N 2618.33 2.08895 -6.07487 0
M  V30 19914 C 2618.5 0.753809 -5.94137 0
M  V30 19915 N 2617.47 0.146592 -5.38801 0
M  V30 19916 C 2616.59 1.1768 -5.13693 0
M  V30 19917 C 2615.32 1.17563 -4.52477 0
M  V30 19918 N 2614.72 0.057481 -4.04759 0
M  V30 19919 N 2614.76 2.41918 -4.45789 0
M  V30 19920 C 2615.36 3.56493 -4.90792 0
M  V30 19921 N 2616.54 3.61423 -5.47817 0
M  V30 19922 C 2617.11 2.37779 -5.5588 0
M  V30 19923 H 2619.41 3.8874 -6.19774 0
M  V30 19924 H 2620.59 1.12673 -6.44018 0
M  V30 19925 H 2622.07 1.7746 -8.19711 0
M  V30 19926 H 2620.38 3.21673 -9.66791 0
M  V30 19927 H 2620.19 0.901032 -10.1892 0
M  V30 19928 H 2618.56 1.33049 -9.56592 0
M  V30 19929 H 2614.82 4.49919 -4.77947 0
M  V30 19930 H 2619.4 0.233081 -6.26266 0
M  V30 19931 H 2613.79 0.119831 -3.60801 0
M  V30 19932 H 2615.2 -0.852272 -4.12385 0
M  V30 19933 H 2621.2 3.5779 -5.23879 0
M  V30 19934 P 2623.06 3.65191 -7.99657 0
M  V30 19935 O 2624.48 3.89332 -8.45794 0
M  V30 19936 O 2622.7 2.28472 -7.50807 0
M  V30 19937 O 2622.73 4.64972 -6.77611 0
M  V30 19938 C 2622.57 6.06319 -7.16352 0
M  V30 19939 C 2623.11 6.91731 -6.02299 0
M  V30 19940 O 2622.06 6.92449 -5.17064 0
M  V30 19941 C 2624.33 6.43627 -5.25174 0
M  V30 19942 O 2625.07 7.43686 -4.60469 0
M  V30 19943 C 2623.66 5.40275 -4.31916 0
M  V30 19944 O 2624.46 5.25279 -3.14438 0
M  V30 19945 C 2622.33 6.04847 -4.05327 0
M  V30 19946 H 2622.36 6.62195 -3.11261 0
M  V30 19947 H 2623.54 4.42556 -4.81383 0
M  V30 19948 H 2625.02 5.92458 -5.93643 0
M  V30 19949 H 2623.33 7.92655 -6.402 0
M  V30 19950 H 2623.14 6.26671 -8.0846 0
M  V30 19951 H 2621.51 6.29101 -7.32804 0
M  V30 19952 H 2624.15 5.84315 -2.47318 0
M  V30 19953 P 2626.01 7.39546 -4.75277 0
M  V30 19954 O 2627.43 7.84798 -5.01039 0
M  V30 19955 O 2625.65 5.9812 -5.08098 0
M  V30 19956 O 2625.68 7.57503 -3.1866 0
M  V30 19957 C 2625.52 8.97357 -2.74833 0
M  V30 19958 C 2626.06 9.07548 -1.32709 0
M  V30 19959 O 2625.01 8.62072 -0.606159 0
M  V30 19960 C 2627.28 8.25383 -0.938334 0
M  V30 19961 O 2628.02 8.74577 0.146954 0
M  V30 19962 C 2626.61 6.8802 -0.712559 0
M  V30 19963 O 2627.41 6.1189 0.194655 0
M  V30 19964 C 2625.28 7.27966 -0.139777 0
M  V30 19965 H 2625.31 7.25354 0.961601 0
M  V30 19966 H 2626.49 6.32557 -1.65702 0
M  V30 19967 H 2627.98 8.19355 -1.79097 0
M  V30 19968 H 2626.28 10.1294 -1.10029 0
M  V30 19969 H 2626.09 9.64276 -3.41316 0
M  V30 19970 H 2624.46 9.25417 -2.76357 0
M  V30 19971 H 2627.1 6.25267 1.07847 0
M  V30 19972 P 2628.96 8.791 2.31246e-11 0
M  V30 19973 O 2630.38 9.31096 0.027933 0
M  V30 19974 O 2628.6 7.77869 -1.04071 0
M  V30 19975 O 2628.63 8.09533 1.41463 0
M  V30 19976 C 2628.47 9.0349 2.53943 0
M  V30 19977 C 2629.01 8.35226 3.79016 0
M  V30 19978 O 2627.96 7.57992 4.15078 0
M  V30 19979 C 2630.23 7.45087 3.67298 0
M  V30 19980 O 2630.97 7.27796 4.85194 0
M  V30 19981 C 2629.56 6.17323 3.12027 0
M  V30 19982 O 2630.36 5.04231 3.47188 0
M  V30 19983 C 2628.23 6.19961 3.81809 0
M  V30 19984 H 2628.26 5.58218 4.73051 0
M  V30 19985 H 2629.44 6.21726 2.02589 0
M  V30 19986 H 2630.93 7.86112 2.9231 0
M  V30 19987 H 2629.23 9.11627 4.55076 0
M  V30 19988 H 2629.04 9.9573 2.34194 0
M  V30 19989 H 2627.41 9.2792 2.67832 0
M  V30 19990 H 2630.05 4.67702 4.28772 0
M  V30 19991 P 2631.91 7.39546 4.75277 0
M  V30 19992 O 2633.33 7.81777 5.05738 0
M  V30 19993 O 2631.55 7.1065 3.32998 0
M  V30 19994 O 2631.59 6.04542 5.56673 0
M  V30 19995 C 2631.43 6.22772 7.02095 0
M  V30 19996 C 2631.97 4.97725 7.70406 0
M  V30 19997 O 2630.91 4.13256 7.58987 0
M  V30 19998 C 2633.18 4.28231 7.11815 0
M  V30 19999 O 2633.92 3.49945 8.01648 0
M  V30 20000 C 2632.51 3.5063 5.96244 0
M  V30 20001 O 2633.31 2.36482 5.64681 0
M  V30 20002 C 2631.18 3.15122 6.56374 0
M  V30 20003 H 2631.21 2.13853 6.99751 0
M  V30 20004 H 2632.39 4.13501 5.06559 0
M  V30 20005 H 2633.88 5.03285 6.70911 0
M  V30 20006 H 2632.18 5.20877 8.75697 0
M  V30 20007 H 2631.99 7.11046 7.35349 0
M  V30 20008 H 2630.36 6.35815 7.26986 0
M  V30 20009 H 2633 1.61644 6.13565 0
M  V30 20010 P 2634.86 3.65191 7.99657 0
M  V30 20011 O 2636.28 3.8425 8.48115 0
M  V30 20012 O 2634.5 4.17805 6.64342 0
M  V30 20013 O 2634.54 2.07613 7.95143 0
M  V30 20014 C 2634.38 1.44328 9.27336 0
M  V30 20015 C 2634.92 0.0220036 9.17197 0
M  V30 20016 O 2633.86 -0.626867 8.61923 0
M  V30 20017 C 2636.13 -0.24586 8.30336 0
M  V30 20018 O 2636.87 -1.39011 8.63583 0
M  V30 20019 C 2635.47 -0.273849 6.91158 0
M  V30 20020 O 2636.26 -1.06348 6.02892 0
M  V30 20021 C 2634.13 -0.897649 7.22545 0
M  V30 20022 H 2634.16 -1.9841 7.04286 0
M  V30 20023 H 2635.34 0.739928 6.497 0
M  V30 20024 H 2636.83 0.60668 8.36503 0
M  V30 20025 H 2635.13 -0.352479 10.1829 0
M  V30 20026 H 2634.94 2.00611 10.0304 0
M  V30 20027 H 2633.31 1.41843 9.55327 0
M  V30 20028 H 2635.95 -1.95734 6.03555 0
M  V30 20029 P 2637.81 -1.25109 8.70152 0
M  V30 20030 O 2639.23 -1.35274 9.21221 0
M  V30 20031 O 2637.45 -0.0769065 7.84762 0
M  V30 20032 O 2637.49 -2.55232 7.81161 0
M  V30 20033 C 2637.33 -3.79939 8.58154 0
M  V30 20034 C 2637.87 -4.94023 7.72785 0
M  V30 20035 O 2636.81 -5.18726 6.91205 0
M  V30 20036 C 2639.08 -4.69597 6.85231 0
M  V30 20037 O 2639.82 -5.83832 6.51337 0
M  V30 20038 C 2638.42 -3.96706 5.66633 0
M  V30 20039 O 2639.21 -4.15414 4.49689 0
M  V30 20040 C 2637.08 -4.66153 5.59313 0
M  V30 20041 H 2637.11 -5.47679 4.85214 0
M  V30 20042 H 2638.29 -2.89008 5.86566 0
M  V30 20043 H 2639.78 -4.0121 7.36511 0
M  V30 20044 H 2638.08 -5.80182 8.37584 0
M  V30 20045 H 2637.89 -3.73517 9.52265 0
M  V30 20046 H 2636.26 -3.97163 8.80359 0
M  V30 20047 H 2638.9 -4.90969 4.01921 0
M  V30 20048 P 2640.76 -5.75688 6.64379 0
M  V30 20049 O 2642.18 -6.11915 7.01921 0
M  V30 20050 O 2640.4 -4.30744 6.56026 0
M  V30 20051 O 2640.44 -6.37042 5.19165 0
M  V30 20052 C 2640.28 -7.83662 5.1657 0
M  V30 20053 C 2640.82 -8.33398 3.83019 0
M  V30 20054 O 2639.76 -8.0998 3.00999 0
M  V30 20055 C 2642.04 -7.65514 3.2257 0
M  V30 20056 O 2642.77 -8.4329 2.32297 0
M  V30 20057 C 2641.37 -6.40075 2.62207 0
M  V30 20058 O 2642.17 -5.92338 1.5428 0
M  V30 20059 C 2640.03 -6.9454 2.18503 0
M  V30 20060 N 2638.99 -5.95905 2.39948 0
M  V30 20061 C 2639.16 -4.98383 3.32108 0
M  V30 20062 N 2638.13 -4.16798 3.41761 0
M  V30 20063 C 2637.24 -4.65287 2.47461 0
M  V30 20064 C 2635.98 -4.18946 2.07461 0
M  V30 20065 N 2635.38 -3.09661 2.60717 0
M  V30 20066 N 2635.41 -4.95327 1.09101 0
M  V30 20067 C 2636.01 -6.04369 0.519812 0
M  V30 20068 N 2637.19 -6.50694 0.855982 0
M  V30 20069 C 2637.77 -5.75818 1.84322 0
M  V30 20070 H 2640.06 -7.22964 1.12076 0
M  V30 20071 H 2641.24 -5.60502 3.36589 0
M  V30 20072 H 2642.73 -7.35707 4.02681 0
M  V30 20073 H 2641.03 -9.41302 3.90009 0
M  V30 20074 H 2640.84 -8.29056 5.99158 0
M  V30 20075 H 2639.21 -8.10073 5.25882 0
M  V30 20076 H 2635.48 -6.55843 -0.270373 0
M  V30 20077 H 2640.06 -4.88564 3.92502 0
M  V30 20078 H 2634.45 -2.80523 2.27218 0
M  V30 20079 H 2635.85 -2.55848 3.34465 0
M  V30 20080 H 2641.85 -6.30224 0.72668 0
M  V30 20081 P 2643.71 -8.4349 2.47671 0
M  V30 20082 O 2645.13 -8.94167 2.5964 0
M  V30 20083 O 2643.35 -7.1704 3.19006 0
M  V30 20084 O 2643.39 -8.16596 0.923387 0
M  V30 20085 C 2643.23 -9.38437 0.108857 0
M  V30 20086 C 2643.77 -9.08175 -1.28353 0
M  V30 20087 O 2642.71 -8.44229 -1.84713 0
M  V30 20088 C 2644.99 -8.18386 -1.42505 0
M  V30 20089 O 2645.72 -8.3501 -2.60497 0
M  V30 20090 C 2644.32 -6.80225 -1.25468 0
M  V30 20091 O 2645.12 -5.81621 -1.91066 0
M  V30 20092 C 2642.98 -7.02416 -1.9168 0
M  V30 20093 H 2643.01 -6.6888 -2.96621 0
M  V30 20094 H 2644.19 -6.53617 -0.192223 0
M  V30 20095 H 2645.68 -8.36622 -0.589963 0
M  V30 20096 H 2643.98 -10.0291 -1.79807 0
M  V30 20097 H 2643.79 -10.2138 0.558219 0
M  V30 20098 H 2642.16 -9.6579 0.0444202 0
M  V30 20099 H 2644.8 -5.69556 -2.79637 0
M  V30 20100 P 2646.66 -8.4349 -2.47671 0
M  V30 20101 O 2648.08 -8.92593 -2.65 0
M  V30 20102 O 2646.3 -7.7568 -1.19296 0
M  V30 20103 O 2646.34 -7.36886 -3.63805 0
M  V30 20104 C 2646.18 -7.95349 -4.982 0
M  V30 20105 C 2646.72 -6.94612 -5.98974 0
M  V30 20106 O 2645.66 -6.10347 -6.11815 0
M  V30 20107 C 2647.94 -6.11426 -5.62335 0
M  V30 20108 O 2648.67 -5.6162 -6.70584 0
M  V30 20109 C 2647.27 -5.04409 -4.73308 0
M  V30 20110 O 2648.07 -3.85992 -4.75183 0
M  V30 20111 C 2645.93 -4.8728 -5.41006 0
M  V30 20112 H 2645.96 -4.02333 -6.11157 0
M  V30 20113 H 2647.15 -5.39466 -3.69543 0
M  V30 20114 H 2648.63 -6.71916 -5.01943 0
M  V30 20115 H 2646.94 -7.4649 -6.93477 0
M  V30 20116 H 2646.75 -8.89416 -5.05237 0
M  V30 20117 H 2645.12 -8.14876 -5.18409 0
M  V30 20118 H 2647.75 -3.27957 -5.4317 0
M  V30 20119 P 2649.61 -5.75688 -6.64379 0
M  V30 20120 O 2651.03 -6.07627 -7.05504 0
M  V30 20121 O 2649.25 -5.88047 -5.19722 0
M  V30 20122 O 2649.29 -4.2322 -7.04443 0
M  V30 20123 C 2649.13 -3.99743 -8.4911 0
M  V30 20124 C 2649.67 -2.60516 -8.79425 0
M  V30 20125 O 2648.61 -1.82684 -8.4467 0
M  V30 20126 C 2650.89 -2.10343 -8.03628 0
M  V30 20127 O 2651.62 -1.09919 -8.67766 0
M  V30 20128 C 2650.22 -1.68446 -6.70876 0
M  V30 20129 O 2651.02 -0.678137 -6.08433 0
M  V30 20130 C 2648.88 -1.17436 -7.18567 0
M  V30 20131 H 2648.91 -0.0804732 -7.31656 0
M  V30 20132 H 2650.1 -2.54037 -6.02537 0
M  V30 20133 H 2651.58 -2.93881 -7.85526 0
M  V30 20134 H 2649.89 -2.53065 -9.86973 0
M  V30 20135 H 2649.7 -4.75072 -9.05887 0
M  V30 20136 H 2648.07 -4.05244 -8.76668 0
M  V30 20137 H 2650.7 0.177647 -6.34251 0
M  V30 20138 P 2652.56 -1.25109 -8.70152 0
M  V30 20139 O 2653.98 -1.29744 -9.22016 0
M  V30 20140 O 2652.2 -2.13714 -7.55141 0
M  V30 20141 O 2652.24 0.248149 -8.21425 0
M  V30 20142 C 2652.08 1.22779 -9.30434 0
M  V30 20143 C 2652.62 2.56293 -8.80664 0
M  V30 20144 O 2651.56 3.02979 -8.09349 0
M  V30 20145 C 2653.84 2.57523 -7.89775 0
M  V30 20146 O 2654.58 3.7668 -7.89438 0
M  V30 20147 C 2653.17 2.20997 -6.55446 0
M  V30 20148 O 2653.97 2.71895 -5.48509 0
M  V30 20149 C 2651.83 2.89693 -6.67988 0
M  V30 20150 H 2651.86 3.88793 -6.19859 0
M  V30 20151 H 2653.05 1.12046 -6.44229 0
M  V30 20152 H 2654.53 1.7746 -8.19711 0
M  V30 20153 H 2652.84 3.20706 -9.67112 0
M  V30 20154 H 2652.65 0.901032 -10.1892 0
M  V30 20155 H 2651.02 1.33049 -9.56592 0
M  V30 20156 H 2653.66 3.57847 -5.23962 0
M  V30 20157 P 2655.51 3.65191 -7.99657 0
M  V30 20158 O 2656.93 3.89332 -8.45794 0
M  V30 20159 O 2655.15 2.28472 -7.50807 0
M  V30 20160 O 2655.19 4.64972 -6.77611 0
M  V30 20161 C 2655.03 6.06319 -7.16352 0
M  V30 20162 C 2655.57 6.91731 -6.02299 0
M  V30 20163 O 2654.51 6.92449 -5.17064 0
M  V30 20164 C 2656.79 6.43627 -5.25174 0
M  V30 20165 O 2657.53 7.43686 -4.60469 0
M  V30 20166 C 2656.12 5.40275 -4.31916 0
M  V30 20167 O 2656.92 5.25279 -3.14438 0
M  V30 20168 C 2654.78 6.04847 -4.05327 0
M  V30 20169 H 2654.81 6.62195 -3.11261 0
M  V30 20170 H 2656 4.42556 -4.81383 0
M  V30 20171 H 2657.48 5.92458 -5.93643 0
M  V30 20172 H 2655.79 7.92655 -6.402 0
M  V30 20173 H 2655.6 6.26671 -8.0846 0
M  V30 20174 H 2653.97 6.29101 -7.32804 0
M  V30 20175 H 2656.61 5.84315 -2.47318 0
M  V30 20176 P 2658.46 7.39546 -4.75277 0
M  V30 20177 O 2659.89 7.84798 -5.01039 0
M  V30 20178 O 2658.1 5.9812 -5.08098 0
M  V30 20179 O 2658.14 7.57503 -3.1866 0
M  V30 20180 C 2657.98 8.97357 -2.74833 0
M  V30 20181 C 2658.52 9.07548 -1.32709 0
M  V30 20182 O 2657.46 8.62072 -0.606159 0
M  V30 20183 C 2659.74 8.25383 -0.938334 0
M  V30 20184 O 2660.48 8.74577 0.146954 0
M  V30 20185 C 2659.07 6.8802 -0.712559 0
M  V30 20186 O 2659.87 6.1189 0.194655 0
M  V30 20187 C 2657.73 7.27966 -0.139777 0
M  V30 20188 H 2657.76 7.25354 0.961601 0
M  V30 20189 H 2658.95 6.32557 -1.65702 0
M  V30 20190 H 2660.43 8.19355 -1.79097 0
M  V30 20191 H 2658.74 10.1294 -1.10029 0
M  V30 20192 H 2658.55 9.64276 -3.41316 0
M  V30 20193 H 2656.92 9.25417 -2.76357 0
M  V30 20194 H 2659.56 6.25267 1.07847 0
M  V30 20195 P 2661.41 8.791 2.04365e-11 0
M  V30 20196 O 2662.84 9.31096 0.027933 0
M  V30 20197 O 2661.05 7.77869 -1.04071 0
M  V30 20198 O 2661.09 8.09533 1.41463 0
M  V30 20199 C 2660.93 9.0349 2.53943 0
M  V30 20200 C 2661.47 8.35226 3.79016 0
M  V30 20201 O 2660.42 7.57992 4.15078 0
M  V30 20202 C 2662.69 7.45087 3.67298 0
M  V30 20203 O 2663.43 7.27796 4.85194 0
M  V30 20204 C 2662.02 6.17323 3.12027 0
M  V30 20205 O 2662.82 5.04231 3.47188 0
M  V30 20206 C 2660.68 6.19961 3.81809 0
M  V30 20207 H 2660.72 5.58218 4.73051 0
M  V30 20208 H 2661.9 6.21726 2.02589 0
M  V30 20209 H 2663.38 7.86112 2.9231 0
M  V30 20210 H 2661.69 9.11627 4.55076 0
M  V30 20211 H 2661.5 9.9573 2.34194 0
M  V30 20212 H 2659.87 9.2792 2.67832 0
M  V30 20213 H 2662.51 4.67702 4.28772 0
M  V30 20214 P 2664.36 7.39546 4.75277 0
M  V30 20215 O 2665.79 7.81777 5.05738 0
M  V30 20216 O 2664 7.1065 3.32998 0
M  V30 20217 O 2664.04 6.04542 5.56673 0
M  V30 20218 C 2663.88 6.22772 7.02095 0
M  V30 20219 C 2664.42 4.97725 7.70406 0
M  V30 20220 O 2663.37 4.13256 7.58987 0
M  V30 20221 C 2665.64 4.28231 7.11815 0
M  V30 20222 O 2666.38 3.49945 8.01648 0
M  V30 20223 C 2664.97 3.5063 5.96244 0
M  V30 20224 O 2665.77 2.36482 5.64681 0
M  V30 20225 C 2663.63 3.15122 6.56374 0
M  V30 20226 H 2663.67 2.13853 6.99751 0
M  V30 20227 H 2664.85 4.13501 5.06559 0
M  V30 20228 H 2666.33 5.03285 6.70911 0
M  V30 20229 H 2664.64 5.20877 8.75697 0
M  V30 20230 H 2664.45 7.11046 7.35349 0
M  V30 20231 H 2662.82 6.35815 7.26986 0
M  V30 20232 H 2665.46 1.61644 6.13565 0
M  V30 20233 P 2667.32 3.65191 7.99657 0
M  V30 20234 O 2668.74 3.8425 8.48115 0
M  V30 20235 O 2666.96 4.17805 6.64342 0
M  V30 20236 O 2666.99 2.07613 7.95143 0
M  V30 20237 C 2666.83 1.44328 9.27336 0
M  V30 20238 C 2667.37 0.0220036 9.17197 0
M  V30 20239 O 2666.32 -0.626867 8.61923 0
M  V30 20240 C 2668.59 -0.24586 8.30336 0
M  V30 20241 O 2669.33 -1.39011 8.63583 0
M  V30 20242 C 2667.92 -0.273849 6.91158 0
M  V30 20243 O 2668.72 -1.06348 6.02892 0
M  V30 20244 C 2666.58 -0.897649 7.22545 0
M  V30 20245 H 2666.62 -1.9841 7.04286 0
M  V30 20246 H 2667.8 0.739928 6.497 0
M  V30 20247 H 2669.28 0.60668 8.36503 0
M  V30 20248 H 2667.59 -0.352479 10.1829 0
M  V30 20249 H 2667.4 2.00611 10.0304 0
M  V30 20250 H 2665.77 1.41843 9.55327 0
M  V30 20251 H 2668.41 -1.95734 6.03555 0
M  V30 20252 P 2670.27 -1.25109 8.70152 0
M  V30 20253 O 2671.69 -1.35274 9.21221 0
M  V30 20254 O 2669.91 -0.0769065 7.84762 0
M  V30 20255 O 2669.94 -2.55232 7.81161 0
M  V30 20256 C 2669.78 -3.79939 8.58154 0
M  V30 20257 C 2670.32 -4.94023 7.72785 0
M  V30 20258 O 2669.27 -5.18726 6.91205 0
M  V30 20259 C 2671.54 -4.69597 6.85231 0
M  V30 20260 O 2672.28 -5.83832 6.51337 0
M  V30 20261 C 2670.87 -3.96706 5.66633 0
M  V30 20262 O 2671.67 -4.15414 4.49689 0
M  V30 20263 C 2669.53 -4.66153 5.59313 0
M  V30 20264 H 2669.57 -5.47679 4.85214 0
M  V30 20265 H 2670.75 -2.89008 5.86566 0
M  V30 20266 H 2672.23 -4.0121 7.36511 0
M  V30 20267 H 2670.54 -5.80182 8.37584 0
M  V30 20268 H 2670.35 -3.73517 9.52265 0
M  V30 20269 H 2668.72 -3.97163 8.80359 0
M  V30 20270 H 2671.36 -4.90969 4.01921 0
M  V30 20271 P 2673.22 -5.75688 6.64379 0
M  V30 20272 O 2674.64 -6.11849 7.01846 0
M  V30 20273 O 2672.86 -4.30744 6.56026 0
M  V30 20274 O 2672.89 -6.37042 5.19165 0
M  V30 20275 C 2672.73 -7.83578 5.16515 0
M  V30 20276 C 2673.27 -8.33398 3.83019 0
M  V30 20277 O 2672.22 -8.10074 3.01034 0
M  V30 20278 C 2674.49 -7.65514 3.2257 0
M  V30 20279 O 2675.23 -8.4329 2.32297 0
M  V30 20280 C 2673.82 -6.40075 2.62207 0
M  V30 20281 O 2674.62 -5.92589 1.53712 0
M  V30 20282 C 2672.49 -6.9454 2.18503 0
M  V30 20283 H 2672.52 -7.23063 1.12091 0
M  V30 20284 H 2673.7 -5.6025 3.37201 0
M  V30 20285 H 2675.18 -7.35707 4.02681 0
M  V30 20286 H 2673.49 -9.40912 3.9095 0
M  V30 20287 H 2673.3 -8.29056 5.99158 0
M  V30 20288 H 2671.67 -8.10073 5.25882 0
M  V30 20289 H 2674.31 -6.30324 0.726794 0
M  V30 20290 P 2676.17 -8.4349 2.47671 0
M  V30 20291 O 2677.59 -8.94167 2.5964 0
M  V30 20292 O 2675.81 -7.1704 3.19006 0
M  V30 20293 O 2675.84 -8.16596 0.923387 0
M  V30 20294 C 2675.68 -9.38437 0.108857 0
M  V30 20295 C 2676.22 -9.08175 -1.28353 0
M  V30 20296 O 2675.17 -8.44229 -1.84713 0
M  V30 20297 C 2677.44 -8.18386 -1.42505 0
M  V30 20298 O 2678.18 -8.3501 -2.60497 0
M  V30 20299 C 2676.77 -6.80225 -1.25468 0
M  V30 20300 O 2677.57 -5.81621 -1.91066 0
M  V30 20301 C 2675.44 -7.02416 -1.9168 0
M  V30 20302 H 2675.47 -6.6888 -2.96621 0
M  V30 20303 H 2676.65 -6.53617 -0.192223 0
M  V30 20304 H 2678.13 -8.36622 -0.589963 0
M  V30 20305 H 2676.44 -10.0291 -1.79807 0
M  V30 20306 H 2676.25 -10.2138 0.558219 0
M  V30 20307 H 2674.62 -9.6579 0.0444202 0
M  V30 20308 H 2677.26 -5.69556 -2.79637 0
M  V30 20309 P 2679.12 -8.4349 -2.47671 0
M  V30 20310 O 2680.54 -8.92593 -2.65 0
M  V30 20311 O 2678.76 -7.7568 -1.19296 0
M  V30 20312 O 2678.79 -7.36886 -3.63805 0
M  V30 20313 C 2678.63 -7.95349 -4.982 0
M  V30 20314 C 2679.17 -6.94612 -5.98974 0
M  V30 20315 O 2678.12 -6.10347 -6.11815 0
M  V30 20316 C 2680.39 -6.11426 -5.62335 0
M  V30 20317 O 2681.13 -5.6162 -6.70584 0
M  V30 20318 C 2679.72 -5.04409 -4.73308 0
M  V30 20319 O 2680.52 -3.85992 -4.75183 0
M  V30 20320 C 2678.39 -4.8728 -5.41006 0
M  V30 20321 H 2678.42 -4.02333 -6.11157 0
M  V30 20322 H 2679.6 -5.39466 -3.69543 0
M  V30 20323 H 2681.09 -6.71916 -5.01943 0
M  V30 20324 H 2679.39 -7.4649 -6.93477 0
M  V30 20325 H 2679.2 -8.89416 -5.05237 0
M  V30 20326 H 2677.57 -8.14876 -5.18409 0
M  V30 20327 H 2680.21 -3.27957 -5.4317 0
M  V30 20328 P 2682.07 -5.75688 -6.64379 0
M  V30 20329 O 2683.49 -6.07627 -7.05504 0
M  V30 20330 O 2681.71 -5.88047 -5.19722 0
M  V30 20331 O 2681.75 -4.2322 -7.04443 0
M  V30 20332 C 2681.59 -3.99743 -8.4911 0
M  V30 20333 C 2682.13 -2.60516 -8.79425 0
M  V30 20334 O 2681.07 -1.82684 -8.4467 0
M  V30 20335 C 2683.34 -2.10343 -8.03628 0
M  V30 20336 O 2684.08 -1.09919 -8.67766 0
M  V30 20337 C 2682.67 -1.68446 -6.70876 0
M  V30 20338 O 2683.47 -0.678137 -6.08433 0
M  V30 20339 C 2681.34 -1.17436 -7.18567 0
M  V30 20340 H 2681.37 -0.0804732 -7.31656 0
M  V30 20341 H 2682.55 -2.54037 -6.02537 0
M  V30 20342 H 2684.04 -2.93881 -7.85526 0
M  V30 20343 H 2682.34 -2.53065 -9.86973 0
M  V30 20344 H 2682.15 -4.75072 -9.05887 0
M  V30 20345 H 2680.52 -4.05244 -8.76668 0
M  V30 20346 H 2683.16 0.177647 -6.34251 0
M  V30 20347 P 2685.02 -1.25109 -8.70152 0
M  V30 20348 O 2686.44 -1.29744 -9.22016 0
M  V30 20349 O 2684.66 -2.13714 -7.55141 0
M  V30 20350 O 2684.7 0.248149 -8.21425 0
M  V30 20351 C 2684.54 1.22779 -9.30434 0
M  V30 20352 C 2685.08 2.56293 -8.80664 0
M  V30 20353 O 2684.02 3.02979 -8.09349 0
M  V30 20354 C 2686.29 2.57523 -7.89775 0
M  V30 20355 O 2687.03 3.7668 -7.89438 0
M  V30 20356 C 2685.62 2.20997 -6.55446 0
M  V30 20357 O 2686.42 2.71895 -5.48509 0
M  V30 20358 C 2684.29 2.89693 -6.67988 0
M  V30 20359 H 2684.32 3.88793 -6.19859 0
M  V30 20360 H 2685.5 1.12046 -6.44229 0
M  V30 20361 H 2686.99 1.7746 -8.19711 0
M  V30 20362 H 2685.29 3.20706 -9.67112 0
M  V30 20363 H 2685.1 0.901032 -10.1892 0
M  V30 20364 H 2683.47 1.33049 -9.56592 0
M  V30 20365 H 2686.11 3.57847 -5.23962 0
M  V30 20366 P 2687.97 3.65191 -7.99657 0
M  V30 20367 O 2689.39 3.89332 -8.45794 0
M  V30 20368 O 2687.61 2.28472 -7.50807 0
M  V30 20369 O 2687.65 4.64972 -6.77611 0
M  V30 20370 C 2687.49 6.06319 -7.16352 0
M  V30 20371 C 2688.03 6.91731 -6.02299 0
M  V30 20372 O 2686.97 6.92449 -5.17064 0
M  V30 20373 C 2689.24 6.43627 -5.25174 0
M  V30 20374 O 2689.98 7.43686 -4.60469 0
M  V30 20375 C 2688.58 5.40275 -4.31916 0
M  V30 20376 O 2689.37 5.25279 -3.14438 0
M  V30 20377 C 2687.24 6.04847 -4.05327 0
M  V30 20378 H 2687.27 6.62195 -3.11261 0
M  V30 20379 H 2688.45 4.42556 -4.81383 0
M  V30 20380 H 2689.94 5.92458 -5.93643 0
M  V30 20381 H 2688.24 7.92655 -6.402 0
M  V30 20382 H 2688.05 6.26671 -8.0846 0
M  V30 20383 H 2686.42 6.29101 -7.32804 0
M  V30 20384 H 2689.06 5.84315 -2.47318 0
M  V30 20385 P 2690.92 7.39546 -4.75277 0
M  V30 20386 O 2692.34 7.84798 -5.01039 0
M  V30 20387 O 2690.56 5.9812 -5.08098 0
M  V30 20388 O 2690.6 7.57503 -3.1866 0
M  V30 20389 C 2690.44 8.97357 -2.74833 0
M  V30 20390 C 2690.98 9.07548 -1.32709 0
M  V30 20391 O 2689.92 8.62072 -0.606159 0
M  V30 20392 C 2692.19 8.25383 -0.938334 0
M  V30 20393 O 2692.93 8.74577 0.146954 0
M  V30 20394 C 2691.53 6.8802 -0.712559 0
M  V30 20395 O 2692.32 6.1189 0.194655 0
M  V30 20396 C 2690.19 7.27966 -0.139777 0
M  V30 20397 H 2690.22 7.25354 0.961601 0
M  V30 20398 H 2691.4 6.32557 -1.65702 0
M  V30 20399 H 2692.89 8.19355 -1.79097 0
M  V30 20400 H 2691.19 10.1294 -1.10029 0
M  V30 20401 H 2691 9.64276 -3.41316 0
M  V30 20402 H 2689.37 9.25417 -2.76357 0
M  V30 20403 H 2692.01 6.25267 1.07847 0
M  V30 20404 P 2693.87 8.791 1.52498e-11 0
M  V30 20405 O 2695.29 9.31096 0.027933 0
M  V30 20406 O 2693.51 7.77869 -1.04071 0
M  V30 20407 O 2693.55 8.09533 1.41463 0
M  V30 20408 C 2693.39 9.0349 2.53943 0
M  V30 20409 C 2693.93 8.35226 3.79016 0
M  V30 20410 O 2692.87 7.57992 4.15078 0
M  V30 20411 C 2695.15 7.45087 3.67298 0
M  V30 20412 O 2695.88 7.27796 4.85194 0
M  V30 20413 C 2694.48 6.17323 3.12027 0
M  V30 20414 O 2695.28 5.04231 3.47188 0
M  V30 20415 C 2693.14 6.19961 3.81809 0
M  V30 20416 H 2693.17 5.58218 4.73051 0
M  V30 20417 H 2694.35 6.21726 2.02589 0
M  V30 20418 H 2695.84 7.86112 2.9231 0
M  V30 20419 H 2694.14 9.11627 4.55076 0
M  V30 20420 H 2693.95 9.9573 2.34194 0
M  V30 20421 H 2692.32 9.2792 2.67832 0
M  V30 20422 H 2694.96 4.67702 4.28772 0
M  V30 20423 P 2696.82 7.39546 4.75277 0
M  V30 20424 O 2698.24 7.81777 5.05738 0
M  V30 20425 O 2696.46 7.1065 3.32998 0
M  V30 20426 O 2696.5 6.04542 5.56673 0
M  V30 20427 C 2696.34 6.22772 7.02095 0
M  V30 20428 C 2696.88 4.97725 7.70406 0
M  V30 20429 O 2695.82 4.13256 7.58987 0
M  V30 20430 C 2698.1 4.28231 7.11815 0
M  V30 20431 O 2698.83 3.49945 8.01648 0
M  V30 20432 C 2697.43 3.5063 5.96244 0
M  V30 20433 O 2698.23 2.36482 5.64681 0
M  V30 20434 C 2696.09 3.15122 6.56374 0
M  V30 20435 H 2696.12 2.13853 6.99751 0
M  V30 20436 H 2697.3 4.13501 5.06559 0
M  V30 20437 H 2698.79 5.03285 6.70911 0
M  V30 20438 H 2697.09 5.20877 8.75697 0
M  V30 20439 H 2696.9 7.11046 7.35349 0
M  V30 20440 H 2695.27 6.35815 7.26986 0
M  V30 20441 H 2697.91 1.61644 6.13565 0
M  V30 20442 P 2699.77 3.65191 7.99657 0
M  V30 20443 O 2701.17 3.90823 8.51272 0
M  V30 20444 O 2699.39 4.23191 6.66972 0
M  V30 20445 O 2699.45 2.07587 7.95046 0
M  V30 20446 C 2699.29 1.44328 9.27336 0
M  V30 20447 C 2699.83 0.0220012 9.17097 0
M  V30 20448 O 2698.77 -0.626794 8.61824 0
M  V30 20449 C 2701.05 -0.24586 8.30336 0
M  V30 20450 O 2701.78 -1.39011 8.63583 0
M  V30 20451 C 2700.38 -0.273849 6.91158 0
M  V30 20452 O 2701.18 -1.06331 6.02794 0
M  V30 20453 C 2699.04 -0.897649 7.22545 0
M  V30 20454 N 2698 -0.292839 6.41732 0
M  V30 20455 C 2696.96 -1.08701 5.98712 0
M  V30 20456 O 2697 -2.31211 6.24471 0
M  V30 20457 N 2695.95 -0.533391 5.28415 0
M  V30 20458 C 2696 0.770866 4.98576 0
M  V30 20459 C 2697.09 1.59049 5.38086 0
M  V30 20460 C 2698.06 1.01866 6.10256 0
M  V30 20461 H 2699.07 -1.98383 7.04189 0
M  V30 20462 H 2700.26 0.733318 6.49674 0
M  V30 20463 H 2701.74 0.598386 8.36663 0
M  V30 20464 H 2700.05 -0.362662 10.1825 0
M  V30 20465 H 2699.85 2.00611 10.0304 0
M  V30 20466 H 2698.22 1.41828 9.55228 0
M  V30 20467 H 2697.14 2.6415 5.10622 0
M  V30 20468 H 2698.91 1.61983 6.44042 0
M  V30 20469 H 2700.96 -1.97777 6.14035 0
M  V30 20470 P 2702.72 -1.25109 8.70152 0
M  V30 20471 O 2704.14 -1.35274 9.21221 0
M  V30 20472 O 2702.36 -0.0769065 7.84762 0
M  V30 20473 O 2702.4 -2.55232 7.81161 0
M  V30 20474 C 2702.24 -3.79939 8.58154 0
M  V30 20475 C 2702.78 -4.94023 7.72785 0
M  V30 20476 O 2701.72 -5.18726 6.91205 0
M  V30 20477 C 2704 -4.69597 6.85231 0
M  V30 20478 O 2704.74 -5.83832 6.51337 0
M  V30 20479 C 2703.33 -3.96706 5.66633 0
M  V30 20480 O 2704.13 -4.15414 4.49689 0
M  V30 20481 C 2701.99 -4.66153 5.59313 0
M  V30 20482 H 2702.02 -5.47679 4.85214 0
M  V30 20483 H 2703.21 -2.89008 5.86566 0
M  V30 20484 H 2704.69 -4.0121 7.36511 0
M  V30 20485 H 2703 -5.80182 8.37584 0
M  V30 20486 H 2702.81 -3.73517 9.52265 0
M  V30 20487 H 2701.18 -3.97163 8.80359 0
M  V30 20488 H 2703.82 -4.90969 4.01921 0
M  V30 20489 P 2705.67 -5.75688 6.64379 0
M  V30 20490 O 2707.09 -6.11915 7.01921 0
M  V30 20491 O 2705.31 -4.30744 6.56026 0
M  V30 20492 O 2705.35 -6.37042 5.19165 0
M  V30 20493 C 2705.19 -7.83662 5.1657 0
M  V30 20494 C 2705.73 -8.33398 3.83019 0
M  V30 20495 O 2704.67 -8.0998 3.00999 0
M  V30 20496 C 2706.95 -7.65514 3.2257 0
M  V30 20497 O 2707.69 -8.4329 2.32297 0
M  V30 20498 C 2706.28 -6.40075 2.62207 0
M  V30 20499 O 2707.08 -5.92338 1.5428 0
M  V30 20500 C 2704.94 -6.9454 2.18503 0
M  V30 20501 N 2703.9 -5.95905 2.39948 0
M  V30 20502 C 2704.07 -4.98383 3.32108 0
M  V30 20503 N 2703.04 -4.16798 3.41761 0
M  V30 20504 C 2702.16 -4.65287 2.47461 0
M  V30 20505 C 2700.89 -4.18946 2.07461 0
M  V30 20506 N 2700.29 -3.09661 2.60717 0
M  V30 20507 N 2700.32 -4.95327 1.09101 0
M  V30 20508 C 2700.93 -6.04369 0.519812 0
M  V30 20509 N 2702.1 -6.50694 0.855982 0
M  V30 20510 C 2702.68 -5.75818 1.84322 0
M  V30 20511 H 2704.97 -7.22964 1.12076 0
M  V30 20512 H 2706.16 -5.60502 3.36589 0
M  V30 20513 H 2707.64 -7.35707 4.02681 0
M  V30 20514 H 2705.95 -9.41302 3.90009 0
M  V30 20515 H 2705.76 -8.29056 5.99158 0
M  V30 20516 H 2704.13 -8.10073 5.25882 0
M  V30 20517 H 2700.39 -6.55843 -0.270373 0
M  V30 20518 H 2704.97 -4.88564 3.92502 0
M  V30 20519 H 2699.36 -2.80523 2.27218 0
M  V30 20520 H 2700.76 -2.55848 3.34465 0
M  V30 20521 H 2706.77 -6.30224 0.72668 0
M  V30 20522 P 2708.62 -8.4349 2.47671 0
M  V30 20523 O 2710.05 -8.94167 2.5964 0
M  V30 20524 O 2708.26 -7.1704 3.19006 0
M  V30 20525 O 2708.3 -8.16596 0.923387 0
M  V30 20526 C 2708.14 -9.38437 0.108857 0
M  V30 20527 C 2708.68 -9.08175 -1.28353 0
M  V30 20528 O 2707.62 -8.44229 -1.84713 0
M  V30 20529 C 2709.9 -8.18386 -1.42505 0
M  V30 20530 O 2710.64 -8.3501 -2.60497 0
M  V30 20531 C 2709.23 -6.80225 -1.25468 0
M  V30 20532 O 2710.03 -5.81621 -1.91066 0
M  V30 20533 C 2707.89 -7.02416 -1.9168 0
M  V30 20534 H 2707.92 -6.6888 -2.96621 0
M  V30 20535 H 2709.11 -6.53617 -0.192223 0
M  V30 20536 H 2710.59 -8.36622 -0.589963 0
M  V30 20537 H 2708.9 -10.0291 -1.79807 0
M  V30 20538 H 2708.71 -10.2138 0.558219 0
M  V30 20539 H 2707.08 -9.6579 0.0444202 0
M  V30 20540 H 2709.72 -5.69556 -2.79637 0
M  V30 20541 P 2711.57 -8.4349 -2.47671 0
M  V30 20542 O 2713 -8.92593 -2.65 0
M  V30 20543 O 2711.21 -7.7568 -1.19296 0
M  V30 20544 O 2711.25 -7.36886 -3.63805 0
M  V30 20545 C 2711.09 -7.95349 -4.982 0
M  V30 20546 C 2711.63 -6.94612 -5.98974 0
M  V30 20547 O 2710.57 -6.10347 -6.11815 0
M  V30 20548 C 2712.85 -6.11426 -5.62335 0
M  V30 20549 O 2713.59 -5.6162 -6.70584 0
M  V30 20550 C 2712.18 -5.04409 -4.73308 0
M  V30 20551 O 2712.98 -3.85992 -4.75183 0
M  V30 20552 C 2710.84 -4.8728 -5.41006 0
M  V30 20553 H 2710.87 -4.02333 -6.11157 0
M  V30 20554 H 2712.06 -5.39466 -3.69543 0
M  V30 20555 H 2713.54 -6.71916 -5.01943 0
M  V30 20556 H 2711.85 -7.4649 -6.93477 0
M  V30 20557 H 2711.66 -8.89416 -5.05237 0
M  V30 20558 H 2710.03 -8.14876 -5.18409 0
M  V30 20559 H 2712.67 -3.27957 -5.4317 0
M  V30 20560 P 2714.52 -5.75688 -6.64379 0
M  V30 20561 O 2715.95 -6.07692 -7.0558 0
M  V30 20562 O 2714.16 -5.88047 -5.19722 0
M  V30 20563 O 2714.2 -4.2322 -7.04443 0
M  V30 20564 C 2714.04 -3.99785 -8.49201 0
M  V30 20565 C 2714.58 -2.60516 -8.79425 0
M  V30 20566 O 2713.53 -1.82663 -8.44573 0
M  V30 20567 C 2715.8 -2.10343 -8.03628 0
M  V30 20568 O 2716.54 -1.09919 -8.67766 0
M  V30 20569 C 2715.13 -1.68446 -6.70876 0
M  V30 20570 O 2715.93 -0.684109 -6.08265 0
M  V30 20571 C 2713.79 -1.17436 -7.18567 0
M  V30 20572 N 2712.75 -1.52699 -6.23988 0
M  V30 20573 C 2712.92 -2.578 -5.40574 0
M  V30 20574 N 2711.89 -2.78966 -4.61193 0
M  V30 20575 C 2711.01 -1.78725 -4.95769 0
M  V30 20576 C 2709.74 -1.45727 -4.44207 0
M  V30 20577 N 2709.18 -0.374977 -5.05812 0
M  V30 20578 C 2709.78 0.345585 -6.05615 0
M  V30 20579 N 2710.95 0.0787651 -6.56253 0
M  V30 20580 C 2711.53 -1.00499 -5.96189 0
M  V30 20581 H 2715.01 -2.53396 -6.02698 0
M  V30 20582 H 2716.49 -2.93881 -7.85526 0
M  V30 20583 H 2714.8 -2.52078 -9.87225 0
M  V30 20584 H 2714.61 -4.75072 -9.05887 0
M  V30 20585 H 2712.98 -4.05244 -8.76668 0
M  V30 20586 H 2713.82 -3.18977 -5.3945 0
M  V30 20587 H 2715.62 0.177619 -6.34151 0
M  V30 20588 P 2717.47 -1.25109 -8.70152 0
M  V30 20589 O 2718.9 -1.29744 -9.22016 0
M  V30 20590 O 2717.11 -2.13714 -7.55141 0
M  V30 20591 O 2717.15 0.248149 -8.21425 0
M  V30 20592 C 2716.99 1.22779 -9.30434 0
M  V30 20593 C 2717.53 2.56293 -8.80664 0
M  V30 20594 O 2716.48 3.02979 -8.09349 0
M  V30 20595 C 2718.75 2.57523 -7.89775 0
M  V30 20596 O 2719.49 3.7668 -7.89438 0
M  V30 20597 C 2718.08 2.20997 -6.55446 0
M  V30 20598 O 2718.88 2.71895 -5.48509 0
M  V30 20599 C 2716.74 2.89693 -6.67988 0
M  V30 20600 H 2716.78 3.88793 -6.19859 0
M  V30 20601 H 2717.96 1.12046 -6.44229 0
M  V30 20602 H 2719.44 1.7746 -8.19711 0
M  V30 20603 H 2717.75 3.20706 -9.67112 0
M  V30 20604 H 2717.56 0.901032 -10.1892 0
M  V30 20605 H 2715.93 1.33049 -9.56592 0
M  V30 20606 H 2718.57 3.57847 -5.23962 0
M  V30 20607 P 2720.43 3.65191 -7.99657 0
M  V30 20608 O 2721.85 3.89416 -8.45976 0
M  V30 20609 O 2720.07 2.28472 -7.50807 0
M  V30 20610 O 2720.1 4.64972 -6.77611 0
M  V30 20611 C 2719.94 6.06319 -7.16352 0
M  V30 20612 C 2720.48 6.91655 -6.02234 0
M  V30 20613 O 2719.43 6.92449 -5.17064 0
M  V30 20614 C 2721.7 6.43627 -5.25174 0
M  V30 20615 O 2722.44 7.43686 -4.60469 0
M  V30 20616 C 2721.03 5.40275 -4.31916 0
M  V30 20617 O 2721.83 5.25193 -3.14386 0
M  V30 20618 C 2719.69 6.04847 -4.05327 0
M  V30 20619 N 2718.65 5.04166 -3.98114 0
M  V30 20620 C 2718.71 3.96049 -4.75587 0
M  V30 20621 N 2717.67 3.15559 -4.54006 0
M  V30 20622 C 2716.93 3.78802 -3.62491 0
M  V30 20623 C 2715.63 3.476 -3.10071 0
M  V30 20624 O 2714.9 2.51136 -3.37021 0
M  V30 20625 N 2715.2 4.39088 -2.19956 0
M  V30 20626 C 2715.95 5.53215 -1.81733 0
M  V30 20627 N 2715.35 6.31963 -0.860928 0
M  V30 20628 N 2717.1 5.86688 -2.32562 0
M  V30 20629 C 2717.56 4.97525 -3.23407 0
M  V30 20630 H 2719.73 6.62195 -3.11261 0
M  V30 20631 H 2720.91 4.42488 -4.8131 0
M  V30 20632 H 2722.39 5.93051 -5.9305 0
M  V30 20633 H 2720.7 7.92655 -6.402 0
M  V30 20634 H 2720.51 6.26671 -8.0846 0
M  V30 20635 H 2718.88 6.29101 -7.32804 0
M  V30 20636 H 2714.3 4.25523 -1.77604 0
M  V30 20637 H 2719.51 3.75576 -5.47333 0
M  V30 20638 H 2714.44 6.04684 -0.468946 0
M  V30 20639 H 2715.82 7.18054 -0.542422 0
M  V30 20640 H 2721.52 5.84223 -2.47279 0
M  V30 20641 P 2723.38 7.39546 -4.75277 0
M  V30 20642 O 2724.8 7.84798 -5.01039 0
M  V30 20643 O 2723.02 5.9812 -5.08098 0
M  V30 20644 O 2723.05 7.57503 -3.1866 0
M  V30 20645 C 2722.89 8.97357 -2.74833 0
M  V30 20646 C 2723.43 9.07548 -1.32709 0
M  V30 20647 O 2722.38 8.62072 -0.606159 0
M  V30 20648 C 2724.65 8.25383 -0.938334 0
M  V30 20649 O 2725.39 8.74577 0.146954 0
M  V30 20650 C 2723.98 6.8802 -0.712559 0
M  V30 20651 O 2724.78 6.1189 0.194655 0
M  V30 20652 C 2722.65 7.27966 -0.139777 0
M  V30 20653 H 2722.68 7.25354 0.961601 0
M  V30 20654 H 2723.86 6.32557 -1.65702 0
M  V30 20655 H 2725.34 8.19355 -1.79097 0
M  V30 20656 H 2723.65 10.1294 -1.10029 0
M  V30 20657 H 2723.46 9.64276 -3.41316 0
M  V30 20658 H 2721.83 9.25417 -2.76357 0
M  V30 20659 H 2724.47 6.25267 1.07847 0
M  V30 20660 P 2726.33 8.791 1.00632e-11 0
M  V30 20661 O 2727.75 9.31096 0.027933 0
M  V30 20662 O 2725.97 7.77869 -1.04071 0
M  V30 20663 O 2726 8.09533 1.41463 0
M  V30 20664 C 2725.84 9.0349 2.53943 0
M  V30 20665 C 2726.38 8.35226 3.79016 0
M  V30 20666 O 2725.33 7.57992 4.15078 0
M  V30 20667 C 2727.6 7.45087 3.67298 0
M  V30 20668 O 2728.34 7.27796 4.85194 0
M  V30 20669 C 2726.93 6.17323 3.12027 0
M  V30 20670 O 2727.73 5.04231 3.47188 0
M  V30 20671 C 2725.6 6.19961 3.81809 0
M  V30 20672 H 2725.63 5.58218 4.73051 0
M  V30 20673 H 2726.81 6.21726 2.02589 0
M  V30 20674 H 2728.29 7.86112 2.9231 0
M  V30 20675 H 2726.6 9.11627 4.55076 0
M  V30 20676 H 2726.41 9.9573 2.34194 0
M  V30 20677 H 2724.78 9.2792 2.67832 0
M  V30 20678 H 2727.42 4.67702 4.28772 0
M  V30 20679 P 2729.28 7.39546 4.75277 0
M  V30 20680 O 2730.7 7.81777 5.05738 0
M  V30 20681 O 2728.92 7.1065 3.32998 0
M  V30 20682 O 2728.95 6.04542 5.56673 0
M  V30 20683 C 2728.79 6.22772 7.02095 0
M  V30 20684 C 2729.33 4.97725 7.70406 0
M  V30 20685 O 2728.28 4.13256 7.58987 0
M  V30 20686 C 2730.55 4.28231 7.11815 0
M  V30 20687 O 2731.29 3.49945 8.01648 0
M  V30 20688 C 2729.88 3.5063 5.96244 0
M  V30 20689 O 2730.68 2.36482 5.64681 0
M  V30 20690 C 2728.55 3.15122 6.56374 0
M  V30 20691 H 2728.58 2.13853 6.99751 0
M  V30 20692 H 2729.76 4.13501 5.06559 0
M  V30 20693 H 2731.25 5.03285 6.70911 0
M  V30 20694 H 2729.55 5.20877 8.75697 0
M  V30 20695 H 2729.36 7.11046 7.35349 0
M  V30 20696 H 2727.73 6.35815 7.26986 0
M  V30 20697 H 2730.37 1.61644 6.13565 0
M  V30 20698 P 2732.23 3.65191 7.99657 0
M  V30 20699 O 2733.65 3.8425 8.48115 0
M  V30 20700 O 2731.87 4.17805 6.64342 0
M  V30 20701 O 2731.9 2.07613 7.95143 0
M  V30 20702 C 2731.74 1.44328 9.27336 0
M  V30 20703 C 2732.28 0.0220036 9.17197 0
M  V30 20704 O 2731.23 -0.626867 8.61923 0
M  V30 20705 C 2733.5 -0.24586 8.30336 0
M  V30 20706 O 2734.24 -1.39011 8.63583 0
M  V30 20707 C 2732.83 -0.273849 6.91158 0
M  V30 20708 O 2733.63 -1.06348 6.02892 0
M  V30 20709 C 2731.5 -0.897649 7.22545 0
M  V30 20710 H 2731.53 -1.9841 7.04286 0
M  V30 20711 H 2732.71 0.739928 6.497 0
M  V30 20712 H 2734.2 0.60668 8.36503 0
M  V30 20713 H 2732.5 -0.352479 10.1829 0
M  V30 20714 H 2732.31 2.00611 10.0304 0
M  V30 20715 H 2730.68 1.41843 9.55327 0
M  V30 20716 H 2733.32 -1.95734 6.03555 0
M  V30 20717 P 2735.18 -1.25109 8.70152 0
M  V30 20718 O 2736.6 -1.35288 9.2132 0
M  V30 20719 O 2734.82 -0.0769065 7.84762 0
M  V30 20720 O 2734.86 -2.55232 7.81161 0
M  V30 20721 C 2734.69 -3.79979 8.58246 0
M  V30 20722 C 2735.24 -4.94023 7.72785 0
M  V30 20723 O 2734.18 -5.18666 6.91125 0
M  V30 20724 C 2736.45 -4.69597 6.85231 0
M  V30 20725 O 2737.19 -5.83832 6.51337 0
M  V30 20726 C 2735.79 -3.96706 5.66633 0
M  V30 20727 O 2736.58 -4.14896 4.5003 0
M  V30 20728 C 2734.45 -4.66153 5.59313 0
M  V30 20729 N 2733.4 -3.71582 5.24027 0
M  V30 20730 C 2733.57 -2.39715 5.48833 0
M  V30 20731 N 2732.55 -1.65863 5.12845 0
M  V30 20732 C 2731.66 -2.57637 4.5973 0
M  V30 20733 C 2730.39 -2.40278 4.01027 0
M  V30 20734 N 2729.8 -1.19549 3.86744 0
M  V30 20735 N 2729.83 -3.57711 3.59575 0
M  V30 20736 C 2730.43 -4.80324 3.70476 0
M  V30 20737 N 2731.61 -5.01121 4.23801 0
M  V30 20738 C 2732.18 -3.84757 4.66372 0
M  V30 20739 H 2734.48 -5.47604 4.85148 0
M  V30 20740 H 2735.66 -2.8955 5.86187 0
M  V30 20741 H 2737.15 -4.0121 7.36511 0
M  V30 20742 H 2735.45 -5.81019 8.37003 0
M  V30 20743 H 2735.26 -3.73517 9.52265 0
M  V30 20744 H 2733.63 -3.97163 8.80359 0
M  V30 20745 H 2729.9 -5.66348 3.3183 0
M  V30 20746 H 2734.47 -1.98804 5.94332 0
M  V30 20747 H 2728.87 -1.13147 3.4281 0
M  V30 20748 H 2730.27 -0.344074 4.19692 0
M  V30 20749 H 2736.27 -4.90891 4.01857 0
M  V30 20750 P 2738.13 -5.75688 6.64379 0
M  V30 20751 O 2739.55 -6.11915 7.01921 0
M  V30 20752 O 2737.77 -4.30744 6.56026 0
M  V30 20753 O 2737.81 -6.37042 5.19165 0
M  V30 20754 C 2737.64 -7.83662 5.1657 0
M  V30 20755 C 2738.19 -8.33398 3.83019 0
M  V30 20756 O 2737.13 -8.0998 3.00999 0
M  V30 20757 C 2739.4 -7.65514 3.2257 0
M  V30 20758 O 2740.14 -8.4329 2.32297 0
M  V30 20759 C 2738.74 -6.40075 2.62207 0
M  V30 20760 O 2739.53 -5.92338 1.5428 0
M  V30 20761 C 2737.4 -6.9454 2.18503 0
M  V30 20762 N 2736.35 -5.95905 2.39948 0
M  V30 20763 C 2736.52 -4.98383 3.32108 0
M  V30 20764 N 2735.5 -4.16798 3.41761 0
M  V30 20765 C 2734.61 -4.65287 2.47461 0
M  V30 20766 C 2733.34 -4.18946 2.07461 0
M  V30 20767 N 2732.78 -4.95327 1.09101 0
M  V30 20768 C 2733.38 -6.04369 0.519812 0
M  V30 20769 N 2734.56 -6.50694 0.855982 0
M  V30 20770 C 2735.13 -5.75818 1.84322 0
M  V30 20771 H 2738.61 -5.60502 3.36589 0
M  V30 20772 H 2740.1 -7.35707 4.02681 0
M  V30 20773 H 2738.4 -9.41302 3.90009 0
M  V30 20774 H 2738.21 -8.29056 5.99158 0
M  V30 20775 H 2736.58 -8.10073 5.25882 0
M  V30 20776 H 2737.42 -4.88564 3.92502 0
M  V30 20777 H 2739.22 -6.30224 0.72668 0
M  V30 20778 P 2741.08 -8.4349 2.47671 0
M  V30 20779 O 2742.5 -8.94167 2.5964 0
M  V30 20780 O 2740.72 -7.1704 3.19006 0
M  V30 20781 O 2740.76 -8.16596 0.923387 0
M  V30 20782 C 2740.6 -9.38437 0.108857 0
M  V30 20783 C 2741.14 -9.08175 -1.28353 0
M  V30 20784 O 2740.08 -8.44229 -1.84713 0
M  V30 20785 C 2742.35 -8.18386 -1.42505 0
M  V30 20786 O 2743.09 -8.3501 -2.60497 0
M  V30 20787 C 2741.69 -6.80225 -1.25468 0
M  V30 20788 O 2742.48 -5.81621 -1.91066 0
M  V30 20789 C 2740.35 -7.02416 -1.9168 0
M  V30 20790 H 2740.38 -6.6888 -2.96621 0
M  V30 20791 H 2741.56 -6.53617 -0.192223 0
M  V30 20792 H 2743.05 -8.36622 -0.589963 0
M  V30 20793 H 2741.35 -10.0291 -1.79807 0
M  V30 20794 H 2741.16 -10.2138 0.558219 0
M  V30 20795 H 2739.53 -9.6579 0.0444202 0
M  V30 20796 H 2742.17 -5.69556 -2.79637 0
M  V30 20797 P 2744.03 -8.4349 -2.47671 0
M  V30 20798 O 2745.45 -8.92593 -2.65 0
M  V30 20799 O 2743.67 -7.7568 -1.19296 0
M  V30 20800 O 2743.71 -7.36886 -3.63805 0
M  V30 20801 C 2743.55 -7.95349 -4.982 0
M  V30 20802 C 2744.09 -6.94612 -5.98974 0
M  V30 20803 O 2743.03 -6.10347 -6.11815 0
M  V30 20804 C 2745.31 -6.11426 -5.62335 0
M  V30 20805 O 2746.04 -5.6162 -6.70584 0
M  V30 20806 C 2744.64 -5.04409 -4.73308 0
M  V30 20807 O 2745.44 -3.85992 -4.75183 0
M  V30 20808 C 2743.3 -4.8728 -5.41006 0
M  V30 20809 H 2743.33 -4.02333 -6.11157 0
M  V30 20810 H 2744.51 -5.39466 -3.69543 0
M  V30 20811 H 2746 -6.71916 -5.01943 0
M  V30 20812 H 2744.3 -7.4649 -6.93477 0
M  V30 20813 H 2744.11 -8.89416 -5.05237 0
M  V30 20814 H 2742.48 -8.14876 -5.18409 0
M  V30 20815 H 2745.12 -3.27957 -5.4317 0
M  V30 20816 P 2746.98 -5.75688 -6.64379 0
M  V30 20817 O 2748.4 -6.07627 -7.05504 0
M  V30 20818 O 2746.62 -5.88047 -5.19722 0
M  V30 20819 O 2746.66 -4.2322 -7.04443 0
M  V30 20820 C 2746.5 -3.99743 -8.4911 0
M  V30 20821 C 2747.04 -2.60516 -8.79425 0
M  V30 20822 O 2745.98 -1.82684 -8.4467 0
M  V30 20823 C 2748.26 -2.10343 -8.03628 0
M  V30 20824 O 2748.99 -1.09919 -8.67766 0
M  V30 20825 C 2747.59 -1.68446 -6.70876 0
M  V30 20826 O 2748.39 -0.678137 -6.08433 0
M  V30 20827 C 2746.25 -1.17436 -7.18567 0
M  V30 20828 H 2746.28 -0.0804732 -7.31656 0
M  V30 20829 H 2747.46 -2.54037 -6.02537 0
M  V30 20830 H 2748.95 -2.93881 -7.85526 0
M  V30 20831 H 2747.25 -2.53065 -9.86973 0
M  V30 20832 H 2747.06 -4.75072 -9.05887 0
M  V30 20833 H 2745.43 -4.05244 -8.76668 0
M  V30 20834 H 2748.07 0.177647 -6.34251 0
M  V30 20835 P 2749.93 -1.25109 -8.70152 0
M  V30 20836 O 2751.35 -1.29758 -9.22115 0
M  V30 20837 O 2749.57 -2.13714 -7.55141 0
M  V30 20838 O 2749.61 0.248149 -8.21425 0
M  V30 20839 C 2749.45 1.22792 -9.30533 0
M  V30 20840 C 2749.99 2.56293 -8.80664 0
M  V30 20841 O 2748.93 3.02944 -8.09255 0
M  V30 20842 C 2751.21 2.57523 -7.89775 0
M  V30 20843 O 2751.94 3.7668 -7.89438 0
M  V30 20844 C 2750.54 2.20997 -6.55446 0
M  V30 20845 O 2751.34 2.71302 -5.48691 0
M  V30 20846 C 2749.2 2.89693 -6.67988 0
M  V30 20847 N 2748.16 2.08895 -6.07487 0
M  V30 20848 C 2748.33 0.753809 -5.94137 0
M  V30 20849 N 2747.3 0.146592 -5.38801 0
M  V30 20850 C 2746.41 1.1768 -5.13693 0
M  V30 20851 C 2745.15 1.17563 -4.52477 0
M  V30 20852 N 2744.55 0.057481 -4.04759 0
M  V30 20853 N 2744.58 2.41918 -4.45789 0
M  V30 20854 C 2745.18 3.56493 -4.90792 0
M  V30 20855 N 2746.36 3.61423 -5.47817 0
M  V30 20856 C 2746.94 2.37779 -5.5588 0
M  V30 20857 H 2749.23 3.8874 -6.19774 0
M  V30 20858 H 2750.42 1.12673 -6.44018 0
M  V30 20859 H 2751.9 1.7746 -8.19711 0
M  V30 20860 H 2750.2 3.21673 -9.66791 0
M  V30 20861 H 2750.01 0.901032 -10.1892 0
M  V30 20862 H 2748.38 1.33049 -9.56592 0
M  V30 20863 H 2744.65 4.49919 -4.77947 0
M  V30 20864 H 2749.23 0.233081 -6.26266 0
M  V30 20865 H 2743.62 0.119831 -3.60801 0
M  V30 20866 H 2745.02 -0.852272 -4.12385 0
M  V30 20867 H 2751.02 3.5779 -5.23879 0
M  V30 20868 P 2752.88 3.65191 -7.99657 0
M  V30 20869 O 2754.3 3.89332 -8.45794 0
M  V30 20870 O 2752.52 2.28472 -7.50807 0
M  V30 20871 O 2752.56 4.64972 -6.77611 0
M  V30 20872 C 2752.4 6.06319 -7.16352 0
M  V30 20873 C 2752.94 6.91731 -6.02299 0
M  V30 20874 O 2751.88 6.92449 -5.17064 0
M  V30 20875 C 2754.16 6.43627 -5.25174 0
M  V30 20876 O 2754.89 7.43686 -4.60469 0
M  V30 20877 C 2753.49 5.40275 -4.31916 0
M  V30 20878 O 2754.29 5.25279 -3.14438 0
M  V30 20879 C 2752.15 6.04847 -4.05327 0
M  V30 20880 H 2752.18 6.62195 -3.11261 0
M  V30 20881 H 2753.37 4.42556 -4.81383 0
M  V30 20882 H 2754.85 5.92458 -5.93643 0
M  V30 20883 H 2753.16 7.92655 -6.402 0
M  V30 20884 H 2752.97 6.26671 -8.0846 0
M  V30 20885 H 2751.34 6.29101 -7.32804 0
M  V30 20886 H 2753.97 5.84315 -2.47318 0
M  V30 20887 P 2755.83 7.39546 -4.75277 0
M  V30 20888 O 2757.25 7.84798 -5.01039 0
M  V30 20889 O 2755.47 5.9812 -5.08098 0
M  V30 20890 O 2755.51 7.57503 -3.1866 0
M  V30 20891 C 2755.35 8.97357 -2.74833 0
M  V30 20892 C 2755.89 9.07548 -1.32709 0
M  V30 20893 O 2754.83 8.62072 -0.606159 0
M  V30 20894 C 2757.11 8.25383 -0.938334 0
M  V30 20895 O 2757.85 8.74577 0.146954 0
M  V30 20896 C 2756.44 6.8802 -0.712559 0
M  V30 20897 O 2757.24 6.1189 0.194655 0
M  V30 20898 C 2755.1 7.27966 -0.139777 0
M  V30 20899 H 2755.13 7.25354 0.961601 0
M  V30 20900 H 2756.32 6.32557 -1.65702 0
M  V30 20901 H 2757.8 8.19355 -1.79097 0
M  V30 20902 H 2756.11 10.1294 -1.10029 0
M  V30 20903 H 2755.92 9.64276 -3.41316 0
M  V30 20904 H 2754.29 9.25417 -2.76357 0
M  V30 20905 H 2756.93 6.25267 1.07847 0
M  V30 20906 P 2758.78 8.791 4.87655e-12 0
M  V30 20907 O 2760.18 9.36698 -0.018734 0
M  V30 20908 O 2758.4 7.82499 -1.07878 0
M  V30 20909 O 2758.46 8.09434 1.41446 0
M  V30 20910 C 2758.3 9.0349 2.53943 0
M  V30 20911 C 2758.84 8.35135 3.78975 0
M  V30 20912 O 2757.78 7.57904 4.1503 0
M  V30 20913 C 2760.06 7.45087 3.67298 0
M  V30 20914 O 2760.8 7.27796 4.85194 0
M  V30 20915 C 2759.39 6.17323 3.12027 0
M  V30 20916 O 2760.19 5.04149 3.47132 0
M  V30 20917 C 2758.05 6.19961 3.81809 0
M  V30 20918 N 2757.01 5.71575 2.93223 0
M  V30 20919 C 2755.97 4.99452 3.47592 0
M  V30 20920 O 2756.01 4.7199 4.69732 0
M  V30 20921 N 2754.96 4.58505 2.6803 0
M  V30 20922 C 2755.01 4.85544 1.36995 0
M  V30 20923 C 2756.11 5.55532 0.788532 0
M  V30 20924 C 2757.07 5.97426 1.60849 0
M  V30 20925 H 2758.08 5.58142 4.72986 0
M  V30 20926 H 2759.27 6.21428 2.0318 0
M  V30 20927 H 2760.75 7.85913 2.93131 0
M  V30 20928 H 2759.06 9.11171 4.55987 0
M  V30 20929 H 2758.87 9.9573 2.34194 0
M  V30 20930 H 2757.24 9.27824 2.67805 0
M  V30 20931 H 2756.15 5.7421 -0.281588 0
M  V30 20932 H 2757.92 6.53132 1.202 0
M  V30 20933 H 2759.97 4.76386 4.34983 0
M  V30 20934 P 2761.73 7.39546 4.75277 0
M  V30 20935 O 2763.13 7.89013 5.04841 0
M  V30 20936 O 2761.36 7.16603 3.32298 0
M  V30 20937 O 2761.41 6.04468 5.56605 0
M  V30 20938 C 2761.25 6.22772 7.02095 0
M  V30 20939 C 2761.79 4.97671 7.70322 0
M  V30 20940 O 2760.73 4.13208 7.58899 0
M  V30 20941 C 2763.01 4.28231 7.11815 0
M  V30 20942 O 2763.75 3.49945 8.01648 0
M  V30 20943 C 2762.34 3.5063 5.96244 0
M  V30 20944 O 2763.14 2.36443 5.64589 0
M  V30 20945 C 2761 3.15122 6.56374 0
M  V30 20946 N 2759.96 3.22311 5.55692 0
M  V30 20947 C 2758.92 2.32244 5.62437 0
M  V30 20948 O 2758.96 1.43107 6.50341 0
M  V30 20949 N 2757.91 2.40811 4.73368 0
M  V30 20950 C 2757.96 3.344 3.77753 0
M  V30 20951 C 2759.06 4.24712 3.66679 0
M  V30 20952 C 2760.02 4.15625 4.58307 0
M  V30 20953 H 2761.03 2.13823 6.99656 0
M  V30 20954 H 2762.22 4.12931 5.06895 0
M  V30 20955 H 2763.7 5.02674 6.71494 0
M  V30 20956 H 2762.01 5.20001 8.76217 0
M  V30 20957 H 2761.82 7.11046 7.35349 0
M  V30 20958 H 2760.19 6.35749 7.26911 0
M  V30 20959 H 2759.1 4.9828 2.86753 0
M  V30 20960 H 2760.87 4.84464 4.54228 0
M  V30 20961 H 2762.92 1.65592 6.23485 0
M  V30 20962 P 2764.68 3.65191 7.99657 0
M  V30 20963 O 2766.11 3.84333 8.48297 0
M  V30 20964 O 2764.32 4.17805 6.64342 0
M  V30 20965 O 2764.36 2.07613 7.95143 0
M  V30 20966 C 2764.2 1.44328 9.27336 0
M  V30 20967 C 2764.74 0.0220012 9.17097 0
M  V30 20968 O 2763.69 -0.626867 8.61923 0
M  V30 20969 C 2765.96 -0.24586 8.30336 0
M  V30 20970 O 2766.7 -1.39011 8.63583 0
M  V30 20971 C 2765.29 -0.273849 6.91158 0
M  V30 20972 O 2766.09 -1.06331 6.02794 0
M  V30 20973 C 2763.95 -0.897649 7.22545 0
M  V30 20974 N 2762.91 -0.292839 6.41732 0
M  V30 20975 C 2762.97 1.00068 6.10757 0
M  V30 20976 N 2761.93 1.36468 5.35794 0
M  V30 20977 C 2761.19 0.258894 5.2366 0
M  V30 20978 C 2759.89 0.0670682 4.65752 0
M  V30 20979 O 2759.15 0.902443 4.10497 0
M  V30 20980 N 2759.46 -1.2131 4.75881 0
M  V30 20981 C 2760.21 -2.24934 5.37101 0
M  V30 20982 N 2759.61 -3.48783 5.33984 0
M  V30 20983 N 2761.36 -2.0844 5.95684 0
M  V30 20984 C 2761.82 -0.81395 5.87791 0
M  V30 20985 H 2763.99 -1.9841 7.04286 0
M  V30 20986 H 2765.17 0.739815 6.49601 0
M  V30 20987 H 2766.65 0.598315 8.36563 0
M  V30 20988 H 2764.96 -0.352479 10.1829 0
M  V30 20989 H 2764.77 2.00611 10.0304 0
M  V30 20990 H 2763.14 1.41843 9.55327 0
M  V30 20991 H 2758.56 -1.44434 4.37895 0
M  V30 20992 H 2763.77 1.67697 6.42268 0
M  V30 20993 H 2758.7 -3.60543 4.87699 0
M  V30 20994 H 2760.07 -4.29232 5.7819 0
M  V30 20995 H 2765.78 -1.95704 6.0346 0
M  V30 20996 P 2767.63 -1.25109 8.70152 0
M  V30 20997 O 2769.06 -1.35274 9.21221 0
M  V30 20998 O 2767.27 -0.0769065 7.84762 0
M  V30 20999 O 2767.31 -2.55232 7.81161 0
M  V30 21000 C 2767.15 -3.79939 8.58154 0
M  V30 21001 C 2767.69 -4.94023 7.72785 0
M  V30 21002 O 2766.64 -5.18726 6.91205 0
M  V30 21003 C 2768.91 -4.69597 6.85231 0
M  V30 21004 O 2769.65 -5.83832 6.51337 0
M  V30 21005 C 2768.24 -3.96706 5.66633 0
M  V30 21006 O 2769.04 -4.15414 4.49689 0
M  V30 21007 C 2766.9 -4.66153 5.59313 0
M  V30 21008 H 2766.94 -5.47679 4.85214 0
M  V30 21009 H 2768.12 -2.89008 5.86566 0
M  V30 21010 H 2769.6 -4.0121 7.36511 0
M  V30 21011 H 2767.91 -5.80182 8.37584 0
M  V30 21012 H 2767.72 -3.73517 9.52265 0
M  V30 21013 H 2766.09 -3.97163 8.80359 0
M  V30 21014 H 2768.73 -4.90969 4.01921 0
M  V30 21015 P 2770.59 -5.75688 6.64379 0
M  V30 21016 O 2772.01 -6.11849 7.01846 0
M  V30 21017 O 2770.23 -4.30744 6.56026 0
M  V30 21018 O 2770.26 -6.37042 5.19165 0
M  V30 21019 C 2770.1 -7.83578 5.16515 0
M  V30 21020 C 2770.64 -8.33398 3.83019 0
M  V30 21021 O 2769.59 -8.10074 3.01034 0
M  V30 21022 C 2771.86 -7.65514 3.2257 0
M  V30 21023 O 2772.6 -8.4329 2.32297 0
M  V30 21024 C 2771.19 -6.40075 2.62207 0
M  V30 21025 O 2771.99 -5.92589 1.53712 0
M  V30 21026 C 2769.85 -6.9454 2.18503 0
M  V30 21027 H 2769.89 -7.23063 1.12091 0
M  V30 21028 H 2771.07 -5.6025 3.37201 0
M  V30 21029 H 2772.55 -7.35707 4.02681 0
M  V30 21030 H 2770.86 -9.40912 3.9095 0
M  V30 21031 H 2770.67 -8.29056 5.99158 0
M  V30 21032 H 2769.04 -8.10073 5.25882 0
M  V30 21033 H 2771.68 -6.30324 0.726794 0
M  V30 21034 P 2773.54 -8.4349 2.47671 0
M  V30 21035 O 2774.96 -8.94167 2.5964 0
M  V30 21036 O 2773.18 -7.1704 3.19006 0
M  V30 21037 O 2773.21 -8.16596 0.923387 0
M  V30 21038 C 2773.05 -9.38437 0.108857 0
M  V30 21039 C 2773.59 -9.08175 -1.28353 0
M  V30 21040 O 2772.54 -8.44229 -1.84713 0
M  V30 21041 C 2774.81 -8.18386 -1.42505 0
M  V30 21042 O 2775.55 -8.3501 -2.60497 0
M  V30 21043 C 2774.14 -6.80225 -1.25468 0
M  V30 21044 O 2774.94 -5.81621 -1.91066 0
M  V30 21045 C 2772.8 -7.02416 -1.9168 0
M  V30 21046 H 2772.84 -6.6888 -2.96621 0
M  V30 21047 H 2774.02 -6.53617 -0.192223 0
M  V30 21048 H 2775.5 -8.36622 -0.589963 0
M  V30 21049 H 2773.81 -10.0291 -1.79807 0
M  V30 21050 H 2773.62 -10.2138 0.558219 0
M  V30 21051 H 2771.99 -9.6579 0.0444202 0
M  V30 21052 H 2774.63 -5.69556 -2.79637 0
M  V30 21053 P 2776.49 -8.4349 -2.47671 0
M  V30 21054 O 2777.91 -8.92593 -2.65 0
M  V30 21055 O 2776.13 -7.7568 -1.19296 0
M  V30 21056 O 2776.16 -7.36886 -3.63805 0
M  V30 21057 C 2776 -7.95349 -4.982 0
M  V30 21058 C 2776.54 -6.94612 -5.98974 0
M  V30 21059 O 2775.49 -6.10347 -6.11815 0
M  V30 21060 C 2777.76 -6.11426 -5.62335 0
M  V30 21061 O 2778.5 -5.6162 -6.70584 0
M  V30 21062 C 2777.09 -5.04409 -4.73308 0
M  V30 21063 O 2777.89 -3.85992 -4.75183 0
M  V30 21064 C 2775.76 -4.8728 -5.41006 0
M  V30 21065 H 2775.79 -4.02333 -6.11157 0
M  V30 21066 H 2776.97 -5.39466 -3.69543 0
M  V30 21067 H 2778.45 -6.71916 -5.01943 0
M  V30 21068 H 2776.76 -7.4649 -6.93477 0
M  V30 21069 H 2776.57 -8.89416 -5.05237 0
M  V30 21070 H 2774.94 -8.14876 -5.18409 0
M  V30 21071 H 2777.58 -3.27957 -5.4317 0
M  V30 21072 P 2779.44 -5.75688 -6.64379 0
M  V30 21073 O 2780.86 -6.07627 -7.05504 0
M  V30 21074 O 2779.08 -5.88047 -5.19722 0
M  V30 21075 O 2779.11 -4.2322 -7.04443 0
M  V30 21076 C 2778.95 -3.99743 -8.4911 0
M  V30 21077 C 2779.49 -2.60516 -8.79425 0
M  V30 21078 O 2778.44 -1.82684 -8.4467 0
M  V30 21079 C 2780.71 -2.10343 -8.03628 0
M  V30 21080 O 2781.45 -1.09919 -8.67766 0
M  V30 21081 C 2780.04 -1.68446 -6.70876 0
M  V30 21082 O 2780.84 -0.678137 -6.08433 0
M  V30 21083 C 2778.71 -1.17436 -7.18567 0
M  V30 21084 H 2778.74 -0.0804732 -7.31656 0
M  V30 21085 H 2779.92 -2.54037 -6.02537 0
M  V30 21086 H 2781.4 -2.93881 -7.85526 0
M  V30 21087 H 2779.71 -2.53065 -9.86973 0
M  V30 21088 H 2779.52 -4.75072 -9.05887 0
M  V30 21089 H 2777.89 -4.05244 -8.76668 0
M  V30 21090 H 2780.53 0.177647 -6.34251 0
M  V30 21091 P 2782.39 -1.25109 -8.70152 0
M  V30 21092 O 2783.81 -1.29744 -9.22016 0
M  V30 21093 O 2782.03 -2.13714 -7.55141 0
M  V30 21094 O 2782.06 0.248149 -8.21425 0
M  V30 21095 C 2781.9 1.22779 -9.30434 0
M  V30 21096 C 2782.44 2.56293 -8.80664 0
M  V30 21097 O 2781.39 3.02979 -8.09349 0
M  V30 21098 C 2783.66 2.57523 -7.89775 0
M  V30 21099 O 2784.4 3.7668 -7.89438 0
M  V30 21100 C 2782.99 2.20997 -6.55446 0
M  V30 21101 O 2783.79 2.71895 -5.48509 0
M  V30 21102 C 2781.66 2.89693 -6.67988 0
M  V30 21103 H 2781.69 3.88793 -6.19859 0
M  V30 21104 H 2782.87 1.12046 -6.44229 0
M  V30 21105 H 2784.36 1.7746 -8.19711 0
M  V30 21106 H 2782.66 3.20706 -9.67112 0
M  V30 21107 H 2782.47 0.901032 -10.1892 0
M  V30 21108 H 2780.84 1.33049 -9.56592 0
M  V30 21109 H 2783.48 3.57847 -5.23962 0
M  V30 21110 P 2785.34 3.65191 -7.99657 0
M  V30 21111 O 2786.76 3.89332 -8.45794 0
M  V30 21112 O 2784.98 2.28472 -7.50807 0
M  V30 21113 O 2785.02 4.64972 -6.77611 0
M  V30 21114 C 2784.86 6.06319 -7.16352 0
M  V30 21115 C 2785.4 6.91731 -6.02299 0
M  V30 21116 O 2784.34 6.92449 -5.17064 0
M  V30 21117 C 2786.61 6.43627 -5.25174 0
M  V30 21118 O 2787.35 7.43686 -4.60469 0
M  V30 21119 C 2785.94 5.40275 -4.31916 0
M  V30 21120 O 2786.74 5.25279 -3.14438 0
M  V30 21121 C 2784.61 6.04847 -4.05327 0
M  V30 21122 H 2784.64 6.62195 -3.11261 0
M  V30 21123 H 2785.82 4.42556 -4.81383 0
M  V30 21124 H 2787.31 5.92458 -5.93643 0
M  V30 21125 H 2785.61 7.92655 -6.402 0
M  V30 21126 H 2785.42 6.26671 -8.0846 0
M  V30 21127 H 2783.79 6.29101 -7.32804 0
M  V30 21128 H 2786.43 5.84315 -2.47318 0
M  V30 21129 P 2788.29 7.39546 -4.75277 0
M  V30 21130 O 2789.71 7.84966 -5.01146 0
M  V30 21131 O 2787.93 5.9812 -5.08098 0
M  V30 21132 O 2787.97 7.57503 -3.1866 0
M  V30 21133 C 2787.81 8.97357 -2.74833 0
M  V30 21134 C 2788.35 9.0745 -1.32694 0
M  V30 21135 O 2787.29 8.62072 -0.606159 0
M  V30 21136 C 2789.56 8.25383 -0.938334 0
M  V30 21137 O 2790.3 8.74577 0.146954 0
M  V30 21138 C 2788.9 6.8802 -0.712559 0
M  V30 21139 O 2789.69 6.11791 0.194623 0
M  V30 21140 C 2787.56 7.27966 -0.139777 0
M  V30 21141 N 2786.51 6.39368 -0.623421 0
M  V30 21142 C 2786.58 5.90299 -1.85969 0
M  V30 21143 N 2785.53 5.10919 -2.1133 0
M  V30 21144 C 2784.8 5.14646 -1.0015 0
M  V30 21145 C 2783.49 4.60057 -0.729219 0
M  V30 21146 O 2782.76 3.93476 -1.47746 0
M  V30 21147 N 2783.06 4.88302 0.523505 0
M  V30 21148 C 2783.81 5.63646 1.46207 0
M  V30 21149 N 2783.21 5.78186 2.69239 0
M  V30 21150 N 2784.96 6.19285 1.21544 0
M  V30 21151 C 2785.42 5.93392 -0.0308487 0
M  V30 21152 H 2787.59 7.25354 0.961601 0
M  V30 21153 H 2788.77 6.3246 -1.65676 0
M  V30 21154 H 2790.26 8.19533 -1.78278 0
M  V30 21155 H 2788.56 10.1294 -1.10029 0
M  V30 21156 H 2788.37 9.64276 -3.41316 0
M  V30 21157 H 2786.74 9.25417 -2.76357 0
M  V30 21158 H 2782.17 4.53993 0.806451 0
M  V30 21159 H 2787.37 6.11865 -2.57394 0
M  V30 21160 H 2782.3 5.34046 2.87467 0
M  V30 21161 H 2783.68 6.33391 3.42578 0
M  V30 21162 H 2789.38 6.25169 1.0783 0
M  V30 21163 P 2791.24 8.791 -3.10101e-13 0
M  V30 21164 O 2792.66 9.31096 0.027933 0
M  V30 21165 O 2790.88 7.77869 -1.04071 0
M  V30 21166 O 2790.92 8.09533 1.41463 0
M  V30 21167 C 2790.76 9.0349 2.53943 0
M  V30 21168 C 2791.3 8.35226 3.79016 0
M  V30 21169 O 2790.24 7.57992 4.15078 0
M  V30 21170 C 2792.51 7.45087 3.67298 0
M  V30 21171 O 2793.25 7.27796 4.85194 0
M  V30 21172 C 2791.85 6.17323 3.12027 0
M  V30 21173 O 2792.64 5.04231 3.47188 0
M  V30 21174 C 2790.51 6.19961 3.81809 0
M  V30 21175 H 2790.54 5.58218 4.73051 0
M  V30 21176 H 2791.72 6.21726 2.02589 0
M  V30 21177 H 2793.21 7.86112 2.9231 0
M  V30 21178 H 2791.51 9.11627 4.55076 0
M  V30 21179 H 2791.32 9.9573 2.34194 0
M  V30 21180 H 2789.69 9.2792 2.67832 0
M  V30 21181 H 2792.33 4.67702 4.28772 0
M  V30 21182 P 2794.19 7.39546 4.75277 0
M  V30 21183 O 2795.61 7.81777 5.05738 0
M  V30 21184 O 2793.83 7.1065 3.32998 0
M  V30 21185 O 2793.87 6.04542 5.56673 0
M  V30 21186 C 2793.71 6.22772 7.02095 0
M  V30 21187 C 2794.25 4.97725 7.70406 0
M  V30 21188 O 2793.19 4.13256 7.58987 0
M  V30 21189 C 2795.46 4.28231 7.11815 0
M  V30 21190 O 2796.2 3.49945 8.01648 0
M  V30 21191 C 2794.8 3.5063 5.96244 0
M  V30 21192 O 2795.59 2.36482 5.64681 0
M  V30 21193 C 2793.46 3.15122 6.56374 0
M  V30 21194 H 2793.49 2.13853 6.99751 0
M  V30 21195 H 2794.67 4.13501 5.06559 0
M  V30 21196 H 2796.16 5.03285 6.70911 0
M  V30 21197 H 2794.46 5.20877 8.75697 0
M  V30 21198 H 2794.27 7.11046 7.35349 0
M  V30 21199 H 2792.64 6.35815 7.26986 0
M  V30 21200 H 2795.28 1.61644 6.13565 0
M  V30 21201 P 2797.14 3.65191 7.99657 0
M  V30 21202 O 2798.56 3.8425 8.48115 0
M  V30 21203 O 2796.78 4.17805 6.64342 0
M  V30 21204 O 2796.82 2.07613 7.95143 0
M  V30 21205 C 2796.66 1.44328 9.27336 0
M  V30 21206 C 2797.2 0.0220036 9.17197 0
M  V30 21207 O 2796.14 -0.626867 8.61923 0
M  V30 21208 C 2798.42 -0.24586 8.30336 0
M  V30 21209 O 2799.15 -1.39011 8.63583 0
M  V30 21210 C 2797.75 -0.273849 6.91158 0
M  V30 21211 O 2798.55 -1.06348 6.02892 0
M  V30 21212 C 2796.41 -0.897649 7.22545 0
M  V30 21213 H 2796.44 -1.9841 7.04286 0
M  V30 21214 H 2797.62 0.739928 6.497 0
M  V30 21215 H 2799.11 0.60668 8.36503 0
M  V30 21216 H 2797.41 -0.352479 10.1829 0
M  V30 21217 H 2797.22 2.00611 10.0304 0
M  V30 21218 H 2795.59 1.41843 9.55327 0
M  V30 21219 H 2798.23 -1.95734 6.03555 0
M  V30 21220 P 2800.09 -1.25109 8.70152 0
M  V30 21221 O 2801.51 -1.35303 9.21419 0
M  V30 21222 O 2799.73 -0.0769065 7.84762 0
M  V30 21223 O 2799.77 -2.55232 7.81161 0
M  V30 21224 C 2799.61 -3.79939 8.58154 0
M  V30 21225 C 2800.15 -4.93969 7.72701 0
M  V30 21226 O 2799.09 -5.18726 6.91205 0
M  V30 21227 C 2801.37 -4.69597 6.85231 0
M  V30 21228 O 2802.1 -5.83832 6.51337 0
M  V30 21229 C 2800.7 -3.96706 5.66633 0
M  V30 21230 O 2801.5 -4.15346 4.49615 0
M  V30 21231 C 2799.36 -4.66153 5.59313 0
M  V30 21232 N 2798.32 -3.71582 5.24027 0
M  V30 21233 C 2798.38 -2.46018 5.67902 0
M  V30 21234 N 2797.33 -1.74868 5.24518 0
M  V30 21235 C 2796.6 -2.61333 4.54528 0
M  V30 21236 C 2795.29 -2.46162 3.95441 0
M  V30 21237 O 2794.56 -1.46013 3.94122 0
M  V30 21238 N 2794.86 -3.59334 3.34752 0
M  V30 21239 C 2795.61 -4.79605 3.3023 0
M  V30 21240 N 2795.02 -5.82109 2.6065 0
M  V30 21241 N 2796.77 -4.97402 3.8843 0
M  V30 21242 C 2797.22 -3.86258 4.50476 0
M  V30 21243 H 2799.39 -5.47679 4.85214 0
M  V30 21244 H 2800.57 -2.88964 5.86476 0
M  V30 21245 H 2802.06 -4.01947 7.36109 0
M  V30 21246 H 2800.36 -5.80182 8.37584 0
M  V30 21247 H 2800.17 -3.73517 9.52265 0
M  V30 21248 H 2798.54 -3.97163 8.80359 0
M  V30 21249 H 2793.97 -3.5825 2.90294 0
M  V30 21250 H 2799.17 -2.06161 6.30974 0
M  V30 21251 H 2794.1 -5.66979 2.15354 0
M  V30 21252 H 2795.48 -6.73686 2.54344 0
M  V30 21253 H 2801.18 -4.90891 4.01857 0
M  V30 21254 P 2803.04 -5.75688 6.64379 0
M  V30 21255 O 2804.46 -6.11849 7.01846 0
M  V30 21256 O 2802.68 -4.30744 6.56026 0
M  V30 21257 O 2802.72 -6.37042 5.19165 0
M  V30 21258 C 2802.56 -7.83578 5.16515 0
M  V30 21259 C 2803.1 -8.33398 3.83019 0
M  V30 21260 O 2802.04 -8.10074 3.01034 0
M  V30 21261 C 2804.32 -7.65514 3.2257 0
M  V30 21262 O 2805.05 -8.4329 2.32297 0
M  V30 21263 C 2803.65 -6.40075 2.62207 0
M  V30 21264 O 2804.45 -5.92589 1.53712 0
M  V30 21265 C 2802.31 -6.9454 2.18503 0
M  V30 21266 H 2802.34 -7.23063 1.12091 0
M  V30 21267 H 2803.53 -5.6025 3.37201 0
M  V30 21268 H 2805.01 -7.35707 4.02681 0
M  V30 21269 H 2803.32 -9.40912 3.9095 0
M  V30 21270 H 2803.13 -8.29056 5.99158 0
M  V30 21271 H 2801.5 -8.10073 5.25882 0
M  V30 21272 H 2804.13 -6.30324 0.726794 0
M  V30 21273 P 2805.99 -8.4349 2.47671 0
M  V30 21274 O 2807.41 -8.94167 2.5964 0
M  V30 21275 O 2805.63 -7.1704 3.19006 0
M  V30 21276 O 2805.67 -8.16596 0.923387 0
M  V30 21277 C 2805.51 -9.38437 0.108857 0
M  V30 21278 C 2806.05 -9.08175 -1.28353 0
M  V30 21279 O 2804.99 -8.44229 -1.84713 0
M  V30 21280 C 2807.27 -8.18386 -1.42505 0
M  V30 21281 O 2808.01 -8.3501 -2.60497 0
M  V30 21282 C 2806.6 -6.80225 -1.25468 0
M  V30 21283 O 2807.4 -5.81621 -1.91066 0
M  V30 21284 C 2805.26 -7.02416 -1.9168 0
M  V30 21285 H 2805.29 -6.6888 -2.96621 0
M  V30 21286 H 2806.48 -6.53617 -0.192223 0
M  V30 21287 H 2807.96 -8.36622 -0.589963 0
M  V30 21288 H 2806.27 -10.0291 -1.79807 0
M  V30 21289 H 2806.08 -10.2138 0.558219 0
M  V30 21290 H 2804.45 -9.6579 0.0444202 0
M  V30 21291 H 2807.09 -5.69556 -2.79637 0
M  V30 21292 P 2808.94 -8.4349 -2.47671 0
M  V30 21293 O 2810.36 -8.92593 -2.65 0
M  V30 21294 O 2808.58 -7.7568 -1.19296 0
M  V30 21295 O 2808.62 -7.36886 -3.63805 0
M  V30 21296 C 2808.46 -7.95349 -4.982 0
M  V30 21297 C 2809 -6.94612 -5.98974 0
M  V30 21298 O 2807.94 -6.10347 -6.11815 0
M  V30 21299 C 2810.22 -6.11426 -5.62335 0
M  V30 21300 O 2810.96 -5.6162 -6.70584 0
M  V30 21301 C 2809.55 -5.04409 -4.73308 0
M  V30 21302 O 2810.35 -3.85992 -4.75183 0
M  V30 21303 C 2808.21 -4.8728 -5.41006 0
M  V30 21304 H 2808.24 -4.02333 -6.11157 0
M  V30 21305 H 2809.43 -5.39466 -3.69543 0
M  V30 21306 H 2810.91 -6.71916 -5.01943 0
M  V30 21307 H 2809.22 -7.4649 -6.93477 0
M  V30 21308 H 2809.03 -8.89416 -5.05237 0
M  V30 21309 H 2807.4 -8.14876 -5.18409 0
M  V30 21310 H 2810.04 -3.27957 -5.4317 0
M  V30 21311 P 2811.89 -5.75688 -6.64379 0
M  V30 21312 O 2813.31 -6.07692 -7.0558 0
M  V30 21313 O 2811.53 -5.88047 -5.19722 0
M  V30 21314 O 2811.57 -4.2322 -7.04443 0
M  V30 21315 C 2811.41 -3.99785 -8.49201 0
M  V30 21316 C 2811.95 -2.60516 -8.79425 0
M  V30 21317 O 2810.9 -1.82663 -8.44573 0
M  V30 21318 C 2813.17 -2.10343 -8.03628 0
M  V30 21319 O 2813.91 -1.09919 -8.67766 0
M  V30 21320 C 2812.5 -1.68446 -6.70876 0
M  V30 21321 O 2813.3 -0.684109 -6.08265 0
M  V30 21322 C 2811.16 -1.17436 -7.18567 0
M  V30 21323 N 2810.12 -1.52699 -6.23988 0
M  V30 21324 C 2810.29 -2.578 -5.40574 0
M  V30 21325 N 2809.26 -2.78966 -4.61193 0
M  V30 21326 C 2808.38 -1.78725 -4.95769 0
M  V30 21327 C 2807.11 -1.45727 -4.44207 0
M  V30 21328 N 2806.51 -2.13994 -3.43613 0
M  V30 21329 N 2806.54 -0.374977 -5.05812 0
M  V30 21330 C 2807.15 0.345585 -6.05615 0
M  V30 21331 N 2808.32 0.0787651 -6.56253 0
M  V30 21332 C 2808.9 -1.00499 -5.96189 0
M  V30 21333 H 2811.19 -0.0804622 -7.31556 0
M  V30 21334 H 2812.38 -2.53396 -6.02698 0
M  V30 21335 H 2813.86 -2.93881 -7.85526 0
M  V30 21336 H 2812.17 -2.52078 -9.87225 0
M  V30 21337 H 2811.98 -4.75072 -9.05887 0
M  V30 21338 H 2810.35 -4.05244 -8.76668 0
M  V30 21339 H 2806.61 1.20098 -6.4532 0
M  V30 21340 H 2811.19 -3.18977 -5.3945 0
M  V30 21341 H 2805.58 -1.84983 -3.10004 0
M  V30 21342 H 2806.98 -2.9465 -3.00843 0
M  V30 21343 H 2812.99 0.177619 -6.34151 0
M  V30 21344 P 2814.84 -1.25109 -8.70152 0
M  V30 21345 O 2816.27 -1.29744 -9.22016 0
M  V30 21346 O 2814.48 -2.13714 -7.55141 0
M  V30 21347 O 2814.52 0.248149 -8.21425 0
M  V30 21348 C 2814.36 1.22779 -9.30434 0
M  V30 21349 C 2814.9 2.56293 -8.80664 0
M  V30 21350 O 2813.84 3.02979 -8.09349 0
M  V30 21351 C 2816.12 2.57523 -7.89775 0
M  V30 21352 O 2816.86 3.7668 -7.89438 0
M  V30 21353 C 2815.45 2.20997 -6.55446 0
M  V30 21354 O 2816.25 2.71895 -5.48509 0
M  V30 21355 C 2814.11 2.89693 -6.67988 0
M  V30 21356 H 2814.14 3.88793 -6.19859 0
M  V30 21357 H 2815.33 1.12046 -6.44229 0
M  V30 21358 H 2816.81 1.7746 -8.19711 0
M  V30 21359 H 2815.12 3.20706 -9.67112 0
M  V30 21360 H 2814.93 0.901032 -10.1892 0
M  V30 21361 H 2813.3 1.33049 -9.56592 0
M  V30 21362 H 2815.94 3.57847 -5.23962 0
M  V30 21363 P 2817.79 3.65191 -7.99657 0
M  V30 21364 O 2819.22 3.89332 -8.45794 0
M  V30 21365 O 2817.43 2.28472 -7.50807 0
M  V30 21366 O 2817.47 4.64972 -6.77611 0
M  V30 21367 C 2817.31 6.06319 -7.16352 0
M  V30 21368 C 2817.85 6.91731 -6.02299 0
M  V30 21369 O 2816.8 6.92449 -5.17064 0
M  V30 21370 C 2819.07 6.43627 -5.25174 0
M  V30 21371 O 2819.81 7.43686 -4.60469 0
M  V30 21372 C 2818.4 5.40275 -4.31916 0
M  V30 21373 O 2819.2 5.25279 -3.14438 0
M  V30 21374 C 2817.06 6.04847 -4.05327 0
M  V30 21375 H 2817.1 6.62195 -3.11261 0
M  V30 21376 H 2818.28 4.42556 -4.81383 0
M  V30 21377 H 2819.76 5.92458 -5.93643 0
M  V30 21378 H 2818.07 7.92655 -6.402 0
M  V30 21379 H 2817.88 6.26671 -8.0846 0
M  V30 21380 H 2816.25 6.29101 -7.32804 0
M  V30 21381 H 2818.89 5.84315 -2.47318 0
M  V30 21382 P 2820.74 7.39546 -4.75277 0
M  V30 21383 O 2822.17 7.84798 -5.01039 0
M  V30 21384 O 2820.38 5.9812 -5.08098 0
M  V30 21385 O 2820.42 7.57503 -3.1866 0
M  V30 21386 C 2820.26 8.97357 -2.74833 0
M  V30 21387 C 2820.8 9.07548 -1.32709 0
M  V30 21388 O 2819.75 8.62072 -0.606159 0
M  V30 21389 C 2822.02 8.25383 -0.938334 0
M  V30 21390 O 2822.76 8.74577 0.146954 0
M  V30 21391 C 2821.35 6.8802 -0.712559 0
M  V30 21392 O 2822.15 6.1189 0.194655 0
M  V30 21393 C 2820.01 7.27966 -0.139777 0
M  V30 21394 H 2820.05 7.25354 0.961601 0
M  V30 21395 H 2821.23 6.32557 -1.65702 0
M  V30 21396 H 2822.71 8.19355 -1.79097 0
M  V30 21397 H 2821.02 10.1294 -1.10029 0
M  V30 21398 H 2820.83 9.64276 -3.41316 0
M  V30 21399 H 2819.2 9.25417 -2.76357 0
M  V30 21400 H 2821.84 6.25267 1.07847 0
M  V30 21401 P 2823.7 8.791 -5.49675e-12 0
M  V30 21402 O 2825.12 9.31096 0.027933 0
M  V30 21403 O 2823.34 7.77869 -1.04071 0
M  V30 21404 O 2823.37 8.09533 1.41463 0
M  V30 21405 C 2823.21 9.0349 2.53943 0
M  V30 21406 C 2823.75 8.35226 3.79016 0
M  V30 21407 O 2822.7 7.57992 4.15078 0
M  V30 21408 C 2824.97 7.45087 3.67298 0
M  V30 21409 O 2825.71 7.27796 4.85194 0
M  V30 21410 C 2824.3 6.17323 3.12027 0
M  V30 21411 O 2825.1 5.04231 3.47188 0
M  V30 21412 C 2822.96 6.19961 3.81809 0
M  V30 21413 H 2823 5.58218 4.73051 0
M  V30 21414 H 2824.18 6.21726 2.02589 0
M  V30 21415 H 2825.66 7.86112 2.9231 0
M  V30 21416 H 2823.97 9.11627 4.55076 0
M  V30 21417 H 2823.78 9.9573 2.34194 0
M  V30 21418 H 2822.15 9.2792 2.67832 0
M  V30 21419 H 2824.79 4.67702 4.28772 0
M  V30 21420 P 2826.65 7.39546 4.75277 0
M  V30 21421 O 2828.07 7.81777 5.05738 0
M  V30 21422 O 2826.29 7.1065 3.32998 0
M  V30 21423 O 2826.32 6.04542 5.56673 0
M  V30 21424 C 2826.16 6.22772 7.02095 0
M  V30 21425 C 2826.7 4.97725 7.70406 0
M  V30 21426 O 2825.65 4.13256 7.58987 0
M  V30 21427 C 2827.92 4.28231 7.11815 0
M  V30 21428 O 2828.66 3.49945 8.01648 0
M  V30 21429 C 2827.25 3.5063 5.96244 0
M  V30 21430 O 2828.05 2.36482 5.64681 0
M  V30 21431 C 2825.92 3.15122 6.56374 0
M  V30 21432 H 2825.95 2.13853 6.99751 0
M  V30 21433 H 2827.13 4.13501 5.06559 0
M  V30 21434 H 2828.61 5.03285 6.70911 0
M  V30 21435 H 2826.92 5.20877 8.75697 0
M  V30 21436 H 2826.73 7.11046 7.35349 0
M  V30 21437 H 2825.1 6.35815 7.26986 0
M  V30 21438 H 2827.74 1.61644 6.13565 0
M  V30 21439 P 2829.6 3.65191 7.99657 0
M  V30 21440 O 2831.02 3.8425 8.48115 0
M  V30 21441 O 2829.24 4.17805 6.64342 0
M  V30 21442 O 2829.27 2.07613 7.95143 0
M  V30 21443 C 2829.11 1.44328 9.27336 0
M  V30 21444 C 2829.65 0.0220036 9.17197 0
M  V30 21445 O 2828.6 -0.626867 8.61923 0
M  V30 21446 C 2830.87 -0.24586 8.30336 0
M  V30 21447 O 2831.61 -1.39011 8.63583 0
M  V30 21448 C 2830.2 -0.273849 6.91158 0
M  V30 21449 O 2831 -1.06348 6.02892 0
M  V30 21450 C 2828.87 -0.897649 7.22545 0
M  V30 21451 H 2828.9 -1.9841 7.04286 0
M  V30 21452 H 2830.08 0.739928 6.497 0
M  V30 21453 H 2831.56 0.60668 8.36503 0
M  V30 21454 H 2829.87 -0.352479 10.1829 0
M  V30 21455 H 2829.68 2.00611 10.0304 0
M  V30 21456 H 2828.05 1.41843 9.55327 0
M  V30 21457 H 2830.69 -1.95734 6.03555 0
M  V30 21458 P 2832.55 -1.25109 8.70152 0
M  V30 21459 O 2833.97 -1.35274 9.21221 0
M  V30 21460 O 2832.19 -0.0769065 7.84762 0
M  V30 21461 O 2832.22 -2.55232 7.81161 0
M  V30 21462 C 2832.06 -3.79939 8.58154 0
M  V30 21463 C 2832.6 -4.94023 7.72785 0
M  V30 21464 O 2831.55 -5.18726 6.91205 0
M  V30 21465 C 2833.82 -4.69597 6.85231 0
M  V30 21466 O 2834.56 -5.83832 6.51337 0
M  V30 21467 C 2833.15 -3.96706 5.66633 0
M  V30 21468 O 2833.95 -4.15414 4.49689 0
M  V30 21469 C 2831.82 -4.66153 5.59313 0
M  V30 21470 H 2831.85 -5.47679 4.85214 0
M  V30 21471 H 2833.03 -2.89008 5.86566 0
M  V30 21472 H 2834.52 -4.0121 7.36511 0
M  V30 21473 H 2832.82 -5.80182 8.37584 0
M  V30 21474 H 2832.63 -3.73517 9.52265 0
M  V30 21475 H 2831 -3.97163 8.80359 0
M  V30 21476 H 2833.64 -4.90969 4.01921 0
M  V30 21477 P 2835.5 -5.75688 6.64379 0
M  V30 21478 O 2836.92 -6.11849 7.01846 0
M  V30 21479 O 2835.14 -4.30744 6.56026 0
M  V30 21480 O 2835.17 -6.37042 5.19165 0
M  V30 21481 C 2835.01 -7.83578 5.16515 0
M  V30 21482 C 2835.55 -8.33398 3.83019 0
M  V30 21483 O 2834.5 -8.10074 3.01034 0
M  V30 21484 C 2836.77 -7.65514 3.2257 0
M  V30 21485 O 2837.51 -8.4329 2.32297 0
M  V30 21486 C 2836.1 -6.40075 2.62207 0
M  V30 21487 O 2836.9 -5.92589 1.53712 0
M  V30 21488 C 2834.77 -6.9454 2.18503 0
M  V30 21489 H 2834.8 -7.23063 1.12091 0
M  V30 21490 H 2835.98 -5.6025 3.37201 0
M  V30 21491 H 2837.47 -7.35707 4.02681 0
M  V30 21492 H 2835.77 -9.40912 3.9095 0
M  V30 21493 H 2835.58 -8.29056 5.99158 0
M  V30 21494 H 2833.95 -8.10073 5.25882 0
M  V30 21495 H 2836.59 -6.30324 0.726794 0
M  V30 21496 P 2838.45 -8.4349 2.47671 0
M  V30 21497 O 2839.85 -8.98227 2.65696 0
M  V30 21498 O 2838.07 -7.20409 3.23964 0
M  V30 21499 O 2838.13 -8.16496 0.923275 0
M  V30 21500 C 2837.97 -9.38437 0.108857 0
M  V30 21501 C 2838.51 -9.08076 -1.28339 0
M  V30 21502 O 2837.45 -8.44131 -1.84692 0
M  V30 21503 C 2839.72 -8.18386 -1.42505 0
M  V30 21504 O 2840.46 -8.3501 -2.60497 0
M  V30 21505 C 2839.06 -6.80225 -1.25468 0
M  V30 21506 O 2839.85 -5.81526 -1.91035 0
M  V30 21507 C 2837.72 -7.02416 -1.9168 0
M  V30 21508 N 2836.67 -6.31033 -1.20314 0
M  V30 21509 C 2835.64 -5.77149 -1.928 0
M  V30 21510 O 2835.68 -5.8521 -3.17729 0
M  V30 21511 N 2834.63 -5.15445 -1.27997 0
M  V30 21512 C 2834.68 -5.04472 0.0534726 0
M  V30 21513 C 2835.77 -5.55244 0.808522 0
M  V30 21514 C 2836.74 -6.18542 0.13981 0
M  V30 21515 H 2837.75 -6.68789 -2.9658 0
M  V30 21516 H 2838.93 -6.53498 -0.198729 0
M  V30 21517 H 2840.42 -8.36663 -0.5984 0
M  V30 21518 H 2838.72 -10.0273 -1.8081 0
M  V30 21519 H 2838.53 -10.2138 0.558219 0
M  V30 21520 H 2836.9 -9.6569 0.0444156 0
M  V30 21521 H 2835.82 -5.43017 1.88792 0
M  V30 21522 H 2837.58 -6.60539 0.686773 0
M  V30 21523 H 2839.64 -5.79638 -2.8315 0
M  V30 21524 P 2841.4 -8.4349 -2.47671 0
M  V30 21525 O 2842.82 -8.92593 -2.65 0
M  V30 21526 O 2841.04 -7.7568 -1.19296 0
M  V30 21527 O 2841.08 -7.36886 -3.63805 0
M  V30 21528 C 2840.92 -7.95349 -4.982 0
M  V30 21529 C 2841.46 -6.94612 -5.98974 0
M  V30 21530 O 2840.4 -6.10347 -6.11815 0
M  V30 21531 C 2842.67 -6.11426 -5.62335 0
M  V30 21532 O 2843.41 -5.6162 -6.70584 0
M  V30 21533 C 2842 -5.04409 -4.73308 0
M  V30 21534 O 2842.8 -3.85992 -4.75183 0
M  V30 21535 C 2840.67 -4.8728 -5.41006 0
M  V30 21536 H 2840.7 -4.02333 -6.11157 0
M  V30 21537 H 2841.88 -5.39466 -3.69543 0
M  V30 21538 H 2843.37 -6.71916 -5.01943 0
M  V30 21539 H 2841.67 -7.4649 -6.93477 0
M  V30 21540 H 2841.48 -8.89416 -5.05237 0
M  V30 21541 H 2839.85 -8.14876 -5.18409 0
M  V30 21542 H 2842.49 -3.27957 -5.4317 0
M  V30 21543 P 2844.35 -5.75688 -6.64379 0
M  V30 21544 O 2845.77 -6.07627 -7.05504 0
M  V30 21545 O 2843.99 -5.88047 -5.19722 0
M  V30 21546 O 2844.03 -4.2322 -7.04443 0
M  V30 21547 C 2843.87 -3.99743 -8.4911 0
M  V30 21548 C 2844.41 -2.60516 -8.79425 0
M  V30 21549 O 2843.35 -1.82684 -8.4467 0
M  V30 21550 C 2845.62 -2.10343 -8.03628 0
M  V30 21551 O 2846.36 -1.09919 -8.67766 0
M  V30 21552 C 2844.96 -1.68446 -6.70876 0
M  V30 21553 O 2845.75 -0.678137 -6.08433 0
M  V30 21554 C 2843.62 -1.17436 -7.18567 0
M  V30 21555 H 2843.65 -0.0804732 -7.31656 0
M  V30 21556 H 2844.83 -2.54037 -6.02537 0
M  V30 21557 H 2846.32 -2.93881 -7.85526 0
M  V30 21558 H 2844.62 -2.53065 -9.86973 0
M  V30 21559 H 2844.43 -4.75072 -9.05887 0
M  V30 21560 H 2842.8 -4.05244 -8.76668 0
M  V30 21561 H 2845.44 0.177647 -6.34251 0
M  V30 21562 P 2847.3 -1.25109 -8.70152 0
M  V30 21563 O 2848.72 -1.29744 -9.22016 0
M  V30 21564 O 2846.94 -2.13714 -7.55141 0
M  V30 21565 O 2846.98 0.248149 -8.21425 0
M  V30 21566 C 2846.82 1.22779 -9.30434 0
M  V30 21567 C 2847.36 2.56293 -8.80664 0
M  V30 21568 O 2846.3 3.02979 -8.09349 0
M  V30 21569 C 2848.58 2.57523 -7.89775 0
M  V30 21570 O 2849.31 3.7668 -7.89438 0
M  V30 21571 C 2847.91 2.20997 -6.55446 0
M  V30 21572 O 2848.71 2.71895 -5.48509 0
M  V30 21573 C 2846.57 2.89693 -6.67988 0
M  V30 21574 H 2846.6 3.88793 -6.19859 0
M  V30 21575 H 2847.78 1.12046 -6.44229 0
M  V30 21576 H 2849.27 1.7746 -8.19711 0
M  V30 21577 H 2847.57 3.20706 -9.67112 0
M  V30 21578 H 2847.38 0.901032 -10.1892 0
M  V30 21579 H 2845.75 1.33049 -9.56592 0
M  V30 21580 H 2848.39 3.57847 -5.23962 0
M  V30 21581 P 2850.25 3.65191 -7.99657 0
M  V30 21582 O 2851.67 3.89374 -8.45885 0
M  V30 21583 O 2849.89 2.28472 -7.50807 0
M  V30 21584 O 2849.93 4.64972 -6.77611 0
M  V30 21585 C 2849.77 6.06383 -7.16428 0
M  V30 21586 C 2850.31 6.91731 -6.02299 0
M  V30 21587 O 2849.25 6.92369 -5.17005 0
M  V30 21588 C 2851.53 6.43627 -5.25174 0
M  V30 21589 O 2852.26 7.43686 -4.60469 0
M  V30 21590 C 2850.86 5.40275 -4.31916 0
M  V30 21591 O 2851.66 5.24878 -3.14911 0
M  V30 21592 C 2849.52 6.04847 -4.05327 0
M  V30 21593 N 2848.48 5.04166 -3.98114 0
M  V30 21594 C 2848.65 3.84629 -4.59066 0
M  V30 21595 N 2847.62 3.0363 -4.45343 0
M  V30 21596 C 2846.73 3.76722 -3.68523 0
M  V30 21597 C 2845.47 3.43528 -3.17088 0
M  V30 21598 N 2844.87 2.23665 -3.37397 0
M  V30 21599 N 2844.9 4.44526 -2.44231 0
M  V30 21600 C 2845.5 5.65243 -2.20146 0
M  V30 21601 N 2846.68 6.00221 -2.65453 0
M  V30 21602 C 2847.26 5.00564 -3.39083 0
M  V30 21603 H 2849.55 6.62104 -3.11218 0
M  V30 21604 H 2850.73 4.42969 -4.80867 0
M  V30 21605 H 2852.22 5.92458 -5.93643 0
M  V30 21606 H 2850.52 7.93295 -6.39407 0
M  V30 21607 H 2850.33 6.26671 -8.0846 0
M  V30 21608 H 2848.7 6.29101 -7.32804 0
M  V30 21609 H 2844.97 6.36894 -1.5883 0
M  V30 21610 H 2849.55 3.58193 -5.14248 0
M  V30 21611 H 2843.94 2.05145 -2.97047 0
M  V30 21612 H 2845.34 1.51255 -3.92998 0
M  V30 21613 H 2851.34 5.84223 -2.47279 0
M  V30 21614 P 2853.2 7.39546 -4.75277 0
M  V30 21615 O 2854.62 7.84798 -5.01039 0
M  V30 21616 O 2852.84 5.9812 -5.08098 0
M  V30 21617 O 2852.88 7.57503 -3.1866 0
M  V30 21618 C 2852.72 8.97357 -2.74833 0
M  V30 21619 C 2853.26 9.07548 -1.32709 0
M  V30 21620 O 2852.2 8.62072 -0.606159 0
M  V30 21621 C 2854.48 8.25383 -0.938334 0
M  V30 21622 O 2855.21 8.74577 0.146954 0
M  V30 21623 C 2853.81 6.8802 -0.712559 0
M  V30 21624 O 2854.61 6.1189 0.194655 0
M  V30 21625 C 2852.47 7.27966 -0.139777 0
M  V30 21626 H 2852.5 7.25354 0.961601 0
M  V30 21627 H 2853.69 6.32557 -1.65702 0
M  V30 21628 H 2855.17 8.19355 -1.79097 0
M  V30 21629 H 2853.48 10.1294 -1.10029 0
M  V30 21630 H 2853.29 9.64276 -3.41316 0
M  V30 21631 H 2851.66 9.25417 -2.76357 0
M  V30 21632 H 2854.29 6.25267 1.07847 0
M  V30 21633 P 2856.15 8.791 -1.06834e-11 0
M  V30 21634 O 2857.57 9.31196 0.027936 0
M  V30 21635 O 2855.79 7.77869 -1.04071 0
M  V30 21636 O 2855.83 8.09533 1.41463 0
M  V30 21637 C 2855.67 9.03587 2.5397 0
M  V30 21638 C 2856.21 8.35226 3.79016 0
M  V30 21639 O 2855.15 7.57904 4.1503 0
M  V30 21640 C 2857.43 7.45087 3.67298 0
M  V30 21641 O 2858.16 7.27796 4.85194 0
M  V30 21642 C 2856.76 6.17323 3.12027 0
M  V30 21643 O 2857.56 5.04496 3.46627 0
M  V30 21644 C 2855.42 6.19961 3.81809 0
M  V30 21645 N 2854.38 5.71575 2.93223 0
M  V30 21646 C 2854.55 5.77362 1.59168 0
M  V30 21647 N 2853.52 5.3123 0.911893 0
M  V30 21648 C 2852.63 4.91717 1.89588 0
M  V30 21649 C 2851.37 4.3114 1.8076 0
M  V30 21650 N 2850.8 4.06823 3.02898 0
M  V30 21651 C 2851.4 4.35062 4.22711 0
M  V30 21652 N 2852.58 4.90805 4.35707 0
M  V30 21653 C 2853.16 5.16382 3.14469 0
M  V30 21654 H 2856.64 6.21428 2.0318 0
M  V30 21655 H 2858.12 7.86112 2.9231 0
M  V30 21656 H 2856.42 9.11171 4.55987 0
M  V30 21657 H 2856.23 9.9573 2.34194 0
M  V30 21658 H 2854.6 9.2792 2.67832 0
M  V30 21659 H 2855.45 6.16575 1.12198 0
M  V30 21660 H 2857.24 4.67628 4.28704 0
M  V30 21661 P 2859.1 7.39546 4.75277 0
M  V30 21662 O 2860.52 7.81777 5.05738 0
M  V30 21663 O 2858.74 7.1065 3.32998 0
M  V30 21664 O 2858.78 6.04542 5.56673 0
M  V30 21665 C 2858.62 6.22772 7.02095 0
M  V30 21666 C 2859.16 4.97725 7.70406 0
M  V30 21667 O 2858.1 4.13256 7.58987 0
M  V30 21668 C 2860.38 4.28231 7.11815 0
M  V30 21669 O 2861.12 3.49945 8.01648 0
M  V30 21670 C 2859.71 3.5063 5.96244 0
M  V30 21671 O 2860.51 2.36482 5.64681 0
M  V30 21672 C 2858.37 3.15122 6.56374 0
M  V30 21673 H 2858.4 2.13853 6.99751 0
M  V30 21674 H 2859.59 4.13501 5.06559 0
M  V30 21675 H 2861.07 5.03285 6.70911 0
M  V30 21676 H 2859.38 5.20877 8.75697 0
M  V30 21677 H 2859.19 7.11046 7.35349 0
M  V30 21678 H 2857.56 6.35815 7.26986 0
M  V30 21679 H 2860.2 1.61644 6.13565 0
M  V30 21680 P 2862.05 3.65191 7.99657 0
M  V30 21681 O 2863.47 3.8425 8.48115 0
M  V30 21682 O 2861.69 4.17805 6.64342 0
M  V30 21683 O 2861.73 2.07613 7.95143 0
M  V30 21684 C 2861.57 1.44328 9.27336 0
M  V30 21685 C 2862.11 0.0220036 9.17197 0
M  V30 21686 O 2861.05 -0.626867 8.61923 0
M  V30 21687 C 2863.33 -0.24586 8.30336 0
M  V30 21688 O 2864.07 -1.39011 8.63583 0
M  V30 21689 C 2862.66 -0.273849 6.91158 0
M  V30 21690 O 2863.46 -1.06348 6.02892 0
M  V30 21691 C 2861.32 -0.897649 7.22545 0
M  V30 21692 H 2861.35 -1.9841 7.04286 0
M  V30 21693 H 2862.54 0.739928 6.497 0
M  V30 21694 H 2864.02 0.60668 8.36503 0
M  V30 21695 H 2862.33 -0.352479 10.1829 0
M  V30 21696 H 2862.14 2.00611 10.0304 0
M  V30 21697 H 2860.51 1.41843 9.55327 0
M  V30 21698 H 2863.15 -1.95734 6.03555 0
M  V30 21699 P 2865 -1.25109 8.70152 0
M  V30 21700 O 2866.43 -1.35274 9.21221 0
M  V30 21701 O 2864.64 -0.0769065 7.84762 0
M  V30 21702 O 2864.68 -2.55232 7.81161 0
M  V30 21703 C 2864.52 -3.79939 8.58154 0
M  V30 21704 C 2865.06 -4.94023 7.72785 0
M  V30 21705 O 2864 -5.18726 6.91205 0
M  V30 21706 C 2866.28 -4.69597 6.85231 0
M  V30 21707 O 2867.02 -5.83832 6.51337 0
M  V30 21708 C 2865.61 -3.96706 5.66633 0
M  V30 21709 O 2866.41 -4.15414 4.49689 0
M  V30 21710 C 2864.27 -4.66153 5.59313 0
M  V30 21711 H 2864.3 -5.47679 4.85214 0
M  V30 21712 H 2865.49 -2.89008 5.86566 0
M  V30 21713 H 2866.97 -4.0121 7.36511 0
M  V30 21714 H 2865.28 -5.80182 8.37584 0
M  V30 21715 H 2865.09 -3.73517 9.52265 0
M  V30 21716 H 2863.46 -3.97163 8.80359 0
M  V30 21717 H 2866.1 -4.90969 4.01921 0
M  V30 21718 P 2867.95 -5.75688 6.64379 0
M  V30 21719 O 2869.38 -6.11849 7.01846 0
M  V30 21720 O 2867.59 -4.30744 6.56026 0
M  V30 21721 O 2867.63 -6.37042 5.19165 0
M  V30 21722 C 2867.47 -7.83578 5.16515 0
M  V30 21723 C 2868.01 -8.33398 3.83019 0
M  V30 21724 O 2866.96 -8.10074 3.01034 0
M  V30 21725 C 2869.23 -7.65514 3.2257 0
M  V30 21726 O 2869.97 -8.4329 2.32297 0
M  V30 21727 C 2868.56 -6.40075 2.62207 0
M  V30 21728 O 2869.36 -5.92589 1.53712 0
M  V30 21729 C 2867.22 -6.9454 2.18503 0
M  V30 21730 H 2867.26 -7.23063 1.12091 0
M  V30 21731 H 2868.44 -5.6025 3.37201 0
M  V30 21732 H 2869.92 -7.35707 4.02681 0
M  V30 21733 H 2868.23 -9.40912 3.9095 0
M  V30 21734 H 2868.04 -8.29056 5.99158 0
M  V30 21735 H 2866.41 -8.10073 5.25882 0
M  V30 21736 H 2869.05 -6.30324 0.726794 0
M  V30 21737 P 2870.9 -8.4349 2.47671 0
M  V30 21738 O 2872.33 -8.94167 2.5964 0
M  V30 21739 O 2870.54 -7.1704 3.19006 0
M  V30 21740 O 2870.58 -8.16596 0.923387 0
M  V30 21741 C 2870.42 -9.38437 0.108857 0
M  V30 21742 C 2870.96 -9.08175 -1.28353 0
M  V30 21743 O 2869.91 -8.44229 -1.84713 0
M  V30 21744 C 2872.18 -8.18386 -1.42505 0
M  V30 21745 O 2872.92 -8.3501 -2.60497 0
M  V30 21746 C 2871.51 -6.80225 -1.25468 0
M  V30 21747 O 2872.31 -5.81621 -1.91066 0
M  V30 21748 C 2870.17 -7.02416 -1.9168 0
M  V30 21749 H 2870.21 -6.6888 -2.96621 0
M  V30 21750 H 2871.39 -6.53617 -0.192223 0
M  V30 21751 H 2872.87 -8.36622 -0.589963 0
M  V30 21752 H 2871.18 -10.0291 -1.79807 0
M  V30 21753 H 2870.99 -10.2138 0.558219 0
M  V30 21754 H 2869.36 -9.6579 0.0444202 0
M  V30 21755 H 2872 -5.69556 -2.79637 0
M  V30 21756 P 2873.86 -8.4349 -2.47671 0
M  V30 21757 O 2875.28 -8.92593 -2.65 0
M  V30 21758 O 2873.5 -7.7568 -1.19296 0
M  V30 21759 O 2873.53 -7.36886 -3.63805 0
M  V30 21760 C 2873.37 -7.95349 -4.982 0
M  V30 21761 C 2873.91 -6.94612 -5.98974 0
M  V30 21762 O 2872.86 -6.10347 -6.11815 0
M  V30 21763 C 2875.13 -6.11426 -5.62335 0
M  V30 21764 O 2875.87 -5.6162 -6.70584 0
M  V30 21765 C 2874.46 -5.04409 -4.73308 0
M  V30 21766 O 2875.26 -3.85992 -4.75183 0
M  V30 21767 C 2873.12 -4.8728 -5.41006 0
M  V30 21768 H 2873.16 -4.02333 -6.11157 0
M  V30 21769 H 2874.34 -5.39466 -3.69543 0
M  V30 21770 H 2875.82 -6.71916 -5.01943 0
M  V30 21771 H 2874.13 -7.4649 -6.93477 0
M  V30 21772 H 2873.94 -8.89416 -5.05237 0
M  V30 21773 H 2872.31 -8.14876 -5.18409 0
M  V30 21774 H 2874.95 -3.27957 -5.4317 0
M  V30 21775 P 2876.81 -5.75688 -6.64379 0
M  V30 21776 O 2878.23 -6.07627 -7.05504 0
M  V30 21777 O 2876.45 -5.88047 -5.19722 0
M  V30 21778 O 2876.48 -4.2322 -7.04443 0
M  V30 21779 C 2876.32 -3.99743 -8.4911 0
M  V30 21780 C 2876.86 -2.60516 -8.79425 0
M  V30 21781 O 2875.81 -1.82684 -8.4467 0
M  V30 21782 C 2878.08 -2.10343 -8.03628 0
M  V30 21783 O 2878.82 -1.09919 -8.67766 0
M  V30 21784 C 2877.41 -1.68446 -6.70876 0
M  V30 21785 O 2878.21 -0.678137 -6.08433 0
M  V30 21786 C 2876.07 -1.17436 -7.18567 0
M  V30 21787 H 2876.11 -0.0804732 -7.31656 0
M  V30 21788 H 2877.29 -2.54037 -6.02537 0
M  V30 21789 H 2878.77 -2.93881 -7.85526 0
M  V30 21790 H 2877.08 -2.53065 -9.86973 0
M  V30 21791 H 2876.89 -4.75072 -9.05887 0
M  V30 21792 H 2875.26 -4.05244 -8.76668 0
M  V30 21793 H 2877.9 0.177647 -6.34251 0
M  V30 21794 P 2879.76 -1.25109 -8.70152 0
M  V30 21795 O 2881.18 -1.29758 -9.22115 0
M  V30 21796 O 2879.4 -2.13714 -7.55141 0
M  V30 21797 O 2879.43 0.248149 -8.21425 0
M  V30 21798 C 2879.27 1.22792 -9.30533 0
M  V30 21799 C 2879.81 2.56293 -8.80664 0
M  V30 21800 O 2878.76 3.02944 -8.09255 0
M  V30 21801 C 2881.03 2.57523 -7.89775 0
M  V30 21802 O 2881.77 3.7668 -7.89438 0
M  V30 21803 C 2880.36 2.20997 -6.55446 0
M  V30 21804 O 2881.16 2.71302 -5.48691 0
M  V30 21805 C 2879.03 2.89693 -6.67988 0
M  V30 21806 N 2877.98 2.08895 -6.07487 0
M  V30 21807 C 2878.15 0.753809 -5.94137 0
M  V30 21808 N 2877.12 0.146592 -5.38801 0
M  V30 21809 C 2876.24 1.1768 -5.13693 0
M  V30 21810 C 2874.97 1.17563 -4.52477 0
M  V30 21811 N 2874.37 0.057481 -4.04759 0
M  V30 21812 N 2874.41 2.41918 -4.45789 0
M  V30 21813 C 2875.01 3.56493 -4.90792 0
M  V30 21814 N 2876.19 3.61423 -5.47817 0
M  V30 21815 C 2876.76 2.37779 -5.5588 0
M  V30 21816 H 2879.06 3.8874 -6.19774 0
M  V30 21817 H 2880.24 1.12673 -6.44018 0
M  V30 21818 H 2881.72 1.7746 -8.19711 0
M  V30 21819 H 2880.03 3.21673 -9.66791 0
M  V30 21820 H 2879.84 0.901032 -10.1892 0
M  V30 21821 H 2878.21 1.33049 -9.56592 0
M  V30 21822 H 2874.47 4.49919 -4.77947 0
M  V30 21823 H 2879.05 0.233081 -6.26266 0
M  V30 21824 H 2873.44 0.119831 -3.60801 0
M  V30 21825 H 2874.85 -0.852272 -4.12385 0
M  V30 21826 H 2880.85 3.5779 -5.23879 0
M  V30 21827 P 2882.71 3.65191 -7.99657 0
M  V30 21828 O 2884.11 3.87414 -8.52829 0
M  V30 21829 O 2882.33 2.26932 -7.566 0
M  V30 21830 O 2882.38 4.64915 -6.77529 0
M  V30 21831 C 2882.22 6.06319 -7.16352 0
M  V30 21832 C 2882.76 6.91655 -6.02234 0
M  V30 21833 O 2881.71 6.92369 -5.17005 0
M  V30 21834 C 2883.98 6.43627 -5.25174 0
M  V30 21835 O 2884.72 7.43686 -4.60469 0
M  V30 21836 C 2883.31 5.40275 -4.31916 0
M  V30 21837 O 2884.11 5.25193 -3.14386 0
M  V30 21838 C 2881.98 6.04847 -4.05327 0
M  V30 21839 N 2880.93 5.04166 -3.98114 0
M  V30 21840 C 2879.9 5.2366 -3.09923 0
M  V30 21841 O 2879.94 6.23355 -2.34204 0
M  V30 21842 N 2878.89 4.34279 -3.05727 0
M  V30 21843 C 2878.93 3.26317 -3.84756 0
M  V30 21844 C 2880.03 3.02504 -4.72573 0
M  V30 21845 C 2881 3.94493 -4.76618 0
M  V30 21846 H 2882.01 6.62104 -3.11218 0
M  V30 21847 H 2883.19 4.42969 -4.80867 0
M  V30 21848 H 2884.67 5.93122 -5.93121 0
M  V30 21849 H 2882.98 7.93295 -6.39407 0
M  V30 21850 H 2882.79 6.26671 -8.0846 0
M  V30 21851 H 2881.16 6.29036 -7.32728 0
M  V30 21852 H 2880.08 2.12921 -5.34017 0
M  V30 21853 H 2881.84 3.80658 -5.44176 0
M  V30 21854 H 2883.9 5.93572 -2.52637 0
M  V30 21855 P 2885.66 7.39546 -4.75277 0
M  V30 21856 O 2887.08 7.84798 -5.01039 0
M  V30 21857 O 2885.3 5.9812 -5.08098 0
M  V30 21858 O 2885.33 7.57503 -3.1866 0
M  V30 21859 C 2885.17 8.97357 -2.74833 0
M  V30 21860 C 2885.71 9.07548 -1.32709 0
M  V30 21861 O 2884.66 8.62072 -0.606159 0
M  V30 21862 C 2886.93 8.25383 -0.938334 0
M  V30 21863 O 2887.67 8.74577 0.146954 0
M  V30 21864 C 2886.26 6.8802 -0.712559 0
M  V30 21865 O 2887.06 6.1189 0.194655 0
M  V30 21866 C 2884.93 7.27966 -0.139777 0
M  V30 21867 H 2884.96 7.25354 0.961601 0
M  V30 21868 H 2886.14 6.32557 -1.65702 0
M  V30 21869 H 2887.63 8.19355 -1.79097 0
M  V30 21870 H 2885.93 10.1294 -1.10029 0
M  V30 21871 H 2885.74 9.64276 -3.41316 0
M  V30 21872 H 2884.11 9.25417 -2.76357 0
M  V30 21873 H 2886.75 6.25267 1.07847 0
M  V30 21874 P 2888.61 8.791 -1.587e-11 0
M  V30 21875 O 2890.03 9.31096 0.027933 0
M  V30 21876 O 2888.25 7.77869 -1.04071 0
M  V30 21877 O 2888.29 8.09533 1.41463 0
M  V30 21878 C 2888.13 9.0349 2.53943 0
M  V30 21879 C 2888.67 8.35226 3.79016 0
M  V30 21880 O 2887.61 7.57992 4.15078 0
M  V30 21881 C 2889.88 7.45087 3.67298 0
M  V30 21882 O 2890.62 7.27796 4.85194 0
M  V30 21883 C 2889.21 6.17323 3.12027 0
M  V30 21884 O 2890.01 5.04231 3.47188 0
M  V30 21885 C 2887.88 6.19961 3.81809 0
M  V30 21886 H 2887.91 5.58218 4.73051 0
M  V30 21887 H 2889.09 6.21726 2.02589 0
M  V30 21888 H 2890.58 7.86112 2.9231 0
M  V30 21889 H 2888.88 9.11627 4.55076 0
M  V30 21890 H 2888.69 9.9573 2.34194 0
M  V30 21891 H 2887.06 9.2792 2.67832 0
M  V30 21892 H 2889.7 4.67702 4.28772 0
M  V30 21893 P 2891.56 7.39546 4.75277 0
M  V30 21894 O 2892.98 7.81945 5.05847 0
M  V30 21895 O 2891.2 7.1065 3.32998 0
M  V30 21896 O 2891.24 6.04542 5.56673 0
M  V30 21897 C 2891.08 6.22772 7.02095 0
M  V30 21898 C 2891.62 4.97671 7.70322 0
M  V30 21899 O 2890.56 4.13256 7.58987 0
M  V30 21900 C 2892.83 4.28231 7.11815 0
M  V30 21901 O 2893.57 3.49945 8.01648 0
M  V30 21902 C 2892.17 3.5063 5.96244 0
M  V30 21903 O 2892.96 2.36443 5.64589 0
M  V30 21904 C 2890.83 3.15122 6.56374 0
M  V30 21905 N 2889.78 3.22311 5.55692 0
M  V30 21906 C 2889.85 4.14382 4.59701 0
M  V30 21907 N 2888.8 4.04476 3.76958 0
M  V30 21908 C 2888.07 3.04892 4.26534 0
M  V30 21909 C 2886.76 2.57447 3.88189 0
M  V30 21910 O 2886.03 2.9785 2.96543 0
M  V30 21911 N 2886.33 1.55228 4.65922 0
M  V30 21912 C 2887.08 1.01152 5.73447 0
M  V30 21913 N 2886.48 -0.0472117 6.37783 0
M  V30 21914 N 2888.23 1.467 6.13813 0
M  V30 21915 C 2888.69 2.4931 5.38487 0
M  V30 21916 H 2890.86 2.13853 6.99751 0
M  V30 21917 H 2892.04 4.13438 5.06482 0
M  V30 21918 H 2893.53 5.02614 6.71414 0
M  V30 21919 H 2891.83 5.20877 8.75697 0
M  V30 21920 H 2891.64 7.11046 7.35349 0
M  V30 21921 H 2890.01 6.35815 7.26986 0
M  V30 21922 H 2885.44 1.15238 4.46468 0
M  V30 21923 H 2890.64 4.88312 4.49647 0
M  V30 21924 H 2885.57 -0.396382 6.05203 0
M  V30 21925 H 2886.95 -0.484997 7.18465 0
M  V30 21926 H 2892.65 1.61619 6.13468 0
M  V30 21927 P 2894.51 3.65191 7.99657 0
M  V30 21928 O 2895.93 3.8425 8.48115 0
M  V30 21929 O 2894.15 4.17805 6.64342 0
M  V30 21930 O 2894.19 2.07613 7.95143 0
M  V30 21931 C 2894.03 1.44328 9.27336 0
M  V30 21932 C 2894.57 0.0220036 9.17197 0
M  V30 21933 O 2893.51 -0.626867 8.61923 0
M  V30 21934 C 2895.78 -0.24586 8.30336 0
M  V30 21935 O 2896.52 -1.39011 8.63583 0
M  V30 21936 C 2895.12 -0.273849 6.91158 0
M  V30 21937 O 2895.91 -1.06348 6.02892 0
M  V30 21938 C 2893.78 -0.897649 7.22545 0
M  V30 21939 H 2893.81 -1.9841 7.04286 0
M  V30 21940 H 2894.99 0.739928 6.497 0
M  V30 21941 H 2896.48 0.60668 8.36503 0
M  V30 21942 H 2894.78 -0.352479 10.1829 0
M  V30 21943 H 2894.59 2.00611 10.0304 0
M  V30 21944 H 2892.96 1.41843 9.55327 0
M  V30 21945 H 2895.6 -1.95734 6.03555 0
M  V30 21946 P 2897.46 -1.25109 8.70152 0
M  V30 21947 O 2898.88 -1.35274 9.21221 0
M  V30 21948 O 2897.1 -0.0769065 7.84762 0
M  V30 21949 O 2897.14 -2.55232 7.81161 0
M  V30 21950 C 2896.98 -3.79939 8.58154 0
M  V30 21951 C 2897.52 -4.94023 7.72785 0
M  V30 21952 O 2896.46 -5.18726 6.91205 0
M  V30 21953 C 2898.73 -4.69597 6.85231 0
M  V30 21954 O 2899.47 -5.83832 6.51337 0
M  V30 21955 C 2898.07 -3.96706 5.66633 0
M  V30 21956 O 2898.86 -4.15414 4.49689 0
M  V30 21957 C 2896.73 -4.66153 5.59313 0
M  V30 21958 H 2896.76 -5.47679 4.85214 0
M  V30 21959 H 2897.94 -2.89008 5.86566 0
M  V30 21960 H 2899.43 -4.0121 7.36511 0
M  V30 21961 H 2897.73 -5.80182 8.37584 0
M  V30 21962 H 2897.54 -3.73517 9.52265 0
M  V30 21963 H 2895.91 -3.97163 8.80359 0
M  V30 21964 H 2898.55 -4.90969 4.01921 0
M  V30 21965 P 2900.41 -5.75688 6.64379 0
M  V30 21966 O 2901.83 -6.11849 7.01846 0
M  V30 21967 O 2900.05 -4.30744 6.56026 0
M  V30 21968 O 2900.09 -6.37042 5.19165 0
M  V30 21969 C 2899.93 -7.83578 5.16515 0
M  V30 21970 C 2900.47 -8.33398 3.83019 0
M  V30 21971 O 2899.41 -8.10074 3.01034 0
M  V30 21972 C 2901.69 -7.65514 3.2257 0
M  V30 21973 O 2902.42 -8.4329 2.32297 0
M  V30 21974 C 2901.02 -6.40075 2.62207 0
M  V30 21975 O 2901.82 -5.92589 1.53712 0
M  V30 21976 C 2899.68 -6.9454 2.18503 0
M  V30 21977 H 2899.71 -7.23063 1.12091 0
M  V30 21978 H 2900.89 -5.6025 3.37201 0
M  V30 21979 H 2902.38 -7.35707 4.02681 0
M  V30 21980 H 2900.68 -9.40912 3.9095 0
M  V30 21981 H 2900.49 -8.29056 5.99158 0
M  V30 21982 H 2898.86 -8.10073 5.25882 0
M  V30 21983 H 2901.5 -6.30324 0.726794 0
M  V30 21984 P 2903.36 -8.4349 2.47671 0
M  V30 21985 O 2904.78 -8.94167 2.5964 0
M  V30 21986 O 2903 -7.1704 3.19006 0
M  V30 21987 O 2903.04 -8.16596 0.923387 0
M  V30 21988 C 2902.88 -9.38437 0.108857 0
M  V30 21989 C 2903.42 -9.08175 -1.28353 0
M  V30 21990 O 2902.36 -8.44229 -1.84713 0
M  V30 21991 C 2904.64 -8.18386 -1.42505 0
M  V30 21992 O 2905.37 -8.3501 -2.60497 0
M  V30 21993 C 2903.97 -6.80225 -1.25468 0
M  V30 21994 O 2904.77 -5.81621 -1.91066 0
M  V30 21995 C 2902.63 -7.02416 -1.9168 0
M  V30 21996 H 2902.66 -6.6888 -2.96621 0
M  V30 21997 H 2903.84 -6.53617 -0.192223 0
M  V30 21998 H 2905.33 -8.36622 -0.589963 0
M  V30 21999 H 2903.63 -10.0291 -1.79807 0
M  V30 22000 H 2903.44 -10.2138 0.558219 0
M  V30 22001 H 2901.81 -9.6579 0.0444202 0
M  V30 22002 H 2904.45 -5.69556 -2.79637 0
M  V30 22003 P 2906.31 -8.4349 -2.47671 0
M  V30 22004 O 2907.73 -8.92689 -2.65029 0
M  V30 22005 O 2905.95 -7.7568 -1.19296 0
M  V30 22006 O 2905.99 -7.36886 -3.63805 0
M  V30 22007 C 2905.83 -7.95433 -4.98253 0
M  V30 22008 C 2906.37 -6.94612 -5.98974 0
M  V30 22009 O 2905.31 -6.10277 -6.11744 0
M  V30 22010 C 2907.59 -6.11426 -5.62335 0
M  V30 22011 O 2908.32 -5.6162 -6.70584 0
M  V30 22012 C 2906.92 -5.04409 -4.73308 0
M  V30 22013 O 2907.72 -3.86404 -4.74719 0
M  V30 22014 C 2905.58 -4.8728 -5.41006 0
M  V30 22015 N 2904.54 -4.65812 -4.42377 0
M  V30 22016 C 2904.71 -5.09132 -3.15382 0
M  V30 22017 N 2903.68 -4.84021 -2.3716 0
M  V30 22018 C 2902.79 -4.18386 -3.20441 0
M  V30 22019 C 2901.53 -3.6275 -2.94905 0
M  V30 22020 N 2900.96 -3.05008 -4.05243 0
M  V30 22021 C 2901.56 -2.98348 -5.28159 0
M  V30 22022 N 2902.74 -3.48171 -5.56333 0
M  V30 22023 C 2903.32 -4.06869 -4.47212 0
M  V30 22024 H 2906.8 -5.39013 -3.70026 0
M  V30 22025 H 2908.28 -6.71916 -5.01943 0
M  V30 22026 H 2906.58 -7.45796 -6.94223 0
M  V30 22027 H 2906.39 -8.89416 -5.05237 0
M  V30 22028 H 2904.76 -8.14876 -5.18409 0
M  V30 22029 H 2905.61 -5.59989 -2.81362 0
M  V30 22030 H 2907.4 -3.27906 -5.43085 0
M  V30 22031 P 2909.26 -5.75688 -6.64379 0
M  V30 22032 O 2910.68 -6.07627 -7.05504 0
M  V30 22033 O 2908.9 -5.88047 -5.19722 0
M  V30 22034 O 2908.94 -4.2322 -7.04443 0
M  V30 22035 C 2908.78 -3.99743 -8.4911 0
M  V30 22036 C 2909.32 -2.60516 -8.79425 0
M  V30 22037 O 2908.26 -1.82684 -8.4467 0
M  V30 22038 C 2910.54 -2.10343 -8.03628 0
M  V30 22039 O 2911.28 -1.09919 -8.67766 0
M  V30 22040 C 2909.87 -1.68446 -6.70876 0
M  V30 22041 O 2910.67 -0.678137 -6.08433 0
M  V30 22042 C 2908.53 -1.17436 -7.18567 0
M  V30 22043 H 2908.56 -0.0804732 -7.31656 0
M  V30 22044 H 2909.75 -2.54037 -6.02537 0
M  V30 22045 H 2911.23 -2.93881 -7.85526 0
M  V30 22046 H 2909.54 -2.53065 -9.86973 0
M  V30 22047 H 2909.35 -4.75072 -9.05887 0
M  V30 22048 H 2907.72 -4.05244 -8.76668 0
M  V30 22049 H 2910.36 0.177647 -6.34251 0
M  V30 22050 P 2912.21 -1.25109 -8.70152 0
M  V30 22051 O 2913.63 -1.29758 -9.22115 0
M  V30 22052 O 2911.85 -2.13714 -7.55141 0
M  V30 22053 O 2911.89 0.248149 -8.21425 0
M  V30 22054 C 2911.73 1.22792 -9.30533 0
M  V30 22055 C 2912.27 2.56293 -8.80664 0
M  V30 22056 O 2911.21 3.02944 -8.09255 0
M  V30 22057 C 2913.49 2.57523 -7.89775 0
M  V30 22058 O 2914.23 3.7668 -7.89438 0
M  V30 22059 C 2912.82 2.20997 -6.55446 0
M  V30 22060 O 2913.62 2.71302 -5.48691 0
M  V30 22061 C 2911.48 2.89693 -6.67988 0
M  V30 22062 N 2910.44 2.08895 -6.07487 0
M  V30 22063 C 2910.61 0.753809 -5.94137 0
M  V30 22064 N 2909.58 0.146592 -5.38801 0
M  V30 22065 C 2908.7 1.1768 -5.13693 0
M  V30 22066 C 2907.43 1.17563 -4.52477 0
M  V30 22067 N 2906.86 2.41918 -4.45789 0
M  V30 22068 C 2907.47 3.56493 -4.90792 0
M  V30 22069 N 2908.64 3.61423 -5.47817 0
M  V30 22070 C 2909.22 2.37779 -5.5588 0
M  V30 22071 H 2912.7 1.12673 -6.44018 0
M  V30 22072 H 2914.18 1.7746 -8.19711 0
M  V30 22073 H 2912.49 3.21673 -9.66791 0
M  V30 22074 H 2912.3 0.901032 -10.1892 0
M  V30 22075 H 2910.67 1.33049 -9.56592 0
M  V30 22076 H 2911.51 0.233081 -6.26266 0
M  V30 22077 H 2913.31 3.5779 -5.23879 0
M  V30 22078 P 2915.16 3.65191 -7.99657 0
M  V30 22079 O 2916.56 3.87414 -8.52829 0
M  V30 22080 O 2914.79 2.26932 -7.566 0
M  V30 22081 O 2914.84 4.64915 -6.77529 0
M  V30 22082 C 2914.68 6.06319 -7.16352 0
M  V30 22083 C 2915.22 6.91655 -6.02234 0
M  V30 22084 O 2914.16 6.92369 -5.17005 0
M  V30 22085 C 2916.44 6.43627 -5.25174 0
M  V30 22086 O 2917.18 7.43686 -4.60469 0
M  V30 22087 C 2915.77 5.40275 -4.31916 0
M  V30 22088 O 2916.57 5.25193 -3.14386 0
M  V30 22089 C 2914.43 6.04847 -4.05327 0
M  V30 22090 N 2913.39 5.04166 -3.98114 0
M  V30 22091 C 2912.35 5.2366 -3.09923 0
M  V30 22092 O 2912.39 6.23355 -2.34204 0
M  V30 22093 N 2911.34 4.34279 -3.05727 0
M  V30 22094 C 2911.39 3.26317 -3.84756 0
M  V30 22095 C 2912.49 3.02504 -4.72573 0
M  V30 22096 C 2913.45 3.94493 -4.76618 0
M  V30 22097 H 2914.46 6.62104 -3.11218 0
M  V30 22098 H 2915.65 4.42969 -4.80867 0
M  V30 22099 H 2917.13 5.93122 -5.93121 0
M  V30 22100 H 2915.44 7.93295 -6.39407 0
M  V30 22101 H 2915.25 6.26671 -8.0846 0
M  V30 22102 H 2913.62 6.29036 -7.32728 0
M  V30 22103 H 2912.53 2.12921 -5.34017 0
M  V30 22104 H 2914.3 3.80658 -5.44176 0
M  V30 22105 H 2916.35 5.93572 -2.52637 0
M  V30 22106 P 2918.11 7.39546 -4.75277 0
M  V30 22107 O 2919.54 7.84798 -5.01039 0
M  V30 22108 O 2917.75 5.9812 -5.08098 0
M  V30 22109 O 2917.79 7.57503 -3.1866 0
M  V30 22110 C 2917.63 8.97357 -2.74833 0
M  V30 22111 C 2918.17 9.07548 -1.32709 0
M  V30 22112 O 2917.11 8.62072 -0.606159 0
M  V30 22113 C 2919.39 8.25383 -0.938334 0
M  V30 22114 O 2920.13 8.74577 0.146954 0
M  V30 22115 C 2918.72 6.8802 -0.712559 0
M  V30 22116 O 2919.52 6.1189 0.194655 0
M  V30 22117 C 2917.38 7.27966 -0.139777 0
M  V30 22118 H 2917.41 7.25354 0.961601 0
M  V30 22119 H 2918.6 6.32557 -1.65702 0
M  V30 22120 H 2920.08 8.19355 -1.79097 0
M  V30 22121 H 2918.39 10.1294 -1.10029 0
M  V30 22122 H 2918.2 9.64276 -3.41316 0
M  V30 22123 H 2916.57 9.25417 -2.76357 0
M  V30 22124 H 2919.21 6.25267 1.07847 0
M  V30 22125 P 2921.06 8.791 -2.10567e-11 0
M  V30 22126 O 2922.49 9.31096 0.027933 0
M  V30 22127 O 2920.7 7.77869 -1.04071 0
M  V30 22128 O 2920.74 8.09533 1.41463 0
M  V30 22129 C 2920.58 9.0349 2.53943 0
M  V30 22130 C 2921.12 8.35226 3.79016 0
M  V30 22131 O 2920.07 7.57992 4.15078 0
M  V30 22132 C 2922.34 7.45087 3.67298 0
M  V30 22133 O 2923.08 7.27796 4.85194 0
M  V30 22134 C 2921.67 6.17323 3.12027 0
M  V30 22135 O 2922.47 5.04231 3.47188 0
M  V30 22136 C 2920.33 6.19961 3.81809 0
M  V30 22137 H 2920.37 5.58218 4.73051 0
M  V30 22138 H 2921.55 6.21726 2.02589 0
M  V30 22139 H 2923.03 7.86112 2.9231 0
M  V30 22140 H 2921.34 9.11627 4.55076 0
M  V30 22141 H 2921.15 9.9573 2.34194 0
M  V30 22142 H 2919.52 9.2792 2.67832 0
M  V30 22143 H 2922.16 4.67702 4.28772 0
M  V30 22144 P 2924.01 7.39546 4.75277 0
M  V30 22145 O 2925.44 7.81777 5.05738 0
M  V30 22146 O 2923.65 7.1065 3.32998 0
M  V30 22147 O 2923.69 6.04542 5.56673 0
M  V30 22148 C 2923.53 6.22772 7.02095 0
M  V30 22149 C 2924.07 4.97725 7.70406 0
M  V30 22150 O 2923.02 4.13256 7.58987 0
M  V30 22151 C 2925.29 4.28231 7.11815 0
M  V30 22152 O 2926.03 3.49945 8.01648 0
M  V30 22153 C 2924.62 3.5063 5.96244 0
M  V30 22154 O 2925.42 2.36482 5.64681 0
M  V30 22155 C 2923.28 3.15122 6.56374 0
M  V30 22156 H 2923.32 2.13853 6.99751 0
M  V30 22157 H 2924.5 4.13501 5.06559 0
M  V30 22158 H 2925.98 5.03285 6.70911 0
M  V30 22159 H 2924.29 5.20877 8.75697 0
M  V30 22160 H 2924.1 7.11046 7.35349 0
M  V30 22161 H 2922.47 6.35815 7.26986 0
M  V30 22162 H 2925.11 1.61644 6.13565 0
M  V30 22163 P 2926.97 3.65191 7.99657 0
M  V30 22164 O 2928.39 3.8425 8.48115 0
M  V30 22165 O 2926.61 4.17805 6.64342 0
M  V30 22166 O 2926.64 2.07613 7.95143 0
M  V30 22167 C 2926.48 1.44328 9.27336 0
M  V30 22168 C 2927.02 0.0220036 9.17197 0
M  V30 22169 O 2925.97 -0.626867 8.61923 0
M  V30 22170 C 2928.24 -0.24586 8.30336 0
M  V30 22171 O 2928.98 -1.39011 8.63583 0
M  V30 22172 C 2927.57 -0.273849 6.91158 0
M  V30 22173 O 2928.37 -1.06348 6.02892 0
M  V30 22174 C 2926.23 -0.897649 7.22545 0
M  V30 22175 H 2926.27 -1.9841 7.04286 0
M  V30 22176 H 2927.45 0.739928 6.497 0
M  V30 22177 H 2928.93 0.60668 8.36503 0
M  V30 22178 H 2927.24 -0.352479 10.1829 0
M  V30 22179 H 2927.05 2.00611 10.0304 0
M  V30 22180 H 2925.42 1.41843 9.55327 0
M  V30 22181 H 2928.06 -1.95734 6.03555 0
M  V30 22182 P 2929.92 -1.25109 8.70152 0
M  V30 22183 O 2931.34 -1.35274 9.21221 0
M  V30 22184 O 2929.56 -0.0769065 7.84762 0
M  V30 22185 O 2929.59 -2.55232 7.81161 0
M  V30 22186 C 2929.43 -3.79939 8.58154 0
M  V30 22187 C 2929.97 -4.94023 7.72785 0
M  V30 22188 O 2928.92 -5.18726 6.91205 0
M  V30 22189 C 2931.19 -4.69597 6.85231 0
M  V30 22190 O 2931.93 -5.83832 6.51337 0
M  V30 22191 C 2930.52 -3.96706 5.66633 0
M  V30 22192 O 2931.32 -4.15414 4.49689 0
M  V30 22193 C 2929.19 -4.66153 5.59313 0
M  V30 22194 H 2929.22 -5.47679 4.85214 0
M  V30 22195 H 2930.4 -2.89008 5.86566 0
M  V30 22196 H 2931.88 -4.0121 7.36511 0
M  V30 22197 H 2930.19 -5.80182 8.37584 0
M  V30 22198 H 2930 -3.73517 9.52265 0
M  V30 22199 H 2928.37 -3.97163 8.80359 0
M  V30 22200 H 2931.01 -4.90969 4.01921 0
M  V30 22201 P 2932.87 -5.75688 6.64379 0
M  V30 22202 O 2934.29 -6.11849 7.01846 0
M  V30 22203 O 2932.51 -4.30744 6.56026 0
M  V30 22204 O 2932.54 -6.37042 5.19165 0
M  V30 22205 C 2932.38 -7.83578 5.16515 0
M  V30 22206 C 2932.92 -8.33398 3.83019 0
M  V30 22207 O 2931.87 -8.10074 3.01034 0
M  V30 22208 C 2934.14 -7.65514 3.2257 0
M  V30 22209 O 2934.88 -8.4329 2.32297 0
M  V30 22210 C 2933.47 -6.40075 2.62207 0
M  V30 22211 O 2934.27 -5.92589 1.53712 0
M  V30 22212 C 2932.14 -6.9454 2.18503 0
M  V30 22213 H 2932.17 -7.23063 1.12091 0
M  V30 22214 H 2933.35 -5.6025 3.37201 0
M  V30 22215 H 2934.83 -7.35707 4.02681 0
M  V30 22216 H 2933.14 -9.40912 3.9095 0
M  V30 22217 H 2932.95 -8.29056 5.99158 0
M  V30 22218 H 2931.32 -8.10073 5.25882 0
M  V30 22219 H 2933.96 -6.30324 0.726794 0
M  V30 22220 P 2935.82 -8.4349 2.47671 0
M  V30 22221 O 2937.24 -8.94167 2.5964 0
M  V30 22222 O 2935.46 -7.1704 3.19006 0
M  V30 22223 O 2935.49 -8.16596 0.923387 0
M  V30 22224 C 2935.33 -9.38437 0.108857 0
M  V30 22225 C 2935.87 -9.08175 -1.28353 0
M  V30 22226 O 2934.82 -8.44229 -1.84713 0
M  V30 22227 C 2937.09 -8.18386 -1.42505 0
M  V30 22228 O 2937.83 -8.3501 -2.60497 0
M  V30 22229 C 2936.42 -6.80225 -1.25468 0
M  V30 22230 O 2937.22 -5.81621 -1.91066 0
M  V30 22231 C 2935.09 -7.02416 -1.9168 0
M  V30 22232 H 2935.12 -6.6888 -2.96621 0
M  V30 22233 H 2936.3 -6.53617 -0.192223 0
M  V30 22234 H 2937.79 -8.36622 -0.589963 0
M  V30 22235 H 2936.09 -10.0291 -1.79807 0
M  V30 22236 H 2935.9 -10.2138 0.558219 0
M  V30 22237 H 2934.27 -9.6579 0.0444202 0
M  V30 22238 H 2936.91 -5.69556 -2.79637 0
M  V30 22239 P 2938.77 -8.4349 -2.47671 0
M  V30 22240 O 2940.19 -8.92593 -2.65 0
M  V30 22241 O 2938.41 -7.7568 -1.19296 0
M  V30 22242 O 2938.44 -7.36886 -3.63805 0
M  V30 22243 C 2938.28 -7.95349 -4.982 0
M  V30 22244 C 2938.82 -6.94612 -5.98974 0
M  V30 22245 O 2937.77 -6.10347 -6.11815 0
M  V30 22246 C 2940.04 -6.11426 -5.62335 0
M  V30 22247 O 2940.78 -5.6162 -6.70584 0
M  V30 22248 C 2939.37 -5.04409 -4.73308 0
M  V30 22249 O 2940.17 -3.85992 -4.75183 0
M  V30 22250 C 2938.04 -4.8728 -5.41006 0
M  V30 22251 H 2938.07 -4.02333 -6.11157 0
M  V30 22252 H 2939.25 -5.39466 -3.69543 0
M  V30 22253 H 2940.74 -6.71916 -5.01943 0
M  V30 22254 H 2939.04 -7.4649 -6.93477 0
M  V30 22255 H 2938.85 -8.89416 -5.05237 0
M  V30 22256 H 2937.22 -8.14876 -5.18409 0
M  V30 22257 H 2939.86 -3.27957 -5.4317 0
M  V30 22258 P 2941.72 -5.75688 -6.64379 0
M  V30 22259 O 2943.14 -6.07627 -7.05504 0
M  V30 22260 O 2941.36 -5.88047 -5.19722 0
M  V30 22261 O 2941.4 -4.2322 -7.04443 0
M  V30 22262 C 2941.24 -3.99743 -8.4911 0
M  V30 22263 C 2941.78 -2.60516 -8.79425 0
M  V30 22264 O 2940.72 -1.82684 -8.4467 0
M  V30 22265 C 2942.99 -2.10343 -8.03628 0
M  V30 22266 O 2943.73 -1.09919 -8.67766 0
M  V30 22267 C 2942.32 -1.68446 -6.70876 0
M  V30 22268 O 2943.12 -0.678137 -6.08433 0
M  V30 22269 C 2940.99 -1.17436 -7.18567 0
M  V30 22270 H 2941.02 -0.0804732 -7.31656 0
M  V30 22271 H 2942.2 -2.54037 -6.02537 0
M  V30 22272 H 2943.69 -2.93881 -7.85526 0
M  V30 22273 H 2941.99 -2.53065 -9.86973 0
M  V30 22274 H 2941.8 -4.75072 -9.05887 0
M  V30 22275 H 2940.17 -4.05244 -8.76668 0
M  V30 22276 H 2942.81 0.177647 -6.34251 0
M  V30 22277 P 2944.67 -1.25109 -8.70152 0
M  V30 22278 O 2946.09 -1.29744 -9.22016 0
M  V30 22279 O 2944.31 -2.13714 -7.55141 0
M  V30 22280 O 2944.35 0.248149 -8.21425 0
M  V30 22281 C 2944.19 1.22779 -9.30434 0
M  V30 22282 C 2944.73 2.56293 -8.80664 0
M  V30 22283 O 2943.67 3.02979 -8.09349 0
M  V30 22284 C 2945.94 2.57523 -7.89775 0
M  V30 22285 O 2946.68 3.7668 -7.89438 0
M  V30 22286 C 2945.27 2.20997 -6.55446 0
M  V30 22287 O 2946.07 2.71895 -5.48509 0
M  V30 22288 C 2943.94 2.89693 -6.67988 0
M  V30 22289 H 2943.97 3.88793 -6.19859 0
M  V30 22290 H 2945.15 1.12046 -6.44229 0
M  V30 22291 H 2946.64 1.7746 -8.19711 0
M  V30 22292 H 2944.94 3.20706 -9.67112 0
M  V30 22293 H 2944.75 0.901032 -10.1892 0
M  V30 22294 H 2943.12 1.33049 -9.56592 0
M  V30 22295 H 2945.76 3.57847 -5.23962 0
M  V30 22296 P 2947.62 3.65191 -7.99657 0
M  V30 22297 O 2949.04 3.89332 -8.45794 0
M  V30 22298 O 2947.26 2.28472 -7.50807 0
M  V30 22299 O 2947.3 4.64972 -6.77611 0
M  V30 22300 C 2947.14 6.06319 -7.16352 0
M  V30 22301 C 2947.68 6.91731 -6.02299 0
M  V30 22302 O 2946.62 6.92449 -5.17064 0
M  V30 22303 C 2948.89 6.43627 -5.25174 0
M  V30 22304 O 2949.63 7.43686 -4.60469 0
M  V30 22305 C 2948.23 5.40275 -4.31916 0
M  V30 22306 O 2949.02 5.25279 -3.14438 0
M  V30 22307 C 2946.89 6.04847 -4.05327 0
M  V30 22308 H 2946.92 6.62195 -3.11261 0
M  V30 22309 H 2948.1 4.42556 -4.81383 0
M  V30 22310 H 2949.59 5.92458 -5.93643 0
M  V30 22311 H 2947.89 7.92655 -6.402 0
M  V30 22312 H 2947.7 6.26671 -8.0846 0
M  V30 22313 H 2946.07 6.29101 -7.32804 0
M  V30 22314 H 2948.71 5.84315 -2.47318 0
M  V30 22315 P 2950.57 7.39546 -4.75277 0
M  V30 22316 O 2951.99 7.84798 -5.01039 0
M  V30 22317 O 2950.21 5.9812 -5.08098 0
M  V30 22318 O 2950.25 7.57503 -3.1866 0
M  V30 22319 C 2950.09 8.97357 -2.74833 0
M  V30 22320 C 2950.63 9.07548 -1.32709 0
M  V30 22321 O 2949.57 8.62072 -0.606159 0
M  V30 22322 C 2951.84 8.25383 -0.938334 0
M  V30 22323 O 2952.58 8.74577 0.146954 0
M  V30 22324 C 2951.18 6.8802 -0.712559 0
M  V30 22325 O 2951.97 6.1189 0.194655 0
M  V30 22326 C 2949.84 7.27966 -0.139777 0
M  V30 22327 H 2949.87 7.25354 0.961601 0
M  V30 22328 H 2951.05 6.32557 -1.65702 0
M  V30 22329 H 2952.54 8.19355 -1.79097 0
M  V30 22330 H 2950.84 10.1294 -1.10029 0
M  V30 22331 H 2950.65 9.64276 -3.41316 0
M  V30 22332 H 2949.02 9.25417 -2.76357 0
M  V30 22333 H 2951.66 6.25267 1.07847 0
M  V30 22334 P 2953.52 8.791 -2.62433e-11 0
M  V30 22335 O 2954.94 9.31096 0.027933 0
M  V30 22336 O 2953.16 7.77869 -1.04071 0
M  V30 22337 O 2953.2 8.09533 1.41463 0
M  V30 22338 C 2953.04 9.0349 2.53943 0
M  V30 22339 C 2953.58 8.35226 3.79016 0
M  V30 22340 O 2952.52 7.57992 4.15078 0
M  V30 22341 C 2954.8 7.45087 3.67298 0
M  V30 22342 O 2955.53 7.27796 4.85194 0
M  V30 22343 C 2954.13 6.17323 3.12027 0
M  V30 22344 O 2954.93 5.04231 3.47188 0
M  V30 22345 C 2952.79 6.19961 3.81809 0
M  V30 22346 H 2952.82 5.58218 4.73051 0
M  V30 22347 H 2954 6.21726 2.02589 0
M  V30 22348 H 2955.49 7.86112 2.9231 0
M  V30 22349 H 2953.79 9.11627 4.55076 0
M  V30 22350 H 2953.6 9.9573 2.34194 0
M  V30 22351 H 2951.97 9.2792 2.67832 0
M  V30 22352 H 2954.61 4.67702 4.28772 0
M  V30 22353 P 2956.47 7.39546 4.75277 0
M  V30 22354 O 2957.89 7.81777 5.05738 0
M  V30 22355 O 2956.11 7.1065 3.32998 0
M  V30 22356 O 2956.15 6.04542 5.56673 0
M  V30 22357 C 2955.99 6.22772 7.02095 0
M  V30 22358 C 2956.53 4.97725 7.70406 0
M  V30 22359 O 2955.47 4.13256 7.58987 0
M  V30 22360 C 2957.75 4.28231 7.11815 0
M  V30 22361 O 2958.48 3.49945 8.01648 0
M  V30 22362 C 2957.08 3.5063 5.96244 0
M  V30 22363 O 2957.88 2.36482 5.64681 0
M  V30 22364 C 2955.74 3.15122 6.56374 0
M  V30 22365 H 2955.77 2.13853 6.99751 0
M  V30 22366 H 2956.96 4.13501 5.06559 0
M  V30 22367 H 2958.44 5.03285 6.70911 0
M  V30 22368 H 2956.75 5.20877 8.75697 0
M  V30 22369 H 2956.56 7.11046 7.35349 0
M  V30 22370 H 2954.93 6.35815 7.26986 0
M  V30 22371 H 2957.56 1.61644 6.13565 0
M  V30 22372 P 2959.42 3.65191 7.99657 0
M  V30 22373 O 2960.84 3.8425 8.48115 0
M  V30 22374 O 2959.06 4.17805 6.64342 0
M  V30 22375 O 2959.1 2.07613 7.95143 0
M  V30 22376 C 2958.94 1.44328 9.27336 0
M  V30 22377 C 2959.48 0.0220036 9.17197 0
M  V30 22378 O 2958.42 -0.626867 8.61923 0
M  V30 22379 C 2960.7 -0.24586 8.30336 0
M  V30 22380 O 2961.43 -1.39011 8.63583 0
M  V30 22381 C 2960.03 -0.273849 6.91158 0
M  V30 22382 O 2960.83 -1.06348 6.02892 0
M  V30 22383 C 2958.69 -0.897649 7.22545 0
M  V30 22384 H 2958.72 -1.9841 7.04286 0
M  V30 22385 H 2959.91 0.739928 6.497 0
M  V30 22386 H 2961.39 0.60668 8.36503 0
M  V30 22387 H 2959.7 -0.352479 10.1829 0
M  V30 22388 H 2959.51 2.00611 10.0304 0
M  V30 22389 H 2957.88 1.41843 9.55327 0
M  V30 22390 H 2960.51 -1.95734 6.03555 0
M  V30 22391 P 2962.37 -1.25109 8.70152 0
M  V30 22392 O 2963.79 -1.35274 9.21221 0
M  V30 22393 O 2962.01 -0.0769065 7.84762 0
M  V30 22394 O 2962.05 -2.55232 7.81161 0
M  V30 22395 C 2961.89 -3.79939 8.58154 0
M  V30 22396 C 2962.43 -4.94023 7.72785 0
M  V30 22397 O 2961.37 -5.18726 6.91205 0
M  V30 22398 C 2963.65 -4.69597 6.85231 0
M  V30 22399 O 2964.39 -5.83832 6.51337 0
M  V30 22400 C 2962.98 -3.96706 5.66633 0
M  V30 22401 O 2963.78 -4.15414 4.49689 0
M  V30 22402 C 2961.64 -4.66153 5.59313 0
M  V30 22403 H 2961.67 -5.47679 4.85214 0
M  V30 22404 H 2962.86 -2.89008 5.86566 0
M  V30 22405 H 2964.34 -4.0121 7.36511 0
M  V30 22406 H 2962.65 -5.80182 8.37584 0
M  V30 22407 H 2962.46 -3.73517 9.52265 0
M  V30 22408 H 2960.83 -3.97163 8.80359 0
M  V30 22409 H 2963.47 -4.90969 4.01921 0
M  V30 22410 P 2965.32 -5.75688 6.64379 0
M  V30 22411 O 2966.74 -6.11915 7.01921 0
M  V30 22412 O 2964.96 -4.30744 6.56026 0
M  V30 22413 O 2965 -6.37042 5.19165 0
M  V30 22414 C 2964.84 -7.83662 5.1657 0
M  V30 22415 C 2965.38 -8.33398 3.83019 0
M  V30 22416 O 2964.32 -8.0998 3.00999 0
M  V30 22417 C 2966.6 -7.65514 3.2257 0
M  V30 22418 O 2967.34 -8.4329 2.32297 0
M  V30 22419 C 2965.93 -6.40075 2.62207 0
M  V30 22420 O 2966.73 -5.92338 1.5428 0
M  V30 22421 C 2964.59 -6.9454 2.18503 0
M  V30 22422 N 2963.55 -5.95905 2.39948 0
M  V30 22423 C 2963.72 -4.98383 3.32108 0
M  V30 22424 N 2962.69 -4.16798 3.41761 0
M  V30 22425 C 2961.81 -4.65287 2.47461 0
M  V30 22426 C 2960.54 -4.18946 2.07461 0
M  V30 22427 N 2959.94 -3.09661 2.60717 0
M  V30 22428 N 2959.97 -4.95327 1.09101 0
M  V30 22429 C 2960.58 -6.04369 0.519812 0
M  V30 22430 N 2961.75 -6.50694 0.855982 0
M  V30 22431 C 2962.33 -5.75818 1.84322 0
M  V30 22432 H 2964.62 -7.22964 1.12076 0
M  V30 22433 H 2965.81 -5.60502 3.36589 0
M  V30 22434 H 2967.29 -7.35707 4.02681 0
M  V30 22435 H 2965.6 -9.41302 3.90009 0
M  V30 22436 H 2965.41 -8.29056 5.99158 0
M  V30 22437 H 2963.78 -8.10073 5.25882 0
M  V30 22438 H 2960.04 -6.55843 -0.270373 0
M  V30 22439 H 2964.62 -4.88564 3.92502 0
M  V30 22440 H 2959.01 -2.80523 2.27218 0
M  V30 22441 H 2960.41 -2.55848 3.34465 0
M  V30 22442 H 2966.42 -6.30224 0.72668 0
M  V30 22443 P 2968.27 -8.4349 2.47671 0
M  V30 22444 O 2969.7 -8.94167 2.5964 0
M  V30 22445 O 2967.91 -7.1704 3.19006 0
M  V30 22446 O 2967.95 -8.16596 0.923387 0
M  V30 22447 C 2967.79 -9.38437 0.108857 0
M  V30 22448 C 2968.33 -9.08175 -1.28353 0
M  V30 22449 O 2967.27 -8.44229 -1.84713 0
M  V30 22450 C 2969.55 -8.18386 -1.42505 0
M  V30 22451 O 2970.29 -8.3501 -2.60497 0
M  V30 22452 C 2968.88 -6.80225 -1.25468 0
M  V30 22453 O 2969.68 -5.81621 -1.91066 0
M  V30 22454 C 2967.54 -7.02416 -1.9168 0
M  V30 22455 H 2967.57 -6.6888 -2.96621 0
M  V30 22456 H 2968.76 -6.53617 -0.192223 0
M  V30 22457 H 2970.24 -8.36622 -0.589963 0
M  V30 22458 H 2968.55 -10.0291 -1.79807 0
M  V30 22459 H 2968.36 -10.2138 0.558219 0
M  V30 22460 H 2966.73 -9.6579 0.0444202 0
M  V30 22461 H 2969.37 -5.69556 -2.79637 0
M  V30 22462 P 2971.22 -8.4349 -2.47671 0
M  V30 22463 O 2972.65 -8.92593 -2.65 0
M  V30 22464 O 2970.86 -7.7568 -1.19296 0
M  V30 22465 O 2970.9 -7.36886 -3.63805 0
M  V30 22466 C 2970.74 -7.95349 -4.982 0
M  V30 22467 C 2971.28 -6.94612 -5.98974 0
M  V30 22468 O 2970.22 -6.10347 -6.11815 0
M  V30 22469 C 2972.5 -6.11426 -5.62335 0
M  V30 22470 O 2973.24 -5.6162 -6.70584 0
M  V30 22471 C 2971.83 -5.04409 -4.73308 0
M  V30 22472 O 2972.63 -3.85992 -4.75183 0
M  V30 22473 C 2970.49 -4.8728 -5.41006 0
M  V30 22474 H 2970.52 -4.02333 -6.11157 0
M  V30 22475 H 2971.71 -5.39466 -3.69543 0
M  V30 22476 H 2973.19 -6.71916 -5.01943 0
M  V30 22477 H 2971.5 -7.4649 -6.93477 0
M  V30 22478 H 2971.31 -8.89416 -5.05237 0
M  V30 22479 H 2969.68 -8.14876 -5.18409 0
M  V30 22480 H 2972.32 -3.27957 -5.4317 0
M  V30 22481 P 2974.17 -5.75688 -6.64379 0
M  V30 22482 O 2975.6 -6.07627 -7.05504 0
M  V30 22483 O 2973.81 -5.88047 -5.19722 0
M  V30 22484 O 2973.85 -4.2322 -7.04443 0
M  V30 22485 C 2973.69 -3.99743 -8.4911 0
M  V30 22486 C 2974.23 -2.60516 -8.79425 0
M  V30 22487 O 2973.18 -1.82684 -8.4467 0
M  V30 22488 C 2975.45 -2.10343 -8.03628 0
M  V30 22489 O 2976.19 -1.09919 -8.67766 0
M  V30 22490 C 2974.78 -1.68446 -6.70876 0
M  V30 22491 O 2975.58 -0.678137 -6.08433 0
M  V30 22492 C 2973.44 -1.17436 -7.18567 0
M  V30 22493 H 2973.48 -0.0804732 -7.31656 0
M  V30 22494 H 2974.66 -2.54037 -6.02537 0
M  V30 22495 H 2976.14 -2.93881 -7.85526 0
M  V30 22496 H 2974.45 -2.53065 -9.86973 0
M  V30 22497 H 2974.26 -4.75072 -9.05887 0
M  V30 22498 H 2972.63 -4.05244 -8.76668 0
M  V30 22499 H 2975.27 0.177647 -6.34251 0
M  V30 22500 P 2977.13 -1.25109 -8.70152 0
M  V30 22501 O 2978.55 -1.29744 -9.22016 0
M  V30 22502 O 2976.77 -2.13714 -7.55141 0
M  V30 22503 O 2976.8 0.248149 -8.21425 0
M  V30 22504 C 2976.64 1.22779 -9.30434 0
M  V30 22505 C 2977.18 2.56293 -8.80664 0
M  V30 22506 O 2976.13 3.02979 -8.09349 0
M  V30 22507 C 2978.4 2.57523 -7.89775 0
M  V30 22508 O 2979.14 3.7668 -7.89438 0
M  V30 22509 C 2977.73 2.20997 -6.55446 0
M  V30 22510 O 2978.53 2.71895 -5.48509 0
M  V30 22511 C 2976.39 2.89693 -6.67988 0
M  V30 22512 H 2976.43 3.88793 -6.19859 0
M  V30 22513 H 2977.61 1.12046 -6.44229 0
M  V30 22514 H 2979.09 1.7746 -8.19711 0
M  V30 22515 H 2977.4 3.20706 -9.67112 0
M  V30 22516 H 2977.21 0.901032 -10.1892 0
M  V30 22517 H 2975.58 1.33049 -9.56592 0
M  V30 22518 H 2978.22 3.57847 -5.23962 0
M  V30 22519 P 2980.08 3.65191 -7.99657 0
M  V30 22520 O 2981.5 3.89332 -8.45794 0
M  V30 22521 O 2979.72 2.28472 -7.50807 0
M  V30 22522 O 2979.75 4.64972 -6.77611 0
M  V30 22523 C 2979.59 6.06319 -7.16352 0
M  V30 22524 C 2980.13 6.91731 -6.02299 0
M  V30 22525 O 2979.08 6.92449 -5.17064 0
M  V30 22526 C 2981.35 6.43627 -5.25174 0
M  V30 22527 O 2982.09 7.43686 -4.60469 0
M  V30 22528 C 2980.68 5.40275 -4.31916 0
M  V30 22529 O 2981.48 5.25279 -3.14438 0
M  V30 22530 C 2979.34 6.04847 -4.05327 0
M  V30 22531 H 2979.38 6.62195 -3.11261 0
M  V30 22532 H 2980.56 4.42556 -4.81383 0
M  V30 22533 H 2982.04 5.92458 -5.93643 0
M  V30 22534 H 2980.35 7.92655 -6.402 0
M  V30 22535 H 2980.16 6.26671 -8.0846 0
M  V30 22536 H 2978.53 6.29101 -7.32804 0
M  V30 22537 H 2981.17 5.84315 -2.47318 0
M  V30 22538 P 2983.03 7.39546 -4.75277 0
M  V30 22539 O 2984.45 7.84798 -5.01039 0
M  V30 22540 O 2982.67 5.9812 -5.08098 0
M  V30 22541 O 2982.7 7.57503 -3.1866 0
M  V30 22542 C 2982.54 8.97357 -2.74833 0
M  V30 22543 C 2983.08 9.07548 -1.32709 0
M  V30 22544 O 2982.03 8.62072 -0.606159 0
M  V30 22545 C 2984.3 8.25383 -0.938334 0
M  V30 22546 O 2985.04 8.74577 0.146954 0
M  V30 22547 C 2983.63 6.8802 -0.712559 0
M  V30 22548 O 2984.43 6.1189 0.194655 0
M  V30 22549 C 2982.3 7.27966 -0.139777 0
M  V30 22550 H 2982.33 7.25354 0.961601 0
M  V30 22551 H 2983.51 6.32557 -1.65702 0
M  V30 22552 H 2984.99 8.19355 -1.79097 0
M  V30 22553 H 2983.3 10.1294 -1.10029 0
M  V30 22554 H 2983.11 9.64276 -3.41316 0
M  V30 22555 H 2981.48 9.25417 -2.76357 0
M  V30 22556 H 2984.12 6.25267 1.07847 0
M  V30 22557 P 2985.98 8.791 -3.143e-11 0
M  V30 22558 O 2987.4 9.31096 0.027933 0
M  V30 22559 O 2985.62 7.77869 -1.04071 0
M  V30 22560 O 2985.65 8.09533 1.41463 0
M  V30 22561 C 2985.49 9.0349 2.53943 0
M  V30 22562 C 2986.03 8.35226 3.79016 0
M  V30 22563 O 2984.98 7.57992 4.15078 0
M  V30 22564 C 2987.25 7.45087 3.67298 0
M  V30 22565 O 2987.99 7.27796 4.85194 0
M  V30 22566 C 2986.58 6.17323 3.12027 0
M  V30 22567 O 2987.38 5.04231 3.47188 0
M  V30 22568 C 2985.25 6.19961 3.81809 0
M  V30 22569 H 2985.28 5.58218 4.73051 0
M  V30 22570 H 2986.46 6.21726 2.02589 0
M  V30 22571 H 2987.94 7.86112 2.9231 0
M  V30 22572 H 2986.25 9.11627 4.55076 0
M  V30 22573 H 2986.06 9.9573 2.34194 0
M  V30 22574 H 2984.43 9.2792 2.67832 0
M  V30 22575 H 2987.07 4.67702 4.28772 0
M  V30 22576 P 2988.93 7.39546 4.75277 0
M  V30 22577 O 2990.35 7.81777 5.05738 0
M  V30 22578 O 2988.57 7.1065 3.32998 0
M  V30 22579 O 2988.6 6.04542 5.56673 0
M  V30 22580 C 2988.44 6.22772 7.02095 0
M  V30 22581 C 2988.98 4.97725 7.70406 0
M  V30 22582 O 2987.93 4.13256 7.58987 0
M  V30 22583 C 2990.2 4.28231 7.11815 0
M  V30 22584 O 2990.94 3.49945 8.01648 0
M  V30 22585 C 2989.53 3.5063 5.96244 0
M  V30 22586 O 2990.33 2.36482 5.64681 0
M  V30 22587 C 2988.2 3.15122 6.56374 0
M  V30 22588 H 2988.23 2.13853 6.99751 0
M  V30 22589 H 2989.41 4.13501 5.06559 0
M  V30 22590 H 2990.9 5.03285 6.70911 0
M  V30 22591 H 2989.2 5.20877 8.75697 0
M  V30 22592 H 2989.01 7.11046 7.35349 0
M  V30 22593 H 2987.38 6.35815 7.26986 0
M  V30 22594 H 2990.02 1.61644 6.13565 0
M  V30 22595 P 2991.88 3.65191 7.99657 0
M  V30 22596 O 2993.28 3.90823 8.51272 0
M  V30 22597 O 2991.5 4.23191 6.66972 0
M  V30 22598 O 2991.55 2.07587 7.95046 0
M  V30 22599 C 2991.39 1.44328 9.27336 0
M  V30 22600 C 2991.93 0.0220012 9.17097 0
M  V30 22601 O 2990.88 -0.626794 8.61824 0
M  V30 22602 C 2993.15 -0.24586 8.30336 0
M  V30 22603 O 2993.89 -1.39011 8.63583 0
M  V30 22604 C 2992.48 -0.273849 6.91158 0
M  V30 22605 O 2993.28 -1.06331 6.02794 0
M  V30 22606 C 2991.15 -0.897649 7.22545 0
M  V30 22607 N 2990.1 -0.292839 6.41732 0
M  V30 22608 C 2989.07 -1.08701 5.98712 0
M  V30 22609 O 2989.11 -2.31211 6.24471 0
M  V30 22610 N 2988.06 -0.533391 5.28415 0
M  V30 22611 C 2988.1 0.770866 4.98576 0
M  V30 22612 C 2989.2 1.59049 5.38086 0
M  V30 22613 C 2990.17 1.01866 6.10256 0
M  V30 22614 H 2991.18 -1.98383 7.04189 0
M  V30 22615 H 2992.36 0.733318 6.49674 0
M  V30 22616 H 2993.85 0.598386 8.36663 0
M  V30 22617 H 2992.15 -0.362662 10.1825 0
M  V30 22618 H 2991.96 2.00611 10.0304 0
M  V30 22619 H 2990.33 1.41828 9.55228 0
M  V30 22620 H 2989.25 2.6415 5.10622 0
M  V30 22621 H 2991.01 1.61983 6.44042 0
M  V30 22622 H 2993.07 -1.97777 6.14035 0
M  V30 22623 P 2994.83 -1.25109 8.70152 0
M  V30 22624 O 2996.25 -1.35274 9.21221 0
M  V30 22625 O 2994.47 -0.0769065 7.84762 0
M  V30 22626 O 2994.51 -2.55232 7.81161 0
M  V30 22627 C 2994.35 -3.79939 8.58154 0
M  V30 22628 C 2994.89 -4.94023 7.72785 0
M  V30 22629 O 2993.83 -5.18726 6.91205 0
M  V30 22630 C 2996.1 -4.69597 6.85231 0
M  V30 22631 O 2996.84 -5.83832 6.51337 0
M  V30 22632 C 2995.43 -3.96706 5.66633 0
M  V30 22633 O 2996.23 -4.15414 4.49689 0
M  V30 22634 C 2994.1 -4.66153 5.59313 0
M  V30 22635 H 2994.13 -5.47679 4.85214 0
M  V30 22636 H 2995.31 -2.89008 5.86566 0
M  V30 22637 H 2996.8 -4.0121 7.36511 0
M  V30 22638 H 2995.1 -5.80182 8.37584 0
M  V30 22639 H 2994.91 -3.73517 9.52265 0
M  V30 22640 H 2993.28 -3.97163 8.80359 0
M  V30 22641 H 2995.92 -4.90969 4.01921 0
M  V30 22642 P 2997.78 -5.75688 6.64379 0
M  V30 22643 O 2999.2 -6.11849 7.01846 0
M  V30 22644 O 2997.42 -4.30744 6.56026 0
M  V30 22645 O 2997.46 -6.37042 5.19165 0
M  V30 22646 C 2997.3 -7.83578 5.16515 0
M  V30 22647 C 2997.84 -8.33398 3.83019 0
M  V30 22648 O 2996.78 -8.10074 3.01034 0
M  V30 22649 C 2999.05 -7.65514 3.2257 0
M  V30 22650 O 2999.79 -8.4329 2.32297 0
M  V30 22651 C 2998.39 -6.40075 2.62207 0
M  V30 22652 O 2999.18 -5.92589 1.53712 0
M  V30 22653 C 2997.05 -6.9454 2.18503 0
M  V30 22654 H 2997.08 -7.23063 1.12091 0
M  V30 22655 H 2998.26 -5.6025 3.37201 0
M  V30 22656 H 2999.75 -7.35707 4.02681 0
M  V30 22657 H 2998.05 -9.40912 3.9095 0
M  V30 22658 H 2997.86 -8.29056 5.99158 0
M  V30 22659 H 2996.23 -8.10073 5.25882 0
M  V30 22660 H 2998.87 -6.30324 0.726794 0
M  V30 22661 P 3000.73 -8.4349 2.47671 0
M  V30 22662 O 3002.15 -8.94167 2.5964 0
M  V30 22663 O 3000.37 -7.1704 3.19006 0
M  V30 22664 O 3000.41 -8.16596 0.923387 0
M  V30 22665 C 3000.25 -9.38437 0.108857 0
M  V30 22666 C 3000.79 -9.08175 -1.28353 0
M  V30 22667 O 2999.73 -8.44229 -1.84713 0
M  V30 22668 C 3002 -8.18386 -1.42505 0
M  V30 22669 O 3002.74 -8.3501 -2.60497 0
M  V30 22670 C 3001.34 -6.80225 -1.25468 0
M  V30 22671 O 3002.13 -5.81621 -1.91066 0
M  V30 22672 C 3000 -7.02416 -1.9168 0
M  V30 22673 H 3000.03 -6.6888 -2.96621 0
M  V30 22674 H 3001.21 -6.53617 -0.192223 0
M  V30 22675 H 3002.7 -8.36622 -0.589963 0
M  V30 22676 H 3001 -10.0291 -1.79807 0
M  V30 22677 H 3000.81 -10.2138 0.558219 0
M  V30 22678 H 2999.18 -9.6579 0.0444202 0
M  V30 22679 H 3001.82 -5.69556 -2.79637 0
M  V30 22680 P 3003.68 -8.4349 -2.47671 0
M  V30 22681 O 3005.1 -8.92593 -2.65 0
M  V30 22682 O 3003.32 -7.7568 -1.19296 0
M  V30 22683 O 3003.36 -7.36886 -3.63805 0
M  V30 22684 C 3003.2 -7.95349 -4.982 0
M  V30 22685 C 3003.74 -6.94612 -5.98974 0
M  V30 22686 O 3002.68 -6.10347 -6.11815 0
M  V30 22687 C 3004.96 -6.11426 -5.62335 0
M  V30 22688 O 3005.69 -5.6162 -6.70584 0
M  V30 22689 C 3004.29 -5.04409 -4.73308 0
M  V30 22690 O 3005.09 -3.85992 -4.75183 0
M  V30 22691 C 3002.95 -4.8728 -5.41006 0
M  V30 22692 H 3002.98 -4.02333 -6.11157 0
M  V30 22693 H 3004.16 -5.39466 -3.69543 0
M  V30 22694 H 3005.65 -6.71916 -5.01943 0
M  V30 22695 H 3003.95 -7.4649 -6.93477 0
M  V30 22696 H 3003.76 -8.89416 -5.05237 0
M  V30 22697 H 3002.13 -8.14876 -5.18409 0
M  V30 22698 H 3004.77 -3.27957 -5.4317 0
M  V30 22699 P 3006.63 -5.75688 -6.64379 0
M  V30 22700 O 3008.05 -6.07627 -7.05504 0
M  V30 22701 O 3006.27 -5.88047 -5.19722 0
M  V30 22702 O 3006.31 -4.2322 -7.04443 0
M  V30 22703 C 3006.15 -3.99743 -8.4911 0
M  V30 22704 C 3006.69 -2.60516 -8.79425 0
M  V30 22705 O 3005.63 -1.82684 -8.4467 0
M  V30 22706 C 3007.91 -2.10343 -8.03628 0
M  V30 22707 O 3008.64 -1.09919 -8.67766 0
M  V30 22708 C 3007.24 -1.68446 -6.70876 0
M  V30 22709 O 3008.04 -0.678137 -6.08433 0
M  V30 22710 C 3005.9 -1.17436 -7.18567 0
M  V30 22711 H 3005.93 -0.0804732 -7.31656 0
M  V30 22712 H 3007.11 -2.54037 -6.02537 0
M  V30 22713 H 3008.6 -2.93881 -7.85526 0
M  V30 22714 H 3006.9 -2.53065 -9.86973 0
M  V30 22715 H 3006.71 -4.75072 -9.05887 0
M  V30 22716 H 3005.08 -4.05244 -8.76668 0
M  V30 22717 H 3007.72 0.177647 -6.34251 0
M  V30 22718 P 3009.58 -1.25109 -8.70152 0
M  V30 22719 O 3010.98 -1.3516 -9.26897 0
M  V30 22720 O 3009.2 -2.18141 -7.59181 0
M  V30 22721 O 3009.26 0.248118 -8.21325 0
M  V30 22722 C 3009.1 1.22779 -9.30434 0
M  V30 22723 C 3009.64 2.56265 -8.80568 0
M  V30 22724 O 3008.58 3.02944 -8.09255 0
M  V30 22725 C 3010.86 2.57523 -7.89775 0
M  V30 22726 O 3011.59 3.7668 -7.89438 0
M  V30 22727 C 3010.19 2.20997 -6.55446 0
M  V30 22728 O 3010.99 2.71851 -5.48419 0
M  V30 22729 C 3008.85 2.89693 -6.67988 0
M  V30 22730 N 3007.81 2.08895 -6.07487 0
M  V30 22731 C 3006.77 2.72974 -5.43836 0
M  V30 22732 O 3006.81 3.97779 -5.34036 0
M  V30 22733 N 3005.76 2.0005 -4.91983 0
M  V30 22734 C 3005.81 0.66501 -5.00098 0
M  V30 22735 C 3006.9 -0.0100979 -5.61099 0
M  V30 22736 C 3007.87 0.74189 -6.14236 0
M  V30 22737 H 3008.88 3.8874 -6.19774 0
M  V30 22738 H 3010.07 1.12673 -6.44018 0
M  V30 22739 H 3011.55 1.783 -8.19631 0
M  V30 22740 H 3009.86 3.21673 -9.66791 0
M  V30 22741 H 3009.66 0.901032 -10.1892 0
M  V30 22742 H 3008.03 1.33036 -9.56493 0
M  V30 22743 H 3006.95 -1.09591 -5.64358 0
M  V30 22744 H 3008.72 0.260263 -6.6359 0
M  V30 22745 H 3010.77 3.62759 -5.33442 0
M  V30 22746 P 3012.53 3.65191 -7.99657 0
M  V30 22747 O 3013.95 3.89332 -8.45794 0
M  V30 22748 O 3012.17 2.28472 -7.50807 0
M  V30 22749 O 3012.21 4.64972 -6.77611 0
M  V30 22750 C 3012.05 6.06319 -7.16352 0
M  V30 22751 C 3012.59 6.91731 -6.02299 0
M  V30 22752 O 3011.53 6.92449 -5.17064 0
M  V30 22753 C 3013.81 6.43627 -5.25174 0
M  V30 22754 O 3014.54 7.43686 -4.60469 0
M  V30 22755 C 3013.14 5.40275 -4.31916 0
M  V30 22756 O 3013.94 5.25279 -3.14438 0
M  V30 22757 C 3011.8 6.04847 -4.05327 0
M  V30 22758 H 3011.83 6.62195 -3.11261 0
M  V30 22759 H 3013.02 4.42556 -4.81383 0
M  V30 22760 H 3014.5 5.92458 -5.93643 0
M  V30 22761 H 3012.81 7.92655 -6.402 0
M  V30 22762 H 3012.62 6.26671 -8.0846 0
M  V30 22763 H 3010.99 6.29101 -7.32804 0
M  V30 22764 H 3013.62 5.84315 -2.47318 0
M  V30 22765 P 3015.48 7.39546 -4.75277 0
M  V30 22766 O 3016.9 7.84798 -5.01039 0
M  V30 22767 O 3015.12 5.9812 -5.08098 0
M  V30 22768 O 3015.16 7.57503 -3.1866 0
M  V30 22769 C 3015 8.97357 -2.74833 0
M  V30 22770 C 3015.54 9.07548 -1.32709 0
M  V30 22771 O 3014.48 8.62072 -0.606159 0
M  V30 22772 C 3016.76 8.25383 -0.938334 0
M  V30 22773 O 3017.5 8.74577 0.146954 0
M  V30 22774 C 3016.09 6.8802 -0.712559 0
M  V30 22775 O 3016.89 6.1189 0.194655 0
M  V30 22776 C 3014.75 7.27966 -0.139777 0
M  V30 22777 H 3014.78 7.25354 0.961601 0
M  V30 22778 H 3015.97 6.32557 -1.65702 0
M  V30 22779 H 3017.45 8.19355 -1.79097 0
M  V30 22780 H 3015.76 10.1294 -1.10029 0
M  V30 22781 H 3015.57 9.64276 -3.41316 0
M  V30 22782 H 3013.94 9.25417 -2.76357 0
M  V30 22783 H 3016.58 6.25267 1.07847 0
M  V30 22784 P 3018.43 8.791 -3.66166e-11 0
M  V30 22785 O 3019.85 9.31196 0.027936 0
M  V30 22786 O 3018.07 7.77869 -1.04071 0
M  V30 22787 O 3018.11 8.09533 1.41463 0
M  V30 22788 C 3017.95 9.03587 2.5397 0
M  V30 22789 C 3018.49 8.35226 3.79016 0
M  V30 22790 O 3017.44 7.57904 4.1503 0
M  V30 22791 C 3019.71 7.45087 3.67298 0
M  V30 22792 O 3020.45 7.27796 4.85194 0
M  V30 22793 C 3019.04 6.17323 3.12027 0
M  V30 22794 O 3019.84 5.04496 3.46627 0
M  V30 22795 C 3017.7 6.19961 3.81809 0
M  V30 22796 N 3016.66 5.71575 2.93223 0
M  V30 22797 C 3016.83 5.77362 1.59168 0
M  V30 22798 N 3015.8 5.3123 0.911893 0
M  V30 22799 C 3014.92 4.91717 1.89588 0
M  V30 22800 C 3013.65 4.3114 1.8076 0
M  V30 22801 N 3013.05 3.99821 0.632928 0
M  V30 22802 N 3013.08 4.06823 3.02898 0
M  V30 22803 C 3013.69 4.35062 4.22711 0
M  V30 22804 N 3014.86 4.90805 4.35707 0
M  V30 22805 C 3015.44 5.16382 3.14469 0
M  V30 22806 H 3017.73 5.58142 4.72986 0
M  V30 22807 H 3018.92 6.21428 2.0318 0
M  V30 22808 H 3020.4 7.86112 2.9231 0
M  V30 22809 H 3018.71 9.11171 4.55987 0
M  V30 22810 H 3018.52 9.9573 2.34194 0
M  V30 22811 H 3016.89 9.2792 2.67832 0
M  V30 22812 H 3013.15 4.09052 5.13359 0
M  V30 22813 H 3017.73 6.16575 1.12198 0
M  V30 22814 H 3012.12 3.55423 0.632085 0
M  V30 22815 H 3013.52 4.20317 -0.256712 0
M  V30 22816 H 3019.53 4.67628 4.28704 0
M  V30 22817 P 3021.38 7.39546 4.75277 0
M  V30 22818 O 3022.81 7.81777 5.05738 0
M  V30 22819 O 3021.02 7.1065 3.32998 0
M  V30 22820 O 3021.06 6.04542 5.56673 0
M  V30 22821 C 3020.9 6.22772 7.02095 0
M  V30 22822 C 3021.44 4.97725 7.70406 0
M  V30 22823 O 3020.38 4.13256 7.58987 0
M  V30 22824 C 3022.66 4.28231 7.11815 0
M  V30 22825 O 3023.4 3.49945 8.01648 0
M  V30 22826 C 3021.99 3.5063 5.96244 0
M  V30 22827 O 3022.79 2.36482 5.64681 0
M  V30 22828 C 3020.65 3.15122 6.56374 0
M  V30 22829 H 3020.68 2.13853 6.99751 0
M  V30 22830 H 3021.87 4.13501 5.06559 0
M  V30 22831 H 3023.35 5.03285 6.70911 0
M  V30 22832 H 3021.66 5.20877 8.75697 0
M  V30 22833 H 3021.47 7.11046 7.35349 0
M  V30 22834 H 3019.84 6.35815 7.26986 0
M  V30 22835 H 3022.48 1.61644 6.13565 0
M  V30 22836 P 3024.33 3.65191 7.99657 0
M  V30 22837 O 3025.76 3.8425 8.48115 0
M  V30 22838 O 3023.97 4.17805 6.64342 0
M  V30 22839 O 3024.01 2.07613 7.95143 0
M  V30 22840 C 3023.85 1.44328 9.27336 0
M  V30 22841 C 3024.39 0.0220036 9.17197 0
M  V30 22842 O 3023.34 -0.626867 8.61923 0
M  V30 22843 C 3025.61 -0.24586 8.30336 0
M  V30 22844 O 3026.35 -1.39011 8.63583 0
M  V30 22845 C 3024.94 -0.273849 6.91158 0
M  V30 22846 O 3025.74 -1.06348 6.02892 0
M  V30 22847 C 3023.6 -0.897649 7.22545 0
M  V30 22848 H 3023.64 -1.9841 7.04286 0
M  V30 22849 H 3024.82 0.739928 6.497 0
M  V30 22850 H 3026.3 0.60668 8.36503 0
M  V30 22851 H 3024.61 -0.352479 10.1829 0
M  V30 22852 H 3024.42 2.00611 10.0304 0
M  V30 22853 H 3022.79 1.41843 9.55327 0
M  V30 22854 H 3025.43 -1.95734 6.03555 0
M  V30 22855 P 3027.28 -1.25109 8.70152 0
M  V30 22856 O 3028.71 -1.35303 9.21419 0
M  V30 22857 O 3026.92 -0.0769065 7.84762 0
M  V30 22858 O 3026.96 -2.55232 7.81161 0
M  V30 22859 C 3026.8 -3.79939 8.58154 0
M  V30 22860 C 3027.34 -4.93969 7.72701 0
M  V30 22861 O 3026.29 -5.18726 6.91205 0
M  V30 22862 C 3028.56 -4.69597 6.85231 0
M  V30 22863 O 3029.3 -5.83832 6.51337 0
M  V30 22864 C 3027.89 -3.96706 5.66633 0
M  V30 22865 O 3028.69 -4.15346 4.49615 0
M  V30 22866 C 3026.55 -4.66153 5.59313 0
M  V30 22867 N 3025.51 -3.71582 5.24027 0
M  V30 22868 C 3025.57 -2.46018 5.67902 0
M  V30 22869 N 3024.53 -1.74868 5.24518 0
M  V30 22870 C 3023.79 -2.61333 4.54528 0
M  V30 22871 C 3022.49 -2.46162 3.95441 0
M  V30 22872 O 3021.75 -1.46013 3.94122 0
M  V30 22873 N 3022.06 -3.59334 3.34752 0
M  V30 22874 C 3022.81 -4.79605 3.3023 0
M  V30 22875 N 3022.21 -5.82109 2.6065 0
M  V30 22876 N 3023.96 -4.97402 3.8843 0
M  V30 22877 C 3024.42 -3.86258 4.50476 0
M  V30 22878 H 3026.59 -5.47679 4.85214 0
M  V30 22879 H 3027.77 -2.88964 5.86476 0
M  V30 22880 H 3029.25 -4.01947 7.36109 0
M  V30 22881 H 3027.56 -5.80182 8.37584 0
M  V30 22882 H 3027.37 -3.73517 9.52265 0
M  V30 22883 H 3025.74 -3.97163 8.80359 0
M  V30 22884 H 3021.16 -3.5825 2.90294 0
M  V30 22885 H 3026.37 -2.06161 6.30974 0
M  V30 22886 H 3021.3 -5.66979 2.15354 0
M  V30 22887 H 3022.67 -6.73686 2.54344 0
M  V30 22888 H 3028.38 -4.90891 4.01857 0
M  V30 22889 P 3030.24 -5.75688 6.64379 0
M  V30 22890 O 3031.66 -6.11915 7.01921 0
M  V30 22891 O 3029.88 -4.30744 6.56026 0
M  V30 22892 O 3029.91 -6.37042 5.19165 0
M  V30 22893 C 3029.75 -7.83662 5.1657 0
M  V30 22894 C 3030.29 -8.33398 3.83019 0
M  V30 22895 O 3029.24 -8.0998 3.00999 0
M  V30 22896 C 3031.51 -7.65514 3.2257 0
M  V30 22897 O 3032.25 -8.4329 2.32297 0
M  V30 22898 C 3030.84 -6.40075 2.62207 0
M  V30 22899 O 3031.64 -5.92338 1.5428 0
M  V30 22900 C 3029.5 -6.9454 2.18503 0
M  V30 22901 N 3028.46 -5.95905 2.39948 0
M  V30 22902 C 3028.63 -4.98383 3.32108 0
M  V30 22903 N 3027.6 -4.16798 3.41761 0
M  V30 22904 C 3026.72 -4.65287 2.47461 0
M  V30 22905 C 3025.45 -4.18946 2.07461 0
M  V30 22906 N 3024.85 -3.09661 2.60717 0
M  V30 22907 N 3024.89 -4.95327 1.09101 0
M  V30 22908 C 3025.49 -6.04369 0.519812 0
M  V30 22909 N 3026.67 -6.50694 0.855982 0
M  V30 22910 C 3027.24 -5.75818 1.84322 0
M  V30 22911 H 3029.54 -7.22964 1.12076 0
M  V30 22912 H 3030.72 -5.60502 3.36589 0
M  V30 22913 H 3032.2 -7.35707 4.02681 0
M  V30 22914 H 3030.51 -9.41302 3.90009 0
M  V30 22915 H 3030.32 -8.29056 5.99158 0
M  V30 22916 H 3028.69 -8.10073 5.25882 0
M  V30 22917 H 3024.95 -6.55843 -0.270373 0
M  V30 22918 H 3029.53 -4.88564 3.92502 0
M  V30 22919 H 3023.92 -2.80523 2.27218 0
M  V30 22920 H 3025.33 -2.55848 3.34465 0
M  V30 22921 H 3031.33 -6.30224 0.72668 0
M  V30 22922 P 3033.19 -8.4349 2.47671 0
M  V30 22923 O 3034.61 -8.94263 2.59668 0
M  V30 22924 O 3032.83 -7.1704 3.19006 0
M  V30 22925 O 3032.86 -8.16596 0.923387 0
M  V30 22926 C 3032.7 -9.38537 0.108869 0
M  V30 22927 C 3033.24 -9.08175 -1.28353 0
M  V30 22928 O 3032.19 -8.44131 -1.84692 0
M  V30 22929 C 3034.46 -8.18386 -1.42505 0
M  V30 22930 O 3035.2 -8.3501 -2.60497 0
M  V30 22931 C 3033.79 -6.80225 -1.25468 0
M  V30 22932 O 3034.59 -5.81716 -1.90454 0
M  V30 22933 C 3032.45 -7.02416 -1.9168 0
M  V30 22934 N 3031.41 -6.31033 -1.20314 0
M  V30 22935 C 3031.58 -5.98817 0.0994088 0
M  V30 22936 N 3030.55 -5.35403 0.621694 0
M  V30 22937 C 3029.67 -5.25212 -0.43376 0
M  V30 22938 C 3028.4 -4.64602 -0.519722 0
M  V30 22939 N 3027.84 -4.7568 -1.76013 0
M  V30 22940 C 3028.44 -5.3653 -2.83017 0
M  V30 22941 N 3029.62 -5.93676 -2.79782 0
M  V30 22942 C 3030.19 -5.84061 -1.56249 0
M  V30 22943 H 3033.67 -6.53498 -0.198729 0
M  V30 22944 H 3035.15 -8.36622 -0.589963 0
M  V30 22945 H 3033.46 -10.0273 -1.8081 0
M  V30 22946 H 3033.27 -10.2138 0.558219 0
M  V30 22947 H 3031.64 -9.6579 0.0444202 0
M  V30 22948 H 3032.48 -6.23209 0.660562 0
M  V30 22949 H 3034.28 -5.69466 -2.79593 0
M  V30 22950 P 3036.14 -8.4349 -2.47671 0
M  V30 22951 O 3037.56 -8.92785 -2.65057 0
M  V30 22952 O 3035.78 -7.7568 -1.19296 0
M  V30 22953 O 3035.81 -7.36886 -3.63805 0
M  V30 22954 C 3035.65 -7.95349 -4.982 0
M  V30 22955 C 3036.19 -6.94537 -5.98908 0
M  V30 22956 O 3035.14 -6.10347 -6.11815 0
M  V30 22957 C 3037.41 -6.11426 -5.62335 0
M  V30 22958 O 3038.15 -5.6162 -6.70584 0
M  V30 22959 C 3036.74 -5.04409 -4.73308 0
M  V30 22960 O 3037.54 -3.85929 -4.75106 0
M  V30 22961 C 3035.41 -4.8728 -5.41006 0
M  V30 22962 N 3034.36 -4.65812 -4.42377 0
M  V30 22963 C 3034.42 -5.27109 -3.24335 0
M  V30 22964 N 3033.38 -4.94293 -2.47735 0
M  V30 22965 C 3032.65 -4.1271 -3.23359 0
M  V30 22966 C 3031.34 -3.56384 -2.99934 0
M  V30 22967 O 3030.61 -3.69331 -2.00616 0
M  V30 22968 N 3030.91 -2.80206 -4.03316 0
M  V30 22969 C 3031.66 -2.58614 -5.2172 0
M  V30 22970 N 3031.06 -1.75154 -6.13278 0
M  V30 22971 N 3032.81 -3.13689 -5.47619 0
M  V30 22972 C 3033.27 -3.90921 -4.46436 0
M  V30 22973 H 3035.44 -4.02333 -6.11157 0
M  V30 22974 H 3036.62 -5.39383 -3.69487 0
M  V30 22975 H 3038.11 -6.71414 -5.02615 0
M  V30 22976 H 3036.41 -7.4649 -6.93477 0
M  V30 22977 H 3036.22 -8.89416 -5.05237 0
M  V30 22978 H 3034.59 -8.14876 -5.18409 0
M  V30 22979 H 3030.01 -2.36355 -3.95916 0
M  V30 22980 H 3035.22 -5.95212 -2.93859 0
M  V30 22981 H 3030.15 -1.32473 -5.91856 0
M  V30 22982 H 3031.53 -1.5588 -7.03026 0
M  V30 22983 H 3037.23 -3.27906 -5.43085 0
M  V30 22984 P 3039.09 -5.75688 -6.64379 0
M  V30 22985 O 3040.51 -6.07627 -7.05504 0
M  V30 22986 O 3038.73 -5.88047 -5.19722 0
M  V30 22987 O 3038.76 -4.2322 -7.04443 0
M  V30 22988 C 3038.6 -3.99743 -8.4911 0
M  V30 22989 C 3039.14 -2.60516 -8.79425 0
M  V30 22990 O 3038.09 -1.82684 -8.4467 0
M  V30 22991 C 3040.36 -2.10343 -8.03628 0
M  V30 22992 O 3041.1 -1.09919 -8.67766 0
M  V30 22993 C 3039.69 -1.68446 -6.70876 0
M  V30 22994 O 3040.49 -0.678137 -6.08433 0
M  V30 22995 C 3038.36 -1.17436 -7.18567 0
M  V30 22996 H 3038.39 -0.0804732 -7.31656 0
M  V30 22997 H 3039.57 -2.54037 -6.02537 0
M  V30 22998 H 3041.06 -2.93881 -7.85526 0
M  V30 22999 H 3039.36 -2.53065 -9.86973 0
M  V30 23000 H 3039.17 -4.75072 -9.05887 0
M  V30 23001 H 3037.54 -4.05244 -8.76668 0
M  V30 23002 H 3040.18 0.177647 -6.34251 0
M  V30 23003 P 3042.04 -1.25109 -8.70152 0
M  V30 23004 O 3043.46 -1.29744 -9.22016 0
M  V30 23005 O 3041.68 -2.13714 -7.55141 0
M  V30 23006 O 3041.71 0.248149 -8.21425 0
M  V30 23007 C 3041.55 1.22779 -9.30434 0
M  V30 23008 C 3042.09 2.56293 -8.80664 0
M  V30 23009 O 3041.04 3.02979 -8.09349 0
M  V30 23010 C 3043.31 2.57523 -7.89775 0
M  V30 23011 O 3044.05 3.7668 -7.89438 0
M  V30 23012 C 3042.64 2.20997 -6.55446 0
M  V30 23013 O 3043.44 2.71895 -5.48509 0
M  V30 23014 C 3041.31 2.89693 -6.67988 0
M  V30 23015 H 3041.34 3.88793 -6.19859 0
M  V30 23016 H 3042.52 1.12046 -6.44229 0
M  V30 23017 H 3044.01 1.7746 -8.19711 0
M  V30 23018 H 3042.31 3.20706 -9.67112 0
M  V30 23019 H 3042.12 0.901032 -10.1892 0
M  V30 23020 H 3040.49 1.33049 -9.56592 0
M  V30 23021 H 3043.13 3.57847 -5.23962 0
M  V30 23022 P 3044.99 3.65191 -7.99657 0
M  V30 23023 O 3046.41 3.89332 -8.45794 0
M  V30 23024 O 3044.63 2.28472 -7.50807 0
M  V30 23025 O 3044.67 4.64972 -6.77611 0
M  V30 23026 C 3044.51 6.06319 -7.16352 0
M  V30 23027 C 3045.05 6.91731 -6.02299 0
M  V30 23028 O 3043.99 6.92449 -5.17064 0
M  V30 23029 C 3046.26 6.43627 -5.25174 0
M  V30 23030 O 3047 7.43686 -4.60469 0
M  V30 23031 C 3045.59 5.40275 -4.31916 0
M  V30 23032 O 3046.39 5.25279 -3.14438 0
M  V30 23033 C 3044.26 6.04847 -4.05327 0
M  V30 23034 H 3044.29 6.62195 -3.11261 0
M  V30 23035 H 3045.47 4.42556 -4.81383 0
M  V30 23036 H 3046.96 5.92458 -5.93643 0
M  V30 23037 H 3045.26 7.92655 -6.402 0
M  V30 23038 H 3045.07 6.26671 -8.0846 0
M  V30 23039 H 3043.44 6.29101 -7.32804 0
M  V30 23040 H 3046.08 5.84315 -2.47318 0
M  V30 23041 P 3047.94 7.39546 -4.75277 0
M  V30 23042 O 3049.36 7.84798 -5.01039 0
M  V30 23043 O 3047.58 5.9812 -5.08098 0
M  V30 23044 O 3047.62 7.57503 -3.1866 0
M  V30 23045 C 3047.46 8.97357 -2.74833 0
M  V30 23046 C 3048 9.07548 -1.32709 0
M  V30 23047 O 3046.94 8.62072 -0.606159 0
M  V30 23048 C 3049.21 8.25383 -0.938334 0
M  V30 23049 O 3049.95 8.74577 0.146954 0
M  V30 23050 C 3048.54 6.8802 -0.712559 0
M  V30 23051 O 3049.34 6.1189 0.194655 0
M  V30 23052 C 3047.21 7.27966 -0.139777 0
M  V30 23053 H 3047.24 7.25354 0.961601 0
M  V30 23054 H 3048.42 6.32557 -1.65702 0
M  V30 23055 H 3049.91 8.19355 -1.79097 0
M  V30 23056 H 3048.21 10.1294 -1.10029 0
M  V30 23057 H 3048.02 9.64276 -3.41316 0
M  V30 23058 H 3046.39 9.25417 -2.76357 0
M  V30 23059 H 3049.03 6.25267 1.07847 0
M  V30 23060 P 3050.89 8.791 -4.18033e-11 0
M  V30 23061 O 3052.31 9.31096 0.027933 0
M  V30 23062 O 3050.53 7.77869 -1.04071 0
M  V30 23063 O 3050.57 8.09533 1.41463 0
M  V30 23064 C 3050.41 9.0349 2.53943 0
M  V30 23065 C 3050.95 8.35226 3.79016 0
M  V30 23066 O 3049.89 7.57992 4.15078 0
M  V30 23067 C 3052.16 7.45087 3.67298 0
M  V30 23068 O 3052.9 7.27796 4.85194 0
M  V30 23069 C 3051.5 6.17323 3.12027 0
M  V30 23070 O 3052.29 5.04231 3.47188 0
M  V30 23071 C 3050.16 6.19961 3.81809 0
M  V30 23072 H 3050.19 5.58218 4.73051 0
M  V30 23073 H 3051.37 6.21726 2.02589 0
M  V30 23074 H 3052.86 7.86112 2.9231 0
M  V30 23075 H 3051.16 9.11627 4.55076 0
M  V30 23076 H 3050.97 9.9573 2.34194 0
M  V30 23077 H 3049.34 9.2792 2.67832 0
M  V30 23078 H 3051.98 4.67702 4.28772 0
M  V30 23079 P 3053.84 7.39546 4.75277 0
M  V30 23080 O 3055.26 7.81861 5.05793 0
M  V30 23081 O 3053.48 7.1065 3.32998 0
M  V30 23082 O 3053.52 6.04542 5.56673 0
M  V30 23083 C 3053.36 6.22839 7.02169 0
M  V30 23084 C 3053.9 4.97725 7.70406 0
M  V30 23085 O 3052.84 4.13208 7.58899 0
M  V30 23086 C 3055.11 4.28231 7.11815 0
M  V30 23087 O 3055.85 3.49945 8.01648 0
M  V30 23088 C 3054.45 3.5063 5.96244 0
M  V30 23089 O 3055.24 2.37008 5.64352 0
M  V30 23090 C 3053.11 3.15122 6.56374 0
M  V30 23091 N 3052.07 3.22311 5.55692 0
M  V30 23092 C 3052.23 3.99655 4.46046 0
M  V30 23093 N 3051.21 3.97599 3.63918 0
M  V30 23094 C 3050.32 3.11159 4.25334 0
M  V30 23095 C 3049.06 2.64972 3.85157 0
M  V30 23096 N 3048.49 1.78482 4.74759 0
M  V30 23097 C 3049.09 1.37463 5.90819 0
M  V30 23098 N 3050.27 1.7733 6.31889 0
M  V30 23099 C 3050.84 2.64393 5.43725 0
M  V30 23100 H 3054.32 4.12931 5.06895 0
M  V30 23101 H 3055.81 5.03285 6.70911 0
M  V30 23102 H 3054.11 5.20001 8.76217 0
M  V30 23103 H 3053.92 7.11046 7.35349 0
M  V30 23104 H 3052.29 6.35815 7.26986 0
M  V30 23105 H 3053.13 4.58037 4.27732 0
M  V30 23106 H 3054.93 1.61619 6.13468 0
M  V30 23107 P 3056.79 3.65191 7.99657 0
M  V30 23108 O 3058.21 3.8425 8.48115 0
M  V30 23109 O 3056.43 4.17805 6.64342 0
M  V30 23110 O 3056.47 2.07613 7.95143 0
M  V30 23111 C 3056.31 1.44328 9.27336 0
M  V30 23112 C 3056.85 0.0220036 9.17197 0
M  V30 23113 O 3055.79 -0.626867 8.61923 0
M  V30 23114 C 3058.07 -0.24586 8.30336 0
M  V30 23115 O 3058.8 -1.39011 8.63583 0
M  V30 23116 C 3057.4 -0.273849 6.91158 0
M  V30 23117 O 3058.2 -1.06348 6.02892 0
M  V30 23118 C 3056.06 -0.897649 7.22545 0
M  V30 23119 H 3056.09 -1.9841 7.04286 0
M  V30 23120 H 3057.27 0.739928 6.497 0
M  V30 23121 H 3058.76 0.60668 8.36503 0
M  V30 23122 H 3057.06 -0.352479 10.1829 0
M  V30 23123 H 3056.87 2.00611 10.0304 0
M  V30 23124 H 3055.24 1.41843 9.55327 0
M  V30 23125 H 3057.88 -1.95734 6.03555 0
M  V30 23126 P 3059.74 -1.25109 8.70152 0
M  V30 23127 O 3061.16 -1.35274 9.21221 0
M  V30 23128 O 3059.38 -0.0769065 7.84762 0
M  V30 23129 O 3059.42 -2.55232 7.81161 0
M  V30 23130 C 3059.26 -3.79939 8.58154 0
M  V30 23131 C 3059.8 -4.94023 7.72785 0
M  V30 23132 O 3058.74 -5.18726 6.91205 0
M  V30 23133 C 3061.02 -4.69597 6.85231 0
M  V30 23134 O 3061.75 -5.83832 6.51337 0
M  V30 23135 C 3060.35 -3.96706 5.66633 0
M  V30 23136 O 3061.15 -4.15414 4.49689 0
M  V30 23137 C 3059.01 -4.66153 5.59313 0
M  V30 23138 H 3059.04 -5.47679 4.85214 0
M  V30 23139 H 3060.23 -2.89008 5.86566 0
M  V30 23140 H 3061.71 -4.0121 7.36511 0
M  V30 23141 H 3060.02 -5.80182 8.37584 0
M  V30 23142 H 3059.83 -3.73517 9.52265 0
M  V30 23143 H 3058.2 -3.97163 8.80359 0
M  V30 23144 H 3060.83 -4.90969 4.01921 0
M  V30 23145 P 3062.69 -5.75688 6.64379 0
M  V30 23146 O 3064.09 -6.11991 7.09136 0
M  V30 23147 O 3062.31 -4.30899 6.62018 0
M  V30 23148 O 3062.37 -6.36965 5.19102 0
M  V30 23149 C 3062.21 -7.83578 5.16515 0
M  V30 23150 C 3062.75 -8.33307 3.82977 0
M  V30 23151 O 3061.69 -8.0998 3.00999 0
M  V30 23152 C 3063.97 -7.65514 3.2257 0
M  V30 23153 O 3064.7 -8.4329 2.32297 0
M  V30 23154 C 3063.3 -6.40075 2.62207 0
M  V30 23155 O 3064.1 -5.92492 1.53687 0
M  V30 23156 C 3061.96 -6.9454 2.18503 0
M  V30 23157 N 3060.92 -5.95905 2.39948 0
M  V30 23158 C 3059.88 -5.89764 1.49837 0
M  V30 23159 O 3059.92 -6.64088 0.490975 0
M  V30 23160 N 3058.87 -5.02821 1.70992 0
M  V30 23161 C 3058.92 -4.21498 2.77236 0
M  V30 23162 N 3057.91 -3.37475 2.96465 0
M  V30 23163 C 3060.01 -4.23389 3.68205 0
M  V30 23164 C 3060.98 -5.12792 3.46171 0
M  V30 23165 H 3061.99 -7.22964 1.12076 0
M  V30 23166 H 3063.18 -5.60502 3.36589 0
M  V30 23167 H 3064.66 -7.36197 4.01993 0
M  V30 23168 H 3062.97 -9.41302 3.90009 0
M  V30 23169 H 3062.77 -8.29056 5.99158 0
M  V30 23170 H 3061.14 -8.09989 5.25828 0
M  V30 23171 H 3060.06 -3.54747 4.52399 0
M  V30 23172 H 3061.83 -5.18551 4.1489 0
M  V30 23173 H 3057.12 -3.36058 2.30304 0
M  V30 23174 H 3057.91 -2.73846 3.77171 0
M  V30 23175 H 3063.88 -6.40705 0.751752 0
M  V30 23176 P 3065.64 -8.4349 2.47671 0
M  V30 23177 O 3067.06 -8.94359 2.59696 0
M  V30 23178 O 3065.28 -7.1704 3.19006 0
M  V30 23179 O 3065.32 -8.16596 0.923387 0
M  V30 23180 C 3065.16 -9.38437 0.108857 0
M  V30 23181 C 3065.7 -9.08076 -1.28339 0
M  V30 23182 O 3064.64 -8.44229 -1.84713 0
M  V30 23183 C 3066.92 -8.18386 -1.42505 0
M  V30 23184 O 3067.66 -8.3501 -2.60497 0
M  V30 23185 C 3066.25 -6.80225 -1.25468 0
M  V30 23186 O 3067.05 -5.81526 -1.91035 0
M  V30 23187 C 3064.91 -7.02416 -1.9168 0
M  V30 23188 N 3063.87 -6.31033 -1.20314 0
M  V30 23189 C 3063.93 -6.18781 0.121293 0
M  V30 23190 N 3062.89 -5.49762 0.588272 0
M  V30 23191 C 3062.15 -5.22015 -0.488988 0
M  V30 23192 C 3060.85 -4.61966 -0.596448 0
M  V30 23193 O 3060.11 -4.19162 0.309059 0
M  V30 23194 N 3060.42 -4.53773 -1.878 0
M  V30 23195 C 3061.16 -4.99623 -2.99082 0
M  V30 23196 N 3060.57 -4.78912 -4.21227 0
M  V30 23197 N 3062.32 -5.59957 -2.91093 0
M  V30 23198 C 3062.77 -5.70225 -1.64218 0
M  V30 23199 H 3064.94 -6.6888 -2.96621 0
M  V30 23200 H 3066.13 -6.53517 -0.192194 0
M  V30 23201 H 3067.61 -8.36563 -0.598329 0
M  V30 23202 H 3065.92 -10.0291 -1.79807 0
M  V30 23203 H 3065.73 -10.2138 0.558219 0
M  V30 23204 H 3064.1 -9.6579 0.0444202 0
M  V30 23205 H 3059.52 -4.12883 -2.05283 0
M  V30 23206 H 3064.73 -6.59596 0.745856 0
M  V30 23207 H 3059.66 -4.31425 -4.2628 0
M  V30 23208 H 3061.03 -5.11219 -5.07148 0
M  V30 23209 H 3066.74 -5.69466 -2.79593 0
M  V30 23210 P 3068.59 -8.4349 -2.47671 0
M  V30 23211 O 3070.01 -8.92593 -2.65 0
M  V30 23212 O 3068.23 -7.7568 -1.19296 0
M  V30 23213 O 3068.27 -7.36886 -3.63805 0
M  V30 23214 C 3068.11 -7.95349 -4.982 0
M  V30 23215 C 3068.65 -6.94612 -5.98974 0
M  V30 23216 O 3067.59 -6.10347 -6.11815 0
M  V30 23217 C 3069.87 -6.11426 -5.62335 0
M  V30 23218 O 3070.61 -5.6162 -6.70584 0
M  V30 23219 C 3069.2 -5.04409 -4.73308 0
M  V30 23220 O 3070 -3.85992 -4.75183 0
M  V30 23221 C 3067.86 -4.8728 -5.41006 0
M  V30 23222 H 3067.89 -4.02333 -6.11157 0
M  V30 23223 H 3069.08 -5.39466 -3.69543 0
M  V30 23224 H 3070.56 -6.71916 -5.01943 0
M  V30 23225 H 3068.87 -7.4649 -6.93477 0
M  V30 23226 H 3068.68 -8.89416 -5.05237 0
M  V30 23227 H 3067.05 -8.14876 -5.18409 0
M  V30 23228 H 3069.69 -3.27957 -5.4317 0
M  V30 23229 P 3071.54 -5.75688 -6.64379 0
M  V30 23230 O 3072.96 -6.07692 -7.0558 0
M  V30 23231 O 3071.18 -5.88047 -5.19722 0
M  V30 23232 O 3071.22 -4.2322 -7.04443 0
M  V30 23233 C 3071.06 -3.99785 -8.49201 0
M  V30 23234 C 3071.6 -2.60516 -8.79425 0
M  V30 23235 O 3070.55 -1.82663 -8.44573 0
M  V30 23236 C 3072.82 -2.10343 -8.03628 0
M  V30 23237 O 3073.56 -1.09919 -8.67766 0
M  V30 23238 C 3072.15 -1.68446 -6.70876 0
M  V30 23239 O 3072.95 -0.684109 -6.08265 0
M  V30 23240 C 3070.81 -1.17436 -7.18567 0
M  V30 23241 N 3069.77 -1.52699 -6.23988 0
M  V30 23242 C 3069.94 -2.578 -5.40574 0
M  V30 23243 N 3068.91 -2.78966 -4.61193 0
M  V30 23244 C 3068.03 -1.78725 -4.95769 0
M  V30 23245 C 3066.76 -1.45727 -4.44207 0
M  V30 23246 N 3066.19 -0.374977 -5.05812 0
M  V30 23247 C 3066.8 0.345585 -6.05615 0
M  V30 23248 N 3067.97 0.0787651 -6.56253 0
M  V30 23249 C 3068.55 -1.00499 -5.96189 0
M  V30 23250 H 3072.03 -2.53396 -6.02698 0
M  V30 23251 H 3073.51 -2.93881 -7.85526 0
M  V30 23252 H 3071.82 -2.52078 -9.87225 0
M  V30 23253 H 3071.63 -4.75072 -9.05887 0
M  V30 23254 H 3070 -4.05244 -8.76668 0
M  V30 23255 H 3070.84 -3.18977 -5.3945 0
M  V30 23256 H 3072.64 0.177619 -6.34151 0
M  V30 23257 P 3074.49 -1.25109 -8.70152 0
M  V30 23258 O 3075.92 -1.29772 -9.22214 0
M  V30 23259 O 3074.13 -2.13714 -7.55141 0
M  V30 23260 O 3074.17 0.248149 -8.21425 0
M  V30 23261 C 3074.01 1.22779 -9.30434 0
M  V30 23262 C 3074.55 2.56265 -8.80568 0
M  V30 23263 O 3073.5 3.02979 -8.09349 0
M  V30 23264 C 3075.77 2.57523 -7.89775 0
M  V30 23265 O 3076.51 3.7668 -7.89438 0
M  V30 23266 C 3075.1 2.20997 -6.55446 0
M  V30 23267 O 3075.9 2.71851 -5.48419 0
M  V30 23268 C 3073.76 2.89693 -6.67988 0
M  V30 23269 N 3072.72 2.08895 -6.07487 0
M  V30 23270 C 3072.78 0.760559 -6.14209 0
M  V30 23271 N 3071.74 0.200108 -5.52538 0
M  V30 23272 C 3071 1.22692 -5.09742 0
M  V30 23273 C 3069.7 1.24782 -4.48775 0
M  V30 23274 O 3068.96 0.290617 -4.19294 0
M  V30 23275 N 3069.27 2.50468 -4.22428 0
M  V30 23276 C 3070.02 3.67142 -4.51974 0
M  V30 23277 N 3069.42 4.85096 -4.14091 0
M  V30 23278 N 3071.17 3.67821 -5.12831 0
M  V30 23279 C 3071.63 2.43698 -5.4105 0
M  V30 23280 H 3073.79 3.88793 -6.19859 0
M  V30 23281 H 3074.98 1.12029 -6.4413 0
M  V30 23282 H 3076.46 1.78279 -8.19533 0
M  V30 23283 H 3074.77 3.20706 -9.67112 0
M  V30 23284 H 3074.58 0.901032 -10.1892 0
M  V30 23285 H 3072.95 1.33049 -9.56592 0
M  V30 23286 H 3068.37 2.61953 -3.79465 0
M  V30 23287 H 3073.58 0.200439 -6.63497 0
M  V30 23288 H 3068.51 4.8334 -3.66367 0
M  V30 23289 H 3069.88 5.7474 -4.33841 0
M  V30 23290 H 3075.59 3.5779 -5.23879 0
M  V30 23291 P 3077.44 3.65191 -7.99657 0
M  V30 23292 O 3078.87 3.89332 -8.45794 0
M  V30 23293 O 3077.08 2.28472 -7.50807 0
M  V30 23294 O 3077.12 4.64972 -6.77611 0
M  V30 23295 C 3076.96 6.06319 -7.16352 0
M  V30 23296 C 3077.5 6.91731 -6.02299 0
M  V30 23297 O 3076.45 6.92449 -5.17064 0
M  V30 23298 C 3078.72 6.43627 -5.25174 0
M  V30 23299 O 3079.46 7.43686 -4.60469 0
M  V30 23300 C 3078.05 5.40275 -4.31916 0
M  V30 23301 O 3078.85 5.25279 -3.14438 0
M  V30 23302 C 3076.71 6.04847 -4.05327 0
M  V30 23303 H 3076.75 6.62195 -3.11261 0
M  V30 23304 H 3077.93 4.42556 -4.81383 0
M  V30 23305 H 3079.41 5.92458 -5.93643 0
M  V30 23306 H 3077.72 7.92655 -6.402 0
M  V30 23307 H 3077.53 6.26671 -8.0846 0
M  V30 23308 H 3075.9 6.29101 -7.32804 0
M  V30 23309 H 3078.54 5.84315 -2.47318 0
M  V30 23310 P 3080.4 7.39546 -4.75277 0
M  V30 23311 O 3081.82 7.84798 -5.01039 0
M  V30 23312 O 3080.04 5.9812 -5.08098 0
M  V30 23313 O 3080.07 7.57503 -3.1866 0
M  V30 23314 C 3079.91 8.97357 -2.74833 0
M  V30 23315 C 3080.45 9.07548 -1.32709 0
M  V30 23316 O 3079.4 8.62072 -0.606159 0
M  V30 23317 C 3081.67 8.25383 -0.938334 0
M  V30 23318 O 3082.41 8.74577 0.146954 0
M  V30 23319 C 3081 6.8802 -0.712559 0
M  V30 23320 O 3081.8 6.1189 0.194655 0
M  V30 23321 C 3079.66 7.27966 -0.139777 0
M  V30 23322 H 3079.7 7.25354 0.961601 0
M  V30 23323 H 3080.88 6.32557 -1.65702 0
M  V30 23324 H 3082.36 8.19355 -1.79097 0
M  V30 23325 H 3080.67 10.1294 -1.10029 0
M  V30 23326 H 3080.48 9.64276 -3.41316 0
M  V30 23327 H 3078.85 9.25417 -2.76357 0
M  V30 23328 H 3081.49 6.25267 1.07847 0
M  V30 23329 P 3083.35 8.791 -4.69899e-11 0
M  V30 23330 O 3084.77 9.31096 0.027933 0
M  V30 23331 O 3082.99 7.77869 -1.04071 0
M  V30 23332 O 3083.02 8.09533 1.41463 0
M  V30 23333 C 3082.86 9.0349 2.53943 0
M  V30 23334 C 3083.4 8.35226 3.79016 0
M  V30 23335 O 3082.35 7.57992 4.15078 0
M  V30 23336 C 3084.62 7.45087 3.67298 0
M  V30 23337 O 3085.36 7.27796 4.85194 0
M  V30 23338 C 3083.95 6.17323 3.12027 0
M  V30 23339 O 3084.75 5.04231 3.47188 0
M  V30 23340 C 3082.61 6.19961 3.81809 0
M  V30 23341 H 3082.65 5.58218 4.73051 0
M  V30 23342 H 3083.83 6.21726 2.02589 0
M  V30 23343 H 3085.31 7.86112 2.9231 0
M  V30 23344 H 3083.62 9.11627 4.55076 0
M  V30 23345 H 3083.43 9.9573 2.34194 0
M  V30 23346 H 3081.8 9.2792 2.67832 0
M  V30 23347 H 3084.44 4.67702 4.28772 0
M  V30 23348 P 3086.3 7.39546 4.75277 0
M  V30 23349 O 3087.72 7.81777 5.05738 0
M  V30 23350 O 3085.94 7.1065 3.32998 0
M  V30 23351 O 3085.97 6.04542 5.56673 0
M  V30 23352 C 3085.81 6.22772 7.02095 0
M  V30 23353 C 3086.35 4.97725 7.70406 0
M  V30 23354 O 3085.3 4.13256 7.58987 0
M  V30 23355 C 3087.57 4.28231 7.11815 0
M  V30 23356 O 3088.31 3.49945 8.01648 0
M  V30 23357 C 3086.9 3.5063 5.96244 0
M  V30 23358 O 3087.7 2.36482 5.64681 0
M  V30 23359 C 3085.57 3.15122 6.56374 0
M  V30 23360 H 3085.6 2.13853 6.99751 0
M  V30 23361 H 3086.78 4.13501 5.06559 0
M  V30 23362 H 3088.26 5.03285 6.70911 0
M  V30 23363 H 3086.57 5.20877 8.75697 0
M  V30 23364 H 3086.38 7.11046 7.35349 0
M  V30 23365 H 3084.75 6.35815 7.26986 0
M  V30 23366 H 3087.39 1.61644 6.13565 0
M  V30 23367 P 3089.25 3.65191 7.99657 0
M  V30 23368 O 3090.67 3.8425 8.48115 0
M  V30 23369 O 3088.89 4.17805 6.64342 0
M  V30 23370 O 3088.92 2.07613 7.95143 0
M  V30 23371 C 3088.76 1.44328 9.27336 0
M  V30 23372 C 3089.3 0.0220036 9.17197 0
M  V30 23373 O 3088.25 -0.626867 8.61923 0
M  V30 23374 C 3090.52 -0.24586 8.30336 0
M  V30 23375 O 3091.26 -1.39011 8.63583 0
M  V30 23376 C 3089.85 -0.273849 6.91158 0
M  V30 23377 O 3090.65 -1.06348 6.02892 0
M  V30 23378 C 3088.52 -0.897649 7.22545 0
M  V30 23379 H 3088.55 -1.9841 7.04286 0
M  V30 23380 H 3089.73 0.739928 6.497 0
M  V30 23381 H 3091.21 0.60668 8.36503 0
M  V30 23382 H 3089.52 -0.352479 10.1829 0
M  V30 23383 H 3089.33 2.00611 10.0304 0
M  V30 23384 H 3087.7 1.41843 9.55327 0
M  V30 23385 H 3090.34 -1.95734 6.03555 0
M  V30 23386 P 3092.2 -1.25109 8.70152 0
M  V30 23387 O 3093.62 -1.35274 9.21221 0
M  V30 23388 O 3091.84 -0.0769065 7.84762 0
M  V30 23389 O 3091.87 -2.55232 7.81161 0
M  V30 23390 C 3091.71 -3.79939 8.58154 0
M  V30 23391 C 3092.25 -4.94023 7.72785 0
M  V30 23392 O 3091.2 -5.18726 6.91205 0
M  V30 23393 C 3093.47 -4.69597 6.85231 0
M  V30 23394 O 3094.21 -5.83832 6.51337 0
M  V30 23395 C 3092.8 -3.96706 5.66633 0
M  V30 23396 O 3093.6 -4.15414 4.49689 0
M  V30 23397 C 3091.47 -4.66153 5.59313 0
M  V30 23398 H 3091.5 -5.47679 4.85214 0
M  V30 23399 H 3092.68 -2.89008 5.86566 0
M  V30 23400 H 3094.17 -4.0121 7.36511 0
M  V30 23401 H 3092.47 -5.80182 8.37584 0
M  V30 23402 H 3092.28 -3.73517 9.52265 0
M  V30 23403 H 3090.65 -3.97163 8.80359 0
M  V30 23404 H 3093.29 -4.90969 4.01921 0
M  V30 23405 P 3095.15 -5.75688 6.64379 0
M  V30 23406 O 3096.57 -6.11981 7.01997 0
M  V30 23407 O 3094.79 -4.30744 6.56026 0
M  V30 23408 O 3094.82 -6.37042 5.19165 0
M  V30 23409 C 3094.66 -7.83578 5.16515 0
M  V30 23410 C 3095.2 -8.33307 3.82977 0
M  V30 23411 O 3094.15 -8.10074 3.01034 0
M  V30 23412 C 3096.42 -7.65514 3.2257 0
M  V30 23413 O 3097.16 -8.4329 2.32297 0
M  V30 23414 C 3095.75 -6.40075 2.62207 0
M  V30 23415 O 3096.55 -5.92492 1.53687 0
M  V30 23416 C 3094.42 -6.9454 2.18503 0
M  V30 23417 N 3093.37 -5.95905 2.39948 0
M  V30 23418 C 3093.44 -5.13994 3.44742 0
M  V30 23419 N 3092.39 -4.30684 3.46712 0
M  V30 23420 C 3091.66 -4.65583 2.41086 0
M  V30 23421 C 3090.35 -4.20877 1.99581 0
M  V30 23422 O 3089.62 -3.35913 2.52616 0
M  V30 23423 N 3089.92 -4.83271 0.873406 0
M  V30 23424 C 3090.67 -5.82006 0.185129 0
M  V30 23425 N 3090.07 -6.30619 -0.95439 0
M  V30 23426 N 3091.82 -6.28443 0.578524 0
M  V30 23427 C 3092.28 -5.68486 1.70138 0
M  V30 23428 H 3094.45 -7.23063 1.12091 0
M  V30 23429 H 3095.63 -5.60165 3.3715 0
M  V30 23430 H 3097.12 -7.3611 4.01946 0
M  V30 23431 H 3095.42 -9.40912 3.9095 0
M  V30 23432 H 3095.23 -8.29056 5.99158 0
M  V30 23433 H 3093.6 -8.10073 5.25882 0
M  V30 23434 H 3089.02 -4.58323 0.505262 0
M  V30 23435 H 3094.23 -5.14564 4.1935 0
M  V30 23436 H 3089.16 -5.93402 -1.25364 0
M  V30 23437 H 3090.54 -7.0425 -1.50254 0
M  V30 23438 H 3096.24 -6.30224 0.72668 0
M  V30 23439 P 3098.1 -8.4349 2.47671 0
M  V30 23440 O 3099.52 -8.94167 2.5964 0
M  V30 23441 O 3097.74 -7.1704 3.19006 0
M  V30 23442 O 3097.78 -8.16596 0.923387 0
M  V30 23443 C 3097.62 -9.38437 0.108857 0
M  V30 23444 C 3098.16 -9.08175 -1.28353 0
M  V30 23445 O 3097.1 -8.44229 -1.84713 0
M  V30 23446 C 3099.37 -8.18386 -1.42505 0
M  V30 23447 O 3100.11 -8.3501 -2.60497 0
M  V30 23448 C 3098.7 -6.80225 -1.25468 0
M  V30 23449 O 3099.5 -5.81621 -1.91066 0
M  V30 23450 C 3097.37 -7.02416 -1.9168 0
M  V30 23451 H 3097.4 -6.6888 -2.96621 0
M  V30 23452 H 3098.58 -6.53617 -0.192223 0
M  V30 23453 H 3100.07 -8.36622 -0.589963 0
M  V30 23454 H 3098.37 -10.0291 -1.79807 0
M  V30 23455 H 3098.18 -10.2138 0.558219 0
M  V30 23456 H 3096.55 -9.6579 0.0444202 0
M  V30 23457 H 3099.19 -5.69556 -2.79637 0
M  V30 23458 P 3101.05 -8.4349 -2.47671 0
M  V30 23459 O 3102.47 -8.92593 -2.65 0
M  V30 23460 O 3100.69 -7.7568 -1.19296 0
M  V30 23461 O 3100.73 -7.36886 -3.63805 0
M  V30 23462 C 3100.57 -7.95349 -4.982 0
M  V30 23463 C 3101.11 -6.94612 -5.98974 0
M  V30 23464 O 3100.05 -6.10347 -6.11815 0
M  V30 23465 C 3102.32 -6.11426 -5.62335 0
M  V30 23466 O 3103.06 -5.6162 -6.70584 0
M  V30 23467 C 3101.66 -5.04409 -4.73308 0
M  V30 23468 O 3102.45 -3.85992 -4.75183 0
M  V30 23469 C 3100.32 -4.8728 -5.41006 0
M  V30 23470 H 3100.35 -4.02333 -6.11157 0
M  V30 23471 H 3101.53 -5.39466 -3.69543 0
M  V30 23472 H 3103.02 -6.71916 -5.01943 0
M  V30 23473 H 3101.32 -7.4649 -6.93477 0
M  V30 23474 H 3101.13 -8.89416 -5.05237 0
M  V30 23475 H 3099.5 -8.14876 -5.18409 0
M  V30 23476 H 3102.14 -3.27957 -5.4317 0
M  V30 23477 P 3104 -5.75688 -6.64379 0
M  V30 23478 O 3105.42 -6.07627 -7.05504 0
M  V30 23479 O 3103.64 -5.88047 -5.19722 0
M  V30 23480 O 3103.68 -4.2322 -7.04443 0
M  V30 23481 C 3103.52 -3.99743 -8.4911 0
M  V30 23482 C 3104.06 -2.60516 -8.79425 0
M  V30 23483 O 3103 -1.82684 -8.4467 0
M  V30 23484 C 3105.27 -2.10343 -8.03628 0
M  V30 23485 O 3106.01 -1.09919 -8.67766 0
M  V30 23486 C 3104.61 -1.68446 -6.70876 0
M  V30 23487 O 3105.4 -0.678137 -6.08433 0
M  V30 23488 C 3103.27 -1.17436 -7.18567 0
M  V30 23489 H 3103.3 -0.0804732 -7.31656 0
M  V30 23490 H 3104.48 -2.54037 -6.02537 0
M  V30 23491 H 3105.97 -2.93881 -7.85526 0
M  V30 23492 H 3104.27 -2.53065 -9.86973 0
M  V30 23493 H 3104.08 -4.75072 -9.05887 0
M  V30 23494 H 3102.45 -4.05244 -8.76668 0
M  V30 23495 H 3105.09 0.177647 -6.34251 0
M  V30 23496 P 3106.95 -1.25109 -8.70152 0
M  V30 23497 O 3108.37 -1.29744 -9.22016 0
M  V30 23498 O 3106.59 -2.13714 -7.55141 0
M  V30 23499 O 3106.63 0.248149 -8.21425 0
M  V30 23500 C 3106.47 1.22779 -9.30434 0
M  V30 23501 C 3107.01 2.56293 -8.80664 0
M  V30 23502 O 3105.95 3.02979 -8.09349 0
M  V30 23503 C 3108.23 2.57523 -7.89775 0
M  V30 23504 O 3108.96 3.7668 -7.89438 0
M  V30 23505 C 3107.56 2.20997 -6.55446 0
M  V30 23506 O 3108.36 2.71895 -5.48509 0
M  V30 23507 C 3106.22 2.89693 -6.67988 0
M  V30 23508 H 3106.25 3.88793 -6.19859 0
M  V30 23509 H 3107.43 1.12046 -6.44229 0
M  V30 23510 H 3108.92 1.7746 -8.19711 0
M  V30 23511 H 3107.22 3.20706 -9.67112 0
M  V30 23512 H 3107.03 0.901032 -10.1892 0
M  V30 23513 H 3105.4 1.33049 -9.56592 0
M  V30 23514 H 3108.04 3.57847 -5.23962 0
M  V30 23515 P 3109.9 3.65191 -7.99657 0
M  V30 23516 O 3111.32 3.89332 -8.45794 0
M  V30 23517 O 3109.54 2.28472 -7.50807 0
M  V30 23518 O 3109.58 4.64972 -6.77611 0
M  V30 23519 C 3109.42 6.06319 -7.16352 0
M  V30 23520 C 3109.96 6.91731 -6.02299 0
M  V30 23521 O 3108.9 6.92449 -5.17064 0
M  V30 23522 C 3111.18 6.43627 -5.25174 0
M  V30 23523 O 3111.91 7.43686 -4.60469 0
M  V30 23524 C 3110.51 5.40275 -4.31916 0
M  V30 23525 O 3111.31 5.25279 -3.14438 0
M  V30 23526 C 3109.17 6.04847 -4.05327 0
M  V30 23527 H 3109.2 6.62195 -3.11261 0
M  V30 23528 H 3110.38 4.42556 -4.81383 0
M  V30 23529 H 3111.87 5.92458 -5.93643 0
M  V30 23530 H 3110.17 7.92655 -6.402 0
M  V30 23531 H 3109.98 6.26671 -8.0846 0
M  V30 23532 H 3108.35 6.29101 -7.32804 0
M  V30 23533 H 3110.99 5.84315 -2.47318 0
M  V30 23534 P 3112.85 7.39546 -4.75277 0
M  V30 23535 O 3114.27 7.84798 -5.01039 0
M  V30 23536 O 3112.49 5.9812 -5.08098 0
M  V30 23537 O 3112.53 7.57503 -3.1866 0
M  V30 23538 C 3112.37 8.97357 -2.74833 0
M  V30 23539 C 3112.91 9.07548 -1.32709 0
M  V30 23540 O 3111.85 8.62072 -0.606159 0
M  V30 23541 C 3114.13 8.25383 -0.938334 0
M  V30 23542 O 3114.86 8.74577 0.146954 0
M  V30 23543 C 3113.46 6.8802 -0.712559 0
M  V30 23544 O 3114.26 6.1189 0.194655 0
M  V30 23545 C 3112.12 7.27966 -0.139777 0
M  V30 23546 H 3112.15 7.25354 0.961601 0
M  V30 23547 H 3113.34 6.32557 -1.65702 0
M  V30 23548 H 3114.82 8.19355 -1.79097 0
M  V30 23549 H 3113.13 10.1294 -1.10029 0
M  V30 23550 H 3112.94 9.64276 -3.41316 0
M  V30 23551 H 3111.31 9.25417 -2.76357 0
M  V30 23552 H 3113.94 6.25267 1.07847 0
M  V30 23553 P 3115.8 8.791 -5.21766e-11 0
M  V30 23554 O 3117.22 9.31096 0.027933 0
M  V30 23555 O 3115.44 7.77869 -1.04071 0
M  V30 23556 O 3115.48 8.09533 1.41463 0
M  V30 23557 C 3115.32 9.0349 2.53943 0
M  V30 23558 C 3115.86 8.35226 3.79016 0
M  V30 23559 O 3114.8 7.57992 4.15078 0
M  V30 23560 C 3117.08 7.45087 3.67298 0
M  V30 23561 O 3117.81 7.27796 4.85194 0
M  V30 23562 C 3116.41 6.17323 3.12027 0
M  V30 23563 O 3117.21 5.04231 3.47188 0
M  V30 23564 C 3115.07 6.19961 3.81809 0
M  V30 23565 H 3115.1 5.58218 4.73051 0
M  V30 23566 H 3116.29 6.21726 2.02589 0
M  V30 23567 H 3117.77 7.86112 2.9231 0
M  V30 23568 H 3116.08 9.11627 4.55076 0
M  V30 23569 H 3115.89 9.9573 2.34194 0
M  V30 23570 H 3114.26 9.2792 2.67832 0
M  V30 23571 H 3116.89 4.67702 4.28772 0
M  V30 23572 P 3118.75 7.39546 4.75277 0
M  V30 23573 O 3120.17 7.81861 5.05793 0
M  V30 23574 O 3118.39 7.1065 3.32998 0
M  V30 23575 O 3118.43 6.04542 5.56673 0
M  V30 23576 C 3118.27 6.22839 7.02169 0
M  V30 23577 C 3118.81 4.97725 7.70406 0
M  V30 23578 O 3117.75 4.13208 7.58899 0
M  V30 23579 C 3120.03 4.28231 7.11815 0
M  V30 23580 O 3120.77 3.49945 8.01648 0
M  V30 23581 C 3119.36 3.5063 5.96244 0
M  V30 23582 O 3120.16 2.37008 5.64352 0
M  V30 23583 C 3118.02 3.15122 6.56374 0
M  V30 23584 N 3116.98 3.22311 5.55692 0
M  V30 23585 C 3117.15 3.99655 4.46046 0
M  V30 23586 N 3116.12 3.97599 3.63918 0
M  V30 23587 C 3115.24 3.11159 4.25334 0
M  V30 23588 C 3113.97 2.64972 3.85157 0
M  V30 23589 N 3113.4 1.78482 4.74759 0
M  V30 23590 C 3114.01 1.37463 5.90819 0
M  V30 23591 N 3115.18 1.7733 6.31889 0
M  V30 23592 C 3115.76 2.64393 5.43725 0
M  V30 23593 H 3119.24 4.12931 5.06895 0
M  V30 23594 H 3120.72 5.03285 6.70911 0
M  V30 23595 H 3119.03 5.20001 8.76217 0
M  V30 23596 H 3118.84 7.11046 7.35349 0
M  V30 23597 H 3117.21 6.35815 7.26986 0
M  V30 23598 H 3118.05 4.58037 4.27732 0
M  V30 23599 H 3119.85 1.61619 6.13468 0
M  V30 23600 P 3121.7 3.65191 7.99657 0
M  V30 23601 O 3123.13 3.8425 8.48115 0
M  V30 23602 O 3121.34 4.17805 6.64342 0
M  V30 23603 O 3121.38 2.07613 7.95143 0
M  V30 23604 C 3121.22 1.44328 9.27336 0
M  V30 23605 C 3121.76 0.0220036 9.17197 0
M  V30 23606 O 3120.7 -0.626867 8.61923 0
M  V30 23607 C 3122.98 -0.24586 8.30336 0
M  V30 23608 O 3123.72 -1.39011 8.63583 0
M  V30 23609 C 3122.31 -0.273849 6.91158 0
M  V30 23610 O 3123.11 -1.06348 6.02892 0
M  V30 23611 C 3120.97 -0.897649 7.22545 0
M  V30 23612 H 3121 -1.9841 7.04286 0
M  V30 23613 H 3122.19 0.739928 6.497 0
M  V30 23614 H 3123.67 0.60668 8.36503 0
M  V30 23615 H 3121.98 -0.352479 10.1829 0
M  V30 23616 H 3121.79 2.00611 10.0304 0
M  V30 23617 H 3120.16 1.41843 9.55327 0
M  V30 23618 H 3122.8 -1.95734 6.03555 0
M  V30 23619 P 3124.65 -1.25109 8.70152 0
M  V30 23620 O 3126.08 -1.35274 9.21221 0
M  V30 23621 O 3124.29 -0.0769065 7.84762 0
M  V30 23622 O 3124.33 -2.55232 7.81161 0
M  V30 23623 C 3124.17 -3.79939 8.58154 0
M  V30 23624 C 3124.71 -4.94023 7.72785 0
M  V30 23625 O 3123.65 -5.18726 6.91205 0
M  V30 23626 C 3125.93 -4.69597 6.85231 0
M  V30 23627 O 3126.67 -5.83832 6.51337 0
M  V30 23628 C 3125.26 -3.96706 5.66633 0
M  V30 23629 O 3126.06 -4.15414 4.49689 0
M  V30 23630 C 3123.92 -4.66153 5.59313 0
M  V30 23631 H 3123.95 -5.47679 4.85214 0
M  V30 23632 H 3125.14 -2.89008 5.86566 0
M  V30 23633 H 3126.62 -4.0121 7.36511 0
M  V30 23634 H 3124.93 -5.80182 8.37584 0
M  V30 23635 H 3124.74 -3.73517 9.52265 0
M  V30 23636 H 3123.11 -3.97163 8.80359 0
M  V30 23637 H 3125.75 -4.90969 4.01921 0
M  V30 23638 P 3127.6 -5.75688 6.64379 0
M  V30 23639 O 3129.03 -6.11849 7.01846 0
M  V30 23640 O 3127.24 -4.30744 6.56026 0
M  V30 23641 O 3127.28 -6.37042 5.19165 0
M  V30 23642 C 3127.12 -7.83578 5.16515 0
M  V30 23643 C 3127.66 -8.33398 3.83019 0
M  V30 23644 O 3126.61 -8.10074 3.01034 0
M  V30 23645 C 3128.88 -7.65514 3.2257 0
M  V30 23646 O 3129.62 -8.4329 2.32297 0
M  V30 23647 C 3128.21 -6.40075 2.62207 0
M  V30 23648 O 3129.01 -5.92589 1.53712 0
M  V30 23649 C 3126.87 -6.9454 2.18503 0
M  V30 23650 H 3126.91 -7.23063 1.12091 0
M  V30 23651 H 3128.09 -5.6025 3.37201 0
M  V30 23652 H 3129.57 -7.35707 4.02681 0
M  V30 23653 H 3127.88 -9.40912 3.9095 0
M  V30 23654 H 3127.69 -8.29056 5.99158 0
M  V30 23655 H 3126.06 -8.10073 5.25882 0
M  V30 23656 H 3128.7 -6.30324 0.726794 0
M  V30 23657 P 3130.55 -8.4349 2.47671 0
M  V30 23658 O 3131.98 -8.94263 2.59668 0
M  V30 23659 O 3130.19 -7.1704 3.19006 0
M  V30 23660 O 3130.23 -8.16596 0.923387 0
M  V30 23661 C 3130.07 -9.38537 0.108869 0
M  V30 23662 C 3130.61 -9.08175 -1.28353 0
M  V30 23663 O 3129.56 -8.44131 -1.84692 0
M  V30 23664 C 3131.83 -8.18386 -1.42505 0
M  V30 23665 O 3132.57 -8.3501 -2.60497 0
M  V30 23666 C 3131.16 -6.80225 -1.25468 0
M  V30 23667 O 3131.96 -5.81716 -1.90454 0
M  V30 23668 C 3129.82 -7.02416 -1.9168 0
M  V30 23669 N 3128.78 -6.31033 -1.20314 0
M  V30 23670 C 3128.95 -5.98817 0.0994088 0
M  V30 23671 N 3127.92 -5.35403 0.621694 0
M  V30 23672 C 3127.04 -5.25212 -0.43376 0
M  V30 23673 C 3125.77 -4.64602 -0.519722 0
M  V30 23674 N 3125.21 -4.7568 -1.76013 0
M  V30 23675 C 3125.81 -5.3653 -2.83017 0
M  V30 23676 N 3126.98 -5.93676 -2.79782 0
M  V30 23677 C 3127.56 -5.84061 -1.56249 0
M  V30 23678 H 3131.04 -6.53498 -0.198729 0
M  V30 23679 H 3132.52 -8.36622 -0.589963 0
M  V30 23680 H 3130.83 -10.0273 -1.8081 0
M  V30 23681 H 3130.64 -10.2138 0.558219 0
M  V30 23682 H 3129.01 -9.6579 0.0444202 0
M  V30 23683 H 3129.85 -6.23209 0.660562 0
M  V30 23684 H 3131.65 -5.69466 -2.79593 0
M  V30 23685 P 3133.51 -8.4349 -2.47671 0
M  V30 23686 O 3134.93 -8.92593 -2.65 0
M  V30 23687 O 3133.15 -7.7568 -1.19296 0
M  V30 23688 O 3133.18 -7.36886 -3.63805 0
M  V30 23689 C 3133.02 -7.95349 -4.982 0
M  V30 23690 C 3133.56 -6.94612 -5.98974 0
M  V30 23691 O 3132.51 -6.10347 -6.11815 0
M  V30 23692 C 3134.78 -6.11426 -5.62335 0
M  V30 23693 O 3135.52 -5.6162 -6.70584 0
M  V30 23694 C 3134.11 -5.04409 -4.73308 0
M  V30 23695 O 3134.91 -3.85992 -4.75183 0
M  V30 23696 C 3132.77 -4.8728 -5.41006 0
M  V30 23697 H 3132.81 -4.02333 -6.11157 0
M  V30 23698 H 3133.99 -5.39466 -3.69543 0
M  V30 23699 H 3135.47 -6.71916 -5.01943 0
M  V30 23700 H 3133.78 -7.4649 -6.93477 0
M  V30 23701 H 3133.59 -8.89416 -5.05237 0
M  V30 23702 H 3131.96 -8.14876 -5.18409 0
M  V30 23703 H 3134.6 -3.27957 -5.4317 0
M  V30 23704 P 3136.46 -5.75688 -6.64379 0
M  V30 23705 O 3137.88 -6.07758 -7.05656 0
M  V30 23706 O 3136.1 -5.88047 -5.19722 0
M  V30 23707 O 3136.13 -4.2322 -7.04443 0
M  V30 23708 C 3135.97 -3.99743 -8.4911 0
M  V30 23709 C 3136.51 -2.60487 -8.79329 0
M  V30 23710 O 3135.46 -1.82684 -8.4467 0
M  V30 23711 C 3137.73 -2.10343 -8.03628 0
M  V30 23712 O 3138.47 -1.09919 -8.67766 0
M  V30 23713 C 3137.06 -1.68446 -6.70876 0
M  V30 23714 O 3137.86 -0.678026 -6.08333 0
M  V30 23715 C 3135.72 -1.17436 -7.18567 0
M  V30 23716 N 3134.68 -1.52699 -6.23988 0
M  V30 23717 C 3134.74 -2.68084 -5.57824 0
M  V30 23718 N 3133.7 -2.8189 -4.75643 0
M  V30 23719 C 3132.96 -1.72373 -4.95155 0
M  V30 23720 C 3131.66 -1.37653 -4.44996 0
M  V30 23721 O 3130.93 -2.02239 -3.68445 0
M  V30 23722 N 3131.23 -0.17675 -4.90782 0
M  V30 23723 C 3131.98 0.645036 -5.78716 0
M  V30 23724 N 3131.38 1.84214 -6.10618 0
M  V30 23725 N 3133.13 0.321732 -6.30279 0
M  V30 23726 C 3133.59 -0.87502 -5.86913 0
M  V30 23727 H 3135.76 -0.0804732 -7.31656 0
M  V30 23728 H 3136.94 -2.53998 -6.02444 0
M  V30 23729 H 3138.42 -2.93095 -7.8582 0
M  V30 23730 H 3136.73 -2.53065 -9.86973 0
M  V30 23731 H 3136.54 -4.75072 -9.05887 0
M  V30 23732 H 3134.91 -4.05244 -8.76668 0
M  V30 23733 H 3130.33 0.152143 -4.60849 0
M  V30 23734 H 3135.54 -3.41852 -5.69006 0
M  V30 23735 H 3130.47 2.08538 -5.69521 0
M  V30 23736 H 3131.85 2.4895 -6.75698 0
M  V30 23737 H 3137.55 0.177619 -6.34151 0
M  V30 23738 P 3139.41 -1.25109 -8.70152 0
M  V30 23739 O 3140.83 -1.29744 -9.22016 0
M  V30 23740 O 3139.05 -2.13714 -7.55141 0
M  V30 23741 O 3139.08 0.248149 -8.21425 0
M  V30 23742 C 3138.92 1.22779 -9.30434 0
M  V30 23743 C 3139.46 2.56293 -8.80664 0
M  V30 23744 O 3138.41 3.02979 -8.09349 0
M  V30 23745 C 3140.68 2.57523 -7.89775 0
M  V30 23746 O 3141.42 3.7668 -7.89438 0
M  V30 23747 C 3140.01 2.20997 -6.55446 0
M  V30 23748 O 3140.81 2.71895 -5.48509 0
M  V30 23749 C 3138.68 2.89693 -6.67988 0
M  V30 23750 H 3138.71 3.88793 -6.19859 0
M  V30 23751 H 3139.89 1.12046 -6.44229 0
M  V30 23752 H 3141.37 1.7746 -8.19711 0
M  V30 23753 H 3139.68 3.20706 -9.67112 0
M  V30 23754 H 3139.49 0.901032 -10.1892 0
M  V30 23755 H 3137.86 1.33049 -9.56592 0
M  V30 23756 H 3140.5 3.57847 -5.23962 0
M  V30 23757 P 3142.36 3.65191 -7.99657 0
M  V30 23758 O 3143.78 3.89332 -8.45794 0
M  V30 23759 O 3142 2.28472 -7.50807 0
M  V30 23760 O 3142.03 4.64972 -6.77611 0
M  V30 23761 C 3141.87 6.06319 -7.16352 0
M  V30 23762 C 3142.41 6.91731 -6.02299 0
M  V30 23763 O 3141.36 6.92449 -5.17064 0
M  V30 23764 C 3143.63 6.43627 -5.25174 0
M  V30 23765 O 3144.37 7.43686 -4.60469 0
M  V30 23766 C 3142.96 5.40275 -4.31916 0
M  V30 23767 O 3143.76 5.25279 -3.14438 0
M  V30 23768 C 3141.63 6.04847 -4.05327 0
M  V30 23769 H 3141.66 6.62195 -3.11261 0
M  V30 23770 H 3142.84 4.42556 -4.81383 0
M  V30 23771 H 3144.33 5.92458 -5.93643 0
M  V30 23772 H 3142.63 7.92655 -6.402 0
M  V30 23773 H 3142.44 6.26671 -8.0846 0
M  V30 23774 H 3140.81 6.29101 -7.32804 0
M  V30 23775 H 3143.45 5.84315 -2.47318 0
M  V30 23776 P 3145.31 7.39546 -4.75277 0
M  V30 23777 O 3146.73 7.84798 -5.01039 0
M  V30 23778 O 3144.95 5.9812 -5.08098 0
M  V30 23779 O 3144.98 7.57503 -3.1866 0
M  V30 23780 C 3144.82 8.97357 -2.74833 0
M  V30 23781 C 3145.36 9.07548 -1.32709 0
M  V30 23782 O 3144.31 8.62072 -0.606159 0
M  V30 23783 C 3146.58 8.25383 -0.938334 0
M  V30 23784 O 3147.32 8.74577 0.146954 0
M  V30 23785 C 3145.91 6.8802 -0.712559 0
M  V30 23786 O 3146.71 6.1189 0.194655 0
M  V30 23787 C 3144.58 7.27966 -0.139777 0
M  V30 23788 H 3144.61 7.25354 0.961601 0
M  V30 23789 H 3145.79 6.32557 -1.65702 0
M  V30 23790 H 3147.28 8.19355 -1.79097 0
M  V30 23791 H 3145.58 10.1294 -1.10029 0
M  V30 23792 H 3145.39 9.64276 -3.41316 0
M  V30 23793 H 3143.76 9.25417 -2.76357 0
M  V30 23794 H 3146.4 6.25267 1.07847 0
M  V30 23795 P 3148.26 8.791 -5.73632e-11 0
M  V30 23796 O 3149.68 9.31096 0.027933 0
M  V30 23797 O 3147.9 7.77869 -1.04071 0
M  V30 23798 O 3147.94 8.09533 1.41463 0
M  V30 23799 C 3147.78 9.0349 2.53943 0
M  V30 23800 C 3148.32 8.35226 3.79016 0
M  V30 23801 O 3147.26 7.57992 4.15078 0
M  V30 23802 C 3149.53 7.45087 3.67298 0
M  V30 23803 O 3150.27 7.27796 4.85194 0
M  V30 23804 C 3148.86 6.17323 3.12027 0
M  V30 23805 O 3149.66 5.04231 3.47188 0
M  V30 23806 C 3147.53 6.19961 3.81809 0
M  V30 23807 H 3147.56 5.58218 4.73051 0
M  V30 23808 H 3148.74 6.21726 2.02589 0
M  V30 23809 H 3150.23 7.86112 2.9231 0
M  V30 23810 H 3148.53 9.11627 4.55076 0
M  V30 23811 H 3148.34 9.9573 2.34194 0
M  V30 23812 H 3146.71 9.2792 2.67832 0
M  V30 23813 H 3149.35 4.67702 4.28772 0
M  V30 23814 P 3151.21 7.39546 4.75277 0
M  V30 23815 O 3152.63 7.81777 5.05738 0
M  V30 23816 O 3150.85 7.1065 3.32998 0
M  V30 23817 O 3150.89 6.04542 5.56673 0
M  V30 23818 C 3150.73 6.22772 7.02095 0
M  V30 23819 C 3151.27 4.97725 7.70406 0
M  V30 23820 O 3150.21 4.13256 7.58987 0
M  V30 23821 C 3152.48 4.28231 7.11815 0
M  V30 23822 O 3153.22 3.49945 8.01648 0
M  V30 23823 C 3151.81 3.5063 5.96244 0
M  V30 23824 O 3152.61 2.36482 5.64681 0
M  V30 23825 C 3150.48 3.15122 6.56374 0
M  V30 23826 H 3150.51 2.13853 6.99751 0
M  V30 23827 H 3151.69 4.13501 5.06559 0
M  V30 23828 H 3153.18 5.03285 6.70911 0
M  V30 23829 H 3151.48 5.20877 8.75697 0
M  V30 23830 H 3151.29 7.11046 7.35349 0
M  V30 23831 H 3149.66 6.35815 7.26986 0
M  V30 23832 H 3152.3 1.61644 6.13565 0
M  V30 23833 P 3154.16 3.65191 7.99657 0
M  V30 23834 O 3155.56 3.90823 8.51272 0
M  V30 23835 O 3153.78 4.23191 6.66972 0
M  V30 23836 O 3153.84 2.07587 7.95046 0
M  V30 23837 C 3153.68 1.44328 9.27336 0
M  V30 23838 C 3154.22 0.0220012 9.17097 0
M  V30 23839 O 3153.16 -0.626794 8.61824 0
M  V30 23840 C 3155.43 -0.24586 8.30336 0
M  V30 23841 O 3156.17 -1.39011 8.63583 0
M  V30 23842 C 3154.77 -0.273849 6.91158 0
M  V30 23843 O 3155.56 -1.06331 6.02794 0
M  V30 23844 C 3153.43 -0.897649 7.22545 0
M  V30 23845 N 3152.39 -0.292839 6.41732 0
M  V30 23846 C 3151.35 -1.08701 5.98712 0
M  V30 23847 O 3151.39 -2.31211 6.24471 0
M  V30 23848 N 3150.34 -0.533391 5.28415 0
M  V30 23849 C 3150.39 0.770866 4.98576 0
M  V30 23850 C 3151.48 1.59049 5.38086 0
M  V30 23851 C 3152.45 1.01866 6.10256 0
M  V30 23852 H 3153.46 -1.98383 7.04189 0
M  V30 23853 H 3154.64 0.733318 6.49674 0
M  V30 23854 H 3156.13 0.598386 8.36663 0
M  V30 23855 H 3154.43 -0.362662 10.1825 0
M  V30 23856 H 3154.24 2.00611 10.0304 0
M  V30 23857 H 3152.61 1.41828 9.55228 0
M  V30 23858 H 3151.53 2.6415 5.10622 0
M  V30 23859 H 3153.29 1.61983 6.44042 0
M  V30 23860 H 3155.35 -1.97777 6.14035 0
M  V30 23861 P 3157.11 -1.25109 8.70152 0
M  V30 23862 O 3158.53 -1.35274 9.21221 0
M  V30 23863 O 3156.75 -0.0769065 7.84762 0
M  V30 23864 O 3156.79 -2.55232 7.81161 0
M  V30 23865 C 3156.63 -3.79939 8.58154 0
M  V30 23866 C 3157.17 -4.94023 7.72785 0
M  V30 23867 O 3156.11 -5.18726 6.91205 0
M  V30 23868 C 3158.38 -4.69597 6.85231 0
M  V30 23869 O 3159.12 -5.83832 6.51337 0
M  V30 23870 C 3157.72 -3.96706 5.66633 0
M  V30 23871 O 3158.51 -4.15414 4.49689 0
M  V30 23872 C 3156.38 -4.66153 5.59313 0
M  V30 23873 H 3156.41 -5.47679 4.85214 0
M  V30 23874 H 3157.59 -2.89008 5.86566 0
M  V30 23875 H 3159.08 -4.0121 7.36511 0
M  V30 23876 H 3157.38 -5.80182 8.37584 0
M  V30 23877 H 3157.19 -3.73517 9.52265 0
M  V30 23878 H 3155.56 -3.97163 8.80359 0
M  V30 23879 H 3158.2 -4.90969 4.01921 0
M  V30 23880 P 3160.06 -5.75688 6.64379 0
M  V30 23881 O 3161.48 -6.11849 7.01846 0
M  V30 23882 O 3159.7 -4.30744 6.56026 0
M  V30 23883 O 3159.74 -6.37042 5.19165 0
M  V30 23884 C 3159.58 -7.83578 5.16515 0
M  V30 23885 C 3160.12 -8.33398 3.83019 0
M  V30 23886 O 3159.06 -8.10074 3.01034 0
M  V30 23887 C 3161.34 -7.65514 3.2257 0
M  V30 23888 O 3162.07 -8.4329 2.32297 0
M  V30 23889 C 3160.67 -6.40075 2.62207 0
M  V30 23890 O 3161.47 -5.92589 1.53712 0
M  V30 23891 C 3159.33 -6.9454 2.18503 0
M  V30 23892 H 3159.36 -7.23063 1.12091 0
M  V30 23893 H 3160.54 -5.6025 3.37201 0
M  V30 23894 H 3162.03 -7.35707 4.02681 0
M  V30 23895 H 3160.33 -9.40912 3.9095 0
M  V30 23896 H 3160.14 -8.29056 5.99158 0
M  V30 23897 H 3158.51 -8.10073 5.25882 0
M  V30 23898 H 3161.15 -6.30324 0.726794 0
M  V30 23899 P 3163.01 -8.4349 2.47671 0
M  V30 23900 O 3164.43 -8.94167 2.5964 0
M  V30 23901 O 3162.65 -7.1704 3.19006 0
M  V30 23902 O 3162.69 -8.16596 0.923387 0
M  V30 23903 C 3162.53 -9.38437 0.108857 0
M  V30 23904 C 3163.07 -9.08175 -1.28353 0
M  V30 23905 O 3162.01 -8.44229 -1.84713 0
M  V30 23906 C 3164.29 -8.18386 -1.42505 0
M  V30 23907 O 3165.02 -8.3501 -2.60497 0
M  V30 23908 C 3163.62 -6.80225 -1.25468 0
M  V30 23909 O 3164.42 -5.81621 -1.91066 0
M  V30 23910 C 3162.28 -7.02416 -1.9168 0
M  V30 23911 H 3162.31 -6.6888 -2.96621 0
M  V30 23912 H 3163.5 -6.53617 -0.192223 0
M  V30 23913 H 3164.98 -8.36622 -0.589963 0
M  V30 23914 H 3163.29 -10.0291 -1.79807 0
M  V30 23915 H 3163.1 -10.2138 0.558219 0
M  V30 23916 H 3161.47 -9.6579 0.0444202 0
M  V30 23917 H 3164.1 -5.69556 -2.79637 0
M  V30 23918 P 3165.96 -8.4349 -2.47671 0
M  V30 23919 O 3167.38 -8.92593 -2.65 0
M  V30 23920 O 3165.6 -7.7568 -1.19296 0
M  V30 23921 O 3165.64 -7.36886 -3.63805 0
M  V30 23922 C 3165.48 -7.95349 -4.982 0
M  V30 23923 C 3166.02 -6.94612 -5.98974 0
M  V30 23924 O 3164.96 -6.10347 -6.11815 0
M  V30 23925 C 3167.24 -6.11426 -5.62335 0
M  V30 23926 O 3167.97 -5.6162 -6.70584 0
M  V30 23927 C 3166.57 -5.04409 -4.73308 0
M  V30 23928 O 3167.37 -3.85992 -4.75183 0
M  V30 23929 C 3165.23 -4.8728 -5.41006 0
M  V30 23930 H 3165.26 -4.02333 -6.11157 0
M  V30 23931 H 3166.45 -5.39466 -3.69543 0
M  V30 23932 H 3167.93 -6.71916 -5.01943 0
M  V30 23933 H 3166.24 -7.4649 -6.93477 0
M  V30 23934 H 3166.05 -8.89416 -5.05237 0
M  V30 23935 H 3164.42 -8.14876 -5.18409 0
M  V30 23936 H 3167.05 -3.27957 -5.4317 0
M  V30 23937 P 3168.91 -5.75688 -6.64379 0
M  V30 23938 O 3170.33 -6.07627 -7.05504 0
M  V30 23939 O 3168.55 -5.88047 -5.19722 0
M  V30 23940 O 3168.59 -4.2322 -7.04443 0
M  V30 23941 C 3168.43 -3.99743 -8.4911 0
M  V30 23942 C 3168.97 -2.60516 -8.79425 0
M  V30 23943 O 3167.91 -1.82684 -8.4467 0
M  V30 23944 C 3170.19 -2.10343 -8.03628 0
M  V30 23945 O 3170.93 -1.09919 -8.67766 0
M  V30 23946 C 3169.52 -1.68446 -6.70876 0
M  V30 23947 O 3170.32 -0.678137 -6.08433 0
M  V30 23948 C 3168.18 -1.17436 -7.18567 0
M  V30 23949 H 3168.21 -0.0804732 -7.31656 0
M  V30 23950 H 3169.4 -2.54037 -6.02537 0
M  V30 23951 H 3170.88 -2.93881 -7.85526 0
M  V30 23952 H 3169.19 -2.53065 -9.86973 0
M  V30 23953 H 3169 -4.75072 -9.05887 0
M  V30 23954 H 3167.37 -4.05244 -8.76668 0
M  V30 23955 H 3170.01 0.177647 -6.34251 0
M  V30 23956 P 3171.86 -1.25109 -8.70152 0
M  V30 23957 O 3173.28 -1.29772 -9.22214 0
M  V30 23958 O 3171.5 -2.13714 -7.55141 0
M  V30 23959 O 3171.54 0.248149 -8.21425 0
M  V30 23960 C 3171.38 1.22779 -9.30434 0
M  V30 23961 C 3171.92 2.56265 -8.80568 0
M  V30 23962 O 3170.86 3.02979 -8.09349 0
M  V30 23963 C 3173.14 2.57523 -7.89775 0
M  V30 23964 O 3173.88 3.7668 -7.89438 0
M  V30 23965 C 3172.47 2.20997 -6.55446 0
M  V30 23966 O 3173.27 2.71851 -5.48419 0
M  V30 23967 C 3171.13 2.89693 -6.67988 0
M  V30 23968 N 3170.09 2.08895 -6.07487 0
M  V30 23969 C 3170.15 0.760559 -6.14209 0
M  V30 23970 N 3169.11 0.200108 -5.52538 0
M  V30 23971 C 3168.37 1.22692 -5.09742 0
M  V30 23972 C 3167.07 1.24782 -4.48775 0
M  V30 23973 O 3166.33 0.290617 -4.19294 0
M  V30 23974 N 3166.64 2.50468 -4.22428 0
M  V30 23975 C 3167.38 3.67142 -4.51974 0
M  V30 23976 N 3166.79 4.85096 -4.14091 0
M  V30 23977 N 3168.54 3.67821 -5.12831 0
M  V30 23978 C 3168.99 2.43698 -5.4105 0
M  V30 23979 H 3171.16 3.88793 -6.19859 0
M  V30 23980 H 3172.35 1.12029 -6.4413 0
M  V30 23981 H 3173.83 1.78279 -8.19533 0
M  V30 23982 H 3172.14 3.20706 -9.67112 0
M  V30 23983 H 3171.95 0.901032 -10.1892 0
M  V30 23984 H 3170.32 1.33049 -9.56592 0
M  V30 23985 H 3165.74 2.61953 -3.79465 0
M  V30 23986 H 3170.95 0.200439 -6.63497 0
M  V30 23987 H 3165.88 4.8334 -3.66367 0
M  V30 23988 H 3167.25 5.7474 -4.33841 0
M  V30 23989 H 3172.96 3.5779 -5.23879 0
M  V30 23990 P 3174.81 3.65191 -7.99657 0
M  V30 23991 O 3176.23 3.89374 -8.45885 0
M  V30 23992 O 3174.45 2.28472 -7.50807 0
M  V30 23993 O 3174.49 4.64972 -6.77611 0
M  V30 23994 C 3174.33 6.06383 -7.16428 0
M  V30 23995 C 3174.87 6.91731 -6.02299 0
M  V30 23996 O 3173.82 6.92369 -5.17005 0
M  V30 23997 C 3176.09 6.43627 -5.25174 0
M  V30 23998 O 3176.83 7.43686 -4.60469 0
M  V30 23999 C 3175.42 5.40275 -4.31916 0
M  V30 24000 O 3176.22 5.24878 -3.14911 0
M  V30 24001 C 3174.08 6.04847 -4.05327 0
M  V30 24002 N 3173.04 5.04166 -3.98114 0
M  V30 24003 C 3173.21 3.84629 -4.59066 0
M  V30 24004 N 3172.18 3.0363 -4.45343 0
M  V30 24005 C 3171.3 3.76722 -3.68523 0
M  V30 24006 C 3170.03 3.43528 -3.17088 0
M  V30 24007 N 3169.43 2.23665 -3.37397 0
M  V30 24008 N 3169.46 4.44526 -2.44231 0
M  V30 24009 C 3170.07 5.65243 -2.20146 0
M  V30 24010 N 3171.24 6.00221 -2.65453 0
M  V30 24011 C 3171.82 5.00564 -3.39083 0
M  V30 24012 H 3174.11 6.62104 -3.11218 0
M  V30 24013 H 3175.3 4.42969 -4.80867 0
M  V30 24014 H 3176.78 5.92458 -5.93643 0
M  V30 24015 H 3175.09 7.93295 -6.39407 0
M  V30 24016 H 3174.9 6.26671 -8.0846 0
M  V30 24017 H 3173.27 6.29101 -7.32804 0
M  V30 24018 H 3169.53 6.36894 -1.5883 0
M  V30 24019 H 3174.11 3.58193 -5.14248 0
M  V30 24020 H 3168.5 2.05145 -2.97047 0
M  V30 24021 H 3169.9 1.51255 -3.92998 0
M  V30 24022 H 3175.91 5.84223 -2.47279 0
M  V30 24023 P 3177.76 7.39546 -4.75277 0
M  V30 24024 O 3179.18 7.84882 -5.01092 0
M  V30 24025 O 3177.4 5.9812 -5.08098 0
M  V30 24026 O 3177.44 7.57503 -3.1866 0
M  V30 24027 C 3177.28 8.97452 -2.74862 0
M  V30 24028 C 3177.82 9.07548 -1.32709 0
M  V30 24029 O 3176.77 8.61972 -0.606089 0
M  V30 24030 C 3179.04 8.25383 -0.938334 0
M  V30 24031 O 3179.78 8.74577 0.146954 0
M  V30 24032 C 3178.37 6.8802 -0.712559 0
M  V30 24033 O 3179.17 6.1181 0.188505 0
M  V30 24034 C 3177.03 7.27966 -0.139777 0
M  V30 24035 N 3175.99 6.39368 -0.623421 0
M  V30 24036 C 3176.16 5.71761 -1.78245 0
M  V30 24037 N 3175.13 4.962 -2.10491 0
M  V30 24038 C 3174.25 5.16158 -1.0635 0
M  V30 24039 C 3172.98 4.60425 -0.810266 0
M  V30 24040 N 3172.41 5.06 0.348685 0
M  V30 24041 C 3173.02 5.94532 1.20395 0
M  V30 24042 N 3174.19 6.48452 1.01191 0
M  V30 24043 C 3174.77 6.04423 -0.146291 0
M  V30 24044 H 3178.25 6.32625 -1.65044 0
M  V30 24045 H 3179.73 8.19355 -1.79097 0
M  V30 24046 H 3178.04 10.1305 -1.09016 0
M  V30 24047 H 3177.85 9.64276 -3.41316 0
M  V30 24048 H 3176.22 9.25417 -2.76357 0
M  V30 24049 H 3177.06 5.79354 -2.38959 0
M  V30 24050 H 3178.86 6.25169 1.0783 0
M  V30 24051 P 3180.71 8.791 -6.25499e-11 0
M  V30 24052 O 3182.14 9.31096 0.027933 0
M  V30 24053 O 3180.35 7.77869 -1.04071 0
M  V30 24054 O 3180.39 8.09533 1.41463 0
M  V30 24055 C 3180.23 9.0349 2.53943 0
M  V30 24056 C 3180.77 8.35226 3.79016 0
M  V30 24057 O 3179.72 7.57992 4.15078 0
M  V30 24058 C 3181.99 7.45087 3.67298 0
M  V30 24059 O 3182.73 7.27796 4.85194 0
M  V30 24060 C 3181.32 6.17323 3.12027 0
M  V30 24061 O 3182.12 5.04231 3.47188 0
M  V30 24062 C 3179.98 6.19961 3.81809 0
M  V30 24063 H 3180.02 5.58218 4.73051 0
M  V30 24064 H 3181.2 6.21726 2.02589 0
M  V30 24065 H 3182.68 7.86112 2.9231 0
M  V30 24066 H 3180.99 9.11627 4.55076 0
M  V30 24067 H 3180.8 9.9573 2.34194 0
M  V30 24068 H 3179.17 9.2792 2.67832 0
M  V30 24069 H 3181.81 4.67702 4.28772 0
M  V30 24070 P 3183.67 7.39546 4.75277 0
M  V30 24071 O 3185.09 7.81945 5.05847 0
M  V30 24072 O 3183.31 7.1065 3.32998 0
M  V30 24073 O 3183.34 6.04542 5.56673 0
M  V30 24074 C 3183.18 6.22772 7.02095 0
M  V30 24075 C 3183.72 4.97671 7.70322 0
M  V30 24076 O 3182.67 4.13256 7.58987 0
M  V30 24077 C 3184.94 4.28231 7.11815 0
M  V30 24078 O 3185.68 3.49945 8.01648 0
M  V30 24079 C 3184.27 3.5063 5.96244 0
M  V30 24080 O 3185.07 2.36443 5.64589 0
M  V30 24081 C 3182.93 3.15122 6.56374 0
M  V30 24082 N 3181.89 3.22311 5.55692 0
M  V30 24083 C 3181.95 4.14382 4.59701 0
M  V30 24084 N 3180.91 4.04476 3.76958 0
M  V30 24085 C 3180.17 3.04892 4.26534 0
M  V30 24086 C 3178.87 2.57447 3.88189 0
M  V30 24087 O 3178.14 2.9785 2.96543 0
M  V30 24088 N 3178.44 1.55228 4.65922 0
M  V30 24089 C 3179.19 1.01152 5.73447 0
M  V30 24090 N 3178.59 -0.0472117 6.37783 0
M  V30 24091 N 3180.34 1.467 6.13813 0
M  V30 24092 C 3180.8 2.4931 5.38487 0
M  V30 24093 H 3182.97 2.13853 6.99751 0
M  V30 24094 H 3184.15 4.13438 5.06482 0
M  V30 24095 H 3185.63 5.02614 6.71414 0
M  V30 24096 H 3183.94 5.20877 8.75697 0
M  V30 24097 H 3183.75 7.11046 7.35349 0
M  V30 24098 H 3182.12 6.35815 7.26986 0
M  V30 24099 H 3177.54 1.15238 4.46468 0
M  V30 24100 H 3182.75 4.88312 4.49647 0
M  V30 24101 H 3177.68 -0.396382 6.05203 0
M  V30 24102 H 3179.06 -0.484997 7.18465 0
M  V30 24103 H 3184.76 1.61619 6.13468 0
M  V30 24104 P 3186.62 3.65191 7.99657 0
M  V30 24105 O 3188.04 3.84333 8.48297 0
M  V30 24106 O 3186.26 4.17805 6.64342 0
M  V30 24107 O 3186.29 2.07613 7.95143 0
M  V30 24108 C 3186.13 1.44328 9.27336 0
M  V30 24109 C 3186.67 0.0220012 9.17097 0
M  V30 24110 O 3185.62 -0.626867 8.61923 0
M  V30 24111 C 3187.89 -0.24586 8.30336 0
M  V30 24112 O 3188.63 -1.39011 8.63583 0
M  V30 24113 C 3187.22 -0.273849 6.91158 0
M  V30 24114 O 3188.02 -1.06331 6.02794 0
M  V30 24115 C 3185.88 -0.897649 7.22545 0
M  V30 24116 N 3184.84 -0.292839 6.41732 0
M  V30 24117 C 3184.9 1.00068 6.10757 0
M  V30 24118 N 3183.86 1.36468 5.35794 0
M  V30 24119 C 3183.12 0.258894 5.2366 0
M  V30 24120 C 3181.82 0.0670682 4.65752 0
M  V30 24121 O 3181.09 0.902443 4.10497 0
M  V30 24122 N 3181.39 -1.2131 4.75881 0
M  V30 24123 C 3182.14 -2.24934 5.37101 0
M  V30 24124 N 3181.54 -3.48783 5.33984 0
M  V30 24125 N 3183.29 -2.0844 5.95684 0
M  V30 24126 C 3183.75 -0.81395 5.87791 0
M  V30 24127 H 3185.92 -1.9841 7.04286 0
M  V30 24128 H 3187.1 0.739815 6.49601 0
M  V30 24129 H 3188.58 0.598315 8.36563 0
M  V30 24130 H 3186.89 -0.352479 10.1829 0
M  V30 24131 H 3186.7 2.00611 10.0304 0
M  V30 24132 H 3185.07 1.41843 9.55327 0
M  V30 24133 H 3180.49 -1.44434 4.37895 0
M  V30 24134 H 3185.7 1.67697 6.42268 0
M  V30 24135 H 3180.63 -3.60543 4.87699 0
M  V30 24136 H 3182.01 -4.29232 5.7819 0
M  V30 24137 H 3187.71 -1.95704 6.0346 0
M  V30 24138 P 3189.57 -1.25109 8.70152 0
M  V30 24139 O 3190.99 -1.35288 9.2132 0
M  V30 24140 O 3189.21 -0.0769065 7.84762 0
M  V30 24141 O 3189.24 -2.55232 7.81161 0
M  V30 24142 C 3189.08 -3.79979 8.58246 0
M  V30 24143 C 3189.62 -4.94023 7.72785 0
M  V30 24144 O 3188.57 -5.18666 6.91125 0
M  V30 24145 C 3190.84 -4.69597 6.85231 0
M  V30 24146 O 3191.58 -5.83832 6.51337 0
M  V30 24147 C 3190.17 -3.96706 5.66633 0
M  V30 24148 O 3190.97 -4.14896 4.5003 0
M  V30 24149 C 3188.84 -4.66153 5.59313 0
M  V30 24150 N 3187.79 -3.71582 5.24027 0
M  V30 24151 C 3187.96 -2.39715 5.48833 0
M  V30 24152 N 3186.93 -1.65863 5.12845 0
M  V30 24153 C 3186.05 -2.57637 4.5973 0
M  V30 24154 C 3184.78 -2.40278 4.01027 0
M  V30 24155 N 3184.18 -1.19549 3.86744 0
M  V30 24156 N 3184.22 -3.57711 3.59575 0
M  V30 24157 C 3184.82 -4.80324 3.70476 0
M  V30 24158 N 3186 -5.01121 4.23801 0
M  V30 24159 C 3186.57 -3.84757 4.66372 0
M  V30 24160 H 3188.87 -5.47604 4.85148 0
M  V30 24161 H 3190.05 -2.8955 5.86187 0
M  V30 24162 H 3191.53 -4.0121 7.36511 0
M  V30 24163 H 3189.84 -5.81019 8.37003 0
M  V30 24164 H 3189.65 -3.73517 9.52265 0
M  V30 24165 H 3188.02 -3.97163 8.80359 0
M  V30 24166 H 3184.28 -5.66348 3.3183 0
M  V30 24167 H 3188.86 -1.98804 5.94332 0
M  V30 24168 H 3183.25 -1.13147 3.4281 0
M  V30 24169 H 3184.66 -0.344074 4.19692 0
M  V30 24170 H 3190.66 -4.90891 4.01857 0
M  V30 24171 P 3192.52 -5.75688 6.64379 0
M  V30 24172 O 3193.94 -6.11849 7.01846 0
M  V30 24173 O 3192.16 -4.30744 6.56026 0
M  V30 24174 O 3192.19 -6.37042 5.19165 0
M  V30 24175 C 3192.03 -7.83578 5.16515 0
M  V30 24176 C 3192.57 -8.33398 3.83019 0
M  V30 24177 O 3191.52 -8.10074 3.01034 0
M  V30 24178 C 3193.79 -7.65514 3.2257 0
M  V30 24179 O 3194.53 -8.4329 2.32297 0
M  V30 24180 C 3193.12 -6.40075 2.62207 0
M  V30 24181 O 3193.92 -5.92589 1.53712 0
M  V30 24182 C 3191.79 -6.9454 2.18503 0
M  V30 24183 H 3191.82 -7.23063 1.12091 0
M  V30 24184 H 3193 -5.6025 3.37201 0
M  V30 24185 H 3194.48 -7.35707 4.02681 0
M  V30 24186 H 3192.79 -9.40912 3.9095 0
M  V30 24187 H 3192.6 -8.29056 5.99158 0
M  V30 24188 H 3190.97 -8.10073 5.25882 0
M  V30 24189 H 3193.61 -6.30324 0.726794 0
M  V30 24190 P 3195.47 -8.4349 2.47671 0
M  V30 24191 O 3196.89 -8.94167 2.5964 0
M  V30 24192 O 3195.11 -7.1704 3.19006 0
M  V30 24193 O 3195.14 -8.16596 0.923387 0
M  V30 24194 C 3194.98 -9.38437 0.108857 0
M  V30 24195 C 3195.52 -9.08175 -1.28353 0
M  V30 24196 O 3194.47 -8.44229 -1.84713 0
M  V30 24197 C 3196.74 -8.18386 -1.42505 0
M  V30 24198 O 3197.48 -8.3501 -2.60497 0
M  V30 24199 C 3196.07 -6.80225 -1.25468 0
M  V30 24200 O 3196.87 -5.81621 -1.91066 0
M  V30 24201 C 3194.74 -7.02416 -1.9168 0
M  V30 24202 H 3194.77 -6.6888 -2.96621 0
M  V30 24203 H 3195.95 -6.53617 -0.192223 0
M  V30 24204 H 3197.44 -8.36622 -0.589963 0
M  V30 24205 H 3195.74 -10.0291 -1.79807 0
M  V30 24206 H 3195.55 -10.2138 0.558219 0
M  V30 24207 H 3193.92 -9.6579 0.0444202 0
M  V30 24208 H 3196.56 -5.69556 -2.79637 0
M  V30 24209 P 3198.42 -8.4349 -2.47671 0
M  V30 24210 O 3199.84 -8.92689 -2.65029 0
M  V30 24211 O 3198.06 -7.7568 -1.19296 0
M  V30 24212 O 3198.09 -7.36886 -3.63805 0
M  V30 24213 C 3197.93 -7.95433 -4.98253 0
M  V30 24214 C 3198.47 -6.94612 -5.98974 0
M  V30 24215 O 3197.42 -6.10277 -6.11744 0
M  V30 24216 C 3199.69 -6.11426 -5.62335 0
M  V30 24217 O 3200.43 -5.6162 -6.70584 0
M  V30 24218 C 3199.02 -5.04409 -4.73308 0
M  V30 24219 O 3199.82 -3.86404 -4.74719 0
M  V30 24220 C 3197.69 -4.8728 -5.41006 0
M  V30 24221 N 3196.64 -4.65812 -4.42377 0
M  V30 24222 C 3196.81 -5.09132 -3.15382 0
M  V30 24223 N 3195.79 -4.84021 -2.3716 0
M  V30 24224 C 3194.9 -4.18386 -3.20441 0
M  V30 24225 C 3193.63 -3.6275 -2.94905 0
M  V30 24226 N 3193.03 -3.65794 -1.73372 0
M  V30 24227 N 3193.07 -3.05008 -4.05243 0
M  V30 24228 C 3193.67 -2.98348 -5.28159 0
M  V30 24229 N 3194.85 -3.48171 -5.56333 0
M  V30 24230 C 3195.42 -4.06869 -4.47212 0
M  V30 24231 H 3197.72 -4.02278 -6.11074 0
M  V30 24232 H 3198.9 -5.39013 -3.70026 0
M  V30 24233 H 3200.38 -6.71916 -5.01943 0
M  V30 24234 H 3198.69 -7.45796 -6.94223 0
M  V30 24235 H 3198.5 -8.89416 -5.05237 0
M  V30 24236 H 3196.87 -8.14876 -5.18409 0
M  V30 24237 H 3193.13 -2.47853 -6.07807 0
M  V30 24238 H 3197.71 -5.59989 -2.81362 0
M  V30 24239 H 3192.1 -3.23218 -1.60782 0
M  V30 24240 H 3193.51 -4.10523 -0.937856 0
M  V30 24241 H 3199.51 -3.27906 -5.43085 0
M  V30 24242 P 3201.37 -5.75688 -6.64379 0
M  V30 24243 O 3202.79 -6.07627 -7.05504 0
M  V30 24244 O 3201.01 -5.88047 -5.19722 0
M  V30 24245 O 3201.05 -4.2322 -7.04443 0
M  V30 24246 C 3200.89 -3.99743 -8.4911 0
M  V30 24247 C 3201.43 -2.60516 -8.79425 0
M  V30 24248 O 3200.37 -1.82684 -8.4467 0
M  V30 24249 C 3202.64 -2.10343 -8.03628 0
M  V30 24250 O 3203.38 -1.09919 -8.67766 0
M  V30 24251 C 3201.97 -1.68446 -6.70876 0
M  V30 24252 O 3202.77 -0.678137 -6.08433 0
M  V30 24253 C 3200.64 -1.17436 -7.18567 0
M  V30 24254 H 3200.67 -0.0804732 -7.31656 0
M  V30 24255 H 3201.85 -2.54037 -6.02537 0
M  V30 24256 H 3203.34 -2.93881 -7.85526 0
M  V30 24257 H 3201.64 -2.53065 -9.86973 0
M  V30 24258 H 3201.45 -4.75072 -9.05887 0
M  V30 24259 H 3199.82 -4.05244 -8.76668 0
M  V30 24260 H 3202.46 0.177647 -6.34251 0
M  V30 24261 P 3204.32 -1.25109 -8.70152 0
M  V30 24262 O 3205.74 -1.29758 -9.22115 0
M  V30 24263 O 3203.96 -2.13714 -7.55141 0
M  V30 24264 O 3204 0.248149 -8.21425 0
M  V30 24265 C 3203.84 1.22792 -9.30533 0
M  V30 24266 C 3204.38 2.56293 -8.80664 0
M  V30 24267 O 3203.32 3.02944 -8.09255 0
M  V30 24268 C 3205.59 2.57523 -7.89775 0
M  V30 24269 O 3206.33 3.7668 -7.89438 0
M  V30 24270 C 3204.93 2.20997 -6.55446 0
M  V30 24271 O 3205.72 2.71302 -5.48691 0
M  V30 24272 C 3203.59 2.89693 -6.67988 0
M  V30 24273 N 3202.55 2.08895 -6.07487 0
M  V30 24274 C 3202.71 0.753809 -5.94137 0
M  V30 24275 N 3201.69 0.146592 -5.38801 0
M  V30 24276 C 3200.8 1.1768 -5.13693 0
M  V30 24277 C 3199.54 1.17563 -4.52477 0
M  V30 24278 N 3198.97 2.41918 -4.45789 0
M  V30 24279 C 3199.57 3.56493 -4.90792 0
M  V30 24280 N 3200.75 3.61423 -5.47817 0
M  V30 24281 C 3201.32 2.37779 -5.5588 0
M  V30 24282 H 3204.8 1.12673 -6.44018 0
M  V30 24283 H 3206.29 1.7746 -8.19711 0
M  V30 24284 H 3204.59 3.21673 -9.66791 0
M  V30 24285 H 3204.4 0.901032 -10.1892 0
M  V30 24286 H 3202.77 1.33049 -9.56592 0
M  V30 24287 H 3203.61 0.233081 -6.26266 0
M  V30 24288 H 3205.41 3.5779 -5.23879 0
M  V30 24289 P 3207.27 3.65191 -7.99657 0
M  V30 24290 O 3208.69 3.89332 -8.45794 0
M  V30 24291 O 3206.91 2.28472 -7.50807 0
M  V30 24292 O 3206.95 4.64972 -6.77611 0
M  V30 24293 C 3206.79 6.06319 -7.16352 0
M  V30 24294 C 3207.33 6.91731 -6.02299 0
M  V30 24295 O 3206.27 6.92449 -5.17064 0
M  V30 24296 C 3208.54 6.43627 -5.25174 0
M  V30 24297 O 3209.28 7.43686 -4.60469 0
M  V30 24298 C 3207.88 5.40275 -4.31916 0
M  V30 24299 O 3208.67 5.25279 -3.14438 0
M  V30 24300 C 3206.54 6.04847 -4.05327 0
M  V30 24301 H 3206.57 6.62195 -3.11261 0
M  V30 24302 H 3207.75 4.42556 -4.81383 0
M  V30 24303 H 3209.24 5.92458 -5.93643 0
M  V30 24304 H 3207.54 7.92655 -6.402 0
M  V30 24305 H 3207.35 6.26671 -8.0846 0
M  V30 24306 H 3205.72 6.29101 -7.32804 0
M  V30 24307 H 3208.36 5.84315 -2.47318 0
M  V30 24308 P 3210.22 7.39546 -4.75277 0
M  V30 24309 O 3211.64 7.84882 -5.01092 0
M  V30 24310 O 3209.86 5.9812 -5.08098 0
M  V30 24311 O 3209.9 7.57503 -3.1866 0
M  V30 24312 C 3209.74 8.97452 -2.74862 0
M  V30 24313 C 3210.28 9.07548 -1.32709 0
M  V30 24314 O 3209.22 8.61972 -0.606089 0
M  V30 24315 C 3211.5 8.25383 -0.938334 0
M  V30 24316 O 3212.23 8.74577 0.146954 0
M  V30 24317 C 3210.83 6.8802 -0.712559 0
M  V30 24318 O 3211.63 6.1181 0.188505 0
M  V30 24319 C 3209.49 7.27966 -0.139777 0
M  V30 24320 N 3208.45 6.39368 -0.623421 0
M  V30 24321 C 3208.62 5.71761 -1.78245 0
M  V30 24322 N 3207.59 4.962 -2.10491 0
M  V30 24323 C 3206.7 5.16158 -1.0635 0
M  V30 24324 C 3205.44 4.60425 -0.810266 0
M  V30 24325 N 3204.84 3.7057 -1.62914 0
M  V30 24326 N 3204.87 5.06 0.348685 0
M  V30 24327 C 3205.47 5.94532 1.20395 0
M  V30 24328 N 3206.65 6.48452 1.01191 0
M  V30 24329 C 3207.23 6.04423 -0.146291 0
M  V30 24330 H 3209.52 7.25255 0.961469 0
M  V30 24331 H 3210.7 6.32625 -1.65044 0
M  V30 24332 H 3212.19 8.19355 -1.79097 0
M  V30 24333 H 3210.49 10.1305 -1.09016 0
M  V30 24334 H 3210.3 9.64276 -3.41316 0
M  V30 24335 H 3208.67 9.25417 -2.76357 0
M  V30 24336 H 3204.94 6.21659 2.10714 0
M  V30 24337 H 3209.52 5.79354 -2.38959 0
M  V30 24338 H 3203.91 3.33174 -1.38982 0
M  V30 24339 H 3205.31 3.39714 -2.48836 0
M  V30 24340 H 3211.31 6.25169 1.0783 0
M  V30 24341 P 3213.17 8.791 -6.77365e-11 0
M  V30 24342 O 3214.59 9.31096 0.027933 0
M  V30 24343 O 3212.81 7.77869 -1.04071 0
M  V30 24344 O 3212.85 8.09533 1.41463 0
M  V30 24345 C 3212.69 9.0349 2.53943 0
M  V30 24346 C 3213.23 8.35226 3.79016 0
M  V30 24347 O 3212.17 7.57992 4.15078 0
M  V30 24348 C 3214.45 7.45087 3.67298 0
M  V30 24349 O 3215.18 7.27796 4.85194 0
M  V30 24350 C 3213.78 6.17323 3.12027 0
M  V30 24351 O 3214.58 5.04231 3.47188 0
M  V30 24352 C 3212.44 6.19961 3.81809 0
M  V30 24353 H 3212.47 5.58218 4.73051 0
M  V30 24354 H 3213.65 6.21726 2.02589 0
M  V30 24355 H 3215.14 7.86112 2.9231 0
M  V30 24356 H 3213.44 9.11627 4.55076 0
M  V30 24357 H 3213.25 9.9573 2.34194 0
M  V30 24358 H 3211.62 9.2792 2.67832 0
M  V30 24359 H 3214.26 4.67702 4.28772 0
M  V30 24360 P 3216.12 7.39546 4.75277 0
M  V30 24361 O 3217.54 7.81777 5.05738 0
M  V30 24362 O 3215.76 7.1065 3.32998 0
M  V30 24363 O 3215.8 6.04542 5.56673 0
M  V30 24364 C 3215.64 6.22772 7.02095 0
M  V30 24365 C 3216.18 4.97725 7.70406 0
M  V30 24366 O 3215.12 4.13256 7.58987 0
M  V30 24367 C 3217.4 4.28231 7.11815 0
M  V30 24368 O 3218.13 3.49945 8.01648 0
M  V30 24369 C 3216.73 3.5063 5.96244 0
M  V30 24370 O 3217.53 2.36482 5.64681 0
M  V30 24371 C 3215.39 3.15122 6.56374 0
M  V30 24372 H 3215.42 2.13853 6.99751 0
M  V30 24373 H 3216.61 4.13501 5.06559 0
M  V30 24374 H 3218.09 5.03285 6.70911 0
M  V30 24375 H 3216.4 5.20877 8.75697 0
M  V30 24376 H 3216.21 7.11046 7.35349 0
M  V30 24377 H 3214.58 6.35815 7.26986 0
M  V30 24378 H 3217.21 1.61644 6.13565 0
M  V30 24379 P 3219.07 3.65191 7.99657 0
M  V30 24380 O 3220.49 3.84333 8.48297 0
M  V30 24381 O 3218.71 4.17805 6.64342 0
M  V30 24382 O 3218.75 2.07613 7.95143 0
M  V30 24383 C 3218.59 1.44328 9.27336 0
M  V30 24384 C 3219.13 0.0220012 9.17097 0
M  V30 24385 O 3218.07 -0.626867 8.61923 0
M  V30 24386 C 3220.35 -0.24586 8.30336 0
M  V30 24387 O 3221.08 -1.39011 8.63583 0
M  V30 24388 C 3219.68 -0.273849 6.91158 0
M  V30 24389 O 3220.48 -1.06331 6.02794 0
M  V30 24390 C 3218.34 -0.897649 7.22545 0
M  V30 24391 N 3217.3 -0.292839 6.41732 0
M  V30 24392 C 3217.36 1.00068 6.10757 0
M  V30 24393 N 3216.31 1.36468 5.35794 0
M  V30 24394 C 3215.58 0.258894 5.2366 0
M  V30 24395 C 3214.27 0.0670682 4.65752 0
M  V30 24396 O 3213.54 0.902443 4.10497 0
M  V30 24397 N 3213.84 -1.2131 4.75881 0
M  V30 24398 C 3214.59 -2.24934 5.37101 0
M  V30 24399 N 3214 -3.48783 5.33984 0
M  V30 24400 N 3215.75 -2.0844 5.95684 0
M  V30 24401 C 3216.2 -0.81395 5.87791 0
M  V30 24402 H 3218.37 -1.9841 7.04286 0
M  V30 24403 H 3219.56 0.739815 6.49601 0
M  V30 24404 H 3221.04 0.598315 8.36563 0
M  V30 24405 H 3219.35 -0.352479 10.1829 0
M  V30 24406 H 3219.16 2.00611 10.0304 0
M  V30 24407 H 3217.52 1.41843 9.55327 0
M  V30 24408 H 3212.95 -1.44434 4.37895 0
M  V30 24409 H 3218.16 1.67697 6.42268 0
M  V30 24410 H 3213.09 -3.60543 4.87699 0
M  V30 24411 H 3214.46 -4.29232 5.7819 0
M  V30 24412 H 3220.17 -1.95704 6.0346 0
M  V30 24413 P 3222.02 -1.25109 8.70152 0
M  V30 24414 O 3223.42 -1.31452 9.27431 0
M  V30 24415 O 3221.64 -0.0458113 7.89887 0
M  V30 24416 O 3221.7 -2.55201 7.81066 0
M  V30 24417 C 3221.54 -3.79939 8.58154 0
M  V30 24418 C 3222.08 -4.93969 7.72701 0
M  V30 24419 O 3221.02 -5.18666 6.91125 0
M  V30 24420 C 3223.3 -4.69597 6.85231 0
M  V30 24421 O 3224.04 -5.83832 6.51337 0
M  V30 24422 C 3222.63 -3.96706 5.66633 0
M  V30 24423 O 3223.43 -4.15346 4.49615 0
M  V30 24424 C 3221.29 -4.66153 5.59313 0
M  V30 24425 N 3220.25 -3.71582 5.24027 0
M  V30 24426 C 3219.21 -4.15133 4.44901 0
M  V30 24427 O 3219.25 -5.32122 4.00336 0
M  V30 24428 N 3218.2 -3.30554 4.15693 0
M  V30 24429 C 3218.25 -2.04701 4.61105 0
M  V30 24430 C 3219.35 -1.57111 5.38655 0
M  V30 24431 C 3220.31 -2.44234 5.68454 0
M  V30 24432 H 3221.32 -5.47604 4.85148 0
M  V30 24433 H 3222.51 -2.8955 5.86187 0
M  V30 24434 H 3223.99 -4.01995 7.36197 0
M  V30 24435 H 3222.3 -5.81019 8.37003 0
M  V30 24436 H 3222.11 -3.73517 9.52265 0
M  V30 24437 H 3220.48 -3.97122 8.80267 0
M  V30 24438 H 3219.39 -0.538464 5.72373 0
M  V30 24439 H 3221.16 -2.11927 6.29377 0
M  V30 24440 H 3223.21 -4.98352 4.09633 0
M  V30 24441 P 3224.97 -5.75688 6.64379 0
M  V30 24442 O 3226.4 -6.11849 7.01846 0
M  V30 24443 O 3224.61 -4.30744 6.56026 0
M  V30 24444 O 3224.65 -6.37042 5.19165 0
M  V30 24445 C 3224.49 -7.83578 5.16515 0
M  V30 24446 C 3225.03 -8.33398 3.83019 0
M  V30 24447 O 3223.97 -8.10074 3.01034 0
M  V30 24448 C 3226.25 -7.65514 3.2257 0
M  V30 24449 O 3226.99 -8.4329 2.32297 0
M  V30 24450 C 3225.58 -6.40075 2.62207 0
M  V30 24451 O 3226.38 -5.92589 1.53712 0
M  V30 24452 C 3224.24 -6.9454 2.18503 0
M  V30 24453 H 3224.27 -7.23063 1.12091 0
M  V30 24454 H 3225.46 -5.6025 3.37201 0
M  V30 24455 H 3226.94 -7.35707 4.02681 0
M  V30 24456 H 3225.25 -9.40912 3.9095 0
M  V30 24457 H 3225.06 -8.29056 5.99158 0
M  V30 24458 H 3223.43 -8.10073 5.25882 0
M  V30 24459 H 3226.07 -6.30324 0.726794 0
M  V30 24460 P 3227.92 -8.4349 2.47671 0
M  V30 24461 O 3229.35 -8.94167 2.5964 0
M  V30 24462 O 3227.56 -7.1704 3.19006 0
M  V30 24463 O 3227.6 -8.16596 0.923387 0
M  V30 24464 C 3227.44 -9.38437 0.108857 0
M  V30 24465 C 3227.98 -9.08175 -1.28353 0
M  V30 24466 O 3226.92 -8.44229 -1.84713 0
M  V30 24467 C 3229.2 -8.18386 -1.42505 0
M  V30 24468 O 3229.94 -8.3501 -2.60497 0
M  V30 24469 C 3228.53 -6.80225 -1.25468 0
M  V30 24470 O 3229.33 -5.81621 -1.91066 0
M  V30 24471 C 3227.19 -7.02416 -1.9168 0
M  V30 24472 H 3227.22 -6.6888 -2.96621 0
M  V30 24473 H 3228.41 -6.53617 -0.192223 0
M  V30 24474 H 3229.89 -8.36622 -0.589963 0
M  V30 24475 H 3228.2 -10.0291 -1.79807 0
M  V30 24476 H 3228.01 -10.2138 0.558219 0
M  V30 24477 H 3226.38 -9.6579 0.0444202 0
M  V30 24478 H 3229.02 -5.69556 -2.79637 0
M  V30 24479 P 3230.87 -8.4349 -2.47671 0
M  V30 24480 O 3232.3 -8.92689 -2.65029 0
M  V30 24481 O 3230.51 -7.7568 -1.19296 0
M  V30 24482 O 3230.55 -7.36886 -3.63805 0
M  V30 24483 C 3230.39 -7.95433 -4.98253 0
M  V30 24484 C 3230.93 -6.94612 -5.98974 0
M  V30 24485 O 3229.88 -6.10277 -6.11744 0
M  V30 24486 C 3232.15 -6.11426 -5.62335 0
M  V30 24487 O 3232.89 -5.6162 -6.70584 0
M  V30 24488 C 3231.48 -5.04409 -4.73308 0
M  V30 24489 O 3232.28 -3.86404 -4.74719 0
M  V30 24490 C 3230.14 -4.8728 -5.41006 0
M  V30 24491 N 3229.1 -4.65812 -4.42377 0
M  V30 24492 C 3229.27 -5.09132 -3.15382 0
M  V30 24493 N 3228.24 -4.84021 -2.3716 0
M  V30 24494 C 3227.36 -4.18386 -3.20441 0
M  V30 24495 C 3226.09 -3.6275 -2.94905 0
M  V30 24496 N 3225.53 -3.05008 -4.05243 0
M  V30 24497 C 3226.13 -2.98348 -5.28159 0
M  V30 24498 N 3227.3 -3.48171 -5.56333 0
M  V30 24499 C 3227.88 -4.06869 -4.47212 0
M  V30 24500 H 3231.36 -5.39013 -3.70026 0
M  V30 24501 H 3232.84 -6.71916 -5.01943 0
M  V30 24502 H 3231.15 -7.45796 -6.94223 0
M  V30 24503 H 3230.96 -8.89416 -5.05237 0
M  V30 24504 H 3229.33 -8.14876 -5.18409 0
M  V30 24505 H 3230.17 -5.59989 -2.81362 0
M  V30 24506 H 3231.97 -3.27906 -5.43085 0
M  V30 24507 P 3233.82 -5.75688 -6.64379 0
M  V30 24508 O 3235.25 -6.07627 -7.05504 0
M  V30 24509 O 3233.46 -5.88047 -5.19722 0
M  V30 24510 O 3233.5 -4.2322 -7.04443 0
M  V30 24511 C 3233.34 -3.99743 -8.4911 0
M  V30 24512 C 3233.88 -2.60516 -8.79425 0
M  V30 24513 O 3232.83 -1.82684 -8.4467 0
M  V30 24514 C 3235.1 -2.10343 -8.03628 0
M  V30 24515 O 3235.84 -1.09919 -8.67766 0
M  V30 24516 C 3234.43 -1.68446 -6.70876 0
M  V30 24517 O 3235.23 -0.678137 -6.08433 0
M  V30 24518 C 3233.09 -1.17436 -7.18567 0
M  V30 24519 H 3233.13 -0.0804732 -7.31656 0
M  V30 24520 H 3234.31 -2.54037 -6.02537 0
M  V30 24521 H 3235.79 -2.93881 -7.85526 0
M  V30 24522 H 3234.1 -2.53065 -9.86973 0
M  V30 24523 H 3233.91 -4.75072 -9.05887 0
M  V30 24524 H 3232.28 -4.05244 -8.76668 0
M  V30 24525 H 3234.92 0.177647 -6.34251 0
M  V30 24526 P 3236.78 -1.25109 -8.70152 0
M  V30 24527 O 3238.2 -1.29744 -9.22016 0
M  V30 24528 O 3236.42 -2.13714 -7.55141 0
M  V30 24529 O 3236.45 0.248149 -8.21425 0
M  V30 24530 C 3236.29 1.22779 -9.30434 0
M  V30 24531 C 3236.83 2.56293 -8.80664 0
M  V30 24532 O 3235.78 3.02979 -8.09349 0
M  V30 24533 C 3238.05 2.57523 -7.89775 0
M  V30 24534 O 3238.79 3.7668 -7.89438 0
M  V30 24535 C 3237.38 2.20997 -6.55446 0
M  V30 24536 O 3238.18 2.71895 -5.48509 0
M  V30 24537 C 3236.04 2.89693 -6.67988 0
M  V30 24538 H 3236.08 3.88793 -6.19859 0
M  V30 24539 H 3237.26 1.12046 -6.44229 0
M  V30 24540 H 3238.74 1.7746 -8.19711 0
M  V30 24541 H 3237.05 3.20706 -9.67112 0
M  V30 24542 H 3236.86 0.901032 -10.1892 0
M  V30 24543 H 3235.23 1.33049 -9.56592 0
M  V30 24544 H 3237.87 3.57847 -5.23962 0
M  V30 24545 P 3239.73 3.65191 -7.99657 0
M  V30 24546 O 3241.15 3.89332 -8.45794 0
M  V30 24547 O 3239.37 2.28472 -7.50807 0
M  V30 24548 O 3239.4 4.64972 -6.77611 0
M  V30 24549 C 3239.24 6.06319 -7.16352 0
M  V30 24550 C 3239.78 6.91731 -6.02299 0
M  V30 24551 O 3238.73 6.92449 -5.17064 0
M  V30 24552 C 3241 6.43627 -5.25174 0
M  V30 24553 O 3241.74 7.43686 -4.60469 0
M  V30 24554 C 3240.33 5.40275 -4.31916 0
M  V30 24555 O 3241.13 5.25279 -3.14438 0
M  V30 24556 C 3238.99 6.04847 -4.05327 0
M  V30 24557 H 3239.03 6.62195 -3.11261 0
M  V30 24558 H 3240.21 4.42556 -4.81383 0
M  V30 24559 H 3241.69 5.92458 -5.93643 0
M  V30 24560 H 3240 7.92655 -6.402 0
M  V30 24561 H 3239.81 6.26671 -8.0846 0
M  V30 24562 H 3238.18 6.29101 -7.32804 0
M  V30 24563 H 3240.82 5.84315 -2.47318 0
M  V30 24564 P 3242.68 7.39546 -4.75277 0
M  V30 24565 O 3244.1 7.84798 -5.01039 0
M  V30 24566 O 3242.32 5.9812 -5.08098 0
M  V30 24567 O 3242.35 7.57503 -3.1866 0
M  V30 24568 C 3242.19 8.97357 -2.74833 0
M  V30 24569 C 3242.73 9.07548 -1.32709 0
M  V30 24570 O 3241.68 8.62072 -0.606159 0
M  V30 24571 C 3243.95 8.25383 -0.938334 0
M  V30 24572 O 3244.69 8.74577 0.146954 0
M  V30 24573 C 3243.28 6.8802 -0.712559 0
M  V30 24574 O 3244.08 6.1189 0.194655 0
M  V30 24575 C 3241.95 7.27966 -0.139777 0
M  V30 24576 H 3241.98 7.25354 0.961601 0
M  V30 24577 H 3243.16 6.32557 -1.65702 0
M  V30 24578 H 3244.64 8.19355 -1.79097 0
M  V30 24579 H 3242.95 10.1294 -1.10029 0
M  V30 24580 H 3242.76 9.64276 -3.41316 0
M  V30 24581 H 3241.13 9.25417 -2.76357 0
M  V30 24582 H 3243.77 6.25267 1.07847 0
M  V30 24583 P 3245.63 8.791 -7.29232e-11 0
M  V30 24584 O 3247.05 9.31096 0.027933 0
M  V30 24585 O 3245.27 7.77869 -1.04071 0
M  V30 24586 O 3245.3 8.09533 1.41463 0
M  V30 24587 C 3245.14 9.0349 2.53943 0
M  V30 24588 C 3245.68 8.35226 3.79016 0
M  V30 24589 O 3244.63 7.57992 4.15078 0
M  V30 24590 C 3246.9 7.45087 3.67298 0
M  V30 24591 O 3247.64 7.27796 4.85194 0
M  V30 24592 C 3246.23 6.17323 3.12027 0
M  V30 24593 O 3247.03 5.04231 3.47188 0
M  V30 24594 C 3244.9 6.19961 3.81809 0
M  V30 24595 H 3244.93 5.58218 4.73051 0
M  V30 24596 H 3246.11 6.21726 2.02589 0
M  V30 24597 H 3247.59 7.86112 2.9231 0
M  V30 24598 H 3245.9 9.11627 4.55076 0
M  V30 24599 H 3245.71 9.9573 2.34194 0
M  V30 24600 H 3244.08 9.2792 2.67832 0
M  V30 24601 H 3246.72 4.67702 4.28772 0
M  V30 24602 P 3248.58 7.39546 4.75277 0
M  V30 24603 O 3250 7.81777 5.05738 0
M  V30 24604 O 3248.22 7.1065 3.32998 0
M  V30 24605 O 3248.25 6.04542 5.56673 0
M  V30 24606 C 3248.09 6.22772 7.02095 0
M  V30 24607 C 3248.63 4.97725 7.70406 0
M  V30 24608 O 3247.58 4.13256 7.58987 0
M  V30 24609 C 3249.85 4.28231 7.11815 0
M  V30 24610 O 3250.59 3.49945 8.01648 0
M  V30 24611 C 3249.18 3.5063 5.96244 0
M  V30 24612 O 3249.98 2.36482 5.64681 0
M  V30 24613 C 3247.85 3.15122 6.56374 0
M  V30 24614 H 3247.88 2.13853 6.99751 0
M  V30 24615 H 3249.06 4.13501 5.06559 0
M  V30 24616 H 3250.55 5.03285 6.70911 0
M  V30 24617 H 3248.85 5.20877 8.75697 0
M  V30 24618 H 3248.66 7.11046 7.35349 0
M  V30 24619 H 3247.03 6.35815 7.26986 0
M  V30 24620 H 3249.67 1.61644 6.13565 0
M  V30 24621 P 3251.53 3.65191 7.99657 0
M  V30 24622 O 3252.95 3.8425 8.48115 0
M  V30 24623 O 3251.17 4.17805 6.64342 0
M  V30 24624 O 3251.21 2.07613 7.95143 0
M  V30 24625 C 3251.05 1.44328 9.27336 0
M  V30 24626 C 3251.59 0.0220036 9.17197 0
M  V30 24627 O 3250.53 -0.626867 8.61923 0
M  V30 24628 C 3252.8 -0.24586 8.30336 0
M  V30 24629 O 3253.54 -1.39011 8.63583 0
M  V30 24630 C 3252.13 -0.273849 6.91158 0
M  V30 24631 O 3252.93 -1.06348 6.02892 0
M  V30 24632 C 3250.8 -0.897649 7.22545 0
M  V30 24633 H 3250.83 -1.9841 7.04286 0
M  V30 24634 H 3252.01 0.739928 6.497 0
M  V30 24635 H 3253.5 0.60668 8.36503 0
M  V30 24636 H 3251.8 -0.352479 10.1829 0
M  V30 24637 H 3251.61 2.00611 10.0304 0
M  V30 24638 H 3249.98 1.41843 9.55327 0
M  V30 24639 H 3252.62 -1.95734 6.03555 0
M  V30 24640 P 3254.48 -1.25109 8.70152 0
M  V30 24641 O 3255.9 -1.35274 9.21221 0
M  V30 24642 O 3254.12 -0.0769065 7.84762 0
M  V30 24643 O 3254.16 -2.55232 7.81161 0
M  V30 24644 C 3254 -3.79939 8.58154 0
M  V30 24645 C 3254.54 -4.94023 7.72785 0
M  V30 24646 O 3253.48 -5.18726 6.91205 0
M  V30 24647 C 3255.75 -4.69597 6.85231 0
M  V30 24648 O 3256.49 -5.83832 6.51337 0
M  V30 24649 C 3255.08 -3.96706 5.66633 0
M  V30 24650 O 3255.88 -4.15414 4.49689 0
M  V30 24651 C 3253.75 -4.66153 5.59313 0
M  V30 24652 H 3253.78 -5.47679 4.85214 0
M  V30 24653 H 3254.96 -2.89008 5.86566 0
M  V30 24654 H 3256.45 -4.0121 7.36511 0
M  V30 24655 H 3254.75 -5.80182 8.37584 0
M  V30 24656 H 3254.56 -3.73517 9.52265 0
M  V30 24657 H 3252.93 -3.97163 8.80359 0
M  V30 24658 H 3255.57 -4.90969 4.01921 0
M  V30 24659 P 3257.43 -5.75688 6.64379 0
M  V30 24660 O 3258.85 -6.11849 7.01846 0
M  V30 24661 O 3257.07 -4.30744 6.56026 0
M  V30 24662 O 3257.11 -6.37042 5.19165 0
M  V30 24663 C 3256.95 -7.83578 5.16515 0
M  V30 24664 C 3257.49 -8.33398 3.83019 0
M  V30 24665 O 3256.43 -8.10074 3.01034 0
M  V30 24666 C 3258.7 -7.65514 3.2257 0
M  V30 24667 O 3259.44 -8.4329 2.32297 0
M  V30 24668 C 3258.04 -6.40075 2.62207 0
M  V30 24669 O 3258.83 -5.92589 1.53712 0
M  V30 24670 C 3256.7 -6.9454 2.18503 0
M  V30 24671 H 3256.73 -7.23063 1.12091 0
M  V30 24672 H 3257.91 -5.6025 3.37201 0
M  V30 24673 H 3259.4 -7.35707 4.02681 0
M  V30 24674 H 3257.7 -9.40912 3.9095 0
M  V30 24675 H 3257.51 -8.29056 5.99158 0
M  V30 24676 H 3255.88 -8.10073 5.25882 0
M  V30 24677 H 3258.52 -6.30324 0.726794 0
M  V30 24678 P 3260.38 -8.4349 2.47671 0
M  V30 24679 O 3261.8 -8.94167 2.5964 0
M  V30 24680 O 3260.02 -7.1704 3.19006 0
M  V30 24681 O 3260.06 -8.16596 0.923387 0
M  V30 24682 C 3259.9 -9.38437 0.108857 0
M  V30 24683 C 3260.44 -9.08175 -1.28353 0
M  V30 24684 O 3259.38 -8.44229 -1.84713 0
M  V30 24685 C 3261.65 -8.18386 -1.42505 0
M  V30 24686 O 3262.39 -8.3501 -2.60497 0
M  V30 24687 C 3260.99 -6.80225 -1.25468 0
M  V30 24688 O 3261.78 -5.81621 -1.91066 0
M  V30 24689 C 3259.65 -7.02416 -1.9168 0
M  V30 24690 H 3259.68 -6.6888 -2.96621 0
M  V30 24691 H 3260.86 -6.53617 -0.192223 0
M  V30 24692 H 3262.35 -8.36622 -0.589963 0
M  V30 24693 H 3260.65 -10.0291 -1.79807 0
M  V30 24694 H 3260.46 -10.2138 0.558219 0
M  V30 24695 H 3258.83 -9.6579 0.0444202 0
M  V30 24696 H 3261.47 -5.69556 -2.79637 0
M  V30 24697 P 3263.33 -8.4349 -2.47671 0
M  V30 24698 O 3264.75 -8.92593 -2.65 0
M  V30 24699 O 3262.97 -7.7568 -1.19296 0
M  V30 24700 O 3263.01 -7.36886 -3.63805 0
M  V30 24701 C 3262.85 -7.95349 -4.982 0
M  V30 24702 C 3263.39 -6.94612 -5.98974 0
M  V30 24703 O 3262.33 -6.10347 -6.11815 0
M  V30 24704 C 3264.61 -6.11426 -5.62335 0
M  V30 24705 O 3265.34 -5.6162 -6.70584 0
M  V30 24706 C 3263.94 -5.04409 -4.73308 0
M  V30 24707 O 3264.74 -3.85992 -4.75183 0
M  V30 24708 C 3262.6 -4.8728 -5.41006 0
M  V30 24709 H 3262.63 -4.02333 -6.11157 0
M  V30 24710 H 3263.81 -5.39466 -3.69543 0
M  V30 24711 H 3265.3 -6.71916 -5.01943 0
M  V30 24712 H 3263.6 -7.4649 -6.93477 0
M  V30 24713 H 3263.41 -8.89416 -5.05237 0
M  V30 24714 H 3261.78 -8.14876 -5.18409 0
M  V30 24715 H 3264.42 -3.27957 -5.4317 0
M  V30 24716 P 3266.28 -5.75688 -6.64379 0
M  V30 24717 O 3267.7 -6.07692 -7.0558 0
M  V30 24718 O 3265.92 -5.88047 -5.19722 0
M  V30 24719 O 3265.96 -4.2322 -7.04443 0
M  V30 24720 C 3265.8 -3.99785 -8.49201 0
M  V30 24721 C 3266.34 -2.60516 -8.79425 0
M  V30 24722 O 3265.28 -1.82663 -8.44573 0
M  V30 24723 C 3267.56 -2.10343 -8.03628 0
M  V30 24724 O 3268.29 -1.09919 -8.67766 0
M  V30 24725 C 3266.89 -1.68446 -6.70876 0
M  V30 24726 O 3267.69 -0.684109 -6.08265 0
M  V30 24727 C 3265.55 -1.17436 -7.18567 0
M  V30 24728 N 3264.51 -1.52699 -6.23988 0
M  V30 24729 C 3264.68 -2.578 -5.40574 0
M  V30 24730 N 3263.65 -2.78966 -4.61193 0
M  V30 24731 C 3262.76 -1.78725 -4.95769 0
M  V30 24732 C 3261.5 -1.45727 -4.44207 0
M  V30 24733 N 3260.93 -0.374977 -5.05812 0
M  V30 24734 C 3261.53 0.345585 -6.05615 0
M  V30 24735 N 3262.71 0.0787651 -6.56253 0
M  V30 24736 C 3263.29 -1.00499 -5.96189 0
M  V30 24737 H 3266.76 -2.53396 -6.02698 0
M  V30 24738 H 3268.25 -2.93881 -7.85526 0
M  V30 24739 H 3266.55 -2.52078 -9.87225 0
M  V30 24740 H 3266.36 -4.75072 -9.05887 0
M  V30 24741 H 3264.73 -4.05244 -8.76668 0
M  V30 24742 H 3265.58 -3.18977 -5.3945 0
M  V30 24743 H 3267.37 0.177619 -6.34151 0
M  V30 24744 P 3269.23 -1.25109 -8.70152 0
M  V30 24745 O 3270.65 -1.29744 -9.22016 0
M  V30 24746 O 3268.87 -2.13714 -7.55141 0
M  V30 24747 O 3268.91 0.248149 -8.21425 0
M  V30 24748 C 3268.75 1.22779 -9.30434 0
M  V30 24749 C 3269.29 2.56293 -8.80664 0
M  V30 24750 O 3268.23 3.02979 -8.09349 0
M  V30 24751 C 3270.51 2.57523 -7.89775 0
M  V30 24752 O 3271.24 3.7668 -7.89438 0
M  V30 24753 C 3269.84 2.20997 -6.55446 0
M  V30 24754 O 3270.64 2.71895 -5.48509 0
M  V30 24755 C 3268.5 2.89693 -6.67988 0
M  V30 24756 H 3268.53 3.88793 -6.19859 0
M  V30 24757 H 3269.72 1.12046 -6.44229 0
M  V30 24758 H 3271.2 1.7746 -8.19711 0
M  V30 24759 H 3269.51 3.20706 -9.67112 0
M  V30 24760 H 3269.32 0.901032 -10.1892 0
M  V30 24761 H 3267.69 1.33049 -9.56592 0
M  V30 24762 H 3270.32 3.57847 -5.23962 0
M  V30 24763 P 3272.18 3.65191 -7.99657 0
M  V30 24764 O 3273.6 3.89374 -8.45885 0
M  V30 24765 O 3271.82 2.28472 -7.50807 0
M  V30 24766 O 3271.86 4.64972 -6.77611 0
M  V30 24767 C 3271.7 6.06383 -7.16428 0
M  V30 24768 C 3272.24 6.91731 -6.02299 0
M  V30 24769 O 3271.18 6.92369 -5.17005 0
M  V30 24770 C 3273.46 6.43627 -5.25174 0
M  V30 24771 O 3274.2 7.43686 -4.60469 0
M  V30 24772 C 3272.79 5.40275 -4.31916 0
M  V30 24773 O 3273.59 5.24878 -3.14911 0
M  V30 24774 C 3271.45 6.04847 -4.05327 0
M  V30 24775 N 3270.41 5.04166 -3.98114 0
M  V30 24776 C 3270.58 3.84629 -4.59066 0
M  V30 24777 N 3269.55 3.0363 -4.45343 0
M  V30 24778 C 3268.67 3.76722 -3.68523 0
M  V30 24779 C 3267.4 3.43528 -3.17088 0
M  V30 24780 N 3266.8 2.23665 -3.37397 0
M  V30 24781 N 3266.83 4.44526 -2.44231 0
M  V30 24782 C 3267.44 5.65243 -2.20146 0
M  V30 24783 N 3268.61 6.00221 -2.65453 0
M  V30 24784 C 3269.19 5.00564 -3.39083 0
M  V30 24785 H 3271.48 6.62104 -3.11218 0
M  V30 24786 H 3272.67 4.42969 -4.80867 0
M  V30 24787 H 3274.15 5.92458 -5.93643 0
M  V30 24788 H 3272.46 7.93295 -6.39407 0
M  V30 24789 H 3272.27 6.26671 -8.0846 0
M  V30 24790 H 3270.64 6.29101 -7.32804 0
M  V30 24791 H 3266.9 6.36894 -1.5883 0
M  V30 24792 H 3271.48 3.58193 -5.14248 0
M  V30 24793 H 3265.87 2.05145 -2.97047 0
M  V30 24794 H 3267.27 1.51255 -3.92998 0
M  V30 24795 H 3273.28 5.84223 -2.47279 0
M  V30 24796 P 3275.13 7.39546 -4.75277 0
M  V30 24797 O 3276.55 7.84798 -5.01039 0
M  V30 24798 O 3274.77 5.9812 -5.08098 0
M  V30 24799 O 3274.81 7.57503 -3.1866 0
M  V30 24800 C 3274.65 8.97357 -2.74833 0
M  V30 24801 C 3275.19 9.07548 -1.32709 0
M  V30 24802 O 3274.13 8.62072 -0.606159 0
M  V30 24803 C 3276.41 8.25383 -0.938334 0
M  V30 24804 O 3277.15 8.74577 0.146954 0
M  V30 24805 C 3275.74 6.8802 -0.712559 0
M  V30 24806 O 3276.54 6.1189 0.194655 0
M  V30 24807 C 3274.4 7.27966 -0.139777 0
M  V30 24808 H 3274.43 7.25354 0.961601 0
M  V30 24809 H 3275.62 6.32557 -1.65702 0
M  V30 24810 H 3277.1 8.19355 -1.79097 0
M  V30 24811 H 3275.41 10.1294 -1.10029 0
M  V30 24812 H 3275.22 9.64276 -3.41316 0
M  V30 24813 H 3273.59 9.25417 -2.76357 0
M  V30 24814 H 3276.23 6.25267 1.07847 0
M  V30 24815 P 3278.08 8.791 -7.81098e-11 0
M  V30 24816 O 3279.48 9.36698 -0.018734 0
M  V30 24817 O 3277.71 7.82499 -1.07878 0
M  V30 24818 O 3277.76 8.09434 1.41446 0
M  V30 24819 C 3277.6 9.0349 2.53943 0
M  V30 24820 C 3278.14 8.35135 3.78975 0
M  V30 24821 O 3277.08 7.57904 4.1503 0
M  V30 24822 C 3279.36 7.45087 3.67298 0
M  V30 24823 O 3280.1 7.27796 4.85194 0
M  V30 24824 C 3278.69 6.17323 3.12027 0
M  V30 24825 O 3279.49 5.04149 3.47132 0
M  V30 24826 C 3277.35 6.19961 3.81809 0
M  V30 24827 N 3276.31 5.71575 2.93223 0
M  V30 24828 C 3275.27 4.99452 3.47592 0
M  V30 24829 O 3275.31 4.7199 4.69732 0
M  V30 24830 N 3274.26 4.58505 2.6803 0
M  V30 24831 C 3274.31 4.85544 1.36995 0
M  V30 24832 N 3273.3 4.45052 0.609031 0
M  V30 24833 C 3275.41 5.55532 0.788532 0
M  V30 24834 C 3276.37 5.97426 1.60849 0
M  V30 24835 H 3277.38 5.58142 4.72986 0
M  V30 24836 H 3278.57 6.21428 2.0318 0
M  V30 24837 H 3280.05 7.85913 2.93131 0
M  V30 24838 H 3278.36 9.11171 4.55987 0
M  V30 24839 H 3278.17 9.9573 2.34194 0
M  V30 24840 H 3276.54 9.27824 2.67805 0
M  V30 24841 H 3275.45 5.7421 -0.281588 0
M  V30 24842 H 3277.22 6.53132 1.202 0
M  V30 24843 H 3272.51 3.94123 1.03159 0
M  V30 24844 H 3273.31 4.64377 -0.400352 0
M  V30 24845 H 3279.27 4.76386 4.34983 0
M  V30 24846 P 3281.03 7.39546 4.75277 0
M  V30 24847 O 3282.46 7.81945 5.05847 0
M  V30 24848 O 3280.67 7.1065 3.32998 0
M  V30 24849 O 3280.71 6.04542 5.56673 0
M  V30 24850 C 3280.55 6.22772 7.02095 0
M  V30 24851 C 3281.09 4.97671 7.70322 0
M  V30 24852 O 3280.04 4.13256 7.58987 0
M  V30 24853 C 3282.31 4.28231 7.11815 0
M  V30 24854 O 3283.05 3.49945 8.01648 0
M  V30 24855 C 3281.64 3.5063 5.96244 0
M  V30 24856 O 3282.44 2.36443 5.64589 0
M  V30 24857 C 3280.3 3.15122 6.56374 0
M  V30 24858 N 3279.26 3.22311 5.55692 0
M  V30 24859 C 3279.32 4.14382 4.59701 0
M  V30 24860 N 3278.28 4.04476 3.76958 0
M  V30 24861 C 3277.54 3.04892 4.26534 0
M  V30 24862 C 3276.24 2.57447 3.88189 0
M  V30 24863 O 3275.5 2.9785 2.96543 0
M  V30 24864 N 3275.81 1.55228 4.65922 0
M  V30 24865 C 3276.56 1.01152 5.73447 0
M  V30 24866 N 3275.96 -0.0472117 6.37783 0
M  V30 24867 N 3277.71 1.467 6.13813 0
M  V30 24868 C 3278.17 2.4931 5.38487 0
M  V30 24869 H 3280.33 2.13853 6.99751 0
M  V30 24870 H 3281.52 4.13438 5.06482 0
M  V30 24871 H 3283 5.02614 6.71414 0
M  V30 24872 H 3281.31 5.20877 8.75697 0
M  V30 24873 H 3281.12 7.11046 7.35349 0
M  V30 24874 H 3279.49 6.35815 7.26986 0
M  V30 24875 H 3274.91 1.15238 4.46468 0
M  V30 24876 H 3280.12 4.88312 4.49647 0
M  V30 24877 H 3275.05 -0.396382 6.05203 0
M  V30 24878 H 3276.42 -0.484997 7.18465 0
M  V30 24879 H 3282.13 1.61619 6.13468 0
M  V30 24880 P 3283.98 3.65191 7.99657 0
M  V30 24881 O 3285.41 3.8425 8.48115 0
M  V30 24882 O 3283.62 4.17805 6.64342 0
M  V30 24883 O 3283.66 2.07613 7.95143 0
M  V30 24884 C 3283.5 1.44328 9.27336 0
M  V30 24885 C 3284.04 0.0220036 9.17197 0
M  V30 24886 O 3282.99 -0.626867 8.61923 0
M  V30 24887 C 3285.26 -0.24586 8.30336 0
M  V30 24888 O 3286 -1.39011 8.63583 0
M  V30 24889 C 3284.59 -0.273849 6.91158 0
M  V30 24890 O 3285.39 -1.06348 6.02892 0
M  V30 24891 C 3283.25 -0.897649 7.22545 0
M  V30 24892 H 3283.29 -1.9841 7.04286 0
M  V30 24893 H 3284.47 0.739928 6.497 0
M  V30 24894 H 3285.95 0.60668 8.36503 0
M  V30 24895 H 3284.26 -0.352479 10.1829 0
M  V30 24896 H 3284.07 2.00611 10.0304 0
M  V30 24897 H 3282.44 1.41843 9.55327 0
M  V30 24898 H 3285.08 -1.95734 6.03555 0
M  V30 24899 P 3286.93 -1.25109 8.70152 0
M  V30 24900 O 3288.36 -1.35274 9.21221 0
M  V30 24901 O 3286.57 -0.0769065 7.84762 0
M  V30 24902 O 3286.61 -2.55232 7.81161 0
M  V30 24903 C 3286.45 -3.79939 8.58154 0
M  V30 24904 C 3286.99 -4.94023 7.72785 0
M  V30 24905 O 3285.94 -5.18726 6.91205 0
M  V30 24906 C 3288.21 -4.69597 6.85231 0
M  V30 24907 O 3288.95 -5.83832 6.51337 0
M  V30 24908 C 3287.54 -3.96706 5.66633 0
M  V30 24909 O 3288.34 -4.15414 4.49689 0
M  V30 24910 C 3286.2 -4.66153 5.59313 0
M  V30 24911 H 3286.24 -5.47679 4.85214 0
M  V30 24912 H 3287.42 -2.89008 5.86566 0
M  V30 24913 H 3288.9 -4.0121 7.36511 0
M  V30 24914 H 3287.21 -5.80182 8.37584 0
M  V30 24915 H 3287.02 -3.73517 9.52265 0
M  V30 24916 H 3285.39 -3.97163 8.80359 0
M  V30 24917 H 3288.03 -4.90969 4.01921 0
M  V30 24918 P 3289.89 -5.75688 6.64379 0
M  V30 24919 O 3291.31 -6.11849 7.01846 0
M  V30 24920 O 3289.53 -4.30744 6.56026 0
M  V30 24921 O 3289.56 -6.37042 5.19165 0
M  V30 24922 C 3289.4 -7.83578 5.16515 0
M  V30 24923 C 3289.94 -8.33398 3.83019 0
M  V30 24924 O 3288.89 -8.10074 3.01034 0
M  V30 24925 C 3291.16 -7.65514 3.2257 0
M  V30 24926 O 3291.9 -8.4329 2.32297 0
M  V30 24927 C 3290.49 -6.40075 2.62207 0
M  V30 24928 O 3291.29 -5.92589 1.53712 0
M  V30 24929 C 3289.15 -6.9454 2.18503 0
M  V30 24930 H 3289.19 -7.23063 1.12091 0
M  V30 24931 H 3290.37 -5.6025 3.37201 0
M  V30 24932 H 3291.85 -7.35707 4.02681 0
M  V30 24933 H 3290.16 -9.40912 3.9095 0
M  V30 24934 H 3289.97 -8.29056 5.99158 0
M  V30 24935 H 3288.34 -8.10073 5.25882 0
M  V30 24936 H 3290.98 -6.30324 0.726794 0
M  V30 24937 P 3292.84 -8.4349 2.47671 0
M  V30 24938 O 3294.24 -8.98227 2.65696 0
M  V30 24939 O 3292.46 -7.20409 3.23964 0
M  V30 24940 O 3292.51 -8.16496 0.923275 0
M  V30 24941 C 3292.35 -9.38437 0.108857 0
M  V30 24942 C 3292.89 -9.08076 -1.28339 0
M  V30 24943 O 3291.84 -8.44131 -1.84692 0
M  V30 24944 C 3294.11 -8.18386 -1.42505 0
M  V30 24945 O 3294.85 -8.3501 -2.60497 0
M  V30 24946 C 3293.44 -6.80225 -1.25468 0
M  V30 24947 O 3294.24 -5.81526 -1.91035 0
M  V30 24948 C 3292.11 -7.02416 -1.9168 0
M  V30 24949 N 3291.06 -6.31033 -1.20314 0
M  V30 24950 C 3290.03 -5.77149 -1.928 0
M  V30 24951 O 3290.07 -5.8521 -3.17729 0
M  V30 24952 N 3289.02 -5.15445 -1.27997 0
M  V30 24953 C 3289.06 -5.04472 0.0534726 0
M  V30 24954 C 3290.16 -5.55244 0.808522 0
M  V30 24955 C 3291.13 -6.18542 0.13981 0
M  V30 24956 H 3292.14 -6.68789 -2.9658 0
M  V30 24957 H 3293.32 -6.53498 -0.198729 0
M  V30 24958 H 3294.8 -8.36663 -0.5984 0
M  V30 24959 H 3293.11 -10.0273 -1.8081 0
M  V30 24960 H 3292.92 -10.2138 0.558219 0
M  V30 24961 H 3291.29 -9.6569 0.0444156 0
M  V30 24962 H 3290.21 -5.43017 1.88792 0
M  V30 24963 H 3291.97 -6.60539 0.686773 0
M  V30 24964 H 3294.03 -5.79638 -2.8315 0
M  V30 24965 P 3295.79 -8.4349 -2.47671 0
M  V30 24966 O 3297.21 -8.92593 -2.65 0
M  V30 24967 O 3295.43 -7.7568 -1.19296 0
M  V30 24968 O 3295.46 -7.36886 -3.63805 0
M  V30 24969 C 3295.3 -7.95349 -4.982 0
M  V30 24970 C 3295.84 -6.94612 -5.98974 0
M  V30 24971 O 3294.79 -6.10347 -6.11815 0
M  V30 24972 C 3297.06 -6.11426 -5.62335 0
M  V30 24973 O 3297.8 -5.6162 -6.70584 0
M  V30 24974 C 3296.39 -5.04409 -4.73308 0
M  V30 24975 O 3297.19 -3.85992 -4.75183 0
M  V30 24976 C 3295.06 -4.8728 -5.41006 0
M  V30 24977 H 3295.09 -4.02333 -6.11157 0
M  V30 24978 H 3296.27 -5.39466 -3.69543 0
M  V30 24979 H 3297.75 -6.71916 -5.01943 0
M  V30 24980 H 3296.06 -7.4649 -6.93477 0
M  V30 24981 H 3295.87 -8.89416 -5.05237 0
M  V30 24982 H 3294.24 -8.14876 -5.18409 0
M  V30 24983 H 3296.88 -3.27957 -5.4317 0
M  V30 24984 P 3298.74 -5.75688 -6.64379 0
M  V30 24985 O 3300.16 -6.07627 -7.05504 0
M  V30 24986 O 3298.38 -5.88047 -5.19722 0
M  V30 24987 O 3298.41 -4.2322 -7.04443 0
M  V30 24988 C 3298.25 -3.99743 -8.4911 0
M  V30 24989 C 3298.79 -2.60516 -8.79425 0
M  V30 24990 O 3297.74 -1.82684 -8.4467 0
M  V30 24991 C 3300.01 -2.10343 -8.03628 0
M  V30 24992 O 3300.75 -1.09919 -8.67766 0
M  V30 24993 C 3299.34 -1.68446 -6.70876 0
M  V30 24994 O 3300.14 -0.678137 -6.08433 0
M  V30 24995 C 3298.01 -1.17436 -7.18567 0
M  V30 24996 H 3298.04 -0.0804732 -7.31656 0
M  V30 24997 H 3299.22 -2.54037 -6.02537 0
M  V30 24998 H 3300.71 -2.93881 -7.85526 0
M  V30 24999 H 3299.01 -2.53065 -9.86973 0
M  V30 25000 H 3298.82 -4.75072 -9.05887 0
M  V30 25001 H 3297.19 -4.05244 -8.76668 0
M  V30 25002 H 3299.83 0.177647 -6.34251 0
M  V30 25003 P 3301.69 -1.25109 -8.70152 0
M  V30 25004 O 3303.11 -1.29744 -9.22016 0
M  V30 25005 O 3301.33 -2.13714 -7.55141 0
M  V30 25006 O 3301.36 0.248149 -8.21425 0
M  V30 25007 C 3301.2 1.22779 -9.30434 0
M  V30 25008 C 3301.74 2.56293 -8.80664 0
M  V30 25009 O 3300.69 3.02979 -8.09349 0
M  V30 25010 C 3302.96 2.57523 -7.89775 0
M  V30 25011 O 3303.7 3.7668 -7.89438 0
M  V30 25012 C 3302.29 2.20997 -6.55446 0
M  V30 25013 O 3303.09 2.71895 -5.48509 0
M  V30 25014 C 3300.96 2.89693 -6.67988 0
M  V30 25015 H 3300.99 3.88793 -6.19859 0
M  V30 25016 H 3302.17 1.12046 -6.44229 0
M  V30 25017 H 3303.66 1.7746 -8.19711 0
M  V30 25018 H 3301.96 3.20706 -9.67112 0
M  V30 25019 H 3301.77 0.901032 -10.1892 0
M  V30 25020 H 3300.14 1.33049 -9.56592 0
M  V30 25021 H 3302.78 3.57847 -5.23962 0
M  V30 25022 P 3304.64 3.65191 -7.99657 0
M  V30 25023 O 3306.06 3.89332 -8.45794 0
M  V30 25024 O 3304.28 2.28472 -7.50807 0
M  V30 25025 O 3304.32 4.64972 -6.77611 0
M  V30 25026 C 3304.16 6.06319 -7.16352 0
M  V30 25027 C 3304.7 6.91731 -6.02299 0
M  V30 25028 O 3303.64 6.92449 -5.17064 0
M  V30 25029 C 3305.91 6.43627 -5.25174 0
M  V30 25030 O 3306.65 7.43686 -4.60469 0
M  V30 25031 C 3305.24 5.40275 -4.31916 0
M  V30 25032 O 3306.04 5.25279 -3.14438 0
M  V30 25033 C 3303.91 6.04847 -4.05327 0
M  V30 25034 H 3303.94 6.62195 -3.11261 0
M  V30 25035 H 3305.12 4.42556 -4.81383 0
M  V30 25036 H 3306.61 5.92458 -5.93643 0
M  V30 25037 H 3304.91 7.92655 -6.402 0
M  V30 25038 H 3304.72 6.26671 -8.0846 0
M  V30 25039 H 3303.09 6.29101 -7.32804 0
M  V30 25040 H 3305.73 5.84315 -2.47318 0
M  V30 25041 P 3307.59 7.39546 -4.75277 0
M  V30 25042 O 3309.01 7.84798 -5.01039 0
M  V30 25043 O 3307.23 5.9812 -5.08098 0
M  V30 25044 O 3307.27 7.57503 -3.1866 0
M  V30 25045 C 3307.11 8.97357 -2.74833 0
M  V30 25046 C 3307.65 9.07548 -1.32709 0
M  V30 25047 O 3306.59 8.62072 -0.606159 0
M  V30 25048 C 3308.86 8.25383 -0.938334 0
M  V30 25049 O 3309.6 8.74577 0.146954 0
M  V30 25050 C 3308.19 6.8802 -0.712559 0
M  V30 25051 O 3308.99 6.1189 0.194655 0
M  V30 25052 C 3306.86 7.27966 -0.139777 0
M  V30 25053 H 3306.89 7.25354 0.961601 0
M  V30 25054 H 3308.07 6.32557 -1.65702 0
M  V30 25055 H 3309.56 8.19355 -1.79097 0
M  V30 25056 H 3307.86 10.1294 -1.10029 0
M  V30 25057 H 3307.67 9.64276 -3.41316 0
M  V30 25058 H 3306.04 9.25417 -2.76357 0
M  V30 25059 H 3308.68 6.25267 1.07847 0
M  V30 25060 P 3310.54 8.791 -8.32965e-11 0
M  V30 25061 O 3311.96 9.31096 0.027933 0
M  V30 25062 O 3310.18 7.77869 -1.04071 0
M  V30 25063 O 3310.22 8.09533 1.41463 0
M  V30 25064 C 3310.06 9.0349 2.53943 0
M  V30 25065 C 3310.6 8.35226 3.79016 0
M  V30 25066 O 3309.54 7.57992 4.15078 0
M  V30 25067 C 3311.81 7.45087 3.67298 0
M  V30 25068 O 3312.55 7.27796 4.85194 0
M  V30 25069 C 3311.15 6.17323 3.12027 0
M  V30 25070 O 3311.94 5.04231 3.47188 0
M  V30 25071 C 3309.81 6.19961 3.81809 0
M  V30 25072 H 3309.84 5.58218 4.73051 0
M  V30 25073 H 3311.02 6.21726 2.02589 0
M  V30 25074 H 3312.51 7.86112 2.9231 0
M  V30 25075 H 3310.81 9.11627 4.55076 0
M  V30 25076 H 3310.62 9.9573 2.34194 0
M  V30 25077 H 3308.99 9.2792 2.67832 0
M  V30 25078 H 3311.63 4.67702 4.28772 0
M  V30 25079 P 3313.49 7.39546 4.75277 0
M  V30 25080 O 3314.91 7.81777 5.05738 0
M  V30 25081 O 3313.13 7.1065 3.32998 0
M  V30 25082 O 3313.17 6.04542 5.56673 0
M  V30 25083 C 3313.01 6.22772 7.02095 0
M  V30 25084 C 3313.55 4.97725 7.70406 0
M  V30 25085 O 3312.49 4.13256 7.58987 0
M  V30 25086 C 3314.77 4.28231 7.11815 0
M  V30 25087 O 3315.5 3.49945 8.01648 0
M  V30 25088 C 3314.1 3.5063 5.96244 0
M  V30 25089 O 3314.9 2.36482 5.64681 0
M  V30 25090 C 3312.76 3.15122 6.56374 0
M  V30 25091 H 3312.79 2.13853 6.99751 0
M  V30 25092 H 3313.97 4.13501 5.06559 0
M  V30 25093 H 3315.46 5.03285 6.70911 0
M  V30 25094 H 3313.76 5.20877 8.75697 0
M  V30 25095 H 3313.57 7.11046 7.35349 0
M  V30 25096 H 3311.94 6.35815 7.26986 0
M  V30 25097 H 3314.58 1.61644 6.13565 0
M  V30 25098 P 3316.44 3.65191 7.99657 0
M  V30 25099 O 3317.86 3.8425 8.48115 0
M  V30 25100 O 3316.08 4.17805 6.64342 0
M  V30 25101 O 3316.12 2.07613 7.95143 0
M  V30 25102 C 3315.96 1.44328 9.27336 0
M  V30 25103 C 3316.5 0.0220036 9.17197 0
M  V30 25104 O 3315.44 -0.626867 8.61923 0
M  V30 25105 C 3317.72 -0.24586 8.30336 0
M  V30 25106 O 3318.45 -1.39011 8.63583 0
M  V30 25107 C 3317.05 -0.273849 6.91158 0
M  V30 25108 O 3317.85 -1.06348 6.02892 0
M  V30 25109 C 3315.71 -0.897649 7.22545 0
M  V30 25110 H 3315.74 -1.9841 7.04286 0
M  V30 25111 H 3316.92 0.739928 6.497 0
M  V30 25112 H 3318.41 0.60668 8.36503 0
M  V30 25113 H 3316.71 -0.352479 10.1829 0
M  V30 25114 H 3316.52 2.00611 10.0304 0
M  V30 25115 H 3314.89 1.41843 9.55327 0
M  V30 25116 H 3317.53 -1.95734 6.03555 0
M  V30 25117 P 3319.39 -1.25109 8.70152 0
M  V30 25118 O 3320.81 -1.35274 9.21221 0
M  V30 25119 O 3319.03 -0.0769065 7.84762 0
M  V30 25120 O 3319.07 -2.55232 7.81161 0
M  V30 25121 C 3318.91 -3.79939 8.58154 0
M  V30 25122 C 3319.45 -4.94023 7.72785 0
M  V30 25123 O 3318.39 -5.18726 6.91205 0
M  V30 25124 C 3320.67 -4.69597 6.85231 0
M  V30 25125 O 3321.4 -5.83832 6.51337 0
M  V30 25126 C 3320 -3.96706 5.66633 0
M  V30 25127 O 3320.8 -4.15414 4.49689 0
M  V30 25128 C 3318.66 -4.66153 5.59313 0
M  V30 25129 H 3318.69 -5.47679 4.85214 0
M  V30 25130 H 3319.88 -2.89008 5.86566 0
M  V30 25131 H 3321.36 -4.0121 7.36511 0
M  V30 25132 H 3319.67 -5.80182 8.37584 0
M  V30 25133 H 3319.48 -3.73517 9.52265 0
M  V30 25134 H 3317.85 -3.97163 8.80359 0
M  V30 25135 H 3320.48 -4.90969 4.01921 0
M  V30 25136 P 3322.34 -5.75688 6.64379 0
M  V30 25137 O 3323.76 -6.11849 7.01846 0
M  V30 25138 O 3321.98 -4.30744 6.56026 0
M  V30 25139 O 3322.02 -6.37042 5.19165 0
M  V30 25140 C 3321.86 -7.83578 5.16515 0
M  V30 25141 C 3322.4 -8.33398 3.83019 0
M  V30 25142 O 3321.34 -8.10074 3.01034 0
M  V30 25143 C 3323.62 -7.65514 3.2257 0
M  V30 25144 O 3324.35 -8.4329 2.32297 0
M  V30 25145 C 3322.95 -6.40075 2.62207 0
M  V30 25146 O 3323.75 -5.92589 1.53712 0
M  V30 25147 C 3321.61 -6.9454 2.18503 0
M  V30 25148 H 3321.64 -7.23063 1.12091 0
M  V30 25149 H 3322.83 -5.6025 3.37201 0
M  V30 25150 H 3324.31 -7.35707 4.02681 0
M  V30 25151 H 3322.62 -9.40912 3.9095 0
M  V30 25152 H 3322.43 -8.29056 5.99158 0
M  V30 25153 H 3320.8 -8.10073 5.25882 0
M  V30 25154 H 3323.43 -6.30324 0.726794 0
M  V30 25155 P 3325.29 -8.4349 2.47671 0
M  V30 25156 O 3326.71 -8.94167 2.5964 0
M  V30 25157 O 3324.93 -7.1704 3.19006 0
M  V30 25158 O 3324.97 -8.16596 0.923387 0
M  V30 25159 C 3324.81 -9.38437 0.108857 0
M  V30 25160 C 3325.35 -9.08175 -1.28353 0
M  V30 25161 O 3324.29 -8.44229 -1.84713 0
M  V30 25162 C 3326.57 -8.18386 -1.42505 0
M  V30 25163 O 3327.31 -8.3501 -2.60497 0
M  V30 25164 C 3325.9 -6.80225 -1.25468 0
M  V30 25165 O 3326.7 -5.81621 -1.91066 0
M  V30 25166 C 3324.56 -7.02416 -1.9168 0
M  V30 25167 H 3324.59 -6.6888 -2.96621 0
M  V30 25168 H 3325.78 -6.53617 -0.192223 0
M  V30 25169 H 3327.26 -8.36622 -0.589963 0
M  V30 25170 H 3325.57 -10.0291 -1.79807 0
M  V30 25171 H 3325.38 -10.2138 0.558219 0
M  V30 25172 H 3323.75 -9.6579 0.0444202 0
M  V30 25173 H 3326.39 -5.69556 -2.79637 0
M  V30 25174 P 3328.24 -8.4349 -2.47671 0
M  V30 25175 O 3329.66 -8.92593 -2.65 0
M  V30 25176 O 3327.88 -7.7568 -1.19296 0
M  V30 25177 O 3327.92 -7.36886 -3.63805 0
M  V30 25178 C 3327.76 -7.95349 -4.982 0
M  V30 25179 C 3328.3 -6.94612 -5.98974 0
M  V30 25180 O 3327.24 -6.10347 -6.11815 0
M  V30 25181 C 3329.52 -6.11426 -5.62335 0
M  V30 25182 O 3330.26 -5.6162 -6.70584 0
M  V30 25183 C 3328.85 -5.04409 -4.73308 0
M  V30 25184 O 3329.65 -3.85992 -4.75183 0
M  V30 25185 C 3327.51 -4.8728 -5.41006 0
M  V30 25186 H 3327.54 -4.02333 -6.11157 0
M  V30 25187 H 3328.73 -5.39466 -3.69543 0
M  V30 25188 H 3330.21 -6.71916 -5.01943 0
M  V30 25189 H 3328.52 -7.4649 -6.93477 0
M  V30 25190 H 3328.33 -8.89416 -5.05237 0
M  V30 25191 H 3326.7 -8.14876 -5.18409 0
M  V30 25192 H 3329.34 -3.27957 -5.4317 0
M  V30 25193 P 3331.19 -5.75688 -6.64379 0
M  V30 25194 O 3332.61 -6.07692 -7.0558 0
M  V30 25195 O 3330.83 -5.88047 -5.19722 0
M  V30 25196 O 3330.87 -4.2322 -7.04443 0
M  V30 25197 C 3330.71 -3.99785 -8.49201 0
M  V30 25198 C 3331.25 -2.60516 -8.79425 0
M  V30 25199 O 3330.2 -1.82663 -8.44573 0
M  V30 25200 C 3332.47 -2.10343 -8.03628 0
M  V30 25201 O 3333.21 -1.09919 -8.67766 0
M  V30 25202 C 3331.8 -1.68446 -6.70876 0
M  V30 25203 O 3332.6 -0.684109 -6.08265 0
M  V30 25204 C 3330.46 -1.17436 -7.18567 0
M  V30 25205 N 3329.42 -1.52699 -6.23988 0
M  V30 25206 C 3329.59 -2.578 -5.40574 0
M  V30 25207 N 3328.56 -2.78966 -4.61193 0
M  V30 25208 C 3327.68 -1.78725 -4.95769 0
M  V30 25209 C 3326.41 -1.45727 -4.44207 0
M  V30 25210 N 3325.84 -0.374977 -5.05812 0
M  V30 25211 C 3326.45 0.345585 -6.05615 0
M  V30 25212 N 3327.62 0.0787651 -6.56253 0
M  V30 25213 C 3328.2 -1.00499 -5.96189 0
M  V30 25214 H 3331.68 -2.53396 -6.02698 0
M  V30 25215 H 3333.16 -2.93881 -7.85526 0
M  V30 25216 H 3331.47 -2.52078 -9.87225 0
M  V30 25217 H 3331.28 -4.75072 -9.05887 0
M  V30 25218 H 3329.65 -4.05244 -8.76668 0
M  V30 25219 H 3330.49 -3.18977 -5.3945 0
M  V30 25220 H 3332.29 0.177619 -6.34151 0
M  V30 25221 P 3334.14 -1.25109 -8.70152 0
M  V30 25222 O 3335.57 -1.29744 -9.22016 0
M  V30 25223 O 3333.78 -2.13714 -7.55141 0
M  V30 25224 O 3333.82 0.248149 -8.21425 0
M  V30 25225 C 3333.66 1.22779 -9.30434 0
M  V30 25226 C 3334.2 2.56293 -8.80664 0
M  V30 25227 O 3333.15 3.02979 -8.09349 0
M  V30 25228 C 3335.42 2.57523 -7.89775 0
M  V30 25229 O 3336.16 3.7668 -7.89438 0
M  V30 25230 C 3334.75 2.20997 -6.55446 0
M  V30 25231 O 3335.55 2.71895 -5.48509 0
M  V30 25232 C 3333.41 2.89693 -6.67988 0
M  V30 25233 H 3333.45 3.88793 -6.19859 0
M  V30 25234 H 3334.63 1.12046 -6.44229 0
M  V30 25235 H 3336.11 1.7746 -8.19711 0
M  V30 25236 H 3334.42 3.20706 -9.67112 0
M  V30 25237 H 3334.23 0.901032 -10.1892 0
M  V30 25238 H 3332.6 1.33049 -9.56592 0
M  V30 25239 H 3335.24 3.57847 -5.23962 0
M  V30 25240 P 3337.09 3.65191 -7.99657 0
M  V30 25241 O 3338.52 3.89332 -8.45794 0
M  V30 25242 O 3336.73 2.28472 -7.50807 0
M  V30 25243 O 3336.77 4.64972 -6.77611 0
M  V30 25244 C 3336.61 6.06319 -7.16352 0
M  V30 25245 C 3337.15 6.91731 -6.02299 0
M  V30 25246 O 3336.1 6.92449 -5.17064 0
M  V30 25247 C 3338.37 6.43627 -5.25174 0
M  V30 25248 O 3339.11 7.43686 -4.60469 0
M  V30 25249 C 3337.7 5.40275 -4.31916 0
M  V30 25250 O 3338.5 5.25279 -3.14438 0
M  V30 25251 C 3336.36 6.04847 -4.05327 0
M  V30 25252 H 3336.4 6.62195 -3.11261 0
M  V30 25253 H 3337.58 4.42556 -4.81383 0
M  V30 25254 H 3339.06 5.92458 -5.93643 0
M  V30 25255 H 3337.37 7.92655 -6.402 0
M  V30 25256 H 3337.18 6.26671 -8.0846 0
M  V30 25257 H 3335.55 6.29101 -7.32804 0
M  V30 25258 H 3338.19 5.84315 -2.47318 0
M  V30 25259 P 3340.05 7.39546 -4.75277 0
M  V30 25260 O 3341.47 7.84882 -5.01092 0
M  V30 25261 O 3339.69 5.9812 -5.08098 0
M  V30 25262 O 3339.72 7.57503 -3.1866 0
M  V30 25263 C 3339.56 8.97452 -2.74862 0
M  V30 25264 C 3340.1 9.07548 -1.32709 0
M  V30 25265 O 3339.05 8.61972 -0.606089 0
M  V30 25266 C 3341.32 8.25383 -0.938334 0
M  V30 25267 O 3342.06 8.74577 0.146954 0
M  V30 25268 C 3340.65 6.8802 -0.712559 0
M  V30 25269 O 3341.45 6.1181 0.188505 0
M  V30 25270 C 3339.31 7.27966 -0.139777 0
M  V30 25271 N 3338.27 6.39368 -0.623421 0
M  V30 25272 C 3338.44 5.71761 -1.78245 0
M  V30 25273 N 3337.41 4.962 -2.10491 0
M  V30 25274 C 3336.53 5.16158 -1.0635 0
M  V30 25275 C 3335.26 4.60425 -0.810266 0
M  V30 25276 N 3334.7 5.06 0.348685 0
M  V30 25277 C 3335.3 5.94532 1.20395 0
M  V30 25278 N 3336.48 6.48452 1.01191 0
M  V30 25279 C 3337.05 6.04423 -0.146291 0
M  V30 25280 H 3340.53 6.32625 -1.65044 0
M  V30 25281 H 3342.01 8.19355 -1.79097 0
M  V30 25282 H 3340.32 10.1305 -1.09016 0
M  V30 25283 H 3340.13 9.64276 -3.41316 0
M  V30 25284 H 3338.5 9.25417 -2.76357 0
M  V30 25285 H 3339.34 5.79354 -2.38959 0
M  V30 25286 H 3341.14 6.25169 1.0783 0
M  V30 25287 P 3343 8.791 -8.84831e-11 0
M  V30 25288 O 3344.42 9.31096 0.027933 0
M  V30 25289 O 3342.64 7.77869 -1.04071 0
M  V30 25290 O 3342.67 8.09533 1.41463 0
M  V30 25291 C 3342.51 9.0349 2.53943 0
M  V30 25292 C 3343.05 8.35226 3.79016 0
M  V30 25293 O 3342 7.57992 4.15078 0
M  V30 25294 C 3344.27 7.45087 3.67298 0
M  V30 25295 O 3345.01 7.27796 4.85194 0
M  V30 25296 C 3343.6 6.17323 3.12027 0
M  V30 25297 O 3344.4 5.04231 3.47188 0
M  V30 25298 C 3342.26 6.19961 3.81809 0
M  V30 25299 H 3342.3 5.58218 4.73051 0
M  V30 25300 H 3343.48 6.21726 2.02589 0
M  V30 25301 H 3344.96 7.86112 2.9231 0
M  V30 25302 H 3343.27 9.11627 4.55076 0
M  V30 25303 H 3343.08 9.9573 2.34194 0
M  V30 25304 H 3341.45 9.2792 2.67832 0
M  V30 25305 H 3344.09 4.67702 4.28772 0
M  V30 25306 P 3345.95 7.39546 4.75277 0
M  V30 25307 O 3347.37 7.81861 5.05793 0
M  V30 25308 O 3345.59 7.1065 3.32998 0
M  V30 25309 O 3345.62 6.04542 5.56673 0
M  V30 25310 C 3345.46 6.22839 7.02169 0
M  V30 25311 C 3346 4.97725 7.70406 0
M  V30 25312 O 3344.95 4.13208 7.58899 0
M  V30 25313 C 3347.22 4.28231 7.11815 0
M  V30 25314 O 3347.96 3.49945 8.01648 0
M  V30 25315 C 3346.55 3.5063 5.96244 0
M  V30 25316 O 3347.35 2.37008 5.64352 0
M  V30 25317 C 3345.22 3.15122 6.56374 0
M  V30 25318 N 3344.17 3.22311 5.55692 0
M  V30 25319 C 3344.34 3.99655 4.46046 0
M  V30 25320 N 3343.31 3.97599 3.63918 0
M  V30 25321 C 3342.43 3.11159 4.25334 0
M  V30 25322 C 3341.16 2.64972 3.85157 0
M  V30 25323 N 3340.6 1.78482 4.74759 0
M  V30 25324 C 3341.2 1.37463 5.90819 0
M  V30 25325 N 3342.38 1.7733 6.31889 0
M  V30 25326 C 3342.95 2.64393 5.43725 0
M  V30 25327 H 3346.43 4.12931 5.06895 0
M  V30 25328 H 3347.91 5.03285 6.70911 0
M  V30 25329 H 3346.22 5.20001 8.76217 0
M  V30 25330 H 3346.03 7.11046 7.35349 0
M  V30 25331 H 3344.4 6.35815 7.26986 0
M  V30 25332 H 3345.24 4.58037 4.27732 0
M  V30 25333 H 3347.04 1.61619 6.13468 0
M  V30 25334 P 3348.9 3.65191 7.99657 0
M  V30 25335 O 3350.32 3.8425 8.48115 0
M  V30 25336 O 3348.54 4.17805 6.64342 0
M  V30 25337 O 3348.57 2.07613 7.95143 0
M  V30 25338 C 3348.41 1.44328 9.27336 0
M  V30 25339 C 3348.95 0.0220036 9.17197 0
M  V30 25340 O 3347.9 -0.626867 8.61923 0
M  V30 25341 C 3350.17 -0.24586 8.30336 0
M  V30 25342 O 3350.91 -1.39011 8.63583 0
M  V30 25343 C 3349.5 -0.273849 6.91158 0
M  V30 25344 O 3350.3 -1.06348 6.02892 0
M  V30 25345 C 3348.17 -0.897649 7.22545 0
M  V30 25346 H 3348.2 -1.9841 7.04286 0
M  V30 25347 H 3349.38 0.739928 6.497 0
M  V30 25348 H 3350.86 0.60668 8.36503 0
M  V30 25349 H 3349.17 -0.352479 10.1829 0
M  V30 25350 H 3348.98 2.00611 10.0304 0
M  V30 25351 H 3347.35 1.41843 9.55327 0
M  V30 25352 H 3349.99 -1.95734 6.03555 0
M  V30 25353 P 3351.85 -1.25109 8.70152 0
M  V30 25354 O 3353.27 -1.35288 9.2132 0
M  V30 25355 O 3351.49 -0.0769065 7.84762 0
M  V30 25356 O 3351.52 -2.55232 7.81161 0
M  V30 25357 C 3351.36 -3.79979 8.58246 0
M  V30 25358 C 3351.9 -4.94023 7.72785 0
M  V30 25359 O 3350.85 -5.18666 6.91125 0
M  V30 25360 C 3353.12 -4.69597 6.85231 0
M  V30 25361 O 3353.86 -5.83832 6.51337 0
M  V30 25362 C 3352.45 -3.96706 5.66633 0
M  V30 25363 O 3353.25 -4.14896 4.5003 0
M  V30 25364 C 3351.12 -4.66153 5.59313 0
M  V30 25365 N 3350.07 -3.71582 5.24027 0
M  V30 25366 C 3350.24 -2.39715 5.48833 0
M  V30 25367 N 3349.22 -1.65863 5.12845 0
M  V30 25368 C 3348.33 -2.57637 4.5973 0
M  V30 25369 C 3347.06 -2.40278 4.01027 0
M  V30 25370 N 3346.5 -3.57711 3.59575 0
M  V30 25371 C 3347.1 -4.80324 3.70476 0
M  V30 25372 N 3348.28 -5.01121 4.23801 0
M  V30 25373 C 3348.85 -3.84757 4.66372 0
M  V30 25374 H 3352.33 -2.8955 5.86187 0
M  V30 25375 H 3353.81 -4.0121 7.36511 0
M  V30 25376 H 3352.12 -5.81019 8.37003 0
M  V30 25377 H 3351.93 -3.73517 9.52265 0
M  V30 25378 H 3350.3 -3.97163 8.80359 0
M  V30 25379 H 3351.14 -1.98804 5.94332 0
M  V30 25380 H 3352.94 -4.90891 4.01857 0
M  V30 25381 P 3354.8 -5.75688 6.64379 0
M  V30 25382 O 3356.22 -6.11915 7.01921 0
M  V30 25383 O 3354.44 -4.30744 6.56026 0
M  V30 25384 O 3354.48 -6.37042 5.19165 0
M  V30 25385 C 3354.31 -7.83662 5.1657 0
M  V30 25386 C 3354.86 -8.33398 3.83019 0
M  V30 25387 O 3353.8 -8.0998 3.00999 0
M  V30 25388 C 3356.07 -7.65514 3.2257 0
M  V30 25389 O 3356.81 -8.4329 2.32297 0
M  V30 25390 C 3355.41 -6.40075 2.62207 0
M  V30 25391 O 3356.2 -5.92338 1.5428 0
M  V30 25392 C 3354.07 -6.9454 2.18503 0
M  V30 25393 N 3353.02 -5.95905 2.39948 0
M  V30 25394 C 3353.19 -4.98383 3.32108 0
M  V30 25395 N 3352.17 -4.16798 3.41761 0
M  V30 25396 C 3351.28 -4.65287 2.47461 0
M  V30 25397 C 3350.01 -4.18946 2.07461 0
M  V30 25398 N 3349.42 -3.09661 2.60717 0
M  V30 25399 N 3349.45 -4.95327 1.09101 0
M  V30 25400 C 3350.05 -6.04369 0.519812 0
M  V30 25401 N 3351.23 -6.50694 0.855982 0
M  V30 25402 C 3351.8 -5.75818 1.84322 0
M  V30 25403 H 3354.1 -7.22964 1.12076 0
M  V30 25404 H 3355.28 -5.60502 3.36589 0
M  V30 25405 H 3356.77 -7.35707 4.02681 0
M  V30 25406 H 3355.07 -9.41302 3.90009 0
M  V30 25407 H 3354.88 -8.29056 5.99158 0
M  V30 25408 H 3353.25 -8.10073 5.25882 0
M  V30 25409 H 3349.52 -6.55843 -0.270373 0
M  V30 25410 H 3354.09 -4.88564 3.92502 0
M  V30 25411 H 3348.49 -2.80523 2.27218 0
M  V30 25412 H 3349.89 -2.55848 3.34465 0
M  V30 25413 H 3355.89 -6.30224 0.72668 0
M  V30 25414 P 3357.75 -8.4349 2.47671 0
M  V30 25415 O 3359.17 -8.94167 2.5964 0
M  V30 25416 O 3357.39 -7.1704 3.19006 0
M  V30 25417 O 3357.43 -8.16596 0.923387 0
M  V30 25418 C 3357.27 -9.38437 0.108857 0
M  V30 25419 C 3357.81 -9.08175 -1.28353 0
M  V30 25420 O 3356.75 -8.44229 -1.84713 0
M  V30 25421 C 3359.02 -8.18386 -1.42505 0
M  V30 25422 O 3359.76 -8.3501 -2.60497 0
M  V30 25423 C 3358.35 -6.80225 -1.25468 0
M  V30 25424 O 3359.15 -5.81621 -1.91066 0
M  V30 25425 C 3357.02 -7.02416 -1.9168 0
M  V30 25426 H 3357.05 -6.6888 -2.96621 0
M  V30 25427 H 3358.23 -6.53617 -0.192223 0
M  V30 25428 H 3359.72 -8.36622 -0.589963 0
M  V30 25429 H 3358.02 -10.0291 -1.79807 0
M  V30 25430 H 3357.83 -10.2138 0.558219 0
M  V30 25431 H 3356.2 -9.6579 0.0444202 0
M  V30 25432 H 3358.84 -5.69556 -2.79637 0
M  V30 25433 P 3360.7 -8.4349 -2.47671 0
M  V30 25434 O 3362.12 -8.92593 -2.65 0
M  V30 25435 O 3360.34 -7.7568 -1.19296 0
M  V30 25436 O 3360.38 -7.36886 -3.63805 0
M  V30 25437 C 3360.22 -7.95349 -4.982 0
M  V30 25438 C 3360.76 -6.94612 -5.98974 0
M  V30 25439 O 3359.7 -6.10347 -6.11815 0
M  V30 25440 C 3361.97 -6.11426 -5.62335 0
M  V30 25441 O 3362.71 -5.6162 -6.70584 0
M  V30 25442 C 3361.31 -5.04409 -4.73308 0
M  V30 25443 O 3362.1 -3.85992 -4.75183 0
M  V30 25444 C 3359.97 -4.8728 -5.41006 0
M  V30 25445 H 3360 -4.02333 -6.11157 0
M  V30 25446 H 3361.18 -5.39466 -3.69543 0
M  V30 25447 H 3362.67 -6.71916 -5.01943 0
M  V30 25448 H 3360.97 -7.4649 -6.93477 0
M  V30 25449 H 3360.78 -8.89416 -5.05237 0
M  V30 25450 H 3359.15 -8.14876 -5.18409 0
M  V30 25451 H 3361.79 -3.27957 -5.4317 0
M  V30 25452 P 3363.65 -5.75688 -6.64379 0
M  V30 25453 O 3365.07 -6.07627 -7.05504 0
M  V30 25454 O 3363.29 -5.88047 -5.19722 0
M  V30 25455 O 3363.33 -4.2322 -7.04443 0
M  V30 25456 C 3363.17 -3.99743 -8.4911 0
M  V30 25457 C 3363.71 -2.60516 -8.79425 0
M  V30 25458 O 3362.65 -1.82684 -8.4467 0
M  V30 25459 C 3364.92 -2.10343 -8.03628 0
M  V30 25460 O 3365.66 -1.09919 -8.67766 0
M  V30 25461 C 3364.26 -1.68446 -6.70876 0
M  V30 25462 O 3365.05 -0.678137 -6.08433 0
M  V30 25463 C 3362.92 -1.17436 -7.18567 0
M  V30 25464 H 3362.95 -0.0804732 -7.31656 0
M  V30 25465 H 3364.13 -2.54037 -6.02537 0
M  V30 25466 H 3365.62 -2.93881 -7.85526 0
M  V30 25467 H 3363.92 -2.53065 -9.86973 0
M  V30 25468 H 3363.73 -4.75072 -9.05887 0
M  V30 25469 H 3362.1 -4.05244 -8.76668 0
M  V30 25470 H 3364.74 0.177647 -6.34251 0
M  V30 25471 P 3366.6 -1.25109 -8.70152 0
M  V30 25472 O 3368.02 -1.29758 -9.22115 0
M  V30 25473 O 3366.24 -2.13714 -7.55141 0
M  V30 25474 O 3366.28 0.248149 -8.21425 0
M  V30 25475 C 3366.12 1.22792 -9.30533 0
M  V30 25476 C 3366.66 2.56293 -8.80664 0
M  V30 25477 O 3365.6 3.02944 -8.09255 0
M  V30 25478 C 3367.88 2.57523 -7.89775 0
M  V30 25479 O 3368.61 3.7668 -7.89438 0
M  V30 25480 C 3367.21 2.20997 -6.55446 0
M  V30 25481 O 3368.01 2.71302 -5.48691 0
M  V30 25482 C 3365.87 2.89693 -6.67988 0
M  V30 25483 N 3364.83 2.08895 -6.07487 0
M  V30 25484 C 3365 0.753809 -5.94137 0
M  V30 25485 N 3363.97 0.146592 -5.38801 0
M  V30 25486 C 3363.08 1.1768 -5.13693 0
M  V30 25487 C 3361.82 1.17563 -4.52477 0
M  V30 25488 N 3361.22 0.057481 -4.04759 0
M  V30 25489 N 3361.25 2.41918 -4.45789 0
M  V30 25490 C 3361.85 3.56493 -4.90792 0
M  V30 25491 N 3363.03 3.61423 -5.47817 0
M  V30 25492 C 3363.61 2.37779 -5.5588 0
M  V30 25493 H 3365.9 3.8874 -6.19774 0
M  V30 25494 H 3367.08 1.12673 -6.44018 0
M  V30 25495 H 3368.57 1.7746 -8.19711 0
M  V30 25496 H 3366.87 3.21673 -9.66791 0
M  V30 25497 H 3366.68 0.901032 -10.1892 0
M  V30 25498 H 3365.05 1.33049 -9.56592 0
M  V30 25499 H 3361.32 4.49919 -4.77947 0
M  V30 25500 H 3365.9 0.233081 -6.26266 0
M  V30 25501 H 3360.29 0.119831 -3.60801 0
M  V30 25502 H 3361.69 -0.852272 -4.12385 0
M  V30 25503 H 3367.69 3.5779 -5.23879 0
M  V30 25504 P 3369.55 3.65191 -7.99657 0
M  V30 25505 O 3370.97 3.89416 -8.45976 0
M  V30 25506 O 3369.19 2.28472 -7.50807 0
M  V30 25507 O 3369.23 4.64972 -6.77611 0
M  V30 25508 C 3369.07 6.06319 -7.16352 0
M  V30 25509 C 3369.61 6.91655 -6.02234 0
M  V30 25510 O 3368.55 6.92449 -5.17064 0
M  V30 25511 C 3370.83 6.43627 -5.25174 0
M  V30 25512 O 3371.56 7.43686 -4.60469 0
M  V30 25513 C 3370.16 5.40275 -4.31916 0
M  V30 25514 O 3370.96 5.25193 -3.14386 0
M  V30 25515 C 3368.82 6.04847 -4.05327 0
M  V30 25516 N 3367.78 5.04166 -3.98114 0
M  V30 25517 C 3367.84 3.96049 -4.75587 0
M  V30 25518 N 3366.79 3.15559 -4.54006 0
M  V30 25519 C 3366.06 3.78802 -3.62491 0
M  V30 25520 C 3364.75 3.476 -3.10071 0
M  V30 25521 O 3364.02 2.51136 -3.37021 0
M  V30 25522 N 3364.32 4.39088 -2.19956 0
M  V30 25523 C 3365.07 5.53215 -1.81733 0
M  V30 25524 N 3364.48 6.31963 -0.860928 0
M  V30 25525 N 3366.23 5.86688 -2.32562 0
M  V30 25526 C 3366.68 4.97525 -3.23407 0
M  V30 25527 H 3368.85 6.62195 -3.11261 0
M  V30 25528 H 3370.03 4.42488 -4.8131 0
M  V30 25529 H 3371.52 5.93051 -5.9305 0
M  V30 25530 H 3369.82 7.92655 -6.402 0
M  V30 25531 H 3369.63 6.26671 -8.0846 0
M  V30 25532 H 3368 6.29101 -7.32804 0
M  V30 25533 H 3363.43 4.25523 -1.77604 0
M  V30 25534 H 3368.63 3.75576 -5.47333 0
M  V30 25535 H 3363.56 6.04684 -0.468946 0
M  V30 25536 H 3364.94 7.18054 -0.542422 0
M  V30 25537 H 3370.64 5.84223 -2.47279 0
M  V30 25538 P 3372.5 7.39546 -4.75277 0
M  V30 25539 O 3373.92 7.84798 -5.01039 0
M  V30 25540 O 3372.14 5.9812 -5.08098 0
M  V30 25541 O 3372.18 7.57503 -3.1866 0
M  V30 25542 C 3372.02 8.97357 -2.74833 0
M  V30 25543 C 3372.56 9.07548 -1.32709 0
M  V30 25544 O 3371.5 8.62072 -0.606159 0
M  V30 25545 C 3373.78 8.25383 -0.938334 0
M  V30 25546 O 3374.51 8.74577 0.146954 0
M  V30 25547 C 3373.11 6.8802 -0.712559 0
M  V30 25548 O 3373.91 6.1189 0.194655 0
M  V30 25549 C 3371.77 7.27966 -0.139777 0
M  V30 25550 H 3371.8 7.25354 0.961601 0
M  V30 25551 H 3372.99 6.32557 -1.65702 0
M  V30 25552 H 3374.47 8.19355 -1.79097 0
M  V30 25553 H 3372.78 10.1294 -1.10029 0
M  V30 25554 H 3372.59 9.64276 -3.41316 0
M  V30 25555 H 3370.96 9.25417 -2.76357 0
M  V30 25556 H 3373.59 6.25267 1.07847 0
M  V30 25557 P 3375.45 8.791 -9.36698e-11 0
M  V30 25558 O 3376.85 9.36698 -0.018734 0
M  V30 25559 O 3375.07 7.82499 -1.07878 0
M  V30 25560 O 3375.13 8.09434 1.41446 0
M  V30 25561 C 3374.97 9.0349 2.53943 0
M  V30 25562 C 3375.51 8.35135 3.78975 0
M  V30 25563 O 3374.45 7.57904 4.1503 0
M  V30 25564 C 3376.73 7.45087 3.67298 0
M  V30 25565 O 3377.47 7.27796 4.85194 0
M  V30 25566 C 3376.06 6.17323 3.12027 0
M  V30 25567 O 3376.86 5.04149 3.47132 0
M  V30 25568 C 3374.72 6.19961 3.81809 0
M  V30 25569 N 3373.68 5.71575 2.93223 0
M  V30 25570 C 3372.64 4.99452 3.47592 0
M  V30 25571 O 3372.68 4.7199 4.69732 0
M  V30 25572 N 3371.63 4.58505 2.6803 0
M  V30 25573 C 3371.68 4.85544 1.36995 0
M  V30 25574 C 3372.78 5.55532 0.788532 0
M  V30 25575 C 3373.74 5.97426 1.60849 0
M  V30 25576 H 3374.75 5.58142 4.72986 0
M  V30 25577 H 3375.94 6.21428 2.0318 0
M  V30 25578 H 3377.42 7.85913 2.93131 0
M  V30 25579 H 3375.73 9.11171 4.55987 0
M  V30 25580 H 3375.54 9.9573 2.34194 0
M  V30 25581 H 3373.91 9.27824 2.67805 0
M  V30 25582 H 3372.82 5.7421 -0.281588 0
M  V30 25583 H 3374.59 6.53132 1.202 0
M  V30 25584 H 3376.64 4.76386 4.34983 0
M  V30 25585 P 3378.4 7.39546 4.75277 0
M  V30 25586 O 3379.82 7.81945 5.05847 0
M  V30 25587 O 3378.04 7.1065 3.32998 0
M  V30 25588 O 3378.08 6.04542 5.56673 0
M  V30 25589 C 3377.92 6.22772 7.02095 0
M  V30 25590 C 3378.46 4.97671 7.70322 0
M  V30 25591 O 3377.4 4.13256 7.58987 0
M  V30 25592 C 3379.68 4.28231 7.11815 0
M  V30 25593 O 3380.42 3.49945 8.01648 0
M  V30 25594 C 3379.01 3.5063 5.96244 0
M  V30 25595 O 3379.81 2.36443 5.64589 0
M  V30 25596 C 3377.67 3.15122 6.56374 0
M  V30 25597 N 3376.63 3.22311 5.55692 0
M  V30 25598 C 3376.69 4.14382 4.59701 0
M  V30 25599 N 3375.65 4.04476 3.76958 0
M  V30 25600 C 3374.91 3.04892 4.26534 0
M  V30 25601 C 3373.61 2.57447 3.88189 0
M  V30 25602 O 3372.87 2.9785 2.96543 0
M  V30 25603 N 3373.18 1.55228 4.65922 0
M  V30 25604 C 3373.92 1.01152 5.73447 0
M  V30 25605 N 3373.33 -0.0472117 6.37783 0
M  V30 25606 N 3375.08 1.467 6.13813 0
M  V30 25607 C 3375.53 2.4931 5.38487 0
M  V30 25608 H 3377.7 2.13853 6.99751 0
M  V30 25609 H 3378.89 4.13438 5.06482 0
M  V30 25610 H 3380.37 5.02614 6.71414 0
M  V30 25611 H 3378.68 5.20877 8.75697 0
M  V30 25612 H 3378.49 7.11046 7.35349 0
M  V30 25613 H 3376.86 6.35815 7.26986 0
M  V30 25614 H 3372.28 1.15238 4.46468 0
M  V30 25615 H 3377.49 4.88312 4.49647 0
M  V30 25616 H 3372.42 -0.396382 6.05203 0
M  V30 25617 H 3373.79 -0.484997 7.18465 0
M  V30 25618 H 3379.5 1.61619 6.13468 0
M  V30 25619 P 3381.35 3.65191 7.99657 0
M  V30 25620 O 3382.77 3.84292 8.48206 0
M  V30 25621 O 3380.99 4.17805 6.64342 0
M  V30 25622 O 3381.03 2.07613 7.95143 0
M  V30 25623 C 3380.87 1.44344 9.27435 0
M  V30 25624 C 3381.41 0.0220036 9.17197 0
M  V30 25625 O 3380.36 -0.626794 8.61824 0
M  V30 25626 C 3382.63 -0.24586 8.30336 0
M  V30 25627 O 3383.37 -1.39011 8.63583 0
M  V30 25628 C 3381.96 -0.273849 6.91158 0
M  V30 25629 O 3382.76 -1.05728 6.029 0
M  V30 25630 C 3380.62 -0.897649 7.22545 0
M  V30 25631 N 3379.58 -0.292839 6.41732 0
M  V30 25632 C 3379.75 0.950603 5.91308 0
M  V30 25633 N 3378.72 1.37732 5.21105 0
M  V30 25634 C 3377.84 0.318109 5.26039 0
M  V30 25635 C 3376.57 0.146766 4.6727 0
M  V30 25636 N 3376 -1.06525 4.95887 0
M  V30 25637 C 3376.61 -2.0378 5.71347 0
M  V30 25638 N 3377.78 -1.92445 6.27451 0
M  V30 25639 C 3378.36 -0.715382 6.00353 0
M  V30 25640 H 3381.84 0.733318 6.49674 0
M  V30 25641 H 3383.32 0.60668 8.36503 0
M  V30 25642 H 3381.63 -0.362662 10.1825 0
M  V30 25643 H 3381.44 2.00611 10.0304 0
M  V30 25644 H 3379.81 1.41843 9.55327 0
M  V30 25645 H 3380.65 1.54076 6.07465 0
M  V30 25646 H 3382.45 -1.95704 6.0346 0
M  V30 25647 P 3384.3 -1.25109 8.70152 0
M  V30 25648 O 3385.73 -1.35274 9.21221 0
M  V30 25649 O 3383.94 -0.0769065 7.84762 0
M  V30 25650 O 3383.98 -2.55232 7.81161 0
M  V30 25651 C 3383.82 -3.79939 8.58154 0
M  V30 25652 C 3384.36 -4.94023 7.72785 0
M  V30 25653 O 3383.3 -5.18726 6.91205 0
M  V30 25654 C 3385.58 -4.69597 6.85231 0
M  V30 25655 O 3386.32 -5.83832 6.51337 0
M  V30 25656 C 3384.91 -3.96706 5.66633 0
M  V30 25657 O 3385.71 -4.15414 4.49689 0
M  V30 25658 C 3383.57 -4.66153 5.59313 0
M  V30 25659 H 3383.6 -5.47679 4.85214 0
M  V30 25660 H 3384.79 -2.89008 5.86566 0
M  V30 25661 H 3386.27 -4.0121 7.36511 0
M  V30 25662 H 3384.58 -5.80182 8.37584 0
M  V30 25663 H 3384.39 -3.73517 9.52265 0
M  V30 25664 H 3382.76 -3.97163 8.80359 0
M  V30 25665 H 3385.4 -4.90969 4.01921 0
M  V30 25666 P 3387.25 -5.75688 6.64379 0
M  V30 25667 O 3388.68 -6.11849 7.01846 0
M  V30 25668 O 3386.89 -4.30744 6.56026 0
M  V30 25669 O 3386.93 -6.37042 5.19165 0
M  V30 25670 C 3386.77 -7.83578 5.16515 0
M  V30 25671 C 3387.31 -8.33398 3.83019 0
M  V30 25672 O 3386.26 -8.10074 3.01034 0
M  V30 25673 C 3388.53 -7.65514 3.2257 0
M  V30 25674 O 3389.27 -8.4329 2.32297 0
M  V30 25675 C 3387.86 -6.40075 2.62207 0
M  V30 25676 O 3388.66 -5.92589 1.53712 0
M  V30 25677 C 3386.52 -6.9454 2.18503 0
M  V30 25678 H 3386.56 -7.23063 1.12091 0
M  V30 25679 H 3387.74 -5.6025 3.37201 0
M  V30 25680 H 3389.22 -7.35707 4.02681 0
M  V30 25681 H 3387.53 -9.40912 3.9095 0
M  V30 25682 H 3387.34 -8.29056 5.99158 0
M  V30 25683 H 3385.71 -8.10073 5.25882 0
M  V30 25684 H 3388.35 -6.30324 0.726794 0
M  V30 25685 P 3390.2 -8.4349 2.47671 0
M  V30 25686 O 3391.63 -8.94263 2.59668 0
M  V30 25687 O 3389.84 -7.1704 3.19006 0
M  V30 25688 O 3389.88 -8.16596 0.923387 0
M  V30 25689 C 3389.72 -9.38537 0.108869 0
M  V30 25690 C 3390.26 -9.08175 -1.28353 0
M  V30 25691 O 3389.21 -8.44131 -1.84692 0
M  V30 25692 C 3391.48 -8.18386 -1.42505 0
M  V30 25693 O 3392.22 -8.3501 -2.60497 0
M  V30 25694 C 3390.81 -6.80225 -1.25468 0
M  V30 25695 O 3391.61 -5.81716 -1.90454 0
M  V30 25696 C 3389.47 -7.02416 -1.9168 0
M  V30 25697 N 3388.43 -6.31033 -1.20314 0
M  V30 25698 C 3388.6 -5.98817 0.0994088 0
M  V30 25699 N 3387.57 -5.35403 0.621694 0
M  V30 25700 C 3386.69 -5.25212 -0.43376 0
M  V30 25701 C 3385.42 -4.64602 -0.519722 0
M  V30 25702 N 3384.82 -4.01457 0.519136 0
M  V30 25703 N 3384.86 -4.7568 -1.76013 0
M  V30 25704 C 3385.46 -5.3653 -2.83017 0
M  V30 25705 N 3386.63 -5.93676 -2.79782 0
M  V30 25706 C 3387.21 -5.84061 -1.56249 0
M  V30 25707 H 3389.51 -6.68789 -2.9658 0
M  V30 25708 H 3390.69 -6.53498 -0.198729 0
M  V30 25709 H 3392.17 -8.36622 -0.589963 0
M  V30 25710 H 3390.48 -10.0273 -1.8081 0
M  V30 25711 H 3390.29 -10.2138 0.558219 0
M  V30 25712 H 3388.66 -9.6579 0.0444202 0
M  V30 25713 H 3384.92 -5.37113 -3.77321 0
M  V30 25714 H 3389.5 -6.23209 0.660562 0
M  V30 25715 H 3383.89 -3.58834 0.394862 0
M  V30 25716 H 3385.3 -3.96059 1.43048 0
M  V30 25717 H 3391.3 -5.69466 -2.79593 0
M  V30 25718 P 3393.16 -8.4349 -2.47671 0
M  V30 25719 O 3394.58 -8.92689 -2.65029 0
M  V30 25720 O 3392.8 -7.7568 -1.19296 0
M  V30 25721 O 3392.83 -7.36886 -3.63805 0
M  V30 25722 C 3392.67 -7.95433 -4.98253 0
M  V30 25723 C 3393.21 -6.94612 -5.98974 0
M  V30 25724 O 3392.16 -6.10277 -6.11744 0
M  V30 25725 C 3394.43 -6.11426 -5.62335 0
M  V30 25726 O 3395.17 -5.6162 -6.70584 0
M  V30 25727 C 3393.76 -5.04409 -4.73308 0
M  V30 25728 O 3394.56 -3.86404 -4.74719 0
M  V30 25729 C 3392.42 -4.8728 -5.41006 0
M  V30 25730 N 3391.38 -4.65812 -4.42377 0
M  V30 25731 C 3391.55 -5.09132 -3.15382 0
M  V30 25732 N 3390.52 -4.84021 -2.3716 0
M  V30 25733 C 3389.64 -4.18386 -3.20441 0
M  V30 25734 C 3388.37 -3.6275 -2.94905 0
M  V30 25735 N 3387.81 -3.05008 -4.05243 0
M  V30 25736 C 3388.41 -2.98348 -5.28159 0
M  V30 25737 N 3389.59 -3.48171 -5.56333 0
M  V30 25738 C 3390.16 -4.06869 -4.47212 0
M  V30 25739 H 3393.64 -5.39013 -3.70026 0
M  V30 25740 H 3395.12 -6.71916 -5.01943 0
M  V30 25741 H 3393.43 -7.45796 -6.94223 0
M  V30 25742 H 3393.24 -8.89416 -5.05237 0
M  V30 25743 H 3391.61 -8.14876 -5.18409 0
M  V30 25744 H 3392.45 -5.59989 -2.81362 0
M  V30 25745 H 3394.25 -3.27906 -5.43085 0
M  V30 25746 P 3396.11 -5.75688 -6.64379 0
M  V30 25747 O 3397.53 -6.07627 -7.05504 0
M  V30 25748 O 3395.75 -5.88047 -5.19722 0
M  V30 25749 O 3395.78 -4.2322 -7.04443 0
M  V30 25750 C 3395.62 -3.99743 -8.4911 0
M  V30 25751 C 3396.16 -2.60516 -8.79425 0
M  V30 25752 O 3395.11 -1.82684 -8.4467 0
M  V30 25753 C 3397.38 -2.10343 -8.03628 0
M  V30 25754 O 3398.12 -1.09919 -8.67766 0
M  V30 25755 C 3396.71 -1.68446 -6.70876 0
M  V30 25756 O 3397.51 -0.678137 -6.08433 0
M  V30 25757 C 3395.38 -1.17436 -7.18567 0
M  V30 25758 H 3395.41 -0.0804732 -7.31656 0
M  V30 25759 H 3396.59 -2.54037 -6.02537 0
M  V30 25760 H 3398.07 -2.93881 -7.85526 0
M  V30 25761 H 3396.38 -2.53065 -9.86973 0
M  V30 25762 H 3396.19 -4.75072 -9.05887 0
M  V30 25763 H 3394.56 -4.05244 -8.76668 0
M  V30 25764 H 3397.2 0.177647 -6.34251 0
M  V30 25765 P 3399.06 -1.25109 -8.70152 0
M  V30 25766 O 3400.48 -1.29744 -9.22016 0
M  V30 25767 O 3398.7 -2.13714 -7.55141 0
M  V30 25768 O 3398.73 0.248149 -8.21425 0
M  V30 25769 C 3398.57 1.22779 -9.30434 0
M  V30 25770 C 3399.11 2.56293 -8.80664 0
M  V30 25771 O 3398.06 3.02979 -8.09349 0
M  V30 25772 C 3400.33 2.57523 -7.89775 0
M  V30 25773 O 3401.07 3.7668 -7.89438 0
M  V30 25774 C 3399.66 2.20997 -6.55446 0
M  V30 25775 O 3400.46 2.71895 -5.48509 0
M  V30 25776 C 3398.33 2.89693 -6.67988 0
M  V30 25777 H 3398.36 3.88793 -6.19859 0
M  V30 25778 H 3399.54 1.12046 -6.44229 0
M  V30 25779 H 3401.02 1.7746 -8.19711 0
M  V30 25780 H 3399.33 3.20706 -9.67112 0
M  V30 25781 H 3399.14 0.901032 -10.1892 0
M  V30 25782 H 3397.51 1.33049 -9.56592 0
M  V30 25783 H 3400.15 3.57847 -5.23962 0
M  V30 25784 P 3402.01 3.65191 -7.99657 0
M  V30 25785 O 3403.43 3.89332 -8.45794 0
M  V30 25786 O 3401.65 2.28472 -7.50807 0
M  V30 25787 O 3401.68 4.64972 -6.77611 0
M  V30 25788 C 3401.52 6.06319 -7.16352 0
M  V30 25789 C 3402.06 6.91731 -6.02299 0
M  V30 25790 O 3401.01 6.92449 -5.17064 0
M  V30 25791 C 3403.28 6.43627 -5.25174 0
M  V30 25792 O 3404.02 7.43686 -4.60469 0
M  V30 25793 C 3402.61 5.40275 -4.31916 0
M  V30 25794 O 3403.41 5.25279 -3.14438 0
M  V30 25795 C 3401.28 6.04847 -4.05327 0
M  V30 25796 H 3401.31 6.62195 -3.11261 0
M  V30 25797 H 3402.49 4.42556 -4.81383 0
M  V30 25798 H 3403.98 5.92458 -5.93643 0
M  V30 25799 H 3402.28 7.92655 -6.402 0
M  V30 25800 H 3402.09 6.26671 -8.0846 0
M  V30 25801 H 3400.46 6.29101 -7.32804 0
M  V30 25802 H 3403.1 5.84315 -2.47318 0
M  V30 25803 P 3404.96 7.39546 -4.75277 0
M  V30 25804 O 3406.38 7.84798 -5.01039 0
M  V30 25805 O 3404.6 5.9812 -5.08098 0
M  V30 25806 O 3404.63 7.57503 -3.1866 0
M  V30 25807 C 3404.47 8.97357 -2.74833 0
M  V30 25808 C 3405.01 9.07548 -1.32709 0
M  V30 25809 O 3403.96 8.62072 -0.606159 0
M  V30 25810 C 3406.23 8.25383 -0.938334 0
M  V30 25811 O 3406.97 8.74577 0.146954 0
M  V30 25812 C 3405.56 6.8802 -0.712559 0
M  V30 25813 O 3406.36 6.1189 0.194655 0
M  V30 25814 C 3404.23 7.27966 -0.139777 0
M  V30 25815 H 3404.26 7.25354 0.961601 0
M  V30 25816 H 3405.44 6.32557 -1.65702 0
M  V30 25817 H 3406.93 8.19355 -1.79097 0
M  V30 25818 H 3405.23 10.1294 -1.10029 0
M  V30 25819 H 3405.04 9.64276 -3.41316 0
M  V30 25820 H 3403.41 9.25417 -2.76357 0
M  V30 25821 H 3406.05 6.25267 1.07847 0
M  V30 25822 P 3407.91 8.791 -9.88564e-11 0
M  V30 25823 O 3409.33 9.31096 0.027933 0
M  V30 25824 O 3407.55 7.77869 -1.04071 0
M  V30 25825 O 3407.59 8.09533 1.41463 0
M  V30 25826 C 3407.43 9.0349 2.53943 0
M  V30 25827 C 3407.97 8.35226 3.79016 0
M  V30 25828 O 3406.91 7.57992 4.15078 0
M  V30 25829 C 3409.18 7.45087 3.67298 0
M  V30 25830 O 3409.92 7.27796 4.85194 0
M  V30 25831 C 3408.51 6.17323 3.12027 0
M  V30 25832 O 3409.31 5.04231 3.47188 0
M  V30 25833 C 3407.18 6.19961 3.81809 0
M  V30 25834 H 3407.21 5.58218 4.73051 0
M  V30 25835 H 3408.39 6.21726 2.02589 0
M  V30 25836 H 3409.88 7.86112 2.9231 0
M  V30 25837 H 3408.18 9.11627 4.55076 0
M  V30 25838 H 3407.99 9.9573 2.34194 0
M  V30 25839 H 3406.36 9.2792 2.67832 0
M  V30 25840 H 3409 4.67702 4.28772 0
M  V30 25841 P 3410.86 7.39546 4.75277 0
M  V30 25842 O 3412.28 7.81945 5.05847 0
M  V30 25843 O 3410.5 7.1065 3.32998 0
M  V30 25844 O 3410.54 6.04542 5.56673 0
M  V30 25845 C 3410.38 6.22772 7.02095 0
M  V30 25846 C 3410.92 4.97671 7.70322 0
M  V30 25847 O 3409.86 4.13256 7.58987 0
M  V30 25848 C 3412.13 4.28231 7.11815 0
M  V30 25849 O 3412.87 3.49945 8.01648 0
M  V30 25850 C 3411.47 3.5063 5.96244 0
M  V30 25851 O 3412.26 2.36443 5.64589 0
M  V30 25852 C 3410.13 3.15122 6.56374 0
M  V30 25853 N 3409.08 3.22311 5.55692 0
M  V30 25854 C 3409.15 4.14382 4.59701 0
M  V30 25855 N 3408.1 4.04476 3.76958 0
M  V30 25856 C 3407.37 3.04892 4.26534 0
M  V30 25857 C 3406.06 2.57447 3.88189 0
M  V30 25858 O 3405.33 2.9785 2.96543 0
M  V30 25859 N 3405.63 1.55228 4.65922 0
M  V30 25860 C 3406.38 1.01152 5.73447 0
M  V30 25861 N 3405.78 -0.0472117 6.37783 0
M  V30 25862 N 3407.53 1.467 6.13813 0
M  V30 25863 C 3407.99 2.4931 5.38487 0
M  V30 25864 H 3410.16 2.13853 6.99751 0
M  V30 25865 H 3411.34 4.13438 5.06482 0
M  V30 25866 H 3412.83 5.02614 6.71414 0
M  V30 25867 H 3411.13 5.20877 8.75697 0
M  V30 25868 H 3410.94 7.11046 7.35349 0
M  V30 25869 H 3409.31 6.35815 7.26986 0
M  V30 25870 H 3404.74 1.15238 4.46468 0
M  V30 25871 H 3409.94 4.88312 4.49647 0
M  V30 25872 H 3404.87 -0.396382 6.05203 0
M  V30 25873 H 3406.25 -0.484997 7.18465 0
M  V30 25874 H 3411.95 1.61619 6.13468 0
M  V30 25875 P 3413.81 3.65191 7.99657 0
M  V30 25876 O 3415.23 3.8425 8.48115 0
M  V30 25877 O 3413.45 4.17805 6.64342 0
M  V30 25878 O 3413.49 2.07613 7.95143 0
M  V30 25879 C 3413.33 1.44328 9.27336 0
M  V30 25880 C 3413.87 0.0220036 9.17197 0
M  V30 25881 O 3412.81 -0.626867 8.61923 0
M  V30 25882 C 3415.08 -0.24586 8.30336 0
M  V30 25883 O 3415.82 -1.39011 8.63583 0
M  V30 25884 C 3414.42 -0.273849 6.91158 0
M  V30 25885 O 3415.21 -1.06348 6.02892 0
M  V30 25886 C 3413.08 -0.897649 7.22545 0
M  V30 25887 H 3413.11 -1.9841 7.04286 0
M  V30 25888 H 3414.29 0.739928 6.497 0
M  V30 25889 H 3415.78 0.60668 8.36503 0
M  V30 25890 H 3414.08 -0.352479 10.1829 0
M  V30 25891 H 3413.89 2.00611 10.0304 0
M  V30 25892 H 3412.26 1.41843 9.55327 0
M  V30 25893 H 3414.9 -1.95734 6.03555 0
M  V30 25894 P 3416.76 -1.25109 8.70152 0
M  V30 25895 O 3418.18 -1.35288 9.2132 0
M  V30 25896 O 3416.4 -0.0769065 7.84762 0
M  V30 25897 O 3416.44 -2.55232 7.81161 0
M  V30 25898 C 3416.28 -3.79979 8.58246 0
M  V30 25899 C 3416.82 -4.94023 7.72785 0
M  V30 25900 O 3415.76 -5.18666 6.91125 0
M  V30 25901 C 3418.04 -4.69597 6.85231 0
M  V30 25902 O 3418.77 -5.83832 6.51337 0
M  V30 25903 C 3417.37 -3.96706 5.66633 0
M  V30 25904 O 3418.17 -4.14896 4.5003 0
M  V30 25905 C 3416.03 -4.66153 5.59313 0
M  V30 25906 N 3414.99 -3.71582 5.24027 0
M  V30 25907 C 3415.16 -2.39715 5.48833 0
M  V30 25908 N 3414.13 -1.65863 5.12845 0
M  V30 25909 C 3413.24 -2.57637 4.5973 0
M  V30 25910 C 3411.98 -2.40278 4.01027 0
M  V30 25911 N 3411.41 -3.57711 3.59575 0
M  V30 25912 C 3412.01 -4.80324 3.70476 0
M  V30 25913 N 3413.19 -5.01121 4.23801 0
M  V30 25914 C 3413.77 -3.84757 4.66372 0
M  V30 25915 H 3417.24 -2.8955 5.86187 0
M  V30 25916 H 3418.73 -4.0121 7.36511 0
M  V30 25917 H 3417.03 -5.81019 8.37003 0
M  V30 25918 H 3416.84 -3.73517 9.52265 0
M  V30 25919 H 3415.21 -3.97163 8.80359 0
M  V30 25920 H 3416.06 -1.98804 5.94332 0
M  V30 25921 H 3417.85 -4.90891 4.01857 0
M  V30 25922 P 3419.71 -5.75688 6.64379 0
M  V30 25923 O 3421.13 -6.11849 7.01846 0
M  V30 25924 O 3419.35 -4.30744 6.56026 0
M  V30 25925 O 3419.39 -6.37042 5.19165 0
M  V30 25926 C 3419.23 -7.83578 5.16515 0
M  V30 25927 C 3419.77 -8.33398 3.83019 0
M  V30 25928 O 3418.71 -8.10074 3.01034 0
M  V30 25929 C 3420.99 -7.65514 3.2257 0
M  V30 25930 O 3421.72 -8.4329 2.32297 0
M  V30 25931 C 3420.32 -6.40075 2.62207 0
M  V30 25932 O 3421.12 -5.92589 1.53712 0
M  V30 25933 C 3418.98 -6.9454 2.18503 0
M  V30 25934 H 3419.01 -7.23063 1.12091 0
M  V30 25935 H 3420.19 -5.6025 3.37201 0
M  V30 25936 H 3421.68 -7.35707 4.02681 0
M  V30 25937 H 3419.98 -9.40912 3.9095 0
M  V30 25938 H 3419.79 -8.29056 5.99158 0
M  V30 25939 H 3418.16 -8.10073 5.25882 0
M  V30 25940 H 3420.8 -6.30324 0.726794 0
M  V30 25941 P 3422.66 -8.4349 2.47671 0
M  V30 25942 O 3424.08 -8.94167 2.5964 0
M  V30 25943 O 3422.3 -7.1704 3.19006 0
M  V30 25944 O 3422.34 -8.16596 0.923387 0
M  V30 25945 C 3422.18 -9.38437 0.108857 0
M  V30 25946 C 3422.72 -9.08175 -1.28353 0
M  V30 25947 O 3421.66 -8.44229 -1.84713 0
M  V30 25948 C 3423.94 -8.18386 -1.42505 0
M  V30 25949 O 3424.67 -8.3501 -2.60497 0
M  V30 25950 C 3423.27 -6.80225 -1.25468 0
M  V30 25951 O 3424.07 -5.81621 -1.91066 0
M  V30 25952 C 3421.93 -7.02416 -1.9168 0
M  V30 25953 H 3421.96 -6.6888 -2.96621 0
M  V30 25954 H 3423.15 -6.53617 -0.192223 0
M  V30 25955 H 3424.63 -8.36622 -0.589963 0
M  V30 25956 H 3422.94 -10.0291 -1.79807 0
M  V30 25957 H 3422.75 -10.2138 0.558219 0
M  V30 25958 H 3421.12 -9.6579 0.0444202 0
M  V30 25959 H 3423.75 -5.69556 -2.79637 0
M  V30 25960 P 3425.61 -8.4349 -2.47671 0
M  V30 25961 O 3427.03 -8.92593 -2.65 0
M  V30 25962 O 3425.25 -7.7568 -1.19296 0
M  V30 25963 O 3425.29 -7.36886 -3.63805 0
M  V30 25964 C 3425.13 -7.95349 -4.982 0
M  V30 25965 C 3425.67 -6.94612 -5.98974 0
M  V30 25966 O 3424.61 -6.10347 -6.11815 0
M  V30 25967 C 3426.89 -6.11426 -5.62335 0
M  V30 25968 O 3427.62 -5.6162 -6.70584 0
M  V30 25969 C 3426.22 -5.04409 -4.73308 0
M  V30 25970 O 3427.02 -3.85992 -4.75183 0
M  V30 25971 C 3424.88 -4.8728 -5.41006 0
M  V30 25972 H 3424.91 -4.02333 -6.11157 0
M  V30 25973 H 3426.1 -5.39466 -3.69543 0
M  V30 25974 H 3427.58 -6.71916 -5.01943 0
M  V30 25975 H 3425.89 -7.4649 -6.93477 0
M  V30 25976 H 3425.7 -8.89416 -5.05237 0
M  V30 25977 H 3424.07 -8.14876 -5.18409 0
M  V30 25978 H 3426.7 -3.27957 -5.4317 0
M  V30 25979 P 3428.56 -5.75688 -6.64379 0
M  V30 25980 O 3429.98 -6.07758 -7.05656 0
M  V30 25981 O 3428.2 -5.88047 -5.19722 0
M  V30 25982 O 3428.24 -4.2322 -7.04443 0
M  V30 25983 C 3428.08 -3.99743 -8.4911 0
M  V30 25984 C 3428.62 -2.60487 -8.79329 0
M  V30 25985 O 3427.56 -1.82684 -8.4467 0
M  V30 25986 C 3429.84 -2.10343 -8.03628 0
M  V30 25987 O 3430.58 -1.09919 -8.67766 0
M  V30 25988 C 3429.17 -1.68446 -6.70876 0
M  V30 25989 O 3429.97 -0.678026 -6.08333 0
M  V30 25990 C 3427.83 -1.17436 -7.18567 0
M  V30 25991 N 3426.79 -1.52699 -6.23988 0
M  V30 25992 C 3426.85 -2.68084 -5.57824 0
M  V30 25993 N 3425.81 -2.8189 -4.75643 0
M  V30 25994 C 3425.07 -1.72373 -4.95155 0
M  V30 25995 C 3423.77 -1.37653 -4.44996 0
M  V30 25996 O 3423.03 -2.02239 -3.68445 0
M  V30 25997 N 3423.34 -0.17675 -4.90782 0
M  V30 25998 C 3424.08 0.645036 -5.78716 0
M  V30 25999 N 3423.49 1.84214 -6.10618 0
M  V30 26000 N 3425.24 0.321732 -6.30279 0
M  V30 26001 C 3425.69 -0.87502 -5.86913 0
M  V30 26002 H 3427.86 -0.0804732 -7.31656 0
M  V30 26003 H 3429.05 -2.53998 -6.02444 0
M  V30 26004 H 3430.53 -2.93095 -7.8582 0
M  V30 26005 H 3428.84 -2.53065 -9.86973 0
M  V30 26006 H 3428.65 -4.75072 -9.05887 0
M  V30 26007 H 3427.02 -4.05244 -8.76668 0
M  V30 26008 H 3422.44 0.152143 -4.60849 0
M  V30 26009 H 3427.65 -3.41852 -5.69006 0
M  V30 26010 H 3422.58 2.08538 -5.69521 0
M  V30 26011 H 3423.95 2.4895 -6.75698 0
M  V30 26012 H 3429.66 0.177619 -6.34151 0
M  V30 26013 P 3431.51 -1.25109 -8.70152 0
M  V30 26014 O 3432.93 -1.29758 -9.22115 0
M  V30 26015 O 3431.15 -2.13714 -7.55141 0
M  V30 26016 O 3431.19 0.248149 -8.21425 0
M  V30 26017 C 3431.03 1.22792 -9.30533 0
M  V30 26018 C 3431.57 2.56293 -8.80664 0
M  V30 26019 O 3430.51 3.02944 -8.09255 0
M  V30 26020 C 3432.79 2.57523 -7.89775 0
M  V30 26021 O 3433.53 3.7668 -7.89438 0
M  V30 26022 C 3432.12 2.20997 -6.55446 0
M  V30 26023 O 3432.92 2.71302 -5.48691 0
M  V30 26024 C 3430.78 2.89693 -6.67988 0
M  V30 26025 N 3429.74 2.08895 -6.07487 0
M  V30 26026 C 3429.91 0.753809 -5.94137 0
M  V30 26027 N 3428.88 0.146592 -5.38801 0
M  V30 26028 C 3428 1.1768 -5.13693 0
M  V30 26029 C 3426.73 1.17563 -4.52477 0
M  V30 26030 N 3426.16 2.41918 -4.45789 0
M  V30 26031 C 3426.77 3.56493 -4.90792 0
M  V30 26032 N 3427.94 3.61423 -5.47817 0
M  V30 26033 C 3428.52 2.37779 -5.5588 0
M  V30 26034 H 3432 1.12673 -6.44018 0
M  V30 26035 H 3433.48 1.7746 -8.19711 0
M  V30 26036 H 3431.79 3.21673 -9.66791 0
M  V30 26037 H 3431.6 0.901032 -10.1892 0
M  V30 26038 H 3429.97 1.33049 -9.56592 0
M  V30 26039 H 3430.81 0.233081 -6.26266 0
M  V30 26040 H 3432.61 3.5779 -5.23879 0
M  V30 26041 P 3434.46 3.65191 -7.99657 0
M  V30 26042 O 3435.86 3.87414 -8.52829 0
M  V30 26043 O 3434.09 2.26932 -7.566 0
M  V30 26044 O 3434.14 4.64915 -6.77529 0
M  V30 26045 C 3433.98 6.06319 -7.16352 0
M  V30 26046 C 3434.52 6.91655 -6.02234 0
M  V30 26047 O 3433.46 6.92369 -5.17005 0
M  V30 26048 C 3435.74 6.43627 -5.25174 0
M  V30 26049 O 3436.48 7.43686 -4.60469 0
M  V30 26050 C 3435.07 5.40275 -4.31916 0
M  V30 26051 O 3435.87 5.25193 -3.14386 0
M  V30 26052 C 3433.73 6.04847 -4.05327 0
M  V30 26053 N 3432.69 5.04166 -3.98114 0
M  V30 26054 C 3431.65 5.2366 -3.09923 0
M  V30 26055 O 3431.69 6.23355 -2.34204 0
M  V30 26056 N 3430.64 4.34279 -3.05727 0
M  V30 26057 C 3430.69 3.26317 -3.84756 0
M  V30 26058 C 3431.79 3.02504 -4.72573 0
M  V30 26059 C 3432.75 3.94493 -4.76618 0
M  V30 26060 H 3433.76 6.62104 -3.11218 0
M  V30 26061 H 3434.95 4.42969 -4.80867 0
M  V30 26062 H 3436.43 5.93122 -5.93121 0
M  V30 26063 H 3434.74 7.93295 -6.39407 0
M  V30 26064 H 3434.55 6.26671 -8.0846 0
M  V30 26065 H 3432.92 6.29036 -7.32728 0
M  V30 26066 H 3431.83 2.12921 -5.34017 0
M  V30 26067 H 3433.6 3.80658 -5.44176 0
M  V30 26068 H 3435.65 5.93572 -2.52637 0
M  V30 26069 P 3437.41 7.39546 -4.75277 0
M  V30 26070 O 3438.84 7.84798 -5.01039 0
M  V30 26071 O 3437.05 5.9812 -5.08098 0
M  V30 26072 O 3437.09 7.57503 -3.1866 0
M  V30 26073 C 3436.93 8.97357 -2.74833 0
M  V30 26074 C 3437.47 9.07548 -1.32709 0
M  V30 26075 O 3436.42 8.62072 -0.606159 0
M  V30 26076 C 3438.69 8.25383 -0.938334 0
M  V30 26077 O 3439.43 8.74577 0.146954 0
M  V30 26078 C 3438.02 6.8802 -0.712559 0
M  V30 26079 O 3438.82 6.1189 0.194655 0
M  V30 26080 C 3436.68 7.27966 -0.139777 0
M  V30 26081 H 3436.72 7.25354 0.961601 0
M  V30 26082 H 3437.9 6.32557 -1.65702 0
M  V30 26083 H 3439.38 8.19355 -1.79097 0
M  V30 26084 H 3437.69 10.1294 -1.10029 0
M  V30 26085 H 3437.5 9.64276 -3.41316 0
M  V30 26086 H 3435.87 9.25417 -2.76357 0
M  V30 26087 H 3438.51 6.25267 1.07847 0
M  V30 26088 P 3440.36 8.791 -1.04043e-10 0
M  V30 26089 O 3441.79 9.31096 0.027933 0
M  V30 26090 O 3440 7.77869 -1.04071 0
M  V30 26091 O 3440.04 8.09533 1.41463 0
M  V30 26092 C 3439.88 9.0349 2.53943 0
M  V30 26093 C 3440.42 8.35226 3.79016 0
M  V30 26094 O 3439.37 7.57992 4.15078 0
M  V30 26095 C 3441.64 7.45087 3.67298 0
M  V30 26096 O 3442.38 7.27796 4.85194 0
M  V30 26097 C 3440.97 6.17323 3.12027 0
M  V30 26098 O 3441.77 5.04231 3.47188 0
M  V30 26099 C 3439.63 6.19961 3.81809 0
M  V30 26100 H 3439.67 5.58218 4.73051 0
M  V30 26101 H 3440.85 6.21726 2.02589 0
M  V30 26102 H 3442.33 7.86112 2.9231 0
M  V30 26103 H 3440.64 9.11627 4.55076 0
M  V30 26104 H 3440.45 9.9573 2.34194 0
M  V30 26105 H 3438.82 9.2792 2.67832 0
M  V30 26106 H 3441.46 4.67702 4.28772 0
M  V30 26107 P 3443.32 7.39546 4.75277 0
M  V30 26108 O 3444.74 7.81777 5.05738 0
M  V30 26109 O 3442.96 7.1065 3.32998 0
M  V30 26110 O 3442.99 6.04542 5.56673 0
M  V30 26111 C 3442.83 6.22772 7.02095 0
M  V30 26112 C 3443.37 4.97725 7.70406 0
M  V30 26113 O 3442.32 4.13256 7.58987 0
M  V30 26114 C 3444.59 4.28231 7.11815 0
M  V30 26115 O 3445.33 3.49945 8.01648 0
M  V30 26116 C 3443.92 3.5063 5.96244 0
M  V30 26117 O 3444.72 2.36482 5.64681 0
M  V30 26118 C 3442.58 3.15122 6.56374 0
M  V30 26119 H 3442.62 2.13853 6.99751 0
M  V30 26120 H 3443.8 4.13501 5.06559 0
M  V30 26121 H 3445.28 5.03285 6.70911 0
M  V30 26122 H 3443.59 5.20877 8.75697 0
M  V30 26123 H 3443.4 7.11046 7.35349 0
M  V30 26124 H 3441.77 6.35815 7.26986 0
M  V30 26125 H 3444.41 1.61644 6.13565 0
M  V30 26126 P 3446.27 3.65191 7.99657 0
M  V30 26127 O 3447.69 3.8425 8.48115 0
M  V30 26128 O 3445.91 4.17805 6.64342 0
M  V30 26129 O 3445.94 2.07613 7.95143 0
M  V30 26130 C 3445.78 1.44328 9.27336 0
M  V30 26131 C 3446.32 0.0220036 9.17197 0
M  V30 26132 O 3445.27 -0.626867 8.61923 0
M  V30 26133 C 3447.54 -0.24586 8.30336 0
M  V30 26134 O 3448.28 -1.39011 8.63583 0
M  V30 26135 C 3446.87 -0.273849 6.91158 0
M  V30 26136 O 3447.67 -1.06348 6.02892 0
M  V30 26137 C 3445.53 -0.897649 7.22545 0
M  V30 26138 H 3445.57 -1.9841 7.04286 0
M  V30 26139 H 3446.75 0.739928 6.497 0
M  V30 26140 H 3448.23 0.60668 8.36503 0
M  V30 26141 H 3446.54 -0.352479 10.1829 0
M  V30 26142 H 3446.35 2.00611 10.0304 0
M  V30 26143 H 3444.72 1.41843 9.55327 0
M  V30 26144 H 3447.36 -1.95734 6.03555 0
M  V30 26145 P 3449.22 -1.25109 8.70152 0
M  V30 26146 O 3450.64 -1.35274 9.21221 0
M  V30 26147 O 3448.86 -0.0769065 7.84762 0
M  V30 26148 O 3448.89 -2.55232 7.81161 0
M  V30 26149 C 3448.73 -3.79939 8.58154 0
M  V30 26150 C 3449.27 -4.94023 7.72785 0
M  V30 26151 O 3448.22 -5.18726 6.91205 0
M  V30 26152 C 3450.49 -4.69597 6.85231 0
M  V30 26153 O 3451.23 -5.83832 6.51337 0
M  V30 26154 C 3449.82 -3.96706 5.66633 0
M  V30 26155 O 3450.62 -4.15414 4.49689 0
M  V30 26156 C 3448.49 -4.66153 5.59313 0
M  V30 26157 H 3448.52 -5.47679 4.85214 0
M  V30 26158 H 3449.7 -2.89008 5.86566 0
M  V30 26159 H 3451.18 -4.0121 7.36511 0
M  V30 26160 H 3449.49 -5.80182 8.37584 0
M  V30 26161 H 3449.3 -3.73517 9.52265 0
M  V30 26162 H 3447.67 -3.97163 8.80359 0
M  V30 26163 H 3450.31 -4.90969 4.01921 0
M  V30 26164 P 3452.17 -5.75688 6.64379 0
M  V30 26165 O 3453.59 -6.11849 7.01846 0
M  V30 26166 O 3451.81 -4.30744 6.56026 0
M  V30 26167 O 3451.84 -6.37042 5.19165 0
M  V30 26168 C 3451.68 -7.83578 5.16515 0
M  V30 26169 C 3452.22 -8.33398 3.83019 0
M  V30 26170 O 3451.17 -8.10074 3.01034 0
M  V30 26171 C 3453.44 -7.65514 3.2257 0
M  V30 26172 O 3454.18 -8.4329 2.32297 0
M  V30 26173 C 3452.77 -6.40075 2.62207 0
M  V30 26174 O 3453.57 -5.92589 1.53712 0
M  V30 26175 C 3451.44 -6.9454 2.18503 0
M  V30 26176 H 3451.47 -7.23063 1.12091 0
M  V30 26177 H 3452.65 -5.6025 3.37201 0
M  V30 26178 H 3454.13 -7.35707 4.02681 0
M  V30 26179 H 3452.44 -9.40912 3.9095 0
M  V30 26180 H 3452.25 -8.29056 5.99158 0
M  V30 26181 H 3450.62 -8.10073 5.25882 0
M  V30 26182 H 3453.26 -6.30324 0.726794 0
M  V30 26183 P 3455.12 -8.4349 2.47671 0
M  V30 26184 O 3456.54 -8.94167 2.5964 0
M  V30 26185 O 3454.76 -7.1704 3.19006 0
M  V30 26186 O 3454.79 -8.16596 0.923387 0
M  V30 26187 C 3454.63 -9.38437 0.108857 0
M  V30 26188 C 3455.17 -9.08175 -1.28353 0
M  V30 26189 O 3454.12 -8.44229 -1.84713 0
M  V30 26190 C 3456.39 -8.18386 -1.42505 0
M  V30 26191 O 3457.13 -8.3501 -2.60497 0
M  V30 26192 C 3455.72 -6.80225 -1.25468 0
M  V30 26193 O 3456.52 -5.81621 -1.91066 0
M  V30 26194 C 3454.39 -7.02416 -1.9168 0
M  V30 26195 H 3454.42 -6.6888 -2.96621 0
M  V30 26196 H 3455.6 -6.53617 -0.192223 0
M  V30 26197 H 3457.09 -8.36622 -0.589963 0
M  V30 26198 H 3455.39 -10.0291 -1.79807 0
M  V30 26199 H 3455.2 -10.2138 0.558219 0
M  V30 26200 H 3453.57 -9.6579 0.0444202 0
M  V30 26201 H 3456.21 -5.69556 -2.79637 0
M  V30 26202 P 3458.07 -8.4349 -2.47671 0
M  V30 26203 O 3459.49 -8.92593 -2.65 0
M  V30 26204 O 3457.71 -7.7568 -1.19296 0
M  V30 26205 O 3457.75 -7.36886 -3.63805 0
M  V30 26206 C 3457.59 -7.95349 -4.982 0
M  V30 26207 C 3458.13 -6.94612 -5.98974 0
M  V30 26208 O 3457.07 -6.10347 -6.11815 0
M  V30 26209 C 3459.34 -6.11426 -5.62335 0
M  V30 26210 O 3460.08 -5.6162 -6.70584 0
M  V30 26211 C 3458.67 -5.04409 -4.73308 0
M  V30 26212 O 3459.47 -3.85992 -4.75183 0
M  V30 26213 C 3457.34 -4.8728 -5.41006 0
M  V30 26214 H 3457.37 -4.02333 -6.11157 0
M  V30 26215 H 3458.55 -5.39466 -3.69543 0
M  V30 26216 H 3460.04 -6.71916 -5.01943 0
M  V30 26217 H 3458.34 -7.4649 -6.93477 0
M  V30 26218 H 3458.15 -8.89416 -5.05237 0
M  V30 26219 H 3456.52 -8.14876 -5.18409 0
M  V30 26220 H 3459.16 -3.27957 -5.4317 0
M  V30 26221 P 3461.02 -5.75688 -6.64379 0
M  V30 26222 O 3462.44 -6.07627 -7.05504 0
M  V30 26223 O 3460.66 -5.88047 -5.19722 0
M  V30 26224 O 3460.7 -4.2322 -7.04443 0
M  V30 26225 C 3460.54 -3.99743 -8.4911 0
M  V30 26226 C 3461.08 -2.60516 -8.79425 0
M  V30 26227 O 3460.02 -1.82684 -8.4467 0
M  V30 26228 C 3462.29 -2.10343 -8.03628 0
M  V30 26229 O 3463.03 -1.09919 -8.67766 0
M  V30 26230 C 3461.62 -1.68446 -6.70876 0
M  V30 26231 O 3462.42 -0.678137 -6.08433 0
M  V30 26232 C 3460.29 -1.17436 -7.18567 0
M  V30 26233 H 3460.32 -0.0804732 -7.31656 0
M  V30 26234 H 3461.5 -2.54037 -6.02537 0
M  V30 26235 H 3462.99 -2.93881 -7.85526 0
M  V30 26236 H 3461.29 -2.53065 -9.86973 0
M  V30 26237 H 3461.1 -4.75072 -9.05887 0
M  V30 26238 H 3459.47 -4.05244 -8.76668 0
M  V30 26239 H 3462.11 0.177647 -6.34251 0
M  V30 26240 P 3463.97 -1.25109 -8.70152 0
M  V30 26241 O 3465.39 -1.29744 -9.22016 0
M  V30 26242 O 3463.61 -2.13714 -7.55141 0
M  V30 26243 O 3463.65 0.248149 -8.21425 0
M  V30 26244 C 3463.49 1.22779 -9.30434 0
M  V30 26245 C 3464.03 2.56293 -8.80664 0
M  V30 26246 O 3462.97 3.02979 -8.09349 0
M  V30 26247 C 3465.24 2.57523 -7.89775 0
M  V30 26248 O 3465.98 3.7668 -7.89438 0
M  V30 26249 C 3464.58 2.20997 -6.55446 0
M  V30 26250 O 3465.37 2.71895 -5.48509 0
M  V30 26251 C 3463.24 2.89693 -6.67988 0
M  V30 26252 H 3463.27 3.88793 -6.19859 0
M  V30 26253 H 3464.45 1.12046 -6.44229 0
M  V30 26254 H 3465.94 1.7746 -8.19711 0
M  V30 26255 H 3464.24 3.20706 -9.67112 0
M  V30 26256 H 3464.05 0.901032 -10.1892 0
M  V30 26257 H 3462.42 1.33049 -9.56592 0
M  V30 26258 H 3465.06 3.57847 -5.23962 0
M  V30 26259 P 3466.92 3.65191 -7.99657 0
M  V30 26260 O 3468.34 3.89332 -8.45794 0
M  V30 26261 O 3466.56 2.28472 -7.50807 0
M  V30 26262 O 3466.6 4.64972 -6.77611 0
M  V30 26263 C 3466.44 6.06319 -7.16352 0
M  V30 26264 C 3466.98 6.91731 -6.02299 0
M  V30 26265 O 3465.92 6.92449 -5.17064 0
M  V30 26266 C 3468.19 6.43627 -5.25174 0
M  V30 26267 O 3468.93 7.43686 -4.60469 0
M  V30 26268 C 3467.53 5.40275 -4.31916 0
M  V30 26269 O 3468.32 5.25279 -3.14438 0
M  V30 26270 C 3466.19 6.04847 -4.05327 0
M  V30 26271 H 3466.22 6.62195 -3.11261 0
M  V30 26272 H 3467.4 4.42556 -4.81383 0
M  V30 26273 H 3468.89 5.92458 -5.93643 0
M  V30 26274 H 3467.19 7.92655 -6.402 0
M  V30 26275 H 3467 6.26671 -8.0846 0
M  V30 26276 H 3465.37 6.29101 -7.32804 0
M  V30 26277 H 3468.01 5.84315 -2.47318 0
M  V30 26278 P 3469.87 7.39546 -4.75277 0
M  V30 26279 O 3471.29 7.84882 -5.01092 0
M  V30 26280 O 3469.51 5.9812 -5.08098 0
M  V30 26281 O 3469.55 7.57503 -3.1866 0
M  V30 26282 C 3469.39 8.97452 -2.74862 0
M  V30 26283 C 3469.93 9.07548 -1.32709 0
M  V30 26284 O 3468.87 8.61972 -0.606089 0
M  V30 26285 C 3471.15 8.25383 -0.938334 0
M  V30 26286 O 3471.88 8.74577 0.146954 0
M  V30 26287 C 3470.48 6.8802 -0.712559 0
M  V30 26288 O 3471.28 6.1181 0.188505 0
M  V30 26289 C 3469.14 7.27966 -0.139777 0
M  V30 26290 N 3468.1 6.39368 -0.623421 0
M  V30 26291 C 3468.27 5.71761 -1.78245 0
M  V30 26292 N 3467.24 4.962 -2.10491 0
M  V30 26293 C 3466.35 5.16158 -1.0635 0
M  V30 26294 C 3465.09 4.60425 -0.810266 0
M  V30 26295 N 3464.49 3.7057 -1.62914 0
M  V30 26296 N 3464.52 5.06 0.348685 0
M  V30 26297 C 3465.12 5.94532 1.20395 0
M  V30 26298 N 3466.3 6.48452 1.01191 0
M  V30 26299 C 3466.88 6.04423 -0.146291 0
M  V30 26300 H 3469.17 7.25255 0.961469 0
M  V30 26301 H 3470.35 6.32625 -1.65044 0
M  V30 26302 H 3471.84 8.19355 -1.79097 0
M  V30 26303 H 3470.14 10.1305 -1.09016 0
M  V30 26304 H 3469.95 9.64276 -3.41316 0
M  V30 26305 H 3468.32 9.25417 -2.76357 0
M  V30 26306 H 3464.59 6.21659 2.10714 0
M  V30 26307 H 3469.17 5.79354 -2.38959 0
M  V30 26308 H 3463.56 3.33174 -1.38982 0
M  V30 26309 H 3464.96 3.39714 -2.48836 0
M  V30 26310 H 3470.96 6.25169 1.0783 0
M  V30 26311 P 3472.82 8.791 -1.0923e-10 0
M  V30 26312 O 3474.24 9.31196 0.027936 0
M  V30 26313 O 3472.46 7.77869 -1.04071 0
M  V30 26314 O 3472.5 8.09533 1.41463 0
M  V30 26315 C 3472.34 9.03587 2.5397 0
M  V30 26316 C 3472.88 8.35226 3.79016 0
M  V30 26317 O 3471.82 7.57904 4.1503 0
M  V30 26318 C 3474.1 7.45087 3.67298 0
M  V30 26319 O 3474.83 7.27796 4.85194 0
M  V30 26320 C 3473.43 6.17323 3.12027 0
M  V30 26321 O 3474.23 5.04496 3.46627 0
M  V30 26322 C 3472.09 6.19961 3.81809 0
M  V30 26323 N 3471.05 5.71575 2.93223 0
M  V30 26324 C 3471.22 5.77362 1.59168 0
M  V30 26325 N 3470.19 5.3123 0.911893 0
M  V30 26326 C 3469.3 4.91717 1.89588 0
M  V30 26327 C 3468.04 4.3114 1.8076 0
M  V30 26328 N 3467.44 3.99821 0.632928 0
M  V30 26329 N 3467.47 4.06823 3.02898 0
M  V30 26330 C 3468.07 4.35062 4.22711 0
M  V30 26331 N 3469.25 4.90805 4.35707 0
M  V30 26332 C 3469.83 5.16382 3.14469 0
M  V30 26333 H 3472.12 5.58142 4.72986 0
M  V30 26334 H 3473.3 6.21428 2.0318 0
M  V30 26335 H 3474.79 7.86112 2.9231 0
M  V30 26336 H 3473.09 9.11171 4.55987 0
M  V30 26337 H 3472.9 9.9573 2.34194 0
M  V30 26338 H 3471.27 9.2792 2.67832 0
M  V30 26339 H 3467.54 4.09052 5.13359 0
M  V30 26340 H 3472.12 6.16575 1.12198 0
M  V30 26341 H 3466.51 3.55423 0.632085 0
M  V30 26342 H 3467.91 4.20317 -0.256712 0
M  V30 26343 H 3473.91 4.67628 4.28704 0
M  V30 26344 P 3475.77 7.39546 4.75277 0
M  V30 26345 O 3477.19 7.81777 5.05738 0
M  V30 26346 O 3475.41 7.1065 3.32998 0
M  V30 26347 O 3475.45 6.04542 5.56673 0
M  V30 26348 C 3475.29 6.22772 7.02095 0
M  V30 26349 C 3475.83 4.97725 7.70406 0
M  V30 26350 O 3474.77 4.13256 7.58987 0
M  V30 26351 C 3477.05 4.28231 7.11815 0
M  V30 26352 O 3477.78 3.49945 8.01648 0
M  V30 26353 C 3476.38 3.5063 5.96244 0
M  V30 26354 O 3477.18 2.36482 5.64681 0
M  V30 26355 C 3475.04 3.15122 6.56374 0
M  V30 26356 H 3475.07 2.13853 6.99751 0
M  V30 26357 H 3476.26 4.13501 5.06559 0
M  V30 26358 H 3477.74 5.03285 6.70911 0
M  V30 26359 H 3476.05 5.20877 8.75697 0
M  V30 26360 H 3475.86 7.11046 7.35349 0
M  V30 26361 H 3474.23 6.35815 7.26986 0
M  V30 26362 H 3476.86 1.61644 6.13565 0
M  V30 26363 P 3478.72 3.65191 7.99657 0
M  V30 26364 O 3480.14 3.84292 8.48206 0
M  V30 26365 O 3478.36 4.17805 6.64342 0
M  V30 26366 O 3478.4 2.07613 7.95143 0
M  V30 26367 C 3478.24 1.44344 9.27435 0
M  V30 26368 C 3478.78 0.0220036 9.17197 0
M  V30 26369 O 3477.72 -0.626794 8.61824 0
M  V30 26370 C 3480 -0.24586 8.30336 0
M  V30 26371 O 3480.74 -1.39011 8.63583 0
M  V30 26372 C 3479.33 -0.273849 6.91158 0
M  V30 26373 O 3480.13 -1.05728 6.029 0
M  V30 26374 C 3477.99 -0.897649 7.22545 0
M  V30 26375 N 3476.95 -0.292839 6.41732 0
M  V30 26376 C 3477.12 0.950603 5.91308 0
M  V30 26377 N 3476.09 1.37732 5.21105 0
M  V30 26378 C 3475.21 0.318109 5.26039 0
M  V30 26379 C 3473.94 0.146766 4.6727 0
M  V30 26380 N 3473.34 1.08519 3.89983 0
M  V30 26381 N 3473.37 -1.06525 4.95887 0
M  V30 26382 C 3473.98 -2.0378 5.71347 0
M  V30 26383 N 3475.15 -1.92445 6.27451 0
M  V30 26384 C 3475.73 -0.715382 6.00353 0
M  V30 26385 H 3478.02 -1.98383 7.04189 0
M  V30 26386 H 3479.21 0.733318 6.49674 0
M  V30 26387 H 3480.69 0.60668 8.36503 0
M  V30 26388 H 3479 -0.362662 10.1825 0
M  V30 26389 H 3478.81 2.00611 10.0304 0
M  V30 26390 H 3477.18 1.41843 9.55327 0
M  V30 26391 H 3473.44 -2.97041 5.85344 0
M  V30 26392 H 3478.02 1.54076 6.07465 0
M  V30 26393 H 3472.41 0.901517 3.49562 0
M  V30 26394 H 3473.81 1.97957 3.71669 0
M  V30 26395 H 3479.82 -1.95704 6.0346 0
M  V30 26396 P 3481.67 -1.25109 8.70152 0
M  V30 26397 O 3483.09 -1.35303 9.21419 0
M  V30 26398 O 3481.31 -0.0769065 7.84762 0
M  V30 26399 O 3481.35 -2.55232 7.81161 0
M  V30 26400 C 3481.19 -3.79939 8.58154 0
M  V30 26401 C 3481.73 -4.93969 7.72701 0
M  V30 26402 O 3480.67 -5.18726 6.91205 0
M  V30 26403 C 3482.95 -4.69597 6.85231 0
M  V30 26404 O 3483.69 -5.83832 6.51337 0
M  V30 26405 C 3482.28 -3.96706 5.66633 0
M  V30 26406 O 3483.08 -4.15346 4.49615 0
M  V30 26407 C 3480.94 -4.66153 5.59313 0
M  V30 26408 N 3479.9 -3.71582 5.24027 0
M  V30 26409 C 3479.96 -2.46018 5.67902 0
M  V30 26410 N 3478.92 -1.74868 5.24518 0
M  V30 26411 C 3478.18 -2.61333 4.54528 0
M  V30 26412 C 3476.88 -2.46162 3.95441 0
M  V30 26413 O 3476.14 -1.46013 3.94122 0
M  V30 26414 N 3476.45 -3.59334 3.34752 0
M  V30 26415 C 3477.19 -4.79605 3.3023 0
M  V30 26416 N 3476.6 -5.82109 2.6065 0
M  V30 26417 N 3478.35 -4.97402 3.8843 0
M  V30 26418 C 3478.8 -3.86258 4.50476 0
M  V30 26419 H 3480.97 -5.47679 4.85214 0
M  V30 26420 H 3482.16 -2.88964 5.86476 0
M  V30 26421 H 3483.64 -4.01947 7.36109 0
M  V30 26422 H 3481.95 -5.80182 8.37584 0
M  V30 26423 H 3481.76 -3.73517 9.52265 0
M  V30 26424 H 3480.13 -3.97163 8.80359 0
M  V30 26425 H 3475.55 -3.5825 2.90294 0
M  V30 26426 H 3480.76 -2.06161 6.30974 0
M  V30 26427 H 3475.69 -5.66979 2.15354 0
M  V30 26428 H 3477.06 -6.73686 2.54344 0
M  V30 26429 H 3482.77 -4.90891 4.01857 0
M  V30 26430 P 3484.62 -5.75688 6.64379 0
M  V30 26431 O 3486.05 -6.11849 7.01846 0
M  V30 26432 O 3484.26 -4.30744 6.56026 0
M  V30 26433 O 3484.3 -6.37042 5.19165 0
M  V30 26434 C 3484.14 -7.83578 5.16515 0
M  V30 26435 C 3484.68 -8.33398 3.83019 0
M  V30 26436 O 3483.62 -8.10074 3.01034 0
M  V30 26437 C 3485.9 -7.65514 3.2257 0
M  V30 26438 O 3486.64 -8.4329 2.32297 0
M  V30 26439 C 3485.23 -6.40075 2.62207 0
M  V30 26440 O 3486.03 -5.92589 1.53712 0
M  V30 26441 C 3483.89 -6.9454 2.18503 0
M  V30 26442 H 3483.92 -7.23063 1.12091 0
M  V30 26443 H 3485.11 -5.6025 3.37201 0
M  V30 26444 H 3486.59 -7.35707 4.02681 0
M  V30 26445 H 3484.9 -9.40912 3.9095 0
M  V30 26446 H 3484.71 -8.29056 5.99158 0
M  V30 26447 H 3483.08 -8.10073 5.25882 0
M  V30 26448 H 3485.72 -6.30324 0.726794 0
M  V30 26449 P 3487.57 -8.4349 2.47671 0
M  V30 26450 O 3489 -8.94167 2.5964 0
M  V30 26451 O 3487.21 -7.1704 3.19006 0
M  V30 26452 O 3487.25 -8.16596 0.923387 0
M  V30 26453 C 3487.09 -9.38437 0.108857 0
M  V30 26454 C 3487.63 -9.08175 -1.28353 0
M  V30 26455 O 3486.57 -8.44229 -1.84713 0
M  V30 26456 C 3488.85 -8.18386 -1.42505 0
M  V30 26457 O 3489.59 -8.3501 -2.60497 0
M  V30 26458 C 3488.18 -6.80225 -1.25468 0
M  V30 26459 O 3488.98 -5.81621 -1.91066 0
M  V30 26460 C 3486.84 -7.02416 -1.9168 0
M  V30 26461 H 3486.87 -6.6888 -2.96621 0
M  V30 26462 H 3488.06 -6.53617 -0.192223 0
M  V30 26463 H 3489.54 -8.36622 -0.589963 0
M  V30 26464 H 3487.85 -10.0291 -1.79807 0
M  V30 26465 H 3487.66 -10.2138 0.558219 0
M  V30 26466 H 3486.03 -9.6579 0.0444202 0
M  V30 26467 H 3488.67 -5.69556 -2.79637 0
M  V30 26468 P 3490.52 -8.4349 -2.47671 0
M  V30 26469 O 3491.95 -8.92593 -2.65 0
M  V30 26470 O 3490.16 -7.7568 -1.19296 0
M  V30 26471 O 3490.2 -7.36886 -3.63805 0
M  V30 26472 C 3490.04 -7.95349 -4.982 0
M  V30 26473 C 3490.58 -6.94612 -5.98974 0
M  V30 26474 O 3489.53 -6.10347 -6.11815 0
M  V30 26475 C 3491.8 -6.11426 -5.62335 0
M  V30 26476 O 3492.54 -5.6162 -6.70584 0
M  V30 26477 C 3491.13 -5.04409 -4.73308 0
M  V30 26478 O 3491.93 -3.85992 -4.75183 0
M  V30 26479 C 3489.79 -4.8728 -5.41006 0
M  V30 26480 H 3489.83 -4.02333 -6.11157 0
M  V30 26481 H 3491.01 -5.39466 -3.69543 0
M  V30 26482 H 3492.49 -6.71916 -5.01943 0
M  V30 26483 H 3490.8 -7.4649 -6.93477 0
M  V30 26484 H 3490.61 -8.89416 -5.05237 0
M  V30 26485 H 3488.98 -8.14876 -5.18409 0
M  V30 26486 H 3491.62 -3.27957 -5.4317 0
M  V30 26487 P 3493.47 -5.75688 -6.64379 0
M  V30 26488 O 3494.9 -6.07627 -7.05504 0
M  V30 26489 O 3493.11 -5.88047 -5.19722 0
M  V30 26490 O 3493.15 -4.2322 -7.04443 0
M  V30 26491 C 3492.99 -3.99743 -8.4911 0
M  V30 26492 C 3493.53 -2.60516 -8.79425 0
M  V30 26493 O 3492.48 -1.82684 -8.4467 0
M  V30 26494 C 3494.75 -2.10343 -8.03628 0
M  V30 26495 O 3495.49 -1.09919 -8.67766 0
M  V30 26496 C 3494.08 -1.68446 -6.70876 0
M  V30 26497 O 3494.88 -0.678137 -6.08433 0
M  V30 26498 C 3492.74 -1.17436 -7.18567 0
M  V30 26499 H 3492.78 -0.0804732 -7.31656 0
M  V30 26500 H 3493.96 -2.54037 -6.02537 0
M  V30 26501 H 3495.44 -2.93881 -7.85526 0
M  V30 26502 H 3493.75 -2.53065 -9.86973 0
M  V30 26503 H 3493.56 -4.75072 -9.05887 0
M  V30 26504 H 3491.93 -4.05244 -8.76668 0
M  V30 26505 H 3494.57 0.177647 -6.34251 0
M  V30 26506 P 3496.43 -1.25109 -8.70152 0
M  V30 26507 O 3497.85 -1.29744 -9.22016 0
M  V30 26508 O 3496.07 -2.13714 -7.55141 0
M  V30 26509 O 3496.1 0.248149 -8.21425 0
M  V30 26510 C 3495.94 1.22779 -9.30434 0
M  V30 26511 C 3496.48 2.56293 -8.80664 0
M  V30 26512 O 3495.43 3.02979 -8.09349 0
M  V30 26513 C 3497.7 2.57523 -7.89775 0
M  V30 26514 O 3498.44 3.7668 -7.89438 0
M  V30 26515 C 3497.03 2.20997 -6.55446 0
M  V30 26516 O 3497.83 2.71895 -5.48509 0
M  V30 26517 C 3495.69 2.89693 -6.67988 0
M  V30 26518 H 3495.73 3.88793 -6.19859 0
M  V30 26519 H 3496.91 1.12046 -6.44229 0
M  V30 26520 H 3498.39 1.7746 -8.19711 0
M  V30 26521 H 3496.7 3.20706 -9.67112 0
M  V30 26522 H 3496.51 0.901032 -10.1892 0
M  V30 26523 H 3494.88 1.33049 -9.56592 0
M  V30 26524 H 3497.52 3.57847 -5.23962 0
M  V30 26525 P 3499.38 3.65191 -7.99657 0
M  V30 26526 O 3500.8 3.89332 -8.45794 0
M  V30 26527 O 3499.02 2.28472 -7.50807 0
M  V30 26528 O 3499.05 4.64972 -6.77611 0
M  V30 26529 C 3498.89 6.06319 -7.16352 0
M  V30 26530 C 3499.43 6.91731 -6.02299 0
M  V30 26531 O 3498.38 6.92449 -5.17064 0
M  V30 26532 C 3500.65 6.43627 -5.25174 0
M  V30 26533 O 3501.39 7.43686 -4.60469 0
M  V30 26534 C 3499.98 5.40275 -4.31916 0
M  V30 26535 O 3500.78 5.25279 -3.14438 0
M  V30 26536 C 3498.65 6.04847 -4.05327 0
M  V30 26537 H 3498.68 6.62195 -3.11261 0
M  V30 26538 H 3499.86 4.42556 -4.81383 0
M  V30 26539 H 3501.34 5.92458 -5.93643 0
M  V30 26540 H 3499.65 7.92655 -6.402 0
M  V30 26541 H 3499.46 6.26671 -8.0846 0
M  V30 26542 H 3497.83 6.29101 -7.32804 0
M  V30 26543 H 3500.47 5.84315 -2.47318 0
M  V30 26544 P 3502.33 7.39546 -4.75277 0
M  V30 26545 O 3503.75 7.84798 -5.01039 0
M  V30 26546 O 3501.97 5.9812 -5.08098 0
M  V30 26547 O 3502 7.57503 -3.1866 0
M  V30 26548 C 3501.84 8.97357 -2.74833 0
M  V30 26549 C 3502.38 9.07548 -1.32709 0
M  V30 26550 O 3501.33 8.62072 -0.606159 0
M  V30 26551 C 3503.6 8.25383 -0.938334 0
M  V30 26552 O 3504.34 8.74577 0.146954 0
M  V30 26553 C 3502.93 6.8802 -0.712559 0
M  V30 26554 O 3503.73 6.1189 0.194655 0
M  V30 26555 C 3501.6 7.27966 -0.139777 0
M  V30 26556 H 3501.63 7.25354 0.961601 0
M  V30 26557 H 3502.81 6.32557 -1.65702 0
M  V30 26558 H 3504.29 8.19355 -1.79097 0
M  V30 26559 H 3502.6 10.1294 -1.10029 0
M  V30 26560 H 3502.41 9.64276 -3.41316 0
M  V30 26561 H 3500.78 9.25417 -2.76357 0
M  V30 26562 H 3503.42 6.25267 1.07847 0
M  V30 26563 P 3505.28 8.791 -1.14416e-10 0
M  V30 26564 O 3506.7 9.31196 0.027936 0
M  V30 26565 O 3504.92 7.77869 -1.04071 0
M  V30 26566 O 3504.95 8.09533 1.41463 0
M  V30 26567 C 3504.79 9.03587 2.5397 0
M  V30 26568 C 3505.33 8.35226 3.79016 0
M  V30 26569 O 3504.28 7.57904 4.1503 0
M  V30 26570 C 3506.55 7.45087 3.67298 0
M  V30 26571 O 3507.29 7.27796 4.85194 0
M  V30 26572 C 3505.88 6.17323 3.12027 0
M  V30 26573 O 3506.68 5.04496 3.46627 0
M  V30 26574 C 3504.55 6.19961 3.81809 0
M  V30 26575 N 3503.5 5.71575 2.93223 0
M  V30 26576 C 3503.67 5.77362 1.59168 0
M  V30 26577 N 3502.65 5.3123 0.911893 0
M  V30 26578 C 3501.76 4.91717 1.89588 0
M  V30 26579 C 3500.49 4.3114 1.8076 0
M  V30 26580 N 3499.93 4.06823 3.02898 0
M  V30 26581 C 3500.53 4.35062 4.22711 0
M  V30 26582 N 3501.71 4.90805 4.35707 0
M  V30 26583 C 3502.28 5.16382 3.14469 0
M  V30 26584 H 3505.76 6.21428 2.0318 0
M  V30 26585 H 3507.24 7.86112 2.9231 0
M  V30 26586 H 3505.55 9.11171 4.55987 0
M  V30 26587 H 3505.36 9.9573 2.34194 0
M  V30 26588 H 3503.73 9.2792 2.67832 0
M  V30 26589 H 3504.57 6.16575 1.12198 0
M  V30 26590 H 3506.37 4.67628 4.28704 0
M  V30 26591 P 3508.23 7.39546 4.75277 0
M  V30 26592 O 3509.65 7.81777 5.05738 0
M  V30 26593 O 3507.87 7.1065 3.32998 0
M  V30 26594 O 3507.9 6.04542 5.56673 0
M  V30 26595 C 3507.74 6.22772 7.02095 0
M  V30 26596 C 3508.28 4.97725 7.70406 0
M  V30 26597 O 3507.23 4.13256 7.58987 0
M  V30 26598 C 3509.5 4.28231 7.11815 0
M  V30 26599 O 3510.24 3.49945 8.01648 0
M  V30 26600 C 3508.83 3.5063 5.96244 0
M  V30 26601 O 3509.63 2.36482 5.64681 0
M  V30 26602 C 3507.5 3.15122 6.56374 0
M  V30 26603 H 3507.53 2.13853 6.99751 0
M  V30 26604 H 3508.71 4.13501 5.06559 0
M  V30 26605 H 3510.2 5.03285 6.70911 0
M  V30 26606 H 3508.5 5.20877 8.75697 0
M  V30 26607 H 3508.31 7.11046 7.35349 0
M  V30 26608 H 3506.68 6.35815 7.26986 0
M  V30 26609 H 3509.32 1.61644 6.13565 0
M  V30 26610 P 3511.18 3.65191 7.99657 0
M  V30 26611 O 3512.6 3.8425 8.48115 0
M  V30 26612 O 3510.82 4.17805 6.64342 0
M  V30 26613 O 3510.86 2.07613 7.95143 0
M  V30 26614 C 3510.7 1.44328 9.27336 0
M  V30 26615 C 3511.24 0.0220036 9.17197 0
M  V30 26616 O 3510.18 -0.626867 8.61923 0
M  V30 26617 C 3512.45 -0.24586 8.30336 0
M  V30 26618 O 3513.19 -1.39011 8.63583 0
M  V30 26619 C 3511.78 -0.273849 6.91158 0
M  V30 26620 O 3512.58 -1.06348 6.02892 0
M  V30 26621 C 3510.45 -0.897649 7.22545 0
M  V30 26622 H 3510.48 -1.9841 7.04286 0
M  V30 26623 H 3511.66 0.739928 6.497 0
M  V30 26624 H 3513.15 0.60668 8.36503 0
M  V30 26625 H 3511.45 -0.352479 10.1829 0
M  V30 26626 H 3511.26 2.00611 10.0304 0
M  V30 26627 H 3509.63 1.41843 9.55327 0
M  V30 26628 H 3512.27 -1.95734 6.03555 0
M  V30 26629 P 3514.13 -1.25109 8.70152 0
M  V30 26630 O 3515.55 -1.35274 9.21221 0
M  V30 26631 O 3513.77 -0.0769065 7.84762 0
M  V30 26632 O 3513.81 -2.55232 7.81161 0
M  V30 26633 C 3513.65 -3.79939 8.58154 0
M  V30 26634 C 3514.19 -4.94023 7.72785 0
M  V30 26635 O 3513.13 -5.18726 6.91205 0
M  V30 26636 C 3515.4 -4.69597 6.85231 0
M  V30 26637 O 3516.14 -5.83832 6.51337 0
M  V30 26638 C 3514.73 -3.96706 5.66633 0
M  V30 26639 O 3515.53 -4.15414 4.49689 0
M  V30 26640 C 3513.4 -4.66153 5.59313 0
M  V30 26641 H 3513.43 -5.47679 4.85214 0
M  V30 26642 H 3514.61 -2.89008 5.86566 0
M  V30 26643 H 3516.1 -4.0121 7.36511 0
M  V30 26644 H 3514.4 -5.80182 8.37584 0
M  V30 26645 H 3514.21 -3.73517 9.52265 0
M  V30 26646 H 3512.58 -3.97163 8.80359 0
M  V30 26647 H 3515.22 -4.90969 4.01921 0
M  V30 26648 P 3517.08 -5.75688 6.64379 0
M  V30 26649 O 3518.5 -6.11849 7.01846 0
M  V30 26650 O 3516.72 -4.30744 6.56026 0
M  V30 26651 O 3516.76 -6.37042 5.19165 0
M  V30 26652 C 3516.6 -7.83578 5.16515 0
M  V30 26653 C 3517.14 -8.33398 3.83019 0
M  V30 26654 O 3516.08 -8.10074 3.01034 0
M  V30 26655 C 3518.35 -7.65514 3.2257 0
M  V30 26656 O 3519.09 -8.4329 2.32297 0
M  V30 26657 C 3517.69 -6.40075 2.62207 0
M  V30 26658 O 3518.48 -5.92589 1.53712 0
M  V30 26659 C 3516.35 -6.9454 2.18503 0
M  V30 26660 H 3516.38 -7.23063 1.12091 0
M  V30 26661 H 3517.56 -5.6025 3.37201 0
M  V30 26662 H 3519.05 -7.35707 4.02681 0
M  V30 26663 H 3517.35 -9.40912 3.9095 0
M  V30 26664 H 3517.16 -8.29056 5.99158 0
M  V30 26665 H 3515.53 -8.10073 5.25882 0
M  V30 26666 H 3518.17 -6.30324 0.726794 0
M  V30 26667 P 3520.03 -8.4349 2.47671 0
M  V30 26668 O 3521.43 -8.98227 2.65696 0
M  V30 26669 O 3519.65 -7.20409 3.23964 0
M  V30 26670 O 3519.71 -8.16496 0.923275 0
M  V30 26671 C 3519.55 -9.38437 0.108857 0
M  V30 26672 C 3520.09 -9.08076 -1.28339 0
M  V30 26673 O 3519.03 -8.44131 -1.84692 0
M  V30 26674 C 3521.3 -8.18386 -1.42505 0
M  V30 26675 O 3522.04 -8.3501 -2.60497 0
M  V30 26676 C 3520.64 -6.80225 -1.25468 0
M  V30 26677 O 3521.44 -5.81526 -1.91035 0
M  V30 26678 C 3519.3 -7.02416 -1.9168 0
M  V30 26679 N 3518.26 -6.31033 -1.20314 0
M  V30 26680 C 3517.22 -5.77149 -1.928 0
M  V30 26681 O 3517.26 -5.8521 -3.17729 0
M  V30 26682 N 3516.21 -5.15445 -1.27997 0
M  V30 26683 C 3516.26 -5.04472 0.0534726 0
M  V30 26684 N 3515.25 -4.44183 0.669496 0
M  V30 26685 C 3517.35 -5.55244 0.808522 0
M  V30 26686 C 3518.32 -6.18542 0.13981 0
M  V30 26687 H 3519.33 -6.68789 -2.9658 0
M  V30 26688 H 3520.51 -6.53498 -0.198729 0
M  V30 26689 H 3522 -8.36663 -0.5984 0
M  V30 26690 H 3520.3 -10.0273 -1.8081 0
M  V30 26691 H 3520.11 -10.2138 0.558219 0
M  V30 26692 H 3518.48 -9.6569 0.0444156 0
M  V30 26693 H 3517.4 -5.43017 1.88792 0
M  V30 26694 H 3519.17 -6.60539 0.686773 0
M  V30 26695 H 3514.46 -4.07222 0.12057 0
M  V30 26696 H 3515.25 -4.34288 1.69244 0
M  V30 26697 H 3521.22 -5.79638 -2.8315 0
M  V30 26698 P 3522.98 -8.4349 -2.47671 0
M  V30 26699 O 3524.4 -8.92593 -2.65 0
M  V30 26700 O 3522.62 -7.7568 -1.19296 0
M  V30 26701 O 3522.66 -7.36886 -3.63805 0
M  V30 26702 C 3522.5 -7.95349 -4.982 0
M  V30 26703 C 3523.04 -6.94612 -5.98974 0
M  V30 26704 O 3521.98 -6.10347 -6.11815 0
M  V30 26705 C 3524.26 -6.11426 -5.62335 0
M  V30 26706 O 3524.99 -5.6162 -6.70584 0
M  V30 26707 C 3523.59 -5.04409 -4.73308 0
M  V30 26708 O 3524.39 -3.85992 -4.75183 0
M  V30 26709 C 3522.25 -4.8728 -5.41006 0
M  V30 26710 H 3522.28 -4.02333 -6.11157 0
M  V30 26711 H 3523.46 -5.39466 -3.69543 0
M  V30 26712 H 3524.95 -6.71916 -5.01943 0
M  V30 26713 H 3523.25 -7.4649 -6.93477 0
M  V30 26714 H 3523.06 -8.89416 -5.05237 0
M  V30 26715 H 3521.43 -8.14876 -5.18409 0
M  V30 26716 H 3524.07 -3.27957 -5.4317 0
M  V30 26717 P 3525.93 -5.75688 -6.64379 0
M  V30 26718 O 3527.35 -6.07627 -7.05504 0
M  V30 26719 O 3525.57 -5.88047 -5.19722 0
M  V30 26720 O 3525.61 -4.2322 -7.04443 0
M  V30 26721 C 3525.45 -3.99743 -8.4911 0
M  V30 26722 C 3525.99 -2.60516 -8.79425 0
M  V30 26723 O 3524.93 -1.82684 -8.4467 0
M  V30 26724 C 3527.21 -2.10343 -8.03628 0
M  V30 26725 O 3527.94 -1.09919 -8.67766 0
M  V30 26726 C 3526.54 -1.68446 -6.70876 0
M  V30 26727 O 3527.34 -0.678137 -6.08433 0
M  V30 26728 C 3525.2 -1.17436 -7.18567 0
M  V30 26729 H 3525.23 -0.0804732 -7.31656 0
M  V30 26730 H 3526.42 -2.54037 -6.02537 0
M  V30 26731 H 3527.9 -2.93881 -7.85526 0
M  V30 26732 H 3526.21 -2.53065 -9.86973 0
M  V30 26733 H 3526.02 -4.75072 -9.05887 0
M  V30 26734 H 3524.39 -4.05244 -8.76668 0
M  V30 26735 H 3527.02 0.177647 -6.34251 0
M  V30 26736 P 3528.88 -1.25109 -8.70152 0
M  V30 26737 O 3530.3 -1.29758 -9.22115 0
M  V30 26738 O 3528.52 -2.13714 -7.55141 0
M  V30 26739 O 3528.56 0.248149 -8.21425 0
M  V30 26740 C 3528.4 1.22792 -9.30533 0
M  V30 26741 C 3528.94 2.56293 -8.80664 0
M  V30 26742 O 3527.88 3.02944 -8.09255 0
M  V30 26743 C 3530.16 2.57523 -7.89775 0
M  V30 26744 O 3530.89 3.7668 -7.89438 0
M  V30 26745 C 3529.49 2.20997 -6.55446 0
M  V30 26746 O 3530.29 2.71302 -5.48691 0
M  V30 26747 C 3528.15 2.89693 -6.67988 0
M  V30 26748 N 3527.11 2.08895 -6.07487 0
M  V30 26749 C 3527.28 0.753809 -5.94137 0
M  V30 26750 N 3526.25 0.146592 -5.38801 0
M  V30 26751 C 3525.36 1.1768 -5.13693 0
M  V30 26752 C 3524.1 1.17563 -4.52477 0
M  V30 26753 N 3523.53 2.41918 -4.45789 0
M  V30 26754 C 3524.13 3.56493 -4.90792 0
M  V30 26755 N 3525.31 3.61423 -5.47817 0
M  V30 26756 C 3525.89 2.37779 -5.5588 0
M  V30 26757 H 3529.37 1.12673 -6.44018 0
M  V30 26758 H 3530.85 1.7746 -8.19711 0
M  V30 26759 H 3529.15 3.21673 -9.66791 0
M  V30 26760 H 3528.96 0.901032 -10.1892 0
M  V30 26761 H 3527.33 1.33049 -9.56592 0
M  V30 26762 H 3528.18 0.233081 -6.26266 0
M  V30 26763 H 3529.97 3.5779 -5.23879 0
M  V30 26764 P 3531.83 3.65191 -7.99657 0
M  V30 26765 O 3533.23 3.87414 -8.52829 0
M  V30 26766 O 3531.45 2.26932 -7.566 0
M  V30 26767 O 3531.51 4.64915 -6.77529 0
M  V30 26768 C 3531.35 6.06319 -7.16352 0
M  V30 26769 C 3531.89 6.91655 -6.02234 0
M  V30 26770 O 3530.83 6.92369 -5.17005 0
M  V30 26771 C 3533.11 6.43627 -5.25174 0
M  V30 26772 O 3533.85 7.43686 -4.60469 0
M  V30 26773 C 3532.44 5.40275 -4.31916 0
M  V30 26774 O 3533.24 5.25193 -3.14386 0
M  V30 26775 C 3531.1 6.04847 -4.05327 0
M  V30 26776 N 3530.06 5.04166 -3.98114 0
M  V30 26777 C 3529.02 5.2366 -3.09923 0
M  V30 26778 O 3529.06 6.23355 -2.34204 0
M  V30 26779 N 3528.01 4.34279 -3.05727 0
M  V30 26780 C 3528.06 3.26317 -3.84756 0
M  V30 26781 C 3529.16 3.02504 -4.72573 0
M  V30 26782 C 3530.12 3.94493 -4.76618 0
M  V30 26783 H 3531.13 6.62104 -3.11218 0
M  V30 26784 H 3532.32 4.42969 -4.80867 0
M  V30 26785 H 3533.8 5.93122 -5.93121 0
M  V30 26786 H 3532.11 7.93295 -6.39407 0
M  V30 26787 H 3531.92 6.26671 -8.0846 0
M  V30 26788 H 3530.29 6.29036 -7.32728 0
M  V30 26789 H 3529.2 2.12921 -5.34017 0
M  V30 26790 H 3530.97 3.80658 -5.44176 0
M  V30 26791 H 3533.02 5.93572 -2.52637 0
M  V30 26792 P 3534.78 7.39546 -4.75277 0
M  V30 26793 O 3536.2 7.84966 -5.01146 0
M  V30 26794 O 3534.42 5.9812 -5.08098 0
M  V30 26795 O 3534.46 7.57503 -3.1866 0
M  V30 26796 C 3534.3 8.97357 -2.74833 0
M  V30 26797 C 3534.84 9.0745 -1.32694 0
M  V30 26798 O 3533.78 8.62072 -0.606159 0
M  V30 26799 C 3536.06 8.25383 -0.938334 0
M  V30 26800 O 3536.8 8.74577 0.146954 0
M  V30 26801 C 3535.39 6.8802 -0.712559 0
M  V30 26802 O 3536.19 6.11791 0.194623 0
M  V30 26803 C 3534.05 7.27966 -0.139777 0
M  V30 26804 N 3533.01 6.39368 -0.623421 0
M  V30 26805 C 3533.07 5.90299 -1.85969 0
M  V30 26806 N 3532.03 5.10919 -2.1133 0
M  V30 26807 C 3531.29 5.14646 -1.0015 0
M  V30 26808 C 3529.99 4.60057 -0.729219 0
M  V30 26809 O 3529.25 3.93476 -1.47746 0
M  V30 26810 N 3529.56 4.88302 0.523505 0
M  V30 26811 C 3530.3 5.63646 1.46207 0
M  V30 26812 N 3529.71 5.78186 2.69239 0
M  V30 26813 N 3531.46 6.19285 1.21544 0
M  V30 26814 C 3531.91 5.93392 -0.0308487 0
M  V30 26815 H 3534.08 7.25354 0.961601 0
M  V30 26816 H 3535.27 6.3246 -1.65676 0
M  V30 26817 H 3536.75 8.19533 -1.78278 0
M  V30 26818 H 3535.06 10.1294 -1.10029 0
M  V30 26819 H 3534.87 9.64276 -3.41316 0
M  V30 26820 H 3533.24 9.25417 -2.76357 0
M  V30 26821 H 3528.66 4.53993 0.806451 0
M  V30 26822 H 3533.87 6.11865 -2.57394 0
M  V30 26823 H 3528.8 5.34046 2.87467 0
M  V30 26824 H 3530.17 6.33391 3.42578 0
M  V30 26825 H 3535.88 6.25169 1.0783 0
M  V30 26826 P 3537.73 8.791 -1.19603e-10 0
M  V30 26827 O 3539.16 9.31096 0.027933 0
M  V30 26828 O 3537.37 7.77869 -1.04071 0
M  V30 26829 O 3537.41 8.09533 1.41463 0
M  V30 26830 C 3537.25 9.0349 2.53943 0
M  V30 26831 C 3537.79 8.35226 3.79016 0
M  V30 26832 O 3536.73 7.57992 4.15078 0
M  V30 26833 C 3539.01 7.45087 3.67298 0
M  V30 26834 O 3539.75 7.27796 4.85194 0
M  V30 26835 C 3538.34 6.17323 3.12027 0
M  V30 26836 O 3539.14 5.04231 3.47188 0
M  V30 26837 C 3537 6.19961 3.81809 0
M  V30 26838 H 3537.03 5.58218 4.73051 0
M  V30 26839 H 3538.22 6.21726 2.02589 0
M  V30 26840 H 3539.7 7.86112 2.9231 0
M  V30 26841 H 3538.01 9.11627 4.55076 0
M  V30 26842 H 3537.82 9.9573 2.34194 0
M  V30 26843 H 3536.19 9.2792 2.67832 0
M  V30 26844 H 3538.83 4.67702 4.28772 0
M  V30 26845 P 3540.68 7.39546 4.75277 0
M  V30 26846 O 3542.08 7.89013 5.04841 0
M  V30 26847 O 3540.31 7.16603 3.32298 0
M  V30 26848 O 3540.36 6.04468 5.56605 0
M  V30 26849 C 3540.2 6.22772 7.02095 0
M  V30 26850 C 3540.74 4.97671 7.70322 0
M  V30 26851 O 3539.68 4.13208 7.58899 0
M  V30 26852 C 3541.96 4.28231 7.11815 0
M  V30 26853 O 3542.7 3.49945 8.01648 0
M  V30 26854 C 3541.29 3.5063 5.96244 0
M  V30 26855 O 3542.09 2.36443 5.64589 0
M  V30 26856 C 3539.95 3.15122 6.56374 0
M  V30 26857 N 3538.91 3.22311 5.55692 0
M  V30 26858 C 3537.87 2.32244 5.62437 0
M  V30 26859 O 3537.91 1.43107 6.50341 0
M  V30 26860 N 3536.86 2.40811 4.73368 0
M  V30 26861 C 3536.91 3.344 3.77753 0
M  V30 26862 N 3535.9 3.41475 2.91848 0
M  V30 26863 C 3538.01 4.24712 3.66679 0
M  V30 26864 C 3538.97 4.15625 4.58307 0
M  V30 26865 H 3539.98 2.13823 6.99656 0
M  V30 26866 H 3541.17 4.12931 5.06895 0
M  V30 26867 H 3542.65 5.02674 6.71494 0
M  V30 26868 H 3540.96 5.20001 8.76217 0
M  V30 26869 H 3540.77 7.11046 7.35349 0
M  V30 26870 H 3539.14 6.35749 7.26911 0
M  V30 26871 H 3538.05 4.9828 2.86753 0
M  V30 26872 H 3539.82 4.84464 4.54228 0
M  V30 26873 H 3535.11 2.75785 2.99862 0
M  V30 26874 H 3535.91 4.12304 2.17382 0
M  V30 26875 H 3541.87 1.65592 6.23485 0
M  V30 26876 P 3543.63 3.65191 7.99657 0
M  V30 26877 O 3545.06 3.8425 8.48115 0
M  V30 26878 O 3543.27 4.17805 6.64342 0
M  V30 26879 O 3543.31 2.07613 7.95143 0
M  V30 26880 C 3543.15 1.44328 9.27336 0
M  V30 26881 C 3543.69 0.0220036 9.17197 0
M  V30 26882 O 3542.64 -0.626867 8.61923 0
M  V30 26883 C 3544.91 -0.24586 8.30336 0
M  V30 26884 O 3545.65 -1.39011 8.63583 0
M  V30 26885 C 3544.24 -0.273849 6.91158 0
M  V30 26886 O 3545.04 -1.06348 6.02892 0
M  V30 26887 C 3542.9 -0.897649 7.22545 0
M  V30 26888 H 3542.94 -1.9841 7.04286 0
M  V30 26889 H 3544.12 0.739928 6.497 0
M  V30 26890 H 3545.6 0.60668 8.36503 0
M  V30 26891 H 3543.91 -0.352479 10.1829 0
M  V30 26892 H 3543.72 2.00611 10.0304 0
M  V30 26893 H 3542.09 1.41843 9.55327 0
M  V30 26894 H 3544.73 -1.95734 6.03555 0
M  V30 26895 P 3546.59 -1.25109 8.70152 0
M  V30 26896 O 3548.01 -1.35274 9.21221 0
M  V30 26897 O 3546.23 -0.0769065 7.84762 0
M  V30 26898 O 3546.26 -2.55232 7.81161 0
M  V30 26899 C 3546.1 -3.79939 8.58154 0
M  V30 26900 C 3546.64 -4.94023 7.72785 0
M  V30 26901 O 3545.59 -5.18726 6.91205 0
M  V30 26902 C 3547.86 -4.69597 6.85231 0
M  V30 26903 O 3548.6 -5.83832 6.51337 0
M  V30 26904 C 3547.19 -3.96706 5.66633 0
M  V30 26905 O 3547.99 -4.15414 4.49689 0
M  V30 26906 C 3545.85 -4.66153 5.59313 0
M  V30 26907 H 3545.89 -5.47679 4.85214 0
M  V30 26908 H 3547.07 -2.89008 5.86566 0
M  V30 26909 H 3548.55 -4.0121 7.36511 0
M  V30 26910 H 3546.86 -5.80182 8.37584 0
M  V30 26911 H 3546.67 -3.73517 9.52265 0
M  V30 26912 H 3545.04 -3.97163 8.80359 0
M  V30 26913 H 3547.68 -4.90969 4.01921 0
M  V30 26914 P 3549.54 -5.75688 6.64379 0
M  V30 26915 O 3550.94 -6.11991 7.09136 0
M  V30 26916 O 3549.16 -4.30899 6.62018 0
M  V30 26917 O 3549.21 -6.36965 5.19102 0
M  V30 26918 C 3549.05 -7.83578 5.16515 0
M  V30 26919 C 3549.59 -8.33307 3.82977 0
M  V30 26920 O 3548.54 -8.0998 3.00999 0
M  V30 26921 C 3550.81 -7.65514 3.2257 0
M  V30 26922 O 3551.55 -8.4329 2.32297 0
M  V30 26923 C 3550.14 -6.40075 2.62207 0
M  V30 26924 O 3550.94 -5.92492 1.53687 0
M  V30 26925 C 3548.8 -6.9454 2.18503 0
M  V30 26926 N 3547.76 -5.95905 2.39948 0
M  V30 26927 C 3546.73 -5.89764 1.49837 0
M  V30 26928 O 3546.77 -6.64088 0.490975 0
M  V30 26929 N 3545.71 -5.02821 1.70992 0
M  V30 26930 C 3545.76 -4.21498 2.77236 0
M  V30 26931 N 3544.75 -3.37475 2.96465 0
M  V30 26932 C 3546.86 -4.23389 3.68205 0
M  V30 26933 C 3547.82 -5.12792 3.46171 0
M  V30 26934 H 3548.84 -7.22964 1.12076 0
M  V30 26935 H 3550.02 -5.60502 3.36589 0
M  V30 26936 H 3551.5 -7.36197 4.01993 0
M  V30 26937 H 3549.81 -9.41302 3.90009 0
M  V30 26938 H 3549.62 -8.29056 5.99158 0
M  V30 26939 H 3547.99 -8.09989 5.25828 0
M  V30 26940 H 3546.91 -3.54747 4.52399 0
M  V30 26941 H 3548.67 -5.18551 4.1489 0
M  V30 26942 H 3543.96 -3.36058 2.30304 0
M  V30 26943 H 3544.76 -2.73846 3.77171 0
M  V30 26944 H 3550.72 -6.40705 0.751752 0
M  V30 26945 P 3552.49 -8.4349 2.47671 0
M  V30 26946 O 3553.89 -8.98227 2.65696 0
M  V30 26947 O 3552.11 -7.20409 3.23964 0
M  V30 26948 O 3552.16 -8.16496 0.923275 0
M  V30 26949 C 3552 -9.38437 0.108857 0
M  V30 26950 C 3552.54 -9.08076 -1.28339 0
M  V30 26951 O 3551.49 -8.44131 -1.84692 0
M  V30 26952 C 3553.76 -8.18386 -1.42505 0
M  V30 26953 O 3554.5 -8.3501 -2.60497 0
M  V30 26954 C 3553.09 -6.80225 -1.25468 0
M  V30 26955 O 3553.89 -5.81526 -1.91035 0
M  V30 26956 C 3551.76 -7.02416 -1.9168 0
M  V30 26957 N 3550.71 -6.31033 -1.20314 0
M  V30 26958 C 3549.68 -5.77149 -1.928 0
M  V30 26959 O 3549.72 -5.8521 -3.17729 0
M  V30 26960 N 3548.67 -5.15445 -1.27997 0
M  V30 26961 C 3548.71 -5.04472 0.0534726 0
M  V30 26962 C 3549.81 -5.55244 0.808522 0
M  V30 26963 C 3550.78 -6.18542 0.13981 0
M  V30 26964 H 3551.79 -6.68789 -2.9658 0
M  V30 26965 H 3552.97 -6.53498 -0.198729 0
M  V30 26966 H 3554.45 -8.36663 -0.5984 0
M  V30 26967 H 3552.76 -10.0273 -1.8081 0
M  V30 26968 H 3552.57 -10.2138 0.558219 0
M  V30 26969 H 3550.94 -9.6569 0.0444156 0
M  V30 26970 H 3549.86 -5.43017 1.88792 0
M  V30 26971 H 3551.62 -6.60539 0.686773 0
M  V30 26972 H 3553.68 -5.79638 -2.8315 0
M  V30 26973 P 3555.44 -8.4349 -2.47671 0
M  V30 26974 O 3556.86 -8.92785 -2.65057 0
M  V30 26975 O 3555.08 -7.7568 -1.19296 0
M  V30 26976 O 3555.11 -7.36886 -3.63805 0
M  V30 26977 C 3554.95 -7.95349 -4.982 0
M  V30 26978 C 3555.49 -6.94537 -5.98908 0
M  V30 26979 O 3554.44 -6.10347 -6.11815 0
M  V30 26980 C 3556.71 -6.11426 -5.62335 0
M  V30 26981 O 3557.45 -5.6162 -6.70584 0
M  V30 26982 C 3556.04 -5.04409 -4.73308 0
M  V30 26983 O 3556.84 -3.85929 -4.75106 0
M  V30 26984 C 3554.71 -4.8728 -5.41006 0
M  V30 26985 N 3553.66 -4.65812 -4.42377 0
M  V30 26986 C 3553.72 -5.27109 -3.24335 0
M  V30 26987 N 3552.68 -4.94293 -2.47735 0
M  V30 26988 C 3551.95 -4.1271 -3.23359 0
M  V30 26989 C 3550.64 -3.56384 -2.99934 0
M  V30 26990 O 3549.91 -3.69331 -2.00616 0
M  V30 26991 N 3550.21 -2.80206 -4.03316 0
M  V30 26992 C 3550.96 -2.58614 -5.2172 0
M  V30 26993 N 3550.36 -1.75154 -6.13278 0
M  V30 26994 N 3552.11 -3.13689 -5.47619 0
M  V30 26995 C 3552.57 -3.90921 -4.46436 0
M  V30 26996 H 3554.74 -4.02333 -6.11157 0
M  V30 26997 H 3555.92 -5.39383 -3.69487 0
M  V30 26998 H 3557.41 -6.71414 -5.02615 0
M  V30 26999 H 3555.71 -7.4649 -6.93477 0
M  V30 27000 H 3555.52 -8.89416 -5.05237 0
M  V30 27001 H 3553.89 -8.14876 -5.18409 0
M  V30 27002 H 3549.31 -2.36355 -3.95916 0
M  V30 27003 H 3554.52 -5.95212 -2.93859 0
M  V30 27004 H 3549.45 -1.32473 -5.91856 0
M  V30 27005 H 3550.83 -1.5588 -7.03026 0
M  V30 27006 H 3556.53 -3.27906 -5.43085 0
M  V30 27007 P 3558.39 -5.75688 -6.64379 0
M  V30 27008 O 3559.79 -6.14823 -7.06682 0
M  V30 27009 O 3558.01 -5.93957 -5.20728 0
M  V30 27010 O 3558.06 -4.23169 -7.04357 0
M  V30 27011 C 3557.9 -3.99743 -8.4911 0
M  V30 27012 C 3558.44 -2.60487 -8.79329 0
M  V30 27013 O 3557.39 -1.82663 -8.44573 0
M  V30 27014 C 3559.66 -2.10343 -8.03628 0
M  V30 27015 O 3560.4 -1.09919 -8.67766 0
M  V30 27016 C 3558.99 -1.68446 -6.70876 0
M  V30 27017 O 3559.79 -0.678026 -6.08333 0
M  V30 27018 C 3557.66 -1.17436 -7.18567 0
M  V30 27019 N 3556.61 -1.52699 -6.23988 0
M  V30 27020 C 3555.58 -0.643793 -6.05085 0
M  V30 27021 O 3555.62 0.459118 -6.64315 0
M  V30 27022 N 3554.57 -0.976931 -5.22038 0
M  V30 27023 C 3554.61 -2.14429 -4.56662 0
M  V30 27024 C 3555.71 -3.04203 -4.71481 0
M  V30 27025 C 3556.68 -2.69669 -5.56838 0
M  V30 27026 H 3557.69 -0.0804622 -7.31556 0
M  V30 27027 H 3558.87 -2.53396 -6.02698 0
M  V30 27028 H 3560.36 -2.9313 -7.85914 0
M  V30 27029 H 3558.66 -2.52078 -9.87225 0
M  V30 27030 H 3558.47 -4.75072 -9.05887 0
M  V30 27031 H 3556.84 -4.05202 -8.76577 0
M  V30 27032 H 3555.76 -3.97309 -4.15519 0
M  V30 27033 H 3557.52 -3.36869 -5.72318 0
M  V30 27034 H 3559.58 0.167718 -6.44882 0
M  V30 27035 P 3561.34 -1.25109 -8.70152 0
M  V30 27036 O 3562.76 -1.29744 -9.22016 0
M  V30 27037 O 3560.98 -2.13714 -7.55141 0
M  V30 27038 O 3561.01 0.248149 -8.21425 0
M  V30 27039 C 3560.85 1.22779 -9.30434 0
M  V30 27040 C 3561.39 2.56293 -8.80664 0
M  V30 27041 O 3560.34 3.02979 -8.09349 0
M  V30 27042 C 3562.61 2.57523 -7.89775 0
M  V30 27043 O 3563.35 3.7668 -7.89438 0
M  V30 27044 C 3561.94 2.20997 -6.55446 0
M  V30 27045 O 3562.74 2.71895 -5.48509 0
M  V30 27046 C 3560.61 2.89693 -6.67988 0
M  V30 27047 H 3560.64 3.88793 -6.19859 0
M  V30 27048 H 3561.82 1.12046 -6.44229 0
M  V30 27049 H 3563.31 1.7746 -8.19711 0
M  V30 27050 H 3561.61 3.20706 -9.67112 0
M  V30 27051 H 3561.42 0.901032 -10.1892 0
M  V30 27052 H 3559.79 1.33049 -9.56592 0
M  V30 27053 H 3562.43 3.57847 -5.23962 0
M  V30 27054 P 3564.29 3.65191 -7.99657 0
M  V30 27055 O 3565.71 3.89332 -8.45794 0
M  V30 27056 O 3563.93 2.28472 -7.50807 0
M  V30 27057 O 3563.97 4.64972 -6.77611 0
M  V30 27058 C 3563.81 6.06319 -7.16352 0
M  V30 27059 C 3564.35 6.91731 -6.02299 0
M  V30 27060 O 3563.29 6.92449 -5.17064 0
M  V30 27061 C 3565.56 6.43627 -5.25174 0
M  V30 27062 O 3566.3 7.43686 -4.60469 0
M  V30 27063 C 3564.89 5.40275 -4.31916 0
M  V30 27064 O 3565.69 5.25279 -3.14438 0
M  V30 27065 C 3563.56 6.04847 -4.05327 0
M  V30 27066 H 3563.59 6.62195 -3.11261 0
M  V30 27067 H 3564.77 4.42556 -4.81383 0
M  V30 27068 H 3566.26 5.92458 -5.93643 0
M  V30 27069 H 3564.56 7.92655 -6.402 0
M  V30 27070 H 3564.37 6.26671 -8.0846 0
M  V30 27071 H 3562.74 6.29101 -7.32804 0
M  V30 27072 H 3565.38 5.84315 -2.47318 0
M  V30 27073 P 3567.24 7.39546 -4.75277 0
M  V30 27074 O 3568.66 7.84798 -5.01039 0
M  V30 27075 O 3566.88 5.9812 -5.08098 0
M  V30 27076 O 3566.92 7.57503 -3.1866 0
M  V30 27077 C 3566.76 8.97357 -2.74833 0
M  V30 27078 C 3567.3 9.07548 -1.32709 0
M  V30 27079 O 3566.24 8.62072 -0.606159 0
M  V30 27080 C 3568.51 8.25383 -0.938334 0
M  V30 27081 O 3569.25 8.74577 0.146954 0
M  V30 27082 C 3567.85 6.8802 -0.712559 0
M  V30 27083 O 3568.64 6.1189 0.194655 0
M  V30 27084 C 3566.51 7.27966 -0.139777 0
M  V30 27085 H 3566.54 7.25354 0.961601 0
M  V30 27086 H 3567.72 6.32557 -1.65702 0
M  V30 27087 H 3569.21 8.19355 -1.79097 0
M  V30 27088 H 3567.51 10.1294 -1.10029 0
M  V30 27089 H 3567.32 9.64276 -3.41316 0
M  V30 27090 H 3565.69 9.25417 -2.76357 0
M  V30 27091 H 3568.33 6.25267 1.07847 0
M  V30 27092 P 3570.19 8.791 -1.2479e-10 0
M  V30 27093 O 3571.61 9.31096 0.027933 0
M  V30 27094 O 3569.83 7.77869 -1.04071 0
M  V30 27095 O 3569.87 8.09533 1.41463 0
M  V30 27096 C 3569.71 9.0349 2.53943 0
M  V30 27097 C 3570.25 8.35226 3.79016 0
M  V30 27098 O 3569.19 7.57992 4.15078 0
M  V30 27099 C 3571.46 7.45087 3.67298 0
M  V30 27100 O 3572.2 7.27796 4.85194 0
M  V30 27101 C 3570.8 6.17323 3.12027 0
M  V30 27102 O 3571.59 5.04231 3.47188 0
M  V30 27103 C 3569.46 6.19961 3.81809 0
M  V30 27104 H 3569.49 5.58218 4.73051 0
M  V30 27105 H 3570.67 6.21726 2.02589 0
M  V30 27106 H 3572.16 7.86112 2.9231 0
M  V30 27107 H 3570.46 9.11627 4.55076 0
M  V30 27108 H 3570.27 9.9573 2.34194 0
M  V30 27109 H 3568.64 9.2792 2.67832 0
M  V30 27110 H 3571.28 4.67702 4.28772 0
M  V30 27111 P 3573.14 7.39546 4.75277 0
M  V30 27112 O 3574.56 7.81861 5.05793 0
M  V30 27113 O 3572.78 7.1065 3.32998 0
M  V30 27114 O 3572.82 6.04542 5.56673 0
M  V30 27115 C 3572.66 6.22839 7.02169 0
M  V30 27116 C 3573.2 4.97725 7.70406 0
M  V30 27117 O 3572.14 4.13208 7.58899 0
M  V30 27118 C 3574.42 4.28231 7.11815 0
M  V30 27119 O 3575.15 3.49945 8.01648 0
M  V30 27120 C 3573.75 3.5063 5.96244 0
M  V30 27121 O 3574.55 2.37008 5.64352 0
M  V30 27122 C 3572.41 3.15122 6.56374 0
M  V30 27123 N 3571.37 3.22311 5.55692 0
M  V30 27124 C 3571.54 3.99655 4.46046 0
M  V30 27125 N 3570.51 3.97599 3.63918 0
M  V30 27126 C 3569.62 3.11159 4.25334 0
M  V30 27127 C 3568.36 2.64972 3.85157 0
M  V30 27128 N 3567.76 3.02132 2.69405 0
M  V30 27129 N 3567.79 1.78482 4.74759 0
M  V30 27130 C 3568.39 1.37463 5.90819 0
M  V30 27131 N 3569.57 1.7733 6.31889 0
M  V30 27132 C 3570.15 2.64393 5.43725 0
M  V30 27133 H 3572.44 2.13823 6.99656 0
M  V30 27134 H 3573.62 4.12931 5.06895 0
M  V30 27135 H 3575.11 5.03285 6.70911 0
M  V30 27136 H 3573.41 5.20001 8.76217 0
M  V30 27137 H 3573.22 7.11046 7.35349 0
M  V30 27138 H 3571.59 6.35815 7.26986 0
M  V30 27139 H 3567.86 0.66574 6.53015 0
M  V30 27140 H 3572.44 4.58037 4.27732 0
M  V30 27141 H 3566.83 2.64828 2.45331 0
M  V30 27142 H 3568.23 3.67472 2.05644 0
M  V30 27143 H 3574.23 1.61619 6.13468 0
M  V30 27144 P 3576.09 3.65191 7.99657 0
M  V30 27145 O 3577.51 3.84292 8.48206 0
M  V30 27146 O 3575.73 4.17805 6.64342 0
M  V30 27147 O 3575.77 2.07613 7.95143 0
M  V30 27148 C 3575.61 1.44344 9.27435 0
M  V30 27149 C 3576.15 0.0220036 9.17197 0
M  V30 27150 O 3575.09 -0.626794 8.61824 0
M  V30 27151 C 3577.37 -0.24586 8.30336 0
M  V30 27152 O 3578.1 -1.39011 8.63583 0
M  V30 27153 C 3576.7 -0.273849 6.91158 0
M  V30 27154 O 3577.5 -1.05728 6.029 0
M  V30 27155 C 3575.36 -0.897649 7.22545 0
M  V30 27156 N 3574.32 -0.292839 6.41732 0
M  V30 27157 C 3574.49 0.950603 5.91308 0
M  V30 27158 N 3573.46 1.37732 5.21105 0
M  V30 27159 C 3572.57 0.318109 5.26039 0
M  V30 27160 C 3571.31 0.146766 4.6727 0
M  V30 27161 N 3570.74 -1.06525 4.95887 0
M  V30 27162 C 3571.34 -2.0378 5.71347 0
M  V30 27163 N 3572.52 -1.92445 6.27451 0
M  V30 27164 C 3573.1 -0.715382 6.00353 0
M  V30 27165 H 3576.57 0.733318 6.49674 0
M  V30 27166 H 3578.06 0.60668 8.36503 0
M  V30 27167 H 3576.36 -0.362662 10.1825 0
M  V30 27168 H 3576.17 2.00611 10.0304 0
M  V30 27169 H 3574.54 1.41843 9.55327 0
M  V30 27170 H 3575.39 1.54076 6.07465 0
M  V30 27171 H 3577.18 -1.95704 6.0346 0
M  V30 27172 P 3579.04 -1.25109 8.70152 0
M  V30 27173 O 3580.46 -1.35274 9.21221 0
M  V30 27174 O 3578.68 -0.0769065 7.84762 0
M  V30 27175 O 3578.72 -2.55232 7.81161 0
M  V30 27176 C 3578.56 -3.79939 8.58154 0
M  V30 27177 C 3579.1 -4.94023 7.72785 0
M  V30 27178 O 3578.04 -5.18726 6.91205 0
M  V30 27179 C 3580.32 -4.69597 6.85231 0
M  V30 27180 O 3581.05 -5.83832 6.51337 0
M  V30 27181 C 3579.65 -3.96706 5.66633 0
M  V30 27182 O 3580.45 -4.15414 4.49689 0
M  V30 27183 C 3578.31 -4.66153 5.59313 0
M  V30 27184 H 3578.34 -5.47679 4.85214 0
M  V30 27185 H 3579.53 -2.89008 5.86566 0
M  V30 27186 H 3581.01 -4.0121 7.36511 0
M  V30 27187 H 3579.32 -5.80182 8.37584 0
M  V30 27188 H 3579.13 -3.73517 9.52265 0
M  V30 27189 H 3577.5 -3.97163 8.80359 0
M  V30 27190 H 3580.13 -4.90969 4.01921 0
M  V30 27191 P 3581.99 -5.75688 6.64379 0
M  V30 27192 O 3583.41 -6.11849 7.01846 0
M  V30 27193 O 3581.63 -4.30744 6.56026 0
M  V30 27194 O 3581.67 -6.37042 5.19165 0
M  V30 27195 C 3581.51 -7.83578 5.16515 0
M  V30 27196 C 3582.05 -8.33398 3.83019 0
M  V30 27197 O 3580.99 -8.10074 3.01034 0
M  V30 27198 C 3583.27 -7.65514 3.2257 0
M  V30 27199 O 3584 -8.4329 2.32297 0
M  V30 27200 C 3582.6 -6.40075 2.62207 0
M  V30 27201 O 3583.4 -5.92589 1.53712 0
M  V30 27202 C 3581.26 -6.9454 2.18503 0
M  V30 27203 H 3581.29 -7.23063 1.12091 0
M  V30 27204 H 3582.48 -5.6025 3.37201 0
M  V30 27205 H 3583.96 -7.35707 4.02681 0
M  V30 27206 H 3582.27 -9.40912 3.9095 0
M  V30 27207 H 3582.08 -8.29056 5.99158 0
M  V30 27208 H 3580.45 -8.10073 5.25882 0
M  V30 27209 H 3583.08 -6.30324 0.726794 0
M  V30 27210 P 3584.94 -8.4349 2.47671 0
M  V30 27211 O 3586.36 -8.94167 2.5964 0
M  V30 27212 O 3584.58 -7.1704 3.19006 0
M  V30 27213 O 3584.62 -8.16596 0.923387 0
M  V30 27214 C 3584.46 -9.38437 0.108857 0
M  V30 27215 C 3585 -9.08175 -1.28353 0
M  V30 27216 O 3583.94 -8.44229 -1.84713 0
M  V30 27217 C 3586.22 -8.18386 -1.42505 0
M  V30 27218 O 3586.96 -8.3501 -2.60497 0
M  V30 27219 C 3585.55 -6.80225 -1.25468 0
M  V30 27220 O 3586.35 -5.81621 -1.91066 0
M  V30 27221 C 3584.21 -7.02416 -1.9168 0
M  V30 27222 H 3584.24 -6.6888 -2.96621 0
M  V30 27223 H 3585.43 -6.53617 -0.192223 0
M  V30 27224 H 3586.91 -8.36622 -0.589963 0
M  V30 27225 H 3585.22 -10.0291 -1.79807 0
M  V30 27226 H 3585.03 -10.2138 0.558219 0
M  V30 27227 H 3583.4 -9.6579 0.0444202 0
M  V30 27228 H 3586.04 -5.69556 -2.79637 0
M  V30 27229 P 3587.89 -8.4349 -2.47671 0
M  V30 27230 O 3589.32 -8.92593 -2.65 0
M  V30 27231 O 3587.53 -7.7568 -1.19296 0
M  V30 27232 O 3587.57 -7.36886 -3.63805 0
M  V30 27233 C 3587.41 -7.95349 -4.982 0
M  V30 27234 C 3587.95 -6.94612 -5.98974 0
M  V30 27235 O 3586.89 -6.10347 -6.11815 0
M  V30 27236 C 3589.17 -6.11426 -5.62335 0
M  V30 27237 O 3589.91 -5.6162 -6.70584 0
M  V30 27238 C 3588.5 -5.04409 -4.73308 0
M  V30 27239 O 3589.3 -3.85992 -4.75183 0
M  V30 27240 C 3587.16 -4.8728 -5.41006 0
M  V30 27241 H 3587.19 -4.02333 -6.11157 0
M  V30 27242 H 3588.38 -5.39466 -3.69543 0
M  V30 27243 H 3589.86 -6.71916 -5.01943 0
M  V30 27244 H 3588.17 -7.4649 -6.93477 0
M  V30 27245 H 3587.98 -8.89416 -5.05237 0
M  V30 27246 H 3586.35 -8.14876 -5.18409 0
M  V30 27247 H 3588.99 -3.27957 -5.4317 0
M  V30 27248 P 3590.84 -5.75688 -6.64379 0
M  V30 27249 O 3592.27 -6.07758 -7.05656 0
M  V30 27250 O 3590.48 -5.88047 -5.19722 0
M  V30 27251 O 3590.52 -4.2322 -7.04443 0
M  V30 27252 C 3590.36 -3.99743 -8.4911 0
M  V30 27253 C 3590.9 -2.60487 -8.79329 0
M  V30 27254 O 3589.85 -1.82684 -8.4467 0
M  V30 27255 C 3592.12 -2.10343 -8.03628 0
M  V30 27256 O 3592.86 -1.09919 -8.67766 0
M  V30 27257 C 3591.45 -1.68446 -6.70876 0
M  V30 27258 O 3592.25 -0.678026 -6.08333 0
M  V30 27259 C 3590.11 -1.17436 -7.18567 0
M  V30 27260 N 3589.07 -1.52699 -6.23988 0
M  V30 27261 C 3589.13 -2.68084 -5.57824 0
M  V30 27262 N 3588.09 -2.8189 -4.75643 0
M  V30 27263 C 3587.35 -1.72373 -4.95155 0
M  V30 27264 C 3586.05 -1.37653 -4.44996 0
M  V30 27265 O 3585.31 -2.02239 -3.68445 0
M  V30 27266 N 3585.62 -0.17675 -4.90782 0
M  V30 27267 C 3586.37 0.645036 -5.78716 0
M  V30 27268 N 3585.77 1.84214 -6.10618 0
M  V30 27269 N 3587.52 0.321732 -6.30279 0
M  V30 27270 C 3587.98 -0.87502 -5.86913 0
M  V30 27271 H 3590.14 -0.0804732 -7.31656 0
M  V30 27272 H 3591.33 -2.53998 -6.02444 0
M  V30 27273 H 3592.81 -2.93095 -7.8582 0
M  V30 27274 H 3591.12 -2.53065 -9.86973 0
M  V30 27275 H 3590.93 -4.75072 -9.05887 0
M  V30 27276 H 3589.3 -4.05244 -8.76668 0
M  V30 27277 H 3584.72 0.152143 -4.60849 0
M  V30 27278 H 3589.93 -3.41852 -5.69006 0
M  V30 27279 H 3584.86 2.08538 -5.69521 0
M  V30 27280 H 3586.23 2.4895 -6.75698 0
M  V30 27281 H 3591.94 0.177619 -6.34151 0
M  V30 27282 P 3593.79 -1.25109 -8.70152 0
M  V30 27283 O 3595.22 -1.29744 -9.22016 0
M  V30 27284 O 3593.43 -2.13714 -7.55141 0
M  V30 27285 O 3593.47 0.248149 -8.21425 0
M  V30 27286 C 3593.31 1.22779 -9.30434 0
M  V30 27287 C 3593.85 2.56293 -8.80664 0
M  V30 27288 O 3592.8 3.02979 -8.09349 0
M  V30 27289 C 3595.07 2.57523 -7.89775 0
M  V30 27290 O 3595.81 3.7668 -7.89438 0
M  V30 27291 C 3594.4 2.20997 -6.55446 0
M  V30 27292 O 3595.2 2.71895 -5.48509 0
M  V30 27293 C 3593.06 2.89693 -6.67988 0
M  V30 27294 H 3593.1 3.88793 -6.19859 0
M  V30 27295 H 3594.28 1.12046 -6.44229 0
M  V30 27296 H 3595.76 1.7746 -8.19711 0
M  V30 27297 H 3594.07 3.20706 -9.67112 0
M  V30 27298 H 3593.88 0.901032 -10.1892 0
M  V30 27299 H 3592.25 1.33049 -9.56592 0
M  V30 27300 H 3594.89 3.57847 -5.23962 0
M  V30 27301 P 3596.74 3.65191 -7.99657 0
M  V30 27302 O 3598.17 3.89374 -8.45885 0
M  V30 27303 O 3596.38 2.28472 -7.50807 0
M  V30 27304 O 3596.42 4.64972 -6.77611 0
M  V30 27305 C 3596.26 6.06383 -7.16428 0
M  V30 27306 C 3596.8 6.91731 -6.02299 0
M  V30 27307 O 3595.75 6.92369 -5.17005 0
M  V30 27308 C 3598.02 6.43627 -5.25174 0
M  V30 27309 O 3598.76 7.43686 -4.60469 0
M  V30 27310 C 3597.35 5.40275 -4.31916 0
M  V30 27311 O 3598.15 5.24878 -3.14911 0
M  V30 27312 C 3596.01 6.04847 -4.05327 0
M  V30 27313 N 3594.97 5.04166 -3.98114 0
M  V30 27314 C 3595.14 3.84629 -4.59066 0
M  V30 27315 N 3594.11 3.0363 -4.45343 0
M  V30 27316 C 3593.23 3.76722 -3.68523 0
M  V30 27317 C 3591.96 3.43528 -3.17088 0
M  V30 27318 N 3591.36 2.23665 -3.37397 0
M  V30 27319 N 3591.4 4.44526 -2.44231 0
M  V30 27320 C 3592 5.65243 -2.20146 0
M  V30 27321 N 3593.17 6.00221 -2.65453 0
M  V30 27322 C 3593.75 5.00564 -3.39083 0
M  V30 27323 H 3596.05 6.62104 -3.11218 0
M  V30 27324 H 3597.23 4.42969 -4.80867 0
M  V30 27325 H 3598.71 5.92458 -5.93643 0
M  V30 27326 H 3597.02 7.93295 -6.39407 0
M  V30 27327 H 3596.83 6.26671 -8.0846 0
M  V30 27328 H 3595.2 6.29101 -7.32804 0
M  V30 27329 H 3591.46 6.36894 -1.5883 0
M  V30 27330 H 3596.04 3.58193 -5.14248 0
M  V30 27331 H 3590.43 2.05145 -2.97047 0
M  V30 27332 H 3591.84 1.51255 -3.92998 0
M  V30 27333 H 3597.84 5.84223 -2.47279 0
M  V30 27334 P 3599.7 7.39546 -4.75277 0
M  V30 27335 O 3601.12 7.84798 -5.01039 0
M  V30 27336 O 3599.34 5.9812 -5.08098 0
M  V30 27337 O 3599.37 7.57503 -3.1866 0
M  V30 27338 C 3599.21 8.97357 -2.74833 0
M  V30 27339 C 3599.75 9.07548 -1.32709 0
M  V30 27340 O 3598.7 8.62072 -0.606159 0
M  V30 27341 C 3600.97 8.25383 -0.938334 0
M  V30 27342 O 3601.71 8.74577 0.146954 0
M  V30 27343 C 3600.3 6.8802 -0.712559 0
M  V30 27344 O 3601.1 6.1189 0.194655 0
M  V30 27345 C 3598.96 7.27966 -0.139777 0
M  V30 27346 H 3599 7.25354 0.961601 0
M  V30 27347 H 3600.18 6.32557 -1.65702 0
M  V30 27348 H 3601.66 8.19355 -1.79097 0
M  V30 27349 H 3599.97 10.1294 -1.10029 0
M  V30 27350 H 3599.78 9.64276 -3.41316 0
M  V30 27351 H 3598.15 9.25417 -2.76357 0
M  V30 27352 H 3600.79 6.25267 1.07847 0
M  V30 27353 P 3602.65 8.791 -1.29976e-10 0
M  V30 27354 O 3604.07 9.31296 0.027939 0
M  V30 27355 O 3602.29 7.77869 -1.04071 0
M  V30 27356 O 3602.32 8.09533 1.41463 0
M  V30 27357 C 3602.16 9.0349 2.53943 0
M  V30 27358 C 3602.7 8.35135 3.78975 0
M  V30 27359 O 3601.65 7.57992 4.15078 0
M  V30 27360 C 3603.92 7.45087 3.67298 0
M  V30 27361 O 3604.66 7.27796 4.85194 0
M  V30 27362 C 3603.25 6.17323 3.12027 0
M  V30 27363 O 3604.05 5.04149 3.47132 0
M  V30 27364 C 3601.91 6.19961 3.81809 0
M  V30 27365 N 3600.87 5.71575 2.93223 0
M  V30 27366 C 3600.93 5.97133 1.62693 0
M  V30 27367 N 3599.89 5.44066 0.984414 0
M  V30 27368 C 3599.15 4.87093 1.93987 0
M  V30 27369 C 3597.85 4.26449 1.8738 0
M  V30 27370 O 3597.12 4.1089 0.884377 0
M  V30 27371 N 3597.42 3.82483 3.08036 0
M  V30 27372 C 3598.17 3.95124 4.27727 0
M  V30 27373 N 3597.57 3.4084 5.39089 0
M  V30 27374 N 3599.32 4.55264 4.3706 0
M  V30 27375 C 3599.78 5.00861 3.18217 0
M  V30 27376 H 3601.95 5.58218 4.73051 0
M  V30 27377 H 3603.13 6.21631 2.02558 0
M  V30 27378 H 3604.61 7.85819 2.93096 0
M  V30 27379 H 3602.92 9.11627 4.55076 0
M  V30 27380 H 3602.73 9.9573 2.34194 0
M  V30 27381 H 3601.1 9.2792 2.67832 0
M  V30 27382 H 3596.52 3.38323 3.1329 0
M  V30 27383 H 3601.73 6.53891 1.14265 0
M  V30 27384 H 3596.66 2.93852 5.30559 0
M  V30 27385 H 3598.04 3.47631 6.30632 0
M  V30 27386 H 3603.74 4.67628 4.28704 0
M  V30 27387 P 3605.6 7.39546 4.75277 0
M  V30 27388 O 3607.02 7.81777 5.05738 0
M  V30 27389 O 3605.24 7.1065 3.32998 0
M  V30 27390 O 3605.27 6.04542 5.56673 0
M  V30 27391 C 3605.11 6.22772 7.02095 0
M  V30 27392 C 3605.65 4.97725 7.70406 0
M  V30 27393 O 3604.6 4.13256 7.58987 0
M  V30 27394 C 3606.87 4.28231 7.11815 0
M  V30 27395 O 3607.61 3.49945 8.01648 0
M  V30 27396 C 3606.2 3.5063 5.96244 0
M  V30 27397 O 3607 2.36482 5.64681 0
M  V30 27398 C 3604.87 3.15122 6.56374 0
M  V30 27399 H 3604.9 2.13853 6.99751 0
M  V30 27400 H 3606.08 4.13501 5.06559 0
M  V30 27401 H 3607.56 5.03285 6.70911 0
M  V30 27402 H 3605.87 5.20877 8.75697 0
M  V30 27403 H 3605.68 7.11046 7.35349 0
M  V30 27404 H 3604.05 6.35815 7.26986 0
M  V30 27405 H 3606.69 1.61644 6.13565 0
M  V30 27406 P 3608.55 3.65191 7.99657 0
M  V30 27407 O 3609.97 3.8425 8.48115 0
M  V30 27408 O 3608.19 4.17805 6.64342 0
M  V30 27409 O 3608.22 2.07613 7.95143 0
M  V30 27410 C 3608.06 1.44328 9.27336 0
M  V30 27411 C 3608.6 0.0220036 9.17197 0
M  V30 27412 O 3607.55 -0.626867 8.61923 0
M  V30 27413 C 3609.82 -0.24586 8.30336 0
M  V30 27414 O 3610.56 -1.39011 8.63583 0
M  V30 27415 C 3609.15 -0.273849 6.91158 0
M  V30 27416 O 3609.95 -1.06348 6.02892 0
M  V30 27417 C 3607.82 -0.897649 7.22545 0
M  V30 27418 H 3607.85 -1.9841 7.04286 0
M  V30 27419 H 3609.03 0.739928 6.497 0
M  V30 27420 H 3610.52 0.60668 8.36503 0
M  V30 27421 H 3608.82 -0.352479 10.1829 0
M  V30 27422 H 3608.63 2.00611 10.0304 0
M  V30 27423 H 3607 1.41843 9.55327 0
M  V30 27424 H 3609.64 -1.95734 6.03555 0
M  V30 27425 P 3611.5 -1.25109 8.70152 0
M  V30 27426 O 3612.92 -1.35288 9.2132 0
M  V30 27427 O 3611.14 -0.0769065 7.84762 0
M  V30 27428 O 3611.17 -2.55232 7.81161 0
M  V30 27429 C 3611.01 -3.79979 8.58246 0
M  V30 27430 C 3611.55 -4.94023 7.72785 0
M  V30 27431 O 3610.5 -5.18666 6.91125 0
M  V30 27432 C 3612.77 -4.69597 6.85231 0
M  V30 27433 O 3613.51 -5.83832 6.51337 0
M  V30 27434 C 3612.1 -3.96706 5.66633 0
M  V30 27435 O 3612.9 -4.14896 4.5003 0
M  V30 27436 C 3610.77 -4.66153 5.59313 0
M  V30 27437 N 3609.72 -3.71582 5.24027 0
M  V30 27438 C 3609.89 -2.39715 5.48833 0
M  V30 27439 N 3608.87 -1.65863 5.12845 0
M  V30 27440 C 3607.98 -2.57637 4.5973 0
M  V30 27441 C 3606.71 -2.40278 4.01027 0
M  V30 27442 N 3606.11 -1.19549 3.86744 0
M  V30 27443 N 3606.15 -3.57711 3.59575 0
M  V30 27444 C 3606.75 -4.80324 3.70476 0
M  V30 27445 N 3607.93 -5.01121 4.23801 0
M  V30 27446 C 3608.5 -3.84757 4.66372 0
M  V30 27447 H 3610.8 -5.47604 4.85148 0
M  V30 27448 H 3611.98 -2.8955 5.86187 0
M  V30 27449 H 3613.46 -4.0121 7.36511 0
M  V30 27450 H 3611.77 -5.81019 8.37003 0
M  V30 27451 H 3611.58 -3.73517 9.52265 0
M  V30 27452 H 3609.95 -3.97163 8.80359 0
M  V30 27453 H 3606.21 -5.66348 3.3183 0
M  V30 27454 H 3610.79 -1.98804 5.94332 0
M  V30 27455 H 3605.18 -1.13147 3.4281 0
M  V30 27456 H 3606.59 -0.344074 4.19692 0
M  V30 27457 H 3612.59 -4.90891 4.01857 0
M  V30 27458 P 3614.45 -5.75688 6.64379 0
M  V30 27459 O 3615.87 -6.11915 7.01921 0
M  V30 27460 O 3614.09 -4.30744 6.56026 0
M  V30 27461 O 3614.13 -6.37042 5.19165 0
M  V30 27462 C 3613.96 -7.83662 5.1657 0
M  V30 27463 C 3614.51 -8.33398 3.83019 0
M  V30 27464 O 3613.45 -8.0998 3.00999 0
M  V30 27465 C 3615.72 -7.65514 3.2257 0
M  V30 27466 O 3616.46 -8.4329 2.32297 0
M  V30 27467 C 3615.06 -6.40075 2.62207 0
M  V30 27468 O 3615.85 -5.92338 1.5428 0
M  V30 27469 C 3613.72 -6.9454 2.18503 0
M  V30 27470 N 3612.67 -5.95905 2.39948 0
M  V30 27471 C 3612.84 -4.98383 3.32108 0
M  V30 27472 N 3611.82 -4.16798 3.41761 0
M  V30 27473 C 3610.93 -4.65287 2.47461 0
M  V30 27474 C 3609.66 -4.18946 2.07461 0
M  V30 27475 N 3609.07 -3.09661 2.60717 0
M  V30 27476 N 3609.1 -4.95327 1.09101 0
M  V30 27477 C 3609.7 -6.04369 0.519812 0
M  V30 27478 N 3610.88 -6.50694 0.855982 0
M  V30 27479 C 3611.45 -5.75818 1.84322 0
M  V30 27480 H 3613.75 -7.22964 1.12076 0
M  V30 27481 H 3614.93 -5.60502 3.36589 0
M  V30 27482 H 3616.42 -7.35707 4.02681 0
M  V30 27483 H 3614.72 -9.41302 3.90009 0
M  V30 27484 H 3614.53 -8.29056 5.99158 0
M  V30 27485 H 3612.9 -8.10073 5.25882 0
M  V30 27486 H 3609.17 -6.55843 -0.270373 0
M  V30 27487 H 3613.74 -4.88564 3.92502 0
M  V30 27488 H 3608.14 -2.80523 2.27218 0
M  V30 27489 H 3609.54 -2.55848 3.34465 0
M  V30 27490 H 3615.54 -6.30224 0.72668 0
M  V30 27491 P 3617.4 -8.4349 2.47671 0
M  V30 27492 O 3618.82 -8.94167 2.5964 0
M  V30 27493 O 3617.04 -7.1704 3.19006 0
M  V30 27494 O 3617.08 -8.16596 0.923387 0
M  V30 27495 C 3616.92 -9.38437 0.108857 0
M  V30 27496 C 3617.46 -9.08175 -1.28353 0
M  V30 27497 O 3616.4 -8.44229 -1.84713 0
M  V30 27498 C 3618.67 -8.18386 -1.42505 0
M  V30 27499 O 3619.41 -8.3501 -2.60497 0
M  V30 27500 C 3618 -6.80225 -1.25468 0
M  V30 27501 O 3618.8 -5.81621 -1.91066 0
M  V30 27502 C 3616.67 -7.02416 -1.9168 0
M  V30 27503 H 3616.7 -6.6888 -2.96621 0
M  V30 27504 H 3617.88 -6.53617 -0.192223 0
M  V30 27505 H 3619.37 -8.36622 -0.589963 0
M  V30 27506 H 3617.67 -10.0291 -1.79807 0
M  V30 27507 H 3617.48 -10.2138 0.558219 0
M  V30 27508 H 3615.85 -9.6579 0.0444202 0
M  V30 27509 H 3618.49 -5.69556 -2.79637 0
M  V30 27510 P 3620.35 -8.4349 -2.47671 0
M  V30 27511 O 3621.77 -8.92593 -2.65 0
M  V30 27512 O 3619.99 -7.7568 -1.19296 0
M  V30 27513 O 3620.03 -7.36886 -3.63805 0
M  V30 27514 C 3619.87 -7.95349 -4.982 0
M  V30 27515 C 3620.41 -6.94612 -5.98974 0
M  V30 27516 O 3619.35 -6.10347 -6.11815 0
M  V30 27517 C 3621.62 -6.11426 -5.62335 0
M  V30 27518 O 3622.36 -5.6162 -6.70584 0
M  V30 27519 C 3620.96 -5.04409 -4.73308 0
M  V30 27520 O 3621.75 -3.85992 -4.75183 0
M  V30 27521 C 3619.62 -4.8728 -5.41006 0
M  V30 27522 H 3619.65 -4.02333 -6.11157 0
M  V30 27523 H 3620.83 -5.39466 -3.69543 0
M  V30 27524 H 3622.32 -6.71916 -5.01943 0
M  V30 27525 H 3620.62 -7.4649 -6.93477 0
M  V30 27526 H 3620.43 -8.89416 -5.05237 0
M  V30 27527 H 3618.8 -8.14876 -5.18409 0
M  V30 27528 H 3621.44 -3.27957 -5.4317 0
M  V30 27529 P 3623.3 -5.75688 -6.64379 0
M  V30 27530 O 3624.72 -6.07627 -7.05504 0
M  V30 27531 O 3622.94 -5.88047 -5.19722 0
M  V30 27532 O 3622.98 -4.2322 -7.04443 0
M  V30 27533 C 3622.82 -3.99743 -8.4911 0
M  V30 27534 C 3623.36 -2.60516 -8.79425 0
M  V30 27535 O 3622.3 -1.82684 -8.4467 0
M  V30 27536 C 3624.57 -2.10343 -8.03628 0
M  V30 27537 O 3625.31 -1.09919 -8.67766 0
M  V30 27538 C 3623.91 -1.68446 -6.70876 0
M  V30 27539 O 3624.7 -0.678137 -6.08433 0
M  V30 27540 C 3622.57 -1.17436 -7.18567 0
M  V30 27541 H 3622.6 -0.0804732 -7.31656 0
M  V30 27542 H 3623.78 -2.54037 -6.02537 0
M  V30 27543 H 3625.27 -2.93881 -7.85526 0
M  V30 27544 H 3623.57 -2.53065 -9.86973 0
M  V30 27545 H 3623.38 -4.75072 -9.05887 0
M  V30 27546 H 3621.75 -4.05244 -8.76668 0
M  V30 27547 H 3624.39 0.177647 -6.34251 0
M  V30 27548 P 3626.25 -1.25109 -8.70152 0
M  V30 27549 O 3627.67 -1.29772 -9.22214 0
M  V30 27550 O 3625.89 -2.13714 -7.55141 0
M  V30 27551 O 3625.93 0.248149 -8.21425 0
M  V30 27552 C 3625.77 1.22779 -9.30434 0
M  V30 27553 C 3626.31 2.56265 -8.80568 0
M  V30 27554 O 3625.25 3.02979 -8.09349 0
M  V30 27555 C 3627.53 2.57523 -7.89775 0
M  V30 27556 O 3628.26 3.7668 -7.89438 0
M  V30 27557 C 3626.86 2.20997 -6.55446 0
M  V30 27558 O 3627.66 2.71851 -5.48419 0
M  V30 27559 C 3625.52 2.89693 -6.67988 0
M  V30 27560 N 3624.48 2.08895 -6.07487 0
M  V30 27561 C 3624.54 0.760559 -6.14209 0
M  V30 27562 N 3623.49 0.200108 -5.52538 0
M  V30 27563 C 3622.76 1.22692 -5.09742 0
M  V30 27564 C 3621.45 1.24782 -4.48775 0
M  V30 27565 O 3620.72 0.290617 -4.19294 0
M  V30 27566 N 3621.02 2.50468 -4.22428 0
M  V30 27567 C 3621.77 3.67142 -4.51974 0
M  V30 27568 N 3621.18 4.85096 -4.14091 0
M  V30 27569 N 3622.93 3.67821 -5.12831 0
M  V30 27570 C 3623.38 2.43698 -5.4105 0
M  V30 27571 H 3625.55 3.88793 -6.19859 0
M  V30 27572 H 3626.73 1.12029 -6.4413 0
M  V30 27573 H 3628.22 1.78279 -8.19533 0
M  V30 27574 H 3626.52 3.20706 -9.67112 0
M  V30 27575 H 3626.33 0.901032 -10.1892 0
M  V30 27576 H 3624.7 1.33049 -9.56592 0
M  V30 27577 H 3620.13 2.61953 -3.79465 0
M  V30 27578 H 3625.33 0.200439 -6.63497 0
M  V30 27579 H 3620.26 4.8334 -3.66367 0
M  V30 27580 H 3621.64 5.7474 -4.33841 0
M  V30 27581 H 3627.34 3.5779 -5.23879 0
M  V30 27582 P 3629.2 3.65191 -7.99657 0
M  V30 27583 O 3630.62 3.89332 -8.45794 0
M  V30 27584 O 3628.84 2.28472 -7.50807 0
M  V30 27585 O 3628.88 4.64972 -6.77611 0
M  V30 27586 C 3628.72 6.06319 -7.16352 0
M  V30 27587 C 3629.26 6.91731 -6.02299 0
M  V30 27588 O 3628.2 6.92449 -5.17064 0
M  V30 27589 C 3630.48 6.43627 -5.25174 0
M  V30 27590 O 3631.21 7.43686 -4.60469 0
M  V30 27591 C 3629.81 5.40275 -4.31916 0
M  V30 27592 O 3630.61 5.25279 -3.14438 0
M  V30 27593 C 3628.47 6.04847 -4.05327 0
M  V30 27594 H 3628.5 6.62195 -3.11261 0
M  V30 27595 H 3629.69 4.42556 -4.81383 0
M  V30 27596 H 3631.17 5.92458 -5.93643 0
M  V30 27597 H 3629.48 7.92655 -6.402 0
M  V30 27598 H 3629.29 6.26671 -8.0846 0
M  V30 27599 H 3627.66 6.29101 -7.32804 0
M  V30 27600 H 3630.29 5.84315 -2.47318 0
M  V30 27601 P 3632.15 7.39546 -4.75277 0
M  V30 27602 O 3633.57 7.84798 -5.01039 0
M  V30 27603 O 3631.79 5.9812 -5.08098 0
M  V30 27604 O 3631.83 7.57503 -3.1866 0
M  V30 27605 C 3631.67 8.97357 -2.74833 0
M  V30 27606 C 3632.21 9.07548 -1.32709 0
M  V30 27607 O 3631.15 8.62072 -0.606159 0
M  V30 27608 C 3633.43 8.25383 -0.938334 0
M  V30 27609 O 3634.16 8.74577 0.146954 0
M  V30 27610 C 3632.76 6.8802 -0.712559 0
M  V30 27611 O 3633.56 6.1189 0.194655 0
M  V30 27612 C 3631.42 7.27966 -0.139777 0
M  V30 27613 H 3631.45 7.25354 0.961601 0
M  V30 27614 H 3632.64 6.32557 -1.65702 0
M  V30 27615 H 3634.12 8.19355 -1.79097 0
M  V30 27616 H 3632.43 10.1294 -1.10029 0
M  V30 27617 H 3632.24 9.64276 -3.41316 0
M  V30 27618 H 3630.61 9.25417 -2.76357 0
M  V30 27619 H 3633.24 6.25267 1.07847 0
M  V30 27620 P 3635.1 8.791 -1.35163e-10 0
M  V30 27621 O 3636.52 9.31296 0.027939 0
M  V30 27622 O 3634.74 7.77869 -1.04071 0
M  V30 27623 O 3634.78 8.09533 1.41463 0
M  V30 27624 C 3634.62 9.0349 2.53943 0
M  V30 27625 C 3635.16 8.35135 3.78975 0
M  V30 27626 O 3634.1 7.57992 4.15078 0
M  V30 27627 C 3636.38 7.45087 3.67298 0
M  V30 27628 O 3637.12 7.27796 4.85194 0
M  V30 27629 C 3635.71 6.17323 3.12027 0
M  V30 27630 O 3636.51 5.04149 3.47132 0
M  V30 27631 C 3634.37 6.19961 3.81809 0
M  V30 27632 N 3633.33 5.71575 2.93223 0
M  V30 27633 C 3633.39 5.97133 1.62693 0
M  V30 27634 N 3632.35 5.44066 0.984414 0
M  V30 27635 C 3631.61 4.87093 1.93987 0
M  V30 27636 C 3630.31 4.26449 1.8738 0
M  V30 27637 O 3629.57 4.1089 0.884377 0
M  V30 27638 N 3629.88 3.82483 3.08036 0
M  V30 27639 C 3630.62 3.95124 4.27727 0
M  V30 27640 N 3630.03 3.4084 5.39089 0
M  V30 27641 N 3631.78 4.55264 4.3706 0
M  V30 27642 C 3632.23 5.00861 3.18217 0
M  V30 27643 H 3634.4 5.58218 4.73051 0
M  V30 27644 H 3635.59 6.21631 2.02558 0
M  V30 27645 H 3637.07 7.85819 2.93096 0
M  V30 27646 H 3635.38 9.11627 4.55076 0
M  V30 27647 H 3635.19 9.9573 2.34194 0
M  V30 27648 H 3633.56 9.2792 2.67832 0
M  V30 27649 H 3628.98 3.38323 3.1329 0
M  V30 27650 H 3634.19 6.53891 1.14265 0
M  V30 27651 H 3629.12 2.93852 5.30559 0
M  V30 27652 H 3630.49 3.47631 6.30632 0
M  V30 27653 H 3636.2 4.67628 4.28704 0
M  V30 27654 P 3638.05 7.39546 4.75277 0
M  V30 27655 O 3639.47 7.81777 5.05738 0
M  V30 27656 O 3637.69 7.1065 3.32998 0
M  V30 27657 O 3637.73 6.04542 5.56673 0
M  V30 27658 C 3637.57 6.22772 7.02095 0
M  V30 27659 C 3638.11 4.97725 7.70406 0
M  V30 27660 O 3637.05 4.13256 7.58987 0
M  V30 27661 C 3639.33 4.28231 7.11815 0
M  V30 27662 O 3640.07 3.49945 8.01648 0
M  V30 27663 C 3638.66 3.5063 5.96244 0
M  V30 27664 O 3639.46 2.36482 5.64681 0
M  V30 27665 C 3637.32 3.15122 6.56374 0
M  V30 27666 H 3637.35 2.13853 6.99751 0
M  V30 27667 H 3638.54 4.13501 5.06559 0
M  V30 27668 H 3640.02 5.03285 6.70911 0
M  V30 27669 H 3638.33 5.20877 8.75697 0
M  V30 27670 H 3638.14 7.11046 7.35349 0
M  V30 27671 H 3636.51 6.35815 7.26986 0
M  V30 27672 H 3639.15 1.61644 6.13565 0
M  V30 27673 P 3641 3.65191 7.99657 0
M  V30 27674 O 3642.43 3.8425 8.48115 0
M  V30 27675 O 3640.64 4.17805 6.64342 0
M  V30 27676 O 3640.68 2.07613 7.95143 0
M  V30 27677 C 3640.52 1.44328 9.27336 0
M  V30 27678 C 3641.06 0.0220036 9.17197 0
M  V30 27679 O 3640 -0.626867 8.61923 0
M  V30 27680 C 3642.28 -0.24586 8.30336 0
M  V30 27681 O 3643.02 -1.39011 8.63583 0
M  V30 27682 C 3641.61 -0.273849 6.91158 0
M  V30 27683 O 3642.41 -1.06348 6.02892 0
M  V30 27684 C 3640.27 -0.897649 7.22545 0
M  V30 27685 H 3640.3 -1.9841 7.04286 0
M  V30 27686 H 3641.49 0.739928 6.497 0
M  V30 27687 H 3642.97 0.60668 8.36503 0
M  V30 27688 H 3641.28 -0.352479 10.1829 0
M  V30 27689 H 3641.09 2.00611 10.0304 0
M  V30 27690 H 3639.46 1.41843 9.55327 0
M  V30 27691 H 3642.1 -1.95734 6.03555 0
M  V30 27692 P 3643.95 -1.25109 8.70152 0
M  V30 27693 O 3645.38 -1.35274 9.21221 0
M  V30 27694 O 3643.59 -0.0769065 7.84762 0
M  V30 27695 O 3643.63 -2.55232 7.81161 0
M  V30 27696 C 3643.47 -3.79939 8.58154 0
M  V30 27697 C 3644.01 -4.94023 7.72785 0
M  V30 27698 O 3642.95 -5.18726 6.91205 0
M  V30 27699 C 3645.23 -4.69597 6.85231 0
M  V30 27700 O 3645.97 -5.83832 6.51337 0
M  V30 27701 C 3644.56 -3.96706 5.66633 0
M  V30 27702 O 3645.36 -4.15414 4.49689 0
M  V30 27703 C 3643.22 -4.66153 5.59313 0
M  V30 27704 H 3643.25 -5.47679 4.85214 0
M  V30 27705 H 3644.44 -2.89008 5.86566 0
M  V30 27706 H 3645.92 -4.0121 7.36511 0
M  V30 27707 H 3644.23 -5.80182 8.37584 0
M  V30 27708 H 3644.04 -3.73517 9.52265 0
M  V30 27709 H 3642.41 -3.97163 8.80359 0
M  V30 27710 H 3645.05 -4.90969 4.01921 0
M  V30 27711 P 3646.9 -5.75688 6.64379 0
M  V30 27712 O 3648.33 -6.11849 7.01846 0
M  V30 27713 O 3646.54 -4.30744 6.56026 0
M  V30 27714 O 3646.58 -6.37042 5.19165 0
M  V30 27715 C 3646.42 -7.83578 5.16515 0
M  V30 27716 C 3646.96 -8.33398 3.83019 0
M  V30 27717 O 3645.91 -8.10074 3.01034 0
M  V30 27718 C 3648.18 -7.65514 3.2257 0
M  V30 27719 O 3648.92 -8.4329 2.32297 0
M  V30 27720 C 3647.51 -6.40075 2.62207 0
M  V30 27721 O 3648.31 -5.92589 1.53712 0
M  V30 27722 C 3646.17 -6.9454 2.18503 0
M  V30 27723 H 3646.21 -7.23063 1.12091 0
M  V30 27724 H 3647.39 -5.6025 3.37201 0
M  V30 27725 H 3648.87 -7.35707 4.02681 0
M  V30 27726 H 3647.18 -9.40912 3.9095 0
M  V30 27727 H 3646.99 -8.29056 5.99158 0
M  V30 27728 H 3645.36 -8.10073 5.25882 0
M  V30 27729 H 3648 -6.30324 0.726794 0
M  V30 27730 P 3649.86 -8.4349 2.47671 0
M  V30 27731 O 3651.28 -8.94167 2.5964 0
M  V30 27732 O 3649.5 -7.1704 3.19006 0
M  V30 27733 O 3649.53 -8.16596 0.923387 0
M  V30 27734 C 3649.37 -9.38437 0.108857 0
M  V30 27735 C 3649.91 -9.08175 -1.28353 0
M  V30 27736 O 3648.86 -8.44229 -1.84713 0
M  V30 27737 C 3651.13 -8.18386 -1.42505 0
M  V30 27738 O 3651.87 -8.3501 -2.60497 0
M  V30 27739 C 3650.46 -6.80225 -1.25468 0
M  V30 27740 O 3651.26 -5.81621 -1.91066 0
M  V30 27741 C 3649.12 -7.02416 -1.9168 0
M  V30 27742 H 3649.16 -6.6888 -2.96621 0
M  V30 27743 H 3650.34 -6.53617 -0.192223 0
M  V30 27744 H 3651.82 -8.36622 -0.589963 0
M  V30 27745 H 3650.13 -10.0291 -1.79807 0
M  V30 27746 H 3649.94 -10.2138 0.558219 0
M  V30 27747 H 3648.31 -9.6579 0.0444202 0
M  V30 27748 H 3650.95 -5.69556 -2.79637 0
M  V30 27749 P 3652.81 -8.4349 -2.47671 0
M  V30 27750 O 3654.23 -8.92689 -2.65029 0
M  V30 27751 O 3652.45 -7.7568 -1.19296 0
M  V30 27752 O 3652.48 -7.36886 -3.63805 0
M  V30 27753 C 3652.32 -7.95433 -4.98253 0
M  V30 27754 C 3652.86 -6.94612 -5.98974 0
M  V30 27755 O 3651.81 -6.10277 -6.11744 0
M  V30 27756 C 3654.08 -6.11426 -5.62335 0
M  V30 27757 O 3654.82 -5.6162 -6.70584 0
M  V30 27758 C 3653.41 -5.04409 -4.73308 0
M  V30 27759 O 3654.21 -3.86404 -4.74719 0
M  V30 27760 C 3652.07 -4.8728 -5.41006 0
M  V30 27761 N 3651.03 -4.65812 -4.42377 0
M  V30 27762 C 3651.2 -5.09132 -3.15382 0
M  V30 27763 N 3650.17 -4.84021 -2.3716 0
M  V30 27764 C 3649.29 -4.18386 -3.20441 0
M  V30 27765 C 3648.02 -3.6275 -2.94905 0
M  V30 27766 N 3647.46 -3.05008 -4.05243 0
M  V30 27767 C 3648.06 -2.98348 -5.28159 0
M  V30 27768 N 3649.24 -3.48171 -5.56333 0
M  V30 27769 C 3649.81 -4.06869 -4.47212 0
M  V30 27770 H 3653.29 -5.39013 -3.70026 0
M  V30 27771 H 3654.77 -6.71916 -5.01943 0
M  V30 27772 H 3653.08 -7.45796 -6.94223 0
M  V30 27773 H 3652.89 -8.89416 -5.05237 0
M  V30 27774 H 3651.26 -8.14876 -5.18409 0
M  V30 27775 H 3652.1 -5.59989 -2.81362 0
M  V30 27776 H 3653.9 -3.27906 -5.43085 0
M  V30 27777 P 3655.76 -5.75688 -6.64379 0
M  V30 27778 O 3657.18 -6.07627 -7.05504 0
M  V30 27779 O 3655.4 -5.88047 -5.19722 0
M  V30 27780 O 3655.43 -4.2322 -7.04443 0
M  V30 27781 C 3655.27 -3.99743 -8.4911 0
M  V30 27782 C 3655.81 -2.60516 -8.79425 0
M  V30 27783 O 3654.76 -1.82684 -8.4467 0
M  V30 27784 C 3657.03 -2.10343 -8.03628 0
M  V30 27785 O 3657.77 -1.09919 -8.67766 0
M  V30 27786 C 3656.36 -1.68446 -6.70876 0
M  V30 27787 O 3657.16 -0.678137 -6.08433 0
M  V30 27788 C 3655.03 -1.17436 -7.18567 0
M  V30 27789 H 3655.06 -0.0804732 -7.31656 0
M  V30 27790 H 3656.24 -2.54037 -6.02537 0
M  V30 27791 H 3657.72 -2.93881 -7.85526 0
M  V30 27792 H 3656.03 -2.53065 -9.86973 0
M  V30 27793 H 3655.84 -4.75072 -9.05887 0
M  V30 27794 H 3654.21 -4.05244 -8.76668 0
M  V30 27795 H 3656.85 0.177647 -6.34251 0
M  V30 27796 P 3658.71 -1.25109 -8.70152 0
M  V30 27797 O 3660.13 -1.29744 -9.22016 0
M  V30 27798 O 3658.35 -2.13714 -7.55141 0
M  V30 27799 O 3658.38 0.248149 -8.21425 0
M  V30 27800 C 3658.22 1.22779 -9.30434 0
M  V30 27801 C 3658.76 2.56293 -8.80664 0
M  V30 27802 O 3657.71 3.02979 -8.09349 0
M  V30 27803 C 3659.98 2.57523 -7.89775 0
M  V30 27804 O 3660.72 3.7668 -7.89438 0
M  V30 27805 C 3659.31 2.20997 -6.55446 0
M  V30 27806 O 3660.11 2.71895 -5.48509 0
M  V30 27807 C 3657.98 2.89693 -6.67988 0
M  V30 27808 H 3658.01 3.88793 -6.19859 0
M  V30 27809 H 3659.19 1.12046 -6.44229 0
M  V30 27810 H 3660.67 1.7746 -8.19711 0
M  V30 27811 H 3658.98 3.20706 -9.67112 0
M  V30 27812 H 3658.79 0.901032 -10.1892 0
M  V30 27813 H 3657.16 1.33049 -9.56592 0
M  V30 27814 H 3659.8 3.57847 -5.23962 0
M  V30 27815 P 3661.66 3.65191 -7.99657 0
M  V30 27816 O 3663.08 3.89332 -8.45794 0
M  V30 27817 O 3661.3 2.28472 -7.50807 0
M  V30 27818 O 3661.33 4.64972 -6.77611 0
M  V30 27819 C 3661.17 6.06319 -7.16352 0
M  V30 27820 C 3661.71 6.91731 -6.02299 0
M  V30 27821 O 3660.66 6.92449 -5.17064 0
M  V30 27822 C 3662.93 6.43627 -5.25174 0
M  V30 27823 O 3663.67 7.43686 -4.60469 0
M  V30 27824 C 3662.26 5.40275 -4.31916 0
M  V30 27825 O 3663.06 5.25279 -3.14438 0
M  V30 27826 C 3660.93 6.04847 -4.05327 0
M  V30 27827 H 3660.96 6.62195 -3.11261 0
M  V30 27828 H 3662.14 4.42556 -4.81383 0
M  V30 27829 H 3663.63 5.92458 -5.93643 0
M  V30 27830 H 3661.93 7.92655 -6.402 0
M  V30 27831 H 3661.74 6.26671 -8.0846 0
M  V30 27832 H 3660.11 6.29101 -7.32804 0
M  V30 27833 H 3662.75 5.84315 -2.47318 0
M  V30 27834 P 3664.61 7.39546 -4.75277 0
M  V30 27835 O 3666.03 7.84798 -5.01039 0
M  V30 27836 O 3664.25 5.9812 -5.08098 0
M  V30 27837 O 3664.28 7.57503 -3.1866 0
M  V30 27838 C 3664.12 8.97357 -2.74833 0
M  V30 27839 C 3664.66 9.07548 -1.32709 0
M  V30 27840 O 3663.61 8.62072 -0.606159 0
M  V30 27841 C 3665.88 8.25383 -0.938334 0
M  V30 27842 O 3666.62 8.74577 0.146954 0
M  V30 27843 C 3665.21 6.8802 -0.712559 0
M  V30 27844 O 3666.01 6.1189 0.194655 0
M  V30 27845 C 3663.88 7.27966 -0.139777 0
M  V30 27846 H 3663.91 7.25354 0.961601 0
M  V30 27847 H 3665.09 6.32557 -1.65702 0
M  V30 27848 H 3666.58 8.19355 -1.79097 0
M  V30 27849 H 3664.88 10.1294 -1.10029 0
M  V30 27850 H 3664.69 9.64276 -3.41316 0
M  V30 27851 H 3663.06 9.25417 -2.76357 0
M  V30 27852 H 3665.7 6.25267 1.07847 0
M  V30 27853 P 3667.56 8.791 -1.4035e-10 0
M  V30 27854 O 3668.98 9.31296 0.027939 0
M  V30 27855 O 3667.2 7.77869 -1.04071 0
M  V30 27856 O 3667.24 8.09533 1.41463 0
M  V30 27857 C 3667.08 9.0349 2.53943 0
M  V30 27858 C 3667.62 8.35135 3.78975 0
M  V30 27859 O 3666.56 7.57992 4.15078 0
M  V30 27860 C 3668.83 7.45087 3.67298 0
M  V30 27861 O 3669.57 7.27796 4.85194 0
M  V30 27862 C 3668.17 6.17323 3.12027 0
M  V30 27863 O 3668.96 5.04149 3.47132 0
M  V30 27864 C 3666.83 6.19961 3.81809 0
M  V30 27865 N 3665.78 5.71575 2.93223 0
M  V30 27866 C 3665.85 5.97133 1.62693 0
M  V30 27867 N 3664.8 5.44066 0.984414 0
M  V30 27868 C 3664.07 4.87093 1.93987 0
M  V30 27869 C 3662.76 4.26449 1.8738 0
M  V30 27870 O 3662.03 4.1089 0.884377 0
M  V30 27871 N 3662.33 3.82483 3.08036 0
M  V30 27872 C 3663.08 3.95124 4.27727 0
M  V30 27873 N 3662.48 3.4084 5.39089 0
M  V30 27874 N 3664.23 4.55264 4.3706 0
M  V30 27875 C 3664.69 5.00861 3.18217 0
M  V30 27876 H 3666.86 5.58218 4.73051 0
M  V30 27877 H 3668.04 6.21631 2.02558 0
M  V30 27878 H 3669.53 7.85819 2.93096 0
M  V30 27879 H 3667.83 9.11627 4.55076 0
M  V30 27880 H 3667.64 9.9573 2.34194 0
M  V30 27881 H 3666.01 9.2792 2.67832 0
M  V30 27882 H 3661.44 3.38323 3.1329 0
M  V30 27883 H 3666.64 6.53891 1.14265 0
M  V30 27884 H 3661.57 2.93852 5.30559 0
M  V30 27885 H 3662.95 3.47631 6.30632 0
M  V30 27886 H 3668.65 4.67628 4.28704 0
M  V30 27887 P 3670.51 7.39546 4.75277 0
M  V30 27888 O 3671.93 7.81945 5.05847 0
M  V30 27889 O 3670.15 7.1065 3.32998 0
M  V30 27890 O 3670.19 6.04542 5.56673 0
M  V30 27891 C 3670.03 6.22772 7.02095 0
M  V30 27892 C 3670.57 4.97671 7.70322 0
M  V30 27893 O 3669.51 4.13256 7.58987 0
M  V30 27894 C 3671.78 4.28231 7.11815 0
M  V30 27895 O 3672.52 3.49945 8.01648 0
M  V30 27896 C 3671.12 3.5063 5.96244 0
M  V30 27897 O 3671.91 2.36443 5.64589 0
M  V30 27898 C 3669.78 3.15122 6.56374 0
M  V30 27899 N 3668.74 3.22311 5.55692 0
M  V30 27900 C 3668.8 4.14382 4.59701 0
M  V30 27901 N 3667.75 4.04476 3.76958 0
M  V30 27902 C 3667.02 3.04892 4.26534 0
M  V30 27903 C 3665.71 2.57447 3.88189 0
M  V30 27904 O 3664.98 2.9785 2.96543 0
M  V30 27905 N 3665.28 1.55228 4.65922 0
M  V30 27906 C 3666.03 1.01152 5.73447 0
M  V30 27907 N 3665.43 -0.0472117 6.37783 0
M  V30 27908 N 3667.18 1.467 6.13813 0
M  V30 27909 C 3667.64 2.4931 5.38487 0
M  V30 27910 H 3669.81 2.13853 6.99751 0
M  V30 27911 H 3670.99 4.13438 5.06482 0
M  V30 27912 H 3672.48 5.02614 6.71414 0
M  V30 27913 H 3670.78 5.20877 8.75697 0
M  V30 27914 H 3670.59 7.11046 7.35349 0
M  V30 27915 H 3668.96 6.35815 7.26986 0
M  V30 27916 H 3664.39 1.15238 4.46468 0
M  V30 27917 H 3669.59 4.88312 4.49647 0
M  V30 27918 H 3664.52 -0.396382 6.05203 0
M  V30 27919 H 3665.9 -0.484997 7.18465 0
M  V30 27920 H 3671.6 1.61619 6.13468 0
M  V30 27921 P 3673.46 3.65191 7.99657 0
M  V30 27922 O 3674.88 3.8425 8.48115 0
M  V30 27923 O 3673.1 4.17805 6.64342 0
M  V30 27924 O 3673.14 2.07613 7.95143 0
M  V30 27925 C 3672.98 1.44328 9.27336 0
M  V30 27926 C 3673.52 0.0220036 9.17197 0
M  V30 27927 O 3672.46 -0.626867 8.61923 0
M  V30 27928 C 3674.73 -0.24586 8.30336 0
M  V30 27929 O 3675.47 -1.39011 8.63583 0
M  V30 27930 C 3674.07 -0.273849 6.91158 0
M  V30 27931 O 3674.86 -1.06348 6.02892 0
M  V30 27932 C 3672.73 -0.897649 7.22545 0
M  V30 27933 H 3672.76 -1.9841 7.04286 0
M  V30 27934 H 3673.94 0.739928 6.497 0
M  V30 27935 H 3675.43 0.60668 8.36503 0
M  V30 27936 H 3673.73 -0.352479 10.1829 0
M  V30 27937 H 3673.54 2.00611 10.0304 0
M  V30 27938 H 3671.91 1.41843 9.55327 0
M  V30 27939 H 3674.55 -1.95734 6.03555 0
M  V30 27940 P 3676.41 -1.25109 8.70152 0
M  V30 27941 O 3677.83 -1.35288 9.2132 0
M  V30 27942 O 3676.05 -0.0769065 7.84762 0
M  V30 27943 O 3676.09 -2.55232 7.81161 0
M  V30 27944 C 3675.93 -3.79979 8.58246 0
M  V30 27945 C 3676.47 -4.94023 7.72785 0
M  V30 27946 O 3675.41 -5.18666 6.91125 0
M  V30 27947 C 3677.69 -4.69597 6.85231 0
M  V30 27948 O 3678.42 -5.83832 6.51337 0
M  V30 27949 C 3677.02 -3.96706 5.66633 0
M  V30 27950 O 3677.82 -4.14896 4.5003 0
M  V30 27951 C 3675.68 -4.66153 5.59313 0
M  V30 27952 N 3674.64 -3.71582 5.24027 0
M  V30 27953 C 3674.81 -2.39715 5.48833 0
M  V30 27954 N 3673.78 -1.65863 5.12845 0
M  V30 27955 C 3672.89 -2.57637 4.5973 0
M  V30 27956 C 3671.63 -2.40278 4.01027 0
M  V30 27957 N 3671.03 -1.19549 3.86744 0
M  V30 27958 N 3671.06 -3.57711 3.59575 0
M  V30 27959 C 3671.66 -4.80324 3.70476 0
M  V30 27960 N 3672.84 -5.01121 4.23801 0
M  V30 27961 C 3673.42 -3.84757 4.66372 0
M  V30 27962 H 3675.71 -5.47604 4.85148 0
M  V30 27963 H 3676.89 -2.8955 5.86187 0
M  V30 27964 H 3678.38 -4.0121 7.36511 0
M  V30 27965 H 3676.68 -5.81019 8.37003 0
M  V30 27966 H 3676.49 -3.73517 9.52265 0
M  V30 27967 H 3674.86 -3.97163 8.80359 0
M  V30 27968 H 3671.13 -5.66348 3.3183 0
M  V30 27969 H 3675.71 -1.98804 5.94332 0
M  V30 27970 H 3670.1 -1.13147 3.4281 0
M  V30 27971 H 3671.5 -0.344074 4.19692 0
M  V30 27972 H 3677.5 -4.90891 4.01857 0
M  V30 27973 P 3679.36 -5.75688 6.64379 0
M  V30 27974 O 3680.78 -6.11981 7.01997 0
M  V30 27975 O 3679 -4.30744 6.56026 0
M  V30 27976 O 3679.04 -6.37042 5.19165 0
M  V30 27977 C 3678.88 -7.83578 5.16515 0
M  V30 27978 C 3679.42 -8.33307 3.82977 0
M  V30 27979 O 3678.36 -8.10074 3.01034 0
M  V30 27980 C 3680.64 -7.65514 3.2257 0
M  V30 27981 O 3681.37 -8.4329 2.32297 0
M  V30 27982 C 3679.97 -6.40075 2.62207 0
M  V30 27983 O 3680.77 -5.92492 1.53687 0
M  V30 27984 C 3678.63 -6.9454 2.18503 0
M  V30 27985 N 3677.59 -5.95905 2.39948 0
M  V30 27986 C 3677.65 -5.13994 3.44742 0
M  V30 27987 N 3676.6 -4.30684 3.46712 0
M  V30 27988 C 3675.87 -4.65583 2.41086 0
M  V30 27989 C 3674.56 -4.20877 1.99581 0
M  V30 27990 O 3673.83 -3.35913 2.52616 0
M  V30 27991 N 3674.13 -4.83271 0.873406 0
M  V30 27992 C 3674.88 -5.82006 0.185129 0
M  V30 27993 N 3674.29 -6.30619 -0.95439 0
M  V30 27994 N 3676.04 -6.28443 0.578524 0
M  V30 27995 C 3676.49 -5.68486 1.70138 0
M  V30 27996 H 3678.66 -7.23063 1.12091 0
M  V30 27997 H 3679.84 -5.60165 3.3715 0
M  V30 27998 H 3681.33 -7.3611 4.01946 0
M  V30 27999 H 3679.63 -9.40912 3.9095 0
M  V30 28000 H 3679.44 -8.29056 5.99158 0
M  V30 28001 H 3677.81 -8.10073 5.25882 0
M  V30 28002 H 3673.24 -4.58323 0.505262 0
M  V30 28003 H 3678.44 -5.14564 4.1935 0
M  V30 28004 H 3673.37 -5.93402 -1.25364 0
M  V30 28005 H 3674.75 -7.0425 -1.50254 0
M  V30 28006 H 3680.45 -6.30224 0.72668 0
M  V30 28007 P 3682.31 -8.4349 2.47671 0
M  V30 28008 O 3683.73 -8.94263 2.59668 0
M  V30 28009 O 3681.95 -7.1704 3.19006 0
M  V30 28010 O 3681.99 -8.16596 0.923387 0
M  V30 28011 C 3681.83 -9.38537 0.108869 0
M  V30 28012 C 3682.37 -9.08175 -1.28353 0
M  V30 28013 O 3681.31 -8.44131 -1.84692 0
M  V30 28014 C 3683.59 -8.18386 -1.42505 0
M  V30 28015 O 3684.32 -8.3501 -2.60497 0
M  V30 28016 C 3682.92 -6.80225 -1.25468 0
M  V30 28017 O 3683.72 -5.81716 -1.90454 0
M  V30 28018 C 3681.58 -7.02416 -1.9168 0
M  V30 28019 N 3680.54 -6.31033 -1.20314 0
M  V30 28020 C 3680.71 -5.98817 0.0994088 0
M  V30 28021 N 3679.68 -5.35403 0.621694 0
M  V30 28022 C 3678.79 -5.25212 -0.43376 0
M  V30 28023 C 3677.53 -4.64602 -0.519722 0
M  V30 28024 N 3676.93 -4.01457 0.519136 0
M  V30 28025 N 3676.96 -4.7568 -1.76013 0
M  V30 28026 C 3677.56 -5.3653 -2.83017 0
M  V30 28027 N 3678.74 -5.93676 -2.79782 0
M  V30 28028 C 3679.32 -5.84061 -1.56249 0
M  V30 28029 H 3681.61 -6.68789 -2.9658 0
M  V30 28030 H 3682.8 -6.53498 -0.198729 0
M  V30 28031 H 3684.28 -8.36622 -0.589963 0
M  V30 28032 H 3682.58 -10.0273 -1.8081 0
M  V30 28033 H 3682.39 -10.2138 0.558219 0
M  V30 28034 H 3680.76 -9.6579 0.0444202 0
M  V30 28035 H 3677.03 -5.37113 -3.77321 0
M  V30 28036 H 3681.61 -6.23209 0.660562 0
M  V30 28037 H 3676 -3.58834 0.394862 0
M  V30 28038 H 3677.4 -3.96059 1.43048 0
M  V30 28039 H 3683.4 -5.69466 -2.79593 0
M  V30 28040 P 3685.26 -8.4349 -2.47671 0
M  V30 28041 O 3686.68 -8.92689 -2.65029 0
M  V30 28042 O 3684.9 -7.7568 -1.19296 0
M  V30 28043 O 3684.94 -7.36886 -3.63805 0
M  V30 28044 C 3684.78 -7.95433 -4.98253 0
M  V30 28045 C 3685.32 -6.94612 -5.98974 0
M  V30 28046 O 3684.26 -6.10277 -6.11744 0
M  V30 28047 C 3686.54 -6.11426 -5.62335 0
M  V30 28048 O 3687.27 -5.6162 -6.70584 0
M  V30 28049 C 3685.87 -5.04409 -4.73308 0
M  V30 28050 O 3686.67 -3.86404 -4.74719 0
M  V30 28051 C 3684.53 -4.8728 -5.41006 0
M  V30 28052 N 3683.49 -4.65812 -4.42377 0
M  V30 28053 C 3683.66 -5.09132 -3.15382 0
M  V30 28054 N 3682.63 -4.84021 -2.3716 0
M  V30 28055 C 3681.74 -4.18386 -3.20441 0
M  V30 28056 C 3680.48 -3.6275 -2.94905 0
M  V30 28057 N 3679.88 -3.65794 -1.73372 0
M  V30 28058 N 3679.91 -3.05008 -4.05243 0
M  V30 28059 C 3680.51 -2.98348 -5.28159 0
M  V30 28060 N 3681.69 -3.48171 -5.56333 0
M  V30 28061 C 3682.27 -4.06869 -4.47212 0
M  V30 28062 H 3684.56 -4.02278 -6.11074 0
M  V30 28063 H 3685.75 -5.39013 -3.70026 0
M  V30 28064 H 3687.23 -6.71916 -5.01943 0
M  V30 28065 H 3685.53 -7.45796 -6.94223 0
M  V30 28066 H 3685.34 -8.89416 -5.05237 0
M  V30 28067 H 3683.71 -8.14876 -5.18409 0
M  V30 28068 H 3679.98 -2.47853 -6.07807 0
M  V30 28069 H 3684.56 -5.59989 -2.81362 0
M  V30 28070 H 3678.95 -3.23218 -1.60782 0
M  V30 28071 H 3680.35 -4.10523 -0.937856 0
M  V30 28072 H 3686.35 -3.27906 -5.43085 0
M  V30 28073 P 3688.21 -5.75688 -6.64379 0
M  V30 28074 O 3689.63 -6.07627 -7.05504 0
M  V30 28075 O 3687.85 -5.88047 -5.19722 0
M  V30 28076 O 3687.89 -4.2322 -7.04443 0
M  V30 28077 C 3687.73 -3.99743 -8.4911 0
M  V30 28078 C 3688.27 -2.60516 -8.79425 0
M  V30 28079 O 3687.21 -1.82684 -8.4467 0
M  V30 28080 C 3689.49 -2.10343 -8.03628 0
M  V30 28081 O 3690.23 -1.09919 -8.67766 0
M  V30 28082 C 3688.82 -1.68446 -6.70876 0
M  V30 28083 O 3689.62 -0.678137 -6.08433 0
M  V30 28084 C 3687.48 -1.17436 -7.18567 0
M  V30 28085 H 3687.51 -0.0804732 -7.31656 0
M  V30 28086 H 3688.7 -2.54037 -6.02537 0
M  V30 28087 H 3690.18 -2.93881 -7.85526 0
M  V30 28088 H 3688.49 -2.53065 -9.86973 0
M  V30 28089 H 3688.3 -4.75072 -9.05887 0
M  V30 28090 H 3686.67 -4.05244 -8.76668 0
M  V30 28091 H 3689.31 0.177647 -6.34251 0
M  V30 28092 P 3691.16 -1.25109 -8.70152 0
M  V30 28093 O 3692.59 -1.29744 -9.22016 0
M  V30 28094 O 3690.8 -2.13714 -7.55141 0
M  V30 28095 O 3690.84 0.248149 -8.21425 0
M  V30 28096 C 3690.68 1.22779 -9.30434 0
M  V30 28097 C 3691.22 2.56293 -8.80664 0
M  V30 28098 O 3690.16 3.02979 -8.09349 0
M  V30 28099 C 3692.44 2.57523 -7.89775 0
M  V30 28100 O 3693.18 3.7668 -7.89438 0
M  V30 28101 C 3691.77 2.20997 -6.55446 0
M  V30 28102 O 3692.57 2.71895 -5.48509 0
M  V30 28103 C 3690.43 2.89693 -6.67988 0
M  V30 28104 H 3690.46 3.88793 -6.19859 0
M  V30 28105 H 3691.65 1.12046 -6.44229 0
M  V30 28106 H 3693.13 1.7746 -8.19711 0
M  V30 28107 H 3691.44 3.20706 -9.67112 0
M  V30 28108 H 3691.25 0.901032 -10.1892 0
M  V30 28109 H 3689.62 1.33049 -9.56592 0
M  V30 28110 H 3692.26 3.57847 -5.23962 0
M  V30 28111 P 3694.11 3.65191 -7.99657 0
M  V30 28112 O 3695.54 3.89332 -8.45794 0
M  V30 28113 O 3693.75 2.28472 -7.50807 0
M  V30 28114 O 3693.79 4.64972 -6.77611 0
M  V30 28115 C 3693.63 6.06319 -7.16352 0
M  V30 28116 C 3694.17 6.91731 -6.02299 0
M  V30 28117 O 3693.11 6.92449 -5.17064 0
M  V30 28118 C 3695.39 6.43627 -5.25174 0
M  V30 28119 O 3696.13 7.43686 -4.60469 0
M  V30 28120 C 3694.72 5.40275 -4.31916 0
M  V30 28121 O 3695.52 5.25279 -3.14438 0
M  V30 28122 C 3693.38 6.04847 -4.05327 0
M  V30 28123 H 3693.41 6.62195 -3.11261 0
M  V30 28124 H 3694.6 4.42556 -4.81383 0
M  V30 28125 H 3696.08 5.92458 -5.93643 0
M  V30 28126 H 3694.39 7.92655 -6.402 0
M  V30 28127 H 3694.2 6.26671 -8.0846 0
M  V30 28128 H 3692.57 6.29101 -7.32804 0
M  V30 28129 H 3695.21 5.84315 -2.47318 0
M  V30 28130 P 3697.06 7.39546 -4.75277 0
M  V30 28131 O 3698.49 7.84798 -5.01039 0
M  V30 28132 O 3696.7 5.9812 -5.08098 0
M  V30 28133 O 3696.74 7.57503 -3.1866 0
M  V30 28134 C 3696.58 8.97357 -2.74833 0
M  V30 28135 C 3697.12 9.07548 -1.32709 0
M  V30 28136 O 3696.07 8.62072 -0.606159 0
M  V30 28137 C 3698.34 8.25383 -0.938334 0
M  V30 28138 O 3699.08 8.74577 0.146954 0
M  V30 28139 C 3697.67 6.8802 -0.712559 0
M  V30 28140 O 3698.47 6.1189 0.194655 0
M  V30 28141 C 3696.33 7.27966 -0.139777 0
M  V30 28142 H 3696.37 7.25354 0.961601 0
M  V30 28143 H 3697.55 6.32557 -1.65702 0
M  V30 28144 H 3699.03 8.19355 -1.79097 0
M  V30 28145 H 3697.34 10.1294 -1.10029 0
M  V30 28146 H 3697.15 9.64276 -3.41316 0
M  V30 28147 H 3695.52 9.25417 -2.76357 0
M  V30 28148 H 3698.16 6.25267 1.07847 0
M  V30 28149 P 3700.01 8.791 -1.45536e-10 0
M  V30 28150 O 3701.44 9.31296 0.027939 0
M  V30 28151 O 3699.65 7.77869 -1.04071 0
M  V30 28152 O 3699.69 8.09533 1.41463 0
M  V30 28153 C 3699.53 9.0349 2.53943 0
M  V30 28154 C 3700.07 8.35135 3.78975 0
M  V30 28155 O 3699.02 7.57992 4.15078 0
M  V30 28156 C 3701.29 7.45087 3.67298 0
M  V30 28157 O 3702.03 7.27796 4.85194 0
M  V30 28158 C 3700.62 6.17323 3.12027 0
M  V30 28159 O 3701.42 5.04149 3.47132 0
M  V30 28160 C 3699.28 6.19961 3.81809 0
M  V30 28161 N 3698.24 5.71575 2.93223 0
M  V30 28162 C 3698.3 5.97133 1.62693 0
M  V30 28163 N 3697.26 5.44066 0.984414 0
M  V30 28164 C 3696.52 4.87093 1.93987 0
M  V30 28165 C 3695.22 4.26449 1.8738 0
M  V30 28166 O 3694.48 4.1089 0.884377 0
M  V30 28167 N 3694.79 3.82483 3.08036 0
M  V30 28168 C 3695.54 3.95124 4.27727 0
M  V30 28169 N 3694.94 3.4084 5.39089 0
M  V30 28170 N 3696.69 4.55264 4.3706 0
M  V30 28171 C 3697.15 5.00861 3.18217 0
M  V30 28172 H 3699.32 5.58218 4.73051 0
M  V30 28173 H 3700.5 6.21631 2.02558 0
M  V30 28174 H 3701.98 7.85819 2.93096 0
M  V30 28175 H 3700.29 9.11627 4.55076 0
M  V30 28176 H 3700.1 9.9573 2.34194 0
M  V30 28177 H 3698.47 9.2792 2.67832 0
M  V30 28178 H 3693.89 3.38323 3.1329 0
M  V30 28179 H 3699.1 6.53891 1.14265 0
M  V30 28180 H 3694.03 2.93852 5.30559 0
M  V30 28181 H 3695.4 3.47631 6.30632 0
M  V30 28182 H 3701.11 4.67628 4.28704 0
M  V30 28183 P 3702.97 7.39546 4.75277 0
M  V30 28184 O 3704.39 7.81777 5.05738 0
M  V30 28185 O 3702.61 7.1065 3.32998 0
M  V30 28186 O 3702.64 6.04542 5.56673 0
M  V30 28187 C 3702.48 6.22772 7.02095 0
M  V30 28188 C 3703.02 4.97725 7.70406 0
M  V30 28189 O 3701.97 4.13256 7.58987 0
M  V30 28190 C 3704.24 4.28231 7.11815 0
M  V30 28191 O 3704.98 3.49945 8.01648 0
M  V30 28192 C 3703.57 3.5063 5.96244 0
M  V30 28193 O 3704.37 2.36482 5.64681 0
M  V30 28194 C 3702.23 3.15122 6.56374 0
M  V30 28195 H 3702.27 2.13853 6.99751 0
M  V30 28196 H 3703.45 4.13501 5.06559 0
M  V30 28197 H 3704.93 5.03285 6.70911 0
M  V30 28198 H 3703.24 5.20877 8.75697 0
M  V30 28199 H 3703.05 7.11046 7.35349 0
M  V30 28200 H 3701.42 6.35815 7.26986 0
M  V30 28201 H 3704.06 1.61644 6.13565 0
M  V30 28202 P 3705.92 3.65191 7.99657 0
M  V30 28203 O 3707.34 3.8425 8.48115 0
M  V30 28204 O 3705.56 4.17805 6.64342 0
M  V30 28205 O 3705.59 2.07613 7.95143 0
M  V30 28206 C 3705.43 1.44328 9.27336 0
M  V30 28207 C 3705.97 0.0220036 9.17197 0
M  V30 28208 O 3704.92 -0.626867 8.61923 0
M  V30 28209 C 3707.19 -0.24586 8.30336 0
M  V30 28210 O 3707.93 -1.39011 8.63583 0
M  V30 28211 C 3706.52 -0.273849 6.91158 0
M  V30 28212 O 3707.32 -1.06348 6.02892 0
M  V30 28213 C 3705.18 -0.897649 7.22545 0
M  V30 28214 H 3705.22 -1.9841 7.04286 0
M  V30 28215 H 3706.4 0.739928 6.497 0
M  V30 28216 H 3707.88 0.60668 8.36503 0
M  V30 28217 H 3706.19 -0.352479 10.1829 0
M  V30 28218 H 3706 2.00611 10.0304 0
M  V30 28219 H 3704.37 1.41843 9.55327 0
M  V30 28220 H 3707.01 -1.95734 6.03555 0
M  V30 28221 P 3708.87 -1.25109 8.70152 0
M  V30 28222 O 3710.29 -1.35288 9.2132 0
M  V30 28223 O 3708.51 -0.0769065 7.84762 0
M  V30 28224 O 3708.54 -2.55232 7.81161 0
M  V30 28225 C 3708.38 -3.79979 8.58246 0
M  V30 28226 C 3708.92 -4.94023 7.72785 0
M  V30 28227 O 3707.87 -5.18666 6.91125 0
M  V30 28228 C 3710.14 -4.69597 6.85231 0
M  V30 28229 O 3710.88 -5.83832 6.51337 0
M  V30 28230 C 3709.47 -3.96706 5.66633 0
M  V30 28231 O 3710.27 -4.14896 4.5003 0
M  V30 28232 C 3708.14 -4.66153 5.59313 0
M  V30 28233 N 3707.09 -3.71582 5.24027 0
M  V30 28234 C 3707.26 -2.39715 5.48833 0
M  V30 28235 N 3706.23 -1.65863 5.12845 0
M  V30 28236 C 3705.35 -2.57637 4.5973 0
M  V30 28237 C 3704.08 -2.40278 4.01027 0
M  V30 28238 N 3703.52 -3.57711 3.59575 0
M  V30 28239 C 3704.12 -4.80324 3.70476 0
M  V30 28240 N 3705.3 -5.01121 4.23801 0
M  V30 28241 C 3705.87 -3.84757 4.66372 0
M  V30 28242 H 3709.35 -2.8955 5.86187 0
M  V30 28243 H 3710.83 -4.0121 7.36511 0
M  V30 28244 H 3709.14 -5.81019 8.37003 0
M  V30 28245 H 3708.95 -3.73517 9.52265 0
M  V30 28246 H 3707.32 -3.97163 8.80359 0
M  V30 28247 H 3708.16 -1.98804 5.94332 0
M  V30 28248 H 3709.96 -4.90891 4.01857 0
M  V30 28249 P 3711.82 -5.75688 6.64379 0
M  V30 28250 O 3713.24 -6.11849 7.01846 0
M  V30 28251 O 3711.46 -4.30744 6.56026 0
M  V30 28252 O 3711.49 -6.37042 5.19165 0
M  V30 28253 C 3711.33 -7.83578 5.16515 0
M  V30 28254 C 3711.87 -8.33398 3.83019 0
M  V30 28255 O 3710.82 -8.10074 3.01034 0
M  V30 28256 C 3713.09 -7.65514 3.2257 0
M  V30 28257 O 3713.83 -8.4329 2.32297 0
M  V30 28258 C 3712.42 -6.40075 2.62207 0
M  V30 28259 O 3713.22 -5.92589 1.53712 0
M  V30 28260 C 3711.09 -6.9454 2.18503 0
M  V30 28261 H 3711.12 -7.23063 1.12091 0
M  V30 28262 H 3712.3 -5.6025 3.37201 0
M  V30 28263 H 3713.79 -7.35707 4.02681 0
M  V30 28264 H 3712.09 -9.40912 3.9095 0
M  V30 28265 H 3711.9 -8.29056 5.99158 0
M  V30 28266 H 3710.27 -8.10073 5.25882 0
M  V30 28267 H 3712.91 -6.30324 0.726794 0
M  V30 28268 P 3714.77 -8.4349 2.47671 0
M  V30 28269 O 3716.19 -8.94167 2.5964 0
M  V30 28270 O 3714.41 -7.1704 3.19006 0
M  V30 28271 O 3714.44 -8.16596 0.923387 0
M  V30 28272 C 3714.28 -9.38437 0.108857 0
M  V30 28273 C 3714.82 -9.08175 -1.28353 0
M  V30 28274 O 3713.77 -8.44229 -1.84713 0
M  V30 28275 C 3716.04 -8.18386 -1.42505 0
M  V30 28276 O 3716.78 -8.3501 -2.60497 0
M  V30 28277 C 3715.37 -6.80225 -1.25468 0
M  V30 28278 O 3716.17 -5.81621 -1.91066 0
M  V30 28279 C 3714.04 -7.02416 -1.9168 0
M  V30 28280 H 3714.07 -6.6888 -2.96621 0
M  V30 28281 H 3715.25 -6.53617 -0.192223 0
M  V30 28282 H 3716.74 -8.36622 -0.589963 0
M  V30 28283 H 3715.04 -10.0291 -1.79807 0
M  V30 28284 H 3714.85 -10.2138 0.558219 0
M  V30 28285 H 3713.22 -9.6579 0.0444202 0
M  V30 28286 H 3715.86 -5.69556 -2.79637 0
M  V30 28287 P 3717.72 -8.4349 -2.47671 0
M  V30 28288 O 3719.14 -8.92593 -2.65 0
M  V30 28289 O 3717.36 -7.7568 -1.19296 0
M  V30 28290 O 3717.4 -7.36886 -3.63805 0
M  V30 28291 C 3717.24 -7.95349 -4.982 0
M  V30 28292 C 3717.78 -6.94612 -5.98974 0
M  V30 28293 O 3716.72 -6.10347 -6.11815 0
M  V30 28294 C 3718.99 -6.11426 -5.62335 0
M  V30 28295 O 3719.73 -5.6162 -6.70584 0
M  V30 28296 C 3718.32 -5.04409 -4.73308 0
M  V30 28297 O 3719.12 -3.85992 -4.75183 0
M  V30 28298 C 3716.99 -4.8728 -5.41006 0
M  V30 28299 H 3717.02 -4.02333 -6.11157 0
M  V30 28300 H 3718.2 -5.39466 -3.69543 0
M  V30 28301 H 3719.69 -6.71916 -5.01943 0
M  V30 28302 H 3717.99 -7.4649 -6.93477 0
M  V30 28303 H 3717.8 -8.89416 -5.05237 0
M  V30 28304 H 3716.17 -8.14876 -5.18409 0
M  V30 28305 H 3718.81 -3.27957 -5.4317 0
M  V30 28306 P 3720.67 -5.75688 -6.64379 0
M  V30 28307 O 3722.09 -6.07627 -7.05504 0
M  V30 28308 O 3720.31 -5.88047 -5.19722 0
M  V30 28309 O 3720.35 -4.2322 -7.04443 0
M  V30 28310 C 3720.19 -3.99743 -8.4911 0
M  V30 28311 C 3720.73 -2.60516 -8.79425 0
M  V30 28312 O 3719.67 -1.82684 -8.4467 0
M  V30 28313 C 3721.94 -2.10343 -8.03628 0
M  V30 28314 O 3722.68 -1.09919 -8.67766 0
M  V30 28315 C 3721.27 -1.68446 -6.70876 0
M  V30 28316 O 3722.07 -0.678137 -6.08433 0
M  V30 28317 C 3719.94 -1.17436 -7.18567 0
M  V30 28318 H 3719.97 -0.0804732 -7.31656 0
M  V30 28319 H 3721.15 -2.54037 -6.02537 0
M  V30 28320 H 3722.64 -2.93881 -7.85526 0
M  V30 28321 H 3720.94 -2.53065 -9.86973 0
M  V30 28322 H 3720.75 -4.75072 -9.05887 0
M  V30 28323 H 3719.12 -4.05244 -8.76668 0
M  V30 28324 H 3721.76 0.177647 -6.34251 0
M  V30 28325 P 3723.62 -1.25109 -8.70152 0
M  V30 28326 O 3725.04 -1.29744 -9.22016 0
M  V30 28327 O 3723.26 -2.13714 -7.55141 0
M  V30 28328 O 3723.3 0.248149 -8.21425 0
M  V30 28329 C 3723.14 1.22779 -9.30434 0
M  V30 28330 C 3723.68 2.56293 -8.80664 0
M  V30 28331 O 3722.62 3.02979 -8.09349 0
M  V30 28332 C 3724.89 2.57523 -7.89775 0
M  V30 28333 O 3725.63 3.7668 -7.89438 0
M  V30 28334 C 3724.23 2.20997 -6.55446 0
M  V30 28335 O 3725.02 2.71895 -5.48509 0
M  V30 28336 C 3722.89 2.89693 -6.67988 0
M  V30 28337 H 3722.92 3.88793 -6.19859 0
M  V30 28338 H 3724.1 1.12046 -6.44229 0
M  V30 28339 H 3725.59 1.7746 -8.19711 0
M  V30 28340 H 3723.89 3.20706 -9.67112 0
M  V30 28341 H 3723.7 0.901032 -10.1892 0
M  V30 28342 H 3722.07 1.33049 -9.56592 0
M  V30 28343 H 3724.71 3.57847 -5.23962 0
M  V30 28344 P 3726.57 3.65191 -7.99657 0
M  V30 28345 O 3727.99 3.89332 -8.45794 0
M  V30 28346 O 3726.21 2.28472 -7.50807 0
M  V30 28347 O 3726.25 4.64972 -6.77611 0
M  V30 28348 C 3726.09 6.06319 -7.16352 0
M  V30 28349 C 3726.63 6.91731 -6.02299 0
M  V30 28350 O 3725.57 6.92449 -5.17064 0
M  V30 28351 C 3727.84 6.43627 -5.25174 0
M  V30 28352 O 3728.58 7.43686 -4.60469 0
M  V30 28353 C 3727.18 5.40275 -4.31916 0
M  V30 28354 O 3727.97 5.25279 -3.14438 0
M  V30 28355 C 3725.84 6.04847 -4.05327 0
M  V30 28356 H 3725.87 6.62195 -3.11261 0
M  V30 28357 H 3727.05 4.42556 -4.81383 0
M  V30 28358 H 3728.54 5.92458 -5.93643 0
M  V30 28359 H 3726.84 7.92655 -6.402 0
M  V30 28360 H 3726.65 6.26671 -8.0846 0
M  V30 28361 H 3725.02 6.29101 -7.32804 0
M  V30 28362 H 3727.66 5.84315 -2.47318 0
M  V30 28363 P 3729.52 7.39546 -4.75277 0
M  V30 28364 O 3730.94 7.84882 -5.01092 0
M  V30 28365 O 3729.16 5.9812 -5.08098 0
M  V30 28366 O 3729.2 7.57503 -3.1866 0
M  V30 28367 C 3729.04 8.97452 -2.74862 0
M  V30 28368 C 3729.58 9.07548 -1.32709 0
M  V30 28369 O 3728.52 8.61972 -0.606089 0
M  V30 28370 C 3730.8 8.25383 -0.938334 0
M  V30 28371 O 3731.53 8.74577 0.146954 0
M  V30 28372 C 3730.13 6.8802 -0.712559 0
M  V30 28373 O 3730.93 6.1181 0.188505 0
M  V30 28374 C 3728.79 7.27966 -0.139777 0
M  V30 28375 N 3727.75 6.39368 -0.623421 0
M  V30 28376 C 3727.92 5.71761 -1.78245 0
M  V30 28377 N 3726.89 4.962 -2.10491 0
M  V30 28378 C 3726 5.16158 -1.0635 0
M  V30 28379 C 3724.74 4.60425 -0.810266 0
M  V30 28380 N 3724.14 3.7057 -1.62914 0
M  V30 28381 N 3724.17 5.06 0.348685 0
M  V30 28382 C 3724.77 5.94532 1.20395 0
M  V30 28383 N 3725.95 6.48452 1.01191 0
M  V30 28384 C 3726.53 6.04423 -0.146291 0
M  V30 28385 H 3728.82 7.25255 0.961469 0
M  V30 28386 H 3730 6.32625 -1.65044 0
M  V30 28387 H 3731.49 8.19355 -1.79097 0
M  V30 28388 H 3729.79 10.1305 -1.09016 0
M  V30 28389 H 3729.6 9.64276 -3.41316 0
M  V30 28390 H 3727.97 9.25417 -2.76357 0
M  V30 28391 H 3724.24 6.21659 2.10714 0
M  V30 28392 H 3728.82 5.79354 -2.38959 0
M  V30 28393 H 3723.21 3.33174 -1.38982 0
M  V30 28394 H 3724.61 3.39714 -2.48836 0
M  V30 28395 H 3730.61 6.25169 1.0783 0
M  V30 28396 P 3732.47 8.791 -1.50723e-10 0
M  V30 28397 O 3733.89 9.31196 0.027936 0
M  V30 28398 O 3732.11 7.77869 -1.04071 0
M  V30 28399 O 3732.15 8.09533 1.41463 0
M  V30 28400 C 3731.99 9.03587 2.5397 0
M  V30 28401 C 3732.53 8.35226 3.79016 0
M  V30 28402 O 3731.47 7.57904 4.1503 0
M  V30 28403 C 3733.75 7.45087 3.67298 0
M  V30 28404 O 3734.48 7.27796 4.85194 0
M  V30 28405 C 3733.08 6.17323 3.12027 0
M  V30 28406 O 3733.88 5.04496 3.46627 0
M  V30 28407 C 3731.74 6.19961 3.81809 0
M  V30 28408 N 3730.7 5.71575 2.93223 0
M  V30 28409 C 3730.87 5.77362 1.59168 0
M  V30 28410 N 3729.84 5.3123 0.911893 0
M  V30 28411 C 3728.95 4.91717 1.89588 0
M  V30 28412 C 3727.69 4.3114 1.8076 0
M  V30 28413 N 3727.12 4.06823 3.02898 0
M  V30 28414 C 3727.72 4.35062 4.22711 0
M  V30 28415 N 3728.9 4.90805 4.35707 0
M  V30 28416 C 3729.48 5.16382 3.14469 0
M  V30 28417 H 3732.96 6.21428 2.0318 0
M  V30 28418 H 3734.44 7.86112 2.9231 0
M  V30 28419 H 3732.74 9.11171 4.55987 0
M  V30 28420 H 3732.55 9.9573 2.34194 0
M  V30 28421 H 3730.92 9.2792 2.67832 0
M  V30 28422 H 3731.77 6.16575 1.12198 0
M  V30 28423 H 3733.56 4.67628 4.28704 0
M  V30 28424 P 3735.42 7.39546 4.75277 0
M  V30 28425 O 3736.84 7.81861 5.05793 0
M  V30 28426 O 3735.06 7.1065 3.32998 0
M  V30 28427 O 3735.1 6.04542 5.56673 0
M  V30 28428 C 3734.94 6.22839 7.02169 0
M  V30 28429 C 3735.48 4.97725 7.70406 0
M  V30 28430 O 3734.42 4.13208 7.58899 0
M  V30 28431 C 3736.7 4.28231 7.11815 0
M  V30 28432 O 3737.43 3.49945 8.01648 0
M  V30 28433 C 3736.03 3.5063 5.96244 0
M  V30 28434 O 3736.83 2.37008 5.64352 0
M  V30 28435 C 3734.69 3.15122 6.56374 0
M  V30 28436 N 3733.65 3.22311 5.55692 0
M  V30 28437 C 3733.82 3.99655 4.46046 0
M  V30 28438 N 3732.79 3.97599 3.63918 0
M  V30 28439 C 3731.9 3.11159 4.25334 0
M  V30 28440 C 3730.64 2.64972 3.85157 0
M  V30 28441 N 3730.07 1.78482 4.74759 0
M  V30 28442 C 3730.67 1.37463 5.90819 0
M  V30 28443 N 3731.85 1.7733 6.31889 0
M  V30 28444 C 3732.43 2.64393 5.43725 0
M  V30 28445 H 3735.91 4.12931 5.06895 0
M  V30 28446 H 3737.39 5.03285 6.70911 0
M  V30 28447 H 3735.69 5.20001 8.76217 0
M  V30 28448 H 3735.5 7.11046 7.35349 0
M  V30 28449 H 3733.87 6.35815 7.26986 0
M  V30 28450 H 3734.72 4.58037 4.27732 0
M  V30 28451 H 3736.51 1.61619 6.13468 0
M  V30 28452 P 3738.37 3.65191 7.99657 0
M  V30 28453 O 3739.79 3.8425 8.48115 0
M  V30 28454 O 3738.01 4.17805 6.64342 0
M  V30 28455 O 3738.05 2.07613 7.95143 0
M  V30 28456 C 3737.89 1.44328 9.27336 0
M  V30 28457 C 3738.43 0.0220036 9.17197 0
M  V30 28458 O 3737.37 -0.626867 8.61923 0
M  V30 28459 C 3739.65 -0.24586 8.30336 0
M  V30 28460 O 3740.39 -1.39011 8.63583 0
M  V30 28461 C 3738.98 -0.273849 6.91158 0
M  V30 28462 O 3739.78 -1.06348 6.02892 0
M  V30 28463 C 3737.64 -0.897649 7.22545 0
M  V30 28464 H 3737.67 -1.9841 7.04286 0
M  V30 28465 H 3738.86 0.739928 6.497 0
M  V30 28466 H 3740.34 0.60668 8.36503 0
M  V30 28467 H 3738.65 -0.352479 10.1829 0
M  V30 28468 H 3738.46 2.00611 10.0304 0
M  V30 28469 H 3736.83 1.41843 9.55327 0
M  V30 28470 H 3739.47 -1.95734 6.03555 0
M  V30 28471 P 3741.32 -1.25109 8.70152 0
M  V30 28472 O 3742.74 -1.35274 9.21221 0
M  V30 28473 O 3740.96 -0.0769065 7.84762 0
M  V30 28474 O 3741 -2.55232 7.81161 0
M  V30 28475 C 3740.84 -3.79939 8.58154 0
M  V30 28476 C 3741.38 -4.94023 7.72785 0
M  V30 28477 O 3740.32 -5.18726 6.91205 0
M  V30 28478 C 3742.6 -4.69597 6.85231 0
M  V30 28479 O 3743.34 -5.83832 6.51337 0
M  V30 28480 C 3741.93 -3.96706 5.66633 0
M  V30 28481 O 3742.73 -4.15414 4.49689 0
M  V30 28482 C 3740.59 -4.66153 5.59313 0
M  V30 28483 H 3740.62 -5.47679 4.85214 0
M  V30 28484 H 3741.81 -2.89008 5.86566 0
M  V30 28485 H 3743.29 -4.0121 7.36511 0
M  V30 28486 H 3741.6 -5.80182 8.37584 0
M  V30 28487 H 3741.41 -3.73517 9.52265 0
M  V30 28488 H 3739.78 -3.97163 8.80359 0
M  V30 28489 H 3742.42 -4.90969 4.01921 0
M  V30 28490 P 3744.27 -5.75688 6.64379 0
M  V30 28491 O 3745.69 -6.11915 7.01921 0
M  V30 28492 O 3743.91 -4.30744 6.56026 0
M  V30 28493 O 3743.95 -6.37042 5.19165 0
M  V30 28494 C 3743.79 -7.83662 5.1657 0
M  V30 28495 C 3744.33 -8.33398 3.83019 0
M  V30 28496 O 3743.28 -8.0998 3.00999 0
M  V30 28497 C 3745.55 -7.65514 3.2257 0
M  V30 28498 O 3746.29 -8.4329 2.32297 0
M  V30 28499 C 3744.88 -6.40075 2.62207 0
M  V30 28500 O 3745.68 -5.92338 1.5428 0
M  V30 28501 C 3743.54 -6.9454 2.18503 0
M  V30 28502 N 3742.5 -5.95905 2.39948 0
M  V30 28503 C 3742.67 -4.98383 3.32108 0
M  V30 28504 N 3741.64 -4.16798 3.41761 0
M  V30 28505 C 3740.76 -4.65287 2.47461 0
M  V30 28506 C 3739.49 -4.18946 2.07461 0
M  V30 28507 N 3738.89 -3.09661 2.60717 0
M  V30 28508 N 3738.92 -4.95327 1.09101 0
M  V30 28509 C 3739.53 -6.04369 0.519812 0
M  V30 28510 N 3740.7 -6.50694 0.855982 0
M  V30 28511 C 3741.28 -5.75818 1.84322 0
M  V30 28512 H 3743.57 -7.22964 1.12076 0
M  V30 28513 H 3744.76 -5.60502 3.36589 0
M  V30 28514 H 3746.24 -7.35707 4.02681 0
M  V30 28515 H 3744.55 -9.41302 3.90009 0
M  V30 28516 H 3744.36 -8.29056 5.99158 0
M  V30 28517 H 3742.73 -8.10073 5.25882 0
M  V30 28518 H 3738.99 -6.55843 -0.270373 0
M  V30 28519 H 3743.57 -4.88564 3.92502 0
M  V30 28520 H 3737.96 -2.80523 2.27218 0
M  V30 28521 H 3739.36 -2.55848 3.34465 0
M  V30 28522 H 3745.37 -6.30224 0.72668 0
M  V30 28523 P 3747.22 -8.4349 2.47671 0
M  V30 28524 O 3748.65 -8.94167 2.5964 0
M  V30 28525 O 3746.86 -7.1704 3.19006 0
M  V30 28526 O 3746.9 -8.16596 0.923387 0
M  V30 28527 C 3746.74 -9.38437 0.108857 0
M  V30 28528 C 3747.28 -9.08175 -1.28353 0
M  V30 28529 O 3746.22 -8.44229 -1.84713 0
M  V30 28530 C 3748.5 -8.18386 -1.42505 0
M  V30 28531 O 3749.24 -8.3501 -2.60497 0
M  V30 28532 C 3747.83 -6.80225 -1.25468 0
M  V30 28533 O 3748.63 -5.81621 -1.91066 0
M  V30 28534 C 3746.49 -7.02416 -1.9168 0
M  V30 28535 H 3746.52 -6.6888 -2.96621 0
M  V30 28536 H 3747.71 -6.53617 -0.192223 0
M  V30 28537 H 3749.19 -8.36622 -0.589963 0
M  V30 28538 H 3747.5 -10.0291 -1.79807 0
M  V30 28539 H 3747.31 -10.2138 0.558219 0
M  V30 28540 H 3745.68 -9.6579 0.0444202 0
M  V30 28541 H 3748.32 -5.69556 -2.79637 0
M  V30 28542 P 3750.17 -8.4349 -2.47671 0
M  V30 28543 O 3751.6 -8.92689 -2.65029 0
M  V30 28544 O 3749.81 -7.7568 -1.19296 0
M  V30 28545 O 3749.85 -7.36886 -3.63805 0
M  V30 28546 C 3749.69 -7.95433 -4.98253 0
M  V30 28547 C 3750.23 -6.94612 -5.98974 0
M  V30 28548 O 3749.18 -6.10277 -6.11744 0
M  V30 28549 C 3751.45 -6.11426 -5.62335 0
M  V30 28550 O 3752.19 -5.6162 -6.70584 0
M  V30 28551 C 3750.78 -5.04409 -4.73308 0
M  V30 28552 O 3751.58 -3.86404 -4.74719 0
M  V30 28553 C 3749.44 -4.8728 -5.41006 0
M  V30 28554 N 3748.4 -4.65812 -4.42377 0
M  V30 28555 C 3748.57 -5.09132 -3.15382 0
M  V30 28556 N 3747.54 -4.84021 -2.3716 0
M  V30 28557 C 3746.66 -4.18386 -3.20441 0
M  V30 28558 C 3745.39 -3.6275 -2.94905 0
M  V30 28559 N 3744.79 -3.65794 -1.73372 0
M  V30 28560 N 3744.83 -3.05008 -4.05243 0
M  V30 28561 C 3745.43 -2.98348 -5.28159 0
M  V30 28562 N 3746.6 -3.48171 -5.56333 0
M  V30 28563 C 3747.18 -4.06869 -4.47212 0
M  V30 28564 H 3749.48 -4.02278 -6.11074 0
M  V30 28565 H 3750.66 -5.39013 -3.70026 0
M  V30 28566 H 3752.14 -6.71916 -5.01943 0
M  V30 28567 H 3750.45 -7.45796 -6.94223 0
M  V30 28568 H 3750.26 -8.89416 -5.05237 0
M  V30 28569 H 3748.63 -8.14876 -5.18409 0
M  V30 28570 H 3744.89 -2.47853 -6.07807 0
M  V30 28571 H 3749.47 -5.59989 -2.81362 0
M  V30 28572 H 3743.86 -3.23218 -1.60782 0
M  V30 28573 H 3745.27 -4.10523 -0.937856 0
M  V30 28574 H 3751.27 -3.27906 -5.43085 0
M  V30 28575 P 3753.13 -5.75688 -6.64379 0
M  V30 28576 O 3754.55 -6.07627 -7.05504 0
M  V30 28577 O 3752.77 -5.88047 -5.19722 0
M  V30 28578 O 3752.8 -4.2322 -7.04443 0
M  V30 28579 C 3752.64 -3.99743 -8.4911 0
M  V30 28580 C 3753.18 -2.60516 -8.79425 0
M  V30 28581 O 3752.13 -1.82684 -8.4467 0
M  V30 28582 C 3754.4 -2.10343 -8.03628 0
M  V30 28583 O 3755.14 -1.09919 -8.67766 0
M  V30 28584 C 3753.73 -1.68446 -6.70876 0
M  V30 28585 O 3754.53 -0.678137 -6.08433 0
M  V30 28586 C 3752.39 -1.17436 -7.18567 0
M  V30 28587 H 3752.43 -0.0804732 -7.31656 0
M  V30 28588 H 3753.61 -2.54037 -6.02537 0
M  V30 28589 H 3755.09 -2.93881 -7.85526 0
M  V30 28590 H 3753.4 -2.53065 -9.86973 0
M  V30 28591 H 3753.21 -4.75072 -9.05887 0
M  V30 28592 H 3751.58 -4.05244 -8.76668 0
M  V30 28593 H 3754.22 0.177647 -6.34251 0
M  V30 28594 P 3756.08 -1.25109 -8.70152 0
M  V30 28595 O 3757.5 -1.29744 -9.22016 0
M  V30 28596 O 3755.72 -2.13714 -7.55141 0
M  V30 28597 O 3755.75 0.248149 -8.21425 0
M  V30 28598 C 3755.59 1.22779 -9.30434 0
M  V30 28599 C 3756.13 2.56293 -8.80664 0
M  V30 28600 O 3755.08 3.02979 -8.09349 0
M  V30 28601 C 3757.35 2.57523 -7.89775 0
M  V30 28602 O 3758.09 3.7668 -7.89438 0
M  V30 28603 C 3756.68 2.20997 -6.55446 0
M  V30 28604 O 3757.48 2.71895 -5.48509 0
M  V30 28605 C 3755.34 2.89693 -6.67988 0
M  V30 28606 H 3755.38 3.88793 -6.19859 0
M  V30 28607 H 3756.56 1.12046 -6.44229 0
M  V30 28608 H 3758.04 1.7746 -8.19711 0
M  V30 28609 H 3756.35 3.20706 -9.67112 0
M  V30 28610 H 3756.16 0.901032 -10.1892 0
M  V30 28611 H 3754.53 1.33049 -9.56592 0
M  V30 28612 H 3757.17 3.57847 -5.23962 0
M  V30 28613 P 3759.03 3.65191 -7.99657 0
M  V30 28614 O 3760.45 3.89332 -8.45794 0
M  V30 28615 O 3758.67 2.28472 -7.50807 0
M  V30 28616 O 3758.7 4.64972 -6.77611 0
M  V30 28617 C 3758.54 6.06319 -7.16352 0
M  V30 28618 C 3759.08 6.91731 -6.02299 0
M  V30 28619 O 3758.03 6.92449 -5.17064 0
M  V30 28620 C 3760.3 6.43627 -5.25174 0
M  V30 28621 O 3761.04 7.43686 -4.60469 0
M  V30 28622 C 3759.63 5.40275 -4.31916 0
M  V30 28623 O 3760.43 5.25279 -3.14438 0
M  V30 28624 C 3758.3 6.04847 -4.05327 0
M  V30 28625 H 3758.33 6.62195 -3.11261 0
M  V30 28626 H 3759.51 4.42556 -4.81383 0
M  V30 28627 H 3760.99 5.92458 -5.93643 0
M  V30 28628 H 3759.3 7.92655 -6.402 0
M  V30 28629 H 3759.11 6.26671 -8.0846 0
M  V30 28630 H 3757.48 6.29101 -7.32804 0
M  V30 28631 H 3760.12 5.84315 -2.47318 0
M  V30 28632 P 3761.98 7.39546 -4.75277 0
M  V30 28633 O 3763.4 7.84798 -5.01039 0
M  V30 28634 O 3761.62 5.9812 -5.08098 0
M  V30 28635 O 3761.65 7.57503 -3.1866 0
M  V30 28636 C 3761.49 8.97357 -2.74833 0
M  V30 28637 C 3762.03 9.07548 -1.32709 0
M  V30 28638 O 3760.98 8.62072 -0.606159 0
M  V30 28639 C 3763.25 8.25383 -0.938334 0
M  V30 28640 O 3763.99 8.74577 0.146954 0
M  V30 28641 C 3762.58 6.8802 -0.712559 0
M  V30 28642 O 3763.38 6.1189 0.194655 0
M  V30 28643 C 3761.25 7.27966 -0.139777 0
M  V30 28644 H 3761.28 7.25354 0.961601 0
M  V30 28645 H 3762.46 6.32557 -1.65702 0
M  V30 28646 H 3763.94 8.19355 -1.79097 0
M  V30 28647 H 3762.25 10.1294 -1.10029 0
M  V30 28648 H 3762.06 9.64276 -3.41316 0
M  V30 28649 H 3760.43 9.25417 -2.76357 0
M  V30 28650 H 3763.07 6.25267 1.07847 0
M  V30 28651 P 3764.93 8.791 -1.5591e-10 0
M  V30 28652 O 3766.35 9.31096 0.027933 0
M  V30 28653 O 3764.57 7.77869 -1.04071 0
M  V30 28654 O 3764.6 8.09533 1.41463 0
M  V30 28655 C 3764.44 9.0349 2.53943 0
M  V30 28656 C 3764.98 8.35226 3.79016 0
M  V30 28657 O 3763.93 7.57992 4.15078 0
M  V30 28658 C 3766.2 7.45087 3.67298 0
M  V30 28659 O 3766.94 7.27796 4.85194 0
M  V30 28660 C 3765.53 6.17323 3.12027 0
M  V30 28661 O 3766.33 5.04231 3.47188 0
M  V30 28662 C 3764.2 6.19961 3.81809 0
M  V30 28663 H 3764.23 5.58218 4.73051 0
M  V30 28664 H 3765.41 6.21726 2.02589 0
M  V30 28665 H 3766.9 7.86112 2.9231 0
M  V30 28666 H 3765.2 9.11627 4.55076 0
M  V30 28667 H 3765.01 9.9573 2.34194 0
M  V30 28668 H 3763.38 9.2792 2.67832 0
M  V30 28669 H 3766.02 4.67702 4.28772 0
M  V30 28670 P 3767.88 7.39546 4.75277 0
M  V30 28671 O 3769.3 7.81777 5.05738 0
M  V30 28672 O 3767.52 7.1065 3.32998 0
M  V30 28673 O 3767.55 6.04542 5.56673 0
M  V30 28674 C 3767.39 6.22772 7.02095 0
M  V30 28675 C 3767.93 4.97725 7.70406 0
M  V30 28676 O 3766.88 4.13256 7.58987 0
M  V30 28677 C 3769.15 4.28231 7.11815 0
M  V30 28678 O 3769.89 3.49945 8.01648 0
M  V30 28679 C 3768.48 3.5063 5.96244 0
M  V30 28680 O 3769.28 2.36482 5.64681 0
M  V30 28681 C 3767.15 3.15122 6.56374 0
M  V30 28682 H 3767.18 2.13853 6.99751 0
M  V30 28683 H 3768.36 4.13501 5.06559 0
M  V30 28684 H 3769.85 5.03285 6.70911 0
M  V30 28685 H 3768.15 5.20877 8.75697 0
M  V30 28686 H 3767.96 7.11046 7.35349 0
M  V30 28687 H 3766.33 6.35815 7.26986 0
M  V30 28688 H 3768.97 1.61644 6.13565 0
M  V30 28689 P 3770.83 3.65191 7.99657 0
M  V30 28690 O 3772.25 3.84333 8.48297 0
M  V30 28691 O 3770.47 4.17805 6.64342 0
M  V30 28692 O 3770.51 2.07613 7.95143 0
M  V30 28693 C 3770.35 1.44328 9.27336 0
M  V30 28694 C 3770.89 0.0220012 9.17097 0
M  V30 28695 O 3769.83 -0.626867 8.61923 0
M  V30 28696 C 3772.1 -0.24586 8.30336 0
M  V30 28697 O 3772.84 -1.39011 8.63583 0
M  V30 28698 C 3771.44 -0.273849 6.91158 0
M  V30 28699 O 3772.23 -1.06331 6.02794 0
M  V30 28700 C 3770.1 -0.897649 7.22545 0
M  V30 28701 N 3769.05 -0.292839 6.41732 0
M  V30 28702 C 3769.12 1.00068 6.10757 0
M  V30 28703 N 3768.07 1.36468 5.35794 0
M  V30 28704 C 3767.34 0.258894 5.2366 0
M  V30 28705 C 3766.03 0.0670682 4.65752 0
M  V30 28706 O 3765.3 0.902443 4.10497 0
M  V30 28707 N 3765.6 -1.2131 4.75881 0
M  V30 28708 C 3766.35 -2.24934 5.37101 0
M  V30 28709 N 3765.75 -3.48783 5.33984 0
M  V30 28710 N 3767.5 -2.0844 5.95684 0
M  V30 28711 C 3767.96 -0.81395 5.87791 0
M  V30 28712 H 3770.13 -1.9841 7.04286 0
M  V30 28713 H 3771.31 0.739815 6.49601 0
M  V30 28714 H 3772.8 0.598315 8.36563 0
M  V30 28715 H 3771.1 -0.352479 10.1829 0
M  V30 28716 H 3770.91 2.00611 10.0304 0
M  V30 28717 H 3769.28 1.41843 9.55327 0
M  V30 28718 H 3764.71 -1.44434 4.37895 0
M  V30 28719 H 3769.91 1.67697 6.42268 0
M  V30 28720 H 3764.84 -3.60543 4.87699 0
M  V30 28721 H 3766.22 -4.29232 5.7819 0
M  V30 28722 H 3771.92 -1.95704 6.0346 0
M  V30 28723 P 3773.78 -1.25109 8.70152 0
M  V30 28724 O 3775.2 -1.35274 9.21221 0
M  V30 28725 O 3773.42 -0.0769065 7.84762 0
M  V30 28726 O 3773.46 -2.55232 7.81161 0
M  V30 28727 C 3773.3 -3.79939 8.58154 0
M  V30 28728 C 3773.84 -4.94023 7.72785 0
M  V30 28729 O 3772.78 -5.18726 6.91205 0
M  V30 28730 C 3775.05 -4.69597 6.85231 0
M  V30 28731 O 3775.79 -5.83832 6.51337 0
M  V30 28732 C 3774.39 -3.96706 5.66633 0
M  V30 28733 O 3775.18 -4.15414 4.49689 0
M  V30 28734 C 3773.05 -4.66153 5.59313 0
M  V30 28735 H 3773.08 -5.47679 4.85214 0
M  V30 28736 H 3774.26 -2.89008 5.86566 0
M  V30 28737 H 3775.75 -4.0121 7.36511 0
M  V30 28738 H 3774.05 -5.80182 8.37584 0
M  V30 28739 H 3773.86 -3.73517 9.52265 0
M  V30 28740 H 3772.23 -3.97163 8.80359 0
M  V30 28741 H 3774.87 -4.90969 4.01921 0
M  V30 28742 P 3776.73 -5.75688 6.64379 0
M  V30 28743 O 3778.15 -6.11849 7.01846 0
M  V30 28744 O 3776.37 -4.30744 6.56026 0
M  V30 28745 O 3776.41 -6.37042 5.19165 0
M  V30 28746 C 3776.25 -7.83578 5.16515 0
M  V30 28747 C 3776.79 -8.33398 3.83019 0
M  V30 28748 O 3775.73 -8.10074 3.01034 0
M  V30 28749 C 3778 -7.65514 3.2257 0
M  V30 28750 O 3778.74 -8.4329 2.32297 0
M  V30 28751 C 3777.34 -6.40075 2.62207 0
M  V30 28752 O 3778.13 -5.92589 1.53712 0
M  V30 28753 C 3776 -6.9454 2.18503 0
M  V30 28754 H 3776.03 -7.23063 1.12091 0
M  V30 28755 H 3777.21 -5.6025 3.37201 0
M  V30 28756 H 3778.7 -7.35707 4.02681 0
M  V30 28757 H 3777 -9.40912 3.9095 0
M  V30 28758 H 3776.81 -8.29056 5.99158 0
M  V30 28759 H 3775.18 -8.10073 5.25882 0
M  V30 28760 H 3777.82 -6.30324 0.726794 0
M  V30 28761 P 3779.68 -8.4349 2.47671 0
M  V30 28762 O 3781.1 -8.94263 2.59668 0
M  V30 28763 O 3779.32 -7.1704 3.19006 0
M  V30 28764 O 3779.36 -8.16596 0.923387 0
M  V30 28765 C 3779.2 -9.38537 0.108869 0
M  V30 28766 C 3779.74 -9.08175 -1.28353 0
M  V30 28767 O 3778.68 -8.44131 -1.84692 0
M  V30 28768 C 3780.96 -8.18386 -1.42505 0
M  V30 28769 O 3781.69 -8.3501 -2.60497 0
M  V30 28770 C 3780.29 -6.80225 -1.25468 0
M  V30 28771 O 3781.09 -5.81716 -1.90454 0
M  V30 28772 C 3778.95 -7.02416 -1.9168 0
M  V30 28773 N 3777.91 -6.31033 -1.20314 0
M  V30 28774 C 3778.08 -5.98817 0.0994088 0
M  V30 28775 N 3777.05 -5.35403 0.621694 0
M  V30 28776 C 3776.16 -5.25212 -0.43376 0
M  V30 28777 C 3774.9 -4.64602 -0.519722 0
M  V30 28778 N 3774.33 -4.7568 -1.76013 0
M  V30 28779 C 3774.93 -5.3653 -2.83017 0
M  V30 28780 N 3776.11 -5.93676 -2.79782 0
M  V30 28781 C 3776.69 -5.84061 -1.56249 0
M  V30 28782 H 3780.16 -6.53498 -0.198729 0
M  V30 28783 H 3781.65 -8.36622 -0.589963 0
M  V30 28784 H 3779.95 -10.0273 -1.8081 0
M  V30 28785 H 3779.76 -10.2138 0.558219 0
M  V30 28786 H 3778.13 -9.6579 0.0444202 0
M  V30 28787 H 3778.98 -6.23209 0.660562 0
M  V30 28788 H 3780.77 -5.69466 -2.79593 0
M  V30 28789 P 3782.63 -8.4349 -2.47671 0
M  V30 28790 O 3784.05 -8.92593 -2.65 0
M  V30 28791 O 3782.27 -7.7568 -1.19296 0
M  V30 28792 O 3782.31 -7.36886 -3.63805 0
M  V30 28793 C 3782.15 -7.95349 -4.982 0
M  V30 28794 C 3782.69 -6.94612 -5.98974 0
M  V30 28795 O 3781.63 -6.10347 -6.11815 0
M  V30 28796 C 3783.91 -6.11426 -5.62335 0
M  V30 28797 O 3784.64 -5.6162 -6.70584 0
M  V30 28798 C 3783.24 -5.04409 -4.73308 0
M  V30 28799 O 3784.04 -3.85992 -4.75183 0
M  V30 28800 C 3781.9 -4.8728 -5.41006 0
M  V30 28801 H 3781.93 -4.02333 -6.11157 0
M  V30 28802 H 3783.11 -5.39466 -3.69543 0
M  V30 28803 H 3784.6 -6.71916 -5.01943 0
M  V30 28804 H 3782.9 -7.4649 -6.93477 0
M  V30 28805 H 3782.71 -8.89416 -5.05237 0
M  V30 28806 H 3781.08 -8.14876 -5.18409 0
M  V30 28807 H 3783.72 -3.27957 -5.4317 0
M  V30 28808 P 3785.58 -5.75688 -6.64379 0
M  V30 28809 O 3787 -6.07627 -7.05504 0
M  V30 28810 O 3785.22 -5.88047 -5.19722 0
M  V30 28811 O 3785.26 -4.2322 -7.04443 0
M  V30 28812 C 3785.1 -3.99743 -8.4911 0
M  V30 28813 C 3785.64 -2.60516 -8.79425 0
M  V30 28814 O 3784.58 -1.82684 -8.4467 0
M  V30 28815 C 3786.86 -2.10343 -8.03628 0
M  V30 28816 O 3787.59 -1.09919 -8.67766 0
M  V30 28817 C 3786.19 -1.68446 -6.70876 0
M  V30 28818 O 3786.99 -0.678137 -6.08433 0
M  V30 28819 C 3784.85 -1.17436 -7.18567 0
M  V30 28820 H 3784.88 -0.0804732 -7.31656 0
M  V30 28821 H 3786.07 -2.54037 -6.02537 0
M  V30 28822 H 3787.55 -2.93881 -7.85526 0
M  V30 28823 H 3785.86 -2.53065 -9.86973 0
M  V30 28824 H 3785.67 -4.75072 -9.05887 0
M  V30 28825 H 3784.04 -4.05244 -8.76668 0
M  V30 28826 H 3786.67 0.177647 -6.34251 0
M  V30 28827 P 3788.53 -1.25109 -8.70152 0
M  V30 28828 O 3789.95 -1.29744 -9.22016 0
M  V30 28829 O 3788.17 -2.13714 -7.55141 0
M  V30 28830 O 3788.21 0.248149 -8.21425 0
M  V30 28831 C 3788.05 1.22779 -9.30434 0
M  V30 28832 C 3788.59 2.56293 -8.80664 0
M  V30 28833 O 3787.53 3.02979 -8.09349 0
M  V30 28834 C 3789.81 2.57523 -7.89775 0
M  V30 28835 O 3790.54 3.7668 -7.89438 0
M  V30 28836 C 3789.14 2.20997 -6.55446 0
M  V30 28837 O 3789.94 2.71895 -5.48509 0
M  V30 28838 C 3787.8 2.89693 -6.67988 0
M  V30 28839 H 3787.83 3.88793 -6.19859 0
M  V30 28840 H 3789.02 1.12046 -6.44229 0
M  V30 28841 H 3790.5 1.7746 -8.19711 0
M  V30 28842 H 3788.81 3.20706 -9.67112 0
M  V30 28843 H 3788.62 0.901032 -10.1892 0
M  V30 28844 H 3786.99 1.33049 -9.56592 0
M  V30 28845 H 3789.62 3.57847 -5.23962 0
M  V30 28846 P 3791.48 3.65191 -7.99657 0
M  V30 28847 O 3792.9 3.89332 -8.45794 0
M  V30 28848 O 3791.12 2.28472 -7.50807 0
M  V30 28849 O 3791.16 4.64972 -6.77611 0
M  V30 28850 C 3791 6.06319 -7.16352 0
M  V30 28851 C 3791.54 6.91731 -6.02299 0
M  V30 28852 O 3790.48 6.92449 -5.17064 0
M  V30 28853 C 3792.76 6.43627 -5.25174 0
M  V30 28854 O 3793.5 7.43686 -4.60469 0
M  V30 28855 C 3792.09 5.40275 -4.31916 0
M  V30 28856 O 3792.89 5.25279 -3.14438 0
M  V30 28857 C 3790.75 6.04847 -4.05327 0
M  V30 28858 H 3790.78 6.62195 -3.11261 0
M  V30 28859 H 3791.97 4.42556 -4.81383 0
M  V30 28860 H 3793.45 5.92458 -5.93643 0
M  V30 28861 H 3791.76 7.92655 -6.402 0
M  V30 28862 H 3791.57 6.26671 -8.0846 0
M  V30 28863 H 3789.94 6.29101 -7.32804 0
M  V30 28864 H 3792.58 5.84315 -2.47318 0
M  V30 28865 P 3794.43 7.39546 -4.75277 0
M  V30 28866 O 3795.86 7.84798 -5.01039 0
M  V30 28867 O 3794.07 5.9812 -5.08098 0
M  V30 28868 O 3794.11 7.57503 -3.1866 0
M  V30 28869 C 3793.95 8.97357 -2.74833 0
M  V30 28870 C 3794.49 9.07548 -1.32709 0
M  V30 28871 O 3793.43 8.62072 -0.606159 0
M  V30 28872 C 3795.71 8.25383 -0.938334 0
M  V30 28873 O 3796.45 8.74577 0.146954 0
M  V30 28874 C 3795.04 6.8802 -0.712559 0
M  V30 28875 O 3795.84 6.1189 0.194655 0
M  V30 28876 C 3793.7 7.27966 -0.139777 0
M  V30 28877 H 3793.73 7.25354 0.961601 0
M  V30 28878 H 3794.92 6.32557 -1.65702 0
M  V30 28879 H 3796.4 8.19355 -1.79097 0
M  V30 28880 H 3794.71 10.1294 -1.10029 0
M  V30 28881 H 3794.52 9.64276 -3.41316 0
M  V30 28882 H 3792.89 9.25417 -2.76357 0
M  V30 28883 H 3795.53 6.25267 1.07847 0
M  V30 28884 P 3797.38 8.791 -1.61096e-10 0
M  V30 28885 O 3798.81 9.31096 0.027933 0
M  V30 28886 O 3797.02 7.77869 -1.04071 0
M  V30 28887 O 3797.06 8.09533 1.41463 0
M  V30 28888 C 3796.9 9.0349 2.53943 0
M  V30 28889 C 3797.44 8.35226 3.79016 0
M  V30 28890 O 3796.38 7.57992 4.15078 0
M  V30 28891 C 3798.66 7.45087 3.67298 0
M  V30 28892 O 3799.4 7.27796 4.85194 0
M  V30 28893 C 3797.99 6.17323 3.12027 0
M  V30 28894 O 3798.79 5.04231 3.47188 0
M  V30 28895 C 3796.65 6.19961 3.81809 0
M  V30 28896 H 3796.68 5.58218 4.73051 0
M  V30 28897 H 3797.87 6.21726 2.02589 0
M  V30 28898 H 3799.35 7.86112 2.9231 0
M  V30 28899 H 3797.66 9.11627 4.55076 0
M  V30 28900 H 3797.47 9.9573 2.34194 0
M  V30 28901 H 3795.84 9.2792 2.67832 0
M  V30 28902 H 3798.48 4.67702 4.28772 0
M  V30 28903 P 3800.33 7.39546 4.75277 0
M  V30 28904 O 3801.76 7.81777 5.05738 0
M  V30 28905 O 3799.97 7.1065 3.32998 0
M  V30 28906 O 3800.01 6.04542 5.56673 0
M  V30 28907 C 3799.85 6.22772 7.02095 0
M  V30 28908 C 3800.39 4.97725 7.70406 0
M  V30 28909 O 3799.34 4.13256 7.58987 0
M  V30 28910 C 3801.61 4.28231 7.11815 0
M  V30 28911 O 3802.35 3.49945 8.01648 0
M  V30 28912 C 3800.94 3.5063 5.96244 0
M  V30 28913 O 3801.74 2.36482 5.64681 0
M  V30 28914 C 3799.6 3.15122 6.56374 0
M  V30 28915 H 3799.64 2.13853 6.99751 0
M  V30 28916 H 3800.82 4.13501 5.06559 0
M  V30 28917 H 3802.3 5.03285 6.70911 0
M  V30 28918 H 3800.61 5.20877 8.75697 0
M  V30 28919 H 3800.42 7.11046 7.35349 0
M  V30 28920 H 3798.79 6.35815 7.26986 0
M  V30 28921 H 3801.43 1.61644 6.13565 0
M  V30 28922 P 3803.28 3.65191 7.99657 0
M  V30 28923 O 3804.71 3.8425 8.48115 0
M  V30 28924 O 3802.92 4.17805 6.64342 0
M  V30 28925 O 3802.96 2.07613 7.95143 0
M  V30 28926 C 3802.8 1.44328 9.27336 0
M  V30 28927 C 3803.34 0.0220036 9.17197 0
M  V30 28928 O 3802.29 -0.626867 8.61923 0
M  V30 28929 C 3804.56 -0.24586 8.30336 0
M  V30 28930 O 3805.3 -1.39011 8.63583 0
M  V30 28931 C 3803.89 -0.273849 6.91158 0
M  V30 28932 O 3804.69 -1.06348 6.02892 0
M  V30 28933 C 3802.55 -0.897649 7.22545 0
M  V30 28934 H 3802.59 -1.9841 7.04286 0
M  V30 28935 H 3803.77 0.739928 6.497 0
M  V30 28936 H 3805.25 0.60668 8.36503 0
M  V30 28937 H 3803.56 -0.352479 10.1829 0
M  V30 28938 H 3803.37 2.00611 10.0304 0
M  V30 28939 H 3801.74 1.41843 9.55327 0
M  V30 28940 H 3804.38 -1.95734 6.03555 0
M  V30 28941 P 3806.24 -1.25109 8.70152 0
M  V30 28942 O 3807.66 -1.35274 9.21221 0
M  V30 28943 O 3805.88 -0.0769065 7.84762 0
M  V30 28944 O 3805.91 -2.55232 7.81161 0
M  V30 28945 C 3805.75 -3.79939 8.58154 0
M  V30 28946 C 3806.29 -4.94023 7.72785 0
M  V30 28947 O 3805.24 -5.18726 6.91205 0
M  V30 28948 C 3807.51 -4.69597 6.85231 0
M  V30 28949 O 3808.25 -5.83832 6.51337 0
M  V30 28950 C 3806.84 -3.96706 5.66633 0
M  V30 28951 O 3807.64 -4.15414 4.49689 0
M  V30 28952 C 3805.5 -4.66153 5.59313 0
M  V30 28953 H 3805.54 -5.47679 4.85214 0
M  V30 28954 H 3806.72 -2.89008 5.86566 0
M  V30 28955 H 3808.2 -4.0121 7.36511 0
M  V30 28956 H 3806.51 -5.80182 8.37584 0
M  V30 28957 H 3806.32 -3.73517 9.52265 0
M  V30 28958 H 3804.69 -3.97163 8.80359 0
M  V30 28959 H 3807.33 -4.90969 4.01921 0
M  V30 28960 P 3809.19 -5.75688 6.64379 0
M  V30 28961 O 3810.61 -6.11849 7.01846 0
M  V30 28962 O 3808.83 -4.30744 6.56026 0
M  V30 28963 O 3808.86 -6.37042 5.19165 0
M  V30 28964 C 3808.7 -7.83578 5.16515 0
M  V30 28965 C 3809.24 -8.33398 3.83019 0
M  V30 28966 O 3808.19 -8.10074 3.01034 0
M  V30 28967 C 3810.46 -7.65514 3.2257 0
M  V30 28968 O 3811.2 -8.4329 2.32297 0
M  V30 28969 C 3809.79 -6.40075 2.62207 0
M  V30 28970 O 3810.59 -5.92589 1.53712 0
M  V30 28971 C 3808.45 -6.9454 2.18503 0
M  V30 28972 H 3808.49 -7.23063 1.12091 0
M  V30 28973 H 3809.67 -5.6025 3.37201 0
M  V30 28974 H 3811.15 -7.35707 4.02681 0
M  V30 28975 H 3809.46 -9.40912 3.9095 0
M  V30 28976 H 3809.27 -8.29056 5.99158 0
M  V30 28977 H 3807.64 -8.10073 5.25882 0
M  V30 28978 H 3810.28 -6.30324 0.726794 0
M  V30 28979 P 3812.14 -8.4349 2.47671 0
M  V30 28980 O 3813.56 -8.94167 2.5964 0
M  V30 28981 O 3811.78 -7.1704 3.19006 0
M  V30 28982 O 3811.81 -8.16596 0.923387 0
M  V30 28983 C 3811.65 -9.38437 0.108857 0
M  V30 28984 C 3812.19 -9.08175 -1.28353 0
M  V30 28985 O 3811.14 -8.44229 -1.84713 0
M  V30 28986 C 3813.41 -8.18386 -1.42505 0
M  V30 28987 O 3814.15 -8.3501 -2.60497 0
M  V30 28988 C 3812.74 -6.80225 -1.25468 0
M  V30 28989 O 3813.54 -5.81621 -1.91066 0
M  V30 28990 C 3811.41 -7.02416 -1.9168 0
M  V30 28991 H 3811.44 -6.6888 -2.96621 0
M  V30 28992 H 3812.62 -6.53617 -0.192223 0
M  V30 28993 H 3814.1 -8.36622 -0.589963 0
M  V30 28994 H 3812.41 -10.0291 -1.79807 0
M  V30 28995 H 3812.22 -10.2138 0.558219 0
M  V30 28996 H 3810.59 -9.6579 0.0444202 0
M  V30 28997 H 3813.23 -5.69556 -2.79637 0
M  V30 28998 P 3815.09 -8.4349 -2.47671 0
M  V30 28999 O 3816.51 -8.92593 -2.65 0
M  V30 29000 O 3814.73 -7.7568 -1.19296 0
M  V30 29001 O 3814.76 -7.36886 -3.63805 0
M  V30 29002 C 3814.6 -7.95349 -4.982 0
M  V30 29003 C 3815.14 -6.94612 -5.98974 0
M  V30 29004 O 3814.09 -6.10347 -6.11815 0
M  V30 29005 C 3816.36 -6.11426 -5.62335 0
M  V30 29006 O 3817.1 -5.6162 -6.70584 0
M  V30 29007 C 3815.69 -5.04409 -4.73308 0
M  V30 29008 O 3816.49 -3.85992 -4.75183 0
M  V30 29009 C 3814.36 -4.8728 -5.41006 0
M  V30 29010 H 3814.39 -4.02333 -6.11157 0
M  V30 29011 H 3815.57 -5.39466 -3.69543 0
M  V30 29012 H 3817.06 -6.71916 -5.01943 0
M  V30 29013 H 3815.36 -7.4649 -6.93477 0
M  V30 29014 H 3815.17 -8.89416 -5.05237 0
M  V30 29015 H 3813.54 -8.14876 -5.18409 0
M  V30 29016 H 3816.18 -3.27957 -5.4317 0
M  V30 29017 P 3818.04 -5.75688 -6.64379 0
M  V30 29018 O 3819.46 -6.07627 -7.05504 0
M  V30 29019 O 3817.68 -5.88047 -5.19722 0
M  V30 29020 O 3817.71 -4.2322 -7.04443 0
M  V30 29021 C 3817.55 -3.99743 -8.4911 0
M  V30 29022 C 3818.09 -2.60516 -8.79425 0
M  V30 29023 O 3817.04 -1.82684 -8.4467 0
M  V30 29024 C 3819.31 -2.10343 -8.03628 0
M  V30 29025 O 3820.05 -1.09919 -8.67766 0
M  V30 29026 C 3818.64 -1.68446 -6.70876 0
M  V30 29027 O 3819.44 -0.678137 -6.08433 0
M  V30 29028 C 3817.31 -1.17436 -7.18567 0
M  V30 29029 H 3817.34 -0.0804732 -7.31656 0
M  V30 29030 H 3818.52 -2.54037 -6.02537 0
M  V30 29031 H 3820.01 -2.93881 -7.85526 0
M  V30 29032 H 3818.31 -2.53065 -9.86973 0
M  V30 29033 H 3818.12 -4.75072 -9.05887 0
M  V30 29034 H 3816.49 -4.05244 -8.76668 0
M  V30 29035 H 3819.13 0.177647 -6.34251 0
M  V30 29036 P 3820.99 -1.25109 -8.70152 0
M  V30 29037 O 3822.41 -1.29744 -9.22016 0
M  V30 29038 O 3820.63 -2.13714 -7.55141 0
M  V30 29039 O 3820.67 0.248149 -8.21425 0
M  V30 29040 C 3820.51 1.22779 -9.30434 0
M  V30 29041 C 3821.05 2.56293 -8.80664 0
M  V30 29042 O 3819.99 3.02979 -8.09349 0
M  V30 29043 C 3822.26 2.57523 -7.89775 0
M  V30 29044 O 3823 3.7668 -7.89438 0
M  V30 29045 C 3821.59 2.20997 -6.55446 0
M  V30 29046 O 3822.39 2.71895 -5.48509 0
M  V30 29047 C 3820.26 2.89693 -6.67988 0
M  V30 29048 H 3820.29 3.88793 -6.19859 0
M  V30 29049 H 3821.47 1.12046 -6.44229 0
M  V30 29050 H 3822.96 1.7746 -8.19711 0
M  V30 29051 H 3821.26 3.20706 -9.67112 0
M  V30 29052 H 3821.07 0.901032 -10.1892 0
M  V30 29053 H 3819.44 1.33049 -9.56592 0
M  V30 29054 H 3822.08 3.57847 -5.23962 0
M  V30 29055 P 3823.94 3.65191 -7.99657 0
M  V30 29056 O 3825.36 3.89332 -8.45794 0
M  V30 29057 O 3823.58 2.28472 -7.50807 0
M  V30 29058 O 3823.62 4.64972 -6.77611 0
M  V30 29059 C 3823.46 6.06319 -7.16352 0
M  V30 29060 C 3824 6.91731 -6.02299 0
M  V30 29061 O 3822.94 6.92449 -5.17064 0
M  V30 29062 C 3825.21 6.43627 -5.25174 0
M  V30 29063 O 3825.95 7.43686 -4.60469 0
M  V30 29064 C 3824.54 5.40275 -4.31916 0
M  V30 29065 O 3825.34 5.25279 -3.14438 0
M  V30 29066 C 3823.21 6.04847 -4.05327 0
M  V30 29067 H 3823.24 6.62195 -3.11261 0
M  V30 29068 H 3824.42 4.42556 -4.81383 0
M  V30 29069 H 3825.91 5.92458 -5.93643 0
M  V30 29070 H 3824.21 7.92655 -6.402 0
M  V30 29071 H 3824.02 6.26671 -8.0846 0
M  V30 29072 H 3822.39 6.29101 -7.32804 0
M  V30 29073 H 3825.03 5.84315 -2.47318 0
M  V30 29074 P 3826.89 7.39546 -4.75277 0
M  V30 29075 O 3828.31 7.84966 -5.01146 0
M  V30 29076 O 3826.53 5.9812 -5.08098 0
M  V30 29077 O 3826.57 7.57503 -3.1866 0
M  V30 29078 C 3826.41 8.97357 -2.74833 0
M  V30 29079 C 3826.95 9.0745 -1.32694 0
M  V30 29080 O 3825.89 8.62072 -0.606159 0
M  V30 29081 C 3828.16 8.25383 -0.938334 0
M  V30 29082 O 3828.9 8.74577 0.146954 0
M  V30 29083 C 3827.5 6.8802 -0.712559 0
M  V30 29084 O 3828.29 6.11791 0.194623 0
M  V30 29085 C 3826.16 7.27966 -0.139777 0
M  V30 29086 N 3825.12 6.39368 -0.623421 0
M  V30 29087 C 3825.18 5.90299 -1.85969 0
M  V30 29088 N 3824.13 5.10919 -2.1133 0
M  V30 29089 C 3823.4 5.14646 -1.0015 0
M  V30 29090 C 3822.09 4.60057 -0.729219 0
M  V30 29091 O 3821.36 3.93476 -1.47746 0
M  V30 29092 N 3821.66 4.88302 0.523505 0
M  V30 29093 C 3822.41 5.63646 1.46207 0
M  V30 29094 N 3821.81 5.78186 2.69239 0
M  V30 29095 N 3823.56 6.19285 1.21544 0
M  V30 29096 C 3824.02 5.93392 -0.0308487 0
M  V30 29097 H 3826.19 7.25354 0.961601 0
M  V30 29098 H 3827.37 6.3246 -1.65676 0
M  V30 29099 H 3828.86 8.19533 -1.78278 0
M  V30 29100 H 3827.16 10.1294 -1.10029 0
M  V30 29101 H 3826.97 9.64276 -3.41316 0
M  V30 29102 H 3825.34 9.25417 -2.76357 0
M  V30 29103 H 3820.77 4.53993 0.806451 0
M  V30 29104 H 3825.97 6.11865 -2.57394 0
M  V30 29105 H 3820.9 5.34046 2.87467 0
M  V30 29106 H 3822.28 6.33391 3.42578 0
M  V30 29107 H 3827.98 6.25169 1.0783 0
M  V30 29108 P 3829.84 8.791 -1.66283e-10 0
M  V30 29109 O 3831.26 9.31096 0.027933 0
M  V30 29110 O 3829.48 7.77869 -1.04071 0
M  V30 29111 O 3829.52 8.09533 1.41463 0
M  V30 29112 C 3829.36 9.0349 2.53943 0
M  V30 29113 C 3829.9 8.35226 3.79016 0
M  V30 29114 O 3828.84 7.57992 4.15078 0
M  V30 29115 C 3831.11 7.45087 3.67298 0
M  V30 29116 O 3831.85 7.27796 4.85194 0
M  V30 29117 C 3830.45 6.17323 3.12027 0
M  V30 29118 O 3831.24 5.04231 3.47188 0
M  V30 29119 C 3829.11 6.19961 3.81809 0
M  V30 29120 H 3829.14 5.58218 4.73051 0
M  V30 29121 H 3830.32 6.21726 2.02589 0
M  V30 29122 H 3831.81 7.86112 2.9231 0
M  V30 29123 H 3830.11 9.11627 4.55076 0
M  V30 29124 H 3829.92 9.9573 2.34194 0
M  V30 29125 H 3828.29 9.2792 2.67832 0
M  V30 29126 H 3830.93 4.67702 4.28772 0
M  V30 29127 P 3832.79 7.39546 4.75277 0
M  V30 29128 O 3834.21 7.81777 5.05738 0
M  V30 29129 O 3832.43 7.1065 3.32998 0
M  V30 29130 O 3832.47 6.04542 5.56673 0
M  V30 29131 C 3832.31 6.22772 7.02095 0
M  V30 29132 C 3832.85 4.97725 7.70406 0
M  V30 29133 O 3831.79 4.13256 7.58987 0
M  V30 29134 C 3834.07 4.28231 7.11815 0
M  V30 29135 O 3834.8 3.49945 8.01648 0
M  V30 29136 C 3833.4 3.5063 5.96244 0
M  V30 29137 O 3834.2 2.36482 5.64681 0
M  V30 29138 C 3832.06 3.15122 6.56374 0
M  V30 29139 H 3832.09 2.13853 6.99751 0
M  V30 29140 H 3833.27 4.13501 5.06559 0
M  V30 29141 H 3834.76 5.03285 6.70911 0
M  V30 29142 H 3833.06 5.20877 8.75697 0
M  V30 29143 H 3832.87 7.11046 7.35349 0
M  V30 29144 H 3831.24 6.35815 7.26986 0
M  V30 29145 H 3833.88 1.61644 6.13565 0
M  V30 29146 P 3835.74 3.65191 7.99657 0
M  V30 29147 O 3837.16 3.8425 8.48115 0
M  V30 29148 O 3835.38 4.17805 6.64342 0
M  V30 29149 O 3835.42 2.07613 7.95143 0
M  V30 29150 C 3835.26 1.44328 9.27336 0
M  V30 29151 C 3835.8 0.0220036 9.17197 0
M  V30 29152 O 3834.74 -0.626867 8.61923 0
M  V30 29153 C 3837.02 -0.24586 8.30336 0
M  V30 29154 O 3837.75 -1.39011 8.63583 0
M  V30 29155 C 3836.35 -0.273849 6.91158 0
M  V30 29156 O 3837.15 -1.06348 6.02892 0
M  V30 29157 C 3835.01 -0.897649 7.22545 0
M  V30 29158 H 3835.04 -1.9841 7.04286 0
M  V30 29159 H 3836.22 0.739928 6.497 0
M  V30 29160 H 3837.71 0.60668 8.36503 0
M  V30 29161 H 3836.01 -0.352479 10.1829 0
M  V30 29162 H 3835.82 2.00611 10.0304 0
M  V30 29163 H 3834.19 1.41843 9.55327 0
M  V30 29164 H 3836.83 -1.95734 6.03555 0
M  V30 29165 P 3838.69 -1.25109 8.70152 0
M  V30 29166 O 3840.11 -1.35274 9.21221 0
M  V30 29167 O 3838.33 -0.0769065 7.84762 0
M  V30 29168 O 3838.37 -2.55232 7.81161 0
M  V30 29169 C 3838.21 -3.79939 8.58154 0
M  V30 29170 C 3838.75 -4.94023 7.72785 0
M  V30 29171 O 3837.69 -5.18726 6.91205 0
M  V30 29172 C 3839.97 -4.69597 6.85231 0
M  V30 29173 O 3840.7 -5.83832 6.51337 0
M  V30 29174 C 3839.3 -3.96706 5.66633 0
M  V30 29175 O 3840.1 -4.15414 4.49689 0
M  V30 29176 C 3837.96 -4.66153 5.59313 0
M  V30 29177 H 3837.99 -5.47679 4.85214 0
M  V30 29178 H 3839.18 -2.89008 5.86566 0
M  V30 29179 H 3840.66 -4.0121 7.36511 0
M  V30 29180 H 3838.97 -5.80182 8.37584 0
M  V30 29181 H 3838.78 -3.73517 9.52265 0
M  V30 29182 H 3837.15 -3.97163 8.80359 0
M  V30 29183 H 3839.78 -4.90969 4.01921 0
M  V30 29184 P 3841.64 -5.75688 6.64379 0
M  V30 29185 O 3843.04 -6.11991 7.09136 0
M  V30 29186 O 3841.26 -4.30899 6.62018 0
M  V30 29187 O 3841.32 -6.36965 5.19102 0
M  V30 29188 C 3841.16 -7.83578 5.16515 0
M  V30 29189 C 3841.7 -8.33307 3.82977 0
M  V30 29190 O 3840.64 -8.0998 3.00999 0
M  V30 29191 C 3842.92 -7.65514 3.2257 0
M  V30 29192 O 3843.66 -8.4329 2.32297 0
M  V30 29193 C 3842.25 -6.40075 2.62207 0
M  V30 29194 O 3843.05 -5.92492 1.53687 0
M  V30 29195 C 3840.91 -6.9454 2.18503 0
M  V30 29196 N 3839.87 -5.95905 2.39948 0
M  V30 29197 C 3838.83 -5.89764 1.49837 0
M  V30 29198 O 3838.87 -6.64088 0.490975 0
M  V30 29199 N 3837.82 -5.02821 1.70992 0
M  V30 29200 C 3837.87 -4.21498 2.77236 0
M  V30 29201 C 3838.97 -4.23389 3.68205 0
M  V30 29202 C 3839.93 -5.12792 3.46171 0
M  V30 29203 H 3840.94 -7.22964 1.12076 0
M  V30 29204 H 3842.13 -5.60502 3.36589 0
M  V30 29205 H 3843.61 -7.36197 4.01993 0
M  V30 29206 H 3841.92 -9.41302 3.90009 0
M  V30 29207 H 3841.73 -8.29056 5.99158 0
M  V30 29208 H 3840.1 -8.09989 5.25828 0
M  V30 29209 H 3839.01 -3.54747 4.52399 0
M  V30 29210 H 3840.78 -5.18551 4.1489 0
M  V30 29211 H 3842.83 -6.40705 0.751752 0
M  V30 29212 P 3844.59 -8.4349 2.47671 0
M  V30 29213 O 3846.01 -8.94167 2.5964 0
M  V30 29214 O 3844.23 -7.1704 3.19006 0
M  V30 29215 O 3844.27 -8.16596 0.923387 0
M  V30 29216 C 3844.11 -9.38437 0.108857 0
M  V30 29217 C 3844.65 -9.08175 -1.28353 0
M  V30 29218 O 3843.59 -8.44229 -1.84713 0
M  V30 29219 C 3845.87 -8.18386 -1.42505 0
M  V30 29220 O 3846.61 -8.3501 -2.60497 0
M  V30 29221 C 3845.2 -6.80225 -1.25468 0
M  V30 29222 O 3846 -5.81621 -1.91066 0
M  V30 29223 C 3843.86 -7.02416 -1.9168 0
M  V30 29224 H 3843.89 -6.6888 -2.96621 0
M  V30 29225 H 3845.08 -6.53617 -0.192223 0
M  V30 29226 H 3846.56 -8.36622 -0.589963 0
M  V30 29227 H 3844.87 -10.0291 -1.79807 0
M  V30 29228 H 3844.68 -10.2138 0.558219 0
M  V30 29229 H 3843.05 -9.6579 0.0444202 0
M  V30 29230 H 3845.69 -5.69556 -2.79637 0
M  V30 29231 P 3847.54 -8.4349 -2.47671 0
M  V30 29232 O 3848.97 -8.92593 -2.65 0
M  V30 29233 O 3847.18 -7.7568 -1.19296 0
M  V30 29234 O 3847.22 -7.36886 -3.63805 0
M  V30 29235 C 3847.06 -7.95349 -4.982 0
M  V30 29236 C 3847.6 -6.94612 -5.98974 0
M  V30 29237 O 3846.54 -6.10347 -6.11815 0
M  V30 29238 C 3848.82 -6.11426 -5.62335 0
M  V30 29239 O 3849.56 -5.6162 -6.70584 0
M  V30 29240 C 3848.15 -5.04409 -4.73308 0
M  V30 29241 O 3848.95 -3.85992 -4.75183 0
M  V30 29242 C 3846.81 -4.8728 -5.41006 0
M  V30 29243 H 3846.84 -4.02333 -6.11157 0
M  V30 29244 H 3848.03 -5.39466 -3.69543 0
M  V30 29245 H 3849.51 -6.71916 -5.01943 0
M  V30 29246 H 3847.82 -7.4649 -6.93477 0
M  V30 29247 H 3847.63 -8.89416 -5.05237 0
M  V30 29248 H 3846 -8.14876 -5.18409 0
M  V30 29249 H 3848.64 -3.27957 -5.4317 0
M  V30 29250 P 3850.49 -5.75688 -6.64379 0
M  V30 29251 O 3851.92 -6.07627 -7.05504 0
M  V30 29252 O 3850.13 -5.88047 -5.19722 0
M  V30 29253 O 3850.17 -4.2322 -7.04443 0
M  V30 29254 C 3850.01 -3.99743 -8.4911 0
M  V30 29255 C 3850.55 -2.60516 -8.79425 0
M  V30 29256 O 3849.49 -1.82684 -8.4467 0
M  V30 29257 C 3851.77 -2.10343 -8.03628 0
M  V30 29258 O 3852.51 -1.09919 -8.67766 0
M  V30 29259 C 3851.1 -1.68446 -6.70876 0
M  V30 29260 O 3851.9 -0.678137 -6.08433 0
M  V30 29261 C 3849.76 -1.17436 -7.18567 0
M  V30 29262 H 3849.79 -0.0804732 -7.31656 0
M  V30 29263 H 3850.98 -2.54037 -6.02537 0
M  V30 29264 H 3852.46 -2.93881 -7.85526 0
M  V30 29265 H 3850.77 -2.53065 -9.86973 0
M  V30 29266 H 3850.58 -4.75072 -9.05887 0
M  V30 29267 H 3848.95 -4.05244 -8.76668 0
M  V30 29268 H 3851.59 0.177647 -6.34251 0
M  V30 29269 P 3853.44 -1.25109 -8.70152 0
M  V30 29270 O 3854.87 -1.29744 -9.22016 0
M  V30 29271 O 3853.08 -2.13714 -7.55141 0
M  V30 29272 O 3853.12 0.248149 -8.21425 0
M  V30 29273 C 3852.96 1.22779 -9.30434 0
M  V30 29274 C 3853.5 2.56293 -8.80664 0
M  V30 29275 O 3852.45 3.02979 -8.09349 0
M  V30 29276 C 3854.72 2.57523 -7.89775 0
M  V30 29277 O 3855.46 3.7668 -7.89438 0
M  V30 29278 C 3854.05 2.20997 -6.55446 0
M  V30 29279 O 3854.85 2.71895 -5.48509 0
M  V30 29280 C 3852.71 2.89693 -6.67988 0
M  V30 29281 H 3852.75 3.88793 -6.19859 0
M  V30 29282 H 3853.93 1.12046 -6.44229 0
M  V30 29283 H 3855.41 1.7746 -8.19711 0
M  V30 29284 H 3853.72 3.20706 -9.67112 0
M  V30 29285 H 3853.53 0.901032 -10.1892 0
M  V30 29286 H 3851.9 1.33049 -9.56592 0
M  V30 29287 H 3854.54 3.57847 -5.23962 0
M  V30 29288 P 3856.39 3.65191 -7.99657 0
M  V30 29289 O 3857.82 3.89332 -8.45794 0
M  V30 29290 O 3856.03 2.28472 -7.50807 0
M  V30 29291 O 3856.07 4.64972 -6.77611 0
M  V30 29292 C 3855.91 6.06319 -7.16352 0
M  V30 29293 C 3856.45 6.91731 -6.02299 0
M  V30 29294 O 3855.4 6.92449 -5.17064 0
M  V30 29295 C 3857.67 6.43627 -5.25174 0
M  V30 29296 O 3858.41 7.43686 -4.60469 0
M  V30 29297 C 3857 5.40275 -4.31916 0
M  V30 29298 O 3857.8 5.25279 -3.14438 0
M  V30 29299 C 3855.66 6.04847 -4.05327 0
M  V30 29300 H 3855.7 6.62195 -3.11261 0
M  V30 29301 H 3856.88 4.42556 -4.81383 0
M  V30 29302 H 3858.36 5.92458 -5.93643 0
M  V30 29303 H 3856.67 7.92655 -6.402 0
M  V30 29304 H 3856.48 6.26671 -8.0846 0
M  V30 29305 H 3854.85 6.29101 -7.32804 0
M  V30 29306 H 3857.49 5.84315 -2.47318 0
M  V30 29307 P 3859.35 7.39546 -4.75277 0
M  V30 29308 O 3860.77 7.84882 -5.01092 0
M  V30 29309 O 3858.99 5.9812 -5.08098 0
M  V30 29310 O 3859.02 7.57503 -3.1866 0
M  V30 29311 C 3858.86 8.97452 -2.74862 0
M  V30 29312 C 3859.4 9.07548 -1.32709 0
M  V30 29313 O 3858.35 8.61972 -0.606089 0
M  V30 29314 C 3860.62 8.25383 -0.938334 0
M  V30 29315 O 3861.36 8.74577 0.146954 0
M  V30 29316 C 3859.95 6.8802 -0.712559 0
M  V30 29317 O 3860.75 6.1181 0.188505 0
M  V30 29318 C 3858.61 7.27966 -0.139777 0
M  V30 29319 N 3857.57 6.39368 -0.623421 0
M  V30 29320 C 3857.74 5.71761 -1.78245 0
M  V30 29321 N 3856.71 4.962 -2.10491 0
M  V30 29322 C 3855.83 5.16158 -1.0635 0
M  V30 29323 C 3854.56 4.60425 -0.810266 0
M  V30 29324 N 3853.96 3.7057 -1.62914 0
M  V30 29325 N 3854 5.06 0.348685 0
M  V30 29326 C 3854.6 5.94532 1.20395 0
M  V30 29327 N 3855.78 6.48452 1.01191 0
M  V30 29328 C 3856.35 6.04423 -0.146291 0
M  V30 29329 H 3858.65 7.25255 0.961469 0
M  V30 29330 H 3859.83 6.32625 -1.65044 0
M  V30 29331 H 3861.31 8.19355 -1.79097 0
M  V30 29332 H 3859.62 10.1305 -1.09016 0
M  V30 29333 H 3859.43 9.64276 -3.41316 0
M  V30 29334 H 3857.8 9.25417 -2.76357 0
M  V30 29335 H 3854.06 6.21659 2.10714 0
M  V30 29336 H 3858.64 5.79354 -2.38959 0
M  V30 29337 H 3853.03 3.33174 -1.38982 0
M  V30 29338 H 3854.44 3.39714 -2.48836 0
M  V30 29339 H 3860.44 6.25169 1.0783 0
M  V30 29340 P 3862.3 8.791 -1.7147e-10 0
M  V30 29341 O 3863.72 9.31196 0.027936 0
M  V30 29342 O 3861.94 7.77869 -1.04071 0
M  V30 29343 O 3861.97 8.09533 1.41463 0
M  V30 29344 C 3861.81 9.03587 2.5397 0
M  V30 29345 C 3862.35 8.35226 3.79016 0
M  V30 29346 O 3861.3 7.57904 4.1503 0
M  V30 29347 C 3863.57 7.45087 3.67298 0
M  V30 29348 O 3864.31 7.27796 4.85194 0
M  V30 29349 C 3862.9 6.17323 3.12027 0
M  V30 29350 O 3863.7 5.04496 3.46627 0
M  V30 29351 C 3861.57 6.19961 3.81809 0
M  V30 29352 N 3860.52 5.71575 2.93223 0
M  V30 29353 C 3860.69 5.77362 1.59168 0
M  V30 29354 N 3859.66 5.3123 0.911893 0
M  V30 29355 C 3858.78 4.91717 1.89588 0
M  V30 29356 C 3857.51 4.3114 1.8076 0
M  V30 29357 N 3856.95 4.06823 3.02898 0
M  V30 29358 C 3857.55 4.35062 4.22711 0
M  V30 29359 N 3858.73 4.90805 4.35707 0
M  V30 29360 C 3859.3 5.16382 3.14469 0
M  V30 29361 H 3862.78 6.21428 2.0318 0
M  V30 29362 H 3864.26 7.86112 2.9231 0
M  V30 29363 H 3862.57 9.11171 4.55987 0
M  V30 29364 H 3862.38 9.9573 2.34194 0
M  V30 29365 H 3860.75 9.2792 2.67832 0
M  V30 29366 H 3861.59 6.16575 1.12198 0
M  V30 29367 H 3863.39 4.67628 4.28704 0
M  V30 29368 P 3865.25 7.39546 4.75277 0
M  V30 29369 O 3866.67 7.81777 5.05738 0
M  V30 29370 O 3864.89 7.1065 3.32998 0
M  V30 29371 O 3864.92 6.04542 5.56673 0
M  V30 29372 C 3864.76 6.22772 7.02095 0
M  V30 29373 C 3865.3 4.97725 7.70406 0
M  V30 29374 O 3864.25 4.13256 7.58987 0
M  V30 29375 C 3866.52 4.28231 7.11815 0
M  V30 29376 O 3867.26 3.49945 8.01648 0
M  V30 29377 C 3865.85 3.5063 5.96244 0
M  V30 29378 O 3866.65 2.36482 5.64681 0
M  V30 29379 C 3864.52 3.15122 6.56374 0
M  V30 29380 H 3864.55 2.13853 6.99751 0
M  V30 29381 H 3865.73 4.13501 5.06559 0
M  V30 29382 H 3867.21 5.03285 6.70911 0
M  V30 29383 H 3865.52 5.20877 8.75697 0
M  V30 29384 H 3865.33 7.11046 7.35349 0
M  V30 29385 H 3863.7 6.35815 7.26986 0
M  V30 29386 H 3866.34 1.61644 6.13565 0
M  V30 29387 P 3868.2 3.65191 7.99657 0
M  V30 29388 O 3869.62 3.8425 8.48115 0
M  V30 29389 O 3867.84 4.17805 6.64342 0
M  V30 29390 O 3867.87 2.07613 7.95143 0
M  V30 29391 C 3867.71 1.44328 9.27336 0
M  V30 29392 C 3868.25 0.0220036 9.17197 0
M  V30 29393 O 3867.2 -0.626867 8.61923 0
M  V30 29394 C 3869.47 -0.24586 8.30336 0
M  V30 29395 O 3870.21 -1.39011 8.63583 0
M  V30 29396 C 3868.8 -0.273849 6.91158 0
M  V30 29397 O 3869.6 -1.06348 6.02892 0
M  V30 29398 C 3867.47 -0.897649 7.22545 0
M  V30 29399 H 3867.5 -1.9841 7.04286 0
M  V30 29400 H 3868.68 0.739928 6.497 0
M  V30 29401 H 3870.17 0.60668 8.36503 0
M  V30 29402 H 3868.47 -0.352479 10.1829 0
M  V30 29403 H 3868.28 2.00611 10.0304 0
M  V30 29404 H 3866.65 1.41843 9.55327 0
M  V30 29405 H 3869.29 -1.95734 6.03555 0
M  V30 29406 P 3871.15 -1.25109 8.70152 0
M  V30 29407 O 3872.57 -1.35274 9.21221 0
M  V30 29408 O 3870.79 -0.0769065 7.84762 0
M  V30 29409 O 3870.82 -2.55232 7.81161 0
M  V30 29410 C 3870.66 -3.79939 8.58154 0
M  V30 29411 C 3871.2 -4.94023 7.72785 0
M  V30 29412 O 3870.15 -5.18726 6.91205 0
M  V30 29413 C 3872.42 -4.69597 6.85231 0
M  V30 29414 O 3873.16 -5.83832 6.51337 0
M  V30 29415 C 3871.75 -3.96706 5.66633 0
M  V30 29416 O 3872.55 -4.15414 4.49689 0
M  V30 29417 C 3870.42 -4.66153 5.59313 0
M  V30 29418 H 3870.45 -5.47679 4.85214 0
M  V30 29419 H 3871.63 -2.89008 5.86566 0
M  V30 29420 H 3873.12 -4.0121 7.36511 0
M  V30 29421 H 3871.42 -5.80182 8.37584 0
M  V30 29422 H 3871.23 -3.73517 9.52265 0
M  V30 29423 H 3869.6 -3.97163 8.80359 0
M  V30 29424 H 3872.24 -4.90969 4.01921 0
M  V30 29425 P 3874.1 -5.75688 6.64379 0
M  V30 29426 O 3875.52 -6.11849 7.01846 0
M  V30 29427 O 3873.74 -4.30744 6.56026 0
M  V30 29428 O 3873.78 -6.37042 5.19165 0
M  V30 29429 C 3873.62 -7.83578 5.16515 0
M  V30 29430 C 3874.16 -8.33398 3.83019 0
M  V30 29431 O 3873.1 -8.10074 3.01034 0
M  V30 29432 C 3875.37 -7.65514 3.2257 0
M  V30 29433 O 3876.11 -8.4329 2.32297 0
M  V30 29434 C 3874.7 -6.40075 2.62207 0
M  V30 29435 O 3875.5 -5.92589 1.53712 0
M  V30 29436 C 3873.37 -6.9454 2.18503 0
M  V30 29437 H 3873.4 -7.23063 1.12091 0
M  V30 29438 H 3874.58 -5.6025 3.37201 0
M  V30 29439 H 3876.07 -7.35707 4.02681 0
M  V30 29440 H 3874.37 -9.40912 3.9095 0
M  V30 29441 H 3874.18 -8.29056 5.99158 0
M  V30 29442 H 3872.55 -8.10073 5.25882 0
M  V30 29443 H 3875.19 -6.30324 0.726794 0
M  V30 29444 P 3877.05 -8.4349 2.47671 0
M  V30 29445 O 3878.47 -8.94167 2.5964 0
M  V30 29446 O 3876.69 -7.1704 3.19006 0
M  V30 29447 O 3876.73 -8.16596 0.923387 0
M  V30 29448 C 3876.57 -9.38437 0.108857 0
M  V30 29449 C 3877.11 -9.08175 -1.28353 0
M  V30 29450 O 3876.05 -8.44229 -1.84713 0
M  V30 29451 C 3878.32 -8.18386 -1.42505 0
M  V30 29452 O 3879.06 -8.3501 -2.60497 0
M  V30 29453 C 3877.65 -6.80225 -1.25468 0
M  V30 29454 O 3878.45 -5.81621 -1.91066 0
M  V30 29455 C 3876.32 -7.02416 -1.9168 0
M  V30 29456 H 3876.35 -6.6888 -2.96621 0
M  V30 29457 H 3877.53 -6.53617 -0.192223 0
M  V30 29458 H 3879.02 -8.36622 -0.589963 0
M  V30 29459 H 3877.32 -10.0291 -1.79807 0
M  V30 29460 H 3877.13 -10.2138 0.558219 0
M  V30 29461 H 3875.5 -9.6579 0.0444202 0
M  V30 29462 H 3878.14 -5.69556 -2.79637 0
M  V30 29463 P 3880 -8.4349 -2.47671 0
M  V30 29464 O 3881.42 -8.92785 -2.65057 0
M  V30 29465 O 3879.64 -7.7568 -1.19296 0
M  V30 29466 O 3879.68 -7.36886 -3.63805 0
M  V30 29467 C 3879.52 -7.95349 -4.982 0
M  V30 29468 C 3880.06 -6.94537 -5.98908 0
M  V30 29469 O 3879 -6.10347 -6.11815 0
M  V30 29470 C 3881.27 -6.11426 -5.62335 0
M  V30 29471 O 3882.01 -5.6162 -6.70584 0
M  V30 29472 C 3880.61 -5.04409 -4.73308 0
M  V30 29473 O 3881.4 -3.85929 -4.75106 0
M  V30 29474 C 3879.27 -4.8728 -5.41006 0
M  V30 29475 N 3878.23 -4.65812 -4.42377 0
M  V30 29476 C 3878.29 -5.27109 -3.24335 0
M  V30 29477 N 3877.24 -4.94293 -2.47735 0
M  V30 29478 C 3876.51 -4.1271 -3.23359 0
M  V30 29479 C 3875.2 -3.56384 -2.99934 0
M  V30 29480 O 3874.47 -3.69331 -2.00616 0
M  V30 29481 N 3874.77 -2.80206 -4.03316 0
M  V30 29482 C 3875.52 -2.58614 -5.2172 0
M  V30 29483 N 3874.92 -1.75154 -6.13278 0
M  V30 29484 N 3876.67 -3.13689 -5.47619 0
M  V30 29485 C 3877.13 -3.90921 -4.46436 0
M  V30 29486 H 3879.3 -4.02333 -6.11157 0
M  V30 29487 H 3880.48 -5.39383 -3.69487 0
M  V30 29488 H 3881.97 -6.71414 -5.02615 0
M  V30 29489 H 3880.27 -7.4649 -6.93477 0
M  V30 29490 H 3880.08 -8.89416 -5.05237 0
M  V30 29491 H 3878.45 -8.14876 -5.18409 0
M  V30 29492 H 3873.88 -2.36355 -3.95916 0
M  V30 29493 H 3879.08 -5.95212 -2.93859 0
M  V30 29494 H 3874.01 -1.32473 -5.91856 0
M  V30 29495 H 3875.39 -1.5588 -7.03026 0
M  V30 29496 H 3881.09 -3.27906 -5.43085 0
M  V30 29497 P 3882.95 -5.75688 -6.64379 0
M  V30 29498 O 3884.37 -6.07627 -7.05504 0
M  V30 29499 O 3882.59 -5.88047 -5.19722 0
M  V30 29500 O 3882.63 -4.2322 -7.04443 0
M  V30 29501 C 3882.47 -3.99743 -8.4911 0
M  V30 29502 C 3883.01 -2.60516 -8.79425 0
M  V30 29503 O 3881.95 -1.82684 -8.4467 0
M  V30 29504 C 3884.23 -2.10343 -8.03628 0
M  V30 29505 O 3884.96 -1.09919 -8.67766 0
M  V30 29506 C 3883.56 -1.68446 -6.70876 0
M  V30 29507 O 3884.36 -0.678137 -6.08433 0
M  V30 29508 C 3882.22 -1.17436 -7.18567 0
M  V30 29509 H 3882.25 -0.0804732 -7.31656 0
M  V30 29510 H 3883.43 -2.54037 -6.02537 0
M  V30 29511 H 3884.92 -2.93881 -7.85526 0
M  V30 29512 H 3883.22 -2.53065 -9.86973 0
M  V30 29513 H 3883.03 -4.75072 -9.05887 0
M  V30 29514 H 3881.4 -4.05244 -8.76668 0
M  V30 29515 H 3884.04 0.177647 -6.34251 0
M  V30 29516 P 3885.9 -1.25109 -8.70152 0
M  V30 29517 O 3887.3 -1.3516 -9.26897 0
M  V30 29518 O 3885.52 -2.18141 -7.59181 0
M  V30 29519 O 3885.58 0.248118 -8.21325 0
M  V30 29520 C 3885.42 1.22779 -9.30434 0
M  V30 29521 C 3885.96 2.56265 -8.80568 0
M  V30 29522 O 3884.9 3.02944 -8.09255 0
M  V30 29523 C 3887.17 2.57523 -7.89775 0
M  V30 29524 O 3887.91 3.7668 -7.89438 0
M  V30 29525 C 3886.51 2.20997 -6.55446 0
M  V30 29526 O 3887.31 2.71851 -5.48419 0
M  V30 29527 C 3885.17 2.89693 -6.67988 0
M  V30 29528 N 3884.13 2.08895 -6.07487 0
M  V30 29529 C 3883.09 2.72974 -5.43836 0
M  V30 29530 O 3883.13 3.97779 -5.34036 0
M  V30 29531 N 3882.08 2.0005 -4.91983 0
M  V30 29532 C 3882.13 0.66501 -5.00098 0
M  V30 29533 C 3883.22 -0.0100979 -5.61099 0
M  V30 29534 C 3884.19 0.74189 -6.14236 0
M  V30 29535 H 3885.2 3.8874 -6.19774 0
M  V30 29536 H 3886.38 1.12673 -6.44018 0
M  V30 29537 H 3887.87 1.783 -8.19631 0
M  V30 29538 H 3886.17 3.21673 -9.66791 0
M  V30 29539 H 3885.98 0.901032 -10.1892 0
M  V30 29540 H 3884.35 1.33036 -9.56493 0
M  V30 29541 H 3883.27 -1.09591 -5.64358 0
M  V30 29542 H 3885.04 0.260263 -6.6359 0
M  V30 29543 H 3887.09 3.62759 -5.33442 0
M  V30 29544 P 3888.85 3.65191 -7.99657 0
M  V30 29545 O 3890.27 3.89332 -8.45794 0
M  V30 29546 O 3888.49 2.28472 -7.50807 0
M  V30 29547 O 3888.53 4.64972 -6.77611 0
M  V30 29548 C 3888.37 6.06319 -7.16352 0
M  V30 29549 C 3888.91 6.91731 -6.02299 0
M  V30 29550 O 3887.85 6.92449 -5.17064 0
M  V30 29551 C 3890.13 6.43627 -5.25174 0
M  V30 29552 O 3890.86 7.43686 -4.60469 0
M  V30 29553 C 3889.46 5.40275 -4.31916 0
M  V30 29554 O 3890.26 5.25279 -3.14438 0
M  V30 29555 C 3888.12 6.04847 -4.05327 0
M  V30 29556 H 3888.15 6.62195 -3.11261 0
M  V30 29557 H 3889.34 4.42556 -4.81383 0
M  V30 29558 H 3890.82 5.92458 -5.93643 0
M  V30 29559 H 3889.13 7.92655 -6.402 0
M  V30 29560 H 3888.94 6.26671 -8.0846 0
M  V30 29561 H 3887.31 6.29101 -7.32804 0
M  V30 29562 H 3889.94 5.84315 -2.47318 0
M  V30 29563 P 3891.8 7.39546 -4.75277 0
M  V30 29564 O 3893.22 7.84798 -5.01039 0
M  V30 29565 O 3891.44 5.9812 -5.08098 0
M  V30 29566 O 3891.48 7.57503 -3.1866 0
M  V30 29567 C 3891.32 8.97357 -2.74833 0
M  V30 29568 C 3891.86 9.07548 -1.32709 0
M  V30 29569 O 3890.8 8.62072 -0.606159 0
M  V30 29570 C 3893.08 8.25383 -0.938334 0
M  V30 29571 O 3893.81 8.74577 0.146954 0
M  V30 29572 C 3892.41 6.8802 -0.712559 0
M  V30 29573 O 3893.21 6.1189 0.194655 0
M  V30 29574 C 3891.07 7.27966 -0.139777 0
M  V30 29575 H 3891.1 7.25354 0.961601 0
M  V30 29576 H 3892.29 6.32557 -1.65702 0
M  V30 29577 H 3893.77 8.19355 -1.79097 0
M  V30 29578 H 3892.08 10.1294 -1.10029 0
M  V30 29579 H 3891.89 9.64276 -3.41316 0
M  V30 29580 H 3890.26 9.25417 -2.76357 0
M  V30 29581 H 3892.89 6.25267 1.07847 0
M  V30 29582 P 3894.75 8.791 -1.76656e-10 0
M  V30 29583 O 3896.17 9.31196 0.027936 0
M  V30 29584 O 3894.39 7.77869 -1.04071 0
M  V30 29585 O 3894.43 8.09533 1.41463 0
M  V30 29586 C 3894.27 9.03587 2.5397 0
M  V30 29587 C 3894.81 8.35226 3.79016 0
M  V30 29588 O 3893.75 7.57904 4.1503 0
M  V30 29589 C 3896.03 7.45087 3.67298 0
M  V30 29590 O 3896.77 7.27796 4.85194 0
M  V30 29591 C 3895.36 6.17323 3.12027 0
M  V30 29592 O 3896.16 5.04496 3.46627 0
M  V30 29593 C 3894.02 6.19961 3.81809 0
M  V30 29594 N 3892.98 5.71575 2.93223 0
M  V30 29595 C 3893.15 5.77362 1.59168 0
M  V30 29596 N 3892.12 5.3123 0.911893 0
M  V30 29597 C 3891.24 4.91717 1.89588 0
M  V30 29598 C 3889.97 4.3114 1.8076 0
M  V30 29599 N 3889.37 3.99821 0.632928 0
M  V30 29600 N 3889.4 4.06823 3.02898 0
M  V30 29601 C 3890.01 4.35062 4.22711 0
M  V30 29602 N 3891.18 4.90805 4.35707 0
M  V30 29603 C 3891.76 5.16382 3.14469 0
M  V30 29604 H 3894.05 5.58142 4.72986 0
M  V30 29605 H 3895.24 6.21428 2.0318 0
M  V30 29606 H 3896.72 7.86112 2.9231 0
M  V30 29607 H 3895.03 9.11171 4.55987 0
M  V30 29608 H 3894.84 9.9573 2.34194 0
M  V30 29609 H 3893.21 9.2792 2.67832 0
M  V30 29610 H 3889.47 4.09052 5.13359 0
M  V30 29611 H 3894.05 6.16575 1.12198 0
M  V30 29612 H 3888.44 3.55423 0.632085 0
M  V30 29613 H 3889.84 4.20317 -0.256712 0
M  V30 29614 H 3895.85 4.67628 4.28704 0
M  V30 29615 P 3897.7 7.39546 4.75277 0
M  V30 29616 O 3899.12 7.81945 5.05847 0
M  V30 29617 O 3897.34 7.1065 3.32998 0
M  V30 29618 O 3897.38 6.04542 5.56673 0
M  V30 29619 C 3897.22 6.22772 7.02095 0
M  V30 29620 C 3897.76 4.97671 7.70322 0
M  V30 29621 O 3896.7 4.13256 7.58987 0
M  V30 29622 C 3898.98 4.28231 7.11815 0
M  V30 29623 O 3899.72 3.49945 8.01648 0
M  V30 29624 C 3898.31 3.5063 5.96244 0
M  V30 29625 O 3899.11 2.36443 5.64589 0
M  V30 29626 C 3896.97 3.15122 6.56374 0
M  V30 29627 N 3895.93 3.22311 5.55692 0
M  V30 29628 C 3895.99 4.14382 4.59701 0
M  V30 29629 N 3894.95 4.04476 3.76958 0
M  V30 29630 C 3894.21 3.04892 4.26534 0
M  V30 29631 C 3892.91 2.57447 3.88189 0
M  V30 29632 O 3892.17 2.9785 2.96543 0
M  V30 29633 N 3892.48 1.55228 4.65922 0
M  V30 29634 C 3893.22 1.01152 5.73447 0
M  V30 29635 N 3892.63 -0.0472117 6.37783 0
M  V30 29636 N 3894.38 1.467 6.13813 0
M  V30 29637 C 3894.83 2.4931 5.38487 0
M  V30 29638 H 3897 2.13853 6.99751 0
M  V30 29639 H 3898.19 4.13438 5.06482 0
M  V30 29640 H 3899.67 5.02614 6.71414 0
M  V30 29641 H 3897.98 5.20877 8.75697 0
M  V30 29642 H 3897.79 7.11046 7.35349 0
M  V30 29643 H 3896.16 6.35815 7.26986 0
M  V30 29644 H 3891.58 1.15238 4.46468 0
M  V30 29645 H 3896.79 4.88312 4.49647 0
M  V30 29646 H 3891.72 -0.396382 6.05203 0
M  V30 29647 H 3893.09 -0.484997 7.18465 0
M  V30 29648 H 3898.8 1.61619 6.13468 0
M  V30 29649 P 3900.65 3.65191 7.99657 0
M  V30 29650 O 3902.08 3.8425 8.48115 0
M  V30 29651 O 3900.29 4.17805 6.64342 0
M  V30 29652 O 3900.33 2.07613 7.95143 0
M  V30 29653 C 3900.17 1.44328 9.27336 0
M  V30 29654 C 3900.71 0.0220036 9.17197 0
M  V30 29655 O 3899.65 -0.626867 8.61923 0
M  V30 29656 C 3901.93 -0.24586 8.30336 0
M  V30 29657 O 3902.67 -1.39011 8.63583 0
M  V30 29658 C 3901.26 -0.273849 6.91158 0
M  V30 29659 O 3902.06 -1.06348 6.02892 0
M  V30 29660 C 3899.92 -0.897649 7.22545 0
M  V30 29661 H 3899.95 -1.9841 7.04286 0
M  V30 29662 H 3901.14 0.739928 6.497 0
M  V30 29663 H 3902.62 0.60668 8.36503 0
M  V30 29664 H 3900.93 -0.352479 10.1829 0
M  V30 29665 H 3900.74 2.00611 10.0304 0
M  V30 29666 H 3899.11 1.41843 9.55327 0
M  V30 29667 H 3901.75 -1.95734 6.03555 0
M  V30 29668 P 3903.6 -1.25109 8.70152 0
M  V30 29669 O 3905.03 -1.35274 9.21221 0
M  V30 29670 O 3903.24 -0.0769065 7.84762 0
M  V30 29671 O 3903.28 -2.55232 7.81161 0
M  V30 29672 C 3903.12 -3.79939 8.58154 0
M  V30 29673 C 3903.66 -4.94023 7.72785 0
M  V30 29674 O 3902.61 -5.18726 6.91205 0
M  V30 29675 C 3904.88 -4.69597 6.85231 0
M  V30 29676 O 3905.62 -5.83832 6.51337 0
M  V30 29677 C 3904.21 -3.96706 5.66633 0
M  V30 29678 O 3905.01 -4.15414 4.49689 0
M  V30 29679 C 3902.87 -4.66153 5.59313 0
M  V30 29680 H 3902.91 -5.47679 4.85214 0
M  V30 29681 H 3904.09 -2.89008 5.86566 0
M  V30 29682 H 3905.57 -4.0121 7.36511 0
M  V30 29683 H 3903.88 -5.80182 8.37584 0
M  V30 29684 H 3903.69 -3.73517 9.52265 0
M  V30 29685 H 3902.06 -3.97163 8.80359 0
M  V30 29686 H 3904.7 -4.90969 4.01921 0
M  V30 29687 P 3906.55 -5.75688 6.64379 0
M  V30 29688 O 3907.98 -6.11849 7.01846 0
M  V30 29689 O 3906.19 -4.30744 6.56026 0
M  V30 29690 O 3906.23 -6.37042 5.19165 0
M  V30 29691 C 3906.07 -7.83578 5.16515 0
M  V30 29692 C 3906.61 -8.33398 3.83019 0
M  V30 29693 O 3905.56 -8.10074 3.01034 0
M  V30 29694 C 3907.83 -7.65514 3.2257 0
M  V30 29695 O 3908.57 -8.4329 2.32297 0
M  V30 29696 C 3907.16 -6.40075 2.62207 0
M  V30 29697 O 3907.96 -5.92589 1.53712 0
M  V30 29698 C 3905.82 -6.9454 2.18503 0
M  V30 29699 H 3905.86 -7.23063 1.12091 0
M  V30 29700 H 3907.04 -5.6025 3.37201 0
M  V30 29701 H 3908.52 -7.35707 4.02681 0
M  V30 29702 H 3906.83 -9.40912 3.9095 0
M  V30 29703 H 3906.64 -8.29056 5.99158 0
M  V30 29704 H 3905.01 -8.10073 5.25882 0
M  V30 29705 H 3907.65 -6.30324 0.726794 0
M  V30 29706 P 3909.51 -8.4349 2.47671 0
M  V30 29707 O 3910.93 -8.94167 2.5964 0
M  V30 29708 O 3909.15 -7.1704 3.19006 0
M  V30 29709 O 3909.18 -8.16596 0.923387 0
M  V30 29710 C 3909.02 -9.38437 0.108857 0
M  V30 29711 C 3909.56 -9.08175 -1.28353 0
M  V30 29712 O 3908.51 -8.44229 -1.84713 0
M  V30 29713 C 3910.78 -8.18386 -1.42505 0
M  V30 29714 O 3911.52 -8.3501 -2.60497 0
M  V30 29715 C 3910.11 -6.80225 -1.25468 0
M  V30 29716 O 3910.91 -5.81621 -1.91066 0
M  V30 29717 C 3908.77 -7.02416 -1.9168 0
M  V30 29718 H 3908.81 -6.6888 -2.96621 0
M  V30 29719 H 3909.99 -6.53617 -0.192223 0
M  V30 29720 H 3911.47 -8.36622 -0.589963 0
M  V30 29721 H 3909.78 -10.0291 -1.79807 0
M  V30 29722 H 3909.59 -10.2138 0.558219 0
M  V30 29723 H 3907.96 -9.6579 0.0444202 0
M  V30 29724 H 3910.6 -5.69556 -2.79637 0
M  V30 29725 P 3912.46 -8.4349 -2.47671 0
M  V30 29726 O 3913.88 -8.92689 -2.65029 0
M  V30 29727 O 3912.1 -7.7568 -1.19296 0
M  V30 29728 O 3912.13 -7.36886 -3.63805 0
M  V30 29729 C 3911.97 -7.95433 -4.98253 0
M  V30 29730 C 3912.51 -6.94612 -5.98974 0
M  V30 29731 O 3911.46 -6.10277 -6.11744 0
M  V30 29732 C 3913.73 -6.11426 -5.62335 0
M  V30 29733 O 3914.47 -5.6162 -6.70584 0
M  V30 29734 C 3913.06 -5.04409 -4.73308 0
M  V30 29735 O 3913.86 -3.86404 -4.74719 0
M  V30 29736 C 3911.72 -4.8728 -5.41006 0
M  V30 29737 N 3910.68 -4.65812 -4.42377 0
M  V30 29738 C 3910.85 -5.09132 -3.15382 0
M  V30 29739 N 3909.82 -4.84021 -2.3716 0
M  V30 29740 C 3908.94 -4.18386 -3.20441 0
M  V30 29741 C 3907.67 -3.6275 -2.94905 0
M  V30 29742 N 3907.11 -3.05008 -4.05243 0
M  V30 29743 C 3907.71 -2.98348 -5.28159 0
M  V30 29744 N 3908.89 -3.48171 -5.56333 0
M  V30 29745 C 3909.46 -4.06869 -4.47212 0
M  V30 29746 H 3912.94 -5.39013 -3.70026 0
M  V30 29747 H 3914.42 -6.71916 -5.01943 0
M  V30 29748 H 3912.73 -7.45796 -6.94223 0
M  V30 29749 H 3912.54 -8.89416 -5.05237 0
M  V30 29750 H 3910.91 -8.14876 -5.18409 0
M  V30 29751 H 3911.75 -5.59989 -2.81362 0
M  V30 29752 H 3913.55 -3.27906 -5.43085 0
M  V30 29753 P 3915.41 -5.75688 -6.64379 0
M  V30 29754 O 3916.83 -6.07758 -7.05656 0
M  V30 29755 O 3915.05 -5.88047 -5.19722 0
M  V30 29756 O 3915.08 -4.2322 -7.04443 0
M  V30 29757 C 3914.92 -3.99743 -8.4911 0
M  V30 29758 C 3915.46 -2.60487 -8.79329 0
M  V30 29759 O 3914.41 -1.82684 -8.4467 0
M  V30 29760 C 3916.68 -2.10343 -8.03628 0
M  V30 29761 O 3917.42 -1.09919 -8.67766 0
M  V30 29762 C 3916.01 -1.68446 -6.70876 0
M  V30 29763 O 3916.81 -0.678026 -6.08333 0
M  V30 29764 C 3914.68 -1.17436 -7.18567 0
M  V30 29765 N 3913.63 -1.52699 -6.23988 0
M  V30 29766 C 3913.69 -2.68084 -5.57824 0
M  V30 29767 N 3912.65 -2.8189 -4.75643 0
M  V30 29768 C 3911.92 -1.72373 -4.95155 0
M  V30 29769 C 3910.61 -1.37653 -4.44996 0
M  V30 29770 O 3909.88 -2.02239 -3.68445 0
M  V30 29771 N 3910.18 -0.17675 -4.90782 0
M  V30 29772 C 3910.93 0.645036 -5.78716 0
M  V30 29773 N 3910.33 1.84214 -6.10618 0
M  V30 29774 N 3912.08 0.321732 -6.30279 0
M  V30 29775 C 3912.54 -0.87502 -5.86913 0
M  V30 29776 H 3914.71 -0.0804732 -7.31656 0
M  V30 29777 H 3915.89 -2.53998 -6.02444 0
M  V30 29778 H 3917.38 -2.93095 -7.8582 0
M  V30 29779 H 3915.68 -2.53065 -9.86973 0
M  V30 29780 H 3915.49 -4.75072 -9.05887 0
M  V30 29781 H 3913.86 -4.05244 -8.76668 0
M  V30 29782 H 3909.28 0.152143 -4.60849 0
M  V30 29783 H 3914.49 -3.41852 -5.69006 0
M  V30 29784 H 3909.42 2.08538 -5.69521 0
M  V30 29785 H 3910.8 2.4895 -6.75698 0
M  V30 29786 H 3916.5 0.177619 -6.34151 0
M  V30 29787 P 3918.36 -1.25109 -8.70152 0
M  V30 29788 O 3919.78 -1.29758 -9.22115 0
M  V30 29789 O 3918 -2.13714 -7.55141 0
M  V30 29790 O 3918.03 0.248149 -8.21425 0
M  V30 29791 C 3917.87 1.22792 -9.30533 0
M  V30 29792 C 3918.41 2.56293 -8.80664 0
M  V30 29793 O 3917.36 3.02944 -8.09255 0
M  V30 29794 C 3919.63 2.57523 -7.89775 0
M  V30 29795 O 3920.37 3.7668 -7.89438 0
M  V30 29796 C 3918.96 2.20997 -6.55446 0
M  V30 29797 O 3919.76 2.71302 -5.48691 0
M  V30 29798 C 3917.63 2.89693 -6.67988 0
M  V30 29799 N 3916.58 2.08895 -6.07487 0
M  V30 29800 C 3916.75 0.753809 -5.94137 0
M  V30 29801 N 3915.72 0.146592 -5.38801 0
M  V30 29802 C 3914.84 1.1768 -5.13693 0
M  V30 29803 C 3913.57 1.17563 -4.52477 0
M  V30 29804 N 3912.97 0.057481 -4.04759 0
M  V30 29805 N 3913.01 2.41918 -4.45789 0
M  V30 29806 C 3913.61 3.56493 -4.90792 0
M  V30 29807 N 3914.79 3.61423 -5.47817 0
M  V30 29808 C 3915.36 2.37779 -5.5588 0
M  V30 29809 H 3917.66 3.8874 -6.19774 0
M  V30 29810 H 3918.84 1.12673 -6.44018 0
M  V30 29811 H 3920.32 1.7746 -8.19711 0
M  V30 29812 H 3918.63 3.21673 -9.66791 0
M  V30 29813 H 3918.44 0.901032 -10.1892 0
M  V30 29814 H 3916.81 1.33049 -9.56592 0
M  V30 29815 H 3913.07 4.49919 -4.77947 0
M  V30 29816 H 3917.65 0.233081 -6.26266 0
M  V30 29817 H 3912.04 0.119831 -3.60801 0
M  V30 29818 H 3913.45 -0.852272 -4.12385 0
M  V30 29819 H 3919.45 3.5779 -5.23879 0
M  V30 29820 P 3921.31 3.65191 -7.99657 0
M  V30 29821 O 3922.73 3.89332 -8.45794 0
M  V30 29822 O 3920.95 2.28472 -7.50807 0
M  V30 29823 O 3920.98 4.64972 -6.77611 0
M  V30 29824 C 3920.82 6.06319 -7.16352 0
M  V30 29825 C 3921.36 6.91731 -6.02299 0
M  V30 29826 O 3920.31 6.92449 -5.17064 0
M  V30 29827 C 3922.58 6.43627 -5.25174 0
M  V30 29828 O 3923.32 7.43686 -4.60469 0
M  V30 29829 C 3921.91 5.40275 -4.31916 0
M  V30 29830 O 3922.71 5.25279 -3.14438 0
M  V30 29831 C 3920.58 6.04847 -4.05327 0
M  V30 29832 H 3920.61 6.62195 -3.11261 0
M  V30 29833 H 3921.79 4.42556 -4.81383 0
M  V30 29834 H 3923.28 5.92458 -5.93643 0
M  V30 29835 H 3921.58 7.92655 -6.402 0
M  V30 29836 H 3921.39 6.26671 -8.0846 0
M  V30 29837 H 3919.76 6.29101 -7.32804 0
M  V30 29838 H 3922.4 5.84315 -2.47318 0
M  V30 29839 P 3924.26 7.39546 -4.75277 0
M  V30 29840 O 3925.68 7.84798 -5.01039 0
M  V30 29841 O 3923.9 5.9812 -5.08098 0
M  V30 29842 O 3923.94 7.57503 -3.1866 0
M  V30 29843 C 3923.78 8.97357 -2.74833 0
M  V30 29844 C 3924.32 9.07548 -1.32709 0
M  V30 29845 O 3923.26 8.62072 -0.606159 0
M  V30 29846 C 3925.53 8.25383 -0.938334 0
M  V30 29847 O 3926.27 8.74577 0.146954 0
M  V30 29848 C 3924.86 6.8802 -0.712559 0
M  V30 29849 O 3925.66 6.1189 0.194655 0
M  V30 29850 C 3923.53 7.27966 -0.139777 0
M  V30 29851 H 3923.56 7.25354 0.961601 0
M  V30 29852 H 3924.74 6.32557 -1.65702 0
M  V30 29853 H 3926.23 8.19355 -1.79097 0
M  V30 29854 H 3924.53 10.1294 -1.10029 0
M  V30 29855 H 3924.34 9.64276 -3.41316 0
M  V30 29856 H 3922.71 9.25417 -2.76357 0
M  V30 29857 H 3925.35 6.25267 1.07847 0
M  V30 29858 P 3927.21 8.791 -1.81843e-10 0
M  V30 29859 O 3928.63 9.31096 0.027933 0
M  V30 29860 O 3926.85 7.77869 -1.04071 0
M  V30 29861 O 3926.89 8.09533 1.41463 0
M  V30 29862 C 3926.73 9.0349 2.53943 0
M  V30 29863 C 3927.27 8.35226 3.79016 0
M  V30 29864 O 3926.21 7.57992 4.15078 0
M  V30 29865 C 3928.48 7.45087 3.67298 0
M  V30 29866 O 3929.22 7.27796 4.85194 0
M  V30 29867 C 3927.81 6.17323 3.12027 0
M  V30 29868 O 3928.61 5.04231 3.47188 0
M  V30 29869 C 3926.48 6.19961 3.81809 0
M  V30 29870 H 3926.51 5.58218 4.73051 0
M  V30 29871 H 3927.69 6.21726 2.02589 0
M  V30 29872 H 3929.18 7.86112 2.9231 0
M  V30 29873 H 3927.48 9.11627 4.55076 0
M  V30 29874 H 3927.29 9.9573 2.34194 0
M  V30 29875 H 3925.66 9.2792 2.67832 0
M  V30 29876 H 3928.3 4.67702 4.28772 0
M  V30 29877 P 3930.16 7.39546 4.75277 0
M  V30 29878 O 3931.58 7.81777 5.05738 0
M  V30 29879 O 3929.8 7.1065 3.32998 0
M  V30 29880 O 3929.84 6.04542 5.56673 0
M  V30 29881 C 3929.68 6.22772 7.02095 0
M  V30 29882 C 3930.22 4.97725 7.70406 0
M  V30 29883 O 3929.16 4.13256 7.58987 0
M  V30 29884 C 3931.43 4.28231 7.11815 0
M  V30 29885 O 3932.17 3.49945 8.01648 0
M  V30 29886 C 3930.77 3.5063 5.96244 0
M  V30 29887 O 3931.56 2.36482 5.64681 0
M  V30 29888 C 3929.43 3.15122 6.56374 0
M  V30 29889 H 3929.46 2.13853 6.99751 0
M  V30 29890 H 3930.64 4.13501 5.06559 0
M  V30 29891 H 3932.13 5.03285 6.70911 0
M  V30 29892 H 3930.43 5.20877 8.75697 0
M  V30 29893 H 3930.24 7.11046 7.35349 0
M  V30 29894 H 3928.61 6.35815 7.26986 0
M  V30 29895 H 3931.25 1.61644 6.13565 0
M  V30 29896 P 3933.11 3.65191 7.99657 0
M  V30 29897 O 3934.53 3.8425 8.48115 0
M  V30 29898 O 3932.75 4.17805 6.64342 0
M  V30 29899 O 3932.79 2.07613 7.95143 0
M  V30 29900 C 3932.63 1.44328 9.27336 0
M  V30 29901 C 3933.17 0.0220036 9.17197 0
M  V30 29902 O 3932.11 -0.626867 8.61923 0
M  V30 29903 C 3934.38 -0.24586 8.30336 0
M  V30 29904 O 3935.12 -1.39011 8.63583 0
M  V30 29905 C 3933.72 -0.273849 6.91158 0
M  V30 29906 O 3934.51 -1.06348 6.02892 0
M  V30 29907 C 3932.38 -0.897649 7.22545 0
M  V30 29908 H 3932.41 -1.9841 7.04286 0
M  V30 29909 H 3933.59 0.739928 6.497 0
M  V30 29910 H 3935.08 0.60668 8.36503 0
M  V30 29911 H 3933.38 -0.352479 10.1829 0
M  V30 29912 H 3933.19 2.00611 10.0304 0
M  V30 29913 H 3931.56 1.41843 9.55327 0
M  V30 29914 H 3934.2 -1.95734 6.03555 0
M  V30 29915 P 3936.06 -1.25109 8.70152 0
M  V30 29916 O 3937.48 -1.35274 9.21221 0
M  V30 29917 O 3935.7 -0.0769065 7.84762 0
M  V30 29918 O 3935.74 -2.55232 7.81161 0
M  V30 29919 C 3935.58 -3.79939 8.58154 0
M  V30 29920 C 3936.12 -4.94023 7.72785 0
M  V30 29921 O 3935.06 -5.18726 6.91205 0
M  V30 29922 C 3937.34 -4.69597 6.85231 0
M  V30 29923 O 3938.07 -5.83832 6.51337 0
M  V30 29924 C 3936.67 -3.96706 5.66633 0
M  V30 29925 O 3937.47 -4.15414 4.49689 0
M  V30 29926 C 3935.33 -4.66153 5.59313 0
M  V30 29927 H 3935.36 -5.47679 4.85214 0
M  V30 29928 H 3936.54 -2.89008 5.86566 0
M  V30 29929 H 3938.03 -4.0121 7.36511 0
M  V30 29930 H 3936.33 -5.80182 8.37584 0
M  V30 29931 H 3936.14 -3.73517 9.52265 0
M  V30 29932 H 3934.51 -3.97163 8.80359 0
M  V30 29933 H 3937.15 -4.90969 4.01921 0
M  V30 29934 P 3939.01 -5.75688 6.64379 0
M  V30 29935 O 3940.43 -6.11849 7.01846 0
M  V30 29936 O 3938.65 -4.30744 6.56026 0
M  V30 29937 O 3938.69 -6.37042 5.19165 0
M  V30 29938 C 3938.53 -7.83578 5.16515 0
M  V30 29939 C 3939.07 -8.33398 3.83019 0
M  V30 29940 O 3938.01 -8.10074 3.01034 0
M  V30 29941 C 3940.29 -7.65514 3.2257 0
M  V30 29942 O 3941.02 -8.4329 2.32297 0
M  V30 29943 C 3939.62 -6.40075 2.62207 0
M  V30 29944 O 3940.42 -5.92589 1.53712 0
M  V30 29945 C 3938.28 -6.9454 2.18503 0
M  V30 29946 H 3938.31 -7.23063 1.12091 0
M  V30 29947 H 3939.49 -5.6025 3.37201 0
M  V30 29948 H 3940.98 -7.35707 4.02681 0
M  V30 29949 H 3939.28 -9.40912 3.9095 0
M  V30 29950 H 3939.09 -8.29056 5.99158 0
M  V30 29951 H 3937.46 -8.10073 5.25882 0
M  V30 29952 H 3940.1 -6.30324 0.726794 0
M  V30 29953 P 3941.96 -8.4349 2.47671 0
M  V30 29954 O 3943.38 -8.94167 2.5964 0
M  V30 29955 O 3941.6 -7.1704 3.19006 0
M  V30 29956 O 3941.64 -8.16596 0.923387 0
M  V30 29957 C 3941.48 -9.38437 0.108857 0
M  V30 29958 C 3942.02 -9.08175 -1.28353 0
M  V30 29959 O 3940.96 -8.44229 -1.84713 0
M  V30 29960 C 3943.24 -8.18386 -1.42505 0
M  V30 29961 O 3943.97 -8.3501 -2.60497 0
M  V30 29962 C 3942.57 -6.80225 -1.25468 0
M  V30 29963 O 3943.37 -5.81621 -1.91066 0
M  V30 29964 C 3941.23 -7.02416 -1.9168 0
M  V30 29965 H 3941.26 -6.6888 -2.96621 0
M  V30 29966 H 3942.45 -6.53617 -0.192223 0
M  V30 29967 H 3943.93 -8.36622 -0.589963 0
M  V30 29968 H 3942.24 -10.0291 -1.79807 0
M  V30 29969 H 3942.05 -10.2138 0.558219 0
M  V30 29970 H 3940.42 -9.6579 0.0444202 0
M  V30 29971 H 3943.05 -5.69556 -2.79637 0
M  V30 29972 P 3944.91 -8.4349 -2.47671 0
M  V30 29973 O 3946.33 -8.92689 -2.65029 0
M  V30 29974 O 3944.55 -7.7568 -1.19296 0
M  V30 29975 O 3944.59 -7.36886 -3.63805 0
M  V30 29976 C 3944.43 -7.95433 -4.98253 0
M  V30 29977 C 3944.97 -6.94612 -5.98974 0
M  V30 29978 O 3943.91 -6.10277 -6.11744 0
M  V30 29979 C 3946.19 -6.11426 -5.62335 0
M  V30 29980 O 3946.93 -5.6162 -6.70584 0
M  V30 29981 C 3945.52 -5.04409 -4.73308 0
M  V30 29982 O 3946.32 -3.86404 -4.74719 0
M  V30 29983 C 3944.18 -4.8728 -5.41006 0
M  V30 29984 N 3943.14 -4.65812 -4.42377 0
M  V30 29985 C 3943.31 -5.09132 -3.15382 0
M  V30 29986 N 3942.28 -4.84021 -2.3716 0
M  V30 29987 C 3941.4 -4.18386 -3.20441 0
M  V30 29988 C 3940.13 -3.6275 -2.94905 0
M  V30 29989 N 3939.53 -3.65794 -1.73372 0
M  V30 29990 N 3939.56 -3.05008 -4.05243 0
M  V30 29991 C 3940.17 -2.98348 -5.28159 0
M  V30 29992 N 3941.34 -3.48171 -5.56333 0
M  V30 29993 C 3941.92 -4.06869 -4.47212 0
M  V30 29994 H 3944.21 -4.02278 -6.11074 0
M  V30 29995 H 3945.4 -5.39013 -3.70026 0
M  V30 29996 H 3946.88 -6.71916 -5.01943 0
M  V30 29997 H 3945.19 -7.45796 -6.94223 0
M  V30 29998 H 3945 -8.89416 -5.05237 0
M  V30 29999 H 3943.37 -8.14876 -5.18409 0
M  V30 30000 H 3939.63 -2.47853 -6.07807 0
M  V30 30001 H 3944.21 -5.59989 -2.81362 0
M  V30 30002 H 3938.6 -3.23218 -1.60782 0
M  V30 30003 H 3940 -4.10523 -0.937856 0
M  V30 30004 H 3946.01 -3.27906 -5.43085 0
M  V30 30005 P 3947.86 -5.75688 -6.64379 0
M  V30 30006 O 3949.28 -6.07627 -7.05504 0
M  V30 30007 O 3947.5 -5.88047 -5.19722 0
M  V30 30008 O 3947.54 -4.2322 -7.04443 0
M  V30 30009 C 3947.38 -3.99743 -8.4911 0
M  V30 30010 C 3947.92 -2.60516 -8.79425 0
M  V30 30011 O 3946.86 -1.82684 -8.4467 0
M  V30 30012 C 3949.14 -2.10343 -8.03628 0
M  V30 30013 O 3949.88 -1.09919 -8.67766 0
M  V30 30014 C 3948.47 -1.68446 -6.70876 0
M  V30 30015 O 3949.27 -0.678137 -6.08433 0
M  V30 30016 C 3947.13 -1.17436 -7.18567 0
M  V30 30017 H 3947.16 -0.0804732 -7.31656 0
M  V30 30018 H 3948.35 -2.54037 -6.02537 0
M  V30 30019 H 3949.83 -2.93881 -7.85526 0
M  V30 30020 H 3948.14 -2.53065 -9.86973 0
M  V30 30021 H 3947.95 -4.75072 -9.05887 0
M  V30 30022 H 3946.32 -4.05244 -8.76668 0
M  V30 30023 H 3948.96 0.177647 -6.34251 0
M  V30 30024 P 3950.81 -1.25109 -8.70152 0
M  V30 30025 O 3952.24 -1.29772 -9.22214 0
M  V30 30026 O 3950.45 -2.13714 -7.55141 0
M  V30 30027 O 3950.49 0.248149 -8.21425 0
M  V30 30028 C 3950.33 1.22779 -9.30434 0
M  V30 30029 C 3950.87 2.56265 -8.80568 0
M  V30 30030 O 3949.82 3.02979 -8.09349 0
M  V30 30031 C 3952.09 2.57523 -7.89775 0
M  V30 30032 O 3952.83 3.7668 -7.89438 0
M  V30 30033 C 3951.42 2.20997 -6.55446 0
M  V30 30034 O 3952.22 2.71851 -5.48419 0
M  V30 30035 C 3950.08 2.89693 -6.67988 0
M  V30 30036 N 3949.04 2.08895 -6.07487 0
M  V30 30037 C 3949.1 0.760559 -6.14209 0
M  V30 30038 N 3948.06 0.200108 -5.52538 0
M  V30 30039 C 3947.32 1.22692 -5.09742 0
M  V30 30040 C 3946.02 1.24782 -4.48775 0
M  V30 30041 O 3945.28 0.290617 -4.19294 0
M  V30 30042 N 3945.59 2.50468 -4.22428 0
M  V30 30043 C 3946.34 3.67142 -4.51974 0
M  V30 30044 N 3945.74 4.85096 -4.14091 0
M  V30 30045 N 3947.49 3.67821 -5.12831 0
M  V30 30046 C 3947.95 2.43698 -5.4105 0
M  V30 30047 H 3950.11 3.88793 -6.19859 0
M  V30 30048 H 3951.3 1.12029 -6.4413 0
M  V30 30049 H 3952.78 1.78279 -8.19533 0
M  V30 30050 H 3951.09 3.20706 -9.67112 0
M  V30 30051 H 3950.9 0.901032 -10.1892 0
M  V30 30052 H 3949.27 1.33049 -9.56592 0
M  V30 30053 H 3944.69 2.61953 -3.79465 0
M  V30 30054 H 3949.9 0.200439 -6.63497 0
M  V30 30055 H 3944.83 4.8334 -3.66367 0
M  V30 30056 H 3946.2 5.7474 -4.33841 0
M  V30 30057 H 3951.91 3.5779 -5.23879 0
M  V30 30058 P 3953.76 3.65191 -7.99657 0
M  V30 30059 O 3955.19 3.89332 -8.45794 0
M  V30 30060 O 3953.4 2.28472 -7.50807 0
M  V30 30061 O 3953.44 4.64972 -6.77611 0
M  V30 30062 C 3953.28 6.06319 -7.16352 0
M  V30 30063 C 3953.82 6.91731 -6.02299 0
M  V30 30064 O 3952.76 6.92449 -5.17064 0
M  V30 30065 C 3955.04 6.43627 -5.25174 0
M  V30 30066 O 3955.78 7.43686 -4.60469 0
M  V30 30067 C 3954.37 5.40275 -4.31916 0
M  V30 30068 O 3955.17 5.25279 -3.14438 0
M  V30 30069 C 3953.03 6.04847 -4.05327 0
M  V30 30070 H 3953.06 6.62195 -3.11261 0
M  V30 30071 H 3954.25 4.42556 -4.81383 0
M  V30 30072 H 3955.73 5.92458 -5.93643 0
M  V30 30073 H 3954.04 7.92655 -6.402 0
M  V30 30074 H 3953.85 6.26671 -8.0846 0
M  V30 30075 H 3952.22 6.29101 -7.32804 0
M  V30 30076 H 3954.86 5.84315 -2.47318 0
M  V30 30077 P 3956.71 7.39546 -4.75277 0
M  V30 30078 O 3958.14 7.84798 -5.01039 0
M  V30 30079 O 3956.35 5.9812 -5.08098 0
M  V30 30080 O 3956.39 7.57503 -3.1866 0
M  V30 30081 C 3956.23 8.97357 -2.74833 0
M  V30 30082 C 3956.77 9.07548 -1.32709 0
M  V30 30083 O 3955.72 8.62072 -0.606159 0
M  V30 30084 C 3957.99 8.25383 -0.938334 0
M  V30 30085 O 3958.73 8.74577 0.146954 0
M  V30 30086 C 3957.32 6.8802 -0.712559 0
M  V30 30087 O 3958.12 6.1189 0.194655 0
M  V30 30088 C 3955.98 7.27966 -0.139777 0
M  V30 30089 H 3956.02 7.25354 0.961601 0
M  V30 30090 H 3957.2 6.32557 -1.65702 0
M  V30 30091 H 3958.68 8.19355 -1.79097 0
M  V30 30092 H 3956.99 10.1294 -1.10029 0
M  V30 30093 H 3956.8 9.64276 -3.41316 0
M  V30 30094 H 3955.17 9.25417 -2.76357 0
M  V30 30095 H 3957.81 6.25267 1.07847 0
M  V30 30096 P 3959.66 8.791 -1.87029e-10 0
M  V30 30097 O 3961.09 9.31196 0.027936 0
M  V30 30098 O 3959.3 7.77869 -1.04071 0
M  V30 30099 O 3959.34 8.09533 1.41463 0
M  V30 30100 C 3959.18 9.03587 2.5397 0
M  V30 30101 C 3959.72 8.35226 3.79016 0
M  V30 30102 O 3958.67 7.57904 4.1503 0
M  V30 30103 C 3960.94 7.45087 3.67298 0
M  V30 30104 O 3961.68 7.27796 4.85194 0
M  V30 30105 C 3960.27 6.17323 3.12027 0
M  V30 30106 O 3961.07 5.04496 3.46627 0
M  V30 30107 C 3958.93 6.19961 3.81809 0
M  V30 30108 N 3957.89 5.71575 2.93223 0
M  V30 30109 C 3958.06 5.77362 1.59168 0
M  V30 30110 N 3957.03 5.3123 0.911893 0
M  V30 30111 C 3956.15 4.91717 1.89588 0
M  V30 30112 C 3954.88 4.3114 1.8076 0
M  V30 30113 N 3954.28 3.99821 0.632928 0
M  V30 30114 N 3954.32 4.06823 3.02898 0
M  V30 30115 C 3954.92 4.35062 4.22711 0
M  V30 30116 N 3956.09 4.90805 4.35707 0
M  V30 30117 C 3956.67 5.16382 3.14469 0
M  V30 30118 H 3958.97 5.58142 4.72986 0
M  V30 30119 H 3960.15 6.21428 2.0318 0
M  V30 30120 H 3961.63 7.86112 2.9231 0
M  V30 30121 H 3959.94 9.11171 4.55987 0
M  V30 30122 H 3959.75 9.9573 2.34194 0
M  V30 30123 H 3958.12 9.2792 2.67832 0
M  V30 30124 H 3954.38 4.09052 5.13359 0
M  V30 30125 H 3958.96 6.16575 1.12198 0
M  V30 30126 H 3953.35 3.55423 0.632085 0
M  V30 30127 H 3954.76 4.20317 -0.256712 0
M  V30 30128 H 3960.76 4.67628 4.28704 0
M  V30 30129 P 3962.62 7.39546 4.75277 0
M  V30 30130 O 3964.04 7.81777 5.05738 0
M  V30 30131 O 3962.26 7.1065 3.32998 0
M  V30 30132 O 3962.29 6.04542 5.56673 0
M  V30 30133 C 3962.13 6.22772 7.02095 0
M  V30 30134 C 3962.67 4.97725 7.70406 0
M  V30 30135 O 3961.62 4.13256 7.58987 0
M  V30 30136 C 3963.89 4.28231 7.11815 0
M  V30 30137 O 3964.63 3.49945 8.01648 0
M  V30 30138 C 3963.22 3.5063 5.96244 0
M  V30 30139 O 3964.02 2.36482 5.64681 0
M  V30 30140 C 3961.88 3.15122 6.56374 0
M  V30 30141 H 3961.92 2.13853 6.99751 0
M  V30 30142 H 3963.1 4.13501 5.06559 0
M  V30 30143 H 3964.58 5.03285 6.70911 0
M  V30 30144 H 3962.89 5.20877 8.75697 0
M  V30 30145 H 3962.7 7.11046 7.35349 0
M  V30 30146 H 3961.07 6.35815 7.26986 0
M  V30 30147 H 3963.71 1.61644 6.13565 0
M  V30 30148 P 3965.57 3.65191 7.99657 0
M  V30 30149 O 3966.99 3.8425 8.48115 0
M  V30 30150 O 3965.21 4.17805 6.64342 0
M  V30 30151 O 3965.24 2.07613 7.95143 0
M  V30 30152 C 3965.08 1.44328 9.27336 0
M  V30 30153 C 3965.62 0.0220036 9.17197 0
M  V30 30154 O 3964.57 -0.626867 8.61923 0
M  V30 30155 C 3966.84 -0.24586 8.30336 0
M  V30 30156 O 3967.58 -1.39011 8.63583 0
M  V30 30157 C 3966.17 -0.273849 6.91158 0
M  V30 30158 O 3966.97 -1.06348 6.02892 0
M  V30 30159 C 3964.84 -0.897649 7.22545 0
M  V30 30160 H 3964.87 -1.9841 7.04286 0
M  V30 30161 H 3966.05 0.739928 6.497 0
M  V30 30162 H 3967.53 0.60668 8.36503 0
M  V30 30163 H 3965.84 -0.352479 10.1829 0
M  V30 30164 H 3965.65 2.00611 10.0304 0
M  V30 30165 H 3964.02 1.41843 9.55327 0
M  V30 30166 H 3966.66 -1.95734 6.03555 0
M  V30 30167 P 3968.52 -1.25109 8.70152 0
M  V30 30168 O 3969.94 -1.35288 9.2132 0
M  V30 30169 O 3968.16 -0.0769065 7.84762 0
M  V30 30170 O 3968.19 -2.55232 7.81161 0
M  V30 30171 C 3968.03 -3.79979 8.58246 0
M  V30 30172 C 3968.57 -4.94023 7.72785 0
M  V30 30173 O 3967.52 -5.18666 6.91125 0
M  V30 30174 C 3969.79 -4.69597 6.85231 0
M  V30 30175 O 3970.53 -5.83832 6.51337 0
M  V30 30176 C 3969.12 -3.96706 5.66633 0
M  V30 30177 O 3969.92 -4.14896 4.5003 0
M  V30 30178 C 3967.79 -4.66153 5.59313 0
M  V30 30179 N 3966.74 -3.71582 5.24027 0
M  V30 30180 C 3966.91 -2.39715 5.48833 0
M  V30 30181 N 3965.88 -1.65863 5.12845 0
M  V30 30182 C 3965 -2.57637 4.5973 0
M  V30 30183 C 3963.73 -2.40278 4.01027 0
M  V30 30184 N 3963.17 -3.57711 3.59575 0
M  V30 30185 C 3963.77 -4.80324 3.70476 0
M  V30 30186 N 3964.95 -5.01121 4.23801 0
M  V30 30187 C 3965.52 -3.84757 4.66372 0
M  V30 30188 H 3969 -2.8955 5.86187 0
M  V30 30189 H 3970.48 -4.0121 7.36511 0
M  V30 30190 H 3968.79 -5.81019 8.37003 0
M  V30 30191 H 3968.6 -3.73517 9.52265 0
M  V30 30192 H 3966.97 -3.97163 8.80359 0
M  V30 30193 H 3967.81 -1.98804 5.94332 0
M  V30 30194 H 3969.61 -4.90891 4.01857 0
M  V30 30195 P 3971.47 -5.75688 6.64379 0
M  V30 30196 O 3972.87 -6.11991 7.09136 0
M  V30 30197 O 3971.09 -4.30899 6.62018 0
M  V30 30198 O 3971.14 -6.36965 5.19102 0
M  V30 30199 C 3970.98 -7.83578 5.16515 0
M  V30 30200 C 3971.52 -8.33307 3.82977 0
M  V30 30201 O 3970.47 -8.0998 3.00999 0
M  V30 30202 C 3972.74 -7.65514 3.2257 0
M  V30 30203 O 3973.48 -8.4329 2.32297 0
M  V30 30204 C 3972.07 -6.40075 2.62207 0
M  V30 30205 O 3972.87 -5.92492 1.53687 0
M  V30 30206 C 3970.74 -6.9454 2.18503 0
M  V30 30207 N 3969.69 -5.95905 2.39948 0
M  V30 30208 C 3968.66 -5.89764 1.49837 0
M  V30 30209 O 3968.7 -6.64088 0.490975 0
M  V30 30210 N 3967.65 -5.02821 1.70992 0
M  V30 30211 C 3967.69 -4.21498 2.77236 0
M  V30 30212 C 3968.79 -4.23389 3.68205 0
M  V30 30213 C 3969.76 -5.12792 3.46171 0
M  V30 30214 H 3970.77 -7.22964 1.12076 0
M  V30 30215 H 3971.95 -5.60502 3.36589 0
M  V30 30216 H 3973.44 -7.36197 4.01993 0
M  V30 30217 H 3971.74 -9.41302 3.90009 0
M  V30 30218 H 3971.55 -8.29056 5.99158 0
M  V30 30219 H 3969.92 -8.09989 5.25828 0
M  V30 30220 H 3968.84 -3.54747 4.52399 0
M  V30 30221 H 3970.6 -5.18551 4.1489 0
M  V30 30222 H 3972.66 -6.40705 0.751752 0
M  V30 30223 P 3974.42 -8.4349 2.47671 0
M  V30 30224 O 3975.84 -8.94167 2.5964 0
M  V30 30225 O 3974.06 -7.1704 3.19006 0
M  V30 30226 O 3974.09 -8.16596 0.923387 0
M  V30 30227 C 3973.93 -9.38437 0.108857 0
M  V30 30228 C 3974.47 -9.08175 -1.28353 0
M  V30 30229 O 3973.42 -8.44229 -1.84713 0
M  V30 30230 C 3975.69 -8.18386 -1.42505 0
M  V30 30231 O 3976.43 -8.3501 -2.60497 0
M  V30 30232 C 3975.02 -6.80225 -1.25468 0
M  V30 30233 O 3975.82 -5.81621 -1.91066 0
M  V30 30234 C 3973.69 -7.02416 -1.9168 0
M  V30 30235 H 3973.72 -6.6888 -2.96621 0
M  V30 30236 H 3974.9 -6.53617 -0.192223 0
M  V30 30237 H 3976.39 -8.36622 -0.589963 0
M  V30 30238 H 3974.69 -10.0291 -1.79807 0
M  V30 30239 H 3974.5 -10.2138 0.558219 0
M  V30 30240 H 3972.87 -9.6579 0.0444202 0
M  V30 30241 H 3975.51 -5.69556 -2.79637 0
M  V30 30242 P 3977.37 -8.4349 -2.47671 0
M  V30 30243 O 3978.79 -8.92593 -2.65 0
M  V30 30244 O 3977.01 -7.7568 -1.19296 0
M  V30 30245 O 3977.05 -7.36886 -3.63805 0
M  V30 30246 C 3976.89 -7.95349 -4.982 0
M  V30 30247 C 3977.43 -6.94612 -5.98974 0
M  V30 30248 O 3976.37 -6.10347 -6.11815 0
M  V30 30249 C 3978.64 -6.11426 -5.62335 0
M  V30 30250 O 3979.38 -5.6162 -6.70584 0
M  V30 30251 C 3977.97 -5.04409 -4.73308 0
M  V30 30252 O 3978.77 -3.85992 -4.75183 0
M  V30 30253 C 3976.64 -4.8728 -5.41006 0
M  V30 30254 H 3976.67 -4.02333 -6.11157 0
M  V30 30255 H 3977.85 -5.39466 -3.69543 0
M  V30 30256 H 3979.34 -6.71916 -5.01943 0
M  V30 30257 H 3977.64 -7.4649 -6.93477 0
M  V30 30258 H 3977.45 -8.89416 -5.05237 0
M  V30 30259 H 3975.82 -8.14876 -5.18409 0
M  V30 30260 H 3978.46 -3.27957 -5.4317 0
M  V30 30261 P 3980.32 -5.75688 -6.64379 0
M  V30 30262 O 3981.74 -6.07627 -7.05504 0
M  V30 30263 O 3979.96 -5.88047 -5.19722 0
M  V30 30264 O 3980 -4.2322 -7.04443 0
M  V30 30265 C 3979.84 -3.99743 -8.4911 0
M  V30 30266 C 3980.38 -2.60516 -8.79425 0
M  V30 30267 O 3979.32 -1.82684 -8.4467 0
M  V30 30268 C 3981.59 -2.10343 -8.03628 0
M  V30 30269 O 3982.33 -1.09919 -8.67766 0
M  V30 30270 C 3980.92 -1.68446 -6.70876 0
M  V30 30271 O 3981.72 -0.678137 -6.08433 0
M  V30 30272 C 3979.59 -1.17436 -7.18567 0
M  V30 30273 H 3979.62 -0.0804732 -7.31656 0
M  V30 30274 H 3980.8 -2.54037 -6.02537 0
M  V30 30275 H 3982.29 -2.93881 -7.85526 0
M  V30 30276 H 3980.59 -2.53065 -9.86973 0
M  V30 30277 H 3980.4 -4.75072 -9.05887 0
M  V30 30278 H 3978.77 -4.05244 -8.76668 0
M  V30 30279 H 3981.41 0.177647 -6.34251 0
M  V30 30280 P 3983.27 -1.25109 -8.70152 0
M  V30 30281 O 3984.69 -1.29744 -9.22016 0
M  V30 30282 O 3982.91 -2.13714 -7.55141 0
M  V30 30283 O 3982.95 0.248149 -8.21425 0
M  V30 30284 C 3982.79 1.22779 -9.30434 0
M  V30 30285 C 3983.33 2.56293 -8.80664 0
M  V30 30286 O 3982.27 3.02979 -8.09349 0
M  V30 30287 C 3984.54 2.57523 -7.89775 0
M  V30 30288 O 3985.28 3.7668 -7.89438 0
M  V30 30289 C 3983.88 2.20997 -6.55446 0
M  V30 30290 O 3984.67 2.71895 -5.48509 0
M  V30 30291 C 3982.54 2.89693 -6.67988 0
M  V30 30292 H 3982.57 3.88793 -6.19859 0
M  V30 30293 H 3983.75 1.12046 -6.44229 0
M  V30 30294 H 3985.24 1.7746 -8.19711 0
M  V30 30295 H 3983.54 3.20706 -9.67112 0
M  V30 30296 H 3983.35 0.901032 -10.1892 0
M  V30 30297 H 3981.72 1.33049 -9.56592 0
M  V30 30298 H 3984.36 3.57847 -5.23962 0
M  V30 30299 P 3986.22 3.65191 -7.99657 0
M  V30 30300 O 3987.64 3.89332 -8.45794 0
M  V30 30301 O 3985.86 2.28472 -7.50807 0
M  V30 30302 O 3985.9 4.64972 -6.77611 0
M  V30 30303 C 3985.74 6.06319 -7.16352 0
M  V30 30304 C 3986.28 6.91731 -6.02299 0
M  V30 30305 O 3985.22 6.92449 -5.17064 0
M  V30 30306 C 3987.5 6.43627 -5.25174 0
M  V30 30307 O 3988.23 7.43686 -4.60469 0
M  V30 30308 C 3986.83 5.40275 -4.31916 0
M  V30 30309 O 3987.63 5.25279 -3.14438 0
M  V30 30310 C 3985.49 6.04847 -4.05327 0
M  V30 30311 H 3985.52 6.62195 -3.11261 0
M  V30 30312 H 3986.7 4.42556 -4.81383 0
M  V30 30313 H 3988.19 5.92458 -5.93643 0
M  V30 30314 H 3986.49 7.92655 -6.402 0
M  V30 30315 H 3986.3 6.26671 -8.0846 0
M  V30 30316 H 3984.67 6.29101 -7.32804 0
M  V30 30317 H 3987.31 5.84315 -2.47318 0
M  V30 30318 P 3989.17 7.39546 -4.75277 0
M  V30 30319 O 3990.59 7.84798 -5.01039 0
M  V30 30320 O 3988.81 5.9812 -5.08098 0
M  V30 30321 O 3988.85 7.57503 -3.1866 0
M  V30 30322 C 3988.69 8.97357 -2.74833 0
M  V30 30323 C 3989.23 9.07548 -1.32709 0
M  V30 30324 O 3988.17 8.62072 -0.606159 0
M  V30 30325 C 3990.45 8.25383 -0.938334 0
M  V30 30326 O 3991.18 8.74577 0.146954 0
M  V30 30327 C 3989.78 6.8802 -0.712559 0
M  V30 30328 O 3990.58 6.1189 0.194655 0
M  V30 30329 C 3988.44 7.27966 -0.139777 0
M  V30 30330 H 3988.47 7.25354 0.961601 0
M  V30 30331 H 3989.65 6.32557 -1.65702 0
M  V30 30332 H 3991.14 8.19355 -1.79097 0
M  V30 30333 H 3989.44 10.1294 -1.10029 0
M  V30 30334 H 3989.25 9.64276 -3.41316 0
M  V30 30335 H 3987.62 9.25417 -2.76357 0
M  V30 30336 H 3990.26 6.25267 1.07847 0
M  V30 30337 P 3992.12 8.791 -1.92216e-10 0
M  V30 30338 O 3993.54 9.31096 0.027933 0
M  V30 30339 O 3991.76 7.77869 -1.04071 0
M  V30 30340 O 3991.8 8.09533 1.41463 0
M  V30 30341 C 3991.64 9.0349 2.53943 0
M  V30 30342 C 3992.18 8.35226 3.79016 0
M  V30 30343 O 3991.12 7.57992 4.15078 0
M  V30 30344 C 3993.4 7.45087 3.67298 0
M  V30 30345 O 3994.13 7.27796 4.85194 0
M  V30 30346 C 3992.73 6.17323 3.12027 0
M  V30 30347 O 3993.53 5.04231 3.47188 0
M  V30 30348 C 3991.39 6.19961 3.81809 0
M  V30 30349 H 3991.42 5.58218 4.73051 0
M  V30 30350 H 3992.61 6.21726 2.02589 0
M  V30 30351 H 3994.09 7.86112 2.9231 0
M  V30 30352 H 3992.4 9.11627 4.55076 0
M  V30 30353 H 3992.21 9.9573 2.34194 0
M  V30 30354 H 3990.58 9.2792 2.67832 0
M  V30 30355 H 3993.21 4.67702 4.28772 0
M  V30 30356 P 3995.07 7.39546 4.75277 0
M  V30 30357 O 3996.49 7.81777 5.05738 0
M  V30 30358 O 3994.71 7.1065 3.32998 0
M  V30 30359 O 3994.75 6.04542 5.56673 0
M  V30 30360 C 3994.59 6.22772 7.02095 0
M  V30 30361 C 3995.13 4.97725 7.70406 0
M  V30 30362 O 3994.07 4.13256 7.58987 0
M  V30 30363 C 3996.35 4.28231 7.11815 0
M  V30 30364 O 3997.08 3.49945 8.01648 0
M  V30 30365 C 3995.68 3.5063 5.96244 0
M  V30 30366 O 3996.48 2.36482 5.64681 0
M  V30 30367 C 3994.34 3.15122 6.56374 0
M  V30 30368 H 3994.37 2.13853 6.99751 0
M  V30 30369 H 3995.56 4.13501 5.06559 0
M  V30 30370 H 3997.04 5.03285 6.70911 0
M  V30 30371 H 3995.35 5.20877 8.75697 0
M  V30 30372 H 3995.16 7.11046 7.35349 0
M  V30 30373 H 3993.53 6.35815 7.26986 0
M  V30 30374 H 3996.16 1.61644 6.13565 0
M  V30 30375 P 3998.02 3.65191 7.99657 0
M  V30 30376 O 3999.42 3.90823 8.51272 0
M  V30 30377 O 3997.64 4.23191 6.66972 0
M  V30 30378 O 3997.7 2.07587 7.95046 0
M  V30 30379 C 3997.54 1.44328 9.27336 0
M  V30 30380 C 3998.08 0.0220012 9.17097 0
M  V30 30381 O 3997.02 -0.626794 8.61824 0
M  V30 30382 C 3999.3 -0.24586 8.30336 0
M  V30 30383 O 4000.04 -1.39011 8.63583 0
M  V30 30384 C 3998.63 -0.273849 6.91158 0
M  V30 30385 O 3999.43 -1.06331 6.02794 0
M  V30 30386 C 3997.29 -0.897649 7.22545 0
M  V30 30387 N 3996.25 -0.292839 6.41732 0
M  V30 30388 C 3995.21 -1.08701 5.98712 0
M  V30 30389 O 3995.25 -2.31211 6.24471 0
M  V30 30390 N 3994.2 -0.533391 5.28415 0
M  V30 30391 C 3994.25 0.770866 4.98576 0
M  V30 30392 C 3995.35 1.59049 5.38086 0
M  V30 30393 C 3996.31 1.01866 6.10256 0
M  V30 30394 H 3997.32 -1.98383 7.04189 0
M  V30 30395 H 3998.51 0.733318 6.49674 0
M  V30 30396 H 3999.99 0.598386 8.36663 0
M  V30 30397 H 3998.3 -0.362662 10.1825 0
M  V30 30398 H 3998.11 2.00611 10.0304 0
M  V30 30399 H 3996.48 1.41828 9.55228 0
M  V30 30400 H 3995.39 2.6415 5.10622 0
M  V30 30401 H 3997.16 1.61983 6.44042 0
M  V30 30402 H 3999.21 -1.97777 6.14035 0
M  V30 30403 P 4000.97 -1.25109 8.70152 0
M  V30 30404 O 4002.39 -1.35288 9.2132 0
M  V30 30405 O 4000.61 -0.0769065 7.84762 0
M  V30 30406 O 4000.65 -2.55232 7.81161 0
M  V30 30407 C 4000.49 -3.79979 8.58246 0
M  V30 30408 C 4001.03 -4.94023 7.72785 0
M  V30 30409 O 3999.97 -5.18666 6.91125 0
M  V30 30410 C 4002.25 -4.69597 6.85231 0
M  V30 30411 O 4002.99 -5.83832 6.51337 0
M  V30 30412 C 4001.58 -3.96706 5.66633 0
M  V30 30413 O 4002.38 -4.14896 4.5003 0
M  V30 30414 C 4000.24 -4.66153 5.59313 0
M  V30 30415 N 3999.2 -3.71582 5.24027 0
M  V30 30416 C 3999.37 -2.39715 5.48833 0
M  V30 30417 N 3998.34 -1.65863 5.12845 0
M  V30 30418 C 3997.46 -2.57637 4.5973 0
M  V30 30419 C 3996.19 -2.40278 4.01027 0
M  V30 30420 N 3995.62 -3.57711 3.59575 0
M  V30 30421 C 3996.23 -4.80324 3.70476 0
M  V30 30422 N 3997.4 -5.01121 4.23801 0
M  V30 30423 C 3997.98 -3.84757 4.66372 0
M  V30 30424 H 4001.46 -2.8955 5.86187 0
M  V30 30425 H 4002.94 -4.0121 7.36511 0
M  V30 30426 H 4001.25 -5.81019 8.37003 0
M  V30 30427 H 4001.06 -3.73517 9.52265 0
M  V30 30428 H 3999.43 -3.97163 8.80359 0
M  V30 30429 H 4000.27 -1.98804 5.94332 0
M  V30 30430 H 4002.07 -4.90891 4.01857 0
M  V30 30431 P 4003.92 -5.75688 6.64379 0
M  V30 30432 O 4005.34 -6.11915 7.01921 0
M  V30 30433 O 4003.56 -4.30744 6.56026 0
M  V30 30434 O 4003.6 -6.37042 5.19165 0
M  V30 30435 C 4003.44 -7.83662 5.1657 0
M  V30 30436 C 4003.98 -8.33398 3.83019 0
M  V30 30437 O 4002.93 -8.0998 3.00999 0
M  V30 30438 C 4005.2 -7.65514 3.2257 0
M  V30 30439 O 4005.94 -8.4329 2.32297 0
M  V30 30440 C 4004.53 -6.40075 2.62207 0
M  V30 30441 O 4005.33 -5.92338 1.5428 0
M  V30 30442 C 4003.19 -6.9454 2.18503 0
M  V30 30443 N 4002.15 -5.95905 2.39948 0
M  V30 30444 C 4002.32 -4.98383 3.32108 0
M  V30 30445 N 4001.29 -4.16798 3.41761 0
M  V30 30446 C 4000.41 -4.65287 2.47461 0
M  V30 30447 C 3999.14 -4.18946 2.07461 0
M  V30 30448 N 3998.54 -3.09661 2.60717 0
M  V30 30449 N 3998.57 -4.95327 1.09101 0
M  V30 30450 C 3999.18 -6.04369 0.519812 0
M  V30 30451 N 4000.35 -6.50694 0.855982 0
M  V30 30452 C 4000.93 -5.75818 1.84322 0
M  V30 30453 H 4003.22 -7.22964 1.12076 0
M  V30 30454 H 4004.41 -5.60502 3.36589 0
M  V30 30455 H 4005.89 -7.35707 4.02681 0
M  V30 30456 H 4004.2 -9.41302 3.90009 0
M  V30 30457 H 4004.01 -8.29056 5.99158 0
M  V30 30458 H 4002.38 -8.10073 5.25882 0
M  V30 30459 H 3998.64 -6.55843 -0.270373 0
M  V30 30460 H 4003.22 -4.88564 3.92502 0
M  V30 30461 H 3997.61 -2.80523 2.27218 0
M  V30 30462 H 3999.01 -2.55848 3.34465 0
M  V30 30463 H 4005.02 -6.30224 0.72668 0
M  V30 30464 P 4006.87 -8.4349 2.47671 0
M  V30 30465 O 4008.3 -8.94167 2.5964 0
M  V30 30466 O 4006.51 -7.1704 3.19006 0
M  V30 30467 O 4006.55 -8.16596 0.923387 0
M  V30 30468 C 4006.39 -9.38437 0.108857 0
M  V30 30469 C 4006.93 -9.08175 -1.28353 0
M  V30 30470 O 4005.88 -8.44229 -1.84713 0
M  V30 30471 C 4008.15 -8.18386 -1.42505 0
M  V30 30472 O 4008.89 -8.3501 -2.60497 0
M  V30 30473 C 4007.48 -6.80225 -1.25468 0
M  V30 30474 O 4008.28 -5.81621 -1.91066 0
M  V30 30475 C 4006.14 -7.02416 -1.9168 0
M  V30 30476 H 4006.18 -6.6888 -2.96621 0
M  V30 30477 H 4007.36 -6.53617 -0.192223 0
M  V30 30478 H 4008.84 -8.36622 -0.589963 0
M  V30 30479 H 4007.15 -10.0291 -1.79807 0
M  V30 30480 H 4006.96 -10.2138 0.558219 0
M  V30 30481 H 4005.33 -9.6579 0.0444202 0
M  V30 30482 H 4007.97 -5.69556 -2.79637 0
M  V30 30483 P 4009.82 -8.4349 -2.47671 0
M  V30 30484 O 4011.25 -8.92785 -2.65057 0
M  V30 30485 O 4009.46 -7.7568 -1.19296 0
M  V30 30486 O 4009.5 -7.36886 -3.63805 0
M  V30 30487 C 4009.34 -7.95349 -4.982 0
M  V30 30488 C 4009.88 -6.94537 -5.98908 0
M  V30 30489 O 4008.83 -6.10347 -6.11815 0
M  V30 30490 C 4011.1 -6.11426 -5.62335 0
M  V30 30491 O 4011.84 -5.6162 -6.70584 0
M  V30 30492 C 4010.43 -5.04409 -4.73308 0
M  V30 30493 O 4011.23 -3.85929 -4.75106 0
M  V30 30494 C 4009.09 -4.8728 -5.41006 0
M  V30 30495 N 4008.05 -4.65812 -4.42377 0
M  V30 30496 C 4008.11 -5.27109 -3.24335 0
M  V30 30497 N 4007.07 -4.94293 -2.47735 0
M  V30 30498 C 4006.33 -4.1271 -3.23359 0
M  V30 30499 C 4005.03 -3.56384 -2.99934 0
M  V30 30500 O 4004.29 -3.69331 -2.00616 0
M  V30 30501 N 4004.6 -2.80206 -4.03316 0
M  V30 30502 C 4005.35 -2.58614 -5.2172 0
M  V30 30503 N 4004.75 -1.75154 -6.13278 0
M  V30 30504 N 4006.5 -3.13689 -5.47619 0
M  V30 30505 C 4006.96 -3.90921 -4.46436 0
M  V30 30506 H 4009.13 -4.02333 -6.11157 0
M  V30 30507 H 4010.31 -5.39383 -3.69487 0
M  V30 30508 H 4011.79 -6.71414 -5.02615 0
M  V30 30509 H 4010.1 -7.4649 -6.93477 0
M  V30 30510 H 4009.91 -8.89416 -5.05237 0
M  V30 30511 H 4008.28 -8.14876 -5.18409 0
M  V30 30512 H 4003.7 -2.36355 -3.95916 0
M  V30 30513 H 4008.91 -5.95212 -2.93859 0
M  V30 30514 H 4003.84 -1.32473 -5.91856 0
M  V30 30515 H 4005.21 -1.5588 -7.03026 0
M  V30 30516 H 4010.92 -3.27906 -5.43085 0
M  V30 30517 P 4012.78 -5.75688 -6.64379 0
M  V30 30518 O 4014.2 -6.07627 -7.05504 0
M  V30 30519 O 4012.42 -5.88047 -5.19722 0
M  V30 30520 O 4012.45 -4.2322 -7.04443 0
M  V30 30521 C 4012.29 -3.99743 -8.4911 0
M  V30 30522 C 4012.83 -2.60516 -8.79425 0
M  V30 30523 O 4011.78 -1.82684 -8.4467 0
M  V30 30524 C 4014.05 -2.10343 -8.03628 0
M  V30 30525 O 4014.79 -1.09919 -8.67766 0
M  V30 30526 C 4013.38 -1.68446 -6.70876 0
M  V30 30527 O 4014.18 -0.678137 -6.08433 0
M  V30 30528 C 4012.04 -1.17436 -7.18567 0
M  V30 30529 H 4012.08 -0.0804732 -7.31656 0
M  V30 30530 H 4013.26 -2.54037 -6.02537 0
M  V30 30531 H 4014.74 -2.93881 -7.85526 0
M  V30 30532 H 4013.05 -2.53065 -9.86973 0
M  V30 30533 H 4012.86 -4.75072 -9.05887 0
M  V30 30534 H 4011.23 -4.05244 -8.76668 0
M  V30 30535 H 4013.87 0.177647 -6.34251 0
M  V30 30536 P 4015.73 -1.25109 -8.70152 0
M  V30 30537 O 4017.15 -1.29744 -9.22016 0
M  V30 30538 O 4015.37 -2.13714 -7.55141 0
M  V30 30539 O 4015.4 0.248149 -8.21425 0
M  V30 30540 C 4015.24 1.22779 -9.30434 0
M  V30 30541 C 4015.78 2.56293 -8.80664 0
M  V30 30542 O 4014.73 3.02979 -8.09349 0
M  V30 30543 C 4017 2.57523 -7.89775 0
M  V30 30544 O 4017.74 3.7668 -7.89438 0
M  V30 30545 C 4016.33 2.20997 -6.55446 0
M  V30 30546 O 4017.13 2.71895 -5.48509 0
M  V30 30547 C 4014.99 2.89693 -6.67988 0
M  V30 30548 H 4015.03 3.88793 -6.19859 0
M  V30 30549 H 4016.21 1.12046 -6.44229 0
M  V30 30550 H 4017.69 1.7746 -8.19711 0
M  V30 30551 H 4016 3.20706 -9.67112 0
M  V30 30552 H 4015.81 0.901032 -10.1892 0
M  V30 30553 H 4014.18 1.33049 -9.56592 0
M  V30 30554 H 4016.82 3.57847 -5.23962 0
M  V30 30555 P 4018.68 3.65191 -7.99657 0
M  V30 30556 O 4020.1 3.89332 -8.45794 0
M  V30 30557 O 4018.32 2.28472 -7.50807 0
M  V30 30558 O 4018.35 4.64972 -6.77611 0
M  V30 30559 C 4018.19 6.06319 -7.16352 0
M  V30 30560 C 4018.73 6.91731 -6.02299 0
M  V30 30561 O 4017.68 6.92449 -5.17064 0
M  V30 30562 C 4019.95 6.43627 -5.25174 0
M  V30 30563 O 4020.69 7.43686 -4.60469 0
M  V30 30564 C 4019.28 5.40275 -4.31916 0
M  V30 30565 O 4020.08 5.25279 -3.14438 0
M  V30 30566 C 4017.95 6.04847 -4.05327 0
M  V30 30567 H 4017.98 6.62195 -3.11261 0
M  V30 30568 H 4019.16 4.42556 -4.81383 0
M  V30 30569 H 4020.64 5.92458 -5.93643 0
M  V30 30570 H 4018.95 7.92655 -6.402 0
M  V30 30571 H 4018.76 6.26671 -8.0846 0
M  V30 30572 H 4017.13 6.29101 -7.32804 0
M  V30 30573 H 4019.77 5.84315 -2.47318 0
M  V30 30574 P 4021.63 7.39546 -4.75277 0
M  V30 30575 O 4023.05 7.84798 -5.01039 0
M  V30 30576 O 4021.27 5.9812 -5.08098 0
M  V30 30577 O 4021.3 7.57503 -3.1866 0
M  V30 30578 C 4021.14 8.97357 -2.74833 0
M  V30 30579 C 4021.68 9.07548 -1.32709 0
M  V30 30580 O 4020.63 8.62072 -0.606159 0
M  V30 30581 C 4022.9 8.25383 -0.938334 0
M  V30 30582 O 4023.64 8.74577 0.146954 0
M  V30 30583 C 4022.23 6.8802 -0.712559 0
M  V30 30584 O 4023.03 6.1189 0.194655 0
M  V30 30585 C 4020.9 7.27966 -0.139777 0
M  V30 30586 H 4020.93 7.25354 0.961601 0
M  V30 30587 H 4022.11 6.32557 -1.65702 0
M  V30 30588 H 4023.59 8.19355 -1.79097 0
M  V30 30589 H 4021.9 10.1294 -1.10029 0
M  V30 30590 H 4021.71 9.64276 -3.41316 0
M  V30 30591 H 4020.08 9.25417 -2.76357 0
M  V30 30592 H 4022.72 6.25267 1.07847 0
M  V30 30593 P 4024.58 8.791 -1.97403e-10 0
M  V30 30594 O 4026 9.31096 0.027933 0
M  V30 30595 O 4024.22 7.77869 -1.04071 0
M  V30 30596 O 4024.25 8.09533 1.41463 0
M  V30 30597 C 4024.09 9.0349 2.53943 0
M  V30 30598 C 4024.63 8.35226 3.79016 0
M  V30 30599 O 4023.58 7.57992 4.15078 0
M  V30 30600 C 4025.85 7.45087 3.67298 0
M  V30 30601 O 4026.59 7.27796 4.85194 0
M  V30 30602 C 4025.18 6.17323 3.12027 0
M  V30 30603 O 4025.98 5.04231 3.47188 0
M  V30 30604 C 4023.85 6.19961 3.81809 0
M  V30 30605 H 4023.88 5.58218 4.73051 0
M  V30 30606 H 4025.06 6.21726 2.02589 0
M  V30 30607 H 4026.55 7.86112 2.9231 0
M  V30 30608 H 4024.85 9.11627 4.55076 0
M  V30 30609 H 4024.66 9.9573 2.34194 0
M  V30 30610 H 4023.03 9.2792 2.67832 0
M  V30 30611 H 4025.67 4.67702 4.28772 0
M  V30 30612 P 4027.53 7.39546 4.75277 0
M  V30 30613 O 4028.95 7.81777 5.05738 0
M  V30 30614 O 4027.17 7.1065 3.32998 0
M  V30 30615 O 4027.21 6.04542 5.56673 0
M  V30 30616 C 4027.05 6.22772 7.02095 0
M  V30 30617 C 4027.59 4.97725 7.70406 0
M  V30 30618 O 4026.53 4.13256 7.58987 0
M  V30 30619 C 4028.8 4.28231 7.11815 0
M  V30 30620 O 4029.54 3.49945 8.01648 0
M  V30 30621 C 4028.13 3.5063 5.96244 0
M  V30 30622 O 4028.93 2.36482 5.64681 0
M  V30 30623 C 4026.8 3.15122 6.56374 0
M  V30 30624 H 4026.83 2.13853 6.99751 0
M  V30 30625 H 4028.01 4.13501 5.06559 0
M  V30 30626 H 4029.5 5.03285 6.70911 0
M  V30 30627 H 4027.8 5.20877 8.75697 0
M  V30 30628 H 4027.61 7.11046 7.35349 0
M  V30 30629 H 4025.98 6.35815 7.26986 0
M  V30 30630 H 4028.62 1.61644 6.13565 0
M  V30 30631 P 4030.48 3.65191 7.99657 0
M  V30 30632 O 4031.9 3.8425 8.48115 0
M  V30 30633 O 4030.12 4.17805 6.64342 0
M  V30 30634 O 4030.16 2.07613 7.95143 0
M  V30 30635 C 4030 1.44328 9.27336 0
M  V30 30636 C 4030.54 0.0220036 9.17197 0
M  V30 30637 O 4029.48 -0.626867 8.61923 0
M  V30 30638 C 4031.75 -0.24586 8.30336 0
M  V30 30639 O 4032.49 -1.39011 8.63583 0
M  V30 30640 C 4031.08 -0.273849 6.91158 0
M  V30 30641 O 4031.88 -1.06348 6.02892 0
M  V30 30642 C 4029.75 -0.897649 7.22545 0
M  V30 30643 H 4029.78 -1.9841 7.04286 0
M  V30 30644 H 4030.96 0.739928 6.497 0
M  V30 30645 H 4032.45 0.60668 8.36503 0
M  V30 30646 H 4030.75 -0.352479 10.1829 0
M  V30 30647 H 4030.56 2.00611 10.0304 0
M  V30 30648 H 4028.93 1.41843 9.55327 0
M  V30 30649 H 4031.57 -1.95734 6.03555 0
M  V30 30650 P 4033.43 -1.25109 8.70152 0
M  V30 30651 O 4034.85 -1.35274 9.21221 0
M  V30 30652 O 4033.07 -0.0769065 7.84762 0
M  V30 30653 O 4033.11 -2.55232 7.81161 0
M  V30 30654 C 4032.95 -3.79939 8.58154 0
M  V30 30655 C 4033.49 -4.94023 7.72785 0
M  V30 30656 O 4032.43 -5.18726 6.91205 0
M  V30 30657 C 4034.7 -4.69597 6.85231 0
M  V30 30658 O 4035.44 -5.83832 6.51337 0
M  V30 30659 C 4034.04 -3.96706 5.66633 0
M  V30 30660 O 4034.83 -4.15414 4.49689 0
M  V30 30661 C 4032.7 -4.66153 5.59313 0
M  V30 30662 H 4032.73 -5.47679 4.85214 0
M  V30 30663 H 4033.91 -2.89008 5.86566 0
M  V30 30664 H 4035.4 -4.0121 7.36511 0
M  V30 30665 H 4033.7 -5.80182 8.37584 0
M  V30 30666 H 4033.51 -3.73517 9.52265 0
M  V30 30667 H 4031.88 -3.97163 8.80359 0
M  V30 30668 H 4034.52 -4.90969 4.01921 0
M  V30 30669 P 4036.38 -5.75688 6.64379 0
M  V30 30670 O 4037.8 -6.11849 7.01846 0
M  V30 30671 O 4036.02 -4.30744 6.56026 0
M  V30 30672 O 4036.06 -6.37042 5.19165 0
M  V30 30673 C 4035.9 -7.83578 5.16515 0
M  V30 30674 C 4036.44 -8.33398 3.83019 0
M  V30 30675 O 4035.38 -8.10074 3.01034 0
M  V30 30676 C 4037.65 -7.65514 3.2257 0
M  V30 30677 O 4038.39 -8.4329 2.32297 0
M  V30 30678 C 4036.99 -6.40075 2.62207 0
M  V30 30679 O 4037.78 -5.92589 1.53712 0
M  V30 30680 C 4035.65 -6.9454 2.18503 0
M  V30 30681 H 4035.68 -7.23063 1.12091 0
M  V30 30682 H 4036.86 -5.6025 3.37201 0
M  V30 30683 H 4038.35 -7.35707 4.02681 0
M  V30 30684 H 4036.65 -9.40912 3.9095 0
M  V30 30685 H 4036.46 -8.29056 5.99158 0
M  V30 30686 H 4034.83 -8.10073 5.25882 0
M  V30 30687 H 4037.47 -6.30324 0.726794 0
M  V30 30688 P 4039.33 -8.4349 2.47671 0
M  V30 30689 O 4040.75 -8.94167 2.5964 0
M  V30 30690 O 4038.97 -7.1704 3.19006 0
M  V30 30691 O 4039.01 -8.16596 0.923387 0
M  V30 30692 C 4038.85 -9.38437 0.108857 0
M  V30 30693 C 4039.39 -9.08175 -1.28353 0
M  V30 30694 O 4038.33 -8.44229 -1.84713 0
M  V30 30695 C 4040.61 -8.18386 -1.42505 0
M  V30 30696 O 4041.34 -8.3501 -2.60497 0
M  V30 30697 C 4039.94 -6.80225 -1.25468 0
M  V30 30698 O 4040.74 -5.81621 -1.91066 0
M  V30 30699 C 4038.6 -7.02416 -1.9168 0
M  V30 30700 H 4038.63 -6.6888 -2.96621 0
M  V30 30701 H 4039.81 -6.53617 -0.192223 0
M  V30 30702 H 4041.3 -8.36622 -0.589963 0
M  V30 30703 H 4039.6 -10.0291 -1.79807 0
M  V30 30704 H 4039.41 -10.2138 0.558219 0
M  V30 30705 H 4037.78 -9.6579 0.0444202 0
M  V30 30706 H 4040.42 -5.69556 -2.79637 0
M  V30 30707 P 4042.28 -8.4349 -2.47671 0
M  V30 30708 O 4043.7 -8.92593 -2.65 0
M  V30 30709 O 4041.92 -7.7568 -1.19296 0
M  V30 30710 O 4041.96 -7.36886 -3.63805 0
M  V30 30711 C 4041.8 -7.95349 -4.982 0
M  V30 30712 C 4042.34 -6.94612 -5.98974 0
M  V30 30713 O 4041.28 -6.10347 -6.11815 0
M  V30 30714 C 4043.56 -6.11426 -5.62335 0
M  V30 30715 O 4044.29 -5.6162 -6.70584 0
M  V30 30716 C 4042.89 -5.04409 -4.73308 0
M  V30 30717 O 4043.69 -3.85992 -4.75183 0
M  V30 30718 C 4041.55 -4.8728 -5.41006 0
M  V30 30719 H 4041.58 -4.02333 -6.11157 0
M  V30 30720 H 4042.76 -5.39466 -3.69543 0
M  V30 30721 H 4044.25 -6.71916 -5.01943 0
M  V30 30722 H 4042.55 -7.4649 -6.93477 0
M  V30 30723 H 4042.36 -8.89416 -5.05237 0
M  V30 30724 H 4040.73 -8.14876 -5.18409 0
M  V30 30725 H 4043.37 -3.27957 -5.4317 0
M  V30 30726 P 4045.23 -5.75688 -6.64379 0
M  V30 30727 O 4046.65 -6.07627 -7.05504 0
M  V30 30728 O 4044.87 -5.88047 -5.19722 0
M  V30 30729 O 4044.91 -4.2322 -7.04443 0
M  V30 30730 C 4044.75 -3.99743 -8.4911 0
M  V30 30731 C 4045.29 -2.60516 -8.79425 0
M  V30 30732 O 4044.23 -1.82684 -8.4467 0
M  V30 30733 C 4046.51 -2.10343 -8.03628 0
M  V30 30734 O 4047.24 -1.09919 -8.67766 0
M  V30 30735 C 4045.84 -1.68446 -6.70876 0
M  V30 30736 O 4046.64 -0.678137 -6.08433 0
M  V30 30737 C 4044.5 -1.17436 -7.18567 0
M  V30 30738 H 4044.53 -0.0804732 -7.31656 0
M  V30 30739 H 4045.72 -2.54037 -6.02537 0
M  V30 30740 H 4047.2 -2.93881 -7.85526 0
M  V30 30741 H 4045.51 -2.53065 -9.86973 0
M  V30 30742 H 4045.32 -4.75072 -9.05887 0
M  V30 30743 H 4043.69 -4.05244 -8.76668 0
M  V30 30744 H 4046.32 0.177647 -6.34251 0
M  V30 30745 P 4048.18 -1.25109 -8.70152 0
M  V30 30746 O 4049.6 -1.29758 -9.22115 0
M  V30 30747 O 4047.82 -2.13714 -7.55141 0
M  V30 30748 O 4047.86 0.248149 -8.21425 0
M  V30 30749 C 4047.7 1.22792 -9.30533 0
M  V30 30750 C 4048.24 2.56293 -8.80664 0
M  V30 30751 O 4047.18 3.02944 -8.09255 0
M  V30 30752 C 4049.46 2.57523 -7.89775 0
M  V30 30753 O 4050.2 3.7668 -7.89438 0
M  V30 30754 C 4048.79 2.20997 -6.55446 0
M  V30 30755 O 4049.59 2.71302 -5.48691 0
M  V30 30756 C 4047.45 2.89693 -6.67988 0
M  V30 30757 N 4046.41 2.08895 -6.07487 0
M  V30 30758 C 4046.58 0.753809 -5.94137 0
M  V30 30759 N 4045.55 0.146592 -5.38801 0
M  V30 30760 C 4044.67 1.1768 -5.13693 0
M  V30 30761 C 4043.4 1.17563 -4.52477 0
M  V30 30762 N 4042.83 2.41918 -4.45789 0
M  V30 30763 C 4043.44 3.56493 -4.90792 0
M  V30 30764 N 4044.61 3.61423 -5.47817 0
M  V30 30765 C 4045.19 2.37779 -5.5588 0
M  V30 30766 H 4048.67 1.12673 -6.44018 0
M  V30 30767 H 4050.15 1.7746 -8.19711 0
M  V30 30768 H 4048.46 3.21673 -9.66791 0
M  V30 30769 H 4048.27 0.901032 -10.1892 0
M  V30 30770 H 4046.64 1.33049 -9.56592 0
M  V30 30771 H 4047.48 0.233081 -6.26266 0
M  V30 30772 H 4049.28 3.5779 -5.23879 0
M  V30 30773 P 4051.13 3.65191 -7.99657 0
M  V30 30774 O 4052.55 3.89332 -8.45794 0
M  V30 30775 O 4050.77 2.28472 -7.50807 0
M  V30 30776 O 4050.81 4.64972 -6.77611 0
M  V30 30777 C 4050.65 6.06319 -7.16352 0
M  V30 30778 C 4051.19 6.91731 -6.02299 0
M  V30 30779 O 4050.13 6.92449 -5.17064 0
M  V30 30780 C 4052.41 6.43627 -5.25174 0
M  V30 30781 O 4053.15 7.43686 -4.60469 0
M  V30 30782 C 4051.74 5.40275 -4.31916 0
M  V30 30783 O 4052.54 5.25279 -3.14438 0
M  V30 30784 C 4050.4 6.04847 -4.05327 0
M  V30 30785 H 4050.43 6.62195 -3.11261 0
M  V30 30786 H 4051.62 4.42556 -4.81383 0
M  V30 30787 H 4053.1 5.92458 -5.93643 0
M  V30 30788 H 4051.41 7.92655 -6.402 0
M  V30 30789 H 4051.22 6.26671 -8.0846 0
M  V30 30790 H 4049.59 6.29101 -7.32804 0
M  V30 30791 H 4052.23 5.84315 -2.47318 0
M  V30 30792 P 4054.08 7.39546 -4.75277 0
M  V30 30793 O 4055.51 7.84798 -5.01039 0
M  V30 30794 O 4053.72 5.9812 -5.08098 0
M  V30 30795 O 4053.76 7.57503 -3.1866 0
M  V30 30796 C 4053.6 8.97357 -2.74833 0
M  V30 30797 C 4054.14 9.07548 -1.32709 0
M  V30 30798 O 4053.08 8.62072 -0.606159 0
M  V30 30799 C 4055.36 8.25383 -0.938334 0
M  V30 30800 O 4056.1 8.74577 0.146954 0
M  V30 30801 C 4054.69 6.8802 -0.712559 0
M  V30 30802 O 4055.49 6.1189 0.194655 0
M  V30 30803 C 4053.35 7.27966 -0.139777 0
M  V30 30804 H 4053.38 7.25354 0.961601 0
M  V30 30805 H 4054.57 6.32557 -1.65702 0
M  V30 30806 H 4056.05 8.19355 -1.79097 0
M  V30 30807 H 4054.36 10.1294 -1.10029 0
M  V30 30808 H 4054.17 9.64276 -3.41316 0
M  V30 30809 H 4052.54 9.25417 -2.76357 0
M  V30 30810 H 4055.18 6.25267 1.07847 0
M  V30 30811 P 4057.03 8.791 -2.02589e-10 0
M  V30 30812 O 4058.46 9.31096 0.027933 0
M  V30 30813 O 4056.67 7.77869 -1.04071 0
M  V30 30814 O 4056.71 8.09533 1.41463 0
M  V30 30815 C 4056.55 9.0349 2.53943 0
M  V30 30816 C 4057.09 8.35226 3.79016 0
M  V30 30817 O 4056.03 7.57992 4.15078 0
M  V30 30818 C 4058.31 7.45087 3.67298 0
M  V30 30819 O 4059.05 7.27796 4.85194 0
M  V30 30820 C 4057.64 6.17323 3.12027 0
M  V30 30821 O 4058.44 5.04231 3.47188 0
M  V30 30822 C 4056.3 6.19961 3.81809 0
M  V30 30823 H 4056.33 5.58218 4.73051 0
M  V30 30824 H 4057.52 6.21726 2.02589 0
M  V30 30825 H 4059 7.86112 2.9231 0
M  V30 30826 H 4057.31 9.11627 4.55076 0
M  V30 30827 H 4057.12 9.9573 2.34194 0
M  V30 30828 H 4055.49 9.2792 2.67832 0
M  V30 30829 H 4058.13 4.67702 4.28772 0
M  V30 30830 P 4059.98 7.39546 4.75277 0
M  V30 30831 O 4061.41 7.81777 5.05738 0
M  V30 30832 O 4059.62 7.1065 3.32998 0
M  V30 30833 O 4059.66 6.04542 5.56673 0
M  V30 30834 C 4059.5 6.22772 7.02095 0
M  V30 30835 C 4060.04 4.97725 7.70406 0
M  V30 30836 O 4058.99 4.13256 7.58987 0
M  V30 30837 C 4061.26 4.28231 7.11815 0
M  V30 30838 O 4062 3.49945 8.01648 0
M  V30 30839 C 4060.59 3.5063 5.96244 0
M  V30 30840 O 4061.39 2.36482 5.64681 0
M  V30 30841 C 4059.25 3.15122 6.56374 0
M  V30 30842 H 4059.29 2.13853 6.99751 0
M  V30 30843 H 4060.47 4.13501 5.06559 0
M  V30 30844 H 4061.95 5.03285 6.70911 0
M  V30 30845 H 4060.26 5.20877 8.75697 0
M  V30 30846 H 4060.07 7.11046 7.35349 0
M  V30 30847 H 4058.44 6.35815 7.26986 0
M  V30 30848 H 4061.08 1.61644 6.13565 0
M  V30 30849 P 4062.93 3.65191 7.99657 0
M  V30 30850 O 4064.34 3.90823 8.51272 0
M  V30 30851 O 4062.56 4.23191 6.66972 0
M  V30 30852 O 4062.61 2.07587 7.95046 0
M  V30 30853 C 4062.45 1.44328 9.27336 0
M  V30 30854 C 4062.99 0.0220012 9.17097 0
M  V30 30855 O 4061.94 -0.626794 8.61824 0
M  V30 30856 C 4064.21 -0.24586 8.30336 0
M  V30 30857 O 4064.95 -1.39011 8.63583 0
M  V30 30858 C 4063.54 -0.273849 6.91158 0
M  V30 30859 O 4064.34 -1.06331 6.02794 0
M  V30 30860 C 4062.2 -0.897649 7.22545 0
M  V30 30861 N 4061.16 -0.292839 6.41732 0
M  V30 30862 C 4060.13 -1.08701 5.98712 0
M  V30 30863 O 4060.16 -2.31211 6.24471 0
M  V30 30864 N 4059.11 -0.533391 5.28415 0
M  V30 30865 C 4059.16 0.770866 4.98576 0
M  V30 30866 C 4060.26 1.59049 5.38086 0
M  V30 30867 C 4061.22 1.01866 6.10256 0
M  V30 30868 H 4062.24 -1.98383 7.04189 0
M  V30 30869 H 4063.42 0.733318 6.49674 0
M  V30 30870 H 4064.9 0.598386 8.36663 0
M  V30 30871 H 4063.21 -0.362662 10.1825 0
M  V30 30872 H 4063.02 2.00611 10.0304 0
M  V30 30873 H 4061.39 1.41828 9.55228 0
M  V30 30874 H 4060.31 2.6415 5.10622 0
M  V30 30875 H 4062.07 1.61983 6.44042 0
M  V30 30876 H 4064.12 -1.97777 6.14035 0
M  V30 30877 P 4065.89 -1.25109 8.70152 0
M  V30 30878 O 4067.31 -1.35274 9.21221 0
M  V30 30879 O 4065.53 -0.0769065 7.84762 0
M  V30 30880 O 4065.56 -2.55232 7.81161 0
M  V30 30881 C 4065.4 -3.79939 8.58154 0
M  V30 30882 C 4065.94 -4.94023 7.72785 0
M  V30 30883 O 4064.89 -5.18726 6.91205 0
M  V30 30884 C 4067.16 -4.69597 6.85231 0
M  V30 30885 O 4067.9 -5.83832 6.51337 0
M  V30 30886 C 4066.49 -3.96706 5.66633 0
M  V30 30887 O 4067.29 -4.15414 4.49689 0
M  V30 30888 C 4065.15 -4.66153 5.59313 0
M  V30 30889 H 4065.19 -5.47679 4.85214 0
M  V30 30890 H 4066.37 -2.89008 5.86566 0
M  V30 30891 H 4067.85 -4.0121 7.36511 0
M  V30 30892 H 4066.16 -5.80182 8.37584 0
M  V30 30893 H 4065.97 -3.73517 9.52265 0
M  V30 30894 H 4064.34 -3.97163 8.80359 0
M  V30 30895 H 4066.98 -4.90969 4.01921 0
M  V30 30896 P 4068.84 -5.75688 6.64379 0
M  V30 30897 O 4070.26 -6.11849 7.01846 0
M  V30 30898 O 4068.48 -4.30744 6.56026 0
M  V30 30899 O 4068.51 -6.37042 5.19165 0
M  V30 30900 C 4068.35 -7.83578 5.16515 0
M  V30 30901 C 4068.89 -8.33398 3.83019 0
M  V30 30902 O 4067.84 -8.10074 3.01034 0
M  V30 30903 C 4070.11 -7.65514 3.2257 0
M  V30 30904 O 4070.85 -8.4329 2.32297 0
M  V30 30905 C 4069.44 -6.40075 2.62207 0
M  V30 30906 O 4070.24 -5.92589 1.53712 0
M  V30 30907 C 4068.11 -6.9454 2.18503 0
M  V30 30908 H 4068.14 -7.23063 1.12091 0
M  V30 30909 H 4069.32 -5.6025 3.37201 0
M  V30 30910 H 4070.8 -7.35707 4.02681 0
M  V30 30911 H 4069.11 -9.40912 3.9095 0
M  V30 30912 H 4068.92 -8.29056 5.99158 0
M  V30 30913 H 4067.29 -8.10073 5.25882 0
M  V30 30914 H 4069.93 -6.30324 0.726794 0
M  V30 30915 P 4071.79 -8.4349 2.47671 0
M  V30 30916 O 4073.21 -8.94167 2.5964 0
M  V30 30917 O 4071.43 -7.1704 3.19006 0
M  V30 30918 O 4071.46 -8.16596 0.923387 0
M  V30 30919 C 4071.3 -9.38437 0.108857 0
M  V30 30920 C 4071.84 -9.08175 -1.28353 0
M  V30 30921 O 4070.79 -8.44229 -1.84713 0
M  V30 30922 C 4073.06 -8.18386 -1.42505 0
M  V30 30923 O 4073.8 -8.3501 -2.60497 0
M  V30 30924 C 4072.39 -6.80225 -1.25468 0
M  V30 30925 O 4073.19 -5.81621 -1.91066 0
M  V30 30926 C 4071.06 -7.02416 -1.9168 0
M  V30 30927 H 4071.09 -6.6888 -2.96621 0
M  V30 30928 H 4072.27 -6.53617 -0.192223 0
M  V30 30929 H 4073.75 -8.36622 -0.589963 0
M  V30 30930 H 4072.06 -10.0291 -1.79807 0
M  V30 30931 H 4071.87 -10.2138 0.558219 0
M  V30 30932 H 4070.24 -9.6579 0.0444202 0
M  V30 30933 H 4072.88 -5.69556 -2.79637 0
M  V30 30934 P 4074.74 -8.4349 -2.47671 0
M  V30 30935 O 4076.16 -8.92593 -2.65 0
M  V30 30936 O 4074.38 -7.7568 -1.19296 0
M  V30 30937 O 4074.41 -7.36886 -3.63805 0
M  V30 30938 C 4074.25 -7.95349 -4.982 0
M  V30 30939 C 4074.79 -6.94612 -5.98974 0
M  V30 30940 O 4073.74 -6.10347 -6.11815 0
M  V30 30941 C 4076.01 -6.11426 -5.62335 0
M  V30 30942 O 4076.75 -5.6162 -6.70584 0
M  V30 30943 C 4075.34 -5.04409 -4.73308 0
M  V30 30944 O 4076.14 -3.85992 -4.75183 0
M  V30 30945 C 4074.01 -4.8728 -5.41006 0
M  V30 30946 H 4074.04 -4.02333 -6.11157 0
M  V30 30947 H 4075.22 -5.39466 -3.69543 0
M  V30 30948 H 4076.71 -6.71916 -5.01943 0
M  V30 30949 H 4075.01 -7.4649 -6.93477 0
M  V30 30950 H 4074.82 -8.89416 -5.05237 0
M  V30 30951 H 4073.19 -8.14876 -5.18409 0
M  V30 30952 H 4075.83 -3.27957 -5.4317 0
M  V30 30953 P 4077.69 -5.75688 -6.64379 0
M  V30 30954 O 4079.11 -6.07627 -7.05504 0
M  V30 30955 O 4077.33 -5.88047 -5.19722 0
M  V30 30956 O 4077.36 -4.2322 -7.04443 0
M  V30 30957 C 4077.2 -3.99743 -8.4911 0
M  V30 30958 C 4077.74 -2.60516 -8.79425 0
M  V30 30959 O 4076.69 -1.82684 -8.4467 0
M  V30 30960 C 4078.96 -2.10343 -8.03628 0
M  V30 30961 O 4079.7 -1.09919 -8.67766 0
M  V30 30962 C 4078.29 -1.68446 -6.70876 0
M  V30 30963 O 4079.09 -0.678137 -6.08433 0
M  V30 30964 C 4076.96 -1.17436 -7.18567 0
M  V30 30965 H 4076.99 -0.0804732 -7.31656 0
M  V30 30966 H 4078.17 -2.54037 -6.02537 0
M  V30 30967 H 4079.66 -2.93881 -7.85526 0
M  V30 30968 H 4077.96 -2.53065 -9.86973 0
M  V30 30969 H 4077.77 -4.75072 -9.05887 0
M  V30 30970 H 4076.14 -4.05244 -8.76668 0
M  V30 30971 H 4078.78 0.177647 -6.34251 0
M  V30 30972 P 4080.64 -1.25109 -8.70152 0
M  V30 30973 O 4082.06 -1.29744 -9.22016 0
M  V30 30974 O 4080.28 -2.13714 -7.55141 0
M  V30 30975 O 4080.32 0.248149 -8.21425 0
M  V30 30976 C 4080.16 1.22779 -9.30434 0
M  V30 30977 C 4080.7 2.56293 -8.80664 0
M  V30 30978 O 4079.64 3.02979 -8.09349 0
M  V30 30979 C 4081.91 2.57523 -7.89775 0
M  V30 30980 O 4082.65 3.7668 -7.89438 0
M  V30 30981 C 4081.24 2.20997 -6.55446 0
M  V30 30982 O 4082.04 2.71895 -5.48509 0
M  V30 30983 C 4079.91 2.89693 -6.67988 0
M  V30 30984 H 4079.94 3.88793 -6.19859 0
M  V30 30985 H 4081.12 1.12046 -6.44229 0
M  V30 30986 H 4082.61 1.7746 -8.19711 0
M  V30 30987 H 4080.91 3.20706 -9.67112 0
M  V30 30988 H 4080.72 0.901032 -10.1892 0
M  V30 30989 H 4079.09 1.33049 -9.56592 0
M  V30 30990 H 4081.73 3.57847 -5.23962 0
M  V30 30991 P 4083.59 3.65191 -7.99657 0
M  V30 30992 O 4085.01 3.89416 -8.45976 0
M  V30 30993 O 4083.23 2.28472 -7.50807 0
M  V30 30994 O 4083.27 4.64972 -6.77611 0
M  V30 30995 C 4083.11 6.06319 -7.16352 0
M  V30 30996 C 4083.65 6.91655 -6.02234 0
M  V30 30997 O 4082.59 6.92449 -5.17064 0
M  V30 30998 C 4084.86 6.43627 -5.25174 0
M  V30 30999 O 4085.6 7.43686 -4.60469 0
M  V30 31000 C 4084.2 5.40275 -4.31916 0
M  V30 31001 O 4084.99 5.25193 -3.14386 0
M  V30 31002 C 4082.86 6.04847 -4.05327 0
M  V30 31003 N 4081.81 5.04166 -3.98114 0
M  V30 31004 C 4081.88 3.96049 -4.75587 0
M  V30 31005 N 4080.83 3.15559 -4.54006 0
M  V30 31006 C 4080.1 3.78802 -3.62491 0
M  V30 31007 C 4078.79 3.476 -3.10071 0
M  V30 31008 O 4078.06 2.51136 -3.37021 0
M  V30 31009 N 4078.36 4.39088 -2.19956 0
M  V30 31010 C 4079.11 5.53215 -1.81733 0
M  V30 31011 N 4078.51 6.31963 -0.860928 0
M  V30 31012 N 4080.26 5.86688 -2.32562 0
M  V30 31013 C 4080.72 4.97525 -3.23407 0
M  V30 31014 H 4082.89 6.62195 -3.11261 0
M  V30 31015 H 4084.07 4.42488 -4.8131 0
M  V30 31016 H 4085.56 5.93051 -5.9305 0
M  V30 31017 H 4083.86 7.92655 -6.402 0
M  V30 31018 H 4083.67 6.26671 -8.0846 0
M  V30 31019 H 4082.04 6.29101 -7.32804 0
M  V30 31020 H 4077.47 4.25523 -1.77604 0
M  V30 31021 H 4082.67 3.75576 -5.47333 0
M  V30 31022 H 4077.6 6.04684 -0.468946 0
M  V30 31023 H 4078.98 7.18054 -0.542422 0
M  V30 31024 H 4084.68 5.84223 -2.47279 0
M  V30 31025 P 4086.54 7.39546 -4.75277 0
M  V30 31026 O 4087.96 7.84798 -5.01039 0
M  V30 31027 O 4086.18 5.9812 -5.08098 0
M  V30 31028 O 4086.22 7.57503 -3.1866 0
M  V30 31029 C 4086.06 8.97357 -2.74833 0
M  V30 31030 C 4086.6 9.07548 -1.32709 0
M  V30 31031 O 4085.54 8.62072 -0.606159 0
M  V30 31032 C 4087.81 8.25383 -0.938334 0
M  V30 31033 O 4088.55 8.74577 0.146954 0
M  V30 31034 C 4087.15 6.8802 -0.712559 0
M  V30 31035 O 4087.94 6.1189 0.194655 0
M  V30 31036 C 4085.81 7.27966 -0.139777 0
M  V30 31037 H 4085.84 7.25354 0.961601 0
M  V30 31038 H 4087.02 6.32557 -1.65702 0
M  V30 31039 H 4088.51 8.19355 -1.79097 0
M  V30 31040 H 4086.81 10.1294 -1.10029 0
M  V30 31041 H 4086.62 9.64276 -3.41316 0
M  V30 31042 H 4084.99 9.25417 -2.76357 0
M  V30 31043 H 4087.63 6.25267 1.07847 0
M  V30 31044 P 4089.49 8.791 -2.07776e-10 0
M  V30 31045 O 4090.91 9.31096 0.027933 0
M  V30 31046 O 4089.13 7.77869 -1.04071 0
M  V30 31047 O 4089.17 8.09533 1.41463 0
M  V30 31048 C 4089.01 9.0349 2.53943 0
M  V30 31049 C 4089.55 8.35226 3.79016 0
M  V30 31050 O 4088.49 7.57992 4.15078 0
M  V30 31051 C 4090.77 7.45087 3.67298 0
M  V30 31052 O 4091.5 7.27796 4.85194 0
M  V30 31053 C 4090.1 6.17323 3.12027 0
M  V30 31054 O 4090.9 5.04231 3.47188 0
M  V30 31055 C 4088.76 6.19961 3.81809 0
M  V30 31056 H 4088.79 5.58218 4.73051 0
M  V30 31057 H 4089.97 6.21726 2.02589 0
M  V30 31058 H 4091.46 7.86112 2.9231 0
M  V30 31059 H 4089.76 9.11627 4.55076 0
M  V30 31060 H 4089.57 9.9573 2.34194 0
M  V30 31061 H 4087.94 9.2792 2.67832 0
M  V30 31062 H 4090.58 4.67702 4.28772 0
M  V30 31063 P 4092.44 7.39546 4.75277 0
M  V30 31064 O 4093.86 7.81861 5.05793 0
M  V30 31065 O 4092.08 7.1065 3.32998 0
M  V30 31066 O 4092.12 6.04542 5.56673 0
M  V30 31067 C 4091.96 6.22839 7.02169 0
M  V30 31068 C 4092.5 4.97725 7.70406 0
M  V30 31069 O 4091.44 4.13208 7.58899 0
M  V30 31070 C 4093.72 4.28231 7.11815 0
M  V30 31071 O 4094.45 3.49945 8.01648 0
M  V30 31072 C 4093.05 3.5063 5.96244 0
M  V30 31073 O 4093.85 2.37008 5.64352 0
M  V30 31074 C 4091.71 3.15122 6.56374 0
M  V30 31075 N 4090.67 3.22311 5.55692 0
M  V30 31076 C 4090.84 3.99655 4.46046 0
M  V30 31077 N 4089.81 3.97599 3.63918 0
M  V30 31078 C 4088.92 3.11159 4.25334 0
M  V30 31079 C 4087.66 2.64972 3.85157 0
M  V30 31080 N 4087.09 1.78482 4.74759 0
M  V30 31081 C 4087.69 1.37463 5.90819 0
M  V30 31082 N 4088.87 1.7733 6.31889 0
M  V30 31083 C 4089.45 2.64393 5.43725 0
M  V30 31084 H 4092.92 4.12931 5.06895 0
M  V30 31085 H 4094.41 5.03285 6.70911 0
M  V30 31086 H 4092.71 5.20001 8.76217 0
M  V30 31087 H 4092.52 7.11046 7.35349 0
M  V30 31088 H 4090.89 6.35815 7.26986 0
M  V30 31089 H 4091.74 4.58037 4.27732 0
M  V30 31090 H 4093.53 1.61619 6.13468 0
M  V30 31091 P 4095.39 3.65191 7.99657 0
M  V30 31092 O 4096.81 3.8425 8.48115 0
M  V30 31093 O 4095.03 4.17805 6.64342 0
M  V30 31094 O 4095.07 2.07613 7.95143 0
M  V30 31095 C 4094.91 1.44328 9.27336 0
M  V30 31096 C 4095.45 0.0220036 9.17197 0
M  V30 31097 O 4094.39 -0.626867 8.61923 0
M  V30 31098 C 4096.67 -0.24586 8.30336 0
M  V30 31099 O 4097.4 -1.39011 8.63583 0
M  V30 31100 C 4096 -0.273849 6.91158 0
M  V30 31101 O 4096.8 -1.06348 6.02892 0
M  V30 31102 C 4094.66 -0.897649 7.22545 0
M  V30 31103 H 4094.69 -1.9841 7.04286 0
M  V30 31104 H 4095.88 0.739928 6.497 0
M  V30 31105 H 4097.36 0.60668 8.36503 0
M  V30 31106 H 4095.67 -0.352479 10.1829 0
M  V30 31107 H 4095.48 2.00611 10.0304 0
M  V30 31108 H 4093.85 1.41843 9.55327 0
M  V30 31109 H 4096.48 -1.95734 6.03555 0
M  V30 31110 P 4098.34 -1.25109 8.70152 0
M  V30 31111 O 4099.76 -1.35274 9.21221 0
M  V30 31112 O 4097.98 -0.0769065 7.84762 0
M  V30 31113 O 4098.02 -2.55232 7.81161 0
M  V30 31114 C 4097.86 -3.79939 8.58154 0
M  V30 31115 C 4098.4 -4.94023 7.72785 0
M  V30 31116 O 4097.34 -5.18726 6.91205 0
M  V30 31117 C 4099.62 -4.69597 6.85231 0
M  V30 31118 O 4100.35 -5.83832 6.51337 0
M  V30 31119 C 4098.95 -3.96706 5.66633 0
M  V30 31120 O 4099.75 -4.15414 4.49689 0
M  V30 31121 C 4097.61 -4.66153 5.59313 0
M  V30 31122 H 4097.64 -5.47679 4.85214 0
M  V30 31123 H 4098.83 -2.89008 5.86566 0
M  V30 31124 H 4100.31 -4.0121 7.36511 0
M  V30 31125 H 4098.62 -5.80182 8.37584 0
M  V30 31126 H 4098.43 -3.73517 9.52265 0
M  V30 31127 H 4096.8 -3.97163 8.80359 0
M  V30 31128 H 4099.43 -4.90969 4.01921 0
M  V30 31129 P 4101.29 -5.75688 6.64379 0
M  V30 31130 O 4102.71 -6.11849 7.01846 0
M  V30 31131 O 4100.93 -4.30744 6.56026 0
M  V30 31132 O 4100.97 -6.37042 5.19165 0
M  V30 31133 C 4100.81 -7.83578 5.16515 0
M  V30 31134 C 4101.35 -8.33398 3.83019 0
M  V30 31135 O 4100.29 -8.10074 3.01034 0
M  V30 31136 C 4102.57 -7.65514 3.2257 0
M  V30 31137 O 4103.31 -8.4329 2.32297 0
M  V30 31138 C 4101.9 -6.40075 2.62207 0
M  V30 31139 O 4102.7 -5.92589 1.53712 0
M  V30 31140 C 4100.56 -6.9454 2.18503 0
M  V30 31141 H 4100.59 -7.23063 1.12091 0
M  V30 31142 H 4101.78 -5.6025 3.37201 0
M  V30 31143 H 4103.26 -7.35707 4.02681 0
M  V30 31144 H 4101.57 -9.40912 3.9095 0
M  V30 31145 H 4101.38 -8.29056 5.99158 0
M  V30 31146 H 4099.75 -8.10073 5.25882 0
M  V30 31147 H 4102.39 -6.30324 0.726794 0
M  V30 31148 P 4104.24 -8.4349 2.47671 0
M  V30 31149 O 4105.66 -8.94359 2.59696 0
M  V30 31150 O 4103.88 -7.1704 3.19006 0
M  V30 31151 O 4103.92 -8.16596 0.923387 0
M  V30 31152 C 4103.76 -9.38437 0.108857 0
M  V30 31153 C 4104.3 -9.08076 -1.28339 0
M  V30 31154 O 4103.24 -8.44229 -1.84713 0
M  V30 31155 C 4105.52 -8.18386 -1.42505 0
M  V30 31156 O 4106.26 -8.3501 -2.60497 0
M  V30 31157 C 4104.85 -6.80225 -1.25468 0
M  V30 31158 O 4105.65 -5.81526 -1.91035 0
M  V30 31159 C 4103.51 -7.02416 -1.9168 0
M  V30 31160 N 4102.47 -6.31033 -1.20314 0
M  V30 31161 C 4102.53 -6.18781 0.121293 0
M  V30 31162 N 4101.49 -5.49762 0.588272 0
M  V30 31163 C 4100.75 -5.22015 -0.488988 0
M  V30 31164 C 4099.45 -4.61966 -0.596448 0
M  V30 31165 O 4098.71 -4.19162 0.309059 0
M  V30 31166 N 4099.02 -4.53773 -1.878 0
M  V30 31167 C 4099.76 -4.99623 -2.99082 0
M  V30 31168 N 4099.17 -4.78912 -4.21227 0
M  V30 31169 N 4100.92 -5.59957 -2.91093 0
M  V30 31170 C 4101.37 -5.70225 -1.64218 0
M  V30 31171 H 4103.54 -6.6888 -2.96621 0
M  V30 31172 H 4104.73 -6.53517 -0.192194 0
M  V30 31173 H 4106.21 -8.36563 -0.598329 0
M  V30 31174 H 4104.52 -10.0291 -1.79807 0
M  V30 31175 H 4104.33 -10.2138 0.558219 0
M  V30 31176 H 4102.7 -9.6579 0.0444202 0
M  V30 31177 H 4098.12 -4.12883 -2.05283 0
M  V30 31178 H 4103.33 -6.59596 0.745856 0
M  V30 31179 H 4098.26 -4.31425 -4.2628 0
M  V30 31180 H 4099.63 -5.11219 -5.07148 0
M  V30 31181 H 4105.34 -5.69466 -2.79593 0
M  V30 31182 P 4107.19 -8.4349 -2.47671 0
M  V30 31183 O 4108.62 -8.92593 -2.65 0
M  V30 31184 O 4106.83 -7.7568 -1.19296 0
M  V30 31185 O 4106.87 -7.36886 -3.63805 0
M  V30 31186 C 4106.71 -7.95349 -4.982 0
M  V30 31187 C 4107.25 -6.94612 -5.98974 0
M  V30 31188 O 4106.19 -6.10347 -6.11815 0
M  V30 31189 C 4108.47 -6.11426 -5.62335 0
M  V30 31190 O 4109.21 -5.6162 -6.70584 0
M  V30 31191 C 4107.8 -5.04409 -4.73308 0
M  V30 31192 O 4108.6 -3.85992 -4.75183 0
M  V30 31193 C 4106.46 -4.8728 -5.41006 0
M  V30 31194 H 4106.49 -4.02333 -6.11157 0
M  V30 31195 H 4107.68 -5.39466 -3.69543 0
M  V30 31196 H 4109.16 -6.71916 -5.01943 0
M  V30 31197 H 4107.47 -7.4649 -6.93477 0
M  V30 31198 H 4107.28 -8.89416 -5.05237 0
M  V30 31199 H 4105.65 -8.14876 -5.18409 0
M  V30 31200 H 4108.29 -3.27957 -5.4317 0
M  V30 31201 P 4110.14 -5.75688 -6.64379 0
M  V30 31202 O 4111.57 -6.07627 -7.05504 0
M  V30 31203 O 4109.78 -5.88047 -5.19722 0
M  V30 31204 O 4109.82 -4.2322 -7.04443 0
M  V30 31205 C 4109.66 -3.99743 -8.4911 0
M  V30 31206 C 4110.2 -2.60516 -8.79425 0
M  V30 31207 O 4109.15 -1.82684 -8.4467 0
M  V30 31208 C 4111.42 -2.10343 -8.03628 0
M  V30 31209 O 4112.16 -1.09919 -8.67766 0
M  V30 31210 C 4110.75 -1.68446 -6.70876 0
M  V30 31211 O 4111.55 -0.678137 -6.08433 0
M  V30 31212 C 4109.41 -1.17436 -7.18567 0
M  V30 31213 H 4109.45 -0.0804732 -7.31656 0
M  V30 31214 H 4110.63 -2.54037 -6.02537 0
M  V30 31215 H 4112.11 -2.93881 -7.85526 0
M  V30 31216 H 4110.42 -2.53065 -9.86973 0
M  V30 31217 H 4110.23 -4.75072 -9.05887 0
M  V30 31218 H 4108.6 -4.05244 -8.76668 0
M  V30 31219 H 4111.24 0.177647 -6.34251 0
M  V30 31220 P 4113.09 -1.25109 -8.70152 0
M  V30 31221 O 4114.52 -1.29744 -9.22016 0
M  V30 31222 O 4112.73 -2.13714 -7.55141 0
M  V30 31223 O 4112.77 0.248149 -8.21425 0
M  V30 31224 C 4112.61 1.22779 -9.30434 0
M  V30 31225 C 4113.15 2.56293 -8.80664 0
M  V30 31226 O 4112.1 3.02979 -8.09349 0
M  V30 31227 C 4114.37 2.57523 -7.89775 0
M  V30 31228 O 4115.11 3.7668 -7.89438 0
M  V30 31229 C 4113.7 2.20997 -6.55446 0
M  V30 31230 O 4114.5 2.71895 -5.48509 0
M  V30 31231 C 4112.36 2.89693 -6.67988 0
M  V30 31232 H 4112.4 3.88793 -6.19859 0
M  V30 31233 H 4113.58 1.12046 -6.44229 0
M  V30 31234 H 4115.06 1.7746 -8.19711 0
M  V30 31235 H 4113.37 3.20706 -9.67112 0
M  V30 31236 H 4113.18 0.901032 -10.1892 0
M  V30 31237 H 4111.55 1.33049 -9.56592 0
M  V30 31238 H 4114.19 3.57847 -5.23962 0
M  V30 31239 P 4116.05 3.65191 -7.99657 0
M  V30 31240 O 4117.47 3.89332 -8.45794 0
M  V30 31241 O 4115.69 2.28472 -7.50807 0
M  V30 31242 O 4115.72 4.64972 -6.77611 0
M  V30 31243 C 4115.56 6.06319 -7.16352 0
M  V30 31244 C 4116.1 6.91731 -6.02299 0
M  V30 31245 O 4115.05 6.92449 -5.17064 0
M  V30 31246 C 4117.32 6.43627 -5.25174 0
M  V30 31247 O 4118.06 7.43686 -4.60469 0
M  V30 31248 C 4116.65 5.40275 -4.31916 0
M  V30 31249 O 4117.45 5.25279 -3.14438 0
M  V30 31250 C 4115.31 6.04847 -4.05327 0
M  V30 31251 H 4115.35 6.62195 -3.11261 0
M  V30 31252 H 4116.53 4.42556 -4.81383 0
M  V30 31253 H 4118.01 5.92458 -5.93643 0
M  V30 31254 H 4116.32 7.92655 -6.402 0
M  V30 31255 H 4116.13 6.26671 -8.0846 0
M  V30 31256 H 4114.5 6.29101 -7.32804 0
M  V30 31257 H 4117.14 5.84315 -2.47318 0
M  V30 31258 P 4119 7.39546 -4.75277 0
M  V30 31259 O 4120.42 7.84798 -5.01039 0
M  V30 31260 O 4118.64 5.9812 -5.08098 0
M  V30 31261 O 4118.67 7.57503 -3.1866 0
M  V30 31262 C 4118.51 8.97357 -2.74833 0
M  V30 31263 C 4119.05 9.07548 -1.32709 0
M  V30 31264 O 4118 8.62072 -0.606159 0
M  V30 31265 C 4120.27 8.25383 -0.938334 0
M  V30 31266 O 4121.01 8.74577 0.146954 0
M  V30 31267 C 4119.6 6.8802 -0.712559 0
M  V30 31268 O 4120.4 6.1189 0.194655 0
M  V30 31269 C 4118.26 7.27966 -0.139777 0
M  V30 31270 H 4118.3 7.25354 0.961601 0
M  V30 31271 H 4119.48 6.32557 -1.65702 0
M  V30 31272 H 4120.96 8.19355 -1.79097 0
M  V30 31273 H 4119.27 10.1294 -1.10029 0
M  V30 31274 H 4119.08 9.64276 -3.41316 0
M  V30 31275 H 4117.45 9.25417 -2.76357 0
M  V30 31276 H 4120.09 6.25267 1.07847 0
M  V30 31277 P 4121.95 8.791 -2.12963e-10 0
M  V30 31278 O 4123.37 9.31096 0.027933 0
M  V30 31279 O 4121.59 7.77869 -1.04071 0
M  V30 31280 O 4121.62 8.09533 1.41463 0
M  V30 31281 C 4121.46 9.0349 2.53943 0
M  V30 31282 C 4122 8.35226 3.79016 0
M  V30 31283 O 4120.95 7.57992 4.15078 0
M  V30 31284 C 4123.22 7.45087 3.67298 0
M  V30 31285 O 4123.96 7.27796 4.85194 0
M  V30 31286 C 4122.55 6.17323 3.12027 0
M  V30 31287 O 4123.35 5.04231 3.47188 0
M  V30 31288 C 4121.22 6.19961 3.81809 0
M  V30 31289 H 4121.25 5.58218 4.73051 0
M  V30 31290 H 4122.43 6.21726 2.02589 0
M  V30 31291 H 4123.91 7.86112 2.9231 0
M  V30 31292 H 4122.22 9.11627 4.55076 0
M  V30 31293 H 4122.03 9.9573 2.34194 0
M  V30 31294 H 4120.4 9.2792 2.67832 0
M  V30 31295 H 4123.04 4.67702 4.28772 0
M  V30 31296 P 4124.9 7.39546 4.75277 0
M  V30 31297 O 4126.32 7.81777 5.05738 0
M  V30 31298 O 4124.54 7.1065 3.32998 0
M  V30 31299 O 4124.57 6.04542 5.56673 0
M  V30 31300 C 4124.41 6.22772 7.02095 0
M  V30 31301 C 4124.95 4.97725 7.70406 0
M  V30 31302 O 4123.9 4.13256 7.58987 0
M  V30 31303 C 4126.17 4.28231 7.11815 0
M  V30 31304 O 4126.91 3.49945 8.01648 0
M  V30 31305 C 4125.5 3.5063 5.96244 0
M  V30 31306 O 4126.3 2.36482 5.64681 0
M  V30 31307 C 4124.17 3.15122 6.56374 0
M  V30 31308 H 4124.2 2.13853 6.99751 0
M  V30 31309 H 4125.38 4.13501 5.06559 0
M  V30 31310 H 4126.86 5.03285 6.70911 0
M  V30 31311 H 4125.17 5.20877 8.75697 0
M  V30 31312 H 4124.98 7.11046 7.35349 0
M  V30 31313 H 4123.35 6.35815 7.26986 0
M  V30 31314 H 4125.99 1.61644 6.13565 0
M  V30 31315 P 4127.85 3.65191 7.99657 0
M  V30 31316 O 4129.27 3.8425 8.48115 0
M  V30 31317 O 4127.49 4.17805 6.64342 0
M  V30 31318 O 4127.52 2.07613 7.95143 0
M  V30 31319 C 4127.36 1.44328 9.27336 0
M  V30 31320 C 4127.9 0.0220036 9.17197 0
M  V30 31321 O 4126.85 -0.626867 8.61923 0
M  V30 31322 C 4129.12 -0.24586 8.30336 0
M  V30 31323 O 4129.86 -1.39011 8.63583 0
M  V30 31324 C 4128.45 -0.273849 6.91158 0
M  V30 31325 O 4129.25 -1.06348 6.02892 0
M  V30 31326 C 4127.12 -0.897649 7.22545 0
M  V30 31327 H 4127.15 -1.9841 7.04286 0
M  V30 31328 H 4128.33 0.739928 6.497 0
M  V30 31329 H 4129.82 0.60668 8.36503 0
M  V30 31330 H 4128.12 -0.352479 10.1829 0
M  V30 31331 H 4127.93 2.00611 10.0304 0
M  V30 31332 H 4126.3 1.41843 9.55327 0
M  V30 31333 H 4128.94 -1.95734 6.03555 0
M  V30 31334 P 4130.8 -1.25109 8.70152 0
M  V30 31335 O 4132.22 -1.35274 9.21221 0
M  V30 31336 O 4130.44 -0.0769065 7.84762 0
M  V30 31337 O 4130.47 -2.55232 7.81161 0
M  V30 31338 C 4130.31 -3.79939 8.58154 0
M  V30 31339 C 4130.85 -4.94023 7.72785 0
M  V30 31340 O 4129.8 -5.18726 6.91205 0
M  V30 31341 C 4132.07 -4.69597 6.85231 0
M  V30 31342 O 4132.81 -5.83832 6.51337 0
M  V30 31343 C 4131.4 -3.96706 5.66633 0
M  V30 31344 O 4132.2 -4.15414 4.49689 0
M  V30 31345 C 4130.07 -4.66153 5.59313 0
M  V30 31346 H 4130.1 -5.47679 4.85214 0
M  V30 31347 H 4131.28 -2.89008 5.86566 0
M  V30 31348 H 4132.77 -4.0121 7.36511 0
M  V30 31349 H 4131.07 -5.80182 8.37584 0
M  V30 31350 H 4130.88 -3.73517 9.52265 0
M  V30 31351 H 4129.25 -3.97163 8.80359 0
M  V30 31352 H 4131.89 -4.90969 4.01921 0
M  V30 31353 P 4133.75 -5.75688 6.64379 0
M  V30 31354 O 4135.17 -6.11915 7.01921 0
M  V30 31355 O 4133.39 -4.30744 6.56026 0
M  V30 31356 O 4133.43 -6.37042 5.19165 0
M  V30 31357 C 4133.26 -7.83662 5.1657 0
M  V30 31358 C 4133.81 -8.33398 3.83019 0
M  V30 31359 O 4132.75 -8.0998 3.00999 0
M  V30 31360 C 4135.02 -7.65514 3.2257 0
M  V30 31361 O 4135.76 -8.4329 2.32297 0
M  V30 31362 C 4134.36 -6.40075 2.62207 0
M  V30 31363 O 4135.15 -5.92338 1.5428 0
M  V30 31364 C 4133.02 -6.9454 2.18503 0
M  V30 31365 N 4131.97 -5.95905 2.39948 0
M  V30 31366 C 4132.14 -4.98383 3.32108 0
M  V30 31367 N 4131.12 -4.16798 3.41761 0
M  V30 31368 C 4130.23 -4.65287 2.47461 0
M  V30 31369 C 4128.96 -4.18946 2.07461 0
M  V30 31370 N 4128.37 -3.09661 2.60717 0
M  V30 31371 N 4128.4 -4.95327 1.09101 0
M  V30 31372 C 4129 -6.04369 0.519812 0
M  V30 31373 N 4130.18 -6.50694 0.855982 0
M  V30 31374 C 4130.75 -5.75818 1.84322 0
M  V30 31375 H 4133.05 -7.22964 1.12076 0
M  V30 31376 H 4134.23 -5.60502 3.36589 0
M  V30 31377 H 4135.72 -7.35707 4.02681 0
M  V30 31378 H 4134.02 -9.41302 3.90009 0
M  V30 31379 H 4133.83 -8.29056 5.99158 0
M  V30 31380 H 4132.2 -8.10073 5.25882 0
M  V30 31381 H 4128.47 -6.55843 -0.270373 0
M  V30 31382 H 4133.04 -4.88564 3.92502 0
M  V30 31383 H 4127.44 -2.80523 2.27218 0
M  V30 31384 H 4128.84 -2.55848 3.34465 0
M  V30 31385 H 4134.84 -6.30224 0.72668 0
M  V30 31386 P 4136.7 -8.4349 2.47671 0
M  V30 31387 O 4138.12 -8.94167 2.5964 0
M  V30 31388 O 4136.34 -7.1704 3.19006 0
M  V30 31389 O 4136.38 -8.16596 0.923387 0
M  V30 31390 C 4136.22 -9.38437 0.108857 0
M  V30 31391 C 4136.76 -9.08175 -1.28353 0
M  V30 31392 O 4135.7 -8.44229 -1.84713 0
M  V30 31393 C 4137.97 -8.18386 -1.42505 0
M  V30 31394 O 4138.71 -8.3501 -2.60497 0
M  V30 31395 C 4137.31 -6.80225 -1.25468 0
M  V30 31396 O 4138.1 -5.81621 -1.91066 0
M  V30 31397 C 4135.97 -7.02416 -1.9168 0
M  V30 31398 H 4136 -6.6888 -2.96621 0
M  V30 31399 H 4137.18 -6.53617 -0.192223 0
M  V30 31400 H 4138.67 -8.36622 -0.589963 0
M  V30 31401 H 4136.97 -10.0291 -1.79807 0
M  V30 31402 H 4136.78 -10.2138 0.558219 0
M  V30 31403 H 4135.15 -9.6579 0.0444202 0
M  V30 31404 H 4137.79 -5.69556 -2.79637 0
M  V30 31405 P 4139.65 -8.4349 -2.47671 0
M  V30 31406 O 4141.07 -8.92593 -2.65 0
M  V30 31407 O 4139.29 -7.7568 -1.19296 0
M  V30 31408 O 4139.33 -7.36886 -3.63805 0
M  V30 31409 C 4139.17 -7.95349 -4.982 0
M  V30 31410 C 4139.71 -6.94612 -5.98974 0
M  V30 31411 O 4138.65 -6.10347 -6.11815 0
M  V30 31412 C 4140.92 -6.11426 -5.62335 0
M  V30 31413 O 4141.66 -5.6162 -6.70584 0
M  V30 31414 C 4140.26 -5.04409 -4.73308 0
M  V30 31415 O 4141.05 -3.85992 -4.75183 0
M  V30 31416 C 4138.92 -4.8728 -5.41006 0
M  V30 31417 H 4138.95 -4.02333 -6.11157 0
M  V30 31418 H 4140.13 -5.39466 -3.69543 0
M  V30 31419 H 4141.62 -6.71916 -5.01943 0
M  V30 31420 H 4139.92 -7.4649 -6.93477 0
M  V30 31421 H 4139.73 -8.89416 -5.05237 0
M  V30 31422 H 4138.1 -8.14876 -5.18409 0
M  V30 31423 H 4140.74 -3.27957 -5.4317 0
M  V30 31424 P 4142.6 -5.75688 -6.64379 0
M  V30 31425 O 4144.02 -6.07627 -7.05504 0
M  V30 31426 O 4142.24 -5.88047 -5.19722 0
M  V30 31427 O 4142.28 -4.2322 -7.04443 0
M  V30 31428 C 4142.12 -3.99743 -8.4911 0
M  V30 31429 C 4142.66 -2.60516 -8.79425 0
M  V30 31430 O 4141.6 -1.82684 -8.4467 0
M  V30 31431 C 4143.88 -2.10343 -8.03628 0
M  V30 31432 O 4144.61 -1.09919 -8.67766 0
M  V30 31433 C 4143.21 -1.68446 -6.70876 0
M  V30 31434 O 4144.01 -0.678137 -6.08433 0
M  V30 31435 C 4141.87 -1.17436 -7.18567 0
M  V30 31436 H 4141.9 -0.0804732 -7.31656 0
M  V30 31437 H 4143.08 -2.54037 -6.02537 0
M  V30 31438 H 4144.57 -2.93881 -7.85526 0
M  V30 31439 H 4142.87 -2.53065 -9.86973 0
M  V30 31440 H 4142.68 -4.75072 -9.05887 0
M  V30 31441 H 4141.05 -4.05244 -8.76668 0
M  V30 31442 H 4143.69 0.177647 -6.34251 0
M  V30 31443 P 4145.55 -1.25109 -8.70152 0
M  V30 31444 O 4146.97 -1.29758 -9.22115 0
M  V30 31445 O 4145.19 -2.13714 -7.55141 0
M  V30 31446 O 4145.23 0.248149 -8.21425 0
M  V30 31447 C 4145.07 1.22792 -9.30533 0
M  V30 31448 C 4145.61 2.56293 -8.80664 0
M  V30 31449 O 4144.55 3.02944 -8.09255 0
M  V30 31450 C 4146.83 2.57523 -7.89775 0
M  V30 31451 O 4147.56 3.7668 -7.89438 0
M  V30 31452 C 4146.16 2.20997 -6.55446 0
M  V30 31453 O 4146.96 2.71302 -5.48691 0
M  V30 31454 C 4144.82 2.89693 -6.67988 0
M  V30 31455 N 4143.78 2.08895 -6.07487 0
M  V30 31456 C 4143.95 0.753809 -5.94137 0
M  V30 31457 N 4142.92 0.146592 -5.38801 0
M  V30 31458 C 4142.03 1.1768 -5.13693 0
M  V30 31459 C 4140.77 1.17563 -4.52477 0
M  V30 31460 N 4140.2 2.41918 -4.45789 0
M  V30 31461 C 4140.8 3.56493 -4.90792 0
M  V30 31462 N 4141.98 3.61423 -5.47817 0
M  V30 31463 C 4142.56 2.37779 -5.5588 0
M  V30 31464 H 4146.03 1.12673 -6.44018 0
M  V30 31465 H 4147.52 1.7746 -8.19711 0
M  V30 31466 H 4145.82 3.21673 -9.66791 0
M  V30 31467 H 4145.63 0.901032 -10.1892 0
M  V30 31468 H 4144 1.33049 -9.56592 0
M  V30 31469 H 4144.85 0.233081 -6.26266 0
M  V30 31470 H 4146.64 3.5779 -5.23879 0
M  V30 31471 P 4148.5 3.65191 -7.99657 0
M  V30 31472 O 4149.92 3.89332 -8.45794 0
M  V30 31473 O 4148.14 2.28472 -7.50807 0
M  V30 31474 O 4148.18 4.64972 -6.77611 0
M  V30 31475 C 4148.02 6.06319 -7.16352 0
M  V30 31476 C 4148.56 6.91731 -6.02299 0
M  V30 31477 O 4147.5 6.92449 -5.17064 0
M  V30 31478 C 4149.78 6.43627 -5.25174 0
M  V30 31479 O 4150.51 7.43686 -4.60469 0
M  V30 31480 C 4149.11 5.40275 -4.31916 0
M  V30 31481 O 4149.91 5.25279 -3.14438 0
M  V30 31482 C 4147.77 6.04847 -4.05327 0
M  V30 31483 H 4147.8 6.62195 -3.11261 0
M  V30 31484 H 4148.99 4.42556 -4.81383 0
M  V30 31485 H 4150.47 5.92458 -5.93643 0
M  V30 31486 H 4148.78 7.92655 -6.402 0
M  V30 31487 H 4148.59 6.26671 -8.0846 0
M  V30 31488 H 4146.96 6.29101 -7.32804 0
M  V30 31489 H 4149.59 5.84315 -2.47318 0
M  V30 31490 P 4151.45 7.39546 -4.75277 0
M  V30 31491 O 4152.87 7.84798 -5.01039 0
M  V30 31492 O 4151.09 5.9812 -5.08098 0
M  V30 31493 O 4151.13 7.57503 -3.1866 0
M  V30 31494 C 4150.97 8.97357 -2.74833 0
M  V30 31495 C 4151.51 9.07548 -1.32709 0
M  V30 31496 O 4150.45 8.62072 -0.606159 0
M  V30 31497 C 4152.73 8.25383 -0.938334 0
M  V30 31498 O 4153.46 8.74577 0.146954 0
M  V30 31499 C 4152.06 6.8802 -0.712559 0
M  V30 31500 O 4152.86 6.1189 0.194655 0
M  V30 31501 C 4150.72 7.27966 -0.139777 0
M  V30 31502 H 4150.75 7.25354 0.961601 0
M  V30 31503 H 4151.94 6.32557 -1.65702 0
M  V30 31504 H 4153.42 8.19355 -1.79097 0
M  V30 31505 H 4151.73 10.1294 -1.10029 0
M  V30 31506 H 4151.54 9.64276 -3.41316 0
M  V30 31507 H 4149.91 9.25417 -2.76357 0
M  V30 31508 H 4152.54 6.25267 1.07847 0
M  V30 31509 P 4154.4 8.791 -2.18149e-10 0
M  V30 31510 O 4155.82 9.31196 0.027936 0
M  V30 31511 O 4154.04 7.77869 -1.04071 0
M  V30 31512 O 4154.08 8.09533 1.41463 0
M  V30 31513 C 4153.92 9.03587 2.5397 0
M  V30 31514 C 4154.46 8.35226 3.79016 0
M  V30 31515 O 4153.4 7.57904 4.1503 0
M  V30 31516 C 4155.68 7.45087 3.67298 0
M  V30 31517 O 4156.42 7.27796 4.85194 0
M  V30 31518 C 4155.01 6.17323 3.12027 0
M  V30 31519 O 4155.81 5.04496 3.46627 0
M  V30 31520 C 4153.67 6.19961 3.81809 0
M  V30 31521 N 4152.63 5.71575 2.93223 0
M  V30 31522 C 4152.8 5.77362 1.59168 0
M  V30 31523 N 4151.77 5.3123 0.911893 0
M  V30 31524 C 4150.89 4.91717 1.89588 0
M  V30 31525 C 4149.62 4.3114 1.8076 0
M  V30 31526 N 4149.02 3.99821 0.632928 0
M  V30 31527 N 4149.05 4.06823 3.02898 0
M  V30 31528 C 4149.66 4.35062 4.22711 0
M  V30 31529 N 4150.83 4.90805 4.35707 0
M  V30 31530 C 4151.41 5.16382 3.14469 0
M  V30 31531 H 4153.7 5.58142 4.72986 0
M  V30 31532 H 4154.89 6.21428 2.0318 0
M  V30 31533 H 4156.37 7.86112 2.9231 0
M  V30 31534 H 4154.68 9.11171 4.55987 0
M  V30 31535 H 4154.49 9.9573 2.34194 0
M  V30 31536 H 4152.86 9.2792 2.67832 0
M  V30 31537 H 4149.12 4.09052 5.13359 0
M  V30 31538 H 4153.7 6.16575 1.12198 0
M  V30 31539 H 4148.09 3.55423 0.632085 0
M  V30 31540 H 4149.49 4.20317 -0.256712 0
M  V30 31541 H 4155.5 4.67628 4.28704 0
M  V30 31542 P 4157.35 7.39546 4.75277 0
M  V30 31543 O 4158.78 7.81777 5.05738 0
M  V30 31544 O 4156.99 7.1065 3.32998 0
M  V30 31545 O 4157.03 6.04542 5.56673 0
M  V30 31546 C 4156.87 6.22772 7.02095 0
M  V30 31547 C 4157.41 4.97725 7.70406 0
M  V30 31548 O 4156.35 4.13256 7.58987 0
M  V30 31549 C 4158.63 4.28231 7.11815 0
M  V30 31550 O 4159.37 3.49945 8.01648 0
M  V30 31551 C 4157.96 3.5063 5.96244 0
M  V30 31552 O 4158.76 2.36482 5.64681 0
M  V30 31553 C 4156.62 3.15122 6.56374 0
M  V30 31554 H 4156.65 2.13853 6.99751 0
M  V30 31555 H 4157.84 4.13501 5.06559 0
M  V30 31556 H 4159.32 5.03285 6.70911 0
M  V30 31557 H 4157.63 5.20877 8.75697 0
M  V30 31558 H 4157.44 7.11046 7.35349 0
M  V30 31559 H 4155.81 6.35815 7.26986 0
M  V30 31560 H 4158.45 1.61644 6.13565 0
M  V30 31561 P 4160.3 3.65191 7.99657 0
M  V30 31562 O 4161.73 3.84333 8.48297 0
M  V30 31563 O 4159.94 4.17805 6.64342 0
M  V30 31564 O 4159.98 2.07613 7.95143 0
M  V30 31565 C 4159.82 1.44328 9.27336 0
M  V30 31566 C 4160.36 0.0220012 9.17097 0
M  V30 31567 O 4159.31 -0.626867 8.61923 0
M  V30 31568 C 4161.58 -0.24586 8.30336 0
M  V30 31569 O 4162.32 -1.39011 8.63583 0
M  V30 31570 C 4160.91 -0.273849 6.91158 0
M  V30 31571 O 4161.71 -1.06331 6.02794 0
M  V30 31572 C 4159.57 -0.897649 7.22545 0
M  V30 31573 N 4158.53 -0.292839 6.41732 0
M  V30 31574 C 4158.59 1.00068 6.10757 0
M  V30 31575 N 4157.55 1.36468 5.35794 0
M  V30 31576 C 4156.81 0.258894 5.2366 0
M  V30 31577 C 4155.51 0.0670682 4.65752 0
M  V30 31578 O 4154.77 0.902443 4.10497 0
M  V30 31579 N 4155.08 -1.2131 4.75881 0
M  V30 31580 C 4155.83 -2.24934 5.37101 0
M  V30 31581 N 4155.23 -3.48783 5.33984 0
M  V30 31582 N 4156.98 -2.0844 5.95684 0
M  V30 31583 C 4157.44 -0.81395 5.87791 0
M  V30 31584 H 4159.6 -1.9841 7.04286 0
M  V30 31585 H 4160.79 0.739815 6.49601 0
M  V30 31586 H 4162.27 0.598315 8.36563 0
M  V30 31587 H 4160.58 -0.352479 10.1829 0
M  V30 31588 H 4160.39 2.00611 10.0304 0
M  V30 31589 H 4158.76 1.41843 9.55327 0
M  V30 31590 H 4154.18 -1.44434 4.37895 0
M  V30 31591 H 4159.39 1.67697 6.42268 0
M  V30 31592 H 4154.32 -3.60543 4.87699 0
M  V30 31593 H 4155.69 -4.29232 5.7819 0
M  V30 31594 H 4161.4 -1.95704 6.0346 0
M  V30 31595 P 4163.25 -1.25109 8.70152 0
M  V30 31596 O 4164.68 -1.35274 9.21221 0
M  V30 31597 O 4162.89 -0.0769065 7.84762 0
M  V30 31598 O 4162.93 -2.55232 7.81161 0
M  V30 31599 C 4162.77 -3.79939 8.58154 0
M  V30 31600 C 4163.31 -4.94023 7.72785 0
M  V30 31601 O 4162.26 -5.18726 6.91205 0
M  V30 31602 C 4164.53 -4.69597 6.85231 0
M  V30 31603 O 4165.27 -5.83832 6.51337 0
M  V30 31604 C 4163.86 -3.96706 5.66633 0
M  V30 31605 O 4164.66 -4.15414 4.49689 0
M  V30 31606 C 4162.52 -4.66153 5.59313 0
M  V30 31607 H 4162.56 -5.47679 4.85214 0
M  V30 31608 H 4163.74 -2.89008 5.86566 0
M  V30 31609 H 4165.22 -4.0121 7.36511 0
M  V30 31610 H 4163.53 -5.80182 8.37584 0
M  V30 31611 H 4163.34 -3.73517 9.52265 0
M  V30 31612 H 4161.71 -3.97163 8.80359 0
M  V30 31613 H 4164.35 -4.90969 4.01921 0
M  V30 31614 P 4166.2 -5.75688 6.64379 0
M  V30 31615 O 4167.63 -6.11849 7.01846 0
M  V30 31616 O 4165.84 -4.30744 6.56026 0
M  V30 31617 O 4165.88 -6.37042 5.19165 0
M  V30 31618 C 4165.72 -7.83578 5.16515 0
M  V30 31619 C 4166.26 -8.33398 3.83019 0
M  V30 31620 O 4165.21 -8.10074 3.01034 0
M  V30 31621 C 4167.48 -7.65514 3.2257 0
M  V30 31622 O 4168.22 -8.4329 2.32297 0
M  V30 31623 C 4166.81 -6.40075 2.62207 0
M  V30 31624 O 4167.61 -5.92589 1.53712 0
M  V30 31625 C 4165.47 -6.9454 2.18503 0
M  V30 31626 H 4165.51 -7.23063 1.12091 0
M  V30 31627 H 4166.69 -5.6025 3.37201 0
M  V30 31628 H 4168.17 -7.35707 4.02681 0
M  V30 31629 H 4166.48 -9.40912 3.9095 0
M  V30 31630 H 4166.29 -8.29056 5.99158 0
M  V30 31631 H 4164.66 -8.10073 5.25882 0
M  V30 31632 H 4167.3 -6.30324 0.726794 0
M  V30 31633 P 4169.16 -8.4349 2.47671 0
M  V30 31634 O 4170.58 -8.94167 2.5964 0
M  V30 31635 O 4168.8 -7.1704 3.19006 0
M  V30 31636 O 4168.83 -8.16596 0.923387 0
M  V30 31637 C 4168.67 -9.38437 0.108857 0
M  V30 31638 C 4169.21 -9.08175 -1.28353 0
M  V30 31639 O 4168.16 -8.44229 -1.84713 0
M  V30 31640 C 4170.43 -8.18386 -1.42505 0
M  V30 31641 O 4171.17 -8.3501 -2.60497 0
M  V30 31642 C 4169.76 -6.80225 -1.25468 0
M  V30 31643 O 4170.56 -5.81621 -1.91066 0
M  V30 31644 C 4168.42 -7.02416 -1.9168 0
M  V30 31645 H 4168.46 -6.6888 -2.96621 0
M  V30 31646 H 4169.64 -6.53617 -0.192223 0
M  V30 31647 H 4171.12 -8.36622 -0.589963 0
M  V30 31648 H 4169.43 -10.0291 -1.79807 0
M  V30 31649 H 4169.24 -10.2138 0.558219 0
M  V30 31650 H 4167.61 -9.6579 0.0444202 0
M  V30 31651 H 4170.25 -5.69556 -2.79637 0
M  V30 31652 P 4172.11 -8.4349 -2.47671 0
M  V30 31653 O 4173.53 -8.92593 -2.65 0
M  V30 31654 O 4171.75 -7.7568 -1.19296 0
M  V30 31655 O 4171.78 -7.36886 -3.63805 0
M  V30 31656 C 4171.62 -7.95349 -4.982 0
M  V30 31657 C 4172.16 -6.94612 -5.98974 0
M  V30 31658 O 4171.11 -6.10347 -6.11815 0
M  V30 31659 C 4173.38 -6.11426 -5.62335 0
M  V30 31660 O 4174.12 -5.6162 -6.70584 0
M  V30 31661 C 4172.71 -5.04409 -4.73308 0
M  V30 31662 O 4173.51 -3.85992 -4.75183 0
M  V30 31663 C 4171.37 -4.8728 -5.41006 0
M  V30 31664 H 4171.41 -4.02333 -6.11157 0
M  V30 31665 H 4172.59 -5.39466 -3.69543 0
M  V30 31666 H 4174.07 -6.71916 -5.01943 0
M  V30 31667 H 4172.38 -7.4649 -6.93477 0
M  V30 31668 H 4172.19 -8.89416 -5.05237 0
M  V30 31669 H 4170.56 -8.14876 -5.18409 0
M  V30 31670 H 4173.2 -3.27957 -5.4317 0
M  V30 31671 P 4175.06 -5.75688 -6.64379 0
M  V30 31672 O 4176.48 -6.07692 -7.0558 0
M  V30 31673 O 4174.7 -5.88047 -5.19722 0
M  V30 31674 O 4174.73 -4.2322 -7.04443 0
M  V30 31675 C 4174.57 -3.99785 -8.49201 0
M  V30 31676 C 4175.11 -2.60516 -8.79425 0
M  V30 31677 O 4174.06 -1.82663 -8.44573 0
M  V30 31678 C 4176.33 -2.10343 -8.03628 0
M  V30 31679 O 4177.07 -1.09919 -8.67766 0
M  V30 31680 C 4175.66 -1.68446 -6.70876 0
M  V30 31681 O 4176.46 -0.684109 -6.08265 0
M  V30 31682 C 4174.33 -1.17436 -7.18567 0
M  V30 31683 N 4173.28 -1.52699 -6.23988 0
M  V30 31684 C 4173.45 -2.578 -5.40574 0
M  V30 31685 N 4172.42 -2.78966 -4.61193 0
M  V30 31686 C 4171.54 -1.78725 -4.95769 0
M  V30 31687 C 4170.27 -1.45727 -4.44207 0
M  V30 31688 N 4169.67 -2.13994 -3.43613 0
M  V30 31689 N 4169.71 -0.374977 -5.05812 0
M  V30 31690 C 4170.31 0.345585 -6.05615 0
M  V30 31691 N 4171.49 0.0787651 -6.56253 0
M  V30 31692 C 4172.06 -1.00499 -5.96189 0
M  V30 31693 H 4174.36 -0.0804622 -7.31556 0
M  V30 31694 H 4175.54 -2.53396 -6.02698 0
M  V30 31695 H 4177.02 -2.93881 -7.85526 0
M  V30 31696 H 4175.33 -2.52078 -9.87225 0
M  V30 31697 H 4175.14 -4.75072 -9.05887 0
M  V30 31698 H 4173.51 -4.05244 -8.76668 0
M  V30 31699 H 4169.77 1.20098 -6.4532 0
M  V30 31700 H 4174.35 -3.18977 -5.3945 0
M  V30 31701 H 4168.74 -1.84983 -3.10004 0
M  V30 31702 H 4170.15 -2.9465 -3.00843 0
M  V30 31703 H 4176.15 0.177619 -6.34151 0
M  V30 31704 P 4178.01 -1.25109 -8.70152 0
M  V30 31705 O 4179.43 -1.29744 -9.22016 0
M  V30 31706 O 4177.65 -2.13714 -7.55141 0
M  V30 31707 O 4177.68 0.248149 -8.21425 0
M  V30 31708 C 4177.52 1.22779 -9.30434 0
M  V30 31709 C 4178.06 2.56293 -8.80664 0
M  V30 31710 O 4177.01 3.02979 -8.09349 0
M  V30 31711 C 4179.28 2.57523 -7.89775 0
M  V30 31712 O 4180.02 3.7668 -7.89438 0
M  V30 31713 C 4178.61 2.20997 -6.55446 0
M  V30 31714 O 4179.41 2.71895 -5.48509 0
M  V30 31715 C 4177.28 2.89693 -6.67988 0
M  V30 31716 H 4177.31 3.88793 -6.19859 0
M  V30 31717 H 4178.49 1.12046 -6.44229 0
M  V30 31718 H 4179.98 1.7746 -8.19711 0
M  V30 31719 H 4178.28 3.20706 -9.67112 0
M  V30 31720 H 4178.09 0.901032 -10.1892 0
M  V30 31721 H 4176.46 1.33049 -9.56592 0
M  V30 31722 H 4179.1 3.57847 -5.23962 0
M  V30 31723 P 4180.96 3.65191 -7.99657 0
M  V30 31724 O 4182.38 3.89332 -8.45794 0
M  V30 31725 O 4180.6 2.28472 -7.50807 0
M  V30 31726 O 4180.63 4.64972 -6.77611 0
M  V30 31727 C 4180.47 6.06319 -7.16352 0
M  V30 31728 C 4181.01 6.91731 -6.02299 0
M  V30 31729 O 4179.96 6.92449 -5.17064 0
M  V30 31730 C 4182.23 6.43627 -5.25174 0
M  V30 31731 O 4182.97 7.43686 -4.60469 0
M  V30 31732 C 4181.56 5.40275 -4.31916 0
M  V30 31733 O 4182.36 5.25279 -3.14438 0
M  V30 31734 C 4180.23 6.04847 -4.05327 0
M  V30 31735 H 4180.26 6.62195 -3.11261 0
M  V30 31736 H 4181.44 4.42556 -4.81383 0
M  V30 31737 H 4182.93 5.92458 -5.93643 0
M  V30 31738 H 4181.23 7.92655 -6.402 0
M  V30 31739 H 4181.04 6.26671 -8.0846 0
M  V30 31740 H 4179.41 6.29101 -7.32804 0
M  V30 31741 H 4182.05 5.84315 -2.47318 0
M  V30 31742 P 4183.91 7.39546 -4.75277 0
M  V30 31743 O 4185.33 7.84798 -5.01039 0
M  V30 31744 O 4183.55 5.9812 -5.08098 0
M  V30 31745 O 4183.59 7.57503 -3.1866 0
M  V30 31746 C 4183.43 8.97357 -2.74833 0
M  V30 31747 C 4183.97 9.07548 -1.32709 0
M  V30 31748 O 4182.91 8.62072 -0.606159 0
M  V30 31749 C 4185.18 8.25383 -0.938334 0
M  V30 31750 O 4185.92 8.74577 0.146954 0
M  V30 31751 C 4184.51 6.8802 -0.712559 0
M  V30 31752 O 4185.31 6.1189 0.194655 0
M  V30 31753 C 4183.18 7.27966 -0.139777 0
M  V30 31754 H 4183.21 7.25354 0.961601 0
M  V30 31755 H 4184.39 6.32557 -1.65702 0
M  V30 31756 H 4185.88 8.19355 -1.79097 0
M  V30 31757 H 4184.18 10.1294 -1.10029 0
M  V30 31758 H 4183.99 9.64276 -3.41316 0
M  V30 31759 H 4182.36 9.25417 -2.76357 0
M  V30 31760 H 4185 6.25267 1.07847 0
M  V30 31761 P 4186.86 8.791 -2.23336e-10 0
M  V30 31762 O 4188.28 9.31096 0.027933 0
M  V30 31763 O 4186.5 7.77869 -1.04071 0
M  V30 31764 O 4186.54 8.09533 1.41463 0
M  V30 31765 C 4186.38 9.0349 2.53943 0
M  V30 31766 C 4186.92 8.35226 3.79016 0
M  V30 31767 O 4185.86 7.57992 4.15078 0
M  V30 31768 C 4188.13 7.45087 3.67298 0
M  V30 31769 O 4188.87 7.27796 4.85194 0
M  V30 31770 C 4187.46 6.17323 3.12027 0
M  V30 31771 O 4188.26 5.04231 3.47188 0
M  V30 31772 C 4186.13 6.19961 3.81809 0
M  V30 31773 H 4186.16 5.58218 4.73051 0
M  V30 31774 H 4187.34 6.21726 2.02589 0
M  V30 31775 H 4188.83 7.86112 2.9231 0
M  V30 31776 H 4187.13 9.11627 4.55076 0
M  V30 31777 H 4186.94 9.9573 2.34194 0
M  V30 31778 H 4185.31 9.2792 2.67832 0
M  V30 31779 H 4187.95 4.67702 4.28772 0
M  V30 31780 P 4189.81 7.39546 4.75277 0
M  V30 31781 O 4191.23 7.81777 5.05738 0
M  V30 31782 O 4189.45 7.1065 3.32998 0
M  V30 31783 O 4189.49 6.04542 5.56673 0
M  V30 31784 C 4189.33 6.22772 7.02095 0
M  V30 31785 C 4189.87 4.97725 7.70406 0
M  V30 31786 O 4188.81 4.13256 7.58987 0
M  V30 31787 C 4191.08 4.28231 7.11815 0
M  V30 31788 O 4191.82 3.49945 8.01648 0
M  V30 31789 C 4190.42 3.5063 5.96244 0
M  V30 31790 O 4191.21 2.36482 5.64681 0
M  V30 31791 C 4189.08 3.15122 6.56374 0
M  V30 31792 H 4189.11 2.13853 6.99751 0
M  V30 31793 H 4190.29 4.13501 5.06559 0
M  V30 31794 H 4191.78 5.03285 6.70911 0
M  V30 31795 H 4190.08 5.20877 8.75697 0
M  V30 31796 H 4189.89 7.11046 7.35349 0
M  V30 31797 H 4188.26 6.35815 7.26986 0
M  V30 31798 H 4190.9 1.61644 6.13565 0
M  V30 31799 P 4192.76 3.65191 7.99657 0
M  V30 31800 O 4194.18 3.8425 8.48115 0
M  V30 31801 O 4192.4 4.17805 6.64342 0
M  V30 31802 O 4192.44 2.07613 7.95143 0
M  V30 31803 C 4192.28 1.44328 9.27336 0
M  V30 31804 C 4192.82 0.0220036 9.17197 0
M  V30 31805 O 4191.76 -0.626867 8.61923 0
M  V30 31806 C 4194.03 -0.24586 8.30336 0
M  V30 31807 O 4194.77 -1.39011 8.63583 0
M  V30 31808 C 4193.37 -0.273849 6.91158 0
M  V30 31809 O 4194.16 -1.06348 6.02892 0
M  V30 31810 C 4192.03 -0.897649 7.22545 0
M  V30 31811 H 4192.06 -1.9841 7.04286 0
M  V30 31812 H 4193.24 0.739928 6.497 0
M  V30 31813 H 4194.73 0.60668 8.36503 0
M  V30 31814 H 4193.03 -0.352479 10.1829 0
M  V30 31815 H 4192.84 2.00611 10.0304 0
M  V30 31816 H 4191.21 1.41843 9.55327 0
M  V30 31817 H 4193.85 -1.95734 6.03555 0
M  V30 31818 P 4195.71 -1.25109 8.70152 0
M  V30 31819 O 4197.13 -1.35303 9.21419 0
M  V30 31820 O 4195.35 -0.0769065 7.84762 0
M  V30 31821 O 4195.39 -2.55232 7.81161 0
M  V30 31822 C 4195.23 -3.79939 8.58154 0
M  V30 31823 C 4195.77 -4.93969 7.72701 0
M  V30 31824 O 4194.71 -5.18726 6.91205 0
M  V30 31825 C 4196.99 -4.69597 6.85231 0
M  V30 31826 O 4197.72 -5.83832 6.51337 0
M  V30 31827 C 4196.32 -3.96706 5.66633 0
M  V30 31828 O 4197.12 -4.15346 4.49615 0
M  V30 31829 C 4194.98 -4.66153 5.59313 0
M  V30 31830 N 4193.94 -3.71582 5.24027 0
M  V30 31831 C 4194 -2.46018 5.67902 0
M  V30 31832 N 4192.95 -1.74868 5.24518 0
M  V30 31833 C 4192.22 -2.61333 4.54528 0
M  V30 31834 C 4190.91 -2.46162 3.95441 0
M  V30 31835 O 4190.18 -1.46013 3.94122 0
M  V30 31836 N 4190.48 -3.59334 3.34752 0
M  V30 31837 C 4191.23 -4.79605 3.3023 0
M  V30 31838 N 4190.64 -5.82109 2.6065 0
M  V30 31839 N 4192.39 -4.97402 3.8843 0
M  V30 31840 C 4192.84 -3.86258 4.50476 0
M  V30 31841 H 4195.01 -5.47679 4.85214 0
M  V30 31842 H 4196.19 -2.88964 5.86476 0
M  V30 31843 H 4197.68 -4.01947 7.36109 0
M  V30 31844 H 4195.98 -5.80182 8.37584 0
M  V30 31845 H 4195.79 -3.73517 9.52265 0
M  V30 31846 H 4194.16 -3.97163 8.80359 0
M  V30 31847 H 4189.59 -3.5825 2.90294 0
M  V30 31848 H 4194.79 -2.06161 6.30974 0
M  V30 31849 H 4189.72 -5.66979 2.15354 0
M  V30 31850 H 4191.1 -6.73686 2.54344 0
M  V30 31851 H 4196.8 -4.90891 4.01857 0
M  V30 31852 P 4198.66 -5.75688 6.64379 0
M  V30 31853 O 4200.08 -6.11849 7.01846 0
M  V30 31854 O 4198.3 -4.30744 6.56026 0
M  V30 31855 O 4198.34 -6.37042 5.19165 0
M  V30 31856 C 4198.18 -7.83578 5.16515 0
M  V30 31857 C 4198.72 -8.33398 3.83019 0
M  V30 31858 O 4197.66 -8.10074 3.01034 0
M  V30 31859 C 4199.94 -7.65514 3.2257 0
M  V30 31860 O 4200.67 -8.4329 2.32297 0
M  V30 31861 C 4199.27 -6.40075 2.62207 0
M  V30 31862 O 4200.07 -5.92589 1.53712 0
M  V30 31863 C 4197.93 -6.9454 2.18503 0
M  V30 31864 H 4197.96 -7.23063 1.12091 0
M  V30 31865 H 4199.15 -5.6025 3.37201 0
M  V30 31866 H 4200.63 -7.35707 4.02681 0
M  V30 31867 H 4198.94 -9.40912 3.9095 0
M  V30 31868 H 4198.75 -8.29056 5.99158 0
M  V30 31869 H 4197.12 -8.10073 5.25882 0
M  V30 31870 H 4199.75 -6.30324 0.726794 0
M  V30 31871 P 4201.61 -8.4349 2.47671 0
M  V30 31872 O 4203.03 -8.94167 2.5964 0
M  V30 31873 O 4201.25 -7.1704 3.19006 0
M  V30 31874 O 4201.29 -8.16596 0.923387 0
M  V30 31875 C 4201.13 -9.38437 0.108857 0
M  V30 31876 C 4201.67 -9.08175 -1.28353 0
M  V30 31877 O 4200.61 -8.44229 -1.84713 0
M  V30 31878 C 4202.89 -8.18386 -1.42505 0
M  V30 31879 O 4203.62 -8.3501 -2.60497 0
M  V30 31880 C 4202.22 -6.80225 -1.25468 0
M  V30 31881 O 4203.02 -5.81621 -1.91066 0
M  V30 31882 C 4200.88 -7.02416 -1.9168 0
M  V30 31883 H 4200.91 -6.6888 -2.96621 0
M  V30 31884 H 4202.1 -6.53617 -0.192223 0
M  V30 31885 H 4203.58 -8.36622 -0.589963 0
M  V30 31886 H 4201.89 -10.0291 -1.79807 0
M  V30 31887 H 4201.7 -10.2138 0.558219 0
M  V30 31888 H 4200.07 -9.6579 0.0444202 0
M  V30 31889 H 4202.7 -5.69556 -2.79637 0
M  V30 31890 P 4204.56 -8.4349 -2.47671 0
M  V30 31891 O 4205.98 -8.92593 -2.65 0
M  V30 31892 O 4204.2 -7.7568 -1.19296 0
M  V30 31893 O 4204.24 -7.36886 -3.63805 0
M  V30 31894 C 4204.08 -7.95349 -4.982 0
M  V30 31895 C 4204.62 -6.94612 -5.98974 0
M  V30 31896 O 4203.56 -6.10347 -6.11815 0
M  V30 31897 C 4205.84 -6.11426 -5.62335 0
M  V30 31898 O 4206.58 -5.6162 -6.70584 0
M  V30 31899 C 4205.17 -5.04409 -4.73308 0
M  V30 31900 O 4205.97 -3.85992 -4.75183 0
M  V30 31901 C 4203.83 -4.8728 -5.41006 0
M  V30 31902 H 4203.86 -4.02333 -6.11157 0
M  V30 31903 H 4205.05 -5.39466 -3.69543 0
M  V30 31904 H 4206.53 -6.71916 -5.01943 0
M  V30 31905 H 4204.84 -7.4649 -6.93477 0
M  V30 31906 H 4204.65 -8.89416 -5.05237 0
M  V30 31907 H 4203.02 -8.14876 -5.18409 0
M  V30 31908 H 4205.66 -3.27957 -5.4317 0
M  V30 31909 P 4207.51 -5.75688 -6.64379 0
M  V30 31910 O 4208.93 -6.07627 -7.05504 0
M  V30 31911 O 4207.15 -5.88047 -5.19722 0
M  V30 31912 O 4207.19 -4.2322 -7.04443 0
M  V30 31913 C 4207.03 -3.99743 -8.4911 0
M  V30 31914 C 4207.57 -2.60516 -8.79425 0
M  V30 31915 O 4206.51 -1.82684 -8.4467 0
M  V30 31916 C 4208.79 -2.10343 -8.03628 0
M  V30 31917 O 4209.53 -1.09919 -8.67766 0
M  V30 31918 C 4208.12 -1.68446 -6.70876 0
M  V30 31919 O 4208.92 -0.678137 -6.08433 0
M  V30 31920 C 4206.78 -1.17436 -7.18567 0
M  V30 31921 H 4206.81 -0.0804732 -7.31656 0
M  V30 31922 H 4208 -2.54037 -6.02537 0
M  V30 31923 H 4209.48 -2.93881 -7.85526 0
M  V30 31924 H 4207.79 -2.53065 -9.86973 0
M  V30 31925 H 4207.6 -4.75072 -9.05887 0
M  V30 31926 H 4205.97 -4.05244 -8.76668 0
M  V30 31927 H 4208.61 0.177647 -6.34251 0
M  V30 31928 P 4210.46 -1.25109 -8.70152 0
M  V30 31929 O 4211.88 -1.29758 -9.22115 0
M  V30 31930 O 4210.1 -2.13714 -7.55141 0
M  V30 31931 O 4210.14 0.248149 -8.21425 0
M  V30 31932 C 4209.98 1.22792 -9.30533 0
M  V30 31933 C 4210.52 2.56293 -8.80664 0
M  V30 31934 O 4209.47 3.02944 -8.09255 0
M  V30 31935 C 4211.74 2.57523 -7.89775 0
M  V30 31936 O 4212.48 3.7668 -7.89438 0
M  V30 31937 C 4211.07 2.20997 -6.55446 0
M  V30 31938 O 4211.87 2.71302 -5.48691 0
M  V30 31939 C 4209.73 2.89693 -6.67988 0
M  V30 31940 N 4208.69 2.08895 -6.07487 0
M  V30 31941 C 4208.86 0.753809 -5.94137 0
M  V30 31942 N 4207.83 0.146592 -5.38801 0
M  V30 31943 C 4206.95 1.1768 -5.13693 0
M  V30 31944 C 4205.68 1.17563 -4.52477 0
M  V30 31945 N 4205.08 0.057481 -4.04759 0
M  V30 31946 N 4205.11 2.41918 -4.45789 0
M  V30 31947 C 4205.72 3.56493 -4.90792 0
M  V30 31948 N 4206.89 3.61423 -5.47817 0
M  V30 31949 C 4207.47 2.37779 -5.5588 0
M  V30 31950 H 4209.76 3.8874 -6.19774 0
M  V30 31951 H 4210.95 1.12673 -6.44018 0
M  V30 31952 H 4212.43 1.7746 -8.19711 0
M  V30 31953 H 4210.74 3.21673 -9.66791 0
M  V30 31954 H 4210.55 0.901032 -10.1892 0
M  V30 31955 H 4208.92 1.33049 -9.56592 0
M  V30 31956 H 4205.18 4.49919 -4.77947 0
M  V30 31957 H 4209.76 0.233081 -6.26266 0
M  V30 31958 H 4204.15 0.119831 -3.60801 0
M  V30 31959 H 4205.55 -0.852272 -4.12385 0
M  V30 31960 H 4211.56 3.5779 -5.23879 0
M  V30 31961 P 4213.41 3.65191 -7.99657 0
M  V30 31962 O 4214.84 3.89332 -8.45794 0
M  V30 31963 O 4213.05 2.28472 -7.50807 0
M  V30 31964 O 4213.09 4.64972 -6.77611 0
M  V30 31965 C 4212.93 6.06319 -7.16352 0
M  V30 31966 C 4213.47 6.91731 -6.02299 0
M  V30 31967 O 4212.41 6.92449 -5.17064 0
M  V30 31968 C 4214.69 6.43627 -5.25174 0
M  V30 31969 O 4215.43 7.43686 -4.60469 0
M  V30 31970 C 4214.02 5.40275 -4.31916 0
M  V30 31971 O 4214.82 5.25279 -3.14438 0
M  V30 31972 C 4212.68 6.04847 -4.05327 0
M  V30 31973 H 4212.71 6.62195 -3.11261 0
M  V30 31974 H 4213.9 4.42556 -4.81383 0
M  V30 31975 H 4215.38 5.92458 -5.93643 0
M  V30 31976 H 4213.69 7.92655 -6.402 0
M  V30 31977 H 4213.5 6.26671 -8.0846 0
M  V30 31978 H 4211.87 6.29101 -7.32804 0
M  V30 31979 H 4214.51 5.84315 -2.47318 0
M  V30 31980 P 4216.36 7.39546 -4.75277 0
M  V30 31981 O 4217.79 7.84798 -5.01039 0
M  V30 31982 O 4216 5.9812 -5.08098 0
M  V30 31983 O 4216.04 7.57503 -3.1866 0
M  V30 31984 C 4215.88 8.97357 -2.74833 0
M  V30 31985 C 4216.42 9.07548 -1.32709 0
M  V30 31986 O 4215.37 8.62072 -0.606159 0
M  V30 31987 C 4217.64 8.25383 -0.938334 0
M  V30 31988 O 4218.38 8.74577 0.146954 0
M  V30 31989 C 4216.97 6.8802 -0.712559 0
M  V30 31990 O 4217.77 6.1189 0.194655 0
M  V30 31991 C 4215.63 7.27966 -0.139777 0
M  V30 31992 H 4215.67 7.25354 0.961601 0
M  V30 31993 H 4216.85 6.32557 -1.65702 0
M  V30 31994 H 4218.33 8.19355 -1.79097 0
M  V30 31995 H 4216.64 10.1294 -1.10029 0
M  V30 31996 H 4216.45 9.64276 -3.41316 0
M  V30 31997 H 4214.82 9.25417 -2.76357 0
M  V30 31998 H 4217.46 6.25267 1.07847 0
M  V30 31999 P 4219.32 8.791 -2.28523e-10 0
M  V30 32000 O 4220.74 9.31096 0.027933 0
M  V30 32001 O 4218.96 7.77869 -1.04071 0
M  V30 32002 O 4218.99 8.09533 1.41463 0
M  V30 32003 C 4218.83 9.0349 2.53943 0
M  V30 32004 C 4219.37 8.35226 3.79016 0
M  V30 32005 O 4218.32 7.57992 4.15078 0
M  V30 32006 C 4220.59 7.45087 3.67298 0
M  V30 32007 O 4221.33 7.27796 4.85194 0
M  V30 32008 C 4219.92 6.17323 3.12027 0
M  V30 32009 O 4220.72 5.04231 3.47188 0
M  V30 32010 C 4218.58 6.19961 3.81809 0
M  V30 32011 H 4218.62 5.58218 4.73051 0
M  V30 32012 H 4219.8 6.21726 2.02589 0
M  V30 32013 H 4221.28 7.86112 2.9231 0
M  V30 32014 H 4219.59 9.11627 4.55076 0
M  V30 32015 H 4219.4 9.9573 2.34194 0
M  V30 32016 H 4217.77 9.2792 2.67832 0
M  V30 32017 H 4220.41 4.67702 4.28772 0
M  V30 32018 P 4222.27 7.39546 4.75277 0
M  V30 32019 O 4223.69 7.81777 5.05738 0
M  V30 32020 O 4221.91 7.1065 3.32998 0
M  V30 32021 O 4221.94 6.04542 5.56673 0
M  V30 32022 C 4221.78 6.22772 7.02095 0
M  V30 32023 C 4222.32 4.97725 7.70406 0
M  V30 32024 O 4221.27 4.13256 7.58987 0
M  V30 32025 C 4223.54 4.28231 7.11815 0
M  V30 32026 O 4224.28 3.49945 8.01648 0
M  V30 32027 C 4222.87 3.5063 5.96244 0
M  V30 32028 O 4223.67 2.36482 5.64681 0
M  V30 32029 C 4221.53 3.15122 6.56374 0
M  V30 32030 H 4221.57 2.13853 6.99751 0
M  V30 32031 H 4222.75 4.13501 5.06559 0
M  V30 32032 H 4224.23 5.03285 6.70911 0
M  V30 32033 H 4222.54 5.20877 8.75697 0
M  V30 32034 H 4222.35 7.11046 7.35349 0
M  V30 32035 H 4220.72 6.35815 7.26986 0
M  V30 32036 H 4223.36 1.61644 6.13565 0
M  V30 32037 P 4225.22 3.65191 7.99657 0
M  V30 32038 O 4226.64 3.8425 8.48115 0
M  V30 32039 O 4224.86 4.17805 6.64342 0
M  V30 32040 O 4224.89 2.07613 7.95143 0
M  V30 32041 C 4224.73 1.44328 9.27336 0
M  V30 32042 C 4225.27 0.0220036 9.17197 0
M  V30 32043 O 4224.22 -0.626867 8.61923 0
M  V30 32044 C 4226.49 -0.24586 8.30336 0
M  V30 32045 O 4227.23 -1.39011 8.63583 0
M  V30 32046 C 4225.82 -0.273849 6.91158 0
M  V30 32047 O 4226.62 -1.06348 6.02892 0
M  V30 32048 C 4224.49 -0.897649 7.22545 0
M  V30 32049 H 4224.52 -1.9841 7.04286 0
M  V30 32050 H 4225.7 0.739928 6.497 0
M  V30 32051 H 4227.18 0.60668 8.36503 0
M  V30 32052 H 4225.49 -0.352479 10.1829 0
M  V30 32053 H 4225.3 2.00611 10.0304 0
M  V30 32054 H 4223.67 1.41843 9.55327 0
M  V30 32055 H 4226.31 -1.95734 6.03555 0
M  V30 32056 P 4228.17 -1.25109 8.70152 0
M  V30 32057 O 4229.59 -1.35274 9.21221 0
M  V30 32058 O 4227.81 -0.0769065 7.84762 0
M  V30 32059 O 4227.84 -2.55232 7.81161 0
M  V30 32060 C 4227.68 -3.79939 8.58154 0
M  V30 32061 C 4228.22 -4.94023 7.72785 0
M  V30 32062 O 4227.17 -5.18726 6.91205 0
M  V30 32063 C 4229.44 -4.69597 6.85231 0
M  V30 32064 O 4230.18 -5.83832 6.51337 0
M  V30 32065 C 4228.77 -3.96706 5.66633 0
M  V30 32066 O 4229.57 -4.15414 4.49689 0
M  V30 32067 C 4227.44 -4.66153 5.59313 0
M  V30 32068 H 4227.47 -5.47679 4.85214 0
M  V30 32069 H 4228.65 -2.89008 5.86566 0
M  V30 32070 H 4230.13 -4.0121 7.36511 0
M  V30 32071 H 4228.44 -5.80182 8.37584 0
M  V30 32072 H 4228.25 -3.73517 9.52265 0
M  V30 32073 H 4226.62 -3.97163 8.80359 0
M  V30 32074 H 4229.26 -4.90969 4.01921 0
M  V30 32075 P 4231.12 -5.75688 6.64379 0
M  V30 32076 O 4232.54 -6.11849 7.01846 0
M  V30 32077 O 4230.76 -4.30744 6.56026 0
M  V30 32078 O 4230.79 -6.37042 5.19165 0
M  V30 32079 C 4230.63 -7.83578 5.16515 0
M  V30 32080 C 4231.17 -8.33398 3.83019 0
M  V30 32081 O 4230.12 -8.10074 3.01034 0
M  V30 32082 C 4232.39 -7.65514 3.2257 0
M  V30 32083 O 4233.13 -8.4329 2.32297 0
M  V30 32084 C 4231.72 -6.40075 2.62207 0
M  V30 32085 O 4232.52 -5.92589 1.53712 0
M  V30 32086 C 4230.39 -6.9454 2.18503 0
M  V30 32087 H 4230.42 -7.23063 1.12091 0
M  V30 32088 H 4231.6 -5.6025 3.37201 0
M  V30 32089 H 4233.09 -7.35707 4.02681 0
M  V30 32090 H 4231.39 -9.40912 3.9095 0
M  V30 32091 H 4231.2 -8.29056 5.99158 0
M  V30 32092 H 4229.57 -8.10073 5.25882 0
M  V30 32093 H 4232.21 -6.30324 0.726794 0
M  V30 32094 P 4234.07 -8.4349 2.47671 0
M  V30 32095 O 4235.49 -8.94167 2.5964 0
M  V30 32096 O 4233.71 -7.1704 3.19006 0
M  V30 32097 O 4233.74 -8.16596 0.923387 0
M  V30 32098 C 4233.58 -9.38437 0.108857 0
M  V30 32099 C 4234.12 -9.08175 -1.28353 0
M  V30 32100 O 4233.07 -8.44229 -1.84713 0
M  V30 32101 C 4235.34 -8.18386 -1.42505 0
M  V30 32102 O 4236.08 -8.3501 -2.60497 0
M  V30 32103 C 4234.67 -6.80225 -1.25468 0
M  V30 32104 O 4235.47 -5.81621 -1.91066 0
M  V30 32105 C 4233.34 -7.02416 -1.9168 0
M  V30 32106 H 4233.37 -6.6888 -2.96621 0
M  V30 32107 H 4234.55 -6.53617 -0.192223 0
M  V30 32108 H 4236.04 -8.36622 -0.589963 0
M  V30 32109 H 4234.34 -10.0291 -1.79807 0
M  V30 32110 H 4234.15 -10.2138 0.558219 0
M  V30 32111 H 4232.52 -9.6579 0.0444202 0
M  V30 32112 H 4235.16 -5.69556 -2.79637 0
M  V30 32113 P 4237.02 -8.4349 -2.47671 0
M  V30 32114 O 4238.44 -8.92689 -2.65029 0
M  V30 32115 O 4236.66 -7.7568 -1.19296 0
M  V30 32116 O 4236.7 -7.36886 -3.63805 0
M  V30 32117 C 4236.53 -7.95433 -4.98253 0
M  V30 32118 C 4237.08 -6.94612 -5.98974 0
M  V30 32119 O 4236.02 -6.10277 -6.11744 0
M  V30 32120 C 4238.29 -6.11426 -5.62335 0
M  V30 32121 O 4239.03 -5.6162 -6.70584 0
M  V30 32122 C 4237.63 -5.04409 -4.73308 0
M  V30 32123 O 4238.42 -3.86404 -4.74719 0
M  V30 32124 C 4236.29 -4.8728 -5.41006 0
M  V30 32125 N 4235.24 -4.65812 -4.42377 0
M  V30 32126 C 4235.41 -5.09132 -3.15382 0
M  V30 32127 N 4234.39 -4.84021 -2.3716 0
M  V30 32128 C 4233.5 -4.18386 -3.20441 0
M  V30 32129 C 4232.23 -3.6275 -2.94905 0
M  V30 32130 N 4231.64 -3.65794 -1.73372 0
M  V30 32131 N 4231.67 -3.05008 -4.05243 0
M  V30 32132 C 4232.27 -2.98348 -5.28159 0
M  V30 32133 N 4233.45 -3.48171 -5.56333 0
M  V30 32134 C 4234.02 -4.06869 -4.47212 0
M  V30 32135 H 4236.32 -4.02278 -6.11074 0
M  V30 32136 H 4237.5 -5.39013 -3.70026 0
M  V30 32137 H 4238.99 -6.71916 -5.01943 0
M  V30 32138 H 4237.29 -7.45796 -6.94223 0
M  V30 32139 H 4237.1 -8.89416 -5.05237 0
M  V30 32140 H 4235.47 -8.14876 -5.18409 0
M  V30 32141 H 4231.74 -2.47853 -6.07807 0
M  V30 32142 H 4236.31 -5.59989 -2.81362 0
M  V30 32143 H 4230.71 -3.23218 -1.60782 0
M  V30 32144 H 4232.11 -4.10523 -0.937856 0
M  V30 32145 H 4238.11 -3.27906 -5.43085 0
M  V30 32146 P 4239.97 -5.75688 -6.64379 0
M  V30 32147 O 4241.39 -6.07692 -7.0558 0
M  V30 32148 O 4239.61 -5.88047 -5.19722 0
M  V30 32149 O 4239.65 -4.2322 -7.04443 0
M  V30 32150 C 4239.49 -3.99785 -8.49201 0
M  V30 32151 C 4240.03 -2.60516 -8.79425 0
M  V30 32152 O 4238.97 -1.82663 -8.44573 0
M  V30 32153 C 4241.24 -2.10343 -8.03628 0
M  V30 32154 O 4241.98 -1.09919 -8.67766 0
M  V30 32155 C 4240.58 -1.68446 -6.70876 0
M  V30 32156 O 4241.37 -0.684109 -6.08265 0
M  V30 32157 C 4239.24 -1.17436 -7.18567 0
M  V30 32158 N 4238.2 -1.52699 -6.23988 0
M  V30 32159 C 4238.36 -2.578 -5.40574 0
M  V30 32160 N 4237.34 -2.78966 -4.61193 0
M  V30 32161 C 4236.45 -1.78725 -4.95769 0
M  V30 32162 C 4235.19 -1.45727 -4.44207 0
M  V30 32163 N 4234.59 -2.13994 -3.43613 0
M  V30 32164 N 4234.62 -0.374977 -5.05812 0
M  V30 32165 C 4235.22 0.345585 -6.05615 0
M  V30 32166 N 4236.4 0.0787651 -6.56253 0
M  V30 32167 C 4236.97 -1.00499 -5.96189 0
M  V30 32168 H 4239.27 -0.0804622 -7.31556 0
M  V30 32169 H 4240.45 -2.53396 -6.02698 0
M  V30 32170 H 4241.94 -2.93881 -7.85526 0
M  V30 32171 H 4240.24 -2.52078 -9.87225 0
M  V30 32172 H 4240.05 -4.75072 -9.05887 0
M  V30 32173 H 4238.42 -4.05244 -8.76668 0
M  V30 32174 H 4234.69 1.20098 -6.4532 0
M  V30 32175 H 4239.26 -3.18977 -5.3945 0
M  V30 32176 H 4233.66 -1.84983 -3.10004 0
M  V30 32177 H 4235.06 -2.9465 -3.00843 0
M  V30 32178 H 4241.06 0.177619 -6.34151 0
M  V30 32179 P 4242.92 -1.25109 -8.70152 0
M  V30 32180 O 4244.34 -1.29744 -9.22016 0
M  V30 32181 O 4242.56 -2.13714 -7.55141 0
M  V30 32182 O 4242.6 0.248149 -8.21425 0
M  V30 32183 C 4242.44 1.22779 -9.30434 0
M  V30 32184 C 4242.98 2.56293 -8.80664 0
M  V30 32185 O 4241.92 3.02979 -8.09349 0
M  V30 32186 C 4244.19 2.57523 -7.89775 0
M  V30 32187 O 4244.93 3.7668 -7.89438 0
M  V30 32188 C 4243.53 2.20997 -6.55446 0
M  V30 32189 O 4244.32 2.71895 -5.48509 0
M  V30 32190 C 4242.19 2.89693 -6.67988 0
M  V30 32191 H 4242.22 3.88793 -6.19859 0
M  V30 32192 H 4243.4 1.12046 -6.44229 0
M  V30 32193 H 4244.89 1.7746 -8.19711 0
M  V30 32194 H 4243.19 3.20706 -9.67112 0
M  V30 32195 H 4243 0.901032 -10.1892 0
M  V30 32196 H 4241.37 1.33049 -9.56592 0
M  V30 32197 H 4244.01 3.57847 -5.23962 0
M  V30 32198 P 4245.87 3.65191 -7.99657 0
M  V30 32199 O 4247.29 3.89332 -8.45794 0
M  V30 32200 O 4245.51 2.28472 -7.50807 0
M  V30 32201 O 4245.55 4.64972 -6.77611 0
M  V30 32202 C 4245.39 6.06319 -7.16352 0
M  V30 32203 C 4245.93 6.91731 -6.02299 0
M  V30 32204 O 4244.87 6.92449 -5.17064 0
M  V30 32205 C 4247.15 6.43627 -5.25174 0
M  V30 32206 O 4247.88 7.43686 -4.60469 0
M  V30 32207 C 4246.48 5.40275 -4.31916 0
M  V30 32208 O 4247.28 5.25279 -3.14438 0
M  V30 32209 C 4245.14 6.04847 -4.05327 0
M  V30 32210 H 4245.17 6.62195 -3.11261 0
M  V30 32211 H 4246.35 4.42556 -4.81383 0
M  V30 32212 H 4247.84 5.92458 -5.93643 0
M  V30 32213 H 4246.14 7.92655 -6.402 0
M  V30 32214 H 4245.95 6.26671 -8.0846 0
M  V30 32215 H 4244.32 6.29101 -7.32804 0
M  V30 32216 H 4246.96 5.84315 -2.47318 0
M  V30 32217 P 4248.82 7.39546 -4.75277 0
M  V30 32218 O 4250.24 7.84798 -5.01039 0
M  V30 32219 O 4248.46 5.9812 -5.08098 0
M  V30 32220 O 4248.5 7.57503 -3.1866 0
M  V30 32221 C 4248.34 8.97357 -2.74833 0
M  V30 32222 C 4248.88 9.07548 -1.32709 0
M  V30 32223 O 4247.82 8.62072 -0.606159 0
M  V30 32224 C 4250.1 8.25383 -0.938334 0
M  V30 32225 O 4250.83 8.74577 0.146954 0
M  V30 32226 C 4249.43 6.8802 -0.712559 0
M  V30 32227 O 4250.23 6.1189 0.194655 0
M  V30 32228 C 4248.09 7.27966 -0.139777 0
M  V30 32229 H 4248.12 7.25354 0.961601 0
M  V30 32230 H 4249.3 6.32557 -1.65702 0
M  V30 32231 H 4250.79 8.19355 -1.79097 0
M  V30 32232 H 4249.09 10.1294 -1.10029 0
M  V30 32233 H 4248.9 9.64276 -3.41316 0
M  V30 32234 H 4247.27 9.25417 -2.76357 0
M  V30 32235 H 4249.91 6.25267 1.07847 0
M  V30 32236 P 4251.77 8.791 -2.33709e-10 0
M  V30 32237 O 4253.19 9.31096 0.027933 0
M  V30 32238 O 4251.41 7.77869 -1.04071 0
M  V30 32239 O 4251.45 8.09533 1.41463 0
M  V30 32240 C 4251.29 9.0349 2.53943 0
M  V30 32241 C 4251.83 8.35226 3.79016 0
M  V30 32242 O 4250.77 7.57992 4.15078 0
M  V30 32243 C 4253.05 7.45087 3.67298 0
M  V30 32244 O 4253.78 7.27796 4.85194 0
M  V30 32245 C 4252.38 6.17323 3.12027 0
M  V30 32246 O 4253.18 5.04231 3.47188 0
M  V30 32247 C 4251.04 6.19961 3.81809 0
M  V30 32248 H 4251.07 5.58218 4.73051 0
M  V30 32249 H 4252.26 6.21726 2.02589 0
M  V30 32250 H 4253.74 7.86112 2.9231 0
M  V30 32251 H 4252.05 9.11627 4.55076 0
M  V30 32252 H 4251.86 9.9573 2.34194 0
M  V30 32253 H 4250.23 9.2792 2.67832 0
M  V30 32254 H 4252.86 4.67702 4.28772 0
M  V30 32255 P 4254.72 7.39546 4.75277 0
M  V30 32256 O 4256.14 7.81777 5.05738 0
M  V30 32257 O 4254.36 7.1065 3.32998 0
M  V30 32258 O 4254.4 6.04542 5.56673 0
M  V30 32259 C 4254.24 6.22772 7.02095 0
M  V30 32260 C 4254.78 4.97725 7.70406 0
M  V30 32261 O 4253.72 4.13256 7.58987 0
M  V30 32262 C 4256 4.28231 7.11815 0
M  V30 32263 O 4256.73 3.49945 8.01648 0
M  V30 32264 C 4255.33 3.5063 5.96244 0
M  V30 32265 O 4256.13 2.36482 5.64681 0
M  V30 32266 C 4253.99 3.15122 6.56374 0
M  V30 32267 H 4254.02 2.13853 6.99751 0
M  V30 32268 H 4255.21 4.13501 5.06559 0
M  V30 32269 H 4256.69 5.03285 6.70911 0
M  V30 32270 H 4255 5.20877 8.75697 0
M  V30 32271 H 4254.81 7.11046 7.35349 0
M  V30 32272 H 4253.18 6.35815 7.26986 0
M  V30 32273 H 4255.81 1.61644 6.13565 0
M  V30 32274 P 4257.67 3.65191 7.99657 0
M  V30 32275 O 4259.09 3.8425 8.48115 0
M  V30 32276 O 4257.31 4.17805 6.64342 0
M  V30 32277 O 4257.35 2.07613 7.95143 0
M  V30 32278 C 4257.19 1.44328 9.27336 0
M  V30 32279 C 4257.73 0.0220036 9.17197 0
M  V30 32280 O 4256.67 -0.626867 8.61923 0
M  V30 32281 C 4258.95 -0.24586 8.30336 0
M  V30 32282 O 4259.69 -1.39011 8.63583 0
M  V30 32283 C 4258.28 -0.273849 6.91158 0
M  V30 32284 O 4259.08 -1.06348 6.02892 0
M  V30 32285 C 4256.94 -0.897649 7.22545 0
M  V30 32286 H 4256.97 -1.9841 7.04286 0
M  V30 32287 H 4258.16 0.739928 6.497 0
M  V30 32288 H 4259.64 0.60668 8.36503 0
M  V30 32289 H 4257.95 -0.352479 10.1829 0
M  V30 32290 H 4257.76 2.00611 10.0304 0
M  V30 32291 H 4256.13 1.41843 9.55327 0
M  V30 32292 H 4258.77 -1.95734 6.03555 0
M  V30 32293 P 4260.62 -1.25109 8.70152 0
M  V30 32294 O 4262.05 -1.35274 9.21221 0
M  V30 32295 O 4260.26 -0.0769065 7.84762 0
M  V30 32296 O 4260.3 -2.55232 7.81161 0
M  V30 32297 C 4260.14 -3.79939 8.58154 0
M  V30 32298 C 4260.68 -4.94023 7.72785 0
M  V30 32299 O 4259.62 -5.18726 6.91205 0
M  V30 32300 C 4261.9 -4.69597 6.85231 0
M  V30 32301 O 4262.64 -5.83832 6.51337 0
M  V30 32302 C 4261.23 -3.96706 5.66633 0
M  V30 32303 O 4262.03 -4.15414 4.49689 0
M  V30 32304 C 4259.89 -4.66153 5.59313 0
M  V30 32305 H 4259.92 -5.47679 4.85214 0
M  V30 32306 H 4261.11 -2.89008 5.86566 0
M  V30 32307 H 4262.59 -4.0121 7.36511 0
M  V30 32308 H 4260.9 -5.80182 8.37584 0
M  V30 32309 H 4260.71 -3.73517 9.52265 0
M  V30 32310 H 4259.08 -3.97163 8.80359 0
M  V30 32311 H 4261.72 -4.90969 4.01921 0
M  V30 32312 P 4263.57 -5.75688 6.64379 0
M  V30 32313 O 4265 -6.11849 7.01846 0
M  V30 32314 O 4263.21 -4.30744 6.56026 0
M  V30 32315 O 4263.25 -6.37042 5.19165 0
M  V30 32316 C 4263.09 -7.83578 5.16515 0
M  V30 32317 C 4263.63 -8.33398 3.83019 0
M  V30 32318 O 4262.57 -8.10074 3.01034 0
M  V30 32319 C 4264.85 -7.65514 3.2257 0
M  V30 32320 O 4265.59 -8.4329 2.32297 0
M  V30 32321 C 4264.18 -6.40075 2.62207 0
M  V30 32322 O 4264.98 -5.92589 1.53712 0
M  V30 32323 C 4262.84 -6.9454 2.18503 0
M  V30 32324 H 4262.87 -7.23063 1.12091 0
M  V30 32325 H 4264.06 -5.6025 3.37201 0
M  V30 32326 H 4265.54 -7.35707 4.02681 0
M  V30 32327 H 4263.85 -9.40912 3.9095 0
M  V30 32328 H 4263.66 -8.29056 5.99158 0
M  V30 32329 H 4262.03 -8.10073 5.25882 0
M  V30 32330 H 4264.67 -6.30324 0.726794 0
M  V30 32331 P 4266.52 -8.4349 2.47671 0
M  V30 32332 O 4267.95 -8.94167 2.5964 0
M  V30 32333 O 4266.16 -7.1704 3.19006 0
M  V30 32334 O 4266.2 -8.16596 0.923387 0
M  V30 32335 C 4266.04 -9.38437 0.108857 0
M  V30 32336 C 4266.58 -9.08175 -1.28353 0
M  V30 32337 O 4265.53 -8.44229 -1.84713 0
M  V30 32338 C 4267.8 -8.18386 -1.42505 0
M  V30 32339 O 4268.54 -8.3501 -2.60497 0
M  V30 32340 C 4267.13 -6.80225 -1.25468 0
M  V30 32341 O 4267.93 -5.81621 -1.91066 0
M  V30 32342 C 4265.79 -7.02416 -1.9168 0
M  V30 32343 H 4265.83 -6.6888 -2.96621 0
M  V30 32344 H 4267.01 -6.53617 -0.192223 0
M  V30 32345 H 4268.49 -8.36622 -0.589963 0
M  V30 32346 H 4266.8 -10.0291 -1.79807 0
M  V30 32347 H 4266.61 -10.2138 0.558219 0
M  V30 32348 H 4264.98 -9.6579 0.0444202 0
M  V30 32349 H 4267.62 -5.69556 -2.79637 0
M  V30 32350 P 4269.47 -8.4349 -2.47671 0
M  V30 32351 O 4270.9 -8.92593 -2.65 0
M  V30 32352 O 4269.11 -7.7568 -1.19296 0
M  V30 32353 O 4269.15 -7.36886 -3.63805 0
M  V30 32354 C 4268.99 -7.95349 -4.982 0
M  V30 32355 C 4269.53 -6.94612 -5.98974 0
M  V30 32356 O 4268.48 -6.10347 -6.11815 0
M  V30 32357 C 4270.75 -6.11426 -5.62335 0
M  V30 32358 O 4271.49 -5.6162 -6.70584 0
M  V30 32359 C 4270.08 -5.04409 -4.73308 0
M  V30 32360 O 4270.88 -3.85992 -4.75183 0
M  V30 32361 C 4268.74 -4.8728 -5.41006 0
M  V30 32362 H 4268.78 -4.02333 -6.11157 0
M  V30 32363 H 4269.96 -5.39466 -3.69543 0
M  V30 32364 H 4271.44 -6.71916 -5.01943 0
M  V30 32365 H 4269.75 -7.4649 -6.93477 0
M  V30 32366 H 4269.56 -8.89416 -5.05237 0
M  V30 32367 H 4267.93 -8.14876 -5.18409 0
M  V30 32368 H 4270.57 -3.27957 -5.4317 0
M  V30 32369 P 4272.43 -5.75688 -6.64379 0
M  V30 32370 O 4273.85 -6.07627 -7.05504 0
M  V30 32371 O 4272.07 -5.88047 -5.19722 0
M  V30 32372 O 4272.1 -4.2322 -7.04443 0
M  V30 32373 C 4271.94 -3.99743 -8.4911 0
M  V30 32374 C 4272.48 -2.60516 -8.79425 0
M  V30 32375 O 4271.43 -1.82684 -8.4467 0
M  V30 32376 C 4273.7 -2.10343 -8.03628 0
M  V30 32377 O 4274.44 -1.09919 -8.67766 0
M  V30 32378 C 4273.03 -1.68446 -6.70876 0
M  V30 32379 O 4273.83 -0.678137 -6.08433 0
M  V30 32380 C 4271.69 -1.17436 -7.18567 0
M  V30 32381 H 4271.73 -0.0804732 -7.31656 0
M  V30 32382 H 4272.91 -2.54037 -6.02537 0
M  V30 32383 H 4274.39 -2.93881 -7.85526 0
M  V30 32384 H 4272.7 -2.53065 -9.86973 0
M  V30 32385 H 4272.51 -4.75072 -9.05887 0
M  V30 32386 H 4270.88 -4.05244 -8.76668 0
M  V30 32387 H 4273.52 0.177647 -6.34251 0
M  V30 32388 P 4275.38 -1.25109 -8.70152 0
M  V30 32389 O 4276.8 -1.29758 -9.22115 0
M  V30 32390 O 4275.02 -2.13714 -7.55141 0
M  V30 32391 O 4275.05 0.248149 -8.21425 0
M  V30 32392 C 4274.89 1.22792 -9.30533 0
M  V30 32393 C 4275.43 2.56293 -8.80664 0
M  V30 32394 O 4274.38 3.02944 -8.09255 0
M  V30 32395 C 4276.65 2.57523 -7.89775 0
M  V30 32396 O 4277.39 3.7668 -7.89438 0
M  V30 32397 C 4275.98 2.20997 -6.55446 0
M  V30 32398 O 4276.78 2.71302 -5.48691 0
M  V30 32399 C 4274.64 2.89693 -6.67988 0
M  V30 32400 N 4273.6 2.08895 -6.07487 0
M  V30 32401 C 4273.77 0.753809 -5.94137 0
M  V30 32402 N 4272.74 0.146592 -5.38801 0
M  V30 32403 C 4271.86 1.1768 -5.13693 0
M  V30 32404 C 4270.59 1.17563 -4.52477 0
M  V30 32405 N 4269.99 0.057481 -4.04759 0
M  V30 32406 N 4270.03 2.41918 -4.45789 0
M  V30 32407 C 4270.63 3.56493 -4.90792 0
M  V30 32408 N 4271.81 3.61423 -5.47817 0
M  V30 32409 C 4272.38 2.37779 -5.5588 0
M  V30 32410 H 4274.68 3.8874 -6.19774 0
M  V30 32411 H 4275.86 1.12673 -6.44018 0
M  V30 32412 H 4277.34 1.7746 -8.19711 0
M  V30 32413 H 4275.65 3.21673 -9.66791 0
M  V30 32414 H 4275.46 0.901032 -10.1892 0
M  V30 32415 H 4273.83 1.33049 -9.56592 0
M  V30 32416 H 4270.09 4.49919 -4.77947 0
M  V30 32417 H 4274.67 0.233081 -6.26266 0
M  V30 32418 H 4269.06 0.119831 -3.60801 0
M  V30 32419 H 4270.47 -0.852272 -4.12385 0
M  V30 32420 H 4276.47 3.5779 -5.23879 0
M  V30 32421 P 4278.33 3.65191 -7.99657 0
M  V30 32422 O 4279.75 3.89374 -8.45885 0
M  V30 32423 O 4277.97 2.28472 -7.50807 0
M  V30 32424 O 4278 4.64972 -6.77611 0
M  V30 32425 C 4277.84 6.06383 -7.16428 0
M  V30 32426 C 4278.38 6.91731 -6.02299 0
M  V30 32427 O 4277.33 6.92369 -5.17005 0
M  V30 32428 C 4279.6 6.43627 -5.25174 0
M  V30 32429 O 4280.34 7.43686 -4.60469 0
M  V30 32430 C 4278.93 5.40275 -4.31916 0
M  V30 32431 O 4279.73 5.24878 -3.14911 0
M  V30 32432 C 4277.6 6.04847 -4.05327 0
M  V30 32433 N 4276.55 5.04166 -3.98114 0
M  V30 32434 C 4276.72 3.84629 -4.59066 0
M  V30 32435 N 4275.69 3.0363 -4.45343 0
M  V30 32436 C 4274.81 3.76722 -3.68523 0
M  V30 32437 C 4273.54 3.43528 -3.17088 0
M  V30 32438 N 4272.94 2.23665 -3.37397 0
M  V30 32439 N 4272.98 4.44526 -2.44231 0
M  V30 32440 C 4273.58 5.65243 -2.20146 0
M  V30 32441 N 4274.76 6.00221 -2.65453 0
M  V30 32442 C 4275.33 5.00564 -3.39083 0
M  V30 32443 H 4277.63 6.62104 -3.11218 0
M  V30 32444 H 4278.81 4.42969 -4.80867 0
M  V30 32445 H 4280.29 5.92458 -5.93643 0
M  V30 32446 H 4278.6 7.93295 -6.39407 0
M  V30 32447 H 4278.41 6.26671 -8.0846 0
M  V30 32448 H 4276.78 6.29101 -7.32804 0
M  V30 32449 H 4273.04 6.36894 -1.5883 0
M  V30 32450 H 4277.62 3.58193 -5.14248 0
M  V30 32451 H 4272.01 2.05145 -2.97047 0
M  V30 32452 H 4273.42 1.51255 -3.92998 0
M  V30 32453 H 4279.42 5.84223 -2.47279 0
M  V30 32454 P 4281.28 7.39546 -4.75277 0
M  V30 32455 O 4282.7 7.84798 -5.01039 0
M  V30 32456 O 4280.92 5.9812 -5.08098 0
M  V30 32457 O 4280.95 7.57503 -3.1866 0
M  V30 32458 C 4280.79 8.97357 -2.74833 0
M  V30 32459 C 4281.33 9.07548 -1.32709 0
M  V30 32460 O 4280.28 8.62072 -0.606159 0
M  V30 32461 C 4282.55 8.25383 -0.938334 0
M  V30 32462 O 4283.29 8.74577 0.146954 0
M  V30 32463 C 4281.88 6.8802 -0.712559 0
M  V30 32464 O 4282.68 6.1189 0.194655 0
M  V30 32465 C 4280.55 7.27966 -0.139777 0
M  V30 32466 H 4280.58 7.25354 0.961601 0
M  V30 32467 H 4281.76 6.32557 -1.65702 0
M  V30 32468 H 4283.25 8.19355 -1.79097 0
M  V30 32469 H 4281.55 10.1294 -1.10029 0
M  V30 32470 H 4281.36 9.64276 -3.41316 0
M  V30 32471 H 4279.73 9.25417 -2.76357 0
M  V30 32472 H 4282.37 6.25267 1.07847 0
M  V30 32473 P 4284.23 8.791 -2.38896e-10 0
M  V30 32474 O 4285.65 9.31196 0.027936 0
M  V30 32475 O 4283.87 7.77869 -1.04071 0
M  V30 32476 O 4283.9 8.09533 1.41463 0
M  V30 32477 C 4283.74 9.03587 2.5397 0
M  V30 32478 C 4284.28 8.35226 3.79016 0
M  V30 32479 O 4283.23 7.57904 4.1503 0
M  V30 32480 C 4285.5 7.45087 3.67298 0
M  V30 32481 O 4286.24 7.27796 4.85194 0
M  V30 32482 C 4284.83 6.17323 3.12027 0
M  V30 32483 O 4285.63 5.04496 3.46627 0
M  V30 32484 C 4283.5 6.19961 3.81809 0
M  V30 32485 N 4282.45 5.71575 2.93223 0
M  V30 32486 C 4282.62 5.77362 1.59168 0
M  V30 32487 N 4281.6 5.3123 0.911893 0
M  V30 32488 C 4280.71 4.91717 1.89588 0
M  V30 32489 C 4279.44 4.3114 1.8076 0
M  V30 32490 N 4278.84 3.99821 0.632928 0
M  V30 32491 N 4278.88 4.06823 3.02898 0
M  V30 32492 C 4279.48 4.35062 4.22711 0
M  V30 32493 N 4280.66 4.90805 4.35707 0
M  V30 32494 C 4281.23 5.16382 3.14469 0
M  V30 32495 H 4283.53 5.58142 4.72986 0
M  V30 32496 H 4284.71 6.21428 2.0318 0
M  V30 32497 H 4286.19 7.86112 2.9231 0
M  V30 32498 H 4284.5 9.11171 4.55987 0
M  V30 32499 H 4284.31 9.9573 2.34194 0
M  V30 32500 H 4282.68 9.2792 2.67832 0
M  V30 32501 H 4278.94 4.09052 5.13359 0
M  V30 32502 H 4283.52 6.16575 1.12198 0
M  V30 32503 H 4277.91 3.55423 0.632085 0
M  V30 32504 H 4279.32 4.20317 -0.256712 0
M  V30 32505 H 4285.32 4.67628 4.28704 0
M  V30 32506 P 4287.18 7.39546 4.75277 0
M  V30 32507 O 4288.6 7.81945 5.05847 0
M  V30 32508 O 4286.82 7.1065 3.32998 0
M  V30 32509 O 4286.86 6.04542 5.56673 0
M  V30 32510 C 4286.7 6.22772 7.02095 0
M  V30 32511 C 4287.24 4.97671 7.70322 0
M  V30 32512 O 4286.18 4.13256 7.58987 0
M  V30 32513 C 4288.45 4.28231 7.11815 0
M  V30 32514 O 4289.19 3.49945 8.01648 0
M  V30 32515 C 4287.79 3.5063 5.96244 0
M  V30 32516 O 4288.58 2.36443 5.64589 0
M  V30 32517 C 4286.45 3.15122 6.56374 0
M  V30 32518 N 4285.4 3.22311 5.55692 0
M  V30 32519 C 4285.47 4.14382 4.59701 0
M  V30 32520 N 4284.42 4.04476 3.76958 0
M  V30 32521 C 4283.69 3.04892 4.26534 0
M  V30 32522 C 4282.38 2.57447 3.88189 0
M  V30 32523 O 4281.65 2.9785 2.96543 0
M  V30 32524 N 4281.95 1.55228 4.65922 0
M  V30 32525 C 4282.7 1.01152 5.73447 0
M  V30 32526 N 4282.1 -0.0472117 6.37783 0
M  V30 32527 N 4283.85 1.467 6.13813 0
M  V30 32528 C 4284.31 2.4931 5.38487 0
M  V30 32529 H 4286.48 2.13853 6.99751 0
M  V30 32530 H 4287.66 4.13438 5.06482 0
M  V30 32531 H 4289.15 5.02614 6.71414 0
M  V30 32532 H 4287.45 5.20877 8.75697 0
M  V30 32533 H 4287.26 7.11046 7.35349 0
M  V30 32534 H 4285.63 6.35815 7.26986 0
M  V30 32535 H 4281.06 1.15238 4.46468 0
M  V30 32536 H 4286.26 4.88312 4.49647 0
M  V30 32537 H 4281.19 -0.396382 6.05203 0
M  V30 32538 H 4282.57 -0.484997 7.18465 0
M  V30 32539 H 4288.27 1.61619 6.13468 0
M  V30 32540 P 4290.13 3.65191 7.99657 0
M  V30 32541 O 4291.55 3.8425 8.48115 0
M  V30 32542 O 4289.77 4.17805 6.64342 0
M  V30 32543 O 4289.81 2.07613 7.95143 0
M  V30 32544 C 4289.65 1.44328 9.27336 0
M  V30 32545 C 4290.19 0.0220036 9.17197 0
M  V30 32546 O 4289.13 -0.626867 8.61923 0
M  V30 32547 C 4291.4 -0.24586 8.30336 0
M  V30 32548 O 4292.14 -1.39011 8.63583 0
M  V30 32549 C 4290.73 -0.273849 6.91158 0
M  V30 32550 O 4291.53 -1.06348 6.02892 0
M  V30 32551 C 4289.4 -0.897649 7.22545 0
M  V30 32552 H 4289.43 -1.9841 7.04286 0
M  V30 32553 H 4290.61 0.739928 6.497 0
M  V30 32554 H 4292.1 0.60668 8.36503 0
M  V30 32555 H 4290.4 -0.352479 10.1829 0
M  V30 32556 H 4290.21 2.00611 10.0304 0
M  V30 32557 H 4288.58 1.41843 9.55327 0
M  V30 32558 H 4291.22 -1.95734 6.03555 0
M  V30 32559 P 4293.08 -1.25109 8.70152 0
M  V30 32560 O 4294.5 -1.35274 9.21221 0
M  V30 32561 O 4292.72 -0.0769065 7.84762 0
M  V30 32562 O 4292.76 -2.55232 7.81161 0
M  V30 32563 C 4292.6 -3.79939 8.58154 0
M  V30 32564 C 4293.14 -4.94023 7.72785 0
M  V30 32565 O 4292.08 -5.18726 6.91205 0
M  V30 32566 C 4294.35 -4.69597 6.85231 0
M  V30 32567 O 4295.09 -5.83832 6.51337 0
M  V30 32568 C 4293.69 -3.96706 5.66633 0
M  V30 32569 O 4294.48 -4.15414 4.49689 0
M  V30 32570 C 4292.35 -4.66153 5.59313 0
M  V30 32571 H 4292.38 -5.47679 4.85214 0
M  V30 32572 H 4293.56 -2.89008 5.86566 0
M  V30 32573 H 4295.05 -4.0121 7.36511 0
M  V30 32574 H 4293.35 -5.80182 8.37584 0
M  V30 32575 H 4293.16 -3.73517 9.52265 0
M  V30 32576 H 4291.53 -3.97163 8.80359 0
M  V30 32577 H 4294.17 -4.90969 4.01921 0
M  V30 32578 P 4296.03 -5.75688 6.64379 0
M  V30 32579 O 4297.45 -6.11849 7.01846 0
M  V30 32580 O 4295.67 -4.30744 6.56026 0
M  V30 32581 O 4295.71 -6.37042 5.19165 0
M  V30 32582 C 4295.55 -7.83578 5.16515 0
M  V30 32583 C 4296.09 -8.33398 3.83019 0
M  V30 32584 O 4295.03 -8.10074 3.01034 0
M  V30 32585 C 4297.3 -7.65514 3.2257 0
M  V30 32586 O 4298.04 -8.4329 2.32297 0
M  V30 32587 C 4296.64 -6.40075 2.62207 0
M  V30 32588 O 4297.43 -5.92589 1.53712 0
M  V30 32589 C 4295.3 -6.9454 2.18503 0
M  V30 32590 H 4295.33 -7.23063 1.12091 0
M  V30 32591 H 4296.51 -5.6025 3.37201 0
M  V30 32592 H 4298 -7.35707 4.02681 0
M  V30 32593 H 4296.3 -9.40912 3.9095 0
M  V30 32594 H 4296.11 -8.29056 5.99158 0
M  V30 32595 H 4294.48 -8.10073 5.25882 0
M  V30 32596 H 4297.12 -6.30324 0.726794 0
M  V30 32597 P 4298.98 -8.4349 2.47671 0
M  V30 32598 O 4300.4 -8.94167 2.5964 0
M  V30 32599 O 4298.62 -7.1704 3.19006 0
M  V30 32600 O 4298.66 -8.16596 0.923387 0
M  V30 32601 C 4298.5 -9.38437 0.108857 0
M  V30 32602 C 4299.04 -9.08175 -1.28353 0
M  V30 32603 O 4297.98 -8.44229 -1.84713 0
M  V30 32604 C 4300.26 -8.18386 -1.42505 0
M  V30 32605 O 4300.99 -8.3501 -2.60497 0
M  V30 32606 C 4299.59 -6.80225 -1.25468 0
M  V30 32607 O 4300.39 -5.81621 -1.91066 0
M  V30 32608 C 4298.25 -7.02416 -1.9168 0
M  V30 32609 H 4298.28 -6.6888 -2.96621 0
M  V30 32610 H 4299.46 -6.53617 -0.192223 0
M  V30 32611 H 4300.95 -8.36622 -0.589963 0
M  V30 32612 H 4299.25 -10.0291 -1.79807 0
M  V30 32613 H 4299.06 -10.2138 0.558219 0
M  V30 32614 H 4297.43 -9.6579 0.0444202 0
M  V30 32615 H 4300.07 -5.69556 -2.79637 0
M  V30 32616 P 4301.93 -8.4349 -2.47671 0
M  V30 32617 O 4303.35 -8.92593 -2.65 0
M  V30 32618 O 4301.57 -7.7568 -1.19296 0
M  V30 32619 O 4301.61 -7.36886 -3.63805 0
M  V30 32620 C 4301.45 -7.95349 -4.982 0
M  V30 32621 C 4301.99 -6.94612 -5.98974 0
M  V30 32622 O 4300.93 -6.10347 -6.11815 0
M  V30 32623 C 4303.21 -6.11426 -5.62335 0
M  V30 32624 O 4303.94 -5.6162 -6.70584 0
M  V30 32625 C 4302.54 -5.04409 -4.73308 0
M  V30 32626 O 4303.34 -3.85992 -4.75183 0
M  V30 32627 C 4301.2 -4.8728 -5.41006 0
M  V30 32628 H 4301.23 -4.02333 -6.11157 0
M  V30 32629 H 4302.42 -5.39466 -3.69543 0
M  V30 32630 H 4303.9 -6.71916 -5.01943 0
M  V30 32631 H 4302.21 -7.4649 -6.93477 0
M  V30 32632 H 4302.02 -8.89416 -5.05237 0
M  V30 32633 H 4300.39 -8.14876 -5.18409 0
M  V30 32634 H 4303.02 -3.27957 -5.4317 0
M  V30 32635 P 4304.88 -5.75688 -6.64379 0
M  V30 32636 O 4306.3 -6.07627 -7.05504 0
M  V30 32637 O 4304.52 -5.88047 -5.19722 0
M  V30 32638 O 4304.56 -4.2322 -7.04443 0
M  V30 32639 C 4304.4 -3.99743 -8.4911 0
M  V30 32640 C 4304.94 -2.60516 -8.79425 0
M  V30 32641 O 4303.88 -1.82684 -8.4467 0
M  V30 32642 C 4306.16 -2.10343 -8.03628 0
M  V30 32643 O 4306.89 -1.09919 -8.67766 0
M  V30 32644 C 4305.49 -1.68446 -6.70876 0
M  V30 32645 O 4306.29 -0.678137 -6.08433 0
M  V30 32646 C 4304.15 -1.17436 -7.18567 0
M  V30 32647 H 4304.18 -0.0804732 -7.31656 0
M  V30 32648 H 4305.37 -2.54037 -6.02537 0
M  V30 32649 H 4306.85 -2.93881 -7.85526 0
M  V30 32650 H 4305.16 -2.53065 -9.86973 0
M  V30 32651 H 4304.97 -4.75072 -9.05887 0
M  V30 32652 H 4303.34 -4.05244 -8.76668 0
M  V30 32653 H 4305.97 0.177647 -6.34251 0
M  V30 32654 P 4307.83 -1.25109 -8.70152 0
M  V30 32655 O 4309.25 -1.29772 -9.22214 0
M  V30 32656 O 4307.47 -2.13714 -7.55141 0
M  V30 32657 O 4307.51 0.248149 -8.21425 0
M  V30 32658 C 4307.35 1.22779 -9.30434 0
M  V30 32659 C 4307.89 2.56265 -8.80568 0
M  V30 32660 O 4306.83 3.02979 -8.09349 0
M  V30 32661 C 4309.11 2.57523 -7.89775 0
M  V30 32662 O 4309.85 3.7668 -7.89438 0
M  V30 32663 C 4308.44 2.20997 -6.55446 0
M  V30 32664 O 4309.24 2.71851 -5.48419 0
M  V30 32665 C 4307.1 2.89693 -6.67988 0
M  V30 32666 N 4306.06 2.08895 -6.07487 0
M  V30 32667 C 4306.12 0.760559 -6.14209 0
M  V30 32668 N 4305.08 0.200108 -5.52538 0
M  V30 32669 C 4304.34 1.22692 -5.09742 0
M  V30 32670 C 4303.04 1.24782 -4.48775 0
M  V30 32671 O 4302.3 0.290617 -4.19294 0
M  V30 32672 N 4302.61 2.50468 -4.22428 0
M  V30 32673 C 4303.35 3.67142 -4.51974 0
M  V30 32674 N 4302.76 4.85096 -4.14091 0
M  V30 32675 N 4304.51 3.67821 -5.12831 0
M  V30 32676 C 4304.96 2.43698 -5.4105 0
M  V30 32677 H 4307.13 3.88793 -6.19859 0
M  V30 32678 H 4308.32 1.12029 -6.4413 0
M  V30 32679 H 4309.8 1.78279 -8.19533 0
M  V30 32680 H 4308.11 3.20706 -9.67112 0
M  V30 32681 H 4307.92 0.901032 -10.1892 0
M  V30 32682 H 4306.29 1.33049 -9.56592 0
M  V30 32683 H 4301.71 2.61953 -3.79465 0
M  V30 32684 H 4306.92 0.200439 -6.63497 0
M  V30 32685 H 4301.85 4.8334 -3.66367 0
M  V30 32686 H 4303.22 5.7474 -4.33841 0
M  V30 32687 H 4308.93 3.5779 -5.23879 0
M  V30 32688 P 4310.78 3.65191 -7.99657 0
M  V30 32689 O 4312.2 3.89332 -8.45794 0
M  V30 32690 O 4310.42 2.28472 -7.50807 0
M  V30 32691 O 4310.46 4.64972 -6.77611 0
M  V30 32692 C 4310.3 6.06319 -7.16352 0
M  V30 32693 C 4310.84 6.91731 -6.02299 0
M  V30 32694 O 4309.78 6.92449 -5.17064 0
M  V30 32695 C 4312.06 6.43627 -5.25174 0
M  V30 32696 O 4312.8 7.43686 -4.60469 0
M  V30 32697 C 4311.39 5.40275 -4.31916 0
M  V30 32698 O 4312.19 5.25279 -3.14438 0
M  V30 32699 C 4310.05 6.04847 -4.05327 0
M  V30 32700 H 4310.08 6.62195 -3.11261 0
M  V30 32701 H 4311.27 4.42556 -4.81383 0
M  V30 32702 H 4312.75 5.92458 -5.93643 0
M  V30 32703 H 4311.06 7.92655 -6.402 0
M  V30 32704 H 4310.87 6.26671 -8.0846 0
M  V30 32705 H 4309.24 6.29101 -7.32804 0
M  V30 32706 H 4311.88 5.84315 -2.47318 0
M  V30 32707 P 4313.73 7.39546 -4.75277 0
M  V30 32708 O 4315.16 7.84798 -5.01039 0
M  V30 32709 O 4313.37 5.9812 -5.08098 0
M  V30 32710 O 4313.41 7.57503 -3.1866 0
M  V30 32711 C 4313.25 8.97357 -2.74833 0
M  V30 32712 C 4313.79 9.07548 -1.32709 0
M  V30 32713 O 4312.73 8.62072 -0.606159 0
M  V30 32714 C 4315.01 8.25383 -0.938334 0
M  V30 32715 O 4315.75 8.74577 0.146954 0
M  V30 32716 C 4314.34 6.8802 -0.712559 0
M  V30 32717 O 4315.14 6.1189 0.194655 0
M  V30 32718 C 4313 7.27966 -0.139777 0
M  V30 32719 H 4313.03 7.25354 0.961601 0
M  V30 32720 H 4314.22 6.32557 -1.65702 0
M  V30 32721 H 4315.7 8.19355 -1.79097 0
M  V30 32722 H 4314.01 10.1294 -1.10029 0
M  V30 32723 H 4313.82 9.64276 -3.41316 0
M  V30 32724 H 4312.19 9.25417 -2.76357 0
M  V30 32725 H 4314.83 6.25267 1.07847 0
M  V30 32726 P 4316.68 8.791 -2.44083e-10 0
M  V30 32727 O 4318.11 9.31096 0.027933 0
M  V30 32728 O 4316.32 7.77869 -1.04071 0
M  V30 32729 O 4316.36 8.09533 1.41463 0
M  V30 32730 C 4316.2 9.0349 2.53943 0
M  V30 32731 C 4316.74 8.35226 3.79016 0
M  V30 32732 O 4315.68 7.57992 4.15078 0
M  V30 32733 C 4317.96 7.45087 3.67298 0
M  V30 32734 O 4318.7 7.27796 4.85194 0
M  V30 32735 C 4317.29 6.17323 3.12027 0
M  V30 32736 O 4318.09 5.04231 3.47188 0
M  V30 32737 C 4315.95 6.19961 3.81809 0
M  V30 32738 H 4315.98 5.58218 4.73051 0
M  V30 32739 H 4317.17 6.21726 2.02589 0
M  V30 32740 H 4318.65 7.86112 2.9231 0
M  V30 32741 H 4316.96 9.11627 4.55076 0
M  V30 32742 H 4316.77 9.9573 2.34194 0
M  V30 32743 H 4315.14 9.2792 2.67832 0
M  V30 32744 H 4317.78 4.67702 4.28772 0
M  V30 32745 P 4319.63 7.39546 4.75277 0
M  V30 32746 O 4321.06 7.81777 5.05738 0
M  V30 32747 O 4319.27 7.1065 3.32998 0
M  V30 32748 O 4319.31 6.04542 5.56673 0
M  V30 32749 C 4319.15 6.22772 7.02095 0
M  V30 32750 C 4319.69 4.97725 7.70406 0
M  V30 32751 O 4318.64 4.13256 7.58987 0
M  V30 32752 C 4320.91 4.28231 7.11815 0
M  V30 32753 O 4321.65 3.49945 8.01648 0
M  V30 32754 C 4320.24 3.5063 5.96244 0
M  V30 32755 O 4321.04 2.36482 5.64681 0
M  V30 32756 C 4318.9 3.15122 6.56374 0
M  V30 32757 H 4318.94 2.13853 6.99751 0
M  V30 32758 H 4320.12 4.13501 5.06559 0
M  V30 32759 H 4321.6 5.03285 6.70911 0
M  V30 32760 H 4319.91 5.20877 8.75697 0
M  V30 32761 H 4319.72 7.11046 7.35349 0
M  V30 32762 H 4318.09 6.35815 7.26986 0
M  V30 32763 H 4320.73 1.61644 6.13565 0
M  V30 32764 P 4322.59 3.65191 7.99657 0
M  V30 32765 O 4324.01 3.8425 8.48115 0
M  V30 32766 O 4322.23 4.17805 6.64342 0
M  V30 32767 O 4322.26 2.07613 7.95143 0
M  V30 32768 C 4322.1 1.44328 9.27336 0
M  V30 32769 C 4322.64 0.0220036 9.17197 0
M  V30 32770 O 4321.59 -0.626867 8.61923 0
M  V30 32771 C 4323.86 -0.24586 8.30336 0
M  V30 32772 O 4324.6 -1.39011 8.63583 0
M  V30 32773 C 4323.19 -0.273849 6.91158 0
M  V30 32774 O 4323.99 -1.06348 6.02892 0
M  V30 32775 C 4321.85 -0.897649 7.22545 0
M  V30 32776 H 4321.89 -1.9841 7.04286 0
M  V30 32777 H 4323.07 0.739928 6.497 0
M  V30 32778 H 4324.55 0.60668 8.36503 0
M  V30 32779 H 4322.86 -0.352479 10.1829 0
M  V30 32780 H 4322.67 2.00611 10.0304 0
M  V30 32781 H 4321.04 1.41843 9.55327 0
M  V30 32782 H 4323.68 -1.95734 6.03555 0
M  V30 32783 P 4325.54 -1.25109 8.70152 0
M  V30 32784 O 4326.96 -1.35274 9.21221 0
M  V30 32785 O 4325.18 -0.0769065 7.84762 0
M  V30 32786 O 4325.21 -2.55232 7.81161 0
M  V30 32787 C 4325.05 -3.79939 8.58154 0
M  V30 32788 C 4325.59 -4.94023 7.72785 0
M  V30 32789 O 4324.54 -5.18726 6.91205 0
M  V30 32790 C 4326.81 -4.69597 6.85231 0
M  V30 32791 O 4327.55 -5.83832 6.51337 0
M  V30 32792 C 4326.14 -3.96706 5.66633 0
M  V30 32793 O 4326.94 -4.15414 4.49689 0
M  V30 32794 C 4324.8 -4.66153 5.59313 0
M  V30 32795 H 4324.84 -5.47679 4.85214 0
M  V30 32796 H 4326.02 -2.89008 5.86566 0
M  V30 32797 H 4327.5 -4.0121 7.36511 0
M  V30 32798 H 4325.81 -5.80182 8.37584 0
M  V30 32799 H 4325.62 -3.73517 9.52265 0
M  V30 32800 H 4323.99 -3.97163 8.80359 0
M  V30 32801 H 4326.63 -4.90969 4.01921 0
M  V30 32802 P 4328.49 -5.75688 6.64379 0
M  V30 32803 O 4329.91 -6.11849 7.01846 0
M  V30 32804 O 4328.13 -4.30744 6.56026 0
M  V30 32805 O 4328.16 -6.37042 5.19165 0
M  V30 32806 C 4328 -7.83578 5.16515 0
M  V30 32807 C 4328.54 -8.33398 3.83019 0
M  V30 32808 O 4327.49 -8.10074 3.01034 0
M  V30 32809 C 4329.76 -7.65514 3.2257 0
M  V30 32810 O 4330.5 -8.4329 2.32297 0
M  V30 32811 C 4329.09 -6.40075 2.62207 0
M  V30 32812 O 4329.89 -5.92589 1.53712 0
M  V30 32813 C 4327.76 -6.9454 2.18503 0
M  V30 32814 H 4327.79 -7.23063 1.12091 0
M  V30 32815 H 4328.97 -5.6025 3.37201 0
M  V30 32816 H 4330.45 -7.35707 4.02681 0
M  V30 32817 H 4328.76 -9.40912 3.9095 0
M  V30 32818 H 4328.57 -8.29056 5.99158 0
M  V30 32819 H 4326.94 -8.10073 5.25882 0
M  V30 32820 H 4329.58 -6.30324 0.726794 0
M  V30 32821 P 4331.44 -8.4349 2.47671 0
M  V30 32822 O 4332.86 -8.94359 2.59696 0
M  V30 32823 O 4331.08 -7.1704 3.19006 0
M  V30 32824 O 4331.11 -8.16596 0.923387 0
M  V30 32825 C 4330.95 -9.38437 0.108857 0
M  V30 32826 C 4331.49 -9.08076 -1.28339 0
M  V30 32827 O 4330.44 -8.44229 -1.84713 0
M  V30 32828 C 4332.71 -8.18386 -1.42505 0
M  V30 32829 O 4333.45 -8.3501 -2.60497 0
M  V30 32830 C 4332.04 -6.80225 -1.25468 0
M  V30 32831 O 4332.84 -5.81526 -1.91035 0
M  V30 32832 C 4330.71 -7.02416 -1.9168 0
M  V30 32833 N 4329.66 -6.31033 -1.20314 0
M  V30 32834 C 4329.72 -6.18781 0.121293 0
M  V30 32835 N 4328.68 -5.49762 0.588272 0
M  V30 32836 C 4327.95 -5.22015 -0.488988 0
M  V30 32837 C 4326.64 -4.61966 -0.596448 0
M  V30 32838 O 4325.91 -4.19162 0.309059 0
M  V30 32839 N 4326.21 -4.53773 -1.878 0
M  V30 32840 C 4326.96 -4.99623 -2.99082 0
M  V30 32841 N 4326.36 -4.78912 -4.21227 0
M  V30 32842 N 4328.11 -5.59957 -2.91093 0
M  V30 32843 C 4328.57 -5.70225 -1.64218 0
M  V30 32844 H 4330.74 -6.6888 -2.96621 0
M  V30 32845 H 4331.92 -6.53517 -0.192194 0
M  V30 32846 H 4333.41 -8.36563 -0.598329 0
M  V30 32847 H 4331.71 -10.0291 -1.79807 0
M  V30 32848 H 4331.52 -10.2138 0.558219 0
M  V30 32849 H 4329.89 -9.6579 0.0444202 0
M  V30 32850 H 4325.31 -4.12883 -2.05283 0
M  V30 32851 H 4330.52 -6.59596 0.745856 0
M  V30 32852 H 4325.45 -4.31425 -4.2628 0
M  V30 32853 H 4326.83 -5.11219 -5.07148 0
M  V30 32854 H 4332.53 -5.69466 -2.79593 0
M  V30 32855 P 4334.39 -8.4349 -2.47671 0
M  V30 32856 O 4335.81 -8.92689 -2.65029 0
M  V30 32857 O 4334.03 -7.7568 -1.19296 0
M  V30 32858 O 4334.06 -7.36886 -3.63805 0
M  V30 32859 C 4333.9 -7.95433 -4.98253 0
M  V30 32860 C 4334.44 -6.94612 -5.98974 0
M  V30 32861 O 4333.39 -6.10277 -6.11744 0
M  V30 32862 C 4335.66 -6.11426 -5.62335 0
M  V30 32863 O 4336.4 -5.6162 -6.70584 0
M  V30 32864 C 4334.99 -5.04409 -4.73308 0
M  V30 32865 O 4335.79 -3.86404 -4.74719 0
M  V30 32866 C 4333.66 -4.8728 -5.41006 0
M  V30 32867 N 4332.61 -4.65812 -4.42377 0
M  V30 32868 C 4332.78 -5.09132 -3.15382 0
M  V30 32869 N 4331.76 -4.84021 -2.3716 0
M  V30 32870 C 4330.87 -4.18386 -3.20441 0
M  V30 32871 C 4329.6 -3.6275 -2.94905 0
M  V30 32872 N 4329.04 -3.05008 -4.05243 0
M  V30 32873 C 4329.64 -2.98348 -5.28159 0
M  V30 32874 N 4330.82 -3.48171 -5.56333 0
M  V30 32875 C 4331.39 -4.06869 -4.47212 0
M  V30 32876 H 4334.87 -5.39013 -3.70026 0
M  V30 32877 H 4336.35 -6.71916 -5.01943 0
M  V30 32878 H 4334.66 -7.45796 -6.94223 0
M  V30 32879 H 4334.47 -8.89416 -5.05237 0
M  V30 32880 H 4332.84 -8.14876 -5.18409 0
M  V30 32881 H 4333.68 -5.59989 -2.81362 0
M  V30 32882 H 4335.48 -3.27906 -5.43085 0
M  V30 32883 P 4337.34 -5.75688 -6.64379 0
M  V30 32884 O 4338.76 -6.07627 -7.05504 0
M  V30 32885 O 4336.98 -5.88047 -5.19722 0
M  V30 32886 O 4337.01 -4.2322 -7.04443 0
M  V30 32887 C 4336.85 -3.99743 -8.4911 0
M  V30 32888 C 4337.39 -2.60516 -8.79425 0
M  V30 32889 O 4336.34 -1.82684 -8.4467 0
M  V30 32890 C 4338.61 -2.10343 -8.03628 0
M  V30 32891 O 4339.35 -1.09919 -8.67766 0
M  V30 32892 C 4337.94 -1.68446 -6.70876 0
M  V30 32893 O 4338.74 -0.678137 -6.08433 0
M  V30 32894 C 4336.61 -1.17436 -7.18567 0
M  V30 32895 H 4336.64 -0.0804732 -7.31656 0
M  V30 32896 H 4337.82 -2.54037 -6.02537 0
M  V30 32897 H 4339.31 -2.93881 -7.85526 0
M  V30 32898 H 4337.61 -2.53065 -9.86973 0
M  V30 32899 H 4337.42 -4.75072 -9.05887 0
M  V30 32900 H 4335.79 -4.05244 -8.76668 0
M  V30 32901 H 4338.43 0.177647 -6.34251 0
M  V30 32902 P 4340.29 -1.25109 -8.70152 0
M  V30 32903 O 4341.71 -1.29744 -9.22016 0
M  V30 32904 O 4339.93 -2.13714 -7.55141 0
M  V30 32905 O 4339.97 0.248149 -8.21425 0
M  V30 32906 C 4339.81 1.22779 -9.30434 0
M  V30 32907 C 4340.35 2.56293 -8.80664 0
M  V30 32908 O 4339.29 3.02979 -8.09349 0
M  V30 32909 C 4341.56 2.57523 -7.89775 0
M  V30 32910 O 4342.3 3.7668 -7.89438 0
M  V30 32911 C 4340.89 2.20997 -6.55446 0
M  V30 32912 O 4341.69 2.71895 -5.48509 0
M  V30 32913 C 4339.56 2.89693 -6.67988 0
M  V30 32914 H 4339.59 3.88793 -6.19859 0
M  V30 32915 H 4340.77 1.12046 -6.44229 0
M  V30 32916 H 4342.26 1.7746 -8.19711 0
M  V30 32917 H 4340.56 3.20706 -9.67112 0
M  V30 32918 H 4340.37 0.901032 -10.1892 0
M  V30 32919 H 4338.74 1.33049 -9.56592 0
M  V30 32920 H 4341.38 3.57847 -5.23962 0
M  V30 32921 P 4343.24 3.65191 -7.99657 0
M  V30 32922 O 4344.66 3.89332 -8.45794 0
M  V30 32923 O 4342.88 2.28472 -7.50807 0
M  V30 32924 O 4342.92 4.64972 -6.77611 0
M  V30 32925 C 4342.76 6.06319 -7.16352 0
M  V30 32926 C 4343.3 6.91731 -6.02299 0
M  V30 32927 O 4342.24 6.92449 -5.17064 0
M  V30 32928 C 4344.51 6.43627 -5.25174 0
M  V30 32929 O 4345.25 7.43686 -4.60469 0
M  V30 32930 C 4343.85 5.40275 -4.31916 0
M  V30 32931 O 4344.64 5.25279 -3.14438 0
M  V30 32932 C 4342.51 6.04847 -4.05327 0
M  V30 32933 H 4342.54 6.62195 -3.11261 0
M  V30 32934 H 4343.72 4.42556 -4.81383 0
M  V30 32935 H 4345.21 5.92458 -5.93643 0
M  V30 32936 H 4343.51 7.92655 -6.402 0
M  V30 32937 H 4343.32 6.26671 -8.0846 0
M  V30 32938 H 4341.69 6.29101 -7.32804 0
M  V30 32939 H 4344.33 5.84315 -2.47318 0
M  V30 32940 P 4346.19 7.39546 -4.75277 0
M  V30 32941 O 4347.61 7.84882 -5.01092 0
M  V30 32942 O 4345.83 5.9812 -5.08098 0
M  V30 32943 O 4345.87 7.57503 -3.1866 0
M  V30 32944 C 4345.71 8.97452 -2.74862 0
M  V30 32945 C 4346.25 9.07548 -1.32709 0
M  V30 32946 O 4345.19 8.61972 -0.606089 0
M  V30 32947 C 4347.46 8.25383 -0.938334 0
M  V30 32948 O 4348.2 8.74577 0.146954 0
M  V30 32949 C 4346.8 6.8802 -0.712559 0
M  V30 32950 O 4347.59 6.1181 0.188505 0
M  V30 32951 C 4345.46 7.27966 -0.139777 0
M  V30 32952 N 4344.42 6.39368 -0.623421 0
M  V30 32953 C 4344.58 5.71761 -1.78245 0
M  V30 32954 N 4343.56 4.962 -2.10491 0
M  V30 32955 C 4342.67 5.16158 -1.0635 0
M  V30 32956 C 4341.41 4.60425 -0.810266 0
M  V30 32957 N 4340.81 3.7057 -1.62914 0
M  V30 32958 N 4340.84 5.06 0.348685 0
M  V30 32959 C 4341.44 5.94532 1.20395 0
M  V30 32960 N 4342.62 6.48452 1.01191 0
M  V30 32961 C 4343.19 6.04423 -0.146291 0
M  V30 32962 H 4345.49 7.25255 0.961469 0
M  V30 32963 H 4346.67 6.32625 -1.65044 0
M  V30 32964 H 4348.16 8.19355 -1.79097 0
M  V30 32965 H 4346.46 10.1305 -1.09016 0
M  V30 32966 H 4346.27 9.64276 -3.41316 0
M  V30 32967 H 4344.64 9.25417 -2.76357 0
M  V30 32968 H 4340.91 6.21659 2.10714 0
M  V30 32969 H 4345.48 5.79354 -2.38959 0
M  V30 32970 H 4339.88 3.33174 -1.38982 0
M  V30 32971 H 4341.28 3.39714 -2.48836 0
M  V30 32972 H 4347.28 6.25169 1.0783 0
M  V30 32973 P 4349.14 8.791 -2.49269e-10 0
M  V30 32974 O 4350.56 9.31296 0.027939 0
M  V30 32975 O 4348.78 7.77869 -1.04071 0
M  V30 32976 O 4348.82 8.09533 1.41463 0
M  V30 32977 C 4348.66 9.0349 2.53943 0
M  V30 32978 C 4349.2 8.35135 3.78975 0
M  V30 32979 O 4348.14 7.57992 4.15078 0
M  V30 32980 C 4350.42 7.45087 3.67298 0
M  V30 32981 O 4351.15 7.27796 4.85194 0
M  V30 32982 C 4349.75 6.17323 3.12027 0
M  V30 32983 O 4350.55 5.04149 3.47132 0
M  V30 32984 C 4348.41 6.19961 3.81809 0
M  V30 32985 N 4347.37 5.71575 2.93223 0
M  V30 32986 C 4347.43 5.97133 1.62693 0
M  V30 32987 N 4346.38 5.44066 0.984414 0
M  V30 32988 C 4345.65 4.87093 1.93987 0
M  V30 32989 C 4344.34 4.26449 1.8738 0
M  V30 32990 O 4343.61 4.1089 0.884377 0
M  V30 32991 N 4343.91 3.82483 3.08036 0
M  V30 32992 C 4344.66 3.95124 4.27727 0
M  V30 32993 N 4344.07 3.4084 5.39089 0
M  V30 32994 N 4345.82 4.55264 4.3706 0
M  V30 32995 C 4346.27 5.00861 3.18217 0
M  V30 32996 H 4348.44 5.58218 4.73051 0
M  V30 32997 H 4349.62 6.21631 2.02558 0
M  V30 32998 H 4351.11 7.85819 2.93096 0
M  V30 32999 H 4349.41 9.11627 4.55076 0
M  V30 33000 H 4349.22 9.9573 2.34194 0
M  V30 33001 H 4347.59 9.2792 2.67832 0
M  V30 33002 H 4343.02 3.38323 3.1329 0
M  V30 33003 H 4348.22 6.53891 1.14265 0
M  V30 33004 H 4343.15 2.93852 5.30559 0
M  V30 33005 H 4344.53 3.47631 6.30632 0
M  V30 33006 H 4350.23 4.67628 4.28704 0
M  V30 33007 P 4352.09 7.39546 4.75277 0
M  V30 33008 O 4353.51 7.81777 5.05738 0
M  V30 33009 O 4351.73 7.1065 3.32998 0
M  V30 33010 O 4351.77 6.04542 5.56673 0
M  V30 33011 C 4351.61 6.22772 7.02095 0
M  V30 33012 C 4352.15 4.97725 7.70406 0
M  V30 33013 O 4351.09 4.13256 7.58987 0
M  V30 33014 C 4353.37 4.28231 7.11815 0
M  V30 33015 O 4354.1 3.49945 8.01648 0
M  V30 33016 C 4352.7 3.5063 5.96244 0
M  V30 33017 O 4353.5 2.36482 5.64681 0
M  V30 33018 C 4351.36 3.15122 6.56374 0
M  V30 33019 H 4351.39 2.13853 6.99751 0
M  V30 33020 H 4352.57 4.13501 5.06559 0
M  V30 33021 H 4354.06 5.03285 6.70911 0
M  V30 33022 H 4352.36 5.20877 8.75697 0
M  V30 33023 H 4352.17 7.11046 7.35349 0
M  V30 33024 H 4350.54 6.35815 7.26986 0
M  V30 33025 H 4353.18 1.61644 6.13565 0
M  V30 33026 P 4355.04 3.65191 7.99657 0
M  V30 33027 O 4356.46 3.84333 8.48297 0
M  V30 33028 O 4354.68 4.17805 6.64342 0
M  V30 33029 O 4354.72 2.07613 7.95143 0
M  V30 33030 C 4354.56 1.44328 9.27336 0
M  V30 33031 C 4355.1 0.0220012 9.17097 0
M  V30 33032 O 4354.04 -0.626867 8.61923 0
M  V30 33033 C 4356.32 -0.24586 8.30336 0
M  V30 33034 O 4357.05 -1.39011 8.63583 0
M  V30 33035 C 4355.65 -0.273849 6.91158 0
M  V30 33036 O 4356.45 -1.06331 6.02794 0
M  V30 33037 C 4354.31 -0.897649 7.22545 0
M  V30 33038 N 4353.27 -0.292839 6.41732 0
M  V30 33039 C 4353.33 1.00068 6.10757 0
M  V30 33040 N 4352.28 1.36468 5.35794 0
M  V30 33041 C 4351.55 0.258894 5.2366 0
M  V30 33042 C 4350.24 0.0670682 4.65752 0
M  V30 33043 O 4349.51 0.902443 4.10497 0
M  V30 33044 N 4349.81 -1.2131 4.75881 0
M  V30 33045 C 4350.56 -2.24934 5.37101 0
M  V30 33046 N 4349.97 -3.48783 5.33984 0
M  V30 33047 N 4351.72 -2.0844 5.95684 0
M  V30 33048 C 4352.17 -0.81395 5.87791 0
M  V30 33049 H 4354.34 -1.9841 7.04286 0
M  V30 33050 H 4355.53 0.739815 6.49601 0
M  V30 33051 H 4357.01 0.598315 8.36563 0
M  V30 33052 H 4355.32 -0.352479 10.1829 0
M  V30 33053 H 4355.13 2.00611 10.0304 0
M  V30 33054 H 4353.49 1.41843 9.55327 0
M  V30 33055 H 4348.92 -1.44434 4.37895 0
M  V30 33056 H 4354.13 1.67697 6.42268 0
M  V30 33057 H 4349.06 -3.60543 4.87699 0
M  V30 33058 H 4350.43 -4.29232 5.7819 0
M  V30 33059 H 4356.14 -1.95704 6.0346 0
M  V30 33060 P 4357.99 -1.25109 8.70152 0
M  V30 33061 O 4359.41 -1.35274 9.21221 0
M  V30 33062 O 4357.63 -0.0769065 7.84762 0
M  V30 33063 O 4357.67 -2.55232 7.81161 0
M  V30 33064 C 4357.51 -3.79939 8.58154 0
M  V30 33065 C 4358.05 -4.94023 7.72785 0
M  V30 33066 O 4356.99 -5.18726 6.91205 0
M  V30 33067 C 4359.27 -4.69597 6.85231 0
M  V30 33068 O 4360 -5.83832 6.51337 0
M  V30 33069 C 4358.6 -3.96706 5.66633 0
M  V30 33070 O 4359.4 -4.15414 4.49689 0
M  V30 33071 C 4357.26 -4.66153 5.59313 0
M  V30 33072 H 4357.29 -5.47679 4.85214 0
M  V30 33073 H 4358.48 -2.89008 5.86566 0
M  V30 33074 H 4359.96 -4.0121 7.36511 0
M  V30 33075 H 4358.27 -5.80182 8.37584 0
M  V30 33076 H 4358.08 -3.73517 9.52265 0
M  V30 33077 H 4356.45 -3.97163 8.80359 0
M  V30 33078 H 4359.08 -4.90969 4.01921 0
M  V30 33079 P 4360.94 -5.75688 6.64379 0
M  V30 33080 O 4362.36 -6.11849 7.01846 0
M  V30 33081 O 4360.58 -4.30744 6.56026 0
M  V30 33082 O 4360.62 -6.37042 5.19165 0
M  V30 33083 C 4360.46 -7.83578 5.16515 0
M  V30 33084 C 4361 -8.33398 3.83019 0
M  V30 33085 O 4359.94 -8.10074 3.01034 0
M  V30 33086 C 4362.22 -7.65514 3.2257 0
M  V30 33087 O 4362.96 -8.4329 2.32297 0
M  V30 33088 C 4361.55 -6.40075 2.62207 0
M  V30 33089 O 4362.35 -5.92589 1.53712 0
M  V30 33090 C 4360.21 -6.9454 2.18503 0
M  V30 33091 H 4360.24 -7.23063 1.12091 0
M  V30 33092 H 4361.43 -5.6025 3.37201 0
M  V30 33093 H 4362.91 -7.35707 4.02681 0
M  V30 33094 H 4361.22 -9.40912 3.9095 0
M  V30 33095 H 4361.03 -8.29056 5.99158 0
M  V30 33096 H 4359.4 -8.10073 5.25882 0
M  V30 33097 H 4362.04 -6.30324 0.726794 0
M  V30 33098 P 4363.89 -8.4349 2.47671 0
M  V30 33099 O 4365.32 -8.94167 2.5964 0
M  V30 33100 O 4363.53 -7.1704 3.19006 0
M  V30 33101 O 4363.57 -8.16596 0.923387 0
M  V30 33102 C 4363.41 -9.38437 0.108857 0
M  V30 33103 C 4363.95 -9.08175 -1.28353 0
M  V30 33104 O 4362.89 -8.44229 -1.84713 0
M  V30 33105 C 4365.17 -8.18386 -1.42505 0
M  V30 33106 O 4365.91 -8.3501 -2.60497 0
M  V30 33107 C 4364.5 -6.80225 -1.25468 0
M  V30 33108 O 4365.3 -5.81621 -1.91066 0
M  V30 33109 C 4363.16 -7.02416 -1.9168 0
M  V30 33110 H 4363.19 -6.6888 -2.96621 0
M  V30 33111 H 4364.38 -6.53617 -0.192223 0
M  V30 33112 H 4365.86 -8.36622 -0.589963 0
M  V30 33113 H 4364.17 -10.0291 -1.79807 0
M  V30 33114 H 4363.98 -10.2138 0.558219 0
M  V30 33115 H 4362.35 -9.6579 0.0444202 0
M  V30 33116 H 4364.99 -5.69556 -2.79637 0
M  V30 33117 P 4366.84 -8.4349 -2.47671 0
M  V30 33118 O 4368.27 -8.92593 -2.65 0
M  V30 33119 O 4366.48 -7.7568 -1.19296 0
M  V30 33120 O 4366.52 -7.36886 -3.63805 0
M  V30 33121 C 4366.36 -7.95349 -4.982 0
M  V30 33122 C 4366.9 -6.94612 -5.98974 0
M  V30 33123 O 4365.84 -6.10347 -6.11815 0
M  V30 33124 C 4368.12 -6.11426 -5.62335 0
M  V30 33125 O 4368.86 -5.6162 -6.70584 0
M  V30 33126 C 4367.45 -5.04409 -4.73308 0
M  V30 33127 O 4368.25 -3.85992 -4.75183 0
M  V30 33128 C 4366.11 -4.8728 -5.41006 0
M  V30 33129 H 4366.14 -4.02333 -6.11157 0
M  V30 33130 H 4367.33 -5.39466 -3.69543 0
M  V30 33131 H 4368.81 -6.71916 -5.01943 0
M  V30 33132 H 4367.12 -7.4649 -6.93477 0
M  V30 33133 H 4366.93 -8.89416 -5.05237 0
M  V30 33134 H 4365.3 -8.14876 -5.18409 0
M  V30 33135 H 4367.94 -3.27957 -5.4317 0
M  V30 33136 P 4369.79 -5.75688 -6.64379 0
M  V30 33137 O 4371.22 -6.07692 -7.0558 0
M  V30 33138 O 4369.43 -5.88047 -5.19722 0
M  V30 33139 O 4369.47 -4.2322 -7.04443 0
M  V30 33140 C 4369.31 -3.99785 -8.49201 0
M  V30 33141 C 4369.85 -2.60516 -8.79425 0
M  V30 33142 O 4368.8 -1.82663 -8.44573 0
M  V30 33143 C 4371.07 -2.10343 -8.03628 0
M  V30 33144 O 4371.81 -1.09919 -8.67766 0
M  V30 33145 C 4370.4 -1.68446 -6.70876 0
M  V30 33146 O 4371.2 -0.684109 -6.08265 0
M  V30 33147 C 4369.06 -1.17436 -7.18567 0
M  V30 33148 N 4368.02 -1.52699 -6.23988 0
M  V30 33149 C 4368.19 -2.578 -5.40574 0
M  V30 33150 N 4367.16 -2.78966 -4.61193 0
M  V30 33151 C 4366.28 -1.78725 -4.95769 0
M  V30 33152 C 4365.01 -1.45727 -4.44207 0
M  V30 33153 N 4364.45 -0.374977 -5.05812 0
M  V30 33154 C 4365.05 0.345585 -6.05615 0
M  V30 33155 N 4366.22 0.0787651 -6.56253 0
M  V30 33156 C 4366.8 -1.00499 -5.96189 0
M  V30 33157 H 4370.28 -2.53396 -6.02698 0
M  V30 33158 H 4371.76 -2.93881 -7.85526 0
M  V30 33159 H 4370.07 -2.52078 -9.87225 0
M  V30 33160 H 4369.88 -4.75072 -9.05887 0
M  V30 33161 H 4368.25 -4.05244 -8.76668 0
M  V30 33162 H 4369.09 -3.18977 -5.3945 0
M  V30 33163 H 4370.89 0.177619 -6.34151 0
M  V30 33164 P 4372.74 -1.25109 -8.70152 0
M  V30 33165 O 4374.17 -1.29744 -9.22016 0
M  V30 33166 O 4372.38 -2.13714 -7.55141 0
M  V30 33167 O 4372.42 0.248149 -8.21425 0
M  V30 33168 C 4372.26 1.22779 -9.30434 0
M  V30 33169 C 4372.8 2.56293 -8.80664 0
M  V30 33170 O 4371.75 3.02979 -8.09349 0
M  V30 33171 C 4374.02 2.57523 -7.89775 0
M  V30 33172 O 4374.76 3.7668 -7.89438 0
M  V30 33173 C 4373.35 2.20997 -6.55446 0
M  V30 33174 O 4374.15 2.71895 -5.48509 0
M  V30 33175 C 4372.01 2.89693 -6.67988 0
M  V30 33176 H 4372.05 3.88793 -6.19859 0
M  V30 33177 H 4373.23 1.12046 -6.44229 0
M  V30 33178 H 4374.71 1.7746 -8.19711 0
M  V30 33179 H 4373.02 3.20706 -9.67112 0
M  V30 33180 H 4372.83 0.901032 -10.1892 0
M  V30 33181 H 4371.2 1.33049 -9.56592 0
M  V30 33182 H 4373.84 3.57847 -5.23962 0
M  V30 33183 P 4375.7 3.65191 -7.99657 0
M  V30 33184 O 4377.12 3.89332 -8.45794 0
M  V30 33185 O 4375.34 2.28472 -7.50807 0
M  V30 33186 O 4375.37 4.64972 -6.77611 0
M  V30 33187 C 4375.21 6.06319 -7.16352 0
M  V30 33188 C 4375.75 6.91731 -6.02299 0
M  V30 33189 O 4374.7 6.92449 -5.17064 0
M  V30 33190 C 4376.97 6.43627 -5.25174 0
M  V30 33191 O 4377.71 7.43686 -4.60469 0
M  V30 33192 C 4376.3 5.40275 -4.31916 0
M  V30 33193 O 4377.1 5.25279 -3.14438 0
M  V30 33194 C 4374.96 6.04847 -4.05327 0
M  V30 33195 H 4375 6.62195 -3.11261 0
M  V30 33196 H 4376.18 4.42556 -4.81383 0
M  V30 33197 H 4377.66 5.92458 -5.93643 0
M  V30 33198 H 4375.97 7.92655 -6.402 0
M  V30 33199 H 4375.78 6.26671 -8.0846 0
M  V30 33200 H 4374.15 6.29101 -7.32804 0
M  V30 33201 H 4376.79 5.84315 -2.47318 0
M  V30 33202 P 4378.65 7.39546 -4.75277 0
M  V30 33203 O 4380.07 7.84798 -5.01039 0
M  V30 33204 O 4378.29 5.9812 -5.08098 0
M  V30 33205 O 4378.32 7.57503 -3.1866 0
M  V30 33206 C 4378.16 8.97357 -2.74833 0
M  V30 33207 C 4378.7 9.07548 -1.32709 0
M  V30 33208 O 4377.65 8.62072 -0.606159 0
M  V30 33209 C 4379.92 8.25383 -0.938334 0
M  V30 33210 O 4380.66 8.74577 0.146954 0
M  V30 33211 C 4379.25 6.8802 -0.712559 0
M  V30 33212 O 4380.05 6.1189 0.194655 0
M  V30 33213 C 4377.91 7.27966 -0.139777 0
M  V30 33214 H 4377.95 7.25354 0.961601 0
M  V30 33215 H 4379.13 6.32557 -1.65702 0
M  V30 33216 H 4380.61 8.19355 -1.79097 0
M  V30 33217 H 4378.92 10.1294 -1.10029 0
M  V30 33218 H 4378.73 9.64276 -3.41316 0
M  V30 33219 H 4377.1 9.25417 -2.76357 0
M  V30 33220 H 4379.74 6.25267 1.07847 0
M  V30 33221 P 4381.6 8.791 -2.54456e-10 0
M  V30 33222 O 4383.02 9.31096 0.027933 0
M  V30 33223 O 4381.24 7.77869 -1.04071 0
M  V30 33224 O 4381.27 8.09533 1.41463 0
M  V30 33225 C 4381.11 9.0349 2.53943 0
M  V30 33226 C 4381.65 8.35226 3.79016 0
M  V30 33227 O 4380.6 7.57992 4.15078 0
M  V30 33228 C 4382.87 7.45087 3.67298 0
M  V30 33229 O 4383.61 7.27796 4.85194 0
M  V30 33230 C 4382.2 6.17323 3.12027 0
M  V30 33231 O 4383 5.04231 3.47188 0
M  V30 33232 C 4380.87 6.19961 3.81809 0
M  V30 33233 H 4380.9 5.58218 4.73051 0
M  V30 33234 H 4382.08 6.21726 2.02589 0
M  V30 33235 H 4383.56 7.86112 2.9231 0
M  V30 33236 H 4381.87 9.11627 4.55076 0
M  V30 33237 H 4381.68 9.9573 2.34194 0
M  V30 33238 H 4380.05 9.2792 2.67832 0
M  V30 33239 H 4382.69 4.67702 4.28772 0
M  V30 33240 P 4384.55 7.39546 4.75277 0
M  V30 33241 O 4385.97 7.81777 5.05738 0
M  V30 33242 O 4384.19 7.1065 3.32998 0
M  V30 33243 O 4384.22 6.04542 5.56673 0
M  V30 33244 C 4384.06 6.22772 7.02095 0
M  V30 33245 C 4384.6 4.97725 7.70406 0
M  V30 33246 O 4383.55 4.13256 7.58987 0
M  V30 33247 C 4385.82 4.28231 7.11815 0
M  V30 33248 O 4386.56 3.49945 8.01648 0
M  V30 33249 C 4385.15 3.5063 5.96244 0
M  V30 33250 O 4385.95 2.36482 5.64681 0
M  V30 33251 C 4383.82 3.15122 6.56374 0
M  V30 33252 H 4383.85 2.13853 6.99751 0
M  V30 33253 H 4385.03 4.13501 5.06559 0
M  V30 33254 H 4386.52 5.03285 6.70911 0
M  V30 33255 H 4384.82 5.20877 8.75697 0
M  V30 33256 H 4384.63 7.11046 7.35349 0
M  V30 33257 H 4383 6.35815 7.26986 0
M  V30 33258 H 4385.64 1.61644 6.13565 0
M  V30 33259 P 4387.5 3.65191 7.99657 0
M  V30 33260 O 4388.92 3.8425 8.48115 0
M  V30 33261 O 4387.14 4.17805 6.64342 0
M  V30 33262 O 4387.17 2.07613 7.95143 0
M  V30 33263 C 4387.01 1.44328 9.27336 0
M  V30 33264 C 4387.55 0.0220036 9.17197 0
M  V30 33265 O 4386.5 -0.626867 8.61923 0
M  V30 33266 C 4388.77 -0.24586 8.30336 0
M  V30 33267 O 4389.51 -1.39011 8.63583 0
M  V30 33268 C 4388.1 -0.273849 6.91158 0
M  V30 33269 O 4388.9 -1.06348 6.02892 0
M  V30 33270 C 4386.77 -0.897649 7.22545 0
M  V30 33271 H 4386.8 -1.9841 7.04286 0
M  V30 33272 H 4387.98 0.739928 6.497 0
M  V30 33273 H 4389.47 0.60668 8.36503 0
M  V30 33274 H 4387.77 -0.352479 10.1829 0
M  V30 33275 H 4387.58 2.00611 10.0304 0
M  V30 33276 H 4385.95 1.41843 9.55327 0
M  V30 33277 H 4388.59 -1.95734 6.03555 0
M  V30 33278 P 4390.45 -1.25109 8.70152 0
M  V30 33279 O 4391.87 -1.35274 9.21221 0
M  V30 33280 O 4390.09 -0.0769065 7.84762 0
M  V30 33281 O 4390.13 -2.55232 7.81161 0
M  V30 33282 C 4389.97 -3.79939 8.58154 0
M  V30 33283 C 4390.51 -4.94023 7.72785 0
M  V30 33284 O 4389.45 -5.18726 6.91205 0
M  V30 33285 C 4391.72 -4.69597 6.85231 0
M  V30 33286 O 4392.46 -5.83832 6.51337 0
M  V30 33287 C 4391.05 -3.96706 5.66633 0
M  V30 33288 O 4391.85 -4.15414 4.49689 0
M  V30 33289 C 4389.72 -4.66153 5.59313 0
M  V30 33290 H 4389.75 -5.47679 4.85214 0
M  V30 33291 H 4390.93 -2.89008 5.86566 0
M  V30 33292 H 4392.42 -4.0121 7.36511 0
M  V30 33293 H 4390.72 -5.80182 8.37584 0
M  V30 33294 H 4390.53 -3.73517 9.52265 0
M  V30 33295 H 4388.9 -3.97163 8.80359 0
M  V30 33296 H 4391.54 -4.90969 4.01921 0
M  V30 33297 P 4393.4 -5.75688 6.64379 0
M  V30 33298 O 4394.82 -6.11849 7.01846 0
M  V30 33299 O 4393.04 -4.30744 6.56026 0
M  V30 33300 O 4393.08 -6.37042 5.19165 0
M  V30 33301 C 4392.92 -7.83578 5.16515 0
M  V30 33302 C 4393.46 -8.33398 3.83019 0
M  V30 33303 O 4392.4 -8.10074 3.01034 0
M  V30 33304 C 4394.67 -7.65514 3.2257 0
M  V30 33305 O 4395.41 -8.4329 2.32297 0
M  V30 33306 C 4394 -6.40075 2.62207 0
M  V30 33307 O 4394.8 -5.92589 1.53712 0
M  V30 33308 C 4392.67 -6.9454 2.18503 0
M  V30 33309 H 4392.7 -7.23063 1.12091 0
M  V30 33310 H 4393.88 -5.6025 3.37201 0
M  V30 33311 H 4395.37 -7.35707 4.02681 0
M  V30 33312 H 4393.67 -9.40912 3.9095 0
M  V30 33313 H 4393.48 -8.29056 5.99158 0
M  V30 33314 H 4391.85 -8.10073 5.25882 0
M  V30 33315 H 4394.49 -6.30324 0.726794 0
M  V30 33316 P 4396.35 -8.4349 2.47671 0
M  V30 33317 O 4397.77 -8.94167 2.5964 0
M  V30 33318 O 4395.99 -7.1704 3.19006 0
M  V30 33319 O 4396.03 -8.16596 0.923387 0
M  V30 33320 C 4395.87 -9.38437 0.108857 0
M  V30 33321 C 4396.41 -9.08175 -1.28353 0
M  V30 33322 O 4395.35 -8.44229 -1.84713 0
M  V30 33323 C 4397.62 -8.18386 -1.42505 0
M  V30 33324 O 4398.36 -8.3501 -2.60497 0
M  V30 33325 C 4396.96 -6.80225 -1.25468 0
M  V30 33326 O 4397.75 -5.81621 -1.91066 0
M  V30 33327 C 4395.62 -7.02416 -1.9168 0
M  V30 33328 H 4395.65 -6.6888 -2.96621 0
M  V30 33329 H 4396.83 -6.53617 -0.192223 0
M  V30 33330 H 4398.32 -8.36622 -0.589963 0
M  V30 33331 H 4396.62 -10.0291 -1.79807 0
M  V30 33332 H 4396.43 -10.2138 0.558219 0
M  V30 33333 H 4394.8 -9.6579 0.0444202 0
M  V30 33334 H 4397.44 -5.69556 -2.79637 0
M  V30 33335 P 4399.3 -8.4349 -2.47671 0
M  V30 33336 O 4400.72 -8.92593 -2.65 0
M  V30 33337 O 4398.94 -7.7568 -1.19296 0
M  V30 33338 O 4398.98 -7.36886 -3.63805 0
M  V30 33339 C 4398.82 -7.95349 -4.982 0
M  V30 33340 C 4399.36 -6.94612 -5.98974 0
M  V30 33341 O 4398.3 -6.10347 -6.11815 0
M  V30 33342 C 4400.57 -6.11426 -5.62335 0
M  V30 33343 O 4401.31 -5.6162 -6.70584 0
M  V30 33344 C 4399.91 -5.04409 -4.73308 0
M  V30 33345 O 4400.7 -3.85992 -4.75183 0
M  V30 33346 C 4398.57 -4.8728 -5.41006 0
M  V30 33347 H 4398.6 -4.02333 -6.11157 0
M  V30 33348 H 4399.78 -5.39466 -3.69543 0
M  V30 33349 H 4401.27 -6.71916 -5.01943 0
M  V30 33350 H 4399.57 -7.4649 -6.93477 0
M  V30 33351 H 4399.38 -8.89416 -5.05237 0
M  V30 33352 H 4397.75 -8.14876 -5.18409 0
M  V30 33353 H 4400.39 -3.27957 -5.4317 0
M  V30 33354 P 4402.25 -5.75688 -6.64379 0
M  V30 33355 O 4403.67 -6.07627 -7.05504 0
M  V30 33356 O 4401.89 -5.88047 -5.19722 0
M  V30 33357 O 4401.93 -4.2322 -7.04443 0
M  V30 33358 C 4401.77 -3.99743 -8.4911 0
M  V30 33359 C 4402.31 -2.60516 -8.79425 0
M  V30 33360 O 4401.25 -1.82684 -8.4467 0
M  V30 33361 C 4403.53 -2.10343 -8.03628 0
M  V30 33362 O 4404.26 -1.09919 -8.67766 0
M  V30 33363 C 4402.86 -1.68446 -6.70876 0
M  V30 33364 O 4403.66 -0.678137 -6.08433 0
M  V30 33365 C 4401.52 -1.17436 -7.18567 0
M  V30 33366 H 4401.55 -0.0804732 -7.31656 0
M  V30 33367 H 4402.73 -2.54037 -6.02537 0
M  V30 33368 H 4404.22 -2.93881 -7.85526 0
M  V30 33369 H 4402.52 -2.53065 -9.86973 0
M  V30 33370 H 4402.33 -4.75072 -9.05887 0
M  V30 33371 H 4400.7 -4.05244 -8.76668 0
M  V30 33372 H 4403.34 0.177647 -6.34251 0
M  V30 33373 P 4405.2 -1.25109 -8.70152 0
M  V30 33374 O 4406.62 -1.29758 -9.22115 0
M  V30 33375 O 4404.84 -2.13714 -7.55141 0
M  V30 33376 O 4404.88 0.248149 -8.21425 0
M  V30 33377 C 4404.72 1.22792 -9.30533 0
M  V30 33378 C 4405.26 2.56293 -8.80664 0
M  V30 33379 O 4404.2 3.02944 -8.09255 0
M  V30 33380 C 4406.48 2.57523 -7.89775 0
M  V30 33381 O 4407.21 3.7668 -7.89438 0
M  V30 33382 C 4405.81 2.20997 -6.55446 0
M  V30 33383 O 4406.61 2.71302 -5.48691 0
M  V30 33384 C 4404.47 2.89693 -6.67988 0
M  V30 33385 N 4403.43 2.08895 -6.07487 0
M  V30 33386 C 4403.6 0.753809 -5.94137 0
M  V30 33387 N 4402.57 0.146592 -5.38801 0
M  V30 33388 C 4401.68 1.1768 -5.13693 0
M  V30 33389 C 4400.42 1.17563 -4.52477 0
M  V30 33390 N 4399.82 0.057481 -4.04759 0
M  V30 33391 N 4399.85 2.41918 -4.45789 0
M  V30 33392 C 4400.45 3.56493 -4.90792 0
M  V30 33393 N 4401.63 3.61423 -5.47817 0
M  V30 33394 C 4402.21 2.37779 -5.5588 0
M  V30 33395 H 4404.5 3.8874 -6.19774 0
M  V30 33396 H 4405.69 1.12673 -6.44018 0
M  V30 33397 H 4407.17 1.7746 -8.19711 0
M  V30 33398 H 4405.47 3.21673 -9.66791 0
M  V30 33399 H 4405.28 0.901032 -10.1892 0
M  V30 33400 H 4403.65 1.33049 -9.56592 0
M  V30 33401 H 4399.92 4.49919 -4.77947 0
M  V30 33402 H 4404.5 0.233081 -6.26266 0
M  V30 33403 H 4398.89 0.119831 -3.60801 0
M  V30 33404 H 4400.29 -0.852272 -4.12385 0
M  V30 33405 H 4406.29 3.5779 -5.23879 0
M  V30 33406 P 4408.15 3.65191 -7.99657 0
M  V30 33407 O 4409.57 3.89332 -8.45794 0
M  V30 33408 O 4407.79 2.28472 -7.50807 0
M  V30 33409 O 4407.83 4.64972 -6.77611 0
M  V30 33410 C 4407.67 6.06319 -7.16352 0
M  V30 33411 C 4408.21 6.91731 -6.02299 0
M  V30 33412 O 4407.15 6.92449 -5.17064 0
M  V30 33413 C 4409.43 6.43627 -5.25174 0
M  V30 33414 O 4410.16 7.43686 -4.60469 0
M  V30 33415 C 4408.76 5.40275 -4.31916 0
M  V30 33416 O 4409.56 5.25279 -3.14438 0
M  V30 33417 C 4407.42 6.04847 -4.05327 0
M  V30 33418 H 4407.45 6.62195 -3.11261 0
M  V30 33419 H 4408.64 4.42556 -4.81383 0
M  V30 33420 H 4410.12 5.92458 -5.93643 0
M  V30 33421 H 4408.43 7.92655 -6.402 0
M  V30 33422 H 4408.24 6.26671 -8.0846 0
M  V30 33423 H 4406.61 6.29101 -7.32804 0
M  V30 33424 H 4409.24 5.84315 -2.47318 0
M  V30 33425 P 4411.1 7.39546 -4.75277 0
M  V30 33426 O 4412.52 7.84798 -5.01039 0
M  V30 33427 O 4410.74 5.9812 -5.08098 0
M  V30 33428 O 4410.78 7.57503 -3.1866 0
M  V30 33429 C 4410.62 8.97357 -2.74833 0
M  V30 33430 C 4411.16 9.07548 -1.32709 0
M  V30 33431 O 4410.1 8.62072 -0.606159 0
M  V30 33432 C 4412.38 8.25383 -0.938334 0
M  V30 33433 O 4413.12 8.74577 0.146954 0
M  V30 33434 C 4411.71 6.8802 -0.712559 0
M  V30 33435 O 4412.51 6.1189 0.194655 0
M  V30 33436 C 4410.37 7.27966 -0.139777 0
M  V30 33437 H 4410.4 7.25354 0.961601 0
M  V30 33438 H 4411.59 6.32557 -1.65702 0
M  V30 33439 H 4413.07 8.19355 -1.79097 0
M  V30 33440 H 4411.38 10.1294 -1.10029 0
M  V30 33441 H 4411.19 9.64276 -3.41316 0
M  V30 33442 H 4409.56 9.25417 -2.76357 0
M  V30 33443 H 4412.2 6.25267 1.07847 0
M  V30 33444 P 4414.05 8.791 -2.59643e-10 0
M  V30 33445 O 4415.47 9.31096 0.027933 0
M  V30 33446 O 4413.69 7.77869 -1.04071 0
M  V30 33447 O 4413.73 8.09533 1.41463 0
M  V30 33448 C 4413.57 9.0349 2.53943 0
M  V30 33449 C 4414.11 8.35226 3.79016 0
M  V30 33450 O 4413.05 7.57992 4.15078 0
M  V30 33451 C 4415.33 7.45087 3.67298 0
M  V30 33452 O 4416.07 7.27796 4.85194 0
M  V30 33453 C 4414.66 6.17323 3.12027 0
M  V30 33454 O 4415.46 5.04231 3.47188 0
M  V30 33455 C 4413.32 6.19961 3.81809 0
M  V30 33456 H 4413.35 5.58218 4.73051 0
M  V30 33457 H 4414.54 6.21726 2.02589 0
M  V30 33458 H 4416.02 7.86112 2.9231 0
M  V30 33459 H 4414.33 9.11627 4.55076 0
M  V30 33460 H 4414.14 9.9573 2.34194 0
M  V30 33461 H 4412.51 9.2792 2.67832 0
M  V30 33462 H 4415.15 4.67702 4.28772 0
M  V30 33463 P 4417 7.39546 4.75277 0
M  V30 33464 O 4418.42 7.81861 5.05793 0
M  V30 33465 O 4416.64 7.1065 3.32998 0
M  V30 33466 O 4416.68 6.04542 5.56673 0
M  V30 33467 C 4416.52 6.22839 7.02169 0
M  V30 33468 C 4417.06 4.97725 7.70406 0
M  V30 33469 O 4416.01 4.13208 7.58899 0
M  V30 33470 C 4418.28 4.28231 7.11815 0
M  V30 33471 O 4419.02 3.49945 8.01648 0
M  V30 33472 C 4417.61 3.5063 5.96244 0
M  V30 33473 O 4418.41 2.37008 5.64352 0
M  V30 33474 C 4416.27 3.15122 6.56374 0
M  V30 33475 N 4415.23 3.22311 5.55692 0
M  V30 33476 C 4415.4 3.99655 4.46046 0
M  V30 33477 N 4414.37 3.97599 3.63918 0
M  V30 33478 C 4413.49 3.11159 4.25334 0
M  V30 33479 C 4412.22 2.64972 3.85157 0
M  V30 33480 N 4411.62 3.02132 2.69405 0
M  V30 33481 N 4411.65 1.78482 4.74759 0
M  V30 33482 C 4412.26 1.37463 5.90819 0
M  V30 33483 N 4413.43 1.7733 6.31889 0
M  V30 33484 C 4414.01 2.64393 5.43725 0
M  V30 33485 H 4416.3 2.13823 6.99656 0
M  V30 33486 H 4417.49 4.12931 5.06895 0
M  V30 33487 H 4418.97 5.03285 6.70911 0
M  V30 33488 H 4417.28 5.20001 8.76217 0
M  V30 33489 H 4417.09 7.11046 7.35349 0
M  V30 33490 H 4415.46 6.35815 7.26986 0
M  V30 33491 H 4411.72 0.66574 6.53015 0
M  V30 33492 H 4416.3 4.58037 4.27732 0
M  V30 33493 H 4410.69 2.64828 2.45331 0
M  V30 33494 H 4412.09 3.67472 2.05644 0
M  V30 33495 H 4418.1 1.61619 6.13468 0
M  V30 33496 P 4419.95 3.65191 7.99657 0
M  V30 33497 O 4421.37 3.84292 8.48206 0
M  V30 33498 O 4419.59 4.17805 6.64342 0
M  V30 33499 O 4419.63 2.07613 7.95143 0
M  V30 33500 C 4419.47 1.44344 9.27435 0
M  V30 33501 C 4420.01 0.0220036 9.17197 0
M  V30 33502 O 4418.96 -0.626794 8.61824 0
M  V30 33503 C 4421.23 -0.24586 8.30336 0
M  V30 33504 O 4421.97 -1.39011 8.63583 0
M  V30 33505 C 4420.56 -0.273849 6.91158 0
M  V30 33506 O 4421.36 -1.05728 6.029 0
M  V30 33507 C 4419.22 -0.897649 7.22545 0
M  V30 33508 N 4418.18 -0.292839 6.41732 0
M  V30 33509 C 4418.35 0.950603 5.91308 0
M  V30 33510 N 4417.32 1.37732 5.21105 0
M  V30 33511 C 4416.44 0.318109 5.26039 0
M  V30 33512 C 4415.17 0.146766 4.6727 0
M  V30 33513 N 4414.6 -1.06525 4.95887 0
M  V30 33514 C 4415.21 -2.0378 5.71347 0
M  V30 33515 N 4416.38 -1.92445 6.27451 0
M  V30 33516 C 4416.96 -0.715382 6.00353 0
M  V30 33517 H 4420.44 0.733318 6.49674 0
M  V30 33518 H 4421.92 0.60668 8.36503 0
M  V30 33519 H 4420.23 -0.362662 10.1825 0
M  V30 33520 H 4420.04 2.00611 10.0304 0
M  V30 33521 H 4418.41 1.41843 9.55327 0
M  V30 33522 H 4419.25 1.54076 6.07465 0
M  V30 33523 H 4421.05 -1.95704 6.0346 0
M  V30 33524 P 4422.9 -1.25109 8.70152 0
M  V30 33525 O 4424.33 -1.35274 9.21221 0
M  V30 33526 O 4422.54 -0.0769065 7.84762 0
M  V30 33527 O 4422.58 -2.55232 7.81161 0
M  V30 33528 C 4422.42 -3.79939 8.58154 0
M  V30 33529 C 4422.96 -4.94023 7.72785 0
M  V30 33530 O 4421.91 -5.18726 6.91205 0
M  V30 33531 C 4424.18 -4.69597 6.85231 0
M  V30 33532 O 4424.92 -5.83832 6.51337 0
M  V30 33533 C 4423.51 -3.96706 5.66633 0
M  V30 33534 O 4424.31 -4.15414 4.49689 0
M  V30 33535 C 4422.17 -4.66153 5.59313 0
M  V30 33536 H 4422.21 -5.47679 4.85214 0
M  V30 33537 H 4423.39 -2.89008 5.86566 0
M  V30 33538 H 4424.87 -4.0121 7.36511 0
M  V30 33539 H 4423.18 -5.80182 8.37584 0
M  V30 33540 H 4422.99 -3.73517 9.52265 0
M  V30 33541 H 4421.36 -3.97163 8.80359 0
M  V30 33542 H 4424 -4.90969 4.01921 0
M  V30 33543 P 4425.85 -5.75688 6.64379 0
M  V30 33544 O 4427.28 -6.11849 7.01846 0
M  V30 33545 O 4425.49 -4.30744 6.56026 0
M  V30 33546 O 4425.53 -6.37042 5.19165 0
M  V30 33547 C 4425.37 -7.83578 5.16515 0
M  V30 33548 C 4425.91 -8.33398 3.83019 0
M  V30 33549 O 4424.86 -8.10074 3.01034 0
M  V30 33550 C 4427.13 -7.65514 3.2257 0
M  V30 33551 O 4427.87 -8.4329 2.32297 0
M  V30 33552 C 4426.46 -6.40075 2.62207 0
M  V30 33553 O 4427.26 -5.92589 1.53712 0
M  V30 33554 C 4425.12 -6.9454 2.18503 0
M  V30 33555 H 4425.16 -7.23063 1.12091 0
M  V30 33556 H 4426.34 -5.6025 3.37201 0
M  V30 33557 H 4427.82 -7.35707 4.02681 0
M  V30 33558 H 4426.13 -9.40912 3.9095 0
M  V30 33559 H 4425.94 -8.29056 5.99158 0
M  V30 33560 H 4424.31 -8.10073 5.25882 0
M  V30 33561 H 4426.95 -6.30324 0.726794 0
M  V30 33562 P 4428.81 -8.4349 2.47671 0
M  V30 33563 O 4430.23 -8.94263 2.59668 0
M  V30 33564 O 4428.45 -7.1704 3.19006 0
M  V30 33565 O 4428.48 -8.16596 0.923387 0
M  V30 33566 C 4428.32 -9.38537 0.108869 0
M  V30 33567 C 4428.86 -9.08175 -1.28353 0
M  V30 33568 O 4427.81 -8.44131 -1.84692 0
M  V30 33569 C 4430.08 -8.18386 -1.42505 0
M  V30 33570 O 4430.82 -8.3501 -2.60497 0
M  V30 33571 C 4429.41 -6.80225 -1.25468 0
M  V30 33572 O 4430.21 -5.81716 -1.90454 0
M  V30 33573 C 4428.07 -7.02416 -1.9168 0
M  V30 33574 N 4427.03 -6.31033 -1.20314 0
M  V30 33575 C 4427.2 -5.98817 0.0994088 0
M  V30 33576 N 4426.17 -5.35403 0.621694 0
M  V30 33577 C 4425.29 -5.25212 -0.43376 0
M  V30 33578 C 4424.02 -4.64602 -0.519722 0
M  V30 33579 N 4423.42 -4.01457 0.519136 0
M  V30 33580 N 4423.46 -4.7568 -1.76013 0
M  V30 33581 C 4424.06 -5.3653 -2.83017 0
M  V30 33582 N 4425.24 -5.93676 -2.79782 0
M  V30 33583 C 4425.81 -5.84061 -1.56249 0
M  V30 33584 H 4428.11 -6.68789 -2.9658 0
M  V30 33585 H 4429.29 -6.53498 -0.198729 0
M  V30 33586 H 4430.77 -8.36622 -0.589963 0
M  V30 33587 H 4429.08 -10.0273 -1.8081 0
M  V30 33588 H 4428.89 -10.2138 0.558219 0
M  V30 33589 H 4427.26 -9.6579 0.0444202 0
M  V30 33590 H 4423.52 -5.37113 -3.77321 0
M  V30 33591 H 4428.1 -6.23209 0.660562 0
M  V30 33592 H 4422.49 -3.58834 0.394862 0
M  V30 33593 H 4423.9 -3.96059 1.43048 0
M  V30 33594 H 4429.9 -5.69466 -2.79593 0
M  V30 33595 P 4431.76 -8.4349 -2.47671 0
M  V30 33596 O 4433.18 -8.92593 -2.65 0
M  V30 33597 O 4431.4 -7.7568 -1.19296 0
M  V30 33598 O 4431.43 -7.36886 -3.63805 0
M  V30 33599 C 4431.27 -7.95349 -4.982 0
M  V30 33600 C 4431.81 -6.94612 -5.98974 0
M  V30 33601 O 4430.76 -6.10347 -6.11815 0
M  V30 33602 C 4433.03 -6.11426 -5.62335 0
M  V30 33603 O 4433.77 -5.6162 -6.70584 0
M  V30 33604 C 4432.36 -5.04409 -4.73308 0
M  V30 33605 O 4433.16 -3.85992 -4.75183 0
M  V30 33606 C 4431.03 -4.8728 -5.41006 0
M  V30 33607 H 4431.06 -4.02333 -6.11157 0
M  V30 33608 H 4432.24 -5.39466 -3.69543 0
M  V30 33609 H 4433.72 -6.71916 -5.01943 0
M  V30 33610 H 4432.03 -7.4649 -6.93477 0
M  V30 33611 H 4431.84 -8.89416 -5.05237 0
M  V30 33612 H 4430.21 -8.14876 -5.18409 0
M  V30 33613 H 4432.85 -3.27957 -5.4317 0
M  V30 33614 P 4434.71 -5.75688 -6.64379 0
M  V30 33615 O 4436.13 -6.07627 -7.05504 0
M  V30 33616 O 4434.35 -5.88047 -5.19722 0
M  V30 33617 O 4434.38 -4.2322 -7.04443 0
M  V30 33618 C 4434.22 -3.99743 -8.4911 0
M  V30 33619 C 4434.76 -2.60516 -8.79425 0
M  V30 33620 O 4433.71 -1.82684 -8.4467 0
M  V30 33621 C 4435.98 -2.10343 -8.03628 0
M  V30 33622 O 4436.72 -1.09919 -8.67766 0
M  V30 33623 C 4435.31 -1.68446 -6.70876 0
M  V30 33624 O 4436.11 -0.678137 -6.08433 0
M  V30 33625 C 4433.98 -1.17436 -7.18567 0
M  V30 33626 H 4434.01 -0.0804732 -7.31656 0
M  V30 33627 H 4435.19 -2.54037 -6.02537 0
M  V30 33628 H 4436.67 -2.93881 -7.85526 0
M  V30 33629 H 4434.98 -2.53065 -9.86973 0
M  V30 33630 H 4434.79 -4.75072 -9.05887 0
M  V30 33631 H 4433.16 -4.05244 -8.76668 0
M  V30 33632 H 4435.8 0.177647 -6.34251 0
M  V30 33633 P 4437.66 -1.25109 -8.70152 0
M  V30 33634 O 4439.08 -1.29758 -9.22115 0
M  V30 33635 O 4437.3 -2.13714 -7.55141 0
M  V30 33636 O 4437.33 0.248149 -8.21425 0
M  V30 33637 C 4437.17 1.22792 -9.30533 0
M  V30 33638 C 4437.71 2.56293 -8.80664 0
M  V30 33639 O 4436.66 3.02944 -8.09255 0
M  V30 33640 C 4438.93 2.57523 -7.89775 0
M  V30 33641 O 4439.67 3.7668 -7.89438 0
M  V30 33642 C 4438.26 2.20997 -6.55446 0
M  V30 33643 O 4439.06 2.71302 -5.48691 0
M  V30 33644 C 4436.93 2.89693 -6.67988 0
M  V30 33645 N 4435.88 2.08895 -6.07487 0
M  V30 33646 C 4436.05 0.753809 -5.94137 0
M  V30 33647 N 4435.03 0.146592 -5.38801 0
M  V30 33648 C 4434.14 1.1768 -5.13693 0
M  V30 33649 C 4432.87 1.17563 -4.52477 0
M  V30 33650 N 4432.27 0.057481 -4.04759 0
M  V30 33651 N 4432.31 2.41918 -4.45789 0
M  V30 33652 C 4432.91 3.56493 -4.90792 0
M  V30 33653 N 4434.09 3.61423 -5.47817 0
M  V30 33654 C 4434.66 2.37779 -5.5588 0
M  V30 33655 H 4436.96 3.8874 -6.19774 0
M  V30 33656 H 4438.14 1.12673 -6.44018 0
M  V30 33657 H 4439.62 1.7746 -8.19711 0
M  V30 33658 H 4437.93 3.21673 -9.66791 0
M  V30 33659 H 4437.74 0.901032 -10.1892 0
M  V30 33660 H 4436.11 1.33049 -9.56592 0
M  V30 33661 H 4432.37 4.49919 -4.77947 0
M  V30 33662 H 4436.95 0.233081 -6.26266 0
M  V30 33663 H 4431.34 0.119831 -3.60801 0
M  V30 33664 H 4432.75 -0.852272 -4.12385 0
M  V30 33665 H 4438.75 3.5779 -5.23879 0
M  V30 33666 P 4440.61 3.65191 -7.99657 0
M  V30 33667 O 4442.03 3.89332 -8.45794 0
M  V30 33668 O 4440.25 2.28472 -7.50807 0
M  V30 33669 O 4440.28 4.64972 -6.77611 0
M  V30 33670 C 4440.12 6.06319 -7.16352 0
M  V30 33671 C 4440.66 6.91731 -6.02299 0
M  V30 33672 O 4439.61 6.92449 -5.17064 0
M  V30 33673 C 4441.88 6.43627 -5.25174 0
M  V30 33674 O 4442.62 7.43686 -4.60469 0
M  V30 33675 C 4441.21 5.40275 -4.31916 0
M  V30 33676 O 4442.01 5.25279 -3.14438 0
M  V30 33677 C 4439.88 6.04847 -4.05327 0
M  V30 33678 H 4439.91 6.62195 -3.11261 0
M  V30 33679 H 4441.09 4.42556 -4.81383 0
M  V30 33680 H 4442.58 5.92458 -5.93643 0
M  V30 33681 H 4440.88 7.92655 -6.402 0
M  V30 33682 H 4440.69 6.26671 -8.0846 0
M  V30 33683 H 4439.06 6.29101 -7.32804 0
M  V30 33684 H 4441.7 5.84315 -2.47318 0
M  V30 33685 P 4443.56 7.39546 -4.75277 0
M  V30 33686 O 4444.98 7.84798 -5.01039 0
M  V30 33687 O 4443.2 5.9812 -5.08098 0
M  V30 33688 O 4443.24 7.57503 -3.1866 0
M  V30 33689 C 4443.08 8.97357 -2.74833 0
M  V30 33690 C 4443.62 9.07548 -1.32709 0
M  V30 33691 O 4442.56 8.62072 -0.606159 0
M  V30 33692 C 4444.83 8.25383 -0.938334 0
M  V30 33693 O 4445.57 8.74577 0.146954 0
M  V30 33694 C 4444.16 6.8802 -0.712559 0
M  V30 33695 O 4444.96 6.1189 0.194655 0
M  V30 33696 C 4442.83 7.27966 -0.139777 0
M  V30 33697 H 4442.86 7.25354 0.961601 0
M  V30 33698 H 4444.04 6.32557 -1.65702 0
M  V30 33699 H 4445.53 8.19355 -1.79097 0
M  V30 33700 H 4443.83 10.1294 -1.10029 0
M  V30 33701 H 4443.64 9.64276 -3.41316 0
M  V30 33702 H 4442.01 9.25417 -2.76357 0
M  V30 33703 H 4444.65 6.25267 1.07847 0
M  V30 33704 P 4446.51 8.791 -2.64829e-10 0
M  V30 33705 O 4447.93 9.31196 0.027936 0
M  V30 33706 O 4446.15 7.77869 -1.04071 0
M  V30 33707 O 4446.19 8.09533 1.41463 0
M  V30 33708 C 4446.02 9.03587 2.5397 0
M  V30 33709 C 4446.57 8.35226 3.79016 0
M  V30 33710 O 4445.51 7.57904 4.1503 0
M  V30 33711 C 4447.78 7.45087 3.67298 0
M  V30 33712 O 4448.52 7.27796 4.85194 0
M  V30 33713 C 4447.12 6.17323 3.12027 0
M  V30 33714 O 4447.91 5.04496 3.46627 0
M  V30 33715 C 4445.78 6.19961 3.81809 0
M  V30 33716 N 4444.73 5.71575 2.93223 0
M  V30 33717 C 4444.9 5.77362 1.59168 0
M  V30 33718 N 4443.88 5.3123 0.911893 0
M  V30 33719 C 4442.99 4.91717 1.89588 0
M  V30 33720 C 4441.72 4.3114 1.8076 0
M  V30 33721 N 4441.16 4.06823 3.02898 0
M  V30 33722 C 4441.76 4.35062 4.22711 0
M  V30 33723 N 4442.94 4.90805 4.35707 0
M  V30 33724 C 4443.51 5.16382 3.14469 0
M  V30 33725 H 4446.99 6.21428 2.0318 0
M  V30 33726 H 4448.48 7.86112 2.9231 0
M  V30 33727 H 4446.78 9.11171 4.55987 0
M  V30 33728 H 4446.59 9.9573 2.34194 0
M  V30 33729 H 4444.96 9.2792 2.67832 0
M  V30 33730 H 4445.8 6.16575 1.12198 0
M  V30 33731 H 4447.6 4.67628 4.28704 0
M  V30 33732 P 4449.46 7.39546 4.75277 0
M  V30 33733 O 4450.88 7.81777 5.05738 0
M  V30 33734 O 4449.1 7.1065 3.32998 0
M  V30 33735 O 4449.14 6.04542 5.56673 0
M  V30 33736 C 4448.98 6.22772 7.02095 0
M  V30 33737 C 4449.52 4.97725 7.70406 0
M  V30 33738 O 4448.46 4.13256 7.58987 0
M  V30 33739 C 4450.73 4.28231 7.11815 0
M  V30 33740 O 4451.47 3.49945 8.01648 0
M  V30 33741 C 4450.07 3.5063 5.96244 0
M  V30 33742 O 4450.86 2.36482 5.64681 0
M  V30 33743 C 4448.73 3.15122 6.56374 0
M  V30 33744 H 4448.76 2.13853 6.99751 0
M  V30 33745 H 4449.94 4.13501 5.06559 0
M  V30 33746 H 4451.43 5.03285 6.70911 0
M  V30 33747 H 4449.73 5.20877 8.75697 0
M  V30 33748 H 4449.54 7.11046 7.35349 0
M  V30 33749 H 4447.91 6.35815 7.26986 0
M  V30 33750 H 4450.55 1.61644 6.13565 0
M  V30 33751 P 4452.41 3.65191 7.99657 0
M  V30 33752 O 4453.83 3.84292 8.48206 0
M  V30 33753 O 4452.05 4.17805 6.64342 0
M  V30 33754 O 4452.09 2.07613 7.95143 0
M  V30 33755 C 4451.93 1.44344 9.27435 0
M  V30 33756 C 4452.47 0.0220036 9.17197 0
M  V30 33757 O 4451.41 -0.626794 8.61824 0
M  V30 33758 C 4453.69 -0.24586 8.30336 0
M  V30 33759 O 4454.42 -1.39011 8.63583 0
M  V30 33760 C 4453.02 -0.273849 6.91158 0
M  V30 33761 O 4453.82 -1.05728 6.029 0
M  V30 33762 C 4451.68 -0.897649 7.22545 0
M  V30 33763 N 4450.64 -0.292839 6.41732 0
M  V30 33764 C 4450.81 0.950603 5.91308 0
M  V30 33765 N 4449.78 1.37732 5.21105 0
M  V30 33766 C 4448.89 0.318109 5.26039 0
M  V30 33767 C 4447.63 0.146766 4.6727 0
M  V30 33768 N 4447.03 1.08519 3.89983 0
M  V30 33769 N 4447.06 -1.06525 4.95887 0
M  V30 33770 C 4447.66 -2.0378 5.71347 0
M  V30 33771 N 4448.84 -1.92445 6.27451 0
M  V30 33772 C 4449.42 -0.715382 6.00353 0
M  V30 33773 H 4451.71 -1.98383 7.04189 0
M  V30 33774 H 4452.89 0.733318 6.49674 0
M  V30 33775 H 4454.38 0.60668 8.36503 0
M  V30 33776 H 4452.68 -0.362662 10.1825 0
M  V30 33777 H 4452.49 2.00611 10.0304 0
M  V30 33778 H 4450.86 1.41843 9.55327 0
M  V30 33779 H 4447.13 -2.97041 5.85344 0
M  V30 33780 H 4451.71 1.54076 6.07465 0
M  V30 33781 H 4446.1 0.901517 3.49562 0
M  V30 33782 H 4447.5 1.97957 3.71669 0
M  V30 33783 H 4453.5 -1.95704 6.0346 0
M  V30 33784 P 4455.36 -1.25109 8.70152 0
M  V30 33785 O 4456.78 -1.35288 9.2132 0
M  V30 33786 O 4455 -0.0769065 7.84762 0
M  V30 33787 O 4455.04 -2.55232 7.81161 0
M  V30 33788 C 4454.88 -3.79979 8.58246 0
M  V30 33789 C 4455.42 -4.94023 7.72785 0
M  V30 33790 O 4454.36 -5.18666 6.91125 0
M  V30 33791 C 4456.64 -4.69597 6.85231 0
M  V30 33792 O 4457.37 -5.83832 6.51337 0
M  V30 33793 C 4455.97 -3.96706 5.66633 0
M  V30 33794 O 4456.77 -4.14896 4.5003 0
M  V30 33795 C 4454.63 -4.66153 5.59313 0
M  V30 33796 N 4453.59 -3.71582 5.24027 0
M  V30 33797 C 4453.76 -2.39715 5.48833 0
M  V30 33798 N 4452.73 -1.65863 5.12845 0
M  V30 33799 C 4451.84 -2.57637 4.5973 0
M  V30 33800 C 4450.58 -2.40278 4.01027 0
M  V30 33801 N 4449.98 -1.19549 3.86744 0
M  V30 33802 N 4450.01 -3.57711 3.59575 0
M  V30 33803 C 4450.61 -4.80324 3.70476 0
M  V30 33804 N 4451.79 -5.01121 4.23801 0
M  V30 33805 C 4452.37 -3.84757 4.66372 0
M  V30 33806 H 4454.66 -5.47604 4.85148 0
M  V30 33807 H 4455.84 -2.8955 5.86187 0
M  V30 33808 H 4457.33 -4.0121 7.36511 0
M  V30 33809 H 4455.63 -5.81019 8.37003 0
M  V30 33810 H 4455.44 -3.73517 9.52265 0
M  V30 33811 H 4453.81 -3.97163 8.80359 0
M  V30 33812 H 4450.08 -5.66348 3.3183 0
M  V30 33813 H 4454.66 -1.98804 5.94332 0
M  V30 33814 H 4449.05 -1.13147 3.4281 0
M  V30 33815 H 4450.45 -0.344074 4.19692 0
M  V30 33816 H 4456.45 -4.90891 4.01857 0
M  V30 33817 P 4458.31 -5.75688 6.64379 0
M  V30 33818 O 4459.73 -6.11915 7.01921 0
M  V30 33819 O 4457.95 -4.30744 6.56026 0
M  V30 33820 O 4457.99 -6.37042 5.19165 0
M  V30 33821 C 4457.83 -7.83662 5.1657 0
M  V30 33822 C 4458.37 -8.33398 3.83019 0
M  V30 33823 O 4457.31 -8.0998 3.00999 0
M  V30 33824 C 4459.59 -7.65514 3.2257 0
M  V30 33825 O 4460.32 -8.4329 2.32297 0
M  V30 33826 C 4458.92 -6.40075 2.62207 0
M  V30 33827 O 4459.72 -5.92338 1.5428 0
M  V30 33828 C 4457.58 -6.9454 2.18503 0
M  V30 33829 N 4456.54 -5.95905 2.39948 0
M  V30 33830 C 4456.71 -4.98383 3.32108 0
M  V30 33831 N 4455.68 -4.16798 3.41761 0
M  V30 33832 C 4454.79 -4.65287 2.47461 0
M  V30 33833 C 4453.53 -4.18946 2.07461 0
M  V30 33834 N 4452.96 -4.95327 1.09101 0
M  V30 33835 C 4453.56 -6.04369 0.519812 0
M  V30 33836 N 4454.74 -6.50694 0.855982 0
M  V30 33837 C 4455.32 -5.75818 1.84322 0
M  V30 33838 H 4458.8 -5.60502 3.36589 0
M  V30 33839 H 4460.28 -7.35707 4.02681 0
M  V30 33840 H 4458.58 -9.41302 3.90009 0
M  V30 33841 H 4458.39 -8.29056 5.99158 0
M  V30 33842 H 4456.76 -8.10073 5.25882 0
M  V30 33843 H 4457.61 -4.88564 3.92502 0
M  V30 33844 H 4459.4 -6.30224 0.72668 0
M  V30 33845 P 4461.26 -8.4349 2.47671 0
M  V30 33846 O 4462.68 -8.94263 2.59668 0
M  V30 33847 O 4460.9 -7.1704 3.19006 0
M  V30 33848 O 4460.94 -8.16596 0.923387 0
M  V30 33849 C 4460.78 -9.38537 0.108869 0
M  V30 33850 C 4461.32 -9.08175 -1.28353 0
M  V30 33851 O 4460.26 -8.44131 -1.84692 0
M  V30 33852 C 4462.54 -8.18386 -1.42505 0
M  V30 33853 O 4463.27 -8.3501 -2.60497 0
M  V30 33854 C 4461.87 -6.80225 -1.25468 0
M  V30 33855 O 4462.67 -5.81716 -1.90454 0
M  V30 33856 C 4460.53 -7.02416 -1.9168 0
M  V30 33857 N 4459.49 -6.31033 -1.20314 0
M  V30 33858 C 4459.66 -5.98817 0.0994088 0
M  V30 33859 N 4458.63 -5.35403 0.621694 0
M  V30 33860 C 4457.74 -5.25212 -0.43376 0
M  V30 33861 C 4456.48 -4.64602 -0.519722 0
M  V30 33862 N 4455.91 -4.7568 -1.76013 0
M  V30 33863 C 4456.51 -5.3653 -2.83017 0
M  V30 33864 N 4457.69 -5.93676 -2.79782 0
M  V30 33865 C 4458.27 -5.84061 -1.56249 0
M  V30 33866 H 4461.75 -6.53498 -0.198729 0
M  V30 33867 H 4463.23 -8.36622 -0.589963 0
M  V30 33868 H 4461.53 -10.0273 -1.8081 0
M  V30 33869 H 4461.34 -10.2138 0.558219 0
M  V30 33870 H 4459.71 -9.6579 0.0444202 0
M  V30 33871 H 4460.56 -6.23209 0.660562 0
M  V30 33872 H 4462.35 -5.69466 -2.79593 0
M  V30 33873 P 4464.21 -8.4349 -2.47671 0
M  V30 33874 O 4465.63 -8.92785 -2.65057 0
M  V30 33875 O 4463.85 -7.7568 -1.19296 0
M  V30 33876 O 4463.89 -7.36886 -3.63805 0
M  V30 33877 C 4463.73 -7.95349 -4.982 0
M  V30 33878 C 4464.27 -6.94537 -5.98908 0
M  V30 33879 O 4463.21 -6.10347 -6.11815 0
M  V30 33880 C 4465.49 -6.11426 -5.62335 0
M  V30 33881 O 4466.23 -5.6162 -6.70584 0
M  V30 33882 C 4464.82 -5.04409 -4.73308 0
M  V30 33883 O 4465.62 -3.85929 -4.75106 0
M  V30 33884 C 4463.48 -4.8728 -5.41006 0
M  V30 33885 N 4462.44 -4.65812 -4.42377 0
M  V30 33886 C 4462.5 -5.27109 -3.24335 0
M  V30 33887 N 4461.46 -4.94293 -2.47735 0
M  V30 33888 C 4460.72 -4.1271 -3.23359 0
M  V30 33889 C 4459.42 -3.56384 -2.99934 0
M  V30 33890 O 4458.68 -3.69331 -2.00616 0
M  V30 33891 N 4458.99 -2.80206 -4.03316 0
M  V30 33892 C 4459.73 -2.58614 -5.2172 0
M  V30 33893 N 4459.14 -1.75154 -6.13278 0
M  V30 33894 N 4460.89 -3.13689 -5.47619 0
M  V30 33895 C 4461.34 -3.90921 -4.46436 0
M  V30 33896 H 4463.51 -4.02333 -6.11157 0
M  V30 33897 H 4464.7 -5.39383 -3.69487 0
M  V30 33898 H 4466.18 -6.71414 -5.02615 0
M  V30 33899 H 4464.49 -7.4649 -6.93477 0
M  V30 33900 H 4464.3 -8.89416 -5.05237 0
M  V30 33901 H 4462.67 -8.14876 -5.18409 0
M  V30 33902 H 4458.09 -2.36355 -3.95916 0
M  V30 33903 H 4463.3 -5.95212 -2.93859 0
M  V30 33904 H 4458.23 -1.32473 -5.91856 0
M  V30 33905 H 4459.6 -1.5588 -7.03026 0
M  V30 33906 H 4465.31 -3.27906 -5.43085 0
M  V30 33907 P 4467.16 -5.75688 -6.64379 0
M  V30 33908 O 4468.58 -6.07627 -7.05504 0
M  V30 33909 O 4466.8 -5.88047 -5.19722 0
M  V30 33910 O 4466.84 -4.2322 -7.04443 0
M  V30 33911 C 4466.68 -3.99743 -8.4911 0
M  V30 33912 C 4467.22 -2.60516 -8.79425 0
M  V30 33913 O 4466.16 -1.82684 -8.4467 0
M  V30 33914 C 4468.44 -2.10343 -8.03628 0
M  V30 33915 O 4469.18 -1.09919 -8.67766 0
M  V30 33916 C 4467.77 -1.68446 -6.70876 0
M  V30 33917 O 4468.57 -0.678137 -6.08433 0
M  V30 33918 C 4466.43 -1.17436 -7.18567 0
M  V30 33919 H 4466.46 -0.0804732 -7.31656 0
M  V30 33920 H 4467.65 -2.54037 -6.02537 0
M  V30 33921 H 4469.13 -2.93881 -7.85526 0
M  V30 33922 H 4467.44 -2.53065 -9.86973 0
M  V30 33923 H 4467.25 -4.75072 -9.05887 0
M  V30 33924 H 4465.62 -4.05244 -8.76668 0
M  V30 33925 H 4468.26 0.177647 -6.34251 0
M  V30 33926 P 4470.11 -1.25109 -8.70152 0
M  V30 33927 O 4471.54 -1.29744 -9.22016 0
M  V30 33928 O 4469.75 -2.13714 -7.55141 0
M  V30 33929 O 4469.79 0.248149 -8.21425 0
M  V30 33930 C 4469.63 1.22779 -9.30434 0
M  V30 33931 C 4470.17 2.56293 -8.80664 0
M  V30 33932 O 4469.11 3.02979 -8.09349 0
M  V30 33933 C 4471.39 2.57523 -7.89775 0
M  V30 33934 O 4472.13 3.7668 -7.89438 0
M  V30 33935 C 4470.72 2.20997 -6.55446 0
M  V30 33936 O 4471.52 2.71895 -5.48509 0
M  V30 33937 C 4469.38 2.89693 -6.67988 0
M  V30 33938 H 4469.41 3.88793 -6.19859 0
M  V30 33939 H 4470.6 1.12046 -6.44229 0
M  V30 33940 H 4472.08 1.7746 -8.19711 0
M  V30 33941 H 4470.39 3.20706 -9.67112 0
M  V30 33942 H 4470.2 0.901032 -10.1892 0
M  V30 33943 H 4468.57 1.33049 -9.56592 0
M  V30 33944 H 4471.21 3.57847 -5.23962 0
M  V30 33945 P 4473.06 3.65191 -7.99657 0
M  V30 33946 O 4474.49 3.89374 -8.45885 0
M  V30 33947 O 4472.7 2.28472 -7.50807 0
M  V30 33948 O 4472.74 4.64972 -6.77611 0
M  V30 33949 C 4472.58 6.06383 -7.16428 0
M  V30 33950 C 4473.12 6.91731 -6.02299 0
M  V30 33951 O 4472.07 6.92369 -5.17005 0
M  V30 33952 C 4474.34 6.43627 -5.25174 0
M  V30 33953 O 4475.08 7.43686 -4.60469 0
M  V30 33954 C 4473.67 5.40275 -4.31916 0
M  V30 33955 O 4474.47 5.24878 -3.14911 0
M  V30 33956 C 4472.33 6.04847 -4.05327 0
M  V30 33957 N 4471.29 5.04166 -3.98114 0
M  V30 33958 C 4471.46 3.84629 -4.59066 0
M  V30 33959 N 4470.43 3.0363 -4.45343 0
M  V30 33960 C 4469.55 3.76722 -3.68523 0
M  V30 33961 C 4468.28 3.43528 -3.17088 0
M  V30 33962 N 4467.72 4.44526 -2.44231 0
M  V30 33963 C 4468.32 5.65243 -2.20146 0
M  V30 33964 N 4469.49 6.00221 -2.65453 0
M  V30 33965 C 4470.07 5.00564 -3.39083 0
M  V30 33966 H 4473.55 4.42969 -4.80867 0
M  V30 33967 H 4475.03 5.92458 -5.93643 0
M  V30 33968 H 4473.34 7.93295 -6.39407 0
M  V30 33969 H 4473.15 6.26671 -8.0846 0
M  V30 33970 H 4471.52 6.29101 -7.32804 0
M  V30 33971 H 4472.36 3.58193 -5.14248 0
M  V30 33972 H 4474.16 5.84223 -2.47279 0
M  V30 33973 P 4476.01 7.39546 -4.75277 0
M  V30 33974 O 4477.44 7.84798 -5.01039 0
M  V30 33975 O 4475.65 5.9812 -5.08098 0
M  V30 33976 O 4475.69 7.57503 -3.1866 0
M  V30 33977 C 4475.53 8.97357 -2.74833 0
M  V30 33978 C 4476.07 9.07548 -1.32709 0
M  V30 33979 O 4475.02 8.62072 -0.606159 0
M  V30 33980 C 4477.29 8.25383 -0.938334 0
M  V30 33981 O 4478.03 8.74577 0.146954 0
M  V30 33982 C 4476.62 6.8802 -0.712559 0
M  V30 33983 O 4477.42 6.1189 0.194655 0
M  V30 33984 C 4475.28 7.27966 -0.139777 0
M  V30 33985 H 4475.32 7.25354 0.961601 0
M  V30 33986 H 4476.5 6.32557 -1.65702 0
M  V30 33987 H 4477.98 8.19355 -1.79097 0
M  V30 33988 H 4476.29 10.1294 -1.10029 0
M  V30 33989 H 4476.1 9.64276 -3.41316 0
M  V30 33990 H 4474.47 9.25417 -2.76357 0
M  V30 33991 H 4477.11 6.25267 1.07847 0
M  V30 33992 P 4478.97 8.791 -2.70016e-10 0
M  V30 33993 O 4480.39 9.31096 0.027933 0
M  V30 33994 O 4478.61 7.77869 -1.04071 0
M  V30 33995 O 4478.64 8.09533 1.41463 0
M  V30 33996 C 4478.48 9.0349 2.53943 0
M  V30 33997 C 4479.02 8.35226 3.79016 0
M  V30 33998 O 4477.97 7.57992 4.15078 0
M  V30 33999 C 4480.24 7.45087 3.67298 0
M  V30 34000 O 4480.98 7.27796 4.85194 0
M  V30 34001 C 4479.57 6.17323 3.12027 0
M  V30 34002 O 4480.37 5.04231 3.47188 0
M  V30 34003 C 4478.23 6.19961 3.81809 0
M  V30 34004 H 4478.27 5.58218 4.73051 0
M  V30 34005 H 4479.45 6.21726 2.02589 0
M  V30 34006 H 4480.93 7.86112 2.9231 0
M  V30 34007 H 4479.24 9.11627 4.55076 0
M  V30 34008 H 4479.05 9.9573 2.34194 0
M  V30 34009 H 4477.42 9.2792 2.67832 0
M  V30 34010 H 4480.06 4.67702 4.28772 0
M  V30 34011 P 4481.92 7.39546 4.75277 0
M  V30 34012 O 4483.34 7.81777 5.05738 0
M  V30 34013 O 4481.56 7.1065 3.32998 0
M  V30 34014 O 4481.59 6.04542 5.56673 0
M  V30 34015 C 4481.43 6.22772 7.02095 0
M  V30 34016 C 4481.97 4.97725 7.70406 0
M  V30 34017 O 4480.92 4.13256 7.58987 0
M  V30 34018 C 4483.19 4.28231 7.11815 0
M  V30 34019 O 4483.93 3.49945 8.01648 0
M  V30 34020 C 4482.52 3.5063 5.96244 0
M  V30 34021 O 4483.32 2.36482 5.64681 0
M  V30 34022 C 4481.18 3.15122 6.56374 0
M  V30 34023 H 4481.22 2.13853 6.99751 0
M  V30 34024 H 4482.4 4.13501 5.06559 0
M  V30 34025 H 4483.88 5.03285 6.70911 0
M  V30 34026 H 4482.19 5.20877 8.75697 0
M  V30 34027 H 4482 7.11046 7.35349 0
M  V30 34028 H 4480.37 6.35815 7.26986 0
M  V30 34029 H 4483.01 1.61644 6.13565 0
M  V30 34030 P 4484.87 3.65191 7.99657 0
M  V30 34031 O 4486.29 3.84333 8.48297 0
M  V30 34032 O 4484.51 4.17805 6.64342 0
M  V30 34033 O 4484.54 2.07613 7.95143 0
M  V30 34034 C 4484.38 1.44328 9.27336 0
M  V30 34035 C 4484.92 0.0220012 9.17097 0
M  V30 34036 O 4483.87 -0.626867 8.61923 0
M  V30 34037 C 4486.14 -0.24586 8.30336 0
M  V30 34038 O 4486.88 -1.39011 8.63583 0
M  V30 34039 C 4485.47 -0.273849 6.91158 0
M  V30 34040 O 4486.27 -1.06331 6.02794 0
M  V30 34041 C 4484.14 -0.897649 7.22545 0
M  V30 34042 N 4483.09 -0.292839 6.41732 0
M  V30 34043 C 4483.15 1.00068 6.10757 0
M  V30 34044 N 4482.11 1.36468 5.35794 0
M  V30 34045 C 4481.38 0.258894 5.2366 0
M  V30 34046 C 4480.07 0.0670682 4.65752 0
M  V30 34047 O 4479.34 0.902443 4.10497 0
M  V30 34048 N 4479.64 -1.2131 4.75881 0
M  V30 34049 C 4480.39 -2.24934 5.37101 0
M  V30 34050 N 4479.79 -3.48783 5.33984 0
M  V30 34051 N 4481.54 -2.0844 5.95684 0
M  V30 34052 C 4482 -0.81395 5.87791 0
M  V30 34053 H 4484.17 -1.9841 7.04286 0
M  V30 34054 H 4485.35 0.739815 6.49601 0
M  V30 34055 H 4486.84 0.598315 8.36563 0
M  V30 34056 H 4485.14 -0.352479 10.1829 0
M  V30 34057 H 4484.95 2.00611 10.0304 0
M  V30 34058 H 4483.32 1.41843 9.55327 0
M  V30 34059 H 4478.74 -1.44434 4.37895 0
M  V30 34060 H 4483.95 1.67697 6.42268 0
M  V30 34061 H 4478.88 -3.60543 4.87699 0
M  V30 34062 H 4480.26 -4.29232 5.7819 0
M  V30 34063 H 4485.96 -1.95704 6.0346 0
M  V30 34064 P 4487.82 -1.25109 8.70152 0
M  V30 34065 O 4489.24 -1.35274 9.21221 0
M  V30 34066 O 4487.46 -0.0769065 7.84762 0
M  V30 34067 O 4487.49 -2.55232 7.81161 0
M  V30 34068 C 4487.33 -3.79939 8.58154 0
M  V30 34069 C 4487.87 -4.94023 7.72785 0
M  V30 34070 O 4486.82 -5.18726 6.91205 0
M  V30 34071 C 4489.09 -4.69597 6.85231 0
M  V30 34072 O 4489.83 -5.83832 6.51337 0
M  V30 34073 C 4488.42 -3.96706 5.66633 0
M  V30 34074 O 4489.22 -4.15414 4.49689 0
M  V30 34075 C 4487.09 -4.66153 5.59313 0
M  V30 34076 H 4487.12 -5.47679 4.85214 0
M  V30 34077 H 4488.3 -2.89008 5.86566 0
M  V30 34078 H 4489.78 -4.0121 7.36511 0
M  V30 34079 H 4488.09 -5.80182 8.37584 0
M  V30 34080 H 4487.9 -3.73517 9.52265 0
M  V30 34081 H 4486.27 -3.97163 8.80359 0
M  V30 34082 H 4488.91 -4.90969 4.01921 0
M  V30 34083 P 4490.77 -5.75688 6.64379 0
M  V30 34084 O 4492.19 -6.11849 7.01846 0
M  V30 34085 O 4490.41 -4.30744 6.56026 0
M  V30 34086 O 4490.44 -6.37042 5.19165 0
M  V30 34087 C 4490.28 -7.83578 5.16515 0
M  V30 34088 C 4490.82 -8.33398 3.83019 0
M  V30 34089 O 4489.77 -8.10074 3.01034 0
M  V30 34090 C 4492.04 -7.65514 3.2257 0
M  V30 34091 O 4492.78 -8.4329 2.32297 0
M  V30 34092 C 4491.37 -6.40075 2.62207 0
M  V30 34093 O 4492.17 -5.92589 1.53712 0
M  V30 34094 C 4490.04 -6.9454 2.18503 0
M  V30 34095 H 4490.07 -7.23063 1.12091 0
M  V30 34096 H 4491.25 -5.6025 3.37201 0
M  V30 34097 H 4492.74 -7.35707 4.02681 0
M  V30 34098 H 4491.04 -9.40912 3.9095 0
M  V30 34099 H 4490.85 -8.29056 5.99158 0
M  V30 34100 H 4489.22 -8.10073 5.25882 0
M  V30 34101 H 4491.86 -6.30324 0.726794 0
M  V30 34102 P 4493.72 -8.4349 2.47671 0
M  V30 34103 O 4495.14 -8.94263 2.59668 0
M  V30 34104 O 4493.36 -7.1704 3.19006 0
M  V30 34105 O 4493.4 -8.16596 0.923387 0
M  V30 34106 C 4493.23 -9.38537 0.108869 0
M  V30 34107 C 4493.78 -9.08175 -1.28353 0
M  V30 34108 O 4492.72 -8.44131 -1.84692 0
M  V30 34109 C 4494.99 -8.18386 -1.42505 0
M  V30 34110 O 4495.73 -8.3501 -2.60497 0
M  V30 34111 C 4494.33 -6.80225 -1.25468 0
M  V30 34112 O 4495.12 -5.81716 -1.90454 0
M  V30 34113 C 4492.99 -7.02416 -1.9168 0
M  V30 34114 N 4491.94 -6.31033 -1.20314 0
M  V30 34115 C 4492.11 -5.98817 0.0994088 0
M  V30 34116 N 4491.09 -5.35403 0.621694 0
M  V30 34117 C 4490.2 -5.25212 -0.43376 0
M  V30 34118 C 4488.93 -4.64602 -0.519722 0
M  V30 34119 N 4488.34 -4.01457 0.519136 0
M  V30 34120 N 4488.37 -4.7568 -1.76013 0
M  V30 34121 C 4488.97 -5.3653 -2.83017 0
M  V30 34122 N 4490.15 -5.93676 -2.79782 0
M  V30 34123 C 4490.72 -5.84061 -1.56249 0
M  V30 34124 H 4493.02 -6.68789 -2.9658 0
M  V30 34125 H 4494.2 -6.53498 -0.198729 0
M  V30 34126 H 4495.69 -8.36622 -0.589963 0
M  V30 34127 H 4493.99 -10.0273 -1.8081 0
M  V30 34128 H 4493.8 -10.2138 0.558219 0
M  V30 34129 H 4492.17 -9.6579 0.0444202 0
M  V30 34130 H 4488.44 -5.37113 -3.77321 0
M  V30 34131 H 4493.01 -6.23209 0.660562 0
M  V30 34132 H 4487.41 -3.58834 0.394862 0
M  V30 34133 H 4488.81 -3.96059 1.43048 0
M  V30 34134 H 4494.81 -5.69466 -2.79593 0
M  V30 34135 H 4497.36 -7.91782 -2.28882 0
M  V30 END ATOM
M  V30 BEGIN BOND
M  V30 END BOND
M  V30 END CTAB
M  END
$$$$
