drugbank_target|Q83WG3 Cytochrome P450 (DB06955; DB07588)
 OpenBabel12092120383D

  0  0  0     0  0            999 V3000
M  V30 BEGIN CTAB
M  V30 COUNTS 6490 6562 0 0 0
M  V30 BEGIN ATOM
M  V30 1 H -0.908 1.98254 -0.117106 0
M  V30 2 N 0 1.576 0 0
M  V30 3 C 0.933 2.03868 1.02534 0
M  V30 4 C 1.911 0.928543 1.3348 0
M  V30 5 O 3.095 1.19667 1.45644 0
M  V30 6 C 0.222 2.43627 2.35294 0
M  V30 7 C -0.732 3.65373 2.2001 0
M  V30 8 S 0.101 5.13292 1.52614 0
M  V30 9 C 1.257 5.56322 2.86805 0
M  V30 10 H 1.49 2.90518 0.631377 0
M  V30 11 H -0.977 1.52953 0.210867 0
M  V30 12 H 0.981 2.67203 3.11629 0
M  V30 13 H -0.358 1.57376 2.7183 0
M  V30 14 H -1.165 3.90944 3.18086 0
M  V30 15 H -1.563 3.418 1.51819 0
M  V30 16 H 0.729 5.58782 3.83104 0
M  V30 17 H 1.672 6.56266 2.65933 0
M  V30 18 H 2.08 4.83886 2.90714 0
M  V30 19 N 1.4781 -0.272755 1.55222 0
M  V30 20 C 2.4411 -1.32041 1.87344 0
M  V30 21 C 3.4411 -1.42342 0.74803 0
M  V30 22 O 4.6311 -1.41488 1.0162 0
M  V30 23 C 1.7631 -2.70173 2.07893 0
M  V30 24 H 2.9561 -1.04789 2.80997 0
M  V30 25 H 0.5091 -0.51083 1.47717 0
M  V30 26 H 1.2441 -3.02605 1.16622 0
M  V30 27 H 1.0291 -2.64082 2.89833 0
M  V30 28 H 2.5191 -3.45869 2.34017 0
M  V30 29 N 2.9562 -1.48159 -0.537278 0
M  V30 30 C 4.1812 -1.59707 -1.32319 0
M  V30 31 C 4.6062 -0.254859 -1.86365 0
M  V30 32 O 3.9642 0.772378 -1.64024 0
M  V30 33 C 4.0122 -2.6412 -2.45505 0
M  V30 34 O 3.1162 -2.20774 -3.48328 0
M  V30 35 H 2.4572 -0.535791 -0.392204 0
M  V30 36 H 4.9872 -1.94092 -0.647268 0
M  V30 37 H 4.9972 -2.85166 -2.91795 0
M  V30 38 H 3.6722 -3.61567 -2.05528 0
M  V30 39 H 2.2492 -2.09911 -3.08207 0
M  V30 40 N 4.4343 0.785586 -1.36625 0
M  V30 41 C 5.3973 1.87999 -1.31107 0
M  V30 42 C 6.3973 1.59316 -0.217959 0
M  V30 43 O 7.5873 1.67656 -0.472977 0
M  V30 44 C 4.7193 3.24861 -1.03334 0
M  V30 45 H 5.9123 1.94307 -2.2844 0
M  V30 46 H 3.4653 0.983813 -1.21453 0
M  V30 47 H 4.2003 3.24235 -0.0647432 0
M  V30 48 H 3.9853 3.4707 -1.82441 0
M  V30 49 H 5.4753 4.04929 -1.02088 0
M  V30 50 N 5.9124 1.20967 1.01018 0
M  V30 51 C 7.1404 1.04956 1.78303 0
M  V30 52 C 7.5554 -0.400915 1.84494 0
M  V30 53 O 6.9124 -1.27826 1.30257 0
M  V30 54 C 6.9634 1.63403 3.22462 0
M  V30 55 O 6.6844 3.02775 3.16637 0
M  V30 56 C 8.1854 1.52432 4.16268 0
M  V30 57 H 5.4054 0.368858 0.560522 0
M  V30 58 H 7.9494 1.60193 1.27116 0
M  V30 59 H 6.1044 1.1227 3.70775 0
M  V30 60 H 6.5184 3.30626 4.07169 0
M  V30 61 H 7.9924 1.98078 5.15237 0
M  V30 62 H 8.4694 0.477875 4.36592 0
M  V30 63 H 9.0754 2.02787 3.73841 0
M  V30 64 N 7.3905 -1.2043 1.01659 0
M  V30 65 C 8.3205 -2.25466 0.607226 0
M  V30 66 C 9.3015 -1.65853 -0.377716 0
M  V30 67 O 10.4865 -1.92409 -0.263149 0
M  V30 68 C 7.6165 -3.47256 -0.0552949 0
M  V30 69 C 6.5705 -4.19462 0.850632 0
M  V30 70 C 5.8965 -5.34673 0.0538859 0
M  V30 71 C 7.1965 -4.75603 2.15868 0
M  V30 72 H 8.8905 -2.59962 1.48526 0
M  V30 73 H 6.4365 -1.2496 0.715605 0
M  V30 74 H 8.3895 -4.19917 -0.353233 0
M  V30 75 H 7.1135 -3.11924 -0.968045 0
M  V30 76 H 5.7725 -3.48667 1.13257 0
M  V30 77 H 5.4205 -4.95585 -0.860514 0
M  V30 78 H 5.1205 -5.83913 0.657192 0
M  V30 79 H 6.6445 -6.10138 -0.237598 0
M  V30 80 H 8.0585 -5.40083 1.92311 0
M  V30 81 H 6.4555 -5.3528 2.71284 0
M  V30 82 H 7.5255 -3.94346 2.82169 0
M  V30 83 N 8.8686 -0.792821 -1.36206 0
M  V30 84 C 10.2796 -0.429513 -1.81692 0
M  V30 85 C 10.6306 1.04695 -1.65932 0
M  V30 86 O 9.7556 1.81256 -1.18218 0
M  V30 87 C 10.3506 -0.772831 -3.29868 0
M  V30 88 C 8.9096 -0.462307 -3.7355 0
M  V30 89 C 8.0566 -1.00569 -2.5842 0
M  V30 90 H 11.0076 -0.985672 -1.24379 0
M  V30 91 H 11.0286 -0.0651928 -3.80444 0
M  V30 92 H 10.5406 -1.84747 -3.41307 0
M  V30 93 H 8.6416 0.604158 -3.67669 0
M  V30 94 H 8.7546 -0.985299 -4.68859 0
M  V30 95 H 7.1186 -0.428734 -2.51066 0
M  V30 96 H 7.9016 -2.08616 -2.72643 0
M  V30 97 N 10.3467 1.47872 -0.545128 0
M  V30 98 C 11.7627 1.5829 -0.204032 0
M  V30 99 C 11.9627 1.54529 1.29317 0
M  V30 100 O 11.0187 1.44232 2.07252 0
M  V30 101 C 12.3317 2.89304 -0.819987 0
M  V30 102 C 13.8797 3.02864 -0.790105 0
M  V30 103 C 14.3547 4.3656 -1.38491 0
M  V30 104 N 15.8457 4.43165 -1.34755 0
M  V30 105 C 16.5807 5.45153 -1.77753 0
M  V30 106 N 16.0767 6.54016 -2.2855 0
M  V30 107 N 17.8697 5.36125 -1.68897 0
M  V30 108 H 10.0207 1.4856 -1.51802 0
M  V30 109 H 12.2837 0.706305 -0.632327 0
M  V30 110 H 11.9897 2.97757 -1.87173 0
M  V30 111 H 11.8637 3.75957 -0.305915 0
M  V30 112 H 14.2507 2.94014 0.252913 0
M  V30 113 H 14.3317 2.17782 -1.34181 0
M  V30 114 H 13.9757 4.46164 -2.42693 0
M  V30 115 H 13.9057 5.20353 -0.808754 0
M  V30 116 H 16.3967 3.65083 -0.975855 0
M  V30 117 H 16.7097 7.27994 -2.59314 0
M  V30 118 H 15.0547 6.54938 -2.32553 0
M  V30 119 H 18.2457 4.49975 -1.28998 0
M  V30 120 H 18.4187 6.15472 -2.02726 0
M  V30 121 N 11.8248 0.280983 1.55075 0
M  V30 122 C 13.0718 -0.334115 1.99725 0
M  V30 123 C 13.3998 -1.5542 1.1694 0
M  V30 124 O 12.6548 -1.94361 0.228531 0
M  V30 125 C 12.9538 -0.754656 3.49342 0
M  V30 126 C 12.6198 0.361445 4.49449 0
M  V30 127 C 11.2818 0.667893 4.76542 0
M  V30 128 C 13.6338 1.11322 5.09173 0
M  V30 129 C 10.9618 1.7296 5.60626 0
M  V30 130 C 13.3138 2.1647 5.9441 0
M  V30 131 C 11.9778 2.47742 6.19822 0
M  V30 132 H 11.2478 -0.122261 0.730844 0
M  V30 133 H 13.8948 0.395917 1.87363 0
M  V30 134 H 12.1998 -1.56446 3.5921 0
M  V30 135 H 13.8968 -1.24142 3.813 0
M  V30 136 H 10.4868 0.112481 4.28452 0
M  V30 137 H 14.6708 0.88973 4.8826 0
M  V30 138 H 9.9268 1.97684 5.78559 0
M  V30 139 H 14.1008 2.75193 6.3972 0
M  V30 140 H 11.7278 3.30145 6.84769 0
M  V30 141 N 13.3029 -1.57598 0.00835791 0
M  V30 142 C 14.5799 -1.82172 -0.712235 0
M  V30 143 C 14.9599 -0.887873 -1.9152 0
M  V30 144 O 14.3079 0.06146 -2.28417 0
M  V30 145 C 14.5179 -3.30875 -1.11008 0
M  V30 146 C 15.8659 -3.96826 -1.51044 0
M  V30 147 O 16.8899 -3.35248 -1.20364 0
M  V30 148 O 15.7489 -5.05318 -2.08125 0
M  V30 149 H 12.8429 -0.750435 -0.347529 0
M  V30 150 H 15.3889 -1.69665 0.0344523 0
M  V30 151 H 14.1609 -3.90481 -0.252982 0
M  V30 152 H 13.7839 -3.48412 -1.9156 0
M  V30 153 N 14.781 0.264519 -1.55364 0
M  V30 154 C 15.711 1.33121 -1.91836 0
M  V30 155 C 16.692 1.51101 -0.781192 0
M  V30 156 O 17.877 1.64003 -1.04003 0
M  V30 157 C 15.007 2.68921 -2.19769 0
M  V30 158 C 13.961 2.65661 -3.35571 0
M  V30 159 C 13.287 4.05093 -3.49004 0
M  V30 160 C 14.587 2.24187 -4.71739 0
M  V30 161 H 16.281 1.02844 -2.81182 0
M  V30 162 H 13.827 0.493286 -1.35287 0
M  V30 163 H 15.78 3.43663 -2.43872 0
M  V30 164 H 14.504 3.00799 -1.27231 0
M  V30 165 H 13.163 1.93377 -3.1145 0
M  V30 166 H 12.811 4.34206 -2.53917 0
M  V30 167 H 12.511 4.03804 -4.26868 0
M  V30 168 H 14.035 4.81561 -3.75408 0
M  V30 169 H 15.449 2.88654 -4.9533 0
M  V30 170 H 13.846 2.34044 -5.52579 0
M  V30 171 H 14.916 1.19327 -4.69988 0
M  V30 172 N 16.2591 1.48442 0.529413 0
M  V30 173 C 17.1921 1.57577 1.65059 0
M  V30 174 C 18.1701 0.426198 1.56915 0
M  V30 175 O 19.3541 0.637877 1.77379 0
M  V30 176 C 16.4811 1.5043 3.03461 0
M  V30 177 C 15.5271 2.70235 3.29962 0
M  V30 178 S 16.3601 4.32198 3.16172 0
M  V30 179 C 17.5161 4.2765 4.57019 0
M  V30 180 H 17.7491 2.52427 1.5706 0
M  V30 181 H 15.2821 1.36982 0.712417 0
M  V30 182 H 17.2401 1.46992 3.8328 0
M  V30 183 H 15.9011 0.569167 3.089 0
M  V30 184 H 15.0941 2.61374 4.30929 0
M  V30 185 H 14.6961 2.70938 2.57815 0
M  V30 186 H 16.9881 3.97618 5.48549 0
M  V30 187 H 17.9311 5.28797 4.70934 0
M  V30 188 H 18.3391 3.5811 4.36368 0
M  V30 189 N 17.7372 -0.778329 1.37039 0
M  V30 190 C 18.9852 -1.53361 1.31623 0
M  V30 191 C 19.3062 -1.94739 -0.100831 0
M  V30 192 O 18.5762 -1.65797 -1.04347 0
M  V30 193 H 17.1562 -0.568794 0.484234 0
M  V30 194 H 19.8182 -0.926742 1.71457 0
M  V30 195 H 18.9142 -2.43606 1.95096 0
M  V30 196 N 19.2153 -1.21501 -1.00376 0
M  V30 197 C 20.4613 -1.04457 -1.74529 0
M  V30 198 C 20.8163 0.417386 -1.87818 0
M  V30 199 O 20.1093 1.30556 -1.40234 0
M  V30 200 C 20.3033 -1.67673 -3.15627 0
M  V30 201 C 20.1323 -3.19865 -3.16096 0
M  V30 202 C 18.9023 -3.88915 -3.22604 0
M  V30 203 C 21.1003 -4.16936 -3.01112 0
M  V30 204 N 19.0823 -5.28284 -3.12712 0
M  V30 205 C 20.4533 -5.43066 -2.99131 0
M  V30 206 C 22.5083 -4.07968 -2.85423 0
M  V30 207 C 21.2113 -6.6126 -2.83068 0
M  V30 208 C 23.2373 -5.258 -2.70718 0
M  V30 209 C 22.5993 -6.50842 -2.69414 0
M  V30 210 H 18.6983 -0.436584 -0.648782 0
M  V30 211 H 21.2823 -1.53875 -1.19293 0
M  V30 212 H 19.4533 -1.20822 -3.6913 0
M  V30 213 H 21.1853 -1.43824 -3.78281 0
M  V30 214 H 17.9403 -3.39847 -3.2985 0
M  V30 215 H 18.3643 -6.01284 -3.11105 0
M  V30 216 H 23.0063 -3.1209 -2.85236 0
M  V30 217 H 20.7243 -7.57298 -2.82002 0
M  V30 218 H 24.3103 -5.20683 -2.59577 0
M  V30 219 H 23.1903 -7.40485 -2.5817 0
M  V30 220 N 20.6934 1.19889 -1.02296 0
M  V30 221 C 21.9704 1.85148 -0.630832 0
M  V30 222 C 22.3504 1.91385 0.890782 0
M  V30 223 O 21.6984 1.42642 1.78509 0
M  V30 224 C 21.9084 3.24442 -1.28602 0
M  V30 225 C 23.2564 4.00663 -1.4055 0
M  V30 226 O 24.2804 3.33818 -1.24273 0
M  V30 227 O 23.1394 5.20387 -1.66913 0
M  V30 228 H 20.2334 0.797613 -0.218499 0
M  V30 229 H 22.7794 1.27427 -1.12074 0
M  V30 230 H 21.5514 3.14704 -2.32545 0
M  V30 231 H 21.1744 3.89802 -0.7836 0
M  V30 232 N 22.1715 0.800033 1.35784 0
M  V30 233 C 23.1185 0.203848 2.29898 0
M  V30 234 C 24.0885 -0.658375 1.52495 0
M  V30 235 O 25.2735 -0.604832 1.8096 0
M  V30 236 C 22.4135 -0.64688 3.38983 0
M  V30 237 C 21.5265 0.235054 4.3136 0
M  V30 238 C 20.6615 -0.623054 5.27533 0
M  V30 239 C 19.7005 0.259682 6.11549 0
M  V30 240 N 18.8375 -0.558019 6.99879 0
M  V30 241 H 23.6775 1.01186 2.80295 0
M  V30 242 H 21.2145 0.51053 1.37957 0
M  V30 243 H 23.1725 -1.15521 4.00887 0
M  V30 244 H 21.8025 -1.42021 2.89879 0
M  V30 245 H 20.8545 0.861438 3.70518 0
M  V30 246 H 22.1665 0.914768 4.9034 0
M  V30 247 H 21.3205 -1.19678 5.94779 0
M  V30 248 H 20.0595 -1.33636 4.69034 0
M  V30 249 H 19.0645 0.845726 5.43256 0
M  V30 250 H 20.2895 0.970748 6.72126 0
M  V30 251 H 18.2355 -1.25542 6.43875 0
M  V30 252 H 18.1525 0.0637872 7.55973 0
M  V30 253 H 19.4205 -1.11523 7.71481 0
M  V30 254 N 23.6496 -1.47581 0.552962 0
M  V30 255 C 24.5966 -2.29957 -0.197108 0
M  V30 256 C 25.5666 -1.38799 -0.912359 0
M  V30 257 O 26.7516 -1.67761 -0.908888 0
M  V30 258 C 23.8916 -3.22672 -1.22379 0
M  V30 259 C 23.0046 -4.28919 -0.515038 0
M  V30 260 C 22.1396 -5.0879 -1.52664 0
M  V30 261 C 21.1786 -6.06815 -0.802631 0
M  V30 262 N 20.3156 -6.7966 -1.76086 0
M  V30 263 H 25.1556 -2.93578 0.511486 0
M  V30 264 H 22.6926 -1.4471 0.264067 0
M  V30 265 H 24.6506 -3.74845 -1.83159 0
M  V30 266 H 23.2806 -2.60925 -1.90047 0
M  V30 267 H 22.3326 -3.79835 0.207192 0
M  V30 268 H 23.6446 -4.98773 0.0523425 0
M  V30 269 H 22.7986 -5.65091 -2.20809 0
M  V30 270 H 21.5376 -4.38828 -2.12794 0
M  V30 271 H 20.5426 -5.49695 -0.107238 0
M  V30 272 H 21.7676 -6.78784 -0.207135 0
M  V30 273 H 19.7136 -6.12432 -2.35081 0
M  V30 274 H 19.6306 -7.45669 -1.24552 0
M  V30 275 H 20.8986 -7.40538 -2.43359 0
M  V30 276 N 25.1277 -0.289203 -1.54924 0
M  V30 277 C 26.4047 0.376032 -1.91951 0
M  V30 278 C 26.7847 1.72622 -1.21511 0
M  V30 279 O 26.1327 2.25853 -0.346767 0
M  V30 280 C 26.3427 0.502378 -3.45365 0
M  V30 281 C 27.6907 0.778741 -4.17398 0
M  V30 282 O 28.7147 0.586647 -3.51336 0
M  V30 283 O 27.5737 1.14698 -5.34328 0
M  V30 284 H 24.6677 0.208167 -0.800372 0
M  V30 285 H 27.2137 -0.336394 -1.66332 0
M  V30 286 H 25.9857 -0.447255 -3.88736 0
M  V30 287 H 25.6087 1.26373 -3.76982 0
M  V30 288 N 26.6058 1.57591 -0.0167156 0
M  V30 289 C 27.8548 1.90461 0.663877 0
M  V30 290 C 28.1678 0.893515 1.73999 0
M  V30 291 O 29.3738 1.11302 2.47637 0
M  V30 292 C 27.8298 3.38155 1.23204 0
M  V30 293 C 27.4378 4.47597 0.189866 0
M  V30 294 C 29.1818 3.80111 1.88986 0
M  V30 295 C 27.0888 5.86379 0.768964 0
M  V30 296 H 26.0188 0.710738 0.251729 0
M  V30 297 H 28.6698 1.83326 -0.0799926 0
M  V30 298 H 27.0518 3.40182 2.02712 0
M  V30 299 H 28.2258 4.57112 -0.581846 0
M  V30 300 H 26.5408 4.14766 -0.368475 0
M  V30 301 H 29.1378 4.81145 2.33247 0
M  V30 302 H 29.4808 3.14511 2.72743 0
M  V30 303 H 30.0138 3.80454 1.16187 0
M  V30 304 H 26.7528 6.55493 -0.0301957 0
M  V30 305 H 26.2728 5.80496 1.50945 0
M  V30 306 H 27.9518 6.34563 1.26251 0
M  V30 307 N 28.0839 -0.256276 1.55502 0
M  V30 308 C 29.0469 -1.30047 1.88734 0
M  V30 309 C 30.0469 -1.4154 0.763086 0
M  V30 310 O 31.2369 -1.40403 1.03115 0
M  V30 311 C 28.3689 -2.67953 2.10747 0
M  V30 312 H 29.5619 -1.01802 2.82093 0
M  V30 313 H 27.1149 -0.495134 1.4825 0
M  V30 314 H 27.8499 -3.01351 1.19825 0
M  V30 315 H 27.6349 -2.60993 2.92617 0
M  V30 316 H 29.1249 -3.43368 2.37673 0
M  V30 317 N 29.562 -1.4872 -0.521534 0
M  V30 318 C 30.839 -1.4766 -1.2828 0
M  V30 319 C 31.219 -0.19292 -2.10217 0
M  V30 320 O 30.567 0.825193 -2.13079 0
M  V30 321 C 30.777 -2.74358 -2.15705 0
M  V30 322 C 32.125 -3.23028 -2.75569 0
M  V30 323 O 33.149 -2.75333 -2.25987 0
M  V30 324 O 32.008 -4.0604 -3.65778 0
M  V30 325 H 29.102 -0.590085 -0.579421 0
M  V30 326 H 31.648 -1.60963 -0.537492 0
M  V30 327 H 30.42 -3.59292 -1.54999 0
M  V30 328 H 30.043 -2.63816 -2.97467 0
M  V30 329 N 31.0401 0.771051 -1.3745 0
M  V30 330 C 32.4511 1.34737 -1.29239 0
M  V30 331 C 32.8021 1.96109 0.0596908 0
M  V30 332 O 31.9271 1.93865 0.961534 0
M  V30 333 C 32.5221 2.44973 -2.34037 0
M  V30 334 C 31.0811 2.98372 -2.29458 0
M  V30 335 C 30.2281 1.71595 -2.17831 0
M  V30 336 H 33.1791 0.571256 -1.48062 0
M  V30 337 H 33.2001 3.24471 -1.98744 0
M  V30 338 H 32.7121 2.00276 -3.32432 0
M  V30 339 H 30.8131 3.47443 -1.34589 0
M  V30 340 H 30.9261 3.53939 -3.229 0
M  V30 341 H 29.2901 1.94547 -1.64388 0
M  V30 342 H 30.0731 1.29001 -3.18141 0
M  V30 343 N 32.5182 1.22032 0.997298 0
M  V30 344 C 33.7482 1.06686 1.76923 0
M  V30 345 C 34.1562 -0.385838 1.85224 0
M  V30 346 O 33.4992 -1.27929 1.31833 0
M  V30 347 C 33.5612 1.59802 3.22031 0
M  V30 348 C 33.2252 3.08362 3.37286 0
M  V30 349 C 34.2222 4.05835 3.24952 0
M  V30 350 C 31.9072 3.47727 3.6248 0
M  V30 351 C 33.9012 5.4066 3.37588 0
M  V30 352 C 31.5882 4.82701 3.74757 0
M  V30 353 C 32.5862 5.78977 3.62319 0
M  V30 354 O 32.2742 7.11502 3.74193 0
M  V30 355 H 32.0062 0.374767 0.562606 0
M  V30 356 H 34.5602 1.61991 1.26286 0
M  V30 357 H 32.7902 0.989003 3.73839 0
M  V30 358 H 34.4792 1.40184 3.80924 0
M  V30 359 H 35.2452 3.76766 3.05405 0
M  V30 360 H 31.1242 2.73317 3.7124 0
M  V30 361 H 34.6682 6.15788 3.27796 0
M  V30 362 H 30.5652 5.11453 3.9381 0
M  V30 363 H 31.3332 7.19019 3.91093 0
M  V30 364 N 33.9963 -1.19345 1.0293 0
M  V30 365 C 35.4073 -1.70725 0.755633 0
M  V30 366 C 35.7583 -1.82326 -0.724676 0
M  V30 367 O 34.8833 -1.49471 -1.56484 0
M  V30 368 C 35.4783 -3.10084 1.36503 0
M  V30 369 C 34.0373 -3.58723 1.13994 0
M  V30 370 C 33.1843 -2.35577 1.46283 0
M  V30 371 H 36.1353 -1.0418 1.19718 0
M  V30 372 H 36.1563 -3.72787 0.762217 0
M  V30 373 H 35.6683 -3.01609 2.44241 0
M  V30 374 H 33.7693 -3.72512 0.0807901 0
M  V30 375 H 33.8823 -4.42816 1.82894 0
M  V30 376 H 32.2463 -2.38935 0.88217 0
M  V30 377 H 33.0293 -2.29731 2.55105 0
M  V30 378 N 35.4744 -0.807222 -1.35358 0
M  V30 379 C 36.7204 -0.388463 -1.99045 0
M  V30 380 C 37.0534 1.04184 -1.63888 0
M  V30 381 O 36.3284 1.72292 -0.902535 0
M  V30 382 C 36.6114 -0.572783 -3.55515 0
M  V30 383 C 36.4644 -2.04807 -4.00468 0
M  V30 384 C 37.7834 0.00114064 -4.401 0
M  V30 385 H 34.9024 -0.142619 -0.723069 0
M  V30 386 H 37.5444 -1.01687 -1.60498 0
M  V30 387 H 35.6944 -0.0378425 -3.88482 0
M  V30 388 H 37.3664 -2.64544 -3.77908 0
M  V30 389 H 35.6094 -2.54427 -3.51353 0
M  V30 390 H 36.2804 -2.12792 -5.09337 0
M  V30 391 H 38.7564 -0.455716 -4.13597 0
M  V30 392 H 37.6324 -0.157737 -5.48673 0
M  V30 393 H 37.8934 1.09488 -4.28328 0
M  V30 394 N 36.9525 1.47285 -0.560781 0
M  V30 395 C 38.1825 2.06555 -0.0429638 0
M  V30 396 C 38.5905 1.41339 1.25777 0
M  V30 397 O 37.9335 0.505182 1.76617 0
M  V30 398 C 37.9955 3.58827 0.219887 0
M  V30 399 C 37.6595 4.46105 -0.991944 0
M  V30 400 C 38.6565 4.84 -1.89843 0
M  V30 401 C 36.3415 4.87567 -1.20762 0
M  V30 402 C 38.3355 5.6216 -3.00425 0
M  V30 403 C 36.0225 5.65491 -2.31653 0
M  V30 404 C 37.0205 6.02699 -3.21315 0
M  V30 405 O 36.7085 6.79052 -4.30283 0
M  V30 406 H 36.4405 0.674537 -0.0444468 0
M  V30 407 H 38.9945 1.90225 -0.774818 0
M  V30 408 H 37.2245 3.73383 1.00609 0
M  V30 409 H 38.9135 4.00103 0.683522 0
M  V30 410 H 39.6795 4.52564 -1.74387 0
M  V30 411 H 35.5585 4.5807 -0.518893 0
M  V30 412 H 39.1025 5.9112 -3.70436 0
M  V30 413 H 34.9995 5.9634 -2.47081 0
M  V30 414 H 35.7675 6.9745 -4.28376 0
M  V30 415 N 38.4306 0.297415 1.54768 0
M  V30 416 C 39.8466 -0.0560823 1.59501 0
M  V30 417 C 40.0466 -1.52725 1.31444 0
M  V30 418 O 39.1026 -2.27947 1.08611 0
M  V30 419 C 40.4156 0.338631 2.98787 0
M  V30 420 C 41.9636 0.287097 3.11681 0
M  V30 421 C 42.4386 0.656579 4.53269 0
M  V30 422 N 43.9296 0.608977 4.59179 0
M  V30 423 C 44.6646 0.867385 5.66802 0
M  V30 424 N 44.1606 1.19157 6.82476 0
M  V30 425 N 45.9536 0.794687 5.56454 0
M  V30 426 H 38.1046 1.25624 1.71267 0
M  V30 427 H 40.3676 0.509057 0.799728 0
M  V30 428 H 40.0736 1.36263 3.2423 0
M  V30 429 H 39.9476 -0.309508 3.75928 0
M  V30 430 H 42.3346 -0.727649 2.85988 0
M  V30 431 H 42.4156 0.969809 2.36703 0
M  V30 432 H 42.0596 1.66912 4.7969 0
M  V30 433 H 41.9896 -0.0481649 5.26578 0
M  V30 434 H 44.4806 0.369198 3.76092 0
M  V30 435 H 44.7936 1.37482 7.60473 0
M  V30 436 H 43.1386 1.22958 6.84037 0
M  V30 437 H 46.3296 0.541098 4.64962 0
M  V30 438 H 46.5026 0.999445 6.40246 0
M  V30 439 N 39.9087 -1.5758 0.0250728 0
M  V30 440 C 41.3247 -1.56124 -0.331282 0
M  V30 441 C 41.5247 -1.03029 -1.73169 0
M  V30 442 O 40.5807 -0.675215 -2.43305 0
M  V30 443 C 41.8937 -3.00139 -0.183584 0
M  V30 444 C 43.4417 -3.11946 -0.256654 0
M  V30 445 C 43.9167 -4.57793 -0.137792 0
M  V30 446 N 45.4077 -4.6279 -0.194904 0
M  V30 447 C 46.1427 -5.7326 -0.126655 0
M  V30 448 N 45.6387 -6.928 -0.00755288 0
M  V30 449 N 47.4317 -5.61811 -0.180348 0
M  V30 450 H 39.5827 -1.90424 0.94087 0
M  V30 451 H 41.8457 -0.875761 0.362968 0
M  V30 452 H 41.5517 -3.4292 0.780927 0
M  V30 453 H 41.4257 -3.64899 -0.955448 0
M  V30 454 H 43.8127 -2.69079 -1.21162 0
M  V30 455 H 43.8937 -2.49915 0.545517 0
M  V30 456 H 43.5377 -5.01339 0.813739 0
M  V30 457 H 43.4677 -5.17798 -0.958775 0
M  V30 458 H 45.9587 -3.76807 -0.287267 0
M  V30 459 H 46.2717 -7.72791 0.0379428 0
M  V30 460 H 44.6167 -6.94995 0.0271731 0
M  V30 461 H 47.8077 -4.6731 -0.271767 0
M  V30 462 H 47.9807 -6.47882 -0.123697 0
M  V30 463 N 41.3868 0.248026 -1.55636 0
M  V30 464 C 42.6168 0.992367 -1.81206 0
M  V30 465 C 43.0248 1.7949 -0.598324 0
M  V30 466 O 42.3678 1.78292 0.442434 0
M  V30 467 C 42.4298 1.97926 -3.00109 0
M  V30 468 C 42.0938 1.36377 -4.36177 0
M  V30 469 C 43.0908 0.76682 -5.14214 0
M  V30 470 C 40.7758 1.38347 -4.82872 0
M  V30 471 C 42.7698 0.197778 -6.37093 0
M  V30 472 C 40.4568 0.810574 -6.057 0
M  V30 473 C 41.4548 0.218754 -6.8265 0
M  V30 474 O 41.1428 -0.345298 -8.03158 0
M  V30 475 H 40.8748 0.297704 -0.606917 0
M  V30 476 H 43.4288 0.276517 -2.0353 0
M  V30 477 H 41.6588 2.73339 -2.73538 0
M  V30 478 H 43.3478 2.58694 -3.12781 0
M  V30 479 H 44.1138 0.744114 -4.79258 0
M  V30 480 H 39.9928 1.8335 -4.2297 0
M  V30 481 H 43.5368 -0.264788 -6.97097 0
M  V30 482 H 39.4338 0.830604 -6.40134 0
M  V30 483 H 40.2018 -0.237055 -8.18157 0
M  V30 484 N 42.8649 1.48995 0.513639 0
M  V30 485 C 44.2809 1.35478 0.843682 0
M  V30 486 C 44.4809 0.378213 1.97919 0
M  V30 487 O 43.5369 -0.194689 2.51748 0
M  V30 488 C 44.8499 2.75901 1.1958 0
M  V30 489 C 46.3979 2.84509 1.30474 0
M  V30 490 C 46.8729 4.25671 1.69021 0
M  V30 491 N 48.3639 4.28422 1.76094 0
M  V30 492 C 49.0989 5.34601 2.07338 0
M  V30 493 N 48.5949 6.5104 2.36894 0
M  V30 494 N 50.3879 5.22007 2.08483 0
M  V30 495 H 42.5389 2.11092 -0.235328 0
M  V30 496 H 44.8019 0.947039 -0.0426669 0
M  V30 497 H 44.5079 3.49001 0.434913 0
M  V30 498 H 44.3819 3.10467 2.1422 0
M  V30 499 H 46.7689 2.11655 2.05637 0
M  V30 500 H 46.8499 2.53542 0.339155 0
M  V30 501 H 46.4939 4.99048 0.944135 0
M  V30 502 H 46.4239 4.54094 2.66658 0
M  V30 503 H 48.9149 3.44441 1.55464 0
M  V30 504 H 49.2279 7.2779 2.59887 0
M  V30 505 H 47.5729 6.54287 2.34378 0
M  V30 506 H 50.7639 4.30051 1.84861 0
M  V30 507 H 50.9369 6.04854 2.325 0
M  V30 508 N 44.343 -0.763751 1.37857 0
M  V30 509 C 45.253 -1.90817 1.36478 0
M  V30 510 C 46.269 -1.71997 0.263248 0
M  V30 511 O 47.445 -1.95095 0.499979 0
M  V30 512 C 44.51 -3.2605 1.17864 0
M  V30 513 C 43.571 -3.57467 2.3773 0
M  V30 514 C 42.804 -4.86249 2.19995 0
M  V30 515 O 43.027 -5.57884 1.18836 0
M  V30 516 O 41.961 -5.16911 3.08361 0
M  V30 517 H 45.787 -1.94933 2.32884 0
M  V30 518 H 43.372 -0.907619 1.1867 0
M  V30 519 H 45.254 -4.06924 1.09504 0
M  V30 520 H 43.929 -3.22769 0.245372 0
M  V30 521 H 42.836 -2.76796 2.51664 0
M  V30 522 H 44.169 -3.655 3.29652 0
M  V30 523 N 45.8211 -1.22559 -0.990812 0
M  V30 524 C 46.7841 -0.998863 -2.0629 0
M  V30 525 C 47.7841 0.0354834 -1.60761 0
M  V30 526 O 48.9741 -0.203231 -1.7301 0
M  V30 527 C 46.1061 -0.509203 -3.37076 0
M  V30 528 H 47.2991 -1.95014 -2.27837 0
M  V30 529 H 44.8521 -1.04456 -1.16269 0
M  V30 530 H 45.5871 0.446335 -3.21214 0
M  V30 531 H 45.3721 -1.25547 -3.71457 0
M  V30 532 H 46.8621 -0.370888 -4.1595 0
M  V30 533 N 47.2992 1.18797 -1.03562 0
M  V30 534 C 48.2622 2.20464 -0.626769 0
M  V30 535 C 49.2622 1.57721 0.313173 0
M  V30 536 O 50.4522 1.73917 0.0992615 0
M  V30 537 C 47.5842 3.40802 0.0818498 0
M  V30 538 H 48.7772 2.58149 -1.5264 0
M  V30 539 H 46.3302 1.32593 -0.827578 0
M  V30 540 H 47.0652 3.08642 0.995518 0
M  V30 541 H 46.8502 3.8758 -0.593652 0
M  V30 542 H 48.3402 4.16092 0.354584 0
M  V30 543 N 48.7773 0.814389 1.34928 0
M  V30 544 C 50.1883 0.458364 1.80986 0
M  V30 545 C 50.5393 -1.02042 1.67577 0
M  V30 546 O 49.6643 -1.79352 1.21086 0
M  V30 547 C 50.2593 0.825212 3.28597 0
M  V30 548 C 48.8183 0.521677 3.72767 0
M  V30 549 C 47.9653 1.04668 2.56788 0
M  V30 550 H 50.9163 1.00533 1.22795 0
M  V30 551 H 50.9373 0.12571 3.80292 0
M  V30 552 H 50.4493 1.90154 3.38324 0
M  V30 553 H 48.5503 -0.545589 3.68584 0
M  V30 554 H 48.6633 1.05977 4.67232 0
M  V30 555 H 47.0273 0.468622 2.50352 0
M  V30 556 H 47.8103 2.12927 2.6929 0
M  V30 557 N 50.2554 -1.46986 0.568584 0
M  V30 558 C 51.5014 -2.02741 0.0488709 0
M  V30 559 C 51.8344 -1.44077 -1.30214 0
M  V30 560 O 51.1094 -0.600552 -1.84996 0
M  V30 561 C 51.3924 -3.60086 -0.032047 0
M  V30 562 C 51.2454 -4.29162 1.34686 0
M  V30 563 C 52.5644 -4.33838 -0.739798 0
M  V30 564 H 49.6834 -0.736749 0.0192338 0
M  V30 565 H 52.3254 -1.75289 0.733065 0
M  V30 566 H 50.4754 -3.83606 -0.61473 0
M  V30 567 H 52.1474 -4.16948 1.97362 0
M  V30 568 H 50.3904 -3.89073 1.91846 0
M  V30 569 H 51.0614 -5.37826 1.24285 0
M  V30 570 H 53.5374 -4.15378 -0.244939 0
M  V30 571 H 52.4134 -5.43537 -0.765406 0
M  V30 572 H 52.6744 -4.03875 -1.79827 0
M  V30 573 N 51.7335 -0.305618 -1.54608 0
M  V30 574 C 52.6835 0.583595 -2.20405 0
M  V30 575 C 53.6675 1.09539 -1.17856 0
M  V30 576 O 54.8595 1.0354 -1.43557 0
M  V30 577 C 51.9885 1.75277 -2.95183 0
M  V30 578 C 51.0745 1.25672 -4.05052 0
M  V30 579 N 51.4655 0.478998 -5.03527 0
M  V30 580 C 49.7635 1.53704 -4.18678 0
M  V30 581 C 50.4645 0.214269 -5.81305 0
M  V30 582 N 49.4405 0.795374 -5.3775 0
M  V30 583 H 53.2425 -0.0180946 -2.93894 0
M  V30 584 H 50.7565 -0.110601 -1.62023 0
M  V30 585 H 52.7535 2.4014 -3.40791 0
M  V30 586 H 51.4135 2.35812 -2.23211 0
M  V30 587 H 52.4245 0.123473 -5.17753 0
M  V30 588 H 49.1015 2.14954 -3.57912 0
M  V30 589 H 50.4915 -0.410656 -6.70644 0
M  V30 590 N 53.2116 1.57565 -0.0334293 0
M  V30 591 C 54.6276 1.56297 0.322997 0
M  V30 592 C 54.8276 1.03945 1.7262 0
M  V30 593 O 53.8836 0.688109 2.42943 0
M  V30 594 C 55.1966 3.00232 0.167664 0
M  V30 595 C 56.7446 3.12078 0.240107 0
M  V30 596 C 57.2196 4.57859 0.113513 0
M  V30 597 N 58.7106 4.62887 0.170359 0
M  V30 598 C 59.4456 5.73319 0.0962517 0
M  V30 599 N 58.9416 6.92794 -0.0291881 0
M  V30 600 N 60.7346 5.61898 0.150551 0
M  V30 601 H 52.8856 1.89923 -0.950956 0
M  V30 602 H 55.1486 0.873824 -0.367608 0
M  V30 603 H 54.8546 3.42501 -0.799102 0
M  V30 604 H 54.7286 3.654 0.936083 0
M  V30 605 H 57.1156 2.69718 1.19733 0
M  V30 606 H 57.1966 2.49623 -0.558763 0
M  V30 607 H 56.8406 5.009 -0.840314 0
M  V30 608 H 56.7706 5.18299 0.931302 0
M  V30 609 H 59.2616 3.76954 0.26728 0
M  V30 610 H 59.5746 7.7276 -0.0789252 0
M  V30 611 H 57.9196 6.94971 -0.0640299 0
M  V30 612 H 61.1106 4.67448 0.246981 0
M  V30 613 H 61.2836 6.47938 0.0893365 0
M  V30 614 N 54.6897 -0.239769 1.55765 0
M  V30 615 C 55.9177 -0.98417 1.81994 0
M  V30 616 C 56.3327 -1.7867 0.610124 0
M  V30 617 O 55.6897 -1.77571 -0.421271 0
M  V30 618 C 55.7407 -1.91635 3.06526 0
M  V30 619 O 55.4617 -1.14629 4.22838 0
M  V30 620 C 56.9627 -2.77616 3.45607 0
M  V30 621 H 54.1827 -0.28928 0.605441 0
M  V30 622 H 56.7267 -0.260499 2.02834 0
M  V30 623 H 54.8817 -2.5942 2.87715 0
M  V30 624 H 55.2957 -1.77745 4.93464 0
M  V30 625 H 56.7697 -3.38759 4.35828 0
M  V30 626 H 57.2467 -3.4909 2.6652 0
M  V30 627 H 57.8527 -2.15271 3.66795 0
M  V30 628 N 56.1678 -1.49265 -0.50573 0
M  V30 629 C 57.1308 -1.65075 -1.59006 0
M  V30 630 C 58.1308 -0.522768 -1.52065 0
M  V30 631 O 59.3208 -0.789117 -1.55302 0
M  V30 632 C 56.4528 -1.64369 -2.98656 0
M  V30 633 H 57.6458 -2.61784 -1.46319 0
M  V30 634 H 55.1988 -1.38226 -0.729616 0
M  V30 635 H 55.9338 -0.692272 -3.16825 0
M  V30 636 H 55.7188 -2.46282 -3.05103 0
M  V30 637 H 57.2088 -1.78674 -3.77446 0
M  V30 638 N 57.6459 0.756429 -1.3826 0
M  V30 639 C 58.8709 1.55077 -1.37717 0
M  V30 640 C 59.2959 1.88073 0.03164 0
M  V30 641 O 58.6539 1.50364 1.01293 0
M  V30 642 C 58.7019 2.8283 -2.23695 0
M  V30 643 O 57.8059 3.77862 -1.6521 0
M  V30 644 H 57.1469 0.469152 -0.469885 0
M  V30 645 H 59.6769 0.935019 -1.81985 0
M  V30 646 H 59.6869 3.31783 -2.37453 0
M  V30 647 H 58.3619 2.58144 -3.2609 0
M  V30 648 H 56.9389 3.36555 -1.60578 0
M  V30 649 N 59.124 1.23083 0.984299 0
M  V30 650 C 60.372 1.05848 1.72165 0
M  V30 651 C 60.693 -0.406049 1.90726 0
M  V30 652 O 59.963 -1.29139 1.47309 0
M  V30 653 H 58.543 0.388685 0.637913 0
M  V30 654 H 61.205 1.54736 1.18503 0
M  V30 655 H 60.301 1.54327 2.71274 0
M  V30 656 N 60.6021 -1.18246 1.0419 0
M  V30 657 C 62.0131 -1.69914 0.773698 0
M  V30 658 C 62.3641 -1.83085 -0.705297 0
M  V30 659 O 61.4891 -1.51123 -1.5489 0
M  V30 660 C 62.0841 -3.08619 1.39784 0
M  V30 661 C 60.6431 -3.57494 1.17792 0
M  V30 662 C 59.7901 -2.34013 1.48773 0
M  V30 663 H 62.7411 -1.02904 1.20816 0
M  V30 664 H 62.7621 -3.71958 0.801714 0
M  V30 665 H 62.2741 -2.99001 2.47426 0
M  V30 666 H 60.3751 -3.72406 0.120295 0
M  V30 667 H 60.4881 -4.40852 1.87581 0
M  V30 668 H 58.8521 -2.37986 0.907463 0
M  V30 669 H 59.6351 -2.27013 2.57527 0
M  V30 670 N 62.0802 -0.821533 -1.34494 0
M  V30 671 C 63.3282 -0.408139 -1.97936 0
M  V30 672 C 63.6492 1.03193 -1.65457 0
M  V30 673 O 62.9192 1.71622 -0.944595 0
M  V30 674 H 61.4992 -0.147928 -0.732206 0
M  V30 675 H 64.1612 -1.05067 -1.64155 0
M  V30 676 H 63.2572 -0.52601 -3.07635 0
M  V30 677 N 63.5583 1.46682 -0.576371 0
M  V30 678 C 64.5053 2.30241 0.160499 0
M  V30 679 C 65.4753 1.40233 0.890162 0
M  V30 680 O 66.6603 1.69186 0.882084 0
M  V30 681 C 63.8003 3.24578 1.1723 0
M  V30 682 C 62.9133 4.29684 0.446736 0
M  V30 683 C 62.0483 5.11154 1.44551 0
M  V30 684 C 61.0873 6.08015 0.70599 0
M  V30 685 N 60.2243 6.82376 1.65251 0
M  V30 686 H 65.0643 2.92727 -0.558127 0
M  V30 687 H 62.6013 1.44272 -0.287056 0
M  V30 688 H 64.5593 3.77711 1.77172 0
M  V30 689 H 63.1893 2.63916 1.85872 0
M  V30 690 H 62.2413 3.79458 -0.267594 0
M  V30 691 H 63.5533 4.98626 -0.131686 0
M  V30 692 H 62.7073 5.68533 2.11791 0
M  V30 693 H 61.4463 4.42158 2.05786 0
M  V30 694 H 60.4513 5.49796 0.0197725 0
M  V30 695 H 61.6763 6.79028 0.09912 0
M  V30 696 H 59.6223 6.16094 2.25308 0
M  V30 697 H 59.5393 7.47556 1.12673 0
M  V30 698 H 60.8073 7.44316 2.31546 0
M  V30 699 N 65.0364 0.313813 1.54444 0
M  V30 700 C 66.4474 -0.176243 1.85866 0
M  V30 701 C 66.7984 -1.52405 1.23561 0
M  V30 702 O 65.9234 -2.09605 0.538016 0
M  V30 703 C 66.5184 -0.32657 3.37222 0
M  V30 704 C 65.0774 -0.760846 3.6863 0
M  V30 705 C 64.2244 0.123247 2.77026 0
M  V30 706 H 67.1754 0.534418 1.49431 0
M  V30 707 H 67.1964 -1.15908 3.62416 0
M  V30 708 H 66.7084 0.654531 3.82541 0
M  V30 709 H 64.8094 -1.75204 3.28838 0
M  V30 710 H 64.9224 -0.571353 4.75681 0
M  V30 711 H 63.2864 -0.399597 2.51546 0
M  V30 712 H 64.0694 1.10094 3.25168 0
M  V30 713 N 66.5145 -1.57545 0.0417849 0
M  V30 714 C 67.7915 -1.83642 -0.673433 0
M  V30 715 C 68.1715 -0.928298 -1.89594 0
M  V30 716 O 67.5195 0.0129955 -2.28496 0
M  V30 717 C 67.7295 -3.33155 -1.03964 0
M  V30 718 C 69.0775 -3.99941 -1.42592 0
M  V30 719 O 70.1015 -3.37725 -1.13226 0
M  V30 720 O 68.9605 -5.09619 -1.9736 0
M  V30 721 H 66.0545 -0.757638 -0.331533 0
M  V30 722 H 68.6005 -1.69554 0.070433 0
M  V30 723 H 67.3725 -3.9093 -0.170098 0
M  V30 724 H 66.9955 -3.52396 -1.84126 0
M  V30 725 N 67.9926 0.231505 -1.5589 0
M  V30 726 C 69.2206 0.974505 -1.82513 0
M  V30 727 C 69.6356 1.78344 -0.619591 0
M  V30 728 O 68.9926 1.77792 0.411848 0
M  V30 729 C 69.0436 1.90007 -3.07538 0
M  V30 730 O 68.7646 1.12385 -4.2344 0
M  V30 731 C 70.2656 2.75779 -3.47075 0
M  V30 732 H 67.4856 0.286065 -0.606966 0
M  V30 733 H 70.0296 0.249739 -2.02969 0
M  V30 734 H 68.1846 2.57891 -2.89086 0
M  V30 735 H 68.5986 1.75125 -4.944 0
M  V30 736 H 70.0726 3.36443 -4.37619 0
M  V30 737 H 70.5496 3.47672 -2.68367 0
M  V30 738 H 71.1556 2.13323 -3.67931 0
M  V30 739 N 69.4707 1.49531 0.497807 0
M  V30 740 C 70.7007 1.62657 1.27382 0
M  V30 741 C 71.1087 0.298488 1.86831 0
M  V30 742 O 70.4517 -0.72647 1.68725 0
M  V30 743 C 70.5137 2.6393 2.44093 0
M  V30 744 C 70.1777 4.08195 2.05489 0
M  V30 745 C 71.1747 4.949 1.59279 0
M  V30 746 C 68.8597 4.53948 2.15026 0
M  V30 747 C 70.8537 6.25397 1.23113 0
M  V30 748 C 68.5407 5.84458 1.78473 0
M  V30 749 C 69.5387 6.70006 1.32591 0
M  V30 750 O 69.2267 7.98083 0.965327 0
M  V30 751 H 68.9587 0.550429 0.392434 0
M  V30 752 H 71.5127 1.96325 0.603801 0
M  V30 753 H 69.7427 2.25449 3.14181 0
M  V30 754 H 71.4317 2.66552 3.06113 0
M  V30 755 H 72.1977 4.60779 1.51354 0
M  V30 756 H 68.0767 3.87525 2.4969 0
M  V30 757 H 71.6207 6.92125 0.872299 0
M  V30 758 H 67.5177 6.18107 1.86048 0
M  V30 759 H 68.2857 8.11122 1.09652 0
M  V30 760 N 70.9488 -0.749086 1.3866 0
M  V30 761 C 72.1788 -1.53611 1.38157 0
M  V30 762 C 72.5868 -1.89177 -0.0293595 0
M  V30 763 O 71.9298 -1.53606 -1.00752 0
M  V30 764 C 71.9918 -2.86087 2.17702 0
M  V30 765 C 71.6558 -2.73034 3.66472 0
M  V30 766 C 72.6528 -2.42526 4.59866 0
M  V30 767 C 70.3378 -2.90345 4.09884 0
M  V30 768 C 72.3318 -2.29492 5.94653 0
M  V30 769 C 70.0188 -2.7693 5.4475 0
M  V30 770 C 71.0168 -2.46547 6.36949 0
M  V30 771 O 70.7048 -2.33199 7.69333 0
M  V30 772 H 70.4368 -0.481773 0.474205 0
M  V30 773 H 72.9908 -0.934465 1.82912 0
M  V30 774 H 71.2208 -3.48458 1.67672 0
M  V30 775 H 72.9098 -3.47625 2.09551 0
M  V30 776 H 73.6758 -2.28816 4.27631 0
M  V30 777 H 69.5548 -3.1299 3.38464 0
M  V30 778 H 73.0988 -2.05698 6.66584 0
M  V30 779 H 68.9958 -2.90215 5.76581 0
M  V30 780 H 69.7638 -2.48376 7.79905 0
M  V30 781 N 72.4269 -1.23603 -0.977757 0
M  V30 782 C 73.6729 -1.07129 -1.72195 0
M  V30 783 C 74.0059 0.390501 -1.90233 0
M  V30 784 O 73.2809 1.28902 -1.45653 0
M  V30 785 C 73.5639 -1.80031 -3.11867 0
M  V30 786 C 73.4169 -3.33899 -3.01383 0
M  V30 787 C 74.7359 -1.56492 -4.11337 0
M  V30 788 H 71.8549 -0.390571 -0.624999 0
M  V30 789 H 74.4969 -1.52142 -1.13811 0
M  V30 790 H 72.6469 -1.41768 -3.6171 0
M  V30 791 H 74.3189 -3.81699 -2.59043 0
M  V30 792 H 72.5619 -3.62796 -2.37827 0
M  V30 793 H 73.2329 -3.801 -4.00285 0
M  V30 794 H 75.7089 -1.89757 -3.70313 0
M  V30 795 H 74.5849 -2.09973 -5.07151 0
M  V30 796 H 74.8459 -0.500874 -4.39254 0
M  V30 797 N 73.905 1.17692 -1.04816 0
M  V30 798 C 75.152 1.87859 -0.75599 0
M  V30 799 C 75.48 1.80812 0.716752 0
M  V30 800 O 74.735 1.20819 1.53952 0
M  V30 801 C 75.034 3.37462 -1.17703 0
M  V30 802 C 74.7 3.64713 -2.65133 0
M  V30 803 C 73.362 3.71859 -3.05408 0
M  V30 804 C 75.714 3.76492 -3.60421 0
M  V30 805 C 73.042 3.88271 -4.39843 0
M  V30 806 C 75.394 3.94421 -4.94585 0
M  V30 807 C 74.058 3.99806 -5.3452 0
M  V30 808 H 73.328 0.687425 -0.276636 0
M  V30 809 H 75.975 1.39255 -1.31455 0
M  V30 810 H 74.28 3.88097 -0.537395 0
M  V30 811 H 75.977 3.90109 -0.928218 0
M  V30 812 H 72.567 3.59772 -2.32942 0
M  V30 813 H 76.751 3.70295 -3.30447 0
M  V30 814 H 72.007 3.90687 -4.70291 0
M  V30 815 H 76.181 4.02477 -5.68318 0
M  V30 816 H 73.808 4.12276 -6.38696 0
M  V30 817 N 75.3831 0.828654 1.34056 0
M  V30 818 C 76.6111 0.43262 2.02326 0
M  V30 819 C 77.0261 -0.963147 1.62385 0
M  V30 820 O 76.3831 -1.62425 0.832121 0
M  V30 821 C 76.4341 0.53182 3.57567 0
M  V30 822 O 76.1551 1.87258 3.96063 0
M  V30 823 C 77.6561 0.131422 4.43105 0
M  V30 824 H 74.8761 0.172923 0.648335 0
M  V30 825 H 77.4201 1.1184 1.71208 0
M  V30 826 H 75.5751 -0.105938 3.87255 0
M  V30 827 H 75.9891 1.85087 4.90758 0
M  V30 828 H 77.4631 0.251904 5.51425 0
M  V30 829 H 77.9401 -0.925645 4.29335 0
M  V30 830 H 78.5461 0.743207 4.18756 0
M  V30 831 N 76.8612 -1.46375 0.584142 0
M  V30 832 C 78.0912 -2.06461 0.0758195 0
M  V30 833 C 78.4992 -1.43322 -1.23512 0
M  V30 834 O 77.8422 -0.533216 -1.75791 0
M  V30 835 C 77.9042 -3.59131 -0.162773 0
M  V30 836 C 77.5682 -4.4447 1.06279 0
M  V30 837 C 78.5652 -4.80918 1.97519 0
M  V30 838 C 76.2502 -4.85584 1.28504 0
M  V30 839 C 78.2442 -5.57309 3.09331 0
M  V30 840 C 75.9312 -5.61734 2.4062 0
M  V30 841 C 76.9292 -5.9751 3.30863 0
M  V30 842 O 76.6172 -6.72121 4.41032 0
M  V30 843 H 76.3492 -0.673745 0.0551725 0
M  V30 844 H 78.9032 -1.88969 0.804984 0
M  V30 845 H 77.1332 -3.74936 -0.946565 0
M  V30 846 H 78.8222 -4.0114 -0.619782 0
M  V30 847 H 79.5882 -4.49732 1.81565 0
M  V30 848 H 75.4672 -4.57187 0.591702 0
M  V30 849 H 79.0112 -5.85152 3.79793 0
M  V30 850 H 74.9082 -5.92334 2.56537 0
M  V30 851 H 75.6762 -6.90547 4.39417 0
M  V30 852 N 78.3393 -0.321999 -1.54275 0
M  V30 853 C 79.6163 0.335232 -1.92706 0
M  V30 854 C 79.9963 1.70006 -1.25145 0
M  V30 855 O 79.3443 2.25067 -0.394596 0
M  V30 856 C 79.5543 0.429008 -3.46353 0
M  V30 857 C 80.9023 0.690029 -4.18956 0
M  V30 858 O 81.9263 0.511992 -3.52501 0
M  V30 859 O 80.7853 1.03338 -5.36641 0
M  V30 860 H 77.8793 0.191143 -0.804608 0
M  V30 861 H 80.4253 -0.3716 -1.65581 0
M  V30 862 H 79.1973 -0.529611 -3.87699 0
M  V30 863 H 78.8203 1.18348 -3.79578 0
M  V30 864 N 79.8174 1.5752 -0.0501392 0
M  V30 865 C 81.0944 1.83996 0.663685 0
M  V30 866 C 81.4744 0.938339 1.89099 0
M  V30 867 O 80.8224 -0.00087759 2.285 0
M  V30 868 C 81.0324 3.33702 1.02196 0
M  V30 869 C 82.3804 4.00691 1.40469 0
M  V30 870 O 83.4044 3.38321 1.11433 0
M  V30 871 O 82.2634 5.10658 1.94654 0
M  V30 872 H 79.3574 0.759385 0.32751 0
M  V30 873 H 81.9034 1.69514 -0.0794238 0
M  V30 874 H 80.6754 3.91015 0.149364 0
M  V30 875 H 80.2984 3.53368 1.82255 0
M  V30 876 N 81.2955 -0.223234 1.56011 0
M  V30 877 C 82.5415 -0.949279 1.79211 0
M  V30 878 C 82.8745 -1.84054 0.619494 0
M  V30 879 O 82.1495 -1.90726 -0.381317 0
M  V30 880 C 82.4325 -1.78965 3.12479 0
M  V30 881 C 82.2855 -0.924997 4.40186 0
M  V30 882 C 83.6045 -2.76774 3.42175 0
M  V30 883 H 80.7235 -0.343676 0.651963 0
M  V30 884 H 83.3655 -0.218253 1.88742 0
M  V30 885 H 81.5155 -2.41291 3.04485 0
M  V30 886 H 83.1875 -0.318615 4.60198 0
M  V30 887 H 81.4305 -0.230344 4.33188 0
M  V30 888 H 82.1015 -1.54735 5.29869 0
M  V30 889 H 84.5775 -2.24584 3.50287 0
M  V30 890 H 83.4535 -3.32678 4.36597 0
M  V30 891 H 83.7145 -3.54429 2.64258 0
M  V30 892 N 82.7736 -1.49793 -0.48987 0
M  V30 893 C 84.0196 -1.60078 -1.24511 0
M  V30 894 C 84.3526 -0.291608 -1.91998 0
M  V30 895 O 83.6276 0.705647 -1.81248 0
M  V30 896 C 83.9106 -2.76791 -2.30345 0
M  V30 897 C 83.7636 -4.17535 -1.67286 0
M  V30 898 C 85.0826 -2.89111 -3.31817 0
M  V30 899 H 82.2016 -0.582645 -0.451324 0
M  V30 900 H 84.8436 -1.82117 -0.541612 0
M  V30 901 H 82.9936 -2.5813 -2.90346 0
M  V30 902 H 84.6656 -4.4774 -1.11026 0
M  V30 903 H 82.9086 -4.22665 -0.976577 0
M  V30 904 H 83.5796 -4.95094 -2.44103 0
M  V30 905 H 86.0556 -3.06133 -2.81819 0
M  V30 906 H 84.9316 -3.72433 -4.03219 0
M  V30 907 H 85.1926 -1.9893 -3.94815 0
M  V30 908 N 84.2517 0.741722 -1.39055 0
M  V30 909 C 85.6677 1.04638 -1.20512 0
M  V30 910 C 85.8677 2.01405 -0.0620218 0
M  V30 911 O 84.9237 2.45547 0.588457 0
M  V30 912 C 86.2367 1.6151 -2.53643 0
M  V30 913 C 87.7847 1.73623 -2.6043 0
M  V30 914 C 88.2597 2.33906 -3.93767 0
M  V30 915 N 89.7507 2.41323 -3.9537 0
M  V30 916 C 90.4857 2.88888 -4.95309 0
M  V30 917 N 89.9817 3.36401 -6.05645 0
M  V30 918 N 91.7747 2.88037 -4.82692 0
M  V30 919 H 83.9257 0.0998155 -2.12165 0
M  V30 920 H 86.1887 0.106907 -0.941953 0
M  V30 921 H 85.8947 0.978739 -3.37807 0
M  V30 922 H 85.7687 2.60411 -2.72885 0
M  V30 923 H 88.1557 2.36384 -1.76655 0
M  V30 924 H 88.2367 0.733945 -2.45045 0
M  V30 925 H 87.8807 1.71776 -4.7797 0
M  V30 926 H 87.8107 3.34799 -4.06469 0
M  V30 927 H 90.3017 2.07734 -3.15682 0
M  V30 928 H 90.6147 3.71186 -6.77821 0
M  V30 929 H 88.9597 3.34427 -6.09248 0
M  V30 930 H 92.1507 2.50237 -3.95599 0
M  V30 931 H 92.3237 3.24792 -5.60726 0
M  V30 932 N 85.7298 1.2412 0.971189 0
M  V30 933 C 86.9758 1.08041 1.71625 0
M  V30 934 C 87.3088 -0.380407 1.90438 0
M  V30 935 O 86.5838 -1.28127 1.46334 0
M  V30 936 C 86.8668 1.81682 3.10908 0
M  V30 937 C 86.7198 3.35493 2.99608 0
M  V30 938 C 88.0388 1.58671 4.10501 0
M  V30 939 H 85.1578 0.39388 0.622919 0
M  V30 940 H 87.7998 1.52743 1.13003 0
M  V30 941 H 85.9498 1.43684 3.60953 0
M  V30 942 H 87.6218 3.83068 2.57015 0
M  V30 943 H 85.8648 3.64052 2.35899 0
M  V30 944 H 86.5358 3.82217 3.98264 0
M  V30 945 H 89.0118 1.91719 3.69301 0
M  V30 946 H 87.8878 2.1266 5.06031 0
M  V30 947 H 88.1488 0.524161 4.38982 0
M  V30 948 N 87.2079 -1.17134 1.05439 0
M  V30 949 C 88.1379 -2.2342 0.678649 0
M  V30 950 C 89.1189 -1.66971 -0.32476 0
M  V30 951 O 90.3039 -1.93149 -0.201802 0
M  V30 952 C 87.4339 -3.47256 0.0552099 0
M  V30 953 C 86.3879 -4.16543 0.98365 0
M  V30 954 C 85.7139 -5.34231 0.223961 0
M  V30 955 C 87.0139 -4.68495 2.3089 0
M  V30 956 H 88.7079 -2.55105 1.56722 0
M  V30 957 H 86.2539 -1.2262 0.754998 0
M  V30 958 H 88.2069 -4.20828 -0.21946 0
M  V30 959 H 86.9309 -3.14846 -0.868319 0
M  V30 960 H 85.5899 -3.44887 1.24293 0
M  V30 961 H 85.2379 -4.98071 -0.702412 0
M  V30 962 H 84.9379 -5.81527 0.842627 0
M  V30 963 H 86.4619 -6.10585 -0.0433671 0
M  V30 964 H 87.8759 -5.33691 2.09396 0
M  V30 965 H 86.2729 -5.26379 2.88176 0
M  V30 966 H 87.3429 -3.85169 2.94572 0
M  V30 967 N 88.686 -0.835752 -1.33615 0
M  V30 968 C 89.911 -0.442389 -2.02627 0
M  V30 969 C 90.336 0.947735 -1.62479 0
M  V30 970 O 89.694 1.61907 -0.815826 0
M  V30 971 C 89.742 -0.567216 -3.56111 0
M  V30 972 O 88.846 0.407799 -4.10379 0
M  V30 973 H 88.187 -0.180278 -0.639059 0
M  V30 974 H 90.717 -1.12972 -1.70583 0
M  V30 975 H 90.727 -0.447708 -4.05536 0
M  V30 976 H 89.402 -1.58103 -3.84677 0
M  V30 977 H 87.979 0.246107 -3.72087 0
M  V30 978 N 90.1641 1.46063 -0.591896 0
M  V30 979 C 91.1121 2.32124 0.148739 0
M  V30 980 C 92.1061 1.45035 0.875286 0
M  V30 981 O 93.3121 1.61609 0.792632 0
M  V30 982 H 89.6871 0.749024 0.066832 0
M  V30 983 H 91.6581 2.92392 -0.595783 0
M  V30 984 C 90.4071 3.28373 1.1431 0
M  V30 985 H 89.7301 3.95371 0.59346 0
M  V30 986 H 91.1701 3.91352 1.63155 0
M  V30 987 C 89.6291 2.54393 2.20875 0
M  V30 988 O 90.1591 2.31373 3.28374 0
M  V30 989 N 88.3651 2.14797 1.95731 0
M  V30 990 H 87.9121 2.33719 1.08319 0
M  V30 991 H 87.8701 1.65619 2.67241 0
M  V30 992 N 91.6422 0.330177 1.54103 0
M  V30 993 C 93.0582 -0.0222371 1.59585 0
M  V30 994 C 93.2582 -1.49902 1.34654 0
M  V30 995 O 92.3142 -2.25592 1.13421 0
M  V30 996 C 93.6272 0.401932 2.98002 0
M  V30 997 C 95.1752 0.353145 3.11001 0
M  V30 998 C 95.6502 0.752576 4.51775 0
M  V30 999 N 97.1412 0.706239 4.57784 0
M  V30 1000 C 97.8762 0.987417 5.64834 0
M  V30 1001 N 97.3722 1.33607 6.79795 0
M  V30 1002 N 99.1652 0.91254 5.54643 0
M  V30 1003 H 91.3162 1.29228 1.68564 0
M  V30 1004 H 93.5792 0.525906 0.78875 0
M  V30 1005 H 93.2852 1.4311 3.21267 0
M  V30 1006 H 93.1592 -0.229699 3.765 0
M  V30 1007 H 95.5462 -0.666822 2.87467 0
M  V30 1008 H 95.6272 1.0198 2.34593 0
M  V30 1009 H 95.2712 1.77049 4.76042 0
M  V30 1010 H 95.2012 0.0635409 5.26562 0
M  V30 1011 H 97.6922 0.44889 3.75224 0
M  V30 1012 H 98.0052 1.53582 7.57385 0
M  V30 1013 H 96.3502 1.37439 6.81275 0
M  V30 1014 H 99.5412 0.639601 4.6371 0
M  V30 1015 H 99.7142 1.13503 6.37982 0
M  V30 1016 N 93.1203 -1.57491 0.0584922 0
M  V30 1017 C 94.5363 -1.56792 -0.298091 0
M  V30 1018 C 94.7363 -1.06679 -1.70944 0
M  V30 1019 O 93.7923 -0.726672 -2.41818 0
M  V30 1020 C 95.1053 -3.00461 -0.119879 0
M  V30 1021 C 96.6533 -3.1242 -0.190428 0
M  V30 1022 C 97.1283 -4.57982 -0.0406567 0
M  V30 1023 N 98.6193 -4.63099 -0.0966958 0
M  V30 1024 C 99.3543 -5.734 -0.00502943 0
M  V30 1025 N 98.8503 -6.9266 0.139402 0
M  V30 1026 N 100.643 -5.62067 -0.0611391 0
M  V30 1027 H 92.7943 -1.88386 0.98105 0
M  V30 1028 H 95.0573 -0.867865 0.381463 0
M  V30 1029 H 94.7633 -3.41187 0.85349 0
M  V30 1030 H 94.6373 -3.66843 -0.877833 0
M  V30 1031 H 97.0243 -2.71589 -1.15427 0
M  V30 1032 H 97.1053 -2.48702 0.598405 0
M  V30 1033 H 96.7493 -4.995 0.919897 0
M  V30 1034 H 96.6793 -5.19715 -0.848727 0
M  V30 1035 H 99.1703 -3.77331 -0.207277 0
M  V30 1036 H 99.4833 -7.72536 0.201855 0
M  V30 1037 H 97.8283 -6.94781 0.174586 0
M  V30 1038 H 101.019 -4.67782 -0.172583 0
M  V30 1039 H 101.192 -6.47999 0.0137562 0
M  V30 1040 N 94.5984 0.214957 -1.56127 0
M  V30 1041 C 95.5284 1.2695 -1.95974 0
M  V30 1042 C 96.5094 1.48539 -0.828868 0
M  V30 1043 O 97.6944 1.60611 -1.09168 0
M  V30 1044 C 94.8244 2.61794 -2.28214 0
M  V30 1045 C 93.7784 2.54851 -3.43853 0
M  V30 1046 C 93.1044 3.93785 -3.61715 0
M  V30 1047 C 94.4044 2.09065 -4.78632 0
M  V30 1048 H 96.0984 0.93846 -2.84312 0
M  V30 1049 H 93.6444 0.449996 -1.36788 0
M  V30 1050 H 95.5974 3.35731 -2.54682 0
M  V30 1051 H 94.3214 2.96599 -1.36736 0
M  V30 1052 H 92.9804 1.8337 -3.17444 0
M  V30 1053 H 92.6284 4.25908 -2.67602 0
M  V30 1054 H 92.3284 3.90019 -4.39498 0
M  V30 1055 H 93.8524 4.69374 -3.90539 0
M  V30 1056 H 95.2664 2.7275 -5.04262 0
M  V30 1057 H 93.6634 2.16346 -5.59745 0
M  V30 1058 H 94.7334 1.04315 -4.73547 0
M  V30 1059 N 96.0765 1.50051 0.48192 0
M  V30 1060 C 97.3245 1.60181 1.23234 0
M  V30 1061 C 97.6455 0.299176 1.92691 0
M  V30 1062 O 96.9155 -0.682708 1.83619 0
M  V30 1063 H 95.4955 0.590232 0.457859 0
M  V30 1064 H 98.1575 1.86775 0.556881 0
M  V30 1065 H 97.2535 2.40753 1.98607 0
M  V30 1066 N 97.5546 -0.734337 1.39446 0
M  V30 1067 C 98.9706 -1.03997 1.21065 0
M  V30 1068 C 99.1706 -2.01369 0.0727019 0
M  V30 1069 O 98.2266 -2.45856 -0.575426 0
M  V30 1070 C 99.5396 -1.60163 2.54496 0
M  V30 1071 C 101.088 -1.7224 2.61347 0
M  V30 1072 C 101.563 -2.31814 3.95002 0
M  V30 1073 N 103.054 -2.39223 3.96644 0
M  V30 1074 C 103.789 -2.86258 4.96834 0
M  V30 1075 N 103.285 -3.33184 6.07421 0
M  V30 1076 N 105.078 -2.85473 4.84213 0
M  V30 1077 H 97.2286 -0.0885624 2.12215 0
M  V30 1078 H 99.4916 -0.10191 0.942506 0
M  V30 1079 H 99.1976 -0.960811 3.38321 0
M  V30 1080 H 99.0716 -2.5896 2.74262 0
M  V30 1081 H 101.459 -2.35443 1.77906 0
M  V30 1082 H 101.54 -0.720939 2.4543 0
M  V30 1083 H 101.184 -1.69238 4.78875 0
M  V30 1084 H 101.114 -3.32638 4.08239 0
M  V30 1085 H 103.605 -2.06057 3.16779 0
M  V30 1086 H 103.918 -3.67586 6.7978 0
M  V30 1087 H 102.263 -3.31191 6.11013 0
M  V30 1088 H 105.454 -2.48136 3.96921 0
M  V30 1089 H 105.627 -3.21814 5.62441 0
M  V30 1090 N 99.0327 -1.24633 -0.964593 0
M  V30 1091 C 99.9807 -1.03917 -2.08096 0
M  V30 1092 C 100.975 0.0268581 -1.69379 0
M  V30 1093 O 102.181 -0.127952 -1.79545 0
M  V30 1094 H 98.5557 -0.319044 -0.680966 0
M  V30 1095 H 100.527 -1.98581 -2.22729 0
M  V30 1096 C 99.2757 -0.663983 -3.41301 0
M  V30 1097 H 98.5987 -1.47605 -3.71555 0
M  V30 1098 H 100.039 -0.558663 -4.20303 0
M  V30 1099 C 98.4977 0.629169 -3.30973 0
M  V30 1100 O 99.0277 1.67404 -3.65156 0
M  V30 1101 N 97.2337 0.611057 -2.84103 0
M  V30 1102 H 96.7807 -0.239593 -2.56483 0
M  V30 1103 H 96.7387 1.47647 -2.77575 0
M  V30 1104 N 100.511 1.16574 -1.06058 0
M  V30 1105 C 101.474 2.19085 -0.673392 0
M  V30 1106 C 102.474 1.5835 0.279648 0
M  V30 1107 O 103.664 1.74088 0.0623488 0
M  V30 1108 C 100.796 3.40899 0.00954234 0
M  V30 1109 H 101.989 2.54853 -1.58081 0
M  V30 1110 H 99.5418 1.30808 -0.855516 0
M  V30 1111 H 100.277 3.10684 0.929826 0
M  V30 1112 H 100.062 3.86233 -0.67573 0
M  V30 1113 H 101.552 4.1675 0.266245 0
M  V30 1114 N 101.989 0.842826 1.3317 0
M  V30 1115 C 103.405 0.531128 1.50503 0
M  V30 1116 C 103.605 -0.940734 1.78192 0
M  V30 1117 O 102.661 -1.72436 1.84451 0
M  V30 1118 C 103.974 1.40789 2.65705 0
M  V30 1119 C 105.522 1.40708 2.79589 0
M  V30 1120 C 105.997 2.26878 3.97857 0
M  V30 1121 N 107.488 2.24609 4.05099 0
M  V30 1122 C 108.223 2.88019 4.95815 0
M  V30 1123 N 107.719 3.60496 5.9162 0
M  V30 1124 N 109.512 2.77469 4.88843 0
M  V30 1125 H 101.663 1.79557 1.1346 0
M  V30 1126 H 103.926 0.766267 0.558156 0
M  V30 1127 H 103.632 2.454 2.51936 0
M  V30 1128 H 103.506 1.08677 3.61205 0
M  V30 1129 H 105.893 0.368668 2.92788 0
M  V30 1130 H 105.974 1.76829 1.84838 0
M  V30 1131 H 105.618 3.3078 3.85418 0
M  V30 1132 H 105.548 1.88096 4.91861 0
M  V30 1133 H 108.039 1.71906 3.36536 0
M  V30 1134 H 108.352 4.06076 6.57512 0
M  V30 1135 H 106.697 3.64604 5.91683 0
M  V30 1136 H 109.888 2.20406 4.12963 0
M  V30 1137 H 110.061 3.2717 5.59342 0
M  V30 1138 N 103.467 -1.45747 0.599634 0
M  V30 1139 C 104.713 -2.02592 0.0918643 0
M  V30 1140 C 105.046 -1.46806 -1.27128 0
M  V30 1141 O 104.321 -0.639658 -1.83681 0
M  V30 1142 C 104.604 -3.60073 0.0443398 0
M  V30 1143 C 104.457 -4.26208 1.43759 0
M  V30 1144 C 105.776 -4.35309 -0.647608 0
M  V30 1145 H 102.895 -0.736175 0.034857 0
M  V30 1146 H 105.537 -1.73694 0.770081 0
M  V30 1147 H 103.687 -3.84823 -0.533224 0
M  V30 1148 H 105.359 -4.12668 2.06162 0
M  V30 1149 H 103.602 -3.84916 2.00056 0
M  V30 1150 H 104.273 -5.35069 1.35665 0
M  V30 1151 H 106.749 -4.15805 -0.156776 0
M  V30 1152 H 105.625 -5.45038 -0.649942 0
M  V30 1153 H 105.886 -4.07598 -1.71219 0
M  V30 1154 N 104.945 -0.338344 -1.53925 0
M  V30 1155 C 105.908 0.508299 -2.23493 0
M  V30 1156 C 106.908 1.03175 -1.23335 0
M  V30 1157 O 108.098 0.921826 -1.47811 0
M  V30 1158 C 105.23 1.70754 -2.95052 0
M  V30 1159 H 106.423 -0.100058 -2.99733 0
M  V30 1160 H 103.976 -0.0896198 -1.56043 0
M  V30 1161 H 104.711 2.35474 -2.22986 0
M  V30 1162 H 104.496 1.33946 -3.68512 0
M  V30 1163 H 105.986 2.30818 -3.48013 0
M  V30 1164 N 106.423 1.57458 -0.0668435 0
M  V30 1165 C 107.648 1.9804 0.616027 0
M  V30 1166 C 108.073 0.944771 1.62652 0
M  V30 1167 O 107.431 -0.0902094 1.81075 0
M  V30 1168 C 107.479 3.37665 1.26549 0
M  V30 1169 O 106.583 3.36701 2.38131 0
M  V30 1170 H 105.924 0.644719 0.158849 0
M  V30 1171 H 108.454 2.04121 -0.139891 0
M  V30 1172 H 108.464 3.7474 1.6135 0
M  V30 1173 H 107.139 4.12573 0.525016 0
M  V30 1174 H 105.716 3.1139 2.0516 0
M  V30 1175 N 107.901 -0.206675 1.56239 0
M  V30 1176 C 109.149 -0.927007 1.79586 0
M  V30 1177 C 109.47 -1.8427 0.637929 0
M  V30 1178 O 108.74 -1.92849 -0.344398 0
M  V30 1179 H 107.32 -0.345292 0.662407 0
M  V30 1180 H 109.982 -0.21496 1.93711 0
M  V30 1181 H 109.078 -1.52501 2.72305 0
M  V30 1182 N 109.379 -1.50304 -0.473955 0
M  V30 1183 C 110.656 -1.51667 -1.23518 0
M  V30 1184 C 111.036 -0.259701 -2.09496 0
M  V30 1185 O 110.384 0.756986 -2.15597 0
M  V30 1186 C 110.594 -2.81082 -2.06868 0
M  V30 1187 C 111.942 -3.31631 -2.65153 0
M  V30 1188 O 112.966 -2.82384 -2.17113 0
M  V30 1189 O 111.825 -4.17471 -3.52675 0
M  V30 1190 H 108.919 -0.60822 -0.560355 0
M  V30 1191 H 111.465 -1.62592 -0.486011 0
M  V30 1192 H 110.237 -3.64041 -1.4349 0
M  V30 1193 H 109.86 -2.73146 -2.88924 0
M  V30 1194 N 110.857 0.726932 -1.39834 0
M  V30 1195 C 112.085 1.51613 -1.40787 0
M  V30 1196 C 112.5 1.88799 -0.00451505 0
M  V30 1197 O 111.857 1.54662 0.968809 0
M  V30 1198 C 111.908 2.79863 -2.28821 0
M  V30 1199 O 111.629 2.44253 -3.63692 0
M  V30 1200 C 113.13 3.73837 -2.38245 0
M  V30 1201 H 110.35 0.468264 -0.480593 0
M  V30 1202 H 112.894 0.897607 -1.83748 0
M  V30 1203 H 111.049 3.38027 -1.89252 0
M  V30 1204 H 111.463 3.26695 -4.1033 0
M  V30 1205 H 112.937 4.60699 -3.04073 0
M  V30 1206 H 113.414 4.16153 -1.40403 0
M  V30 1207 H 114.02 3.21589 -2.78317 0
M  V30 1208 N 112.336 1.25143 0.95797 0
M  V30 1209 C 113.613 1.00472 1.67823 0
M  V30 1210 C 113.993 -0.470056 2.058 0
M  V30 1211 O 113.341 -1.44663 1.76875 0
M  V30 1212 C 113.551 1.9372 2.90299 0
M  V30 1213 C 114.899 2.21371 3.62326 0
M  V30 1214 O 115.923 1.91451 3.00375 0
M  V30 1215 O 114.782 2.72231 4.7387 0
M  V30 1216 H 111.876 0.380752 0.734137 0
M  V30 1217 H 114.422 1.36283 1.01119 0
M  V30 1218 H 113.194 2.93316 2.59001 0
M  V30 1219 H 112.817 1.58286 3.64735 0
M  V30 1220 N 113.814 -1.1601 1.06675 0
M  V30 1221 C 115.042 -1.90527 0.806667 0
M  V30 1222 C 115.457 -1.77643 -0.639396 0
M  V30 1223 O 114.814 -1.12369 -1.43803 0
M  V30 1224 C 114.865 -3.41106 1.19705 0
M  V30 1225 O 114.586 -3.53608 2.58636 0
M  V30 1226 C 116.087 -4.32663 0.965266 0
M  V30 1227 H 113.307 -0.604053 0.292166 0
M  V30 1228 H 115.851 -1.47026 1.4214 0
M  V30 1229 H 114.006 -3.82296 0.626774 0
M  V30 1230 H 114.42 -4.47011 2.74375 0
M  V30 1231 H 115.894 -5.36763 1.288 0
M  V30 1232 H 116.371 -4.39089 -0.0987936 0
M  V30 1233 H 116.977 -3.97206 1.52011 0
M  V30 1234 N 115.292 -0.849877 -1.32721 0
M  V30 1235 C 116.255 -0.296122 -2.27279 0
M  V30 1236 C 117.255 0.541458 -1.5141 0
M  V30 1237 O 118.445 0.353658 -1.70572 0
M  V30 1238 C 115.577 0.581579 -3.35902 0
M  V30 1239 H 116.77 -1.13064 -2.77771 0
M  V30 1240 H 114.323 -0.62383 -1.43311 0
M  V30 1241 H 115.058 1.43809 -2.9067 0
M  V30 1242 H 114.843 -0.0178814 -3.92096 0
M  V30 1243 H 116.333 0.961951 -4.0637 0
M  V30 1244 N 116.77 1.45427 -0.607355 0
M  V30 1245 C 118.181 1.85756 -0.187535 0
M  V30 1246 C 118.532 1.5077 1.25551 0
M  V30 1247 O 117.657 0.93427 1.95193 0
M  V30 1248 C 118.252 3.37154 -0.333572 0
M  V30 1249 C 116.811 3.76387 0.0315542 0
M  V30 1250 C 115.958 2.69377 -0.658117 0
M  V30 1251 H 118.909 1.36231 -0.81405 0
M  V30 1252 H 118.93 3.78014 0.43428 0
M  V30 1253 H 118.442 3.62586 -1.38393 0
M  V30 1254 H 116.543 3.56571 1.0811 0
M  V30 1255 H 116.656 4.77731 -0.361935 0
M  V30 1256 H 115.02 2.5452 -0.0957873 0
M  V30 1257 H 115.803 2.97646 -1.7106 0
M  V30 1258 N 118.248 0.346503 1.53744 0
M  V30 1259 C 119.494 -0.249473 2.0126 0
M  V30 1260 C 119.827 -1.49965 1.23386 0
M  V30 1261 O 119.102 -1.91811 0.32229 0
M  V30 1262 C 119.385 -0.560643 3.55709 0
M  V30 1263 C 119.238 0.701836 4.44291 0
M  V30 1264 C 120.557 -1.36905 4.18264 0
M  V30 1265 H 117.676 -0.0891987 0.731582 0
M  V30 1266 H 120.318 0.467624 1.84156 0
M  V30 1267 H 118.468 -1.17156 3.70414 0
M  V30 1268 H 120.14 1.33974 4.41417 0
M  V30 1269 H 118.383 1.32612 4.13033 0
M  V30 1270 H 119.054 0.43933 5.50249 0
M  V30 1271 H 121.53 -0.852448 4.07275 0
M  V30 1272 H 120.406 -1.55553 5.26398 0
M  V30 1273 H 120.667 -2.37203 3.73078 0
M  V30 1274 N 119.726 -1.57421 0.075193 0
M  V30 1275 C 121.137 -1.81021 -0.456964 0
M  V30 1276 C 121.488 -0.98936 -1.69429 0
M  V30 1277 O 120.613 -0.212865 -2.15351 0
M  V30 1278 C 121.208 -3.28329 -0.83581 0
M  V30 1279 C 119.767 -3.52764 -1.31281 0
M  V30 1280 C 118.914 -2.75676 -0.299648 0
M  V30 1281 H 121.865 -1.55822 0.300856 0
M  V30 1282 H 121.886 -3.40564 -1.69696 0
M  V30 1283 H 121.398 -3.88046 0.0649238 0
M  V30 1284 H 119.499 -2.98355 -2.23193 0
M  V30 1285 H 119.612 -4.61451 -1.28839 0
M  V30 1286 H 117.976 -2.42538 -0.777641 0
M  V30 1287 H 118.759 -3.38132 0.593417 0
M  V30 1288 N 121.204 0.198386 -1.56346 0
M  V30 1289 C 122.453 0.917451 -1.79627 0
M  V30 1290 C 122.766 1.8456 -0.64784 0
M  V30 1291 O 123.972 2.60504 -0.764859 0
M  V30 1292 C 122.428 1.68175 -3.18191 0
M  V30 1293 C 122.036 0.798589 -4.40825 0
M  V30 1294 C 123.78 2.39065 -3.50782 0
M  V30 1295 C 121.687 1.56157 -5.70411 0
M  V30 1296 H 120.617 0.346317 -0.669762 0
M  V30 1297 H 123.268 0.170801 -1.82703 0
M  V30 1298 H 121.65 2.47216 -3.09354 0
M  V30 1299 H 122.824 0.0470665 -4.60776 0
M  V30 1300 H 121.139 0.200686 -4.15916 0
M  V30 1301 H 123.736 2.96692 -4.44835 0
M  V30 1302 H 124.079 3.13091 -2.74371 0
M  V30 1303 H 124.612 1.66993 -3.61052 0
M  V30 1304 H 121.351 0.864142 -6.49779 0
M  V30 1305 H 120.871 2.2871 -5.54483 0
M  V30 1306 H 122.55 2.11622 -6.11412 0
M  V30 1307 N 122.682 1.50554 0.465978 0
M  V30 1308 C 124.093 1.54599 1.04671 0
M  V30 1309 C 124.444 0.352488 1.93008 0
M  V30 1310 O 123.569 -0.534044 2.09707 0
M  V30 1311 C 124.164 2.80166 1.90505 0
M  V30 1312 C 122.723 2.86876 2.43678 0
M  V30 1313 C 121.87 2.48947 1.22151 0
M  V30 1314 H 124.821 1.56744 0.248384 0
M  V30 1315 H 124.842 2.62311 2.75633 0
M  V30 1316 H 124.354 3.67013 1.26186 0
M  V30 1317 H 122.455 2.04393 3.11536 0
M  V30 1318 H 122.568 3.89885 2.78436 0
M  V30 1319 H 120.932 2.01498 1.5579 0
M  V30 1320 H 121.715 3.38107 0.594866 0
M  V30 1321 N 124.16 -0.719506 1.40217 0
M  V30 1322 C 125.388 -1.50864 1.41589 0
M  V30 1323 C 125.803 -1.88794 0.0145275 0
M  V30 1324 O 125.16 -1.55174 -0.960594 0
M  V30 1325 C 125.211 -2.78646 2.30302 0
M  V30 1326 O 124.932 -2.42321 3.64983 0
M  V30 1327 C 126.433 -3.72569 2.40224 0
M  V30 1328 H 123.653 -0.465709 0.48307 0
M  V30 1329 H 126.197 -0.88785 1.84221 0
M  V30 1330 H 124.352 -3.37019 1.91042 0
M  V30 1331 H 124.766 -3.24514 4.12057 0
M  V30 1332 H 126.24 -4.5908 3.06512 0
M  V30 1333 H 126.717 -4.15403 1.42608 0
M  V30 1334 H 127.323 -3.20109 2.80019 0
M  V30 1335 N 125.638 -1.25649 -0.95132 0
M  V30 1336 C 126.548 -1.08073 -2.08224 0
M  V30 1337 C 127.564 -0.0169666 -1.73992 0
M  V30 1338 O 128.74 -0.218593 -2.0021 0
M  V30 1339 C 125.805 -0.704922 -3.39458 0
M  V30 1340 C 124.866 -1.84699 -3.87537 0
M  V30 1341 C 124.099 -1.48902 -5.12508 0
M  V30 1342 O 124.322 -0.386156 -5.69091 0
M  V30 1343 O 123.256 -2.32033 -5.55378 0
M  V30 1344 H 127.082 -2.02924 -2.25954 0
M  V30 1345 H 124.667 -1.04618 -1.06656 0
M  V30 1346 H 126.549 -0.507609 -4.18332 0
M  V30 1347 H 125.224 0.214291 -3.2299 0
M  V30 1348 H 124.131 -2.09919 -3.09653 0
M  V30 1349 H 125.464 -2.74557 -4.08509 0
M  V30 1350 N 127.117 1.15442 -1.07289 0
M  V30 1351 C 128.067 2.18164 -0.662467 0
M  V30 1352 C 129.051 1.57845 0.312074 0
M  V30 1353 O 130.243 1.76552 0.125905 0
M  V30 1354 C 127.372 3.43246 -0.0611295 0
M  V30 1355 C 126.458 4.1062 -1.06077 0
M  V30 1356 N 126.849 4.53491 -2.24008 0
M  V30 1357 C 125.147 4.36949 -0.893964 0
M  V30 1358 C 125.848 5.05731 -2.87422 0
M  V30 1359 N 124.824 4.99236 -2.15091 0
M  V30 1360 H 128.626 2.49038 -1.56068 0
M  V30 1361 H 126.14 1.32003 -0.945988 0
M  V30 1362 H 128.137 4.16145 0.250792 0
M  V30 1363 H 126.797 3.13854 0.832207 0
M  V30 1364 H 127.808 4.46898 -2.6173 0
M  V30 1365 H 124.485 4.17466 -0.0534693 0
M  V30 1366 H 125.875 5.48865 -3.87553 0
M  V30 1367 N 128.595 0.856903 1.32268 0
M  V30 1368 C 130.011 0.547061 1.49931 0
M  V30 1369 C 130.211 -0.921781 1.7918 0
M  V30 1370 O 129.267 -1.70469 1.8627 0
M  V30 1371 C 130.58 1.43599 2.64196 0
M  V30 1372 C 132.128 1.43665 2.78081 0
M  V30 1373 C 132.603 2.31085 3.95428 0
M  V30 1374 N 134.094 2.28893 4.02694 0
M  V30 1375 C 134.829 2.93262 4.92732 0
M  V30 1376 N 134.325 3.66751 5.87763 0
M  V30 1377 N 136.118 2.82638 4.85873 0
M  V30 1378 H 128.269 1.8075 1.11549 0
M  V30 1379 H 130.532 0.772144 0.549997 0
M  V30 1380 H 130.238 2.48058 2.49319 0
M  V30 1381 H 130.112 1.12502 3.60032 0
M  V30 1382 H 132.499 0.399701 2.92381 0
M  V30 1383 H 132.58 1.7878 1.82952 0
M  V30 1384 H 132.224 3.34849 3.81888 0
M  V30 1385 H 132.154 1.93302 4.89839 0
M  V30 1386 H 134.645 1.75466 3.34694 0
M  V30 1387 H 134.958 4.13027 6.53168 0
M  V30 1388 H 133.303 3.70859 5.87783 0
M  V30 1389 H 136.494 2.24774 4.10602 0
M  V30 1390 H 136.667 3.33084 5.55841 0
M  V30 1391 N 130.073 -1.45103 0.615059 0
M  V30 1392 C 131.036 -2.29025 -0.0895485 0
M  V30 1393 C 132.036 -1.40174 -0.787906 0
M  V30 1394 O 133.226 -1.62217 -0.634933 0
M  V30 1395 C 130.358 -3.21376 -1.13711 0
M  V30 1396 H 131.551 -2.92807 0.648382 0
M  V30 1397 H 129.104 -1.51749 0.374444 0
M  V30 1398 H 129.839 -2.6241 -1.90556 0
M  V30 1399 H 129.624 -3.86834 -0.640475 0
M  V30 1400 H 131.114 -3.84459 -1.63036 0
M  V30 1401 N 131.551 -0.354651 -1.53558 0
M  V30 1402 C 132.481 0.489091 -2.2832 0
M  V30 1403 C 133.462 1.09324 -1.30316 0
M  V30 1404 O 134.647 1.11255 -1.59173 0
M  V30 1405 C 131.777 1.63456 -3.0643 0
M  V30 1406 C 130.731 1.1582 -4.12031 0
M  V30 1407 C 130.057 2.39305 -4.7816 0
M  V30 1408 C 131.357 0.250731 -5.21698 0
M  V30 1409 H 133.051 -0.134614 -2.99097 0
M  V30 1410 H 130.597 -0.0661826 -1.43848 0
M  V30 1411 H 132.55 2.23136 -3.57475 0
M  V30 1412 H 131.274 2.28533 -2.33325 0
M  V30 1413 H 129.933 0.584146 -3.61916 0
M  V30 1414 H 129.581 3.02814 -4.01637 0
M  V30 1415 H 129.281 2.08109 -5.49513 0
M  V30 1416 H 130.805 2.99691 -5.31994 0
M  V30 1417 H 132.219 0.754695 -5.68311 0
M  V30 1418 H 130.616 0.0301468 -6.00092 0
M  V30 1419 H 131.686 -0.710125 -4.79672 0
M  V30 1420 N 133.029 1.57378 -0.0835403 0
M  V30 1421 C 134.445 1.57246 0.273109 0
M  V30 1422 C 134.645 1.09385 1.69225 0
M  V30 1423 O 133.701 0.765051 2.40631 0
M  V30 1424 C 135.014 3.00614 0.0720628 0
M  V30 1425 C 136.562 3.12684 0.1407 0
M  V30 1426 C 137.037 4.57989 -0.0322094 0
M  V30 1427 N 138.528 4.63194 0.0230085 0
M  V30 1428 C 139.263 5.73335 -0.0861941 0
M  V30 1429 N 138.759 6.9235 -0.24958 0
M  V30 1430 N 140.552 5.62093 -0.0282886 0
M  V30 1431 H 132.703 1.86801 -1.0109 0
M  V30 1432 H 134.966 0.861687 -0.395222 0
M  V30 1433 H 134.672 3.39786 -0.907662 0
M  V30 1434 H 134.546 3.68193 0.81936 0
M  V30 1435 H 136.933 2.73391 1.11092 0
M  V30 1436 H 137.014 2.47719 -0.637896 0
M  V30 1437 H 136.658 4.97973 -0.999247 0
M  V30 1438 H 136.588 5.21 0.765937 0
M  V30 1439 H 139.079 3.77613 0.14722 0
M  V30 1440 H 139.392 7.72117 -0.324733 0
M  V30 1441 H 137.737 6.94415 -0.285097 0
M  V30 1442 H 140.928 4.67997 0.0981408 0
M  V30 1443 H 141.101 6.47895 -0.116845 0
M  V30 1444 N 134.507 -0.190092 1.56449 0
M  V30 1445 C 135.735 -0.925772 1.85033 0
M  V30 1446 C 136.15 -1.76638 0.666658 0
M  V30 1447 O 135.507 -1.78822 -0.364565 0
M  V30 1448 C 135.558 -1.81786 3.12468 0
M  V30 1449 O 135.279 -1.01118 4.26271 0
M  V30 1450 C 136.78 -2.6648 3.54265 0
M  V30 1451 H 134 -0.269872 0.614337 0
M  V30 1452 H 136.544 -0.195837 2.0356 0
M  V30 1453 H 134.699 -2.50136 2.95822 0
M  V30 1454 H 135.113 -1.61956 4.98869 0
M  V30 1455 H 136.587 -3.24722 4.46385 0
M  V30 1456 H 137.064 -3.40434 2.77491 0
M  V30 1457 H 137.67 -2.03493 3.73458 0
M  V30 1458 N 135.985 -1.50799 -0.457987 0
M  V30 1459 C 137.231 -1.62683 -1.21088 0
M  V30 1460 C 137.564 -0.332268 -1.91336 0
M  V30 1461 O 136.839 0.667043 -1.82704 0
M  V30 1462 C 137.122 -2.81615 -2.24422 0
M  V30 1463 C 136.975 -4.20989 -1.58392 0
M  V30 1464 C 138.294 -2.96085 -3.2561 0
M  V30 1465 H 135.413 -0.592087 -0.438864 0
M  V30 1466 H 138.055 -1.83225 -0.50286 0
M  V30 1467 H 136.205 -2.64231 -2.84806 0
M  V30 1468 H 137.877 -4.49994 -1.01504 0
M  V30 1469 H 136.12 -4.24641 -0.886704 0
M  V30 1470 H 136.791 -5.0016 -2.33547 0
M  V30 1471 H 139.267 -3.12042 -2.75262 0
M  V30 1472 H 138.143 -3.80902 -3.95228 0
M  V30 1473 H 138.404 -2.0726 -3.90507 0
M  V30 1474 N 137.463 0.71206 -1.40597 0
M  V30 1475 C 138.709 1.47416 -1.39271 0
M  V30 1476 C 139.042 1.942 0.00388791 0
M  V30 1477 O 138.317 1.68403 0.973179 0
M  V30 1478 C 138.6 2.69774 -2.38525 0
M  V30 1479 C 138.453 2.28861 -3.87224 0
M  V30 1480 C 139.772 3.71939 -2.35264 0
M  V30 1481 H 136.891 0.534713 -0.5072 0
M  V30 1482 H 139.533 0.812375 -1.71757 0
M  V30 1483 H 137.683 3.26238 -2.10953 0
M  V30 1484 H 139.355 1.77852 -4.25636 0
M  V30 1485 H 137.598 1.60824 -4.02887 0
M  V30 1486 H 138.269 3.16584 -4.52193 0
M  V30 1487 H 140.745 3.25113 -2.59694 0
M  V30 1488 H 139.621 4.55186 -3.06753 0
M  V30 1489 H 139.882 4.20484 -1.36549 0
M  V30 1490 N 138.941 1.26152 0.944643 0
M  V30 1491 C 139.851 1.09176 2.07648 0
M  V30 1492 C 140.867 0.0261935 1.7398 0
M  V30 1493 O 142.043 0.229208 2.00091 0
M  V30 1494 C 139.108 0.722915 3.39079 0
M  V30 1495 C 138.169 1.86752 3.86552 0
M  V30 1496 C 137.402 1.51617 5.11711 0
M  V30 1497 O 137.625 0.416331 5.68879 0
M  V30 1498 O 136.559 2.34975 5.54139 0
M  V30 1499 H 140.385 2.0412 2.24875 0
M  V30 1500 H 137.97 1.05182 1.061 0
M  V30 1501 H 139.852 0.529787 4.18056 0
M  V30 1502 H 138.527 -0.197159 3.23099 0
M  V30 1503 H 137.434 2.11558 3.08535 0
M  V30 1504 H 138.767 2.76719 4.07047 0
M  V30 1505 N 140.419 -1.14872 1.07899 0
M  V30 1506 C 141.367 -2.21857 0.698727 0
M  V30 1507 C 142.361 -1.66845 -0.293086 0
M  V30 1508 O 143.567 -1.79321 -0.156204 0
M  V30 1509 H 139.942 -0.722691 0.207899 0
M  V30 1510 H 141.913 -2.51205 1.61054 0
M  V30 1511 C 140.662 -3.47498 0.11858 0
M  V30 1512 H 139.985 -3.90154 0.872914 0
M  V30 1513 H 141.425 -4.23858 -0.109759 0
M  V30 1514 C 139.884 -3.16947 -1.1422 0
M  V30 1515 O 140.414 -3.3426 -2.22785 0
M  V30 1516 N 138.62 -2.70946 -1.05055 0
M  V30 1517 H 138.167 -2.57058 -0.167038 0
M  V30 1518 H 138.125 -2.50879 -1.89491 0
M  V30 1519 N 141.898 -0.863906 -1.31812 0
M  V30 1520 C 143.144 -0.481841 -1.9761 0
M  V30 1521 C 143.499 0.954048 -1.6708 0
M  V30 1522 O 142.792 1.66182 -0.953624 0
M  V30 1523 C 142.986 -0.668547 -3.51091 0
M  V30 1524 C 142.815 -2.12103 -3.96538 0
M  V30 1525 C 141.585 -2.76141 -4.23171 0
M  V30 1526 C 143.783 -3.09265 -4.10925 0
M  V30 1527 N 141.765 -4.12205 -4.54929 0
M  V30 1528 C 143.136 -4.30341 -4.46326 0
M  V30 1529 C 145.191 -3.05337 -3.93286 0
M  V30 1530 C 143.894 -5.48 -4.65928 0
M  V30 1531 C 145.92 -4.22248 -4.14078 0
M  V30 1532 C 145.282 -5.42085 -4.49804 0
M  V30 1533 H 141.381 -0.225238 -0.74886 0
M  V30 1534 H 143.965 -1.11723 -1.59455 0
M  V30 1535 H 142.136 -0.0627898 -3.88349 0
M  V30 1536 H 143.868 -0.255467 -4.03893 0
M  V30 1537 H 140.623 -2.27125 -4.15585 0
M  V30 1538 H 141.047 -4.82416 -4.74978 0
M  V30 1539 H 145.689 -2.138 -3.64759 0
M  V30 1540 H 143.407 -6.40059 -4.93305 0
M  V30 1541 H 146.993 -4.20654 -4.01922 0
M  V30 1542 H 145.873 -6.31044 -4.65567 0
M  V30 1543 N 143.376 1.44774 -0.622745 0
M  V30 1544 C 144.306 2.33382 0.0741861 0
M  V30 1545 C 145.287 1.47719 0.843387 0
M  V30 1546 O 146.472 1.76458 0.810934 0
M  V30 1547 C 143.602 3.30663 1.06204 0
M  V30 1548 C 142.556 4.26079 0.405037 0
M  V30 1549 C 141.882 5.13165 1.5022 0
M  V30 1550 C 143.182 5.1781 -0.683414 0
M  V30 1551 H 144.876 2.91905 -0.665713 0
M  V30 1552 H 142.422 1.40363 -0.321587 0
M  V30 1553 H 144.375 3.9153 1.55827 0
M  V30 1554 H 143.099 2.70331 1.83272 0
M  V30 1555 H 141.758 3.66532 -0.0704683 0
M  V30 1556 H 141.406 4.49191 2.26355 0
M  V30 1557 H 141.106 5.77812 1.06803 0
M  V30 1558 H 142.63 5.76902 2.00041 0
M  V30 1559 H 144.044 5.72661 -0.270631 0
M  V30 1560 H 142.441 5.91015 -1.04023 0
M  V30 1561 H 143.511 4.59326 -1.55395 0
M  V30 1562 N 144.854 0.36279 1.53368 0
M  V30 1563 C 146.1 -0.228113 2.01513 0
M  V30 1564 C 146.433 -1.48648 1.2497 0
M  V30 1565 O 145.708 -1.91459 0.342616 0
M  V30 1566 C 145.991 -0.522884 3.56284 0
M  V30 1567 C 145.844 0.74892 4.43521 0
M  V30 1568 C 147.163 -1.32461 4.19693 0
M  V30 1569 H 144.282 -0.0814343 0.732487 0
M  V30 1570 H 146.924 0.48713 1.83649 0
M  V30 1571 H 145.074 -1.1322 3.71636 0
M  V30 1572 H 146.746 1.38648 4.39971 0
M  V30 1573 H 144.989 1.36986 4.11603 0
M  V30 1574 H 145.66 0.497667 5.49752 0
M  V30 1575 H 148.136 -0.809203 4.08156 0
M  V30 1576 H 147.012 -1.49961 5.28018 0
M  V30 1577 H 147.273 -2.33232 3.75573 0
M  V30 1578 N 146.332 -1.57332 0.0918853 0
M  V30 1579 C 147.579 -1.94236 -0.572577 0
M  V30 1580 C 147.907 -0.973398 -1.6839 0
M  V30 1581 O 147.162 0.00756912 -1.95699 0
M  V30 1582 C 147.461 -3.37689 -1.17051 0
M  V30 1583 C 147.127 -4.50527 -0.183304 0
M  V30 1584 C 145.789 -4.81119 0.0882276 0
M  V30 1585 C 148.141 -5.18883 0.49095 0
M  V30 1586 C 145.469 -5.77395 1.04076 0
M  V30 1587 C 147.821 -6.1618 1.43193 0
M  V30 1588 C 146.485 -6.45179 1.71173 0
M  V30 1589 H 145.755 -0.710762 -0.209521 0
M  V30 1590 H 148.402 -1.9077 0.167036 0
M  V30 1591 H 146.707 -3.37718 -1.9863 0
M  V30 1592 H 148.404 -3.63543 -1.69227 0
M  V30 1593 H 144.994 -4.26681 -0.405124 0
M  V30 1594 H 149.178 -4.95427 0.294312 0
M  V30 1595 H 144.434 -5.98179 1.26457 0
M  V30 1596 H 148.608 -6.68243 1.96023 0
M  V30 1597 H 146.235 -7.1959 2.4514 0
M  V30 1598 N 147.81 0.181792 -1.56548 0
M  V30 1599 C 148.74 1.22765 -1.98623 0
M  V30 1600 C 149.721 1.46747 -0.860189 0
M  V30 1601 O 150.906 1.58259 -1.12551 0
M  V30 1602 C 148.036 2.56894 -2.33715 0
M  V30 1603 C 146.99 2.475 -3.49182 0
M  V30 1604 C 146.316 3.86023 -3.69986 0
M  V30 1605 C 147.616 1.98866 -4.82959 0
M  V30 1606 H 149.31 0.877942 -2.86239 0
M  V30 1607 H 146.856 0.42088 -1.37712 0
M  V30 1608 H 148.809 3.30253 -2.61746 0
M  V30 1609 H 147.533 2.93632 -1.42997 0
M  V30 1610 H 146.192 1.76596 -3.21262 0
M  V30 1611 H 145.84 4.20136 -2.76576 0
M  V30 1612 H 145.54 3.80609 -4.47672 0
M  V30 1613 H 147.064 4.60984 -4.00407 0
M  V30 1614 H 148.478 2.61992 -5.09934 0
M  V30 1615 H 146.875 2.04424 -5.64208 0
M  V30 1616 H 147.945 0.942465 -4.75653 0
M  V30 1617 N 149.288 1.51039 0.449983 0
M  V30 1618 C 150.565 1.53612 1.21089 0
M  V30 1619 C 150.945 0.292997 2.09057 0
M  V30 1620 O 150.293 -0.72259 2.16774 0
M  V30 1621 C 150.503 2.84337 2.0237 0
M  V30 1622 C 151.851 3.35807 2.59843 0
M  V30 1623 O 152.875 2.85802 2.12593 0
M  V30 1624 O 151.734 4.23029 3.45989 0
M  V30 1625 H 148.828 0.617057 0.550608 0
M  V30 1626 H 151.374 1.63344 0.460082 0
M  V30 1627 H 150.146 3.66278 1.37681 0
M  V30 1628 H 149.769 2.77708 2.84542 0
M  V30 1629 N 150.766 -0.704594 1.40972 0
M  V30 1630 C 152.177 -1.28418 1.3552 0
M  V30 1631 C 152.528 -1.96171 0.0339434 0
M  V30 1632 O 151.653 -1.98231 -0.867944 0
M  V30 1633 C 152.248 -2.33528 2.45459 0
M  V30 1634 C 150.807 -2.87085 2.43433 0
M  V30 1635 C 149.954 -1.61007 2.2577 0
M  V30 1636 H 152.905 -0.499963 1.50619 0
M  V30 1637 H 152.926 -3.14619 2.13998 0
M  V30 1638 H 152.438 -1.84187 3.41609 0
M  V30 1639 H 150.539 -3.40626 1.51013 0
M  V30 1640 H 150.652 -3.3813 3.39419 0
M  V30 1641 H 149.016 -1.86482 1.73483 0
M  V30 1642 H 149.799 -1.13675 3.23933 0
M  V30 1643 N 152.244 -1.26651 -0.937939 0
M  V30 1644 C 153.655 -1.1125 -1.49934 0
M  V30 1645 C 154.006 0.306077 -1.93798 0
M  V30 1646 O 153.131 1.19792 -1.80219 0
M  V30 1647 C 153.726 -2.01339 -2.72485 0
M  V30 1648 C 152.285 -1.90074 -3.24883 0
M  V30 1649 C 151.432 -1.94498 -1.97651 0
M  V30 1650 H 154.383 -1.39693 -0.753091 0
M  V30 1651 H 154.404 -1.56319 -3.46907 0
M  V30 1652 H 153.916 -3.04577 -2.40529 0
M  V30 1653 H 152.017 -0.897827 -3.61621 0
M  V30 1654 H 152.13 -2.75778 -3.9177 0
M  V30 1655 H 150.494 -1.38591 -2.13693 0
M  V30 1656 H 151.277 -2.99372 -1.68022 0
M  V30 1657 N 153.722 1.14298 -1.08507 0
M  V30 1658 C 154.672 2.17449 -0.685569 0
M  V30 1659 C 155.656 1.58167 0.295315 0
M  V30 1660 O 156.848 1.76675 0.107172 0
M  V30 1661 C 153.977 3.43161 -0.0975318 0
M  V30 1662 C 153.063 4.09471 -1.10426 0
M  V30 1663 N 153.454 4.51089 -2.28806 0
M  V30 1664 C 151.752 4.35976 -0.940258 0
M  V30 1665 C 152.453 5.02654 -2.9277 0
M  V30 1666 N 151.429 4.96927 -2.20374 0
M  V30 1667 H 155.231 2.47369 -1.587 0
M  V30 1668 H 152.745 1.30992 -0.959936 0
M  V30 1669 H 154.742 4.16388 0.20664 0
M  V30 1670 H 153.402 3.14719 0.798872 0
M  V30 1671 H 154.413 4.44097 -2.66455 0
M  V30 1672 H 151.09 4.17386 -0.0977441 0
M  V30 1673 H 152.48 5.44723 -3.93352 0
M  V30 1674 N 155.201 0.870884 1.31352 0
M  V30 1675 C 156.151 0.298889 2.26032 0
M  V30 1676 C 157.135 -0.564595 1.50669 0
M  V30 1677 O 158.327 -0.411323 1.72154 0
M  V30 1678 C 155.456 -0.497842 3.39671 0
M  V30 1679 C 154.542 0.378937 4.22404 0
M  V30 1680 N 154.933 1.47284 4.83881 0
M  V30 1681 C 153.231 0.171535 4.4567 0
M  V30 1682 C 153.932 2.01359 5.45738 0
M  V30 1683 N 152.908 1.31047 5.27568 0
M  V30 1684 H 156.71 1.13494 2.71102 0
M  V30 1685 H 154.224 0.718745 1.45629 0
M  V30 1686 H 156.221 -0.924155 4.06528 0
M  V30 1687 H 154.881 -1.33149 2.96144 0
M  V30 1688 H 155.892 1.85575 4.8351 0
M  V30 1689 H 152.569 -0.626091 4.12779 0
M  V30 1690 H 153.959 2.93143 6.0458 0
M  V30 1691 N 156.679 -1.44442 0.630414 0
M  V30 1692 C 157.907 -2.06414 0.141671 0
M  V30 1693 C 158.322 -1.47105 -1.18345 0
M  V30 1694 O 157.679 -0.593662 -1.72574 0
M  V30 1695 C 157.73 -3.61494 0.0199784 0
M  V30 1696 O 157.451 -4.18594 1.29269 0
M  V30 1697 C 158.952 -4.40499 -0.497544 0
M  V30 1698 H 156.172 -0.666292 0.0793452 0
M  V30 1699 H 158.716 -1.85323 0.864614 0
M  V30 1700 H 156.871 -3.8185 -0.653402 0
M  V30 1701 H 157.285 -5.12026 1.13707 0
M  V30 1702 H 158.759 -5.49433 -0.531708 0
M  V30 1703 H 159.236 -4.11895 -1.52445 0
M  V30 1704 H 159.842 -4.25061 0.142562 0
M  V30 1705 N 158.157 -0.370918 -1.53173 0
M  V30 1706 C 159.067 0.480823 -2.2962 0
M  V30 1707 C 160.083 1.08789 -1.35798 0
M  V30 1708 O 161.259 1.09768 -1.68858 0
M  V30 1709 C 158.324 1.60227 -3.07454 0
M  V30 1710 C 157.385 1.0222 -4.16953 0
M  V30 1711 C 156.618 2.0902 -4.91066 0
M  V30 1712 O 156.841 3.30222 -4.65091 0
M  V30 1713 O 155.775 1.71778 -5.76867 0
M  V30 1714 H 159.601 -0.141421 -3.03371 0
M  V30 1715 H 157.186 -0.135146 -1.48787 0
M  V30 1716 H 159.068 2.25417 -3.56041 0
M  V30 1717 H 157.743 2.20982 -2.36535 0
M  V30 1718 H 156.65 0.334064 -3.72605 0
M  V30 1719 H 157.983 0.459131 -4.90054 0
M  V30 1720 N 159.635 1.57281 -0.100228 0
M  V30 1721 C 160.565 2.17328 0.853857 0
M  V30 1722 C 161.546 1.10804 1.2906 0
M  V30 1723 O 162.731 1.38963 1.35657 0
M  V30 1724 C 159.861 2.75772 2.11109 0
M  V30 1725 C 158.815 3.87713 1.81279 0
M  V30 1726 C 158.141 4.32882 3.13874 0
M  V30 1727 C 159.441 5.10677 1.09574 0
M  V30 1728 H 161.135 2.97305 0.353545 0
M  V30 1729 H 158.681 1.43009 0.168612 0
M  V30 1730 H 160.634 3.16433 2.78296 0
M  V30 1731 H 159.358 1.93057 2.63432 0
M  V30 1732 H 158.017 3.476 1.16489 0
M  V30 1733 H 157.665 3.47051 3.64095 0
M  V30 1734 H 157.365 5.08358 2.94696 0
M  V30 1735 H 158.889 4.7618 3.82211 0
M  V30 1736 H 160.303 5.48474 1.66879 0
M  V30 1737 H 158.7 5.91615 1.00557 0
M  V30 1738 H 159.77 4.84835 0.0793299 0
M  V30 1739 N 161.113 -0.173488 1.56642 0
M  V30 1740 C 162.529 -0.525174 1.50712 0
M  V30 1741 C 162.729 -1.8476 0.804107 0
M  V30 1742 O 161.785 -2.49869 0.363574 0
M  V30 1743 C 163.098 -0.559937 2.95441 0
M  V30 1744 C 164.646 -0.647288 3.06234 0
M  V30 1745 C 165.121 -0.712963 4.52417 0
M  V30 1746 N 166.612 -0.775911 4.56655 0
M  V30 1747 C 167.347 -0.847264 5.67106 0
M  V30 1748 N 166.843 -0.879585 6.87194 0
M  V30 1749 N 168.636 -0.886117 5.55071 0
M  V30 1750 H 160.787 0.693681 2.00753 0
M  V30 1751 H 163.05 0.249841 0.914485 0
M  V30 1752 H 162.756 0.343049 3.50023 0
M  V30 1753 H 162.63 -1.40718 3.49969 0
M  V30 1754 H 165.017 -1.5407 2.51687 0
M  V30 1755 H 165.098 0.226586 2.54794 0
M  V30 1756 H 164.742 0.176183 5.07594 0
M  V30 1757 H 164.672 -1.60295 5.0161 0
M  V30 1758 H 167.163 -0.759304 3.70193 0
M  V30 1759 H 167.476 -0.935144 7.67121 0
M  V30 1760 H 165.821 -0.847898 6.89808 0
M  V30 1761 H 169.012 -0.857853 4.60172 0
M  V30 1762 H 169.185 -0.938263 6.41171 0
M  V30 1763 N 162.591 -1.51276 -0.441967 0
M  V30 1764 C 163.816 -1.67799 -1.21895 0
M  V30 1765 C 164.241 -0.372864 -1.84367 0
M  V30 1766 O 163.599 0.666501 -1.68604 0
M  V30 1767 C 163.647 -2.79199 -2.28211 0
M  V30 1768 O 162.751 -2.42479 -3.33583 0
M  V30 1769 H 162.092 -0.559649 -0.357336 0
M  V30 1770 H 164.622 -1.97815 -0.522522 0
M  V30 1771 H 164.632 -3.03146 -2.73069 0
M  V30 1772 H 163.307 -3.73906 -1.82118 0
M  V30 1773 H 161.884 -2.29087 -2.94234 0
M  V30 1774 N 164.069 0.697108 -1.41344 0
M  V30 1775 C 164.999 1.82353 -1.45841 0
M  V30 1776 C 165.98 1.67115 -0.317247 0
M  V30 1777 O 167.165 1.86871 -0.528474 0
M  V30 1778 C 164.295 3.20476 -1.33838 0
M  V30 1779 C 163.249 3.50415 -2.4575 0
M  V30 1780 C 162.575 4.87878 -2.18813 0
M  V30 1781 C 163.875 3.49546 -3.88091 0
M  V30 1782 H 165.569 1.78846 -2.40113 0
M  V30 1783 H 163.115 0.859028 -1.15571 0
M  V30 1784 H 165.068 3.98988 -1.35596 0
M  V30 1785 H 163.792 3.24604 -0.360498 0
M  V30 1786 H 162.451 2.74253 -2.43271 0
M  V30 1787 H 162.099 4.8863 -1.19371 0
M  V30 1788 H 161.799 5.08875 -2.93803 0
M  V30 1789 H 163.323 5.68702 -2.22284 0
M  V30 1790 H 164.737 4.18066 -3.92293 0
M  V30 1791 H 163.134 3.82075 -4.62751 0
M  V30 1792 H 164.204 2.48552 -4.16353 0
M  V30 1793 N 165.547 1.27147 0.931209 0
M  V30 1794 C 166.477 1.12081 2.04842 0
M  V30 1795 C 167.458 0.0232364 1.70084 0
M  V30 1796 O 168.643 0.197085 1.93197 0
M  V30 1797 C 165.773 0.76354 3.38803 0
M  V30 1798 C 164.727 1.81396 3.87659 0
M  V30 1799 C 164.053 1.31075 5.18385 0
M  V30 1800 C 165.353 3.21739 4.11438 0
M  V30 1801 H 167.047 2.05537 2.17703 0
M  V30 1802 H 164.593 0.989603 1.04608 0
M  V30 1803 H 166.546 0.644982 4.16435 0
M  V30 1804 H 165.27 -0.206727 3.25945 0
M  V30 1805 H 163.929 1.92136 3.12217 0
M  V30 1806 H 163.577 0.330037 5.01916 0
M  V30 1807 H 163.277 2.013 5.52044 0
M  V30 1808 H 164.801 1.20506 5.98591 0
M  V30 1809 H 166.215 3.14019 4.79651 0
M  V30 1810 H 164.612 3.89644 4.56397 0
M  V30 1811 H 165.682 3.67054 3.16859 0
M  V30 1812 N 167.025 -1.13721 1.09112 0
M  V30 1813 C 168.253 -1.88773 0.846899 0
M  V30 1814 C 168.668 -1.7896 -0.601572 0
M  V30 1815 O 168.025 -1.15394 -1.41388 0
M  V30 1816 C 168.076 -3.3849 1.26913 0
M  V30 1817 O 167.797 -3.48043 2.66079 0
M  V30 1818 C 169.298 -4.30518 1.05682 0
M  V30 1819 H 166.518 -0.59772 0.304914 0
M  V30 1820 H 169.062 -1.43977 1.45227 0
M  V30 1821 H 167.217 -3.80881 0.707723 0
M  V30 1822 H 167.631 -4.4109 2.83795 0
M  V30 1823 H 169.105 -5.3391 1.40156 0
M  V30 1824 H 169.582 -4.392 -0.00563416 0
M  V30 1825 H 170.188 -3.93893 1.60402 0
M  V30 1826 N 168.503 -0.877838 -1.30888 0
M  V30 1827 C 169.731 -0.507414 -2.00581 0
M  V30 1828 C 170.146 0.902216 -1.65848 0
M  V30 1829 O 169.503 1.59225 -0.891831 0
M  V30 1830 C 169.554 -0.664162 -3.55347 0
M  V30 1831 O 169.275 -2.01829 -3.8884 0
M  V30 1832 C 170.776 -0.295787 -4.42312 0
M  V30 1833 H 167.996 -0.196866 -0.641471 0
M  V30 1834 H 170.54 -1.18117 -1.66939 0
M  V30 1835 H 168.695 -0.0378619 -3.87381 0
M  V30 1836 H 169.109 -2.03174 -4.8355 0
M  V30 1837 H 170.583 -0.456388 -5.5011 0
M  V30 1838 H 171.06 0.765663 -4.32475 0
M  V30 1839 H 171.666 -0.898113 -4.15709 0
M  V30 1840 N 169.982 1.44106 -0.638065 0
M  V30 1841 C 170.892 2.34513 0.0637334 0
M  V30 1842 C 171.908 1.53018 0.828346 0
M  V30 1843 O 173.084 1.85723 0.779036 0
M  V30 1844 C 170.149 3.31095 1.02844 0
M  V30 1845 C 169.21 4.28497 0.26244 0
M  V30 1846 C 168.443 5.20465 1.1812 0
M  V30 1847 O 168.666 5.16514 2.42011 0
M  V30 1848 O 167.6 5.98251 0.661774 0
M  V30 1849 H 171.426 2.95989 -0.68003 0
M  V30 1850 H 169.011 1.43994 -0.398252 0
M  V30 1851 H 170.893 3.90526 1.58327 0
M  V30 1852 H 169.568 2.72144 1.7527 0
M  V30 1853 H 168.475 3.72592 -0.335602 0
M  V30 1854 H 169.808 4.90388 -0.421936 0
M  V30 1855 N 171.46 0.379036 1.52974 0
M  V30 1856 C 172.707 -0.206421 2.01445 0
M  V30 1857 C 173.035 -1.47668 1.26587 0
M  V30 1858 O 172.29 -1.92514 0.351675 0
M  V30 1859 C 172.589 -0.53096 3.53434 0
M  V30 1860 C 172.255 0.646546 4.46241 0
M  V30 1861 C 170.917 0.969604 4.7133 0
M  V30 1862 C 173.269 1.43479 5.01062 0
M  V30 1863 C 170.597 2.08263 5.48492 0
M  V30 1864 C 172.949 2.53834 5.7944 0
M  V30 1865 C 171.613 2.86659 6.02812 0
M  V30 1866 H 170.883 -0.0755349 0.73714 0
M  V30 1867 H 173.53 0.514271 1.84465 0
M  V30 1868 H 171.835 -1.33285 3.68432 0
M  V30 1869 H 173.532 -0.996417 3.88423 0
M  V30 1870 H 170.122 0.384734 4.2687 0
M  V30 1871 H 174.306 1.19844 4.81613 0
M  V30 1872 H 169.562 2.34078 5.64816 0
M  V30 1873 H 173.736 3.15319 6.20924 0
M  V30 1874 H 171.363 3.73026 6.62387 0
M  V30 1875 N 172.938 -1.57226 0.108567 0
M  V30 1876 C 174.163 -1.99604 -0.563303 0
M  V30 1877 C 174.588 -0.987563 -1.6009 0
M  V30 1878 O 173.946 0.0421687 -1.81251 0
M  V30 1879 C 173.994 -3.40902 -1.17552 0
M  V30 1880 O 173.098 -3.42896 -2.2912 0
M  V30 1881 H 172.439 -0.648704 -0.1417 0
M  V30 1882 H 174.969 -2.03679 0.193961 0
M  V30 1883 H 174.979 -3.78886 -1.51357 0
M  V30 1884 H 173.654 -4.1382 -0.415445 0
M  V30 1885 H 172.231 -3.1672 -1.96832 0
M  V30 1886 N 174.416 0.165178 -1.56732 0
M  V30 1887 C 175.827 0.727046 -1.71962 0
M  V30 1888 C 176.178 1.82508 -0.720078 0
M  V30 1889 O 175.303 2.16082 0.117242 0
M  V30 1890 C 175.898 1.32559 -3.11791 0
M  V30 1891 C 174.457 1.83422 -3.28684 0
M  V30 1892 C 173.604 0.715567 -2.67908 0
M  V30 1893 H 176.555 -0.0602896 -1.58585 0
M  V30 1894 H 176.576 2.19533 -3.10782 0
M  V30 1895 H 176.088 0.526195 -3.84516 0
M  V30 1896 H 174.189 2.65986 -2.60926 0
M  V30 1897 H 174.302 1.97543 -4.36478 0
M  V30 1898 H 172.666 1.13758 -2.27884 0
M  V30 1899 H 173.449 -0.0720836 -3.43224 0
M  V30 1900 N 175.894 1.51508 0.433938 0
M  V30 1901 C 177.119 1.68443 1.21003 0
M  V30 1902 C 177.544 0.382636 1.84167 0
M  V30 1903 O 176.902 -0.65755 1.68956 0
M  V30 1904 C 176.95 2.80405 2.26727 0
M  V30 1905 O 176.054 2.44245 3.32292 0
M  V30 1906 H 175.395 0.561536 0.354363 0
M  V30 1907 H 177.925 1.9809 0.512024 0
M  V30 1908 H 177.935 3.0459 2.71457 0
M  V30 1909 H 176.61 3.74867 1.80132 0
M  V30 1910 H 175.187 2.30644 2.93015 0
M  V30 1911 N 177.372 -0.689602 1.41712 0
M  V30 1912 C 178.621 -1.44534 1.40686 0
M  V30 1913 C 178.934 -1.95588 0.0213352 0
M  V30 1914 O 180.14 -2.71271 -0.111534 0
M  V30 1915 C 178.596 -2.61387 2.47396 0
M  V30 1916 C 178.204 -2.17094 3.91885 0
M  V30 1917 C 179.948 -3.38986 2.55517 0
M  V30 1918 C 177.855 -3.3094 4.90135 0
M  V30 1919 H 176.785 -0.542925 0.52321 0
M  V30 1920 H 179.436 -0.748054 1.6756 0
M  V30 1921 H 177.818 -3.33412 2.13664 0
M  V30 1922 H 178.992 -1.52318 4.34897 0
M  V30 1923 H 177.307 -1.52473 3.8748 0
M  V30 1924 H 179.904 -4.23747 3.26102 0
M  V30 1925 H 180.247 -3.84578 1.59391 0
M  V30 1926 H 180.78 -2.74021 2.8837 0
M  V30 1927 H 177.519 -2.90355 5.87685 0
M  V30 1928 H 177.039 -3.94546 4.51767 0
M  V30 1929 H 178.718 -3.9663 5.11169 0
M  V30 1930 N 178.85 -1.27639 -0.924453 0
M  V30 1931 C 180.096 -1.14336 -1.67497 0
M  V30 1932 C 180.429 0.309465 -1.91718 0
M  V30 1933 O 179.704 1.22608 -1.50989 0
M  V30 1934 C 179.987 -1.93096 -3.0395 0
M  V30 1935 C 179.84 -3.46381 -2.8695 0
M  V30 1936 C 181.159 -1.73798 -4.0433 0
M  V30 1937 H 178.278 -0.416728 -0.607871 0
M  V30 1938 H 180.92 -1.56832 -1.07256 0
M  V30 1939 H 179.07 -1.56982 -3.55372 0
M  V30 1940 H 180.742 -3.92343 -2.42621 0
M  V30 1941 H 178.985 -3.72557 -2.22225 0
M  V30 1942 H 179.656 -3.96735 -3.83804 0
M  V30 1943 H 182.132 -2.05293 -3.61931 0
M  V30 1944 H 181.008 -2.31294 -4.97789 0
M  V30 1945 H 181.269 -0.686725 -4.36734 0
M  V30 1946 N 180.328 1.1314 -1.09713 0
M  V30 1947 C 181.556 1.88321 -0.856898 0
M  V30 1948 C 181.971 1.79276 0.592073 0
M  V30 1949 O 181.328 1.16142 1.40774 0
M  V30 1950 C 181.379 3.37812 -1.28706 0
M  V30 1951 O 181.1 3.46627 -2.67921 0
M  V30 1952 C 182.601 4.29952 -1.07964 0
M  V30 1953 H 179.821 0.596094 -0.308079 0
M  V30 1954 H 182.365 1.43205 -1.45988 0
M  V30 1955 H 180.52 3.805 -0.727912 0
M  V30 1956 H 180.934 4.39579 -2.8613 0
M  V30 1957 H 182.408 5.33159 -1.42986 0
M  V30 1958 H 182.885 4.39196 -0.0176577 0
M  V30 1959 H 183.491 3.93036 -1.62489 0
M  V30 1960 N 181.806 0.884767 1.30421 0
M  V30 1961 C 183.054 0.502112 1.95763 0
M  V30 1962 C 183.375 -0.951815 1.70192 0
M  V30 1963 O 182.645 -1.6692 1.0254 0
M  V30 1964 H 181.225 0.182694 0.724315 0
M  V30 1965 H 183.887 1.1278 1.58955 0
M  V30 1966 H 182.983 0.672188 3.04775 0
M  V30 1967 N 183.284 -1.43765 0.645699 0
M  V30 1968 C 184.214 -2.33471 -0.0370477 0
M  V30 1969 C 185.195 -1.49042 -0.819779 0
M  V30 1970 O 186.38 -1.77726 -0.782758 0
M  V30 1971 C 183.51 -3.32311 -1.0093 0
M  V30 1972 C 182.464 -4.2667 -0.337201 0
M  V30 1973 C 181.79 -5.1549 -1.42037 0
M  V30 1974 C 183.09 -5.16657 0.765706 0
M  V30 1975 H 184.784 -2.90809 0.712069 0
M  V30 1976 H 182.33 -1.39834 0.343876 0
M  V30 1977 H 184.283 -3.9396 -1.49578 0
M  V30 1978 H 183.007 -2.73213 -1.78948 0
M  V30 1979 H 181.666 -3.66374 0.128771 0
M  V30 1980 H 181.314 -4.52735 -2.1918 0
M  V30 1981 H 181.014 -5.79438 -0.975966 0
M  V30 1982 H 182.538 -5.80012 -1.90838 0
M  V30 1983 H 183.952 -5.72158 0.361702 0
M  V30 1984 H 182.349 -5.89286 1.13413 0
M  V30 1985 H 183.419 -4.56796 1.62683 0
M  V30 1986 N 184.763 -0.387143 -1.52771 0
M  V30 1987 C 186.179 -0.037007 -1.59557 0
M  V30 1988 C 186.379 1.44801 -1.40124 0
M  V30 1989 O 185.435 2.21227 -1.21716 0
M  V30 1990 C 186.748 -0.512256 -2.96305 0
M  V30 1991 C 188.296 -0.468328 -3.09476 0
M  V30 1992 C 188.771 -0.919731 -4.4867 0
M  V30 1993 N 190.262 -0.875656 -4.54848 0
M  V30 1994 C 190.997 -1.19637 -5.6078 0
M  V30 1995 N 190.493 -1.58745 -6.74368 0
M  V30 1996 N 192.286 -1.11776 -5.50874 0
M  V30 1997 H 184.437 -1.35395 -1.63652 0
M  V30 1998 H 186.7 -0.554818 -0.768688 0
M  V30 1999 H 186.406 -1.54935 -3.15734 0
M  V30 2000 H 186.28 0.089805 -3.77093 0
M  V30 2001 H 188.667 0.559671 -2.89744 0
M  V30 2002 H 188.748 -1.10616 -2.30646 0
M  V30 2003 H 188.392 -1.94595 -4.69143 0
M  V30 2004 H 188.322 -0.258927 -5.25963 0
M  V30 2005 H 190.813 -0.587843 -3.733 0
M  V30 2006 H 191.126 -1.81586 -7.51163 0
M  V30 2007 H 189.471 -1.6263 -6.75705 0
M  V30 2008 H 192.662 -0.811264 -4.61016 0
M  V30 2009 H 192.835 -1.37103 -6.3333 0
M  V30 2010 N 186.241 1.57166 -0.116904 0
M  V30 2011 C 187.652 1.82169 0.408809 0
M  V30 2012 C 188.003 1.03393 1.66746 0
M  V30 2013 O 187.128 0.269886 2.1471 0
M  V30 2014 C 187.723 3.30429 0.748466 0
M  V30 2015 C 186.282 3.5612 1.21882 0
M  V30 2016 C 185.429 2.76374 0.226452 0
M  V30 2017 H 188.38 1.5497 -0.342063 0
M  V30 2018 H 188.401 3.44943 1.60607 0
M  V30 2019 H 187.913 3.87737 -0.167784 0
M  V30 2020 H 186.014 3.04168 2.15204 0
M  V30 2021 H 186.127 4.64705 1.16559 0
M  V30 2022 H 184.491 2.44515 0.713063 0
M  V30 2023 H 185.274 3.3644 -0.682859 0
M  V30 2024 N 187.719 -0.156864 1.56817 0
M  V30 2025 C 189.135 -0.50916 1.5126 0
M  V30 2026 C 189.335 -1.83897 0.823658 0
M  V30 2027 O 188.391 -2.49469 0.390055 0
M  V30 2028 C 189.704 -0.52857 2.96018 0
M  V30 2029 C 191.252 -0.614771 3.06903 0
M  V30 2030 C 191.727 -0.664938 4.53147 0
M  V30 2031 N 193.218 -0.727433 4.57452 0
M  V30 2032 C 193.953 -0.787067 5.67973 0
M  V30 2033 N 193.449 -0.806649 6.88088 0
M  V30 2034 N 195.242 -0.827195 5.5598 0
M  V30 2035 H 187.393 0.714935 2.00006 0
M  V30 2036 H 189.656 0.259526 0.911784 0
M  V30 2037 H 189.362 0.380154 3.49639 0
M  V30 2038 H 189.236 -1.36998 3.51442 0
M  V30 2039 H 191.623 -1.51392 2.53307 0
M  V30 2040 H 191.704 0.253597 2.5454 0
M  V30 2041 H 191.348 0.230011 5.07379 0
M  V30 2042 H 191.278 -1.54966 5.03282 0
M  V30 2043 H 193.769 -0.719998 3.70978 0
M  V30 2044 H 194.082 -0.853727 7.6807 0
M  V30 2045 H 192.427 -0.774687 6.90669 0
M  V30 2046 H 195.618 -0.808998 4.61056 0
M  V30 2047 H 195.791 -0.870206 6.4213 0
M  V30 2048 N 189.197 -1.51736 -0.425897 0
M  V30 2049 C 190.446 -1.64201 -1.17136 0
M  V30 2050 C 190.759 -0.369705 -1.92074 0
M  V30 2051 O 191.965 -0.373898 -2.68913 0
M  V30 2052 C 190.421 -2.90035 -2.13091 0
M  V30 2053 C 190.029 -4.24312 -1.43747 0
M  V30 2054 C 191.773 -3.1186 -2.87999 0
M  V30 2055 C 189.68 -5.41285 -2.38253 0
M  V30 2056 H 188.61 -0.611624 -0.440944 0
M  V30 2057 H 191.261 -1.78212 -0.437328 0
M  V30 2058 H 189.643 -2.69684 -2.89977 0
M  V30 2059 H 190.817 -4.55086 -0.723408 0
M  V30 2060 H 189.132 -4.08456 -0.809465 0
M  V30 2061 H 191.729 -3.96427 -3.58817 0
M  V30 2062 H 192.072 -2.25403 -3.49999 0
M  V30 2063 H 192.605 -3.32605 -2.18217 0
M  V30 2064 H 189.344 -6.30037 -1.80925 0
M  V30 2065 H 188.864 -5.14872 -3.0768 0
M  V30 2066 H 190.543 -5.73694 -2.99139 0
M  V30 2067 N 190.675 0.682077 -1.42076 0
M  V30 2068 C 191.638 1.77756 -1.44691 0
M  V30 2069 C 192.638 1.5726 -0.335535 0
M  V30 2070 O 193.828 1.63686 -0.596037 0
M  V30 2071 C 190.96 3.16301 -1.27146 0
M  V30 2072 H 192.153 1.76826 -2.42224 0
M  V30 2073 H 189.706 0.891012 -1.28416 0
M  V30 2074 H 190.441 3.22862 -0.305075 0
M  V30 2075 H 190.226 3.32581 -2.07683 0
M  V30 2076 H 191.716 3.96241 -1.31843 0
M  V30 2077 N 192.153 1.28127 0.917671 0
M  V30 2078 C 193.063 1.13556 2.05286 0
M  V30 2079 C 194.079 0.0630914 1.73886 0
M  V30 2080 O 195.255 0.271598 1.9956 0
M  V30 2081 C 192.32 0.794676 3.3747 0
M  V30 2082 C 191.381 1.94909 3.82504 0
M  V30 2083 C 190.614 1.62437 5.0838 0
M  V30 2084 O 190.837 0.536905 5.67867 0
M  V30 2085 O 189.771 2.46677 5.4903 0
M  V30 2086 H 193.597 2.08844 2.20495 0
M  V30 2087 H 191.182 1.07409 1.03845 0
M  V30 2088 H 193.064 0.618344 4.16839 0
M  V30 2089 H 191.739 -0.128581 3.23445 0
M  V30 2090 H 190.646 2.18055 3.03978 0
M  V30 2091 H 191.979 2.85291 4.01086 0
M  V30 2092 N 193.631 -1.12557 1.10312 0
M  V30 2093 C 194.561 -2.20341 0.772798 0
M  V30 2094 C 195.542 -1.68198 -0.25365 0
M  V30 2095 O 196.727 -1.93831 -0.119699 0
M  V30 2096 C 193.857 -3.46709 0.202443 0
M  V30 2097 C 192.811 -4.11996 1.15943 0
M  V30 2098 C 192.137 -5.328 0.450345 0
M  V30 2099 C 193.437 -4.5828 2.50552 0
M  V30 2100 H 195.131 -2.48229 1.674 0
M  V30 2101 H 192.677 -1.19308 0.806326 0
M  V30 2102 H 194.63 -4.2138 -0.0407752 0
M  V30 2103 H 193.354 -3.18245 -0.734001 0
M  V30 2104 H 192.013 -3.39305 1.38808 0
M  V30 2105 H 191.661 -5.00602 -0.490531 0
M  V30 2106 H 191.361 -5.7743 1.08851 0
M  V30 2107 H 192.885 -6.10219 0.215642 0
M  V30 2108 H 194.299 -5.2433 2.31843 0
M  V30 2109 H 192.696 -5.13683 3.10242 0
M  V30 2110 H 193.766 -3.72329 3.10643 0
M  V30 2111 N 195.109 -0.891671 -1.2995 0
M  V30 2112 C 196.072 -0.36828 -2.26222 0
M  V30 2113 C 197.072 0.493014 -1.53056 0
M  V30 2114 O 198.262 0.299213 -1.71611 0
M  V30 2115 C 195.394 0.47442 -3.37583 0
M  V30 2116 H 196.587 -1.21844 -2.74033 0
M  V30 2117 H 194.14 -0.669107 -1.41254 0
M  V30 2118 H 194.875 1.34489 -2.95099 0
M  V30 2119 H 194.66 -0.142615 -3.91841 0
M  V30 2120 H 196.15 0.83218 -4.09224 0
M  V30 2121 N 196.587 1.43421 -0.653314 0
M  V30 2122 C 197.812 2.06678 -0.172846 0
M  V30 2123 C 198.237 1.48648 1.15262 0
M  V30 2124 O 197.595 0.596457 1.71208 0
M  V30 2125 C 197.643 3.60474 -0.0953184 0
M  V30 2126 O 196.747 4.01487 0.942442 0
M  V30 2127 H 196.088 0.657181 -0.0949155 0
M  V30 2128 H 198.618 1.83925 -0.896265 0
M  V30 2129 H 198.628 4.07905 0.0879728 0
M  V30 2130 H 197.303 4.02088 -1.06291 0
M  V30 2131 H 195.88 3.65646 0.731932 0
M  V30 2132 N 198.065 0.39524 1.52563 0
M  V30 2133 C 199.028 -0.425001 2.25225 0
M  V30 2134 C 200.028 -0.985266 1.27079 0
M  V30 2135 O 201.218 -0.866332 1.5113 0
M  V30 2136 C 198.35 -1.59686 3.01186 0
M  V30 2137 H 199.543 0.211233 2.99155 0
M  V30 2138 H 197.096 0.147472 1.55603 0
M  V30 2139 H 197.831 -2.27035 2.31572 0
M  V30 2140 H 197.616 -1.20176 3.73229 0
M  V30 2141 H 199.106 -2.17743 3.5634 0
M  V30 2142 N 199.544 -1.57102 0.125237 0
M  V30 2143 C 200.474 -2.18659 -0.819174 0
M  V30 2144 C 201.455 -1.12843 -1.27281 0
M  V30 2145 O 202.64 -1.41104 -1.33429 0
M  V30 2146 C 199.77 -2.79096 -2.06695 0
M  V30 2147 C 198.724 -3.90548 -1.75088 0
M  V30 2148 C 198.05 -4.37821 -3.06948 0
M  V30 2149 C 199.35 -5.12356 -1.01435 0
M  V30 2150 H 201.044 -2.9783 -0.306202 0
M  V30 2151 H 198.59 -1.4326 -0.145839 0
M  V30 2152 H 200.543 -3.2082 -2.73226 0
M  V30 2153 H 199.267 -1.97223 -2.60328 0
M  V30 2154 H 197.926 -3.49409 -1.10944 0
M  V30 2155 H 197.574 -3.52799 -3.58527 0
M  V30 2156 H 197.274 -5.12982 -2.86571 0
M  V30 2157 H 198.798 -4.822 -3.74587 0
M  V30 2158 H 200.212 -5.5106 -1.58132 0
M  V30 2159 H 198.609 -5.9314 -0.911319 0
M  V30 2160 H 199.679 -4.849 -0.00218681 0
M  V30 2161 N 201.022 0.148545 -1.56898 0
M  V30 2162 C 201.952 1.18524 -2.01182 0
M  V30 2163 C 202.933 1.4489 -0.891123 0
M  V30 2164 O 204.118 1.55836 -1.15882 0
M  V30 2165 C 201.248 2.51879 -2.39112 0
M  V30 2166 C 200.202 2.40038 -3.54353 0
M  V30 2167 C 199.528 3.78089 -3.78091 0
M  V30 2168 C 200.828 1.88577 -4.87069 0
M  V30 2169 H 202.522 0.817029 -2.88036 0
M  V30 2170 H 200.068 0.391575 -1.38574 0
M  V30 2171 H 202.021 3.24627 -2.68692 0
M  V30 2172 H 200.745 2.90532 -1.49193 0
M  V30 2173 H 199.404 1.69742 -3.24936 0
M  V30 2174 H 199.052 4.14175 -2.85426 0
M  V30 2175 H 198.752 3.71028 -4.55645 0
M  V30 2176 H 200.276 4.52387 -4.10095 0
M  V30 2177 H 201.69 2.51117 -5.15377 0
M  V30 2178 H 200.087 1.9241 -5.68417 0
M  V30 2179 H 201.157 0.84136 -4.77545 0
M  V30 2180 N 202.5 1.5196 0.417844 0
M  V30 2181 C 203.777 1.56146 1.17803 0
M  V30 2182 C 204.157 0.337275 2.08388 0
M  V30 2183 O 203.505 -0.676447 2.18258 0
M  V30 2184 C 203.715 2.88566 1.96293 0
M  V30 2185 C 205.063 3.41244 2.52662 0
M  V30 2186 O 206.087 2.90247 2.06483 0
M  V30 2187 O 204.946 4.30273 3.36938 0
M  V30 2188 H 202.04 0.628598 0.537395 0
M  V30 2189 H 204.586 1.64283 0.425331 0
M  V30 2190 H 203.358 3.69116 1.2988 0
M  V30 2191 H 202.981 2.83681 2.78587 0
M  V30 2192 N 203.978 -0.674533 1.42435 0
M  V30 2193 C 205.394 -0.98769 1.25367 0
M  V30 2194 C 205.594 -2.00879 0.158044 0
M  V30 2195 O 204.65 -2.48075 -0.470633 0
M  V30 2196 C 205.963 -1.49224 2.6106 0
M  V30 2197 C 207.511 -1.61 2.68417 0
M  V30 2198 C 207.986 -2.14852 4.04478 0
M  V30 2199 N 209.477 -2.22185 4.06434 0
M  V30 2200 C 210.212 -2.64928 5.08528 0
M  V30 2201 N 209.708 -3.07121 6.21006 0
M  V30 2202 N 211.501 -2.64679 4.95885 0
M  V30 2203 H 203.652 0.00152503 2.124 0
M  V30 2204 H 205.915 -0.0618434 0.945981 0
M  V30 2205 H 205.621 -0.816453 3.42092 0
M  V30 2206 H 205.495 -2.47094 2.84999 0
M  V30 2207 H 207.882 -2.27686 1.87732 0
M  V30 2208 H 207.963 -0.616195 2.48267 0
M  V30 2209 H 207.607 -1.48775 4.85622 0
M  V30 2210 H 207.537 -3.15024 4.2198 0
M  V30 2211 H 210.028 -1.92435 3.25234 0
M  V30 2212 H 210.341 -3.38423 6.94759 0
M  V30 2213 H 208.686 -3.04978 6.24511 0
M  V30 2214 H 211.877 -2.31078 4.07088 0
M  V30 2215 H 212.05 -2.9767 5.75584 0
M  V30 2216 N 205.456 -1.28612 -0.910864 0
M  V30 2217 C 206.386 -1.15326 -2.03032 0
M  V30 2218 C 207.367 -0.0502924 -1.70026 0
M  V30 2219 O 208.552 -0.227797 -1.92859 0
M  V30 2220 C 205.682 -0.817343 -3.37545 0
M  V30 2221 C 204.636 -1.8754 -3.84724 0
M  V30 2222 C 203.962 -1.39305 -5.16235 0
M  V30 2223 C 205.262 -3.28244 -4.06267 0
M  V30 2224 H 206.956 -2.08975 -2.14406 0
M  V30 2225 H 204.502 -1.00612 -1.03021 0
M  V30 2226 H 206.455 -0.711151 -4.15356 0
M  V30 2227 H 205.179 0.154846 -3.26233 0
M  V30 2228 H 203.838 -1.97079 -3.09121 0
M  V30 2229 H 203.486 -0.409846 -5.01328 0
M  V30 2230 H 203.186 -2.10057 -5.48771 0
M  V30 2231 H 204.71 -1.30014 -5.96598 0
M  V30 2232 H 206.124 -3.21611 -4.74594 0
M  V30 2233 H 204.521 -3.96855 -4.5014 0
M  V30 2234 H 205.591 -3.72048 -3.10979 0
M  V30 2235 N 206.934 1.1197 -1.10907 0
M  V30 2236 C 208.35 1.35591 -0.841852 0
M  V30 2237 C 208.55 1.94233 0.536246 0
M  V30 2238 O 207.606 2.1717 1.28816 0
M  V30 2239 C 208.919 2.29284 -1.94549 0
M  V30 2240 C 210.467 2.42862 -1.97451 0
M  V30 2241 C 210.942 3.39873 -3.07002 0
M  V30 2242 N 212.433 3.47433 -3.06341 0
M  V30 2243 C 213.168 4.22421 -3.87748 0
M  V30 2244 N 212.664 5.00432 -4.79103 0
M  V30 2245 N 214.457 4.17876 -3.75946 0
M  V30 2246 H 206.608 0.722664 -1.99728 0
M  V30 2247 H 208.871 0.380635 -0.868229 0
M  V30 2248 H 208.577 1.93378 -2.93765 0
M  V30 2249 H 208.451 3.29452 -1.83688 0
M  V30 2250 H 210.838 2.78046 -0.988645 0
M  V30 2251 H 210.919 1.42566 -2.12388 0
M  V30 2252 H 210.563 3.05417 -4.05811 0
M  V30 2253 H 210.493 4.40011 -2.89306 0
M  V30 2254 H 212.984 2.91784 -2.40147 0
M  V30 2255 H 213.297 5.55002 -5.37766 0
M  V30 2256 H 211.642 4.99612 -4.83128 0
M  V30 2257 H 214.833 3.56016 -3.03924 0
M  V30 2258 H 215.006 4.76061 -4.39624 0
M  V30 2259 N 208.412 0.89855 1.29475 0
M  V30 2260 C 209.375 0.380272 2.26023 0
M  V30 2261 C 210.375 -0.484891 1.53315 0
M  V30 2262 O 211.565 -0.290108 1.71767 0
M  V30 2263 C 208.697 -0.45651 3.3783 0
M  V30 2264 H 209.89 1.23295 2.73383 0
M  V30 2265 H 207.443 0.676589 1.40897 0
M  V30 2266 H 208.178 -1.32922 2.95808 0
M  V30 2267 H 207.963 0.163393 3.91759 0
M  V30 2268 H 209.453 -0.810466 4.0966 0
M  V30 2269 N 209.89 -1.43072 0.660911 0
M  V30 2270 C 210.822 -2.29108 -0.0647641 0
M  V30 2271 C 211.835 -1.42928 -0.779448 0
M  V30 2272 O 213.024 -1.66788 -0.635921 0
M  V30 2273 C 210.124 -3.20032 -1.11503 0
M  V30 2274 C 209.297 -4.34792 -0.476955 0
M  V30 2275 C 208.356 -5.06534 -1.42513 0
M  V30 2276 O 207.382 -5.61538 -0.930771 0
M  V30 2277 N 208.584 -5.1075 -2.75889 0
M  V30 2278 H 211.349 -2.92029 0.673731 0
M  V30 2279 H 208.91 -1.53846 0.50427 0
M  V30 2280 H 210.902 -3.64892 -1.75032 0
M  V30 2281 H 209.472 -2.58658 -1.75541 0
M  V30 2282 H 208.692 -3.92752 0.337572 0
M  V30 2283 H 209.98 -5.0879 -0.0318525 0
M  V30 2284 H 209.378 -4.67447 -3.18606 0
M  V30 2285 H 207.935 -5.59302 -3.347 0
M  V30 2286 N 211.368 -0.403325 -1.52352 0
M  V30 2287 C 212.784 -0.0539281 -1.59509 0
M  V30 2288 C 212.984 1.43307 -1.41652 0
M  V30 2289 O 212.04 2.19924 -1.24056 0
M  V30 2290 C 213.353 -0.543654 -2.95745 0
M  V30 2291 C 214.901 -0.501125 -3.08962 0
M  V30 2292 C 215.376 -0.967267 -4.47669 0
M  V30 2293 N 216.867 -0.923849 -4.53893 0
M  V30 2294 C 217.602 -1.25578 -5.5948 0
M  V30 2295 N 217.098 -1.65889 -6.72646 0
M  V30 2296 N 218.891 -1.17613 -5.49658 0
M  V30 2297 H 211.042 -1.37123 -1.62206 0
M  V30 2298 H 213.305 -0.56294 -0.76276 0
M  V30 2299 H 213.011 -1.58275 -3.14073 0
M  V30 2300 H 212.885 0.0498042 -3.77167 0
M  V30 2301 H 215.272 0.528909 -2.90321 0
M  V30 2302 H 215.353 -1.13056 -2.2946 0
M  V30 2303 H 214.997 -1.9956 -4.67053 0
M  V30 2304 H 214.927 -0.314698 -5.25659 0
M  V30 2305 H 217.418 -0.627403 -3.72655 0
M  V30 2306 H 217.731 -1.89543 -7.49195 0
M  V30 2307 H 216.076 -1.69787 -6.73942 0
M  V30 2308 H 219.267 -0.860115 -4.6013 0
M  V30 2309 H 219.44 -1.43812 -6.3184 0
M  V30 2310 N 212.846 1.57033 -0.133567 0
M  V30 2311 C 214.262 1.58035 0.222944 0
M  V30 2312 C 214.462 1.14713 1.6566 0
M  V30 2313 O 213.518 0.841218 2.38075 0
M  V30 2314 C 214.831 3.00691 -0.0236116 0
M  V30 2315 C 216.379 3.12973 0.0411512 0
M  V30 2316 C 216.854 4.57654 -0.177899 0
M  V30 2317 N 218.345 4.63033 -0.124365 0
M  V30 2318 C 219.08 5.72771 -0.268553 0
M  V30 2319 N 218.576 6.91206 -0.46972 0
M  V30 2320 N 220.369 5.61718 -0.2071 0
M  V30 2321 H 212.52 1.8349 -1.06981 0
M  V30 2322 H 214.783 0.848677 -0.422436 0
M  V30 2323 H 214.489 3.36726 -1.0153 0
M  V30 2324 H 214.363 3.70614 0.701808 0
M  V30 2325 H 216.75 2.76787 1.02338 0
M  V30 2326 H 216.831 2.45564 -0.716383 0
M  V30 2327 H 216.475 4.94542 -1.15717 0
M  V30 2328 H 216.405 5.23173 0.599797 0
M  V30 2329 H 218.896 3.7789 0.027011 0
M  V30 2330 H 219.209 7.70693 -0.570212 0
M  V30 2331 H 217.554 6.93156 -0.505876 0
M  V30 2332 H 220.745 4.68072 -0.0507986 0
M  V30 2333 H 220.918 6.47195 -0.322909 0
M  V30 2334 N 214.325 -0.140222 1.56975 0
M  V30 2335 C 215.736 -0.699596 1.73097 0
M  V30 2336 C 216.087 -1.8134 0.749022 0
M  V30 2337 O 215.212 -2.16241 -0.0828503 0
M  V30 2338 C 215.807 -1.27582 3.1386 0
M  V30 2339 C 214.366 -1.78169 3.31561 0
M  V30 2340 C 213.513 -0.672855 2.69013 0
M  V30 2341 H 216.464 0.0855115 1.58469 0
M  V30 2342 H 216.485 -2.14561 3.14235 0
M  V30 2343 H 215.997 -0.464955 3.85305 0
M  V30 2344 H 214.098 -2.61801 2.65124 0
M  V30 2345 H 214.211 -1.90574 4.39566 0
M  V30 2346 H 212.575 -1.10118 2.29665 0
M  V30 2347 H 213.358 0.126679 3.43066 0
M  V30 2348 N 215.803 -1.52179 -0.40978 0
M  V30 2349 C 217.08 -1.56769 -1.16974 0
M  V30 2350 C 217.46 -0.348322 -2.08206 0
M  V30 2351 O 216.808 0.664862 -2.18613 0
M  V30 2352 C 217.018 -2.89603 -1.9476 0
M  V30 2353 C 218.366 -3.42579 -2.50849 0
M  V30 2354 O 219.39 -2.91338 -2.04941 0
M  V30 2355 O 218.249 -4.32054 -3.34652 0
M  V30 2356 H 215.343 -0.631439 -0.534054 0
M  V30 2357 H 217.889 -1.64507 -0.416613 0
M  V30 2358 H 216.661 -3.698 -1.27921 0
M  V30 2359 H 216.284 -2.85155 -2.77079 0
M  V30 2360 N 217.281 0.66697 -1.42791 0
M  V30 2361 C 218.211 1.79218 -1.49677 0
M  V30 2362 C 219.192 1.66405 -0.352623 0
M  V30 2363 O 220.377 1.85708 -0.567993 0
M  V30 2364 C 217.507 3.17565 -1.40605 0
M  V30 2365 C 216.461 3.45124 -2.53127 0
M  V30 2366 C 215.787 4.83127 -2.29112 0
M  V30 2367 C 217.087 3.41236 -3.95418 0
M  V30 2368 H 218.781 1.73713 -2.43853 0
M  V30 2369 H 216.327 0.83432 -1.17367 0
M  V30 2370 H 218.28 3.96022 -1.44029 0
M  V30 2371 H 217.004 3.23767 -0.429271 0
M  V30 2372 H 215.663 2.69031 -2.49034 0
M  V30 2373 H 215.311 4.85988 -1.29709 0
M  V30 2374 H 215.011 5.02528 -3.04531 0
M  V30 2375 H 216.535 5.63859 -2.34297 0
M  V30 2376 H 217.949 4.09651 -4.01073 0
M  V30 2377 H 216.346 3.72173 -4.70752 0
M  V30 2378 H 217.416 2.39665 -4.21532 0
M  V30 2379 N 218.759 1.29093 0.90403 0
M  V30 2380 C 220.005 1.16986 1.65656 0
M  V30 2381 C 220.338 -0.278925 1.92186 0
M  V30 2382 O 219.613 -1.2019 1.5292 0
M  V30 2383 C 219.896 1.97908 3.0084 0
M  V30 2384 C 219.749 3.50903 2.81403 0
M  V30 2385 C 221.068 1.80208 4.01513 0
M  V30 2386 H 218.187 0.426346 0.601164 0
M  V30 2387 H 220.829 1.58518 1.04747 0
M  V30 2388 H 218.979 1.62616 3.52829 0
M  V30 2389 H 220.651 3.96153 2.36348 0
M  V30 2390 H 218.894 3.76045 2.1627 0
M  V30 2391 H 219.565 4.02791 3.77443 0
M  V30 2392 H 222.041 2.11025 3.58619 0
M  V30 2393 H 220.917 2.39184 4.94047 0
M  V30 2394 H 221.178 0.756119 4.35586 0
M  V30 2395 N 220.237 -1.11381 1.11499 0
M  V30 2396 C 221.147 -2.21019 0.786628 0
M  V30 2397 C 222.163 -1.72597 -0.220507 0
M  V30 2398 O 223.339 -2.01321 -0.0565251 0
M  V30 2399 C 220.404 -3.459 0.235333 0
M  V30 2400 C 219.465 -4.09107 1.30115 0
M  V30 2401 C 218.698 -5.28027 0.776068 0
M  V30 2402 O 218.921 -5.6904 -0.393661 0
M  V30 2403 O 217.855 -5.81835 1.54114 0
M  V30 2404 H 221.681 -2.51521 1.70209 0
M  V30 2405 H 219.266 -1.19928 0.890928 0
M  V30 2406 H 221.148 -4.21346 -0.067715 0
M  V30 2407 H 219.823 -3.17049 -0.652828 0
M  V30 2408 H 218.73 -3.35391 1.65722 0
M  V30 2409 H 220.063 -4.42139 2.16273 0
M  V30 2410 N 221.715 -0.905404 -1.28997 0
M  V30 2411 C 222.963 -0.533192 -1.9494 0
M  V30 2412 C 223.284 0.924618 -1.71685 0
M  V30 2413 O 222.554 1.65268 -1.05183 0
M  V30 2414 H 221.134 -0.194194 -0.721317 0
M  V30 2415 H 223.796 -1.15294 -1.57141 0
M  V30 2416 H 222.892 -0.72059 -3.03667 0
M  V30 2417 N 223.193 1.4272 -0.668489 0
M  V30 2418 C 224.44 2.01624 -0.18814 0
M  V30 2419 C 224.768 1.5282 1.20317 0
M  V30 2420 O 224.023 0.718323 1.8204 0
M  V30 2421 C 224.322 3.57021 -0.164499 0
M  V30 2422 C 223.988 4.25232 -1.49962 0
M  V30 2423 C 222.65 4.4358 -1.8652 0
M  V30 2424 C 225.002 4.63727 -2.37921 0
M  V30 2425 C 222.33 4.97694 -3.10674 0
M  V30 2426 C 224.682 5.19218 -3.6138 0
M  V30 2427 C 223.346 5.3578 -3.98115 0
M  V30 2428 H 222.616 0.737795 -0.0688454 0
M  V30 2429 H 225.263 1.70991 -0.862225 0
M  V30 2430 H 223.568 3.87285 0.593079 0
M  V30 2431 H 225.265 4.00372 0.224271 0
M  V30 2432 H 221.855 4.11306 -1.20522 0
M  V30 2433 H 226.039 4.4923 -2.10964 0
M  V30 2434 H 221.295 5.08702 -3.39164 0
M  V30 2435 H 225.469 5.4799 -4.29743 0
M  V30 2436 H 223.096 5.77475 -4.94395 0
M  V30 2437 N 224.671 0.411399 1.52136 0
M  V30 2438 C 225.634 -0.401089 2.25663 0
M  V30 2439 C 226.634 -0.971732 1.28117 0
M  V30 2440 O 227.824 -0.850254 1.52041 0
M  V30 2441 C 224.956 -1.56483 3.02863 0
M  V30 2442 H 226.149 0.24295 2.98914 0
M  V30 2443 H 223.702 0.163968 1.55438 0
M  V30 2444 H 224.437 -2.24567 2.33967 0
M  V30 2445 H 224.222 -1.16211 3.74483 0
M  V30 2446 H 225.712 -2.13951 3.58629 0
M  V30 2447 N 226.149 -1.5696 0.141893 0
M  V30 2448 C 227.112 -2.15316 -0.785587 0
M  V30 2449 C 228.112 -1.09366 -1.1788 0
M  V30 2450 O 229.302 -1.35031 -1.10056 0
M  V30 2451 C 226.434 -2.71211 -2.06537 0
M  V30 2452 H 227.627 -2.98608 -0.278041 0
M  V30 2453 H 225.18 -1.5593 -0.107519 0
M  V30 2454 H 225.915 -1.91571 -2.6167 0
M  V30 2455 H 225.7 -3.4872 -1.79268 0
M  V30 2456 H 227.19 -3.16189 -2.72789 0
M  V30 2457 N 227.627 0.131896 -1.57047 0
M  V30 2458 C 229.038 0.690407 -1.73465 0
M  V30 2459 C 229.389 1.8094 -0.758629 0
M  V30 2460 O 228.514 2.16282 0.0713813 0
M  V30 2461 C 229.109 1.25916 -3.14532 0
M  V30 2462 C 227.668 1.76409 -3.32501 0
M  V30 2463 C 226.815 0.658579 -2.69366 0
M  V30 2464 H 229.766 -0.0939144 -1.58422 0
M  V30 2465 H 229.787 2.12892 -3.15369 0
M  V30 2466 H 229.299 0.444515 -3.85546 0
M  V30 2467 H 227.4 2.60391 -2.66509 0
M  V30 2468 H 227.513 1.88241 -4.4057 0
M  V30 2469 H 225.877 1.08899 -2.30246 0
M  V30 2470 H 226.66 -0.14487 -3.42994 0
M  V30 2471 N 229.106 1.52395 0.401703 0
M  V30 2472 C 230.036 1.79231 1.49661 0
M  V30 2473 C 231.017 0.643654 1.57452 0
M  V30 2474 O 232.202 0.889989 1.72606 0
M  V30 2475 C 229.332 1.94971 2.87409 0
M  V30 2476 C 228.286 3.10604 2.94465 0
M  V30 2477 C 227.612 3.11577 4.34538 0
M  V30 2478 C 228.912 4.49921 2.6527 0
M  V30 2479 H 230.606 2.70917 1.27454 0
M  V30 2480 H 228.152 1.30362 0.6117 0
M  V30 2481 H 230.105 2.12328 3.63999 0
M  V30 2482 H 228.829 0.999632 3.10926 0
M  V30 2483 H 227.488 2.93009 2.20321 0
M  V30 2484 H 227.136 2.14277 4.55076 0
M  V30 2485 H 226.836 3.89247 4.40183 0
M  V30 2486 H 228.36 3.31073 5.13053 0
M  V30 2487 H 229.774 4.67683 3.31581 0
M  V30 2488 H 228.171 5.29564 2.82281 0
M  V30 2489 H 229.241 4.57507 1.60671 0
M  V30 2490 N 230.584 -0.659388 1.43143 0
M  V30 2491 C 231.995 -1.24041 1.39537 0
M  V30 2492 C 232.346 -1.95963 0.0963364 0
M  V30 2493 O 231.471 -2.00892 -0.804438 0
M  V30 2494 C 232.066 -2.25601 2.52764 0
M  V30 2495 C 230.625 -2.79195 2.52443 0
M  V30 2496 C 229.772 -1.53743 2.30778 0
M  V30 2497 H 232.723 -0.451792 1.52133 0
M  V30 2498 H 232.744 -3.07651 2.23899 0
M  V30 2499 H 232.256 -1.73226 3.47296 0
M  V30 2500 H 230.357 -3.35649 1.61773 0
M  V30 2501 H 230.47 -3.2716 3.50004 0
M  V30 2502 H 228.834 -1.80869 1.79328 0
M  V30 2503 H 229.617 -1.03312 3.27386 0
M  V30 2504 N 232.062 -1.29571 -0.897171 0
M  V30 2505 C 233.311 -1.1706 -1.64256 0
M  V30 2506 C 233.624 0.276476 -1.93636 0
M  V30 2507 O 234.83 0.52294 -2.66416 0
M  V30 2508 C 233.286 -2.0475 -2.95982 0
M  V30 2509 C 232.894 -3.54295 -2.74187 0
M  V30 2510 C 234.638 -2.0097 -3.73914 0
M  V30 2511 C 232.545 -4.34081 -4.01656 0
M  V30 2512 H 231.475 -0.43452 -0.616205 0
M  V30 2513 H 234.126 -1.54229 -0.994268 0
M  V30 2514 H 232.508 -1.60452 -3.62038 0
M  V30 2515 H 233.682 -4.06662 -2.1671 0
M  V30 2516 H 231.997 -3.59773 -2.09648 0
M  V30 2517 H 234.594 -2.57838 -4.68427 0
M  V30 2518 H 234.937 -0.990273 -4.0435 0
M  V30 2519 H 235.47 -2.43325 -3.14703 0
M  V30 2520 H 232.209 -5.36671 -3.76384 0
M  V30 2521 H 231.729 -3.86483 -4.58684 0
M  V30 2522 H 233.408 -4.44877 -4.69781 0
M  V30 2523 N 233.54 1.10788 -1.12088 0
M  V30 2524 C 234.47 2.19083 -0.807755 0
M  V30 2525 C 235.451 1.6858 0.226859 0
M  V30 2526 O 236.636 1.93997 0.0888475 0
M  V30 2527 C 233.766 3.46344 -0.257576 0
M  V30 2528 C 232.72 4.101 -1.22483 0
M  V30 2529 C 232.046 5.32016 -0.535052 0
M  V30 2530 C 233.346 4.54236 -2.57811 0
M  V30 2531 H 235.04 2.45534 -1.71328 0
M  V30 2532 H 232.586 1.1801 -0.825205 0
M  V30 2533 H 234.539 4.21392 -0.0262679 0
M  V30 2534 H 233.263 3.19373 0.683278 0
M  V30 2535 H 231.922 3.37054 -1.44189 0
M  V30 2536 H 231.57 5.01319 0.410827 0
M  V30 2537 H 231.27 5.75625 -1.18024 0
M  V30 2538 H 232.794 6.09799 -0.312695 0
M  V30 2539 H 234.208 5.20575 -2.40155 0
M  V30 2540 H 232.605 5.08682 -3.18375 0
M  V30 2541 H 233.675 3.6734 -3.16528 0
M  V30 2542 N 235.018 0.912232 1.28515 0
M  V30 2543 C 236.264 0.545405 1.95328 0
M  V30 2544 C 236.597 -0.908313 1.71649 0
M  V30 2545 O 235.872 -1.64575 1.03659 0
M  V30 2546 C 236.155 0.853483 3.4984 0
M  V30 2547 C 236.008 2.35982 3.82926 0
M  V30 2548 C 237.327 0.348589 4.38717 0
M  V30 2549 H 234.446 0.199626 0.709449 0
M  V30 2550 H 237.088 1.1412 1.5191 0
M  V30 2551 H 235.238 0.34643 3.86952 0
M  V30 2552 H 236.91 2.93738 3.55691 0
M  V30 2553 H 235.153 2.81543 3.30024 0
M  V30 2554 H 235.824 2.52593 4.90816 0
M  V30 2555 H 238.3 0.78294 4.08668 0
M  V30 2556 H 237.176 0.593242 5.45685 0
M  V30 2557 H 237.437 -0.751049 4.35674 0
M  V30 2558 N 236.496 -1.42363 0.676048 0
M  V30 2559 C 237.745 -2.00745 0.196037 0
M  V30 2560 C 238.058 -1.54083 -1.20489 0
M  V30 2561 O 239.264 -2.04891 -1.78134 0
M  V30 2562 C 237.72 -3.58651 0.299616 0
M  V30 2563 C 237.328 -4.143 1.70468 0
M  V30 2564 C 239.072 -4.24326 -0.121619 0
M  V30 2565 C 236.979 -5.64574 1.76096 0
M  V30 2566 H 235.909 -0.750787 0.0695301 0
M  V30 2567 H 238.56 -1.63072 0.841412 0
M  V30 2568 H 236.942 -3.93833 -0.413673 0
M  V30 2569 H 238.116 -3.90575 2.44515 0
M  V30 2570 H 236.431 -3.61081 2.07387 0
M  V30 2571 H 239.028 -5.34607 -0.0997362 0
M  V30 2572 H 239.371 -3.99897 -1.15708 0
M  V30 2573 H 239.904 -3.94108 0.540706 0
M  V30 2574 H 236.643 -5.93804 2.77628 0
M  V30 2575 H 236.163 -5.90286 1.06406 0
M  V30 2576 H 237.842 -6.29013 1.51496 0
M  V30 2577 N 237.974 -0.419461 -1.51915 0
M  V30 2578 C 239.199 0.154572 -2.06823 0
M  V30 2579 C 239.624 1.3722 -1.28656 0
M  V30 2580 O 238.982 1.78461 -0.319583 0
M  V30 2581 C 239.03 0.473172 -3.57482 0
M  V30 2582 O 238.134 1.56255 -3.81652 0
M  V30 2583 H 237.475 0.0096924 -0.663929 0
M  V30 2584 H 240.005 -0.595642 -1.95738 0
M  V30 2585 H 240.015 0.728825 -4.01438 0
M  V30 2586 H 238.69 -0.416873 -4.13805 0
M  V30 2587 H 237.267 1.29825 -3.49571 0
M  V30 2588 N 239.452 1.56882 -0.150215 0
M  V30 2589 C 240.415 2.1573 0.774157 0
M  V30 2590 C 241.415 1.0999 1.17298 0
M  V30 2591 O 242.605 1.35613 1.09338 0
M  V30 2592 C 239.737 2.72302 2.05096 0
M  V30 2593 H 240.93 2.98752 0.262201 0
M  V30 2594 H 238.483 1.55985 0.099248 0
M  V30 2595 H 239.218 1.92956 2.6065 0
M  V30 2596 H 239.003 3.49665 1.77416 0
M  V30 2597 H 240.493 3.17632 2.71109 0
M  V30 2598 N 240.93 -0.123565 1.57115 0
M  V30 2599 C 241.86 -1.15309 2.03042 0
M  V30 2600 C 242.841 -1.43454 0.914061 0
M  V30 2601 O 244.026 -1.53973 1.18347 0
M  V30 2602 C 241.156 -2.48043 2.43089 0
M  V30 2603 C 240.11 -2.3437 3.58127 0
M  V30 2604 C 239.436 -3.72026 3.84059 0
M  V30 2605 C 240.736 -1.80804 4.90007 0
M  V30 2606 H 242.43 -0.771102 2.893 0
M  V30 2607 H 239.976 -0.369479 1.39179 0
M  V30 2608 H 241.929 -3.20311 2.73823 0
M  V30 2609 H 240.653 -2.88122 1.53796 0
M  V30 2610 H 239.312 -1.64551 3.27595 0
M  V30 2611 H 238.96 -4.09582 2.91979 0
M  V30 2612 H 238.66 -3.63732 4.6149 0
M  V30 2613 H 240.184 -4.45806 4.1724 0
M  V30 2614 H 241.598 -2.42886 5.19307 0
M  V30 2615 H 239.995 -1.83343 5.71407 0
M  V30 2616 H 241.065 -0.76528 4.78823 0
M  V30 2617 N 242.408 -1.52605 -0.393616 0
M  V30 2618 C 243.338 -1.80022 -1.48709 0
M  V30 2619 C 244.319 -0.651995 -1.57108 0
M  V30 2620 O 245.504 -0.89913 -1.72132 0
M  V30 2621 C 242.634 -1.96492 -2.86371 0
M  V30 2622 C 241.588 -3.12161 -2.92813 0
M  V30 2623 C 240.914 -3.13877 -4.3288 0
M  V30 2624 C 242.214 -4.51322 -2.6288 0
M  V30 2625 H 243.908 -2.71589 -1.26015 0
M  V30 2626 H 241.454 -1.30684 -0.604778 0
M  V30 2627 H 243.407 -2.14255 -3.62867 0
M  V30 2628 H 242.131 -1.01611 -3.10391 0
M  V30 2629 H 240.79 -2.94173 -2.18764 0
M  V30 2630 H 240.438 -2.16687 -4.53933 0
M  V30 2631 H 240.138 -3.91576 -4.38112 0
M  V30 2632 H 241.662 -3.33789 -5.1129 0
M  V30 2633 H 243.076 -4.69435 -3.29096 0
M  V30 2634 H 241.473 -5.31053 -2.79468 0
M  V30 2635 H 242.543 -4.58353 -1.58242 0
M  V30 2636 N 243.887 0.651787 -1.4349 0
M  V30 2637 C 245.135 1.40888 -1.44897 0
M  V30 2638 C 245.456 1.94856 -0.0749086 0
M  V30 2639 O 244.726 1.74518 0.889956 0
M  V30 2640 H 243.306 0.522887 -0.533478 0
M  V30 2641 H 245.968 0.768609 -1.79104 0
M  V30 2642 H 245.064 2.25052 -2.16236 0
M  V30 2643 N 245.365 1.30045 0.890287 0
M  V30 2644 C 246.614 1.17929 1.63633 0
M  V30 2645 C 246.927 -0.266204 1.9378 0
M  V30 2646 O 248.133 -0.508804 2.6669 0
M  V30 2647 C 246.589 2.06317 2.94892 0
M  V30 2648 C 246.197 3.55745 2.72305 0
M  V30 2649 C 247.941 2.0295 3.72843 0
M  V30 2650 C 245.848 4.36205 3.99348 0
M  V30 2651 H 244.778 0.437782 0.613892 0
M  V30 2652 H 247.429 1.54754 0.986075 0
M  V30 2653 H 245.811 1.6237 3.61182 0
M  V30 2654 H 246.985 4.07805 2.1455 0
M  V30 2655 H 245.3 3.6088 2.07737 0
M  V30 2656 H 247.897 2.60319 4.67053 0
M  V30 2657 H 248.24 1.0117 4.0382 0
M  V30 2658 H 248.773 2.4499 3.13408 0
M  V30 2659 H 245.512 5.38659 3.73533 0
M  V30 2660 H 245.032 3.8891 4.56628 0
M  V30 2661 H 246.711 4.47362 4.67415 0
M  V30 2662 N 246.843 -1.10192 1.12674 0
M  V30 2663 C 248.254 -1.63707 0.897604 0
M  V30 2664 C 248.605 -1.87812 -0.567546 0
M  V30 2665 O 247.73 -1.62196 -1.43253 0
M  V30 2666 C 248.325 -2.974 1.62292 0
M  V30 2667 C 246.884 -3.47772 1.43986 0
M  V30 2668 C 246.031 -2.22332 1.65722 0
M  V30 2669 H 248.982 -0.936587 1.28116 0
M  V30 2670 H 249.003 -3.64986 1.07541 0
M  V30 2671 H 248.515 -2.79824 2.68924 0
M  V30 2672 H 246.616 -3.70487 0.396206 0
M  V30 2673 H 246.729 -4.25723 2.19765 0
M  V30 2674 H 245.093 -2.30599 1.08149 0
M  V30 2675 H 245.876 -2.07285 2.73657 0
M  V30 2676 N 248.321 -0.919034 -1.28029 0
M  V30 2677 C 249.231 -0.416756 -2.30869 0
M  V30 2678 C 250.247 0.498235 -1.66714 0
M  V30 2679 O 251.423 0.383144 -1.97722 0
M  V30 2680 C 248.488 0.330274 -3.45123 0
M  V30 2681 C 247.549 -0.618578 -4.2482 0
M  V30 2682 C 246.782 0.0928959 -5.33619 0
M  V30 2683 O 247.005 1.31375 -5.55065 0
M  V30 2684 O 245.939 -0.574499 -5.99152 0
M  V30 2685 H 249.765 -1.27043 -2.75851 0
M  V30 2686 H 247.35 -0.684052 -1.3282 0
M  V30 2687 H 249.232 0.751972 -4.14636 0
M  V30 2688 H 247.907 1.1597 -3.02213 0
M  V30 2689 H 246.814 -1.08978 -3.57875 0
M  V30 2690 H 248.147 -1.41497 -4.71423 0
M  V30 2691 N 249.799 1.42003 -0.683588 0
M  V30 2692 C 250.709 2.34597 -0.0109075 0
M  V30 2693 C 251.725 1.55576 0.779245 0
M  V30 2694 O 252.901 1.88107 0.719555 0
M  V30 2695 C 249.966 3.34199 0.922588 0
M  V30 2696 C 249.027 4.29115 0.125984 0
M  V30 2697 C 248.26 5.23959 1.01502 0
M  V30 2698 O 248.483 5.23952 2.25456 0
M  V30 2699 O 247.417 6.00053 0.47111 0
M  V30 2700 H 251.243 2.93675 -0.773853 0
M  V30 2701 H 248.828 1.42654 -0.443861 0
M  V30 2702 H 250.71 3.95365 1.45823 0
M  V30 2703 H 249.385 2.77582 1.66523 0
M  V30 2704 H 248.292 3.71335 -0.453969 0
M  V30 2705 H 249.625 4.88798 -0.577736 0
M  V30 2706 N 251.277 0.427512 1.51691 0
M  V30 2707 C 252.554 -0.201684 1.94557 0
M  V30 2708 C 252.934 -1.60981 1.36559 0
M  V30 2709 O 252.282 -2.21814 0.548702 0
M  V30 2710 C 252.492 -0.189394 3.48486 0
M  V30 2711 C 253.84 -0.39978 4.22714 0
M  V30 2712 O 254.864 -0.267945 3.55191 0
M  V30 2713 O 253.723 -0.661249 5.42485 0
M  V30 2714 H 250.817 -0.135261 0.815864 0
M  V30 2715 H 253.363 0.484782 1.62628 0
M  V30 2716 H 252.135 0.795431 3.8313 0
M  V30 2717 H 251.758 -0.919187 3.86829 0
M  V30 2718 N 252.755 -1.56801 0.158532 0
M  V30 2719 C 253.705 -2.13923 -0.788738 0
M  V30 2720 C 254.689 -1.07006 -1.2016 0
M  V30 2721 O 255.881 -1.33159 -1.1661 0
M  V30 2722 C 253.01 -2.77348 -2.02319 0
M  V30 2723 C 252.096 -3.91404 -1.6329 0
M  V30 2724 N 252.487 -4.9677 -0.951463 0
M  V30 2725 C 250.785 -4.02326 -1.92482 0
M  V30 2726 C 251.486 -5.76698 -0.761221 0
M  V30 2727 N 250.462 -5.27859 -1.29869 0
M  V30 2728 H 254.264 -2.92757 -0.258995 0
M  V30 2729 H 251.778 -1.62344 -0.0426055 0
M  V30 2730 H 253.775 -3.16639 -2.71192 0
M  V30 2731 H 252.435 -1.99991 -2.558 0
M  V30 2732 H 253.446 -5.14284 -0.610928 0
M  V30 2733 H 250.123 -3.36059 -2.47732 0
M  V30 2734 H 251.513 -6.71529 -0.223284 0
M  V30 2735 N 254.233 0.115231 -1.57178 0
M  V30 2736 C 255.461 0.836437 -1.89239 0
M  V30 2737 C 255.876 1.73256 -0.750175 0
M  V30 2738 O 255.233 1.80357 0.278832 0
M  V30 2739 C 255.284 1.66671 -3.20785 0
M  V30 2740 O 255.005 0.806652 -4.3061 0
M  V30 2741 C 256.506 2.49274 -3.66575 0
M  V30 2742 H 253.726 0.240253 -0.626514 0
M  V30 2743 H 256.27 0.0984932 -2.04263 0
M  V30 2744 H 254.425 2.35737 -3.0742 0
M  V30 2745 H 254.839 1.37969 -5.06028 0
M  V30 2746 H 256.313 3.03055 -4.6137 0
M  V30 2747 H 256.79 3.26807 -2.93417 0
M  V30 2748 H 257.396 1.85443 -3.82741 0
M  V30 2749 N 255.711 1.52812 0.385517 0
M  V30 2750 C 256.957 1.69225 1.12847 0
M  V30 2751 C 257.312 0.42864 1.87564 0
M  V30 2752 O 256.605 -0.57779 1.8268 0
M  V30 2753 C 256.799 2.86856 2.13187 0
M  V30 2754 C 256.628 4.24535 1.48325 0
M  V30 2755 C 255.398 4.89701 1.24585 0
M  V30 2756 C 257.596 5.05794 0.931501 0
M  V30 2757 N 255.578 6.11353 0.558644 0
M  V30 2758 C 256.949 6.1888 0.372552 0
M  V30 2759 C 259.004 4.90963 0.828248 0
M  V30 2760 C 257.707 7.18757 -0.279556 0
M  V30 2761 C 259.733 5.91095 0.189956 0
M  V30 2762 C 259.095 7.03489 -0.358207 0
M  V30 2763 H 255.194 0.67268 0.39878 0
M  V30 2764 H 257.778 1.9017 0.417528 0
M  V30 2765 H 255.949 2.67484 2.81614 0
M  V30 2766 H 257.681 2.92188 2.80014 0
M  V30 2767 H 254.436 4.48485 1.52178 0
M  V30 2768 H 254.86 6.76606 0.230983 0
M  V30 2769 H 259.502 4.04274 1.23784 0
M  V30 2770 H 257.22 8.05052 -0.701152 0
M  V30 2771 H 260.806 5.81694 0.111264 0
M  V30 2772 H 259.686 7.79642 -0.844314 0
M  V30 2773 N 257.189 -0.644168 1.43834 0
M  V30 2774 C 258.119 -1.76814 1.52509 0
M  V30 2775 C 259.1 -1.65823 0.379052 0
M  V30 2776 O 260.285 -1.84781 0.597466 0
M  V30 2777 C 257.415 -3.15288 1.4564 0
M  V30 2778 C 256.369 -3.41053 2.58586 0
M  V30 2779 C 255.695 -4.79421 2.36769 0
M  V30 2780 C 256.995 -3.34902 4.00797 0
M  V30 2781 H 258.689 -1.69812 2.46586 0
M  V30 2782 H 256.235 -0.815542 1.1868 0
M  V30 2783 H 258.188 -3.93681 1.50311 0
M  V30 2784 H 256.912 -3.23043 0.480725 0
M  V30 2785 H 255.571 -2.65035 2.53282 0
M  V30 2786 H 255.219 -4.83863 1.37424 0
M  V30 2787 H 254.919 -4.9762 3.12487 0
M  V30 2788 H 256.443 -5.6006 2.43238 0
M  V30 2789 H 257.857 -4.03218 4.07539 0
M  V30 2790 H 256.254 -3.64637 4.76613 0
M  V30 2791 H 257.324 -2.32928 4.25291 0
M  V30 2792 N 258.668 -1.30515 -0.883378 0
M  V30 2793 C 260.084 -1.08881 -1.16692 0
M  V30 2794 C 260.284 0.149409 -2.00945 0
M  V30 2795 O 259.34 0.84257 -2.38027 0
M  V30 2796 C 260.653 -2.35319 -1.87204 0
M  V30 2797 C 262.201 -2.40799 -1.99962 0
M  V30 2798 C 262.676 -3.67083 -2.73887 0
M  V30 2799 N 264.167 -3.679 -2.81432 0
M  V30 2800 C 264.902 -4.62303 -3.3921 0
M  V30 2801 N 264.398 -5.67052 -3.98025 0
M  V30 2802 N 266.191 -4.49845 -3.3704 0
M  V30 2803 H 258.342 -2.09951 -0.321633 0
M  V30 2804 H 260.605 -0.92556 -0.205043 0
M  V30 2805 H 260.311 -3.25689 -1.3274 0
M  V30 2806 H 260.185 -2.44089 -2.87577 0
M  V30 2807 H 262.572 -1.50907 -2.53597 0
M  V30 2808 H 262.653 -2.36003 -0.98673 0
M  V30 2809 H 262.297 -4.57334 -2.20925 0
M  V30 2810 H 262.227 -3.69141 -3.75556 0
M  V30 2811 H 264.718 -2.92171 -2.39676 0
M  V30 2812 H 265.031 -6.35184 -4.40183 0
M  V30 2813 H 263.376 -5.70842 -3.96439 0
M  V30 2814 H 266.567 -3.67194 -2.90321 0
M  V30 2815 H 266.74 -5.23597 -3.81772 0
M  V30 2816 N 260.146 1.09593 -1.13257 0
M  V30 2817 C 261.109 2.14359 -0.811358 0
M  V30 2818 C 262.109 1.59808 0.178377 0
M  V30 2819 O 263.299 1.74132 -0.0484911 0
M  V30 2820 C 260.431 3.40269 -0.207276 0
M  V30 2821 H 261.624 2.44284 -1.73969 0
M  V30 2822 H 259.177 1.25102 -0.936973 0
M  V30 2823 H 259.912 3.15969 0.73036 0
M  V30 2824 H 259.697 3.81154 -0.919992 0
M  V30 2825 H 261.187 4.176 0.000667944 0
M  V30 2826 N 261.624 0.925811 1.2754 0
M  V30 2827 C 262.572 0.413897 2.28888 0
M  V30 2828 C 263.566 -0.500779 1.61829 0
M  V30 2829 O 264.772 -0.38069 1.75928 0
M  V30 2830 H 261.147 0.115274 0.743112 0
M  V30 2831 H 263.118 1.28151 2.69481 0
M  V30 2832 C 261.867 -0.319792 3.46226 0
M  V30 2833 H 261.19 0.374846 3.98039 0
M  V30 2834 H 262.63 -0.642435 4.19105 0
M  V30 2835 C 261.089 -1.53209 3.00048 0
M  V30 2836 O 261.619 -2.6309 3.03557 0
M  V30 2837 N 259.825 -1.38326 2.55566 0
M  V30 2838 H 259.372 -0.489292 2.5291 0
M  V30 2839 H 259.33 -2.19564 2.25031 0
M  V30 2840 N 263.102 -1.41638 0.69111 0
M  V30 2841 C 264.065 -2.29178 0.0319786 0
M  V30 2842 C 265.065 -1.44153 -0.712496 0
M  V30 2843 O 266.255 -1.65354 -0.548053 0
M  V30 2844 C 263.387 -3.26952 -0.965161 0
M  V30 2845 H 264.58 -2.88959 0.802681 0
M  V30 2846 H 262.133 -1.4955 0.454356 0
M  V30 2847 H 262.868 -2.72142 -1.76378 0
M  V30 2848 H 262.653 -3.89685 -0.434522 0
M  V30 2849 H 264.143 -3.92561 -1.42428 0
M  V30 2850 N 264.58 -0.43555 -1.51462 0
M  V30 2851 C 265.826 0.131709 -2.02372 0
M  V30 2852 C 266.159 1.42516 -1.3192 0
M  V30 2853 O 265.434 1.89606 -0.433573 0
M  V30 2854 C 265.717 0.352301 -3.58373 0
M  V30 2855 C 265.57 -0.959676 -4.39443 0
M  V30 2856 C 266.889 1.12286 -4.25535 0
M  V30 2857 H 264.008 0.0463936 -0.735538 0
M  V30 2858 H 266.65 -0.574197 -1.81116 0
M  V30 2859 H 264.8 0.9536 -3.76615 0
M  V30 2860 H 266.472 -1.59482 -4.32855 0
M  V30 2861 H 264.715 -1.56468 -4.04599 0
M  V30 2862 H 265.386 -0.759394 -5.46752 0
M  V30 2863 H 267.862 0.613545 -4.11552 0
M  V30 2864 H 266.738 1.24598 -5.34571 0
M  V30 2865 H 266.999 2.15048 -3.86273 0
M  V30 2866 N 266.058 1.56714 -0.166846 0
M  V30 2867 C 267.021 2.16539 0.751232 0
M  V30 2868 C 268.021 1.11228 1.16125 0
M  V30 2869 O 269.211 1.36765 1.07894 0
M  V30 2870 C 266.343 2.74462 2.02196 0
M  V30 2871 H 267.536 2.99013 0.230499 0
M  V30 2872 H 265.089 1.56081 0.0826982 0
M  V30 2873 H 265.824 1.95709 2.58589 0
M  V30 2874 H 265.609 3.51527 1.73698 0
M  V30 2875 H 267.099 3.20489 2.67725 0
M  V30 2876 N 267.536 -0.106894 1.57237 0
M  V30 2877 C 268.466 -1.13148 2.04254 0
M  V30 2878 C 269.447 -1.42476 0.929224 0
M  V30 2879 O 270.632 -1.52709 1.19973 0
M  V30 2880 C 267.762 -2.4545 2.45706 0
M  V30 2881 C 266.716 -2.30558 3.60592 0
M  V30 2882 C 266.042 -3.67931 3.87983 0
M  V30 2883 C 267.342 -1.75597 4.91897 0
M  V30 2884 H 269.036 -0.740374 2.90101 0
M  V30 2885 H 266.582 -0.354696 1.39563 0
M  V30 2886 H 268.535 -3.17389 2.77205 0
M  V30 2887 H 267.259 -2.86475 1.56843 0
M  V30 2888 H 265.918 -1.61067 3.29322 0
M  V30 2889 H 265.566 -4.06462 2.96306 0
M  V30 2890 H 265.266 -3.58817 4.65322 0
M  V30 2891 H 266.79 -4.41356 4.21945 0
M  V30 2892 H 268.204 -2.37364 5.21854 0
M  V30 2893 H 266.601 -1.77272 5.73319 0
M  V30 2894 H 267.671 -0.714451 4.79608 0
M  V30 2895 N 269.014 -1.53014 -0.377408 0
M  V30 2896 C 269.946 -1.74884 -1.48149 0
M  V30 2897 C 270.959 -0.629433 -1.5014 0
M  V30 2898 O 272.148 -0.905416 -1.53833 0
M  V30 2899 C 269.248 -1.80299 -2.86959 0
M  V30 2900 C 268.421 -3.09776 -3.08801 0
M  V30 2901 C 267.48 -3.06586 -4.27658 0
M  V30 2902 O 266.506 -3.80419 -4.23403 0
M  V30 2903 N 267.708 -2.26578 -5.34455 0
M  V30 2904 H 270.473 -2.70147 -1.29771 0
M  V30 2905 H 268.034 -1.51646 -0.56703 0
M  V30 2906 H 270.026 -1.75657 -3.64591 0
M  V30 2907 H 268.596 -0.92372 -2.98641 0
M  V30 2908 H 267.816 -3.27815 -2.18931 0
M  V30 2909 H 269.104 -3.95366 -3.20255 0
M  V30 2910 H 268.502 -1.66081 -5.40771 0
M  V30 2911 H 267.059 -2.27766 -6.10709 0
M  V30 2912 N 270.492 0.636531 -1.44174 0
M  V30 2913 C 271.402 1.77754 -1.53103 0
M  V30 2914 C 272.418 1.68928 -0.417034 0
M  V30 2915 O 273.594 1.89801 -0.6736 0
M  V30 2916 C 270.659 3.14115 -1.46741 0
M  V30 2917 C 269.72 3.34612 -2.68948 0
M  V30 2918 C 268.953 4.64467 -2.6288 0
M  V30 2919 O 269.176 5.44919 -1.68581 0
M  V30 2920 O 268.11 4.87049 -3.53648 0
M  V30 2921 H 271.936 1.73174 -2.49489 0
M  V30 2922 H 269.521 0.79709 -1.2636 0
M  V30 2923 H 271.403 3.95412 -1.45696 0
M  V30 2924 H 270.078 3.19249 -0.534975 0
M  V30 2925 H 268.985 2.53014 -2.75562 0
M  V30 2926 H 270.318 3.34336 -3.61221 0
M  V30 2927 N 271.97 1.30982 0.876444 0
M  V30 2928 C 272.933 1.18054 1.96459 0
M  V30 2929 C 273.933 0.109399 1.60427 0
M  V30 2930 O 275.123 0.358173 1.70478 0
M  V30 2931 C 272.255 0.810616 3.31122 0
M  V30 2932 H 273.448 2.14735 2.09354 0
M  V30 2933 H 271.001 1.145 1.06392 0
M  V30 2934 H 271.736 -0.155322 3.23928 0
M  V30 2935 H 271.521 1.58481 3.58645 0
M  V30 2936 H 273.011 0.743876 4.10921 0
M  V30 2937 N 273.449 -1.08991 1.13837 0
M  V30 2938 C 274.674 -1.85551 0.926585 0
M  V30 2939 C 275.099 -1.80782 -0.519566 0
M  V30 2940 O 274.457 -1.18855 -1.36906 0
M  V30 2941 C 274.505 -3.31266 1.42462 0
M  V30 2942 O 273.609 -4.07822 0.612789 0
M  V30 2943 H 272.95 -0.575192 0.331738 0
M  V30 2944 H 275.48 -1.37604 1.51414 0
M  V30 2945 H 275.49 -3.82112 1.43019 0
M  V30 2946 H 274.165 -3.34052 2.47754 0
M  V30 2947 H 272.742 -3.66731 0.675463 0
M  V30 2948 N 274.927 -0.932562 -1.27047 0
M  V30 2949 C 276.155 -0.592031 -1.98249 0
M  V30 2950 C 276.57 0.831062 -1.69525 0
M  V30 2951 O 275.927 1.55299 -0.958561 0
M  V30 2952 C 275.978 -0.814279 -3.5221 0
M  V30 2953 O 275.699 -2.18139 -3.7993 0
M  V30 2954 C 277.2 -0.483121 -4.4066 0
M  V30 2955 H 274.42 -0.223896 -0.632544 0
M  V30 2956 H 276.964 -1.25091 -1.61779 0
M  V30 2957 H 275.119 -0.20213 -3.86872 0
M  V30 2958 H 275.533 -2.235 -4.74498 0
M  V30 2959 H 277.007 -0.689298 -5.47679 0
M  V30 2960 H 277.484 0.581546 -4.35333 0
M  V30 2961 H 278.09 -1.07362 -4.11526 0
M  V30 2962 N 276.405 1.4127 -0.698611 0
M  V30 2963 C 277.633 2.05503 -0.239992 0
M  V30 2964 C 278.048 1.52584 1.11191 0
M  V30 2965 O 277.405 0.675323 1.69545 0
M  V30 2966 C 277.456 3.60987 -0.192429 0
M  V30 2967 O 277.177 4.1195 -1.49094 0
M  V30 2968 C 278.678 4.42371 0.28681 0
M  V30 2969 H 275.898 0.661748 -0.111045 0
M  V30 2970 H 278.442 1.80987 -0.95205 0
M  V30 2971 H 276.597 3.84533 0.470472 0
M  V30 2972 H 277.011 5.06018 -1.38007 0
M  V30 2973 H 278.485 5.51344 0.26896 0
M  V30 2974 H 278.962 4.18699 1.32619 0
M  V30 2975 H 279.568 4.23897 -0.345201 0
M  V30 2976 N 277.883 0.443576 1.51229 0
M  V30 2977 C 279.299 0.0962001 1.5931 0
M  V30 2978 C 279.499 -1.39501 1.45402 0
M  V30 2979 O 278.555 -2.16557 1.29843 0
M  V30 2980 C 279.868 0.621875 2.94199 0
M  V30 2981 C 281.416 0.582865 3.07525 0
M  V30 2982 C 281.891 1.08562 4.44948 0
M  V30 2983 N 283.382 1.04387 4.51284 0
M  V30 2984 C 284.117 1.40368 5.55954 0
M  V30 2985 N 283.613 1.83664 6.68011 0
M  V30 2986 N 285.406 1.32145 5.46346 0
M  V30 2987 H 277.557 1.41376 1.58514 0
M  V30 2988 H 279.82 0.582965 0.747567 0
M  V30 2989 H 279.526 1.66546 3.09767 0
M  V30 2990 H 279.4 0.0502125 3.77167 0
M  V30 2991 H 281.787 -0.451749 2.91622 0
M  V30 2992 H 281.868 1.191 2.26382 0
M  V30 2993 H 281.512 2.11873 4.61598 0
M  V30 2994 H 281.442 0.453956 5.2464 0
M  V30 2995 H 283.933 0.725986 3.70861 0
M  V30 2996 H 284.246 2.0934 7.43906 0
M  V30 2997 H 282.591 1.87596 6.69203 0
M  V30 2998 H 285.782 0.981808 4.57688 0
M  V30 2999 H 285.955 1.60514 6.27805 0
M  V30 3000 N 279.361 -1.56624 0.175154 0
M  V30 3001 C 280.324 -2.16934 -0.739738 0
M  V30 3002 C 281.324 -1.11842 -1.15533 0
M  V30 3003 O 282.514 -1.37335 -1.07167 0
M  V30 3004 C 279.646 -2.75531 -2.00738 0
M  V30 3005 H 280.839 -2.99131 -0.214639 0
M  V30 3006 H 278.392 -1.56123 -0.0744197 0
M  V30 3007 H 279.127 -1.97078 -2.57548 0
M  V30 3008 H 278.912 -3.52444 -1.71831 0
M  V30 3009 H 280.402 -3.21904 -2.66021 0
M  V30 3010 N 280.839 0.0985539 -1.57292 0
M  V30 3011 C 282.255 0.45267 -1.53046 0
M  V30 3012 C 282.455 1.80713 -0.891342 0
M  V30 3013 O 281.511 2.4785 -0.482375 0
M  V30 3014 C 282.824 0.418341 -2.97776 0
M  V30 3015 C 284.372 0.500443 -3.08973 0
M  V30 3016 C 284.847 0.496297 -4.55303 0
M  V30 3017 N 286.338 0.557151 -4.59837 0
M  V30 3018 C 287.073 0.575726 -5.70502 0
M  V30 3019 N 286.569 0.550714 -6.90608 0
M  V30 3020 N 288.362 0.620277 -5.58667 0
M  V30 3021 H 280.513 -0.788673 -1.97215 0
M  V30 3022 H 282.776 -0.293188 -0.901524 0
M  V30 3023 H 282.482 -0.509659 -3.47988 0
M  V30 3024 H 282.356 1.2386 -3.56284 0
M  V30 3025 H 284.743 1.41886 -2.58751 0
M  V30 3026 H 284.824 -0.347894 -2.53423 0
M  V30 3027 H 284.468 -0.418162 -5.06176 0
M  V30 3028 H 284.398 1.3618 -5.08687 0
M  V30 3029 H 286.889 0.581816 -3.73394 0
M  V30 3030 H 287.202 0.568075 -7.70709 0
M  V30 3031 H 285.547 0.517816 -6.93068 0
M  V30 3032 H 288.738 0.637322 -4.63741 0
M  V30 3033 H 288.911 0.631283 -6.44918 0
M  V30 3034 N 282.317 1.53212 0.369288 0
M  V30 3035 C 283.594 1.59815 1.12776 0
M  V30 3036 C 283.974 0.403402 2.0721 0
M  V30 3037 O 283.322 -0.606667 2.20299 0
M  V30 3038 C 283.532 2.94664 1.87013 0
M  V30 3039 C 284.88 3.49109 2.41677 0
M  V30 3040 O 285.904 2.96669 1.97144 0
M  V30 3041 O 284.763 4.40775 3.23079 0
M  V30 3042 H 281.857 0.645376 0.517125 0
M  V30 3043 H 284.403 1.65553 0.37285 0
M  V30 3044 H 283.175 3.73061 1.18071 0
M  V30 3045 H 282.798 2.92401 2.69421 0
M  V30 3046 N 283.795 -0.628877 1.44509 0
M  V30 3047 C 285.043 -1.38565 1.4712 0
M  V30 3048 C 285.364 -1.94712 0.105899 0
M  V30 3049 O 284.634 -1.75912 -0.862079 0
M  V30 3050 H 283.214 -0.514333 0.541729 0
M  V30 3051 H 285.876 -0.740018 1.80305 0
M  V30 3052 H 284.972 -2.21583 2.19789 0
M  V30 3053 N 285.273 -1.31445 -0.869486 0
M  V30 3054 C 286.689 -1.10113 -1.15531 0
M  V30 3055 C 286.889 0.128087 -2.01092 0
M  V30 3056 O 285.945 0.817276 -2.38908 0
M  V30 3057 C 287.258 -2.37291 -1.84698 0
M  V30 3058 C 288.806 -2.42906 -1.97397 0
M  V30 3059 C 289.281 -3.69967 -2.69979 0
M  V30 3060 N 290.772 -3.70864 -2.77514 0
M  V30 3061 C 291.507 -4.65875 -3.34287 0
M  V30 3062 N 291.003 -5.71242 -3.91988 0
M  V30 3063 N 292.796 -4.53394 -3.3225 0
M  V30 3064 H 284.947 -2.1028 -0.299347 0
M  V30 3065 H 287.21 -0.927683 -0.195214 0
M  V30 3066 H 286.916 -3.27078 -1.29278 0
M  V30 3067 H 286.79 -2.47125 -2.84972 0
M  V30 3068 H 289.177 -1.53588 -2.51982 0
M  V30 3069 H 289.258 -2.37036 -0.961643 0
M  V30 3070 H 288.902 -4.59652 -2.16062 0
M  V30 3071 H 288.832 -3.73103 -3.7162 0
M  V30 3072 H 291.323 -2.94697 -2.36563 0
M  V30 3073 H 291.636 -6.39817 -4.33421 0
M  V30 3074 H 289.981 -5.75015 -3.90362 0
M  V30 3075 H 293.172 -3.70252 -2.8641 0
M  V30 3076 H 293.345 -5.27617 -3.76197 0
M  V30 3077 N 286.751 1.08385 -1.14413 0
M  V30 3078 C 287.999 1.80419 -0.910679 0
M  V30 3079 C 288.32 1.86658 0.564243 0
M  V30 3080 O 287.59 1.35985 1.41014 0
M  V30 3081 H 286.17 0.668204 -0.333934 0
M  V30 3082 H 288.832 1.31037 -1.44275 0
M  V30 3083 H 287.928 2.83238 -1.31082 0
M  V30 3084 N 288.23 0.939286 1.26551 0
M  V30 3085 C 289.46 0.601663 1.97645 0
M  V30 3086 C 289.868 -0.827206 1.70159 0
M  V30 3087 O 289.211 -1.56291 0.965338 0
M  V30 3088 C 289.273 0.761725 3.51337 0
M  V30 3089 C 288.937 2.16487 4.0247 0
M  V30 3090 C 289.934 3.14016 4.14355 0
M  V30 3091 C 287.619 2.48494 4.36527 0
M  V30 3092 C 289.613 4.41654 4.59587 0
M  V30 3093 C 287.3 3.76364 4.81449 0
M  V30 3094 C 288.298 4.72758 4.92939 0
M  V30 3095 O 287.986 5.98352 5.36871 0
M  V30 3096 H 287.718 0.225758 0.637189 0
M  V30 3097 H 290.272 1.26178 1.62075 0
M  V30 3098 H 288.502 0.0444808 3.86674 0
M  V30 3099 H 290.191 0.427442 4.03643 0
M  V30 3100 H 290.957 2.90613 3.8829 0
M  V30 3101 H 286.836 1.74202 4.26819 0
M  V30 3102 H 290.38 5.16896 4.68471 0
M  V30 3103 H 286.277 3.99582 5.06956 0
M  V30 3104 H 287.045 6.01507 5.55096 0
M  V30 3105 N 289.708 -1.40897 0.706093 0
M  V30 3106 C 290.671 -2.29131 0.0562841 0
M  V30 3107 C 291.671 -1.44901 -0.697166 0
M  V30 3108 O 292.861 -1.65926 -0.530484 0
M  V30 3109 C 289.993 -3.27957 -0.93043 0
M  V30 3110 H 291.186 -2.88091 0.833284 0
M  V30 3111 H 288.739 -1.4906 0.470192 0
M  V30 3112 H 289.474 -2.73997 -1.73482 0
M  V30 3113 H 289.259 -3.90124 -0.393166 0
M  V30 3114 H 290.749 -3.94049 -1.38256 0
M  V30 3115 N 291.186 -0.45159 -1.50991 0
M  V30 3116 C 292.602 -0.104647 -1.59257 0
M  V30 3117 C 292.802 1.38728 -1.4614 0
M  V30 3118 O 291.858 2.15866 -1.30989 0
M  V30 3119 C 293.171 -0.637468 -2.93865 0
M  V30 3120 C 294.719 -0.599166 -3.07212 0
M  V30 3121 C 295.194 -1.1092 -4.44366 0
M  V30 3122 N 296.685 -1.06778 -4.50725 0
M  V30 3123 C 297.42 -1.43314 -5.55201 0
M  V30 3124 N 296.916 -1.87204 -6.67028 0
M  V30 3125 N 298.709 -1.3504 -5.45638 0
M  V30 3126 H 290.86 -1.42214 -1.57762 0
M  V30 3127 H 293.123 -0.586921 -0.744465 0
M  V30 3128 H 292.829 -1.68187 -3.08879 0
M  V30 3129 H 292.703 -0.0702139 -3.77135 0
M  V30 3130 H 295.09 0.436277 -2.91857 0
M  V30 3131 H 295.171 -1.20299 -2.25747 0
M  V30 3132 H 294.815 -2.14318 -4.60467 0
M  V30 3133 H 294.745 -0.481773 -5.24392 0
M  V30 3134 H 297.236 -0.745643 -3.70471 0
M  V30 3135 H 297.549 -2.13282 -7.42786 0
M  V30 3136 H 295.894 -1.91142 -6.68199 0
M  V30 3137 H 299.085 -1.00607 -4.57161 0
M  V30 3138 H 299.258 -1.63841 -6.26945 0
M  V30 3139 N 292.664 1.56529 -0.183458 0
M  V30 3140 C 293.627 2.17324 0.728223 0
M  V30 3141 C 294.627 1.12453 1.14939 0
M  V30 3142 O 295.817 1.37902 1.06437 0
M  V30 3143 C 292.949 2.76591 1.99274 0
M  V30 3144 H 294.142 2.99241 0.198772 0
M  V30 3145 H 291.695 1.5616 0.0661391 0
M  V30 3146 H 292.43 1.98441 2.56499 0
M  V30 3147 H 292.215 3.5335 1.69959 0
M  V30 3148 H 293.705 3.23311 2.6431 0
M  V30 3149 N 294.142 -0.090211 1.57342 0
M  V30 3150 C 295.052 -1.12735 2.05738 0
M  V30 3151 C 296.068 -1.43557 0.983231 0
M  V30 3152 O 297.244 -1.54101 1.29672 0
M  V30 3153 C 294.309 -2.42659 2.47624 0
M  V30 3154 C 293.37 -2.18975 3.69254 0
M  V30 3155 C 292.603 -3.42704 4.09133 0
M  V30 3156 O 292.826 -4.51127 3.49057 0
M  V30 3157 O 291.76 -3.32003 5.02053 0
M  V30 3158 H 295.586 -0.746279 2.94388 0
M  V30 3159 H 293.171 -0.303064 1.46294 0
M  V30 3160 H 295.053 -3.19155 2.7517 0
M  V30 3161 H 293.728 -2.80182 1.62109 0
M  V30 3162 H 292.635 -1.40244 3.46818 0
M  V30 3163 H 293.968 -1.86342 4.55563 0
M  V30 3164 N 295.62 -1.53406 -0.361157 0
M  V30 3165 C 296.583 -1.79479 -1.42548 0
M  V30 3166 C 297.583 -0.665327 -1.4639 0
M  V30 3167 O 298.773 -0.933549 -1.47073 0
M  V30 3168 C 295.905 -1.92087 -2.8163 0
M  V30 3169 H 297.098 -2.74538 -1.20701 0
M  V30 3170 H 294.651 -1.4455 -0.594546 0
M  V30 3171 H 295.386 -0.991099 -3.08784 0
M  V30 3172 H 295.171 -2.74241 -2.80239 0
M  V30 3173 H 296.661 -2.13836 -3.58697 0
M  V30 3174 N 297.098 0.621204 -1.44841 0
M  V30 3175 C 298.061 1.71459 -1.521 0
M  V30 3176 C 299.061 1.55696 -0.401933 0
M  V30 3177 O 300.251 1.61011 -0.664925 0
M  V30 3178 C 297.383 3.10624 -1.40447 0
M  V30 3179 H 298.576 1.66394 -2.49506 0
M  V30 3180 H 296.129 0.835745 -1.3208 0
M  V30 3181 H 296.864 3.21277 -0.441737 0
M  V30 3182 H 296.649 3.23473 -2.21602 0
M  V30 3183 H 298.139 3.90293 -1.4853 0
M  V30 3184 N 298.576 1.31904 0.862503 0
M  V30 3185 C 299.801 1.25135 1.65397 0
M  V30 3186 C 300.226 -0.179 1.87246 0
M  V30 3187 O 299.584 -1.1277 1.4196 0
M  V30 3188 C 299.632 2.00832 2.99498 0
M  V30 3189 O 298.736 1.35075 3.89652 0
M  V30 3190 H 298.077 0.431655 0.504549 0
M  V30 3191 H 300.607 1.74094 1.07483 0
M  V30 3192 H 300.617 2.10709 3.49379 0
M  V30 3193 H 299.292 3.04847 2.82916 0
M  V30 3194 H 297.869 1.33696 3.48109 0
M  V30 3195 N 300.054 -1.07777 1.14986 0
M  V30 3196 C 300.986 -2.14769 0.800436 0
M  V30 3197 C 301.999 -1.61739 -0.185595 0
M  V30 3198 O 303.188 -1.78462 0.0370358 0
M  V30 3199 C 300.288 -3.38481 0.168533 0
M  V30 3200 C 299.461 -4.20876 1.1909 0
M  V30 3201 C 298.52 -5.22976 0.581575 0
M  V30 3202 O 297.546 -5.55388 1.24633 0
M  V30 3203 N 298.748 -5.76976 -0.638706 0
M  V30 3204 H 301.513 -2.45348 1.72118 0
M  V30 3205 H 299.074 -1.23645 1.04515 0
M  V30 3206 H 301.066 -4.03916 -0.251764 0
M  V30 3207 H 299.636 -3.05651 -0.655467 0
M  V30 3208 H 298.856 -3.51322 1.78791 0
M  V30 3209 H 300.144 -4.7274 1.88133 0
M  V30 3210 H 299.542 -5.52886 -1.19723 0
M  V30 3211 H 298.099 -6.44061 -1.00142 0
M  V30 3212 N 301.532 -0.945985 -1.26051 0
M  V30 3213 C 302.442 -0.465633 -2.29933 0
M  V30 3214 C 303.458 0.462761 -1.67733 0
M  V30 3215 O 304.634 0.341118 -1.9849 0
M  V30 3216 C 301.699 0.256994 -3.45746 0
M  V30 3217 C 300.76 -0.708549 -4.23412 0
M  V30 3218 C 299.993 -0.0203135 -5.33696 0
M  V30 3219 O 300.216 1.19571 -5.57726 0
M  V30 3220 O 299.15 -0.701459 -5.97799 0
M  V30 3221 H 302.976 -1.32866 -2.73094 0
M  V30 3222 H 300.561 -0.712071 -1.31339 0
M  V30 3223 H 302.443 0.663852 -4.16138 0
M  V30 3224 H 301.118 1.09533 -3.04605 0
M  V30 3225 H 300.025 -1.16545 -3.55483 0
M  V30 3226 H 301.358 -1.51465 -4.68315 0
M  V30 3227 N 303.011 1.40521 -0.713556 0
M  V30 3228 C 304.258 2.00923 -0.25219 0
M  V30 3229 C 304.586 1.56571 1.15395 0
M  V30 3230 O 303.841 0.775874 1.79663 0
M  V30 3231 C 304.14 3.56317 -0.278 0
M  V30 3232 C 303.806 4.20246 -1.63415 0
M  V30 3233 C 302.468 4.37422 -2.00538 0
M  V30 3234 C 304.82 4.55923 -2.52554 0
M  V30 3235 C 302.148 4.87558 -3.2635 0
M  V30 3236 C 304.5 5.07458 -3.77716 0
M  V30 3237 C 303.164 5.22843 -4.14959 0
M  V30 3238 H 302.434 0.735231 -0.0922829 0
M  V30 3239 H 305.081 1.68161 -0.916188 0
M  V30 3240 H 303.386 3.88976 0.469567 0
M  V30 3241 H 305.083 4.00883 0.0967819 0
M  V30 3242 H 301.673 4.07263 -1.33546 0
M  V30 3243 H 305.857 4.42291 -2.25149 0
M  V30 3244 H 301.113 4.97654 -3.55176 0
M  V30 3245 H 305.287 5.34041 -4.4696 0
M  V30 3246 H 302.914 5.61454 -5.12516 0
M  V30 3247 N 304.489 0.459591 1.5075 0
M  V30 3248 C 305.717 -0.0973749 2.06671 0
M  V30 3249 C 306.132 -1.34524 1.32472 0
M  V30 3250 O 305.489 -1.7827 0.390634 0
M  V30 3251 C 305.54 -0.39714 3.59312 0
M  V30 3252 O 305.261 0.801214 4.30711 0
M  V30 3253 C 306.762 -1.00234 4.31819 0
M  V30 3254 H 303.982 0.00195854 0.670997 0
M  V30 3255 H 306.526 0.645072 1.94059 0
M  V30 3256 H 304.681 -1.08951 3.71764 0
M  V30 3257 H 305.095 0.538857 5.21725 0
M  V30 3258 H 306.569 -1.16193 5.39632 0
M  V30 3259 H 307.046 -1.98939 3.91561 0
M  V30 3260 H 307.652 -0.348699 4.23868 0
M  V30 3261 N 305.967 -1.56429 0.191757 0
M  V30 3262 C 307.383 -1.58754 -0.164137 0
M  V30 3263 C 307.583 -1.20782 -1.61288 0
M  V30 3264 O 306.639 -0.928999 -2.34789 0
M  V30 3265 C 307.952 -3.00396 0.135195 0
M  V30 3266 C 309.5 -3.1291 0.0750351 0
M  V30 3267 C 309.975 -4.56679 0.347632 0
M  V30 3268 N 311.466 -4.62252 0.296131 0
M  V30 3269 C 312.201 -5.71379 0.480948 0
M  V30 3270 N 311.697 -6.88986 0.725933 0
M  V30 3271 N 313.49 -5.60563 0.415435 0
M  V30 3272 H 305.641 -1.79393 1.13718 0
M  V30 3273 H 307.904 -0.832414 0.453643 0
M  V30 3274 H 307.61 -3.32726 1.13958 0
M  V30 3275 H 307.484 -3.72963 -0.563773 0
M  V30 3276 H 309.871 -2.80394 -0.919948 0
M  V30 3277 H 309.952 -2.42736 0.807029 0
M  V30 3278 H 309.596 -4.89907 1.33992 0
M  V30 3279 H 309.526 -5.25039 -0.405212 0
M  V30 3280 H 312.017 -3.7773 0.113259 0
M  V30 3281 H 312.33 -7.68046 0.855857 0
M  V30 3282 H 310.675 -6.90801 0.762788 0
M  V30 3283 H 313.866 -4.67561 0.224486 0
M  V30 3284 H 314.039 -6.45551 0.562889 0
M  V30 3285 N 307.445 0.0818655 -1.57387 0
M  V30 3286 C 308.675 0.794954 -1.90694 0
M  V30 3287 C 309.083 1.72147 -0.784982 0
M  V30 3288 O 308.426 1.81974 0.251196 0
M  V30 3289 C 308.488 1.65042 -3.19376 0
M  V30 3290 C 308.152 0.894337 -4.48164 0
M  V30 3291 C 309.149 0.21813 -5.19442 0
M  V30 3292 C 306.834 0.864495 -4.94805 0
M  V30 3293 C 308.828 -0.477802 -6.35607 0
M  V30 3294 C 306.515 0.164785 -6.10878 0
M  V30 3295 C 307.513 -0.505173 -6.81129 0
M  V30 3296 O 307.201 -1.19363 -7.94989 0
M  V30 3297 H 306.933 0.231779 -0.635023 0
M  V30 3298 H 309.487 0.059493 -2.05314 0
M  V30 3299 H 307.717 2.42844 -3.00938 0
M  V30 3300 H 309.406 2.24127 -3.38411 0
M  V30 3301 H 310.172 0.232558 -4.84442 0
M  V30 3302 H 306.051 1.37542 -4.40004 0
M  V30 3303 H 309.595 -1.00129 -6.90377 0
M  V30 3304 H 305.492 0.148249 -6.4533 0
M  V30 3305 H 306.26 -1.10188 -8.11049 0
M  V30 3306 N 308.923 1.53595 0.353017 0
M  V30 3307 C 310.17 1.70385 1.09431 0
M  V30 3308 C 310.498 0.462113 1.88931 0
M  V30 3309 O 309.753 -0.556074 1.87633 0
M  V30 3310 C 310.052 2.91313 2.07054 0
M  V30 3311 C 309.718 4.27308 1.43939 0
M  V30 3312 C 308.38 4.64287 1.26454 0
M  V30 3313 C 310.732 5.11829 0.983883 0
M  V30 3314 C 308.06 5.83412 0.620226 0
M  V30 3315 C 310.412 6.31611 0.353516 0
M  V30 3316 C 309.076 6.67293 0.166272 0
M  V30 3317 H 308.346 0.623484 0.400436 0
M  V30 3318 H 310.993 1.87799 0.374655 0
M  V30 3319 H 309.298 2.68463 2.85368 0
M  V30 3320 H 310.995 3.01497 2.64387 0
M  V30 3321 H 307.585 3.98198 1.58543 0
M  V30 3322 H 311.769 4.838 1.10685 0
M  V30 3323 H 307.025 6.09639 0.463681 0
M  V30 3324 H 311.199 6.964 -0.00757555 0
M  V30 3325 H 308.826 7.59461 -0.335047 0
M  V30 3326 N 310.401 -0.613514 1.45168 0
M  V30 3327 C 311.817 -0.933629 1.29443 0
M  V30 3328 C 312.017 -2.00028 0.243101 0
M  V30 3329 O 311.073 -2.49848 -0.364992 0
M  V30 3330 C 312.386 -1.38018 2.67155 0
M  V30 3331 C 313.934 -1.49471 2.75004 0
M  V30 3332 C 314.409 -1.97503 4.13227 0
M  V30 3333 N 315.9 -2.04746 4.15491 0
M  V30 3334 C 316.635 -2.43121 5.19307 0
M  V30 3335 N 316.131 -2.80506 6.33473 0
M  V30 3336 N 317.924 -2.43408 5.06664 0
M  V30 3337 H 310.075 0.0916097 2.12202 0
M  V30 3338 H 312.338 -0.0216655 0.947752 0
M  V30 3339 H 312.044 -0.670625 3.45247 0
M  V30 3340 H 311.918 -2.34784 2.95222 0
M  V30 3341 H 314.305 -2.19519 1.9722 0
M  V30 3342 H 314.386 -0.510342 2.50657 0
M  V30 3343 H 314.03 -1.28045 4.91495 0
M  V30 3344 H 313.96 -2.96843 4.34962 0
M  V30 3345 H 316.451 -1.78468 3.33103 0
M  V30 3346 H 316.764 -3.08652 7.08487 0
M  V30 3347 H 315.109 -2.78216 6.36884 0
M  V30 3348 H 318.3 -2.13604 4.16523 0
M  V30 3349 H 318.473 -2.72989 5.87691 0
M  V30 3350 N 311.879 -1.3236 -0.855495 0
M  V30 3351 C 313.295 -1.11332 -1.14356 0
M  V30 3352 C 313.495 0.106751 -2.01217 0
M  V30 3353 O 312.551 0.791891 -2.39761 0
M  V30 3354 C 313.864 -2.39237 -1.82171 0
M  V30 3355 C 315.412 -2.44986 -1.9481 0
M  V30 3356 C 315.887 -3.7281 -2.66039 0
M  V30 3357 N 317.378 -3.73787 -2.73565 0
M  V30 3358 C 318.113 -4.69394 -3.29327 0
M  V30 3359 N 317.609 -5.75367 -3.85907 0
M  V30 3360 N 319.402 -4.56893 -3.27423 0
M  V30 3361 H 311.553 -2.10586 -0.277027 0
M  V30 3362 H 313.816 -0.929701 -0.185364 0
M  V30 3363 H 313.522 -3.28431 -1.25802 0
M  V30 3364 H 313.396 -2.50134 -2.82335 0
M  V30 3365 H 315.783 -1.56252 -2.50338 0
M  V30 3366 H 315.864 -2.38043 -0.936448 0
M  V30 3367 H 315.508 -4.61918 -2.11174 0
M  V30 3368 H 315.438 -3.77024 -3.67642 0
M  V30 3369 H 317.929 -2.97189 -2.33424 0
M  V30 3370 H 318.242 -6.44378 -4.26611 0
M  V30 3371 H 316.587 -5.79123 -3.84242 0
M  V30 3372 H 319.778 -3.73269 -2.82467 0
M  V30 3373 H 319.951 -5.31577 -3.7058 0
M  V30 3374 N 313.357 1.07166 -1.15556 0
M  V30 3375 C 314.267 2.17947 -0.868116 0
M  V30 3376 C 315.283 1.73297 0.156297 0
M  V30 3377 O 316.459 2.01392 -0.0182327 0
M  V30 3378 C 313.524 3.44789 -0.36355 0
M  V30 3379 C 312.585 4.03996 -1.45209 0
M  V30 3380 C 311.818 5.24783 -0.971508 0
M  V30 3381 O 312.041 5.70109 0.182194 0
M  V30 3382 O 310.975 5.75715 -1.75603 0
M  V30 3383 H 314.801 2.4503 -1.79427 0
M  V30 3384 H 312.386 1.16539 -0.934824 0
M  V30 3385 H 314.268 4.21307 -0.0887113 0
M  V30 3386 H 312.943 3.19253 0.534708 0
M  V30 3387 H 311.85 3.29009 -1.78056 0
M  V30 3388 H 313.183 4.33808 -2.32533 0
M  V30 3389 N 314.835 0.952656 1.25548 0
M  V30 3390 C 316.081 0.607272 1.93494 0
M  V30 3391 C 316.414 -0.853245 1.74452 0
M  V30 3392 O 315.689 -1.61194 1.08843 0
M  V30 3393 C 315.972 0.96435 3.46947 0
M  V30 3394 C 315.825 2.48045 3.75225 0
M  V30 3395 C 317.144 0.487987 4.37386 0
M  V30 3396 H 314.263 0.222096 0.702739 0
M  V30 3397 H 316.905 1.18895 1.48203 0
M  V30 3398 H 315.055 0.469361 3.85654 0
M  V30 3399 H 316.727 3.04905 3.46166 0
M  V30 3400 H 314.97 2.919 3.209 0
M  V30 3401 H 315.641 2.6808 4.82532 0
M  V30 3402 H 318.117 0.912558 4.0597 0
M  V30 3403 H 316.993 0.766547 5.43521 0
M  V30 3404 H 317.254 -0.612063 4.37843 0
M  V30 3405 N 316.313 -1.40141 0.720998 0
M  V30 3406 C 317.59 -1.94677 0.189757 0
M  V30 3407 C 317.97 -1.65879 -1.30566 0
M  V30 3408 O 317.318 -0.979391 -2.06447 0
M  V30 3409 C 317.528 -3.45279 0.508304 0
M  V30 3410 C 318.876 -4.22209 0.449934 0
M  V30 3411 O 319.9 -3.53413 0.444677 0
M  V30 3412 O 318.759 -5.44788 0.432189 0
M  V30 3413 H 315.853 -0.826459 0.0299026 0
M  V30 3414 H 318.399 -1.49719 0.7989 0
M  V30 3415 H 317.171 -3.59619 1.54239 0
M  V30 3416 H 316.794 -3.97386 -0.130525 0
M  V30 3417 N 317.792 -0.46758 -1.50504 0
M  V30 3418 C 319.208 -0.121533 -1.59137 0
M  V30 3419 C 319.408 1.3717 -1.47603 0
M  V30 3420 O 318.464 2.14464 -1.33272 0
M  V30 3421 C 319.777 -0.6686 -2.93173 0
M  V30 3422 C 321.325 -0.631716 -3.06559 0
M  V30 3423 C 321.8 -1.15627 -4.43164 0
M  V30 3424 N 323.291 -1.11553 -4.49567 0
M  V30 3425 C 324.026 -1.49195 -5.5365 0
M  V30 3426 N 323.522 -1.94269 -6.65005 0
M  V30 3427 N 325.315 -1.4082 -5.44175 0
M  V30 3428 H 317.466 -1.4388 -1.56245 0
M  V30 3429 H 319.729 -0.594784 -0.738198 0
M  V30 3430 H 319.435 -1.71453 -3.07078 0
M  V30 3431 H 319.309 -0.11021 -3.77039 0
M  V30 3432 H 321.696 0.405297 -2.92304 0
M  V30 3433 H 321.777 -1.22687 -2.24458 0
M  V30 3434 H 321.421 -2.1919 -4.58168 0
M  V30 3435 H 321.351 -0.537365 -5.23851 0
M  V30 3436 H 323.842 -0.784895 -3.69659 0
M  V30 3437 H 324.155 -2.21148 -7.40482 0
M  V30 3438 H 322.5 -1.98219 -6.66134 0
M  V30 3439 H 325.691 -1.0545 -4.56068 0
M  V30 3440 H 325.864 -1.70481 -6.25172 0
M  V30 3441 N 319.27 1.56325 -0.20005 0
M  V30 3442 C 320.686 1.58839 0.155716 0
M  V30 3443 C 320.886 1.21636 1.60645 0
M  V30 3444 O 319.942 0.941437 2.34293 0
M  V30 3445 C 321.255 3.0032 -0.151124 0
M  V30 3446 C 322.803 3.12866 -0.0916284 0
M  V30 3447 C 323.278 4.56488 -0.371845 0
M  V30 3448 N 324.769 4.62089 -0.320641 0
M  V30 3449 C 325.504 5.71116 -0.511243 0
M  V30 3450 N 325 6.88592 -0.762461 0
M  V30 3451 N 326.793 5.60335 -0.445157 0
M  V30 3452 H 318.944 1.78788 -1.14668 0
M  V30 3453 H 321.207 0.829996 -0.458051 0
M  V30 3454 H 320.913 3.32117 -1.15721 0
M  V30 3455 H 320.787 3.73257 0.543986 0
M  V30 3456 H 323.174 2.80878 0.905065 0
M  V30 3457 H 323.255 2.42304 -0.81989 0
M  V30 3458 H 322.899 4.89189 -1.36588 0
M  V30 3459 H 322.829 5.25246 0.377362 0
M  V30 3460 H 325.32 3.77665 -0.13329 0
M  V30 3461 H 325.633 7.67581 -0.896576 0
M  V30 3462 H 323.978 6.90387 -0.799412 0
M  V30 3463 H 327.169 4.67436 -0.249278 0
M  V30 3464 H 327.342 6.45243 -0.597116 0
M  V30 3465 N 320.748 -0.0735177 1.57428 0
M  V30 3466 C 321.996 -0.771472 1.86796 0
M  V30 3467 C 322.317 -1.78201 0.791804 0
M  V30 3468 O 321.587 -1.95074 -0.179718 0
M  V30 3469 H 320.167 -0.28791 0.689287 0
M  V30 3470 H 322.829 -0.0500161 1.94836 0
M  V30 3471 H 321.925 -1.28874 2.8425 0
M  V30 3472 N 322.226 -1.5378 -0.344866 0
M  V30 3473 C 323.474 -1.70625 -1.08311 0
M  V30 3474 C 323.795 -0.471447 -1.89215 0
M  V30 3475 O 323.065 0.514616 -1.8902 0
M  V30 3476 H 321.645 -0.629058 -0.402859 0
M  V30 3477 H 324.307 -1.9103 -0.386459 0
M  V30 3478 H 323.403 -2.57656 -1.76124 0
M  V30 3479 N 323.704 0.605807 -1.45491 0
M  V30 3480 C 324.981 1.36522 -1.40075 0
M  V30 3481 C 325.361 2.10976 -0.0722744 0
M  V30 3482 O 324.709 2.08007 0.945808 0
M  V30 3483 C 324.919 2.31056 -2.61561 0
M  V30 3484 C 326.267 2.93608 -3.06724 0
M  V30 3485 O 327.291 2.41376 -2.61946 0
M  V30 3486 O 326.15 3.88421 -3.84437 0
M  V30 3487 H 323.244 0.612248 -0.555951 0
M  V30 3488 H 325.79 0.628747 -1.57623 0
M  V30 3489 H 324.562 1.75311 -3.49831 0
M  V30 3490 H 324.185 3.12081 -2.46356 0
M  V30 3491 N 325.182 1.32811 0.848464 0
M  V30 3492 C 326.459 1.14334 1.58704 0
M  V30 3493 C 326.839 -0.293948 2.09043 0
M  V30 3494 O 326.187 -1.29153 1.88499 0
M  V30 3495 C 326.397 2.17626 2.72837 0
M  V30 3496 C 327.745 2.51282 3.42261 0
M  V30 3497 O 328.769 2.16219 2.83068 0
M  V30 3498 O 327.628 3.11413 4.49093 0
M  V30 3499 H 324.722 0.441601 0.699226 0
M  V30 3500 H 327.268 1.44362 0.892053 0
M  V30 3501 H 326.04 3.14211 2.3321 0
M  V30 3502 H 325.663 1.88628 3.50008 0
M  V30 3503 N 326.66 -1.06551 1.16123 0
M  V30 3504 C 328.076 -1.3142 0.905585 0
M  V30 3505 C 328.276 -1.96571 -0.442964 0
M  V30 3506 O 327.332 -2.23068 -1.18308 0
M  V30 3507 C 328.645 -2.19741 2.05267 0
M  V30 3508 C 330.193 -2.33165 2.08813 0
M  V30 3509 C 330.668 -3.24838 3.22868 0
M  V30 3510 N 332.159 -3.32421 3.22568 0
M  V30 3511 C 332.894 -4.0344 4.0746 0
M  V30 3512 N 332.39 -4.77003 5.02434 0
M  V30 3513 N 334.183 -3.99464 3.95456 0
M  V30 3514 H 326.334 -0.626548 2.02949 0
M  V30 3515 H 328.597 -0.338777 0.8854 0
M  V30 3516 H 328.303 -1.79142 3.02657 0
M  V30 3517 H 328.177 -3.20313 1.99198 0
M  V30 3518 H 330.564 -2.73013 1.12018 0
M  V30 3519 H 330.645 -1.3227 2.18948 0
M  V30 3520 H 330.289 -2.85708 4.19921 0
M  V30 3521 H 330.219 -4.25707 3.0997 0
M  V30 3522 H 332.71 -2.79994 2.53795 0
M  V30 3523 H 333.023 -5.28712 5.63634 0
M  V30 3524 H 331.368 -4.75992 5.06415 0
M  V30 3525 H 334.559 -3.4111 3.20564 0
M  V30 3526 H 334.732 -4.54544 4.61837 0
M  V30 3527 N 328.138 -0.959301 -1.25041 0
M  V30 3528 C 329.415 -0.533805 -1.88175 0
M  V30 3529 C 329.795 0.988994 -1.865 0
M  V30 3530 O 329.143 1.85677 -1.33177 0
M  V30 3531 C 329.353 -1.11575 -3.30684 0
M  V30 3532 C 330.701 -1.19548 -4.07423 0
M  V30 3533 O 331.725 -1.06765 -3.39823 0
M  V30 3534 O 330.584 -1.39656 -5.28354 0
M  V30 3535 H 327.678 -0.176772 -0.807887 0
M  V30 3536 H 330.224 -1.05303 -1.33076 0
M  V30 3537 H 328.996 -2.15884 -3.26358 0
M  V30 3538 H 328.619 -0.580059 -3.93346 0
M  V30 3539 N 329.616 1.39756 -0.72842 0
M  V30 3540 C 330.893 1.94574 -0.200079 0
M  V30 3541 C 331.273 1.66569 1.29684 0
M  V30 3542 O 330.621 0.990326 2.05924 0
M  V30 3543 C 330.831 3.45004 -0.526608 0
M  V30 3544 C 332.179 4.21965 -0.472318 0
M  V30 3545 O 333.203 3.53173 -0.463413 0
M  V30 3546 O 332.062 5.44552 -0.461075 0
M  V30 3547 H 329.156 0.826289 -0.0342851 0
M  V30 3548 H 331.702 1.49293 -0.806829 0
M  V30 3549 H 330.474 3.58796 -1.56144 0
M  V30 3550 H 330.097 3.97449 0.109449 0
M  V30 3551 N 331.094 0.475555 1.50254 0
M  V30 3552 C 332.024 -0.30611 2.31485 0
M  V30 3553 C 333.005 -0.986228 1.38591 0
M  V30 3554 O 334.19 -0.982541 1.67511 0
M  V30 3555 C 331.32 -1.38588 3.1845 0
M  V30 3556 C 330.274 -0.827115 4.19932 0
M  V30 3557 C 329.6 -2.00551 4.95665 0
M  V30 3558 C 330.9 0.16463 5.2204 0
M  V30 3559 H 332.594 0.371866 2.97082 0
M  V30 3560 H 330.14 0.180282 1.42867 0
M  V30 3561 H 332.093 -1.94023 3.74076 0
M  V30 3562 H 330.817 -2.09269 2.50747 0
M  V30 3563 H 329.476 -0.294702 3.65414 0
M  V30 3564 H 329.124 -2.6994 4.2443 0
M  V30 3565 H 328.824 -1.63784 5.64313 0
M  V30 3566 H 330.348 -2.56468 5.54127 0
M  V30 3567 H 331.762 -0.300699 5.72511 0
M  V30 3568 H 330.159 0.446813 5.98434 0
M  V30 3569 H 331.229 1.08905 4.72512 0
M  V30 3570 N 332.573 -1.56217 0.208337 0
M  V30 3571 C 333.503 -2.22694 -0.702116 0
M  V30 3572 C 334.484 -1.19432 -1.2112 0
M  V30 3573 O 335.669 -1.47978 -1.25762 0
M  V30 3574 C 332.799 -2.8966 -1.9161 0
M  V30 3575 C 331.753 -3.9928 -1.5414 0
M  V30 3576 C 331.079 -4.53476 -2.83308 0
M  V30 3577 C 332.379 -5.17012 -0.741339 0
M  V30 3578 H 334.073 -2.99034 -0.147898 0
M  V30 3579 H 331.619 -1.43831 -0.0696951 0
M  V30 3580 H 333.572 -3.34852 -2.55836 0
M  V30 3581 H 332.296 -2.10746 -2.49507 0
M  V30 3582 H 330.955 -3.54799 -0.922668 0
M  V30 3583 H 330.603 -3.71308 -3.39322 0
M  V30 3584 H 330.303 -5.27451 -2.58976 0
M  V30 3585 H 331.827 -5.01378 -3.485 0
M  V30 3586 H 333.241 -5.58667 -1.28699 0
M  V30 3587 H 331.638 -5.97137 -0.595627 0
M  V30 3588 H 332.708 -4.8423 0.254851 0
M  V30 3589 N 334.051 0.0651679 -1.57465 0
M  V30 3590 C 335.279 0.775808 -1.91804 0
M  V30 3591 C 335.694 1.70782 -0.804916 0
M  V30 3592 O 335.051 1.81153 0.221311 0
M  V30 3593 C 335.102 1.56381 -3.25925 0
M  V30 3594 O 334.823 0.669248 -4.32958 0
M  V30 3595 C 336.324 2.37485 -3.7432 0
M  V30 3596 H 333.544 0.2202 -0.63384 0
M  V30 3597 H 336.088 0.0334587 -2.04473 0
M  V30 3598 H 334.243 2.25837 -3.14764 0
M  V30 3599 H 334.657 1.21801 -5.10162 0
M  V30 3600 H 336.131 2.88223 -4.70778 0
M  V30 3601 H 336.608 3.17307 -3.03666 0
M  V30 3602 H 337.214 1.73173 -3.88447 0
M  V30 3603 N 335.529 1.53961 0.336706 0
M  V30 3604 C 336.459 1.85417 1.41925 0
M  V30 3605 C 337.44 0.709856 1.5458 0
M  V30 3606 O 338.625 0.962396 1.68676 0
M  V30 3607 C 335.755 2.06985 2.78881 0
M  V30 3608 C 334.709 3.22813 2.81026 0
M  V30 3609 C 334.035 3.29727 4.20932 0
M  V30 3610 C 335.335 4.60767 2.45949 0
M  V30 3611 H 337.029 2.76079 1.15848 0
M  V30 3612 H 334.575 1.32839 0.555859 0
M  V30 3613 H 336.528 2.27575 3.54665 0
M  V30 3614 H 335.252 1.13061 3.06406 0
M  V30 3615 H 333.911 3.0209 2.07695 0
M  V30 3616 H 333.559 2.33385 4.45579 0
M  V30 3617 H 333.259 4.07566 4.23277 0
M  V30 3618 H 334.783 3.52536 4.98549 0
M  V30 3619 H 336.197 4.81325 3.11446 0
M  V30 3620 H 334.594 5.4106 2.59566 0
M  V30 3621 H 335.664 4.6391 1.41122 0
M  V30 3622 N 337.007 -0.598083 1.45811 0
M  V30 3623 C 337.937 -1.71873 1.58057 0
M  V30 3624 C 338.918 -1.64533 0.431615 0
M  V30 3625 O 340.103 -1.82787 0.65595 0
M  V30 3626 C 337.233 -3.10495 1.55597 0
M  V30 3627 C 336.187 -3.32654 2.69305 0
M  V30 3628 C 335.513 -4.71646 2.51902 0
M  V30 3629 C 336.813 -3.21981 4.11248 0
M  V30 3630 H 338.507 -1.61881 2.51863 0
M  V30 3631 H 336.053 -0.777372 1.21214 0
M  V30 3632 H 338.006 -3.88699 1.6276 0
M  V30 3633 H 336.73 -3.2135 0.583255 0
M  V30 3634 H 335.389 -2.56843 2.61586 0
M  V30 3635 H 335.037 -4.79246 1.52748 0
M  V30 3636 H 334.737 -4.87426 3.2816 0
M  V30 3637 H 336.261 -5.52038 2.60933 0
M  V30 3638 H 337.675 -3.90049 4.20161 0
M  V30 3639 H 336.072 -3.49289 4.87972 0
M  V30 3640 H 337.142 -2.1928 4.32486 0
M  V30 3641 N 338.485 -1.33259 -0.841409 0
M  V30 3642 C 339.731 -1.24757 -1.59886 0
M  V30 3643 C 340.064 0.186913 -1.93298 0
M  V30 3644 O 339.339 1.12757 -1.5848 0
M  V30 3645 C 339.622 -2.12036 -2.91055 0
M  V30 3646 C 339.475 -3.63929 -2.6434 0
M  V30 3647 C 340.794 -1.9916 -3.92458 0
M  V30 3648 H 337.913 -0.454542 -0.580138 0
M  V30 3649 H 340.555 -1.63335 -0.970647 0
M  V30 3650 H 338.705 -1.79265 -3.44669 0
M  V30 3651 H 340.377 -4.06978 -2.17178 0
M  V30 3652 H 338.62 -3.85935 -1.98082 0
M  V30 3653 H 339.291 -4.20341 -3.57796 0
M  V30 3654 H 341.767 -2.27895 -3.48143 0
M  V30 3655 H 340.643 -2.62484 -4.82072 0
M  V30 3656 H 340.904 -0.963082 -4.31482 0
M  V30 3657 N 339.963 1.05934 -1.16686 0
M  V30 3658 C 341.379 1.30938 -0.912542 0
M  V30 3659 C 341.579 1.96803 0.432533 0
M  V30 3660 O 340.635 2.23693 1.17123 0
M  V30 3661 C 341.948 2.18649 -2.06429 0
M  V30 3662 C 343.496 2.32055 -2.10047 0
M  V30 3663 C 343.971 3.23122 -3.24586 0
M  V30 3664 N 345.462 3.30706 -3.24327 0
M  V30 3665 C 346.197 4.01273 -4.09594 0
M  V30 3666 N 345.693 4.74332 -5.04956 0
M  V30 3667 N 347.486 3.97361 -3.97569 0
M  V30 3668 H 339.637 0.615777 -2.03278 0
M  V30 3669 H 341.9 0.334077 -0.887185 0
M  V30 3670 H 341.606 1.77534 -3.03603 0
M  V30 3671 H 341.48 3.19252 -2.00894 0
M  V30 3672 H 343.867 2.72415 -1.13464 0
M  V30 3673 H 343.948 1.31107 -2.19647 0
M  V30 3674 H 343.592 2.83477 -4.2143 0
M  V30 3675 H 343.522 4.24057 -3.12223 0
M  V30 3676 H 346.013 2.78644 -2.55276 0
M  V30 3677 H 346.326 5.25716 -5.6643 0
M  V30 3678 H 344.671 4.733 -5.08933 0
M  V30 3679 H 347.862 3.39405 -3.22369 0
M  V30 3680 H 348.035 4.52089 -4.64241 0
M  V30 3681 N 341.441 0.965919 1.2453 0
M  V30 3682 C 342.404 0.499547 2.2369 0
M  V30 3683 C 343.404 -0.40294 1.5567 0
M  V30 3684 O 344.594 -0.19865 1.73064 0
M  V30 3685 C 341.726 -0.276792 3.39774 0
M  V30 3686 H 342.919 1.37613 2.66463 0
M  V30 3687 H 340.472 0.750324 1.37112 0
M  V30 3688 H 341.207 -1.17055 3.02438 0
M  V30 3689 H 340.992 0.370826 3.90343 0
M  V30 3690 H 342.482 -0.592175 4.1338 0
M  V30 3691 N 342.919 -1.39368 0.735821 0
M  V30 3692 C 344.335 -1.54204 0.411492 0
M  V30 3693 C 344.535 -1.70268 -1.07755 0
M  V30 3694 O 343.591 -1.70364 -1.86366 0
M  V30 3695 C 344.904 -2.75925 1.19523 0
M  V30 3696 C 346.452 -2.89761 1.18354 0
M  V30 3697 C 346.927 -4.14421 1.94986 0
M  V30 3698 N 348.418 -4.21462 1.92156 0
M  V30 3699 C 349.153 -5.16871 2.48258 0
M  V30 3700 N 348.649 -6.18063 3.13001 0
M  V30 3701 N 350.442 -5.09093 2.38287 0
M  V30 3702 H 342.593 -1.27189 1.70108 0
M  V30 3703 H 344.856 -0.616517 0.720147 0
M  V30 3704 H 344.562 -2.70401 2.24892 0
M  V30 3705 H 344.436 -3.68614 0.800222 0
M  V30 3706 H 346.823 -2.94777 0.137975 0
M  V30 3707 H 346.904 -1.98133 1.61793 0
M  V30 3708 H 346.548 -4.10166 2.99543 0
M  V30 3709 H 346.478 -5.05095 1.48953 0
M  V30 3710 H 348.969 -3.48979 1.44991 0
M  V30 3711 H 349.282 -6.87326 3.53275 0
M  V30 3712 H 347.627 -6.18448 3.17091 0
M  V30 3713 H 350.818 -4.28973 1.8735 0
M  V30 3714 H 350.991 -5.83272 2.82308 0
M  V30 3715 N 344.397 -0.483516 -1.5 0
M  V30 3716 C 345.674 0.129337 -1.95172 0
M  V30 3717 C 346.054 1.55802 -1.4244 0
M  V30 3718 O 345.402 2.19625 -0.630649 0
M  V30 3719 C 345.612 0.0599251 -3.48949 0
M  V30 3720 C 346.96 0.242617 -4.23906 0
M  V30 3721 O 347.984 0.135933 -3.55941 0
M  V30 3722 O 346.843 0.459454 -5.44565 0
M  V30 3723 H 343.937 0.104887 -0.820322 0
M  V30 3724 H 346.483 -0.544807 -1.60717 0
M  V30 3725 H 345.255 -0.937079 -3.79914 0
M  V30 3726 H 344.878 0.774984 -3.89974 0
M  V30 3727 N 345.875 1.56104 -0.216619 0
M  V30 3728 C 347.103 2.02563 0.421413 0
M  V30 3729 C 347.518 1.0965 1.53695 0
M  V30 3730 O 346.875 0.10521 1.82196 0
M  V30 3731 C 346.926 3.48584 0.957665 0
M  V30 3732 O 346.647 4.37953 -0.113389 0
M  V30 3733 C 348.148 4.10664 1.66943 0
M  V30 3734 H 345.368 0.662944 0.103665 0
M  V30 3735 H 347.912 2.01793 -0.331629 0
M  V30 3736 H 346.067 3.49985 1.661 0
M  V30 3737 H 346.481 5.23704 0.288932 0
M  V30 3738 H 347.955 5.14622 1.99671 0
M  V30 3739 H 348.432 3.55373 2.58083 0
M  V30 3740 H 349.038 4.13098 1.01142 0
M  V30 3741 N 347.353 -0.0568162 1.57498 0
M  V30 3742 C 348.601 -0.751617 1.87604 0
M  V30 3743 C 348.922 -1.77351 0.81066 0
M  V30 3744 O 348.192 -1.95254 -0.159018 0
M  V30 3745 H 346.772 -0.280583 0.692302 0
M  V30 3746 H 349.434 -0.0293483 1.94878 0
M  V30 3747 H 348.53 -1.25852 2.856 0
M  V30 3748 N 348.832 -1.54138 -0.328536 0
M  V30 3749 C 350.057 -1.76378 -1.09112 0
M  V30 3750 C 350.482 -0.508596 -1.81094 0
M  V30 3751 O 349.84 0.539598 -1.73084 0
M  V30 3752 C 349.888 -2.95358 -2.06872 0
M  V30 3753 O 348.992 -2.66556 -3.14677 0
M  V30 3754 H 348.333 -0.584614 -0.314838 0
M  V30 3755 H 350.863 -2.01146 -0.374348 0
M  V30 3756 H 350.873 -3.22566 -2.4983 0
M  V30 3757 H 349.548 -3.86385 -1.5388 0
M  V30 3758 H 348.125 -2.50282 -2.7643 0
M  V30 3759 N 350.31 0.590341 -1.46126 0
M  V30 3760 C 351.721 1.17243 -1.45296 0
M  V30 3761 C 352.072 1.95281 -0.189723 0
M  V30 3762 O 351.197 2.04502 0.707674 0
M  V30 3763 C 351.792 2.13284 -2.6324 0
M  V30 3764 C 350.351 2.66832 -2.65476 0
M  V30 3765 C 349.498 1.42557 -2.3785 0
M  V30 3766 H 352.449 0.378692 -1.54116 0
M  V30 3767 H 352.47 2.96619 -2.38323 0
M  V30 3768 H 351.982 1.56459 -3.55165 0
M  V30 3769 H 350.083 3.27548 -1.77603 0
M  V30 3770 H 350.196 3.10088 -3.65215 0
M  V30 3771 H 348.56 1.72107 -1.87753 0
M  V30 3772 H 349.343 0.875741 -3.31942 0
M  V30 3773 N 351.788 1.33704 0.83433 0
M  V30 3774 C 352.718 1.26967 1.95963 0
M  V30 3775 C 353.699 0.149337 1.69443 0
M  V30 3776 O 354.884 0.339852 1.91203 0
M  V30 3777 C 352.014 1.01275 3.32206 0
M  V30 3778 C 350.968 2.09652 3.73136 0
M  V30 3779 C 350.294 1.69166 5.07235 0
M  V30 3780 C 351.594 3.51372 3.86439 0
M  V30 3781 H 353.288 2.2112 2.01857 0
M  V30 3782 H 350.834 1.06447 0.969793 0
M  V30 3783 H 352.787 0.952106 4.10503 0
M  V30 3784 H 351.511 0.0356203 3.26581 0
M  V30 3785 H 350.17 2.14766 2.97104 0
M  V30 3786 H 349.818 0.701437 4.98085 0
M  V30 3787 H 349.518 2.41694 5.35591 0
M  V30 3788 H 351.042 1.64576 5.88003 0
M  V30 3789 H 352.456 3.48734 4.55036 0
M  V30 3790 H 350.853 4.22425 4.26236 0
M  V30 3791 H 351.923 3.89546 2.88759 0
M  V30 3792 N 353.266 -1.05314 1.17247 0
M  V30 3793 C 354.491 -1.82509 0.985148 0
M  V30 3794 C 354.916 -1.82343 -0.461788 0
M  V30 3795 O 354.274 -1.23151 -1.33055 0
M  V30 3796 C 354.322 -3.26566 1.52929 0
M  V30 3797 O 353.426 -4.05666 0.742225 0
M  V30 3798 H 352.767 -0.564347 0.349869 0
M  V30 3799 H 355.297 -1.32718 1.55715 0
M  V30 3800 H 355.307 -3.77369 1.55103 0
M  V30 3801 H 353.982 -3.26001 2.58256 0
M  V30 3802 H 352.559 -3.64397 0.791794 0
M  V30 3803 N 354.744 -0.972509 -1.24016 0
M  V30 3804 C 355.99 -0.637978 -1.92504 0
M  V30 3805 C 356.323 0.825383 -1.75787 0
M  V30 3806 O 355.598 1.59442 -1.11393 0
M  V30 3807 C 355.881 -1.01942 -3.45369 0
M  V30 3808 C 355.734 -2.53983 -3.71231 0
M  V30 3809 C 357.053 -0.55751 -4.36555 0
M  V30 3810 H 354.172 -0.233248 -0.699117 0
M  V30 3811 H 356.814 -1.21238 -1.46292 0
M  V30 3812 H 354.964 -0.530656 -3.84859 0
M  V30 3813 H 356.636 -3.10374 -3.41271 0
M  V30 3814 H 354.879 -2.96968 -3.16216 0
M  V30 3815 H 355.55 -2.75723 -4.78206 0
M  V30 3816 H 358.026 -0.977029 -4.04467 0
M  V30 3817 H 356.902 -0.85292 -5.42233 0
M  V30 3818 H 357.163 0.542328 -4.38761 0
M  V30 3819 N 356.222 1.38976 -0.743202 0
M  V30 3820 C 357.499 1.94351 -0.220705 0
M  V30 3821 C 357.879 1.67935 1.2791 0
M  V30 3822 O 357.227 1.01211 2.04862 0
M  V30 3823 C 357.437 3.44426 -0.563171 0
M  V30 3824 C 358.785 4.2144 -0.517046 0
M  V30 3825 O 359.809 3.52661 -0.500846 0
M  V30 3826 O 358.668 5.44032 -0.518806 0
M  V30 3827 H 355.762 0.825879 -0.043047 0
M  V30 3828 H 358.308 1.48429 -0.822618 0
M  V30 3829 H 357.08 3.5712 -1.59941 0
M  V30 3830 H 356.703 3.97543 0.0672883 0
M  V30 3831 N 357.7 0.491464 1.49741 0
M  V30 3832 C 358.948 -0.0563141 2.02022 0
M  V30 3833 C 359.269 -1.38363 1.37407 0
M  V30 3834 O 358.539 -1.88702 0.526166 0
M  V30 3835 H 357.119 -0.0238014 0.746621 0
M  V30 3836 H 359.781 0.646533 1.83864 0
M  V30 3837 H 358.877 -0.192967 3.11503 0
M  V30 3838 N 359.178 -1.55987 0.224894 0
M  V30 3839 C 360.427 -1.97566 -0.406273 0
M  V30 3840 C 360.74 -1.11569 -1.6066 0
M  V30 3841 O 361.946 -1.43062 -2.3075 0
M  V30 3842 C 360.402 -3.51474 -0.774207 0
M  V30 3843 C 360.01 -4.46179 0.403496 0
M  V30 3844 C 361.754 -4.01758 -1.37079 0
M  V30 3845 C 359.661 -5.91399 0.0129412 0
M  V30 3846 H 358.591 -0.737777 -0.155565 0
M  V30 3847 H 361.242 -1.80659 0.321635 0
M  V30 3848 H 359.624 -3.63994 -1.55963 0
M  V30 3849 H 360.798 -4.45409 1.18101 0
M  V30 3850 H 359.113 -4.06255 0.913536 0
M  V30 3851 H 361.71 -5.07756 -1.67596 0
M  V30 3852 H 362.053 -3.47805 -2.28773 0
M  V30 3853 H 362.586 -3.92475 -0.648733 0
M  V30 3854 H 359.325 -6.49341 0.896451 0
M  V30 3855 H 358.845 -5.95356 -0.728821 0
M  V30 3856 H 360.524 -6.45683 -0.412582 0
M  V30 3857 N 360.656 0.0484629 -1.57525 0
M  V30 3858 C 361.902 0.744226 -1.88651 0
M  V30 3859 C 362.235 1.76029 -0.820212 0
M  V30 3860 O 361.51 1.93782 0.166985 0
M  V30 3861 C 361.793 1.43128 -3.30434 0
M  V30 3862 C 361.646 0.43005 -4.47739 0
M  V30 3863 C 362.965 2.37031 -3.70816 0
M  V30 3864 H 360.084 0.269089 -0.68612 0
M  V30 3865 H 362.726 0.00713532 -1.89999 0
M  V30 3866 H 360.876 2.05956 -3.29415 0
M  V30 3867 H 362.548 -0.194816 -4.60888 0
M  V30 3868 H 360.791 -0.252522 -4.33064 0
M  V30 3869 H 361.462 0.948874 -5.43783 0
M  V30 3870 H 363.938 1.84263 -3.73077 0
M  V30 3871 H 362.814 2.82094 -4.70865 0
M  V30 3872 H 363.075 3.22864 -3.02012 0
M  V30 3873 N 362.134 1.5431 0.320358 0
M  V30 3874 C 363.382 1.72327 1.05583 0
M  V30 3875 C 363.703 0.50149 1.88441 0
M  V30 3876 O 362.973 -0.48448 1.89815 0
M  V30 3877 H 361.553 0.635387 0.3928 0
M  V30 3878 H 364.215 1.91621 0.356019 0
M  V30 3879 H 363.311 2.60426 1.72003 0
M  V30 3880 N 363.613 -0.582584 1.46437 0
M  V30 3881 C 364.841 -1.36682 1.55324 0
M  V30 3882 C 365.256 -1.87796 0.194409 0
M  V30 3883 O 364.613 -1.63623 -0.808318 0
M  V30 3884 C 364.664 -2.55426 2.55812 0
M  V30 3885 O 364.385 -2.0643 3.86417 0
M  V30 3886 C 365.886 -3.47976 2.74641 0
M  V30 3887 H 363.106 -0.417545 0.525259 0
M  V30 3888 H 365.65 -0.708219 1.91845 0
M  V30 3889 H 363.805 -3.17275 2.22295 0
M  V30 3890 H 364.219 -2.83762 4.41111 0
M  V30 3891 H 365.693 -4.27775 3.48874 0
M  V30 3892 H 366.17 -3.99919 1.81553 0
M  V30 3893 H 366.776 -2.91962 3.09255 0
M  V30 3894 N 365.091 -1.34144 -0.827227 0
M  V30 3895 C 366.331 -1.27603 -1.59677 0
M  V30 3896 C 366.695 0.153035 -1.91389 0
M  V30 3897 O 367.896 0.342566 -2.66608 0
M  V30 3898 C 366.167 -2.13784 -2.86411 0
M  V30 3899 S 367.726 -2.24552 -3.76991 0
M  V30 3900 H 364.544 -0.453789 -0.547354 0
M  V30 3901 H 367.146 -1.69309 -0.977479 0
M  V30 3902 H 365.85 -3.16627 -2.61104 0
M  V30 3903 H 365.381 -1.72959 -3.5334 0
M  V30 3904 H 367.396 -1.41514 -4.75593 0
M  V30 3905 N 366.569 1.04691 -1.17803 0
M  V30 3906 C 367.815 1.78045 -0.970969 0
M  V30 3907 C 368.148 1.87686 0.498751 0
M  V30 3908 O 367.423 1.38035 1.37027 0
M  V30 3909 C 367.706 3.2166 -1.61884 0
M  V30 3910 C 367.559 3.20001 -3.161 0
M  V30 3911 C 368.878 4.1962 -1.3269 0
M  V30 3912 H 365.997 0.64633 -0.354155 0
M  V30 3913 H 368.639 1.22333 -1.45378 0
M  V30 3914 H 366.789 3.69232 -1.20831 0
M  V30 3915 H 368.461 2.80467 -3.66246 0
M  V30 3916 H 366.704 2.58203 -3.48588 0
M  V30 3917 H 367.375 4.21386 -3.56564 0
M  V30 3918 H 369.851 3.80567 -1.68249 0
M  V30 3919 H 368.727 5.18339 -1.80599 0
M  V30 3920 H 368.988 4.414 -0.248622 0
M  V30 3921 N 368.047 0.979072 1.23499 0
M  V30 3922 C 368.997 0.489378 2.22686 0
M  V30 3923 C 369.981 -0.434871 1.54912 0
M  V30 3924 O 371.173 -0.263941 1.75021 0
M  V30 3925 C 368.302 -0.208178 3.42668 0
M  V30 3926 C 367.388 0.735563 4.17672 0
M  V30 3927 N 367.779 1.87763 4.69658 0
M  V30 3928 C 366.077 0.548625 4.42613 0
M  V30 3929 C 366.778 2.46886 5.26709 0
M  V30 3930 N 365.754 1.75287 5.14563 0
M  V30 3931 H 369.556 1.36062 2.60508 0
M  V30 3932 H 367.07 0.83958 1.39014 0
M  V30 3933 H 369.067 -0.576295 4.12898 0
M  V30 3934 H 367.727 -1.07572 3.06363 0
M  V30 3935 H 368.738 2.25885 4.66043 0
M  V30 3936 H 365.415 -0.274006 4.166 0
M  V30 3937 H 366.805 3.43326 5.77561 0
M  V30 3938 N 369.525 -1.3858 0.750561 0
M  V30 3939 C 370.455 -2.33102 0.136237 0
M  V30 3940 C 371.436 -1.54713 -0.706965 0
M  V30 3941 O 372.621 -1.83043 -0.648769 0
M  V30 3942 C 369.751 -3.38882 -0.760017 0
M  V30 3943 C 368.705 -4.27995 -0.0197785 0
M  V30 3944 C 368.031 -5.24605 -1.03408 0
M  V30 3945 C 369.331 -5.09554 1.14684 0
M  V30 3946 H 371.025 -2.84726 0.925822 0
M  V30 3947 H 368.571 -1.36898 0.446654 0
M  V30 3948 H 370.524 -4.0397 -1.19943 0
M  V30 3949 H 369.248 -2.85734 -1.58189 0
M  V30 3950 H 367.907 -3.64409 0.400184 0
M  V30 3951 H 367.555 -4.67746 -1.84994 0
M  V30 3952 H 367.255 -5.85081 -0.543464 0
M  V30 3953 H 368.779 -5.9257 -1.47288 0
M  V30 3954 H 370.193 -5.67899 0.785118 0
M  V30 3955 H 368.59 -5.7925 1.56812 0
M  V30 3956 H 369.66 -4.4347 1.96118 0
M  V30 3957 N 371.003 -0.499398 -1.49478 0
M  V30 3958 C 371.933 0.269244 -2.31943 0
M  V30 3959 C 372.914 0.964054 -1.40143 0
M  V30 3960 O 374.099 0.955767 -1.69052 0
M  V30 3961 C 371.229 1.33504 -3.20615 0
M  V30 3962 C 370.183 0.760202 -4.21195 0
M  V30 3963 C 369.509 1.9264 -4.98792 0
M  V30 3964 C 370.809 -0.247661 -5.21712 0
M  V30 3965 H 372.503 -0.419082 -2.96452 0
M  V30 3966 H 370.049 -0.202988 -1.42562 0
M  V30 3967 H 372.002 1.88048 -3.77115 0
M  V30 3968 H 370.726 2.05253 -2.54045 0
M  V30 3969 H 369.385 0.23653 -3.65836 0
M  V30 3970 H 369.033 2.63154 -4.28671 0
M  V30 3971 H 368.733 1.54785 -5.66847 0
M  V30 3972 H 370.257 2.4762 -5.58137 0
M  V30 3973 H 371.671 0.209579 -5.72917 0
M  V30 3974 H 370.068 -0.541962 -5.97648 0
M  V30 3975 H 371.138 -1.16409 -4.7072 0
M  V30 3976 N 372.481 1.55866 -0.233164 0
M  V30 3977 C 373.709 2.02998 0.399905 0
M  V30 3978 C 374.124 1.11274 1.52524 0
M  V30 3979 O 373.481 0.124528 1.82075 0
M  V30 3980 C 373.532 3.4958 0.920639 0
M  V30 3981 O 373.253 4.37808 -0.159834 0
M  V30 3982 C 374.754 4.12411 1.62578 0
M  V30 3983 H 371.974 0.664006 0.0966281 0
M  V30 3984 H 374.518 2.0143 -0.353013 0
M  V30 3985 H 372.673 3.51727 1.62379 0
M  V30 3986 H 373.087 5.23981 0.23337 0
M  V30 3987 H 374.561 5.16711 1.94201 0
M  V30 3988 H 375.038 3.5809 2.54299 0
M  V30 3989 H 375.644 4.14148 0.967553 0
M  V30 3990 N 373.959 -0.0401083 1.57549 0
M  V30 3991 C 374.922 -1.02871 2.04817 0
M  V30 3992 C 375.922 -1.29708 0.950388 0
M  V30 3993 O 377.112 -1.24897 1.21435 0
M  V30 3994 C 374.244 -2.36443 2.45576 0
M  V30 3995 H 375.437 -0.620631 2.93408 0
M  V30 3996 H 372.99 -0.286667 1.53649 0
M  V30 3997 H 373.725 -2.82021 1.60108 0
M  V30 3998 H 373.51 -2.18296 3.25713 0
M  V30 3999 H 375 -3.07441 2.82612 0
M  V30 4000 N 375.437 -1.54477 -0.31217 0
M  V30 4001 C 376.685 -1.72884 -1.04668 0
M  V30 4002 C 377.006 -0.511477 -1.88173 0
M  V30 4003 O 376.276 0.474407 -1.90069 0
M  V30 4004 H 374.856 -0.637461 -0.389425 0
M  V30 4005 H 377.518 -1.91807 -0.345852 0
M  V30 4006 H 376.614 -2.61334 -1.70619 0
M  V30 4007 N 376.915 0.57481 -1.46744 0
M  V30 4008 C 377.865 1.67838 -1.54319 0
M  V30 4009 C 378.849 1.55759 -0.40346 0
M  V30 4010 O 380.041 1.6454 -0.652347 0
M  V30 4011 C 377.17 3.06624 -1.5439 0
M  V30 4012 C 376.256 3.23971 -2.73685 0
M  V30 4013 N 376.647 3.11447 -3.9854 0
M  V30 4014 C 374.945 3.5493 -2.70075 0
M  V30 4015 C 375.646 3.31011 -4.78337 0
M  V30 4016 N 374.622 3.56533 -4.10348 0
M  V30 4017 H 378.424 1.56698 -2.48642 0
M  V30 4018 H 375.938 0.779071 -1.42493 0
M  V30 4019 H 377.935 3.85839 -1.57905 0
M  V30 4020 H 376.595 3.1889 -0.611493 0
M  V30 4021 H 377.606 2.89145 -4.29669 0
M  V30 4022 H 374.283 3.73832 -1.85893 0
M  V30 4023 H 375.673 3.26445 -5.87268 0
M  V30 4024 N 378.394 1.34581 0.820102 0
M  V30 4025 C 379.304 1.28471 1.96297 0
M  V30 4026 C 380.32 0.191902 1.72939 0
M  V30 4027 O 381.496 0.418879 1.96996 0
M  V30 4028 C 378.561 1.04281 3.30645 0
M  V30 4029 C 377.622 2.22745 3.66992 0
M  V30 4030 C 376.855 1.997 4.9493 0
M  V30 4031 O 377.078 0.956656 5.6232 0
M  V30 4032 O 376.012 2.86723 5.2922 0
M  V30 4033 H 379.838 2.24624 2.04396 0
M  V30 4034 H 377.423 1.14816 0.955913 0
M  V30 4035 H 379.305 0.925841 4.11104 0
M  V30 4036 H 377.98 0.111697 3.23507 0
M  V30 4037 H 376.887 2.40003 2.86966 0
M  V30 4038 H 378.22 3.14257 3.78819 0
M  V30 4039 N 379.872 -1.04064 1.18357 0
M  V30 4040 C 381.1 -1.80916 1.00384 0
M  V30 4041 C 381.515 -1.83414 -0.447738 0
M  V30 4042 O 380.872 -1.26962 -1.31099 0
M  V30 4043 C 380.923 -3.26516 1.55144 0
M  V30 4044 O 380.644 -3.2424 2.94618 0
M  V30 4045 C 382.145 -4.20013 1.41789 0
M  V30 4046 H 379.365 -0.569728 0.354474 0
M  V30 4047 H 381.909 -1.31151 1.56906 0
M  V30 4048 H 380.064 -3.73512 1.02798 0
M  V30 4049 H 380.478 -4.15452 3.20156 0
M  V30 4050 H 381.952 -5.20111 1.84901 0
M  V30 4051 H 382.429 -4.37667 0.36661 0
M  V30 4052 H 383.035 -3.78881 1.93207 0
M  V30 4053 N 381.35 -0.985608 -1.22978 0
M  V30 4054 C 382.578 -0.675582 -1.95559 0
M  V30 4055 C 382.993 0.758413 -1.72897 0
M  V30 4056 O 382.35 1.51094 -1.02357 0
M  V30 4057 C 382.401 -0.96293 -3.48439 0
M  V30 4058 O 382.122 -2.34057 -3.70336 0
M  V30 4059 C 383.623 -0.669585 -4.38214 0
M  V30 4060 H 380.843 -0.250523 -0.622478 0
M  V30 4061 H 383.387 -1.3184 -1.56328 0
M  V30 4062 H 381.542 -0.366033 -3.85667 0
M  V30 4063 H 381.956 -2.43424 -4.64591 0
M  V30 4064 H 383.43 -0.920967 -5.44263 0
M  V30 4065 H 383.907 0.396383 -4.37408 0
M  V30 4066 H 384.513 -1.2472 -4.06602 0
M  V30 4067 N 382.828 1.3818 -0.7579 0
M  V30 4068 C 384.056 2.04301 -0.326937 0
M  V30 4069 C 384.471 1.57163 1.0462 0
M  V30 4070 O 383.828 0.746626 1.66529 0
M  V30 4071 C 383.879 3.59846 -0.345363 0
M  V30 4072 O 383.6 4.05256 -1.66432 0
M  V30 4073 C 385.101 4.4319 0.098927 0
M  V30 4074 H 382.321 0.656443 -0.139012 0
M  V30 4075 H 384.865 1.76786 -1.02796 0
M  V30 4076 H 383.02 3.86182 0.306955 0
M  V30 4077 H 383.434 4.99709 -1.59345 0
M  V30 4078 H 384.908 5.51989 0.0348745 0
M  V30 4079 H 385.385 4.23947 1.14741 0
M  V30 4080 H 385.991 4.22051 -0.52468 0
M  V30 4081 N 384.306 0.507319 1.49211 0
M  V30 4082 C 385.254 -0.281364 2.30892 0
M  V30 4083 C 386.248 -0.95687 1.39787 0
M  V30 4084 O 387.454 -0.883838 1.56807 0
M  V30 4085 H 383.829 -0.109597 0.743971 0
M  V30 4086 H 385.8 0.42744 2.95323 0
M  V30 4087 C 384.549 -1.32918 3.21291 0
M  V30 4088 H 383.872 -0.818799 3.91326 0
M  V30 4089 H 385.312 -1.85288 3.81372 0
M  V30 4090 C 383.771 -2.35074 2.41333 0
M  V30 4091 O 384.301 -3.4108 2.12197 0
M  V30 4092 N 382.507 -2.07705 2.03241 0
M  V30 4093 H 382.054 -1.2152 2.27136 0
M  V30 4094 H 382.012 -2.76283 1.50051 0
M  V30 4095 N 385.784 -1.5574 0.241426 0
M  V30 4096 C 387.031 -1.9881 -0.384836 0
M  V30 4097 C 387.359 -1.12947 -1.58346 0
M  V30 4098 O 386.614 -0.178993 -1.9488 0
M  V30 4099 C 386.913 -3.47308 -0.843317 0
M  V30 4100 C 386.579 -4.50223 0.246946 0
M  V30 4101 C 385.241 -4.78088 0.546399 0
M  V30 4102 C 387.593 -5.11841 0.983282 0
M  V30 4103 C 384.921 -5.64846 1.58636 0
M  V30 4104 C 387.273 -5.99727 2.01272 0
M  V30 4105 C 385.937 -6.25927 2.31888 0
M  V30 4106 H 385.207 -0.727496 -0.140821 0
M  V30 4107 H 387.854 -1.8831 0.348106 0
M  V30 4108 H 386.159 -3.55112 -1.65537 0
M  V30 4109 H 387.856 -3.78017 -1.33806 0
M  V30 4110 H 384.446 -4.286 0.00340639 0
M  V30 4111 H 388.63 -4.90366 0.765182 0
M  V30 4112 H 383.886 -5.83403 1.82896 0
M  V30 4113 H 388.06 -6.46517 2.58823 0
M  V30 4114 H 385.687 -6.92949 3.12611 0
M  V30 4115 N 387.262 0.0317525 -1.57568 0
M  V30 4116 C 388.192 1.03274 -2.0942 0
M  V30 4117 C 389.173 1.3788 -0.996143 0
M  V30 4118 O 390.358 1.46811 -1.27122 0
M  V30 4119 C 387.488 2.33448 -2.57137 0
M  V30 4120 C 386.442 2.13091 -3.71182 0
M  V30 4121 C 385.768 3.49001 -4.05095 0
M  V30 4122 C 387.068 1.51928 -4.99715 0
M  V30 4123 H 388.762 0.60112 -2.93303 0
M  V30 4124 H 386.308 0.287705 -1.41097 0
M  V30 4125 H 388.261 3.03802 -2.92032 0
M  V30 4126 H 386.985 2.78665 -1.70333 0
M  V30 4127 H 385.644 1.45171 -3.36632 0
M  V30 4128 H 385.292 3.91862 -3.15362 0
M  V30 4129 H 384.992 3.36207 -4.81911 0
M  V30 4130 H 386.516 4.20721 -4.42522 0
M  V30 4131 H 387.93 2.12196 -5.32584 0
M  V30 4132 H 386.327 1.49716 -5.81124 0
M  V30 4133 H 387.397 0.484811 -4.8247 0
M  V30 4134 N 388.74 1.54641 0.303973 0
M  V30 4135 C 389.703 1.84646 1.35789 0
M  V30 4136 C 390.703 0.7192 1.4382 0
M  V30 4137 O 391.893 0.987491 1.43507 0
M  V30 4138 C 389.025 2.02407 2.74307 0
M  V30 4139 H 390.218 2.78829 1.10429 0
M  V30 4140 H 387.771 1.46658 0.540487 0
M  V30 4141 H 388.506 1.10502 3.04893 0
M  V30 4142 H 388.291 2.84453 2.69868 0
M  V30 4143 H 389.781 2.27002 3.50514 0
M  V30 4144 N 390.218 -0.567019 1.47046 0
M  V30 4145 C 391.165 -1.67489 1.58796 0
M  V30 4146 C 392.135 -1.60399 0.43144 0
M  V30 4147 O 393.32 -1.79378 0.650233 0
M  V30 4148 C 390.46 -3.05821 1.59899 0
M  V30 4149 C 389.573 -3.2342 2.86397 0
M  V30 4150 C 388.708 -4.52093 2.789 0
M  V30 4151 C 387.747 -4.6309 4.00267 0
M  V30 4152 N 386.884 -5.83106 3.91064 0
M  V30 4153 H 391.724 -1.56785 2.53422 0
M  V30 4154 H 389.261 -0.763896 1.2571 0
M  V30 4155 H 391.219 -3.8591 1.58522 0
M  V30 4156 H 389.849 -3.15384 0.687929 0
M  V30 4157 H 388.901 -2.3683 2.97684 0
M  V30 4158 H 390.213 -3.27412 3.76301 0
M  V30 4159 H 389.367 -5.4043 2.75718 0
M  V30 4160 H 388.106 -4.50565 1.86662 0
M  V30 4161 H 387.111 -3.73168 4.03765 0
M  V30 4162 H 388.336 -4.66386 4.93621 0
M  V30 4163 H 386.282 -5.82546 3.01623 0
M  V30 4164 H 386.199 -5.88434 4.74638 0
M  V30 4165 H 387.467 -6.73831 3.91882 0
M  V30 4166 N 391.696 -1.35014 -0.812953 0
M  V30 4167 C 392.659 -1.27292 -1.90602 0
M  V30 4168 C 393.659 -0.185817 -1.59723 0
M  V30 4169 O 394.849 -0.439102 -1.68575 0
M  V30 4170 C 391.981 -0.967676 -3.26877 0
M  V30 4171 H 393.174 -2.24479 -1.9887 0
M  V30 4172 H 390.727 -1.19446 -1.00808 0
M  V30 4173 H 391.462 0.0005954 -3.243 0
M  V30 4174 H 391.247 -1.75412 -3.50675 0
M  V30 4175 H 392.737 -0.939085 -4.06904 0
M  V30 4176 N 393.175 1.03435 -1.18907 0
M  V30 4177 C 394.421 1.77005 -0.989798 0
M  V30 4178 C 394.754 1.88205 0.478816 0
M  V30 4179 O 394.029 1.39481 1.35556 0
M  V30 4180 C 394.312 3.19925 -1.65287 0
M  V30 4181 C 394.165 3.1663 -3.19477 0
M  V30 4182 C 395.484 4.18189 -1.37134 0
M  V30 4183 H 392.603 0.642538 -0.360991 0
M  V30 4184 H 395.245 1.20784 -1.46667 0
M  V30 4185 H 393.395 3.67929 -1.24741 0
M  V30 4186 H 395.067 2.76567 -3.692 0
M  V30 4187 H 393.31 2.54491 -3.51307 0
M  V30 4188 H 393.981 4.1758 -3.61013 0
M  V30 4189 H 396.457 3.78761 -1.72276 0
M  V30 4190 H 395.333 5.16394 -1.86087 0
M  V30 4191 H 395.594 4.41112 -0.295424 0
M  V30 4192 N 394.653 0.992116 1.22453 0
M  V30 4193 C 395.583 0.561677 2.26644 0
M  V30 4194 C 396.564 -0.411055 1.65059 0
M  V30 4195 O 397.749 -0.301861 1.9184 0
M  V30 4196 C 394.879 -0.125247 3.47074 0
M  V30 4197 C 393.833 0.765948 4.21091 0
M  V30 4198 C 393.159 -0.0538484 5.34673 0
M  V30 4199 C 394.459 2.06242 4.79856 0
M  V30 4200 H 396.153 1.43259 2.62902 0
M  V30 4201 H 393.699 0.690283 1.26377 0
M  V30 4202 H 395.652 -0.437764 4.1912 0
M  V30 4203 H 394.376 -1.03069 3.0991 0
M  V30 4204 H 393.035 1.0621 3.50878 0
M  V30 4205 H 392.683 -0.960188 4.9375 0
M  V30 4206 H 392.383 0.539415 5.85119 0
M  V30 4207 H 393.907 -0.360477 6.09535 0
M  V30 4208 H 395.321 1.8139 5.43848 0
M  V30 4209 H 393.718 2.60444 5.40638 0
M  V30 4210 H 394.788 2.74167 3.99951 0
M  V30 4211 N 396.131 -1.37776 0.765217 0
M  V30 4212 C 397.359 -2.04124 0.337767 0
M  V30 4213 C 397.774 -1.57715 -1.03785 0
M  V30 4214 O 397.131 -0.755447 -1.6613 0
M  V30 4215 C 397.182 -3.59658 0.364442 0
M  V30 4216 O 396.903 -4.04367 1.68579 0
M  V30 4217 C 398.404 -4.43236 -0.0754221 0
M  V30 4218 H 395.624 -0.655696 0.142491 0
M  V30 4219 H 398.168 -1.76238 1.03732 0
M  V30 4220 H 396.323 -3.86339 -0.286471 0
M  V30 4221 H 396.737 -4.98857 1.61993 0
M  V30 4222 H 398.211 -5.52 -0.00560067 0
M  V30 4223 H 398.688 -4.2455 -1.12491 0
M  V30 4224 H 399.294 -4.21767 0.547055 0
M  V30 4225 N 397.609 -0.515225 -1.4894 0
M  V30 4226 C 398.539 0.244628 -2.32215 0
M  V30 4227 C 399.52 0.949136 -1.41157 0
M  V30 4228 O 400.705 0.937783 -1.70057 0
M  V30 4229 C 397.835 1.30096 -3.22013 0
M  V30 4230 C 396.789 0.715486 -4.21977 0
M  V30 4231 C 396.115 1.87339 -5.00808 0
M  V30 4232 C 397.415 -0.302982 -5.2142 0
M  V30 4233 H 399.109 -0.450501 -2.95991 0
M  V30 4234 H 396.655 -0.218098 -1.42339 0
M  V30 4235 H 398.608 1.84037 -3.79089 0
M  V30 4236 H 397.332 2.02547 -2.56207 0
M  V30 4237 H 395.991 0.197715 -3.66066 0
M  V30 4238 H 395.639 2.58592 -4.31438 0
M  V30 4239 H 395.339 1.48764 -5.68457 0
M  V30 4240 H 396.863 2.41686 -5.60732 0
M  V30 4241 H 398.277 0.148802 -5.73107 0
M  V30 4242 H 396.674 -0.60532 -5.97039 0
M  V30 4243 H 397.744 -1.21395 -4.69459 0
M  V30 4244 N 399.087 1.5561 -0.249682 0
M  V30 4245 C 400.503 1.59254 0.105103 0
M  V30 4246 C 400.703 1.26685 1.56694 0
M  V30 4247 O 399.759 1.0155 2.31179 0
M  V30 4248 C 401.072 2.99687 -0.246592 0
M  V30 4249 C 402.62 3.12416 -0.191118 0
M  V30 4250 C 403.095 4.55074 -0.516885 0
M  V30 4251 N 404.586 4.60835 -0.467489 0
M  V30 4252 C 405.321 5.69201 -0.69268 0
M  V30 4253 N 404.817 6.85817 -0.981146 0
M  V30 4254 N 406.61 5.58635 -0.623198 0
M  V30 4255 H 398.761 1.75049 -1.20298 0
M  V30 4256 H 401.024 0.815003 -0.484225 0
M  V30 4257 H 400.73 3.28267 -1.26228 0
M  V30 4258 H 400.604 3.74798 0.424962 0
M  V30 4259 H 402.991 2.83615 0.815247 0
M  V30 4260 H 403.072 2.39573 -0.896563 0
M  V30 4261 H 402.716 4.84596 -1.52082 0
M  V30 4262 H 402.646 5.26181 0.210068 0
M  V30 4263 H 405.137 3.7705 -0.253373 0
M  V30 4264 H 405.45 7.64341 -1.14032 0
M  V30 4265 H 403.795 6.87494 -1.01865 0
M  V30 4266 H 406.986 4.66406 -0.397863 0
M  V30 4267 H 407.159 6.43017 -0.802093 0
M  V30 4268 N 400.565 -0.0233959 1.57583 0
M  V30 4269 C 401.528 -1.00693 2.05897 0
M  V30 4270 C 402.528 -1.28693 0.964092 0
M  V30 4271 O 403.718 -1.23602 1.22753 0
M  V30 4272 C 400.85 -2.33825 2.4807 0
M  V30 4273 H 402.043 -0.589476 2.9405 0
M  V30 4274 H 399.596 -0.270354 1.53944 0
M  V30 4275 H 400.331 -2.80307 1.6309 0
M  V30 4276 H 400.116 -2.1483 3.2801 0
M  V30 4277 H 401.606 -3.04426 2.85857 0
M  V30 4278 N 402.043 -1.548 -0.295768 0
M  V30 4279 C 402.993 -1.82497 -1.3667 0
M  V30 4280 C 403.977 -0.682434 -1.45711 0
M  V30 4281 O 405.169 -0.943207 -1.49775 0
M  V30 4282 C 402.298 -2.08036 -2.73086 0
M  V30 4283 C 401.384 -3.28488 -2.68247 0
M  V30 4284 N 401.775 -4.48924 -2.33025 0
M  V30 4285 C 400.073 -3.3062 -2.99343 0
M  V30 4286 C 400.774 -5.30956 -2.37613 0
M  V30 4287 N 399.75 -4.68805 -2.75178 0
M  V30 4288 H 403.552 -2.73175 -1.0841 0
M  V30 4289 H 401.066 -1.5437 -0.504361 0
M  V30 4290 H 403.063 -2.26027 -3.5031 0
M  V30 4291 H 401.723 -1.18629 -3.02254 0
M  V30 4292 H 402.734 -4.75432 -2.05389 0
M  V30 4293 H 399.411 -2.51336 -3.33371 0
M  V30 4294 H 400.801 -6.37199 -2.13135 0
M  V30 4295 N 403.521 0.559213 -1.47345 0
M  V30 4296 C 404.937 0.884943 -1.32819 0
M  V30 4297 C 405.137 1.98988 -0.317173 0
M  V30 4298 O 404.193 2.51031 0.272011 0
M  V30 4299 C 405.506 1.28007 -2.72093 0
M  V30 4300 C 407.054 1.39161 -2.80363 0
M  V30 4301 C 407.529 1.82031 -4.20272 0
M  V30 4302 N 409.02 1.89185 -4.22804 0
M  V30 4303 C 409.755 2.2368 -5.27973 0
M  V30 4304 N 409.251 2.56802 -6.43447 0
M  V30 4305 N 411.044 2.24436 -5.15349 0
M  V30 4306 H 403.195 -0.170304 -2.11716 0
M  V30 4307 H 405.458 -0.0135247 -0.947904 0
M  V30 4308 H 405.164 0.542027 -3.47498 0
M  V30 4309 H 405.038 2.23665 -3.03733 0
M  V30 4310 H 407.425 2.12048 -2.05231 0
M  V30 4311 H 407.506 0.41696 -2.52379 0
M  V30 4312 H 407.15 1.09715 -4.95908 0
M  V30 4313 H 407.08 2.80495 -4.45679 0
M  V30 4314 H 409.571 1.65982 -3.39497 0
M  V30 4315 H 409.884 2.82144 -7.19454 0
M  V30 4316 H 408.229 2.54387 -6.46771 0
M  V30 4317 H 411.42 1.97998 -4.24163 0
M  V30 4318 H 411.593 2.50989 -5.97418 0
M  V30 4319 N 404.999 1.35443 0.805782 0
M  V30 4320 C 406.276 1.19325 1.54987 0
M  V30 4321 C 406.656 -0.227294 2.09873 0
M  V30 4322 O 406.004 -1.2309 1.92512 0
M  V30 4323 C 406.214 2.26196 2.65775 0
M  V30 4324 C 407.562 2.62043 3.34094 0
M  V30 4325 O 408.586 2.25115 2.76046 0
M  V30 4326 O 407.445 3.25542 4.38958 0
M  V30 4327 H 404.539 0.463623 0.684823 0
M  V30 4328 H 407.085 1.47127 0.845674 0
M  V30 4329 H 405.857 3.21471 2.23096 0
M  V30 4330 H 405.48 1.99667 3.43829 0
M  V30 4331 N 406.477 -1.02803 1.19454 0
M  V30 4332 C 407.723 -1.76478 0.999171 0
M  V30 4333 C 408.056 -1.88456 -0.468828 0
M  V30 4334 O 407.331 -1.40198 -1.34814 0
M  V30 4335 C 407.614 -3.19044 1.66981 0
M  V30 4336 C 407.467 -3.14932 3.21151 0
M  V30 4337 C 408.786 -4.17456 1.39349 0
M  V30 4338 H 405.905 -0.640614 0.364393 0
M  V30 4339 H 408.547 -1.20005 1.47305 0
M  V30 4340 H 406.697 -3.67263 1.2669 0
M  V30 4341 H 408.369 -2.74605 3.70661 0
M  V30 4342 H 406.612 -2.52625 3.52652 0
M  V30 4343 H 407.283 -4.1566 3.63223 0
M  V30 4344 H 409.759 -3.77842 1.74283 0
M  V30 4345 H 408.635 -5.154 1.88823 0
M  V30 4346 H 408.896 -4.40949 0.318813 0
M  V30 4347 N 407.956 -0.998596 -1.21925 0
M  V30 4348 C 408.886 -0.573688 -2.26343 0
M  V30 4349 C 409.867 0.402296 -1.65274 0
M  V30 4350 O 411.052 0.291683 -1.91997 0
M  V30 4351 C 408.182 0.106839 -3.47136 0
M  V30 4352 C 407.136 -0.788269 -4.20678 0
M  V30 4353 C 406.462 0.0254927 -5.34694 0
M  V30 4354 C 407.762 -2.08784 -4.78755 0
M  V30 4355 H 409.456 -1.44651 -2.62138 0
M  V30 4356 H 407.002 -0.696975 -1.26009 0
M  V30 4357 H 408.955 0.415531 -4.19346 0
M  V30 4358 H 407.679 1.01424 -3.10452 0
M  V30 4359 H 406.338 -1.08069 -3.50309 0
M  V30 4360 H 405.986 0.933989 -4.94253 0
M  V30 4361 H 405.686 -0.570437 -5.84825 0
M  V30 4362 H 407.21 0.328147 -6.09718 0
M  V30 4363 H 408.624 -1.84272 -5.42878 0
M  V30 4364 H 407.021 -2.63307 -5.39249 0
M  V30 4365 H 408.091 -2.76284 -3.98491 0
M  V30 4366 N 409.434 1.37368 -0.772513 0
M  V30 4367 C 410.711 1.93839 -0.26188 0
M  V30 4368 C 411.091 1.7061 1.24319 0
M  V30 4369 O 410.439 1.05534 2.02669 0
M  V30 4370 C 410.649 3.43154 -0.636102 0
M  V30 4371 C 411.997 4.20249 -0.606324 0
M  V30 4372 O 413.021 3.5152 -0.575538 0
M  V30 4373 O 411.88 5.42809 -0.634086 0
M  V30 4374 H 408.974 0.82478 -0.0605555 0
M  V30 4375 H 411.52 1.4665 -0.853917 0
M  V30 4376 H 410.292 3.53647 -1.6748 0
M  V30 4377 H 409.915 3.97596 -0.0170516 0
M  V30 4378 N 410.912 0.523116 1.48665 0
M  V30 4379 C 411.822 -0.247406 2.33292 0
M  V30 4380 C 412.838 -0.945769 1.46052 0
M  V30 4381 O 414.014 -0.922253 1.79043 0
M  V30 4382 C 411.079 -1.28487 3.22012 0
M  V30 4383 C 410.14 -0.597592 4.2512 0
M  V30 4384 C 409.373 -1.58563 5.09601 0
M  V30 4385 O 409.596 -2.81763 4.95949 0
M  V30 4386 O 408.53 -1.12879 5.91221 0
M  V30 4387 H 412.356 0.445869 3.00409 0
M  V30 4388 H 409.941 0.284128 1.46673 0
M  V30 4389 H 411.823 -1.88459 3.7691 0
M  V30 4390 H 410.498 -1.96068 2.57564 0
M  V30 4391 H 409.405 0.0424407 3.74076 0
M  V30 4392 H 410.738 0.0361517 4.92187 0
M  V30 4393 N 412.39 -1.55475 0.257931 0
M  V30 4394 C 413.32 -2.24815 -0.630912 0
M  V30 4395 C 414.301 -1.23224 -1.17259 0
M  V30 4396 O 415.486 -1.51904 -1.20991 0
M  V30 4397 C 412.616 -2.95609 -1.82298 0
M  V30 4398 C 411.57 -4.03982 -1.41359 0
M  V30 4399 C 410.896 -4.6226 -2.68738 0
M  V30 4400 C 412.196 -5.19109 -0.57648 0
M  V30 4401 H 413.89 -2.99354 -0.0526878 0
M  V30 4402 H 411.436 -1.4398 -0.023901 0
M  V30 4403 H 413.389 -3.42822 -2.45054 0
M  V30 4404 H 412.113 -2.18577 -2.42676 0
M  V30 4405 H 410.772 -3.57555 -0.809324 0
M  V30 4406 H 410.42 -3.81915 -3.27338 0
M  V30 4407 H 410.12 -5.35424 -2.42065 0
M  V30 4408 H 411.644 -5.12212 -3.32372 0
M  V30 4409 H 413.058 -5.62479 -1.10861 0
M  V30 4410 H 411.455 -5.98729 -0.405351 0
M  V30 4411 H 412.525 -4.83174 0.408776 0
M  V30 4412 N 413.868 0.0150385 -1.57593 0
M  V30 4413 C 415.284 0.370907 -1.5523 0
M  V30 4414 C 415.484 1.75735 -0.985882 0
M  V30 4415 O 414.54 2.44944 -0.613077 0
M  V30 4416 C 415.853 0.259908 -2.99575 0
M  V30 4417 C 417.401 0.335959 -3.11192 0
M  V30 4418 C 417.876 0.254253 -4.57294 0
M  V30 4419 N 419.367 0.312618 -4.62144 0
M  V30 4420 C 420.102 0.272505 -5.72752 0
M  V30 4421 N 419.598 0.183864 -6.92556 0
M  V30 4422 N 421.391 0.323267 -5.6117 0
M  V30 4423 H 413.542 -0.892104 -1.92757 0
M  V30 4424 H 415.805 -0.340563 -0.884715 0
M  V30 4425 H 415.511 -0.693403 -3.44797 0
M  V30 4426 H 415.385 1.048 -3.62349 0
M  V30 4427 H 417.772 1.27971 -2.65909 0
M  V30 4428 H 417.853 -0.481739 -2.51223 0
M  V30 4429 H 417.497 -0.685887 -5.03247 0
M  V30 4430 H 417.427 1.09024 -5.15191 0
M  V30 4431 H 419.918 0.38307 -3.75953 0
M  V30 4432 H 420.231 0.15874 -7.72637 0
M  V30 4433 H 418.576 0.149708 -6.94839 0
M  V30 4434 H 421.767 0.390607 -4.66467 0
M  V30 4435 H 421.94 0.288539 -6.47357 0
M  V30 4436 N 415.346 1.54954 0.287554 0
M  V30 4437 C 416.574 1.78881 1.03967 0
M  V30 4438 C 416.989 0.554894 1.80462 0
M  V30 4439 O 416.346 -0.475676 1.76192 0
M  V30 4440 C 416.397 3.00488 2.0097 0
M  V30 4441 O 416.118 4.19113 1.27577 0
M  V30 4442 C 417.619 3.36907 2.88112 0
M  V30 4443 H 414.839 0.596259 0.307761 0
M  V30 4444 H 417.383 2.01937 0.322749 0
M  V30 4445 H 415.538 2.79601 2.68145 0
M  V30 4446 H 415.952 4.87765 1.92835 0
M  V30 4447 H 417.426 4.25205 3.52001 0
M  V30 4448 H 417.903 2.55659 3.57121 0
M  V30 4449 H 418.509 3.60001 2.26449 0
M  V30 4450 N 416.824 -0.551391 1.4764 0
M  V30 4451 C 418.052 -1.33357 1.58189 0
M  V30 4452 C 418.467 -1.87342 0.234199 0
M  V30 4453 O 417.824 -1.65301 -0.77343 0
M  V30 4454 C 417.875 -2.49942 2.61173 0
M  V30 4455 O 417.596 -1.98187 3.90709 0
M  V30 4456 C 419.097 -3.42072 2.8196 0
M  V30 4457 H 416.317 -0.40631 0.533998 0
M  V30 4458 H 418.861 -0.667367 1.93304 0
M  V30 4459 H 417.016 -3.12489 2.28975 0
M  V30 4460 H 417.43 -2.74342 4.47031 0
M  V30 4461 H 418.904 -4.20278 3.57869 0
M  V30 4462 H 419.381 -3.95978 1.89995 0
M  V30 4463 H 419.987 -2.85336 3.15378 0
M  V30 4464 N 418.302 -1.35869 -0.798587 0
M  V30 4465 C 419.713 -1.26498 -1.37314 0
M  V30 4466 C 420.064 0.0991899 -1.95949 0
M  V30 4467 O 419.189 1.0004 -1.91888 0
M  V30 4468 C 419.784 -2.29054 -2.49639 0
M  V30 4469 C 418.343 -2.234 -3.02935 0
M  V30 4470 C 417.49 -2.14329 -1.75949 0
M  V30 4471 H 420.441 -1.46881 -0.600971 0
M  V30 4472 H 420.462 -1.92166 -3.28409 0
M  V30 4473 H 419.974 -3.2833 -2.06933 0
M  V30 4474 H 418.075 -1.27562 -3.50084 0
M  V30 4475 H 418.188 -3.15703 -3.60372 0
M  V30 4476 H 416.552 -1.60435 -1.9782 0
M  V30 4477 H 417.335 -3.15477 -1.35384 0
M  V30 4478 N 419.78 1.02168 -1.19998 0
M  V30 4479 C 420.69 2.14069 -0.959774 0
M  V30 4480 C 421.706 1.73804 0.082655 0
M  V30 4481 O 422.882 2.01133 -0.103633 0
M  V30 4482 C 419.947 3.42936 -0.509459 0
M  V30 4483 C 419.008 3.97474 -1.62213 0
M  V30 4484 C 418.241 5.2019 -1.19321 0
M  V30 4485 O 418.464 5.70369 -0.0597726 0
M  V30 4486 O 417.398 5.67749 -1.99863 0
M  V30 4487 H 421.224 2.37199 -1.89658 0
M  V30 4488 H 418.809 1.12469 -0.983411 0
M  V30 4489 H 420.691 4.20551 -0.267322 0
M  V30 4490 H 419.366 3.21234 0.398821 0
M  V30 4491 H 418.273 3.21161 -1.9185 0
M  V30 4492 H 419.606 4.23555 -2.50723 0
M  V30 4493 N 421.258 1.00505 1.21394 0
M  V30 4494 C 422.483 0.706367 1.95001 0
M  V30 4495 C 422.908 -0.72463 1.73582 0
M  V30 4496 O 422.266 -1.49702 1.0227 0
M  V30 4497 C 422.314 1.03299 3.45487 0
M  V30 4498 O 421.418 0.138275 4.12168 0
M  V30 4499 H 420.759 0.263175 0.609619 0
M  V30 4500 H 423.289 1.34531 1.54151 0
M  V30 4501 H 423.299 0.979872 3.96059 0
M  V30 4502 H 421.974 2.07567 3.60401 0
M  V30 4503 H 420.551 0.247928 3.72075 0
M  V30 4504 N 422.737 -1.36956 0.779787 0
M  V30 4505 C 423.965 -2.03755 0.359398 0
M  V30 4506 C 424.38 -1.58807 -1.02106 0
M  V30 4507 O 423.737 -0.773024 -1.6532 0
M  V30 4508 C 423.788 -3.59251 0.402568 0
M  V30 4509 O 423.509 -4.02557 1.72858 0
M  V30 4510 C 425.01 -4.43291 -0.0284068 0
M  V30 4511 H 422.23 -0.654148 0.149437 0
M  V30 4512 H 424.774 -1.75128 1.05595 0
M  V30 4513 H 422.929 -3.86621 -0.245478 0
M  V30 4514 H 423.343 -4.97111 1.67275 0
M  V30 4515 H 424.817 -5.51975 0.0529466 0
M  V30 4516 H 425.294 -4.25719 -1.07982 0
M  V30 4517 H 425.9 -4.21163 0.591758 0
M  V30 4518 N 424.215 -0.530993 -1.48385 0
M  V30 4519 C 425.626 -0.0907905 -1.86479 0
M  V30 4520 C 425.977 1.33213 -1.44044 0
M  V30 4521 O 425.102 1.99783 -0.831615 0
M  V30 4522 C 425.697 -0.157987 -3.38431 0
M  V30 4523 C 424.256 0.227026 -3.75715 0
M  V30 4524 C 423.403 -0.5173 -2.72432 0
M  V30 4525 H 426.354 -0.742186 -1.40276 0
M  V30 4526 H 426.375 0.630053 -3.75247 0
M  V30 4527 H 425.887 -1.19372 -3.69286 0
M  V30 4528 H 423.988 1.26486 -3.50474 0
M  V30 4529 H 424.101 -0.113288 -4.78966 0
M  V30 4530 H 422.465 0.0365527 -2.54674 0
M  V30 4531 H 423.248 -1.55368 -3.0613 0
M  V30 4532 N 425.693 1.55336 -0.266172 0
M  V30 4533 C 426.656 2.20878 0.612001 0
M  V30 4534 C 427.656 1.18388 1.08816 0
M  V30 4535 O 428.846 1.4335 0.989774 0
M  V30 4536 C 425.978 2.86765 1.84332 0
M  V30 4537 H 427.171 2.99873 0.0398718 0
M  V30 4538 H 424.724 1.56291 -0.0167309 0
M  V30 4539 H 425.459 2.11759 2.45619 0
M  V30 4540 H 425.244 3.61862 1.5099 0
M  V30 4541 H 426.734 3.36867 2.46801 0
M  V30 4542 N 427.171 -0.0066808 1.57599 0
M  V30 4543 C 428.134 -0.985035 2.06953 0
M  V30 4544 C 429.134 -1.27663 0.977687 0
M  V30 4545 O 430.324 -1.22293 1.24057 0
M  V30 4546 C 427.456 -2.3118 2.50536 0
M  V30 4547 H 428.649 -0.558255 2.94658 0
M  V30 4548 H 426.202 -0.254011 1.54222 0
M  V30 4549 H 426.937 -2.78561 1.66054 0
M  V30 4550 H 426.722 -2.11338 3.3027 0
M  V30 4551 H 428.212 -3.01377 2.8907 0
M  V30 4552 N 428.649 -1.55105 -0.279332 0
M  V30 4553 C 429.895 -1.75672 -1.01327 0
M  V30 4554 C 430.228 -0.552739 -1.86168 0
M  V30 4555 O 429.503 0.449827 -1.89227 0
M  V30 4556 C 429.786 -3.05825 -1.90114 0
M  V30 4557 C 429.639 -4.36565 -1.08309 0
M  V30 4558 C 430.958 -3.31975 -2.8893 0
M  V30 4559 H 428.077 -0.639149 -0.366957 0
M  V30 4560 H 430.719 -1.87833 -0.286154 0
M  V30 4561 H 428.869 -2.95588 -2.52111 0
M  V30 4562 H 430.541 -4.58751 -0.484314 0
M  V30 4563 H 428.784 -4.32076 -0.386362 0
M  V30 4564 H 429.455 -5.23946 -1.73737 0
M  V30 4565 H 431.931 -3.41963 -2.37067 0
M  V30 4566 H 430.807 -4.2432 -3.48201 0
M  V30 4567 H 431.068 -2.51309 -3.63725 0
M  V30 4568 N 430.127 0.543554 -1.4793 0
M  V30 4569 C 431.037 1.67657 -1.64098 0
M  V30 4570 C 432.053 1.65934 -0.523622 0
M  V30 4571 O 433.229 1.85133 -0.792943 0
M  V30 4572 C 430.294 3.04146 -1.66421 0
M  V30 4573 C 429.355 3.16831 -2.89684 0
M  V30 4574 C 428.588 4.46809 -2.91886 0
M  V30 4575 O 428.811 5.33095 -2.02895 0
M  V30 4576 O 427.745 4.63573 -3.83906 0
M  V30 4577 H 431.571 1.56957 -2.59997 0
M  V30 4578 H 429.156 0.715116 -1.31173 0
M  V30 4579 H 431.038 3.85346 -1.70548 0
M  V30 4580 H 429.713 3.152 -0.736923 0
M  V30 4581 H 428.62 2.34977 -2.91095 0
M  V30 4582 H 429.953 3.10687 -3.81752 0
M  V30 4583 N 431.605 1.3629 0.791371 0
M  V30 4584 C 432.515 1.32606 1.93527 0
M  V30 4585 C 433.531 0.228541 1.72493 0
M  V30 4586 O 434.707 0.460571 1.96063 0
M  V30 4587 C 431.772 1.11271 3.28359 0
M  V30 4588 C 430.833 2.3048 3.62185 0
M  V30 4589 C 430.066 2.10154 4.90583 0
M  V30 4590 O 430.289 1.07572 5.60165 0
M  V30 4591 O 429.223 2.97884 5.23019 0
M  V30 4592 H 433.049 2.28909 1.99585 0
M  V30 4593 H 430.634 1.16818 0.931344 0
M  V30 4594 H 432.516 1.01283 4.09047 0
M  V30 4595 H 431.191 0.180292 3.23198 0
M  V30 4596 H 430.098 2.46036 2.81811 0
M  V30 4597 H 431.431 3.22221 3.72068 0
M  V30 4598 N 433.083 -1.0153 1.20538 0
M  V30 4599 C 434.013 -2.11972 0.979295 0
M  V30 4600 C 434.994 -1.6985 -0.0921787 0
M  V30 4601 O 436.179 -1.94089 0.0655932 0
M  V30 4602 C 433.309 -3.43201 0.531984 0
M  V30 4603 C 432.263 -3.9907 1.54685 0
M  V30 4604 C 431.589 -5.26082 0.956127 0
M  V30 4605 C 432.889 -4.32313 2.93092 0
M  V30 4606 H 434.583 -2.31143 1.90298 0
M  V30 4607 H 432.129 -1.11079 0.916372 0
M  V30 4608 H 434.082 -4.1985 0.361044 0
M  V30 4609 H 432.806 -3.23792 -0.427327 0
M  V30 4610 H 431.465 -3.2453 1.70517 0
M  V30 4611 H 431.113 -5.02999 -0.0111538 0
M  V30 4612 H 430.813 -5.64426 1.63393 0
M  V30 4613 H 432.337 -6.05386 0.796284 0
M  V30 4614 H 433.751 -4.99845 2.80763 0
M  V30 4615 H 432.148 -4.81774 3.57791 0
M  V30 4616 H 433.218 -3.41025 3.44717 0
M  V30 4617 N 434.561 -1.01147 -1.20859 0
M  V30 4618 C 435.494 -0.522108 -2.22147 0
M  V30 4619 C 436.472 0.427686 -1.56874 0
M  V30 4620 O 437.656 0.34889 -1.85243 0
M  V30 4621 C 434.783 0.240819 -3.37843 0
M  V30 4622 C 433.829 -0.657752 -4.21398 0
M  V30 4623 S 434.662 -2.12393 -4.91578 0
M  V30 4624 C 435.818 -1.37102 -6.10699 0
M  V30 4625 H 436.051 -1.38035 -2.63313 0
M  V30 4626 H 433.584 -0.819941 -1.30829 0
M  V30 4627 H 435.542 0.674908 -4.04914 0
M  V30 4628 H 434.203 1.07457 -2.95147 0
M  V30 4629 H 433.396 -0.0697456 -5.03952 0
M  V30 4630 H 432.998 -1.0294 -3.59555 0
M  V30 4631 H 435.29 -0.648315 -6.74391 0
M  V30 4632 H 436.233 -2.17252 -6.73949 0
M  V30 4633 H 436.641 -0.876154 -5.57659 0
M  V30 4634 N 436.039 1.36541 -0.78704 0
M  V30 4635 C 437.455 1.52571 -0.46844 0
M  V30 4636 C 437.655 1.7415 1.01361 0
M  V30 4637 O 436.711 1.77163 1.79915 0
M  V30 4638 C 438.024 2.71299 -1.29682 0
M  V30 4639 C 439.572 2.85169 -1.29027 0
M  V30 4640 C 440.047 4.06898 -2.10233 0
M  V30 4641 N 441.538 4.1404 -2.07666 0
M  V30 4642 C 442.273 5.07301 -2.67271 0
M  V30 4643 N 441.769 6.06021 -3.35724 0
M  V30 4644 N 443.562 4.99898 -2.57018 0
M  V30 4645 H 435.713 1.20788 -1.74711 0
M  V30 4646 H 437.976 0.589364 -0.742532 0
M  V30 4647 H 437.682 2.61868 -2.34773 0
M  V30 4648 H 437.556 3.6539 -0.936479 0
M  V30 4649 H 439.943 2.94062 -0.247284 0
M  V30 4650 H 440.024 1.91992 -1.69035 0
M  V30 4651 H 439.668 3.98766 -3.1456 0
M  V30 4652 H 439.598 4.99218 -1.67597 0
M  V30 4653 H 442.089 3.43357 -1.57843 0
M  V30 4654 H 442.402 6.73741 -3.78541 0
M  V30 4655 H 440.747 6.06253 -3.39826 0
M  V30 4656 H 443.938 4.21724 -2.03142 0
M  V30 4657 H 444.111 5.72392 -3.03761 0
M  V30 4658 N 437.518 0.538854 1.48102 0
M  V30 4659 C 438.748 0.0122958 2.06596 0
M  V30 4660 C 439.156 -1.27861 1.39457 0
M  V30 4661 O 438.499 -1.77348 0.478907 0
M  V30 4662 C 438.561 -0.273131 3.58461 0
M  V30 4663 C 438.225 0.92561 4.47528 0
M  V30 4664 C 439.222 1.82637 4.86765 0
M  V30 4665 C 436.907 1.13511 4.89306 0
M  V30 4666 C 438.901 2.92047 5.66558 0
M  V30 4667 C 436.588 2.23233 5.68868 0
M  V30 4668 C 437.586 3.12333 6.07402 0
M  V30 4669 O 437.274 4.20155 6.85365 0
M  V30 4670 H 437.006 0.0344283 0.675123 0
M  V30 4671 H 439.56 0.746494 1.91355 0
M  V30 4672 H 437.79 -1.06141 3.71848 0
M  V30 4673 H 439.479 -0.742842 3.99045 0
M  V30 4674 H 440.245 1.67649 4.55103 0
M  V30 4675 H 436.124 0.450835 4.5879 0
M  V30 4676 H 439.668 3.6162 5.96554 0
M  V30 4677 H 435.565 2.38201 5.99942 0
M  V30 4678 H 436.333 4.17975 7.03732 0
M  V30 4679 N 438.996 -1.55193 0.274407 0
M  V30 4680 C 440.273 -1.91584 -0.394331 0
M  V30 4681 C 440.653 -1.19858 -1.73774 0
M  V30 4682 O 440.001 -0.3252 -2.26174 0
M  V30 4683 C 440.211 -3.4487 -0.535311 0
M  V30 4684 C 441.559 -4.16636 -0.818534 0
M  V30 4685 O 442.583 -3.5076 -0.620146 0
M  V30 4686 O 441.442 -5.33209 -1.19792 0
M  V30 4687 H 438.536 -0.798349 -0.215794 0
M  V30 4688 H 441.082 -1.66646 0.320507 0
M  V30 4689 H 439.854 -3.89145 0.410141 0
M  V30 4690 H 439.477 -3.75759 -1.29964 0
M  V30 4691 N 440.474 -0.00167713 -1.576 0
M  V30 4692 C 441.885 0.54091 -1.78693 0
M  V30 4693 C 442.236 1.7386 -0.909247 0
M  V30 4694 O 441.361 2.16109 -0.112176 0
M  V30 4695 C 441.956 0.98806 -3.24072 0
M  V30 4696 C 440.515 1.47594 -3.46256 0
M  V30 4697 C 439.662 0.42792 -2.73978 0
M  V30 4698 H 442.613 -0.22784 -1.57056 0
M  V30 4699 H 442.634 1.85398 -3.32277 0
M  V30 4700 H 442.146 0.116164 -3.87926 0
M  V30 4701 H 440.247 2.36868 -2.87618 0
M  V30 4702 H 440.36 1.50225 -4.54939 0
M  V30 4703 H 438.724 0.889934 -2.38647 0
M  V30 4704 H 439.507 -0.435038 -3.40532 0
M  V30 4705 N 441.952 1.55251 0.271103 0
M  V30 4706 C 443.363 1.66635 0.842007 0
M  V30 4707 C 443.714 0.594631 1.86972 0
M  V30 4708 O 442.839 -0.263532 2.14789 0
M  V30 4709 C 443.434 3.02082 1.53401 0
M  V30 4710 C 441.993 3.15487 2.05293 0
M  V30 4711 C 441.14 2.62438 0.895631 0
M  V30 4712 H 444.091 1.58629 0.0474117 0
M  V30 4713 H 444.112 2.95176 2.40107 0
M  V30 4714 H 443.624 3.80062 0.785786 0
M  V30 4715 H 441.725 2.42284 2.83071 0
M  V30 4716 H 441.838 4.22075 2.26693 0
M  V30 4717 H 440.202 2.19644 1.28953 0
M  V30 4718 H 440.985 3.42923 0.160878 0
M  V30 4719 N 443.43 -0.535701 1.48216 0
M  V30 4720 C 444.676 -1.29375 1.56173 0
M  V30 4721 C 445.009 -1.92804 0.232429 0
M  V30 4722 O 444.284 -1.78992 -0.761048 0
M  V30 4723 C 444.567 -2.38747 2.69577 0
M  V30 4724 C 444.42 -1.80046 4.12193 0
M  V30 4725 C 445.739 -3.40551 2.78771 0
M  V30 4726 H 442.858 -0.469027 0.568491 0
M  V30 4727 H 445.5 -0.597358 1.80365 0
M  V30 4728 H 443.65 -2.98147 2.4908 0
M  V30 4729 H 445.322 -1.24742 4.44114 0
M  V30 4730 H 443.565 -1.10609 4.19462 0
M  V30 4731 H 444.236 -2.59212 4.87353 0
M  V30 4732 H 446.712 -2.91099 2.97322 0
M  V30 4733 H 445.588 -4.1448 3.59857 0
M  V30 4734 H 445.849 -4.00746 1.86696 0
M  V30 4735 N 444.908 -1.36708 -0.784132 0
M  V30 4736 C 445.84 -1.27333 -1.90575 0
M  V30 4737 C 446.853 -0.191706 -1.61667 0
M  V30 4738 O 448.042 -0.446854 -1.72816 0
M  V30 4739 C 445.142 -0.943177 -3.25511 0
M  V30 4740 C 444.315 -2.12776 -3.82158 0
M  V30 4741 C 443.374 -1.76983 -4.95544 0
M  V30 4742 O 442.4 -2.49134 -5.11782 0
M  V30 4743 N 443.602 -0.706624 -5.76183 0
M  V30 4744 H 446.367 -2.23974 -1.99138 0
M  V30 4745 H 443.928 -1.30171 -0.962656 0
M  V30 4746 H 445.92 -0.684799 -3.98864 0
M  V30 4747 H 444.49 -0.0657333 -3.12531 0
M  V30 4748 H 443.71 -2.54863 -3.0073 0
M  V30 4749 H 444.998 -2.91904 -4.16737 0
M  V30 4750 H 444.396 -0.107643 -5.65598 0
M  V30 4751 H 442.953 -0.50808 -6.49817 0
M  V30 4752 N 446.386 1.0089 -1.21074 0
M  V30 4753 C 447.349 2.0775 -0.968129 0
M  V30 4754 C 448.349 1.6069 0.0593445 0
M  V30 4755 O 449.539 1.73293 -0.177525 0
M  V30 4756 C 446.671 3.37794 -0.459108 0
M  V30 4757 H 447.864 2.30707 -1.9161 0
M  V30 4758 H 445.417 1.17807 -1.02719 0
M  V30 4759 H 446.152 3.20516 0.49397 0
M  V30 4760 H 445.937 3.7328 -1.20019 0
M  V30 4761 H 447.427 4.16454 -0.309099 0
M  V30 4762 N 447.864 1.01787 1.20321 0
M  V30 4763 C 449.11 0.708985 1.90003 0
M  V30 4764 C 449.443 -0.759572 1.78729 0
M  V30 4765 O 448.718 -1.55198 1.17234 0
M  V30 4766 C 449.001 1.1469 3.41348 0
M  V30 4767 C 448.854 2.67586 3.61549 0
M  V30 4768 C 450.173 0.71915 4.34185 0
M  V30 4769 H 447.292 0.259034 0.689978 0
M  V30 4770 H 449.934 1.26584 1.41692 0
M  V30 4771 H 448.084 0.673128 3.82624 0
M  V30 4772 H 449.756 3.22826 3.29517 0
M  V30 4773 H 447.999 3.085 3.04976 0
M  V30 4774 H 448.67 2.93281 4.67643 0
M  V30 4775 H 451.146 1.12647 4.00562 0
M  V30 4776 H 450.022 1.05358 5.38694 0
M  V30 4777 H 450.283 -0.379111 4.40472 0
M  V30 4778 N 449.342 -1.36122 0.79427 0
M  V30 4779 C 450.57 -2.03362 0.380989 0
M  V30 4780 C 450.985 -1.59881 -1.00416 0
M  V30 4781 O 450.342 -0.790515 -1.6449 0
M  V30 4782 C 450.393 -3.58804 0.440649 0
M  V30 4783 O 450.114 -4.007 1.77118 0
M  V30 4784 C 451.615 -4.43296 0.0186117 0
M  V30 4785 H 448.835 -0.652526 0.156367 0
M  V30 4786 H 451.379 -1.73998 1.07447 0
M  V30 4787 H 449.534 -3.8686 -0.204458 0
M  V30 4788 H 449.948 -4.95309 1.72538 0
M  V30 4789 H 451.422 -5.51887 0.111488 0
M  V30 4790 H 451.899 -4.2684 -1.03461 0
M  V30 4791 H 452.505 -4.20512 0.636395 0
M  V30 4792 N 450.82 -0.546701 -1.47814 0
M  V30 4793 C 452.236 -0.205717 -1.58269 0
M  V30 4794 C 452.436 1.29153 -1.54667 0
M  V30 4795 O 451.492 2.07098 -1.44453 0
M  V30 4796 C 452.805 -0.823065 -2.89216 0
M  V30 4797 C 454.353 -0.793328 -3.02779 0
M  V30 4798 C 454.828 -1.38955 -4.36412 0
M  V30 4799 N 456.319 -1.35227 -4.43021 0
M  V30 4800 C 457.054 -1.78333 -5.44963 0
M  V30 4801 N 456.55 -2.29246 -6.53772 0
M  V30 4802 N 458.343 -1.69467 -5.35945 0
M  V30 4803 H 450.494 -1.5196 -1.48398 0
M  V30 4804 H 452.757 -0.633078 -0.705632 0
M  V30 4805 H 452.463 -1.8749 -2.97558 0
M  V30 4806 H 452.337 -0.309915 -3.75925 0
M  V30 4807 H 454.724 0.249784 -2.94041 0
M  V30 4808 H 454.805 -1.34412 -2.17639 0
M  V30 4809 H 454.449 -2.43168 -4.45906 0
M  V30 4810 H 454.379 -0.814291 -5.20266 0
M  V30 4811 H 456.87 -0.979739 -3.64979 0
M  V30 4812 H 457.183 -2.60089 -7.27718 0
M  V30 4813 H 455.528 -2.3325 -6.5469 0
M  V30 4814 H 458.719 -1.29477 -4.49837 0
M  V30 4815 H 458.892 -2.03381 -6.15256 0
M  V30 4816 N 452.299 1.55045 -0.282633 0
M  V30 4817 C 453.545 2.0078 0.325436 0
M  V30 4818 C 453.9 1.1676 1.52921 0
M  V30 4819 O 453.193 0.231475 1.90197 0
M  V30 4820 C 453.387 3.49422 0.750938 0
M  V30 4821 C 453.216 4.47827 -0.410056 0
M  V30 4822 C 451.986 4.97288 -0.896239 0
M  V30 4823 C 454.184 4.98903 -1.24902 0
M  V30 4824 N 452.166 5.79508 -2.02591 0
M  V30 4825 C 453.537 5.78644 -2.22646 0
M  V30 4826 C 455.592 4.81126 -1.2815 0
M  V30 4827 C 454.295 6.42502 -3.23393 0
M  V30 4828 C 456.321 5.45789 -2.27745 0
M  V30 4829 C 455.683 6.25348 -3.24222 0
M  V30 4830 H 451.782 0.77747 0.08405 0
M  V30 4831 H 454.366 1.90369 -0.408368 0
M  V30 4832 H 452.537 3.60159 1.45395 0
M  V30 4833 H 454.269 3.81978 1.33698 0
M  V30 4834 H 451.024 4.71219 -0.474277 0
M  V30 4835 H 451.448 6.25308 -2.59459 0
M  V30 4836 H 456.09 4.19215 -0.549397 0
M  V30 4837 H 453.808 7.03558 -3.97533 0
M  V30 4838 H 457.394 5.33972 -2.31009 0
M  V30 4839 H 456.274 6.74498 -4.00027 0
M  V30 4840 N 453.777 0.010035 1.57597 0
M  V30 4841 C 454.74 -0.963029 2.07986 0
M  V30 4842 C 455.74 -1.26619 0.991173 0
M  V30 4843 O 456.93 -1.2097 1.25347 0
M  V30 4844 C 454.062 -2.2851 2.52974 0
M  V30 4845 H 455.255 -0.526971 2.95234 0
M  V30 4846 H 452.808 -0.237639 1.54483 0
M  V30 4847 H 453.543 -2.76784 1.69 0
M  V30 4848 H 453.328 -2.07824 3.32493 0
M  V30 4849 H 454.818 -2.98294 2.9225 0
M  V30 4850 N 455.255 -1.55392 -0.262866 0
M  V30 4851 C 456.485 -1.80251 -1.00961 0
M  V30 4852 C 456.893 -0.58117 -1.80053 0
M  V30 4853 O 456.236 0.459427 -1.77862 0
M  V30 4854 C 456.298 -2.98207 -2.00781 0
M  V30 4855 C 455.962 -4.34856 -1.40533 0
M  V30 4856 C 456.959 -5.13459 -0.815853 0
M  V30 4857 C 454.644 -4.8153 -1.42948 0
M  V30 4858 C 456.638 -6.36875 -0.258562 0
M  V30 4859 C 454.325 -6.04899 -0.868334 0
M  V30 4860 C 455.323 -6.8241 -0.283884 0
M  V30 4861 O 455.011 -8.03451 0.268644 0
M  V30 4862 H 454.743 -0.604049 -0.303482 0
M  V30 4863 H 457.297 -2.03257 -0.295926 0
M  V30 4864 H 455.527 -2.70917 -2.75936 0
M  V30 4865 H 457.216 -3.10299 -2.61667 0
M  V30 4866 H 457.982 -4.78526 -0.789812 0
M  V30 4867 H 453.861 -4.21201 -1.87378 0
M  V30 4868 H 457.405 -6.97318 0.198257 0
M  V30 4869 H 453.302 -6.39312 -0.891649 0
M  V30 4870 H 454.07 -8.18346 0.158974 0
M  V30 4871 N 456.733 0.527833 -1.48498 0
M  V30 4872 C 457.643 1.65907 -1.65867 0
M  V30 4873 C 458.659 1.6537 -0.541192 0
M  V30 4874 O 459.835 1.84282 -0.812534 0
M  V30 4875 C 456.9 3.02364 -1.69637 0
M  V30 4876 C 455.961 3.1374 -2.93028 0
M  V30 4877 C 455.194 4.43688 -2.96609 0
M  V30 4878 O 455.417 5.30913 -2.08538 0
M  V30 4879 O 454.351 4.59475 -3.88802 0
M  V30 4880 H 458.177 1.5419 -2.61647 0
M  V30 4881 H 455.762 0.701163 -1.31924 0
M  V30 4882 H 457.644 3.83515 -1.74625 0
M  V30 4883 H 456.319 3.14401 -0.770312 0
M  V30 4884 H 455.226 2.31877 -2.93571 0
M  V30 4885 H 456.559 3.06621 -3.85026 0
M  V30 4886 N 458.211 1.37122 0.776871 0
M  V30 4887 C 459.488 1.22586 1.52421 0
M  V30 4888 C 459.868 -0.182726 2.10308 0
M  V30 4889 O 459.216 -1.18979 1.9508 0
M  V30 4890 C 459.426 2.31782 2.60918 0
M  V30 4891 C 460.774 2.69071 3.2846 0
M  V30 4892 O 461.798 2.3092 2.71209 0
M  V30 4893 O 460.657 3.3478 4.31954 0
M  V30 4894 H 457.751 0.478045 0.674835 0
M  V30 4895 H 460.297 1.48888 0.814275 0
M  V30 4896 H 459.069 3.26131 2.16227 0
M  V30 4897 H 458.692 2.06916 3.39517 0
M  V30 4898 N 459.689 -1.00246 1.21608 0
M  V30 4899 C 460.938 -1.73476 1.02902 0
M  V30 4900 C 461.251 -1.90643 -0.437561 0
M  V30 4901 O 462.457 -2.61105 -0.74407 0
M  V30 4902 C 460.913 -3.12079 1.79261 0
M  V30 4903 C 460.521 -3.02877 3.30106 0
M  V30 4904 C 462.265 -3.89421 1.68972 0
M  V30 4905 C 460.172 -4.36575 3.98944 0
M  V30 4906 H 459.102 -0.650408 0.381425 0
M  V30 4907 H 461.753 -1.11985 1.45367 0
M  V30 4908 H 460.135 -3.74196 1.2959 0
M  V30 4909 H 461.309 -2.49983 3.87098 0
M  V30 4910 H 459.624 -2.39022 3.40965 0
M  V30 4911 H 462.221 -4.88362 2.17731 0
M  V30 4912 H 462.564 -4.1122 0.648397 0
M  V30 4913 H 463.097 -3.33963 2.16133 0
M  V30 4914 H 459.836 -4.19978 5.03288 0
M  V30 4915 H 459.356 -4.8942 3.4674 0
M  V30 4916 H 461.035 -5.05364 4.04 0
M  V30 4917 N 461.167 -1.02423 -1.1978 0
M  V30 4918 C 462.583 -0.740459 -1.41384 0
M  V30 4919 C 462.783 0.676827 -1.89793 0
M  V30 4920 O 461.839 1.4435 -2.0717 0
M  V30 4921 C 463.152 -1.77264 -2.42895 0
M  V30 4922 C 464.7 -1.79165 -2.56649 0
M  V30 4923 C 465.175 -2.8133 -3.6141 0
M  V30 4924 N 466.666 -2.80118 -3.68901 0
M  V30 4925 C 467.401 -3.55824 -4.49641 0
M  V30 4926 N 466.897 -4.41231 -5.34123 0
M  V30 4927 N 468.69 -3.44387 -4.44246 0
M  V30 4928 H 460.841 -1.9391 -0.866764 0
M  V30 4929 H 463.104 -0.838074 -0.443098 0
M  V30 4930 H 462.81 -2.7884 -2.14339 0
M  V30 4931 H 462.684 -1.59108 -3.42001 0
M  V30 4932 H 465.071 -0.782702 -2.84531 0
M  V30 4933 H 465.152 -2.01396 -1.57713 0
M  V30 4934 H 464.796 -3.82394 -3.34271 0
M  V30 4935 H 464.726 -2.56359 -4.59986 0
M  V30 4936 H 467.217 -2.1817 -3.08562 0
M  V30 4937 H 467.53 -4.95747 -5.92836 0
M  V30 4938 H 465.875 -4.45306 -5.33599 0
M  V30 4939 H 469.066 -2.7708 -3.77285 0
M  V30 4940 H 469.239 -4.0364 -5.06931 0
M  V30 4941 N 462.645 1.35699 -0.801477 0
M  V30 4942 C 463.575 2.32436 -0.222658 0
M  V30 4943 C 464.556 1.5723 0.649057 0
M  V30 4944 O 465.741 1.85324 0.580387 0
M  V30 4945 C 462.871 3.41469 0.633719 0
M  V30 4946 C 461.825 4.27774 -0.139083 0
M  V30 4947 C 461.151 5.28082 0.838666 0
M  V30 4948 C 462.451 5.04946 -1.33517 0
M  V30 4949 H 464.145 2.81094 -1.03086 0
M  V30 4950 H 461.691 1.35146 -0.497155 0
M  V30 4951 H 463.644 4.08143 1.04868 0
M  V30 4952 H 462.368 2.91408 1.47475 0
M  V30 4953 H 461.027 3.62673 -0.535156 0
M  V30 4954 H 460.675 4.7429 1.67506 0
M  V30 4955 H 460.375 5.86695 0.32594 0
M  V30 4956 H 461.899 5.97628 1.25194 0
M  V30 4957 H 463.313 5.64593 -0.995349 0
M  V30 4958 H 461.71 5.7303 -1.78202 0
M  V30 4959 H 462.78 4.35886 -2.12442 0
M  V30 4960 N 464.123 0.554532 1.47522 0
M  V30 4961 C 465.371 0.0294208 2.02079 0
M  V30 4962 C 465.692 -1.32411 1.43151 0
M  V30 4963 O 464.962 -1.863 0.605728 0
M  V30 4964 H 463.542 0.00788672 0.746958 0
M  V30 4965 H 466.204 0.723934 1.80956 0
M  V30 4966 H 465.3 -0.0606745 3.12041 0
M  V30 4967 N 465.601 -1.54893 0.290851 0
M  V30 4968 C 466.878 -1.91991 -0.373989 0
M  V30 4969 C 467.258 -1.21694 -1.72493 0
M  V30 4970 O 466.606 -0.34917 -2.25816 0
M  V30 4971 C 466.816 -3.45419 -0.498703 0
M  V30 4972 C 468.164 -4.1748 -0.774298 0
M  V30 4973 O 469.188 -3.51398 -0.582908 0
M  V30 4974 O 468.047 -5.3445 -1.14129 0
M  V30 4975 H 465.141 -0.800593 -0.207315 0
M  V30 4976 H 467.687 -1.66297 0.338164 0
M  V30 4977 H 466.459 -3.88688 0.451392 0
M  V30 4978 H 466.082 -3.77117 -1.25972 0
M  V30 4979 N 467.08 -0.0183926 -1.57589 0
M  V30 4980 C 468.03 0.975944 -2.06057 0
M  V30 4981 C 469.014 1.29204 -0.958908 0
M  V30 4982 O 470.206 1.27995 -1.22255 0
M  V30 4983 C 467.335 2.26194 -2.58247 0
M  V30 4984 C 466.421 1.97467 -3.75323 0
M  V30 4985 N 466.812 1.38968 -4.86335 0
M  V30 4986 C 465.11 2.27515 -3.83605 0
M  V30 4987 C 465.811 1.27131 -5.67638 0
M  V30 4988 N 464.787 1.76319 -5.14211 0
M  V30 4989 H 468.589 0.518444 -2.89291 0
M  V30 4990 H 466.103 0.18688 -1.61321 0
M  V30 4991 H 468.1 2.98289 -2.91255 0
M  V30 4992 H 466.76 2.7258 -1.76438 0
M  V30 4993 H 467.771 1.06608 -5.06809 0
M  V30 4994 H 464.448 2.76649 -3.12684 0
M  V30 4995 H 465.838 0.819882 -6.66879 0
M  V30 4996 N 468.558 1.5553 0.254621 0
M  V30 4997 C 469.835 1.6774 1.00611 0
M  V30 4998 C 470.215 0.555993 2.03647 0
M  V30 4999 O 469.563 -0.441583 2.24193 0
M  V30 5000 C 469.773 3.07725 1.6464 0
M  V30 5001 C 471.121 3.66074 2.15116 0
M  V30 5002 O 472.145 3.10476 1.74595 0
M  V30 5003 O 471.004 4.63526 2.89493 0
M  V30 5004 H 468.098 0.681958 0.467828 0
M  V30 5005 H 470.644 1.67863 0.24902 0
M  V30 5006 H 469.416 3.80792 0.900734 0
M  V30 5007 H 469.039 3.1158 2.46989 0
M  V30 5008 N 470.036 -0.519951 1.48776 0
M  V30 5009 C 471.285 -1.27175 1.56555 0
M  V30 5010 C 471.598 -1.9401 0.248869 0
M  V30 5011 O 472.804 -2.70725 0.205004 0
M  V30 5012 C 471.26 -2.30811 2.76142 0
M  V30 5013 C 470.868 -1.7 4.14493 0
M  V30 5014 C 472.612 -3.06937 2.9324 0
M  V30 5015 C 470.519 -2.71635 5.25327 0
M  V30 5016 H 469.449 -0.478329 0.582853 0
M  V30 5017 H 472.1 -0.547916 1.75129 0
M  V30 5018 H 470.482 -3.06274 2.51023 0
M  V30 5019 H 471.656 -1.00658 4.49672 0
M  V30 5020 H 469.971 -1.06331 4.02595 0
M  V30 5021 H 472.568 -3.82905 3.73213 0
M  V30 5022 H 472.911 -3.63409 2.03075 0
M  V30 5023 H 473.444 -2.38589 3.18308 0
M  V30 5024 H 470.183 -2.1997 6.1749 0
M  V30 5025 H 469.703 -3.39275 4.94624 0
M  V30 5026 H 471.382 -3.34429 5.53865 0
M  V30 5027 N 471.514 -1.37532 -0.769588 0
M  V30 5028 C 472.925 -1.29382 -1.346 0
M  V30 5029 C 473.276 0.0576039 -1.96115 0
M  V30 5030 O 472.401 0.95947 -1.93967 0
M  V30 5031 C 472.996 -2.34298 -2.44724 0
M  V30 5032 C 471.555 -2.29776 -2.98128 0
M  V30 5033 C 470.702 -2.18013 -1.71364 0
M  V30 5034 H 473.653 -1.48123 -0.56968 0
M  V30 5035 H 473.674 -1.99089 -3.24259 0
M  V30 5036 H 473.186 -3.32645 -1.99922 0
M  V30 5037 H 471.287 -1.34959 -3.47299 0
M  V30 5038 H 471.4 -3.23276 -3.53595 0
M  V30 5039 H 469.764 -1.64595 -1.94372 0
M  V30 5040 H 470.547 -3.18278 -1.28662 0
M  V30 5041 N 472.992 0.995999 -1.22138 0
M  V30 5042 C 474.408 1.25917 -0.980667 0
M  V30 5043 C 474.608 1.98819 0.327604 0
M  V30 5044 O 473.664 2.29587 1.05101 0
M  V30 5045 C 474.977 2.07399 -2.17729 0
M  V30 5046 C 476.525 2.20594 -2.22052 0
M  V30 5047 C 477 3.05462 -3.41258 0
M  V30 5048 N 478.491 3.13049 -3.41401 0
M  V30 5049 C 479.226 3.78997 -4.30289 0
M  V30 5050 N 478.722 4.46899 -5.2939 0
M  V30 5051 N 480.515 3.75728 -4.18073 0
M  V30 5052 H 472.666 0.507158 -2.06256 0
M  V30 5053 H 474.929 0.28658 -0.903646 0
M  V30 5054 H 474.635 1.61191 -3.12586 0
M  V30 5055 H 474.509 3.08154 -2.17534 0
M  V30 5056 H 476.896 2.66017 -1.27745 0
M  V30 5057 H 476.977 1.1928 -2.26287 0
M  V30 5058 H 476.621 2.60739 -4.35864 0
M  V30 5059 H 476.551 4.06911 -3.34262 0
M  V30 5060 H 479.042 2.64721 -2.69688 0
M  V30 5061 H 479.355 4.94952 -5.935 0
M  V30 5062 H 477.7 4.45657 -5.33306 0
M  V30 5063 H 480.891 3.2184 -3.39907 0
M  V30 5064 H 481.064 4.26845 -4.87553 0
M  V30 5065 N 474.47 1.03057 1.19235 0
M  V30 5066 C 475.718 0.726581 1.88587 0
M  V30 5067 C 476.039 -0.747227 1.80115 0
M  V30 5068 O 475.309 -1.53849 1.21274 0
M  V30 5069 H 473.889 0.265768 0.698124 0
M  V30 5070 H 476.551 1.30516 1.44746 0
M  V30 5071 H 475.647 1.0224 2.94879 0
M  V30 5072 N 475.948 -1.35272 0.808662 0
M  V30 5073 C 477.173 -2.03477 0.401475 0
M  V30 5074 C 477.598 -1.60537 -0.980279 0
M  V30 5075 O 476.956 -0.78304 -1.63518 0
M  V30 5076 C 477.004 -3.57181 0.495354 0
M  V30 5077 O 476.108 -4.09474 -0.490397 0
M  V30 5078 H 475.449 -0.642561 0.167366 0
M  V30 5079 H 477.979 -1.72824 1.09512 0
M  V30 5080 H 477.989 -4.06356 0.365912 0
M  V30 5081 H 476.664 -3.87784 1.5032 0
M  V30 5082 H 475.241 -3.71516 -0.321023 0
M  V30 5083 N 477.426 -0.562348 -1.47226 0
M  V30 5084 C 478.842 -0.222492 -1.58042 0
M  V30 5085 C 479.042 1.27505 -1.56028 0
M  V30 5086 O 478.098 2.05555 -1.46641 0
M  V30 5087 C 479.411 -0.853694 -2.88327 0
M  V30 5088 C 480.959 -0.825397 -3.01921 0
M  V30 5089 C 481.434 -1.43576 -4.34914 0
M  V30 5090 N 482.925 -1.39918 -4.41562 0
M  V30 5091 C 483.66 -1.84103 -5.43041 0
M  V30 5092 N 483.156 -2.36167 -6.51304 0
M  V30 5093 N 484.949 -1.75142 -5.34118 0
M  V30 5094 H 477.1 -1.53525 -1.46778 0
M  V30 5095 H 479.363 -0.640527 -0.698877 0
M  V30 5096 H 479.069 -1.90635 -2.95552 0
M  V30 5097 H 478.943 -0.34977 -3.75575 0
M  V30 5098 H 481.33 0.218583 -2.94289 0
M  V30 5099 H 481.411 -1.36713 -2.16202 0
M  V30 5100 H 481.055 -2.47884 -4.43301 0
M  V30 5101 H 480.985 -0.869427 -5.19373 0
M  V30 5102 H 483.476 -1.0184 -3.63919 0
M  V30 5103 H 483.789 -2.67793 -7.24919 0
M  V30 5104 H 482.134 -2.40181 -6.52179 0
M  V30 5105 H 485.325 -1.34241 -4.48439 0
M  V30 5106 H 485.498 -2.09895 -6.13065 0
M  V30 5107 N 478.904 1.54736 -0.299062 0
M  V30 5108 C 480.15 2.00397 0.311244 0
M  V30 5109 C 480.483 1.18716 1.53688 0
M  V30 5110 O 479.758 0.263154 1.92712 0
M  V30 5111 C 480.041 3.53817 0.669761 0
M  V30 5112 C 479.894 4.46239 -0.564882 0
M  V30 5113 C 481.213 4.13856 1.49702 0
M  V30 5114 H 478.332 0.728493 0.111653 0
M  V30 5115 H 480.974 1.85506 -0.410774 0
M  V30 5116 H 479.124 3.66637 1.28491 0
M  V30 5117 H 480.796 4.45328 -1.20337 0
M  V30 5118 H 479.039 4.16916 -1.19849 0
M  V30 5119 H 479.71 5.5134 -0.269918 0
M  V30 5120 H 482.186 4.04461 0.977284 0
M  V30 5121 H 481.062 5.21365 1.71666 0
M  V30 5122 H 481.323 3.65608 2.48563 0
M  V30 5123 N 480.382 0.0267497 1.57577 0
M  V30 5124 C 481.628 -0.653371 1.91987 0
M  V30 5125 C 481.961 -1.71915 0.903263 0
M  V30 5126 O 481.236 -1.94358 -0.0743387 0
M  V30 5127 C 481.519 -1.272 3.36886 0
M  V30 5128 C 481.372 -0.215938 4.49281 0
M  V30 5129 C 482.691 -2.19069 3.81703 0
M  V30 5130 H 479.81 -0.236047 0.698177 0
M  V30 5131 H 482.452 0.0835236 1.89816 0
M  V30 5132 H 480.602 -1.90005 3.38866 0
M  V30 5133 H 482.274 0.41449 4.59434 0
M  V30 5134 H 480.517 0.458855 4.31366 0
M  V30 5135 H 481.188 -0.688347 5.47691 0
M  V30 5136 H 483.664 -1.66253 3.81444 0
M  V30 5137 H 482.54 -2.59307 4.83788 0
M  V30 5138 H 482.801 -3.08087 3.17072 0
M  V30 5139 N 481.861 -1.55662 -0.24637 0
M  V30 5140 C 482.824 -1.89558 -1.28842 0
M  V30 5141 C 483.824 -0.772082 -1.41052 0
M  V30 5142 O 485.014 -1.04007 -1.39743 0
M  V30 5143 C 482.146 -2.12449 -2.66605 0
M  V30 5144 H 483.339 -2.82735 -1.00004 0
M  V30 5145 H 480.892 -1.48562 -0.485684 0
M  V30 5146 H 481.627 -1.21742 -3.00582 0
M  V30 5147 H 481.412 -2.94273 -2.59125 0
M  V30 5148 H 482.902 -2.39854 -3.41847 0
M  V30 5149 N 483.339 0.512053 -1.4905 0
M  V30 5150 C 484.269 1.62365 -1.67809 0
M  V30 5151 C 485.25 1.61737 -0.526809 0
M  V30 5152 O 486.435 1.78651 -0.761404 0
M  V30 5153 C 483.565 3.00895 -1.73435 0
M  V30 5154 C 482.519 3.16387 -2.88242 0
M  V30 5155 C 481.845 4.56157 -2.78971 0
M  V30 5156 C 483.145 2.97457 -4.29321 0
M  V30 5157 H 484.839 1.46921 -2.60873 0
M  V30 5158 H 482.385 0.705379 -1.2554 0
M  V30 5159 H 484.338 3.78549 -1.85145 0
M  V30 5160 H 483.062 3.17403 -0.769619 0
M  V30 5161 H 481.721 2.41155 -2.76116 0
M  V30 5162 H 481.369 4.69525 -1.8043 0
M  V30 5163 H 481.069 4.67465 -3.5602 0
M  V30 5164 H 482.593 5.35886 -2.92675 0
M  V30 5165 H 484.007 3.64888 -4.42187 0
M  V30 5166 H 482.404 3.20245 -5.07507 0
M  V30 5167 H 483.474 1.93692 -4.44535 0
M  V30 5168 N 484.817 1.37938 0.762283 0
M  V30 5169 C 485.747 1.37176 1.88958 0
M  V30 5170 C 486.728 0.238945 1.68413 0
M  V30 5171 O 487.913 0.440726 1.89133 0
M  V30 5172 C 485.043 1.18742 3.2637 0
M  V30 5173 C 483.997 2.29136 3.61498 0
M  V30 5174 C 483.323 1.95816 4.97554 0
M  V30 5175 C 484.623 3.71363 3.6727 0
M  V30 5176 H 486.317 2.31509 1.89853 0
M  V30 5177 H 483.863 1.11438 0.912005 0
M  V30 5178 H 485.816 1.16837 4.04879 0
M  V30 5179 H 484.54 0.208683 3.25933 0
M  V30 5180 H 483.199 2.30213 2.85303 0
M  V30 5181 H 482.847 0.964475 4.93667 0
M  V30 5182 H 482.547 2.69745 5.22026 0
M  V30 5183 H 484.071 1.95513 5.78452 0
M  V30 5184 H 485.485 3.72364 4.35911 0
M  V30 5185 H 483.882 4.44425 4.03245 0
M  V30 5186 H 484.952 4.04305 2.67704 0
M  V30 5187 N 486.295 -0.989507 1.22664 0
M  V30 5188 C 487.543 -1.72612 1.05117 0
M  V30 5189 C 487.864 -1.90552 -0.414131 0
M  V30 5190 O 487.134 -1.4676 -1.29762 0
M  V30 5191 H 485.714 -0.639555 0.385977 0
M  V30 5192 H 488.376 -1.19158 1.54232 0
M  V30 5193 H 487.472 -2.71926 1.53175 0
M  V30 5194 N 487.773 -1.03688 -1.18687 0
M  V30 5195 C 488.998 -0.757819 -1.93059 0
M  V30 5196 C 489.423 0.678353 -1.75442 0
M  V30 5197 O 488.781 1.46938 -1.06203 0
M  V30 5198 C 488.829 -1.12423 -3.42627 0
M  V30 5199 O 487.933 -0.247505 -4.11657 0
M  V30 5200 H 487.274 -0.279245 -0.602427 0
M  V30 5201 H 489.804 -1.3857 -1.5053 0
M  V30 5202 H 489.814 -1.08454 -3.93322 0
M  V30 5203 H 488.489 -2.17049 -3.54771 0
M  V30 5204 H 487.066 -0.34649 -3.71287 0
M  V30 5205 N 489.251 1.34841 -0.815825 0
M  V30 5206 C 490.214 2.27959 -0.238185 0
M  V30 5207 C 491.214 1.49983 0.579816 0
M  V30 5208 O 492.404 1.69617 0.396953 0
M  V30 5209 C 489.536 3.34314 0.666876 0
M  V30 5210 H 490.729 2.80558 -1.05958 0
M  V30 5211 H 488.282 1.44852 -0.587156 0
M  V30 5212 H 489.017 2.86916 1.5116 0
M  V30 5213 H 488.802 3.92014 0.0819106 0
M  V30 5214 H 490.292 4.0379 1.06506 0
M  V30 5215 N 490.729 0.570148 1.46925 0
M  V30 5216 C 491.677 -0.183181 2.31878 0
M  V30 5217 C 492.671 -0.896721 1.43719 0
M  V30 5218 O 493.877 -0.816536 1.60414 0
M  V30 5219 H 490.252 -0.077944 0.74795 0
M  V30 5220 H 492.223 0.552312 2.93244 0
M  V30 5221 C 490.972 -1.19172 3.2664 0
M  V30 5222 H 490.295 -0.652088 3.94446 0
M  V30 5223 H 491.735 -1.68946 3.88887 0
M  V30 5224 C 490.194 -2.24627 2.51086 0
M  V30 5225 O 490.724 -3.31773 2.26472 0
M  V30 5226 N 488.93 -1.98898 2.11867 0
M  V30 5227 H 488.477 -1.11777 2.32086 0
M  V30 5228 H 488.435 -2.6967 1.61634 0
M  V30 5229 N 492.207 -1.54576 0.307264 0
M  V30 5230 C 493.623 -1.59534 -0.0459251 0
M  V30 5231 C 493.823 -1.32414 -1.51884 0
M  V30 5232 O 492.879 -1.1006 -2.27251 0
M  V30 5233 C 494.192 -2.98566 0.357649 0
M  V30 5234 C 495.74 -3.11491 0.306937 0
M  V30 5235 C 496.215 -4.52842 0.685427 0
M  V30 5236 N 497.706 -4.58782 0.638203 0
M  V30 5237 C 498.441 -5.66238 0.903458 0
M  V30 5238 N 497.937 -6.81703 1.23501 0
M  V30 5239 N 499.73 -5.55937 0.830102 0
M  V30 5240 H 491.881 -1.70464 1.26712 0
M  V30 5241 H 494.144 -0.79647 0.514139 0
M  V30 5242 H 493.85 -3.23356 1.38325 0
M  V30 5243 H 493.724 -3.76117 -0.285565 0
M  V30 5244 H 496.111 -2.86446 -0.709424 0
M  V30 5245 H 496.192 -2.36081 0.984861 0
M  V30 5246 H 495.836 -4.78618 1.69963 0
M  V30 5247 H 495.766 -5.26598 -0.0146346 0
M  V30 5248 H 498.257 -3.75849 0.393138 0
M  V30 5249 H 498.57 -7.59582 1.42322 0
M  V30 5250 H 496.915 -6.8324 1.27311 0
M  V30 5251 H 500.106 -4.64608 0.570693 0
M  V30 5252 H 500.279 -6.39597 1.04019 0
M  V30 5253 N 493.685 -0.035106 -1.57561 0
M  V30 5254 C 494.962 0.681212 -1.83354 0
M  V30 5255 C 495.342 1.89986 -0.920252 0
M  V30 5256 O 494.69 2.28489 0.0226815 0
M  V30 5257 C 494.9 1.05376 -3.32712 0
M  V30 5258 C 496.248 1.44286 -3.99333 0
M  V30 5259 O 497.272 1.14656 -3.37242 0
M  V30 5260 O 496.131 1.99518 -5.08778 0
M  V30 5261 H 493.225 0.334741 -0.756226 0
M  V30 5262 H 495.771 -0.0632448 -1.69582 0
M  V30 5263 H 494.543 0.186668 -3.90854 0
M  V30 5264 H 494.166 1.85619 -3.51613 0
M  V30 5265 N 495.163 1.55791 0.238111 0
M  V30 5266 C 496.574 1.68383 0.806472 0
M  V30 5267 C 496.925 0.634157 1.85669 0
M  V30 5268 O 496.05 -0.217913 2.153 0
M  V30 5269 C 496.645 3.05268 1.46959 0
M  V30 5270 C 495.204 3.1977 1.98555 0
M  V30 5271 C 494.351 2.64279 0.839763 0
M  V30 5272 H 497.302 1.58694 0.0137535 0
M  V30 5273 H 497.323 3.00203 2.33792 0
M  V30 5274 H 496.835 3.81643 0.704993 0
M  V30 5275 H 494.936 2.48234 2.77868 0
M  V30 5276 H 495.049 4.26788 2.17689 0
M  V30 5277 H 493.413 2.22329 1.24265 0
M  V30 5278 H 494.196 3.43187 0.0881032 0
M  V30 5279 N 496.642 -0.504142 1.49319 0
M  V30 5280 C 497.605 -1.5883 1.65244 0
M  V30 5281 C 498.605 -1.52009 0.524386 0
M  V30 5282 O 499.795 -1.55218 0.79077 0
M  V30 5283 C 496.927 -2.98481 1.64687 0
M  V30 5284 H 498.12 -1.4604 2.61939 0
M  V30 5285 H 495.673 -0.728144 1.38303 0
M  V30 5286 H 496.408 -3.16751 0.695644 0
M  V30 5287 H 496.193 -3.0484 2.46607 0
M  V30 5288 H 497.683 -3.77256 1.79075 0
M  V30 5289 N 498.12 -1.38341 -0.754957 0
M  V30 5290 C 499.536 -1.19508 -1.05783 0
M  V30 5291 C 499.736 -0.0428005 -2.01455 0
M  V30 5292 O 498.792 0.611861 -2.44975 0
M  V30 5293 C 500.105 -2.52091 -1.63923 0
M  V30 5294 C 501.653 -2.58762 -1.76101 0
M  V30 5295 C 502.128 -3.91517 -2.37652 0
M  V30 5296 N 503.619 -3.93049 -2.45085 0
M  V30 5297 C 504.354 -4.9253 -2.93602 0
M  V30 5298 N 503.85 -6.02408 -3.42165 0
M  V30 5299 N 505.643 -4.79921 -2.92629 0
M  V30 5300 H 497.794 -2.1206 -0.120056 0
M  V30 5301 H 500.057 -0.94089 -0.11589 0
M  V30 5302 H 499.763 -3.36858 -1.01093 0
M  V30 5303 H 499.637 -2.70388 -2.63003 0
M  V30 5304 H 502.024 -1.74391 -2.38058 0
M  V30 5305 H 502.105 -2.44333 -0.757294 0
M  V30 5306 H 501.749 -4.76309 -1.76329 0
M  V30 5307 H 501.679 -4.03256 -3.38662 0
M  V30 5308 H 504.17 -3.13685 -2.10736 0
M  V30 5309 H 504.483 -6.74248 -3.77637 0
M  V30 5310 H 502.828 -6.0603 -3.40225 0
M  V30 5311 H 506.019 -3.93194 -2.54001 0
M  V30 5312 H 506.192 -5.57601 -3.30128 0
M  V30 5313 N 499.598 0.982988 -1.23187 0
M  V30 5314 C 500.845 1.72392 -1.06241 0
M  V30 5315 C 501.173 1.9032 0.40108 0
M  V30 5316 O 500.428 1.45084 1.31336 0
M  V30 5317 C 500.727 3.12736 -1.73006 0
M  V30 5318 C 500.393 3.14695 -3.22921 0
M  V30 5319 C 499.055 3.14937 -3.63824 0
M  V30 5320 C 501.407 3.10211 -4.1883 0
M  V30 5321 C 498.735 3.08408 -4.99101 0
M  V30 5322 C 501.087 3.05224 -5.54095 0
M  V30 5323 C 499.751 3.03787 -5.94365 0
M  V30 5324 H 499.021 0.630829 -0.388762 0
M  V30 5325 H 501.668 1.15053 -1.53085 0
M  V30 5326 H 499.973 3.73446 -1.18514 0
M  V30 5327 H 501.67 3.68828 -1.57374 0
M  V30 5328 H 498.26 3.15262 -2.90358 0
M  V30 5329 H 502.444 3.09166 -3.8824 0
M  V30 5330 H 497.7 3.05646 -5.29519 0
M  V30 5331 H 501.874 3.00712 -6.28128 0
M  V30 5332 H 499.501 2.98483 -6.99151 0
M  V30 5333 N 501.076 1.04316 1.18135 0
M  V30 5334 C 502.487 0.775505 1.69832 0
M  V30 5335 C 502.838 -0.703348 1.8316 0
M  V30 5336 O 501.963 -1.54729 1.51287 0
M  V30 5337 C 502.558 1.40112 3.0847 0
M  V30 5338 C 501.117 1.18172 3.57368 0
M  V30 5339 C 500.264 1.49022 2.33854 0
M  V30 5340 H 503.215 1.20925 1.02775 0
M  V30 5341 H 503.236 0.805672 3.71873 0
M  V30 5342 H 502.748 2.47744 2.98738 0
M  V30 5343 H 500.849 0.124258 3.72393 0
M  V30 5344 H 500.962 1.8805 4.40652 0
M  V30 5345 H 499.326 0.909995 2.37889 0
M  V30 5346 H 500.109 2.57768 2.26738 0
M  V30 5347 N 502.554 -1.34406 0.822964 0
M  V30 5348 C 503.831 -1.92733 0.333641 0
M  V30 5349 C 504.211 -1.75107 -1.17901 0
M  V30 5350 O 503.559 -1.12983 -1.98613 0
M  V30 5351 C 503.769 -3.40557 0.763023 0
M  V30 5352 C 505.117 -4.17709 0.761879 0
M  V30 5353 O 506.141 -3.49141 0.705606 0
M  V30 5354 O 505 -5.40082 0.835109 0
M  V30 5355 H 502.094 -0.821964 0.0911249 0
M  V30 5356 H 504.64 -1.4338 0.907757 0
M  V30 5357 H 503.412 -3.47187 1.8049 0
M  V30 5358 H 503.035 -3.97259 0.164605 0
M  V30 5359 N 504.032 -0.577932 -1.46621 0
M  V30 5360 C 505.443 -0.150071 -1.86096 0
M  V30 5361 C 505.794 1.28563 -1.48209 0
M  V30 5362 O 504.919 1.97036 -0.894754 0
M  V30 5363 C 505.514 -0.265576 -3.37758 0
M  V30 5364 C 504.073 0.10738 -3.76247 0
M  V30 5365 C 503.22 -0.603711 -2.70649 0
M  V30 5366 H 506.171 -0.786438 -1.37844 0
M  V30 5367 H 506.192 0.510352 -3.77062 0
M  V30 5368 H 505.704 -1.3106 -3.65301 0
M  V30 5369 H 503.805 1.15272 -3.54321 0
M  V30 5370 H 503.918 -0.26561 -4.78363 0
M  V30 5371 H 502.282 -0.0444884 -2.54661 0
M  V30 5372 H 503.065 -1.65029 -3.01032 0
M  V30 5373 N 505.51 1.54411 -0.315457 0
M  V30 5374 C 506.787 1.92562 0.343398 0
M  V30 5375 C 507.167 1.24423 1.70535 0
M  V30 5376 O 506.515 0.385051 2.25232 0
M  V30 5377 C 506.725 3.46168 0.443687 0
M  V30 5378 C 508.073 4.18659 0.707783 0
M  V30 5379 O 509.097 3.52281 0.52693 0
M  V30 5380 O 507.956 5.36198 1.05612 0
M  V30 5381 H 505.05 0.80379 0.194552 0
M  V30 5382 H 507.596 1.65738 -0.364577 0
M  V30 5383 H 506.368 3.8792 -0.513172 0
M  V30 5384 H 505.991 3.79073 1.19956 0
M  V30 5385 N 506.988 0.0434614 1.5754 0
M  V30 5386 C 508.234 -0.632971 1.92669 0
M  V30 5387 C 508.567 -1.70947 0.921446 0
M  V30 5388 O 507.842 -1.94426 -0.0537202 0
M  V30 5389 C 508.125 -1.23619 3.38216 0
M  V30 5390 C 507.978 -0.168274 4.49485 0
M  V30 5391 C 509.297 -2.15008 3.84005 0
M  V30 5392 H 506.416 -0.228629 0.700641 0
M  V30 5393 H 509.058 0.103651 1.89717 0
M  V30 5394 H 507.208 -1.864 3.40863 0
M  V30 5395 H 508.88 0.463196 4.58969 0
M  V30 5396 H 507.123 0.504581 4.30855 0
M  V30 5397 H 507.794 -0.630218 5.48391 0
M  V30 5398 H 510.27 -1.62198 3.83185 0
M  V30 5399 H 509.146 -2.54161 4.86511 0
M  V30 5400 H 509.407 -3.04707 3.20322 0
M  V30 5401 N 508.466 -1.55915 -0.229846 0
M  V30 5402 C 509.396 -1.94754 -1.28815 0
M  V30 5403 C 510.377 -0.814657 -1.49323 0
M  V30 5404 O 511.562 -1.07631 -1.61645 0
M  V30 5405 C 508.692 -2.25705 -2.63959 0
M  V30 5406 C 507.646 -3.41406 -2.5812 0
M  V30 5407 C 506.972 -3.57941 -3.97218 0
M  V30 5408 C 508.272 -4.76616 -2.13623 0
M  V30 5409 H 509.966 -2.83404 -0.965547 0
M  V30 5410 H 507.512 -1.36353 -0.463028 0
M  V30 5411 H 509.465 -2.51467 -3.38146 0
M  V30 5412 H 508.189 -1.339 -2.9789 0
M  V30 5413 H 506.848 -3.1568 -1.86391 0
M  V30 5414 H 506.496 -2.63526 -4.28443 0
M  V30 5415 H 506.196 -4.35757 -3.94195 0
M  V30 5416 H 507.72 -3.86042 -4.73079 0
M  V30 5417 H 509.134 -5.01637 -2.77549 0
M  V30 5418 H 507.531 -5.57655 -2.21677 0
M  V30 5419 H 508.601 -4.7253 -1.08829 0
M  V30 5420 N 509.944 0.496216 -1.49584 0
M  V30 5421 C 511.221 1.25755 -1.49816 0
M  V30 5422 C 511.601 2.09859 -0.228572 0
M  V30 5423 O 510.949 2.14449 0.788908 0
M  V30 5424 C 511.159 2.11017 -2.7798 0
M  V30 5425 C 512.507 2.70047 -3.27658 0
M  V30 5426 O 513.531 2.21281 -2.79129 0
M  V30 5427 O 512.39 3.58834 -4.1219 0
M  V30 5428 H 509.484 0.569322 -0.599834 0
M  V30 5429 H 512.03 0.510094 -1.61852 0
M  V30 5430 H 510.802 1.48879 -3.61871 0
M  V30 5431 H 510.425 2.92947 -2.68827 0
M  V30 5432 N 511.423 1.38739 0.74761 0
M  V30 5433 C 512.669 1.35475 1.50912 0
M  V30 5434 C 513.002 -0.0533093 1.94127 0
M  V30 5435 O 512.277 -1.01572 1.65871 0
M  V30 5436 C 512.56 2.31582 2.75757 0
M  V30 5437 C 512.413 3.81274 2.38642 0
M  V30 5438 C 513.732 2.25722 3.77806 0
M  V30 5439 H 510.851 0.493427 0.547447 0
M  V30 5440 H 513.493 1.69634 0.855823 0
M  V30 5441 H 511.643 2.02582 3.31501 0
M  V30 5442 H 513.315 4.20972 1.88626 0
M  V30 5443 H 511.558 3.98664 1.71025 0
M  V30 5444 H 512.229 4.4399 3.27989 0
M  V30 5445 H 514.705 2.51336 3.31616 0
M  V30 5446 H 513.581 2.95069 4.62845 0
M  V30 5447 H 513.842 1.25803 4.23823 0
M  V30 5448 N 512.901 -0.976442 1.23707 0
M  V30 5449 C 513.851 -2.0544 0.988851 0
M  V30 5450 C 514.835 -1.60762 -0.0665901 0
M  V30 5451 O 516.027 -1.76396 0.14604 0
M  V30 5452 C 513.156 -3.38258 0.586223 0
M  V30 5453 C 512.242 -3.89523 1.67728 0
M  V30 5454 N 512.633 -4.13823 2.90834 0
M  V30 5455 C 510.931 -4.18097 1.55277 0
M  V30 5456 C 511.632 -4.55731 3.61502 0
M  V30 5457 N 510.608 -4.60394 2.8903 0
M  V30 5458 H 514.41 -2.22191 1.92376 0
M  V30 5459 H 511.924 -1.15954 1.13704 0
M  V30 5460 H 513.921 -4.15075 0.389658 0
M  V30 5461 H 512.581 -3.22898 -0.341594 0
M  V30 5462 H 513.592 -4.01529 3.271 0
M  V30 5463 H 510.269 -4.11719 0.692351 0
M  V30 5464 H 511.659 -4.83018 4.67059 0
M  V30 5465 N 514.379 -1.04941 -1.1758 0
M  V30 5466 C 515.795 -0.770282 -1.39781 0
M  V30 5467 C 515.995 0.636417 -1.91186 0
M  V30 5468 O 515.051 1.39923 -2.10185 0
M  V30 5469 C 516.364 -1.82376 -2.3908 0
M  V30 5470 C 517.912 -1.84569 -2.52791 0
M  V30 5471 C 518.387 -2.88933 -3.55361 0
M  V30 5472 N 519.878 -2.8788 -3.62877 0
M  V30 5473 C 520.613 -3.65282 -4.41992 0
M  V30 5474 N 520.109 -4.52461 -5.24643 0
M  V30 5475 N 521.902 -3.53732 -4.36841 0
M  V30 5476 H 514.053 -1.95705 -0.825438 0
M  V30 5477 H 516.316 -0.847284 -0.425222 0
M  V30 5478 H 516.022 -2.83323 -2.08376 0
M  V30 5479 H 515.896 -1.66327 -3.38549 0
M  V30 5480 H 518.283 -0.842879 -2.82807 0
M  V30 5481 H 518.364 -2.04696 -1.53406 0
M  V30 5482 H 518.008 -3.89398 -3.26085 0
M  V30 5483 H 517.938 -2.66059 -4.54445 0
M  V30 5484 H 520.429 -2.24666 -3.03864 0
M  V30 5485 H 520.742 -5.08211 -5.82187 0
M  V30 5486 H 519.087 -4.56524 -5.24033 0
M  V30 5487 H 522.278 -2.85021 -3.71323 0
M  V30 5488 H 522.451 -4.14302 -4.98255 0
M  V30 5489 N 515.857 1.33968 -0.830081 0
M  V30 5490 C 516.82 2.27694 -0.26235 0
M  V30 5491 C 517.82 1.50589 0.563876 0
M  V30 5492 O 519.01 1.70028 0.378941 0
M  V30 5493 C 516.142 3.35002 0.63138 0
M  V30 5494 H 517.335 2.79419 -1.08928 0
M  V30 5495 H 514.888 1.44221 -0.602486 0
M  V30 5496 H 515.623 2.88504 1.48109 0
M  V30 5497 H 515.408 3.92079 0.0403276 0
M  V30 5498 H 516.898 4.04897 1.02217 0
M  V30 5499 N 517.335 0.585699 1.46312 0
M  V30 5500 C 518.298 -0.135673 2.28798 0
M  V30 5501 C 519.298 -0.815988 1.38558 0
M  V30 5502 O 520.488 -0.667487 1.60904 0
M  V30 5503 C 517.62 -1.20163 3.1902 0
M  V30 5504 H 518.813 0.589257 2.94054 0
M  V30 5505 H 516.366 0.343794 1.52472 0
M  V30 5506 H 517.101 -1.95804 2.58517 0
M  V30 5507 H 516.886 -0.718282 3.85465 0
M  V30 5508 H 518.376 -1.70749 3.81096 0
M  V30 5509 N 518.813 -1.54241 0.323641 0
M  V30 5510 C 519.723 -2.28033 -0.551205 0
M  V30 5511 C 520.739 -1.32388 -1.12913 0
M  V30 5512 O 521.915 -1.65403 -1.14908 0
M  V30 5513 C 518.98 -3.02382 -1.69606 0
M  V30 5514 C 518.041 -4.13612 -1.14993 0
M  V30 5515 C 517.274 -4.84407 -2.24022 0
M  V30 5516 O 517.497 -4.54716 -3.44368 0
M  V30 5517 O 516.431 -5.71312 -1.89436 0
M  V30 5518 H 520.257 -3.03662 0.048066 0
M  V30 5519 H 517.842 -1.49133 0.0893289 0
M  V30 5520 H 519.724 -3.48941 -2.36259 0
M  V30 5521 H 518.399 -2.29628 -2.28151 0
M  V30 5522 H 517.306 -3.71402 -0.448484 0
M  V30 5523 H 518.639 -4.8841 -0.609608 0
M  V30 5524 N 520.291 -0.0518155 -1.57515 0
M  V30 5525 C 521.707 0.304735 -1.56664 0
M  V30 5526 C 521.907 1.71395 -1.05953 0
M  V30 5527 O 520.963 2.42123 -0.716414 0
M  V30 5528 C 522.276 0.132614 -3.00407 0
M  V30 5529 C 523.824 0.20367 -3.12337 0
M  V30 5530 C 524.299 0.0600706 -4.57961 0
M  V30 5531 N 525.79 0.116326 -4.63054 0
M  V30 5532 C 526.525 0.0293363 -5.73392 0
M  V30 5533 N 526.021 -0.110038 -6.92713 0
M  V30 5534 N 527.814 0.0849651 -5.62036 0
M  V30 5535 H 519.965 -0.973056 -1.888 0
M  V30 5536 H 522.228 -0.377781 -0.869474 0
M  V30 5537 H 521.934 -0.839019 -3.41546 0
M  V30 5538 H 521.808 0.893376 -3.66468 0
M  V30 5539 H 524.195 1.16578 -2.71097 0
M  V30 5540 H 524.276 -0.587857 -2.48954 0
M  V30 5541 H 523.92 -0.898715 -4.99886 0
M  V30 5542 H 523.85 0.87075 -5.19351 0
M  V30 5543 H 526.341 0.22327 -3.7724 0
M  V30 5544 H 526.654 -0.169104 -7.72615 0
M  V30 5545 H 524.999 -0.145132 -6.94848 0
M  V30 5546 H 528.19 0.192411 -4.67704 0
M  V30 5547 H 528.363 0.0137131 -6.47999 0
M  V30 5548 N 521.769 1.56035 0.221574 0
M  V30 5549 C 522.701 1.889 1.29805 0
M  V30 5550 C 523.714 0.777269 1.43047 0
M  V30 5551 O 524.903 1.05557 1.43945 0
M  V30 5552 C 522.003 2.0825 2.67367 0
M  V30 5553 C 521.176 3.39267 2.76073 0
M  V30 5554 C 520.235 3.48049 3.94649 0
M  V30 5555 O 519.261 4.2108 3.82988 0
M  V30 5556 N 520.463 2.79191 5.08953 0
M  V30 5557 H 523.228 2.81831 1.01938 0
M  V30 5558 H 520.789 1.5658 0.411612 0
M  V30 5559 H 522.781 2.11441 3.45072 0
M  V30 5560 H 521.351 1.21944 2.87834 0
M  V30 5561 H 520.571 3.48175 1.84846 0
M  V30 5562 H 521.859 4.25575 2.7886 0
M  V30 5563 H 521.257 2.19635 5.21322 0
M  V30 5564 H 519.814 2.88043 5.84701 0
M  V30 5565 N 523.247 -0.488276 1.49845 0
M  V30 5566 C 524.493 -1.24341 1.6021 0
M  V30 5567 C 524.826 -1.91967 0.293651 0
M  V30 5568 O 524.101 -1.81323 -0.703718 0
M  V30 5569 C 524.384 -2.3005 2.77036 0
M  V30 5570 C 524.237 -1.66842 4.17713 0
M  V30 5571 C 525.556 -3.31509 2.89464 0
M  V30 5572 H 522.675 -0.450704 0.583125 0
M  V30 5573 H 525.317 -0.539673 1.82174 0
M  V30 5574 H 523.467 -2.90071 2.58439 0
M  V30 5575 H 525.139 -1.1055 4.47858 0
M  V30 5576 H 523.382 -0.972079 4.22768 0
M  V30 5577 H 524.053 -2.43576 4.95353 0
M  V30 5578 H 526.529 -2.81493 3.06433 0
M  V30 5579 H 525.405 -4.02822 3.72861 0
M  V30 5580 H 525.666 -3.94603 1.99351 0
M  V30 5581 N 524.725 -1.39134 -0.740242 0
M  V30 5582 C 525.973 -1.35803 -1.49673 0
M  V30 5583 C 526.294 0.0470897 -1.94943 0
M  V30 5584 O 525.564 0.997347 -1.68611 0
M  V30 5585 H 524.144 -0.499736 -0.555224 0
M  V30 5586 H 526.806 -1.73947 -0.879107 0
M  V30 5587 H 525.902 -2.0174 -2.38133 0
M  V30 5588 N 526.204 0.969867 -1.24223 0
M  V30 5589 C 527.451 1.71256 -1.08063 0
M  V30 5590 C 527.779 1.90734 0.380872 0
M  V30 5591 O 527.034 1.46469 1.29789 0
M  V30 5592 C 527.333 3.10883 -1.76314 0
M  V30 5593 C 526.999 3.11252 -3.26241 0
M  V30 5594 C 525.661 3.1106 -3.67144 0
M  V30 5595 C 528.013 3.05751 -4.22097 0
M  V30 5596 C 525.341 3.03097 -5.02344 0
M  V30 5597 C 527.693 2.9933 -5.57301 0
M  V30 5598 C 526.357 2.97466 -5.97554 0
M  V30 5599 H 525.627 0.62667 -0.395431 0
M  V30 5600 H 528.274 1.13422 -1.54297 0
M  V30 5601 H 526.579 3.72168 -1.22468 0
M  V30 5602 H 528.276 3.67138 -1.61277 0
M  V30 5603 H 524.866 3.12165 -2.93685 0
M  V30 5604 H 529.05 3.05031 -3.91497 0
M  V30 5605 H 524.306 3.00013 -5.32731 0
M  V30 5606 H 528.48 2.94033 -6.31283 0
M  V30 5607 H 526.107 2.91051 -7.02277 0
M  V30 5608 N 527.682 1.05563 1.17022 0
M  V30 5609 C 528.93 0.76642 1.87004 0
M  V30 5610 C 529.251 -0.708854 1.8166 0
M  V30 5611 O 528.521 -1.51242 1.2451 0
M  V30 5612 H 527.101 0.280516 0.692329 0
M  V30 5613 H 529.763 1.33557 1.41945 0
M  V30 5614 H 528.859 1.08472 2.92644 0
M  V30 5615 N 529.16 -1.33526 0.837174 0
M  V30 5616 C 530.09 -2.31764 0.284206 0
M  V30 5617 C 531.071 -1.58896 -0.607142 0
M  V30 5618 O 532.256 -1.86798 -0.531047 0
M  V30 5619 C 529.386 -3.43029 -0.542962 0
M  V30 5620 C 528.34 -4.27255 0.252451 0
M  V30 5621 C 527.666 -5.3012 -0.69836 0
M  V30 5622 C 528.966 -5.01229 1.46858 0
M  V30 5623 H 530.66 -2.78262 1.10502 0
M  V30 5624 H 528.206 -1.3378 0.532812 0
M  V30 5625 H 530.159 -4.1078 -0.940096 0
M  V30 5626 H 528.883 -2.95216 -1.39697 0
M  V30 5627 H 527.542 -3.61127 0.631124 0
M  V30 5628 H 527.19 -4.78564 -1.54872 0
M  V30 5629 H 526.89 -5.87353 -0.170274 0
M  V30 5630 H 528.414 -6.00737 -1.09305 0
M  V30 5631 H 529.828 -5.61756 1.14469 0
M  V30 5632 H 528.225 -5.68104 1.93333 0
M  V30 5633 H 529.295 -4.301 2.23924 0
M  V30 5634 N 530.638 -0.59345 -1.46 0
M  V30 5635 C 531.886 -0.082988 -2.0193 0
M  V30 5636 C 532.207 1.28569 -1.46612 0
M  V30 5637 O 531.477 1.84629 -0.654909 0
M  V30 5638 H 530.057 -0.0276882 -0.746487 0
M  V30 5639 H 532.719 -0.771657 -1.78973 0
M  V30 5640 H 531.815 -0.022079 -3.12092 0
M  V30 5641 N 532.116 1.54067 -0.331816 0
M  V30 5642 C 533.365 1.99895 0.269209 0
M  V30 5643 C 533.678 1.22371 1.52593 0
M  V30 5644 O 534.884 1.58618 2.20347 0
M  V30 5645 C 533.34 3.55972 0.530244 0
M  V30 5646 C 532.948 4.4234 -0.709901 0
M  V30 5647 C 534.692 4.10247 1.09077 0
M  V30 5648 C 532.599 5.89905 -0.420312 0
M  V30 5649 H 531.529 0.746741 0.104371 0
M  V30 5650 H 534.18 1.78014 -0.445324 0
M  V30 5651 H 532.562 3.73873 1.30518 0
M  V30 5652 H 533.736 4.36215 -1.48504 0
M  V30 5653 H 532.051 3.98997 -1.19123 0
M  V30 5654 H 534.648 5.18095 1.32219 0
M  V30 5655 H 534.991 3.62739 2.0427 0
M  V30 5656 H 535.524 3.96011 0.376824 0
M  V30 5657 H 532.263 6.41623 -1.34164 0
M  V30 5658 H 531.783 5.98962 0.316962 0
M  V30 5659 H 533.462 6.46991 -0.0331956 0
M  V30 5660 N 533.594 0.0601682 1.57485 0
M  V30 5661 C 534.544 -0.920969 2.08572 0
M  V30 5662 C 535.528 -1.26617 0.992827 0
M  V30 5663 O 536.72 -1.24708 1.25606 0
M  V30 5664 C 533.849 -2.19267 2.64153 0
M  V30 5665 C 532.935 -1.87447 3.80427 0
M  V30 5666 N 533.326 -1.26025 4.89848 0
M  V30 5667 C 531.624 -2.17265 3.89502 0
M  V30 5668 C 532.325 -1.12036 5.70809 0
M  V30 5669 N 531.301 -1.62624 5.18705 0
M  V30 5670 H 535.103 -0.441561 2.90564 0
M  V30 5671 H 532.617 -0.144043 1.6176 0
M  V30 5672 H 534.614 -2.90462 2.99061 0
M  V30 5673 H 533.274 -2.67806 1.83603 0
M  V30 5674 H 534.285 -0.931336 5.09457 0
M  V30 5675 H 530.962 -2.68262 3.19909 0
M  V30 5676 H 532.352 -0.642783 6.68818 0
M  V30 5677 N 535.072 -1.5615 -0.213296 0
M  V30 5678 C 536.302 -1.83372 -0.951757 0
M  V30 5679 C 536.71 -0.638158 -1.78113 0
M  V30 5680 O 536.053 0.402609 -1.79234 0
M  V30 5681 C 536.115 -3.04444 -1.91192 0
M  V30 5682 C 535.779 -4.39107 -1.26627 0
M  V30 5683 C 536.776 -5.15794 -0.652087 0
M  V30 5684 C 534.461 -4.85834 -1.27556 0
M  V30 5685 C 536.455 -6.37376 -0.055814 0
M  V30 5686 C 534.142 -6.07356 -0.675451 0
M  V30 5687 C 535.14 -6.82967 -0.0666367 0
M  V30 5688 O 534.828 -8.0219 0.524119 0
M  V30 5689 H 534.56 -0.613398 -0.284111 0
M  V30 5690 H 537.114 -2.04096 -0.231112 0
M  V30 5691 H 535.344 -2.79559 -2.67178 0
M  V30 5692 H 537.033 -3.18466 -2.51662 0
M  V30 5693 H 537.799 -4.80796 -0.637172 0
M  V30 5694 H 533.678 -4.26949 -1.73883 0
M  V30 5695 H 537.222 -6.96334 0.420004 0
M  V30 5696 H 533.119 -6.41825 -0.687806 0
M  V30 5697 H 533.887 -8.17426 0.419243 0
M  V30 5698 N 536.55 0.480323 -1.50102 0
M  V30 5699 C 537.79 1.24301 -1.62261 0
M  V30 5700 C 538.154 1.89452 -0.311758 0
M  V30 5701 O 539.355 2.67022 -0.308696 0
M  V30 5702 C 537.626 2.26588 -2.76392 0
M  V30 5703 S 539.185 3.11919 -3.08629 0
M  V30 5704 H 536.003 0.42215 -0.57211 0
M  V30 5705 H 538.605 0.541591 -1.87848 0
M  V30 5706 H 537.309 1.7729 -3.70131 0
M  V30 5707 H 536.84 3.01371 -2.52862 0
M  V30 5708 H 538.855 4.27598 -2.51742 0
M  V30 5709 N 538.028 1.39524 0.732853 0
M  V30 5710 C 538.958 1.41153 1.86005 0
M  V30 5711 C 539.939 0.274614 1.67869 0
M  V30 5712 O 541.124 0.480745 1.88155 0
M  V30 5713 C 538.254 1.25638 3.23778 0
M  V30 5714 C 537.208 2.36752 3.56556 0
M  V30 5715 C 536.534 2.06326 4.93289 0
M  V30 5716 C 537.834 3.79069 3.5931 0
M  V30 5717 H 539.528 2.35484 1.84899 0
M  V30 5718 H 537.074 1.13348 0.888162 0
M  V30 5719 H 539.027 1.25398 4.0231 0
M  V30 5720 H 537.751 0.277772 3.25417 0
M  V30 5721 H 536.41 2.36213 2.80355 0
M  V30 5722 H 536.058 1.06897 4.9151 0
M  V30 5723 H 535.758 2.80757 5.16187 0
M  V30 5724 H 537.282 2.07739 5.74175 0
M  V30 5725 H 538.696 3.81526 4.27914 0
M  V30 5726 H 537.093 4.52878 3.93728 0
M  V30 5727 H 538.163 4.09893 2.59068 0
M  V30 5728 N 539.506 -0.963266 1.24736 0
M  V30 5729 C 540.754 -1.70343 1.08755 0
M  V30 5730 C 541.075 -1.91387 -0.373619 0
M  V30 5731 O 540.345 -1.4948 -1.2662 0
M  V30 5732 H 538.925 -0.631224 0.399456 0
M  V30 5733 H 541.587 -1.15859 1.56725 0
M  V30 5734 H 540.683 -2.68616 1.58909 0
M  V30 5735 N 540.985 -1.06182 -1.16461 0
M  V30 5736 C 541.948 -0.675723 -2.19013 0
M  V30 5737 C 542.948 0.277963 -1.58379 0
M  V30 5738 O 544.138 0.0604962 -1.74095 0
M  V30 5739 C 541.27 0.00591459 -3.40899 0
M  V30 5740 H 542.463 -1.58353 -2.54685 0
M  V30 5741 H 540.016 -0.856908 -1.30716 0
M  V30 5742 H 540.751 0.92652 -3.10783 0
M  V30 5743 H 540.536 -0.67984 -3.86161 0
M  V30 5744 H 542.026 0.26181 -4.16778 0
M  V30 5745 N 542.463 1.3308 -0.844243 0
M  V30 5746 C 543.691 2.01808 -0.456203 0
M  V30 5747 C 544.106 1.63498 0.944131 0
M  V30 5748 O 543.463 0.85102 1.61443 0
M  V30 5749 C 543.514 3.56922 -0.573513 0
M  V30 5750 O 543.235 3.93851 -1.91868 0
M  V30 5751 C 544.736 4.42922 -0.183125 0
M  V30 5752 H 541.956 0.646273 -0.180477 0
M  V30 5753 H 544.5 1.69891 -1.1383 0
M  V30 5754 H 542.655 3.87352 0.0607367 0
M  V30 5755 H 543.069 4.88564 -1.90802 0
M  V30 5756 H 544.543 5.51093 -0.316241 0
M  V30 5757 H 545.02 4.30386 0.875477 0
M  V30 5758 H 545.626 4.1786 -0.792027 0
M  V30 5759 N 543.941 0.601185 1.45683 0
M  V30 5760 C 544.871 -0.108824 2.33246 0
M  V30 5761 C 545.852 -0.865223 1.46451 0
M  V30 5762 O 547.037 -0.83704 1.75235 0
M  V30 5763 C 544.167 -1.11101 3.2905 0
M  V30 5764 C 543.121 -0.468244 4.25431 0
M  V30 5765 C 542.447 -1.57822 5.10878 0
M  V30 5766 C 543.747 0.606469 5.18767 0
M  V30 5767 H 545.441 0.622306 2.92861 0
M  V30 5768 H 542.987 0.300714 1.40825 0
M  V30 5769 H 544.94 -1.61622 3.89174 0
M  V30 5770 H 543.664 -1.87265 2.67581 0
M  V30 5771 H 542.323 0.0160484 3.66596 0
M  V30 5772 H 541.971 -2.32998 4.45781 0
M  V30 5773 H 541.671 -1.15369 5.76163 0
M  V30 5774 H 543.195 -2.08583 5.73869 0
M  V30 5775 H 544.609 0.185589 5.73 0
M  V30 5776 H 543.006 0.952381 5.92494 0
M  V30 5777 H 544.076 1.48559 4.61582 0
M  V30 5778 N 545.419 -1.53889 0.339982 0
M  V30 5779 C 546.382 -2.23547 -0.50592 0
M  V30 5780 C 547.382 -1.23445 -1.03044 0
M  V30 5781 O 548.572 -1.47909 -0.920253 0
M  V30 5782 C 545.704 -2.95234 -1.7044 0
M  V30 5783 H 546.897 -2.99722 0.103247 0
M  V30 5784 H 544.45 -1.56033 0.0912804 0
M  V30 5785 H 545.185 -2.23236 -2.35236 0
M  V30 5786 H 544.97 -3.68654 -1.33553 0
M  V30 5787 H 546.46 -3.48258 -2.30447 0
M  V30 5788 N 546.897 -0.0685191 -1.57451 0
M  V30 5789 C 548.313 0.288101 -1.56978 0
M  V30 5790 C 548.513 1.70262 -1.07765 0
M  V30 5791 O 547.569 2.4135 -0.742054 0
M  V30 5792 C 548.882 0.100745 -3.00531 0
M  V30 5793 C 550.43 0.170531 -3.12535 0
M  V30 5794 C 550.905 0.0114944 -4.57999 0
M  V30 5795 N 552.396 0.0672065 -4.63151 0
M  V30 5796 C 553.131 -0.0314813 -5.73391 0
M  V30 5797 N 552.627 -0.183503 -6.92557 0
M  V30 5798 N 554.42 0.0253489 -5.62094 0
M  V30 5799 H 546.571 -0.993026 -1.87757 0
M  V30 5800 H 548.834 -0.386981 -0.865419 0
M  V30 5801 H 548.54 -0.875197 -3.40636 0
M  V30 5802 H 548.414 0.854457 -3.67395 0
M  V30 5803 H 550.801 1.13696 -2.72318 0
M  V30 5804 H 550.882 -0.614229 -2.48316 0
M  V30 5805 H 550.526 -0.951684 -4.98904 0
M  V30 5806 H 550.456 0.815617 -5.20245 0
M  V30 5807 H 552.947 0.183246 -3.77455 0
M  V30 5808 H 553.26 -0.251041 -7.72392 0
M  V30 5809 H 551.605 -0.218822 -6.94655 0
M  V30 5810 H 554.796 0.142794 -4.67882 0
M  V30 5811 H 554.969 -0.0550166 -6.47977 0
M  V30 5812 N 548.375 1.56261 0.205012 0
M  V30 5813 C 549.338 1.92908 1.23771 0
M  V30 5814 C 550.338 0.809208 1.38955 0
M  V30 5815 O 551.528 1.07676 1.36936 0
M  V30 5816 C 548.66 2.19442 2.60879 0
M  V30 5817 H 549.853 2.85287 0.924728 0
M  V30 5818 H 547.406 1.49798 0.446125 0
M  V30 5819 H 548.141 1.29668 2.97248 0
M  V30 5820 H 547.926 3.0104 2.51232 0
M  V30 5821 H 549.416 2.48833 3.35368 0
M  V30 5822 N 549.853 -0.472356 1.50355 0
M  V30 5823 C 550.763 -1.59637 1.7191 0
M  V30 5824 C 551.779 -1.63247 0.602195 0
M  V30 5825 O 552.955 -1.81139 0.880369 0
M  V30 5826 C 550.02 -2.9586 1.80742 0
M  V30 5827 C 549.081 -3.02649 3.04471 0
M  V30 5828 C 548.314 -4.32374 3.12872 0
M  V30 5829 O 548.537 -5.22807 2.28099 0
M  V30 5830 O 547.471 -4.44728 4.05587 0
M  V30 5831 H 551.297 -1.44373 2.67189 0
M  V30 5832 H 548.882 -0.651717 1.34436 0
M  V30 5833 H 550.764 -3.7677 1.88739 0
M  V30 5834 H 549.439 -3.11325 0.88647 0
M  V30 5835 H 548.346 -2.20821 3.01975 0
M  V30 5836 H 549.679 -2.92119 3.9614 0
M  V30 5837 N 551.331 -1.39911 -0.725443 0
M  V30 5838 C 552.294 -1.39156 -1.82121 0
M  V30 5839 C 553.294 -0.287018 -1.58218 0
M  V30 5840 O 554.484 -0.545421 -1.65441 0
M  V30 5841 C 551.616 -1.1736 -3.20062 0
M  V30 5842 H 552.809 -2.36672 -1.84191 0
M  V30 5843 H 550.362 -1.25615 -0.930079 0
M  V30 5844 H 551.097 -0.205648 -3.23647 0
M  V30 5845 H 550.882 -1.97358 -3.3881 0
M  V30 5846 H 552.372 -1.19596 -4.00108 0
M  V30 5847 N 552.809 0.956637 -1.25245 0
M  V30 5848 C 553.719 2.0868 -1.0719 0
M  V30 5849 C 554.735 1.73997 -0.00959074 0
M  V30 5850 O 555.911 2.00301 -0.210104 0
M  V30 5851 C 552.976 3.39754 -0.690526 0
M  V30 5852 C 552.037 3.88316 -1.83055 0
M  V30 5853 C 551.27 5.13134 -1.46728 0
M  V30 5854 O 551.493 5.6925 -0.362029 0
M  V30 5855 O 550.427 5.56356 -2.29677 0
M  V30 5856 H 554.253 2.26813 -2.01965 0
M  V30 5857 H 551.838 1.07098 -1.04165 0
M  V30 5858 H 553.72 4.18543 -0.489871 0
M  V30 5859 H 552.395 3.22896 0.227981 0
M  V30 5860 H 551.302 3.1054 -2.08604 0
M  V30 5861 H 552.635 4.09669 -2.72822 0
M  V30 5862 N 554.287 1.06798 1.15896 0
M  V30 5863 C 555.536 0.782796 1.8589 0
M  V30 5864 C 555.849 -0.693498 1.82893 0
M  V30 5865 O 557.055 -1.09325 2.48516 0
M  V30 5866 C 555.511 1.3502 3.33613 0
M  V30 5867 C 555.119 2.8571 3.45071 0
M  V30 5868 C 556.863 1.14278 4.08829 0
M  V30 5869 C 554.77 3.35669 4.86909 0
M  V30 5870 H 553.7 0.289149 0.696354 0
M  V30 5871 H 556.351 1.28734 1.30766 0
M  V30 5872 H 554.733 0.773407 3.88374 0
M  V30 5873 H 555.907 3.49385 3.00445 0
M  V30 5874 H 554.222 3.05178 2.83294 0
M  V30 5875 H 556.819 1.49087 5.13495 0
M  V30 5876 H 557.162 0.0814575 4.1622 0
M  V30 5877 H 557.695 1.68563 3.60321 0
M  V30 5878 H 554.434 4.41302 4.84698 0
M  V30 5879 H 553.954 2.76745 5.32139 0
M  V30 5880 H 555.633 3.31296 5.55745 0
M  V30 5881 N 555.766 -1.3263 0.851289 0
M  V30 5882 C 557.014 -1.96978 0.452128 0
M  V30 5883 C 557.335 -1.67715 -0.99482 0
M  V30 5884 O 556.605 -0.98259 -1.69476 0
M  V30 5885 H 555.185 -0.72873 0.164202 0
M  V30 5886 H 557.847 -1.61774 1.08698 0
M  V30 5887 H 556.943 -3.06387 0.594407 0
M  V30 5888 N 557.244 -0.608902 -1.45362 0
M  V30 5889 C 558.174 0.0964526 -2.33301 0
M  V30 5890 C 559.155 0.857444 -1.46908 0
M  V30 5891 O 560.34 0.827735 -1.75676 0
M  V30 5892 C 557.47 1.09354 -3.29635 0
M  V30 5893 C 556.424 0.445676 -4.25673 0
M  V30 5894 C 555.75 1.5511 -5.11708 0
M  V30 5895 C 557.05 -0.633972 -5.18438 0
M  V30 5896 H 558.744 -0.637829 -2.92527 0
M  V30 5897 H 556.29 -0.308178 -1.40664 0
M  V30 5898 H 558.243 1.59556 -3.90025 0
M  V30 5899 H 556.967 1.85843 -2.6857 0
M  V30 5900 H 555.626 -0.0354897 -3.66583 0
M  V30 5901 H 555.274 2.30631 -4.4701 0
M  V30 5902 H 554.974 1.12311 -5.76767 0
M  V30 5903 H 556.498 2.05537 -5.74967 0
M  V30 5904 H 557.912 -0.215974 -5.72893 0
M  V30 5905 H 556.309 -0.983789 -5.91981 0
M  V30 5906 H 557.379 -1.51005 -4.60788 0
M  V30 5907 N 558.722 1.53707 -0.348139 0
M  V30 5908 C 560.138 1.596 0.00361134 0
M  V30 5909 C 560.338 1.36394 1.4832 0
M  V30 5910 O 559.394 1.16046 2.24253 0
M  V30 5911 C 560.707 2.97512 -0.436682 0
M  V30 5912 C 562.255 3.10568 -0.389416 0
M  V30 5913 C 562.73 4.50866 -0.805249 0
M  V30 5914 N 564.221 4.56929 -0.759616 0
M  V30 5915 C 564.956 5.63643 -1.05327 0
M  V30 5916 N 564.452 6.78189 -1.41531 0
M  V30 5917 N 566.245 5.5354 -0.977207 0
M  V30 5918 H 558.396 1.67044 -1.31187 0
M  V30 5919 H 560.659 0.782559 -0.535075 0
M  V30 5920 H 560.365 3.19575 -1.46849 0
M  V30 5921 H 560.239 3.76742 0.185744 0
M  V30 5922 H 562.626 2.88226 0.633228 0
M  V30 5923 H 562.707 2.33387 -1.04711 0
M  V30 5924 H 562.351 4.73943 -1.82593 0
M  V30 5925 H 562.281 5.26452 -0.124989 0
M  V30 5926 H 564.772 3.74675 -0.49265 0
M  V30 5927 H 565.085 7.55541 -1.62411 0
M  V30 5928 H 563.43 6.79624 -1.45381 0
M  V30 5929 H 566.621 4.62932 -0.693675 0
M  V30 5930 H 566.794 6.36614 -1.2094 0
M  V30 5931 N 560.2 0.0768682 1.57412 0
M  V30 5932 C 561.163 -0.873949 2.11884 0
M  V30 5933 C 562.163 -1.22301 1.04398 0
M  V30 5934 O 563.353 -1.15545 1.30365 0
M  V30 5935 C 560.485 -2.17575 2.62438 0
M  V30 5936 H 561.678 -0.401278 2.97203 0
M  V30 5937 H 559.231 -0.171904 1.55352 0
M  V30 5938 H 559.966 -2.69368 1.80587 0
M  V30 5939 H 559.751 -1.93534 3.41009 0
M  V30 5940 H 561.241 -2.85631 3.04639 0
M  V30 5941 N 561.678 -1.56367 -0.196722 0
M  V30 5942 C 562.608 -1.97442 -1.24655 0
M  V30 5943 C 563.589 -0.846147 -1.47561 0
M  V30 5944 O 564.774 -1.11035 -1.59326 0
M  V30 5945 C 561.904 -2.31253 -2.59112 0
M  V30 5946 C 560.858 -3.46804 -2.50821 0
M  V30 5947 C 560.184 -3.66286 -3.89536 0
M  V30 5948 C 561.484 -4.8104 -2.03465 0
M  V30 5949 H 563.178 -2.85388 -0.905216 0
M  V30 5950 H 560.724 -1.37304 -0.434002 0
M  V30 5951 H 562.677 -2.58583 -3.32736 0
M  V30 5952 H 561.401 -1.40188 -2.94983 0
M  V30 5953 H 560.06 -3.19563 -1.79653 0
M  V30 5954 H 559.708 -2.72555 -4.22756 0
M  V30 5955 H 559.408 -4.4402 -3.84864 0
M  V30 5956 H 560.932 -3.9599 -4.64784 0
M  V30 5957 H 562.346 -5.07411 -2.66846 0
M  V30 5958 H 560.743 -5.62232 -2.09798 0
M  V30 5959 H 561.813 -4.74732 -0.98781 0
M  V30 5960 N 563.156 0.464375 -1.50603 0
M  V30 5961 C 564.086 1.56944 -1.72889 0
M  V30 5962 C 565.067 1.59979 -0.577997 0
M  V30 5963 O 566.252 1.76138 -0.817855 0
M  V30 5964 C 563.382 2.95225 -1.8292 0
M  V30 5965 C 562.336 3.07056 -2.98162 0
M  V30 5966 C 561.662 4.47051 -2.93343 0
M  V30 5967 C 562.962 2.83648 -4.38567 0
M  V30 5968 H 564.656 1.38547 -2.65415 0
M  V30 5969 H 562.202 0.665082 -1.27721 0
M  V30 5970 H 564.155 3.72467 -1.97095 0
M  V30 5971 H 562.879 3.14793 -0.870209 0
M  V30 5972 H 561.538 2.32248 -2.83648 0
M  V30 5973 H 561.186 4.63547 -1.95276 0
M  V30 5974 H 560.886 4.55902 -3.70712 0
M  V30 5975 H 562.41 5.26304 -3.09575 0
M  V30 5976 H 563.824 3.50636 -4.53572 0
M  V30 5977 H 562.221 3.03937 -5.17438 0
M  V30 5978 H 563.291 1.79451 -4.50472 0
M  V30 5979 N 564.634 1.40294 0.718013 0
M  V30 5980 C 565.911 1.2894 1.47084 0
M  V30 5981 C 566.291 -0.0933625 2.10893 0
M  V30 5982 O 565.639 -1.10598 1.99951 0
M  V30 5983 C 565.849 2.4264 2.50852 0
M  V30 5984 C 567.197 2.8276 3.16752 0
M  V30 5985 O 568.221 2.42215 2.61171 0
M  V30 5986 O 567.08 3.528 4.17366 0
M  V30 5987 H 564.174 0.506236 0.653952 0
M  V30 5988 H 566.72 1.52208 0.750394 0
M  V30 5989 H 565.492 3.35009 2.022 0
M  V30 5990 H 565.115 2.21129 3.30435 0
M  V30 5991 N 566.112 -0.949982 1.2575 0
M  V30 5992 C 567.36 -1.6918 1.10555 0
M  V30 5993 C 567.681 -1.91773 -0.353298 0
M  V30 5994 O 566.951 -1.50814 -1.25027 0
M  V30 5995 H 565.531 -0.626952 0.406129 0
M  V30 5996 H 568.193 -1.1419 1.57945 0
M  V30 5997 H 567.289 -2.66915 1.61749 0
M  V30 5998 N 567.59 -1.07411 -1.15328 0
M  V30 5999 C 568.839 -0.792643 -1.85473 0
M  V30 6000 C 569.152 0.683789 -1.83259 0
M  V30 6001 O 570.358 1.08005 -2.49093 0
M  V30 6002 C 568.814 -1.36787 -3.32892 0
M  V30 6003 C 568.422 -2.87536 -3.43551 0
M  V30 6004 C 570.166 -1.16444 -4.08217 0
M  V30 6005 C 568.073 -3.38247 -4.85122 0
M  V30 6006 H 567.003 -0.292838 -0.694811 0
M  V30 6007 H 569.654 -1.29426 -1.30082 0
M  V30 6008 H 568.036 -0.793993 -3.87958 0
M  V30 6009 H 569.21 -3.50973 -2.98588 0
M  V30 6010 H 567.525 -3.06676 -2.81672 0
M  V30 6011 H 570.122 -1.51808 -5.12697 0
M  V30 6012 H 570.465 -0.10353 -4.16171 0
M  V30 6013 H 570.998 -1.70472 -3.59422 0
M  V30 6014 H 567.737 -4.43866 -4.82351 0
M  V30 6015 H 567.257 -2.79564 -5.30664 0
M  V30 6016 H 568.936 -3.34238 -5.5398 0
M  V30 6017 N 569.068 1.32177 -0.85831 0
M  V30 6018 C 570.479 1.79381 -0.517621 0
M  V30 6019 C 570.83 1.70841 0.964769 0
M  V30 6020 O 569.955 1.26917 1.75274 0
M  V30 6021 C 570.55 3.25706 -0.932801 0
M  V30 6022 C 569.109 3.70851 -0.643953 0
M  V30 6023 C 568.256 2.53208 -1.13054 0
M  V30 6024 H 571.207 1.19424 -1.04516 0
M  V30 6025 H 571.228 3.79673 -0.250674 0
M  V30 6026 H 570.74 3.31889 -2.01174 0
M  V30 6027 H 568.841 3.70178 0.424112 0
M  V30 6028 H 568.954 4.63495 -1.21281 0
M  V30 6029 H 567.318 2.48676 -0.550679 0
M  V30 6030 H 568.101 2.62143 -2.21666 0
M  V30 6031 N 570.547 0.616602 1.45037 0
M  V30 6032 C 571.51 -0.0871112 2.29034 0
M  V30 6033 C 572.51 -0.786414 1.40258 0
M  V30 6034 O 573.7 -0.633207 1.62284 0
M  V30 6035 C 570.832 -1.13369 3.21497 0
M  V30 6036 H 572.025 0.651497 2.92738 0
M  V30 6037 H 569.578 0.376058 1.51709 0
M  V30 6038 H 570.313 -1.90277 2.62612 0
M  V30 6039 H 570.098 -0.636358 3.86902 0
M  V30 6040 H 571.588 -1.62627 3.84633 0
M  V30 6041 N 572.025 -1.5352 0.356285 0
M  V30 6042 C 572.955 -2.28372 -0.486661 0
M  V30 6043 C 573.936 -1.30432 -1.09185 0
M  V30 6044 O 575.121 -1.59291 -1.11085 0
M  V30 6045 C 572.251 -3.06604 -1.63129 0
M  V30 6046 C 571.205 -4.12154 -1.15381 0
M  V30 6047 C 570.531 -4.78415 -2.38796 0
M  V30 6048 C 571.831 -5.21724 -0.245179 0
M  V30 6049 H 573.525 -2.99083 0.137797 0
M  V30 6050 H 571.071 -1.43841 0.0677134 0
M  V30 6051 H 573.024 -3.57712 -2.22755 0
M  V30 6052 H 571.748 -2.33568 -2.28284 0
M  V30 6053 H 570.407 -3.61978 -0.580294 0
M  V30 6054 H 570.055 -4.01959 -3.02387 0
M  V30 6055 H 569.755 -5.49734 -2.07524 0
M  V30 6056 H 571.279 -5.32313 -2.99125 0
M  V30 6057 H 572.693 -5.68391 -0.748646 0
M  V30 6058 H 571.09 -6.00095 -0.0237608 0
M  V30 6059 H 572.16 -4.79596 0.715229 0
M  V30 6060 N 573.503 -0.0852151 -1.57369 0
M  V30 6061 C 574.751 0.579658 -1.93609 0
M  V30 6062 C 575.072 1.69332 -0.967043 0
M  V30 6063 O 574.342 1.95892 -0.0174215 0
M  V30 6064 H 572.922 0.217113 -0.714752 0
M  V30 6065 H 575.584 -0.146226 -1.94351 0
M  V30 6066 H 574.68 0.996276 -2.95771 0
M  V30 6067 N 574.981 1.5647 0.188427 0
M  V30 6068 C 576.397 1.50204 0.539532 0
M  V30 6069 C 576.597 0.78644 1.85519 0
M  V30 6070 O 575.653 0.339714 2.50204 0
M  V30 6071 C 576.966 2.94893 0.588103 0
M  V30 6072 C 578.514 3.05602 0.67648 0
M  V30 6073 C 578.989 4.51716 0.756101 0
M  V30 6074 N 580.48 4.55894 0.819451 0
M  V30 6075 C 581.215 5.66272 0.90134 0
M  V30 6076 N 580.711 6.86323 0.945118 0
M  V30 6077 N 582.504 5.54201 0.939043 0
M  V30 6078 H 574.655 2.01406 -0.674493 0
M  V30 6079 H 576.918 0.916828 -0.241103 0
M  V30 6080 H 576.624 3.50334 -0.309633 0
M  V30 6081 H 576.498 3.4861 1.44051 0
M  V30 6082 H 578.885 2.50206 1.56465 0
M  V30 6083 H 578.966 2.54999 -0.202262 0
M  V30 6084 H 578.61 5.07739 -0.12774 0
M  V30 6085 H 578.54 5.00058 1.65074 0
M  V30 6086 H 581.031 3.69452 0.794594 0
M  V30 6087 H 581.344 7.66194 1.0083 0
M  V30 6088 H 579.689 6.88968 0.913683 0
M  V30 6089 H 582.88 4.59333 0.901725 0
M  V30 6090 H 583.053 6.40247 0.999402 0
M  V30 6091 N 576.459 -0.456382 1.50847 0
M  V30 6092 C 577.707 -1.20497 1.62249 0
M  V30 6093 C 578.028 -1.92156 0.331839 0
M  V30 6094 O 577.298 -1.84751 -0.651443 0
M  V30 6095 H 575.878 -0.447775 0.597918 0
M  V30 6096 H 578.54 -0.525099 1.87693 0
M  V30 6097 H 577.636 -1.94492 2.44089 0
M  V30 6098 N 577.937 -1.40673 -0.710563 0
M  V30 6099 C 578.9 -1.4108 -1.80635 0
M  V30 6100 C 579.9 -0.303783 -1.57904 0
M  V30 6101 O 581.09 -0.562937 -1.64853 0
M  V30 6102 C 578.222 -1.20748 -3.18799 0
M  V30 6103 H 579.415 -2.38612 -1.81671 0
M  V30 6104 H 576.968 -1.26595 -0.916704 0
M  V30 6105 H 577.703 -0.239964 -3.23411 0
M  V30 6106 H 577.488 -2.00941 -3.36698 0
M  V30 6107 H 578.978 -1.23833 -3.98817 0
M  V30 6108 N 579.415 0.9433 -1.26252 0
M  V30 6109 C 580.365 2.02746 -1.04297 0
M  V30 6110 C 581.349 1.60882 0.0239435 0
M  V30 6111 O 582.541 1.75947 -0.192757 0
M  V30 6112 C 579.67 3.36585 -0.6757 0
M  V30 6113 C 578.756 3.84939 -1.77996 0
M  V30 6114 N 579.147 4.05966 -3.01704 0
M  V30 6115 C 577.445 4.13833 -1.66308 0
M  V30 6116 C 578.146 4.45987 -3.73458 0
M  V30 6117 N 577.122 4.52569 -3.01135 0
M  V30 6118 H 580.924 2.17012 -1.98199 0
M  V30 6119 H 578.438 1.12898 -1.16738 0
M  V30 6120 H 580.435 4.13896 -0.499571 0
M  V30 6121 H 579.095 3.2369 0.255863 0
M  V30 6122 H 580.106 3.92716 -3.37631 0
M  V30 6123 H 576.783 4.09739 -0.801267 0
M  V30 6124 H 578.173 4.70465 -4.79701 0
M  V30 6125 N 580.893 1.08022 1.14757 0
M  V30 6126 C 581.803 0.718292 2.23333 0
M  V30 6127 C 582.819 -0.273477 1.71837 0
M  V30 6128 O 583.995 -0.118406 2.01052 0
M  V30 6129 C 581.06 0.128855 3.4646 0
M  V30 6130 C 580.121 1.17473 4.12915 0
M  V30 6131 C 579.354 0.61333 5.30164 0
M  V30 6132 O 579.577 -0.568458 5.6756 0
M  V30 6133 O 578.511 1.3615 5.86299 0
M  V30 6134 H 582.337 1.62394 2.56636 0
M  V30 6135 H 579.922 0.853628 1.22611 0
M  V30 6136 H 581.804 -0.197249 4.20938 0
M  V30 6137 H 580.479 -0.750014 3.14891 0
M  V30 6138 H 579.386 1.5533 3.40328 0
M  V30 6139 H 580.719 2.02574 4.48581 0
M  V30 6140 N 582.371 -1.3172 0.865308 0
M  V30 6141 C 583.617 -1.97168 0.474633 0
M  V30 6142 C 583.95 -1.68263 -0.969604 0
M  V30 6143 O 583.225 -0.976588 -1.68205 0
M  V30 6144 C 583.508 -3.52689 0.726808 0
M  V30 6145 C 583.361 -3.91185 2.22024 0
M  V30 6146 C 584.68 -4.39689 0.190201 0
M  V30 6147 H 581.799 -0.716185 0.17392 0
M  V30 6148 H 584.441 -1.55925 1.08569 0
M  V30 6149 H 582.591 -3.8795 0.206705 0
M  V30 6150 H 584.263 -3.66049 2.80724 0
M  V30 6151 H 582.506 -3.3996 2.69462 0
M  V30 6152 H 583.177 -4.99604 2.34735 0
M  V30 6153 H 585.653 -4.11225 0.635103 0
M  V30 6154 H 584.529 -5.47469 0.396132 0
M  V30 6155 H 584.79 -4.32683 -0.907625 0
M  V30 6156 N 583.85 -0.624285 -1.44708 0
M  V30 6157 C 584.76 0.0861083 -2.34442 0
M  V30 6158 C 585.776 0.84291 -1.5222 0
M  V30 6159 O 586.952 0.796723 -1.84971 0
M  V30 6160 C 584.017 1.05999 -3.30099 0
M  V30 6161 C 583.077 0.303316 -4.28227 0
M  V30 6162 C 582.311 1.23081 -5.19314 0
M  V30 6163 O 582.534 2.46929 -5.14181 0
M  V30 6164 O 581.468 0.71883 -5.97592 0
M  V30 6165 H 585.293 -0.651756 -2.96624 0
M  V30 6166 H 582.879 -0.384493 -1.44368 0
M  V30 6167 H 584.76 1.62046 -3.88997 0
M  V30 6168 H 583.436 1.77859 -2.70459 0
M  V30 6169 H 582.343 -0.300033 -3.72895 0
M  V30 6170 H 583.676 -0.375123 -4.90768 0
M  V30 6171 N 585.328 1.53329 -0.364422 0
M  V30 6172 C 586.558 2.05359 0.226096 0
M  V30 6173 C 586.966 1.23777 1.43094 0
M  V30 6174 O 586.309 0.271139 1.81688 0
M  V30 6175 C 586.371 3.52918 0.684794 0
M  V30 6176 C 586.035 4.55218 -0.403206 0
M  V30 6177 C 587.032 5.04583 -1.2527 0
M  V30 6178 C 584.717 4.99134 -0.563117 0
M  V30 6179 C 586.711 5.96463 -2.24745 0
M  V30 6180 C 584.398 5.9082 -1.56124 0
M  V30 6181 C 585.396 6.39375 -2.40184 0
M  V30 6182 O 585.084 7.29255 -3.38293 0
M  V30 6183 H 584.816 0.674588 0.0436772 0
M  V30 6184 H 587.37 1.98688 -0.520782 0
M  V30 6185 H 585.6 3.57122 1.48326 0
M  V30 6186 H 587.289 3.87812 1.19818 0
M  V30 6187 H 588.055 4.71403 -1.14034 0
M  V30 6188 H 583.934 4.60928 0.0813909 0
M  V30 6189 H 587.478 6.34285 -2.90393 0
M  V30 6190 H 583.375 6.23414 -1.67407 0
M  V30 6191 H 584.143 7.47249 -3.34009 0
M  V30 6192 N 586.806 0.0935595 1.57322 0
M  V30 6193 C 587.769 -0.851426 2.12799 0
M  V30 6194 C 588.769 -1.21187 1.0569 0
M  V30 6195 O 589.959 -1.14156 1.31583 0
M  V30 6196 C 587.091 -2.14779 2.64731 0
M  V30 6197 H 588.284 -0.369733 2.97612 0
M  V30 6198 H 585.837 -0.155417 1.55525 0
M  V30 6199 H 586.572 -2.67437 1.83434 0
M  V30 6200 H 586.357 -1.89907 3.43042 0
M  V30 6201 H 587.847 -2.82383 3.07651 0
M  V30 6202 N 588.284 -1.56567 -0.180126 0
M  V30 6203 C 589.561 -1.7235 -0.924931 0
M  V30 6204 C 589.941 -0.652523 -2.00762 0
M  V30 6205 O 589.289 0.334115 -2.26044 0
M  V30 6206 C 589.499 -3.1523 -1.49771 0
M  V30 6207 C 590.847 -3.75921 -1.97405 0
M  V30 6208 O 591.871 -3.18452 -1.59583 0
M  V30 6209 O 590.73 -4.7681 -2.67048 0
M  V30 6210 H 587.824 -0.703502 -0.434758 0
M  V30 6211 H 590.37 -1.6886 -0.168647 0
M  V30 6212 H 589.142 -3.84656 -0.718027 0
M  V30 6213 H 588.765 -3.23009 -2.31842 0
M  V30 6214 N 589.762 0.448376 -1.51087 0
M  V30 6215 C 591.039 1.20926 -1.53741 0
M  V30 6216 C 591.419 2.09025 -0.295222 0
M  V30 6217 O 590.767 2.16851 0.720283 0
M  V30 6218 C 590.977 2.02067 -2.84552 0
M  V30 6219 C 592.325 2.59486 -3.36084 0
M  V30 6220 O 593.349 2.12289 -2.86028 0
M  V30 6221 O 592.208 3.45539 -4.23397 0
M  V30 6222 H 589.302 0.549951 -0.617643 0
M  V30 6223 H 591.848 0.458344 -1.63393 0
M  V30 6224 H 590.62 1.37291 -3.66425 0
M  V30 6225 H 590.243 2.84246 -2.78011 0
M  V30 6226 N 591.24 1.41047 0.703093 0
M  V30 6227 C 592.173 1.36713 1.82715 0
M  V30 6228 C 593.151 0.235533 1.60885 0
M  V30 6229 O 594.335 0.421227 1.83733 0
M  V30 6230 C 591.462 1.13069 3.1927 0
M  V30 6231 C 590.508 2.28846 3.59905 0
M  V30 6232 S 591.341 3.91297 3.65578 0
M  V30 6233 C 592.497 3.69941 5.04871 0
M  V30 6234 H 592.73 2.31838 1.86114 0
M  V30 6235 H 590.263 1.27481 0.871083 0
M  V30 6236 H 592.221 1.00113 3.98105 0
M  V30 6237 H 590.882 0.195763 3.13489 0
M  V30 6238 H 590.075 2.07977 4.59088 0
M  V30 6239 H 589.677 2.3817 2.88359 0
M  V30 6240 H 591.969 3.29181 5.92154 0
M  V30 6241 H 592.912 4.68699 5.30779 0
M  V30 6242 H 593.32 3.03369 4.76054 0
M  V30 6243 N 592.718 -0.936591 1.26751 0
M  V30 6244 C 593.964 -1.6858 1.12733 0
M  V30 6245 C 594.297 -1.91414 -0.327745 0
M  V30 6246 O 593.572 -1.49812 -1.24043 0
M  V30 6247 C 593.855 -3.05779 1.90187 0
M  V30 6248 C 593.708 -2.90242 3.43627 0
M  V30 6249 C 595.027 -4.0597 1.69931 0
M  V30 6250 H 592.146 -0.61182 0.410908 0
M  V30 6251 H 594.788 -1.08747 1.55801 0
M  V30 6252 H 592.938 -3.56853 1.53584 0
M  V30 6253 H 594.61 -2.46354 3.9001 0
M  V30 6254 H 592.853 -2.2577 3.70419 0
M  V30 6255 H 593.524 -3.87572 3.93055 0
M  V30 6256 H 596 -3.63874 2.0183 0
M  V30 6257 H 594.876 -4.99974 2.26534 0
M  V30 6258 H 595.137 -4.37369 0.64502 0
M  V30 6259 N 594.196 -1.08629 -1.14182 0
M  V30 6260 C 595.443 -0.817345 -1.85272 0
M  V30 6261 C 595.771 0.656917 -1.83071 0
M  V30 6262 O 595.026 1.49897 -1.25815 0
M  V30 6263 C 595.325 -1.28734 -3.3341 0
M  V30 6264 C 594.991 -2.76981 -3.55798 0
M  V30 6265 C 593.653 -3.17469 -3.61617 0
M  V30 6266 C 596.005 -3.72605 -3.64438 0
M  V30 6267 C 593.333 -4.52371 -3.736 0
M  V30 6268 C 595.685 -5.07286 -3.77947 0
M  V30 6269 C 594.349 -5.47376 -3.82016 0
M  V30 6270 H 593.619 -0.299088 -0.677958 0
M  V30 6271 H 596.266 -1.35962 -1.34857 0
M  V30 6272 H 594.571 -0.664702 -3.8612 0
M  V30 6273 H 596.268 -1.05598 -3.86846 0
M  V30 6274 H 592.858 -2.44644 -3.51919 0
M  V30 6275 H 597.042 -3.42443 -3.5923 0
M  V30 6276 H 592.298 -4.82882 -3.75013 0
M  V30 6277 H 596.472 -5.81243 -3.83575 0
M  V30 6278 H 594.099 -6.51906 -3.91054 0
M  V30 6279 N 595.674 1.31259 -0.872281 0
M  V30 6280 C 596.624 2.26 -0.301295 0
M  V30 6281 C 597.608 1.50729 0.562991 0
M  V30 6282 O 598.8 1.72198 0.40949 0
M  V30 6283 C 595.929 3.39724 0.494227 0
M  V30 6284 C 595.015 4.22363 -0.383432 0
M  V30 6285 N 595.406 4.83724 -1.47799 0
M  V30 6286 C 593.704 4.45652 -0.176278 0
M  V30 6287 C 594.405 5.45523 -2.01939 0
M  V30 6288 N 593.381 5.27428 -1.31608 0
M  V30 6289 H 597.183 2.70981 -1.13782 0
M  V30 6290 H 594.697 1.45552 -0.720294 0
M  V30 6291 H 596.694 4.06626 0.919828 0
M  V30 6292 H 595.354 2.96286 1.32834 0
M  V30 6293 H 596.365 4.83313 -1.8609 0
M  V30 6294 H 593.042 4.12845 0.621698 0
M  V30 6295 H 594.432 6.04268 -2.93786 0
M  V30 6296 N 597.152 0.631951 1.44375 0
M  V30 6297 C 598.4 0.136497 2.01639 0
M  V30 6298 C 598.721 -1.24637 1.49969 0
M  V30 6299 O 597.991 -1.82827 0.70363 0
M  V30 6300 H 596.571 0.0474703 0.74549 0
M  V30 6301 H 599.233 0.818837 1.76865 0
M  V30 6302 H 598.329 0.104817 3.11924 0
M  V30 6303 N 598.631 -1.53133 0.372548 0
M  V30 6304 C 600.042 -1.86404 -0.105155 0
M  V30 6305 C 600.393 -1.29289 -1.47576 0
M  V30 6306 O 599.518 -0.617646 -2.07398 0
M  V30 6307 C 600.113 -3.38223 -0.197588 0
M  V30 6308 C 598.672 -3.71266 -0.619556 0
M  V30 6309 C 597.819 -2.76353 0.228919 0
M  V30 6310 H 600.77 -1.47282 0.591077 0
M  V30 6311 H 600.791 -3.66577 -1.01987 0
M  V30 6312 H 600.303 -3.79763 0.800099 0
M  V30 6313 H 598.404 -3.35287 -1.62522 0
M  V30 6314 H 598.517 -4.77515 -0.389332 0
M  V30 6315 H 596.881 -2.52888 -0.303271 0
M  V30 6316 H 597.664 -3.20728 1.22428 0
M  V30 6317 N 600.109 -0.101901 -1.5727 0
M  V30 6318 C 601.337 0.568392 -1.98939 0
M  V30 6319 C 601.752 1.61301 -0.981194 0
M  V30 6320 O 601.109 1.82478 0.0282869 0
M  V30 6321 C 601.16 1.20997 -3.40649 0
M  V30 6322 O 600.881 0.207129 -4.3761 0
M  V30 6323 C 602.382 1.96523 -3.97358 0
M  V30 6324 H 599.602 0.15186 -0.65359 0
M  V30 6325 H 602.146 -0.183198 -2.03678 0
M  V30 6326 H 600.301 1.91245 -3.36904 0
M  V30 6327 H 600.715 0.671071 -5.20189 0
M  V30 6328 H 602.189 2.36764 -4.98645 0
M  V30 6329 H 602.666 2.83376 -3.35552 0
M  V30 6330 H 603.272 1.31076 -4.04598 0
M  V30 6331 N 601.587 1.56661 0.17182 0
M  V30 6332 C 603.003 1.50768 0.52357 0
M  V30 6333 C 603.203 0.806072 1.84675 0
M  V30 6334 O 602.259 0.366233 2.4983 0
M  V30 6335 C 603.572 2.955 0.556793 0
M  V30 6336 C 605.12 3.06303 0.644029 0
M  V30 6337 C 605.595 4.52492 0.708148 0
M  V30 6338 N 607.086 4.56737 0.771051 0
M  V30 6339 C 607.821 5.67196 0.841229 0
M  V30 6340 N 607.317 6.87287 0.872272 0
M  V30 6341 N 609.11 5.55165 0.88021 0
M  V30 6342 H 601.261 2.00679 -0.695817 0
M  V30 6343 H 603.524 0.914219 -0.250814 0
M  V30 6344 H 603.23 3.49986 -0.346774 0
M  V30 6345 H 603.104 3.50119 1.40346 0
M  V30 6346 H 605.491 2.51851 1.53802 0
M  V30 6347 H 605.572 2.5477 -0.229297 0
M  V30 6348 H 605.216 5.07575 -0.181585 0
M  V30 6349 H 605.146 5.01781 1.59761 0
M  V30 6350 H 607.637 3.70274 0.755364 0
M  V30 6351 H 607.95 7.6722 0.92698 0
M  V30 6352 H 606.295 6.89898 0.840557 0
M  V30 6353 H 609.486 4.60263 0.852956 0
M  V30 6354 H 609.659 6.41271 0.931439 0
M  V30 6355 N 603.065 -0.440357 1.51323 0
M  V30 6356 C 603.995 -1.54174 1.75364 0
M  V30 6357 C 604.976 -1.59039 0.603375 0
M  V30 6358 O 606.161 -1.74815 0.845774 0
M  V30 6359 C 603.291 -2.92277 1.87593 0
M  V30 6360 C 602.245 -3.02274 3.03009 0
M  V30 6361 C 601.571 -4.42327 3.00418 0
M  V30 6362 C 602.871 -2.76634 4.43024 0
M  V30 6363 H 604.565 -1.34307 2.67585 0
M  V30 6364 H 602.111 -0.644678 1.28763 0
M  V30 6365 H 604.064 -3.69284 2.02995 0
M  V30 6366 H 602.788 -3.13369 0.920179 0
M  V30 6367 H 601.447 -2.27706 2.87307 0
M  V30 6368 H 601.095 -4.60382 2.02626 0
M  V30 6369 H 600.795 -4.49946 3.77918 0
M  V30 6370 H 602.319 -5.21312 3.17909 0
M  V30 6371 H 603.733 -3.43376 4.59093 0
M  V30 6372 H 602.13 -2.95666 5.22208 0
M  V30 6373 H 603.2 -1.72262 4.5327 0
M  V30 6374 N 604.543 -1.41418 -0.695603 0
M  V30 6375 C 605.473 -1.46035 -1.82197 0
M  V30 6376 C 606.454 -0.319025 -1.67082 0
M  V30 6377 O 607.639 -0.530462 -1.86815 0
M  V30 6378 C 604.769 -1.34179 -3.20333 0
M  V30 6379 C 603.723 -2.46123 -3.50154 0
M  V30 6380 C 603.049 -2.19332 -4.87645 0
M  V30 6381 C 604.349 -3.88463 -3.49133 0
M  V30 6382 H 606.043 -2.40303 -1.78591 0
M  V30 6383 H 603.589 -1.15663 -0.857797 0
M  V30 6384 H 605.542 -1.36021 -3.98844 0
M  V30 6385 H 604.266 -0.363952 -3.24566 0
M  V30 6386 H 602.925 -2.43563 -2.73994 0
M  V30 6387 H 602.573 -1.19891 -4.88503 0
M  V30 6388 H 602.273 -2.94344 -5.08562 0
M  V30 6389 H 603.797 -2.22889 -5.68465 0
M  V30 6390 H 605.211 -3.92738 -4.17648 0
M  V30 6391 H 603.608 -4.63158 -3.81582 0
M  V30 6392 H 604.678 -4.16617 -2.48109 0
M  V30 6393 N 606.021 0.929856 -1.27246 0
M  V30 6394 C 606.951 2.04722 -1.12299 0
M  V30 6395 C 607.932 1.70082 -0.0250464 0
M  V30 6396 O 609.117 1.93176 -0.199141 0
M  V30 6397 C 606.247 3.38721 -0.767145 0
M  V30 6398 C 605.201 3.87466 -1.81808 0
M  V30 6399 C 604.527 5.18246 -1.31626 0
M  V30 6400 C 605.827 4.11095 -3.22177 0
M  V30 6401 H 607.521 2.17485 -2.05769 0
M  V30 6402 H 605.067 1.04503 -0.990715 0
M  V30 6403 H 607.02 4.16366 -0.649413 0
M  V30 6404 H 605.744 3.25967 0.203259 0
M  V30 6405 H 604.403 3.12012 -1.92468 0
M  V30 6406 H 604.051 5.01881 -0.335378 0
M  V30 6407 H 603.751 5.51829 -2.01887 0
M  V30 6408 H 605.275 5.98462 -1.21143 0
M  V30 6409 H 606.689 4.79316 -3.1453 0
M  V30 6410 H 605.086 4.55982 -3.90129 0
M  V30 6411 H 606.156 3.16468 -3.67391 0
M  V30 6412 N 607.499 1.09233 1.13605 0
M  V30 6413 C 608.776 0.739633 1.81077 0
M  V30 6414 C 609.156 -0.775595 1.96336 0
M  V30 6415 O 608.504 -1.69726 1.52988 0
M  V30 6416 C 608.714 1.47636 3.16235 0
M  V30 6417 C 610.062 1.64087 3.91613 0
M  V30 6418 O 611.086 1.43871 3.25852 0
M  V30 6419 O 609.945 1.97511 5.0956 0
M  V30 6420 H 607.039 0.265464 0.783236 0
M  V30 6421 H 609.585 1.19441 1.20549 0
M  V30 6422 H 608.357 2.50818 3.00344 0
M  V30 6423 H 607.98 1.01362 3.84462 0
M  V30 6424 N 608.977 -1.30795 0.87923 0
M  V30 6425 C 609.907 -2.30742 0.357796 0
M  V30 6426 C 610.888 -1.60747 -0.556283 0
M  V30 6427 O 612.073 -1.88393 -0.47135 0
M  V30 6428 C 609.203 -3.44583 -0.433555 0
M  V30 6429 C 608.157 -4.26235 0.388251 0
M  V30 6430 C 607.483 -5.32073 -0.529352 0
M  V30 6431 C 608.783 -4.96303 1.62729 0
M  V30 6432 H 610.477 -2.74605 1.19299 0
M  V30 6433 H 608.023 -1.32017 0.575104 0
M  V30 6434 H 609.976 -4.13563 -0.808934 0
M  V30 6435 H 608.7 -2.99511 -1.30234 0
M  V30 6436 H 607.359 -3.58936 0.745695 0
M  V30 6437 H 607.007 -4.83249 -1.39569 0
M  V30 6438 H 606.707 -5.87598 0.0166741 0
M  V30 6439 H 608.231 -6.0391 -0.901373 0
M  V30 6440 H 609.645 -5.5783 1.32283 0
M  V30 6441 H 608.042 -5.61666 2.11309 0
M  V30 6442 H 609.112 -4.22758 2.37494 0
M  V30 6443 N 610.455 -0.639598 -1.44038 0
M  V30 6444 C 611.866 -0.228866 -1.85292 0
M  V30 6445 C 612.217 1.22161 -1.53529 0
M  V30 6446 O 611.342 1.93064 -0.977518 0
M  V30 6447 C 611.937 -0.408592 -3.36327 0
M  V30 6448 C 610.496 -0.0522953 -3.76364 0
M  V30 6449 C 609.643 -0.717959 -2.67844 0
M  V30 6450 H 612.594 -0.844194 -1.34384 0
M  V30 6451 H 612.615 0.349968 -3.78887 0
M  V30 6452 H 612.127 -1.46435 -3.59414 0
M  V30 6453 H 610.228 1.0014 -3.58891 0
M  V30 6454 H 610.341 -0.468261 -4.76806 0
M  V30 6455 H 608.705 -0.152459 -2.54243 0
M  V30 6456 H 609.488 -1.77648 -2.93762 0
M  V30 6457 N 611.933 1.52934 -0.380664 0
M  V30 6458 C 613.21 1.93845 0.261417 0
M  V30 6459 C 613.59 1.31544 1.65104 0
M  V30 6460 O 612.938 0.480234 2.23397 0
M  V30 6461 C 613.148 3.47739 0.296466 0
M  V30 6462 C 614.496 4.21284 0.529578 0
M  V30 6463 O 615.52 3.54199 0.377041 0
M  V30 6464 O 614.379 5.40195 0.827753 0
M  V30 6465 H 611.473 0.811318 0.160285 0
M  V30 6466 H 614.019 1.64042 -0.434544 0
M  V30 6467 H 612.791 3.85395 -0.67724 0
M  V30 6468 H 612.414 3.8382 1.0377 0
M  V30 6469 N 613.412 0.11024 1.57214 0
M  V30 6470 C 614.375 -0.828808 2.1369 0
M  V30 6471 C 615.375 -1.20059 1.06969 0
M  V30 6472 O 616.565 -1.12754 1.32786 0
M  V30 6473 C 613.697 -2.11959 2.66994 0
M  V30 6474 H 614.89 -0.338146 2.97988 0
M  V30 6475 H 612.443 -0.138913 1.55681 0
M  V30 6476 H 613.178 -2.65476 1.8626 0
M  V30 6477 H 612.963 -1.86258 3.45037 0
M  V30 6478 H 614.453 -2.79105 3.10629 0
M  V30 6479 N 614.89 -1.56749 -0.16351 0
M  V30 6480 C 615.853 -1.96121 -1.18613 0
M  V30 6481 C 616.853 -0.845765 -1.36761 0
M  V30 6482 O 618.043 -1.11268 -1.34033 0
M  V30 6483 C 615.175 -2.26282 -2.54969 0
M  V30 6484 H 616.368 -2.87639 -0.848764 0
M  V30 6485 H 613.921 -1.50928 -0.406251 0
M  V30 6486 H 614.656 -1.37504 -2.93706 0
M  V30 6487 H 614.441 -3.07595 -2.43162 0
M  V30 6488 H 615.931 -2.57638 -3.28653 0
M  V30 6489 O 616.407 0.308401 -1.58528 0
M  V30 6490 H 617.098 0.955962 -1.68467 0
M  V30 END ATOM
M  V30 BEGIN BOND
M  V30 END BOND
M  V30 END CTAB
M  END
$$$$
