drugbank_target|Q04095 Gag-Pro-Pol polyprotein (DB02413)
 OpenBabel12092120013D

  0  0  0     0  0            999 V3000
M  V30 BEGIN CTAB
M  V30 COUNTS 24594 24878 0 0 0
M  V30 BEGIN ATOM
M  V30 1 H -0.908 1.98254 -0.117106 0
M  V30 2 N 0 1.576 0 0
M  V30 3 C 0.933 2.03868 1.02534 0
M  V30 4 C 1.911 0.928543 1.3348 0
M  V30 5 O 3.095 1.19667 1.45644 0
M  V30 6 C 0.222 2.43627 2.35294 0
M  V30 7 C -0.732 3.65373 2.2001 0
M  V30 8 S 0.101 5.13292 1.52614 0
M  V30 9 C 1.257 5.56322 2.86805 0
M  V30 10 H 1.49 2.90518 0.631377 0
M  V30 11 H -0.977 1.52953 0.210867 0
M  V30 12 H 0.981 2.67203 3.11629 0
M  V30 13 H -0.358 1.57376 2.7183 0
M  V30 14 H -1.165 3.90944 3.18086 0
M  V30 15 H -1.563 3.418 1.51819 0
M  V30 16 H 0.729 5.58782 3.83104 0
M  V30 17 H 1.672 6.56266 2.65933 0
M  V30 18 H 2.08 4.83886 2.90714 0
M  V30 19 N 1.4781 -0.272755 1.55222 0
M  V30 20 C 2.3881 -1.35918 1.91216 0
M  V30 21 C 3.4041 -1.54026 0.809436 0
M  V30 22 O 4.5801 -1.68148 1.10852 0
M  V30 23 C 1.6451 -2.69834 2.17693 0
M  V30 24 C 0.7061 -2.6047 3.41253 0
M  V30 25 C -0.0609 -3.88 3.66458 0
M  V30 26 O 0.1621 -4.88693 2.94169 0
M  V30 27 O -0.9039 -3.88189 4.59992 0
M  V30 28 H 2.9221 -1.0839 2.83699 0
M  V30 29 H 0.5071 -0.471301 1.41771 0
M  V30 30 H 2.3891 -3.49017 2.36147 0
M  V30 31 H 1.0641 -2.97148 1.28392 0
M  V30 32 H -0.0289 -1.79663 3.28134 0
M  V30 33 H 1.3041 -2.38106 4.30774 0
M  V30 34 N 2.9562 -1.48159 -0.537278 0
M  V30 35 C 3.9192 -1.61665 -1.62472 0
M  V30 36 C 4.9192 -0.490395 -1.5314 0
M  V30 37 O 6.1092 -0.755998 -1.5694 0
M  V30 38 C 3.2412 -1.57997 -3.02076 0
M  V30 39 H 4.4342 -2.58621 -1.51839 0
M  V30 40 H 1.9872 -1.36647 -0.758771 0
M  V30 41 H 2.7222 -0.624913 -3.18222 0
M  V30 42 H 2.5072 -2.39755 -3.10258 0
M  V30 43 H 3.9972 -1.70627 -3.81151 0
M  V30 44 N 4.4343 0.785586 -1.36625 0
M  V30 45 C 5.6803 1.54591 -1.31261 0
M  V30 46 C 6.0133 1.93906 0.106823 0
M  V30 47 O 5.2883 1.63007 1.06108 0
M  V30 48 C 5.5713 2.82038 -2.23889 0
M  V30 49 C 5.4243 2.49066 -3.74548 0
M  V30 50 C 6.7433 3.83887 -2.15217 0
M  V30 51 H 3.8623 0.560846 -0.478143 0
M  V30 52 H 6.5043 0.902278 -1.67209 0
M  V30 53 H 4.6543 3.36961 -1.93363 0
M  V30 54 H 6.3263 2.00164 -4.15611 0
M  V30 55 H 4.5693 1.81954 -3.93796 0
M  V30 56 H 5.2403 3.40109 -4.34776 0
M  V30 57 H 7.7163 3.38421 -2.42096 0
M  V30 58 H 6.5923 4.70806 -2.82193 0
M  V30 59 H 6.8533 4.27131 -1.14068 0
M  V30 60 N 5.9124 1.20967 1.01018 0
M  V30 61 C 7.1614 1.01796 1.74128 0
M  V30 62 C 7.4744 -0.449691 1.90361 0
M  V30 63 O 8.6804 -0.76068 2.60626 0
M  V30 64 C 7.1364 1.7727 3.13215 0
M  V30 65 C 6.7444 3.28171 3.04972 0
M  V30 66 C 8.4884 1.66489 3.90489 0
M  V30 67 C 6.3954 3.96156 4.39107 0
M  V30 68 H 5.3254 0.377276 0.652824 0
M  V30 69 H 7.9764 1.44651 1.12909 0
M  V30 70 H 6.3584 1.27205 3.75013 0
M  V30 71 H 7.5324 3.85499 2.52443 0
M  V30 72 H 5.8474 3.39437 2.41188 0
M  V30 73 H 8.4444 2.14617 4.89738 0
M  V30 74 H 8.7874 0.6222 4.11624 0
M  V30 75 H 9.3204 2.14003 3.35332 0
M  V30 76 H 6.0594 5.00604 4.23174 0
M  V30 77 H 5.5794 3.43617 4.91617 0
M  V30 78 H 7.2584 4.00774 5.07926 0
M  V30 79 N 7.3905 -1.2043 1.01659 0
M  V30 80 C 8.3375 -2.23215 0.586822 0
M  V30 81 C 9.3075 -1.61382 -0.393085 0
M  V30 82 O 10.4925 -1.88544 -0.292525 0
M  V30 83 C 7.6325 -3.45032 -0.0687464 0
M  V30 84 C 6.7455 -4.21296 0.955724 0
M  V30 85 C 5.8805 -5.30507 0.271208 0
M  V30 86 C 4.9195 -5.98515 1.28244 0
M  V30 87 N 4.0565 -6.99316 0.62459 0
M  V30 88 H 8.8965 -2.59336 1.46796 0
M  V30 89 H 6.4335 -1.27431 0.734836 0
M  V30 90 H 8.3915 -4.1459 -0.465965 0
M  V30 91 H 7.0215 -3.09604 -0.913529 0
M  V30 92 H 6.0735 -3.50803 1.4711 0
M  V30 93 H 7.3855 -4.6803 1.72479 0
M  V30 94 H 6.5395 -6.06428 -0.18151 0
M  V30 95 H 5.2785 -4.8481 -0.530163 0
M  V30 96 H 4.2835 -5.21355 1.74554 0
M  V30 97 H 5.5085 -6.46298 2.08509 0
M  V30 98 H 3.4545 -6.55812 -0.156914 0
M  V30 99 H 3.3715 -7.44178 1.33172 0
M  V30 100 H 4.6395 -7.79255 0.195462 0
M  V30 101 N 8.8686 -0.792821 -1.36206 0
M  V30 102 C 10.1146 -0.36733 -1.99446 0
M  V30 103 C 10.4476 1.05917 -1.62774 0
M  V30 104 O 9.7226 1.7324 -0.88421 0
M  V30 105 C 10.0056 -0.535044 -3.56103 0
M  V30 106 C 9.8586 -2.00548 -4.02617 0
M  V30 107 C 11.1776 0.0478191 -4.40074 0
M  V30 108 H 8.2966 -0.134941 -0.724541 0
M  V30 109 H 10.9386 -0.999794 -1.61568 0
M  V30 110 H 9.0886 0.00336329 -3.885 0
M  V30 111 H 10.7606 -2.60521 -3.80692 0
M  V30 112 H 9.0036 -2.50686 -3.54032 0
M  V30 113 H 9.6746 -2.07377 -5.11565 0
M  V30 114 H 12.1506 -0.411822 -4.14057 0
M  V30 115 H 11.0266 -0.0995336 -5.4881 0
M  V30 116 H 11.2876 1.14025 -4.27142 0
M  V30 117 N 10.3467 1.47872 -0.545128 0
M  V30 118 C 11.5957 2.01695 -0.0145033 0
M  V30 119 C 11.9087 1.42609 1.33873 0
M  V30 120 O 13.1147 1.88021 1.95858 0
M  V30 121 C 11.5707 3.59892 0.0245068 0
M  V30 122 C 11.1787 4.27966 -1.32475 0
M  V30 123 C 12.9227 4.21507 0.50316 0
M  V30 124 C 10.8297 5.78136 -1.2455 0
M  V30 125 H 9.7597 0.753998 -0.00165172 0
M  V30 126 H 12.4107 1.69985 -0.691175 0
M  V30 127 H 10.7927 3.88509 0.766575 0
M  V30 128 H 11.9667 4.11003 -2.08357 0
M  V30 129 H 10.2817 3.78286 -1.74036 0
M  V30 130 H 12.8787 5.31538 0.580656 0
M  V30 131 H 13.2217 3.87855 1.51243 0
M  V30 132 H 13.7547 3.97376 -0.183681 0
M  V30 133 H 10.4937 6.16388 -2.23039 0
M  V30 134 H 10.0137 5.97469 -0.528282 0
M  V30 135 H 11.6927 6.40099 -0.942488 0
M  V30 136 N 11.8248 0.280983 1.55075 0
M  V30 137 C 13.0498 -0.340154 2.04592 0
M  V30 138 C 13.4748 -1.48246 1.15779 0
M  V30 139 O 12.8328 -1.80614 0.15761 0
M  V30 140 C 12.8808 -0.793104 3.5177 0
M  V30 141 O 11.9848 -1.89981 3.66034 0
M  V30 142 H 11.3258 -0.0694289 0.66036 0
M  V30 143 H 13.8558 0.416993 2.00306 0
M  V30 144 H 13.8658 -1.08729 3.93245 0
M  V30 145 H 12.5408 0.0426163 4.15878 0
M  V30 146 H 11.1178 -1.60771 3.36463 0
M  V30 147 N 13.3029 -1.57598 0.00835791 0
M  V30 148 C 14.5279 -1.95617 -0.689103 0
M  V30 149 C 14.9529 -0.883753 -1.66046 0
M  V30 150 O 14.3109 0.157352 -1.80616 0
M  V30 151 C 14.3589 -3.32736 -1.38994 0
M  V30 152 O 13.4629 -3.27631 -2.50463 0
M  V30 153 H 12.8039 -0.638379 -0.182668 0
M  V30 154 H 15.3339 -2.045 0.064036 0
M  V30 155 H 15.3439 -3.68494 -1.75147 0
M  V30 156 H 14.0189 -4.1034 -0.677778 0
M  V30 157 H 12.5959 -3.03561 -2.16576 0
M  V30 158 N 14.781 0.264519 -1.55364 0
M  V30 159 C 15.744 1.31046 -1.88042 0
M  V30 160 C 16.744 1.41943 -0.755569 0
M  V30 161 O 17.934 1.40947 -1.02369 0
M  V30 162 C 15.066 2.69067 -2.09323 0
M  V30 163 H 16.259 1.03297 -2.81549 0
M  V30 164 H 13.812 0.502989 -1.47986 0
M  V30 165 H 14.547 3.01982 -1.18226 0
M  V30 166 H 14.332 2.62542 -2.91229 0
M  V30 167 H 15.822 3.44623 -2.35848 0
M  V30 168 N 16.2591 1.48442 0.529413 0
M  V30 169 C 17.4991 1.58086 1.29569 0
M  V30 170 C 17.8631 0.249302 1.90375 0
M  V30 171 O 19.0641 0.220738 2.67892 0
M  V30 172 C 17.3351 2.68793 2.35552 0
M  V30 173 S 18.8941 2.98207 3.21898 0
M  V30 174 H 15.7121 0.557922 0.440732 0
M  V30 175 H 18.3141 1.85966 0.603059 0
M  V30 176 H 17.0181 3.64102 1.89363 0
M  V30 177 H 16.5491 2.42817 3.09522 0
M  V30 178 H 18.5641 2.37548 4.35644 0
M  V30 179 N 17.7372 -0.778329 1.37039 0
M  V30 180 C 18.6842 -1.89139 1.32269 0
M  V30 181 C 19.6542 -1.65017 0.189387 0
M  V30 182 O 20.8392 -1.87024 0.377693 0
M  V30 183 C 17.9792 -3.26112 1.12894 0
M  V30 184 C 17.0922 -3.62233 2.35396 0
M  V30 185 C 16.2272 -4.8838 2.08946 0
M  V30 186 C 15.2662 -5.17212 3.2735 0
M  V30 187 N 14.4032 -6.34546 3.00492 0
M  V30 188 H 19.2432 -1.92552 2.27437 0
M  V30 189 H 16.7802 -0.941473 1.13025 0
M  V30 190 H 18.7382 -4.05116 0.996835 0
M  V30 191 H 17.3682 -3.22091 0.213758 0
M  V30 192 H 16.4202 -2.78265 2.5937 0
M  V30 193 H 17.7322 -3.79481 3.23721 0
M  V30 194 H 16.8862 -5.75274 1.92729 0
M  V30 195 H 15.6252 -4.73222 1.17949 0
M  V30 196 H 14.6302 -4.28796 3.44113 0
M  V30 197 H 15.8552 -5.34283 4.19188 0
M  V30 198 H 13.8012 -6.20759 2.12118 0
M  V30 199 H 13.7182 -6.52179 3.82358 0
M  V30 200 H 14.9862 -7.24394 2.87879 0
M  V30 201 N 19.2153 -1.21501 -1.00376 0
M  V30 202 C 20.4433 -1.059 -1.77744 0
M  V30 203 C 20.8583 0.391125 -1.84704 0
M  V30 204 O 20.2153 1.27133 -1.30933 0
M  V30 205 C 20.2663 -1.65111 -3.21591 0
M  V30 206 O 19.9873 -3.0445 -3.15027 0
M  V30 207 C 21.4883 -1.54637 -4.15454 0
M  V30 208 H 18.7083 -0.371825 -0.558558 0
M  V30 209 H 21.2523 -1.60865 -1.26264 0
M  V30 210 H 19.4073 -1.14235 -3.70175 0
M  V30 211 H 19.8213 -3.3278 -4.0541 0
M  V30 212 H 21.2953 -2.00808 -5.14179 0
M  V30 213 H 21.7723 -0.501022 -4.36333 0
M  V30 214 H 22.3783 -2.04767 -3.72761 0
M  V30 215 N 20.6934 1.19889 -1.02296 0
M  V30 216 C 21.9234 1.93109 -0.734332 0
M  V30 217 C 22.3314 1.75377 0.709889 0
M  V30 218 O 21.6744 1.06912 1.49384 0
M  V30 219 C 21.7364 3.45362 -0.99827 0
M  V30 220 C 21.4004 3.8686 -2.43287 0
M  V30 221 C 22.3974 3.92102 -3.41397 0
M  V30 222 C 20.0824 4.18668 -2.77529 0
M  V30 223 C 22.0764 4.28573 -4.71809 0
M  V30 224 C 19.7634 4.54813 -4.08153 0
M  V30 225 C 20.7614 4.59739 -5.05103 0
M  V30 226 O 20.4494 4.95051 -6.33388 0
M  V30 227 H 20.1814 0.620409 -0.268456 0
M  V30 228 H 22.7354 1.53144 -1.3688 0
M  V30 229 H 20.9654 3.85482 -0.306645 0
M  V30 230 H 22.6544 3.99814 -0.700234 0
M  V30 231 H 23.4204 3.67685 -3.1628 0
M  V30 232 H 19.2994 4.14021 -2.0275 0
M  V30 233 H 22.8434 4.32333 -5.4748 0
M  V30 234 H 18.7404 4.78687 -4.33047 0
M  V30 235 H 19.5084 5.1302 -6.37772 0
M  V30 236 N 22.1715 0.800033 1.35784 0
M  V30 237 C 23.4115 0.382891 2.00782 0
M  V30 238 C 23.7755 -1.02891 1.62103 0
M  V30 239 O 24.9765 -1.54771 2.19771 0
M  V30 240 C 23.2475 0.553299 3.53091 0
M  V30 241 S 24.8065 0.225608 4.3822 0
M  V30 242 H 21.6245 0.145737 0.695904 0
M  V30 243 H 24.2265 1.04085 1.65489 0
M  V30 244 H 22.9305 1.58091 3.78729 0
M  V30 245 H 22.4615 -0.120214 3.93216 0
M  V30 246 H 24.4765 -0.969074 4.86645 0
M  V30 247 N 23.6496 -1.47581 0.552962 0
M  V30 248 C 24.8976 -2.02082 0.0272703 0
M  V30 249 C 25.2186 -1.4301 -1.32563 0
M  V30 250 O 24.4886 -0.603745 -1.86365 0
M  V30 251 H 23.0686 -0.746966 0.00709182 0
M  V30 252 H 25.7306 -1.81033 0.722008 0
M  V30 253 H 24.8266 -3.12034 -0.0639951 0
M  V30 254 N 25.1277 -0.289203 -1.54924 0
M  V30 255 C 26.0747 0.592115 -2.23075 0
M  V30 256 C 27.0447 1.13881 -1.20915 0
M  V30 257 O 28.2297 1.18551 -1.495 0
M  V30 258 C 25.3697 1.76376 -2.96623 0
M  V30 259 C 24.4827 1.24959 -4.13533 0
M  V30 260 C 23.6177 2.38416 -4.74691 0
M  V30 261 C 22.6567 1.84072 -5.83767 0
M  V30 262 N 21.7937 2.91057 -6.38929 0
M  V30 263 H 26.6337 0.00432038 -2.98 0
M  V30 264 H 24.1707 -0.00963529 -1.47097 0
M  V30 265 H 26.1287 2.45268 -3.3749 0
M  V30 266 H 24.7587 2.32337 -2.24097 0
M  V30 267 H 23.8107 0.453307 -3.77689 0
M  V30 268 H 25.1227 0.811662 -4.92152 0
M  V30 269 H 24.2767 3.15276 -5.18349 0
M  V30 270 H 23.0157 2.8553 -3.95378 0
M  V30 271 H 22.0207 1.05697 -5.39545 0
M  V30 272 H 23.2457 1.37877 -6.64956 0
M  V30 273 H 21.1917 3.37526 -5.62505 0
M  V30 274 H 21.1087 2.51724 -7.12861 0
M  V30 275 H 22.3767 3.6785 -6.87246 0
M  V30 276 N 26.6058 1.57591 -0.0167156 0
M  V30 277 C 27.8548 1.90461 0.663877 0
M  V30 278 C 28.1678 0.893515 1.73999 0
M  V30 279 O 29.3738 1.11302 2.47637 0
M  V30 280 C 27.8298 3.38155 1.23204 0
M  V30 281 C 27.4378 4.47597 0.189866 0
M  V30 282 C 29.1818 3.80111 1.88986 0
M  V30 283 C 27.0888 5.86379 0.768964 0
M  V30 284 H 26.0188 0.710738 0.251729 0
M  V30 285 H 28.6698 1.83326 -0.0799926 0
M  V30 286 H 27.0518 3.40182 2.02712 0
M  V30 287 H 28.2258 4.57112 -0.581846 0
M  V30 288 H 26.5408 4.14766 -0.368475 0
M  V30 289 H 29.1378 4.81145 2.33247 0
M  V30 290 H 29.4808 3.14511 2.72743 0
M  V30 291 H 30.0138 3.80454 1.16187 0
M  V30 292 H 26.7528 6.55493 -0.0301957 0
M  V30 293 H 26.2728 5.80496 1.50945 0
M  V30 294 H 27.9518 6.34563 1.26251 0
M  V30 295 N 28.0839 -0.256276 1.55502 0
M  V30 296 C 29.3089 -1.00766 1.81276 0
M  V30 297 C 29.7339 -1.78524 0.59252 0
M  V30 298 O 29.0919 -1.75413 -0.45827 0
M  V30 299 C 29.1399 -1.92869 3.04687 0
M  V30 300 O 28.2439 -3.019 2.80945 0
M  V30 301 H 27.5849 -0.287224 0.598664 0
M  V30 302 H 30.1149 -0.280109 2.02674 0
M  V30 303 H 30.1249 -2.34511 3.33869 0
M  V30 304 H 28.7999 -1.35689 3.93143 0
M  V30 305 H 27.3769 -2.64454 2.62904 0
M  V30 306 N 29.562 -1.4872 -0.521534 0
M  V30 307 C 30.973 -1.50607 -1.10337 0
M  V30 308 C 31.324 -0.280612 -1.94183 0
M  V30 309 O 30.449 0.611507 -2.0758 0
M  V30 310 C 31.044 -2.72903 -2.00772 0
M  V30 311 C 29.603 -2.77634 -2.54158 0
M  V30 312 C 28.75 -2.44241 -1.31307 0
M  V30 313 H 31.701 -1.55714 -0.306388 0
M  V30 314 H 31.722 -2.519 -2.85178 0
M  V30 315 H 31.234 -3.62077 -1.39721 0
M  V30 316 H 29.335 -1.92689 -3.18907 0
M  V30 317 H 29.448 -3.79283 -2.92714 0
M  V30 318 H 27.812 -1.95577 -1.63161 0
M  V30 319 H 28.595 -3.35666 -0.719943 0
M  V30 320 N 31.0401 0.771051 -1.3745 0
M  V30 321 C 32.2651 1.56529 -1.36065 0
M  V30 322 C 32.6901 1.88029 0.0515859 0
M  V30 323 O 32.0481 1.49282 1.02882 0
M  V30 324 C 32.0961 2.85187 -2.20683 0
M  V30 325 O 31.2001 3.79593 -1.61193 0
M  V30 326 H 30.5411 0.47411 -0.464883 0
M  V30 327 H 33.0711 0.954269 -1.80983 0
M  V30 328 H 33.0811 3.34283 -2.33921 0
M  V30 329 H 31.7561 2.61588 -3.23334 0
M  V30 330 H 30.3331 3.38239 -1.56999 0
M  V30 331 N 32.5182 1.22032 0.997298 0
M  V30 332 C 33.4652 0.986467 2.08656 0
M  V30 333 C 34.4352 -0.0902671 1.65855 0
M  V30 334 O 35.6202 0.0584294 1.90711 0
M  V30 335 C 32.7602 0.565569 3.40434 0
M  V30 336 C 31.8732 1.71259 3.96604 0
M  V30 337 C 31.0082 1.24011 5.16522 0
M  V30 338 C 30.0472 2.35896 5.64818 0
M  V30 339 N 29.1842 1.89726 6.7598 0
M  V30 340 H 34.0242 1.91892 2.27994 0
M  V30 341 H 31.5612 0.956199 1.11782 0
M  V30 342 H 33.5192 0.302738 4.161 0
M  V30 343 H 32.1492 -0.329879 3.2111 0
M  V30 344 H 31.2012 2.08986 3.17851 0
M  V30 345 H 32.5132 2.55436 4.28432 0
M  V30 346 H 31.6672 0.934395 5.99461 0
M  V30 347 H 30.4062 0.368487 4.86306 0
M  V30 348 H 29.4112 2.67261 4.8047 0
M  V30 349 H 30.6362 3.23567 5.97061 0
M  V30 350 H 28.5822 1.0492 6.47555 0
M  V30 351 H 28.4992 2.67471 7.07103 0
M  V30 352 H 29.7672 1.62211 7.62435 0
M  V30 353 N 33.9963 -1.19345 1.0293 0
M  V30 354 C 34.9433 -2.2258 0.610464 0
M  V30 355 C 35.9133 -1.6179 -0.375946 0
M  V30 356 O 37.0983 -1.88844 -0.272511 0
M  V30 357 C 34.2383 -3.45085 -0.0321473 0
M  V30 358 C 33.3513 -4.20258 1.00035 0
M  V30 359 C 32.4863 -5.3019 0.32746 0
M  V30 360 C 31.5253 -5.97121 1.34584 0
M  V30 361 N 30.6623 -6.98615 0.698726 0
M  V30 362 H 35.5023 -2.57764 1.49538 0
M  V30 363 H 33.0393 -1.26644 0.748311 0
M  V30 364 H 34.9973 -4.15061 -0.421966 0
M  V30 365 H 33.6273 -3.10555 -0.88064 0
M  V30 366 H 32.6793 -3.49223 1.50823 0
M  V30 367 H 33.9913 -4.66175 1.77433 0
M  V30 368 H 33.1453 -6.06587 -0.11718 0
M  V30 369 H 31.8843 -4.85345 -0.478713 0
M  V30 370 H 30.8893 -5.19474 1.80074 0
M  V30 371 H 32.1143 -6.4405 2.15352 0
M  V30 372 H 30.0603 -6.55942 -0.0873471 0
M  V30 373 H 29.9773 -7.42724 1.41058 0
M  V30 374 H 31.2453 -7.79004 0.278102 0
M  V30 375 N 35.4744 -0.807222 -1.35358 0
M  V30 376 C 36.3844 -0.219594 -2.3357 0
M  V30 377 C 37.4004 0.637734 -1.61892 0
M  V30 378 O 38.5764 0.549336 -1.93763 0
M  V30 379 C 35.6414 0.62158 -3.41083 0
M  V30 380 C 34.7024 -0.256315 -4.28534 0
M  V30 381 C 33.9354 0.544807 -5.30912 0
M  V30 382 O 34.1584 1.77944 -5.41934 0
M  V30 383 O 33.0924 -0.0646478 -6.01865 0
M  V30 384 H 36.9184 -1.03208 -2.85625 0
M  V30 385 H 34.5034 -0.569025 -1.38139 0
M  V30 386 H 36.3854 1.10067 -4.06772 0
M  V30 387 H 35.0604 1.41165 -2.91297 0
M  V30 388 H 33.9674 -0.782559 -3.65823 0
M  V30 389 H 35.3004 -1.01034 -4.81719 0
M  V30 390 N 36.9525 1.47285 -0.560781 0
M  V30 391 C 38.2015 2.01668 -0.035895 0
M  V30 392 C 38.5145 1.44021 1.32353 0
M  V30 393 O 39.7205 1.90088 1.93853 0
M  V30 394 C 38.1765 3.59897 -0.0136659 0
M  V30 395 C 37.7845 4.26536 -1.37006 0
M  V30 396 C 39.5285 4.22017 0.458425 0
M  V30 397 C 37.4355 5.76782 -1.30675 0
M  V30 398 H 36.3655 0.753938 -0.00964879 0
M  V30 399 H 39.0165 1.69243 -0.709166 0
M  V30 400 H 37.3985 3.89301 0.725325 0
M  V30 401 H 38.5725 4.0877 -2.12705 0
M  V30 402 H 36.8875 3.76419 -1.78038 0
M  V30 403 H 39.4845 5.32124 0.524247 0
M  V30 404 H 39.8275 3.89437 1.4712 0
M  V30 405 H 40.3605 3.97159 -0.225818 0
M  V30 406 H 37.0995 6.13988 -2.29564 0
M  V30 407 H 36.6195 5.96875 -0.591622 0
M  V30 408 H 38.2985 6.39063 -1.01033 0
M  V30 409 N 38.4306 0.297415 1.54768 0
M  V30 410 C 39.6786 -0.312295 1.99673 0
M  V30 411 C 39.9996 -1.54686 1.18732 0
M  V30 412 O 39.2696 -1.93854 0.282382 0
M  V30 413 H 37.8496 -0.118381 0.73756 0
M  V30 414 H 40.5116 0.407915 1.90583 0
M  V30 415 H 39.6076 -0.586813 3.06534 0
M  V30 416 N 39.9087 -1.5758 0.0250728 0
M  V30 417 C 40.8717 -2.08896 -0.943139 0
M  V30 418 C 41.8717 -1.00321 -1.25668 0
M  V30 419 O 43.0617 -1.26495 -1.19769 0
M  V30 420 C 40.1937 -2.55143 -2.26086 0
M  V30 421 H 41.3867 -2.95723 -0.498775 0
M  V30 422 H 38.9397 -1.54703 -0.222888 0
M  V30 423 H 39.6747 -1.71633 -2.75159 0
M  V30 424 H 39.4597 -3.34461 -2.04641 0
M  V30 425 H 40.9497 -2.95083 -2.95492 0
M  V30 426 N 41.3868 0.248026 -1.55636 0
M  V30 427 C 42.3198 1.3334 -1.85191 0
M  V30 428 C 43.2978 1.46429 -0.706906 0
M  V30 429 O 44.4818 1.62662 -0.952544 0
M  V30 430 C 41.6088 2.70703 -2.03562 0
M  V30 431 C 40.6548 2.7477 -3.26196 0
M  V30 432 S 41.4878 2.31493 -4.82878 0
M  V30 433 C 42.6438 3.70783 -5.04253 0
M  V30 434 H 42.8768 1.08072 -2.76962 0
M  V30 435 H 40.4098 0.448952 -1.47729 0
M  V30 436 H 42.3678 3.49798 -2.1483 0
M  V30 437 H 41.0288 2.9321 -1.12635 0
M  V30 438 H 40.2218 3.75648 -3.36013 0
M  V30 439 H 39.8238 2.03719 -3.13647 0
M  V30 440 H 42.1158 4.6627 -4.91527 0
M  V30 441 H 43.0588 3.65901 -6.06236 0
M  V30 442 H 43.4668 3.63244 -4.32105 0
M  V30 443 N 42.8649 1.48995 0.513639 0
M  V30 444 C 43.7949 1.67636 1.62544 0
M  V30 445 C 44.7759 0.525087 1.61793 0
M  V30 446 O 45.9609 0.759502 1.78732 0
M  V30 447 C 43.0909 1.73114 3.01079 0
M  V30 448 C 42.0449 2.87905 3.16693 0
M  V30 449 C 41.3709 2.78486 4.56453 0
M  V30 450 C 42.6709 4.29005 2.97913 0
M  V30 451 H 44.3649 2.60716 1.47198 0
M  V30 452 H 41.9109 1.25465 0.706714 0
M  V30 453 H 43.8639 1.84742 3.78746 0
M  V30 454 H 42.5879 0.766241 3.17484 0
M  V30 455 H 41.2469 2.75859 2.41448 0
M  V30 456 H 40.8949 1.7993 4.69717 0
M  V30 457 H 40.5949 3.55523 4.67843 0
M  V30 458 H 42.1189 2.92104 5.36197 0
M  V30 459 H 43.5329 4.41798 3.65359 0
M  V30 460 H 41.9299 5.07166 3.20785 0
M  V30 461 H 42.9999 4.44329 1.94165 0
M  V30 462 N 44.343 -0.763751 1.37857 0
M  V30 463 C 45.568 -1.55805 1.36893 0
M  V30 464 C 45.993 -1.88054 -0.0416135 0
M  V30 465 O 45.351 -1.49825 -1.02089 0
M  V30 466 C 45.399 -2.84012 2.22192 0
M  V30 467 O 44.503 -3.78732 1.63204 0
M  V30 468 H 43.844 -0.471638 0.46739 0
M  V30 469 H 46.374 -0.944657 1.81487 0
M  V30 470 H 46.384 -3.33037 2.35691 0
M  V30 471 H 45.059 -2.59869 3.24716 0
M  V30 472 H 43.636 -3.37402 1.58791 0
M  V30 473 N 45.8211 -1.22559 -0.990812 0
M  V30 474 C 46.7511 -1.0218 -2.09956 0
M  V30 475 C 47.7321 0.0579394 -1.70001 0
M  V30 476 O 48.9171 -0.104684 -1.93918 0
M  V30 477 C 46.0471 -0.601023 -3.4206 0
M  V30 478 C 45.0011 -1.62694 -3.95872 0
M  V30 479 C 44.3271 -1.06193 -5.24049 0
M  V30 480 C 45.6271 -3.01743 -4.2632 0
M  V30 481 H 47.3211 -1.94916 -2.27262 0
M  V30 482 H 44.8671 -0.938566 -1.09211 0
M  V30 483 H 46.8201 -0.445561 -4.19038 0
M  V30 484 H 45.5441 0.362005 -3.24588 0
M  V30 485 H 44.2031 -1.77021 -3.21028 0
M  V30 486 H 43.8511 -0.0901903 -5.02919 0
M  V30 487 H 43.5511 -1.74732 -5.61019 0
M  V30 488 H 45.0751 -0.918092 -6.03658 0
M  V30 489 H 46.4891 -2.90777 -4.94087 0
M  V30 490 H 44.8861 -3.67425 -4.74467 0
M  V30 491 H 45.9561 -3.51518 -3.34011 0
M  V30 492 N 47.2992 1.18797 -1.03562 0
M  V30 493 C 48.2292 2.24472 -0.643019 0
M  V30 494 C 49.2102 1.66433 0.351283 0
M  V30 495 O 50.3952 1.92803 0.232505 0
M  V30 496 C 47.5252 3.473 4.24935e-05 0
M  V30 497 C 46.4792 4.18055 -0.917257 0
M  V30 498 C 45.8052 5.34519 -0.138941 0
M  V30 499 C 47.1052 4.72109 -2.23407 0
M  V30 500 H 48.7992 2.57566 -1.52643 0
M  V30 501 H 46.3452 1.23806 -0.735394 0
M  V30 502 H 48.2982 4.20426 0.286383 0
M  V30 503 H 47.0222 3.13424 0.918299 0
M  V30 504 H 45.6812 3.46821 -1.1879 0
M  V30 505 H 45.3292 4.96891 0.781562 0
M  V30 506 H 45.0292 5.82794 -0.750005 0
M  V30 507 H 46.5532 6.10438 0.1405 0
M  V30 508 H 47.9672 5.36955 -2.00879 0
M  V30 509 H 46.3642 5.30897 -2.79765 0
M  V30 510 H 47.4342 3.89807 -2.88407 0
M  V30 511 N 48.7773 0.814389 1.34928 0
M  V30 512 C 49.7093 0.187834 2.28429 0
M  V30 513 C 50.7223 -0.617374 1.5064 0
M  V30 514 O 51.9113 -0.448454 1.72775 0
M  V30 515 C 49.0113 -0.755962 3.30361 0
M  V30 516 C 48.1843 0.00456686 4.374 0
M  V30 517 C 47.2433 -0.858876 5.19143 0
M  V30 518 O 46.2693 -0.306968 5.68372 0
M  V30 519 N 47.4713 -2.17988 5.38016 0
M  V30 520 H 50.2363 0.991105 2.82838 0
M  V30 521 H 47.7973 0.670561 1.4736 0
M  V30 522 H 49.7893 -1.338 3.81942 0
M  V30 523 H 48.3593 -1.46001 2.7641 0
M  V30 524 H 47.5793 0.767865 3.86649 0
M  V30 525 H 48.8673 0.528422 5.06049 0
M  V30 526 H 48.2653 -2.65212 4.99679 0
M  V30 527 H 46.8223 -2.71098 5.92747 0
M  V30 528 N 50.2554 -1.46986 0.568584 0
M  V30 529 C 51.2024 -2.30153 -0.172707 0
M  V30 530 C 52.1724 -1.39759 -0.897586 0
M  V30 531 O 53.3574 -1.68716 -0.891044 0
M  V30 532 C 50.4974 -3.23952 -1.1895 0
M  V30 533 C 49.6104 -4.29441 -0.469517 0
M  V30 534 C 48.7454 -5.1038 -1.47259 0
M  V30 535 C 47.7844 -6.07632 -0.738225 0
M  V30 536 N 46.9214 -6.8149 -1.68868 0
M  V30 537 H 51.7614 -2.93019 0.542596 0
M  V30 538 H 49.2984 -1.44422 0.279401 0
M  V30 539 H 51.2564 -3.76767 -1.79173 0
M  V30 540 H 49.8864 -2.62926 -1.87269 0
M  V30 541 H 48.9384 -3.79594 0.247467 0
M  V30 542 H 50.2504 -4.98689 0.105241 0
M  V30 543 H 49.4044 -5.67402 -2.14803 0
M  V30 544 H 48.1434 -4.4106 -2.08128 0
M  V30 545 H 47.1484 -5.49778 -0.0489293 0
M  V30 546 H 48.3734 -6.78966 -0.135129 0
M  V30 547 H 46.3194 -6.14891 -2.28573 0
M  V30 548 H 46.2364 -7.46948 -1.16636 0
M  V30 549 H 47.5044 -7.43078 -2.3549 0
M  V30 550 N 51.7335 -0.305618 -1.54608 0
M  V30 551 C 52.6435 0.57778 -2.27374 0
M  V30 552 C 53.6595 1.14451 -1.31061 0
M  V30 553 O 54.8355 1.16831 -1.6405 0
M  V30 554 C 51.9005 1.73123 -3.00382 0
M  V30 555 C 50.9615 1.19812 -4.12242 0
M  V30 556 C 50.1945 2.2966 -4.81759 0
M  V30 557 O 50.4175 3.49651 -4.50666 0
M  V30 558 O 49.3515 1.96091 -5.69062 0
M  V30 559 H 53.1775 -0.012624 -3.03697 0
M  V30 560 H 50.7625 -0.0719184 -1.49227 0
M  V30 561 H 52.6445 2.40315 -3.4616 0
M  V30 562 H 51.3195 2.30815 -2.26949 0
M  V30 563 H 50.2265 0.491798 -3.70853 0
M  V30 564 H 51.5595 0.666566 -4.87666 0
M  V30 565 N 53.2116 1.57565 -0.0334293 0
M  V30 566 C 54.4596 1.91598 0.642999 0
M  V30 567 C 54.7806 0.910847 1.7242 0
M  V30 568 O 54.0506 -0.0469931 1.95844 0
M  V30 569 H 52.6306 0.707228 0.240496 0
M  V30 570 H 55.2926 1.94726 -0.0822488 0
M  V30 571 H 54.3886 2.92336 1.09298 0
M  V30 572 N 54.6897 -0.239769 1.55765 0
M  V30 573 C 55.6197 -1.30052 1.9393 0
M  V30 574 C 56.6007 -1.49839 0.805132 0
M  V30 575 O 57.7857 -1.62328 1.06599 0
M  V30 576 C 54.9157 -2.65391 2.2402 0
M  V30 577 C 53.8697 -2.60289 3.39755 0
M  V30 578 C 53.1957 -3.99489 3.55405 0
M  V30 579 C 54.4957 -2.16654 4.75246 0
M  V30 580 H 56.1897 -0.983573 2.82783 0
M  V30 581 H 53.7357 -0.471701 1.36055 0
M  V30 582 H 55.6887 -3.3974 2.49308 0
M  V30 583 H 54.4127 -2.98736 1.32 0
M  V30 584 H 53.0717 -1.88398 3.14487 0
M  V30 585 H 52.7197 -4.30112 2.60793 0
M  V30 586 H 52.4197 -3.96962 4.33238 0
M  V30 587 H 53.9437 -4.75528 3.83022 0
M  V30 588 H 55.3577 -2.80737 4.99859 0
M  V30 589 H 53.7547 -2.25223 5.56232 0
M  V30 590 H 54.8247 -1.11835 4.71827 0
M  V30 591 N 56.1678 -1.49265 -0.50573 0
M  V30 592 C 57.0978 -1.68495 -1.61653 0
M  V30 593 C 58.0788 -0.53366 -1.61512 0
M  V30 594 O 59.2638 -0.76897 -1.78327 0
M  V30 595 C 56.3938 -1.74709 -3.00157 0
M  V30 596 C 55.3478 -2.89581 -3.15162 0
M  V30 597 C 54.6738 -2.80903 -4.5497 0
M  V30 598 C 55.9738 -4.30578 -2.95634 0
M  V30 599 H 57.6678 -2.61493 -1.45814 0
M  V30 600 H 55.2138 -1.25838 -0.70005 0
M  V30 601 H 57.1668 -1.86748 -3.77761 0
M  V30 602 H 55.8908 -0.783067 -3.17074 0
M  V30 603 H 54.5498 -2.77136 -2.39982 0
M  V30 604 H 54.1978 -1.82419 -4.68756 0
M  V30 605 H 53.8978 -3.57999 -4.65951 0
M  V30 606 H 55.4218 -2.94944 -5.34641 0
M  V30 607 H 56.8358 -4.4373 -3.63011 0
M  V30 608 H 55.2328 -5.0886 -3.18091 0
M  V30 609 H 56.3028 -4.45352 -1.91806 0
M  V30 610 N 57.6459 0.756429 -1.3826 0
M  V30 611 C 58.5789 1.87802 -1.29637 0
M  V30 612 C 59.5569 1.61667 -0.173939 0
M  V30 613 O 60.7409 1.85208 -0.350775 0
M  V30 614 C 57.8679 3.23354 -1.00797 0
M  V30 615 C 56.9139 3.68379 -2.14939 0
M  V30 616 S 57.7469 3.8025 -3.77054 0
M  V30 617 C 58.9029 5.18626 -3.50396 0
M  V30 618 H 59.1359 1.94829 -2.24564 0
M  V30 619 H 56.6689 0.919117 -1.24063 0
M  V30 620 H 58.6269 4.01637 -0.848413 0
M  V30 621 H 57.2879 3.14008 -0.0759369 0
M  V30 622 H 56.4809 4.66693 -1.90299 0
M  V30 623 H 56.0829 2.97242 -2.26988 0
M  V30 624 H 58.3749 6.04289 -3.06334 0
M  V30 625 H 59.3179 5.48286 -4.48094 0
M  V30 626 H 59.7259 4.87289 -2.84973 0
M  V30 627 N 59.124 1.23083 0.984299 0
M  V30 628 C 60.349 1.088 1.76571 0
M  V30 629 C 60.774 -0.356657 1.84688 0
M  V30 630 O 60.132 -1.25788 1.30565 0
M  V30 631 C 60.18 1.71371 3.17277 0
M  V30 632 O 59.284 0.973213 4.00752 0
M  V30 633 H 58.625 0.381599 0.543395 0
M  V30 634 H 61.155 1.63057 1.23587 0
M  V30 635 H 61.165 1.76449 3.67872 0
M  V30 636 H 59.84 2.76493 3.10684 0
M  V30 637 H 58.417 0.999078 3.59267 0
M  V30 638 N 60.6021 -1.18246 1.0419 0
M  V30 639 C 62.0131 -1.69914 0.773698 0
M  V30 640 C 62.3641 -1.83085 -0.705297 0
M  V30 641 O 61.4891 -1.51123 -1.5489 0
M  V30 642 C 62.0841 -3.08619 1.39784 0
M  V30 643 C 60.6431 -3.57494 1.17792 0
M  V30 644 C 59.7901 -2.34013 1.48773 0
M  V30 645 H 62.7411 -1.02904 1.20816 0
M  V30 646 H 62.7621 -3.71958 0.801714 0
M  V30 647 H 62.2741 -2.99001 2.47426 0
M  V30 648 H 60.3751 -3.72406 0.120295 0
M  V30 649 H 60.4881 -4.40852 1.87581 0
M  V30 650 H 58.8521 -2.37986 0.907463 0
M  V30 651 H 59.6351 -2.27013 2.57527 0
M  V30 652 N 62.0802 -0.821533 -1.34494 0
M  V30 653 C 63.3052 -0.420873 -2.03085 0
M  V30 654 C 63.7302 0.964915 -1.61465 0
M  V30 655 O 63.0882 1.62763 -0.798607 0
M  V30 656 C 63.1362 -0.529414 -3.56693 0
M  V30 657 O 62.2402 0.451302 -4.09923 0
M  V30 658 H 61.5812 -0.173489 -0.640935 0
M  V30 659 H 64.1112 -1.11157 -1.71771 0
M  V30 660 H 64.1212 -0.404671 -4.05988 0
M  V30 661 H 62.7962 -1.54014 -3.86332 0
M  V30 662 H 61.3732 0.285558 -3.71805 0
M  V30 663 N 63.5583 1.46682 -0.576371 0
M  V30 664 C 64.8353 1.95599 0.00703437 0
M  V30 665 C 65.2153 1.51904 1.46589 0
M  V30 666 O 64.5633 0.766755 2.15251 0
M  V30 667 C 64.7733 3.4864 -0.158404 0
M  V30 668 C 66.1213 4.24594 -0.0229439 0
M  V30 669 O 67.1453 3.56094 -0.0869173 0
M  V30 670 O 66.0043 5.46373 0.118015 0
M  V30 671 H 63.0983 0.825275 0.053384 0
M  V30 672 H 65.6443 1.56996 -0.644244 0
M  V30 673 H 64.4163 3.7331 -1.17282 0
M  V30 674 H 64.0393 3.94057 0.5296 0
M  V30 675 N 65.0364 0.313813 1.54444 0
M  V30 676 C 65.9664 -0.549454 2.26943 0
M  V30 677 C 66.9474 -1.12741 1.27372 0
M  V30 678 O 68.1324 -1.15436 1.56167 0
M  V30 679 C 65.2624 -1.71523 3.01989 0
M  V30 680 C 64.2164 -1.26703 4.08816 0
M  V30 681 C 63.5424 -2.51898 4.71647 0
M  V30 682 C 64.8424 -0.388962 5.2085 0
M  V30 683 H 66.5364 0.0552661 2.99349 0
M  V30 684 H 64.0824 0.0280207 1.43973 0
M  V30 685 H 66.0354 -2.32535 3.51433 0
M  V30 686 H 64.7594 -2.34639 2.27183 0
M  V30 687 H 63.4184 -0.679896 3.6024 0
M  V30 688 H 63.0664 -3.13356 3.93468 0
M  V30 689 H 62.7664 -2.22605 5.43802 0
M  V30 690 H 64.2904 -3.1369 5.23861 0
M  V30 691 H 65.7044 -0.905107 5.6611 0
M  V30 692 H 64.1014 -0.18924 5.99802 0
M  V30 693 H 65.1714 0.582699 4.81386 0
M  V30 694 N 66.5145 -1.57545 0.0417849 0
M  V30 695 C 67.7445 -1.96339 -0.642995 0
M  V30 696 C 68.1525 -0.917536 -1.65463 0
M  V30 697 O 67.4955 0.107747 -1.83384 0
M  V30 698 C 67.5575 -3.31333 -1.39494 0
M  V30 699 C 67.2215 -4.53796 -0.540204 0
M  V30 700 C 68.2185 -5.19553 0.189806 0
M  V30 701 C 65.9035 -5.0006 -0.473886 0
M  V30 702 C 67.8975 -6.29904 0.974674 0
M  V30 703 C 65.5845 -6.10289 0.314677 0
M  V30 704 C 66.5825 -6.75072 1.03765 0
M  V30 705 O 66.2705 -7.83183 1.81327 0
M  V30 706 H 66.0025 -0.651241 -0.181277 0
M  V30 707 H 68.5565 -2.05148 0.101665 0
M  V30 708 H 66.7865 -3.19052 -2.18502 0
M  V30 709 H 68.4755 -3.54942 -1.96904 0
M  V30 710 H 69.2415 -4.84774 0.147981 0
M  V30 711 H 65.1205 -4.49433 -1.0262 0
M  V30 712 H 68.6645 -6.80401 1.5395 0
M  V30 713 H 64.5615 -6.44506 0.358174 0
M  V30 714 H 65.3295 -7.99913 1.73438 0
M  V30 715 N 67.9926 0.231505 -1.5589 0
M  V30 716 C 69.2176 0.978689 -1.82856 0
M  V30 717 C 69.6426 1.77559 -0.620846 0
M  V30 718 O 69.0006 1.76119 0.430305 0
M  V30 719 C 69.0486 1.87997 -3.07716 0
M  V30 720 O 68.1526 2.97393 -2.85712 0
M  V30 721 H 67.4936 0.277663 -0.603158 0
M  V30 722 H 70.0236 0.24783 -2.03093 0
M  V30 723 H 70.0336 2.2917 -3.37558 0
M  V30 724 H 68.7086 1.29417 -3.95252 0
M  V30 725 H 67.2856 2.60238 -2.67078 0
M  V30 726 N 69.4707 1.49531 0.497807 0
M  V30 727 C 70.8817 1.52344 1.07927 0
M  V30 728 C 71.2327 0.311469 1.93712 0
M  V30 729 O 70.3577 -0.578405 2.08527 0
M  V30 730 C 70.9527 2.76062 1.96405 0
M  V30 731 C 69.5117 2.81643 2.49709 0
M  V30 732 C 68.6587 2.46299 1.27404 0
M  V30 733 H 71.6097 1.56182 0.281576 0
M  V30 734 H 71.6307 2.56405 2.81135 0
M  V30 735 H 71.1427 3.64254 1.33943 0
M  V30 736 H 69.2437 1.97739 3.15801 0
M  V30 737 H 69.3567 3.83891 2.86643 0
M  V30 738 H 67.7207 1.98148 1.60029 0
M  V30 739 H 68.5037 3.36769 0.66645 0
M  V30 740 N 70.9488 -0.749086 1.3866 0
M  V30 741 C 72.1968 -1.50535 1.34847 0
M  V30 742 C 72.5178 -1.94909 -0.0595016 0
M  V30 743 O 71.7878 -1.67973 -1.00806 0
M  V30 744 H 70.3678 -0.558395 0.49619 0
M  V30 745 H 73.0298 -0.890165 1.73384 0
M  V30 746 H 72.1258 -2.39413 2.00219 0
M  V30 747 N 72.4269 -1.23603 -0.977757 0
M  V30 748 C 73.6519 -1.09735 -1.75991 0
M  V30 749 C 74.0769 0.346858 -1.84874 0
M  V30 750 O 73.4349 1.25093 -1.3123 0
M  V30 751 C 73.4829 -1.73051 -3.16363 0
M  V30 752 O 72.5869 -0.994452 -4.0023 0
M  V30 753 H 71.9279 -0.384476 -0.541364 0
M  V30 754 H 74.4579 -1.6371 -1.2272 0
M  V30 755 H 74.4679 -1.78398 -3.66931 0
M  V30 756 H 73.1429 -2.78137 -3.09213 0
M  V30 757 H 71.7199 -1.01812 -3.58732 0
M  V30 758 N 73.905 1.17692 -1.04816 0
M  V30 759 C 75.151 1.88389 -0.766892 0
M  V30 760 C 75.506 1.79282 0.698269 0
M  V30 761 O 74.799 1.18739 1.50372 0
M  V30 762 C 74.993 3.37462 -1.17703 0
M  V30 763 C 74.822 3.6108 -2.68051 0
M  V30 764 C 73.592 3.78018 -3.35307 0
M  V30 765 C 75.79 3.61039 -3.66273 0
M  V30 766 N 73.772 3.89444 -4.74559 0
M  V30 767 C 75.143 3.78269 -4.91235 0
M  V30 768 C 77.198 3.44168 -3.59796 0
M  V30 769 C 75.901 3.80376 -6.10497 0
M  V30 770 C 77.927 3.4756 -4.78493 0
M  V30 771 C 77.289 3.65295 -6.02278 0
M  V30 772 H 73.388 0.707651 -0.332798 0
M  V30 773 H 75.972 1.41314 -1.33934 0
M  V30 774 H 74.143 3.83214 -0.63257 0
M  V30 775 H 75.875 3.95759 -0.845989 0
M  V30 776 H 72.63 3.77714 -2.85708 0
M  V30 777 H 73.054 3.98962 -5.46954 0
M  V30 778 H 77.696 3.29396 -2.65062 0
M  V30 779 H 75.414 3.93933 -7.05579 0
M  V30 780 H 79 3.3577 -4.75131 0
M  V30 781 H 77.88 3.6782 -6.92588 0
M  V30 782 N 75.3831 0.828654 1.34056 0
M  V30 783 C 76.6601 0.341809 1.9259 0
M  V30 784 C 77.0401 -1.17158 1.75605 0
M  V30 785 O 76.3881 -1.98132 1.13824 0
M  V30 786 C 76.5981 0.777453 3.4023 0
M  V30 787 C 77.9461 0.779579 4.17382 0
M  V30 788 O 78.9701 0.7204 3.48839 0
M  V30 789 O 77.8291 0.857996 5.39723 0
M  V30 790 H 74.9231 0.0946085 0.821571 0
M  V30 791 H 77.4691 0.913827 1.42994 0
M  V30 792 H 76.2411 1.8196 3.46419 0
M  V30 793 H 75.8641 0.181444 3.97186 0
M  V30 794 N 76.8612 -1.46375 0.584142 0
M  V30 795 C 78.2722 -1.86031 0.157959 0
M  V30 796 C 78.6232 -1.48753 -1.27933 0
M  V30 797 O 77.7482 -0.903098 -1.96655 0
M  V30 798 C 78.3432 -3.37642 0.279892 0
M  V30 799 C 76.9022 -3.76289 -0.09143 0
M  V30 800 C 76.0492 -2.7039 0.615178 0
M  V30 801 H 79.0002 -1.37509 0.792274 0
M  V30 802 H 79.0212 -3.77275 -0.494364 0
M  V30 803 H 78.5332 -3.64742 1.32607 0
M  V30 804 H 76.6342 -3.54806 -1.13769 0
M  V30 805 H 76.7472 -4.78246 0.285886 0
M  V30 806 H 75.1112 -2.5464 0.0552833 0
M  V30 807 H 75.8942 -3.0033 1.66303 0
M  V30 808 N 78.3393 -0.321999 -1.54275 0
M  V30 809 C 79.5883 0.281931 -1.9972 0
M  V30 810 C 79.9013 1.53369 -1.21397 0
M  V30 811 O 81.1073 2.21352 -1.57211 0
M  V30 812 C 79.5633 0.5529 -3.55628 0
M  V30 813 C 79.1713 -0.681721 -4.42783 0
M  V30 814 C 80.9153 1.11687 -4.09544 0
M  V30 815 C 78.8223 -0.382742 -5.9016 0
M  V30 816 H 77.7523 0.109124 -0.746062 0
M  V30 817 H 80.4033 -0.43398 -1.78294 0
M  V30 818 H 78.7853 1.32896 -3.73035 0
M  V30 819 H 79.9593 -1.45723 -4.37151 0
M  V30 820 H 78.2743 -1.1658 -3.99748 0
M  V30 821 H 80.8713 1.35515 -5.17242 0
M  V30 822 H 81.2143 2.06575 -3.61431 0
M  V30 823 H 81.7473 0.402032 -3.95763 0
M  V30 824 H 78.4863 -1.30076 -6.42464 0
M  V30 825 H 78.0063 0.355094 -5.98748 0
M  V30 826 H 79.6853 0.00800157 -6.47 0
M  V30 827 N 79.8174 1.5752 -0.0501392 0
M  V30 828 C 81.0454 1.96963 0.633492 0
M  V30 829 C 81.4604 0.927631 1.6444 0
M  V30 830 O 80.8174 -0.0882665 1.82286 0
M  V30 831 C 80.8684 3.36487 1.32132 0
M  V30 832 O 80.5894 4.36693 0.350894 0
M  V30 833 C 82.0904 3.90682 2.09481 0
M  V30 834 H 79.3104 0.648244 0.173266 0
M  V30 835 H 81.8544 2.0417 -0.116134 0
M  V30 836 H 80.0094 3.30434 2.02218 0
M  V30 837 H 80.4234 5.17702 0.841735 0
M  V30 838 H 81.8974 4.90591 2.5303 0
M  V30 839 H 82.3744 3.26053 2.94255 0
M  V30 840 H 82.9804 4.00069 1.44307 0
M  V30 841 N 81.2955 -0.223234 1.56011 0
M  V30 842 C 82.2585 -1.26014 1.9145 0
M  V30 843 C 83.2585 -1.3989 0.792937 0
M  V30 844 O 84.4485 -1.38184 1.0607 0
M  V30 845 C 81.5805 -2.63422 2.16383 0
M  V30 846 H 82.7735 -0.95796 2.84189 0
M  V30 847 H 80.3265 -0.463576 1.49267 0
M  V30 848 H 81.0615 -2.98741 1.2619 0
M  V30 849 H 80.8465 -2.54728 2.98088 0
M  V30 850 H 82.3365 -3.38249 2.44903 0
M  V30 851 N 82.7736 -1.49793 -0.48987 0
M  V30 852 C 83.7366 -1.66752 -1.57246 0
M  V30 853 C 84.7366 -0.538867 -1.51502 0
M  V30 854 O 85.9266 -0.805545 -1.54456 0
M  V30 855 C 83.0586 -1.67528 -2.96896 0
M  V30 856 H 84.2516 -2.63321 -1.43534 0
M  V30 857 H 81.8046 -1.38992 -0.714914 0
M  V30 858 H 82.5396 -0.725837 -3.16073 0
M  V30 859 H 82.3246 -2.49504 -3.02473 0
M  V30 860 H 83.8146 -1.82667 -3.7553 0
M  V30 861 N 84.2517 0.741722 -1.39055 0
M  V30 862 C 85.1817 1.869 -1.39966 0
M  V30 863 C 86.1627 1.6804 -0.26392 0
M  V30 864 O 87.3477 1.88458 -0.468755 0
M  V30 865 C 84.4777 3.24572 -1.23574 0
M  V30 866 C 83.4317 3.58056 -2.34477 0
M  V30 867 C 82.7577 4.94593 -2.0318 0
M  V30 868 C 84.0577 3.61716 -3.76774 0
M  V30 869 H 85.7517 1.86395 -2.34302 0
M  V30 870 H 83.2977 0.895361 -1.1278 0
M  V30 871 H 85.2507 4.031 -1.22834 0
M  V30 872 H 83.9747 3.25587 -0.257045 0
M  V30 873 H 82.6337 2.81854 -2.34423 0
M  V30 874 H 82.2817 4.92181 -1.03765 0
M  V30 875 H 81.9817 5.17964 -2.77465 0
M  V30 876 H 83.5057 5.75486 -2.04079 0
M  V30 877 H 84.9197 4.30335 -3.78794 0
M  V30 878 H 83.3167 3.96603 -4.50362 0
M  V30 879 H 84.3867 2.61672 -4.08235 0
M  V30 880 N 85.7298 1.2412 0.971189 0
M  V30 881 C 86.9548 1.10667 1.75407 0
M  V30 882 C 87.3798 -0.337048 1.85056 0
M  V30 883 O 86.7378 -1.24396 1.31892 0
M  V30 884 C 86.7858 1.74726 3.15441 0
M  V30 885 O 85.8898 1.01566 3.99697 0
M  V30 886 H 85.2308 0.387341 0.539317 0
M  V30 887 H 87.7608 1.64358 1.2185 0
M  V30 888 H 87.7708 1.80341 3.6598 0
M  V30 889 H 86.4458 2.79773 3.07734 0
M  V30 890 H 85.0228 1.03713 3.58187 0
M  V30 891 N 87.2079 -1.17134 1.05439 0
M  V30 892 C 88.1399 -2.2078 0.615539 0
M  V30 893 C 89.1529 -1.59584 -0.322001 0
M  V30 894 O 90.3419 -1.78133 -0.114344 0
M  V30 895 C 87.4419 -3.38691 -0.118938 0
M  V30 896 C 86.6149 -4.29454 0.829924 0
M  V30 897 C 85.6739 -5.26024 0.136258 0
M  V30 898 O 84.6999 -5.63952 0.77115 0
M  V30 899 N 85.9019 -5.69487 -1.1254 0
M  V30 900 H 88.6669 -2.59052 1.50705 0
M  V30 901 H 86.2279 -1.32058 0.936603 0
M  V30 902 H 88.2199 -4.00329 -0.593179 0
M  V30 903 H 86.7899 -2.98996 -0.91215 0
M  V30 904 H 86.0099 -3.65211 1.48373 0
M  V30 905 H 87.2979 -4.86984 1.47392 0
M  V30 906 H 86.6959 -5.4075 -1.6615 0
M  V30 907 H 85.2529 -6.33257 -1.54366 0
M  V30 908 N 88.686 -0.835752 -1.33615 0
M  V30 909 C 90.102 -0.523139 -1.50783 0
M  V30 910 C 90.302 0.950171 -1.77691 0
M  V30 911 O 89.358 1.73411 -1.83534 0
M  V30 912 C 90.671 -1.39378 -2.66448 0
M  V30 913 C 92.219 -1.39223 -2.80332 0
M  V30 914 C 92.694 -2.24765 -3.99055 0
M  V30 915 N 94.185 -2.22458 -4.06284 0
M  V30 916 C 94.92 -2.85386 -4.97336 0
M  V30 917 N 94.416 -3.57354 -5.93523 0
M  V30 918 N 96.209 -2.74872 -4.90308 0
M  V30 919 H 88.36 -1.78952 -1.14411 0
M  V30 920 H 90.623 -0.763297 -0.562212 0
M  V30 921 H 90.329 -2.44061 -2.53234 0
M  V30 922 H 90.203 -1.0676 -3.61776 0
M  V30 923 H 92.59 -0.353136 -2.92979 0
M  V30 924 H 92.671 -1.75846 -1.85773 0
M  V30 925 H 92.315 -3.28732 -3.87167 0
M  V30 926 H 92.245 -1.85485 -4.92852 0
M  V30 927 H 94.736 -1.70119 -3.37443 0
M  V30 928 H 95.049 -4.02584 -6.59656 0
M  V30 929 H 93.394 -3.61461 -5.93608 0
M  V30 930 H 96.585 -2.18213 -4.14126 0
M  V30 931 H 96.758 -3.24199 -5.61069 0
M  V30 932 N 90.1641 1.46063 -0.591896 0
M  V30 933 C 91.1271 2.28854 0.125973 0
M  V30 934 C 92.1271 1.38903 0.810107 0
M  V30 935 O 93.3171 1.61186 0.66066 0
M  V30 936 C 90.4491 3.19526 1.1881 0
M  V30 937 H 91.6421 2.93802 -0.601717 0
M  V30 938 H 89.1951 1.52325 -0.350254 0
M  V30 939 H 89.9301 2.59345 1.94707 0
M  V30 940 H 89.7151 3.85766 0.701936 0
M  V30 941 H 91.2051 3.81817 1.69132 0
M  V30 942 N 91.6422 0.330177 1.54103 0
M  V30 943 C 92.5752 -0.575477 2.20825 0
M  V30 944 C 93.5532 -1.11064 1.18758 0
M  V30 945 O 94.7372 -1.17341 1.47524 0
M  V30 946 C 91.8642 -1.79032 2.87516 0
M  V30 947 C 90.9102 -1.38581 4.03358 0
M  V30 948 S 91.7432 -0.416911 5.33875 0
M  V30 949 C 92.8992 -1.63889 6.04062 0
M  V30 950 H 93.1322 -0.00872114 2.97299 0
M  V30 951 H 90.6652 0.114254 1.53977 0
M  V30 952 H 92.6232 -2.48734 3.2656 0
M  V30 953 H 91.2842 -2.32827 2.10832 0
M  V30 954 H 90.4772 -2.29123 4.48908 0
M  V30 955 H 90.0792 -0.768419 3.66021 0
M  V30 956 H 92.3712 -2.57536 6.26643 0
M  V30 957 H 93.3142 -1.22542 6.97416 0
M  V30 958 H 93.7222 -1.82887 5.34053 0
M  V30 959 N 93.1203 -1.57491 0.0584922 0
M  V30 960 C 94.3663 -1.93264 -0.614558 0
M  V30 961 C 94.6993 -0.937717 -1.7006 0
M  V30 962 O 93.9743 0.0351652 -1.94468 0
M  V30 963 C 94.2573 -3.3938 -1.20386 0
M  V30 964 C 94.1103 -4.49625 -0.125375 0
M  V30 965 C 95.4293 -3.86039 -2.11334 0
M  V30 966 H 92.5483 -0.702791 -0.221933 0
M  V30 967 H 95.1903 -1.8961 0.12175 0
M  V30 968 H 93.3403 -3.42626 -1.83139 0
M  V30 969 H 95.0123 -4.58506 0.506971 0
M  V30 970 H 93.2553 -4.30354 0.545672 0
M  V30 971 H 93.9263 -5.48967 -0.577861 0
M  V30 972 H 96.4023 -3.84716 -1.58534 0
M  V30 973 H 95.2783 -4.88914 -2.49507 0
M  V30 974 H 95.5393 -3.23215 -3.01636 0
M  V30 975 N 94.5984 0.214957 -1.56127 0
M  V30 976 C 95.5284 1.2695 -1.95974 0
M  V30 977 C 96.5094 1.48539 -0.828868 0
M  V30 978 O 97.6944 1.60611 -1.09168 0
M  V30 979 C 94.8244 2.61794 -2.28214 0
M  V30 980 C 93.7784 2.54851 -3.43853 0
M  V30 981 C 93.1044 3.93785 -3.61715 0
M  V30 982 C 94.4044 2.09065 -4.78632 0
M  V30 983 H 96.0984 0.93846 -2.84312 0
M  V30 984 H 93.6444 0.449996 -1.36788 0
M  V30 985 H 95.5974 3.35731 -2.54682 0
M  V30 986 H 94.3214 2.96599 -1.36736 0
M  V30 987 H 92.9804 1.8337 -3.17444 0
M  V30 988 H 92.6284 4.25908 -2.67602 0
M  V30 989 H 92.3284 3.90019 -4.39498 0
M  V30 990 H 93.8524 4.69374 -3.90539 0
M  V30 991 H 95.2664 2.7275 -5.04262 0
M  V30 992 H 93.6634 2.16346 -5.59745 0
M  V30 993 H 94.7334 1.04315 -4.73547 0
M  V30 994 N 96.0765 1.50051 0.48192 0
M  V30 995 C 97.3245 1.60181 1.23234 0
M  V30 996 C 97.6455 0.299176 1.92691 0
M  V30 997 O 96.9155 -0.682708 1.83619 0
M  V30 998 H 95.4955 0.590232 0.457859 0
M  V30 999 H 98.1575 1.86775 0.556881 0
M  V30 1000 H 97.2535 2.40753 1.98607 0
M  V30 1001 N 97.5546 -0.734337 1.39446 0
M  V30 1002 C 98.5016 -1.84835 1.38219 0
M  V30 1003 C 99.4716 -1.64331 0.24179 0
M  V30 1004 O 100.657 -1.85728 0.437002 0
M  V30 1005 C 97.7966 -3.22355 1.23212 0
M  V30 1006 C 96.9096 -3.5456 2.46801 0
M  V30 1007 C 96.0446 -4.81485 2.24377 0
M  V30 1008 C 95.0836 -5.06536 3.43639 0
M  V30 1009 N 94.2206 -6.24665 3.20528 0
M  V30 1010 H 99.0606 -1.85219 2.33448 0
M  V30 1011 H 96.5976 -0.905039 1.15963 0
M  V30 1012 H 98.5556 -4.0174 1.12522 0
M  V30 1013 H 97.1856 -3.21248 0.316121 0
M  V30 1014 H 96.2376 -2.69872 2.68092 0
M  V30 1015 H 97.5496 -3.6899 3.3563 0
M  V30 1016 H 96.7036 -5.68852 2.10933 0
M  V30 1017 H 95.4426 -4.6923 1.32944 0
M  V30 1018 H 94.4476 -4.17632 3.5758 0
M  V30 1019 H 95.6726 -5.20676 4.35974 0
M  V30 1020 H 93.6186 -6.13696 2.3176 0
M  V30 1021 H 93.5356 -6.39685 4.02913 0
M  V30 1022 H 94.8036 -7.14868 3.10779 0
M  V30 1023 N 99.0327 -1.24633 -0.964593 0
M  V30 1024 C 100.258 -1.11596 -1.74818 0
M  V30 1025 C 100.683 0.32723 -1.85232 0
M  V30 1026 O 100.041 1.23695 -1.32549 0
M  V30 1027 C 100.089 -1.76397 -3.1451 0
M  V30 1028 O 99.1927 -1.03685 -3.99153 0
M  V30 1029 H 98.5337 -0.390196 -0.537255 0
M  V30 1030 H 101.064 -1.65002 -1.20977 0
M  V30 1031 H 101.074 -1.8228 -3.65018 0
M  V30 1032 H 99.7487 -2.81401 -3.06246 0
M  V30 1033 H 98.3257 -1.05611 -3.57632 0
M  V30 1034 N 100.511 1.16574 -1.06058 0
M  V30 1035 C 101.759 1.86677 -0.77434 0
M  V30 1036 C 102.08 1.81959 0.701147 0
M  V30 1037 O 101.35 1.2515 1.50713 0
M  V30 1038 H 99.9298 0.691134 -0.283449 0
M  V30 1039 H 102.592 1.41378 -1.34158 0
M  V30 1040 H 101.688 2.92181 -1.09711 0
M  V30 1041 N 101.989 0.842826 1.3317 0
M  V30 1042 C 102.899 0.281444 2.32906 0
M  V30 1043 C 103.915 -0.594587 1.63526 0
M  V30 1044 O 105.091 -0.49777 1.95152 0
M  V30 1045 C 102.156 -0.530929 3.42611 0
M  V30 1046 C 101.217 0.369843 4.27704 0
M  V30 1047 C 100.45 -0.403853 5.3217 0
M  V30 1048 O 100.673 -1.63513 5.46461 0
M  V30 1049 O 99.6069 0.224199 6.01482 0
M  V30 1050 H 103.433 1.10744 2.82789 0
M  V30 1051 H 101.018 0.60545 1.36582 0
M  V30 1052 H 102.9 -0.992437 4.09547 0
M  V30 1053 H 101.575 -1.33392 2.94938 0
M  V30 1054 H 100.482 0.879275 3.6362 0
M  V30 1055 H 101.815 1.13771 4.78871 0
M  V30 1056 N 103.467 -1.45747 0.599634 0
M  V30 1057 C 104.397 -2.33235 -0.111306 0
M  V30 1058 C 105.378 -1.46359 -0.866781 0
M  V30 1059 O 106.563 -1.75146 -0.838904 0
M  V30 1060 C 103.693 -3.28932 -1.11451 0
M  V30 1061 C 102.647 -4.25381 -0.472772 0
M  V30 1062 C 101.973 -5.1071 -1.58365 0
M  V30 1063 C 103.273 -5.18831 0.600948 0
M  V30 1064 H 104.967 -2.92927 0.61919 0
M  V30 1065 H 102.513 -1.40857 0.299215 0
M  V30 1066 H 104.466 -3.89002 -1.62036 0
M  V30 1067 H 103.19 -2.67381 -1.8755 0
M  V30 1068 H 101.849 -3.66598 0.0121472 0
M  V30 1069 H 101.497 -4.45533 -2.33473 0
M  V30 1070 H 101.197 -5.7604 -1.15982 0
M  V30 1071 H 102.721 -5.73647 -2.09194 0
M  V30 1072 H 104.135 -5.73019 0.179491 0
M  V30 1073 H 102.532 -5.92595 0.946076 0
M  V30 1074 H 103.602 -4.6174 1.48068 0
M  V30 1075 N 104.945 -0.338344 -1.53925 0
M  V30 1076 C 105.892 0.520845 -2.24846 0
M  V30 1077 C 106.862 1.09976 -1.24477 0
M  V30 1078 O 108.047 1.13735 -1.53196 0
M  V30 1079 C 105.187 1.6685 -3.02084 0
M  V30 1080 C 104.3 1.11739 -4.17299 0
M  V30 1081 C 103.435 2.23193 -4.82036 0
M  V30 1082 C 102.474 1.65407 -5.89328 0
M  V30 1083 N 101.611 2.70582 -6.47866 0
M  V30 1084 H 106.451 -0.0904881 -2.97863 0
M  V30 1085 H 103.988 -0.0564282 -1.46992 0
M  V30 1086 H 105.946 2.34407 -3.45122 0
M  V30 1087 H 104.576 2.2509 -2.31375 0
M  V30 1088 H 103.628 0.332919 -3.7894 0
M  V30 1089 H 104.94 0.654677 -4.94485 0
M  V30 1090 H 104.094 2.98626 -5.28117 0
M  V30 1091 H 102.833 2.72807 -4.04262 0
M  V30 1092 H 101.838 0.884779 -5.42634 0
M  V30 1093 H 103.063 1.16652 -6.69006 0
M  V30 1094 H 101.009 3.1946 -5.72959 0
M  V30 1095 H 100.926 2.28917 -7.20509 0
M  V30 1096 H 102.194 3.45799 -6.98601 0
M  V30 1097 N 106.423 1.57458 -0.0668435 0
M  V30 1098 C 107.651 1.97624 0.612565 0
M  V30 1099 C 108.066 0.94502 1.63447 0
M  V30 1100 O 107.423 -0.0689276 1.8237 0
M  V30 1101 C 107.474 3.37869 1.28555 0
M  V30 1102 O 107.195 4.3704 0.304557 0
M  V30 1103 C 108.696 3.92882 2.05325 0
M  V30 1104 H 105.916 0.650045 0.166381 0
M  V30 1105 H 108.46 2.04035 -0.137782 0
M  V30 1106 H 106.615 3.3256 1.98702 0
M  V30 1107 H 107.029 5.18565 0.786779 0
M  V30 1108 H 108.503 4.93247 2.47812 0
M  V30 1109 H 108.98 3.29156 2.9078 0
M  V30 1110 H 109.586 4.01577 1.40056 0
M  V30 1111 N 107.901 -0.206675 1.56239 0
M  V30 1112 C 109.147 -0.925733 1.81113 0
M  V30 1113 C 109.502 -1.81368 0.642135 0
M  V30 1114 O 108.795 -1.88126 -0.363211 0
M  V30 1115 C 108.989 -1.78675 3.09532 0
M  V30 1116 C 108.818 -0.98365 4.3881 0
M  V30 1117 C 107.588 -0.672661 5.00803 0
M  V30 1118 C 109.786 -0.341847 5.13163 0
M  V30 1119 N 107.768 0.150283 6.13716 0
M  V30 1120 C 109.139 0.343815 6.19046 0
M  V30 1121 C 111.194 -0.256392 4.97239 0
M  V30 1122 C 109.897 1.10678 7.10734 0
M  V30 1123 C 111.923 0.493142 5.8934 0
M  V30 1124 C 111.285 1.16729 6.94661 0
M  V30 1125 H 107.384 -0.318524 0.714189 0
M  V30 1126 H 109.968 -0.195378 1.93717 0
M  V30 1127 H 108.139 -2.4888 2.98183 0
M  V30 1128 H 109.871 -2.44441 3.22538 0
M  V30 1129 H 106.626 -0.994294 4.63045 0
M  V30 1130 H 107.05 0.551026 6.74754 0
M  V30 1131 H 111.692 -0.763249 4.15854 0
M  V30 1132 H 109.41 1.6251 7.91591 0
M  V30 1133 H 112.996 0.560465 5.79094 0
M  V30 1134 H 111.876 1.738 7.64698 0
M  V30 1135 N 109.379 -1.50304 -0.473955 0
M  V30 1136 C 110.627 -1.60832 -1.22382 0
M  V30 1137 C 110.948 -0.30939 -1.9253 0
M  V30 1138 O 110.218 0.67296 -1.83978 0
M  V30 1139 H 108.798 -0.592652 -0.454723 0
M  V30 1140 H 111.46 -1.87068 -0.546968 0
M  V30 1141 H 110.556 -2.41803 -1.97327 0
M  V30 1142 N 110.857 0.726932 -1.39834 0
M  V30 1143 C 111.787 1.85405 -1.41941 0
M  V30 1144 C 112.768 1.67751 -0.281728 0
M  V30 1145 O 113.953 1.8795 -0.488717 0
M  V30 1146 C 111.083 3.23243 -1.2701 0
M  V30 1147 C 110.037 3.55549 -2.38262 0
M  V30 1148 C 109.363 4.9241 -2.08415 0
M  V30 1149 C 110.663 3.577 -3.80589 0
M  V30 1150 H 112.357 1.83899 -2.36266 0
M  V30 1151 H 109.903 0.883349 -1.13723 0
M  V30 1152 H 111.856 4.01775 -1.27103 0
M  V30 1153 H 110.58 3.25296 -0.291564 0
M  V30 1154 H 109.239 2.79351 -2.37399 0
M  V30 1155 H 108.887 4.91052 -1.0898 0
M  V30 1156 H 108.587 5.14992 -2.82943 0
M  V30 1157 H 110.111 5.73289 -2.10171 0
M  V30 1158 H 111.525 4.26293 -3.83337 0
M  V30 1159 H 109.922 3.91804 -4.54543 0
M  V30 1160 H 110.992 2.57328 -4.10987 0
M  V30 1161 N 112.336 1.25143 0.95797 0
M  V30 1162 C 113.582 1.09855 1.70469 0
M  V30 1163 C 113.915 -0.360187 1.90831 0
M  V30 1164 O 113.19 -1.26568 1.47685 0
M  V30 1165 C 113.473 1.8497 3.08963 0
M  V30 1166 C 113.326 3.38652 2.96032 0
M  V30 1167 C 114.645 1.63016 4.08795 0
M  V30 1168 H 111.764 0.400465 0.618706 0
M  V30 1169 H 114.406 1.53933 1.11376 0
M  V30 1170 H 112.556 1.47505 3.59409 0
M  V30 1171 H 114.228 3.85772 2.52938 0
M  V30 1172 H 112.471 3.66534 2.32025 0
M  V30 1173 H 113.142 3.8642 3.94187 0
M  V30 1174 H 115.618 1.95625 3.67247 0
M  V30 1175 H 114.494 2.18015 5.03747 0
M  V30 1176 H 114.755 0.570692 4.38401 0
M  V30 1177 N 113.814 -1.1601 1.06675 0
M  V30 1178 C 114.744 -2.22688 0.702307 0
M  V30 1179 C 115.725 -1.67306 -0.307032 0
M  V30 1180 O 116.91 -1.93352 -0.181305 0
M  V30 1181 C 114.04 -3.47178 0.092038 0
M  V30 1182 C 112.994 -4.15477 1.02777 0
M  V30 1183 C 112.32 -5.33963 0.28061 0
M  V30 1184 C 113.62 -4.66019 2.35846 0
M  V30 1185 H 115.314 -2.53429 1.59419 0
M  V30 1186 H 112.86 -1.21813 0.767961 0
M  V30 1187 H 114.813 -4.21037 -0.174814 0
M  V30 1188 H 113.537 -3.15749 -0.834877 0
M  V30 1189 H 112.196 -3.43549 1.27944 0
M  V30 1190 H 111.844 -4.98788 -0.649545 0
M  V30 1191 H 111.544 -5.806 0.904258 0
M  V30 1192 H 113.068 -6.10596 0.021396 0
M  V30 1193 H 114.482 -5.3144 2.15045 0
M  V30 1194 H 112.879 -5.23293 2.93743 0
M  V30 1195 H 113.949 -3.82023 2.98641 0
M  V30 1196 N 115.292 -0.849877 -1.32721 0
M  V30 1197 C 116.54 -0.450032 -1.97026 0
M  V30 1198 C 116.861 0.996604 -1.67609 0
M  V30 1199 O 116.131 1.6958 -0.980786 0
M  V30 1200 H 114.711 -0.163426 -0.728904 0
M  V30 1201 H 117.373 -1.08526 -1.6189 0
M  V30 1202 H 116.469 -0.591146 -3.0645 0
M  V30 1203 N 116.77 1.45427 -0.607355 0
M  V30 1204 C 117.733 2.28974 0.101693 0
M  V30 1205 C 118.733 1.39754 0.795329 0
M  V30 1206 O 119.923 1.61878 0.643527 0
M  V30 1207 C 117.055 3.20768 1.15414 0
M  V30 1208 H 118.248 2.93147 -0.632844 0
M  V30 1209 H 115.801 1.51945 -0.366391 0
M  V30 1210 H 116.536 2.61395 1.91945 0
M  V30 1211 H 116.321 3.86489 0.66098 0
M  V30 1212 H 117.811 3.83589 1.65073 0
M  V30 1213 N 118.248 0.346503 1.53744 0
M  V30 1214 C 119.178 -0.501193 2.28058 0
M  V30 1215 C 120.159 -1.10014 1.29734 0
M  V30 1216 O 121.344 -1.12097 1.58581 0
M  V30 1217 C 118.474 -1.65078 3.05559 0
M  V30 1218 C 117.428 -1.18003 4.11411 0
M  V30 1219 C 116.754 -2.41837 4.76884 0
M  V30 1220 C 118.054 -0.278394 5.21558 0
M  V30 1221 H 119.748 0.11875 2.99164 0
M  V30 1222 H 117.294 0.0585531 1.43881 0
M  V30 1223 H 119.247 -2.25028 3.56287 0
M  V30 1224 H 117.971 -2.29767 2.32109 0
M  V30 1225 H 116.63 -0.603331 3.61601 0
M  V30 1226 H 116.278 -3.0494 4.00026 0
M  V30 1227 H 115.978 -2.1102 5.48402 0
M  V30 1228 H 117.502 -3.02508 5.30397 0
M  V30 1229 H 118.916 -0.784823 5.67903 0
M  V30 1230 H 117.313 -0.0619707 6.00068 0
M  V30 1231 H 118.383 0.684677 4.80042 0
M  V30 1232 N 119.726 -1.57421 0.075193 0
M  V30 1233 C 120.673 -2.12915 -0.890843 0
M  V30 1234 C 121.643 -1.04252 -1.29309 0
M  V30 1235 O 122.828 -1.31933 -1.37834 0
M  V30 1236 C 119.968 -2.69795 -2.15186 0
M  V30 1237 C 119.081 -3.92624 -1.80194 0
M  V30 1238 C 118.216 -4.37736 -3.00933 0
M  V30 1239 C 117.255 -5.53205 -2.61974 0
M  V30 1240 N 116.392 -5.9326 -3.75483 0
M  V30 1241 H 121.232 -2.95156 -0.410735 0
M  V30 1242 H 118.769 -1.45854 -0.191086 0
M  V30 1243 H 120.727 -3.00883 -2.89008 0
M  V30 1244 H 119.357 -1.90313 -2.60731 0
M  V30 1245 H 118.409 -3.67977 -0.964218 0
M  V30 1246 H 119.721 -4.76482 -1.47534 0
M  V30 1247 H 118.875 -4.70503 -3.8303 0
M  V30 1248 H 117.614 -3.52739 -3.36789 0
M  V30 1249 H 116.619 -5.20086 -1.783 0
M  V30 1250 H 117.844 -6.39936 -2.27284 0
M  V30 1251 H 115.79 -5.11212 -4.11094 0
M  V30 1252 H 115.707 -6.71865 -3.46602 0
M  V30 1253 H 116.975 -6.30651 -4.58148 0
M  V30 1254 N 121.204 0.198386 -1.56346 0
M  V30 1255 C 122.167 1.22952 -1.93431 0
M  V30 1256 C 123.167 1.38611 -0.815092 0
M  V30 1257 O 124.357 1.36479 -1.08255 0
M  V30 1258 C 121.489 2.59946 -2.20546 0
M  V30 1259 H 122.682 0.912626 -2.85677 0
M  V30 1260 H 120.235 0.43977 -1.49986 0
M  V30 1261 H 120.97 2.96696 -1.30927 0
M  V30 1262 H 120.755 2.49953 -3.02102 0
M  V30 1263 H 122.245 3.3431 -2.50253 0
M  V30 1264 N 122.682 1.50554 0.465978 0
M  V30 1265 C 123.645 1.69233 1.54574 0
M  V30 1266 C 124.645 0.562901 1.50626 0
M  V30 1267 O 125.835 0.830016 1.53155 0
M  V30 1268 C 122.967 1.7223 2.94193 0
M  V30 1269 H 124.16 2.65571 1.39327 0
M  V30 1270 H 121.713 1.40111 0.692711 0
M  V30 1271 H 122.448 0.77603 3.14878 0
M  V30 1272 H 122.233 2.54285 2.98466 0
M  V30 1273 H 123.723 1.88618 3.72576 0
M  V30 1274 N 124.16 -0.719506 1.40217 0
M  V30 1275 C 125.576 -1.02707 1.22161 0
M  V30 1276 C 125.776 -2.0128 0.0940557 0
M  V30 1277 O 124.832 -2.46452 -0.549318 0
M  V30 1278 C 126.145 -1.57454 2.56181 0
M  V30 1279 C 127.693 -1.69458 2.63159 0
M  V30 1280 C 128.168 -2.27611 3.97438 0
M  V30 1281 N 129.659 -2.35002 3.99159 0
M  V30 1282 C 130.394 -2.80972 4.99842 0
M  V30 1283 N 129.89 -3.26723 6.10921 0
M  V30 1284 N 131.683 -2.80321 4.87213 0
M  V30 1285 H 123.834 -0.0660492 2.12297 0
M  V30 1286 H 126.097 -0.0919077 0.943534 0
M  V30 1287 H 125.803 -0.924873 3.39321 0
M  V30 1288 H 125.677 -2.56036 2.76993 0
M  V30 1289 H 128.064 -2.33543 1.80393 0
M  V30 1290 H 128.145 -0.694867 2.46181 0
M  V30 1291 H 127.789 -1.6415 4.80643 0
M  V30 1292 H 127.719 -3.2829 4.11744 0
M  V30 1293 H 130.21 -2.02685 3.18947 0
M  V30 1294 H 130.523 -3.60355 6.8364 0
M  V30 1295 H 128.868 -3.24692 6.14492 0
M  V30 1296 H 132.059 -2.43912 3.9953 0
M  V30 1297 H 132.232 -3.15831 5.65822 0
M  V30 1298 N 125.638 -1.25649 -0.95132 0
M  V30 1299 C 126.548 -1.08073 -2.08224 0
M  V30 1300 C 127.564 -0.0169666 -1.73992 0
M  V30 1301 O 128.74 -0.218593 -2.0021 0
M  V30 1302 C 125.805 -0.704922 -3.39458 0
M  V30 1303 C 124.866 -1.84699 -3.87537 0
M  V30 1304 C 124.099 -1.48902 -5.12508 0
M  V30 1305 O 124.322 -0.386156 -5.69091 0
M  V30 1306 O 123.256 -2.32033 -5.55378 0
M  V30 1307 H 127.082 -2.02924 -2.25954 0
M  V30 1308 H 124.667 -1.04618 -1.06656 0
M  V30 1309 H 126.549 -0.507609 -4.18332 0
M  V30 1310 H 125.224 0.214291 -3.2299 0
M  V30 1311 H 124.131 -2.09919 -3.09653 0
M  V30 1312 H 125.464 -2.74557 -4.08509 0
M  V30 1313 N 127.117 1.15442 -1.07289 0
M  V30 1314 C 128.027 2.23786 -0.704057 0
M  V30 1315 C 129.043 1.7166 0.284413 0
M  V30 1316 O 130.219 2.00972 0.131205 0
M  V30 1317 C 127.284 3.46535 -0.106792 0
M  V30 1318 C 126.345 4.13654 -1.14842 0
M  V30 1319 C 125.578 5.30544 -0.57956 0
M  V30 1320 O 125.801 5.67187 0.604585 0
M  V30 1321 O 124.735 5.87154 -1.32414 0
M  V30 1322 H 128.561 2.57664 -1.60757 0
M  V30 1323 H 126.146 1.23152 -0.845803 0
M  V30 1324 H 128.028 4.20804 0.224048 0
M  V30 1325 H 126.703 3.14407 0.770049 0
M  V30 1326 H 125.61 3.4131 -1.5316 0
M  V30 1327 H 126.943 4.49861 -1.99714 0
M  V30 1328 N 128.595 0.856903 1.32268 0
M  V30 1329 C 129.527 0.260412 2.27716 0
M  V30 1330 C 130.54 -0.569137 1.52528 0
M  V30 1331 O 131.729 -0.39326 1.74114 0
M  V30 1332 C 128.829 -0.650477 3.32599 0
M  V30 1333 C 128.002 0.14372 4.37164 0
M  V30 1334 C 127.061 -0.69328 5.21613 0
M  V30 1335 O 126.087 -0.12599 5.69061 0
M  V30 1336 N 127.289 -2.00761 5.44679 0
M  V30 1337 H 130.054 1.08059 2.79541 0
M  V30 1338 H 127.615 0.717103 1.45152 0
M  V30 1339 H 129.607 -1.21581 3.86005 0
M  V30 1340 H 128.177 -1.37133 2.80915 0
M  V30 1341 H 127.397 0.890486 3.8401 0
M  V30 1342 H 128.685 0.68915 5.04111 0
M  V30 1343 H 128.083 -2.49181 5.07863 0
M  V30 1344 H 126.64 -2.52103 6.01072 0
M  V30 1345 N 130.073 -1.45103 0.615059 0
M  V30 1346 C 131.319 -2.02483 0.113347 0
M  V30 1347 C 131.652 -1.48146 -1.25564 0
M  V30 1348 O 130.927 -0.659104 -1.82992 0
M  V30 1349 C 131.21 -3.60005 0.0825278 0
M  V30 1350 C 131.063 -4.2466 1.48271 0
M  V30 1351 C 132.382 -4.35972 -0.601401 0
M  V30 1352 H 129.501 -0.735764 0.0426632 0
M  V30 1353 H 132.143 -1.72868 0.788461 0
M  V30 1354 H 130.293 -3.85367 -0.492378 0
M  V30 1355 H 131.965 -4.10458 2.10527 0
M  V30 1356 H 130.208 -3.82772 2.04127 0
M  V30 1357 H 130.879 -5.336 1.41332 0
M  V30 1358 H 133.355 -4.15947 -0.112666 0
M  V30 1359 H 132.231 -5.45697 -0.592097 0
M  V30 1360 H 132.492 -4.09391 -1.66887 0
M  V30 1361 N 131.551 -0.354651 -1.53558 0
M  V30 1362 C 132.779 0.239515 -2.05509 0
M  V30 1363 C 133.194 1.4333 -1.2289 0
M  V30 1364 O 132.551 1.80538 -0.266899 0
M  V30 1365 C 132.602 0.643719 -3.55723 0
M  V30 1366 O 132.323 -0.502602 -4.35207 0
M  V30 1367 C 133.824 1.29743 -4.23889 0
M  V30 1368 H 131.044 0.0442697 -0.669538 0
M  V30 1369 H 133.588 -0.509856 -1.98042 0
M  V30 1370 H 131.743 1.34302 -3.63376 0
M  V30 1371 H 132.157 -0.178172 -5.24197 0
M  V30 1372 H 133.631 1.53091 -5.30346 0
M  V30 1373 H 134.108 2.25441 -3.76926 0
M  V30 1374 H 134.714 0.639865 -4.20459 0
M  V30 1375 N 133.029 1.57378 -0.0835403 0
M  V30 1376 C 134.254 1.98682 0.594987 0
M  V30 1377 C 134.679 0.961969 1.61641 0
M  V30 1378 O 134.037 -0.0709989 1.81161 0
M  V30 1379 C 134.085 3.38988 1.2296 0
M  V30 1380 O 133.189 3.39208 2.34546 0
M  V30 1381 H 132.53 0.646368 0.152002 0
M  V30 1382 H 135.06 2.03961 -0.161533 0
M  V30 1383 H 135.07 3.76431 1.57366 0
M  V30 1384 H 133.745 4.13107 0.481228 0
M  V30 1385 H 132.322 3.13548 2.01846 0
M  V30 1386 N 134.507 -0.190092 1.56449 0
M  V30 1387 C 135.417 -1.25591 1.98152 0
M  V30 1388 C 136.433 -1.49519 0.889944 0
M  V30 1389 O 137.609 -1.62036 1.19609 0
M  V30 1390 C 134.674 -2.57916 2.3169 0
M  V30 1391 C 133.735 -2.42015 3.5458 0
M  V30 1392 C 132.968 -3.6803 3.8651 0
M  V30 1393 O 133.191 -4.72413 3.1966 0
M  V30 1394 O 132.125 -3.6326 4.79923 0
M  V30 1395 H 135.951 -0.931988 2.89046 0
M  V30 1396 H 133.536 -0.395488 1.4407 0
M  V30 1397 H 135.418 -3.36008 2.54316 0
M  V30 1398 H 134.093 -2.89925 1.43963 0
M  V30 1399 H 133 -1.62017 3.37196 0
M  V30 1400 H 134.333 -2.14937 4.4279 0
M  V30 1401 N 135.985 -1.50799 -0.457987 0
M  V30 1402 C 136.917 -1.66786 -1.57211 0
M  V30 1403 C 137.93 -0.548962 -1.53265 0
M  V30 1404 O 139.119 -0.8226 -1.58416 0
M  V30 1405 C 136.219 -1.64834 -2.96113 0
M  V30 1406 C 135.392 -2.92971 -3.24787 0
M  V30 1407 C 134.451 -2.83485 -4.43309 0
M  V30 1408 O 133.477 -3.5744 -4.42973 0
M  V30 1409 N 134.679 -1.97929 -5.45714 0
M  V30 1410 H 137.444 -2.62889 -1.43909 0
M  V30 1411 H 135.005 -1.48427 -0.646617 0
M  V30 1412 H 136.997 -1.56084 -3.7339 0
M  V30 1413 H 135.567 -0.764118 -3.03117 0
M  V30 1414 H 134.787 -3.15749 -2.36 0
M  V30 1415 H 136.075 -3.77834 -3.40762 0
M  V30 1416 H 135.473 -1.37182 -5.48815 0
M  V30 1417 H 134.03 -1.95073 -6.21924 0
M  V30 1418 N 137.463 0.71206 -1.40597 0
M  V30 1419 C 138.426 1.80785 -1.40888 0
M  V30 1420 C 139.426 1.57937 -0.302103 0
M  V30 1421 O 140.616 1.64913 -0.561182 0
M  V30 1422 C 137.748 3.18927 -1.20409 0
M  V30 1423 H 138.941 1.81924 -2.38419 0
M  V30 1424 H 136.494 0.91805 -1.26497 0
M  V30 1425 H 137.229 3.23436 -0.236522 0
M  V30 1426 H 137.014 3.36911 -2.00582 0
M  V30 1427 H 138.504 3.98949 -1.23408 0
M  V30 1428 N 138.941 1.26152 0.944643 0
M  V30 1429 C 139.888 1.07408 2.04285 0
M  V30 1430 C 140.858 -0.0198413 1.66088 0
M  V30 1431 O 142.043 0.139264 1.90291 0
M  V30 1432 C 139.183 0.70945 3.37729 0
M  V30 1433 C 138.296 1.87926 3.88983 0
M  V30 1434 C 137.431 1.45807 5.10797 0
M  V30 1435 C 136.47 2.5964 5.54305 0
M  V30 1436 N 135.607 2.18226 6.67324 0
M  V30 1437 H 140.447 2.01389 2.1965 0
M  V30 1438 H 137.984 1.00275 1.07626 0
M  V30 1439 H 139.942 0.478948 4.14442 0
M  V30 1440 H 138.572 -0.193389 3.2222 0
M  V30 1441 H 137.624 2.22279 3.08701 0
M  V30 1442 H 138.936 2.73377 4.17213 0
M  V30 1443 H 138.09 1.18781 5.94959 0
M  V30 1444 H 136.829 0.574414 4.84305 0
M  V30 1445 H 135.834 2.87399 4.68702 0
M  V30 1446 H 137.059 3.48599 5.828 0
M  V30 1447 H 135.005 1.3229 6.42523 0
M  V30 1448 H 134.922 2.97221 6.95123 0
M  V30 1449 H 136.19 1.94403 7.54869 0
M  V30 1450 N 140.419 -1.14872 1.07899 0
M  V30 1451 C 141.666 -1.85789 0.805532 0
M  V30 1452 C 141.994 -1.82649 -0.668561 0
M  V30 1453 O 141.249 -1.24858 -1.50695 0
M  V30 1454 C 141.548 -3.34223 1.26609 0
M  V30 1455 C 141.214 -3.57555 2.74709 0
M  V30 1456 C 139.876 -3.63631 3.1516 0
M  V30 1457 C 142.228 -3.66803 3.70277 0
M  V30 1458 C 139.556 -3.76473 4.49983 0
M  V30 1459 C 141.908 -3.8117 5.04869 0
M  V30 1460 C 140.572 -3.85494 5.44932 0
M  V30 1461 H 139.842 -0.679849 0.294765 0
M  V30 1462 H 142.489 -1.3572 1.35101 0
M  V30 1463 H 140.794 -3.86536 0.640103 0
M  V30 1464 H 142.491 -3.87511 1.03132 0
M  V30 1465 H 139.081 -3.5347 2.42398 0
M  V30 1466 H 143.265 -3.61404 3.40149 0
M  V30 1467 H 138.521 -3.7808 4.80484 0
M  V30 1468 H 142.695 -3.87268 5.78789 0
M  V30 1469 H 140.322 -3.95197 6.49403 0
M  V30 1470 N 141.898 -0.863906 -1.31812 0
M  V30 1471 C 143.144 -0.481841 -1.9761 0
M  V30 1472 C 143.499 0.954048 -1.6708 0
M  V30 1473 O 142.792 1.66182 -0.953624 0
M  V30 1474 C 142.986 -0.668547 -3.51091 0
M  V30 1475 C 142.815 -2.12103 -3.96538 0
M  V30 1476 C 141.585 -2.76141 -4.23171 0
M  V30 1477 C 143.783 -3.09265 -4.10925 0
M  V30 1478 N 141.765 -4.12205 -4.54929 0
M  V30 1479 C 143.136 -4.30341 -4.46326 0
M  V30 1480 C 145.191 -3.05337 -3.93286 0
M  V30 1481 C 143.894 -5.48 -4.65928 0
M  V30 1482 C 145.92 -4.22248 -4.14078 0
M  V30 1483 C 145.282 -5.42085 -4.49804 0
M  V30 1484 H 141.381 -0.225238 -0.74886 0
M  V30 1485 H 143.965 -1.11723 -1.59455 0
M  V30 1486 H 142.136 -0.0627898 -3.88349 0
M  V30 1487 H 143.868 -0.255467 -4.03893 0
M  V30 1488 H 140.623 -2.27125 -4.15585 0
M  V30 1489 H 141.047 -4.82416 -4.74978 0
M  V30 1490 H 145.689 -2.138 -3.64759 0
M  V30 1491 H 143.407 -6.40059 -4.93305 0
M  V30 1492 H 146.993 -4.20654 -4.01922 0
M  V30 1493 H 145.873 -6.31044 -4.65567 0
M  V30 1494 N 143.376 1.44774 -0.622745 0
M  V30 1495 C 144.306 2.33382 0.0741861 0
M  V30 1496 C 145.287 1.47719 0.843387 0
M  V30 1497 O 146.472 1.76458 0.810934 0
M  V30 1498 C 143.602 3.30663 1.06204 0
M  V30 1499 C 142.556 4.26079 0.405037 0
M  V30 1500 C 141.882 5.13165 1.5022 0
M  V30 1501 C 143.182 5.1781 -0.683414 0
M  V30 1502 H 144.876 2.91905 -0.665713 0
M  V30 1503 H 142.422 1.40363 -0.321587 0
M  V30 1504 H 144.375 3.9153 1.55827 0
M  V30 1505 H 143.099 2.70331 1.83272 0
M  V30 1506 H 141.758 3.66532 -0.0704683 0
M  V30 1507 H 141.406 4.49191 2.26355 0
M  V30 1508 H 141.106 5.77812 1.06803 0
M  V30 1509 H 142.63 5.76902 2.00041 0
M  V30 1510 H 144.044 5.72661 -0.270631 0
M  V30 1511 H 142.441 5.91015 -1.04023 0
M  V30 1512 H 143.511 4.59326 -1.55395 0
M  V30 1513 N 144.854 0.36279 1.53368 0
M  V30 1514 C 146.102 -0.227326 2.00817 0
M  V30 1515 C 146.423 -1.49511 1.25186 0
M  V30 1516 O 145.693 -1.92482 0.364348 0
M  V30 1517 H 144.273 -0.0869923 0.741917 0
M  V30 1518 H 146.935 0.488381 1.88682 0
M  V30 1519 H 146.031 -0.456273 3.08747 0
M  V30 1520 N 146.332 -1.57332 0.0918853 0
M  V30 1521 C 147.262 -2.16872 -0.865371 0
M  V30 1522 C 148.243 -1.10118 -1.29646 0
M  V30 1523 O 149.428 -1.38242 -1.36392 0
M  V30 1524 C 146.558 -2.74649 -2.12569 0
M  V30 1525 C 145.512 -3.86747 -1.83333 0
M  V30 1526 C 144.838 -4.31212 -3.16166 0
M  V30 1527 C 146.138 -5.10089 -1.1228 0
M  V30 1528 H 147.832 -2.97114 -0.369307 0
M  V30 1529 H 145.378 -1.42918 -0.176194 0
M  V30 1530 H 147.331 -3.14952 -2.7997 0
M  V30 1531 H 146.055 -1.91657 -2.64452 0
M  V30 1532 H 144.714 -3.46978 -1.18331 0
M  V30 1533 H 144.362 -3.45115 -3.6593 0
M  V30 1534 H 144.062 -5.06788 -2.97388 0
M  V30 1535 H 145.586 -4.74146 -3.84731 0
M  V30 1536 H 147 -5.47582 -1.69785 0
M  V30 1537 H 145.397 -5.91073 -1.03693 0
M  V30 1538 H 146.467 -4.84786 -0.105041 0
M  V30 1539 N 147.81 0.181792 -1.56548 0
M  V30 1540 C 149.058 0.89832 -1.81038 0
M  V30 1541 C 149.379 1.83232 -0.667164 0
M  V30 1542 O 148.649 1.93372 0.313673 0
M  V30 1543 H 147.229 0.33471 -0.667816 0
M  V30 1544 H 149.891 0.184116 -1.94028 0
M  V30 1545 H 148.987 1.4815 -2.74696 0
M  V30 1546 N 149.288 1.51039 0.449983 0
M  V30 1547 C 150.536 1.62759 1.19808 0
M  V30 1548 C 150.857 0.339981 1.92013 0
M  V30 1549 O 150.127 -0.643606 1.85026 0
M  V30 1550 H 148.707 0.599811 0.445237 0
M  V30 1551 H 151.369 1.87914 0.517138 0
M  V30 1552 H 150.465 2.44911 1.93455 0
M  V30 1553 N 150.766 -0.704594 1.40972 0
M  V30 1554 C 152.014 -1.46169 1.39568 0
M  V30 1555 C 152.335 -1.95 0.00253745 0
M  V30 1556 O 151.605 -1.71095 -0.954114 0
M  V30 1557 H 150.185 -0.542326 0.513704 0
M  V30 1558 H 152.847 -0.834553 1.76128 0
M  V30 1559 H 151.943 -2.32922 2.07735 0
M  V30 1560 N 152.244 -1.26651 -0.937939 0
M  V30 1561 C 153.66 -1.03834 -1.21205 0
M  V30 1562 C 153.86 0.234502 -2.00131 0
M  V30 1563 O 152.916 0.942767 -2.3424 0
M  V30 1564 C 154.229 -2.27167 -1.97017 0
M  V30 1565 C 155.777 -2.32101 -2.09996 0
M  V30 1566 C 156.252 -3.55136 -2.8921 0
M  V30 1567 N 157.743 -3.55632 -2.96783 0
M  V30 1568 C 158.478 -4.475 -3.58512 0
M  V30 1569 N 157.974 -5.4966 -4.21717 0
M  V30 1570 N 159.767 -4.35145 -3.55816 0
M  V30 1571 H 151.918 -2.08398 -0.410391 0
M  V30 1572 H 154.181 -0.916031 -0.244114 0
M  V30 1573 H 153.887 -3.19765 -1.46434 0
M  V30 1574 H 153.761 -2.31672 -2.97671 0
M  V30 1575 H 156.148 -1.40015 -2.59769 0
M  V30 1576 H 156.229 -2.31605 -1.08594 0
M  V30 1577 H 155.873 -4.47553 -2.40123 0
M  V30 1578 H 155.803 -3.5288 -3.90875 0
M  V30 1579 H 158.294 -2.81743 -2.51852 0
M  V30 1580 H 158.607 -6.15943 -4.66727 0
M  V30 1581 H 156.952 -5.53514 -4.20294 0
M  V30 1582 H 160.143 -3.5455 -3.05634 0
M  V30 1583 H 160.316 -5.06934 -4.03636 0
M  V30 1584 N 153.722 1.14298 -1.08507 0
M  V30 1585 C 154.968 1.85633 -0.816581 0
M  V30 1586 C 155.301 1.82784 0.656021 0
M  V30 1587 O 154.576 1.25926 1.48233 0
M  V30 1588 C 154.859 3.34223 -1.34041 0
M  V30 1589 C 154.712 3.45639 -2.87843 0
M  V30 1590 C 156.031 4.29356 -0.9665 0
M  V30 1591 H 153.15 0.67402 -0.298104 0
M  V30 1592 H 155.792 1.34214 -1.34487 0
M  V30 1593 H 153.942 3.78144 -0.89104 0
M  V30 1594 H 155.614 3.10498 -3.41158 0
M  V30 1595 H 153.857 2.86817 -3.25451 0
M  V30 1596 H 154.528 4.50089 -3.19569 0
M  V30 1597 H 157.004 3.93457 -1.35391 0
M  V30 1598 H 155.88 5.3178 -1.3602 0
M  V30 1599 H 156.141 4.41919 0.126362 0
M  V30 1600 N 155.201 0.870884 1.31352 0
M  V30 1601 C 156.426 0.495957 2.01383 0
M  V30 1602 C 156.851 -0.904324 1.64935 0
M  V30 1603 O 156.209 -1.59687 0.858466 0
M  V30 1604 C 156.257 0.661433 3.54482 0
M  V30 1605 O 155.361 -0.298851 4.11316 0
M  V30 1606 H 154.702 0.197158 0.634054 0
M  V30 1607 H 157.232 1.17455 1.67527 0
M  V30 1608 H 157.242 0.555072 4.04207 0
M  V30 1609 H 155.917 1.68246 3.8035 0
M  V30 1610 H 154.494 -0.147368 3.72609 0
M  V30 1611 N 156.679 -1.44442 0.630414 0
M  V30 1612 C 158.09 -1.85434 0.217063 0
M  V30 1613 C 158.441 -1.52748 -1.23136 0
M  V30 1614 O 157.566 -0.965205 -1.93682 0
M  V30 1615 C 158.161 -3.36581 0.387168 0
M  V30 1616 C 156.72 -3.76389 0.0283297 0
M  V30 1617 C 155.867 -2.68296 0.700889 0
M  V30 1618 H 158.818 -1.34919 0.83562 0
M  V30 1619 H 158.839 -3.78657 -0.374086 0
M  V30 1620 H 158.351 -3.60339 1.44144 0
M  V30 1621 H 156.452 -3.58246 -1.02423 0
M  V30 1622 H 156.565 -4.77095 0.437892 0
M  V30 1623 H 154.929 -2.54335 0.136267 0
M  V30 1624 H 155.712 -2.94887 1.75774 0
M  V30 1625 N 158.157 -0.370918 -1.53173 0
M  V30 1626 C 159.568 0.107139 -1.86392 0
M  V30 1627 C 159.919 1.47714 -1.29132 0
M  V30 1628 O 159.044 2.07464 -0.615439 0
M  V30 1629 C 159.639 0.201187 -3.38202 0
M  V30 1630 C 158.198 0.623507 -3.712 0
M  V30 1631 C 157.345 -0.225978 -2.76378 0
M  V30 1632 H 160.296 -0.58951 -1.47345 0
M  V30 1633 H 160.317 1.02377 -3.66468 0
M  V30 1634 H 159.829 -0.796058 -3.79848 0
M  V30 1635 H 157.93 1.62879 -3.35114 0
M  V30 1636 H 158.043 0.394414 -4.77474 0
M  V30 1637 H 156.407 0.305962 -2.52856 0
M  V30 1638 H 157.19 -1.22086 -3.20858 0
M  V30 1639 N 159.635 1.57281 -0.100228 0
M  V30 1640 C 160.883 1.94153 0.561157 0
M  V30 1641 C 161.204 0.983157 1.68401 0
M  V30 1642 O 160.474 0.0361132 1.95867 0
M  V30 1643 H 159.054 0.716791 0.210283 0
M  V30 1644 H 161.716 1.94202 -0.164765 0
M  V30 1645 H 160.812 2.96709 0.968008 0
M  V30 1646 N 161.113 -0.173488 1.56642 0
M  V30 1647 C 162.524 -0.736155 1.71574 0
M  V30 1648 C 162.875 -1.82888 0.710389 0
M  V30 1649 O 162 -2.16017 -0.1287 0
M  V30 1650 C 162.595 -1.34211 3.11083 0
M  V30 1651 C 161.154 -1.85162 3.27707 0
M  V30 1652 C 160.301 -0.729765 2.67525 0
M  V30 1653 H 163.252 0.0518786 1.58615 0
M  V30 1654 H 163.273 -2.21178 3.09613 0
M  V30 1655 H 162.785 -0.546579 3.84232 0
M  V30 1656 H 160.886 -2.67366 2.59512 0
M  V30 1657 H 160.999 -1.99855 4.35425 0
M  V30 1658 H 159.363 -1.14965 2.27278 0
M  V30 1659 H 160.146 0.0538806 3.43258 0
M  V30 1660 N 162.591 -1.51276 -0.441967 0
M  V30 1661 C 163.501 -1.75092 -1.56141 0
M  V30 1662 C 164.517 -0.634963 -1.62001 0
M  V30 1663 O 165.693 -0.916686 -1.79329 0
M  V30 1664 C 162.758 -1.86666 -2.92158 0
M  V30 1665 C 161.819 -3.10506 -2.96453 0
M  V30 1666 C 161.052 -3.21519 -4.25982 0
M  V30 1667 O 161.275 -2.38586 -5.18105 0
M  V30 1668 O 160.209 -4.14465 -4.36466 0
M  V30 1669 H 164.035 -2.70044 -1.38961 0
M  V30 1670 H 161.62 -1.35722 -0.624499 0
M  V30 1671 H 163.502 -1.96292 -3.72891 0
M  V30 1672 H 162.177 -0.949014 -3.09476 0
M  V30 1673 H 161.084 -3.06363 -2.14692 0
M  V30 1674 H 162.417 -4.01945 -2.84079 0
M  V30 1675 N 164.069 0.697108 -1.41344 0
M  V30 1676 C 165.309 1.46939 -1.42085 0
M  V30 1677 C 165.673 1.9198 -0.0280397 0
M  V30 1678 O 166.874 2.6865 0.0897504 0
M  V30 1679 C 165.145 2.64985 -2.39828 0
M  V30 1680 S 166.704 3.54147 -2.59085 0
M  V30 1681 H 163.522 0.502146 -0.503359 0
M  V30 1682 H 166.124 0.813546 -1.77769 0
M  V30 1683 H 164.828 2.30098 -3.39828 0
M  V30 1684 H 164.359 3.35464 -2.05493 0
M  V30 1685 H 166.374 4.60137 -1.85711 0
M  V30 1686 N 165.547 1.27147 0.931209 0
M  V30 1687 C 166.796 1.12664 1.67302 0
M  V30 1688 C 167.109 -0.327718 1.92835 0
M  V30 1689 O 168.315 -0.593392 2.64936 0
M  V30 1690 C 166.771 1.9683 3.01307 0
M  V30 1691 C 166.379 3.46901 2.83485 0
M  V30 1692 C 168.123 1.90985 3.79111 0
M  V30 1693 C 166.03 4.23279 4.13024 0
M  V30 1694 H 164.96 0.41803 0.627509 0
M  V30 1695 H 167.611 1.51539 1.03481 0
M  V30 1696 H 165.993 1.50797 3.66164 0
M  V30 1697 H 167.167 4.00773 2.27415 0
M  V30 1698 H 165.482 3.54088 2.19113 0
M  V30 1699 H 168.079 2.45328 4.75098 0
M  V30 1700 H 168.422 0.882718 4.06834 0
M  V30 1701 H 168.955 2.34895 3.21044 0
M  V30 1702 H 165.694 5.26503 3.90481 0
M  V30 1703 H 165.214 3.74186 4.6877 0
M  V30 1704 H 166.893 4.32265 4.81411 0
M  V30 1705 N 167.025 -1.13721 1.09112 0
M  V30 1706 C 167.935 -2.22638 0.73957 0
M  V30 1707 C 168.951 -1.72091 -0.257068 0
M  V30 1708 O 170.127 -2.01155 -0.0992154 0
M  V30 1709 C 167.192 -3.46322 0.16191 0
M  V30 1710 C 166.253 -4.11775 1.21408 0
M  V30 1711 C 165.486 -5.29555 0.663891 0
M  V30 1712 O 165.709 -5.68077 -0.514274 0
M  V30 1713 O 164.643 -5.84973 1.41738 0
M  V30 1714 H 168.469 -2.55074 1.64836 0
M  V30 1715 H 166.054 -1.21791 0.865289 0
M  V30 1716 H 167.936 -4.21107 -0.157073 0
M  V30 1717 H 166.611 -3.15593 -0.719932 0
M  V30 1718 H 165.518 -3.3883 1.58571 0
M  V30 1719 H 166.851 -4.46627 2.06845 0
M  V30 1720 N 168.503 -0.877838 -1.30888 0
M  V30 1721 C 169.45 -0.337538 -2.28318 0
M  V30 1722 C 170.42 0.568346 -1.56074 0
M  V30 1723 O 171.605 0.498298 -1.84178 0
M  V30 1724 C 168.745 0.448142 -3.42178 0
M  V30 1725 C 167.858 -0.48615 -4.29256 0
M  V30 1726 C 166.993 0.314427 -5.30269 0
M  V30 1727 C 166.032 -0.615791 -6.08995 0
M  V30 1728 N 165.169 0.14902 -7.01942 0
M  V30 1729 H 170.009 -1.17356 -2.73919 0
M  V30 1730 H 167.546 -0.590094 -1.34745 0
M  V30 1731 H 169.504 0.919517 -4.06941 0
M  V30 1732 H 168.134 1.24879 -2.97666 0
M  V30 1733 H 167.186 -1.076 -3.64865 0
M  V30 1734 H 168.498 -1.19909 -4.84173 0
M  V30 1735 H 167.652 0.847969 -6.00745 0
M  V30 1736 H 166.391 1.06062 -4.76027 0
M  V30 1737 H 165.396 -1.16102 -5.37401 0
M  V30 1738 H 166.621 -1.36097 -6.65323 0
M  V30 1739 H 164.567 0.877884 -6.50099 0
M  V30 1740 H 164.484 -0.504433 -7.54315 0
M  V30 1741 H 165.752 0.663537 -7.76671 0
M  V30 1742 N 169.982 1.44106 -0.638065 0
M  V30 1743 C 171.393 1.85316 -0.226894 0
M  V30 1744 C 171.744 1.53399 1.22324 0
M  V30 1745 O 170.869 0.975463 1.93167 0
M  V30 1746 C 171.464 3.3637 -0.405013 0
M  V30 1747 C 170.023 3.76369 -0.0482902 0
M  V30 1748 C 169.17 2.67921 -0.715108 0
M  V30 1749 H 172.121 1.34474 -0.842764 0
M  V30 1750 H 172.142 3.7885 0.354 0
M  V30 1751 H 171.654 3.59569 -1.46053 0
M  V30 1752 H 169.755 3.58784 1.00522 0
M  V30 1753 H 169.868 4.76856 -0.463187 0
M  V30 1754 H 168.232 2.54259 -0.149753 0
M  V30 1755 H 169.015 2.93951 -1.77335 0
M  V30 1756 N 171.46 0.379036 1.52974 0
M  V30 1757 C 172.423 -0.448865 2.24762 0
M  V30 1758 C 173.423 -0.998689 1.26027 0
M  V30 1759 O 174.613 -0.882313 1.50203 0
M  V30 1760 C 171.745 -1.62872 2.99476 0
M  V30 1761 H 172.938 0.179491 2.99362 0
M  V30 1762 H 170.491 0.13096 1.5575 0
M  V30 1763 H 171.226 -2.29479 2.29151 0
M  V30 1764 H 171.011 -1.24128 3.71934 0
M  V30 1765 H 172.501 -2.2151 3.5401 0
M  V30 1766 N 172.938 -1.57226 0.108567 0
M  V30 1767 C 174.166 -1.99179 -0.559954 0
M  V30 1768 C 174.581 -0.988022 -1.60884 0
M  V30 1769 O 173.938 0.0205512 -1.82488 0
M  V30 1770 C 173.989 -3.41159 -1.19552 0
M  V30 1771 O 173.71 -4.37694 -0.188577 0
M  V30 1772 C 175.211 -3.98188 -1.94837 0
M  V30 1773 H 172.431 -0.654228 -0.149088 0
M  V30 1774 H 174.975 -2.03598 0.19183 0
M  V30 1775 H 173.13 -3.37711 -1.89815 0
M  V30 1776 H 173.544 -5.20469 -0.649014 0
M  V30 1777 H 175.018 -4.99644 -2.34648 0
M  V30 1778 H 175.495 -3.3675 -2.81951 0
M  V30 1779 H 176.101 -4.0515 -1.2936 0
M  V30 1780 N 174.416 0.165178 -1.56732 0
M  V30 1781 C 175.326 1.22423 -2.00125 0
M  V30 1782 C 176.342 1.48084 -0.913619 0
M  V30 1783 O 177.518 1.60112 -1.22172 0
M  V30 1784 C 174.583 2.54197 -2.35764 0
M  V30 1785 C 173.644 2.36343 -3.58386 0
M  V30 1786 C 172.877 3.61834 -3.92316 0
M  V30 1787 O 173.1 4.67267 -3.27135 0
M  V30 1788 O 172.034 3.55579 -4.85641 0
M  V30 1789 H 175.86 0.885886 -2.90492 0
M  V30 1790 H 173.445 0.372518 -1.44681 0
M  V30 1791 H 175.327 3.3192 -2.59629 0
M  V30 1792 H 174.002 2.87598 -1.48557 0
M  V30 1793 H 172.909 1.56632 -3.39731 0
M  V30 1794 H 174.242 2.07865 -4.46154 0
M  V30 1795 N 175.894 1.51508 0.433938 0
M  V30 1796 C 177.31 1.39759 0.770682 0
M  V30 1797 C 177.51 0.482594 1.95636 0
M  V30 1798 O 176.566 -0.0609691 2.52426 0
M  V30 1799 C 177.879 2.81851 1.04787 0
M  V30 1800 C 179.427 2.91025 1.1521 0
M  V30 1801 C 179.902 4.34032 1.46219 0
M  V30 1802 N 181.393 4.37154 1.53136 0
M  V30 1803 C 182.128 5.4484 1.78709 0
M  V30 1804 N 181.624 6.62682 2.02051 0
M  V30 1805 N 183.417 5.32324 1.80519 0
M  V30 1806 H 175.568 2.09548 -0.346892 0
M  V30 1807 H 177.831 0.943446 -0.0928074 0
M  V30 1808 H 177.537 3.50815 0.249304 0
M  V30 1809 H 177.411 3.21386 1.97461 0
M  V30 1810 H 179.798 2.22257 1.94128 0
M  V30 1811 H 179.879 2.54983 0.204281 0
M  V30 1812 H 179.523 5.03351 0.678274 0
M  V30 1813 H 179.453 4.6759 2.42212 0
M  V30 1814 H 181.944 3.52197 1.36987 0
M  V30 1815 H 182.257 7.40543 2.20943 0
M  V30 1816 H 180.602 6.65791 1.99366 0
M  V30 1817 H 183.793 4.39246 1.61805 0
M  V30 1818 H 183.966 6.16328 2.00111 0
M  V30 1819 N 177.372 -0.689602 1.41712 0
M  V30 1820 C 178.788 -1.00093 1.24312 0
M  V30 1821 C 178.988 -2.01036 0.136729 0
M  V30 1822 O 178.044 -2.47562 -0.496918 0
M  V30 1823 C 179.357 -1.51985 2.59463 0
M  V30 1824 C 180.905 -1.63838 2.66695 0
M  V30 1825 C 181.38 -2.1913 4.02177 0
M  V30 1826 N 182.871 -2.26483 4.04054 0
M  V30 1827 C 183.606 -2.70306 5.0569 0
M  V30 1828 N 183.102 -3.13691 6.17713 0
M  V30 1829 N 184.895 -2.69923 4.9305 0
M  V30 1830 H 177.046 -0.0210029 2.1239 0
M  V30 1831 H 179.309 -0.0718733 0.945272 0
M  V30 1832 H 179.015 -0.85269 3.41207 0
M  V30 1833 H 178.889 -2.50103 2.82362 0
M  V30 1834 H 181.276 -2.29664 1.85306 0
M  V30 1835 H 181.357 -0.642492 2.476 0
M  V30 1836 H 181.001 -1.53918 4.84016 0
M  V30 1837 H 180.931 -3.19482 4.18615 0
M  V30 1838 H 183.422 -1.95874 3.23174 0
M  V30 1839 H 183.735 -3.45773 6.9113 0
M  V30 1840 H 182.08 -3.11585 6.21241 0
M  V30 1841 H 185.271 -2.35382 4.04614 0
M  V30 1842 H 185.444 -3.03758 5.72394 0
M  V30 1843 N 178.85 -1.27639 -0.924453 0
M  V30 1844 C 180.099 -1.13549 -1.66702 0
M  V30 1845 C 180.412 0.317487 -1.93006 0
M  V30 1846 O 181.618 0.579333 -2.65247 0
M  V30 1847 C 180.074 -1.98426 -3.00259 0
M  V30 1848 C 179.682 -3.484 -2.81641 0
M  V30 1849 C 181.426 -1.92993 -3.78092 0
M  V30 1850 C 179.333 -4.25464 -4.10773 0
M  V30 1851 H 178.263 -0.421351 -0.625283 0
M  V30 1852 H 180.914 -1.52085 -1.02676 0
M  V30 1853 H 179.296 -1.52736 -3.6536 0
M  V30 1854 H 180.47 -4.01973 -2.25287 0
M  V30 1855 H 178.785 -3.55245 -2.17232 0
M  V30 1856 H 181.382 -2.47844 -4.7379 0
M  V30 1857 H 181.725 -0.904281 -4.0636 0
M  V30 1858 H 182.258 -2.36595 -3.19793 0
M  V30 1859 H 178.997 -5.28566 -3.87683 0
M  V30 1860 H 178.517 -3.76667 -4.66779 0
M  V30 1861 H 180.196 -4.34812 -4.79111 0
M  V30 1862 N 180.328 1.1314 -1.09713 0
M  V30 1863 C 181.605 1.80762 -0.747302 0
M  V30 1864 C 181.985 1.96663 0.767265 0
M  V30 1865 O 181.333 1.53706 1.69076 0
M  V30 1866 C 181.543 3.15606 -1.48975 0
M  V30 1867 C 182.891 3.90914 -1.65746 0
M  V30 1868 O 183.915 3.25239 -1.45251 0
M  V30 1869 O 182.774 5.08718 -1.9967 0
M  V30 1870 H 179.868 0.782103 -0.268782 0
M  V30 1871 H 182.414 1.20041 -1.19951 0
M  V30 1872 H 181.186 2.99278 -2.52088 0
M  V30 1873 H 180.809 3.84029 -1.02991 0
M  V30 1874 N 181.806 0.884767 1.30421 0
M  V30 1875 C 182.753 0.349642 2.28136 0
M  V30 1876 C 183.723 -0.560061 1.56373 0
M  V30 1877 O 184.908 -0.488524 1.8444 0
M  V30 1878 C 182.048 -0.42999 3.42411 0
M  V30 1879 C 181.161 0.508907 4.28992 0
M  V30 1880 C 180.296 -0.286301 5.30428 0
M  V30 1881 C 179.335 0.648079 6.08659 0
M  V30 1882 N 178.472 -0.111792 7.02011 0
M  V30 1883 H 183.312 1.18807 2.73293 0
M  V30 1884 H 180.849 0.597231 1.3443 0
M  V30 1885 H 182.807 -0.897923 4.07423 0
M  V30 1886 H 181.437 -1.23299 2.98324 0
M  V30 1887 H 180.489 1.09533 3.64289 0
M  V30 1888 H 181.801 1.22475 4.8353 0
M  V30 1889 H 180.955 -0.816098 6.01186 0
M  V30 1890 H 179.694 -1.03536 4.76583 0
M  V30 1891 H 178.699 1.18951 5.36778 0
M  V30 1892 H 179.924 1.39623 6.64592 0
M  V30 1893 H 177.87 -0.843395 6.50556 0
M  V30 1894 H 177.787 0.544429 7.54037 0
M  V30 1895 H 179.055 -0.622339 7.77012 0
M  V30 1896 N 183.284 -1.43765 0.645699 0
M  V30 1897 C 184.532 -2.01499 0.155731 0
M  V30 1898 C 184.853 -1.51151 -1.232 0
M  V30 1899 O 184.123 -0.721044 -1.82148 0
M  V30 1900 H 182.703 -0.745003 0.0545817 0
M  V30 1901 H 185.365 -1.76075 0.835677 0
M  V30 1902 H 184.461 -3.1181 0.134577 0
M  V30 1903 N 184.763 -0.387143 -1.52771 0
M  V30 1904 C 185.673 0.456442 -2.30117 0
M  V30 1905 C 186.689 1.07342 -1.36944 0
M  V30 1906 O 187.865 1.07971 -1.70013 0
M  V30 1907 C 184.93 1.56957 -3.09136 0
M  V30 1908 C 183.991 0.977916 -4.18014 0
M  V30 1909 C 183.224 2.038 -4.93256 0
M  V30 1910 O 183.447 3.25271 -4.68567 0
M  V30 1911 O 182.381 1.6565 -5.78657 0
M  V30 1912 H 186.207 -0.17359 -3.03203 0
M  V30 1913 H 183.792 -0.150919 -1.48636 0
M  V30 1914 H 185.674 2.21628 -3.58412 0
M  V30 1915 H 184.349 2.18461 -2.38865 0
M  V30 1916 H 183.256 0.294525 -3.72939 0
M  V30 1917 H 184.589 0.407128 -4.90513 0
M  V30 1918 N 186.241 1.57166 -0.116904 0
M  V30 1919 C 187.151 2.18745 0.847812 0
M  V30 1920 C 188.167 1.163 1.29423 0
M  V30 1921 O 189.343 1.48761 1.35765 0
M  V30 1922 C 186.408 2.77307 2.0809 0
M  V30 1923 C 185.469 3.94781 1.68661 0
M  V30 1924 C 184.702 4.50541 2.86091 0
M  V30 1925 O 184.925 4.05202 4.01456 0
M  V30 1926 O 183.859 5.41256 2.63298 0
M  V30 1927 H 187.685 3.01632 0.353778 0
M  V30 1928 H 185.27 1.49005 0.108599 0
M  V30 1929 H 187.152 3.14647 2.80313 0
M  V30 1930 H 185.827 1.97452 2.56504 0
M  V30 1931 H 184.734 3.62214 0.935518 0
M  V30 1932 H 186.067 4.76065 1.24991 0
M  V30 1933 N 187.719 -0.156864 1.56817 0
M  V30 1934 C 188.965 -0.872416 1.83076 0
M  V30 1935 C 189.298 -1.81261 0.697001 0
M  V30 1936 O 188.573 -1.92171 -0.30008 0
M  V30 1937 C 188.856 -1.65551 3.19789 0
M  V30 1938 C 188.709 -0.737467 4.43713 0
M  V30 1939 C 190.028 -2.62012 3.53606 0
M  V30 1940 H 187.147 -0.315715 0.665953 0
M  V30 1941 H 189.789 -0.138004 1.89498 0
M  V30 1942 H 187.939 -2.28159 3.14445 0
M  V30 1943 H 189.611 -0.123143 4.61136 0
M  V30 1944 H 187.854 -0.0464067 4.33775 0
M  V30 1945 H 188.525 -1.32122 5.35955 0
M  V30 1946 H 191.001 -2.09525 3.59497 0
M  V30 1947 H 189.877 -3.13861 4.50314 0
M  V30 1948 H 190.138 -3.42902 2.79053 0
M  V30 1949 N 189.197 -1.51736 -0.425897 0
M  V30 1950 C 190.445 -1.64644 -1.17204 0
M  V30 1951 C 190.766 -0.370486 -1.91448 0
M  V30 1952 O 190.036 0.614088 -1.86026 0
M  V30 1953 H 188.616 -0.606819 -0.435638 0
M  V30 1954 H 191.278 -1.88713 -0.487177 0
M  V30 1955 H 190.374 -2.47958 -1.89534 0
M  V30 1956 N 190.675 0.682077 -1.42076 0
M  V30 1957 C 191.585 1.82535 -1.47371 0
M  V30 1958 C 192.601 1.7017 -0.363079 0
M  V30 1959 O 193.777 1.91848 -0.612875 0
M  V30 1960 C 190.842 3.18624 -1.36674 0
M  V30 1961 C 189.903 3.42999 -2.58167 0
M  V30 1962 C 189.136 4.72595 -2.4797 0
M  V30 1963 O 189.359 5.50006 -1.5116 0
M  V30 1964 O 188.293 4.98054 -3.37974 0
M  V30 1965 H 192.119 1.81023 -2.43853 0
M  V30 1966 H 189.704 0.836887 -1.2376 0
M  V30 1967 H 191.586 3.99847 -1.33043 0
M  V30 1968 H 190.261 3.20789 -0.433138 0
M  V30 1969 H 189.168 2.61653 -2.67373 0
M  V30 1970 H 190.501 3.45659 -3.50401 0
M  V30 1971 N 192.153 1.28127 0.917671 0
M  V30 1972 C 193.381 1.17892 1.70026 0
M  V30 1973 C 193.796 -0.262958 1.8696 0
M  V30 1974 O 193.153 -1.17811 1.3938 0
M  V30 1975 C 193.204 1.86872 3.09453 0
M  V30 1976 O 192.925 3.25428 2.93306 0
M  V30 1977 C 194.426 1.8289 4.03815 0
M  V30 1978 H 191.646 0.40942 0.531617 0
M  V30 1979 H 194.19 1.69181 1.14883 0
M  V30 1980 H 192.345 1.39464 3.61426 0
M  V30 1981 H 192.759 3.59918 3.81523 0
M  V30 1982 H 194.233 2.35751 4.99125 0
M  V30 1983 H 194.71 0.800412 4.31845 0
M  V30 1984 H 195.316 2.29959 3.57769 0
M  V30 1985 N 193.631 -1.12557 1.10312 0
M  V30 1986 C 194.859 -1.87864 0.866873 0
M  V30 1987 C 195.274 -1.79588 -0.582557 0
M  V30 1988 O 194.631 -1.16887 -1.40156 0
M  V30 1989 C 194.682 -3.37125 1.30496 0
M  V30 1990 O 194.403 -3.45201 2.69755 0
M  V30 1991 C 195.904 -4.29373 1.10243 0
M  V30 1992 H 193.124 -0.594452 0.311236 0
M  V30 1993 H 195.668 -1.42429 1.46745 0
M  V30 1994 H 193.823 -3.80109 0.748081 0
M  V30 1995 H 194.237 -4.38056 2.88457 0
M  V30 1996 H 195.711 -5.32394 1.45811 0
M  V30 1997 H 196.188 -4.39181 0.0409492 0
M  V30 1998 H 196.794 -3.92169 1.64571 0
M  V30 1999 N 195.109 -0.891671 -1.2995 0
M  V30 2000 C 196.072 -0.36828 -2.26222 0
M  V30 2001 C 197.072 0.493014 -1.53056 0
M  V30 2002 O 198.262 0.299213 -1.71611 0
M  V30 2003 C 195.394 0.47442 -3.37583 0
M  V30 2004 H 196.587 -1.21844 -2.74033 0
M  V30 2005 H 194.14 -0.669107 -1.41254 0
M  V30 2006 H 194.875 1.34489 -2.95099 0
M  V30 2007 H 194.66 -0.142615 -3.91841 0
M  V30 2008 H 196.15 0.83218 -4.09224 0
M  V30 2009 N 196.587 1.43421 -0.653314 0
M  V30 2010 C 197.519 2.29071 0.0769134 0
M  V30 2011 C 198.532 1.42513 0.787017 0
M  V30 2012 O 199.721 1.66449 0.644757 0
M  V30 2013 C 196.821 3.19436 1.13199 0
M  V30 2014 C 195.994 4.34533 0.500006 0
M  V30 2015 C 195.053 5.05771 1.45198 0
M  V30 2016 O 194.079 5.61037 0.960538 0
M  V30 2017 N 195.281 5.0928 2.78594 0
M  V30 2018 H 198.046 2.92382 -0.658235 0
M  V30 2019 H 195.607 1.54112 -0.496104 0
M  V30 2020 H 197.599 3.63958 1.76964 0
M  V30 2021 H 196.169 2.57724 1.7691 0
M  V30 2022 H 195.389 3.92925 -0.316738 0
M  V30 2023 H 196.677 5.08766 0.0588345 0
M  V30 2024 H 196.075 4.65751 3.2108 0
M  V30 2025 H 194.632 5.57519 3.37662 0
M  V30 2026 N 198.065 0.39524 1.52563 0
M  V30 2027 C 199.481 0.0454682 1.59535 0
M  V30 2028 C 199.681 -1.44056 1.4089 0
M  V30 2029 O 198.737 -2.20579 1.22888 0
M  V30 2030 C 200.05 0.527963 2.96029 0
M  V30 2031 C 201.598 0.484733 3.09224 0
M  V30 2032 C 202.073 0.943512 4.48176 0
M  V30 2033 N 203.564 0.899765 4.54377 0
M  V30 2034 C 204.299 1.22609 5.60138 0
M  V30 2035 N 203.795 1.62319 6.73516 0
M  V30 2036 N 205.588 1.14696 5.50274 0
M  V30 2037 H 197.739 1.36261 1.62931 0
M  V30 2038 H 200.002 0.558887 0.765735 0
M  V30 2039 H 199.708 1.56607 3.14908 0
M  V30 2040 H 199.582 -0.0698056 3.77135 0
M  V30 2041 H 201.969 -0.544298 2.90037 0
M  V30 2042 H 202.05 1.11838 2.30056 0
M  V30 2043 H 201.694 1.9708 4.68104 0
M  V30 2044 H 201.624 0.286817 5.25818 0
M  V30 2045 H 204.115 0.607632 3.72983 0
M  V30 2046 H 204.428 1.85567 7.5019 0
M  V30 2047 H 202.773 1.66211 6.74833 0
M  V30 2048 H 205.964 0.835701 4.6058 0
M  V30 2049 H 206.137 1.40459 6.32594 0
M  V30 2050 N 199.544 -1.57102 0.125237 0
M  V30 2051 C 200.821 -1.86953 -0.575142 0
M  V30 2052 C 201.201 -1.02749 -1.84407 0
M  V30 2053 O 200.549 -0.108144 -2.28244 0
M  V30 2054 C 200.759 -3.38198 -0.861583 0
M  V30 2055 C 202.107 -4.06937 -1.21192 0
M  V30 2056 O 203.131 -3.43252 -0.951645 0
M  V30 2057 O 201.99 -5.19364 -1.70068 0
M  V30 2058 H 199.084 -0.774147 -0.290906 0
M  V30 2059 H 201.63 -1.68942 0.160211 0
M  V30 2060 H 200.402 -3.91282 0.0373647 0
M  V30 2061 H 200.025 -3.61661 -1.65188 0
M  V30 2062 N 201.022 0.148545 -1.56898 0
M  V30 2063 C 201.985 1.16736 -1.97244 0
M  V30 2064 C 202.985 1.35947 -0.858777 0
M  V30 2065 O 204.175 1.32966 -1.12542 0
M  V30 2066 C 201.307 2.52798 -2.28705 0
M  V30 2067 H 202.5 0.821279 -2.88435 0
M  V30 2068 H 200.053 0.391831 -1.51309 0
M  V30 2069 H 200.788 2.92381 -1.403 0
M  V30 2070 H 200.573 2.40216 -3.09901 0
M  V30 2071 H 202.063 3.26179 -2.60762 0
M  V30 2072 N 202.5 1.5196 0.417844 0
M  V30 2073 C 203.447 1.74678 1.50852 0
M  V30 2074 C 204.417 0.588947 1.55308 0
M  V30 2075 O 205.602 0.825544 1.72016 0
M  V30 2076 C 202.742 1.89544 2.88387 0
M  V30 2077 C 201.855 3.17166 2.93309 0
M  V30 2078 C 200.99 3.22513 4.22088 0
M  V30 2079 C 200.029 4.44372 4.20951 0
M  V30 2080 N 199.166 4.47161 5.41287 0
M  V30 2081 H 204.006 2.67768 1.30783 0
M  V30 2082 H 201.543 1.32689 0.63498 0
M  V30 2083 H 203.501 1.96146 3.68216 0
M  V30 2084 H 202.131 0.998424 3.06971 0
M  V30 2085 H 201.183 3.19778 2.06024 0
M  V30 2086 H 202.495 4.07021 2.88332 0
M  V30 2087 H 201.649 3.28139 5.10303 0
M  V30 2088 H 200.388 2.30581 4.29748 0
M  V30 2089 H 199.393 4.38902 3.31127 0
M  V30 2090 H 200.618 5.3759 4.14938 0
M  V30 2091 H 198.564 3.58108 5.49632 0
M  V30 2092 H 198.481 5.3085 5.3827 0
M  V30 2093 H 199.749 4.57005 6.3148 0
M  V30 2094 N 203.978 -0.674533 1.42435 0
M  V30 2095 C 204.911 -1.79924 1.40366 0
M  V30 2096 C 205.889 -1.60378 0.267899 0
M  V30 2097 O 207.073 -1.82847 0.458159 0
M  V30 2098 C 204.2 -3.16927 1.19478 0
M  V30 2099 C 203.246 -3.55221 2.36051 0
M  V30 2100 S 204.079 -3.5762 3.98583 0
M  V30 2101 C 205.235 -4.97315 3.80038 0
M  V30 2102 H 205.468 -1.81405 2.35541 0
M  V30 2103 H 203.001 -0.845221 1.29211 0
M  V30 2104 H 204.959 -3.96007 1.08114 0
M  V30 2105 H 203.62 -3.13031 0.258883 0
M  V30 2106 H 202.813 -4.54804 2.17185 0
M  V30 2107 H 202.415 -2.83502 2.43932 0
M  V30 2108 H 204.707 -5.85401 3.41045 0
M  V30 2109 H 205.65 -5.21228 4.79298 0
M  V30 2110 H 206.058 -4.69845 3.12899 0
M  V30 2111 N 205.456 -1.28612 -0.910864 0
M  V30 2112 C 206.419 -1.12803 -1.9952 0
M  V30 2113 C 207.419 -0.0668264 -1.60661 0
M  V30 2114 O 208.609 -0.312847 -1.71368 0
M  V30 2115 C 205.741 -0.72254 -3.33155 0
M  V30 2116 H 206.934 -2.09109 -2.14973 0
M  V30 2117 H 204.487 -1.11639 -1.09391 0
M  V30 2118 H 205.222 0.241152 -3.23402 0
M  V30 2119 H 205.007 -1.48916 -3.62721 0
M  V30 2120 H 206.497 -0.634666 -4.12749 0
M  V30 2121 N 206.934 1.1197 -1.10907 0
M  V30 2122 C 208.345 1.65114 -0.871446 0
M  V30 2123 C 208.696 1.86885 0.597353 0
M  V30 2124 O 207.821 1.59896 1.45816 0
M  V30 2125 C 208.416 2.99944 -1.5754 0
M  V30 2126 C 206.975 3.50018 -1.38435 0
M  V30 2127 C 206.122 2.24941 -1.62164 0
M  V30 2128 H 209.073 0.956851 -1.2661 0
M  V30 2129 H 209.094 3.66651 -1.01721 0
M  V30 2130 H 208.606 2.84067 -2.64438 0
M  V30 2131 H 206.707 3.71071 -0.337214 0
M  V30 2132 H 206.82 4.29165 -2.12965 0
M  V30 2133 H 205.184 2.3229 -1.04467 0
M  V30 2134 H 205.967 2.11612 -2.70324 0
M  V30 2135 N 208.412 0.89855 1.29475 0
M  V30 2136 C 209.322 0.379974 2.31502 0
M  V30 2137 C 210.338 -0.524695 1.659 0
M  V30 2138 O 211.514 -0.414551 1.97087 0
M  V30 2139 C 208.579 -0.385138 3.44554 0
M  V30 2140 C 207.64 0.550914 4.2575 0
M  V30 2141 C 206.873 -0.177778 5.33404 0
M  V30 2142 O 207.096 -1.40189 5.52904 0
M  V30 2143 O 206.03 0.479106 5.9999 0
M  V30 2144 H 209.856 1.22639 2.77837 0
M  V30 2145 H 207.441 0.662834 1.33891 0
M  V30 2146 H 209.323 -0.817841 4.13388 0
M  V30 2147 H 207.998 -1.20763 3.0033 0
M  V30 2148 H 206.905 1.03271 3.59564 0
M  V30 2149 H 208.238 1.33979 4.73614 0
M  V30 2150 N 209.89 -1.43072 0.660911 0
M  V30 2151 C 210.837 -2.30785 -0.0259884 0
M  V30 2152 C 211.807 -1.45184 -0.806888 0
M  V30 2153 O 212.992 -1.74041 -0.781943 0
M  V30 2154 C 210.132 -3.30861 -0.981067 0
M  V30 2155 C 209.245 -4.31558 -0.195458 0
M  V30 2156 C 208.38 -5.18712 -1.14503 0
M  V30 2157 C 207.419 -6.11097 -0.350299 0
M  V30 2158 N 206.556 -6.90849 -1.25186 0
M  V30 2159 H 211.396 -2.88975 0.727846 0
M  V30 2160 H 208.933 -1.42353 0.370682 0
M  V30 2161 H 210.891 -3.87399 -1.54849 0
M  V30 2162 H 209.521 -2.74304 -1.70169 0
M  V30 2163 H 208.573 -3.77252 0.488374 0
M  V30 2164 H 209.885 -4.9701 0.422176 0
M  V30 2165 H 209.039 -5.79914 -1.78284 0
M  V30 2166 H 207.778 -4.53404 -1.79656 0
M  V30 2167 H 206.783 -5.48976 0.300808 0
M  V30 2168 H 208.008 -6.7845 0.296941 0
M  V30 2169 H 205.954 -6.28182 -1.89005 0
M  V30 2170 H 205.871 -7.52854 -0.688971 0
M  V30 2171 H 207.139 -7.5655 -1.87757 0
M  V30 2172 N 211.368 -0.403325 -1.52352 0
M  V30 2173 C 212.301 0.469463 -2.23319 0
M  V30 2174 C 213.279 1.05272 -1.23922 0
M  V30 2175 O 214.463 1.10169 -1.52954 0
M  V30 2176 C 211.59 1.6511 -2.9573 0
M  V30 2177 C 210.636 1.19178 -4.0951 0
M  V30 2178 S 211.469 0.161718 -5.35256 0
M  V30 2179 C 212.625 1.34882 -6.11194 0
M  V30 2180 H 212.858 -0.133134 -2.97002 0
M  V30 2181 H 210.391 -0.187588 -1.53256 0
M  V30 2182 H 212.349 2.3287 -3.38056 0
M  V30 2183 H 211.01 2.22503 -2.21701 0
M  V30 2184 H 210.203 2.07444 -4.59329 0
M  V30 2185 H 209.805 0.592911 -3.6927 0
M  V30 2186 H 212.097 2.27345 -6.38217 0
M  V30 2187 H 213.04 0.89128 -7.02468 0
M  V30 2188 H 213.448 1.57198 -5.42171 0
M  V30 2189 N 212.846 1.57033 -0.133567 0
M  V30 2190 C 213.809 2.14897 0.796995 0
M  V30 2191 C 214.809 1.0874 1.18458 0
M  V30 2192 O 215.999 1.34446 1.1077 0
M  V30 2193 C 213.131 2.70112 2.07973 0
M  V30 2194 H 214.324 2.98457 0.293873 0
M  V30 2195 H 211.877 1.55871 0.115787 0
M  V30 2196 H 212.612 1.9018 2.62682 0
M  V30 2197 H 212.397 3.47764 1.81115 0
M  V30 2198 H 213.887 3.14738 2.74462 0
M  V30 2199 N 214.325 -0.140222 1.56975 0
M  V30 2200 C 215.553 -0.866437 1.87884 0
M  V30 2201 C 215.968 -1.74428 0.722517 0
M  V30 2202 O 215.325 -1.79891 -0.30749 0
M  V30 2203 C 215.376 -1.71753 3.18093 0
M  V30 2204 O 215.097 -0.875056 4.29272 0
M  V30 2205 C 216.598 -2.55074 3.62563 0
M  V30 2206 H 213.818 -0.25019 0.622612 0
M  V30 2207 H 216.362 -0.130977 2.0408 0
M  V30 2208 H 214.517 -2.40598 3.03631 0
M  V30 2209 H 214.931 -1.46002 5.03769 0
M  V30 2210 H 216.405 -3.10356 4.5649 0
M  V30 2211 H 216.882 -3.31434 2.88181 0
M  V30 2212 H 217.488 -1.91509 3.79743 0
M  V30 2213 N 215.803 -1.52179 -0.40978 0
M  V30 2214 C 217.214 -1.58377 -0.988615 0
M  V30 2215 C 217.565 -0.423879 -1.91566 0
M  V30 2216 O 216.69 0.455844 -2.11544 0
M  V30 2217 C 217.285 -2.87044 -1.79976 0
M  V30 2218 C 215.844 -2.95722 -2.32863 0
M  V30 2219 C 214.991 -2.53309 -1.12828 0
M  V30 2220 H 217.942 -1.57558 -0.190039 0
M  V30 2221 H 217.963 -2.7236 -2.65707 0
M  V30 2222 H 217.475 -3.71444 -1.12478 0
M  V30 2223 H 215.576 -2.15814 -3.03735 0
M  V30 2224 H 215.689 -3.99951 -2.63773 0
M  V30 2225 H 214.053 -2.07142 -1.48204 0
M  V30 2226 H 214.836 -3.40082 -0.46897 0
M  V30 2227 N 217.281 0.66697 -1.42791 0
M  V30 2228 C 218.228 1.7803 -1.4688 0
M  V30 2229 C 219.198 1.6299 -0.319919 0
M  V30 2230 O 220.383 1.83432 -0.525118 0
M  V30 2231 C 217.523 3.1611 -1.38451 0
M  V30 2232 C 216.636 3.42381 -2.63437 0
M  V30 2233 C 215.771 4.70232 -2.47094 0
M  V30 2234 C 214.81 4.89564 -3.67415 0
M  V30 2235 N 213.947 6.08661 -3.49966 0
M  V30 2236 H 218.787 1.7387 -2.42019 0
M  V30 2237 H 216.324 0.84868 -1.20149 0
M  V30 2238 H 218.282 3.95914 -1.31561 0
M  V30 2239 H 216.912 3.19374 -0.469033 0
M  V30 2240 H 215.964 2.56774 -2.80662 0
M  V30 2241 H 217.276 3.52557 -3.52853 0
M  V30 2242 H 216.43 5.5814 -2.37834 0
M  V30 2243 H 215.169 4.62353 -1.5518 0
M  V30 2244 H 214.174 4.00096 -3.77099 0
M  V30 2245 H 215.399 4.99282 -4.6032 0
M  V30 2246 H 213.345 6.0194 -2.60776 0
M  V30 2247 H 213.262 6.19733 -4.32975 0
M  V30 2248 H 214.53 6.99226 -3.44532 0
M  V30 2249 N 218.759 1.29093 0.90403 0
M  V30 2250 C 219.987 1.19689 1.68766 0
M  V30 2251 C 220.402 -0.243113 1.87228 0
M  V30 2252 O 219.759 -1.16326 1.40621 0
M  V30 2253 C 219.81 1.90144 3.07453 0
M  V30 2254 O 219.531 3.2852 2.89838 0
M  V30 2255 C 221.032 1.87162 4.01852 0
M  V30 2256 H 218.252 0.415035 0.527244 0
M  V30 2257 H 220.796 1.7039 1.13082 0
M  V30 2258 H 218.951 1.43289 3.59926 0
M  V30 2259 H 219.365 3.63944 3.77684 0
M  V30 2260 H 220.839 2.41032 4.96596 0
M  V30 2261 H 221.316 0.84617 4.30972 0
M  V30 2262 H 221.922 2.33741 3.5531 0
M  V30 2263 N 220.237 -1.11381 1.11499 0
M  V30 2264 C 221.483 -1.83403 0.865512 0
M  V30 2265 C 221.816 -1.84459 -0.607329 0
M  V30 2266 O 221.091 -1.29811 -1.44842 0
M  V30 2267 C 221.374 -3.30552 1.42855 0
M  V30 2268 C 221.227 -3.37886 2.96906 0
M  V30 2269 C 222.546 -4.26643 1.08 0
M  V30 2270 H 219.665 -0.665879 0.31587 0
M  V30 2271 H 222.307 -1.30601 1.37998 0
M  V30 2272 H 220.457 -3.75648 0.990985 0
M  V30 2273 H 222.129 -3.01343 3.49271 0
M  V30 2274 H 220.372 -2.78088 3.32941 0
M  V30 2275 H 221.043 -4.41458 3.31389 0
M  V30 2276 H 223.519 -3.89729 1.45775 0
M  V30 2277 H 222.395 -5.27986 1.50072 0
M  V30 2278 H 222.656 -4.42099 -0.00915037 0
M  V30 2279 N 221.715 -0.905404 -1.28997 0
M  V30 2280 C 222.963 -0.533192 -1.9494 0
M  V30 2281 C 223.284 0.924618 -1.71685 0
M  V30 2282 O 222.554 1.65268 -1.05183 0
M  V30 2283 H 221.134 -0.194194 -0.721317 0
M  V30 2284 H 223.796 -1.15294 -1.57141 0
M  V30 2285 H 222.892 -0.72059 -3.03667 0
M  V30 2286 N 223.193 1.4272 -0.668489 0
M  V30 2287 C 224.421 2.05966 -0.196348 0
M  V30 2288 C 224.836 1.50191 1.14403 0
M  V30 2289 O 224.193 0.639208 1.7094 0
M  V30 2290 C 224.244 3.61314 -0.115815 0
M  V30 2291 O 223.965 4.1502 -1.40322 0
M  V30 2292 C 225.466 4.41663 0.380579 0
M  V30 2293 H 222.686 0.663954 -0.0969829 0
M  V30 2294 H 225.23 1.82966 -0.913446 0
M  V30 2295 H 223.385 3.83448 0.551931 0
M  V30 2296 H 223.799 5.08832 -1.27243 0
M  V30 2297 H 225.273 5.5065 0.385848 0
M  V30 2298 H 225.75 4.15792 1.41471 0
M  V30 2299 H 226.356 4.24534 -0.255209 0
M  V30 2300 N 224.671 0.411399 1.52136 0
M  V30 2301 C 225.896 -0.165538 2.06738 0
M  V30 2302 C 226.321 -1.379 1.27926 0
M  V30 2303 O 225.679 -1.78628 0.310114 0
M  V30 2304 C 225.727 -0.492124 3.57226 0
M  V30 2305 O 224.831 -1.58276 3.80818 0
M  V30 2306 H 224.172 -0.0132132 0.663869 0
M  V30 2307 H 226.702 0.585253 1.96051 0
M  V30 2308 H 226.712 -0.750104 4.01045 0
M  V30 2309 H 225.387 0.394922 4.14021 0
M  V30 2310 H 223.964 -1.31677 3.48877 0
M  V30 2311 N 226.149 -1.5696 0.141893 0
M  V30 2312 C 227.389 -1.9785 -0.513304 0
M  V30 2313 C 227.753 -1.02467 -1.62371 0
M  V30 2314 O 228.954 -1.32382 -2.33941 0
M  V30 2315 C 227.225 -3.42797 -1.01118 0
M  V30 2316 S 228.784 -4.05709 -1.67169 0
M  V30 2317 H 225.602 -0.691318 -0.166135 0
M  V30 2318 H 228.204 -1.94114 0.232398 0
M  V30 2319 H 226.908 -4.0995 -0.192179 0
M  V30 2320 H 226.439 -3.50235 -1.79162 0
M  V30 2321 H 228.454 -3.98342 -2.95868 0
M  V30 2322 N 227.627 0.131896 -1.57047 0
M  V30 2323 C 228.857 0.855219 -1.88068 0
M  V30 2324 C 229.265 1.74557 -0.729817 0
M  V30 2325 O 228.608 1.81083 0.308962 0
M  V30 2326 C 228.67 1.75119 -3.13964 0
M  V30 2327 C 228.334 1.03646 -4.45091 0
M  V30 2328 C 229.331 0.383276 -5.18485 0
M  V30 2329 C 227.016 1.02148 -4.91804 0
M  V30 2330 C 229.01 -0.275347 -6.36805 0
M  V30 2331 C 226.697 0.359047 -6.10044 0
M  V30 2332 C 227.695 -0.288222 -6.82392 0
M  V30 2333 O 227.383 -0.94011 -7.98384 0
M  V30 2334 H 227.115 0.251864 -0.627328 0
M  V30 2335 H 229.669 0.124782 -2.05021 0
M  V30 2336 H 227.899 2.52295 -2.9306 0
M  V30 2337 H 229.588 2.3478 -3.31109 0
M  V30 2338 H 230.354 0.386562 -4.83457 0
M  V30 2339 H 226.233 1.5147 -4.35405 0
M  V30 2340 H 229.777 -0.781148 -6.93213 0
M  V30 2341 H 225.674 0.35348 -6.44531 0
M  V30 2342 H 226.442 -0.84329 -8.14144 0
M  V30 2343 N 229.106 1.52395 0.401703 0
M  V30 2344 C 230.038 1.72505 1.50912 0
M  V30 2345 C 231.051 0.605468 1.51122 0
M  V30 2346 O 232.24 0.880828 1.55254 0
M  V30 2347 C 229.34 1.75711 2.89791 0
M  V30 2348 C 228.513 3.04824 3.1369 0
M  V30 2349 C 227.572 2.99743 4.32482 0
M  V30 2350 O 226.598 3.73635 4.29402 0
M  V30 2351 N 227.8 2.18047 5.37992 0
M  V30 2352 H 230.565 2.68049 1.34052 0
M  V30 2353 H 228.126 1.50724 0.591084 0
M  V30 2354 H 230.118 1.69834 3.6734 0
M  V30 2355 H 228.688 0.876092 3.00072 0
M  V30 2356 H 227.908 3.2429 2.24119 0
M  V30 2357 H 229.196 3.90221 3.26504 0
M  V30 2358 H 228.594 1.57456 5.43345 0
M  V30 2359 H 227.151 2.18021 6.14256 0
M  V30 2360 N 230.584 -0.659388 1.43143 0
M  V30 2361 C 231.824 -1.43121 1.45931 0
M  V30 2362 C 232.188 -1.91838 0.0789298 0
M  V30 2363 O 233.389 -2.68794 -0.018491 0
M  V30 2364 C 231.66 -2.58534 2.46769 0
M  V30 2365 S 233.219 -3.47154 2.68384 0
M  V30 2366 H 230.037 -0.488624 0.516496 0
M  V30 2367 H 232.639 -0.766128 1.79863 0
M  V30 2368 H 231.343 -2.21007 3.45809 0
M  V30 2369 H 230.874 -3.29898 2.14315 0
M  V30 2370 H 232.889 -4.55051 1.97845 0
M  V30 2371 N 232.062 -1.29571 -0.897171 0
M  V30 2372 C 233.31 -1.17456 -1.64464 0
M  V30 2373 C 233.631 0.273698 -1.9307 0
M  V30 2374 O 232.901 1.18684 -1.55855 0
M  V30 2375 H 231.481 -0.431706 -0.609622 0
M  V30 2376 H 234.143 -1.62531 -1.07562 0
M  V30 2377 H 233.239 -1.72648 -2.59998 0
M  V30 2378 N 233.54 1.10788 -1.12088 0
M  V30 2379 C 234.768 1.86461 -0.896651 0
M  V30 2380 C 235.183 1.80492 0.553912 0
M  V30 2381 O 234.54 1.19102 1.38278 0
M  V30 2382 C 234.591 3.35006 -1.35843 0
M  V30 2383 O 234.312 3.40866 -2.75213 0
M  V30 2384 C 235.813 4.27565 -1.1706 0
M  V30 2385 H 233.033 0.589425 -0.320654 0
M  V30 2386 H 235.577 1.40076 -1.48993 0
M  V30 2387 H 233.732 3.7887 -0.808458 0
M  V30 2388 H 234.146 4.33411 -2.9539 0
M  V30 2389 H 235.62 5.30007 -1.54263 0
M  V30 2390 H 236.097 4.3906 -0.110814 0
M  V30 2391 H 236.703 3.89501 -1.70789 0
M  V30 2392 N 235.018 0.912232 1.28515 0
M  V30 2393 C 235.981 0.404223 2.25607 0
M  V30 2394 C 236.981 -0.468602 1.53821 0
M  V30 2395 O 238.171 -0.271873 1.72065 0
M  V30 2396 C 235.303 -0.420653 3.38295 0
M  V30 2397 H 236.496 1.26188 2.7206 0
M  V30 2398 H 234.049 0.691495 1.40171 0
M  V30 2399 H 234.784 -1.29777 2.97201 0
M  V30 2400 H 234.569 0.204935 3.91564 0
M  V30 2401 H 236.059 -0.766971 4.10496 0
M  V30 2402 N 236.496 -1.42363 0.676048 0
M  V30 2403 C 237.724 -2.05859 0.207268 0
M  V30 2404 C 238.139 -1.50796 -1.13605 0
M  V30 2405 O 237.496 -0.648265 -1.70598 0
M  V30 2406 C 237.547 -3.61248 0.134975 0
M  V30 2407 O 237.268 -4.1427 1.42521 0
M  V30 2408 C 238.769 -4.41859 -0.357151 0
M  V30 2409 H 235.989 -0.663431 0.100503 0
M  V30 2410 H 238.533 -1.82479 0.923136 0
M  V30 2411 H 236.688 -3.83735 -0.531588 0
M  V30 2412 H 237.102 -5.0815 1.29939 0
M  V30 2413 H 238.576 -5.50847 -0.356641 0
M  V30 2414 H 239.053 -4.16536 -1.39264 0
M  V30 2415 H 239.659 -4.24392 0.27772 0
M  V30 2416 N 237.974 -0.419461 -1.51915 0
M  V30 2417 C 239.222 0.152637 -2.01523 0
M  V30 2418 C 239.543 1.44762 -1.30649 0
M  V30 2419 O 238.813 1.90997 -0.435535 0
M  V30 2420 H 237.393 0.0593966 -0.744635 0
M  V30 2421 H 240.055 -0.558073 -1.86739 0
M  V30 2422 H 239.151 0.341369 -3.10227 0
M  V30 2423 N 239.452 1.56882 -0.150215 0
M  V30 2424 C 240.692 1.98119 0.502804 0
M  V30 2425 C 241.056 1.03327 1.61826 0
M  V30 2426 O 242.257 1.33621 2.33236 0
M  V30 2427 C 240.528 3.43329 0.992988 0
M  V30 2428 S 242.087 4.0659 1.65015 0
M  V30 2429 H 238.905 0.692189 0.162467 0
M  V30 2430 H 241.507 1.93988 -0.242689 0
M  V30 2431 H 240.211 4.10046 0.170436 0
M  V30 2432 H 239.742 3.5118 1.77303 0
M  V30 2433 H 241.757 3.99906 2.93752 0
M  V30 2434 N 240.93 -0.123565 1.57115 0
M  V30 2435 C 241.878 -1.17082 2.00984 0
M  V30 2436 C 242.872 -1.43136 0.906009 0
M  V30 2437 O 244.078 -1.43152 1.09121 0
M  V30 2438 H 240.453 -0.394653 0.64012 0
M  V30 2439 H 242.424 -0.774292 2.88179 0
M  V30 2440 C 241.173 -2.49057 2.42623 0
M  V30 2441 H 240.496 -2.29846 3.27125 0
M  V30 2442 H 241.936 -3.20906 2.7712 0
M  V30 2443 C 240.395 -3.11305 1.28805 0
M  V30 2444 O 240.925 -3.97171 0.60153 0
M  V30 2445 N 239.131 -2.71111 1.04628 0
M  V30 2446 H 238.678 -2.01382 1.60634 0
M  V30 2447 H 238.636 -3.1309 0.286685 0
M  V30 2448 N 242.408 -1.52605 -0.393616 0
M  V30 2449 C 243.648 -1.6911 -1.1481 0
M  V30 2450 C 244.012 -0.41969 -1.87357 0
M  V30 2451 O 245.213 -0.461034 -2.64817 0
M  V30 2452 C 243.484 -2.88909 -2.10395 0
M  V30 2453 S 245.043 -3.25977 -2.93742 0
M  V30 2454 H 241.861 -0.595337 -0.38871 0
M  V30 2455 H 244.463 -1.90641 -0.433178 0
M  V30 2456 H 243.167 -3.79672 -1.55812 0
M  V30 2457 H 242.698 -2.69698 -2.86403 0
M  V30 2458 H 244.713 -2.75806 -4.12487 0
M  V30 2459 N 243.887 0.651787 -1.4349 0
M  V30 2460 C 244.85 1.74647 -1.48429 0
M  V30 2461 C 245.85 1.56513 -0.368817 0
M  V30 2462 O 247.04 1.62385 -0.630623 0
M  V30 2463 C 244.172 3.13533 -1.33827 0
M  V30 2464 H 245.365 1.71649 -2.4592 0
M  V30 2465 H 242.918 0.863573 -1.30277 0
M  V30 2466 H 243.653 3.22142 -0.37349 0
M  V30 2467 H 243.438 3.28101 -2.14691 0
M  V30 2468 H 244.928 3.93356 -1.40218 0
M  V30 2469 N 245.365 1.30045 0.890287 0
M  V30 2470 C 246.593 1.21472 1.67487 0
M  V30 2471 C 247.008 -0.223241 1.87476 0
M  V30 2472 O 246.365 -1.14828 1.41847 0
M  V30 2473 C 246.416 1.93394 3.05419 0
M  V30 2474 O 246.137 3.31576 2.86337 0
M  V30 2475 C 247.638 1.91414 3.99844 0
M  V30 2476 H 244.858 0.420604 0.522813 0
M  V30 2477 H 247.402 1.7158 1.11268 0
M  V30 2478 H 245.557 1.47099 3.58386 0
M  V30 2479 H 245.971 3.67929 3.73802 0
M  V30 2480 H 247.445 2.46285 4.94012 0
M  V30 2481 H 247.922 0.891833 4.3005 0
M  V30 2482 H 248.528 2.37496 3.52811 0
M  V30 2483 N 246.843 -1.10192 1.12674 0
M  V30 2484 C 247.806 -2.14786 0.799979 0
M  V30 2485 C 248.806 -1.59711 -0.18685 0
M  V30 2486 O 249.996 -1.74156 0.0392558 0
M  V30 2487 C 247.128 -3.40374 0.189228 0
M  V30 2488 H 248.321 -2.45203 1.72671 0
M  V30 2489 H 245.874 -1.25597 0.930326 0
M  V30 2490 H 246.609 -3.15577 -0.747107 0
M  V30 2491 H 246.394 -3.81637 0.899766 0
M  V30 2492 H 247.884 -4.17594 -0.0228143 0
M  V30 2493 N 248.321 -0.919034 -1.28029 0
M  V30 2494 C 249.546 -0.570357 -1.99403 0
M  V30 2495 C 249.971 0.842486 -1.68178 0
M  V30 2496 O 249.329 1.56391 -0.917141 0
M  V30 2497 C 249.377 -0.792541 -3.51783 0
M  V30 2498 O 248.481 0.145988 -4.12142 0
M  V30 2499 H 247.822 -0.220555 -0.6263 0
M  V30 2500 H 250.352 -1.23592 -1.63053 0
M  V30 2501 H 250.362 -0.704708 -4.01868 0
M  V30 2502 H 249.037 -1.82247 -3.73844 0
M  V30 2503 H 247.614 0.00897528 -3.72899 0
M  V30 2504 N 249.799 1.42003 -0.683588 0
M  V30 2505 C 250.762 2.29191 -0.0198243 0
M  V30 2506 C 251.762 1.43773 0.72013 0
M  V30 2507 O 252.952 1.65061 0.556815 0
M  V30 2508 C 250.084 3.26435 0.982487 0
M  V30 2509 H 251.277 2.8938 -0.787345 0
M  V30 2510 H 248.83 1.49789 -0.446418 0
M  V30 2511 H 249.565 2.71203 1.77819 0
M  V30 2512 H 249.35 3.89449 0.455182 0
M  V30 2513 H 250.84 3.918 1.44508 0
M  V30 2514 N 251.277 0.427512 1.51691 0
M  V30 2515 C 252.688 -0.0378867 1.86662 0
M  V30 2516 C 253.039 -1.42819 1.34525 0
M  V30 2517 O 252.164 -2.05037 0.692014 0
M  V30 2518 C 252.759 -0.0755266 3.38716 0
M  V30 2519 C 251.318 -0.485309 3.73258 0
M  V30 2520 C 250.465 0.328399 2.75349 0
M  V30 2521 H 253.416 0.64379 1.45055 0
M  V30 2522 H 253.437 -0.887056 3.70016 0
M  V30 2523 H 252.949 0.936487 3.76632 0
M  V30 2524 H 251.05 -1.50329 3.40928 0
M  V30 2525 H 251.163 -0.21693 4.78609 0
M  V30 2526 H 249.527 -0.211905 2.53817 0
M  V30 2527 H 250.31 1.3391 3.16106 0
M  V30 2528 N 252.755 -1.56801 0.158532 0
M  V30 2529 C 254.166 -1.83189 -0.360366 0
M  V30 2530 C 254.517 -1.07778 -1.63946 0
M  V30 2531 O 253.642 -0.326718 -2.13919 0
M  V30 2532 C 254.237 -3.32297 -0.660595 0
M  V30 2533 C 252.796 -3.59227 -1.12398 0
M  V30 2534 C 251.943 -2.76877 -0.153097 0
M  V30 2535 H 254.894 -1.54008 0.383031 0
M  V30 2536 H 254.915 -3.4908 -1.51405 0
M  V30 2537 H 254.427 -3.87156 0.270527 0
M  V30 2538 H 252.528 -3.09766 -2.07064 0
M  V30 2539 H 252.641 -4.67632 -1.04197 0
M  V30 2540 H 251.005 -2.46319 -0.647983 0
M  V30 2541 H 251.788 -3.34511 0.77182 0
M  V30 2542 N 254.233 0.115231 -1.57178 0
M  V30 2543 C 255.644 0.67197 -1.74188 0
M  V30 2544 C 255.995 1.80125 -0.777777 0
M  V30 2545 O 255.12 2.16346 0.0484376 0
M  V30 2546 C 255.715 1.22573 -3.1585 0
M  V30 2547 C 254.274 1.72872 -3.34353 0
M  V30 2548 C 253.421 0.629972 -2.70049 0
M  V30 2549 H 256.372 -0.110712 -1.58313 0
M  V30 2550 H 256.393 2.09535 -3.17609 0
M  V30 2551 H 255.905 0.403598 -3.85996 0
M  V30 2552 H 254.006 2.5755 -2.69256 0
M  V30 2553 H 254.119 1.83557 -4.42542 0
M  V30 2554 H 252.483 1.0645 -2.31388 0
M  V30 2555 H 253.266 -0.181241 -3.42821 0
M  V30 2556 N 255.711 1.52812 0.385517 0
M  V30 2557 C 257.122 1.5993 0.963293 0
M  V30 2558 C 257.473 0.454302 1.90868 0
M  V30 2559 O 256.598 -0.422132 2.12243 0
M  V30 2560 C 257.193 2.89871 1.75387 0
M  V30 2561 C 255.752 2.99389 2.28129 0
M  V30 2562 C 254.899 2.55071 1.08783 0
M  V30 2563 H 257.85 1.5784 0.164948 0
M  V30 2564 H 257.871 2.76553 2.61341 0
M  V30 2565 H 257.383 3.73186 1.06554 0
M  V30 2566 H 255.484 2.20619 3.00263 0
M  V30 2567 H 255.597 4.04096 2.57377 0
M  V30 2568 H 253.961 2.09473 1.4489 0
M  V30 2569 H 254.744 3.40785 0.414807 0
M  V30 2570 N 257.189 -0.644168 1.43834 0
M  V30 2571 C 258.419 -1.42939 1.49171 0
M  V30 2572 C 258.827 -1.88874 0.111048 0
M  V30 2573 O 258.17 -1.60656 -0.8908 0
M  V30 2574 C 258.232 -2.69151 2.38324 0
M  V30 2575 C 257.896 -2.45097 3.85715 0
M  V30 2576 C 258.893 -2.07747 4.76589 0
M  V30 2577 C 256.578 -2.59141 4.30292 0
M  V30 2578 C 258.572 -1.8475 6.10038 0
M  V30 2579 C 256.259 -2.35759 5.63792 0
M  V30 2580 C 257.257 -1.9862 6.53482 0
M  V30 2581 O 256.945 -1.75489 7.84512 0
M  V30 2582 H 256.677 -0.445271 0.508635 0
M  V30 2583 H 259.231 -0.79621 1.8934 0
M  V30 2584 H 257.461 -3.3506 1.93058 0
M  V30 2585 H 259.15 -3.31123 2.3476 0
M  V30 2586 H 259.916 -1.96465 4.43426 0
M  V30 2587 H 255.795 -2.87022 3.60749 0
M  V30 2588 H 259.339 -1.55686 6.80006 0
M  V30 2589 H 255.236 -2.46646 5.9652 0
M  V30 2590 H 256.004 -1.89841 7.9618 0
M  V30 2591 N 258.668 -1.30515 -0.883378 0
M  V30 2592 C 259.914 -1.19607 -1.63774 0
M  V30 2593 C 260.247 0.248314 -1.92606 0
M  V30 2594 O 259.522 1.17742 -1.54813 0
M  V30 2595 C 259.805 -2.02669 -2.97653 0
M  V30 2596 C 259.658 -3.55335 -2.75784 0
M  V30 2597 C 260.977 -1.86573 -3.98596 0
M  V30 2598 H 258.096 -0.435856 -0.594305 0
M  V30 2599 H 260.738 -1.60165 -1.02212 0
M  V30 2600 H 258.888 -1.68208 -3.50197 0
M  V30 2601 H 260.56 -3.99863 -2.30016 0
M  V30 2602 H 258.803 -3.79438 -2.1026 0
M  V30 2603 H 259.474 -4.08745 -3.70988 0
M  V30 2604 H 261.95 -2.16703 -3.55217 0
M  V30 2605 H 260.826 -2.47014 -4.90179 0
M  V30 2606 H 261.087 -0.825321 -4.34328 0
M  V30 2607 N 260.146 1.09593 -1.13257 0
M  V30 2608 C 261.394 1.81375 -0.891492 0
M  V30 2609 C 261.715 1.86049 0.584009 0
M  V30 2610 O 260.985 1.34481 1.42449 0
M  V30 2611 H 259.565 0.671708 -0.326828 0
M  V30 2612 H 262.227 1.3256 -1.42877 0
M  V30 2613 H 261.323 2.84612 -1.28071 0
M  V30 2614 N 261.624 0.925811 1.2754 0
M  V30 2615 C 262.849 0.580924 1.99098 0
M  V30 2616 C 263.274 -0.833555 1.68622 0
M  V30 2617 O 262.632 -1.55903 0.925422 0
M  V30 2618 C 262.68 0.811186 3.51358 0
M  V30 2619 O 261.784 -0.124129 4.12213 0
M  V30 2620 H 261.125 0.223873 0.625122 0
M  V30 2621 H 263.655 1.24455 1.62395 0
M  V30 2622 H 263.665 0.72601 4.01489 0
M  V30 2623 H 262.34 1.84227 3.72872 0
M  V30 2624 H 260.917 0.0108006 3.72898 0
M  V30 2625 N 263.102 -1.41638 0.69111 0
M  V30 2626 C 264.35 -2.00902 0.219758 0
M  V30 2627 C 264.671 -1.54994 -1.18329 0
M  V30 2628 O 263.941 -0.778628 -1.79762 0
M  V30 2629 H 262.521 -0.74289 0.0782558 0
M  V30 2630 H 265.183 -1.73327 0.891271 0
M  V30 2631 H 264.279 -3.11224 0.233708 0
M  V30 2632 N 264.58 -0.43555 -1.51462 0
M  V30 2633 C 265.51 0.367376 -2.30592 0
M  V30 2634 C 266.491 1.02263 -1.35928 0
M  V30 2635 O 267.676 1.02661 -1.64847 0
M  V30 2636 C 264.806 1.46983 -3.14664 0
M  V30 2637 C 263.76 0.938161 -4.17591 0
M  V30 2638 C 263.086 2.13622 -4.90173 0
M  V30 2639 C 264.386 -0.0261621 -5.22293 0
M  V30 2640 H 266.08 -0.292969 -2.97963 0
M  V30 2641 H 263.626 -0.14234 -1.43295 0
M  V30 2642 H 265.579 2.03873 -3.688 0
M  V30 2643 H 264.303 2.15843 -2.4511 0
M  V30 2644 H 262.962 0.391481 -3.64504 0
M  V30 2645 H 262.61 2.81098 -4.17124 0
M  V30 2646 H 262.31 1.78688 -5.59772 0
M  V30 2647 H 263.834 2.7107 -5.47132 0
M  V30 2648 H 265.248 0.452384 -5.71512 0
M  V30 2649 H 263.645 -0.287992 -5.99409 0
M  V30 2650 H 264.715 -0.963391 -4.75233 0
M  V30 2651 N 266.058 1.56714 -0.166846 0
M  V30 2652 C 267.288 2.00828 0.48494 0
M  V30 2653 C 267.696 1.04612 1.57648 0
M  V30 2654 O 267.039 0.0383201 1.8366 0
M  V30 2655 C 267.101 3.4137 1.12723 0
M  V30 2656 C 266.765 4.56654 0.177886 0
M  V30 2657 C 267.762 5.16402 -0.60207 0
M  V30 2658 C 265.447 5.02244 0.0750139 0
M  V30 2659 C 267.441 6.20167 -1.47215 0
M  V30 2660 C 265.128 6.05859 -0.798649 0
M  V30 2661 C 266.126 6.64691 -1.57082 0
M  V30 2662 O 265.814 7.66297 -2.42989 0
M  V30 2663 H 265.546 0.663587 0.128953 0
M  V30 2664 H 268.1 2.03692 -0.264365 0
M  V30 2665 H 266.33 3.35406 1.92457 0
M  V30 2666 H 268.019 3.69466 1.68076 0
M  V30 2667 H 268.785 4.82065 -0.53274 0
M  V30 2668 H 264.664 4.56167 0.665812 0
M  V30 2669 H 268.208 6.66016 -2.07531 0
M  V30 2670 H 264.105 6.39621 -0.869199 0
M  V30 2671 H 264.873 7.83601 -2.36455 0
M  V30 2672 N 267.536 -0.106894 1.57237 0
M  V30 2673 C 268.947 -0.662723 1.74542 0
M  V30 2674 C 269.298 -1.7971 0.787319 0
M  V30 2675 O 268.423 -2.16368 -0.0369636 0
M  V30 2676 C 269.018 -1.20896 3.16496 0
M  V30 2677 C 267.577 -1.71096 3.35266 0
M  V30 2678 C 266.724 -0.615642 2.7038 0
M  V30 2679 H 269.675 0.119106 1.58252 0
M  V30 2680 H 269.696 -2.07847 3.18716 0
M  V30 2681 H 269.208 -0.383122 3.86204 0
M  V30 2682 H 267.309 -2.56119 2.70618 0
M  V30 2683 H 267.422 -1.81208 4.43509 0
M  V30 2684 H 265.786 -1.05222 2.31949 0
M  V30 2685 H 266.569 0.199419 3.4272 0
M  V30 2686 N 269.014 -1.53014 -0.377408 0
M  V30 2687 C 270.239 -1.72818 -1.14668 0
M  V30 2688 C 270.664 -0.450725 -1.8262 0
M  V30 2689 O 270.022 0.59439 -1.7128 0
M  V30 2690 C 270.07 -2.88627 -2.16164 0
M  V30 2691 O 269.174 -2.56409 -3.22998 0
M  V30 2692 H 268.515 -0.574301 -0.333278 0
M  V30 2693 H 271.045 -1.99853 -0.438152 0
M  V30 2694 H 271.055 -3.14455 -2.59966 0
M  V30 2695 H 269.73 -3.81294 -1.66095 0
M  V30 2696 H 268.307 -2.4136 -2.84253 0
M  V30 2697 N 270.492 0.636531 -1.44174 0
M  V30 2698 C 271.422 1.76003 -1.53444 0
M  V30 2699 C 272.403 1.65619 -0.387841 0
M  V30 2700 O 273.588 1.84461 -0.607257 0
M  V30 2701 C 270.718 3.14511 -1.4731 0
M  V30 2702 C 269.672 3.39677 -2.60391 0
M  V30 2703 C 268.998 4.78159 -2.39308 0
M  V30 2704 C 270.298 3.32772 -4.02567 0
M  V30 2705 H 271.992 1.68501 -2.47483 0
M  V30 2706 H 269.538 0.809237 -1.19111 0
M  V30 2707 H 271.491 3.92878 -1.52397 0
M  V30 2708 H 270.215 3.22783 -0.49785 0
M  V30 2709 H 268.874 2.63688 -2.54684 0
M  V30 2710 H 268.522 4.83128 -1.39988 0
M  V30 2711 H 268.222 4.95956 -3.15122 0
M  V30 2712 H 269.746 5.58762 -2.46205 0
M  V30 2713 H 271.16 4.01051 -4.09672 0
M  V30 2714 H 269.557 3.62104 -4.7854 0
M  V30 2715 H 270.627 2.30669 -4.2652 0
M  V30 2716 N 271.97 1.30982 0.876444 0
M  V30 2717 C 272.933 1.18054 1.96459 0
M  V30 2718 C 273.933 0.109399 1.60427 0
M  V30 2719 O 275.123 0.358173 1.70478 0
M  V30 2720 C 272.255 0.810616 3.31122 0
M  V30 2721 H 273.448 2.14735 2.09354 0
M  V30 2722 H 271.001 1.145 1.06392 0
M  V30 2723 H 271.736 -0.155322 3.23928 0
M  V30 2724 H 271.521 1.58481 3.58645 0
M  V30 2725 H 273.011 0.743876 4.10921 0
M  V30 2726 N 273.449 -1.08991 1.13837 0
M  V30 2727 C 274.697 -1.80899 0.901098 0
M  V30 2728 C 275.018 -1.86356 -0.574134 0
M  V30 2729 O 274.288 -1.35235 -1.41733 0
M  V30 2730 H 272.868 -0.669966 0.330386 0
M  V30 2731 H 275.53 -1.318 1.43578 0
M  V30 2732 H 274.626 -2.83929 1.29578 0
M  V30 2733 N 274.927 -0.932562 -1.27047 0
M  V30 2734 C 276.173 -0.576412 -1.94436 0
M  V30 2735 C 276.506 0.880891 -1.73072 0
M  V30 2736 O 275.781 1.62905 -1.06264 0
M  V30 2737 C 276.064 -0.909031 -3.48437 0
M  V30 2738 C 275.917 -2.42044 -3.79123 0
M  V30 2739 C 277.236 -0.418341 -4.38107 0
M  V30 2740 H 274.355 -0.210888 -0.706184 0
M  V30 2741 H 276.997 -1.16522 -1.50075 0
M  V30 2742 H 275.147 -0.407947 -3.86352 0
M  V30 2743 H 276.819 -2.99359 -3.50973 0
M  V30 2744 H 275.062 -2.86758 -3.25503 0
M  V30 2745 H 275.733 -2.6037 -4.86736 0
M  V30 2746 H 278.209 -0.847856 -4.0737 0
M  V30 2747 H 277.085 -0.679981 -5.44672 0
M  V30 2748 H 277.346 0.681642 -4.36814 0
M  V30 2749 N 276.405 1.4127 -0.698611 0
M  V30 2750 C 277.653 2.00782 -0.230409 0
M  V30 2751 C 277.974 1.5562 1.17505 0
M  V30 2752 O 277.244 0.78815 1.79346 0
M  V30 2753 H 275.824 0.742464 -0.0821944 0
M  V30 2754 H 278.486 1.72852 -0.90045 0
M  V30 2755 H 277.582 3.11095 -0.25021 0
M  V30 2756 N 277.883 0.443576 1.51229 0
M  V30 2757 C 278.793 -0.370721 2.31652 0
M  V30 2758 C 279.809 -1.02186 1.40833 0
M  V30 2759 O 280.985 -1.01586 1.73903 0
M  V30 2760 C 278.05 -1.45376 3.14749 0
M  V30 2761 C 277.111 -0.822099 4.21355 0
M  V30 2762 C 276.344 -1.85353 5.0048 0
M  V30 2763 O 276.567 -3.07656 4.80316 0
M  V30 2764 O 275.501 -1.4406 5.84406 0
M  V30 2765 H 279.327 0.286002 3.0235 0
M  V30 2766 H 276.912 0.20598 1.47973 0
M  V30 2767 H 278.794 -2.08173 3.66391 0
M  V30 2768 H 277.469 -2.09445 2.46809 0
M  V30 2769 H 276.376 -0.155909 3.73775 0
M  V30 2770 H 277.709 -0.224797 4.91686 0
M  V30 2771 N 279.361 -1.56624 0.175154 0
M  V30 2772 C 280.293 -2.15333 -0.785128 0
M  V30 2773 C 281.306 -1.1099 -1.19101 0
M  V30 2774 O 282.495 -1.38162 -1.13019 0
M  V30 2775 C 279.595 -2.68427 -2.06882 0
M  V30 2776 C 278.768 -3.97466 -1.8259 0
M  V30 2777 C 277.827 -4.35585 -2.95215 0
M  V30 2778 O 276.853 -5.03389 -2.65684 0
M  V30 2779 N 278.055 -3.97457 -4.23094 0
M  V30 2780 H 280.82 -2.98359 -0.283187 0
M  V30 2781 H 278.381 -1.61898 -0.00749817 0
M  V30 2782 H 280.373 -2.90924 -2.81328 0
M  V30 2783 H 278.943 -1.89968 -2.48256 0
M  V30 2784 H 278.163 -3.83307 -0.920287 0
M  V30 2785 H 279.451 -4.81736 -1.63733 0
M  V30 2786 H 278.849 -3.42878 -4.49945 0
M  V30 2787 H 277.406 -4.24947 -4.9423 0
M  V30 2788 N 280.839 0.0985539 -1.57292 0
M  V30 2789 C 281.771 1.14595 -1.98496 0
M  V30 2790 C 282.784 1.36512 -0.887031 0
M  V30 2791 O 283.973 1.35225 -1.16518 0
M  V30 2792 C 281.073 2.50216 -2.28572 0
M  V30 2793 C 280.246 2.48624 -3.59868 0
M  V30 2794 C 279.305 3.66146 -3.7792 0
M  V30 2795 O 278.331 3.48795 -4.49812 0
M  V30 2796 N 279.533 4.85496 -3.18235 0
M  V30 2797 H 282.298 0.795277 -2.88956 0
M  V30 2798 H 279.859 0.287579 -1.59325 0
M  V30 2799 H 281.851 3.27432 -2.37845 0
M  V30 2800 H 280.421 2.77387 -1.44136 0
M  V30 2801 H 279.641 1.56978 -3.61596 0
M  V30 2802 H 280.929 2.44635 -4.46129 0
M  V30 2803 H 280.327 5.02497 -2.59833 0
M  V30 2804 H 278.884 5.60317 -3.32999 0
M  V30 2805 N 282.317 1.53212 0.369288 0
M  V30 2806 C 283.565 1.68881 1.11012 0
M  V30 2807 C 283.886 0.441285 1.89941 0
M  V30 2808 O 283.156 -0.544623 1.88177 0
M  V30 2809 H 281.736 0.622569 0.412816 0
M  V30 2810 H 284.398 1.90391 0.416802 0
M  V30 2811 H 283.494 2.54822 1.80201 0
M  V30 2812 N 283.795 -0.628877 1.44509 0
M  V30 2813 C 284.727 -1.754 1.47538 0
M  V30 2814 C 285.74 -1.58575 0.368506 0
M  V30 2815 O 286.929 -1.66847 0.634376 0
M  V30 2816 C 284.029 -3.1315 1.29577 0
M  V30 2817 C 283.202 -3.56413 2.53551 0
M  V30 2818 C 282.261 -4.7305 2.30457 0
M  V30 2819 O 281.287 -4.81247 3.03957 0
M  V30 2820 N 282.489 -5.64903 1.3366 0
M  V30 2821 H 285.254 -1.73272 2.44534 0
M  V30 2822 H 282.815 -0.813512 1.39977 0
M  V30 2823 H 284.807 -3.88902 1.11971 0
M  V30 2824 H 283.377 -3.09908 0.409371 0
M  V30 2825 H 282.597 -2.70847 2.86419 0
M  V30 2826 H 283.885 -3.82071 3.36005 0
M  V30 2827 H 283.283 -5.60975 0.729604 0
M  V30 2828 H 281.84 -6.40275 1.22032 0
M  V30 2829 N 285.273 -1.31445 -0.869486 0
M  V30 2830 C 286.521 -1.20918 -1.61936 0
M  V30 2831 C 286.842 0.232683 -1.93607 0
M  V30 2832 O 286.112 1.15352 -1.58338 0
M  V30 2833 H 284.692 -0.44454 -0.600328 0
M  V30 2834 H 287.354 -1.64776 -1.0409 0
M  V30 2835 H 286.45 -1.78124 -2.56278 0
M  V30 2836 N 286.751 1.08385 -1.14413 0
M  V30 2837 C 287.999 1.80419 -0.910679 0
M  V30 2838 C 288.32 1.86658 0.564243 0
M  V30 2839 O 287.59 1.35985 1.41014 0
M  V30 2840 H 286.17 0.668204 -0.333934 0
M  V30 2841 H 288.832 1.31037 -1.44275 0
M  V30 2842 H 287.928 2.83238 -1.31082 0
M  V30 2843 N 288.23 0.939286 1.26551 0
M  V30 2844 C 289.507 0.5038 1.89001 0
M  V30 2845 C 289.887 -1.01854 1.84903 0
M  V30 2846 O 289.235 -1.87773 1.30206 0
M  V30 2847 C 289.445 1.063 3.32417 0
M  V30 2848 C 290.793 1.13051 4.09273 0
M  V30 2849 O 291.817 1.01345 3.41479 0
M  V30 2850 O 290.676 1.31233 5.30509 0
M  V30 2851 H 287.77 0.163897 0.810597 0
M  V30 2852 H 290.316 1.03173 1.34735 0
M  V30 2853 H 289.088 2.10665 3.29752 0
M  V30 2854 H 288.711 0.517408 3.94219 0
M  V30 2855 N 289.708 -1.40897 0.706093 0
M  V30 2856 C 290.936 -2.05373 0.250887 0
M  V30 2857 C 291.351 -1.53172 -1.10381 0
M  V30 2858 O 290.708 -0.684305 -1.69185 0
M  V30 2859 C 290.759 -3.6088 0.211571 0
M  V30 2860 O 290.48 -4.11153 1.51276 0
M  V30 2861 C 291.981 -4.42517 -0.263346 0
M  V30 2862 H 289.201 -0.66115 0.114552 0
M  V30 2863 H 291.745 -1.80479 0.961635 0
M  V30 2864 H 289.9 -3.84777 -0.450073 0
M  V30 2865 H 290.314 -5.05279 1.40689 0
M  V30 2866 H 291.788 -5.51479 -0.239718 0
M  V30 2867 H 292.265 -4.19396 -1.30397 0
M  V30 2868 H 292.871 -4.23708 0.367677 0
M  V30 2869 N 291.186 -0.45159 -1.50991 0
M  V30 2870 C 292.597 0.00818571 -1.86698 0
M  V30 2871 C 292.948 1.40661 -1.3678 0
M  V30 2872 O 292.073 2.0391 -0.724546 0
M  V30 2873 C 292.668 0.0216303 -3.38793 0
M  V30 2874 C 291.227 0.425865 -3.73983 0
M  V30 2875 C 290.374 -0.372163 -2.74791 0
M  V30 2876 H 293.325 -0.666785 -1.44013 0
M  V30 2877 H 293.346 0.828078 -3.7138 0
M  V30 2878 H 292.858 -0.996288 -3.75094 0
M  V30 2879 H 290.959 1.44886 -3.43277 0
M  V30 2880 H 291.072 0.140761 -4.78893 0
M  V30 2881 H 289.436 0.171498 -2.54122 0
M  V30 2882 H 290.219 -1.38922 -3.13935 0
M  V30 2883 N 292.664 1.56529 -0.183458 0
M  V30 2884 C 293.91 1.98304 0.452466 0
M  V30 2885 C 294.265 1.06799 1.60037 0
M  V30 2886 O 293.558 0.110049 1.91284 0
M  V30 2887 C 293.752 3.43939 0.971637 0
M  V30 2888 C 293.581 4.49528 -0.124425 0
M  V30 2889 C 292.351 5.01981 -0.578168 0
M  V30 2890 C 294.549 5.05836 -0.929207 0
M  V30 2891 N 292.531 5.91219 -1.65327 0
M  V30 2892 C 293.902 5.91632 -1.85396 0
M  V30 2893 C 295.957 4.88302 -0.972929 0
M  V30 2894 C 294.66 6.61768 -2.81878 0
M  V30 2895 C 296.686 5.59168 -1.92574 0
M  V30 2896 C 296.048 6.44701 -2.83795 0
M  V30 2897 H 292.147 0.770551 0.133324 0
M  V30 2898 H 294.731 1.92581 -0.286473 0
M  V30 2899 H 292.902 3.50184 1.68006 0
M  V30 2900 H 294.634 3.72702 1.5772 0
M  V30 2901 H 291.389 4.73282 -0.173639 0
M  V30 2902 H 291.813 6.40543 -2.19167 0
M  V30 2903 H 296.455 4.21861 -0.28168 0
M  V30 2904 H 294.173 7.27415 -3.51984 0
M  V30 2905 H 297.759 5.47582 -1.96583 0
M  V30 2906 H 296.639 6.98573 -3.56322 0
M  V30 2907 N 294.142 -0.090211 1.57342 0
M  V30 2908 C 295.39 -0.791241 1.85967 0
M  V30 2909 C 295.711 -1.7903 0.772859 0
M  V30 2910 O 294.981 -1.94872 -0.200398 0
M  V30 2911 H 293.561 -0.295205 0.686195 0
M  V30 2912 H 296.223 -0.0706782 1.94772 0
M  V30 2913 H 295.319 -1.31882 2.82867 0
M  V30 2914 N 295.62 -1.53406 -0.361157 0
M  V30 2915 C 296.583 -1.79479 -1.42548 0
M  V30 2916 C 297.583 -0.665327 -1.4639 0
M  V30 2917 O 298.773 -0.933549 -1.47073 0
M  V30 2918 C 295.905 -1.92087 -2.8163 0
M  V30 2919 H 297.098 -2.74538 -1.20701 0
M  V30 2920 H 294.651 -1.4455 -0.594546 0
M  V30 2921 H 295.386 -0.991099 -3.08784 0
M  V30 2922 H 295.171 -2.74241 -2.80239 0
M  V30 2923 H 296.661 -2.13836 -3.58697 0
M  V30 2924 N 297.098 0.621204 -1.44841 0
M  V30 2925 C 298.008 1.7612 -1.5498 0
M  V30 2926 C 299.024 1.68477 -0.434927 0
M  V30 2927 O 300.2 1.89076 -0.693693 0
M  V30 2928 C 297.265 3.1254 -1.50065 0
M  V30 2929 C 296.326 3.31741 -2.72482 0
M  V30 2930 C 295.559 4.61653 -2.67792 0
M  V30 2931 O 295.782 5.431 -1.74352 0
M  V30 2932 O 294.716 4.83271 -3.58794 0
M  V30 2933 H 298.542 1.70518 -2.51311 0
M  V30 2934 H 296.127 0.783643 -1.27198 0
M  V30 2935 H 298.009 3.93844 -1.49882 0
M  V30 2936 H 296.684 3.18663 -0.568806 0
M  V30 2937 H 295.591 2.50077 -2.7823 0
M  V30 2938 H 296.924 3.30486 -3.64746 0
M  V30 2939 N 298.576 1.31904 0.862503 0
M  V30 2940 C 299.508 1.16005 1.97675 0
M  V30 2941 C 300.521 0.0971234 1.6251 0
M  V30 2942 O 301.71 0.345337 1.75128 0
M  V30 2943 C 298.81 0.751791 3.30456 0
M  V30 2944 C 297.983 1.90133 3.93914 0
M  V30 2945 C 297.042 1.4779 5.05019 0
M  V30 2946 O 296.068 2.18872 5.25437 0
M  V30 2947 N 297.27 0.369491 5.79323 0
M  V30 2948 H 300.035 2.11982 2.11857 0
M  V30 2949 H 297.596 1.24337 1.03691 0
M  V30 2950 H 299.588 0.451084 4.02178 0
M  V30 2951 H 298.158 -0.116593 3.12382 0
M  V30 2952 H 297.378 2.36896 3.15078 0
M  V30 2953 H 298.666 2.67111 4.33047 0
M  V30 2954 H 298.064 -0.222299 5.65263 0
M  V30 2955 H 296.621 0.128354 6.51674 0
M  V30 2956 N 300.054 -1.07777 1.14986 0
M  V30 2957 C 301.465 -1.61766 0.932127 0
M  V30 2958 C 301.816 -1.88974 -0.527581 0
M  V30 2959 O 300.941 -1.65198 -1.39781 0
M  V30 2960 C 301.536 -2.93891 1.68563 0
M  V30 2961 C 300.095 -3.44639 1.5133 0
M  V30 2962 C 299.242 -2.18767 1.704 0
M  V30 2963 H 302.193 -0.909201 1.30074 0
M  V30 2964 H 302.214 -3.62623 1.15259 0
M  V30 2965 H 301.726 -2.74057 2.74799 0
M  V30 2966 H 299.827 -3.69564 0.474702 0
M  V30 2967 H 299.94 -4.20966 2.28746 0
M  V30 2968 H 298.304 -2.28253 1.13016 0
M  V30 2969 H 299.087 -2.01433 2.77992 0
M  V30 2970 N 301.532 -0.945985 -1.26051 0
M  V30 2971 C 302.948 -0.649045 -1.45807 0
M  V30 2972 C 303.148 0.796158 -1.85104 0
M  V30 2973 O 302.204 1.57233 -1.97571 0
M  V30 2974 C 303.517 -1.61458 -2.53677 0
M  V30 2975 C 305.065 -1.62481 -2.67524 0
M  V30 2976 C 305.54 -2.57776 -3.7857 0
M  V30 2977 N 307.031 -2.5609 -3.85969 0
M  V30 2978 C 307.766 -3.26508 -4.7136 0
M  V30 2979 N 307.262 -4.0637 -5.61102 0
M  V30 2980 N 309.055 -3.15437 -4.65248 0
M  V30 2981 H 301.206 -1.88005 -0.988328 0
M  V30 2982 H 303.469 -0.808198 -0.4955 0
M  V30 2983 H 303.175 -2.64644 -2.31638 0
M  V30 2984 H 303.049 -1.37036 -3.51427 0
M  V30 2985 H 305.436 -0.600167 -2.88933 0
M  V30 2986 H 305.517 -1.90958 -1.70202 0
M  V30 2987 H 305.161 -3.60361 -3.57913 0
M  V30 2988 H 305.091 -2.26587 -4.75359 0
M  V30 2989 H 307.582 -1.98105 -3.21812 0
M  V30 2990 H 307.895 -4.57042 -6.23164 0
M  V30 2991 H 306.24 -4.10469 -5.60839 0
M  V30 2992 H 309.431 -2.52525 -3.94143 0
M  V30 2993 H 309.604 -3.70584 -5.31575 0
M  V30 2994 N 303.011 1.40521 -0.713556 0
M  V30 2995 C 303.974 2.29098 -0.0684347 0
M  V30 2996 C 304.974 1.45268 0.689472 0
M  V30 2997 O 306.164 1.66205 0.521677 0
M  V30 2998 C 303.296 3.28446 0.913024 0
M  V30 2999 H 304.489 2.87645 -0.84855 0
M  V30 3000 H 302.042 1.48809 -0.47809 0
M  V30 3001 H 302.777 2.74913 1.72027 0
M  V30 3002 H 302.562 3.90327 0.372472 0
M  V30 3003 H 304.052 3.94777 1.36165 0
M  V30 3004 N 304.489 0.459591 1.5075 0
M  V30 3005 C 305.399 -0.34613 2.32033 0
M  V30 3006 C 306.415 -1.00686 1.41909 0
M  V30 3007 O 307.591 -0.997361 1.7497 0
M  V30 3008 C 304.656 -1.42029 3.16273 0
M  V30 3009 C 303.717 -0.777362 4.22203 0
M  V30 3010 C 302.95 -1.80034 5.02418 0
M  V30 3011 O 303.173 -3.02544 4.83553 0
M  V30 3012 O 302.107 -1.37853 5.85901 0
M  V30 3013 H 305.933 0.318054 3.0203 0
M  V30 3014 H 303.518 0.221663 1.47746 0
M  V30 3015 H 305.4 -2.04275 3.68578 0
M  V30 3016 H 304.075 -2.06815 2.49016 0
M  V30 3017 H 302.982 -0.116256 3.73919 0
M  V30 3018 H 304.315 -0.172634 4.91897 0
M  V30 3019 N 305.967 -1.56429 0.191757 0
M  V30 3020 C 307.378 -1.83912 -0.321428 0
M  V30 3021 C 307.729 -1.11231 -1.61623 0
M  V30 3022 O 306.854 -0.37202 -2.13178 0
M  V30 3023 C 307.449 -3.33624 -0.589961 0
M  V30 3024 C 306.008 -3.6153 -1.04753 0
M  V30 3025 C 305.155 -2.7714 -0.0943327 0
M  V30 3026 H 308.106 -1.53161 0.415612 0
M  V30 3027 H 308.127 -3.52213 -1.43966 0
M  V30 3028 H 307.639 -3.86495 0.352588 0
M  V30 3029 H 305.74 -3.14089 -2.00447 0
M  V30 3030 H 305.853 -4.69737 -0.942549 0
M  V30 3031 H 304.217 -2.47638 -0.595589 0
M  V30 3032 H 305 -3.32799 0.842601 0
M  V30 3033 N 307.445 0.0818655 -1.57387 0
M  V30 3034 C 308.693 0.781368 -1.86384 0
M  V30 3035 C 309.014 1.78618 -0.782342 0
M  V30 3036 O 308.284 1.94976 0.190061 0
M  V30 3037 H 306.864 0.291562 -0.687751 0
M  V30 3038 H 309.526 0.060348 -1.94807 0
M  V30 3039 H 308.622 1.3038 -2.83562 0
M  V30 3040 N 308.923 1.53595 0.353017 0
M  V30 3041 C 309.873 1.77299 1.43349 0
M  V30 3042 C 310.857 0.627884 1.48143 0
M  V30 3043 O 312.049 0.88697 1.53173 0
M  V30 3044 C 309.178 1.97757 2.80619 0
M  V30 3045 C 308.264 3.18305 2.80254 0
M  V30 3046 N 308.655 4.39967 2.49526 0
M  V30 3047 C 306.953 3.19283 3.11407 0
M  V30 3048 C 307.654 5.21772 2.57156 0
M  V30 3049 N 306.63 4.58269 2.92388 0
M  V30 3050 H 310.432 2.68963 1.18474 0
M  V30 3051 H 307.946 1.52391 0.561306 0
M  V30 3052 H 309.943 2.1287 3.58458 0
M  V30 3053 H 308.603 1.07329 3.06448 0
M  V30 3054 H 309.614 4.67482 2.22893 0
M  V30 3055 H 306.291 2.3879 3.4247 0
M  V30 3056 H 307.681 6.2885 2.36638 0
M  V30 3057 N 310.401 -0.613514 1.45168 0
M  V30 3058 C 311.364 -1.7065 1.53007 0
M  V30 3059 C 312.364 -1.5548 0.410184 0
M  V30 3060 O 313.554 -1.60656 0.673455 0
M  V30 3061 C 310.686 -3.09875 1.42093 0
M  V30 3062 H 311.879 -1.65068 2.50385 0
M  V30 3063 H 309.432 -0.828728 1.32521 0
M  V30 3064 H 310.167 -3.21039 0.458769 0
M  V30 3065 H 309.952 -3.22293 2.23315 0
M  V30 3066 H 311.442 -3.895 1.50598 0
M  V30 3067 N 311.879 -1.3236 -0.855495 0
M  V30 3068 C 313.127 -1.22629 -1.60644 0
M  V30 3069 C 313.448 0.212136 -1.93843 0
M  V30 3070 O 312.718 1.13666 -1.59552 0
M  V30 3071 H 311.298 -0.450882 -0.595579 0
M  V30 3072 H 313.96 -1.65871 -1.02337 0
M  V30 3073 H 313.056 -1.80832 -2.54374 0
M  V30 3074 N 313.357 1.07166 -1.15556 0
M  V30 3075 C 314.287 2.16403 -0.877046 0
M  V30 3076 C 315.268 1.69217 0.173111 0
M  V30 3077 O 316.453 1.94181 0.027084 0
M  V30 3078 C 313.583 3.45349 -0.367632 0
M  V30 3079 C 312.537 4.05995 -1.35468 0
M  V30 3080 C 311.863 5.30045 -0.704038 0
M  V30 3081 C 313.163 4.45804 -2.72132 0
M  V30 3082 H 314.857 2.39959 -1.79053 0
M  V30 3083 H 312.403 1.15325 -0.862331 0
M  V30 3084 H 314.356 4.21095 -0.160317 0
M  V30 3085 H 313.08 3.21385 0.581326 0
M  V30 3086 H 311.739 3.32296 -1.54839 0
M  V30 3087 H 311.387 5.02373 0.251128 0
M  V30 3088 H 311.087 5.71579 -1.36277 0
M  V30 3089 H 312.611 6.08495 -0.50654 0
M  V30 3090 H 314.025 5.12671 -2.56595 0
M  V30 3091 H 312.422 4.98296 -3.34397 0
M  V30 3092 H 313.492 3.57083 -3.28054 0
M  V30 3093 N 314.835 0.952656 1.25548 0
M  V30 3094 C 315.798 0.475794 2.24207 0
M  V30 3095 C 316.798 -0.419428 1.55234 0
M  V30 3096 O 317.988 -0.216994 1.72843 0
M  V30 3097 C 315.12 -0.312814 3.39462 0
M  V30 3098 H 316.313 1.34779 2.67908 0
M  V30 3099 H 313.866 0.735739 1.37901 0
M  V30 3100 H 314.601 -1.20257 3.01179 0
M  V30 3101 H 314.386 0.329404 3.90714 0
M  V30 3102 H 315.876 -0.635986 4.12729 0
M  V30 3103 N 316.313 -1.40141 0.720998 0
M  V30 3104 C 317.724 -1.83678 0.334553 0
M  V30 3105 C 318.075 -1.6027 -1.13173 0
M  V30 3106 O 317.2 -1.08643 -1.87152 0
M  V30 3107 C 317.795 -3.33437 0.600437 0
M  V30 3108 C 316.354 -3.75447 0.267642 0
M  V30 3109 C 315.501 -2.63296 0.870097 0
M  V30 3110 H 318.452 -1.29331 0.919732 0
M  V30 3111 H 318.473 -3.80269 -0.132517 0
M  V30 3112 H 317.985 -3.50442 1.66768 0
M  V30 3113 H 316.086 -3.64035 -0.794329 0
M  V30 3114 H 316.199 -4.73344 0.74042 0
M  V30 3115 H 314.563 -2.52954 0.297739 0
M  V30 3116 H 315.346 -2.83112 1.94172 0
M  V30 3117 N 317.792 -0.46758 -1.50504 0
M  V30 3118 C 319.04 0.0884469 -2.01906 0
M  V30 3119 C 319.361 1.40532 -1.35188 0
M  V30 3120 O 318.631 1.89515 -0.496079 0
M  V30 3121 H 317.211 0.0356765 -0.746148 0
M  V30 3122 H 319.873 -0.6172 -1.84869 0
M  V30 3123 H 318.969 0.2425 -3.11156 0
M  V30 3124 N 319.27 1.56325 -0.20005 0
M  V30 3125 C 320.681 1.8408 0.31167 0
M  V30 3126 C 321.032 1.12087 1.61031 0
M  V30 3127 O 320.157 0.38332 2.12978 0
M  V30 3128 C 320.752 3.33932 0.57226 0
M  V30 3129 C 319.311 3.6208 1.02834 0
M  V30 3130 C 318.458 2.77186 0.079634 0
M  V30 3131 H 321.409 1.52939 -0.423729 0
M  V30 3132 H 321.43 3.52971 1.42096 0
M  V30 3133 H 320.942 3.86303 -0.37308 0
M  V30 3134 H 319.043 3.15147 1.98778 0
M  V30 3135 H 319.156 4.7023 0.917624 0
M  V30 3136 H 317.52 2.47951 0.582448 0
M  V30 3137 H 318.303 3.32347 -0.860238 0
M  V30 3138 N 320.748 -0.0735177 1.57428 0
M  V30 3139 C 321.711 -1.07192 2.02589 0
M  V30 3140 C 322.711 -1.31695 0.922661 0
M  V30 3141 O 323.901 -1.27445 1.18758 0
M  V30 3142 C 321.033 -2.41599 2.40506 0
M  V30 3143 H 322.226 -0.682727 2.92025 0
M  V30 3144 H 319.779 -0.319193 1.53006 0
M  V30 3145 H 320.514 -2.85354 1.5409 0
M  V30 3146 H 320.299 -2.25156 3.21009 0
M  V30 3147 H 321.789 -3.13367 2.76027 0
M  V30 3148 N 322.226 -1.5378 -0.344866 0
M  V30 3149 C 323.156 -1.84662 -1.42906 0
M  V30 3150 C 324.137 -0.701648 -1.54955 0
M  V30 3151 O 325.322 -0.953438 -1.69184 0
M  V30 3152 C 322.452 -2.05503 -2.79974 0
M  V30 3153 C 321.406 -3.21318 -2.82734 0
M  V30 3154 C 320.732 -3.2749 -4.22675 0
M  V30 3155 C 322.032 -4.59456 -2.48389 0
M  V30 3156 H 323.726 -2.75461 -1.17311 0
M  V30 3157 H 321.272 -1.32542 -0.562896 0
M  V30 3158 H 323.225 -2.25691 -3.55867 0
M  V30 3159 H 321.949 -1.11434 -3.07002 0
M  V30 3160 H 320.608 -3.00984 -2.09294 0
M  V30 3161 H 320.256 -2.31019 -4.4681 0
M  V30 3162 H 319.956 -4.05316 -4.25433 0
M  V30 3163 H 321.48 -3.49887 -5.00412 0
M  V30 3164 H 322.894 -4.79667 -3.13995 0
M  V30 3165 H 321.291 -5.39675 -2.62432 0
M  V30 3166 H 322.361 -4.63155 -1.4358 0
M  V30 3167 N 323.704 0.605807 -1.45491 0
M  V30 3168 C 324.932 1.39136 -1.5313 0
M  V30 3169 C 325.347 1.88082 -0.164507 0
M  V30 3170 O 324.704 1.62316 0.834247 0
M  V30 3171 C 324.755 2.59463 -2.51716 0
M  V30 3172 O 324.476 2.12551 -3.83084 0
M  V30 3173 C 325.977 3.52301 -2.6907 0
M  V30 3174 H 323.197 0.425849 -0.51855 0
M  V30 3175 H 325.741 0.73865 -1.90694 0
M  V30 3176 H 323.896 3.20772 -2.17219 0
M  V30 3177 H 324.31 2.90744 -4.36541 0
M  V30 3178 H 325.784 4.33271 -3.42024 0
M  V30 3179 H 326.261 4.02757 -1.75167 0
M  V30 3180 H 326.867 2.96845 -3.04571 0
M  V30 3181 N 325.182 1.32811 0.848464 0
M  V30 3182 C 326.459 1.14334 1.58704 0
M  V30 3183 C 326.839 -0.293948 2.09043 0
M  V30 3184 O 326.187 -1.29153 1.88499 0
M  V30 3185 C 326.397 2.17626 2.72837 0
M  V30 3186 C 327.745 2.51282 3.42261 0
M  V30 3187 O 328.769 2.16219 2.83068 0
M  V30 3188 O 327.628 3.11413 4.49093 0
M  V30 3189 H 324.722 0.441601 0.699226 0
M  V30 3190 H 327.268 1.44362 0.892053 0
M  V30 3191 H 326.04 3.14211 2.3321 0
M  V30 3192 H 325.663 1.88628 3.50008 0
M  V30 3193 N 326.66 -1.06551 1.16123 0
M  V30 3194 C 327.906 -1.79719 0.952505 0
M  V30 3195 C 328.261 -1.85396 -0.514385 0
M  V30 3196 O 327.554 -1.33263 -1.37665 0
M  V30 3197 C 327.748 -3.23911 1.51052 0
M  V30 3198 C 327.577 -3.32284 3.03013 0
M  V30 3199 C 326.347 -3.42371 3.71632 0
M  V30 3200 C 328.545 -3.22363 4.00732 0
M  V30 3201 N 326.527 -3.39732 5.11327 0
M  V30 3202 C 327.898 -3.26937 5.26794 0
M  V30 3203 C 329.953 -3.0623 3.92591 0
M  V30 3204 C 328.656 -3.17035 6.45663 0
M  V30 3205 C 330.682 -2.97665 5.11028 0
M  V30 3206 C 330.044 -3.02858 6.35969 0
M  V30 3207 H 326.143 -0.670585 0.402293 0
M  V30 3208 H 328.727 -1.27125 1.4747 0
M  V30 3209 H 326.898 -3.74907 1.01484 0
M  V30 3210 H 328.63 -3.85242 1.2398 0
M  V30 3211 H 325.385 -3.47058 3.22254 0
M  V30 3212 H 325.809 -3.41919 5.84312 0
M  V30 3213 H 330.451 -3.01063 2.96852 0
M  V30 3214 H 328.169 -3.2096 7.41627 0
M  V30 3215 H 331.755 -2.86273 5.06497 0
M  V30 3216 H 330.635 -2.96286 7.26075 0
M  V30 3217 N 328.138 -0.959301 -1.25041 0
M  V30 3218 C 329.101 -0.487677 -2.23952 0
M  V30 3219 C 330.101 0.41119 -1.55454 0
M  V30 3220 O 331.291 0.207825 -1.72956 0
M  V30 3221 C 328.423 0.294807 -3.39623 0
M  V30 3222 H 329.616 -1.36198 -2.67189 0
M  V30 3223 H 327.169 -0.743042 -1.37508 0
M  V30 3224 H 327.904 1.18658 -3.01813 0
M  V30 3225 H 327.689 -0.35012 -3.90534 0
M  V30 3226 H 329.179 0.614089 -4.1306 0
M  V30 3227 N 329.616 1.39756 -0.72842 0
M  V30 3228 C 331.032 1.5442 -0.403308 0
M  V30 3229 C 331.232 1.69694 1.08656 0
M  V30 3230 O 330.288 1.69373 1.87267 0
M  V30 3231 C 331.601 2.76555 -1.18058 0
M  V30 3232 C 333.149 2.90384 -1.16815 0
M  V30 3233 C 333.624 4.15449 -1.92785 0
M  V30 3234 N 335.115 4.22475 -1.89918 0
M  V30 3235 C 335.85 5.1818 -2.45514 0
M  V30 3236 N 335.346 6.19714 -3.09719 0
M  V30 3237 N 337.139 5.1035 -2.35584 0
M  V30 3238 H 329.29 1.28089 -1.69431 0
M  V30 3239 H 331.553 0.620327 -0.716867 0
M  V30 3240 H 331.259 2.7159 -2.23455 0
M  V30 3241 H 331.133 3.69033 -0.780662 0
M  V30 3242 H 333.52 2.94846 -0.12234 0
M  V30 3243 H 333.601 1.98988 -1.6074 0
M  V30 3244 H 333.245 4.11749 -2.97364 0
M  V30 3245 H 333.175 5.05877 -1.46272 0
M  V30 3246 H 335.666 3.49743 -1.43138 0
M  V30 3247 H 335.979 6.8919 -3.49625 0
M  V30 3248 H 334.324 6.20121 -3.13807 0
M  V30 3249 H 337.515 4.2996 -1.85072 0
M  V30 3250 H 337.688 5.84761 -2.79211 0
M  V30 3251 N 331.094 0.475555 1.50254 0
M  V30 3252 C 332.343 -0.0795996 2.01543 0
M  V30 3253 C 332.656 -1.4038 1.36209 0
M  V30 3254 O 333.862 -2.04415 1.7868 0
M  V30 3255 C 332.318 -0.192363 3.59386 0
M  V30 3256 C 331.926 1.12367 4.33679 0
M  V30 3257 C 333.67 -0.699238 4.18701 0
M  V30 3258 C 331.577 0.974453 5.83317 0
M  V30 3259 H 330.507 -0.0335228 0.753254 0
M  V30 3260 H 333.158 0.611128 1.73025 0
M  V30 3261 H 331.54 -0.946974 3.84511 0
M  V30 3262 H 332.714 1.88958 4.20276 0
M  V30 3263 H 331.029 1.562 3.85993 0
M  V30 3264 H 333.626 -0.827978 5.28251 0
M  V30 3265 H 333.969 -1.69171 3.80377 0
M  V30 3266 H 334.502 -0.00188807 3.978 0
M  V30 3267 H 331.241 1.94042 6.26121 0
M  V30 3268 H 330.761 0.248998 5.99283 0
M  V30 3269 H 332.44 0.642867 6.43798 0
M  V30 3270 N 332.573 -1.56217 0.208337 0
M  V30 3271 C 333.989 -1.58919 -0.14729 0
M  V30 3272 C 334.189 -1.22486 -1.59998 0
M  V30 3273 O 333.245 -0.953849 -2.3379 0
M  V30 3274 C 334.558 -3.00236 0.167048 0
M  V30 3275 C 336.106 -3.12813 0.108219 0
M  V30 3276 C 336.581 -4.56284 0.396049 0
M  V30 3277 N 338.072 -4.61912 0.345142 0
M  V30 3278 C 338.807 -5.70837 0.541523 0
M  V30 3279 N 338.303 -6.88178 0.798968 0
M  V30 3280 N 340.096 -5.60091 0.474867 0
M  V30 3281 H 332.247 -1.78177 1.15614 0
M  V30 3282 H 334.51 -0.827555 0.462446 0
M  V30 3283 H 334.216 -3.31499 1.1748 0
M  V30 3284 H 334.09 -3.7354 -0.524184 0
M  V30 3285 H 336.477 -2.81354 -0.890157 0
M  V30 3286 H 336.558 -2.41866 0.832729 0
M  V30 3287 H 336.202 -4.88458 1.3918 0
M  V30 3288 H 336.132 -5.25439 -0.349502 0
M  V30 3289 H 338.623 -3.77589 0.153316 0
M  V30 3290 H 338.936 -7.67095 0.93727 0
M  V30 3291 H 337.281 -6.89953 0.836013 0
M  V30 3292 H 340.472 -4.67297 0.274064 0
M  V30 3293 H 340.645 -6.44917 0.631326 0
M  V30 3294 N 334.051 0.0651679 -1.57465 0
M  V30 3295 C 334.961 1.09448 -2.07505 0
M  V30 3296 C 335.977 1.41974 -1.00595 0
M  V30 3297 O 337.153 1.52018 -1.32107 0
M  V30 3298 C 334.218 2.38689 -2.51453 0
M  V30 3299 C 333.279 2.13073 -3.72691 0
M  V30 3300 C 332.512 3.36152 -4.14533 0
M  V30 3301 O 332.735 4.45517 -3.56189 0
M  V30 3302 O 331.669 3.23974 -5.07272 0
M  V30 3303 H 335.495 0.69935 -2.95538 0
M  V30 3304 H 333.08 0.279752 -1.46757 0
M  V30 3305 H 334.962 3.14736 -2.80212 0
M  V30 3306 H 333.637 2.77568 -1.66546 0
M  V30 3307 H 332.544 1.34709 -3.49005 0
M  V30 3308 H 333.877 1.79071 -4.5847 0
M  V30 3309 N 335.529 1.53961 0.336706 0
M  V30 3310 C 336.439 1.85432 1.43708 0
M  V30 3311 C 337.455 0.745053 1.57242 0
M  V30 3312 O 338.631 1.03804 1.72588 0
M  V30 3313 C 335.696 2.06349 2.78605 0
M  V30 3314 C 334.757 3.30191 2.74358 0
M  V30 3315 C 333.99 3.50101 4.02822 0
M  V30 3316 O 334.213 2.7371 5.00439 0
M  V30 3317 O 333.147 4.43547 4.06878 0
M  V30 3318 H 336.973 2.78975 1.20028 0
M  V30 3319 H 334.558 1.39701 0.52952 0
M  V30 3320 H 336.44 2.21513 3.58483 0
M  V30 3321 H 335.115 1.15995 3.02203 0
M  V30 3322 H 334.022 3.20425 1.93078 0
M  V30 3323 H 335.355 4.2056 2.55715 0
M  V30 3324 N 337.007 -0.598083 1.45811 0
M  V30 3325 C 337.937 -1.71873 1.58057 0
M  V30 3326 C 338.918 -1.64533 0.431615 0
M  V30 3327 O 340.103 -1.82787 0.65595 0
M  V30 3328 C 337.233 -3.10495 1.55597 0
M  V30 3329 C 336.187 -3.32654 2.69305 0
M  V30 3330 C 335.513 -4.71646 2.51902 0
M  V30 3331 C 336.813 -3.21981 4.11248 0
M  V30 3332 H 338.507 -1.61881 2.51863 0
M  V30 3333 H 336.053 -0.777372 1.21214 0
M  V30 3334 H 338.006 -3.88699 1.6276 0
M  V30 3335 H 336.73 -3.2135 0.583255 0
M  V30 3336 H 335.389 -2.56843 2.61586 0
M  V30 3337 H 335.037 -4.79246 1.52748 0
M  V30 3338 H 334.737 -4.87426 3.2816 0
M  V30 3339 H 336.261 -5.52038 2.60933 0
M  V30 3340 H 337.675 -3.90049 4.20161 0
M  V30 3341 H 336.072 -3.49289 4.87972 0
M  V30 3342 H 337.142 -2.1928 4.32486 0
M  V30 3343 N 338.485 -1.33259 -0.841409 0
M  V30 3344 C 339.448 -1.23221 -1.9326 0
M  V30 3345 C 340.448 -0.151895 -1.60081 0
M  V30 3346 O 341.638 -0.403246 -1.69468 0
M  V30 3347 C 338.77 -0.898123 -3.28856 0
M  V30 3348 H 339.963 -2.2021 -2.03587 0
M  V30 3349 H 337.516 -1.17281 -1.03319 0
M  V30 3350 H 338.251 0.0693841 -3.24226 0
M  V30 3351 H 338.036 -1.67934 -3.54317 0
M  V30 3352 H 339.526 -0.852563 -4.08805 0
M  V30 3353 N 339.963 1.05934 -1.16686 0
M  V30 3354 C 341.188 1.83029 -0.975455 0
M  V30 3355 C 341.613 1.82096 0.471452 0
M  V30 3356 O 340.971 1.22443 1.33706 0
M  V30 3357 C 341.019 3.27372 -1.51195 0
M  V30 3358 O 340.123 4.06054 -0.720701 0
M  V30 3359 H 339.464 0.566194 -0.346872 0
M  V30 3360 H 341.994 1.33541 -1.55009 0
M  V30 3361 H 342.004 3.78186 -1.53099 0
M  V30 3362 H 340.679 3.27366 -2.56523 0
M  V30 3363 H 339.256 3.64812 -0.772458 0
M  V30 3364 N 341.441 0.965919 1.2453 0
M  V30 3365 C 342.669 0.644385 1.96609 0
M  V30 3366 C 343.084 -0.785823 1.71669 0
M  V30 3367 O 342.441 -1.52703 0.999399 0
M  V30 3368 C 342.492 0.907375 3.49927 0
M  V30 3369 O 342.213 2.28136 3.74013 0
M  V30 3370 C 343.714 0.599784 4.39224 0
M  V30 3371 H 340.934 0.240588 0.626385 0
M  V30 3372 H 343.478 1.29337 1.58405 0
M  V30 3373 H 341.633 0.304631 3.862 0
M  V30 3374 H 342.047 2.36002 4.68405 0
M  V30 3375 H 343.521 0.834263 5.45659 0
M  V30 3376 H 343.998 -0.465921 4.36722 0
M  V30 3377 H 344.604 1.18235 4.08535 0
M  V30 3378 N 342.919 -1.39368 0.735821 0
M  V30 3379 C 344.167 -2.00101 0.283562 0
M  V30 3380 C 344.488 -1.5868 -1.13338 0
M  V30 3381 O 343.758 -0.835423 -1.77193 0
M  V30 3382 H 342.338 -0.740024 0.101851 0
M  V30 3383 H 345 -1.70404 0.945962 0
M  V30 3384 H 344.096 -3.10323 0.332604 0
M  V30 3385 N 344.397 -0.483516 -1.5 0
M  V30 3386 C 345.808 -0.0314176 -1.86674 0
M  V30 3387 C 346.159 1.37728 -1.39733 0
M  V30 3388 O 345.284 2.02327 -0.767635 0
M  V30 3389 C 345.879 -0.0502376 -3.38763 0
M  V30 3390 C 344.438 0.346442 -3.74802 0
M  V30 3391 C 343.585 -0.430366 -2.7394 0
M  V30 3392 H 346.536 -0.697182 -1.42566 0
M  V30 3393 H 346.557 0.749116 -3.73053 0
M  V30 3394 H 346.069 -1.07563 -3.72897 0
M  V30 3395 H 344.17 1.37572 -3.46273 0
M  V30 3396 H 344.283 0.0391486 -4.79084 0
M  V30 3397 H 342.647 0.117557 -2.54429 0
M  V30 3398 H 343.43 -1.4555 -3.10918 0
M  V30 3399 N 345.875 1.56104 -0.216619 0
M  V30 3400 C 347.286 1.844 0.292128 0
M  V30 3401 C 347.637 1.13788 1.59833 0
M  V30 3402 O 346.762 0.405888 2.12559 0
M  V30 3403 C 347.357 3.3452 0.53681 0
M  V30 3404 C 345.916 3.63151 0.989876 0
M  V30 3405 C 345.063 2.77255 0.0502302 0
M  V30 3406 H 348.014 1.52481 -0.439926 0
M  V30 3407 H 348.035 3.54459 1.38345 0
M  V30 3408 H 347.547 3.85885 -0.414031 0
M  V30 3409 H 345.648 3.17238 1.95425 0
M  V30 3410 H 345.761 4.71177 0.867698 0
M  V30 3411 H 344.125 2.48555 0.556117 0
M  V30 3412 H 344.908 3.31416 -0.89544 0
M  V30 3413 N 347.353 -0.0568162 1.57498 0
M  V30 3414 C 348.599 -0.75422 1.88253 0
M  V30 3415 C 348.932 -1.76461 0.810865 0
M  V30 3416 O 348.207 -1.93691 -0.177259 0
M  V30 3417 C 348.49 -1.44878 3.2967 0
M  V30 3418 C 348.343 -0.453789 4.47505 0
M  V30 3419 C 349.662 -2.38994 3.69554 0
M  V30 3420 H 346.781 -0.272724 0.684683 0
M  V30 3421 H 349.423 -0.0172113 1.89992 0
M  V30 3422 H 347.573 -2.077 3.28318 0
M  V30 3423 H 349.245 0.170371 4.60985 0
M  V30 3424 H 347.488 0.229552 4.33192 0
M  V30 3425 H 348.159 -0.977699 5.43273 0
M  V30 3426 H 350.635 -1.86239 3.72095 0
M  V30 3427 H 349.511 -2.84587 4.69363 0
M  V30 3428 H 349.772 -3.24461 3.00296 0
M  V30 3429 N 348.832 -1.54138 -0.328536 0
M  V30 3430 C 350.078 -1.7236 -1.06865 0
M  V30 3431 C 350.411 -0.493231 -1.87832 0
M  V30 3432 O 349.686 0.5098 -1.877 0
M  V30 3433 C 349.969 -2.99621 -1.99747 0
M  V30 3434 C 349.822 -4.32899 -1.22143 0
M  V30 3435 C 351.141 -3.22615 -2.99345 0
M  V30 3436 H 348.26 -0.627151 -0.387105 0
M  V30 3437 H 350.902 -1.86827 -0.345767 0
M  V30 3438 H 349.052 -2.87418 -2.61387 0
M  V30 3439 H 350.724 -4.56978 -0.630017 0
M  V30 3440 H 348.967 -4.30628 -0.523628 0
M  V30 3441 H 349.638 -5.18154 -1.90318 0
M  V30 3442 H 352.114 -3.34248 -2.47826 0
M  V30 3443 H 350.99 -4.13027 -3.61524 0
M  V30 3444 H 351.251 -2.3961 -3.71536 0
M  V30 3445 N 350.31 0.590341 -1.46126 0
M  V30 3446 C 351.273 1.68194 -1.55703 0
M  V30 3447 C 352.273 1.54808 -0.434868 0
M  V30 3448 O 353.463 1.59564 -0.698928 0
M  V30 3449 C 350.595 3.07575 -1.47005 0
M  V30 3450 H 351.788 1.61064 -2.52979 0
M  V30 3451 H 349.341 0.807541 -1.33823 0
M  V30 3452 H 350.076 3.20268 -0.509785 0
M  V30 3453 H 349.861 3.187 -2.28414 0
M  V30 3454 H 351.351 3.87055 -1.56776 0
M  V30 3455 N 351.788 1.33704 0.83433 0
M  V30 3456 C 352.721 1.18675 1.94914 0
M  V30 3457 C 353.699 0.0811145 1.62398 0
M  V30 3458 O 354.883 0.244186 1.86912 0
M  V30 3459 C 352.01 0.821231 3.28593 0
M  V30 3460 C 351.056 1.93501 3.80079 0
M  V30 3461 S 351.889 3.54671 4.01209 0
M  V30 3462 C 353.045 3.20136 5.37833 0
M  V30 3463 H 353.278 2.13043 2.07364 0
M  V30 3464 H 350.811 1.18598 0.988624 0
M  V30 3465 H 352.769 0.617123 4.05835 0
M  V30 3466 H 351.43 -0.103927 3.13928 0
M  V30 3467 H 350.623 1.63273 4.76821 0
M  V30 3468 H 350.225 2.09601 3.09747 0
M  V30 3469 H 352.517 2.71242 6.20833 0
M  V30 3470 H 353.46 4.15975 5.73036 0
M  V30 3471 H 353.868 2.56613 5.02802 0
M  V30 3472 N 353.266 -1.05314 1.17247 0
M  V30 3473 C 354.677 -1.59753 0.96623 0
M  V30 3474 C 355.028 -1.9005 -0.487378 0
M  V30 3475 O 354.153 -1.68126 -1.36245 0
M  V30 3476 C 354.748 -2.90249 1.74759 0
M  V30 3477 C 353.307 -3.41352 1.58606 0
M  V30 3478 C 352.454 -2.15103 1.75002 0
M  V30 3479 H 355.405 -0.881406 1.31973 0
M  V30 3480 H 355.426 -3.60097 1.22925 0
M  V30 3481 H 354.938 -2.68166 2.8055 0
M  V30 3482 H 353.039 -3.68474 0.552985 0
M  V30 3483 H 353.152 -4.16019 2.37624 0
M  V30 3484 H 351.516 -2.25804 1.17833 0
M  V30 3485 H 352.299 -1.95491 2.82202 0
M  V30 3486 N 354.744 -0.972509 -1.24016 0
M  V30 3487 C 355.99 -0.637978 -1.92504 0
M  V30 3488 C 356.323 0.825383 -1.75787 0
M  V30 3489 O 355.598 1.59442 -1.11393 0
M  V30 3490 C 355.881 -1.01942 -3.45369 0
M  V30 3491 C 355.734 -2.53983 -3.71231 0
M  V30 3492 C 357.053 -0.55751 -4.36555 0
M  V30 3493 H 354.172 -0.233248 -0.699117 0
M  V30 3494 H 356.814 -1.21238 -1.46292 0
M  V30 3495 H 354.964 -0.530656 -3.84859 0
M  V30 3496 H 356.636 -3.10374 -3.41271 0
M  V30 3497 H 354.879 -2.96968 -3.16216 0
M  V30 3498 H 355.55 -2.75723 -4.78206 0
M  V30 3499 H 358.026 -0.977029 -4.04467 0
M  V30 3500 H 356.902 -0.85292 -5.42233 0
M  V30 3501 H 357.163 0.542328 -4.38761 0
M  V30 3502 N 356.222 1.38976 -0.743202 0
M  V30 3503 C 357.468 2.0064 -0.295189 0
M  V30 3504 C 357.801 1.5885 1.11716 0
M  V30 3505 O 357.076 0.821181 1.76315 0
M  V30 3506 C 357.359 3.578 -0.406318 0
M  V30 3507 C 357.212 4.09586 -1.85903 0
M  V30 3508 C 358.531 4.39616 0.206439 0
M  V30 3509 H 355.65 0.728935 -0.108733 0
M  V30 3510 H 358.292 1.65067 -0.940897 0
M  V30 3511 H 356.442 3.88235 0.143419 0
M  V30 3512 H 358.114 3.89837 -2.46627 0
M  V30 3513 H 356.357 3.6284 -2.3776 0
M  V30 3514 H 357.028 5.18708 -1.888 0
M  V30 3515 H 359.504 4.15273 -0.262283 0
M  V30 3516 H 358.38 5.48812 0.0983819 0
M  V30 3517 H 358.641 4.22754 1.2935 0
M  V30 3518 N 357.7 0.491464 1.49741 0
M  V30 3519 C 358.949 -0.0582189 2.01616 0
M  V30 3520 C 359.262 -1.38927 1.3769 0
M  V30 3521 O 360.468 -2.02509 1.80838 0
M  V30 3522 C 358.924 -0.154235 3.59569 0
M  V30 3523 C 358.532 1.1696 4.32463 0
M  V30 3524 C 360.276 -0.65479 4.1942 0
M  V30 3525 C 358.183 1.03627 5.8225 0
M  V30 3526 H 357.113 -0.0255317 0.753568 0
M  V30 3527 H 359.764 0.629445 1.72367 0
M  V30 3528 H 358.146 -0.906138 3.85493 0
M  V30 3529 H 359.32 1.93405 4.18248 0
M  V30 3530 H 357.635 1.60285 3.84315 0
M  V30 3531 H 360.232 -0.771903 5.29099 0
M  V30 3532 H 360.575 -1.65127 3.8215 0
M  V30 3533 H 361.108 0.040304 3.9778 0
M  V30 3534 H 357.847 2.00672 6.24028 0
M  V30 3535 H 357.367 0.312546 5.98985 0
M  V30 3536 H 359.046 0.711114 6.4308 0
M  V30 3537 N 359.178 -1.55987 0.224894 0
M  V30 3538 C 360.125 -2.20436 -0.68385 0
M  V30 3539 C 361.095 -1.16102 -1.18783 0
M  V30 3540 O 362.28 -1.4447 -1.24632 0
M  V30 3541 C 359.42 -2.89076 -1.88491 0
M  V30 3542 C 358.533 -4.08012 -1.41951 0
M  V30 3543 C 357.668 -4.64426 -2.5784 0
M  V30 3544 C 356.707 -5.75656 -2.08053 0
M  V30 3545 N 355.844 -6.26347 -3.17227 0
M  V30 3546 H 360.684 -2.97727 -0.12754 0
M  V30 3547 H 358.221 -1.47011 -0.0511978 0
M  V30 3548 H 360.179 -3.27059 -2.59014 0
M  V30 3549 H 358.809 -2.14298 -2.41405 0
M  V30 3550 H 357.861 -3.75492 -0.609095 0
M  V30 3551 H 359.173 -4.88375 -1.01447 0
M  V30 3552 H 358.327 -5.04869 -3.3644 0
M  V30 3553 H 357.066 -3.83233 -3.01635 0
M  V30 3554 H 356.071 -5.34712 -1.27916 0
M  V30 3555 H 357.296 -6.58686 -1.65255 0
M  V30 3556 H 355.242 -5.48067 -3.60497 0
M  V30 3557 H 355.159 -7.01843 -2.80986 0
M  V30 3558 H 356.427 -6.71447 -3.95953 0
M  V30 3559 N 360.656 0.0484629 -1.57525 0
M  V30 3560 C 361.884 0.755421 -1.92616 0
M  V30 3561 C 362.299 1.69919 -0.822984 0
M  V30 3562 O 361.656 1.81378 0.202085 0
M  V30 3563 C 361.707 1.52915 -3.27566 0
M  V30 3564 O 361.428 0.62329 -4.33644 0
M  V30 3565 C 362.929 2.33502 -3.76818 0
M  V30 3566 H 360.149 0.213465 -0.63614 0
M  V30 3567 H 362.693 0.0117698 -2.04497 0
M  V30 3568 H 360.848 2.22486 -3.17142 0
M  V30 3569 H 361.262 1.16383 -5.11425 0
M  V30 3570 H 362.736 2.83214 -4.73808 0
M  V30 3571 H 363.213 3.14068 -3.07014 0
M  V30 3572 H 363.819 1.69043 -3.90262 0
M  V30 3573 N 362.134 1.5431 0.320358 0
M  V30 3574 C 363.044 1.86946 1.41734 0
M  V30 3575 C 364.06 0.761689 1.56443 0
M  V30 3576 O 365.236 1.05629 1.71477 0
M  V30 3577 C 362.301 2.09293 2.76401 0
M  V30 3578 C 361.362 3.33082 2.70841 0
M  V30 3579 C 360.595 3.54353 3.99086 0
M  V30 3580 O 360.818 2.79002 4.97508 0
M  V30 3581 O 359.752 4.47838 4.0215 0
M  V30 3582 H 363.578 2.80232 1.17062 0
M  V30 3583 H 361.163 1.40255 0.514673 0
M  V30 3584 H 363.045 2.25303 3.56113 0
M  V30 3585 H 361.72 1.19194 3.00956 0
M  V30 3586 H 360.627 3.22454 1.89668 0
M  V30 3587 H 361.96 4.23249 2.5124 0
M  V30 3588 N 363.613 -0.582584 1.46437 0
M  V30 3589 C 364.861 -1.33814 1.51453 0
M  V30 3590 C 365.182 -1.94277 0.167792 0
M  V30 3591 O 364.452 -1.78566 -0.805677 0
M  V30 3592 H 363.032 -0.496838 0.557818 0
M  V30 3593 H 365.694 -0.682281 1.82568 0
M  V30 3594 H 364.79 -2.14479 2.26728 0
M  V30 3595 N 365.091 -1.34144 -0.827227 0
M  V30 3596 C 366.502 -1.23557 -1.39966 0
M  V30 3597 C 366.853 0.140731 -1.95695 0
M  V30 3598 O 365.978 1.04087 -1.89723 0
M  V30 3599 C 366.573 -2.23708 -2.54441 0
M  V30 3600 C 365.132 -2.16924 -3.07605 0
M  V30 3601 C 364.279 -2.10549 -1.80456 0
M  V30 3602 H 367.23 -1.45573 -0.631991 0
M  V30 3603 H 367.251 -1.85157 -3.32411 0
M  V30 3604 H 366.763 -3.23866 -2.13851 0
M  V30 3605 H 364.864 -1.20107 -3.52711 0
M  V30 3606 H 364.977 -3.07988 -3.66988 0
M  V30 3607 H 363.341 -1.56203 -2.01178 0
M  V30 3608 H 364.124 -3.12535 -1.42046 0
M  V30 3609 N 366.569 1.04691 -1.17803 0
M  V30 3610 C 367.532 2.10724 -0.901545 0
M  V30 3611 C 368.532 1.6042 0.110437 0
M  V30 3612 O 369.722 1.7377 -0.122303 0
M  V30 3613 C 366.854 3.39084 -0.351409 0
M  V30 3614 H 368.047 2.36686 -1.84174 0
M  V30 3615 H 365.6 1.21015 -0.98919 0
M  V30 3616 H 366.335 3.18782 0.59569 0
M  V30 3617 H 366.12 3.76909 -1.08083 0
M  V30 3618 H 367.61 4.17227 -0.176451 0
M  V30 3619 N 368.047 0.979072 1.23499 0
M  V30 3620 C 369.293 0.6578 1.9247 0
M  V30 3621 C 369.648 -0.799746 1.74991 0
M  V30 3622 O 368.941 -1.56922 1.09937 0
M  V30 3623 C 369.135 0.981932 3.43646 0
M  V30 3624 C 368.964 2.46944 3.75831 0
M  V30 3625 C 367.734 3.13119 3.96591 0
M  V30 3626 C 369.932 3.45006 3.81412 0
M  V30 3627 N 367.914 4.51489 4.15969 0
M  V30 3628 C 369.285 4.68778 4.05768 0
M  V30 3629 C 371.34 3.39505 3.64198 0
M  V30 3630 C 370.043 5.87723 4.14697 0
M  V30 3631 C 372.069 4.57814 3.7438 0
M  V30 3632 C 371.431 5.80381 3.99171 0
M  V30 3633 H 367.53 0.291746 0.72554 0
M  V30 3634 H 370.114 1.25626 1.48749 0
M  V30 3635 H 368.285 0.412179 3.86207 0
M  V30 3636 H 370.017 0.618068 3.99953 0
M  V30 3637 H 366.772 2.63619 3.93449 0
M  V30 3638 H 367.196 5.23221 4.29615 0
M  V30 3639 H 371.838 2.45773 3.44029 0
M  V30 3640 H 369.556 6.81874 4.33675 0
M  V30 3641 H 373.142 4.55132 3.62417 0
M  V30 3642 H 372.022 6.70398 4.06861 0
M  V30 3643 N 369.525 -1.3858 0.750561 0
M  V30 3644 C 370.753 -2.04471 0.316098 0
M  V30 3645 C 371.168 -1.56606 -1.05452 0
M  V30 3646 O 370.525 -0.737784 -1.66922 0
M  V30 3647 C 370.576 -3.60025 0.326275 0
M  V30 3648 O 370.297 -4.06133 1.6428 0
M  V30 3649 C 371.798 -4.43131 -0.122429 0
M  V30 3650 H 369.018 -0.65717 0.135528 0
M  V30 3651 H 371.562 -1.77329 1.01857 0
M  V30 3652 H 369.717 -3.86014 -0.327431 0
M  V30 3653 H 370.131 -5.00547 1.56693 0
M  V30 3654 H 371.605 -5.51963 -0.0641473 0
M  V30 3655 H 372.082 -4.23333 -1.16988 0
M  V30 3656 H 372.688 -4.22323 0.50229 0
M  V30 3657 N 371.003 -0.499398 -1.49478 0
M  V30 3658 C 372.414 -0.051215 -1.8663 0
M  V30 3659 C 372.765 1.36238 -1.41186 0
M  V30 3660 O 371.89 2.01502 -0.789051 0
M  V30 3661 C 372.485 -0.0861651 -3.3869 0
M  V30 3662 C 371.044 0.30667 -3.75149 0
M  V30 3663 C 370.191 -0.459397 -2.73468 0
M  V30 3664 H 373.142 -0.712264 -1.41818 0
M  V30 3665 H 373.163 0.709507 -3.73826 0
M  V30 3666 H 372.675 -1.11512 -3.71735 0
M  V30 3667 H 370.776 1.33892 -3.47712 0
M  V30 3668 H 370.889 -0.0116669 -4.79099 0
M  V30 3669 H 369.253 0.0905645 -2.54539 0
M  V30 3670 H 370.036 -1.4884 -3.09357 0
M  V30 3671 N 372.481 1.55866 -0.233164 0
M  V30 3672 C 373.411 2.23783 0.666599 0
M  V30 3673 C 374.392 1.21343 1.19205 0
M  V30 3674 O 375.577 1.4996 1.23392 0
M  V30 3675 C 372.707 2.92671 1.86978 0
M  V30 3676 C 371.661 4.01682 1.47768 0
M  V30 3677 C 370.987 4.57926 2.76058 0
M  V30 3678 C 372.287 5.18126 0.658993 0
M  V30 3679 H 373.981 2.99232 0.100306 0
M  V30 3680 H 371.527 1.43924 0.046804 0
M  V30 3681 H 373.48 3.3888 2.50476 0
M  V30 3682 H 372.204 2.14688 2.46123 0
M  V30 3683 H 370.863 3.56222 0.866106 0
M  V30 3684 H 370.511 3.76659 3.33372 0
M  V30 3685 H 370.211 5.31505 2.50552 0
M  V30 3686 H 371.735 5.06859 3.40479 0
M  V30 3687 H 373.149 5.60644 1.19795 0
M  V30 3688 H 371.546 5.98009 0.500552 0
M  V30 3689 H 372.616 4.83763 -0.331856 0
M  V30 3690 N 373.959 -0.0401083 1.57549 0
M  V30 3691 C 374.869 -1.06133 2.0922 0
M  V30 3692 C 375.885 -1.40356 1.0284 0
M  V30 3693 O 377.061 -1.49897 1.34509 0
M  V30 3694 C 374.126 -2.34658 2.55218 0
M  V30 3695 C 373.187 -2.07117 3.76033 0
M  V30 3696 C 372.42 -3.29514 4.19829 0
M  V30 3697 O 372.643 -4.39794 3.63232 0
M  V30 3698 O 371.577 -3.15863 5.12362 0
M  V30 3699 H 375.403 -0.652244 2.96613 0
M  V30 3700 H 372.988 -0.256368 1.47184 0
M  V30 3701 H 374.87 -3.10239 2.85184 0
M  V30 3702 H 373.545 -2.74883 1.70941 0
M  V30 3703 H 372.452 -1.29139 3.51104 0
M  V30 3704 H 373.785 -1.71754 4.61261 0
M  V30 3705 N 375.437 -1.54477 -0.31217 0
M  V30 3706 C 376.848 -1.64344 -0.885891 0
M  V30 3707 C 377.199 -0.54485 -1.88483 0
M  V30 3708 O 376.324 0.320387 -2.14015 0
M  V30 3709 C 376.919 -2.97908 -1.61357 0
M  V30 3710 C 375.478 -3.09933 -2.13585 0
M  V30 3711 C 374.625 -2.59971 -0.964897 0
M  V30 3712 H 377.576 -1.58448 -0.0894528 0
M  V30 3713 H 377.597 -2.88706 -2.47848 0
M  V30 3714 H 377.109 -3.77845 -0.886277 0
M  V30 3715 H 375.21 -2.34694 -2.89395 0
M  V30 3716 H 375.323 -4.15916 -2.37804 0
M  V30 3717 H 373.687 -2.16147 -1.34731 0
M  V30 3718 H 374.47 -3.42376 -0.251742 0
M  V30 3719 N 376.915 0.57481 -1.46744 0
M  V30 3720 C 377.862 1.68329 -1.57905 0
M  V30 3721 C 378.832 1.60625 -0.422927 0
M  V30 3722 O 380.017 1.79721 -0.640711 0
M  V30 3723 C 377.157 3.06665 -1.58274 0
M  V30 3724 C 376.27 3.24935 -2.84678 0
M  V30 3725 C 375.405 4.53566 -2.76499 0
M  V30 3726 C 374.444 4.65207 -3.97806 0
M  V30 3727 N 373.581 5.85172 -3.87967 0
M  V30 3728 H 378.421 1.58127 -2.52587 0
M  V30 3729 H 375.958 0.770552 -1.25303 0
M  V30 3730 H 377.916 3.86745 -1.56473 0
M  V30 3731 H 376.546 3.15745 -0.671194 0
M  V30 3732 H 375.598 2.38405 -2.96424 0
M  V30 3733 H 376.91 3.29403 -3.7456 0
M  V30 3734 H 376.064 5.41885 -2.72848 0
M  V30 3735 H 374.803 4.51548 -1.8427 0
M  V30 3736 H 373.808 3.75304 -4.0178 0
M  V30 3737 H 375.033 4.68997 -4.9114 0
M  V30 3738 H 372.979 5.84137 -2.98529 0
M  V30 3739 H 372.896 5.90943 -4.71511 0
M  V30 3740 H 374.164 6.759 -3.88303 0
M  V30 3741 N 378.394 1.34581 0.820102 0
M  V30 3742 C 379.324 1.29038 1.94606 0
M  V30 3743 C 380.305 0.1673 1.69275 0
M  V30 3744 O 381.49 0.360112 1.90832 0
M  V30 3745 C 378.62 1.04793 3.31113 0
M  V30 3746 C 377.574 2.13597 3.70891 0
M  V30 3747 C 376.9 1.74537 5.05412 0
M  V30 3748 C 378.2 3.55451 3.8269 0
M  V30 3749 H 379.894 2.23248 1.99501 0
M  V30 3750 H 377.44 1.0747 0.958449 0
M  V30 3751 H 379.393 0.995592 4.0947 0
M  V30 3752 H 378.117 0.0702565 3.26524 0
M  V30 3753 H 376.776 2.17905 2.9481 0
M  V30 3754 H 376.424 0.754226 4.97313 0
M  V30 3755 H 376.124 2.47361 5.32997 0
M  V30 3756 H 377.648 1.70803 5.86224 0
M  V30 3757 H 379.062 3.5354 4.51312 0
M  V30 3758 H 377.459 4.26922 4.21732 0
M  V30 3759 H 378.529 3.92587 2.84611 0
M  V30 3760 N 379.872 -1.04064 1.18357 0
M  V30 3761 C 381.121 -1.76662 0.973313 0
M  V30 3762 C 381.434 -1.89154 -0.497991 0
M  V30 3763 O 382.64 -2.58606 -0.826762 0
M  V30 3764 C 381.096 -3.17624 1.69242 0
M  V30 3765 C 380.704 -3.13225 3.20303 0
M  V30 3766 C 382.448 -3.946 1.56497 0
M  V30 3767 C 380.355 -4.49046 3.84853 0
M  V30 3768 H 379.285 -0.662214 0.36054 0
M  V30 3769 H 381.936 -1.16553 1.41731 0
M  V30 3770 H 380.318 -3.78129 1.1762 0
M  V30 3771 H 381.492 -2.62172 3.78949 0
M  V30 3772 H 379.807 -2.49749 3.33189 0
M  V30 3773 H 382.404 -4.95042 2.02084 0
M  V30 3774 H 382.747 -4.13074 0.517243 0
M  V30 3775 H 383.28 -3.4067 2.05399 0
M  V30 3776 H 380.019 -4.35777 4.89672 0
M  V30 3777 H 379.539 -5.00203 3.30994 0
M  V30 3778 H 381.218 -5.17961 3.87718 0
M  V30 3779 N 381.35 -0.985608 -1.22978 0
M  V30 3780 C 382.578 -0.675582 -1.95559 0
M  V30 3781 C 382.993 0.758413 -1.72897 0
M  V30 3782 O 382.35 1.51094 -1.02357 0
M  V30 3783 C 382.401 -0.96293 -3.48439 0
M  V30 3784 O 382.122 -2.34057 -3.70336 0
M  V30 3785 C 383.623 -0.669585 -4.38214 0
M  V30 3786 H 380.843 -0.250523 -0.622478 0
M  V30 3787 H 383.387 -1.3184 -1.56328 0
M  V30 3788 H 381.542 -0.366033 -3.85667 0
M  V30 3789 H 381.956 -2.43424 -4.64591 0
M  V30 3790 H 383.43 -0.920967 -5.44263 0
M  V30 3791 H 383.907 0.396383 -4.37408 0
M  V30 3792 H 384.513 -1.2472 -4.06602 0
M  V30 3793 N 382.828 1.3818 -0.7579 0
M  V30 3794 C 384.244 1.5353 -0.435972 0
M  V30 3795 C 384.444 1.71961 1.05032 0
M  V30 3796 O 383.5 1.73307 1.83633 0
M  V30 3797 C 384.813 2.73989 -1.23898 0
M  V30 3798 C 386.361 2.87841 -1.22949 0
M  V30 3799 C 386.836 4.11266 -2.01554 0
M  V30 3800 N 388.327 4.18352 -1.98837 0
M  V30 3801 C 389.062 5.12856 -2.5645 0
M  V30 3802 N 388.558 6.13005 -3.22794 0
M  V30 3803 N 390.351 5.05238 -2.46356 0
M  V30 3804 H 382.502 1.24467 -1.7211 0
M  V30 3805 H 384.765 0.604982 -0.729864 0
M  V30 3806 H 384.471 2.66789 -2.29165 0
M  V30 3807 H 384.345 3.67294 -0.858764 0
M  V30 3808 H 386.732 2.9452 -0.184854 0
M  V30 3809 H 386.813 1.95534 -1.64924 0
M  V30 3810 H 386.457 4.05349 -3.06031 0
M  V30 3811 H 386.387 5.02661 -1.5697 0
M  V30 3812 H 388.878 3.46628 -1.50524 0
M  V30 3813 H 389.191 6.81619 -3.64165 0
M  V30 3814 H 387.536 6.13325 -3.2689 0
M  V30 3815 H 390.727 4.25938 -1.9415 0
M  V30 3816 H 390.9 5.78707 -2.91552 0
M  V30 3817 N 384.306 0.507319 1.49211 0
M  V30 3818 C 385.236 -0.256939 2.32082 0
M  V30 3819 C 386.217 -0.956609 1.40652 0
M  V30 3820 O 387.402 -0.946788 1.69557 0
M  V30 3821 C 384.532 -1.31802 3.21318 0
M  V30 3822 C 383.486 -0.737855 4.21592 0
M  V30 3823 C 382.812 -1.89992 4.99807 0
M  V30 3824 C 384.112 0.275325 5.21574 0
M  V30 3825 H 385.806 0.434798 2.96226 0
M  V30 3826 H 383.352 0.210546 1.42452 0
M  V30 3827 H 385.305 -1.86045 3.78107 0
M  V30 3828 H 384.029 -2.03903 2.5513 0
M  V30 3829 H 382.688 -0.217126 3.65956 0
M  V30 3830 H 382.336 -2.60877 4.30061 0
M  V30 3831 H 382.036 -1.51777 5.6766 0
M  V30 3832 H 383.56 -2.44657 5.59442 0
M  V30 3833 H 384.974 -0.179193 5.7302 0
M  V30 3834 H 383.371 0.573649 5.97352 0
M  V30 3835 H 384.441 1.18903 4.70096 0
M  V30 3836 N 385.784 -1.5574 0.241426 0
M  V30 3837 C 386.747 -2.19877 -0.647063 0
M  V30 3838 C 387.747 -1.16642 -1.10686 0
M  V30 3839 O 388.937 -1.41757 -1.01245 0
M  V30 3840 C 386.069 -2.83797 -1.88871 0
M  V30 3841 H 387.262 -2.99772 -0.087574 0
M  V30 3842 H 384.815 -1.56298 -0.00813574 0
M  V30 3843 H 385.55 -2.07824 -2.48957 0
M  V30 3844 H 385.335 -3.59414 -1.56728 0
M  V30 3845 H 386.825 -3.32898 -2.52129 0
M  V30 3846 N 387.262 0.0317525 -1.57568 0
M  V30 3847 C 388.539 0.758366 -1.803 0
M  V30 3848 C 388.919 1.93718 -0.838845 0
M  V30 3849 O 388.267 2.28187 0.119571 0
M  V30 3850 C 388.477 1.19392 -3.27943 0
M  V30 3851 C 389.825 1.61094 -3.92854 0
M  V30 3852 O 390.849 1.28857 -3.32076 0
M  V30 3853 O 389.708 2.20918 -4.99858 0
M  V30 3854 H 386.802 0.366514 -0.741348 0
M  V30 3855 H 389.348 0.00873765 -1.69698 0
M  V30 3856 H 388.12 0.352275 -3.89711 0
M  V30 3857 H 387.743 2.00365 -3.43424 0
M  V30 3858 N 388.74 1.54641 0.303973 0
M  V30 3859 C 389.968 1.77768 1.05858 0
M  V30 3860 C 390.383 0.535722 1.8104 0
M  V30 3861 O 389.74 -0.494337 1.75677 0
M  V30 3862 C 389.791 2.9834 2.04146 0
M  V30 3863 O 389.512 4.17736 1.32015 0
M  V30 3864 C 391.013 3.33832 2.91669 0
M  V30 3865 H 388.233 0.592961 0.314067 0
M  V30 3866 H 390.777 2.01583 0.344149 0
M  V30 3867 H 388.932 2.76742 2.71096 0
M  V30 3868 H 389.346 4.85693 1.97998 0
M  V30 3869 H 390.82 4.21448 3.56491 0
M  V30 3870 H 391.297 2.51857 3.59812 0
M  V30 3871 H 391.903 3.57579 2.30254 0
M  V30 3872 N 390.218 -0.567019 1.47046 0
M  V30 3873 C 391.464 -1.32658 1.53394 0
M  V30 3874 C 391.797 -1.93254 0.19148 0
M  V30 3875 O 391.072 -1.77338 -0.798844 0
M  V30 3876 C 391.355 -2.44412 2.64452 0
M  V30 3877 C 391.208 -1.88749 4.08282 0
M  V30 3878 C 392.527 -3.46387 2.71485 0
M  V30 3879 H 389.646 -0.48098 0.558415 0
M  V30 3880 H 392.288 -0.635481 1.79058 0
M  V30 3881 H 390.438 -3.03363 2.427 0
M  V30 3882 H 392.11 -1.34134 4.41368 0
M  V30 3883 H 390.353 -1.19481 4.17021 0
M  V30 3884 H 391.024 -2.69491 4.81745 0
M  V30 3885 H 393.5 -2.9734 2.91081 0
M  V30 3886 H 392.376 -4.2202 3.50985 0
M  V30 3887 H 392.637 -4.04616 1.78153 0
M  V30 3888 N 391.696 -1.35014 -0.812953 0
M  V30 3889 C 393.112 -1.14914 -1.10757 0
M  V30 3890 C 393.312 0.0426818 -2.01455 0
M  V30 3891 O 392.368 0.715212 -2.42159 0
M  V30 3892 C 393.681 -2.44911 -1.74468 0
M  V30 3893 C 395.229 -2.5106 -1.86917 0
M  V30 3894 C 395.704 -3.81085 -2.54044 0
M  V30 3895 N 397.195 -3.82301 -2.61535 0
M  V30 3896 C 397.93 -4.79634 -3.14227 0
M  V30 3897 N 397.426 -5.87353 -3.67407 0
M  V30 3898 N 399.219 -4.67078 -3.12721 0
M  V30 3899 H 391.37 -2.1136 -0.20989 0
M  V30 3900 H 393.633 -0.935128 -0.155692 0
M  V30 3901 H 393.339 -3.32267 -1.15289 0
M  V30 3902 H 393.213 -2.58989 -2.74234 0
M  V30 3903 H 395.6 -1.64137 -2.45241 0
M  V30 3904 H 395.681 -2.40901 -0.860242 0
M  V30 3905 H 395.325 -4.68402 -1.96372 0
M  V30 3906 H 395.255 -3.88529 -3.55461 0
M  V30 3907 H 397.746 -3.04465 -2.23851 0
M  V30 3908 H 398.059 -6.57624 -4.05894 0
M  V30 3909 H 396.404 -5.91054 -3.65623 0
M  V30 3910 H 399.595 -3.82067 -2.70449 0
M  V30 3911 H 399.768 -5.43098 -3.53481 0
M  V30 3912 N 393.175 1.03435 -1.18907 0
M  V30 3913 C 394.403 1.80381 -1.01342 0
M  V30 3914 C 394.818 1.83649 0.438005 0
M  V30 3915 O 394.175 1.27655 1.30424 0
M  V30 3916 C 394.226 3.25689 -1.56873 0
M  V30 3917 O 393.947 3.22673 -2.96334 0
M  V30 3918 C 395.448 4.19255 -1.44014 0
M  V30 3919 H 392.668 0.56784 -0.35749 0
M  V30 3920 H 395.212 1.30317 -1.576 0
M  V30 3921 H 393.367 3.72962 -1.04777 0
M  V30 3922 H 393.781 4.13748 -3.22355 0
M  V30 3923 H 395.255 5.19123 -1.87657 0
M  V30 3924 H 395.732 4.37467 -0.389815 0
M  V30 3925 H 396.338 3.77851 -1.95214 0
M  V30 3926 N 394.653 0.992116 1.22453 0
M  V30 3927 C 395.6 0.541731 2.24352 0
M  V30 3928 C 396.57 -0.425519 1.60557 0
M  V30 3929 O 397.755 -0.330453 1.87917 0
M  V30 3930 C 394.895 -0.138248 3.44823 0
M  V30 3931 C 394.008 0.870649 4.23136 0
M  V30 3932 C 393.143 0.164269 5.30946 0
M  V30 3933 C 392.182 1.16159 6.00977 0
M  V30 3934 N 391.319 0.483568 7.00433 0
M  V30 3935 H 396.159 1.41541 2.62241 0
M  V30 3936 H 393.696 0.709013 1.28885 0
M  V30 3937 H 395.654 -0.5494 4.13567 0
M  V30 3938 H 394.284 -0.975721 3.077 0
M  V30 3939 H 393.336 1.40013 3.53696 0
M  V30 3940 H 394.648 1.63014 4.7141 0
M  V30 3941 H 393.802 -0.303653 6.0594 0
M  V30 3942 H 392.541 -0.627733 4.83643 0
M  V30 3943 H 391.546 1.64015 5.24766 0
M  V30 3944 H 392.771 1.95445 6.50368 0
M  V30 3945 H 390.717 -0.289012 6.55363 0
M  V30 3946 H 390.634 1.18152 7.4671 0
M  V30 3947 H 391.902 0.0384219 7.79491 0
M  V30 3948 N 396.131 -1.37776 0.765217 0
M  V30 3949 C 397.379 -1.99454 0.325943 0
M  V30 3950 C 397.7 -1.61049 -1.09947 0
M  V30 3951 O 396.97 -0.872821 -1.75381 0
M  V30 3952 H 395.55 -0.737697 0.117525 0
M  V30 3953 H 398.212 -1.68359 0.981895 0
M  V30 3954 H 397.308 -3.09547 0.398353 0
M  V30 3955 N 397.609 -0.515225 -1.4894 0
M  V30 3956 C 398.539 0.244628 -2.32215 0
M  V30 3957 C 399.52 0.949136 -1.41157 0
M  V30 3958 O 400.705 0.937783 -1.70057 0
M  V30 3959 C 397.835 1.30096 -3.22013 0
M  V30 3960 C 396.789 0.715486 -4.21977 0
M  V30 3961 C 396.115 1.87339 -5.00808 0
M  V30 3962 C 397.415 -0.302982 -5.2142 0
M  V30 3963 H 399.109 -0.450501 -2.95991 0
M  V30 3964 H 396.655 -0.218098 -1.42339 0
M  V30 3965 H 398.608 1.84037 -3.79089 0
M  V30 3966 H 397.332 2.02547 -2.56207 0
M  V30 3967 H 395.991 0.197715 -3.66066 0
M  V30 3968 H 395.639 2.58592 -4.31438 0
M  V30 3969 H 395.339 1.48764 -5.68457 0
M  V30 3970 H 396.863 2.41686 -5.60732 0
M  V30 3971 H 398.277 0.148802 -5.73107 0
M  V30 3972 H 396.674 -0.60532 -5.97039 0
M  V30 3973 H 397.744 -1.21395 -4.69459 0
M  V30 3974 N 399.087 1.5561 -0.249682 0
M  V30 3975 C 400.503 1.59254 0.105103 0
M  V30 3976 C 400.703 1.26685 1.56694 0
M  V30 3977 O 399.759 1.0155 2.31179 0
M  V30 3978 C 401.072 2.99687 -0.246592 0
M  V30 3979 C 402.62 3.12416 -0.191118 0
M  V30 3980 C 403.095 4.55074 -0.516885 0
M  V30 3981 N 404.586 4.60835 -0.467489 0
M  V30 3982 C 405.321 5.69201 -0.69268 0
M  V30 3983 N 404.817 6.85817 -0.981146 0
M  V30 3984 N 406.61 5.58635 -0.623198 0
M  V30 3985 H 398.761 1.75049 -1.20298 0
M  V30 3986 H 401.024 0.815003 -0.484225 0
M  V30 3987 H 400.73 3.28267 -1.26228 0
M  V30 3988 H 400.604 3.74798 0.424962 0
M  V30 3989 H 402.991 2.83615 0.815247 0
M  V30 3990 H 403.072 2.39573 -0.896563 0
M  V30 3991 H 402.716 4.84596 -1.52082 0
M  V30 3992 H 402.646 5.26181 0.210068 0
M  V30 3993 H 405.137 3.7705 -0.253373 0
M  V30 3994 H 405.45 7.64341 -1.14032 0
M  V30 3995 H 403.795 6.87494 -1.01865 0
M  V30 3996 H 406.986 4.66406 -0.397863 0
M  V30 3997 H 407.159 6.43017 -0.802093 0
M  V30 3998 N 400.565 -0.0233959 1.57583 0
M  V30 3999 C 401.79 -0.728376 1.94189 0
M  V30 4000 C 402.215 -1.67793 0.850119 0
M  V30 4001 O 401.573 -1.80262 -0.19371 0
M  V30 4002 C 401.621 -1.45669 3.29868 0
M  V30 4003 O 400.725 -2.57013 3.22518 0
M  V30 4004 H 400.066 -0.195493 0.63457 0
M  V30 4005 H 402.596 0.0228214 2.04587 0
M  V30 4006 H 402.606 -1.82535 3.6489 0
M  V30 4007 H 401.281 -0.760314 4.08891 0
M  V30 4008 H 399.858 -2.22648 2.99136 0
M  V30 4009 N 402.043 -1.548 -0.295768 0
M  V30 4010 C 403.454 -1.65274 -0.868411 0
M  V30 4011 C 403.805 -0.56481 -1.87894 0
M  V30 4012 O 402.93 0.29767 -2.14343 0
M  V30 4013 C 403.525 -2.99603 -1.58188 0
M  V30 4014 C 402.084 -3.12181 -2.10286 0
M  V30 4015 C 401.231 -2.6098 -0.93727 0
M  V30 4016 H 404.182 -1.58534 -0.0726422 0
M  V30 4017 H 404.203 -2.91319 -2.44772 0
M  V30 4018 H 403.715 -3.78764 -0.846151 0
M  V30 4019 H 401.816 -2.3775 -2.8689 0
M  V30 4020 H 401.929 -4.18415 -2.33379 0
M  V30 4021 H 400.293 -2.17564 -1.32431 0
M  V30 4022 H 401.076 -3.42623 -0.215414 0
M  V30 4023 N 403.521 0.559213 -1.47345 0
M  V30 4024 C 404.77 1.31281 -1.53128 0
M  V30 4025 C 405.083 1.94602 -0.197344 0
M  V30 4026 O 406.289 2.71173 -0.133154 0
M  V30 4027 C 404.745 2.38051 -2.69925 0
M  V30 4028 C 404.353 1.8093 -4.0984 0
M  V30 4029 C 406.097 3.14604 -2.84999 0
M  V30 4030 C 404.004 2.85468 -5.1794 0
M  V30 4031 H 402.934 0.493614 -0.569966 0
M  V30 4032 H 405.585 0.594155 -1.73615 0
M  V30 4033 H 403.967 3.12822 -2.42814 0
M  V30 4034 H 405.141 1.12544 -4.46845 0
M  V30 4035 H 403.456 1.16967 -3.99634 0
M  V30 4036 H 406.053 3.92666 -3.62929 0
M  V30 4037 H 406.396 3.68665 -1.93369 0
M  V30 4038 H 406.929 2.46945 -3.1187 0
M  V30 4039 H 403.668 2.36264 -6.1144 0
M  V30 4040 H 403.188 3.52269 -4.85455 0
M  V30 4041 H 404.867 3.48996 -5.44803 0
M  V30 4042 N 404.999 1.35443 0.805782 0
M  V30 4043 C 406.227 1.31878 1.59423 0
M  V30 4044 C 406.642 -0.103562 1.88516 0
M  V30 4045 O 405.999 -1.05575 1.48863 0
M  V30 4046 C 406.05 2.12426 2.92502 0
M  V30 4047 O 405.771 3.49115 2.6467 0
M  V30 4048 C 407.272 2.16455 3.86862 0
M  V30 4049 H 404.492 0.453002 0.495005 0
M  V30 4050 H 407.036 1.78309 1.00131 0
M  V30 4051 H 405.191 1.69593 3.48306 0
M  V30 4052 H 405.605 3.90957 3.49647 0
M  V30 4053 H 407.079 2.77204 4.77349 0
M  V30 4054 H 407.556 1.16352 4.23508 0
M  V30 4055 H 408.162 2.59453 3.36993 0
M  V30 4056 N 406.477 -1.02803 1.19454 0
M  V30 4057 C 407.41 -2.107 0.876396 0
M  V30 4058 C 408.388 -1.61741 -0.166897 0
M  V30 4059 O 409.572 -1.88451 -0.0430195 0
M  V30 4060 C 406.699 -3.37262 0.311758 0
M  V30 4061 C 405.745 -4.05093 1.33424 0
M  V30 4062 S 406.578 -4.50498 2.89503 0
M  V30 4063 C 407.734 -5.80277 2.34584 0
M  V30 4064 H 407.967 -2.37362 1.79016 0
M  V30 4065 H 405.5 -1.15755 1.02177 0
M  V30 4066 H 407.458 -4.10499 -0.00748752 0
M  V30 4067 H 406.119 -3.08693 -0.58032 0
M  V30 4068 H 405.312 -4.9611 0.888302 0
M  V30 4069 H 404.914 -3.3803 1.60037 0
M  V30 4070 H 407.206 -6.54873 1.73633 0
M  V30 4071 H 408.149 -6.29651 3.23952 0
M  V30 4072 H 408.557 -5.3599 1.77131 0
M  V30 4073 N 407.956 -0.998596 -1.21925 0
M  V30 4074 C 408.919 -0.558679 -2.22287 0
M  V30 4075 C 409.919 0.361525 -1.56683 0
M  V30 4076 O 411.109 0.152695 -1.73529 0
M  V30 4077 C 408.241 0.18661 -3.40389 0
M  V30 4078 H 409.434 -1.4463 -2.62721 0
M  V30 4079 H 406.987 -0.786413 -1.35075 0
M  V30 4080 H 407.722 1.08996 -3.05435 0
M  V30 4081 H 407.507 -0.474188 -3.89222 0
M  V30 4082 H 408.997 0.482367 -4.14805 0
M  V30 4083 N 409.434 1.37368 -0.772513 0
M  V30 4084 C 410.344 2.34053 -0.160081 0
M  V30 4085 C 411.36 1.60216 0.678728 0
M  V30 4086 O 412.536 1.92303 0.59847 0
M  V30 4087 C 409.601 3.3939 0.708182 0
M  V30 4088 C 408.662 4.29048 -0.147172 0
M  V30 4089 C 407.895 5.29354 0.679744 0
M  V30 4090 O 408.118 5.3723 1.91678 0
M  V30 4091 O 407.052 6.01835 0.0885444 0
M  V30 4092 H 410.878 2.88159 -0.959053 0
M  V30 4093 H 408.463 1.39543 -0.533685 0
M  V30 4094 H 410.345 4.03839 1.20384 0
M  V30 4095 H 409.02 2.8761 1.48533 0
M  V30 4096 H 407.927 3.67697 -0.689205 0
M  V30 4097 H 409.26 4.84134 -0.887423 0
M  V30 4098 N 410.912 0.523116 1.48665 0
M  V30 4099 C 412.158 -0.0134963 2.02796 0
M  V30 4100 C 412.491 -1.34582 1.40004 0
M  V30 4101 O 411.766 -1.86756 0.543381 0
M  V30 4102 C 412.049 -0.14276 3.59817 0
M  V30 4103 C 411.902 1.21425 4.331 0
M  V30 4104 C 413.221 -0.872856 4.31357 0
M  V30 4105 H 410.34 -0.00343074 0.736992 0
M  V30 4106 H 412.982 0.678816 1.7746 0
M  V30 4107 H 411.132 -0.732401 3.81534 0
M  V30 4108 H 412.804 1.84447 4.2282 0
M  V30 4109 H 411.047 1.79791 3.94788 0
M  V30 4110 H 411.718 1.07687 5.41394 0
M  V30 4111 H 414.194 -0.372555 4.14429 0
M  V30 4112 H 413.07 -0.932185 5.40927 0
M  V30 4113 H 413.331 -1.92161 3.98154 0
M  V30 4114 N 412.39 -1.55475 0.257931 0
M  V30 4115 C 413.3 -2.2549 -0.647425 0
M  V30 4116 C 414.316 -1.2748 -1.18427 0
M  V30 4117 O 415.492 -1.6038 -1.2182 0
M  V30 4118 C 412.557 -2.94916 -1.82278 0
M  V30 4119 C 411.618 -4.08363 -1.32432 0
M  V30 4120 C 410.851 -4.74469 -2.44366 0
M  V30 4121 O 411.074 -4.39701 -3.63344 0
M  V30 4122 O 410.008 -5.62763 -2.13497 0
M  V30 4123 H 413.834 -3.03593 -0.0807707 0
M  V30 4124 H 411.419 -1.49377 0.0259962 0
M  V30 4125 H 413.301 -3.38606 -2.50846 0
M  V30 4126 H 411.976 -2.19744 -2.37685 0
M  V30 4127 H 410.883 -3.69166 -0.605605 0
M  V30 4128 H 412.216 -4.85385 -0.816211 0
M  V30 4129 N 413.868 0.0150385 -1.57593 0
M  V30 4130 C 414.831 0.995996 -2.06428 0
M  V30 4131 C 415.831 1.2818 -0.970903 0
M  V30 4132 O 417.021 1.22949 -1.23406 0
M  V30 4133 C 414.153 2.32506 -2.49307 0
M  V30 4134 H 415.346 0.573873 -2.94358 0
M  V30 4135 H 412.899 0.262186 -1.54085 0
M  V30 4136 H 413.634 2.79438 -1.64575 0
M  V30 4137 H 413.419 2.13087 -3.29145 0
M  V30 4138 H 414.909 3.02906 -2.87468 0
M  V30 4139 N 415.346 1.54954 0.287554 0
M  V30 4140 C 416.276 1.89839 1.35954 0
M  V30 4141 C 417.257 0.758675 1.52244 0
M  V30 4142 O 418.442 1.01557 1.65529 0
M  V30 4143 C 415.572 2.15753 2.72154 0
M  V30 4144 C 414.526 3.3159 2.70614 0
M  V30 4145 C 413.852 3.42952 4.10229 0
M  V30 4146 C 415.152 4.68359 2.31165 0
M  V30 4147 H 416.846 2.79625 1.07007 0
M  V30 4148 H 414.392 1.3454 0.513316 0
M  V30 4149 H 416.345 2.38743 3.47246 0
M  V30 4150 H 415.069 1.22752 3.02654 0
M  V30 4151 H 413.728 3.08545 1.97979 0
M  V30 4152 H 413.376 2.47443 4.37928 0
M  V30 4153 H 413.076 4.20826 4.10097 0
M  V30 4154 H 414.6 3.68218 4.87081 0
M  V30 4155 H 416.014 4.9099 2.95976 0
M  V30 4156 H 414.411 5.49044 2.42221 0
M  V30 4157 H 415.481 4.68165 1.26291 0
M  V30 4158 N 416.824 -0.551391 1.4764 0
M  V30 4159 C 417.757 -1.6738 1.5511 0
M  V30 4160 C 418.735 -1.5753 0.402856 0
M  V30 4161 O 419.919 -1.78307 0.611475 0
M  V30 4162 C 417.046 -3.05661 1.45908 0
M  V30 4163 C 416.092 -3.33938 2.65307 0
M  V30 4164 S 416.925 -3.22553 4.27457 0
M  V30 4165 C 418.081 -4.63317 4.20818 0
M  V30 4166 H 418.314 -1.6079 2.50068 0
M  V30 4167 H 415.847 -0.732674 1.35909 0
M  V30 4168 H 417.805 -3.8542 1.41286 0
M  V30 4169 H 416.466 -3.09711 0.523248 0
M  V30 4170 H 415.659 -4.34761 2.54948 0
M  V30 4171 H 415.261 -2.61809 2.67081 0
M  V30 4172 H 417.553 -5.54391 3.89431 0
M  V30 4173 H 418.496 -4.78732 5.21748 0
M  V30 4174 H 418.904 -4.41636 3.51593 0
M  V30 4175 N 418.302 -1.35869 -0.798587 0
M  V30 4176 C 419.527 -1.32883 -1.59238 0
M  V30 4177 C 419.952 0.0894587 -1.87887 0
M  V30 4178 O 419.31 1.05869 -1.47178 0
M  V30 4179 C 419.358 -2.14892 -2.89575 0
M  V30 4180 O 418.462 -1.53512 -3.82763 0
M  V30 4181 H 417.803 -0.455236 -0.48338 0
M  V30 4182 H 420.333 -1.79024 -0.990539 0
M  V30 4183 H 420.343 -2.27139 -3.38928 0
M  V30 4184 H 419.018 -3.17998 -2.68049 0
M  V30 4185 H 417.595 -1.50153 -3.41334 0
M  V30 4186 N 419.78 1.02168 -1.19998 0
M  V30 4187 C 421.005 1.79833 -1.03319 0
M  V30 4188 C 421.43 1.83504 0.413281 0
M  V30 4189 O 420.788 1.26635 1.29743 0
M  V30 4190 C 420.836 3.22396 -1.61533 0
M  V30 4191 O 419.94 4.03555 -0.849519 0
M  V30 4192 H 419.281 0.554872 -0.364709 0
M  V30 4193 H 421.811 1.28542 -1.59179 0
M  V30 4194 H 421.821 3.73124 -1.65054 0
M  V30 4195 H 420.496 3.19039 -2.66809 0
M  V30 4196 H 419.073 3.62169 -0.888129 0
M  V30 4197 N 421.258 1.00505 1.21394 0
M  V30 4198 C 422.669 0.721082 1.72213 0
M  V30 4199 C 423.02 -0.761263 1.80829 0
M  V30 4200 O 422.145 -1.59464 1.46288 0
M  V30 4201 C 422.74 1.30228 3.12772 0
M  V30 4202 C 421.299 1.06743 3.60947 0
M  V30 4203 C 420.446 1.41507 2.38477 0
M  V30 4204 H 423.397 1.17594 1.06571 0
M  V30 4205 H 423.418 0.686955 3.74247 0
M  V30 4206 H 422.93 2.38115 3.06468 0
M  V30 4207 H 421.031 0.00572162 3.726 0
M  V30 4208 H 421.144 1.73936 4.46411 0
M  V30 4209 H 419.508 0.833852 2.40664 0
M  V30 4210 H 420.291 2.50424 2.34824 0
M  V30 4211 N 422.737 -1.36956 0.779787 0
M  V30 4212 C 423.667 -2.32761 0.185651 0
M  V30 4213 C 424.648 -1.56177 -0.673989 0
M  V30 4214 O 425.833 -1.84378 -0.609797 0
M  V30 4215 C 422.963 -3.40418 -0.687964 0
M  V30 4216 C 421.917 -4.27941 0.0710102 0
M  V30 4217 C 421.243 -5.26681 -0.922573 0
M  V30 4218 C 422.543 -5.07006 1.25467 0
M  V30 4219 H 424.237 -2.82698 0.986008 0
M  V30 4220 H 421.783 -1.3592 0.475592 0
M  V30 4221 H 423.736 -4.06423 -1.11348 0
M  V30 4222 H 422.46 -2.89025 -1.52093 0
M  V30 4223 H 421.119 -3.63478 0.47739 0
M  V30 4224 H 420.767 -4.71565 -1.7503 0
M  V30 4225 H 420.467 -5.86103 -0.419237 0
M  V30 4226 H 421.991 -5.9556 -1.34686 0
M  V30 4227 H 423.405 -5.66105 0.905401 0
M  V30 4228 H 421.802 -5.75793 1.69063 0
M  V30 4229 H 422.872 -4.3921 2.05481 0
M  V30 4230 N 424.215 -0.530993 -1.48385 0
M  V30 4231 C 425.145 0.219985 -2.32461 0
M  V30 4232 C 426.126 0.934111 -1.42156 0
M  V30 4233 O 427.311 0.919694 -1.71042 0
M  V30 4234 C 424.441 1.26674 -3.23375 0
M  V30 4235 C 423.395 0.67069 -4.22712 0
M  V30 4236 C 422.721 1.82017 -5.02766 0
M  V30 4237 C 424.021 -0.358268 -5.2107 0
M  V30 4238 H 425.715 -0.48187 -2.95497 0
M  V30 4239 H 423.261 -0.233182 -1.42099 0
M  V30 4240 H 425.214 1.80006 -3.81019 0
M  V30 4241 H 423.938 1.99818 -2.58341 0
M  V30 4242 H 422.597 0.158878 -3.66256 0
M  V30 4243 H 422.245 2.54002 -4.34157 0
M  V30 4244 H 421.945 1.42727 -5.70003 0
M  V30 4245 H 423.469 2.35725 -5.63264 0
M  V30 4246 H 424.883 0.0880081 -5.73232 0
M  V30 4247 H 423.28 -0.66861 -5.96364 0
M  V30 4248 H 424.35 -1.26367 -4.68145 0
M  V30 4249 N 425.693 1.55336 -0.266172 0
M  V30 4250 C 427.104 1.85236 0.233315 0
M  V30 4251 C 427.455 1.18816 1.56132 0
M  V30 4252 O 426.58 0.473307 2.11161 0
M  V30 4253 C 427.175 3.36059 0.430113 0
M  V30 4254 C 425.734 3.66116 0.873842 0
M  V30 4255 C 424.881 2.77274 -0.0380016 0
M  V30 4256 H 427.832 1.51004 -0.488214 0
M  V30 4257 H 427.853 3.58681 1.26998 0
M  V30 4258 H 427.365 3.84373 -0.536588 0
M  V30 4259 H 425.466 3.23295 1.85233 0
M  V30 4260 H 425.579 4.73699 0.717358 0
M  V30 4261 H 423.943 2.50198 0.476759 0
M  V30 4262 H 424.726 3.284 -1.00042 0
M  V30 4263 N 427.171 -0.0066808 1.57599 0
M  V30 4264 C 428.121 -1.0086 2.04478 0
M  V30 4265 C 429.105 -1.30714 0.938231 0
M  V30 4266 O 430.297 -1.29924 1.20203 0
M  V30 4267 C 427.426 -2.30273 2.54615 0
M  V30 4268 C 426.512 -2.03413 3.72134 0
M  V30 4269 N 426.903 -1.46688 4.84062 0
M  V30 4270 C 425.201 -2.33589 3.79937 0
M  V30 4271 C 425.902 -1.36146 5.65543 0
M  V30 4272 N 424.878 -1.84477 5.1134 0
M  V30 4273 H 428.68 -0.564402 2.8843 0
M  V30 4274 H 426.194 -0.212521 1.61003 0
M  V30 4275 H 428.191 -3.02885 2.86472 0
M  V30 4276 H 426.851 -2.75352 1.72079 0
M  V30 4277 H 427.862 -1.14658 5.05049 0
M  V30 4278 H 424.539 -2.81589 3.08243 0
M  V30 4279 H 425.929 -0.925873 6.6549 0
M  V30 4280 N 428.649 -1.55105 -0.279332 0
M  V30 4281 C 429.926 -1.66119 -1.03267 0
M  V30 4282 C 430.306 -0.523525 -2.04505 0
M  V30 4283 O 429.654 0.477194 -2.23462 0
M  V30 4284 C 429.864 -3.05067 -1.69515 0
M  V30 4285 C 431.212 -3.62606 -2.20912 0
M  V30 4286 O 432.236 -3.07659 -1.79512 0
M  V30 4287 O 431.095 -4.58861 -2.96831 0
M  V30 4288 H 428.189 -0.674429 -0.478618 0
M  V30 4289 H 430.735 -1.67446 -0.275694 0
M  V30 4290 H 429.507 -3.79311 -0.9612 0
M  V30 4291 H 429.13 -3.07611 -2.51915 0
M  V30 4292 N 430.127 0.543554 -1.4793 0
M  V30 4293 C 431.373 1.30201 -1.55485 0
M  V30 4294 C 431.706 1.92925 -0.222201 0
M  V30 4295 O 430.981 1.78586 0.77053 0
M  V30 4296 C 431.264 2.40174 -2.68307 0
M  V30 4297 C 431.117 1.8223 -4.11233 0
M  V30 4298 C 432.436 3.42024 -2.76961 0
M  V30 4299 H 429.555 0.472036 -0.565996 0
M  V30 4300 H 432.197 0.606914 -1.80046 0
M  V30 4301 H 430.347 2.99463 -2.47495 0
M  V30 4302 H 432.019 1.27096 -4.43446 0
M  V30 4303 H 430.262 1.12832 -4.18869 0
M  V30 4304 H 430.933 2.61793 -4.85972 0
M  V30 4305 H 433.409 2.92672 -2.95774 0
M  V30 4306 H 432.285 4.16383 -3.57654 0
M  V30 4307 H 432.546 4.0173 -1.84568 0
M  V30 4308 N 431.605 1.3629 0.791371 0
M  V30 4309 C 432.833 1.33562 1.58016 0
M  V30 4310 C 433.248 -0.0835616 1.88615 0
M  V30 4311 O 432.605 -1.0399 1.49974 0
M  V30 4312 C 432.656 2.15517 2.90232 0
M  V30 4313 O 432.377 3.51902 2.60953 0
M  V30 4314 C 433.878 2.20546 3.84544 0
M  V30 4315 H 431.098 0.458226 0.490173 0
M  V30 4316 H 433.642 1.79361 0.982345 0
M  V30 4317 H 431.797 1.73278 3.46487 0
M  V30 4318 H 432.211 3.94644 3.4548 0
M  V30 4319 H 433.685 2.82252 4.74382 0
M  V30 4320 H 434.162 1.20838 4.2225 0
M  V30 4321 H 434.768 2.63013 3.34222 0
M  V30 4322 N 433.083 -1.0153 1.20538 0
M  V30 4323 C 434.031 -2.12215 0.952235 0
M  V30 4324 C 435.025 -1.69123 -0.0968735 0
M  V30 4325 O 436.231 -1.7992 0.0536006 0
M  V30 4326 H 432.606 -0.693576 0.290613 0
M  V30 4327 H 434.577 -2.3075 1.89201 0
M  V30 4328 C 433.326 -3.43755 0.522287 0
M  V30 4329 H 432.649 -3.7734 1.32115 0
M  V30 4330 H 434.089 -4.22254 0.384389 0
M  V30 4331 C 432.548 -3.28088 -0.765489 0
M  V30 4332 O 433.078 -3.57921 -1.8236 0
M  V30 4333 N 431.284 -2.81333 -0.728011 0
M  V30 4334 H 430.831 -2.57255 0.133332 0
M  V30 4335 H 430.789 -2.71232 -1.58999 0
M  V30 4336 N 434.561 -1.01147 -1.20859 0
M  V30 4337 C 435.491 -0.597663 -2.25722 0
M  V30 4338 C 436.472 0.384744 -1.65692 0
M  V30 4339 O 437.657 0.271303 -1.92296 0
M  V30 4340 C 434.787 0.0700149 -3.47229 0
M  V30 4341 C 433.741 -0.832843 -4.19819 0
M  V30 4342 C 433.067 -0.0312202 -5.34691 0
M  V30 4343 C 434.367 -2.1385 -4.76514 0
M  V30 4344 H 436.061 -1.47423 -2.60589 0
M  V30 4345 H 433.607 -0.710301 -1.25263 0
M  V30 4346 H 435.56 0.37103 -4.19763 0
M  V30 4347 H 434.284 0.981259 -3.11511 0
M  V30 4348 H 432.943 -1.11778 -3.49144 0
M  V30 4349 H 432.591 0.881515 -4.95215 0
M  V30 4350 H 432.291 -0.632434 -5.84187 0
M  V30 4351 H 433.815 0.26346 -6.10031 0
M  V30 4352 H 435.229 -1.9002 -5.40893 0
M  V30 4353 H 433.626 -2.69012 -5.36426 0
M  V30 4354 H 434.696 -2.80495 -3.95538 0
M  V30 4355 N 436.039 1.36541 -0.78704 0
M  V30 4356 C 436.972 2.27831 -0.129765 0
M  V30 4357 C 437.95 1.47105 0.692732 0
M  V30 4358 O 439.134 1.7641 0.664222 0
M  V30 4359 C 436.261 3.28577 0.821883 0
M  V30 4360 C 435.307 4.26422 0.0814771 0
M  V30 4361 S 436.14 5.20919 -1.24112 0
M  V30 4362 C 437.296 6.25212 -0.293409 0
M  V30 4363 H 437.529 2.83229 -0.903811 0
M  V30 4364 H 435.062 1.43046 -0.581144 0
M  V30 4365 H 437.02 3.87123 1.3655 0
M  V30 4366 H 435.681 2.72096 1.56916 0
M  V30 4367 H 434.874 4.97554 0.803485 0
M  V30 4368 H 434.476 3.71944 -0.391589 0
M  V30 4369 H 436.768 6.75435 0.528622 0
M  V30 4370 H 437.711 7.01378 -0.973344 0
M  V30 4371 H 438.119 5.64407 0.102196 0
M  V30 4372 N 437.518 0.538854 1.48102 0
M  V30 4373 C 438.934 0.19732 1.58376 0
M  V30 4374 C 439.134 -1.29971 1.5398 0
M  V30 4375 O 438.19 -2.07861 1.43352 0
M  V30 4376 C 439.503 0.807716 2.89649 0
M  V30 4377 C 441.051 0.77726 3.03196 0
M  V30 4378 C 441.526 1.36639 4.37143 0
M  V30 4379 N 443.017 1.32875 4.43732 0
M  V30 4380 C 443.752 1.7544 5.45901 0
M  V30 4381 N 443.248 2.25776 6.54979 0
M  V30 4382 N 445.041 1.66623 5.36836 0
M  V30 4383 H 437.192 1.5117 1.49202 0
M  V30 4384 H 439.455 0.629327 0.708979 0
M  V30 4385 H 439.161 1.85909 2.98548 0
M  V30 4386 H 439.035 0.289975 3.76084 0
M  V30 4387 H 441.422 -0.265374 2.93904 0
M  V30 4388 H 441.503 1.33256 2.18349 0
M  V30 4389 H 441.147 2.408 4.47189 0
M  V30 4390 H 441.077 0.786689 5.20691 0
M  V30 4391 H 443.568 0.96037 3.65493 0
M  V30 4392 H 443.881 2.56226 7.29087 0
M  V30 4393 H 442.226 2.29775 6.55918 0
M  V30 4394 H 445.417 1.27089 4.50517 0
M  V30 4395 H 445.59 2.00115 6.16326 0
M  V30 4396 N 438.996 -1.55193 0.274407 0
M  V30 4397 C 440.242 -1.99877 -0.343086 0
M  V30 4398 C 440.575 -1.16256 -1.55558 0
M  V30 4399 O 439.85 -0.232462 -1.93106 0
M  V30 4400 C 440.133 -3.52706 -0.725965 0
M  V30 4401 C 439.986 -4.47081 0.493818 0
M  V30 4402 C 441.305 -4.11422 -1.56268 0
M  V30 4403 H 438.424 -0.726625 -0.123229 0
M  V30 4404 H 441.066 -1.86136 0.38121 0
M  V30 4405 H 439.216 -3.64546 -1.34307 0
M  V30 4406 H 440.888 -4.47186 1.13237 0
M  V30 4407 H 439.131 -4.1877 1.13201 0
M  V30 4408 H 439.802 -5.51699 0.18217 0
M  V30 4409 H 442.278 -4.02855 -1.04151 0
M  V30 4410 H 441.154 -5.18568 -1.79939 0
M  V30 4411 H 441.415 -3.61607 -2.54348 0
M  V30 4412 N 440.474 -0.00167713 -1.576 0
M  V30 4413 C 441.723 0.682021 -1.89819 0
M  V30 4414 C 442.036 1.74844 -0.876871 0
M  V30 4415 O 443.242 2.48688 -1.08934 0
M  V30 4416 C 441.698 1.26425 -3.36964 0
M  V30 4417 C 441.306 0.232568 -4.47396 0
M  V30 4418 C 443.05 1.92604 -3.78291 0
M  V30 4419 C 440.957 0.824882 -5.85619 0
M  V30 4420 H 439.887 0.258499 -0.708304 0
M  V30 4421 H 442.538 -0.0624957 -1.83394 0
M  V30 4422 H 440.92 2.05949 -3.38232 0
M  V30 4423 H 442.094 -0.5382 -4.57646 0
M  V30 4424 H 440.409 -0.32888 -4.15099 0
M  V30 4425 H 443.006 2.37827 -4.78897 0
M  V30 4426 H 443.349 2.75732 -3.11894 0
M  V30 4427 H 443.882 1.19812 -3.79328 0
M  V30 4428 H 440.621 0.0323542 -6.55492 0
M  V30 4429 H 440.141 1.56477 -5.79029 0
M  V30 4430 H 441.82 1.32301 -6.33329 0
M  V30 4431 N 441.952 1.55251 0.271103 0
M  V30 4432 C 442.882 1.9127 1.33933 0
M  V30 4433 C 443.863 0.77478 1.5143 0
M  V30 4434 O 445.048 1.03307 1.64442 0
M  V30 4435 C 442.178 2.18627 2.69851 0
M  V30 4436 C 441.132 3.34442 2.67081 0
M  V30 4437 C 440.458 3.47284 4.06569 0
M  V30 4438 C 441.758 4.70784 2.26185 0
M  V30 4439 H 443.452 2.80744 1.04035 0
M  V30 4440 H 440.998 1.35077 0.499017 0
M  V30 4441 H 442.951 2.42413 3.44694 0
M  V30 4442 H 441.675 1.25955 3.01335 0
M  V30 4443 H 440.334 3.10627 1.94695 0
M  V30 4444 H 439.982 2.52074 4.35279 0
M  V30 4445 H 439.682 4.25152 4.0561 0
M  V30 4446 H 441.206 3.73363 4.83148 0
M  V30 4447 H 442.62 4.94102 2.90751 0
M  V30 4448 H 441.017 5.51582 2.36384 0
M  V30 4449 H 442.087 4.69478 1.21319 0
M  V30 4450 N 443.43 -0.535701 1.48216 0
M  V30 4451 C 444.678 -1.28928 1.55634 0
M  V30 4452 C 444.999 -1.93645 0.229514 0
M  V30 4453 O 444.269 -1.81038 -0.74846 0
M  V30 4454 H 442.849 -0.47884 0.573342 0
M  V30 4455 H 445.511 -0.623853 1.84646 0
M  V30 4456 H 444.607 -2.07157 2.33436 0
M  V30 4457 N 444.908 -1.36708 -0.784132 0
M  V30 4458 C 446.319 -1.27947 -1.35965 0
M  V30 4459 C 446.67 0.0784013 -1.96043 0
M  V30 4460 O 445.795 0.979989 -1.92938 0
M  V30 4461 C 446.39 -2.31689 -2.47195 0
M  V30 4462 C 444.949 -2.26601 -3.00548 0
M  V30 4463 C 444.096 -2.16184 -1.73666 0
M  V30 4464 H 447.047 -1.4751 -0.585358 0
M  V30 4465 H 447.068 -1.95638 -3.26352 0
M  V30 4466 H 446.58 -3.30506 -2.03439 0
M  V30 4467 H 444.681 -1.31268 -3.48711 0
M  V30 4468 H 444.794 -3.19508 -3.57004 0
M  V30 4469 H 443.158 -1.62524 -1.96107 0
M  V30 4470 H 443.941 -3.16896 -1.32031 0
M  V30 4471 N 446.386 1.0089 -1.21074 0
M  V30 4472 C 447.349 2.0775 -0.968129 0
M  V30 4473 C 448.349 1.6069 0.0593445 0
M  V30 4474 O 449.539 1.73293 -0.177525 0
M  V30 4475 C 446.671 3.37794 -0.459108 0
M  V30 4476 H 447.864 2.30707 -1.9161 0
M  V30 4477 H 445.417 1.17807 -1.02719 0
M  V30 4478 H 446.152 3.20516 0.49397 0
M  V30 4479 H 445.937 3.7328 -1.20019 0
M  V30 4480 H 447.427 4.16454 -0.309099 0
M  V30 4481 N 447.864 1.01787 1.20321 0
M  V30 4482 C 449.275 0.739307 1.71438 0
M  V30 4483 C 449.626 -0.742041 1.81627 0
M  V30 4484 O 448.751 -1.57903 1.47971 0
M  V30 4485 C 449.346 1.33538 3.11373 0
M  V30 4486 C 447.905 1.10566 3.59795 0
M  V30 4487 C 447.052 1.44028 2.36962 0
M  V30 4488 H 450.003 1.18718 1.05317 0
M  V30 4489 H 450.024 0.726611 3.73498 0
M  V30 4490 H 449.536 2.41352 3.03926 0
M  V30 4491 H 447.637 0.0452405 3.72573 0
M  V30 4492 H 447.75 1.78661 4.44542 0
M  V30 4493 H 446.114 0.85933 2.39766 0
M  V30 4494 H 446.897 2.52901 2.32155 0
M  V30 4495 N 449.342 -1.36122 0.79427 0
M  V30 4496 C 450.572 -2.03067 0.380437 0
M  V30 4497 C 450.98 -1.60018 -1.00949 0
M  V30 4498 O 450.323 -0.787425 -1.65968 0
M  V30 4499 C 450.385 -3.57587 0.37034 0
M  V30 4500 C 450.049 -4.23855 1.70867 0
M  V30 4501 C 451.046 -4.46404 2.66496 0
M  V30 4502 C 448.731 -4.61229 1.9893 0
M  V30 4503 C 450.725 -5.05412 3.88378 0
M  V30 4504 C 448.412 -5.19953 3.21079 0
M  V30 4505 C 449.41 -5.41985 4.15621 0
M  V30 4506 O 449.098 -5.99475 5.35616 0
M  V30 4507 H 448.83 -0.658168 0.154243 0
M  V30 4508 H 451.384 -1.7498 1.0757 0
M  V30 4509 H 449.614 -3.84814 -0.381444 0
M  V30 4510 H 451.303 -4.05895 -0.0194894 0
M  V30 4511 H 452.069 -4.17921 2.46103 0
M  V30 4512 H 447.948 -4.43402 1.26158 0
M  V30 4513 H 451.492 -5.22524 4.62185 0
M  V30 4514 H 447.389 -5.47862 3.41347 0
M  V30 4515 H 448.157 -6.17937 5.36745 0
M  V30 4516 N 450.82 -0.546701 -1.47814 0
M  V30 4517 C 451.783 0.196287 -2.28358 0
M  V30 4518 C 452.783 0.852437 -1.36346 0
M  V30 4519 O 453.973 0.709913 -1.59078 0
M  V30 4520 C 451.105 1.28579 -3.15722 0
M  V30 4521 H 452.298 -0.511086 -2.95513 0
M  V30 4522 H 449.851 -0.303248 -1.5333 0
M  V30 4523 H 450.586 2.0259 -2.53235 0
M  V30 4524 H 450.371 0.820229 -3.83425 0
M  V30 4525 H 451.861 1.80793 -3.76435 0
M  V30 4526 N 452.299 1.55045 -0.282633 0
M  V30 4527 C 453.229 2.2579 0.595066 0
M  V30 4528 C 454.21 1.25074 1.15284 0
M  V30 4529 O 455.395 1.5381 1.18559 0
M  V30 4530 C 452.525 2.98472 1.77572 0
M  V30 4531 C 451.479 4.0618 1.34914 0
M  V30 4532 C 450.805 4.66477 2.6135 0
M  V30 4533 C 452.105 5.1996 0.493821 0
M  V30 4534 H 453.799 2.994 0.00505653 0
M  V30 4535 H 451.345 1.44 0.000992001 0
M  V30 4536 H 453.298 3.46677 2.39568 0
M  V30 4537 H 452.022 2.2241 2.39168 0
M  V30 4538 H 450.681 3.58797 0.752338 0
M  V30 4539 H 450.329 3.87074 3.2122 0
M  V30 4540 H 450.029 5.39207 2.33516 0
M  V30 4541 H 451.553 5.17435 3.24181 0
M  V30 4542 H 452.967 5.64172 1.01898 0
M  V30 4543 H 451.364 5.99299 0.310047 0
M  V30 4544 H 452.434 4.82462 -0.485593 0
M  V30 4545 N 453.777 0.010035 1.57597 0
M  V30 4546 C 455.023 -0.668011 1.92118 0
M  V30 4547 C 455.378 -1.70821 0.885328 0
M  V30 4548 O 454.671 -1.91333 -0.101187 0
M  V30 4549 C 454.865 -1.34434 3.31153 0
M  V30 4550 C 454.694 -0.371176 4.48166 0
M  V30 4551 C 453.464 0.0220686 5.05295 0
M  V30 4552 C 455.662 0.366731 5.12991 0
M  V30 4553 N 453.644 0.9924 6.05826 0
M  V30 4554 C 455.015 1.19142 6.08445 0
M  V30 4555 C 457.07 0.429489 4.96044 0
M  V30 4556 C 455.773 2.07317 6.88776 0
M  V30 4557 C 457.799 1.2985 5.76969 0
M  V30 4558 C 457.161 2.11101 6.72023 0
M  V30 4559 H 453.26 -0.217337 0.751192 0
M  V30 4560 H 455.844 0.0727375 1.94564 0
M  V30 4561 H 454.015 -2.05533 3.29561 0
M  V30 4562 H 455.747 -1.97789 3.53075 0
M  V30 4563 H 452.502 -0.348409 4.72317 0
M  V30 4564 H 452.926 1.47324 6.60776 0
M  V30 4565 H 457.568 -0.18442 4.22398 0
M  V30 4566 H 455.286 2.69771 7.61741 0
M  V30 4567 H 458.872 1.3511 5.65894 0
M  V30 4568 H 457.752 2.77257 7.33552 0
M  V30 4569 N 455.255 -1.55392 -0.262866 0
M  V30 4570 C 456.188 -1.8391 -1.35101 0
M  V30 4571 C 457.166 -0.692901 -1.47097 0
M  V30 4572 O 458.35 -0.936979 -1.63563 0
M  V30 4573 C 455.477 -2.00969 -2.72634 0
M  V30 4574 C 454.523 -3.23559 -2.7787 0
M  V30 4575 S 455.356 -4.80647 -2.3609 0
M  V30 4576 C 456.512 -5.00692 -3.75578 0
M  V30 4577 H 456.745 -2.75918 -1.1071 0
M  V30 4578 H 454.278 -1.47294 -0.463029 0
M  V30 4579 H 456.236 -2.11482 -3.51832 0
M  V30 4580 H 454.897 -1.09832 -2.94272 0
M  V30 4581 H 454.09 -3.32413 -3.78837 0
M  V30 4582 H 453.692 -3.11689 -2.06702 0
M  V30 4583 H 455.984 -4.87055 -4.70939 0
M  V30 4584 H 456.927 -6.02717 -3.71669 0
M  V30 4585 H 457.335 -4.28619 -3.6735 0
M  V30 4586 N 456.733 0.527833 -1.48498 0
M  V30 4587 C 458.01 1.28905 -1.47115 0
M  V30 4588 C 458.39 2.10297 -0.184007 0
M  V30 4589 O 457.738 2.12728 0.834218 0
M  V30 4590 C 457.948 2.16866 -2.73441 0
M  V30 4591 C 459.296 2.76936 -3.21857 0
M  V30 4592 O 460.32 2.27152 -2.74373 0
M  V30 4593 O 459.179 3.67496 -4.04486 0
M  V30 4594 H 456.273 0.581918 -0.587623 0
M  V30 4595 H 458.819 0.544311 -1.60734 0
M  V30 4596 H 457.591 1.56521 -3.58632 0
M  V30 4597 H 457.214 2.98583 -2.62553 0
M  V30 4598 N 458.211 1.37122 0.776871 0
M  V30 4599 C 459.174 1.32301 1.8716 0
M  V30 4600 C 460.174 0.228099 1.59174 0
M  V30 4601 O 461.364 0.483642 1.67352 0
M  V30 4602 C 458.496 1.054 3.24197 0
M  V30 4603 H 459.689 2.29673 1.92848 0
M  V30 4604 H 457.242 1.22077 0.97606 0
M  V30 4605 H 457.977 0.0853872 3.24188 0
M  V30 4606 H 457.762 1.84648 3.45901 0
M  V30 4607 H 459.252 1.04664 4.04271 0
M  V30 4608 N 459.689 -1.00246 1.21608 0
M  V30 4609 C 460.935 -1.74417 1.04643 0
M  V30 4610 C 461.29 -1.87862 -0.415387 0
M  V30 4611 O 460.583 -1.40373 -1.30407 0
M  V30 4612 C 460.777 -3.15448 1.68009 0
M  V30 4613 C 460.606 -3.15755 3.20201 0
M  V30 4614 C 459.376 -3.2219 3.89258 0
M  V30 4615 C 461.574 -3.00668 4.17257 0
M  V30 4616 N 459.556 -3.1215 5.28617 0
M  V30 4617 C 460.927 -2.98553 5.43384 0
M  V30 4618 C 462.982 -2.84989 4.08272 0
M  V30 4619 C 461.685 -2.82364 6.61561 0
M  V30 4620 C 463.711 -2.70158 5.26088 0
M  V30 4621 C 463.073 -2.68721 6.51128 0
M  V30 4622 H 459.172 -0.648317 0.437274 0
M  V30 4623 H 461.756 -1.19129 1.54001 0
M  V30 4624 H 459.927 -3.69001 1.21215 0
M  V30 4625 H 461.659 -3.78128 1.44226 0
M  V30 4626 H 458.414 -3.29488 3.40198 0
M  V30 4627 H 458.838 -3.10465 6.01615 0
M  V30 4628 H 463.48 -2.84904 3.12393 0
M  V30 4629 H 461.198 -2.81196 7.57598 0
M  V30 4630 H 464.784 -2.59022 5.20959 0
M  V30 4631 H 463.664 -2.57382 7.40759 0
M  V30 4632 N 461.167 -1.02423 -1.1978 0
M  V30 4633 C 462.415 -0.716569 -1.8897 0
M  V30 4634 C 462.736 0.756769 -1.79716 0
M  V30 4635 O 462.006 1.5449 -1.20456 0
M  V30 4636 H 460.586 -0.262062 -0.699523 0
M  V30 4637 H 463.248 -1.29747 -1.45436 0
M  V30 4638 H 462.344 -1.00675 -2.95417 0
M  V30 4639 N 462.645 1.35699 -0.801477 0
M  V30 4640 C 463.891 1.99208 -0.380022 0
M  V30 4641 C 464.224 1.63445 1.04878 0
M  V30 4642 O 463.499 0.895223 1.72673 0
M  V30 4643 C 463.782 3.55755 -0.557708 0
M  V30 4644 C 463.635 4.01332 -2.03107 0
M  V30 4645 C 464.954 4.40096 0.0197968 0
M  V30 4646 H 462.073 0.723667 -0.139552 0
M  V30 4647 H 464.715 1.60928 -1.01006 0
M  V30 4648 H 462.865 3.88494 -0.0213741 0
M  V30 4649 H 464.537 3.79026 -2.62939 0
M  V30 4650 H 462.78 3.52429 -2.52936 0
M  V30 4651 H 463.451 5.10234 -2.1063 0
M  V30 4652 H 465.927 4.13786 -0.438179 0
M  V30 4653 H 464.803 5.48735 -0.134477 0
M  V30 4654 H 465.064 4.2786 1.11303 0
M  V30 4655 N 464.123 0.554532 1.47522 0
M  V30 4656 C 465.055 -0.232106 2.28022 0
M  V30 4657 C 466.068 -0.881865 1.36847 0
M  V30 4658 O 467.257 -0.756168 1.61692 0
M  V30 4659 C 464.357 -1.34604 3.11022 0
M  V30 4660 C 463.53 -0.793582 4.30141 0
M  V30 4661 C 462.589 -1.79168 4.94758 0
M  V30 4662 O 461.615 -1.33886 5.5323 0
M  V30 4663 N 462.817 -3.12495 4.89211 0
M  V30 4664 H 465.582 0.458407 2.96173 0
M  V30 4665 H 463.143 0.390433 1.57122 0
M  V30 4666 H 465.135 -2.01243 3.51118 0
M  V30 4667 H 463.705 -1.93983 2.45131 0
M  V30 4668 H 462.925 0.0495025 3.94169 0
M  V30 4669 H 464.213 -0.403776 5.07195 0
M  V30 4670 H 463.611 -3.51931 4.42901 0
M  V30 4671 H 462.168 -3.74698 5.33333 0
M  V30 4672 N 465.601 -1.54893 0.290851 0
M  V30 4673 C 466.531 -2.26103 -0.583084 0
M  V30 4674 C 467.512 -1.25684 -1.14619 0
M  V30 4675 O 468.697 -1.54436 -1.17741 0
M  V30 4676 C 465.827 -2.99409 -1.75987 0
M  V30 4677 C 464.781 -4.0689 -1.32758 0
M  V30 4678 C 464.107 -4.67856 -2.58872 0
M  V30 4679 C 465.407 -5.20215 -0.46624 0
M  V30 4680 H 467.101 -2.99398 0.0108214 0
M  V30 4681 H 464.647 -1.43998 0.00664468 0
M  V30 4682 H 466.6 -3.47943 -2.37727 0
M  V30 4683 H 465.324 -2.23675 -2.37985 0
M  V30 4684 H 463.983 -3.59191 -0.733299 0
M  V30 4685 H 463.631 -3.88772 -3.19163 0
M  V30 4686 H 463.331 -5.40438 -2.30653 0
M  V30 4687 H 464.855 -5.19147 -3.21433 0
M  V30 4688 H 466.269 -5.64704 -0.989047 0
M  V30 4689 H 464.666 -5.99455 -0.27826 0
M  V30 4690 H 465.736 -4.82198 0.511173 0
M  V30 4691 N 467.08 -0.0183926 -1.57589 0
M  V30 4692 C 468.012 0.995557 -2.06449 0
M  V30 4693 C 469.025 1.29556 -0.985849 0
M  V30 4694 O 470.214 1.2621 -1.26227 0
M  V30 4695 C 467.314 2.32572 -2.46502 0
M  V30 4696 C 466.487 2.21245 -3.77319 0
M  V30 4697 C 465.546 3.37104 -4.04039 0
M  V30 4698 O 464.572 3.14468 -4.74445 0
M  V30 4699 N 465.774 4.60553 -3.53372 0
M  V30 4700 H 468.539 0.578746 -2.94059 0
M  V30 4701 H 466.1 0.168603 -1.6102 0
M  V30 4702 H 468.092 3.08887 -2.61478 0
M  V30 4703 H 466.662 2.65931 -1.64315 0
M  V30 4704 H 465.882 1.29723 -3.72244 0
M  V30 4705 H 467.17 2.10868 -4.63047 0
M  V30 4706 H 466.568 4.81839 -2.96391 0
M  V30 4707 H 465.125 5.34072 -3.73644 0
M  V30 4708 N 468.558 1.5553 0.254621 0
M  V30 4709 C 469.786 1.81046 1.00149 0
M  V30 4710 C 470.201 0.593047 1.79244 0
M  V30 4711 O 469.558 -0.438196 1.77161 0
M  V30 4712 C 469.609 3.04684 1.94551 0
M  V30 4713 O 469.33 4.21725 1.18658 0
M  V30 4714 C 470.831 3.42943 2.80901 0
M  V30 4715 H 468.051 0.602653 0.295044 0
M  V30 4716 H 470.595 2.02576 0.279842 0
M  V30 4717 H 468.75 2.85226 2.62154 0
M  V30 4718 H 469.164 4.91746 1.82445 0
M  V30 4719 H 470.638 4.32576 3.42902 0
M  V30 4720 H 471.115 2.63176 3.51617 0
M  V30 4721 H 471.721 3.64724 2.18762 0
M  V30 4722 N 470.036 -0.519951 1.48776 0
M  V30 4723 C 471.282 -1.27711 1.57536 0
M  V30 4724 C 471.615 -1.92547 0.252866 0
M  V30 4725 O 470.89 -1.7979 -0.742021 0
M  V30 4726 C 471.173 -2.35875 2.72094 0
M  V30 4727 C 471.026 -1.75664 4.1408 0
M  V30 4728 C 472.345 -3.37575 2.82367 0
M  V30 4729 H 469.464 -0.462971 0.573434 0
M  V30 4730 H 472.106 -0.578194 1.80989 0
M  V30 4731 H 470.256 -2.95488 2.52228 0
M  V30 4732 H 471.928 -1.20025 4.45412 0
M  V30 4733 H 470.171 -1.06154 4.20611 0
M  V30 4734 H 470.842 -2.54029 4.90075 0
M  V30 4735 H 473.318 -2.87929 3.00393 0
M  V30 4736 H 472.194 -4.1064 3.64233 0
M  V30 4737 H 472.455 -3.98743 1.90936 0
M  V30 4738 N 471.514 -1.37532 -0.769588 0
M  V30 4739 C 472.763 -1.32183 -1.5235 0
M  V30 4740 C 473.076 0.0906555 -1.9539 0
M  V30 4741 O 474.282 0.266628 -2.70188 0
M  V30 4742 C 472.738 -2.32029 -2.75119 0
M  V30 4743 C 472.346 -3.78816 -2.3917 0
M  V30 4744 C 474.09 -2.35694 -3.53056 0
M  V30 4745 C 471.997 -4.70388 -3.58453 0
M  V30 4746 H 470.927 -0.491275 -0.571984 0
M  V30 4747 H 473.578 -1.63004 -0.842739 0
M  V30 4748 H 471.96 -1.94229 -3.45096 0
M  V30 4749 H 473.134 -4.25466 -1.76962 0
M  V30 4750 H 471.449 -3.78117 -1.74402 0
M  V30 4751 H 474.046 -3.01312 -4.41718 0
M  V30 4752 H 474.389 -1.37117 -3.93071 0
M  V30 4753 H 474.922 -2.72212 -2.90078 0
M  V30 4754 H 471.661 -5.70102 -3.23518 0
M  V30 4755 H 471.181 -4.28442 -4.19758 0
M  V30 4756 H 472.86 -4.87628 -4.25239 0
M  V30 4757 N 472.992 0.995999 -1.22138 0
M  V30 4758 C 473.955 2.06711 -0.990109 0
M  V30 4759 C 474.955 1.60744 0.0422978 0
M  V30 4760 O 476.145 1.73095 -0.195895 0
M  V30 4761 C 473.277 3.37288 -0.49491 0
M  V30 4762 H 474.47 2.28661 -1.94047 0
M  V30 4763 H 472.023 1.16711 -1.03963 0
M  V30 4764 H 472.758 3.21022 0.459948 0
M  V30 4765 H 472.543 3.71986 -1.23971 0
M  V30 4766 H 474.033 4.16103 -0.353253 0
M  V30 4767 N 474.47 1.03057 1.19235 0
M  V30 4768 C 475.433 0.617418 2.20727 0
M  V30 4769 C 476.433 -0.319856 1.57587 0
M  V30 4770 O 477.623 -0.106633 1.73873 0
M  V30 4771 C 474.755 -0.096296 3.40764 0
M  V30 4772 H 475.948 1.51544 2.58794 0
M  V30 4773 H 473.501 0.821949 1.32942 0
M  V30 4774 H 474.236 -1.00859 3.08217 0
M  V30 4775 H 474.021 0.577217 3.87828 0
M  V30 4776 H 475.511 -0.372219 4.15938 0
M  V30 4777 N 475.948 -1.35272 0.808662 0
M  V30 4778 C 476.911 -2.28082 0.226093 0
M  V30 4779 C 477.911 -1.49673 -0.587762 0
M  V30 4780 O 479.101 -1.69404 -0.405943 0
M  V30 4781 C 476.233 -3.33955 -0.684596 0
M  V30 4782 H 477.426 -2.81116 1.04469 0
M  V30 4783 H 474.979 -1.45162 0.579466 0
M  V30 4784 H 475.714 -2.86111 -1.5268 0
M  V30 4785 H 475.499 -3.91965 -0.102699 0
M  V30 4786 H 476.989 -4.03219 -1.08646 0
M  V30 4787 N 477.426 -0.562348 -1.47226 0
M  V30 4788 C 478.654 -0.0452275 -2.06851 0
M  V30 4789 C 479.069 1.25078 -1.41424 0
M  V30 4790 O 478.426 1.75156 -0.512513 0
M  V30 4791 C 478.477 0.148674 -3.61194 0
M  V30 4792 O 478.198 -1.09602 -4.24169 0
M  V30 4793 C 479.699 0.702488 -4.37699 0
M  V30 4794 H 476.919 -0.0481775 -0.669268 0
M  V30 4795 H 479.463 -0.777223 -1.89155 0
M  V30 4796 H 477.618 0.830817 -3.78386 0
M  V30 4797 H 478.032 -0.896982 -5.16773 0
M  V30 4798 H 479.506 0.78743 -5.46355 0
M  V30 4799 H 479.983 1.71493 -4.04335 0
M  V30 4800 H 480.589 0.0558772 -4.25263 0
M  V30 4801 N 478.904 1.54736 -0.299062 0
M  V30 4802 C 480.32 1.59507 0.0543849 0
M  V30 4803 C 480.52 1.31606 1.52585 0
M  V30 4804 O 479.576 1.08853 2.27832 0
M  V30 4805 C 480.889 2.98751 -0.34181 0
M  V30 4806 C 482.437 3.1165 -0.290414 0
M  V30 4807 C 482.912 4.53199 -0.661402 0
M  V30 4808 N 484.403 4.59114 -0.613863 0
M  V30 4809 C 485.138 5.66709 -0.873417 0
M  V30 4810 N 484.634 6.82349 -1.19884 0
M  V30 4811 N 486.427 5.56369 -0.800608 0
M  V30 4812 H 478.578 1.71133 -1.25806 0
M  V30 4813 H 480.841 0.799186 -0.509908 0
M  V30 4814 H 480.547 3.24085 -1.36608 0
M  V30 4815 H 480.421 3.75961 0.305508 0
M  V30 4816 H 482.808 2.86066 0.724605 0
M  V30 4817 H 482.889 2.366 -0.972327 0
M  V30 4818 H 482.533 4.79513 -1.67422 0
M  V30 4819 H 482.463 5.26583 0.0425612 0
M  V30 4820 H 484.954 3.76053 -0.3732 0
M  V30 4821 H 485.267 7.60326 -1.38291 0
M  V30 4822 H 483.612 6.83906 -1.23685 0
M  V30 4823 H 486.803 4.64904 -0.546045 0
M  V30 4824 H 486.976 6.40139 -1.00626 0
M  V30 4825 N 480.382 0.0267497 1.57577 0
M  V30 4826 C 481.659 -0.690926 1.82991 0
M  V30 4827 C 482.039 -1.90471 0.910164 0
M  V30 4828 O 481.387 -2.28474 -0.0347985 0
M  V30 4829 C 481.597 -1.07139 3.32148 0
M  V30 4830 C 482.945 -1.46402 3.98562 0
M  V30 4831 O 483.969 -1.16443 3.36629 0
M  V30 4832 O 482.828 -2.02214 5.07712 0
M  V30 4833 H 479.922 -0.338747 0.75444 0
M  V30 4834 H 482.468 0.0542506 1.69613 0
M  V30 4835 H 481.24 -0.207394 3.9075 0
M  V30 4836 H 480.863 -1.87481 3.50623 0
M  V30 4837 N 481.861 -1.55662 -0.24637 0
M  V30 4838 C 483.272 -1.67953 -0.81539 0
M  V30 4839 C 483.623 -0.624302 -1.86002 0
M  V30 4840 O 482.748 0.229328 -2.15181 0
M  V30 4841 C 483.343 -3.04484 -1.48576 0
M  V30 4842 C 481.902 -3.18713 -2.00248 0
M  V30 4843 C 481.049 -2.6383 -0.853766 0
M  V30 4844 H 484 -1.58685 -0.0221692 0
M  V30 4845 H 484.021 -2.98959 -2.3538 0
M  V30 4846 H 483.533 -3.81264 -0.725222 0
M  V30 4847 H 481.634 -2.46757 -2.79181 0
M  V30 4848 H 481.747 -4.25628 -2.1995 0
M  V30 4849 H 480.111 -2.21667 -1.25442 0
M  V30 4850 H 480.894 -3.43135 -0.106302 0
M  V30 4851 N 483.339 0.512053 -1.4905 0
M  V30 4852 C 484.755 0.84224 -1.35567 0
M  V30 4853 C 484.955 1.97878 -0.380319 0
M  V30 4854 O 484.011 2.51769 0.19201 0
M  V30 4855 C 485.324 1.19286 -2.76028 0
M  V30 4856 C 486.872 1.30171 -2.84648 0
M  V30 4857 C 487.347 1.68568 -4.25851 0
M  V30 4858 N 488.838 1.75638 -4.28609 0
M  V30 4859 C 489.573 2.06769 -5.34821 0
M  V30 4860 N 489.069 2.36201 -6.51292 0
M  V30 4861 N 490.862 2.07927 -5.22229 0
M  V30 4862 H 483.013 -0.237574 -2.11067 0
M  V30 4863 H 485.276 -0.0436747 -0.946993 0
M  V30 4864 H 484.982 0.431199 -3.49047 0
M  V30 4865 H 484.856 2.13889 -3.10695 0
M  V30 4866 H 487.243 2.05411 -2.11873 0
M  V30 4867 H 487.324 0.336457 -2.53578 0
M  V30 4868 H 486.968 0.938824 -4.99148 0
M  V30 4869 H 486.898 2.66174 -4.54377 0
M  V30 4870 H 489.389 1.55097 -3.44606 0
M  V30 4871 H 489.702 2.59112 -7.28066 0
M  V30 4872 H 488.047 2.33681 -6.54536 0
M  V30 4873 H 491.238 1.84403 -4.30248 0
M  V30 4874 H 491.411 2.31856 -6.05101 0
M  V30 4875 N 484.817 1.37938 0.762283 0
M  V30 4876 C 485.767 1.30976 1.86626 0
M  V30 4877 C 486.751 0.195714 1.59705 0
M  V30 4878 O 487.943 0.430937 1.71674 0
M  V30 4879 C 485.072 1.12847 3.24223 0
M  V30 4880 C 484.158 2.28836 3.57064 0
M  V30 4881 N 484.549 3.54256 3.61022 0
M  V30 4882 C 482.847 2.21198 3.87282 0
M  V30 4883 C 483.548 4.30798 3.90881 0
M  V30 4884 N 482.524 3.60049 4.07266 0
M  V30 4885 H 486.326 2.25946 1.87951 0
M  V30 4886 H 483.84 1.31046 0.959206 0
M  V30 4887 H 485.837 1.05943 4.03214 0
M  V30 4888 H 484.497 0.188024 3.24155 0
M  V30 4889 H 485.508 3.8804 3.42995 0
M  V30 4890 H 482.185 1.35264 3.94981 0
M  V30 4891 H 483.575 5.39386 4.00639 0
M  V30 4892 N 486.295 -0.989507 1.22664 0
M  V30 4893 C 487.706 -1.54406 1.04955 0
M  V30 4894 C 488.057 -1.92366 -0.385951 0
M  V30 4895 O 487.182 -1.75111 -1.27142 0
M  V30 4896 C 487.777 -2.80578 1.89899 0
M  V30 4897 C 486.336 -3.32464 1.76478 0
M  V30 4898 C 485.483 -2.05524 1.86159 0
M  V30 4899 H 488.434 -0.810211 1.3646 0
M  V30 4900 H 488.455 -3.53075 1.4184 0
M  V30 4901 H 487.967 -2.52918 2.94371 0
M  V30 4902 H 486.068 -3.65024 0.747528 0
M  V30 4903 H 486.181 -4.02838 2.59342 0
M  V30 4904 H 484.545 -2.19241 1.29636 0
M  V30 4905 H 485.328 -1.80258 2.92168 0
M  V30 4906 N 487.773 -1.03688 -1.18687 0
M  V30 4907 C 488.736 -0.629115 -2.20397 0
M  V30 4908 C 489.736 0.311495 -1.57754 0
M  V30 4909 O 490.926 0.0974107 -1.73927 0
M  V30 4910 C 488.058 0.0782231 -3.4081 0
M  V30 4911 H 489.251 -1.52915 -2.57987 0
M  V30 4912 H 486.804 -0.828988 -1.32505 0
M  V30 4913 H 487.539 0.992233 -3.08748 0
M  V30 4914 H 487.324 -0.597776 -3.87517 0
M  V30 4915 H 488.814 0.350156 -4.16129 0
M  V30 4916 N 489.251 1.34841 -0.815825 0
M  V30 4917 C 490.199 2.31549 -0.220888 0
M  V30 4918 C 491.193 1.5707 0.634457 0
M  V30 4919 O 492.399 1.72125 0.526589 0
M  V30 4920 H 488.774 0.750153 -0.0526782 0
M  V30 4921 H 490.745 2.7926 -1.05149 0
M  V30 4922 C 489.494 3.42335 0.608427 0
M  V30 4923 H 488.817 3.9978 -0.0404121 0
M  V30 4924 H 490.257 4.12258 0.990931 0
M  V30 4925 C 488.716 2.86173 1.77782 0
M  V30 4926 O 489.246 2.80474 2.87571 0
M  V30 4927 N 487.452 2.43093 1.59229 0
M  V30 4928 H 486.999 2.47928 0.699237 0
M  V30 4929 H 486.957 2.05866 2.37627 0
M  V30 4930 N 490.729 0.570148 1.46925 0
M  V30 4931 C 491.977 0.0508523 2.02036 0
M  V30 4932 C 492.298 -1.30885 1.44548 0
M  V30 4933 O 491.568 -1.85647 0.625453 0
M  V30 4934 H 490.148 0.0158088 0.746833 0
M  V30 4935 H 492.81 0.743086 1.80178 0
M  V30 4936 H 491.906 -0.027575 3.12088 0
M  V30 4937 N 492.207 -1.54576 0.307264 0
M  V30 4938 C 493.139 -2.21212 -0.599807 0
M  V30 4939 C 494.152 -1.20685 -1.09266 0
M  V30 4940 O 495.341 -1.47244 -1.00903 0
M  V30 4941 C 492.441 -2.84994 -1.83389 0
M  V30 4942 C 491.614 -4.11511 -1.48248 0
M  V30 4943 C 490.673 -4.59038 -2.57237 0
M  V30 4944 O 489.699 -5.24095 -2.22065 0
M  V30 4945 N 490.901 -4.31884 -3.87887 0
M  V30 4946 H 493.666 -2.99686 -0.0293075 0
M  V30 4947 H 491.227 -1.61379 0.129738 0
M  V30 4948 H 493.219 -3.1372 -2.5566 0
M  V30 4949 H 491.789 -2.10324 -2.31263 0
M  V30 4950 H 491.009 -3.89728 -0.592122 0
M  V30 4951 H 492.297 -4.93879 -1.22316 0
M  V30 4952 H 491.695 -3.79778 -4.19268 0
M  V30 4953 H 490.252 -4.65304 -4.56438 0
M  V30 4954 N 493.685 -0.035106 -1.57561 0
M  V30 4955 C 494.933 0.64096 -1.91667 0
M  V30 4956 C 495.254 1.72323 -0.912681 0
M  V30 4957 O 494.524 1.95849 0.0449089 0
M  V30 4958 H 493.104 0.239743 -0.707483 0
M  V30 4959 H 495.766 -0.084321 -1.94718 0
M  V30 4960 H 494.862 1.08987 -2.92452 0
M  V30 4961 N 495.163 1.55791 0.238111 0
M  V30 4962 C 496.579 1.48411 0.587045 0
M  V30 4963 C 496.779 0.72702 1.87927 0
M  V30 4964 O 495.835 0.259942 2.51158 0
M  V30 4965 C 497.148 2.92873 0.681623 0
M  V30 4966 C 498.696 3.03295 0.773363 0
M  V30 4967 C 499.171 4.49082 0.899428 0
M  V30 4968 N 500.662 4.53056 0.964075 0
M  V30 4969 C 501.397 5.63117 1.08104 0
M  V30 4970 N 500.893 6.82969 1.16299 0
M  V30 4971 N 502.686 5.50933 1.11488 0
M  V30 4972 H 494.837 2.0345 -0.610076 0
M  V30 4973 H 497.1 0.924034 -0.211813 0
M  V30 4974 H 496.806 3.51142 -0.19802 0
M  V30 4975 H 496.68 3.43851 1.55069 0
M  V30 4976 H 499.067 2.45101 1.64346 0
M  V30 4977 H 499.148 2.55513 -0.121034 0
M  V30 4978 H 498.792 5.07889 0.0338586 0
M  V30 4979 H 498.722 4.94553 1.809 0
M  V30 4980 H 501.213 3.66737 0.91173 0
M  V30 4981 H 501.526 7.62598 1.25155 0
M  V30 4982 H 499.871 6.85712 1.13241 0
M  V30 4983 H 503.062 4.56231 1.0474 0
M  V30 4984 H 503.235 6.36743 1.20259 0
M  V30 4985 N 496.642 -0.504142 1.49319 0
M  V30 4986 C 497.89 -1.25598 1.58334 0
M  V30 4987 C 498.211 -1.93114 0.270538 0
M  V30 4988 O 497.481 -1.82585 -0.709891 0
M  V30 4989 H 496.061 -0.466571 0.58337 0
M  V30 4990 H 498.723 -0.584547 1.85928 0
M  V30 4991 H 497.819 -2.02159 2.37778 0
M  V30 4992 N 498.12 -1.38341 -0.754957 0
M  V30 4993 C 499.03 -1.3769 -1.89944 0
M  V30 4994 C 500.046 -0.274194 -1.71826 0
M  V30 4995 O 501.222 -0.512391 -1.94773 0
M  V30 4996 C 498.287 -1.19938 -3.25293 0
M  V30 4997 C 497.348 -2.40001 -3.55946 0
M  V30 4998 C 496.581 -2.23087 -4.84838 0
M  V30 4999 O 496.804 -1.22386 -5.57116 0
M  V30 5000 O 495.738 -3.11646 -5.14937 0
M  V30 5001 H 499.564 -2.3412 -1.93446 0
M  V30 5002 H 497.149 -1.19246 -0.900044 0
M  V30 5003 H 499.031 -1.12093 -4.06218 0
M  V30 5004 H 497.706 -0.265919 -3.22606 0
M  V30 5005 H 496.613 -2.53421 -2.75188 0
M  V30 5006 H 497.946 -3.31973 -3.63394 0
M  V30 5007 N 499.598 0.982988 -1.23187 0
M  V30 5008 C 501.014 1.2487 -0.993967 0
M  V30 5009 C 501.214 1.99155 0.306498 0
M  V30 5010 O 500.27 2.30688 1.0266 0
M  V30 5011 C 501.583 2.05078 -2.19917 0
M  V30 5012 C 503.131 2.18227 -2.2438 0
M  V30 5013 C 503.606 3.01825 -3.44479 0
M  V30 5014 N 505.097 3.09411 -3.44702 0
M  V30 5015 C 505.832 3.74412 -4.34285 0
M  V30 5016 N 505.328 4.41259 -5.341 0
M  V30 5017 N 507.121 3.71273 -4.22035 0
M  V30 5018 H 499.272 0.485253 -2.06783 0
M  V30 5019 H 501.535 0.276979 -0.906635 0
M  V30 5020 H 501.241 1.57867 -3.14279 0
M  V30 5021 H 501.115 3.05829 -2.2079 0
M  V30 5022 H 503.502 2.64648 -1.30559 0
M  V30 5023 H 503.583 1.16873 -2.2754 0
M  V30 5024 H 503.227 2.56102 -4.38605 0
M  V30 5025 H 503.157 4.03342 -3.38559 0
M  V30 5026 H 505.648 2.61845 -2.7248 0
M  V30 5027 H 505.961 4.88629 -5.98717 0
M  V30 5028 H 504.306 4.39975 -5.38002 0
M  V30 5029 H 507.497 3.18217 -3.43301 0
M  V30 5030 H 507.67 4.21649 -4.92053 0
M  V30 5031 N 501.076 1.04316 1.18135 0
M  V30 5032 C 502.304 0.768117 1.92113 0
M  V30 5033 C 502.719 -0.675057 1.76319 0
M  V30 5034 O 502.076 -1.46038 1.09449 0
M  V30 5035 C 502.127 1.12808 3.43448 0
M  V30 5036 O 501.848 2.5146 3.58747 0
M  V30 5037 C 503.349 0.8779 4.3452 0
M  V30 5038 H 500.569 0.279937 0.609817 0
M  V30 5039 H 503.113 1.39149 1.49859 0
M  V30 5040 H 501.268 0.549623 3.83481 0
M  V30 5041 H 501.682 2.65313 4.52448 0
M  V30 5042 H 503.156 1.17959 5.39249 0
M  V30 5043 H 503.633 -0.187239 4.38801 0
M  V30 5044 H 504.239 1.43977 4.00188 0
M  V30 5045 N 502.554 -1.34406 0.822964 0
M  V30 5046 C 503.502 -2.31428 0.233165 0
M  V30 5047 C 504.496 -1.57404 -0.626118 0
M  V30 5048 O 505.702 -1.72402 -0.517453 0
M  V30 5049 H 502.077 -0.749863 0.0566557 0
M  V30 5050 H 504.048 -2.78699 1.06628 0
M  V30 5051 C 502.797 -3.42653 -0.590264 0
M  V30 5052 H 502.12 -3.99753 0.0616129 0
M  V30 5053 H 503.56 -4.12778 -0.969054 0
M  V30 5054 C 502.019 -2.87112 -1.76262 0
M  V30 5055 O 502.549 -2.81995 -2.8608 0
M  V30 5056 N 500.755 -2.43934 -1.57938 0
M  V30 5057 H 500.302 -2.48296 -0.686078 0
M  V30 5058 H 500.26 -2.07123 -2.36532 0
M  V30 5059 N 504.032 -0.577932 -1.46621 0
M  V30 5060 C 504.962 0.145917 -2.33044 0
M  V30 5061 C 505.943 0.888412 -1.45056 0
M  V30 5062 O 507.128 0.864812 -1.73881 0
M  V30 5063 C 504.258 1.16322 -3.27241 0
M  V30 5064 C 503.212 0.535868 -4.24632 0
M  V30 5065 C 502.538 1.65929 -5.08303 0
M  V30 5066 C 503.838 -0.523861 -5.19666 0
M  V30 5067 H 505.532 -0.575636 -2.93814 0
M  V30 5068 H 503.078 -0.278272 -1.41286 0
M  V30 5069 H 505.031 1.67793 -3.86553 0
M  V30 5070 H 503.755 1.91498 -2.64567 0
M  V30 5071 H 502.414 0.0422759 -3.66576 0
M  V30 5072 H 502.062 2.40061 -4.42018 0
M  V30 5073 H 501.762 1.2452 -5.74255 0
M  V30 5074 H 503.286 2.17686 -5.70478 0
M  V30 5075 H 504.7 -0.0944059 -5.73222 0
M  V30 5076 H 503.097 -0.858 -5.93935 0
M  V30 5077 H 504.167 -1.41197 -4.63887 0
M  V30 5078 N 505.51 1.54411 -0.315457 0
M  V30 5079 C 506.787 1.92562 0.343398 0
M  V30 5080 C 507.167 1.24423 1.70535 0
M  V30 5081 O 506.515 0.385051 2.25232 0
M  V30 5082 C 506.725 3.46168 0.443687 0
M  V30 5083 C 508.073 4.18659 0.707783 0
M  V30 5084 O 509.097 3.52281 0.52693 0
M  V30 5085 O 507.956 5.36198 1.05612 0
M  V30 5086 H 505.05 0.80379 0.194552 0
M  V30 5087 H 507.596 1.65738 -0.364577 0
M  V30 5088 H 506.368 3.8792 -0.513172 0
M  V30 5089 H 505.991 3.79073 1.19956 0
M  V30 5090 N 506.988 0.0434614 1.5754 0
M  V30 5091 C 508.404 -0.313039 1.565 0
M  V30 5092 C 508.604 -1.71954 1.05043 0
M  V30 5093 O 507.66 -2.425 0.703564 0
M  V30 5094 C 508.973 -0.148544 3.00333 0
M  V30 5095 C 510.521 -0.220231 3.12224 0
M  V30 5096 C 510.996 -0.0843565 4.57922 0
M  V30 5097 N 512.487 -0.140881 4.62986 0
M  V30 5098 C 513.222 -0.0597443 5.73369 0
M  V30 5099 N 512.718 0.0733004 6.92761 0
M  V30 5100 N 514.511 -0.11477 5.61983 0
M  V30 5101 H 506.662 0.96303 1.89313 0
M  V30 5102 H 508.925 0.373164 0.871466 0
M  V30 5103 H 508.631 0.820894 3.41986 0
M  V30 5104 H 508.505 -0.912798 3.65989 0
M  V30 5105 H 510.892 -1.18014 2.70475 0
M  V30 5106 H 510.973 0.574646 2.49262 0
M  V30 5107 H 510.617 0.872192 5.00355 0
M  V30 5108 H 510.547 -0.898281 5.18882 0
M  V30 5109 H 513.038 -0.243273 3.77116 0
M  V30 5110 H 513.351 0.128128 7.72694 0
M  V30 5111 H 511.696 0.10828 6.94916 0
M  V30 5112 H 514.887 -0.217212 4.67596 0
M  V30 5113 H 515.06 -0.0480779 6.47982 0
M  V30 5114 N 508.466 -1.55915 -0.229846 0
M  V30 5115 C 509.396 -1.94754 -1.28815 0
M  V30 5116 C 510.377 -0.814657 -1.49323 0
M  V30 5117 O 511.562 -1.07631 -1.61645 0
M  V30 5118 C 508.692 -2.25705 -2.63959 0
M  V30 5119 C 507.646 -3.41406 -2.5812 0
M  V30 5120 C 506.972 -3.57941 -3.97218 0
M  V30 5121 C 508.272 -4.76616 -2.13623 0
M  V30 5122 H 509.966 -2.83404 -0.965547 0
M  V30 5123 H 507.512 -1.36353 -0.463028 0
M  V30 5124 H 509.465 -2.51467 -3.38146 0
M  V30 5125 H 508.189 -1.339 -2.9789 0
M  V30 5126 H 506.848 -3.1568 -1.86391 0
M  V30 5127 H 506.496 -2.63526 -4.28443 0
M  V30 5128 H 506.196 -4.35757 -3.94195 0
M  V30 5129 H 507.72 -3.86042 -4.73079 0
M  V30 5130 H 509.134 -5.01637 -2.77549 0
M  V30 5131 H 507.531 -5.57655 -2.21677 0
M  V30 5132 H 508.601 -4.7253 -1.08829 0
M  V30 5133 N 509.944 0.496216 -1.49584 0
M  V30 5134 C 510.891 1.59722 -1.66606 0
M  V30 5135 C 511.861 1.58158 -0.507477 0
M  V30 5136 O 513.046 1.76072 -0.735076 0
M  V30 5137 C 510.186 2.97844 -1.74308 0
M  V30 5138 C 509.299 3.09388 -3.01502 0
M  V30 5139 C 508.434 4.38271 -3.00153 0
M  V30 5140 C 507.473 4.43466 -4.21906 0
M  V30 5141 N 506.61 5.63784 -4.1844 0
M  V30 5142 H 511.45 1.44515 -2.60613 0
M  V30 5143 H 508.987 0.703048 -1.29212 0
M  V30 5144 H 510.945 3.77907 -1.76754 0
M  V30 5145 H 509.575 3.11743 -0.837619 0
M  V30 5146 H 508.627 2.22357 -3.08645 0
M  V30 5147 H 509.939 3.09085 -3.91494 0
M  V30 5148 H 509.093 5.2666 -3.01188 0
M  V30 5149 H 507.832 4.41146 -2.07947 0
M  V30 5150 H 506.837 3.53478 -4.21109 0
M  V30 5151 H 508.062 4.42303 -5.1531 0
M  V30 5152 H 506.008 5.67491 -3.29074 0
M  V30 5153 H 505.925 5.65118 -5.02173 0
M  V30 5154 H 507.193 6.54367 -4.23585 0
M  V30 5155 N 511.423 1.38739 0.74761 0
M  V30 5156 C 512.671 1.35007 1.50391 0
M  V30 5157 C 512.992 -0.0574274 1.94915 0
M  V30 5158 O 512.262 -1.00628 1.6808 0
M  V30 5159 H 510.842 0.496784 0.557866 0
M  V30 5160 H 513.504 1.73479 0.888319 0
M  V30 5161 H 512.6 2.00474 2.392 0
M  V30 5162 N 512.901 -0.976442 1.23707 0
M  V30 5163 C 513.831 -2.08749 1.04624 0
M  V30 5164 C 514.812 -1.70057 -0.0380956 0
M  V30 5165 O 515.997 -1.93782 0.127308 0
M  V30 5166 C 513.127 -3.41335 0.640902 0
M  V30 5167 C 512.081 -3.93947 1.67302 0
M  V30 5168 C 511.407 -5.22774 1.12301 0
M  V30 5169 C 512.707 -4.22769 3.06697 0
M  V30 5170 H 514.401 -2.24972 1.97555 0
M  V30 5171 H 511.947 -1.08108 0.951247 0
M  V30 5172 H 513.9 -4.18489 0.494434 0
M  V30 5173 H 512.624 -3.24988 -0.324099 0
M  V30 5174 H 511.283 -3.18941 1.80755 0
M  V30 5175 H 510.931 -5.0278 0.148877 0
M  V30 5176 H 510.631 -5.58942 1.81267 0
M  V30 5177 H 512.155 -6.02546 0.988479 0
M  V30 5178 H 513.569 -4.90659 2.96524 0
M  V30 5179 H 511.966 -4.70147 3.72937 0
M  V30 5180 H 513.036 -3.29885 3.55392 0
M  V30 5181 N 514.379 -1.04941 -1.1758 0
M  V30 5182 C 515.342 -0.652456 -2.19717 0
M  V30 5183 C 516.342 0.294745 -1.58076 0
M  V30 5184 O 517.532 0.0789579 -1.74021 0
M  V30 5185 C 514.664 0.0420712 -3.40874 0
M  V30 5186 H 515.857 -1.55642 -2.5635 0
M  V30 5187 H 513.41 -0.842995 -1.31618 0
M  V30 5188 H 514.145 0.95943 -3.09783 0
M  V30 5189 H 513.93 -0.638844 -3.86861 0
M  V30 5190 H 515.42 0.306 -4.16477 0
M  V30 5191 N 515.857 1.33968 -0.830081 0
M  V30 5192 C 517.134 1.92554 -0.343858 0
M  V30 5193 C 517.514 1.7573 1.16971 0
M  V30 5194 O 516.862 1.14035 1.98011 0
M  V30 5195 C 517.072 3.40147 -0.781073 0
M  V30 5196 C 518.42 4.17299 -0.78402 0
M  V30 5197 O 519.444 3.48762 -0.724112 0
M  V30 5198 O 518.303 5.39631 -0.863739 0
M  V30 5199 H 515.397 0.821469 -0.0954827 0
M  V30 5200 H 517.943 1.42897 -0.915348 0
M  V30 5201 H 516.715 3.46225 -1.82329 0
M  V30 5202 H 516.338 3.97166 -0.18567 0
M  V30 5203 N 517.335 0.585699 1.46312 0
M  V30 5204 C 518.583 0.072278 2.01971 0
M  V30 5205 C 518.904 -1.29345 1.45928 0
M  V30 5206 O 518.174 -1.84973 0.645109 0
M  V30 5207 H 516.754 0.023729 0.746623 0
M  V30 5208 H 519.416 0.762155 1.7938 0
M  V30 5209 H 518.512 0.00552767 3.121 0
M  V30 5210 N 518.813 -1.54241 0.323641 0
M  V30 5211 C 519.746 -2.20579 -0.584833 0
M  V30 5212 C 520.724 -1.18286 -1.11567 0
M  V30 5213 O 521.908 -1.47025 -1.17966 0
M  V30 5214 C 519.035 -2.86754 -1.80249 0
M  V30 5215 C 518.081 -4.02767 -1.4029 0
M  V30 5216 S 518.914 -5.33693 -0.439539 0
M  V30 5217 C 520.07 -6.03362 -1.66448 0
M  V30 5218 H 520.303 -2.97292 -0.0213238 0
M  V30 5219 H 517.836 -1.54024 0.107726 0
M  V30 5220 H 519.794 -3.25503 -2.50116 0
M  V30 5221 H 518.455 -2.09844 -2.33719 0
M  V30 5222 H 517.648 -4.47933 -2.31024 0
M  V30 5223 H 517.25 -3.65692 -0.783928 0
M  V30 5224 H 519.542 -6.25546 -2.6019 0
M  V30 5225 H 520.485 -6.9689 -1.25498 0
M  V30 5226 H 520.893 -5.33273 -1.85149 0
M  V30 5227 N 520.291 -0.0518155 -1.57515 0
M  V30 5228 C 521.537 0.622745 -1.93002 0
M  V30 5229 C 521.87 1.70456 -0.930499 0
M  V30 5230 O 521.145 1.94452 0.0434086 0
M  V30 5231 C 521.428 1.21824 -3.38867 0
M  V30 5232 C 521.281 0.144434 -4.49568 0
M  V30 5233 C 522.6 2.12968 -3.8514 0
M  V30 5234 H 519.719 0.22491 -0.701844 0
M  V30 5235 H 522.361 -0.113711 -1.89659 0
M  V30 5236 H 520.511 1.8459 -3.41846 0
M  V30 5237 H 522.183 -0.48753 -4.58717 0
M  V30 5238 H 520.426 -0.527424 -4.30582 0
M  V30 5239 H 521.097 0.601127 -5.48717 0
M  V30 5240 H 523.573 1.60163 -3.8404 0
M  V30 5241 H 522.449 2.51578 -4.87852 0
M  V30 5242 H 522.71 3.03004 -3.21934 0
M  V30 5243 N 521.769 1.56035 0.221574 0
M  V30 5244 C 523.017 1.78693 0.944102 0
M  V30 5245 C 523.338 0.620317 1.8487 0
M  V30 5246 O 522.608 -0.362784 1.92512 0
M  V30 5247 H 521.188 0.659082 0.351597 0
M  V30 5248 H 523.85 1.93497 0.233435 0
M  V30 5249 H 522.946 2.70837 1.55093 0
M  V30 5250 N 523.247 -0.488276 1.49845 0
M  V30 5251 C 524.195 -1.60917 1.67954 0
M  V30 5252 C 525.189 -1.6038 0.54539 0
M  V30 5253 O 526.395 -1.64736 0.7254 0
M  V30 5254 H 522.77 -0.533658 0.529824 0
M  V30 5255 H 524.741 -1.428 2.62013 0
M  V30 5256 C 523.49 -2.98975 1.77509 0
M  V30 5257 H 522.813 -3.00099 2.6416 0
M  V30 5258 H 524.253 -3.76906 1.9421 0
M  V30 5259 C 522.712 -3.3282 0.522745 0
M  V30 5260 O 523.242 -4.00208 -0.345866 0
M  V30 5261 N 521.448 -2.8808 0.381882 0
M  V30 5262 H 520.995 -2.33415 1.08974 0
M  V30 5263 H 520.953 -3.11091 -0.454929 0
M  V30 5264 N 524.725 -1.39134 -0.740242 0
M  V30 5265 C 526.136 -1.32208 -1.31825 0
M  V30 5266 C 526.487 0.0159919 -1.96193 0
M  V30 5267 O 525.612 0.918111 -1.95958 0
M  V30 5268 C 526.207 -2.39436 -2.39699 0
M  V30 5269 C 524.766 -2.36048 -2.93187 0
M  V30 5270 C 523.913 -2.21599 -1.66701 0
M  V30 5271 H 526.864 -1.49298 -0.538133 0
M  V30 5272 H 526.885 -2.05922 -3.19963 0
M  V30 5273 H 526.397 -3.36811 -1.92821 0
M  V30 5274 H 524.498 -1.42295 -3.44359 0
M  V30 5275 H 524.611 -3.30704 -3.46658 0
M  V30 5276 H 522.975 -1.68681 -1.90837 0
M  V30 5277 H 523.758 -3.20936 -1.21882 0
M  V30 5278 N 526.204 0.969867 -1.24223 0
M  V30 5279 C 527.136 2.0669 -0.99055 0
M  V30 5280 C 528.149 1.62753 0.0392222 0
M  V30 5281 O 529.338 1.77403 -0.197561 0
M  V30 5282 C 526.438 3.35589 -0.472594 0
M  V30 5283 C 525.611 4.08444 -1.56499 0
M  V30 5284 C 524.67 5.15616 -1.05007 0
M  V30 5285 O 523.696 5.41911 -1.7413 0
M  V30 5286 N 524.898 5.80383 0.116641 0
M  V30 5287 H 527.663 2.28855 -1.93508 0
M  V30 5288 H 525.224 1.13733 -1.15223 0
M  V30 5289 H 527.216 4.04542 -0.112919 0
M  V30 5290 H 525.786 3.10311 0.377617 0
M  V30 5291 H 525.006 3.33798 -2.09696 0
M  V30 5292 H 526.294 4.53882 -2.29932 0
M  V30 5293 H 525.692 5.6142 0.694589 0
M  V30 5294 H 524.249 6.50462 0.417483 0
M  V30 5295 N 527.682 1.05563 1.17022 0
M  V30 5296 C 528.93 0.76642 1.87004 0
M  V30 5297 C 529.251 -0.708854 1.8166 0
M  V30 5298 O 528.521 -1.51242 1.2451 0
M  V30 5299 H 527.101 0.280516 0.692329 0
M  V30 5300 H 529.763 1.33557 1.41945 0
M  V30 5301 H 528.859 1.08472 2.92644 0
M  V30 5302 N 529.16 -1.33526 0.837174 0
M  V30 5303 C 530.092 -2.28077 0.226579 0
M  V30 5304 C 531.105 -1.51666 -0.591717 0
M  V30 5305 O 532.294 -1.73511 -0.419064 0
M  V30 5306 C 529.394 -3.31597 -0.69978 0
M  V30 5307 C 528.567 -4.37329 0.0788067 0
M  V30 5308 C 527.626 -5.20526 -0.770637 0
M  V30 5309 O 526.652 -5.68811 -0.210453 0
M  V30 5310 N 527.854 -5.41639 -2.08825 0
M  V30 5311 H 530.619 -2.81115 1.03897 0
M  V30 5312 H 528.18 -1.46201 0.695476 0
M  V30 5313 H 530.172 -3.84158 -1.27298 0
M  V30 5314 H 528.742 -2.78848 -1.41288 0
M  V30 5315 H 527.962 -3.8529 0.833381 0
M  V30 5316 H 529.25 -5.05079 0.614238 0
M  V30 5317 H 528.648 -5.04108 -2.56693 0
M  V30 5318 H 527.205 -5.97263 -2.60998 0
M  V30 5319 N 530.638 -0.59345 -1.46 0
M  V30 5320 C 531.601 0.123538 -2.28867 0
M  V30 5321 C 532.601 0.808628 -1.38989 0
M  V30 5322 O 533.791 0.658945 -1.61256 0
M  V30 5323 C 530.923 1.1847 -3.19653 0
M  V30 5324 H 532.116 -0.604843 -2.93737 0
M  V30 5325 H 529.669 -0.351875 -1.52288 0
M  V30 5326 H 530.404 1.94431 -2.59552 0
M  V30 5327 H 530.189 0.69783 -3.8584 0
M  V30 5328 H 531.679 1.68726 -3.81997 0
M  V30 5329 N 532.116 1.54067 -0.331816 0
M  V30 5330 C 533.079 2.23275 0.517768 0
M  V30 5331 C 534.079 1.22897 1.03697 0
M  V30 5332 O 535.269 1.47419 0.928084 0
M  V30 5333 C 532.401 2.94326 1.72004 0
M  V30 5334 H 533.594 2.99773 -0.0873507 0
M  V30 5335 H 531.147 1.56079 -0.0830042 0
M  V30 5336 H 531.882 2.21986 2.36417 0
M  V30 5337 H 531.667 3.67941 1.35507 0
M  V30 5338 H 533.157 3.47031 2.32291 0
M  V30 5339 N 533.594 0.0601682 1.57485 0
M  V30 5340 C 534.524 -0.90889 2.15085 0
M  V30 5341 C 535.505 -1.31838 1.07484 0
M  V30 5342 O 536.69 -1.3915 1.35466 0
M  V30 5343 C 533.82 -2.18059 2.7031 0
M  V30 5344 C 532.774 -1.91088 3.82974 0
M  V30 5345 C 532.1 -3.24789 4.24754 0
M  V30 5346 C 533.4 -1.22535 5.07723 0
M  V30 5347 H 535.094 -0.429093 2.96309 0
M  V30 5348 H 532.64 -0.204952 1.42534 0
M  V30 5349 H 534.593 -2.86258 3.09248 0
M  V30 5350 H 533.317 -2.6826 1.8629 0
M  V30 5351 H 531.976 -1.25297 3.44523 0
M  V30 5352 H 531.624 -3.72809 3.37672 0
M  V30 5353 H 531.324 -3.07538 5.00694 0
M  V30 5354 H 532.848 -3.94205 4.66299 0
M  V30 5355 H 534.262 -1.80783 5.4405 0
M  V30 5356 H 532.659 -1.1558 5.88864 0
M  V30 5357 H 533.729 -0.202692 4.84476 0
M  V30 5358 N 535.072 -1.5615 -0.213296 0
M  V30 5359 C 536.002 -1.96109 -1.26742 0
M  V30 5360 C 536.983 -0.830448 -1.48451 0
M  V30 5361 O 538.168 -1.09339 -1.60495 0
M  V30 5362 C 535.298 -2.28492 -2.61551 0
M  V30 5363 C 534.252 -3.44124 -2.54485 0
M  V30 5364 C 533.578 -3.62134 -3.93399 0
M  V30 5365 C 534.878 -4.78855 -2.08556 0
M  V30 5366 H 536.572 -2.84412 -0.935434 0
M  V30 5367 H 534.118 -1.36836 -0.44854 0
M  V30 5368 H 536.071 -2.55039 -3.3546 0
M  V30 5369 H 534.795 -1.37052 -2.96453 0
M  V30 5370 H 533.454 -3.17639 -1.83033 0
M  V30 5371 H 533.102 -2.68055 -4.25623 0
M  V30 5372 H 532.802 -4.39913 -3.89551 0
M  V30 5373 H 534.326 -3.91038 -4.68958 0
M  V30 5374 H 535.74 -5.04552 -2.72213 0
M  V30 5375 H 534.137 -5.59975 -2.1575 0
M  V30 5376 H 535.207 -4.73657 -1.03811 0
M  V30 5377 N 536.55 0.480323 -1.50102 0
M  V30 5378 C 537.966 0.813295 -1.37323 0
M  V30 5379 C 538.166 1.97027 -0.422206 0
M  V30 5380 O 537.222 2.5212 0.138563 0
M  V30 5381 C 538.535 1.13404 -2.78496 0
M  V30 5382 C 540.083 1.24104 -2.87345 0
M  V30 5383 C 540.558 1.59497 -4.29331 0
M  V30 5384 N 542.049 1.66507 -4.32238 0
M  V30 5385 C 542.784 1.95378 -5.39087 0
M  V30 5386 N 542.28 2.22333 -6.56155 0
M  V30 5387 N 544.073 1.96803 -5.26522 0
M  V30 5388 H 536.224 -0.282291 -2.10516 0
M  V30 5389 H 538.487 -0.063752 -0.945854 0
M  V30 5390 H 538.193 0.357064 -3.49883 0
M  V30 5391 H 538.067 2.07251 -3.15162 0
M  V30 5392 H 540.454 2.00871 -2.16183 0
M  V30 5393 H 540.535 0.282593 -2.54234 0
M  V30 5394 H 540.179 0.832736 -5.01027 0
M  V30 5395 H 540.109 2.56477 -4.59921 0
M  V30 5396 H 542.6 1.47753 -3.47818 0
M  V30 5397 H 542.913 2.43611 -7.33399 0
M  V30 5398 H 541.258 2.19745 -6.59346 0
M  V30 5399 H 544.449 1.75235 -4.34062 0
M  V30 5400 H 544.622 2.18969 -6.09883 0
M  V30 5401 N 538.028 1.39524 0.732853 0
M  V30 5402 C 539.439 1.32905 1.31122 0
M  V30 5403 C 539.79 -0.00558708 1.96199 0
M  V30 5404 O 538.915 -0.907706 1.96443 0
M  V30 5405 C 539.51 2.40704 2.38426 0
M  V30 5406 C 538.069 2.37599 2.91931 0
M  V30 5407 C 537.216 2.2248 1.65523 0
M  V30 5408 H 540.167 1.49581 0.530207 0
M  V30 5409 H 540.188 2.07616 3.18867 0
M  V30 5410 H 539.7 3.37829 1.91033 0
M  V30 5411 H 537.801 1.44119 3.43599 0
M  V30 5412 H 537.914 3.32538 3.44899 0
M  V30 5413 H 536.278 1.69691 1.8994 0
M  V30 5414 H 537.061 3.21577 1.20178 0
M  V30 5415 N 539.506 -0.963266 1.24736 0
M  V30 5416 C 540.754 -1.70343 1.08755 0
M  V30 5417 C 541.075 -1.91387 -0.373619 0
M  V30 5418 O 540.345 -1.4948 -1.2662 0
M  V30 5419 H 538.925 -0.631224 0.399456 0
M  V30 5420 H 541.587 -1.15859 1.56725 0
M  V30 5421 H 540.683 -2.68616 1.58909 0
M  V30 5422 N 540.985 -1.06182 -1.16461 0
M  V30 5423 C 541.895 -0.682671 -2.24448 0
M  V30 5424 C 542.911 0.30078 -1.71381 0
M  V30 5425 O 544.087 0.150376 -2.00838 0
M  V30 5426 C 541.152 -0.0737202 -3.46622 0
M  V30 5427 C 540.213 -1.10889 -4.14731 0
M  V30 5428 C 539.446 -0.528908 -5.31073 0
M  V30 5429 O 539.669 0.65868 -5.66584 0
M  V30 5430 O 538.603 -1.26805 -5.88391 0
M  V30 5431 H 542.429 -1.58291 -2.59187 0
M  V30 5432 H 540.014 -0.834013 -1.23954 0
M  V30 5433 H 541.896 0.264192 -4.20571 0
M  V30 5434 H 540.571 0.800015 -3.13658 0
M  V30 5435 H 539.478 -1.49896 -3.42756 0
M  V30 5436 H 540.811 -1.95412 -4.51747 0
M  V30 5437 N 542.463 1.3308 -0.844243 0
M  V30 5438 C 543.393 2.3161 -0.296493 0
M  V30 5439 C 544.374 1.59215 0.598707 0
M  V30 5440 O 545.559 1.87077 0.521134 0
M  V30 5441 C 542.689 3.43313 0.524762 0
M  V30 5442 C 541.643 4.27115 -0.275106 0
M  V30 5443 C 540.969 5.30483 0.670236 0
M  V30 5444 C 542.269 5.00443 -1.49514 0
M  V30 5445 H 543.963 2.77672 -1.11976 0
M  V30 5446 H 541.509 1.33496 -0.539899 0
M  V30 5447 H 543.462 4.11273 0.918298 0
M  V30 5448 H 542.186 2.95952 1.3813 0
M  V30 5449 H 540.845 3.60787 -0.650267 0
M  V30 5450 H 540.493 4.79379 1.52332 0
M  V30 5451 H 540.193 5.87435 0.139123 0
M  V30 5452 H 541.717 6.01308 1.06117 0
M  V30 5453 H 543.131 5.61141 -1.17447 0
M  V30 5454 H 541.528 5.67071 -1.96343 0
M  V30 5455 H 542.598 4.28906 -2.26202 0
M  V30 5456 N 543.941 0.601185 1.45683 0
M  V30 5457 C 545.187 0.0940202 2.02582 0
M  V30 5458 C 545.52 -1.26972 1.46941 0
M  V30 5459 O 544.795 -1.83613 0.641612 0
M  V30 5460 C 545.078 0.0481715 3.60068 0
M  V30 5461 C 544.931 1.44212 4.26055 0
M  V30 5462 C 546.25 -0.642975 4.35378 0
M  V30 5463 H 543.369 0.0356404 0.736138 0
M  V30 5464 H 546.011 0.771929 1.73612 0
M  V30 5465 H 544.161 -0.529128 3.8488 0
M  V30 5466 H 545.833 2.06601 4.12449 0
M  V30 5467 H 544.076 2.00465 3.84703 0
M  V30 5468 H 544.747 1.36234 5.34925 0
M  V30 5469 H 547.223 -0.152351 4.15821 0
M  V30 5470 H 546.099 -0.644141 5.45107 0
M  V30 5471 H 546.36 -1.70785 4.0778 0
M  V30 5472 N 545.419 -1.53889 0.339982 0
M  V30 5473 C 546.382 -2.23547 -0.50592 0
M  V30 5474 C 547.382 -1.23445 -1.03044 0
M  V30 5475 O 548.572 -1.47909 -0.920253 0
M  V30 5476 C 545.704 -2.95234 -1.7044 0
M  V30 5477 H 546.897 -2.99722 0.103247 0
M  V30 5478 H 544.45 -1.56033 0.0912804 0
M  V30 5479 H 545.185 -2.23236 -2.35236 0
M  V30 5480 H 544.97 -3.68654 -1.33553 0
M  V30 5481 H 546.46 -3.48258 -2.30447 0
M  V30 5482 N 546.897 -0.0685191 -1.57451 0
M  V30 5483 C 548.146 0.600898 -1.92541 0
M  V30 5484 C 548.459 1.70967 -0.950239 0
M  V30 5485 O 549.665 2.43844 -1.19384 0
M  V30 5486 C 548.121 1.12019 -3.42023 0
M  V30 5487 C 547.729 0.0426028 -4.4798 0
M  V30 5488 C 549.473 1.76386 -3.86119 0
M  V30 5489 C 547.38 0.575759 -5.88591 0
M  V30 5490 H 546.31 0.228225 -0.71863 0
M  V30 5491 H 548.961 -0.140223 -1.82963 0
M  V30 5492 H 547.343 1.91418 -3.46663 0
M  V30 5493 H 548.517 -0.73182 -4.54952 0
M  V30 5494 H 546.832 -0.504642 -4.13331 0
M  V30 5495 H 549.429 2.17302 -4.88553 0
M  V30 5496 H 549.772 2.62255 -3.23308 0
M  V30 5497 H 550.305 1.03615 -3.84069 0
M  V30 5498 H 547.044 -0.245691 -6.55039 0
M  V30 5499 H 546.564 1.31778 -5.85145 0
M  V30 5500 H 548.243 1.0532 -6.3837 0
M  V30 5501 N 548.375 1.56261 0.205012 0
M  V30 5502 C 549.603 1.84141 0.943386 0
M  V30 5503 C 550.018 0.649772 1.77266 0
M  V30 5504 O 549.375 -0.381612 1.78466 0
M  V30 5505 C 549.426 3.10719 1.84759 0
M  V30 5506 O 549.147 4.25286 1.05181 0
M  V30 5507 C 550.648 3.51706 2.69848 0
M  V30 5508 H 547.868 0.611734 0.275721 0
M  V30 5509 H 550.412 2.03364 0.215253 0
M  V30 5510 H 548.567 2.93422 2.52947 0
M  V30 5511 H 548.981 4.97301 1.66709 0
M  V30 5512 H 550.455 4.43266 3.28967 0
M  V30 5513 H 550.932 2.7423 3.43067 0
M  V30 5514 H 551.538 3.71499 2.07047 0
M  V30 5515 N 549.853 -0.472356 1.50355 0
M  V30 5516 C 550.816 -1.5529 1.68576 0
M  V30 5517 C 551.816 -1.50863 0.556511 0
M  V30 5518 O 553.006 -1.53505 0.823516 0
M  V30 5519 C 550.138 -2.94921 1.70981 0
M  V30 5520 H 551.331 -1.40451 2.64978 0
M  V30 5521 H 548.884 -0.698645 1.39816 0
M  V30 5522 H 549.619 -3.15204 0.762675 0
M  V30 5523 H 549.404 -2.99541 2.53017 0
M  V30 5524 H 550.894 -3.73372 1.87037 0
M  V30 5525 N 551.331 -1.39911 -0.725443 0
M  V30 5526 C 552.556 -1.41137 -1.5197 0
M  V30 5527 C 552.981 -0.010262 -1.88097 0
M  V30 5528 O 552.339 0.979184 -1.52583 0
M  V30 5529 C 552.387 -2.2994 -2.77777 0
M  V30 5530 O 551.491 -1.73586 -3.74088 0
M  V30 5531 H 550.832 -0.480219 -0.458569 0
M  V30 5532 H 553.362 -1.84023 -0.894249 0
M  V30 5533 H 553.372 -2.44785 -3.26411 0
M  V30 5534 H 552.047 -3.31759 -2.50816 0
M  V30 5535 H 550.624 -1.68035 -3.32894 0
M  V30 5536 N 552.809 0.956637 -1.25245 0
M  V30 5537 C 553.772 2.03457 -1.05537 0
M  V30 5538 C 554.772 1.60798 -0.00886317 0
M  V30 5539 O 555.962 1.72384 -0.250865 0
M  V30 5540 C 553.094 3.35543 -0.601965 0
M  V30 5541 H 554.287 2.22372 -2.01223 0
M  V30 5542 H 551.84 1.13344 -1.07623 0
M  V30 5543 H 552.575 3.22323 0.357584 0
M  V30 5544 H 552.36 3.67854 -1.35743 0
M  V30 5545 H 553.85 4.14769 -0.485454 0
M  V30 5546 N 554.287 1.06798 1.15896 0
M  V30 5547 C 555.217 0.704677 2.22613 0
M  V30 5548 C 556.198 -0.305252 1.67339 0
M  V30 5549 O 557.383 -0.179247 1.93371 0
M  V30 5550 C 554.513 0.0957325 3.47168 0
M  V30 5551 C 553.467 1.0322 4.15367 0
M  V30 5552 C 552.793 0.286293 5.33933 0
M  V30 5553 C 554.093 2.36341 4.65768 0
M  V30 5554 H 555.787 1.59688 2.53259 0
M  V30 5555 H 553.333 0.769257 1.21731 0
M  V30 5556 H 555.286 -0.170333 4.21056 0
M  V30 5557 H 554.01 -0.831516 3.15838 0
M  V30 5558 H 552.669 1.28309 3.43413 0
M  V30 5559 H 552.317 -0.644237 4.98857 0
M  V30 5560 H 552.017 0.910436 5.80504 0
M  V30 5561 H 553.541 0.0278938 6.10594 0
M  V30 5562 H 554.955 2.1561 5.31211 0
M  V30 5563 H 553.352 2.94299 5.2298 0
M  V30 5564 H 554.422 2.99047 3.81705 0
M  V30 5565 N 555.766 -1.3263 0.851289 0
M  V30 5566 C 556.698 -2.27824 0.250757 0
M  V30 5567 C 557.711 -1.52285 -0.575598 0
M  V30 5568 O 558.9 -1.73946 -0.400638 0
M  V30 5569 C 556 -3.3232 -0.664571 0
M  V30 5570 C 555.173 -4.37221 0.125187 0
M  V30 5571 C 554.232 -5.21314 -0.715385 0
M  V30 5572 O 553.258 -5.69002 -0.150111 0
M  V30 5573 N 554.46 -5.43823 -2.03069 0
M  V30 5574 H 557.225 -2.79997 1.06873 0
M  V30 5575 H 554.786 -1.45455 0.710943 0
M  V30 5576 H 556.778 -3.85486 -1.23216 0
M  V30 5577 H 555.348 -2.80331 -1.38323 0
M  V30 5578 H 554.568 -3.84384 0.874199 0
M  V30 5579 H 555.856 -5.04399 0.667774 0
M  V30 5580 H 555.254 -5.06803 -2.51332 0
M  V30 5581 H 553.811 -5.99998 -2.54648 0
M  V30 5582 N 557.244 -0.608902 -1.45362 0
M  V30 5583 C 558.207 0.0992563 -2.28985 0
M  V30 5584 C 559.207 0.793841 -1.39838 0
M  V30 5585 O 560.397 0.641804 -1.61946 0
M  V30 5586 C 557.529 1.15073 -3.20891 0
M  V30 5587 H 558.722 -0.635964 -2.93079 0
M  V30 5588 H 556.275 -0.368007 -1.51906 0
M  V30 5589 H 557.01 1.91667 -2.616 0
M  V30 5590 H 556.795 0.656867 -3.86559 0
M  V30 5591 H 558.285 1.64665 -3.83765 0
M  V30 5592 N 558.722 1.53707 -0.348139 0
M  V30 5593 C 559.969 2.00988 0.246966 0
M  V30 5594 C 560.297 1.23586 1.50189 0
M  V30 5595 O 559.552 0.312817 1.93184 0
M  V30 5596 C 559.851 3.52292 0.602061 0
M  V30 5597 C 559.517 4.47453 -0.556509 0
M  V30 5598 C 558.179 4.73188 -0.874446 0
M  V30 5599 C 560.531 5.03851 -1.33354 0
M  V30 5600 C 557.859 5.52577 -1.9717 0
M  V30 5601 C 560.211 5.84437 -2.42108 0
M  V30 5602 C 558.875 6.08465 -2.74456 0
M  V30 5603 H 558.145 0.735469 0.0903712 0
M  V30 5604 H 560.792 1.85464 -0.477001 0
M  V30 5605 H 559.097 3.65672 1.40681 0
M  V30 5606 H 560.794 3.86337 1.07447 0
M  V30 5607 H 557.384 4.27558 -0.298652 0
M  V30 5608 H 561.568 4.8393 -1.10117 0
M  V30 5609 H 556.824 5.69418 -2.22651 0
M  V30 5610 H 560.998 6.27151 -3.02745 0
M  V30 5611 H 558.625 6.69768 -3.59604 0
M  V30 5612 N 560.2 0.0768682 1.57412 0
M  V30 5613 C 561.616 -0.279772 1.57129 0
M  V30 5614 C 561.816 -1.69688 1.08666 0
M  V30 5615 O 560.872 -2.40953 0.754843 0
M  V30 5616 C 562.185 -0.0848055 3.0058 0
M  V30 5617 C 563.733 -0.153954 3.12621 0
M  V30 5618 C 564.208 0.0127946 4.57998 0
M  V30 5619 N 565.699 -0.0426435 4.6318 0
M  V30 5620 C 566.434 0.0618892 5.73367 0
M  V30 5621 N 565.93 0.220229 6.9245 0
M  V30 5622 N 567.723 0.00446072 5.621 0
M  V30 5623 H 559.874 1.00297 1.87228 0
M  V30 5624 H 562.137 0.391565 0.863354 0
M  V30 5625 H 561.843 0.89325 3.40168 0
M  V30 5626 H 561.717 -0.834961 3.67843 0
M  V30 5627 H 564.104 -1.1225 2.72917 0
M  V30 5628 H 564.185 0.627389 2.47987 0
M  V30 5629 H 563.829 0.978128 4.98392 0
M  V30 5630 H 563.759 -0.788016 5.20671 0
M  V30 5631 H 566.25 -0.163226 3.77547 0
M  V30 5632 H 566.563 0.291999 7.72248 0
M  V30 5633 H 564.908 0.255658 6.9453 0
M  V30 5634 H 568.099 -0.117979 4.67951 0
M  V30 5635 H 568.272 0.0893796 6.47938 0
M  V30 5636 N 561.678 -1.56367 -0.196722 0
M  V30 5637 C 562.588 -1.97617 -1.2643 0
M  V30 5638 C 563.604 -0.883598 -1.49895 0
M  V30 5639 O 564.78 -1.18921 -1.62541 0
M  V30 5640 C 561.845 -2.30595 -2.58895 0
M  V30 5641 C 560.906 -3.53551 -2.43516 0
M  V30 5642 C 560.139 -3.84946 -3.69665 0
M  V30 5643 O 560.362 -3.17655 -4.73763 0
M  V30 5644 O 559.296 -4.78379 -3.65291 0
M  V30 5645 H 563.122 -2.88648 -0.944233 0
M  V30 5646 H 560.707 -1.43901 -0.401592 0
M  V30 5647 H 562.589 -2.52889 -3.37083 0
M  V30 5648 H 561.264 -1.42732 -2.90533 0
M  V30 5649 H 560.171 -3.36507 -1.63445 0
M  V30 5650 H 561.504 -4.41875 -2.16812 0
M  V30 5651 N 563.156 0.464375 -1.50603 0
M  V30 5652 C 564.402 1.21776 -1.62168 0
M  V30 5653 C 564.735 1.91476 -0.324154 0
M  V30 5654 O 564.01 1.8242 0.674782 0
M  V30 5655 C 564.293 2.25614 -2.80661 0
M  V30 5656 C 564.146 1.60175 -4.20314 0
M  V30 5657 C 565.465 3.26862 -2.94702 0
M  V30 5658 H 562.584 0.44137 -0.590222 0
M  V30 5659 H 565.226 0.510623 -1.8301 0
M  V30 5660 H 563.376 2.85923 -2.63021 0
M  V30 5661 H 565.048 1.03411 -4.4956 0
M  V30 5662 H 563.291 0.904697 -4.24261 0
M  V30 5663 H 563.962 2.35665 -4.99165 0
M  V30 5664 H 566.438 2.76582 -3.10872 0
M  V30 5665 H 565.314 3.96839 -3.79223 0
M  V30 5666 H 565.575 3.91382 -2.05603 0
M  V30 5667 N 564.634 1.40294 0.718013 0
M  V30 5668 C 565.597 1.4012 1.81381 0
M  V30 5669 C 566.597 0.295405 1.58063 0
M  V30 5670 O 567.787 0.554187 1.6515 0
M  V30 5671 C 564.919 1.19056 3.19435 0
M  V30 5672 H 566.112 2.37645 1.82933 0
M  V30 5673 H 563.665 1.26107 0.923405 0
M  V30 5674 H 564.4 0.222809 3.23534 0
M  V30 5675 H 564.185 1.99152 3.37758 0
M  V30 5676 H 565.675 1.21716 3.99468 0
M  V30 5677 N 566.112 -0.949982 1.2575 0
M  V30 5678 C 567.528 -1.22191 1.02672 0
M  V30 5679 C 567.728 -1.99898 -0.253588 0
M  V30 5680 O 566.784 -2.33329 -0.965076 0
M  V30 5681 C 568.097 -1.99175 2.25277 0
M  V30 5682 C 569.645 -2.12201 2.30087 0
M  V30 5683 C 570.12 -2.92586 3.5236 0
M  V30 5684 N 571.611 -3.00163 3.52784 0
M  V30 5685 C 572.346 -3.62766 4.44059 0
M  V30 5686 N 571.842 -4.26943 5.45611 0
M  V30 5687 N 573.635 -3.59953 4.3173 0
M  V30 5688 H 565.786 -0.430258 2.07996 0
M  V30 5689 H 568.049 -0.252844 0.91366 0
M  V30 5690 H 567.755 -1.49479 3.18354 0
M  V30 5691 H 567.629 -2.99868 2.28821 0
M  V30 5692 H 570.016 -2.61093 1.3753 0
M  V30 5693 H 570.097 -1.10799 2.30559 0
M  V30 5694 H 569.741 -2.44383 4.45241 0
M  V30 5695 H 569.671 -3.94224 3.49134 0
M  V30 5696 H 572.162 -2.54529 2.79327 0
M  V30 5697 H 572.475 -4.72583 6.11461 0
M  V30 5698 H 570.82 -4.25557 5.49478 0
M  V30 5699 H 574.011 -3.09003 3.51617 0
M  V30 5700 H 574.184 -4.08455 5.03059 0
M  V30 5701 N 567.59 -1.07411 -1.15328 0
M  V30 5702 C 568.52 -0.716472 -2.22236 0
M  V30 5703 C 569.501 0.296373 -1.67498 0
M  V30 5704 O 570.686 0.168989 -1.93463 0
M  V30 5705 C 567.816 -0.114142 -3.47112 0
M  V30 5706 C 566.77 -1.05421 -4.14814 0
M  V30 5707 C 566.096 -0.314604 -5.33774 0
M  V30 5708 C 567.396 -2.38808 -4.64508 0
M  V30 5709 H 569.09 -1.61029 -2.52408 0
M  V30 5710 H 566.636 -0.775702 -1.21321 0
M  V30 5711 H 568.589 0.148001 -4.2114 0
M  V30 5712 H 567.313 0.814755 -3.16274 0
M  V30 5713 H 565.972 -1.30128 -3.42728 0
M  V30 5714 H 565.62 0.617772 -4.99192 0
M  V30 5715 H 565.32 -0.941209 -5.80013 0
M  V30 5716 H 566.844 -0.0602747 -6.1057 0
M  V30 5717 H 568.258 -2.18424 -5.3006 0
M  V30 5718 H 566.655 -2.97069 -5.21412 0
M  V30 5719 H 567.725 -3.01067 -3.80114 0
M  V30 5720 N 569.068 1.32177 -0.85831 0
M  V30 5721 C 570.031 2.27086 -0.310588 0
M  V30 5722 C 571.031 1.51751 0.531806 0
M  V30 5723 O 572.221 1.70794 0.34279 0
M  V30 5724 C 569.353 3.36266 0.560179 0
M  V30 5725 H 570.546 2.77045 -1.1483 0
M  V30 5726 H 568.099 1.42911 -0.632942 0
M  V30 5727 H 568.834 2.9158 1.41956 0
M  V30 5728 H 568.619 3.92077 -0.0428473 0
M  V30 5729 H 570.109 4.06974 0.936056 0
M  V30 5730 N 570.547 0.616602 1.45037 0
M  V30 5731 C 571.457 -0.0985401 2.34393 0
M  V30 5732 C 572.473 -0.850971 1.51771 0
M  V30 5733 O 573.649 -0.806521 1.84546 0
M  V30 5734 C 570.714 -1.07748 3.29532 0
M  V30 5735 C 569.775 -0.326022 4.2806 0
M  V30 5736 C 569.008 -1.25833 5.18654 0
M  V30 5737 O 569.231 -2.49652 5.12864 0
M  V30 5738 O 568.165 -0.750512 5.97203 0
M  V30 5739 H 571.991 0.636016 2.96966 0
M  V30 5740 H 569.576 0.376832 1.44569 0
M  V30 5741 H 571.458 -1.64107 3.88133 0
M  V30 5742 H 570.133 -1.79291 2.69512 0
M  V30 5743 H 569.04 0.280253 3.73049 0
M  V30 5744 H 570.373 0.349091 4.9096 0
M  V30 5745 N 572.025 -1.5352 0.356285 0
M  V30 5746 C 573.436 -1.86282 -0.12492 0
M  V30 5747 C 573.787 -1.27717 -1.48939 0
M  V30 5748 O 572.912 -0.595614 -2.08042 0
M  V30 5749 C 573.507 -3.37995 -0.23345 0
M  V30 5750 C 572.066 -3.70588 -0.658899 0
M  V30 5751 C 571.213 -2.76581 0.199596 0
M  V30 5752 H 574.164 -1.47901 0.575423 0
M  V30 5753 H 574.185 -3.65475 -1.0587 0
M  V30 5754 H 573.697 -3.8059 0.759776 0
M  V30 5755 H 571.798 -3.33544 -1.66069 0
M  V30 5756 H 571.911 -4.77076 -0.439957 0
M  V30 5757 H 570.275 -2.52552 -0.330076 0
M  V30 5758 H 571.058 -3.22008 1.19019 0
M  V30 5759 N 573.503 -0.0852151 -1.57369 0
M  V30 5760 C 574.466 0.8627 -2.12344 0
M  V30 5761 C 575.466 1.21746 -1.05046 0
M  V30 5762 O 576.656 1.14852 -1.30976 0
M  V30 5763 C 573.788 2.1618 -2.63589 0
M  V30 5764 H 574.981 0.385511 -2.97412 0
M  V30 5765 H 572.534 0.163663 -1.55441 0
M  V30 5766 H 573.269 2.68406 -1.82013 0
M  V30 5767 H 573.054 1.91723 -3.4203 0
M  V30 5768 H 574.544 2.84011 -3.06149 0
M  V30 5769 N 574.981 1.5647 0.188427 0
M  V30 5770 C 576.229 1.80655 0.905986 0
M  V30 5771 C 576.55 0.659391 1.83513 0
M  V30 5772 O 575.82 -0.321868 1.93238 0
M  V30 5773 H 574.4 0.666391 0.337538 0
M  V30 5774 H 577.062 1.93949 0.192339 0
M  V30 5775 H 576.158 2.74066 1.49313 0
M  V30 5776 N 576.459 -0.456382 1.50847 0
M  V30 5777 C 577.87 -1.03685 1.55262 0
M  V30 5778 C 578.221 -1.92779 0.364771 0
M  V30 5779 O 577.346 -2.10043 -0.52068 0
M  V30 5780 C 577.941 -1.88718 2.81374 0
M  V30 5781 C 576.5 -2.41847 2.88422 0
M  V30 5782 C 575.647 -1.20564 2.49719 0
M  V30 5783 H 578.598 -0.238399 1.56899 0
M  V30 5784 H 578.619 -2.73957 2.6406 0
M  V30 5785 H 578.131 -1.23847 3.67809 0
M  V30 5786 H 576.232 -3.10228 2.06372 0
M  V30 5787 H 576.345 -2.75947 3.9165 0
M  V30 5788 H 574.709 -1.54504 2.02486 0
M  V30 5789 H 575.492 -0.573326 3.38479 0
M  V30 5790 N 577.937 -1.40673 -0.710563 0
M  V30 5791 C 579.183 -1.4043 -1.47142 0
M  V30 5792 C 579.538 -0.00781557 -1.92398 0
M  V30 5793 O 578.831 0.963535 -1.6561 0
M  V30 5794 C 579.025 -2.33253 -2.70791 0
M  V30 5795 C 578.854 -3.81789 -2.37629 0
M  V30 5796 C 577.624 -4.5057 -2.28724 0
M  V30 5797 C 579.822 -4.73152 -2.01572 0
M  V30 5798 N 577.804 -5.84312 -1.88289 0
M  V30 5799 C 579.175 -5.95728 -1.71778 0
M  V30 5800 C 581.23 -4.6094 -1.88252 0
M  V30 5801 C 579.933 -7.07454 -1.30003 0
M  V30 5802 C 581.959 -5.72613 -1.47881 0
M  V30 5803 C 581.321 -6.94278 -1.18987 0
M  V30 5804 H 577.42 -0.569115 -0.536314 0
M  V30 5805 H 580.004 -1.76425 -0.823547 0
M  V30 5806 H 578.175 -1.99378 -3.33321 0
M  V30 5807 H 579.907 -2.23833 -3.37166 0
M  V30 5808 H 576.662 -4.04315 -2.46629 0
M  V30 5809 H 577.086 -6.55153 -1.70596 0
M  V30 5810 H 581.728 -3.67389 -2.09249 0
M  V30 5811 H 579.446 -8.00884 -1.07749 0
M  V30 5812 H 583.032 -5.65161 -1.38145 0
M  V30 5813 H 581.912 -7.79222 -0.88219 0
M  V30 5814 N 579.415 0.9433 -1.26252 0
M  V30 5815 C 580.378 2.02326 -1.07689 0
M  V30 5816 C 581.378 1.60779 -0.0259174 0
M  V30 5817 O 582.568 1.72108 -0.269134 0
M  V30 5818 C 579.7 3.34886 -0.63752 0
M  V30 5819 H 580.893 2.20225 -2.0357 0
M  V30 5820 H 578.446 1.12197 -1.08819 0
M  V30 5821 H 579.181 3.22684 0.323377 0
M  V30 5822 H 578.966 3.66393 -1.39637 0
M  V30 5823 H 580.456 4.14231 -0.529418 0
M  V30 5824 N 580.893 1.08022 1.14757 0
M  V30 5825 C 582.17 0.720386 1.81851 0
M  V30 5826 C 582.55 -0.796375 1.95502 0
M  V30 5827 O 581.898 -1.71339 1.51179 0
M  V30 5828 C 582.108 1.44273 3.17783 0
M  V30 5829 C 583.456 1.59925 3.93331 0
M  V30 5830 O 584.48 1.40407 3.2736 0
M  V30 5831 O 583.339 1.92096 5.11626 0
M  V30 5832 H 580.433 0.257142 0.786007 0
M  V30 5833 H 582.979 1.18155 1.21809 0
M  V30 5834 H 581.751 2.47618 3.02987 0
M  V30 5835 H 581.374 0.97279 3.85516 0
M  V30 5836 N 582.371 -1.3172 0.865308 0
M  V30 5837 C 583.62 -1.96145 0.470098 0
M  V30 5838 C 583.933 -1.69182 -0.981674 0
M  V30 5839 O 585.139 -2.27431 -1.48281 0
M  V30 5840 C 583.595 -3.51129 0.789732 0
M  V30 5841 C 583.203 -3.86938 2.25795 0
M  V30 5842 C 584.947 -4.2197 0.462765 0
M  V30 5843 C 582.854 -5.35012 2.52024 0
M  V30 5844 H 581.784 -0.734105 0.172065 0
M  V30 5845 H 584.435 -1.49959 1.05757 0
M  V30 5846 H 582.817 -3.95781 0.131571 0
M  V30 5847 H 583.991 -3.5326 2.95879 0
M  V30 5848 H 582.306 -3.29149 2.55049 0
M  V30 5849 H 584.903 -5.30904 0.636019 0
M  V30 5850 H 585.246 -4.12005 -0.59645 0
M  V30 5851 H 585.779 -3.82936 1.07727 0
M  V30 5852 H 582.518 -5.50008 3.56611 0
M  V30 5853 H 582.038 -5.70058 1.8653 0
M  V30 5854 H 583.717 -6.0222 2.36515 0
M  V30 5855 N 583.85 -0.624285 -1.44708 0
M  V30 5856 C 585.077 -0.132919 -2.06473 0
M  V30 5857 C 585.493 1.18967 -1.46602 0
M  V30 5858 O 584.85 1.72824 -0.586341 0
M  V30 5859 C 584.901 -0.00465418 -3.615 0
M  V30 5860 O 584.622 -1.27494 -4.19138 0
M  V30 5861 C 586.123 0.516213 -4.40284 0
M  V30 5862 H 583.343 -0.0765201 -0.666623 0
M  V30 5863 H 585.887 -0.856751 -1.85688 0
M  V30 5864 H 584.042 0.669583 -3.8157 0
M  V30 5865 H 584.456 -1.11536 -5.12504 0
M  V30 5866 H 585.93 0.554994 -5.49203 0
M  V30 5867 H 586.407 1.5419 -4.11245 0
M  V30 5868 H 587.013 -0.124542 -4.25118 0
M  V30 5869 N 585.328 1.53329 -0.364422 0
M  V30 5870 C 586.26 2.23286 0.517293 0
M  V30 5871 C 587.273 1.24657 1.04711 0
M  V30 5872 O 588.462 1.50887 0.95369 0
M  V30 5873 C 585.562 2.91604 1.72685 0
M  V30 5874 C 584.735 4.1673 1.32873 0
M  V30 5875 C 583.794 4.68269 2.40022 0
M  V30 5876 O 582.82 5.31976 2.02461 0
M  V30 5877 N 584.022 4.45983 3.7159 0
M  V30 5878 H 586.787 2.99588 -0.0819391 0
M  V30 5879 H 584.348 1.60787 -0.189544 0
M  V30 5880 H 586.34 3.22992 2.4384 0
M  V30 5881 H 584.91 2.18763 2.23297 0
M  V30 5882 H 584.13 3.91657 0.447069 0
M  V30 5883 H 585.418 4.98078 1.03902 0
M  V30 5884 H 584.816 3.95077 4.04883 0
M  V30 5885 H 583.373 4.81924 4.38854 0
M  V30 5886 N 586.806 0.0935595 1.57322 0
M  V30 5887 C 588.054 -0.569383 1.93913 0
M  V30 5888 C 588.375 -1.68817 0.976009 0
M  V30 5889 O 587.645 -1.9588 0.0278099 0
M  V30 5890 H 586.225 -0.21332 0.715894 0
M  V30 5891 H 588.887 0.156531 1.9427 0
M  V30 5892 H 587.983 -0.980577 2.96296 0
M  V30 5893 N 588.284 -1.56567 -0.180126 0
M  V30 5894 C 589.695 -1.7126 -0.743422 0
M  V30 5895 C 590.046 -0.70263 -1.83187 0
M  V30 5896 O 589.171 0.137856 -2.1596 0
M  V30 5897 C 589.766 -3.10512 -1.35528 0
M  V30 5898 C 588.325 -3.26919 -1.8655 0
M  V30 5899 C 587.472 -2.67213 -0.741099 0
M  V30 5900 H 590.423 -1.58636 0.0451543 0
M  V30 5901 H 590.444 -3.08673 -2.22489 0
M  V30 5902 H 589.956 -3.83997 -0.562862 0
M  V30 5903 H 588.057 -2.58376 -2.68464 0
M  V30 5904 H 588.17 -4.34574 -2.01699 0
M  V30 5905 H 586.534 -2.26788 -1.15927 0
M  V30 5906 H 587.317 -3.43277 0.0393291 0
M  V30 5907 N 589.762 0.448376 -1.51087 0
M  V30 5908 C 590.987 1.22605 -1.6728 0
M  V30 5909 C 591.412 1.84524 -0.365045 0
M  V30 5910 O 590.77 1.6832 0.673642 0
M  V30 5911 C 590.818 2.29393 -2.78229 0
M  V30 5912 O 589.922 3.34608 -2.41063 0
M  V30 5913 H 589.263 0.359705 -0.558129 0
M  V30 5914 H 591.793 0.530903 -1.97592 0
M  V30 5915 H 591.803 2.74352 -3.01986 0
M  V30 5916 H 590.478 1.83701 -3.73131 0
M  V30 5917 H 589.055 2.95202 -2.27838 0
M  V30 5918 N 591.24 1.41047 0.703093 0
M  V30 5919 C 592.15 1.44645 1.84703 0
M  V30 5920 C 593.166 0.337778 1.7069 0
M  V30 5921 O 594.342 0.584327 1.92737 0
M  V30 5922 C 591.407 1.31928 3.20618 0
M  V30 5923 C 590.468 2.53047 3.46794 0
M  V30 5924 C 589.701 2.40927 4.76224 0
M  V30 5925 O 589.924 1.42978 5.5219 0
M  V30 5926 O 588.858 3.30543 5.03016 0
M  V30 5927 H 592.684 2.41139 1.84624 0
M  V30 5928 H 590.269 1.22504 0.855167 0
M  V30 5929 H 592.151 1.27092 4.01778 0
M  V30 5930 H 590.826 0.385469 3.21397 0
M  V30 5931 H 589.733 2.6346 2.65593 0
M  V30 5932 H 591.066 3.45231 3.50822 0
M  V30 5933 N 592.718 -0.936591 1.26751 0
M  V30 5934 C 593.943 -1.72288 1.15462 0
M  V30 5935 C 594.368 -1.85915 -0.285887 0
M  V30 5936 O 593.726 -1.35272 -1.20711 0
M  V30 5937 C 593.774 -3.10503 1.83359 0
M  V30 5938 O 592.878 -3.96745 1.1255 0
M  V30 5939 H 592.219 -0.52843 0.402067 0
M  V30 5940 H 594.749 -1.17271 1.67656 0
M  V30 5941 H 594.759 -3.60867 1.90365 0
M  V30 5942 H 593.434 -2.99901 2.88153 0
M  V30 5943 H 592.011 -3.55191 1.13551 0
M  V30 5944 N 594.196 -1.08629 -1.14182 0
M  V30 5945 C 595.443 -0.817345 -1.85272 0
M  V30 5946 C 595.771 0.656917 -1.83071 0
M  V30 5947 O 595.026 1.49897 -1.25815 0
M  V30 5948 C 595.325 -1.28734 -3.3341 0
M  V30 5949 C 594.991 -2.76981 -3.55798 0
M  V30 5950 C 593.653 -3.17469 -3.61617 0
M  V30 5951 C 596.005 -3.72605 -3.64438 0
M  V30 5952 C 593.333 -4.52371 -3.736 0
M  V30 5953 C 595.685 -5.07286 -3.77947 0
M  V30 5954 C 594.349 -5.47376 -3.82016 0
M  V30 5955 H 593.619 -0.299088 -0.677958 0
M  V30 5956 H 596.266 -1.35962 -1.34857 0
M  V30 5957 H 594.571 -0.664702 -3.8612 0
M  V30 5958 H 596.268 -1.05598 -3.86846 0
M  V30 5959 H 592.858 -2.44644 -3.51919 0
M  V30 5960 H 597.042 -3.42443 -3.5923 0
M  V30 5961 H 592.298 -4.82882 -3.75013 0
M  V30 5962 H 596.472 -5.81243 -3.83575 0
M  V30 5963 H 594.099 -6.51906 -3.91054 0
M  V30 5964 N 595.674 1.31259 -0.872281 0
M  V30 5965 C 596.92 1.96913 -0.485083 0
M  V30 5966 C 597.253 1.68774 0.960667 0
M  V30 5967 O 596.528 0.985495 1.67685 0
M  V30 5968 C 596.811 3.52299 -0.745502 0
M  V30 5969 C 596.664 3.90002 -2.24095 0
M  V30 5970 C 597.983 4.39582 -0.213516 0
M  V30 5971 H 595.102 0.715252 -0.177716 0
M  V30 5972 H 597.744 1.55347 -1.09395 0
M  V30 5973 H 595.894 3.87835 -0.227276 0
M  V30 5974 H 597.566 3.64555 -2.82661 0
M  V30 5975 H 595.809 3.38526 -2.71261 0
M  V30 5976 H 596.48 4.98352 -2.37381 0
M  V30 5977 H 598.956 4.10882 -0.656902 0
M  V30 5978 H 597.832 5.47251 -0.42516 0
M  V30 5979 H 598.093 4.33158 0.884666 0
M  V30 5980 N 597.152 0.631951 1.44375 0
M  V30 5981 C 598.429 0.067646 1.95483 0
M  V30 5982 C 598.809 -1.40683 1.57389 0
M  V30 5983 O 598.157 -2.12167 0.848375 0
M  V30 5984 C 598.367 0.291392 3.47781 0
M  V30 5985 C 599.715 0.185028 4.24197 0
M  V30 5986 O 600.739 0.222803 3.55503 0
M  V30 5987 O 599.598 0.0906642 5.46425 0
M  V30 5988 H 596.692 -0.0218379 0.826712 0
M  V30 5989 H 599.238 0.703711 1.54421 0
M  V30 5990 H 598.01 1.31449 3.68561 0
M  V30 5991 H 597.633 -0.378772 3.95792 0
M  V30 5992 N 598.631 -1.53133 0.372548 0
M  V30 5993 C 599.878 -2.01356 -0.214959 0
M  V30 5994 C 600.206 -1.2596 -1.48204 0
M  V30 5995 O 599.461 -0.343511 -1.92662 0
M  V30 5996 C 599.76 -3.53206 -0.545938 0
M  V30 5997 C 599.426 -4.46511 0.627624 0
M  V30 5998 C 598.088 -4.71737 0.949615 0
M  V30 5999 C 600.44 -5.01666 1.41353 0
M  V30 6000 C 597.768 -5.4937 2.05936 0
M  V30 6001 C 600.12 -5.80511 2.51375 0
M  V30 6002 C 598.784 -6.04022 2.84101 0
M  V30 6003 H 598.054 -0.736813 -0.078659 0
M  V30 6004 H 600.701 -1.84682 0.506447 0
M  V30 6005 H 599.006 -3.67864 -1.34845 0
M  V30 6006 H 600.703 -3.87997 -1.01287 0
M  V30 6007 H 597.293 -4.27029 0.366635 0
M  V30 6008 H 601.477 -4.82117 1.17802 0
M  V30 6009 H 596.733 -5.65803 2.31682 0
M  V30 6010 H 600.907 -6.22255 3.12684 0
M  V30 6011 H 598.534 -6.63962 3.70214 0
M  V30 6012 N 600.109 -0.101901 -1.5727 0
M  V30 6013 C 601.072 0.840129 -2.13247 0
M  V30 6014 C 602.072 1.20625 -1.06331 0
M  V30 6015 O 603.262 1.13456 -1.32186 0
M  V30 6016 C 600.394 2.13372 -2.65867 0
M  V30 6017 H 601.587 0.353945 -2.97804 0
M  V30 6018 H 599.14 0.147167 -1.55606 0
M  V30 6019 H 599.875 2.66461 -1.84849 0
M  V30 6020 H 599.66 1.88085 -3.44044 0
M  V30 6021 H 601.15 2.80748 -3.09145 0
M  V30 6022 N 601.587 1.56661 0.17182 0
M  V30 6023 C 602.535 1.97289 1.23207 0
M  V30 6024 C 603.529 0.861566 1.45854 0
M  V30 6025 O 604.735 1.04668 1.4644 0
M  V30 6026 H 601.11 0.627681 0.41415 0
M  V30 6027 H 603.081 2.85662 0.862542 0
M  V30 6028 C 601.83 2.34849 2.564 0
M  V30 6029 H 601.153 3.19903 2.39797 0
M  V30 6030 H 602.593 2.67121 3.29276 0
M  V30 6031 C 601.052 1.19172 3.15119 0
M  V30 6032 O 601.582 0.479113 3.98833 0
M  V30 6033 N 599.788 0.962415 2.74201 0
M  V30 6034 H 599.335 1.54365 2.06226 0
M  V30 6035 H 599.293 0.190272 3.13824 0
M  V30 6036 N 603.065 -0.440357 1.51323 0
M  V30 6037 C 604.481 -0.7766 1.39431 0
M  V30 6038 C 604.681 -1.95838 0.474296 0
M  V30 6039 O 603.737 -2.52398 -0.0716692 0
M  V30 6040 C 605.05 -1.05981 2.81405 0
M  V30 6041 C 606.598 -1.16442 2.90534 0
M  V30 6042 C 607.073 -1.48058 4.33408 0
M  V30 6043 N 608.564 -1.54988 4.36501 0
M  V30 6044 C 609.299 -1.81017 5.44078 0
M  V30 6045 N 608.795 -2.04858 6.61819 0
M  V30 6046 N 610.588 -1.82774 5.31554 0
M  V30 6047 H 602.739 0.338006 2.09693 0
M  V30 6048 H 605.002 0.0888072 0.943831 0
M  V30 6049 H 604.708 -0.264173 3.50706 0
M  V30 6050 H 604.582 -1.98822 3.20546 0
M  V30 6051 H 606.969 -1.95068 2.21432 0
M  V30 6052 H 607.05 -0.215088 2.54894 0
M  V30 6053 H 606.694 -0.699605 5.03059 0
M  V30 6054 H 606.624 -2.44192 4.66559 0
M  V30 6055 H 609.115 -1.38479 3.51613 0
M  V30 6056 H 609.428 -2.2408 7.396 0
M  V30 6057 H 607.773 -2.02187 6.6494 0
M  V30 6058 H 610.964 -1.63665 4.38556 0
M  V30 6059 H 611.137 -2.02722 6.15474 0
M  V30 6060 N 604.543 -1.41418 -0.695603 0
M  V30 6061 C 605.473 -1.46035 -1.82197 0
M  V30 6062 C 606.454 -0.319025 -1.67082 0
M  V30 6063 O 607.639 -0.530462 -1.86815 0
M  V30 6064 C 604.769 -1.34179 -3.20333 0
M  V30 6065 C 603.723 -2.46123 -3.50154 0
M  V30 6066 C 603.049 -2.19332 -4.87645 0
M  V30 6067 C 604.349 -3.88463 -3.49133 0
M  V30 6068 H 606.043 -2.40303 -1.78591 0
M  V30 6069 H 603.589 -1.15663 -0.857797 0
M  V30 6070 H 605.542 -1.36021 -3.98844 0
M  V30 6071 H 604.266 -0.363952 -3.24566 0
M  V30 6072 H 602.925 -2.43563 -2.73994 0
M  V30 6073 H 602.573 -1.19891 -4.88503 0
M  V30 6074 H 602.273 -2.94344 -5.08562 0
M  V30 6075 H 603.797 -2.22889 -5.68465 0
M  V30 6076 H 605.211 -3.92738 -4.17648 0
M  V30 6077 H 603.608 -4.63158 -3.81582 0
M  V30 6078 H 604.678 -4.16617 -2.48109 0
M  V30 6079 N 606.021 0.929856 -1.27246 0
M  V30 6080 C 607.27 1.67182 -1.12842 0
M  V30 6081 C 607.583 1.9287 0.325666 0
M  V30 6082 O 608.789 2.64999 0.590572 0
M  V30 6083 C 607.245 3.01097 -1.97151 0
M  V30 6084 C 606.853 2.83115 -3.47203 0
M  V30 6085 C 608.597 3.78907 -1.91389 0
M  V30 6086 C 606.504 4.12573 -4.23719 0
M  V30 6087 H 605.434 0.627064 -0.418697 0
M  V30 6088 H 608.085 1.0332 -1.51649 0
M  V30 6089 H 606.467 3.66004 -1.51186 0
M  V30 6090 H 607.641 2.26989 -4.01015 0
M  V30 6091 H 605.956 2.18736 -3.54321 0
M  V30 6092 H 608.553 4.74837 -2.45834 0
M  V30 6093 H 608.896 4.0674 -0.887047 0
M  V30 6094 H 609.429 3.20794 -2.35237 0
M  V30 6095 H 606.168 3.8992 -5.26918 0
M  V30 6096 H 605.688 4.68371 -3.74685 0
M  V30 6097 H 607.367 4.8095 -4.32777 0
M  V30 6098 N 607.499 1.09233 1.13605 0
M  V30 6099 C 608.446 0.729921 2.18954 0
M  V30 6100 C 609.416 -0.287916 1.63586 0
M  V30 6101 O 610.601 -0.170003 1.90041 0
M  V30 6102 C 607.741 0.154489 3.44754 0
M  V30 6103 C 606.854 1.22613 4.14234 0
M  V30 6104 C 605.989 0.613657 5.27644 0
M  V30 6105 C 605.028 1.66674 5.8897 0
M  V30 6106 N 604.165 1.07545 6.93814 0
M  V30 6107 H 609.005 1.63257 2.49302 0
M  V30 6108 H 606.542 0.815693 1.22413 0
M  V30 6109 H 608.5 -0.196923 4.16735 0
M  V30 6110 H 607.13 -0.711433 3.14863 0
M  V30 6111 H 606.182 1.69485 3.40557 0
M  V30 6112 H 607.494 2.0238 4.55899 0
M  V30 6113 H 606.648 0.210976 6.06333 0
M  V30 6114 H 605.387 -0.215584 4.87223 0
M  V30 6115 H 604.392 2.07899 5.08978 0
M  V30 6116 H 605.617 2.49861 6.31464 0
M  V30 6117 H 603.563 0.267451 6.55455 0
M  V30 6118 H 603.48 1.81011 7.3401 0
M  V30 6119 H 604.748 0.698906 7.7636 0
M  V30 6120 N 608.977 -1.30795 0.87923 0
M  V30 6121 C 609.94 -2.26563 0.346676 0
M  V30 6122 C 610.94 -1.52578 -0.507597 0
M  V30 6123 O 612.13 -1.71318 -0.315575 0
M  V30 6124 C 609.262 -3.37115 -0.506611 0
M  V30 6125 H 610.455 -2.75183 1.19223 0
M  V30 6126 H 608.008 -1.41886 0.655598 0
M  V30 6127 H 608.743 -2.93802 -1.37299 0
M  V30 6128 H 608.528 -3.91959 0.105218 0
M  V30 6129 H 610.018 -4.08412 -0.871192 0
M  V30 6130 N 610.455 -0.639598 -1.44038 0
M  V30 6131 C 611.701 -0.147698 -2.02261 0
M  V30 6132 C 612.034 1.23031 -1.50256 0
M  V30 6133 O 611.309 1.81847 -0.690068 0
M  V30 6134 C 611.592 -0.14362 -3.59813 0
M  V30 6135 C 611.445 -1.55458 -4.22082 0
M  V30 6136 C 612.764 0.527317 -4.36929 0
M  V30 6137 H 609.883 -0.0551453 -0.734934 0
M  V30 6138 H 612.525 -0.817688 -1.71505 0
M  V30 6139 H 610.675 0.426898 -3.86147 0
M  V30 6140 H 612.347 -2.17464 -4.06826 0
M  V30 6141 H 610.59 -2.10594 -3.79253 0
M  V30 6142 H 611.261 -1.50369 -5.31124 0
M  V30 6143 H 613.737 0.0420504 -4.16079 0
M  V30 6144 H 612.613 0.499389 -5.46624 0
M  V30 6145 H 612.874 1.59914 -4.12165 0
M  V30 6146 N 611.933 1.52934 -0.380664 0
M  V30 6147 C 612.843 2.29921 0.466192 0
M  V30 6148 C 613.859 1.36488 1.07922 0
M  V30 6149 O 615.035 1.69553 1.0869 0
M  V30 6150 C 612.1 3.08468 1.58266 0
M  V30 6151 C 611.161 4.17595 0.995627 0
M  V30 6152 C 610.394 4.92387 2.05889 0
M  V30 6153 O 610.617 4.67184 3.27254 0
M  V30 6154 O 609.551 5.77949 1.68102 0
M  V30 6155 H 613.377 3.03274 -0.160735 0
M  V30 6156 H 610.962 1.48698 -0.144617 0
M  V30 6157 H 612.844 3.57469 2.23145 0
M  V30 6158 H 611.519 2.37937 2.19471 0
M  V30 6159 H 610.426 3.72811 0.310332 0
M  V30 6160 H 611.759 4.90336 0.427918 0
M  V30 6161 N 613.412 0.11024 1.57214 0
M  V30 6162 C 614.66 -0.548783 1.94506 0
M  V30 6163 C 614.981 -1.67772 0.99386 0
M  V30 6164 O 614.251 -1.9584 0.0485841 0
M  V30 6165 H 612.831 -0.205715 0.718116 0
M  V30 6166 H 615.493 0.177127 1.94093 0
M  V30 6167 H 614.589 -0.949096 2.97319 0
M  V30 6168 N 614.89 -1.56749 -0.16351 0
M  V30 6169 C 616.115 -1.86938 -0.898264 0
M  V30 6170 C 616.54 -0.697456 -1.74692 0
M  V30 6171 O 615.898 0.353327 -1.77824 0
M  V30 6172 C 615.946 -3.15599 -1.74441 0
M  V30 6173 O 615.05 -2.98371 -2.8469 0
M  V30 6174 H 614.391 -0.614659 -0.251178 0
M  V30 6175 H 616.921 -2.03979 -0.159298 0
M  V30 6176 H 616.931 -3.47202 -2.14277 0
M  V30 6177 H 615.606 -4.00505 -1.1211 0
M  V30 6178 H 614.183 -2.7814 -2.4838 0
M  V30 6179 N 616.368 0.432326 -1.51554 0
M  V30 6180 C 617.645 1.19288 -1.55015 0
M  V30 6181 C 618.025 2.08701 -0.317375 0
M  V30 6182 O 617.373 2.17602 0.697243 0
M  V30 6183 C 617.583 1.99037 -2.86679 0
M  V30 6184 C 618.931 2.55907 -3.38817 0
M  V30 6185 O 619.955 2.09243 -2.88263 0
M  V30 6186 O 618.814 3.41029 -4.27038 0
M  V30 6187 H 615.908 0.543369 -0.623441 0
M  V30 6188 H 618.454 0.440988 -1.6387 0
M  V30 6189 H 617.226 1.33397 -3.6786 0
M  V30 6190 H 616.849 2.81281 -2.8101 0
M  V30 6191 N 617.846 1.41785 0.688094 0
M  V30 6192 C 618.776 1.47 1.8142 0
M  V30 6193 C 619.757 0.327881 1.6691 0
M  V30 6194 O 620.942 0.540362 1.86531 0
M  V30 6195 C 618.072 1.35876 3.19617 0
M  V30 6196 C 617.026 2.47976 3.48844 0
M  V30 6197 C 616.352 2.21915 4.86475 0
M  V30 6198 C 617.652 3.90309 3.47068 0
M  V30 6199 H 619.346 2.41247 1.77314 0
M  V30 6200 H 616.892 1.16116 0.851651 0
M  V30 6201 H 618.845 1.38134 3.98117 0
M  V30 6202 H 617.569 0.38116 3.24368 0
M  V30 6203 H 616.228 2.45013 2.72698 0
M  V30 6204 H 615.876 1.2248 4.8786 0
M  V30 6205 H 615.576 2.97037 5.06994 0
M  V30 6206 H 617.1 2.25901 5.67275 0
M  V30 6207 H 618.514 3.94947 4.1556 0
M  V30 6208 H 616.911 4.65175 3.7912 0
M  V30 6209 H 617.981 4.17927 2.45896 0
M  V30 6210 N 619.324 -0.923095 1.27737 0
M  V30 6211 C 620.735 -1.48626 1.12993 0
M  V30 6212 C 621.086 -1.94142 -0.283439 0
M  V30 6213 O 620.211 -1.81605 -1.17681 0
M  V30 6214 C 620.806 -2.70117 2.04505 0
M  V30 6215 C 619.365 -3.22642 1.93853 0
M  V30 6216 C 618.512 -1.95368 1.96791 0
M  V30 6217 H 621.463 -0.736737 1.40563 0
M  V30 6218 H 621.484 -3.4506 1.60356 0
M  V30 6219 H 620.996 -2.36959 3.07363 0
M  V30 6220 H 619.097 -3.60549 0.939968 0
M  V30 6221 H 619.21 -3.88525 2.80331 0
M  V30 6222 H 617.574 -2.12061 1.41076 0
M  V30 6223 H 618.357 -1.64517 3.01312 0
M  V30 6224 N 620.802 -1.09834 -1.13024 0
M  V30 6225 C 622.213 -0.855651 -1.65938 0
M  V30 6226 C 622.564 0.615159 -1.86307 0
M  V30 6227 O 621.689 1.47335 -1.58497 0
M  V30 6228 C 622.284 -1.5467 -3.01434 0
M  V30 6229 C 620.843 -1.35088 -3.51323 0
M  V30 6230 C 619.99 -1.6001 -2.26478 0
M  V30 6231 H 622.941 -1.25691 -0.968889 0
M  V30 6232 H 622.962 -0.982179 -3.67605 0
M  V30 6233 H 622.474 -2.61715 -2.86578 0
M  V30 6234 H 620.575 -0.30179 -3.71376 0
M  V30 6235 H 620.688 -2.0886 -4.31178 0
M  V30 6236 H 619.052 -1.02246 -2.33276 0
M  V30 6237 H 619.835 -2.68293 -2.14182 0
M  V30 6238 N 622.28 1.30327 -0.886154 0
M  V30 6239 C 623.505 2.0079 -0.519425 0
M  V30 6240 C 623.93 1.65979 0.885013 0
M  V30 6241 O 623.288 0.877043 1.58675 0
M  V30 6242 C 623.336 3.53686 -0.702758 0
M  V30 6243 O 622.44 4.11637 0.250828 0
M  V30 6244 H 621.781 0.63171 -0.204544 0
M  V30 6245 H 624.311 1.66145 -1.19402 0
M  V30 6246 H 624.321 4.03531 -0.602207 0
M  V30 6247 H 622.996 3.78361 -1.72673 0
M  V30 6248 H 621.573 3.72755 0.103873 0
M  V30 6249 N 623.758 0.647228 1.43697 0
M  V30 6250 C 624.721 -0.0385101 2.29168 0
M  V30 6251 C 625.721 -0.756487 1.41894 0
M  V30 6252 O 626.911 -0.598641 1.63591 0
M  V30 6253 C 624.043 -1.06524 3.23829 0
M  V30 6254 H 625.236 0.713445 2.9129 0
M  V30 6255 H 622.789 0.408153 1.50877 0
M  V30 6256 H 623.524 -1.84664 2.66589 0
M  V30 6257 H 623.309 -0.554147 3.88164 0
M  V30 6258 H 624.799 -1.54432 3.87996 0
M  V30 6259 N 625.236 -1.5273 0.388769 0
M  V30 6260 C 626.652 -1.59553 0.0387049 0
M  V30 6261 C 626.852 -1.40278 -1.44652 0
M  V30 6262 O 625.908 -1.21951 -2.21098 0
M  V30 6263 C 627.221 -2.9625 0.515409 0
M  V30 6264 C 628.769 -3.09426 0.471621 0
M  V30 6265 C 629.244 -4.48572 0.924505 0
M  V30 6266 N 630.735 -4.54754 0.880496 0
M  V30 6267 C 631.47 -5.60653 1.20234 0
M  V30 6268 N 630.966 -6.74198 1.59463 0
M  V30 6269 N 632.759 -5.50755 1.12363 0
M  V30 6270 H 624.91 -1.63508 1.35569 0
M  V30 6271 H 627.173 -0.768097 0.555636 0
M  V30 6272 H 626.879 -3.15569 1.5527 0
M  V30 6273 H 626.753 -3.77102 -0.085792 0
M  V30 6274 H 629.14 -2.89804 -0.556588 0
M  V30 6275 H 629.221 -2.30528 1.10862 0
M  V30 6276 H 628.865 -4.68936 1.95094 0
M  V30 6277 H 628.795 -5.25935 0.264524 0
M  V30 6278 H 631.286 -3.73237 0.591815 0
M  V30 6279 H 631.599 -7.5097 1.82385 0
M  V30 6280 H 629.944 -6.75531 1.63349 0
M  V30 6281 H 633.135 -4.6093 0.816169 0
M  V30 6282 H 633.308 -6.33184 1.37777 0
M  V30 6283 N 626.714 -0.118576 -1.57153 0
M  V30 6284 C 627.677 0.817464 -2.14127 0
M  V30 6285 C 628.677 1.1949 -1.07604 0
M  V30 6286 O 629.867 1.12048 -1.33382 0
M  V30 6287 C 626.999 2.10541 -2.68115 0
M  V30 6288 H 628.192 0.322339 -2.98163 0
M  V30 6289 H 625.745 0.130655 -1.55753 0
M  V30 6290 H 626.48 2.64485 -1.87665 0
M  V30 6291 H 626.265 1.84425 -3.4602 0
M  V30 6292 H 627.755 2.77453 -3.12105 0
M  V30 6293 N 628.193 1.56834 0.155195 0
M  V30 6294 C 629.604 1.72421 0.716082 0
M  V30 6295 C 629.955 0.731685 1.82046 0
M  V30 6296 O 629.08 -0.103481 2.16152 0
M  V30 6297 C 629.675 3.12629 1.30571 0
M  V30 6298 C 628.234 3.29846 1.81325 0
M  V30 6299 C 627.381 2.68359 0.698494 0
M  V30 6300 H 630.332 1.58544 -0.0703861 0
M  V30 6301 H 630.353 3.12174 2.1755 0
M  V30 6302 H 629.865 3.84844 0.501701 0
M  V30 6303 H 627.966 2.62614 2.64319 0
M  V30 6304 H 628.079 4.37727 1.9476 0
M  V30 6305 H 626.443 2.28604 1.12305 0
M  V30 6306 H 627.226 3.43171 -0.0939366 0
M  V30 6307 N 629.671 -0.424282 1.51781 0
M  V30 6308 C 630.917 -1.17434 1.6534 0
M  V30 6309 C 631.25 -1.90549 0.374806 0
M  V30 6310 O 630.525 -1.84145 -0.626179 0
M  V30 6311 C 630.808 -2.18093 2.86544 0
M  V30 6312 C 630.661 -1.48975 4.24413 0
M  V30 6313 C 631.98 -3.18934 3.03264 0
M  V30 6314 H 629.099 -0.425566 0.601716 0
M  V30 6315 H 631.741 -0.461921 1.84299 0
M  V30 6316 H 629.891 -2.78849 2.7051 0
M  V30 6317 H 631.563 -0.914551 4.52143 0
M  V30 6318 H 629.806 -0.791893 4.26511 0
M  V30 6319 H 630.477 -2.22347 5.05238 0
M  V30 6320 H 632.953 -2.68243 3.18096 0
M  V30 6321 H 631.829 -3.86645 3.89611 0
M  V30 6322 H 632.09 -3.85793 2.15908 0
M  V30 6323 N 631.149 -1.42148 -0.680565 0
M  V30 6324 C 632.398 -1.41604 -1.43636 0
M  V30 6325 C 632.711 -0.0337887 -1.95571 0
M  V30 6326 O 633.917 0.0942588 -2.71336 0
M  V30 6327 C 632.373 -2.49056 -2.59806 0
M  V30 6328 C 631.981 -3.9326 -2.14594 0
M  V30 6329 C 633.725 -2.5767 -3.37352 0
M  V30 6330 C 631.632 -4.92232 -3.27813 0
M  V30 6331 H 630.562 -0.526656 -0.539583 0
M  V30 6332 H 633.213 -1.68033 -0.737369 0
M  V30 6333 H 631.595 -2.15782 -3.32045 0
M  V30 6334 H 632.769 -4.35858 -1.49546 0
M  V30 6335 H 631.084 -3.88443 -1.50002 0
M  V30 6336 H 633.681 -3.28794 -4.21662 0
M  V30 6337 H 634.024 -1.61837 -3.83555 0
M  V30 6338 H 634.557 -2.90109 -2.72179 0
M  V30 6339 H 631.296 -5.89522 -2.86607 0
M  V30 6340 H 630.816 -4.5427 -3.91661 0
M  V30 6341 H 632.495 -5.13684 -3.93367 0
M  V30 6342 N 632.627 0.916307 -1.28225 0
M  V30 6343 C 633.876 1.65975 -1.14608 0
M  V30 6344 C 634.189 1.93204 0.305191 0
M  V30 6345 O 635.395 2.65611 0.562432 0
M  V30 6346 C 633.851 2.98989 -2.00333 0
M  V30 6347 C 633.459 2.79417 -3.50186 0
M  V30 6348 C 635.203 3.76856 -1.95397 0
M  V30 6349 C 633.11 4.08056 -4.28071 0
M  V30 6350 H 632.04 0.622587 -0.425324 0
M  V30 6351 H 634.691 1.01705 -1.52736 0
M  V30 6352 H 633.073 3.6438 -1.5506 0
M  V30 6353 H 634.247 2.22723 -4.034 0
M  V30 6354 H 632.562 2.14966 -3.56621 0
M  V30 6355 H 635.159 4.72203 -2.50856 0
M  V30 6356 H 635.502 4.05776 -0.930137 0
M  V30 6357 H 636.035 3.1828 -2.38626 0
M  V30 6358 H 632.774 3.8431 -5.31024 0
M  V30 6359 H 632.294 4.64371 -3.79631 0
M  V30 6360 H 633.973 4.76333 -4.37854 0
M  V30 6361 N 634.105 1.10431 1.1244 0
M  V30 6362 C 635.382 0.758797 1.80282 0
M  V30 6363 C 635.762 -0.754727 1.97147 0
M  V30 6364 O 635.11 -1.68094 1.54779 0
M  V30 6365 C 635.32 1.50982 3.14651 0
M  V30 6366 C 636.668 1.68232 3.8985 0
M  V30 6367 O 637.692 1.47319 3.24308 0
M  V30 6368 O 636.551 2.02905 5.07437 0
M  V30 6369 H 633.645 0.273756 0.780376 0
M  V30 6370 H 636.191 1.20713 1.19275 0
M  V30 6371 H 634.963 2.53989 2.97666 0
M  V30 6372 H 634.586 1.05435 3.83366 0
M  V30 6373 N 635.583 -1.29855 0.893053 0
M  V30 6374 C 636.823 -1.97612 0.522399 0
M  V30 6375 C 637.187 -1.68903 -0.913 0
M  V30 6376 O 638.388 -2.30059 -1.39019 0
M  V30 6377 C 636.659 -3.48356 0.79893 0
M  V30 6378 S 638.218 -4.35568 0.531588 0
M  V30 6379 H 635.036 -0.684005 0.194058 0
M  V30 6380 H 637.638 -1.57803 1.15406 0
M  V30 6381 H 636.342 -3.66743 1.84196 0
M  V30 6382 H 635.873 -3.93094 0.155133 0
M  V30 6383 H 637.888 -4.92232 -0.626295 0
M  V30 6384 N 637.061 -0.65484 -1.43351 0
M  V30 6385 C 638.308 -0.168892 -2.01794 0
M  V30 6386 C 638.636 1.2177 -1.51665 0
M  V30 6387 O 637.891 1.82717 -0.70092 0
M  V30 6388 C 638.19 -0.130424 -3.57162 0
M  V30 6389 C 637.856 -1.45898 -4.26643 0
M  V30 6390 C 636.518 -1.82279 -4.4534 0
M  V30 6391 C 638.87 -2.33485 -4.65976 0
M  V30 6392 C 636.198 -3.0591 -5.00635 0
M  V30 6393 C 638.55 -3.5641 -5.22642 0
M  V30 6394 C 637.214 -3.92985 -5.39555 0
M  V30 6395 H 636.484 -0.061802 -0.738418 0
M  V30 6396 H 639.131 -0.845869 -1.71806 0
M  V30 6397 H 637.436 0.630008 -3.86702 0
M  V30 6398 H 639.133 0.262465 -4.0014 0
M  V30 6399 H 635.723 -1.16591 -4.12437 0
M  V30 6400 H 639.907 -2.06668 -4.51223 0
M  V30 6401 H 635.163 -3.34295 -5.11915 0
M  V30 6402 H 639.337 -4.24495 -5.52066 0
M  V30 6403 H 636.964 -4.88862 -5.82167 0
M  V30 6404 N 638.539 1.52521 -0.396863 0
M  V30 6405 C 639.955 1.5953 -0.0471659 0
M  V30 6406 C 640.155 1.41044 1.43906 0
M  V30 6407 O 639.211 1.23122 2.20448 0
M  V30 6408 C 640.524 2.95972 -0.531113 0
M  V30 6409 C 642.072 3.09172 -0.488024 0
M  V30 6410 C 642.547 4.48075 -0.948281 0
M  V30 6411 N 644.038 4.54281 -0.9046 0
M  V30 6412 C 644.773 5.60007 -1.23205 0
M  V30 6413 N 644.269 6.73343 -1.63036 0
M  V30 6414 N 646.062 5.50151 -1.15282 0
M  V30 6415 H 638.213 1.62786 -1.36435 0
M  V30 6416 H 640.476 0.76514 -0.559701 0
M  V30 6417 H 640.182 3.14741 -1.56942 0
M  V30 6418 H 640.056 3.77143 0.0657922 0
M  V30 6419 H 642.443 2.90095 0.541211 0
M  V30 6420 H 642.524 2.29937 -1.12083 0
M  V30 6421 H 642.168 4.67894 -1.97578 0
M  V30 6422 H 642.098 5.25788 -0.292412 0
M  V30 6423 H 644.589 3.72918 -0.6116 0
M  V30 6424 H 644.902 7.49992 -1.86365 0
M  V30 6425 H 643.247 6.74655 -1.66929 0
M  V30 6426 H 646.438 4.6049 -0.840602 0
M  V30 6427 H 646.611 6.32444 -1.41133 0
M  V30 6428 N 640.017 0.126909 1.57088 0
M  V30 6429 C 640.949 -0.850973 2.12817 0
M  V30 6430 C 641.962 -1.22457 1.07276 0
M  V30 6431 O 643.151 -1.17215 1.34622 0
M  V30 6432 C 640.251 -2.15039 2.61938 0
M  V30 6433 C 639.424 -1.94726 3.91664 0
M  V30 6434 C 638.483 -3.0847 4.26301 0
M  V30 6435 O 637.509 -2.81038 4.94981 0
M  V30 6436 N 638.711 -4.35116 3.84259 0
M  V30 6437 H 641.476 -0.3748 2.97347 0
M  V30 6438 H 639.037 -0.0572793 1.61799 0
M  V30 6439 H 641.029 -2.90141 2.82135 0
M  V30 6440 H 639.599 -2.5398 1.82244 0
M  V30 6441 H 638.819 -1.03772 3.80296 0
M  V30 6442 H 640.107 -1.78469 4.76473 0
M  V30 6443 H 639.505 -4.60276 3.2888 0
M  V30 6444 H 638.062 -5.07064 4.09548 0
M  V30 6445 N 641.495 -1.56914 -0.146875 0
M  V30 6446 C 642.442 -1.98275 -1.18134 0
M  V30 6447 C 643.412 -0.850367 -1.42681 0
M  V30 6448 O 644.597 -1.11244 -1.55014 0
M  V30 6449 C 641.737 -2.36861 -2.5098 0
M  V30 6450 C 640.85 -3.63391 -2.33605 0
M  V30 6451 C 639.985 -3.91079 -3.59486 0
M  V30 6452 C 639.024 -5.10879 -3.37149 0
M  V30 6453 N 638.161 -5.34577 -4.55161 0
M  V30 6454 H 643.001 -2.8645 -0.821622 0
M  V30 6455 H 640.538 -1.41718 -0.394248 0
M  V30 6456 H 642.496 -2.57262 -3.28439 0
M  V30 6457 H 641.126 -1.51766 -2.84898 0
M  V30 6458 H 640.178 -3.50766 -1.47199 0
M  V30 6459 H 641.49 -4.51007 -2.13059 0
M  V30 6460 H 640.644 -4.11979 -4.45374 0
M  V30 6461 H 639.383 -3.01885 -3.83036 0
M  V30 6462 H 638.388 -4.89853 -2.49649 0
M  V30 6463 H 639.613 -6.01626 -3.14997 0
M  V30 6464 H 637.559 -4.48337 -4.78884 0
M  V30 6465 H 637.476 -6.16463 -4.37618 0
M  V30 6466 H 638.744 -5.59975 -5.42263 0
M  V30 6467 N 642.974 0.416227 -1.52004 0
M  V30 6468 C 644.199 1.19029 -1.69843 0
M  V30 6469 C 644.624 1.83708 -0.404103 0
M  V30 6470 O 643.982 1.69711 0.637787 0
M  V30 6471 C 644.03 2.23439 -2.83032 0
M  V30 6472 O 643.134 3.29419 -2.48106 0
M  V30 6473 H 642.475 0.347785 -0.565634 0
M  V30 6474 H 645.005 0.488871 -1.98674 0
M  V30 6475 H 645.015 2.67884 -3.07737 0
M  V30 6476 H 643.69 1.75745 -3.76944 0
M  V30 6477 H 642.267 2.90303 -2.34048 0
M  V30 6478 N 644.452 1.42507 0.673017 0
M  V30 6479 C 645.384 1.42074 1.79854 0
M  V30 6480 C 646.397 0.319569 1.59633 0
M  V30 6481 O 647.586 0.582769 1.68719 0
M  V30 6482 C 644.686 1.19886 3.16987 0
M  V30 6483 C 643.859 2.42471 3.64042 0
M  V30 6484 C 642.918 2.15802 4.79913 0
M  V30 6485 O 641.944 2.89015 4.90366 0
M  V30 6486 N 643.146 1.16225 5.68746 0
M  V30 6487 H 645.911 2.3909 1.8071 0
M  V30 6488 H 643.472 1.37409 0.856171 0
M  V30 6489 H 645.464 0.999591 3.92161 0
M  V30 6490 H 644.034 0.313879 3.1102 0
M  V30 6491 H 643.254 2.77954 2.79526 0
M  V30 6492 H 644.542 3.24097 3.92223 0
M  V30 6493 H 643.94 0.556756 5.62954 0
M  V30 6494 H 642.497 1.02285 6.43724 0
M  V30 6495 N 645.93 -0.909495 1.28709 0
M  V30 6496 C 647.341 -1.47419 1.14563 0
M  V30 6497 C 647.692 -1.94432 -0.262832 0
M  V30 6498 O 646.817 -1.82842 -1.15748 0
M  V30 6499 C 647.412 -2.67933 2.07358 0
M  V30 6500 C 645.971 -3.20568 1.97264 0
M  V30 6501 C 645.118 -1.93269 1.98852 0
M  V30 6502 H 648.069 -0.721787 1.41336 0
M  V30 6503 H 648.09 -3.43339 1.64007 0
M  V30 6504 H 647.602 -2.33685 3.09859 0
M  V30 6505 H 645.703 -3.59531 0.978157 0
M  V30 6506 H 645.816 -3.85529 2.84436 0
M  V30 6507 H 644.18 -2.10553 1.43317 0
M  V30 6508 H 644.963 -1.61312 3.0304 0
M  V30 6509 N 647.408 -1.11026 -1.11852 0
M  V30 6510 C 648.685 -0.768347 -1.79877 0
M  V30 6511 C 649.065 0.744261 -1.97545 0
M  V30 6512 O 648.413 1.67271 -1.55669 0
M  V30 6513 C 648.623 -1.52648 -3.13846 0
M  V30 6514 C 649.971 -1.70297 -3.88953 0
M  V30 6515 O 650.995 -1.49037 -3.23522 0
M  V30 6516 O 649.854 -2.05593 -5.06353 0
M  V30 6517 H 646.948 -0.277891 -0.778913 0
M  V30 6518 H 649.494 -1.21343 -1.18633 0
M  V30 6519 H 648.266 -2.55564 -2.96315 0
M  V30 6520 H 647.889 -1.07466 -3.82801 0
M  V30 6521 N 648.886 1.2938 -0.899927 0
M  V30 6522 C 650.135 1.9483 -0.521937 0
M  V30 6523 C 650.448 1.71725 0.936473 0
M  V30 6524 O 651.654 2.31282 1.42199 0
M  V30 6525 C 650.11 3.48911 -0.88255 0
M  V30 6526 C 649.718 3.80815 -2.35974 0
M  V30 6527 C 651.462 4.20595 -0.57448 0
M  V30 6528 C 649.369 5.28142 -2.66121 0
M  V30 6529 H 648.299 0.729285 -0.191468 0
M  V30 6530 H 650.95 1.47103 -1.09695 0
M  V30 6531 H 649.332 3.95293 -0.236459 0
M  V30 6532 H 650.506 3.45291 -3.05141 0
M  V30 6533 H 648.821 3.22271 -2.63686 0
M  V30 6534 H 651.418 5.29031 -0.776556 0
M  V30 6535 H 651.761 4.13442 0.487005 0
M  V30 6536 H 652.294 3.79945 -1.17842 0
M  V30 6537 H 649.033 5.4036 -3.71068 0
M  V30 6538 H 648.553 5.64913 -2.01578 0
M  V30 6539 H 650.232 5.95738 -2.52399 0
M  V30 6540 N 650.364 0.662433 1.43002 0
M  V30 6541 C 651.296 -0.062326 2.29115 0
M  V30 6542 C 652.309 -0.777926 1.43011 0
M  V30 6543 O 653.498 -0.634146 1.66856 0
M  V30 6544 C 650.598 -1.11163 3.2015 0
M  V30 6545 C 649.771 -0.472327 4.34842 0
M  V30 6546 C 648.83 -1.41974 5.06685 0
M  V30 6547 O 647.856 -0.924795 5.61637 0
M  V30 6548 N 649.058 -2.75345 5.11043 0
M  V30 6549 H 651.823 0.676838 2.91957 0
M  V30 6550 H 649.384 0.505907 1.53793 0
M  V30 6551 H 651.376 -1.74643 3.65078 0
M  V30 6552 H 649.946 -1.75266 2.58845 0
M  V30 6553 H 649.166 0.341751 3.92716 0
M  V30 6554 H 650.454 -0.0264381 5.08793 0
M  V30 6555 H 649.852 -3.18108 4.67786 0
M  V30 6556 H 648.409 -3.34105 5.59658 0
M  V30 6557 N 651.842 -1.52309 0.404946 0
M  V30 6558 C 652.774 -2.24579 -0.45791 0
M  V30 6559 C 653.787 -1.2739 -1.01369 0
M  V30 6560 O 654.976 -1.53363 -0.91335 0
M  V30 6561 C 652.076 -2.9608 -1.64893 0
M  V30 6562 C 651.249 -4.20106 -1.21777 0
M  V30 6563 C 650.308 -4.74468 -2.27523 0
M  V30 6564 O 649.334 -5.37157 -1.88285 0
M  V30 6565 N 650.536 -4.55678 -3.59635 0
M  V30 6566 H 653.301 -2.99265 0.161341 0
M  V30 6567 H 650.862 -1.60228 0.232107 0
M  V30 6568 H 652.854 -3.29344 -2.35191 0
M  V30 6569 H 651.424 -2.24606 -2.17419 0
M  V30 6570 H 650.644 -3.92704 -0.343071 0
M  V30 6571 H 651.932 -5.00658 -0.906596 0
M  V30 6572 H 651.33 -4.05673 -3.94266 0
M  V30 6573 H 649.887 -4.9339 -4.25922 0
M  V30 6574 N 653.32 -0.135238 -1.57019 0
M  V30 6575 C 654.25 0.805235 -2.19176 0
M  V30 6576 C 655.231 1.2656 -1.13651 0
M  V30 6577 O 656.416 1.32528 -1.4195 0
M  V30 6578 C 653.546 2.04914 -2.80406 0
M  V30 6579 C 652.5 1.72598 -3.91655 0
M  V30 6580 C 651.826 3.04154 -4.39766 0
M  V30 6581 C 653.126 0.981709 -5.12991 0
M  V30 6582 H 654.82 0.287232 -2.98019 0
M  V30 6583 H 652.366 0.136714 -1.4335 0
M  V30 6584 H 654.319 2.71178 -3.22553 0
M  V30 6585 H 653.043 2.59067 -1.98877 0
M  V30 6586 H 651.702 1.08717 -3.50109 0
M  V30 6587 H 651.35 3.56274 -3.55075 0
M  V30 6588 H 651.05 2.83299 -5.14796 0
M  V30 6589 H 652.574 3.71509 -4.84576 0
M  V30 6590 H 653.988 1.5462 -5.52056 0
M  V30 6591 H 652.385 0.873533 -5.93708 0
M  V30 6592 H 653.455 -0.0286887 -4.84892 0
M  V30 6593 N 654.798 1.5699 0.138552 0
M  V30 6594 C 656.047 1.82998 0.848205 0
M  V30 6595 C 656.36 0.717829 1.81952 0
M  V30 6596 O 657.566 0.863756 2.57394 0
M  V30 6597 C 656.022 3.24379 1.55904 0
M  V30 6598 C 655.63 4.43552 0.62971 0
M  V30 6599 C 657.374 3.59654 2.25498 0
M  V30 6600 C 655.281 5.75957 1.34266 0
M  V30 6601 H 654.211 0.682495 0.320495 0
M  V30 6602 H 656.862 1.83222 0.100924 0
M  V30 6603 H 655.244 3.18567 2.35226 0
M  V30 6604 H 656.418 4.6062 -0.128882 0
M  V30 6605 H 654.733 4.16379 0.0417526 0
M  V30 6606 H 657.33 4.55837 2.79493 0
M  V30 6607 H 657.673 2.86124 3.02388 0
M  V30 6608 H 658.206 3.67164 1.53087 0
M  V30 6609 H 654.945 6.52604 0.615441 0
M  V30 6610 H 654.465 5.62811 2.07375 0
M  V30 6611 H 656.144 6.19046 1.88126 0
M  V30 6612 N 656.276 -0.40816 1.52223 0
M  V30 6613 C 657.692 -0.74685 1.41047 0
M  V30 6614 C 657.892 -1.94788 0.51573 0
M  V30 6615 O 656.948 -2.52494 -0.0181156 0
M  V30 6616 C 658.261 -0.999878 2.83589 0
M  V30 6617 C 659.809 -1.10253 2.92939 0
M  V30 6618 C 660.284 -1.38832 4.36451 0
M  V30 6619 N 661.775 -1.45694 4.3969 0
M  V30 6620 C 662.51 -1.69435 5.47795 0
M  V30 6621 N 662.006 -1.90774 6.66016 0
M  V30 6622 N 663.799 -1.71458 5.35312 0
M  V30 6623 H 655.95 0.382409 2.08929 0
M  V30 6624 H 658.213 0.108807 0.941735 0
M  V30 6625 H 657.919 -0.189723 3.51188 0
M  V30 6626 H 657.793 -1.91978 3.24691 0
M  V30 6627 H 660.18 -1.90328 2.2552 0
M  V30 6628 H 660.261 -0.160973 2.55293 0
M  V30 6629 H 659.905 -0.592741 5.04429 0
M  V30 6630 H 659.835 -2.34241 4.71634 0
M  V30 6631 H 662.326 -1.3099 3.54472 0
M  V30 6632 H 662.639 -2.08342 7.44186 0
M  V30 6633 H 660.984 -1.88037 6.69079 0
M  V30 6634 H 664.175 -1.54326 4.41929 0
M  V30 6635 H 664.348 -1.89621 6.19635 0
M  V30 6636 N 657.755 -1.42862 -0.66545 0
M  V30 6637 C 658.718 -1.46756 -1.76055 0
M  V30 6638 C 659.718 -0.353866 -1.56858 0
M  V30 6639 O 660.908 -0.615099 -1.62979 0
M  V30 6640 C 658.04 -1.30829 -3.14796 0
M  V30 6641 H 659.233 -2.44271 -1.73987 0
M  V30 6642 H 656.786 -1.29447 -0.875965 0
M  V30 6643 H 657.521 -0.342733 -3.22484 0
M  V30 6644 H 657.306 -2.11551 -3.30134 0
M  V30 6645 H 658.796 -1.36458 -3.94676 0
M  V30 6646 N 659.233 0.902656 -1.29189 0
M  V30 6647 C 660.196 1.98797 -1.14071 0
M  V30 6648 C 661.196 1.60615 -0.0770549 0
M  V30 6649 O 662.386 1.71165 -0.323753 0
M  V30 6650 C 659.518 3.32688 -0.743739 0
M  V30 6651 H 660.711 2.13637 -2.10473 0
M  V30 6652 H 658.264 1.08678 -1.12334 0
M  V30 6653 H 658.999 3.23549 0.220554 0
M  V30 6654 H 658.784 3.61765 -1.51223 0
M  V30 6655 H 660.274 4.12337 -0.660935 0
M  V30 6656 N 660.711 1.11618 1.11262 0
M  V30 6657 C 662.122 0.881942 1.64556 0
M  V30 6658 C 662.473 -0.585442 1.87262 0
M  V30 6659 O 661.598 -1.44795 1.60821 0
M  V30 6660 C 662.193 1.59446 2.98935 0
M  V30 6661 C 660.752 1.40661 3.4913 0
M  V30 6662 C 659.899 1.63593 2.23903 0
M  V30 6663 H 662.85 1.27217 0.94877 0
M  V30 6664 H 662.871 1.04054 3.65996 0
M  V30 6665 H 662.383 2.66241 2.82378 0
M  V30 6666 H 660.484 0.360835 3.70849 0
M  V30 6667 H 660.597 2.15693 4.27801 0
M  V30 6668 H 658.961 1.05944 2.3162 0
M  V30 6669 H 659.744 2.71666 2.09886 0
M  V30 6670 N 662.189 -1.289 0.906776 0
M  V30 6671 C 663.414 -1.99939 0.551303 0
M  V30 6672 C 663.839 -1.67366 -0.858496 0
M  V30 6673 O 663.197 -0.902176 -1.57259 0
M  V30 6674 C 663.245 -3.52523 0.758937 0
M  V30 6675 O 662.349 -4.11983 -0.185308 0
M  V30 6676 H 661.69 -0.628376 0.214568 0
M  V30 6677 H 664.22 -1.64225 1.2203 0
M  V30 6678 H 664.23 -4.02522 0.666329 0
M  V30 6679 H 662.905 -3.75566 1.78671 0
M  V30 6680 H 661.482 -3.72873 -0.0445577 0
M  V30 6681 N 663.667 -0.670007 -1.42649 0
M  V30 6682 C 664.895 -0.19854 -2.05945 0
M  V30 6683 C 665.31 1.14243 -1.50313 0
M  V30 6684 O 664.667 1.70872 -0.641027 0
M  V30 6685 C 664.718 -0.11966 -3.61302 0
M  V30 6686 O 664.439 -1.40764 -4.1487 0
M  V30 6687 C 665.94 0.375878 -4.41704 0
M  V30 6688 H 663.16 -0.0976894 -0.663851 0
M  V30 6689 H 665.704 -0.915392 -1.82868 0
M  V30 6690 H 663.859 0.547851 -3.83507 0
M  V30 6691 H 664.273 -1.27784 -5.08696 0
M  V30 6692 H 665.747 0.379988 -5.50691 0
M  V30 6693 H 666.224 1.41028 -4.15942 0
M  V30 6694 H 666.83 -0.259727 -4.24506 0
M  V30 6695 N 665.145 1.52092 -0.413018 0
M  V30 6696 C 666.075 2.30021 0.401567 0
M  V30 6697 C 667.056 1.34395 1.04269 0
M  V30 6698 O 668.241 1.63304 1.05097 0
M  V30 6699 C 665.371 3.12447 1.51638 0
M  V30 6700 C 664.325 4.16153 1.00005 0
M  V30 6701 C 663.651 4.86948 2.20875 0
M  V30 6702 C 664.951 5.22275 0.0513757 0
M  V30 6703 H 666.645 2.98365 -0.248704 0
M  V30 6704 H 664.191 1.4349 -0.121052 0
M  V30 6705 H 666.144 3.65733 2.09326 0
M  V30 6706 H 664.868 2.41879 2.19458 0
M  V30 6707 H 663.527 3.63882 0.445549 0
M  V30 6708 H 663.175 4.12905 2.8726 0
M  V30 6709 H 662.875 5.57057 1.86978 0
M  V30 6710 H 664.399 5.43048 2.79162 0
M  V30 6711 H 665.813 5.70778 0.537176 0
M  V30 6712 H 664.21 5.9977 -0.198977 0
M  V30 6713 H 665.28 4.76611 -0.892736 0
M  V30 6714 N 666.623 0.143563 1.56945 0
M  V30 6715 C 667.851 -0.515447 2.00377 0
M  V30 6716 C 668.266 -1.58643 1.02361 0
M  V30 6717 O 667.623 -1.82489 0.0201039 0
M  V30 6718 C 667.674 -1.11923 3.43737 0
M  V30 6719 O 667.395 -0.0910318 4.38005 0
M  V30 6720 C 668.896 -1.85918 4.02429 0
M  V30 6721 H 666.116 -0.134478 0.657386 0
M  V30 6722 H 668.66 0.237135 2.0312 0
M  V30 6723 H 666.815 -1.82245 3.41856 0
M  V30 6724 H 667.229 -0.532916 5.21786 0
M  V30 6725 H 668.703 -2.2346 5.04747 0
M  V30 6726 H 669.18 -2.7438 3.42947 0
M  V30 6727 H 669.786 -1.20303 4.07931 0
M  V30 6728 N 668.101 -1.57061 -0.130224 0
M  V30 6729 C 669.329 -1.88432 -0.854456 0
M  V30 6730 C 669.744 -0.733608 -1.73964 0
M  V30 6731 O 669.101 0.296029 -1.80083 0
M  V30 6732 C 669.152 -3.1918 -1.69724 0
M  V30 6733 O 668.873 -4.2982 -0.847705 0
M  V30 6734 C 670.374 -3.6418 -2.5276 0
M  V30 6735 H 667.594 -0.624193 -0.246221 0
M  V30 6736 H 670.138 -2.04159 -0.11798 0
M  V30 6737 H 668.293 -3.05156 -2.3866 0
M  V30 6738 H 668.707 -5.04689 -1.42792 0
M  V30 6739 H 670.181 -4.58457 -3.07443 0
M  V30 6740 H 670.658 -2.90285 -3.29592 0
M  V30 6741 H 671.264 -3.80954 -1.89087 0
M  V30 6742 N 669.579 0.400081 -1.52437 0
M  V30 6743 C 670.99 0.97851 -1.59003 0
M  V30 6744 C 671.341 1.91293 -0.436068 0
M  V30 6745 O 670.466 2.1183 0.442365 0
M  V30 6746 C 671.061 1.78145 -2.88184 0
M  V30 6747 C 669.62 2.30976 -2.97199 0
M  V30 6748 C 668.767 1.11212 -2.54022 0
M  V30 6749 H 671.718 0.180002 -1.57676 0
M  V30 6750 H 671.739 2.63968 -2.74046 0
M  V30 6751 H 671.251 1.1011 -3.72152 0
M  V30 6752 H 669.352 3.02355 -2.17744 0
M  V30 6753 H 669.465 2.61221 -4.01622 0
M  V30 6754 H 667.829 1.46882 -2.08081 0
M  V30 6755 H 668.612 0.447307 -3.40373 0
M  V30 6756 N 671.057 1.43213 0.657864 0
M  V30 6757 C 672.305 1.44298 1.41501 0
M  V30 6758 C 672.626 0.0666478 1.94886 0
M  V30 6759 O 671.896 -0.897345 1.74139 0
M  V30 6760 H 670.476 0.531257 0.525143 0
M  V30 6761 H 673.138 1.78777 0.776195 0
M  V30 6762 H 672.234 2.1528 2.25966 0
M  V30 6763 N 672.536 -0.895792 1.29666 0
M  V30 6764 C 673.446 -2.03329 1.17024 0
M  V30 6765 C 674.462 -1.73753 0.0925962 0
M  V30 6766 O 675.638 -1.99071 0.305431 0
M  V30 6767 C 672.703 -3.36072 0.851841 0
M  V30 6768 C 671.764 -3.7914 2.01373 0
M  V30 6769 C 670.997 -5.05549 1.71043 0
M  V30 6770 O 671.22 -5.66874 0.633213 0
M  V30 6771 O 670.154 -5.44764 2.5596 0
M  V30 6772 H 673.98 -2.16918 2.12556 0
M  V30 6773 H 671.565 -1.02007 1.09156 0
M  V30 6774 H 673.447 -4.15729 0.689006 0
M  V30 6775 H 672.122 -3.23616 -0.0736634 0
M  V30 6776 H 671.029 -3.00233 2.23183 0
M  V30 6777 H 672.362 -3.96186 2.92058 0
M  V30 6778 N 674.014 -1.12206 -1.10668 0
M  V30 6779 C 675.263 -0.870595 -1.81944 0
M  V30 6780 C 675.576 0.605447 -1.85994 0
M  V30 6781 O 676.782 0.973433 -2.53449 0
M  V30 6782 C 675.238 -1.50783 -3.26791 0
M  V30 6783 C 674.846 -3.01849 -3.31046 0
M  V30 6784 C 676.59 -1.33653 -4.02911 0
M  V30 6785 C 674.497 -3.58518 -4.70339 0
M  V30 6786 H 673.427 -0.322043 -0.681765 0
M  V30 6787 H 676.078 -1.34827 -1.24475 0
M  V30 6788 H 674.46 -0.957825 -3.84242 0
M  V30 6789 H 675.634 -3.63321 -2.83433 0
M  V30 6790 H 673.949 -3.18346 -2.68411 0
M  V30 6791 H 676.546 -1.73416 -5.05797 0
M  V30 6792 H 676.889 -0.279949 -4.15358 0
M  V30 6793 H 677.422 -1.85562 -3.51868 0
M  V30 6794 H 674.161 -4.63925 -4.63091 0
M  V30 6795 H 673.681 -3.01819 -5.18329 0
M  V30 6796 H 675.36 -3.57434 -5.39305 0
M  V30 6797 N 675.492 1.28418 -0.913599 0
M  V30 6798 C 676.741 1.94265 -0.542572 0
M  V30 6799 C 677.054 1.72709 0.918207 0
M  V30 6800 O 678.26 2.32778 1.39738 0
M  V30 6801 C 676.716 3.47956 -0.919507 0
M  V30 6802 C 676.324 3.78291 -2.4 0
M  V30 6803 C 678.068 4.19962 -0.619057 0
M  V30 6804 C 675.975 5.2529 -2.71707 0
M  V30 6805 H 674.905 0.727213 -0.199192 0
M  V30 6806 H 677.556 1.45931 -1.11249 0
M  V30 6807 H 675.938 3.9502 -0.278372 0
M  V30 6808 H 677.112 3.42035 -3.08786 0
M  V30 6809 H 675.427 3.19456 -2.67089 0
M  V30 6810 H 678.024 5.28178 -0.832623 0
M  V30 6811 H 678.367 4.13935 0.443126 0
M  V30 6812 H 678.9 3.78674 -1.21865 0
M  V30 6813 H 675.639 5.36394 -3.76778 0
M  V30 6814 H 675.159 5.62743 -2.07559 0
M  V30 6815 H 676.838 5.93027 -2.58703 0
M  V30 6816 N 676.97 0.677563 1.42291 0
M  V30 6817 C 677.917 0.000947061 2.308 0
M  V30 6818 C 678.887 -0.789889 1.46116 0
M  V30 6819 O 680.072 -0.761578 1.74942 0
M  V30 6820 C 677.212 -0.942387 3.31984 0
M  V30 6821 C 676.325 -0.14508 4.31756 0
M  V30 6822 C 675.46 -1.08442 5.20013 0
M  V30 6823 C 674.499 -0.278958 6.11464 0
M  V30 6824 N 673.636 -1.17115 6.92263 0
M  V30 6825 H 678.476 0.761521 2.88106 0
M  V30 6826 H 676.013 0.38727 1.41911 0
M  V30 6827 H 677.971 -1.50317 3.89179 0
M  V30 6828 H 676.601 -1.66956 2.76271 0
M  V30 6829 H 675.653 0.532368 3.76656 0
M  V30 6830 H 676.965 0.48015 4.96484 0
M  V30 6831 H 676.119 -1.71504 5.81955 0
M  V30 6832 H 674.858 -1.74353 4.55469 0
M  V30 6833 H 673.863 0.364856 5.48588 0
M  V30 6834 H 675.088 0.376099 6.78058 0
M  V30 6835 H 673.034 -1.81661 6.30345 0
M  V30 6836 H 672.951 -0.601063 7.53607 0
M  V30 6837 H 674.219 -1.78915 7.58689 0
M  V30 6838 N 678.448 -1.51871 0.421078 0
M  V30 6839 C 679.678 -2.06057 -0.149723 0
M  V30 6840 C 680.086 -1.29002 -1.38402 0
M  V30 6841 O 679.429 -0.338385 -1.80556 0
M  V30 6842 C 679.491 -3.55216 -0.553339 0
M  V30 6843 C 679.155 -4.53408 0.571879 0
M  V30 6844 C 680.152 -4.99586 1.4391 0
M  V30 6845 C 677.837 -4.967 0.747979 0
M  V30 6846 C 679.831 -5.87711 2.46727 0
M  V30 6847 C 677.518 -5.84619 1.77944 0
M  V30 6848 C 678.516 -6.30021 2.63748 0
M  V30 6849 O 678.204 -7.16197 3.65126 0
M  V30 6850 H 677.936 -0.675744 -0.0186102 0
M  V30 6851 H 680.49 -1.96618 0.594166 0
M  V30 6852 H 678.72 -3.62381 -1.34969 0
M  V30 6853 H 680.409 -3.91992 -1.05342 0
M  V30 6854 H 681.175 -4.66846 1.31451 0
M  V30 6855 H 677.054 -4.60913 0.0897357 0
M  V30 6856 H 680.598 -6.2307 3.13734 0
M  V30 6857 H 676.495 -6.16771 1.90429 0
M  V30 6858 H 677.263 -7.34337 3.61512 0
M  V30 6859 N 679.926 -0.151884 -1.56866 0
M  V30 6860 C 681.172 0.498742 -1.96572 0
M  V30 6861 C 681.505 1.64194 -1.03702 0
M  V30 6862 O 680.78 1.94334 -0.0803432 0
M  V30 6863 C 681.063 1.00027 -3.45929 0
M  V30 6864 C 680.916 -0.141767 -4.49577 0
M  V30 6865 C 682.235 1.88044 -3.97904 0
M  V30 6866 H 679.354 0.17982 -0.714726 0
M  V30 6867 H 681.996 -0.234097 -1.88552 0
M  V30 6868 H 680.146 1.62476 -3.52894 0
M  V30 6869 H 681.818 -0.778269 -4.54687 0
M  V30 6870 H 680.061 -0.80019 -4.26356 0
M  V30 6871 H 680.732 0.250947 -5.51429 0
M  V30 6872 H 683.208 1.35416 -3.93449 0
M  V30 6873 H 682.084 2.20043 -5.02864 0
M  V30 6874 H 682.345 2.81916 -3.40552 0
M  V30 6875 N 681.404 1.57128 0.121893 0
M  V30 6876 C 682.334 2.03165 1.15092 0
M  V30 6877 C 683.315 0.915587 1.43356 0
M  V30 6878 O 684.5 1.1851 1.53847 0
M  V30 6879 C 681.63 2.43352 2.47784 0
M  V30 6880 C 680.584 3.58376 2.33989 0
M  V30 6881 C 679.91 3.84454 3.71617 0
M  V30 6882 C 681.21 4.90199 1.80283 0
M  V30 6883 H 682.904 2.89382 0.768023 0
M  V30 6884 H 680.45 1.39218 0.367998 0
M  V30 6885 H 682.403 2.74163 3.20019 0
M  V30 6886 H 681.127 1.54103 2.87958 0
M  V30 6887 H 679.786 3.2777 1.64202 0
M  V30 6888 H 679.434 2.92414 4.09271 0
M  V30 6889 H 679.134 4.61877 3.6324 0
M  V30 6890 H 680.658 4.17714 4.45362 0
M  V30 6891 H 682.072 5.19565 2.42333 0
M  V30 6892 H 680.469 5.71601 1.82735 0
M  V30 6893 H 681.539 4.78904 0.760184 0
M  V30 6894 N 682.882 -0.391992 1.52647 0
M  V30 6895 C 684.159 -1.15136 1.58123 0
M  V30 6896 C 684.539 -2.07786 0.372597 0
M  V30 6897 O 683.887 -2.19374 -0.639304 0
M  V30 6898 C 684.097 -1.91367 2.91856 0
M  V30 6899 C 685.445 -2.46833 3.45483 0
M  V30 6900 O 686.469 -2.01527 2.9371 0
M  V30 6901 O 685.328 -3.29587 4.3593 0
M  V30 6902 H 682.422 -0.526649 0.637629 0
M  V30 6903 H 684.968 -0.397386 1.64982 0
M  V30 6904 H 683.74 -1.23597 3.71268 0
M  V30 6905 H 683.363 -2.73732 2.88369 0
M  V30 6906 N 684.36 -1.4356 -0.65026 0
M  V30 6907 C 685.776 -1.27025 -0.966269 0
M  V30 6908 C 685.976 -0.192117 -2.00582 0
M  V30 6909 O 685.032 0.428459 -2.48838 0
M  V30 6910 C 686.345 -2.63556 -1.44772 0
M  V30 6911 C 687.893 -2.71111 -1.56421 0
M  V30 6912 C 688.368 -4.08067 -2.07956 0
M  V30 6913 N 689.859 -4.10146 -2.15254 0
M  V30 6914 C 690.594 -5.12952 -2.56258 0
M  V30 6915 N 690.09 -6.26129 -2.96537 0
M  V30 6916 N 691.883 -5.00306 -2.56224 0
M  V30 6917 H 684.034 -2.12367 0.0375758 0
M  V30 6918 H 686.297 -0.946894 -0.0457782 0
M  V30 6919 H 686.003 -3.43429 -0.758271 0
M  V30 6920 H 685.877 -2.89152 -2.42221 0
M  V30 6921 H 688.264 -1.91569 -2.24467 0
M  V30 6922 H 688.345 -2.49277 -0.573967 0
M  V30 6923 H 687.989 -4.88077 -1.40511 0
M  V30 6924 H 687.919 -4.27266 -3.07817 0
M  V30 6925 H 690.41 -3.28453 -1.86887 0
M  V30 6926 H 690.723 -7.00403 -3.26582 0
M  V30 6927 H 689.068 -6.29597 -2.94334 0
M  V30 6928 H 692.259 -4.10952 -2.24135 0
M  V30 6929 H 692.432 -5.80553 -2.87857 0
M  V30 6930 N 685.838 0.888903 -1.30139 0
M  V30 6931 C 686.77 1.99972 -1.11999 0
M  V30 6932 C 687.783 1.62673 -0.0643619 0
M  V30 6933 O 688.972 1.75788 -0.309983 0
M  V30 6934 C 686.072 3.31904 -0.685059 0
M  V30 6935 C 685.245 3.97665 -1.82158 0
M  V30 6936 C 684.304 5.07894 -1.37585 0
M  V30 6937 O 683.33 5.2974 -2.08241 0
M  V30 6938 N 684.532 5.7995 -0.252697 0
M  V30 6939 H 687.297 2.16085 -2.07671 0
M  V30 6940 H 684.858 1.06175 -1.22223 0
M  V30 6941 H 686.85 4.03005 -0.369964 0
M  V30 6942 H 685.42 3.12084 0.179507 0
M  V30 6943 H 684.64 3.19787 -2.305 0
M  V30 6944 H 685.928 4.3834 -2.58332 0
M  V30 6945 H 685.326 5.647 0.336141 0
M  V30 6946 H 683.883 6.518 0.00296813 0
M  V30 6947 N 687.317 1.12792 1.10072 0
M  V30 6948 C 688.264 0.79921 2.16521 0
M  V30 6949 C 689.234 -0.235726 1.64419 0
M  V30 6950 O 690.419 -0.109457 1.90486 0
M  V30 6951 C 687.559 0.264091 3.44088 0
M  V30 6952 C 686.672 1.35729 4.10124 0
M  V30 6953 C 685.807 0.781212 5.25424 0
M  V30 6954 C 684.846 1.85327 5.8337 0
M  V30 6955 N 683.983 1.29564 6.90042 0
M  V30 6956 H 688.823 1.71105 2.43981 0
M  V30 6957 H 686.36 0.854225 1.19756 0
M  V30 6958 H 688.318 -0.0642423 4.17151 0
M  V30 6959 H 686.948 -0.610901 3.16967 0
M  V30 6960 H 686 1.80234 3.34993 0
M  V30 6961 H 687.312 2.16782 4.4923 0
M  V30 6962 H 686.466 0.403769 6.05355 0
M  V30 6963 H 685.205 -0.0604686 4.87663 0
M  V30 6964 H 684.21 2.23986 5.02106 0
M  V30 6965 H 685.435 2.69824 6.23195 0
M  V30 6966 H 683.381 0.475844 6.54272 0
M  V30 6967 H 683.298 2.04271 7.2788 0
M  V30 6968 H 684.566 0.945545 7.73744 0
M  V30 6969 N 688.795 -1.27931 0.920396 0
M  V30 6970 C 690.044 -1.93975 0.552867 0
M  V30 6971 C 690.357 -1.73193 -0.909035 0
M  V30 6972 O 691.563 -2.33515 -1.38502 0
M  V30 6973 C 690.019 -3.47463 0.937947 0
M  V30 6974 C 689.627 -3.77013 2.42003 0
M  V30 6975 C 691.371 -4.19628 0.64132 0
M  V30 6976 C 689.278 -5.23841 2.74489 0
M  V30 6977 H 688.208 -0.726146 0.203046 0
M  V30 6978 H 690.859 -1.45339 1.12022 0
M  V30 6979 H 689.241 -3.94867 0.299317 0
M  V30 6980 H 690.415 -3.40393 3.10595 0
M  V30 6981 H 688.73 -3.18035 2.6878 0
M  V30 6982 H 691.327 -5.27729 0.860622 0
M  V30 6983 H 691.67 -4.14164 -0.421168 0
M  V30 6984 H 692.203 -3.78022 1.23872 0
M  V30 6985 H 688.942 -5.34388 3.79618 0
M  V30 6986 H 688.462 -5.61634 2.1054 0
M  V30 6987 H 690.141 -5.91647 2.61845 0
M  V30 6988 N 690.273 -0.685099 -1.4193 0
M  V30 6989 C 691.236 -0.0222632 -2.29189 0
M  V30 6990 C 692.236 0.7186 -1.4385 0
M  V30 6991 O 693.426 0.555058 -1.6512 0
M  V30 6992 C 690.558 0.979013 -3.2654 0
M  V30 6993 H 691.751 -0.790424 -2.89296 0
M  V30 6994 H 689.304 -0.448012 -1.49742 0
M  V30 6995 H 690.039 1.77531 -2.71392 0
M  V30 6996 H 689.824 0.451037 -3.89497 0
M  V30 6997 H 691.314 1.44091 -3.91954 0
M  V30 6998 N 691.751 1.51645 -0.429126 0
M  V30 6999 C 693.162 1.86665 0.0359003 0
M  V30 7000 C 693.513 1.34677 1.42676 0
M  V30 7001 O 692.638 0.694195 2.04963 0
M  V30 7002 C 693.233 3.38724 0.0719221 0
M  V30 7003 C 691.792 3.7331 0.481336 0
M  V30 7004 C 690.939 2.75313 -0.331329 0
M  V30 7005 H 693.89 1.44987 -0.645333 0
M  V30 7006 H 693.911 3.7011 0.883118 0
M  V30 7007 H 693.423 3.76532 -0.940495 0
M  V30 7008 H 691.524 3.41088 1.49966 0
M  V30 7009 H 691.637 4.78631 0.211837 0
M  V30 7010 H 690.001 2.53839 0.209204 0
M  V30 7011 H 690.784 3.15963 -1.34247 0
M  V30 7012 N 693.229 0.160201 1.56784 0
M  V30 7013 C 694.159 -0.770264 2.2043 0
M  V30 7014 C 695.14 -1.24736 1.15651 0
M  V30 7015 O 696.325 -1.30253 1.44041 0
M  V30 7016 C 693.455 -2.00427 2.83631 0
M  V30 7017 C 692.409 -1.66345 3.94352 0
M  V30 7018 C 691.735 -2.97119 4.4455 0
M  V30 7019 C 693.035 -0.899972 5.14488 0
M  V30 7020 H 694.729 -0.239783 2.98438 0
M  V30 7021 H 692.275 -0.113891 1.43549 0
M  V30 7022 H 694.228 -2.66012 3.26827 0
M  V30 7023 H 692.952 -2.5587 2.02973 0
M  V30 7024 H 691.611 -1.03133 3.51794 0
M  V30 7025 H 691.259 -3.5058 3.60698 0
M  V30 7026 H 690.959 -2.75073 5.19238 0
M  V30 7027 H 692.483 -3.63753 4.90425 0
M  V30 7028 H 693.897 -1.45818 5.54446 0
M  V30 7029 H 692.294 -0.778968 5.95023 0
M  V30 7030 H 693.364 0.105827 4.84785 0
M  V30 7031 N 694.707 -1.5719 -0.113559 0
M  V30 7032 C 695.935 -1.89328 -0.834422 0
M  V30 7033 C 696.35 -0.752018 -1.73177 0
M  V30 7034 O 695.707 0.276912 -1.80387 0
M  V30 7035 C 695.758 -3.20962 -1.66329 0
M  V30 7036 O 695.479 -4.30695 -0.802069 0
M  V30 7037 C 696.98 -3.6684 -2.48884 0
M  V30 7038 H 694.2 -0.626769 -0.239587 0
M  V30 7039 H 696.744 -2.04273 -0.0963195 0
M  V30 7040 H 694.899 -3.0767 -2.35409 0
M  V30 7041 H 695.313 -5.06175 -1.37431 0
M  V30 7042 H 696.787 -4.61692 -3.02563 0
M  V30 7043 H 697.264 -2.93765 -3.26495 0
M  V30 7044 H 697.87 -3.82938 -1.85036 0
M  V30 7045 N 696.185 0.383891 -1.52853 0
M  V30 7046 C 697.462 1.14296 -1.58732 0
M  V30 7047 C 697.842 2.07585 -0.383611 0
M  V30 7048 O 697.19 2.1971 0.627661 0
M  V30 7049 C 697.4 1.89816 -2.92867 0
M  V30 7050 C 698.748 2.44998 -3.46787 0
M  V30 7051 O 699.772 1.99966 -2.94774 0
M  V30 7052 O 698.631 3.2727 -4.37672 0
M  V30 7053 H 695.725 0.52326 -0.640413 0
M  V30 7054 H 698.271 0.388631 -1.6519 0
M  V30 7055 H 697.043 1.21626 -3.71918 0
M  V30 7056 H 696.666 2.72199 -2.89816 0
M  V30 7057 N 697.663 1.43903 0.642637 0
M  V30 7058 C 698.595 1.45857 1.768 0
M  V30 7059 C 699.608 0.353358 1.58919 0
M  V30 7060 O 700.797 0.618426 1.67445 0
M  V30 7061 C 697.897 1.26583 3.14372 0
M  V30 7062 C 697.07 2.50139 3.58817 0
M  V30 7063 C 696.129 2.25933 4.75227 0
M  V30 7064 O 695.155 2.99351 4.84125 0
M  V30 7065 N 696.357 1.28263 5.66153 0
M  V30 7066 H 699.122 2.42869 1.75598 0
M  V30 7067 H 696.683 1.39194 0.826832 0
M  V30 7068 H 698.675 1.08255 3.89953 0
M  V30 7069 H 697.245 0.37978 3.10284 0
M  V30 7070 H 696.465 2.83821 2.73568 0
M  V30 7071 H 697.753 3.32344 3.8526 0
M  V30 7072 H 697.151 0.676041 5.61646 0
M  V30 7073 H 695.708 1.15916 6.4141 0
M  V30 7074 N 699.141 -0.881989 1.30609 0
M  V30 7075 C 700.389 -1.63082 1.19368 0
M  V30 7076 C 700.71 -1.93376 -0.251147 0
M  V30 7077 O 699.98 -1.5723 -1.16857 0
M  V30 7078 H 698.56 -0.604542 0.438791 0
M  V30 7079 H 701.222 -1.05658 1.63776 0
M  V30 7080 H 700.318 -2.57966 1.7567 0
M  V30 7081 N 700.619 -1.13374 -1.09472 0
M  V30 7082 C 701.868 -0.889844 -1.8101 0
M  V30 7083 C 702.181 0.585686 -1.86625 0
M  V30 7084 O 703.387 0.946497 -2.54467 0
M  V30 7085 C 701.843 -1.54241 -3.25174 0
M  V30 7086 C 701.451 -3.05343 -3.27826 0
M  V30 7087 C 703.195 -1.37919 -4.0147 0
M  V30 7088 C 701.102 -3.63486 -4.6651 0
M  V30 7089 H 700.032 -0.329256 -0.678311 0
M  V30 7090 H 702.683 -1.36139 -1.23038 0
M  V30 7091 H 701.065 -0.998525 -3.83204 0
M  V30 7092 H 702.239 -3.66307 -2.79563 0
M  V30 7093 H 700.554 -3.21175 -2.65019 0
M  V30 7094 H 703.151 -1.78771 -5.03929 0
M  V30 7095 H 703.494 -0.323987 -4.15037 0
M  V30 7096 H 704.027 -1.89284 -3.49881 0
M  V30 7097 H 700.766 -4.68811 -4.58145 0
M  V30 7098 H 700.286 -3.073 -5.15099 0
M  V30 7099 H 701.965 -3.63134 -5.35484 0
M  V30 7100 N 702.098 1.27442 -0.927168 0
M  V30 7101 C 703.061 2.2512 -0.430525 0
M  V30 7102 C 704.061 1.54357 0.450619 0
M  V30 7103 O 705.251 1.72371 0.251774 0
M  V30 7104 C 702.383 3.38763 0.381144 0
M  V30 7105 H 703.576 2.70569 -1.29354 0
M  V30 7106 H 701.129 1.39355 -0.707806 0
M  V30 7107 H 701.864 2.98695 1.263 0
M  V30 7108 H 701.649 3.91298 -0.250618 0
M  V30 7109 H 703.139 4.11364 0.719012 0
M  V30 7110 N 703.576 0.692616 1.41565 0
M  V30 7111 C 704.539 0.0344174 2.29174 0
M  V30 7112 C 705.539 -0.710961 1.44229 0
M  V30 7113 O 706.729 -0.546293 1.65412 0
M  V30 7114 C 703.861 -0.961682 3.27054 0
M  V30 7115 H 705.054 0.805755 2.88873 0
M  V30 7116 H 702.607 0.455947 1.49502 0
M  V30 7117 H 703.342 -1.76089 2.72329 0
M  V30 7118 H 703.127 -0.430375 3.89731 0
M  V30 7119 H 704.617 -1.4201 3.92712 0
M  V30 7120 N 705.054 -1.51416 0.437162 0
M  V30 7121 C 706.017 -2.26312 -0.362729 0
M  V30 7122 C 707.017 -1.29748 -0.949847 0
M  V30 7123 O 708.207 -1.53462 -0.824325 0
M  V30 7124 C 705.339 -3.05475 -1.5132 0
M  V30 7125 H 706.532 -2.98459 0.29365 0
M  V30 7126 H 704.085 -1.55137 0.190327 0
M  V30 7127 H 704.82 -2.37744 -2.20563 0
M  V30 7128 H 704.605 -3.76401 -1.09838 0
M  V30 7129 H 706.095 -3.62209 -2.07833 0
M  V30 7130 N 706.532 -0.168513 -1.56696 0
M  V30 7131 C 707.465 0.801477 -2.13662 0
M  V30 7132 C 708.443 1.22786 -1.06594 0
M  V30 7133 O 709.627 1.32014 -1.34554 0
M  V30 7134 C 706.754 2.07896 -2.6739 0
M  V30 7135 C 705.8 1.79681 -3.86803 0
M  V30 7136 S 706.633 0.968556 -5.26668 0
M  V30 7137 C 707.789 2.25676 -5.83799 0
M  V30 7138 H 708.022 0.317121 -2.95604 0
M  V30 7139 H 705.555 0.0461132 -1.54331 0
M  V30 7140 H 707.513 2.81272 -2.98992 0
M  V30 7141 H 706.174 2.53445 -1.85539 0
M  V30 7142 H 705.367 2.74461 -4.22714 0
M  V30 7143 H 704.969 1.14402 -3.56073 0
M  V30 7144 H 707.261 3.2116 -5.96542 0
M  V30 7145 H 708.204 1.94238 -6.80939 0
M  V30 7146 H 708.612 2.37308 -5.12197 0
M  V30 7147 N 708.01 1.57248 0.105221 0
M  V30 7148 C 709.235 1.90143 0.828264 0
M  V30 7149 C 709.66 0.761811 1.71983 0
M  V30 7150 O 709.018 -0.287086 1.79013 0
M  V30 7151 C 709.066 3.21856 1.62608 0
M  V30 7152 O 708.17 3.08732 2.7342 0
M  V30 7153 H 707.511 0.623558 0.228192 0
M  V30 7154 H 710.041 2.0443 0.0834826 0
M  V30 7155 H 710.051 3.54916 2.01243 0
M  V30 7156 H 708.726 4.0439 0.971687 0
M  V30 7157 H 707.303 2.87167 2.37886 0
M  V30 7158 N 709.488 -0.375779 1.53054 0
M  V30 7159 C 710.713 -1.14484 1.7294 0
M  V30 7160 C 711.138 -1.82572 0.452668 0
M  V30 7161 O 710.496 -1.71343 -0.592567 0
M  V30 7162 C 710.544 -2.15857 2.88857 0
M  V30 7163 O 709.648 -3.22725 2.56753 0
M  V30 7164 H 708.989 -0.332666 0.574656 0
M  V30 7165 H 711.519 -0.436025 1.999 0
M  V30 7166 H 711.529 -2.59631 3.14731 0
M  V30 7167 H 710.204 -1.65689 3.81471 0
M  V30 7168 H 708.781 -2.83996 2.41663 0
M  V30 7169 N 710.966 -1.44241 -0.634997 0
M  V30 7170 C 711.929 -1.50457 -1.72903 0
M  V30 7171 C 712.929 -0.387058 -1.56072 0
M  V30 7172 O 714.119 -0.649531 -1.61638 0
M  V30 7173 C 711.251 -1.37477 -3.1195 0
M  V30 7174 H 712.444 -2.47907 -1.68767 0
M  V30 7175 H 709.997 -1.31276 -0.84831 0
M  V30 7176 H 710.732 -0.41106 -3.21684 0
M  V30 7177 H 710.517 -2.18506 -3.25573 0
M  V30 7178 H 712.007 -1.44799 -3.91692 0
M  V30 7179 N 712.444 0.87505 -1.31075 0
M  V30 7180 C 713.693 1.62245 -1.19831 0
M  V30 7181 C 714.006 1.94078 0.24357 0
M  V30 7182 O 715.212 2.67265 0.477646 0
M  V30 7183 C 713.668 2.92464 -2.09744 0
M  V30 7184 C 713.276 2.68134 -3.58898 0
M  V30 7185 C 715.02 3.70449 -2.07287 0
M  V30 7186 C 712.927 3.9423 -4.40836 0
M  V30 7187 H 711.857 0.608741 -0.444916 0
M  V30 7188 H 714.508 0.967947 -1.55894 0
M  V30 7189 H 712.89 3.59262 -1.66574 0
M  V30 7190 H 714.064 2.09776 -4.10281 0
M  V30 7191 H 712.379 2.03511 -3.6328 0
M  V30 7192 H 714.976 4.63983 -2.65752 0
M  V30 7193 H 715.319 4.02611 -1.05876 0
M  V30 7194 H 715.852 3.10528 -2.48631 0
M  V30 7195 H 712.591 3.67221 -5.42982 0
M  V30 7196 H 712.111 4.52058 -3.94213 0
M  V30 7197 H 713.79 4.62162 -4.52786 0
M  V30 7198 N 713.922 1.13953 1.08869 0
M  V30 7199 C 714.854 0.779906 2.15523 0
M  V30 7200 C 715.867 -0.20102 1.61554 0
M  V30 7201 O 717.056 0.0200049 1.78489 0
M  V30 7202 C 714.156 0.136226 3.38626 0
M  V30 7203 C 713.329 1.15069 4.21993 0
M  V30 7204 C 712.388 0.531645 5.23507 0
M  V30 7205 O 711.414 1.19327 5.56552 0
M  V30 7206 N 712.616 -0.693734 5.7634 0
M  V30 7207 H 715.381 1.69769 2.46979 0
M  V30 7208 H 712.942 1.03331 1.24637 0
M  V30 7209 H 714.934 -0.290295 4.03658 0
M  V30 7210 H 713.504 -0.684603 3.05011 0
M  V30 7211 H 712.724 1.75431 3.53012 0
M  V30 7212 H 714.012 1.83614 4.74514 0
M  V30 7213 H 713.41 -1.24994 5.51718 0
M  V30 7214 H 711.967 -1.06283 6.43076 0
M  V30 7215 N 715.4 -1.26948 0.933913 0
M  V30 7216 C 716.811 -1.76058 0.621324 0
M  V30 7217 C 717.162 -1.76175 -0.863522 0
M  V30 7218 O 716.287 -1.36921 -1.67576 0
M  V30 7219 C 716.882 -3.19713 1.12111 0
M  V30 7220 C 715.441 -3.66465 0.859074 0
M  V30 7221 C 714.588 -2.46186 1.27624 0
M  V30 7222 H 717.539 -1.13127 1.11301 0
M  V30 7223 H 717.56 -3.77566 0.471608 0
M  V30 7224 H 717.072 -3.19596 2.20182 0
M  V30 7225 H 715.173 -3.72021 -0.207566 0
M  V30 7226 H 715.286 -4.55636 1.48098 0
M  V30 7227 H 713.65 -2.45042 0.694727 0
M  V30 7228 H 714.433 -2.48774 2.36572 0
M  V30 7229 N 716.879 -0.700114 -1.41195 0
M  V30 7230 C 717.809 -0.0521132 -2.33442 0
M  V30 7231 C 718.79 0.76228 -1.52063 0
M  V30 7232 O 719.975 0.714336 -1.80585 0
M  V30 7233 C 717.105 0.881693 -3.35922 0
M  V30 7234 C 716.059 0.174062 -4.27646 0
M  V30 7235 C 715.385 1.22254 -5.20536 0
M  V30 7236 C 716.685 -0.962396 -5.13357 0
M  V30 7237 H 718.379 -0.822574 -2.87879 0
M  V30 7238 H 715.925 -0.397011 -1.38419 0
M  V30 7239 H 717.878 1.34429 -3.99383 0
M  V30 7240 H 716.602 1.68387 -2.79845 0
M  V30 7241 H 715.261 -0.268551 -3.65615 0
M  V30 7242 H 714.909 2.01736 -4.60773 0
M  V30 7243 H 714.609 0.754038 -5.82742 0
M  V30 7244 H 716.133 1.68555 -5.86874 0
M  V30 7245 H 717.547 -0.579875 -5.7036 0
M  V30 7246 H 715.944 -1.35828 -5.84526 0
M  V30 7247 H 717.014 -1.80003 -4.50252 0
M  V30 7248 N 718.357 1.51182 -0.445186 0
M  V30 7249 C 719.603 2.02452 0.11882 0
M  V30 7250 C 719.936 1.32824 1.41673 0
M  V30 7251 O 719.211 0.445637 1.89326 0
M  V30 7252 C 719.494 3.5859 0.329475 0
M  V30 7253 C 719.347 4.38823 -0.987638 0
M  V30 7254 C 720.666 4.26241 1.09575 0
M  V30 7255 H 717.785 0.735819 0.0417092 0
M  V30 7256 H 720.427 1.80747 -0.585718 0
M  V30 7257 H 718.577 3.77214 0.9296 0
M  V30 7258 H 720.249 4.3183 -1.62235 0
M  V30 7259 H 718.492 4.03594 -1.59041 0
M  V30 7260 H 719.163 5.46257 -0.794192 0
M  V30 7261 H 721.639 4.11934 0.587328 0
M  V30 7262 H 720.515 5.35354 1.21191 0
M  V30 7263 H 720.776 3.87635 2.12584 0
M  V30 7264 N 719.835 0.176821 1.56605 0
M  V30 7265 C 720.768 -0.790135 2.14084 0
M  V30 7266 C 721.746 -1.22219 1.07244 0
M  V30 7267 O 722.93 -1.31298 1.35252 0
M  V30 7268 C 720.057 -2.06475 2.68488 0
M  V30 7269 C 719.103 -1.77628 3.87751 0
M  V30 7270 S 719.936 -0.940612 5.27174 0
M  V30 7271 C 721.092 -2.22577 5.84988 0
M  V30 7272 H 721.325 -0.30144 2.95768 0
M  V30 7273 H 718.858 -0.0379279 1.54353 0
M  V30 7274 H 720.816 -2.79683 3.00479 0
M  V30 7275 H 719.477 -2.52457 1.8688 0
M  V30 7276 H 718.67 -2.72215 4.24164 0
M  V30 7277 H 718.272 -1.12512 3.56675 0
M  V30 7278 H 720.564 -3.17992 5.98237 0
M  V30 7279 H 721.507 -1.90624 6.81959 0
M  V30 7280 H 721.915 -2.34588 5.13448 0
M  V30 7281 N 721.313 -1.57302 -0.09688 0
M  V30 7282 C 722.276 -2.00976 -1.10188 0
M  V30 7283 C 723.276 -0.903009 -1.3305 0
M  V30 7284 O 724.466 -1.16853 -1.29194 0
M  V30 7285 C 721.598 -2.36893 -2.45142 0
M  V30 7286 H 722.791 -2.9098 -0.726003 0
M  V30 7287 H 720.344 -1.52515 -0.341872 0
M  V30 7288 H 721.079 -1.49837 -2.8761 0
M  V30 7289 H 720.864 -3.17632 -2.29897 0
M  V30 7290 H 722.354 -2.71345 -3.1743 0
M  V30 7291 N 722.791 0.367657 -1.53252 0
M  V30 7292 C 724.037 1.11216 -1.69584 0
M  V30 7293 C 724.37 1.89026 -0.445269 0
M  V30 7294 O 723.645 1.86342 0.557404 0
M  V30 7295 C 723.928 2.07308 -2.94441 0
M  V30 7296 C 723.781 1.3312 -4.2965 0
M  V30 7297 C 725.1 3.07459 -3.14892 0
M  V30 7298 H 722.219 0.40294 -0.617096 0
M  V30 7299 H 724.861 0.393201 -1.85887 0
M  V30 7300 H 723.011 2.68617 -2.80673 0
M  V30 7301 H 724.683 0.746111 -4.55226 0
M  V30 7302 H 722.926 0.633051 -4.29156 0
M  V30 7303 H 723.597 2.03443 -5.13142 0
M  V30 7304 H 726.073 2.56252 -3.27832 0
M  V30 7305 H 724.949 3.71919 -4.03693 0
M  V30 7306 H 725.21 3.77514 -2.30077 0
M  V30 7307 N 724.269 1.44576 0.627338 0
M  V30 7308 C 725.515 1.47777 1.38888 0
M  V30 7309 C 725.848 0.111406 1.9388 0
M  V30 7310 O 725.123 -0.87149 1.73883 0
M  V30 7311 C 725.406 2.54119 2.55138 0
M  V30 7312 C 725.259 4.00128 2.0547 0
M  V30 7313 C 726.578 2.56929 3.57317 0
M  V30 7314 H 723.697 0.538048 0.50366 0
M  V30 7315 H 726.339 1.76277 0.708978 0
M  V30 7316 H 724.489 2.29948 3.13139 0
M  V30 7317 H 726.161 4.35444 1.5227 0
M  V30 7318 H 724.404 4.11724 1.36623 0
M  V30 7319 H 725.075 4.7019 2.89181 0
M  V30 7320 H 727.551 2.78536 3.09122 0
M  V30 7321 H 726.427 3.33234 4.36173 0
M  V30 7322 H 726.688 1.6127 4.11636 0
M  V30 7323 N 725.747 -0.868086 1.31537 0
M  V30 7324 C 726.695 -1.99688 1.1928 0
M  V30 7325 C 727.689 -1.69101 0.100656 0
M  V30 7326 O 728.895 -1.78073 0.262677 0
M  V30 7327 H 725.27 -0.655032 0.369374 0
M  V30 7328 H 727.241 -2.07157 2.14776 0
M  V30 7329 C 725.99 -3.35338 0.918892 0
M  V30 7330 H 725.313 -3.59396 1.75142 0
M  V30 7331 H 726.753 -4.14909 0.873311 0
M  V30 7332 C 725.212 -3.34769 -0.378366 0
M  V30 7333 O 725.742 -3.76716 -1.39456 0
M  V30 7334 N 723.948 -2.87895 -0.39557 0
M  V30 7335 H 723.495 -2.53954 0.431889 0
M  V30 7336 H 723.453 -2.87897 -1.26344 0
M  V30 7337 N 727.225 -1.14528 -1.08264 0
M  V30 7338 C 728.641 -0.885976 -1.3275 0
M  V30 7339 C 728.841 0.472096 -1.95892 0
M  V30 7340 O 727.897 1.21606 -2.21288 0
M  V30 7341 C 729.21 -2.01982 -2.22764 0
M  V30 7342 C 730.758 -2.05329 -2.36239 0
M  V30 7343 C 731.233 -3.1801 -3.29596 0
M  V30 7344 N 732.724 -3.17598 -3.37173 0
M  V30 7345 C 733.459 -4.01426 -4.09444 0
M  V30 7346 N 732.955 -4.95297 -4.8441 0
M  V30 7347 N 734.748 -3.89482 -4.0529 0
M  V30 7348 H 726.899 -2.01996 -0.656607 0
M  V30 7349 H 729.162 -0.880274 -0.351884 0
M  V30 7350 H 728.868 -2.99964 -1.83615 0
M  V30 7351 H 728.742 -1.94421 -3.23234 0
M  V30 7352 H 731.129 -1.07953 -2.74646 0
M  V30 7353 H 731.21 -2.1696 -1.35506 0
M  V30 7354 H 730.854 -4.15633 -2.9191 0
M  V30 7355 H 730.784 -3.03616 -4.30261 0
M  V30 7356 H 733.275 -2.4961 -2.83731 0
M  V30 7357 H 733.588 -5.55723 -5.37021 0
M  V30 7358 H 731.933 -4.99293 -4.83457 0
M  V30 7359 H 735.124 -3.15465 -3.45832 0
M  V30 7360 H 735.297 -4.55039 -4.6135 0
M  V30 7361 N 728.703 1.26451 -0.940633 0
M  V30 7362 C 729.613 2.30128 -0.455881 0
M  V30 7363 C 730.629 1.67536 0.469867 0
M  V30 7364 O 731.805 1.98344 0.349529 0
M  V30 7365 C 728.87 3.45634 0.271648 0
M  V30 7366 C 727.931 4.23709 -0.690594 0
M  V30 7367 C 727.164 5.337 0.00231047 0
M  V30 7368 O 727.387 5.57215 1.21935 0
M  V30 7369 O 726.321 5.98091 -0.676111 0
M  V30 7370 H 730.147 2.73655 -1.31707 0
M  V30 7371 H 727.732 1.3164 -0.706497 0
M  V30 7372 H 729.614 4.15853 0.681486 0
M  V30 7373 H 728.289 3.04138 1.10824 0
M  V30 7374 H 727.196 3.55974 -1.15037 0
M  V30 7375 H 728.529 4.68953 -1.49478 0
M  V30 7376 N 730.181 0.707592 1.40822 0
M  V30 7377 C 731.597 0.38034 1.55002 0
M  V30 7378 C 731.797 -1.11163 1.68062 0
M  V30 7379 O 730.853 -1.89761 1.66574 0
M  V30 7380 C 732.166 1.1394 2.78277 0
M  V30 7381 C 733.714 1.12492 2.92087 0
M  V30 7382 C 734.189 1.86597 4.18265 0
M  V30 7383 N 735.68 1.83626 4.25248 0
M  V30 7384 C 736.415 2.37794 5.21768 0
M  V30 7385 N 735.911 3.00485 6.24244 0
M  V30 7386 N 737.704 2.27982 5.13791 0
M  V30 7387 H 729.855 1.67511 1.3059 0
M  V30 7388 H 732.118 0.707579 0.630901 0
M  V30 7389 H 731.824 2.19398 2.74877 0
M  V30 7390 H 731.698 0.725793 3.70151 0
M  V30 7391 H 734.085 0.0785564 2.94995 0
M  V30 7392 H 734.166 1.57768 2.01353 0
M  V30 7393 H 733.81 2.91219 4.16118 0
M  V30 7394 H 733.74 1.38746 5.07993 0
M  V30 7395 H 736.231 1.3793 3.51829 0
M  V30 7396 H 736.544 3.39355 6.94304 0
M  V30 7397 H 734.889 3.04567 6.24711 0
M  V30 7398 H 738.08 1.78669 4.3266 0
M  V30 7399 H 738.253 2.70499 5.88841 0
M  V30 7400 N 731.66 -1.50943 0.453197 0
M  V30 7401 C 732.937 -1.94872 -0.168633 0
M  V30 7402 C 733.317 -1.39272 -1.5864 0
M  V30 7403 O 732.665 -0.586272 -2.20851 0
M  V30 7404 C 732.875 -3.48757 -0.130217 0
M  V30 7405 C 734.223 -4.23331 -0.327975 0
M  V30 7406 O 735.247 -3.55594 -0.207619 0
M  V30 7407 O 734.106 -5.43529 -0.569077 0
M  V30 7408 H 731.2 -0.818042 -0.121394 0
M  V30 7409 H 733.746 -1.61782 0.512316 0
M  V30 7410 H 732.518 -3.81725 0.860346 0
M  V30 7411 H 732.141 -3.88333 -0.853397 0
M  V30 7412 N 733.138 -0.185124 -1.56509 0
M  V30 7413 C 734.386 0.455357 -1.96903 0
M  V30 7414 C 734.707 1.62839 -1.07277 0
M  V30 7415 O 733.977 1.95385 -0.141966 0
M  V30 7416 H 732.557 0.171218 -0.727113 0
M  V30 7417 H 735.219 -0.26953 -1.93027 0
M  V30 7418 H 734.315 0.80616 -3.01509 0
M  V30 7419 N 734.616 1.57351 0.0885366 0
M  V30 7420 C 735.548 1.99221 1.13329 0
M  V30 7421 C 736.561 0.895705 1.35945 0
M  V30 7422 O 737.75 1.17376 1.34481 0
M  V30 7423 C 734.85 2.3016 2.48756 0
M  V30 7424 C 734.023 3.61444 2.46327 0
M  V30 7425 C 733.082 3.80244 3.63732 0
M  V30 7426 O 732.108 4.52024 3.45924 0
M  V30 7427 N 733.31 3.2132 4.8346 0
M  V30 7428 H 736.075 2.89456 0.776862 0
M  V30 7429 H 733.636 1.59505 0.277428 0
M  V30 7430 H 735.628 2.39925 3.25911 0
M  V30 7431 H 734.198 1.459 2.76464 0
M  V30 7432 H 733.418 3.62588 1.54673 0
M  V30 7433 H 734.706 4.47678 2.41789 0
M  V30 7434 H 734.104 2.63028 5.00832 0
M  V30 7435 H 732.661 3.3656 5.58185 0
M  V30 7436 N 736.094 -0.359525 1.53444 0
M  V30 7437 C 737.322 -1.12198 1.73837 0
M  V30 7438 C 737.737 -1.82854 0.470107 0
M  V30 7439 O 737.094 -1.73781 -0.557349 0
M  V30 7440 C 737.145 -2.14769 2.90786 0
M  V30 7441 O 736.866 -1.46989 4.12706 0
M  V30 7442 C 738.367 -3.03514 3.231 0
M  V30 7443 H 735.587 -0.33524 0.581253 0
M  V30 7444 H 738.131 -0.416598 2.00212 0
M  V30 7445 H 736.286 -2.80896 2.66788 0
M  V30 7446 H 736.7 -2.15378 4.78239 0
M  V30 7447 H 738.174 -3.71453 4.08322 0
M  V30 7448 H 738.651 -3.68658 2.38721 0
M  V30 7449 H 739.257 -2.42996 3.49046 0
M  V30 7450 N 737.572 -1.44907 -0.619662 0
M  V30 7451 C 738.82 -1.47999 -1.37625 0
M  V30 7452 C 739.141 -0.118295 -1.94641 0
M  V30 7453 O 738.411 0.85086 -1.76457 0
M  V30 7454 H 736.991 -0.544993 -0.510873 0
M  V30 7455 H 739.653 -1.80772 -0.728522 0
M  V30 7456 H 738.749 -2.21196 -2.20179 0
M  V30 7457 N 739.05 0.861098 -1.31996 0
M  V30 7458 C 740.275 1.65264 -1.2531 0
M  V30 7459 C 740.7 1.87265 0.177007 0
M  V30 7460 O 740.058 1.4208 1.12619 0
M  V30 7461 C 740.106 2.99284 -2.0115 0
M  V30 7462 O 739.21 3.89508 -1.3549 0
M  V30 7463 H 738.551 0.50409 -0.432192 0
M  V30 7464 H 741.081 1.07297 -1.74208 0
M  V30 7465 H 741.091 3.49154 -2.11081 0
M  V30 7466 H 739.766 2.82591 -3.05148 0
M  V30 7467 H 738.343 3.47966 -1.34066 0
M  V30 7468 N 740.528 1.15101 1.07655 0
M  V30 7469 C 741.776 0.922149 1.79836 0
M  V30 7470 C 742.097 -0.552346 1.87014 0
M  V30 7471 O 741.367 -1.40145 1.3688 0
M  V30 7472 H 739.947 0.338182 0.666064 0
M  V30 7473 H 742.609 1.45107 1.30115 0
M  V30 7474 H 741.705 1.32883 2.82398 0
M  V30 7475 N 742.006 -1.2595 0.947325 0
M  V30 7476 C 743.254 -1.93081 0.596996 0
M  V30 7477 C 743.575 -1.74632 -0.867672 0
M  V30 7478 O 742.845 -1.1056 -1.6172 0
M  V30 7479 H 741.425 -0.714542 0.217805 0
M  V30 7480 H 744.087 -1.53265 1.20398 0
M  V30 7481 H 743.183 -3.01134 0.82004 0
M  V30 7482 N 743.484 -0.715051 -1.40445 0
M  V30 7483 C 744.9 -0.388555 -1.54798 0
M  V30 7484 C 745.1 1.10271 -1.68649 0
M  V30 7485 O 744.156 1.88875 -1.67578 0
M  V30 7486 C 745.469 -1.15414 -2.77669 0
M  V30 7487 C 747.017 -1.14039 -2.91486 0
M  V30 7488 C 747.492 -1.88812 -4.1727 0
M  V30 7489 N 748.983 -1.85878 -4.24268 0
M  V30 7490 C 749.718 -2.40558 -5.20499 0
M  V30 7491 N 749.214 -3.03791 -6.22642 0
M  V30 7492 N 751.007 -2.30703 -5.12574 0
M  V30 7493 H 743.158 -1.68201 -1.297 0
M  V30 7494 H 745.421 -0.710915 -0.627139 0
M  V30 7495 H 745.127 -2.20853 -2.7371 0
M  V30 7496 H 745.001 -0.745412 -3.69761 0
M  V30 7497 H 747.388 -0.0941996 -2.9495 0
M  V30 7498 H 747.469 -1.58834 -2.00513 0
M  V30 7499 H 747.113 -2.93422 -4.14568 0
M  V30 7500 H 747.043 -1.41438 -5.0725 0
M  V30 7501 H 749.534 -1.39794 -3.51093 0
M  V30 7502 H 749.847 -3.43032 -6.92495 0
M  V30 7503 H 748.192 -3.07875 -6.23087 0
M  V30 7504 H 751.383 -1.80961 -4.31707 0
M  V30 7505 H 751.556 -2.73618 -5.87398 0
M  V30 7506 N 744.962 1.50701 -0.461195 0
M  V30 7507 C 745.925 2.2686 0.326679 0
M  V30 7508 C 746.925 1.31243 0.929085 0
M  V30 7509 O 748.115 1.54754 0.799807 0
M  V30 7510 C 745.247 3.07844 1.46441 0
M  V30 7511 H 746.44 2.97954 -0.341095 0
M  V30 7512 H 743.993 1.54814 -0.214984 0
M  V30 7513 H 744.728 2.41223 2.16753 0
M  V30 7514 H 744.513 3.78101 1.03836 0
M  V30 7515 H 746.003 3.65469 2.02044 0
M  V30 7516 N 746.441 0.193421 1.56409 0
M  V30 7517 C 747.857 -0.162447 1.58771 0
M  V30 7518 C 748.057 -1.6116 1.20954 0
M  V30 7519 O 747.113 -2.3469 0.931497 0
M  V30 7520 C 748.426 0.138391 3.00381 0
M  V30 7521 C 749.974 0.0783649 3.12902 0
M  V30 7522 C 750.449 0.352491 4.56642 0
M  V30 7523 N 751.94 0.30105 4.62221 0
M  V30 7524 C 752.675 0.487028 5.71328 0
M  V30 7525 N 752.171 0.733265 6.88909 0
M  V30 7526 N 753.964 0.4214 5.60518 0
M  V30 7527 H 746.115 1.13909 1.79272 0
M  V30 7528 H 748.378 0.454528 0.83193 0
M  V30 7529 H 748.084 1.14312 3.32604 0
M  V30 7530 H 747.958 -0.559804 3.73023 0
M  V30 7531 H 750.345 -0.916963 2.80492 0
M  V30 7532 H 750.426 0.809611 2.4265 0
M  V30 7533 H 750.07 1.34513 4.89764 0
M  V30 7534 H 750 -0.399624 5.25081 0
M  V30 7535 H 752.491 0.117279 3.77718 0
M  V30 7536 H 752.804 0.86403 7.67955 0
M  V30 7537 H 751.149 0.770138 6.9072 0
M  V30 7538 H 754.34 0.229461 4.67537 0
M  V30 7539 H 754.513 0.569758 6.4549 0
M  V30 7540 N 747.919 -1.57396 -0.0801906 0
M  V30 7541 C 749.167 -1.86467 -0.779384 0
M  V30 7542 C 749.488 -0.784243 -1.78535 0
M  V30 7543 O 748.758 0.187986 -1.94996 0
M  V30 7544 H 747.338 -0.68806 -0.29083 0
M  V30 7545 H 750 -1.94813 -0.0582749 0
M  V30 7546 H 749.096 -2.83701 -1.30078 0
M  V30 7547 N 749.397 0.351382 -1.53633 0
M  V30 7548 C 750.327 1.43688 -1.84055 0
M  V30 7549 C 751.308 1.55251 -0.695073 0
M  V30 7550 O 752.493 1.69587 -0.946257 0
M  V30 7551 C 749.623 2.80843 -2.04315 0
M  V30 7552 C 748.577 2.84094 -3.20117 0
M  V30 7553 C 747.903 4.2406 -3.25696 0
M  V30 7554 C 749.203 2.50334 -4.58399 0
M  V30 7555 H 750.897 1.18478 -2.74961 0
M  V30 7556 H 748.443 0.568509 -1.32303 0
M  V30 7557 H 750.396 3.56821 -2.2418 0
M  V30 7558 H 749.12 3.07471 -1.10132 0
M  V30 7559 H 747.779 2.10568 -3.00094 0
M  V30 7560 H 747.427 4.47785 -2.29123 0
M  V30 7561 H 747.127 4.27147 -4.03509 0
M  V30 7562 H 748.651 5.0189 -3.47762 0
M  V30 7563 H 750.065 3.16025 -4.78332 0
M  V30 7564 H 748.462 2.64717 -5.38558 0
M  V30 7565 H 749.532 1.45542 -4.62543 0
M  V30 7566 N 750.875 1.45233 0.611969 0
M  V30 7567 C 752.115 1.50558 1.38245 0
M  V30 7568 C 752.479 0.141959 1.91474 0
M  V30 7569 O 753.68 0.0698926 2.68709 0
M  V30 7570 C 751.951 2.55136 2.50281 0
M  V30 7571 S 753.51 2.79652 3.38142 0
M  V30 7572 H 750.328 0.532281 0.471378 0
M  V30 7573 H 752.93 1.82285 0.706578 0
M  V30 7574 H 751.634 3.52888 2.09518 0
M  V30 7575 H 751.165 2.25045 3.22674 0
M  V30 7576 H 753.18 2.12699 4.48301 0
M  V30 7577 N 752.353 -0.854086 1.3245 0
M  V30 7578 C 753.583 -1.63836 1.25862 0
M  V30 7579 C 753.991 -1.88383 -0.175588 0
M  V30 7580 O 753.334 -1.45353 -1.1233 0
M  V30 7581 C 753.396 -3.02068 1.94923 0
M  V30 7582 C 753.06 -3.0056 3.44257 0
M  V30 7583 C 754.057 -2.77368 4.39731 0
M  V30 7584 C 751.742 -3.21177 3.862 0
M  V30 7585 C 753.736 -2.74797 5.75122 0
M  V30 7586 C 751.423 -3.18234 5.217 0
M  V30 7587 C 752.421 -2.95072 6.15972 0
M  V30 7588 O 752.109 -2.92003 7.48992 0
M  V30 7589 H 751.841 -0.517007 0.435523 0
M  V30 7590 H 754.395 -1.07314 1.75137 0
M  V30 7591 H 752.625 -3.60382 1.40219 0
M  V30 7592 H 754.314 -3.62791 1.82037 0
M  V30 7593 H 755.08 -2.61205 4.08653 0
M  V30 7594 H 750.959 -3.38231 3.13243 0
M  V30 7595 H 754.503 -2.56638 6.48678 0
M  V30 7596 H 750.4 -3.33941 5.52407 0
M  V30 7597 H 751.168 -3.07953 7.58358 0
M  V30 7598 N 753.831 -1.1567 -1.07043 0
M  V30 7599 C 755.059 -0.957471 -1.83412 0
M  V30 7600 C 755.474 0.494271 -1.82215 0
M  V30 7601 O 754.831 1.34288 -1.23584 0
M  V30 7602 C 754.882 -1.46784 -3.30359 0
M  V30 7603 O 754.603 -2.86271 -3.31633 0
M  V30 7604 C 756.104 -1.31054 -4.23485 0
M  V30 7605 H 753.324 -0.33986 -0.578564 0
M  V30 7606 H 755.868 -1.53518 -1.35102 0
M  V30 7607 H 754.023 -0.932586 -3.76007 0
M  V30 7608 H 754.437 -3.0948 -4.23465 0
M  V30 7609 H 755.911 -1.71605 -5.24648 0
M  V30 7610 H 756.388 -0.255107 -4.38458 0
M  V30 7611 H 756.994 -1.83503 -3.83676 0
M  V30 7612 N 755.309 1.25446 -0.953992 0
M  V30 7613 C 756.549 1.94894 -0.616087 0
M  V30 7614 C 756.913 1.73067 0.831374 0
M  V30 7615 O 758.114 2.3643 1.27884 0
M  V30 7616 C 756.385 3.44147 -0.964225 0
M  V30 7617 S 757.944 4.32536 -0.738798 0
M  V30 7618 H 754.762 0.673967 -0.226472 0
M  V30 7619 H 757.364 1.52117 -1.22803 0
M  V30 7620 H 756.068 3.57537 -2.01484 0
M  V30 7621 H 755.599 3.91906 -0.342507 0
M  V30 7622 H 757.614 4.94659 0.390732 0
M  V30 7623 N 756.787 0.722489 1.40064 0
M  V30 7624 C 758.035 0.264455 2.00362 0
M  V30 7625 C 758.356 -1.14847 1.57592 0
M  V30 7626 O 757.626 -1.77982 0.818477 0
M  V30 7627 H 756.206 0.0947846 0.740962 0
M  V30 7628 H 758.868 0.929659 1.71299 0
M  V30 7629 H 757.964 0.302977 3.10626 0
M  V30 7630 N 758.265 -1.50454 0.469181 0
M  V30 7631 C 759.49 -2.0722 -0.0864892 0
M  V30 7632 C 759.915 -1.33098 -1.32916 0
M  V30 7633 O 759.273 -0.378084 -1.77314 0
M  V30 7634 C 759.321 -3.58845 -0.355384 0
M  V30 7635 O 758.425 -3.86583 -1.43622 0
M  V30 7636 H 757.766 -0.663889 0.0121414 0
M  V30 7637 H 760.296 -1.93674 0.659674 0
M  V30 7638 H 760.306 -4.03617 -0.596447 0
M  V30 7639 H 758.981 -4.12211 0.552698 0
M  V30 7640 H 757.558 -3.5365 -1.18262 0
M  V30 7641 N 759.743 -0.201713 -1.56304 0
M  V30 7642 C 761.154 0.309711 -1.84113 0
M  V30 7643 C 761.505 1.60912 -1.12258 0
M  V30 7644 O 760.63 2.12937 -0.385587 0
M  V30 7645 C 761.225 0.568706 -3.33993 0
M  V30 7646 C 759.784 1.02448 -3.6219 0
M  V30 7647 C 758.931 0.0766842 -2.77194 0
M  V30 7648 H 761.882 -0.425356 -1.52893 0
M  V30 7649 H 761.903 1.41721 -3.53122 0
M  V30 7650 H 761.415 -0.37719 -3.86263 0
M  V30 7651 H 759.516 1.98443 -3.15359 0
M  V30 7652 H 759.629 0.912619 -4.70328 0
M  V30 7653 H 757.993 0.579809 -2.48013 0
M  V30 7654 H 758.776 -0.863774 -3.32256 0
M  V30 7655 N 761.222 1.57436 0.0718424 0
M  V30 7656 C 762.47 1.86878 0.769484 0
M  V30 7657 C 762.791 0.7937 1.78116 0
M  V30 7658 O 762.061 -0.177642 1.95093 0
M  V30 7659 H 760.641 0.689593 0.287177 0
M  V30 7660 H 763.303 1.94841 0.0479427 0
M  V30 7661 H 762.399 2.84387 1.28572 0
M  V30 7662 N 762.7 -0.34323 1.53817 0
M  V30 7663 C 763.65 -1.42217 1.78208 0
M  V30 7664 C 764.634 -1.4774 0.637304 0
M  V30 7665 O 765.826 -1.52605 0.896705 0
M  V30 7666 C 762.955 -2.79354 1.9954 0
M  V30 7667 C 762.041 -2.78222 3.20084 0
M  V30 7668 N 762.432 -2.46719 4.41547 0
M  V30 7669 C 760.73 -3.09368 3.21259 0
M  V30 7670 C 761.431 -2.53828 5.23399 0
M  V30 7671 N 760.407 -2.89464 4.60121 0
M  V30 7672 H 764.209 -1.16759 2.69712 0
M  V30 7673 H 761.723 -0.551592 1.52746 0
M  V30 7674 H 763.72 -3.57095 2.15148 0
M  V30 7675 H 762.38 -3.05759 1.09278 0
M  V30 7676 H 763.391 -2.19912 4.68891 0
M  V30 7677 H 760.068 -3.40942 2.40966 0
M  V30 7678 H 761.458 -2.32629 6.30344 0
M  V30 7679 N 764.178 -1.45556 -0.604258 0
M  V30 7680 C 765.408 -1.53056 -1.38771 0
M  V30 7681 C 765.816 -0.163092 -1.88496 0
M  V30 7682 O 765.159 0.846157 -1.63052 0
M  V30 7683 C 765.221 -2.45656 -2.62476 0
M  V30 7684 C 764.885 -3.92328 -2.34367 0
M  V30 7685 C 765.882 -4.82137 -1.94525 0
M  V30 7686 C 763.567 -4.37275 -2.47177 0
M  V30 7687 C 765.561 -6.14901 -1.67856 0
M  V30 7688 C 763.248 -5.70079 -2.20122 0
M  V30 7689 C 764.246 -6.58711 -1.80524 0
M  V30 7690 O 763.934 -7.89053 -1.53788 0
M  V30 7691 H 763.666 -0.520721 -0.431075 0
M  V30 7692 H 766.22 -1.91464 -0.743693 0
M  V30 7693 H 764.45 -2.02225 -3.29609 0
M  V30 7694 H 766.139 -2.43802 -3.24523 0
M  V30 7695 H 766.905 -4.48675 -1.84162 0
M  V30 7696 H 762.784 -3.68527 -2.76964 0
M  V30 7697 H 766.328 -6.8404 -1.36874 0
M  V30 7698 H 762.225 -6.03095 -2.30102 0
M  V30 7699 H 762.993 -8.01113 -1.67812 0
M  V30 7700 N 765.656 0.84705 -1.32902 0
M  V30 7701 C 766.588 1.96308 -1.18304 0
M  V30 7702 C 767.601 1.62386 -0.116082 0
M  V30 7703 O 768.79 1.74713 -0.365751 0
M  V30 7704 C 765.89 3.29556 -0.790305 0
M  V30 7705 C 765.063 3.91668 -1.94717 0
M  V30 7706 C 764.122 5.0326 -1.53674 0
M  V30 7707 O 763.148 5.22847 -2.24989 0
M  V30 7708 N 764.35 5.78852 -0.437075 0
M  V30 7709 H 767.115 2.09369 -2.14441 0
M  V30 7710 H 764.676 1.02233 -1.25539 0
M  V30 7711 H 766.668 4.01624 -0.49799 0
M  V30 7712 H 765.238 3.12497 0.0801286 0
M  V30 7713 H 764.458 3.12292 -2.40557 0
M  V30 7714 H 765.746 4.299 -2.72146 0
M  V30 7715 H 765.144 5.65484 0.156316 0
M  V30 7716 H 763.701 6.51479 -0.204399 0
M  V30 7717 N 767.134 1.16236 1.06428 0
M  V30 7718 C 768.097 0.870163 2.1204 0
M  V30 7719 C 769.097 -0.134239 1.60239 0
M  V30 7720 O 770.287 0.0964932 1.73933 0
M  V30 7721 C 767.419 0.301033 3.39568 0
M  V30 7722 H 768.612 1.8064 2.39394 0
M  V30 7723 H 766.165 0.971116 1.2247 0
M  V30 7724 H 766.9 -0.642948 3.17863 0
M  V30 7725 H 766.685 1.02475 3.78472 0
M  V30 7726 H 768.175 0.114494 4.17443 0
M  V30 7727 N 768.612 -1.24939 0.960631 0
M  V30 7728 C 769.544 -2.24879 0.442937 0
M  V30 7729 C 770.557 -1.56615 -0.444464 0
M  V30 7730 O 771.746 -1.76715 -0.251776 0
M  V30 7731 C 768.846 -3.36757 -0.380537 0
M  V30 7732 C 768.019 -4.34587 0.495283 0
M  V30 7733 C 767.078 -5.25502 -0.270995 0
M  V30 7734 O 766.104 -5.68227 0.332661 0
M  V30 7735 N 767.306 -5.59077 -1.56249 0
M  V30 7736 H 770.071 -2.69932 1.30218 0
M  V30 7737 H 767.632 -1.38907 0.83166 0
M  V30 7738 H 769.624 -3.94542 -0.90103 0
M  V30 7739 H 768.194 -2.91045 -1.14067 0
M  V30 7740 H 767.414 -3.75593 1.19682 0
M  V30 7741 H 768.702 -4.96925 1.09285 0
M  V30 7742 H 768.1 -5.2628 -2.07476 0
M  V30 7743 H 766.657 -6.19421 -2.02882 0
M  V30 7744 N 770.09 -0.729906 -1.39679 0
M  V30 7745 C 771.33 -0.280232 -2.0247 0
M  V30 7746 C 771.694 1.11006 -1.56658 0
M  V30 7747 O 772.895 1.65753 -2.11612 0
M  V30 7748 C 771.166 -0.372922 -3.55449 0
M  V30 7749 S 772.725 -0.00233974 -4.388 0
M  V30 7750 H 769.543 -0.110139 -0.702418 0
M  V30 7751 H 772.145 -0.955296 -1.70571 0
M  V30 7752 H 770.849 -1.38616 -3.86282 0
M  V30 7753 H 770.38 0.320136 -3.92095 0
M  V30 7754 H 772.395 1.21544 -4.81084 0
M  V30 7755 N 771.568 1.50203 -0.477153 0
M  V30 7756 C 772.979 1.86685 -0.0235041 0
M  V30 7757 C 773.33 1.39148 1.38319 0
M  V30 7758 O 772.455 0.759051 2.02651 0
M  V30 7759 C 773.05 3.38781 -0.0358767 0
M  V30 7760 C 771.609 3.74652 0.362327 0
M  V30 7761 C 770.756 2.7412 -0.41875 0
M  V30 7762 H 773.707 1.4286 -0.691133 0
M  V30 7763 H 773.728 3.72732 0.764924 0
M  V30 7764 H 773.24 3.73349 -1.05981 0
M  V30 7765 H 771.341 3.45686 1.39039 0
M  V30 7766 H 771.454 4.79063 0.059457 0
M  V30 7767 H 769.818 2.54376 0.128341 0
M  V30 7768 H 770.601 3.11532 -1.44231 0
M  V30 7769 N 773.046 0.209999 1.56195 0
M  V30 7770 C 773.993 -0.704854 2.19774 0
M  V30 7771 C 774.963 -1.19886 1.14964 0
M  V30 7772 O 776.148 -1.26005 1.43274 0
M  V30 7773 C 773.288 -1.91241 2.87265 0
M  V30 7774 C 772.401 -1.45838 4.06639 0
M  V30 7775 C 771.536 -2.6226 4.61945 0
M  V30 7776 C 770.575 -2.13537 5.73645 0
M  V30 7777 N 769.712 -3.2319 6.23292 0
M  V30 7778 H 774.552 -0.155944 2.97592 0
M  V30 7779 H 772.089 -0.0652235 1.46955 0
M  V30 7780 H 774.047 -2.62123 3.24573 0
M  V30 7781 H 772.677 -2.43439 2.11985 0
M  V30 7782 H 771.729 -0.644897 3.74894 0
M  V30 7783 H 773.041 -1.06103 4.87384 0
M  V30 7784 H 772.195 -3.41243 5.01636 0
M  V30 7785 H 770.934 -3.05278 3.80338 0
M  V30 7786 H 769.939 -1.33013 5.33468 0
M  V30 7787 H 771.164 -1.71533 6.57079 0
M  V30 7788 H 769.11 -3.65711 5.44602 0
M  V30 7789 H 769.027 -2.8767 6.99129 0
M  V30 7790 H 770.295 -4.02342 6.67639 0
M  V30 7791 N 774.524 -1.57472 -0.0634922 0
M  V30 7792 C 775.471 -2.04258 -1.07457 0
M  V30 7793 C 776.441 -0.924804 -1.37973 0
M  V30 7794 O 777.626 -1.19305 -1.48899 0
M  V30 7795 C 774.766 -2.49832 -2.38071 0
M  V30 7796 C 773.879 -3.75263 -2.14014 0
M  V30 7797 C 773.014 -4.09585 -3.38251 0
M  V30 7798 C 772.053 -5.28032 -3.09594 0
M  V30 7799 N 771.19 -5.57953 -4.26185 0
M  V30 7800 H 776.03 -2.90402 -0.668626 0
M  V30 7801 H 773.567 -1.43609 -0.318572 0
M  V30 7802 H 775.525 -2.7431 -3.14341 0
M  V30 7803 H 774.155 -1.66654 -2.76453 0
M  V30 7804 H 773.207 -3.58075 -1.28399 0
M  V30 7805 H 774.519 -4.61667 -1.88852 0
M  V30 7806 H 773.673 -4.35008 -4.2291 0
M  V30 7807 H 772.412 -3.21765 -3.66495 0
M  V30 7808 H 771.417 -5.02397 -2.23332 0
M  V30 7809 H 772.642 -6.17477 -2.82663 0
M  V30 7810 H 770.588 -4.73092 -4.54445 0
M  V30 7811 H 770.505 -6.38793 -4.04326 0
M  V30 7812 H 771.773 -5.87931 -5.11817 0
M  V30 7813 N 776.003 0.335068 -1.53997 0
M  V30 7814 C 777.419 0.678704 -1.4445 0
M  V30 7815 C 777.619 1.92106 -0.608078 0
M  V30 7816 O 776.675 2.52292 -0.102373 0
M  V30 7817 C 777.988 0.863435 -2.88037 0
M  V30 7818 C 779.536 0.961513 -2.97866 0
M  V30 7819 C 780.011 1.1785 -4.42578 0
M  V30 7820 N 781.502 1.2455 -4.46141 0
M  V30 7821 C 782.237 1.43106 -5.55255 0
M  V30 7822 N 781.733 1.5878 -6.74359 0
M  V30 7823 N 783.526 1.45722 -5.42883 0
M  V30 7824 H 775.677 -0.481656 -2.06867 0
M  V30 7825 H 777.94 -0.153615 -0.935471 0
M  V30 7826 H 777.646 0.0219511 -3.51693 0
M  V30 7827 H 777.52 1.76268 -3.33481 0
M  V30 7828 H 779.907 1.79351 -2.34344 0
M  V30 7829 H 779.988 0.0389862 -2.5577 0
M  V30 7830 H 779.632 0.351397 -5.06683 0
M  V30 7831 H 779.562 2.11472 -4.82273 0
M  V30 7832 H 782.053 1.13928 -3.60318 0
M  V30 7833 H 782.366 1.72599 -7.53279 0
M  V30 7834 H 780.711 1.559 -6.77289 0
M  V30 7835 H 783.902 1.33065 -4.48789 0
M  V30 7836 H 784.075 1.59841 -6.27977 0
M  V30 7837 N 777.481 1.45874 0.596531 0
M  V30 7838 C 778.428 1.55389 1.70655 0
M  V30 7839 C 779.398 0.399036 1.61236 0
M  V30 7840 O 780.583 0.61396 1.80652 0
M  V30 7841 C 777.723 1.53705 3.0898 0
M  V30 7842 C 776.836 2.79823 3.29125 0
M  V30 7843 C 775.971 2.69735 4.5762 0
M  V30 7844 C 775.01 3.90856 4.71061 0
M  V30 7845 N 774.147 3.79237 5.90867 0
M  V30 7846 H 778.987 2.50211 1.61859 0
M  V30 7847 H 776.524 1.24146 0.789069 0
M  V30 7848 H 778.482 1.50715 3.89026 0
M  V30 7849 H 777.112 0.624247 3.16706 0
M  V30 7850 H 776.164 2.92852 2.42779 0
M  V30 7851 H 777.476 3.69628 3.34927 0
M  V30 7852 H 776.63 2.64773 5.45875 0
M  V30 7853 H 775.369 1.77547 4.54234 0
M  V30 7854 H 774.374 3.96164 3.81227 0
M  V30 7855 H 775.599 4.84124 4.76236 0
M  V30 7856 H 773.545 2.89825 5.88504 0
M  V30 7857 H 773.462 4.62686 5.97877 0
M  V30 7858 H 774.73 3.78227 6.8159 0
M  V30 7859 N 778.959 -0.83999 1.33349 0
M  V30 7860 C 780.184 -1.63249 1.27924 0
M  V30 7861 C 780.609 -1.87523 -0.147193 0
M  V30 7862 O 779.967 -1.43853 -1.10345 0
M  V30 7863 C 780.015 -2.96046 2.05886 0
M  V30 7864 O 779.119 -3.87303 1.4167 0
M  V30 7865 H 778.46 -0.49715 0.440157 0
M  V30 7866 H 780.99 -1.04512 1.75893 0
M  V30 7867 H 781 -3.45752 2.16609 0
M  V30 7868 H 779.675 -2.77701 3.09605 0
M  V30 7869 H 778.252 -3.45789 1.39585 0
M  V30 7870 N 780.437 -1.16799 -1.0581 0
M  V30 7871 C 781.685 -0.950642 -1.78346 0
M  V30 7872 C 782.006 0.522524 -1.87869 0
M  V30 7873 O 781.276 1.3795 -1.39092 0
M  V30 7874 H 779.856 -0.348736 -0.6606 0
M  V30 7875 H 782.518 -1.47158 -1.27791 0
M  V30 7876 H 781.614 -1.37359 -2.80248 0
M  V30 7877 N 781.915 1.24427 -0.967243 0
M  V30 7878 C 782.863 2.27403 -0.488927 0
M  V30 7879 C 783.857 1.63388 0.447302 0
M  V30 7880 O 785.063 1.77085 0.322643 0
M  V30 7881 H 781.438 0.738921 -0.139643 0
M  V30 7882 H 783.409 2.65122 -1.36942 0
M  V30 7883 C 782.158 3.4709 0.205787 0
M  V30 7884 H 781.481 3.96591 -0.50551 0
M  V30 7885 H 782.921 4.2099 0.504296 0
M  V30 7886 C 781.38 3.04923 1.43261 0
M  V30 7887 O 781.91 3.12043 2.52967 0
M  V30 7888 N 780.116 2.59976 1.29849 0
M  V30 7889 H 779.663 2.54382 0.405876 0
M  V30 7890 H 779.621 2.32128 2.12047 0
M  V30 7891 N 783.393 0.737304 1.3929 0
M  V30 7892 C 784.618 0.295237 2.05288 0
M  V30 7893 C 785.043 -1.06235 1.55228 0
M  V30 7894 O 784.401 -1.67365 0.697043 0
M  V30 7895 C 784.449 0.309146 3.59272 0
M  V30 7896 O 783.553 -0.702437 4.06374 0
M  V30 7897 H 782.894 0.133762 0.650387 0
M  V30 7898 H 785.424 1.00387 1.78279 0
M  V30 7899 H 785.434 0.154336 4.07708 0
M  V30 7900 H 784.109 1.29974 3.95069 0
M  V30 7901 H 782.686 -0.513574 3.69346 0
M  V30 7902 N 784.871 -1.49948 0.485112 0
M  V30 7903 C 786.287 -1.58984 0.140096 0
M  V30 7904 C 786.487 -1.49194 -1.35438 0
M  V30 7905 O 785.543 -1.35765 -2.12894 0
M  V30 7906 C 786.856 -2.92372 0.702769 0
M  V30 7907 C 788.404 -3.05801 0.66745 0
M  V30 7908 C 788.879 -4.41785 1.20791 0
M  V30 7909 N 790.37 -4.48234 1.16792 0
M  V30 7910 C 791.105 -5.51871 1.55646 0
M  V30 7911 N 790.601 -6.62692 2.02016 0
M  V30 7912 N 792.394 -5.42494 1.47161 0
M  V30 7913 H 784.545 -1.54555 1.45693 0
M  V30 7914 H 786.808 -0.731206 0.603359 0
M  V30 7915 H 786.514 -3.05056 1.75025 0
M  V30 7916 H 786.388 -3.76885 0.154205 0
M  V30 7917 H 788.775 -2.92757 -0.371157 0
M  V30 7918 H 788.856 -2.23011 1.25298 0
M  V30 7919 H 788.5 -4.55579 2.24522 0
M  V30 7920 H 788.43 -5.23188 0.598464 0
M  V30 7921 H 790.921 -3.68718 0.827982 0
M  V30 7922 H 791.234 -7.3785 2.29775 0
M  V30 7923 H 789.579 -6.63775 2.05979 0
M  V30 7924 H 792.77 -4.54806 1.10765 0
M  V30 7925 H 792.943 -6.2314 1.77766 0
M  V30 7926 N 786.349 -0.21828 -1.56081 0
M  V30 7927 C 787.259 0.704602 -2.23769 0
M  V30 7928 C 788.275 1.21633 -1.24425 0
M  V30 7929 O 789.451 1.25862 -1.57228 0
M  V30 7930 C 786.516 1.89725 -2.90182 0
M  V30 7931 C 785.577 1.42782 -4.0486 0
M  V30 7932 C 784.81 2.56361 -4.68097 0
M  V30 7933 O 785.033 3.74417 -4.30312 0
M  V30 7934 O 783.967 2.2775 -5.57148 0
M  V30 7935 H 787.793 0.158007 -3.03289 0
M  V30 7936 H 785.378 0.0120279 -1.49395 0
M  V30 7937 H 787.26 2.59382 -3.32113 0
M  V30 7938 H 785.935 2.432 -2.13624 0
M  V30 7939 H 784.842 0.699359 -3.67505 0
M  V30 7940 H 786.175 0.939474 -4.83151 0
M  V30 7941 N 787.827 1.57504 0.0551401 0
M  V30 7942 C 789.243 1.54236 0.410292 0
M  V30 7943 C 789.443 0.940839 1.78187 0
M  V30 7944 O 788.499 0.550541 2.46425 0
M  V30 7945 C 789.812 2.98816 0.336064 0
M  V30 7946 C 791.36 3.10236 0.415047 0
M  V30 7947 C 791.835 4.56499 0.37055 0
M  V30 7948 N 793.326 4.61199 0.43013 0
M  V30 7949 C 794.061 5.71873 0.418179 0
M  V30 7950 N 793.557 6.91864 0.360056 0
M  V30 7951 N 795.35 5.60165 0.465977 0
M  V30 7952 H 787.501 1.94965 -0.842759 0
M  V30 7953 H 789.764 0.893096 -0.317937 0
M  V30 7954 H 789.47 3.4645 -0.605429 0
M  V30 7955 H 789.344 3.59564 1.13988 0
M  V30 7956 H 791.731 2.62566 1.34697 0
M  V30 7957 H 791.812 2.52367 -0.417648 0
M  V30 7958 H 791.456 5.0483 -0.557592 0
M  V30 7959 H 791.386 5.12249 1.221 0
M  V30 7960 H 793.877 3.74857 0.478623 0
M  V30 7961 H 794.19 7.71983 0.35532 0
M  V30 7962 H 792.535 6.94233 0.326492 0
M  V30 7963 H 795.726 4.65322 0.509194 0
M  V30 7964 H 795.899 6.46413 0.453194 0
M  V30 7965 N 789.305 -0.326896 1.54172 0
M  V30 7966 C 790.545 -1.07349 1.73941 0
M  V30 7967 C 790.909 -1.85355 0.50075 0
M  V30 7968 O 792.11 -2.62562 0.575731 0
M  V30 7969 C 790.381 -1.97636 2.97783 0
M  V30 7970 S 791.94 -2.79292 3.3844 0
M  V30 7971 H 788.758 -0.362459 0.611673 0
M  V30 7972 H 791.36 -0.349884 1.92344 0
M  V30 7973 H 790.064 -1.39158 3.86087 0
M  V30 7974 H 789.595 -2.74406 2.81895 0
M  V30 7975 H 791.61 -4.00106 2.93478 0
M  V30 7976 N 790.784 -1.46188 -0.588786 0
M  V30 7977 C 791.716 -1.52319 -1.71265 0
M  V30 7978 C 792.729 -0.412096 -1.57498 0
M  V30 7979 O 793.918 -0.680146 -1.65034 0
M  V30 7980 C 791.018 -1.38164 -3.09458 0
M  V30 7981 C 790.191 -2.63284 -3.49286 0
M  V30 7982 C 789.25 -2.43415 -4.66514 0
M  V30 7983 O 788.276 -3.17113 -4.72682 0
M  V30 7984 N 789.478 -1.49187 -5.61002 0
M  V30 7985 H 792.243 -2.49219 -1.66463 0
M  V30 7986 H 789.804 -1.42167 -0.774601 0
M  V30 7987 H 791.796 -1.22653 -3.85666 0
M  V30 7988 H 790.366 -0.494678 -3.08661 0
M  V30 7989 H 789.586 -2.93779 -2.62845 0
M  V30 7990 H 790.874 -3.46413 -3.7266 0
M  V30 7991 H 790.272 -0.884027 -5.5875 0
M  V30 7992 H 788.829 -1.39642 -6.36666 0
M  V30 7993 N 792.262 0.832906 -1.33792 0
M  V30 7994 C 793.192 1.95828 -1.27176 0
M  V30 7995 C 794.173 1.69427 -0.15114 0
M  V30 7996 O 795.358 1.91167 -0.341886 0
M  V30 7997 C 792.488 3.32098 -1.01629 0
M  V30 7998 C 791.442 3.72912 -2.10049 0
M  V30 7999 C 790.768 5.07054 -1.69706 0
M  V30 8000 C 792.068 3.86064 -3.51783 0
M  V30 8001 H 793.762 2.01622 -2.21334 0
M  V30 8002 H 791.308 0.96866 -1.0655 0
M  V30 8003 H 793.261 4.10402 -0.956474 0
M  V30 8004 H 791.985 3.26577 -0.0390956 0
M  V30 8005 H 790.644 2.96876 -2.15082 0
M  V30 8006 H 790.292 4.9801 -0.706737 0
M  V30 8007 H 789.992 5.35333 -2.42264 0
M  V30 8008 H 791.516 5.87827 -1.65202 0
M  V30 8009 H 792.93 4.54665 -3.49218 0
M  V30 8010 H 791.327 4.25787 -4.22878 0
M  V30 8011 H 792.397 2.88344 -3.89854 0
M  V30 8012 N 793.74 1.17359 1.05189 0
M  V30 8013 C 794.98 0.972812 1.79766 0
M  V30 8014 C 795.344 -0.489832 1.85647 0
M  V30 8015 O 796.545 -0.809682 2.56315 0
M  V30 8016 C 794.816 1.59636 3.19767 0
M  V30 8017 S 796.375 1.54178 4.10822 0
M  V30 8018 H 793.193 0.34959 0.619119 0
M  V30 8019 H 795.795 1.49304 1.26209 0
M  V30 8020 H 794.499 2.65336 3.13089 0
M  V30 8021 H 794.03 1.07594 3.78401 0
M  V30 8022 H 796.045 0.549785 4.93145 0
M  V30 8023 N 795.218 -1.23913 0.973828 0
M  V30 8024 C 796.495 -1.87539 0.555729 0
M  V30 8025 C 796.875 -1.87641 -0.967162 0
M  V30 8026 O 796.223 -1.35335 -1.84111 0
M  V30 8027 C 796.433 -3.29359 1.15427 0
M  V30 8028 C 797.781 -4.06 1.24294 0
M  V30 8029 O 798.805 -3.38554 1.10723 0
M  V30 8030 O 797.664 -5.26689 1.45813 0
M  V30 8031 H 794.758 -0.805769 0.186188 0
M  V30 8032 H 797.304 -1.31838 1.06849 0
M  V30 8033 H 796.076 -3.23817 2.19678 0
M  V30 8034 H 795.699 -3.92642 0.625925 0
M  V30 8035 N 796.696 -0.74468 -1.38897 0
M  V30 8036 C 797.944 -0.296298 -1.99916 0
M  V30 8037 C 798.265 1.12325 -1.59399 0
M  V30 8038 O 797.535 1.76658 -0.846689 0
M  V30 8039 H 796.115 -0.106561 -0.73936 0
M  V30 8040 H 798.777 -0.956793 -1.69798 0
M  V30 8041 H 797.873 -0.352356 -3.10105 0
M  V30 8042 N 798.174 1.49689 -0.493057 0
M  V30 8043 C 799.107 2.25712 0.336062 0
M  V30 8044 C 800.085 1.29953 0.977294 0
M  V30 8045 O 801.269 1.59225 1.00895 0
M  V30 8046 C 798.396 3.0501 1.47263 0
M  V30 8047 C 797.442 4.15863 0.946575 0
M  V30 8048 S 798.275 5.35272 -0.156323 0
M  V30 8049 C 799.431 6.18123 0.983601 0
M  V30 8050 H 799.664 2.95688 -0.309215 0
M  V30 8051 H 797.197 1.51872 -0.278238 0
M  V30 8052 H 799.155 3.51284 2.12391 0
M  V30 8053 H 797.816 2.34519 2.08949 0
M  V30 8054 H 797.009 4.70834 1.7981 0
M  V30 8055 H 796.611 3.72139 0.372647 0
M  V30 8056 H 798.903 6.50588 1.89056 0
M  V30 8057 H 799.846 7.06521 0.472687 0
M  V30 8058 H 800.254 5.50547 1.24735 0
M  V30 8059 N 799.652 0.226554 1.55963 0
M  V30 8060 C 800.9 -0.402991 1.98041 0
M  V30 8061 C 801.221 -1.59938 1.11557 0
M  V30 8062 O 800.491 -1.9494 0.193719 0
M  V30 8063 H 799.071 -0.15188 0.731397 0
M  V30 8064 H 801.733 0.320613 1.92245 0
M  V30 8065 H 800.829 -0.725937 3.0354 0
M  V30 8066 N 801.13 -1.57531 -0.0467866 0
M  V30 8067 C 802.08 -2.01845 -1.06031 0
M  V30 8068 C 803.064 -0.904662 -1.33059 0
M  V30 8069 O 804.256 -1.16858 -1.32941 0
M  V30 8070 C 801.385 -2.48673 -2.36679 0
M  V30 8071 C 800.471 -3.66837 -2.12818 0
M  V30 8072 N 800.862 -4.80172 -1.5896 0
M  V30 8073 C 799.16 -3.73869 -2.43183 0
M  V30 8074 C 799.861 -5.61895 -1.50494 0
M  V30 8075 N 798.837 -5.0648 -1.97431 0
M  V30 8076 H 802.639 -2.869 -0.637623 0
M  V30 8077 H 800.153 -1.6041 -0.253427 0
M  V30 8078 H 802.15 -2.78671 -3.10077 0
M  V30 8079 H 800.81 -1.65016 -2.79642 0
M  V30 8080 H 801.821 -5.01967 -1.27474 0
M  V30 8081 H 798.498 -3.00977 -2.89342 0
M  V30 8082 H 799.888 -6.62918 -1.09494 0
M  V30 8083 N 802.608 0.318715 -1.54344 0
M  V30 8084 C 803.556 1.41254 -1.84798 0
M  V30 8085 C 804.55 1.53325 -0.720256 0
M  V30 8086 O 805.756 1.55653 -0.903992 0
M  V30 8087 H 802.131 0.471468 -0.585851 0
M  V30 8088 H 804.102 1.12795 -2.7626 0
M  V30 8089 C 802.851 2.77395 -2.09637 0
M  V30 8090 H 802.174 2.68881 -2.95876 0
M  V30 8091 H 803.614 3.52987 -2.34896 0
M  V30 8092 C 802.073 3.24948 -0.889398 0
M  V30 8093 O 802.603 4.01573 -0.101063 0
M  V30 8094 N 800.809 2.82051 -0.699684 0
M  V30 8095 H 800.356 2.19858 -1.3424 0
M  V30 8096 H 800.314 3.1422 0.106368 0
M  V30 8097 N 804.086 1.46499 0.581025 0
M  V30 8098 C 805.049 1.5677 1.672 0
M  V30 8099 C 806.049 0.444716 1.54528 0
M  V30 8100 O 807.239 0.709074 1.59116 0
M  V30 8101 C 804.371 1.4896 3.06633 0
M  V30 8102 H 805.564 2.54 1.5945 0
M  V30 8103 H 803.117 1.34334 0.799003 0
M  V30 8104 H 803.852 0.530168 3.19937 0
M  V30 8105 H 803.637 2.30439 3.17239 0
M  V30 8106 H 805.127 1.59237 3.86048 0
M  V30 8107 N 805.565 -0.825799 1.34232 0
M  V30 8108 C 806.512 -1.93651 1.2557 0
M  V30 8109 C 807.482 -1.65578 0.131536 0
M  V30 8110 O 808.667 -1.88231 0.312027 0
M  V30 8111 C 805.807 -3.29862 1.01415 0
M  V30 8112 C 804.92 -3.70247 2.22579 0
M  V30 8113 C 804.055 -4.95392 1.91731 0
M  V30 8114 C 803.094 -5.28349 3.09053 0
M  V30 8115 N 802.231 -6.44671 2.78107 0
M  V30 8116 H 807.071 -2.00392 2.20561 0
M  V30 8117 H 804.608 -0.980441 1.09662 0
M  V30 8118 H 806.566 -4.08356 0.854485 0
M  V30 8119 H 805.196 -3.22642 0.100936 0
M  V30 8120 H 804.248 -2.87169 2.49476 0
M  V30 8121 H 805.56 -3.90575 3.10246 0
M  V30 8122 H 804.714 -5.81665 1.72484 0
M  V30 8123 H 803.453 -4.77059 1.0132 0
M  V30 8124 H 802.458 -4.40574 3.289 0
M  V30 8125 H 803.683 -5.48622 4.00239 0
M  V30 8126 H 801.629 -6.278 1.9027 0
M  V30 8127 H 801.546 -6.65158 3.59306 0
M  V30 8128 H 802.814 -7.34022 2.62358 0
M  V30 8129 N 807.043 -1.17915 -1.04565 0
M  V30 8130 C 807.975 -0.859359 -2.1248 0
M  V30 8131 C 808.988 0.140922 -1.62189 0
M  V30 8132 O 810.177 -0.0862361 -1.78292 0
M  V30 8133 C 807.277 -0.261811 -3.37887 0
M  V30 8134 C 806.45 -1.30651 -4.17431 0
M  V30 8135 C 805.509 -0.725575 -5.21174 0
M  V30 8136 O 804.535 -1.39901 -5.51739 0
M  V30 8137 N 805.737 0.479351 -5.78517 0
M  V30 8138 H 808.502 -1.78818 -2.40508 0
M  V30 8139 H 806.063 -1.07885 -1.20716 0
M  V30 8140 H 808.055 0.14028 -4.04457 0
M  V30 8141 H 806.625 0.570929 -3.07342 0
M  V30 8142 H 805.845 -1.88412 -3.46258 0
M  V30 8143 H 807.133 -2.01099 -4.67372 0
M  V30 8144 H 806.531 1.04431 -5.55977 0
M  V30 8145 H 805.088 0.823427 -6.46578 0
M  V30 8146 N 808.521 1.23394 -0.980386 0
M  V30 8147 C 809.761 1.93543 -0.657288 0
M  V30 8148 C 810.125 1.74791 0.794477 0
M  V30 8149 O 811.326 2.39089 1.2284 0
M  V30 8150 C 809.597 3.42025 -1.03701 0
M  V30 8151 S 811.156 4.30871 -0.830379 0
M  V30 8152 H 807.974 0.669012 -0.240717 0
M  V30 8153 H 810.576 1.49478 -1.26002 0
M  V30 8154 H 809.28 3.53183 -2.09022 0
M  V30 8155 H 808.811 3.91091 -0.425559 0
M  V30 8156 H 810.826 4.95377 0.285719 0
M  V30 8157 N 809.999 0.752036 1.385 0
M  V30 8158 C 811.415 0.42946 1.53713 0
M  V30 8159 C 811.615 -1.0576 1.71514 0
M  V30 8160 O 810.671 -1.84366 1.72527 0
M  V30 8161 C 811.984 1.22735 2.74511 0
M  V30 8162 C 813.532 1.21727 2.8836 0
M  V30 8163 C 814.007 1.99809 4.12117 0
M  V30 8164 N 815.498 1.97062 4.19191 0
M  V30 8165 C 816.233 2.54274 5.13938 0
M  V30 8166 N 815.729 3.20193 6.14368 0
M  V30 8167 N 817.522 2.44212 5.06277 0
M  V30 8168 H 809.673 1.71581 1.25195 0
M  V30 8169 H 811.936 0.727293 0.60807 0
M  V30 8170 H 811.642 2.28032 2.67758 0
M  V30 8171 H 811.516 0.843186 3.67655 0
M  V30 8172 H 813.903 0.172367 2.94596 0
M  V30 8173 H 813.984 1.64094 1.96232 0
M  V30 8174 H 813.628 3.0431 4.06642 0
M  V30 8175 H 813.558 1.54837 5.03322 0
M  V30 8176 H 816.049 1.49054 3.47263 0
M  V30 8177 H 816.362 3.61272 6.83156 0
M  V30 8178 H 814.707 3.24287 6.14705 0
M  V30 8179 H 817.898 1.92343 4.26757 0
M  V30 8180 H 818.071 2.89096 5.79937 0
M  V30 8181 N 811.477 -1.49425 0.500989 0
M  V30 8182 C 812.893 -1.58826 0.156951 0
M  V30 8183 C 813.093 -1.50622 -1.33848 0
M  V30 8184 O 812.149 -1.38016 -2.11442 0
M  V30 8185 C 813.462 -2.91611 0.73374 0
M  V30 8186 C 815.01 -3.05076 0.699846 0
M  V30 8187 C 815.485 -4.40479 1.2547 0
M  V30 8188 N 816.976 -4.4697 1.2154 0
M  V30 8189 C 817.711 -5.50189 1.6149 0
M  V30 8190 N 817.207 -6.60512 2.09034 0
M  V30 8191 N 819 -5.40903 1.52907 0
M  V30 8192 H 811.151 -1.53001 1.47324 0
M  V30 8193 H 813.414 -0.724765 0.61108 0
M  V30 8194 H 813.12 -3.03182 1.78251 0
M  V30 8195 H 812.994 -3.767 0.19417 0
M  V30 8196 H 815.381 -2.93134 -0.340085 0
M  V30 8197 H 815.462 -2.2167 1.27656 0
M  V30 8198 H 815.106 -4.53172 2.29341 0
M  V30 8199 H 815.036 -5.22524 0.653921 0
M  V30 8200 H 817.527 -3.67819 0.867043 0
M  V30 8201 H 817.84 -7.35372 2.37588 0
M  V30 8202 H 816.185 -6.61553 2.13008 0
M  V30 8203 H 819.376 -4.53606 1.15583 0
M  V30 8204 H 819.549 -6.21219 1.84365 0
M  V30 8205 N 812.955 -0.234822 -1.55841 0
M  V30 8206 C 814.371 0.120295 -1.59146 0
M  V30 8207 C 814.571 1.57896 -1.25184 0
M  V30 8208 O 813.627 2.32138 -0.993393 0
M  V30 8209 C 814.94 -0.217984 -2.99909 0
M  V30 8210 C 816.488 -0.161298 -3.12584 0
M  V30 8211 C 816.963 -0.473438 -4.55546 0
M  V30 8212 N 818.454 -0.423494 -4.6126 0
M  V30 8213 C 819.189 -0.638334 -5.69836 0
M  V30 8214 N 818.685 -0.915659 -6.86722 0
M  V30 8215 N 820.478 -0.569864 -5.59204 0
M  V30 8216 H 812.629 -1.18622 -1.76189 0
M  V30 8217 H 814.892 -0.476426 -0.819587 0
M  V30 8218 H 814.598 -1.2309 -3.29457 0
M  V30 8219 H 814.472 0.460707 -3.74376 0
M  V30 8220 H 816.859 0.842274 -2.82825 0
M  V30 8221 H 816.94 -0.873661 -2.40418 0
M  V30 8222 H 816.584 -1.47451 -4.86025 0
M  V30 8223 H 816.514 0.260268 -5.25956 0
M  V30 8224 H 819.005 -0.217383 -3.77274 0
M  V30 8225 H 819.318 -1.06734 -7.65394 0
M  V30 8226 H 817.663 -0.953 -6.88435 0
M  V30 8227 H 820.854 -0.35334 -4.66765 0
M  V30 8228 H 821.027 -0.740698 -6.43753 0
M  V30 8229 N 814.433 1.57553 0.0384317 0
M  V30 8230 C 815.71 1.79977 0.766002 0
M  V30 8231 C 816.09 0.830625 1.94072 0
M  V30 8232 O 815.438 -0.129243 2.28134 0
M  V30 8233 C 815.648 3.27434 1.20781 0
M  V30 8234 C 816.996 3.92167 1.62758 0
M  V30 8235 O 818.02 3.31527 1.30263 0
M  V30 8236 O 816.879 4.98917 2.23035 0
M  V30 8237 H 813.973 0.739787 0.369654 0
M  V30 8238 H 816.519 1.69693 0.0159312 0
M  V30 8239 H 815.291 3.89558 0.368792 0
M  V30 8240 H 814.914 3.42571 2.01819 0
M  V30 8241 N 815.911 -0.310526 1.54511 0
M  V30 8242 C 817.159 -1.04484 1.72996 0
M  V30 8243 C 817.48 -1.88118 0.513479 0
M  V30 8244 O 816.75 -1.90119 -0.472384 0
M  V30 8245 H 815.33 -0.388747 0.637875 0
M  V30 8246 H 817.992 -0.343811 1.91844 0
M  V30 8247 H 817.088 -1.70341 2.61515 0
M  V30 8248 N 817.389 -1.46805 -0.573248 0
M  V30 8249 C 818.337 -1.58468 -1.70267 0
M  V30 8250 C 819.331 -0.452694 -1.63239 0
M  V30 8251 O 820.537 -0.629915 -1.68618 0
M  V30 8252 H 816.912 -0.498408 -0.56311 0
M  V30 8253 H 818.883 -2.5341 -1.57563 0
M  V30 8254 C 817.632 -1.60104 -3.08645 0
M  V30 8255 H 816.955 -2.4655 -3.14727 0
M  V30 8256 H 818.395 -1.72318 -3.87405 0
M  V30 8257 C 816.854 -0.33138 -3.35266 0
M  V30 8258 O 817.384 0.57438 -3.97572 0
M  V30 8259 N 815.59 -0.216358 -2.89793 0
M  V30 8260 H 815.137 -0.954345 -2.3927 0
M  V30 8261 H 815.095 0.632253 -3.07977 0
M  V30 8262 N 818.867 0.818669 -1.34668 0
M  V30 8263 C 819.799 1.93754 -1.22442 0
M  V30 8264 C 820.812 1.62103 -0.150501 0
M  V30 8265 O 822.001 1.73898 -0.402728 0
M  V30 8266 C 819.101 3.27806 -0.860031 0
M  V30 8267 C 818.274 3.8745 -2.02981 0
M  V30 8268 C 817.333 4.99887 -1.64314 0
M  V30 8269 O 816.359 5.17957 -2.36029 0
M  V30 8270 N 817.561 5.77795 -0.55976 0
M  V30 8271 H 820.326 2.04773 -2.18833 0
M  V30 8272 H 817.887 0.995472 -1.27679 0
M  V30 8273 H 819.879 4.00478 -0.583068 0
M  V30 8274 H 818.449 3.12597 0.0138253 0
M  V30 8275 H 817.669 3.07119 -2.47127 0
M  V30 8276 H 818.957 4.2403 -2.81204 0
M  V30 8277 H 818.355 5.65688 0.0363329 0
M  V30 8278 H 816.912 6.50899 -0.342541 0
M  V30 8279 N 820.346 1.18468 1.03938 0
M  V30 8280 C 821.594 0.978895 1.76811 0
M  V30 8281 C 821.915 -0.49257 1.88676 0
M  V30 8282 O 821.185 -1.3572 1.41269 0
M  V30 8283 H 819.765 0.359201 0.654968 0
M  V30 8284 H 822.427 1.49173 1.25433 0
M  V30 8285 H 821.523 1.418 2.78027 0
M  V30 8286 N 821.824 -1.22873 0.986916 0
M  V30 8287 C 822.756 -2.23889 0.490537 0
M  V30 8288 C 823.769 -1.57523 -0.411144 0
M  V30 8289 O 824.958 -1.7721 -0.214236 0
M  V30 8290 C 822.058 -3.37488 -0.30902 0
M  V30 8291 C 821.231 -4.33438 0.587354 0
M  V30 8292 C 820.29 -5.25958 -0.159467 0
M  V30 8293 O 819.316 -5.67394 0.453115 0
M  V30 8294 N 820.518 -5.62265 -1.44355 0
M  V30 8295 H 823.283 -2.67109 1.35914 0
M  V30 8296 H 820.844 -1.37111 0.860937 0
M  V30 8297 H 822.836 -3.96365 -0.817139 0
M  V30 8298 H 821.406 -2.934 -1.07868 0
M  V30 8299 H 820.626 -3.72969 1.27622 0
M  V30 8300 H 821.914 -4.94495 1.19801 0
M  V30 8301 H 821.312 -5.30562 -1.96266 0
M  V30 8302 H 819.869 -6.23585 -1.89698 0
M  V30 8303 N 823.302 -0.75937 -1.38099 0
M  V30 8304 C 824.718 -0.437606 -1.53483 0
M  V30 8305 C 824.918 1.04849 -1.72072 0
M  V30 8306 O 823.974 1.83448 -1.73502 0
M  V30 8307 C 825.287 -1.24189 -2.73857 0
M  V30 8308 C 826.835 -1.23255 -2.8771 0
M  V30 8309 C 827.31 -2.01992 -4.11051 0
M  V30 8310 N 828.801 -1.99282 -4.1814 0
M  V30 8311 C 829.536 -2.56996 -5.12583 0
M  V30 8312 N 829.032 -3.23446 -6.12662 0
M  V30 8313 N 830.825 -2.46894 -5.04975 0
M  V30 8314 H 822.976 -1.72242 -1.24283 0
M  V30 8315 H 825.239 -0.730507 -0.604205 0
M  V30 8316 H 824.945 -2.29449 -2.66545 0
M  V30 8317 H 824.819 -0.862672 -3.67203 0
M  V30 8318 H 827.206 -0.187988 -2.94501 0
M  V30 8319 H 827.287 -1.65132 -1.95359 0
M  V30 8320 H 826.931 -3.06462 -4.05023 0
M  V30 8321 H 826.861 -1.57505 -5.02494 0
M  V30 8322 H 829.352 -1.50893 -3.46467 0
M  V30 8323 H 829.665 -3.6489 -6.81231 0
M  V30 8324 H 828.01 -3.27543 -6.12977 0
M  V30 8325 H 831.201 -1.94604 -4.25731 0
M  V30 8326 H 831.374 -2.92168 -5.78396 0
M  V30 8327 N 824.78 1.49157 -0.508906 0
M  V30 8328 C 826.191 1.86593 -0.0630975 0
M  V30 8329 C 826.542 1.42051 1.35337 0
M  V30 8330 O 825.667 0.801866 2.00995 0
M  V30 8331 C 826.262 3.38629 -0.107729 0
M  V30 8332 C 824.821 3.75336 0.282776 0
M  V30 8333 C 823.968 2.7317 -0.4768 0
M  V30 8334 H 826.919 1.41362 -0.72128 0
M  V30 8335 H 826.94 3.74271 0.685689 0
M  V30 8336 H 826.452 3.71017 -1.13876 0
M  V30 8337 H 824.553 3.48558 1.31675 0
M  V30 8338 H 824.666 4.79081 -0.0421728 0
M  V30 8339 H 823.03 2.54591 0.0743552 0
M  V30 8340 H 823.813 3.08403 -1.50807 0
M  V30 8341 N 826.258 0.243083 1.55714 0
M  V30 8342 C 827.506 -0.381964 1.98458 0
M  V30 8343 C 827.827 -1.58745 1.13247 0
M  V30 8344 O 827.097 -1.94723 0.214384 0
M  V30 8345 H 825.677 -0.144114 0.732967 0
M  V30 8346 H 828.339 0.340985 1.91894 0
M  V30 8347 H 827.435 -0.693702 3.04293 0
M  V30 8348 N 827.736 -1.57571 -0.0300757 0
M  V30 8349 C 828.683 -2.06492 -1.03101 0
M  V30 8350 C 829.653 -0.953862 -1.3598 0
M  V30 8351 O 830.838 -1.22436 -1.46335 0
M  V30 8352 C 827.978 -2.54826 -2.32718 0
M  V30 8353 C 827.091 -3.79718 -2.06006 0
M  V30 8354 C 826.226 -4.16668 -3.29487 0
M  V30 8355 C 825.265 -5.3448 -2.98324 0
M  V30 8356 N 824.402 -5.66867 -4.14254 0
M  V30 8357 H 829.242 -2.91755 -0.606877 0
M  V30 8358 H 826.779 -1.44252 -0.288038 0
M  V30 8359 H 828.737 -2.80916 -3.08451 0
M  V30 8360 H 827.367 -1.72481 -2.72856 0
M  V30 8361 H 826.419 -3.60718 -1.20774 0
M  V30 8362 H 827.731 -4.65569 -1.79017 0
M  V30 8363 H 826.885 -4.43881 -4.13588 0
M  V30 8364 H 825.624 -3.29466 -3.59588 0
M  V30 8365 H 824.629 -5.07021 -2.12625 0
M  V30 8366 H 825.854 -6.23334 -2.69502 0
M  V30 8367 H 823.8 -4.82625 -4.44308 0
M  V30 8368 H 823.717 -6.47226 -3.90685 0
M  V30 8369 H 824.985 -5.98656 -4.99231 0
M  V30 8370 N 829.214 0.302327 -1.54673 0
M  V30 8371 C 830.462 1.03565 -1.73547 0
M  V30 8372 C 830.783 1.87843 -0.523448 0
M  V30 8373 O 830.053 1.90367 0.462295 0
M  V30 8374 H 828.633 0.385358 -0.639928 0
M  V30 8375 H 831.295 0.333632 -1.92023 0
M  V30 8376 H 830.391 1.68952 -2.62415 0
M  V30 8377 N 830.692 1.47107 0.565454 0
M  V30 8378 C 831.622 1.61846 1.68309 0
M  V30 8379 C 832.603 0.468159 1.63531 0
M  V30 8380 O 833.788 0.696504 1.8128 0
M  V30 8381 C 830.918 1.62474 3.06952 0
M  V30 8382 C 829.872 2.76649 3.26572 0
M  V30 8383 C 829.198 2.62345 4.65917 0
M  V30 8384 C 830.498 4.18319 3.12741 0
M  V30 8385 H 832.192 2.55407 1.5623 0
M  V30 8386 H 829.738 1.22916 0.750179 0
M  V30 8387 H 831.691 1.71378 3.84977 0
M  V30 8388 H 830.415 0.654692 3.19971 0
M  V30 8389 H 829.074 2.67242 2.50952 0
M  V30 8390 H 828.722 1.63386 4.75725 0
M  V30 8391 H 828.422 3.38936 4.79996 0
M  V30 8392 H 829.946 2.73165 5.46089 0
M  V30 8393 H 831.36 4.28745 3.80593 0
M  V30 8394 H 829.757 4.95632 3.38333 0
M  V30 8395 H 830.827 4.37263 2.09592 0
M  V30 8396 N 832.17 -0.811516 1.35101 0
M  V30 8397 C 833.395 -1.60499 1.31358 0
M  V30 8398 C 833.82 -1.87793 -0.107383 0
M  V30 8399 O 833.178 -1.46161 -1.07268 0
M  V30 8400 C 833.226 -2.91612 2.12119 0
M  V30 8401 O 832.33 -3.84211 1.49853 0
M  V30 8402 H 831.671 -0.487702 0.450603 0
M  V30 8403 H 834.201 -1.00758 1.7807 0
M  V30 8404 H 834.211 -3.4108 2.23894 0
M  V30 8405 H 832.886 -2.71071 3.15426 0
M  V30 8406 H 831.463 -3.42751 1.46889 0
M  V30 8407 N 833.648 -1.19017 -1.03309 0
M  V30 8408 C 834.873 -1.01598 -1.80811 0
M  V30 8409 C 835.298 0.430773 -1.83101 0
M  V30 8410 O 834.656 1.30946 -1.25391 0
M  V30 8411 C 834.704 -1.5845 -3.23923 0
M  V30 8412 O 833.808 -0.810972 -4.04348 0
M  V30 8413 H 833.149 -0.359398 -0.558327 0
M  V30 8414 H 835.679 -1.57945 -1.30055 0
M  V30 8415 H 835.689 -1.61486 -3.74682 0
M  V30 8416 H 834.364 -2.63752 -3.21571 0
M  V30 8417 H 832.941 -0.85353 -3.63 0
M  V30 8418 N 835.127 1.22348 -0.993418 0
M  V30 8419 C 836.375 1.90733 -0.668246 0
M  V30 8420 C 836.696 1.77732 0.802261 0
M  V30 8421 O 835.966 1.16486 1.57505 0
M  V30 8422 H 834.546 0.705966 -0.244174 0
M  V30 8423 H 837.208 1.48691 -1.26004 0
M  V30 8424 H 836.304 2.97883 -0.931239 0
M  V30 8425 N 836.605 0.766683 1.37694 0
M  V30 8426 C 837.83 0.338715 2.04615 0
M  V30 8427 C 838.255 -1.02918 1.57447 0
M  V30 8428 O 837.613 -1.65849 0.732386 0
M  V30 8429 C 837.661 0.385284 3.58536 0
M  V30 8430 O 836.765 -0.616081 4.07772 0
M  V30 8431 H 836.106 0.147527 0.647404 0
M  V30 8432 H 838.636 1.04146 1.7611 0
M  V30 8433 H 838.646 0.240782 4.07289 0
M  V30 8434 H 837.321 1.38325 3.92223 0
M  V30 8435 H 835.898 -0.435115 3.70353 0
M  V30 8436 N 838.083 -1.48885 0.516809 0
M  V30 8437 C 839.329 -2.03395 -0.0140225 0
M  V30 8438 C 839.684 -1.38808 -1.33229 0
M  V30 8439 O 838.977 -0.520104 -1.84406 0
M  V30 8440 C 839.171 -3.56801 -0.206798 0
M  V30 8441 C 839 -4.36259 1.09124 0
M  V30 8442 C 837.77 -4.77689 1.64745 0
M  V30 8443 C 839.968 -4.73881 1.99854 0
M  V30 8444 N 837.95 -5.41634 2.88975 0
M  V30 8445 C 839.321 -5.37707 3.08661 0
M  V30 8446 C 841.376 -4.55816 2.00341 0
M  V30 8447 C 840.079 -5.85379 4.18001 0
M  V30 8448 C 842.105 -5.04459 3.08666 0
M  V30 8449 C 841.467 -5.68299 4.16191 0
M  V30 8450 H 837.566 -0.781169 0.036042 0
M  V30 8451 H 840.15 -1.81867 0.695173 0
M  V30 8452 H 838.321 -3.78181 -0.885064 0
M  V30 8453 H 840.053 -3.9795 -0.736053 0
M  V30 8454 H 836.808 -4.58392 1.19054 0
M  V30 8455 H 837.232 -5.78181 3.52187 0
M  V30 8456 H 841.874 -4.05851 1.18511 0
M  V30 8457 H 839.592 -6.34356 5.00618 0
M  V30 8458 H 843.178 -4.92281 3.10082 0
M  V30 8459 H 842.058 -6.05257 4.98631 0
M  V30 8460 N 839.561 -0.251338 -1.55583 0
M  V30 8461 C 840.972 0.25098 -1.85005 0
M  V30 8462 C 841.323 1.57259 -1.17321 0
M  V30 8463 O 840.448 2.11603 -0.453136 0
M  V30 8464 C 841.043 0.462161 -3.35633 0
M  V30 8465 C 839.602 0.908737 -3.65266 0
M  V30 8466 C 838.749 -0.0115418 -2.77298 0
M  V30 8467 H 841.7 -0.473782 -1.51463 0
M  V30 8468 H 841.721 1.30415 -3.57452 0
M  V30 8469 H 841.233 -0.499886 -3.84867 0
M  V30 8470 H 839.334 1.8831 -3.21512 0
M  V30 8471 H 839.447 0.762526 -4.72993 0
M  V30 8472 H 837.811 0.500612 -2.49732 0
M  V30 8473 H 838.594 -0.969042 -3.29339 0
M  V30 8474 N 841.039 1.57585 0.0217189 0
M  V30 8475 C 842.285 1.89887 0.712099 0
M  V30 8476 C 842.618 0.849971 1.74611 0
M  V30 8477 O 841.893 -0.13407 1.94037 0
M  V30 8478 C 842.176 3.32815 1.37499 0
M  V30 8479 C 842.029 4.48405 0.353993 0
M  V30 8480 C 843.348 3.74786 2.30703 0
M  V30 8481 H 840.467 0.690588 0.257405 0
M  V30 8482 H 843.109 1.89983 -0.0251145 0
M  V30 8483 H 841.259 3.32863 2.00335 0
M  V30 8484 H 842.931 4.60491 -0.273015 0
M  V30 8485 H 841.174 4.32573 -0.32599 0
M  V30 8486 H 841.845 5.45316 0.85644 0
M  V30 8487 H 844.321 3.76151 1.77904 0
M  V30 8488 H 843.197 4.75585 2.74061 0
M  V30 8489 H 843.458 3.07449 3.17691 0
M  V30 8490 N 842.517 -0.29412 1.54831 0
M  V30 8491 C 843.742 -1.05156 1.78765 0
M  V30 8492 C 844.167 -1.79916 0.548809 0
M  V30 8493 O 843.525 -1.74243 -0.500909 0
M  V30 8494 C 843.573 -2.00242 2.99893 0
M  V30 8495 O 842.677 -3.08662 2.73499 0
M  V30 8496 H 842.018 -0.301737 0.591482 0
M  V30 8497 H 844.548 -0.329449 2.0193 0
M  V30 8498 H 844.558 -2.42583 3.28051 0
M  V30 8499 H 843.233 -1.45235 3.89717 0
M  V30 8500 H 841.81 -2.70786 2.56377 0
M  V30 8501 N 843.995 -1.47404 -0.557645 0
M  V30 8502 C 844.905 -1.62491 -1.69216 0
M  V30 8503 C 845.921 -0.507764 -1.66426 0
M  V30 8504 O 847.097 -0.775241 -1.85882 0
M  V30 8505 C 844.162 -1.63511 -3.05721 0
M  V30 8506 C 843.223 -2.86648 -3.1958 0
M  V30 8507 C 842.456 -2.87609 -4.49574 0
M  V30 8508 O 842.679 -1.97799 -5.35006 0
M  V30 8509 O 841.613 -3.79465 -4.67215 0
M  V30 8510 H 845.439 -2.58487 -1.59431 0
M  V30 8511 H 843.024 -1.30485 -0.7276 0
M  V30 8512 H 844.906 -1.66863 -3.86956 0
M  V30 8513 H 843.581 -0.706812 -3.15889 0
M  V30 8514 H 842.488 -2.8884 -2.37744 0
M  V30 8515 H 843.821 -3.7877 -3.14316 0
M  V30 8516 N 845.473 0.80434 -1.35529 0
M  V30 8517 C 846.405 1.92445 -1.2449 0
M  V30 8518 C 847.418 1.61934 -0.167685 0
M  V30 8519 O 848.607 1.73461 -0.42115 0
M  V30 8520 C 845.707 3.26875 -0.894751 0
M  V30 8521 C 844.88 3.85275 -2.07079 0
M  V30 8522 C 843.939 4.98116 -1.69607 0
M  V30 8523 O 842.965 5.15424 -2.41509 0
M  V30 8524 N 844.167 5.77169 -0.621012 0
M  V30 8525 H 846.932 2.02441 -2.20993 0
M  V30 8526 H 844.493 0.981874 -1.28728 0
M  V30 8527 H 846.485 3.99837 -0.625511 0
M  V30 8528 H 845.055 3.12594 -0.0193306 0
M  V30 8529 H 844.275 3.0448 -2.5037 0
M  V30 8530 H 845.563 4.21024 -2.85685 0
M  V30 8531 H 844.961 5.65695 -0.0236679 0
M  V30 8532 H 843.518 6.50499 -0.411558 0
M  V30 8533 N 846.951 1.19563 1.02676 0
M  V30 8534 C 848.362 1.00158 1.57561 0
M  V30 8535 C 848.713 -0.444922 1.91089 0
M  V30 8536 O 847.838 -1.32466 1.71119 0
M  V30 8537 C 848.433 1.81181 2.86284 0
M  V30 8538 C 846.992 1.66171 3.37734 0
M  V30 8539 C 846.139 1.7975 2.11152 0
M  V30 8540 H 849.09 1.33904 0.85179 0
M  V30 8541 H 849.111 1.30916 3.57269 0
M  V30 8542 H 848.623 2.86454 2.6185 0
M  V30 8543 H 846.724 0.634927 3.6715 0
M  V30 8544 H 846.837 2.46832 4.10622 0
M  V30 8545 H 845.201 1.22833 2.23123 0
M  V30 8546 H 845.984 2.86487 1.89157 0
M  V30 8547 N 848.429 -1.21819 0.999893 0
M  V30 8548 C 849.392 -2.22227 0.561044 0
M  V30 8549 C 850.392 -1.56722 -0.359858 0
M  V30 8550 O 851.582 -1.73546 -0.150848 0
M  V30 8551 C 848.714 -3.40409 -0.182987 0
M  V30 8552 H 849.907 -2.62567 1.44909 0
M  V30 8553 H 847.46 -1.34991 0.78785 0
M  V30 8554 H 848.195 -3.05551 -1.08671 0
M  V30 8555 H 847.98 -3.89171 0.47833 0
M  V30 8556 H 849.47 -4.14856 -0.477952 0
M  V30 8557 N 849.908 -0.773975 -1.37286 0
M  V30 8558 C 851.154 -0.339809 -1.99933 0
M  V30 8559 C 851.487 1.0815 -1.61299 0
M  V30 8560 O 850.762 1.74442 -0.860252 0
M  V30 8561 C 851.045 -0.485919 -3.56806 0
M  V30 8562 C 850.898 -1.9498 -4.05343 0
M  V30 8563 C 852.217 0.108461 -4.39966 0
M  V30 8564 H 849.336 -0.124944 -0.726332 0
M  V30 8565 H 851.978 -0.977433 -1.6293 0
M  V30 8566 H 850.128 0.0569023 -3.88458 0
M  V30 8567 H 851.8 -2.5525 -3.84246 0
M  V30 8568 H 850.043 -2.45784 -3.57453 0
M  V30 8569 H 850.714 -2.00308 -5.14374 0
M  V30 8570 H 853.19 -0.354722 -4.14585 0
M  V30 8571 H 852.066 -0.0238926 -5.48895 0
M  V30 8572 H 852.327 1.19901 -4.25531 0
M  V30 8573 N 851.386 1.48609 -0.524698 0
M  V30 8574 C 852.611 2.07398 0.00952139 0
M  V30 8575 C 853.036 1.37939 1.27884 0
M  V30 8576 O 852.394 0.443633 1.75788 0
M  V30 8577 C 852.442 3.59916 0.221956 0
M  V30 8578 O 851.546 3.91647 1.29175 0
M  V30 8579 H 850.887 0.662981 -0.0367729 0
M  V30 8580 H 853.417 1.91092 -0.7311 0
M  V30 8581 H 853.427 4.05552 0.446236 0
M  V30 8582 H 852.102 4.09876 -0.705306 0
M  V30 8583 H 850.679 3.57796 1.05055 0
M  V30 8584 N 852.864 0.259585 1.55447 0
M  V30 8585 C 853.794 -0.62852 2.24882 0
M  V30 8586 C 854.775 -1.17128 1.23349 0
M  V30 8587 O 855.96 -1.20829 1.52033 0
M  V30 8588 C 853.09 -1.81983 2.95803 0
M  V30 8589 C 852.044 -1.40929 4.04132 0
M  V30 8590 C 851.37 -2.68246 4.62545 0
M  V30 8591 C 852.67 -0.570956 5.1917 0
M  V30 8592 H 854.364 -0.0495021 2.99359 0
M  V30 8593 H 851.91 -0.0223688 1.43983 0
M  V30 8594 H 853.863 -2.44689 3.43082 0
M  V30 8595 H 852.587 -2.42444 2.18835 0
M  V30 8596 H 851.246 -0.805519 3.57641 0
M  V30 8597 H 850.894 -3.26931 3.82263 0
M  V30 8598 H 850.594 -2.41495 5.35681 0
M  V30 8599 H 852.118 -3.31827 5.12565 0
M  V30 8600 H 853.532 -1.10262 5.62597 0
M  V30 8601 H 851.929 -0.398979 5.98772 0
M  V30 8602 H 852.999 0.413918 4.8313 0
M  V30 8603 N 854.342 -1.57594 -0.0133615 0
M  V30 8604 C 855.305 -2.06534 -0.993799 0
M  V30 8605 C 856.305 -0.972267 -1.28077 0
M  V30 8606 O 857.495 -1.23537 -1.22818 0
M  V30 8607 C 854.627 -2.49554 -2.3224 0
M  V30 8608 H 855.82 -2.94419 -0.570741 0
M  V30 8609 H 853.373 -1.54113 -0.260546 0
M  V30 8610 H 854.108 -1.64872 -2.79263 0
M  V30 8611 H 853.893 -3.29371 -2.12737 0
M  V30 8612 H 855.383 -2.8779 -3.026 0
M  V30 8613 N 855.82 0.285905 -1.54985 0
M  V30 8614 C 856.753 1.37817 -1.81884 0
M  V30 8615 C 857.731 1.4811 -0.670988 0
M  V30 8616 O 858.915 1.64936 -0.912595 0
M  V30 8617 C 856.042 2.75587 -1.969 0
M  V30 8618 C 855.088 2.82643 -3.19398 0
M  V30 8619 S 855.921 2.43199 -4.7709 0
M  V30 8620 C 857.077 3.82969 -4.95061 0
M  V30 8621 H 857.31 1.14794 -2.74244 0
M  V30 8622 H 854.843 0.484843 -1.4659 0
M  V30 8623 H 856.801 3.54932 -2.06236 0
M  V30 8624 H 855.462 2.9587 -1.05451 0
M  V30 8625 H 854.655 3.8373 -3.26753 0
M  V30 8626 H 854.257 2.11306 -3.08586 0
M  V30 8627 H 856.549 4.78117 -4.80011 0
M  V30 8628 H 857.492 3.80575 -5.97133 0
M  V30 8629 H 857.9 3.73673 -4.23118 0
M  V30 8630 N 857.298 1.47698 0.54982 0
M  V30 8631 C 858.526 1.5833 1.33188 0
M  V30 8632 C 858.941 0.236193 1.87317 0
M  V30 8633 O 858.298 -0.77167 1.65383 0
M  V30 8634 C 858.349 2.61438 2.49664 0
M  V30 8635 O 858.07 3.9092 1.97771 0
M  V30 8636 C 859.571 2.82324 3.41772 0
M  V30 8637 H 856.791 0.53443 0.405741 0
M  V30 8638 H 859.335 1.93375 0.665309 0
M  V30 8639 H 857.49 2.29307 3.12245 0
M  V30 8640 H 857.904 4.47323 2.73866 0
M  V30 8641 H 859.378 3.58316 4.19897 0
M  V30 8642 H 859.855 1.90416 3.95776 0
M  V30 8643 H 860.461 3.15682 2.85 0
M  V30 8644 N 858.776 -0.797141 1.35954 0
M  V30 8645 C 859.709 -1.91567 1.24005 0
M  V30 8646 C 860.687 -1.62112 0.125868 0
M  V30 8647 O 861.871 -1.86167 0.295638 0
M  V30 8648 C 858.998 -3.26204 0.911535 0
M  V30 8649 C 858.044 -3.74598 2.03909 0
M  V30 8650 S 858.877 -3.91276 3.656 0
M  V30 8651 C 860.033 -5.288 3.34846 0
M  V30 8652 H 860.266 -2.0141 2.18681 0
M  V30 8653 H 857.799 -0.955542 1.2128 0
M  V30 8654 H 859.757 -4.03979 0.728805 0
M  V30 8655 H 858.418 -3.14095 -0.0173159 0
M  V30 8656 H 857.611 -4.72137 1.7636 0
M  V30 8657 H 857.213 -3.03849 2.18064 0
M  V30 8658 H 859.505 -6.13117 2.8826 0
M  V30 8659 H 860.448 -5.61347 4.31619 0
M  V30 8660 H 860.856 -4.95534 2.70382 0
M  V30 8661 N 860.254 -1.20106 -1.0204 0
M  V30 8662 C 861.164 -0.962051 -2.13967 0
M  V30 8663 C 862.18 0.0808053 -1.73812 0
M  V30 8664 O 863.356 -0.105774 -2.01122 0
M  V30 8665 C 860.421 -0.513108 -3.42882 0
M  V30 8666 C 859.482 -1.62636 -3.97301 0
M  V30 8667 C 858.715 -1.19875 -5.20063 0
M  V30 8668 O 858.938 -0.0658423 -5.70362 0
M  V30 8669 O 857.872 -2.00467 -5.67536 0
M  V30 8670 H 861.698 -1.8991 -2.36998 0
M  V30 8671 H 859.283 -0.984608 -1.12365 0
M  V30 8672 H 861.165 -0.271797 -4.20523 0
M  V30 8673 H 859.84 0.395402 -3.21276 0
M  V30 8674 H 858.747 -1.92192 -3.20957 0
M  V30 8675 H 860.08 -2.51174 -4.23288 0
M  V30 8676 N 861.732 1.21287 -1.00634 0
M  V30 8677 C 862.682 2.21541 -0.53886 0
M  V30 8678 C 863.666 1.55842 0.400256 0
M  V30 8679 O 864.858 1.75566 0.224889 0
M  V30 8680 C 861.987 3.43047 0.131796 0
M  V30 8681 C 861.073 4.1593 -0.828419 0
M  V30 8682 N 861.464 4.65359 -1.98178 0
M  V30 8683 C 859.762 4.41281 -0.647083 0
M  V30 8684 C 860.463 5.21079 -2.58557 0
M  V30 8685 N 859.439 5.10531 -1.86705 0
M  V30 8686 H 863.241 2.57413 -1.41831 0
M  V30 8687 H 860.755 1.37109 -0.870338 0
M  V30 8688 H 862.752 4.14079 0.484178 0
M  V30 8689 H 861.412 3.08683 1.00721 0
M  V30 8690 H 862.423 4.60896 -2.3621 0
M  V30 8691 H 859.1 4.17107 0.181139 0
M  V30 8692 H 860.49 5.6977 -3.56107 0
M  V30 8693 N 863.21 0.781244 1.36873 0
M  V30 8694 C 864.157 0.172146 2.30157 0
M  V30 8695 C 865.127 -0.679328 1.51573 0
M  V30 8696 O 866.312 -0.629713 1.80109 0
M  V30 8697 C 863.452 -0.693534 3.38059 0
M  V30 8698 C 862.565 0.175586 4.31643 0
M  V30 8699 C 861.7 -0.695695 5.26625 0
M  V30 8700 C 860.739 0.17538 6.11849 0
M  V30 8701 N 859.876 -0.654416 6.99043 0
M  V30 8702 H 864.716 0.973133 2.81663 0
M  V30 8703 H 862.253 0.491469 1.38647 0
M  V30 8704 H 864.211 -1.21035 3.99257 0
M  V30 8705 H 862.841 -1.46003 2.87894 0
M  V30 8706 H 861.893 0.810295 3.7167 0
M  V30 8707 H 863.205 0.847107 4.91554 0
M  V30 8708 H 862.359 -1.27863 5.93073 0
M  V30 8709 H 861.098 -1.40087 4.67148 0
M  V30 8710 H 860.103 0.77078 5.4437 0
M  V30 8711 H 861.328 0.87803 6.734 0
M  V30 8712 H 859.274 -1.34403 6.42084 0
M  V30 8713 H 859.191 -0.0403998 7.55989 0
M  V30 8714 H 860.459 -1.22144 7.69871 0
M  V30 8715 N 864.689 -1.48329 0.532571 0
M  V30 8716 C 865.966 -1.95492 -0.0650985 0
M  V30 8717 C 866.346 -1.47485 -1.51034 0
M  V30 8718 O 865.694 -0.702516 -2.17433 0
M  V30 8719 C 865.904 -3.48957 0.0548341 0
M  V30 8720 C 867.252 -4.24475 -0.103115 0
M  V30 8721 O 868.276 -3.56195 -0.0188343 0
M  V30 8722 O 867.135 -5.45781 -0.280164 0
M  V30 8723 H 864.229 -0.823327 -0.0778603 0
M  V30 8724 H 866.775 -1.58839 0.597353 0
M  V30 8725 H 865.547 -3.76628 1.06148 0
M  V30 8726 H 865.17 -3.92311 -0.64635 0
M  V30 8727 N 866.167 -0.267825 -1.55308 0
M  V30 8728 C 867.583 0.0865107 -1.59365 0
M  V30 8729 C 867.783 1.55205 -1.28505 0
M  V30 8730 O 866.839 2.29978 -1.04241 0
M  V30 8731 C 868.152 -0.28155 -2.99379 0
M  V30 8732 C 869.7 -0.227565 -3.12172 0
M  V30 8733 C 870.175 -0.569959 -4.5444 0
M  V30 8734 N 871.666 -0.521238 -4.60258 0
M  V30 8735 C 872.401 -0.759061 -5.68354 0
M  V30 8736 N 871.897 -1.06112 -6.84626 0
M  V30 8737 N 873.69 -0.688351 -5.57869 0
M  V30 8738 H 865.841 -1.22332 -1.73633 0
M  V30 8739 H 868.104 -0.493703 -0.809297 0
M  V30 8740 H 867.81 -1.3005 -3.26772 0
M  V30 8741 H 867.684 0.381192 -3.75269 0
M  V30 8742 H 870.071 0.782093 -2.84548 0
M  V30 8743 H 870.152 -0.924461 -2.38511 0
M  V30 8744 H 869.796 -1.57727 -4.82788 0
M  V30 8745 H 869.726 0.148646 -5.2639 0
M  V30 8746 H 872.217 -0.297359 -3.76728 0
M  V30 8747 H 872.53 -1.22945 -7.62958 0
M  V30 8748 H 870.875 -1.09881 -6.86259 0
M  V30 8749 H 874.066 -0.452268 -4.6591 0
M  V30 8750 H 874.239 -0.877081 -6.42037 0
M  V30 8751 N 867.645 1.57599 0.00500368 0
M  V30 8752 C 869.056 1.78462 0.54848 0
M  V30 8753 C 869.407 0.901869 1.74243 0
M  V30 8754 O 868.532 0.103014 2.16155 0
M  V30 8755 C 869.127 3.2365 1.00179 0
M  V30 8756 C 867.686 3.45627 1.49061 0
M  V30 8757 C 866.833 2.73794 0.439531 0
M  V30 8758 H 869.784 1.57151 -0.22118 0
M  V30 8759 H 869.805 3.31488 1.86805 0
M  V30 8760 H 869.317 3.87873 0.132607 0
M  V30 8761 H 867.418 2.86612 2.38085 0
M  V30 8762 H 867.531 4.54298 1.52152 0
M  V30 8763 H 865.895 2.38267 0.900043 0
M  V30 8764 H 866.678 3.40714 -0.420599 0
M  V30 8765 N 869.123 -0.277682 1.55134 0
M  V30 8766 C 870.053 -1.34742 1.90701 0
M  V30 8767 C 871.034 -1.51757 0.768354 0
M  V30 8768 O 872.219 -1.64879 1.02609 0
M  V30 8769 C 869.349 -2.70775 2.17481 0
M  V30 8770 C 868.303 -2.68497 3.33307 0
M  V30 8771 C 867.629 -4.08037 3.45557 0
M  V30 8772 C 868.929 -2.28178 4.69821 0
M  V30 8773 H 870.623 -1.05224 2.803 0
M  V30 8774 H 868.169 -0.504738 1.34864 0
M  V30 8775 H 870.122 -3.45719 2.40949 0
M  V30 8776 H 868.846 -3.01867 1.24676 0
M  V30 8777 H 867.505 -1.9601 3.09799 0
M  V30 8778 H 867.153 -4.36344 2.50226 0
M  V30 8779 H 866.853 -4.07409 4.23429 0
M  V30 8780 H 868.377 -4.84726 3.71312 0
M  V30 8781 H 869.791 -2.92843 4.92865 0
M  V30 8782 H 868.188 -2.3872 5.50575 0
M  V30 8783 H 869.258 -1.23308 4.6896 0
M  V30 8784 N 870.601 -1.47988 -0.541979 0
M  V30 8785 C 871.847 -1.55623 -1.30036 0
M  V30 8786 C 872.18 -0.224254 -1.92901 0
M  V30 8787 O 871.455 0.768629 -1.78668 0
M  V30 8788 C 871.738 -2.68562 -2.39888 0
M  V30 8789 C 871.591 -4.11426 -1.81792 0
M  V30 8790 C 872.91 -2.77325 -3.41729 0
M  V30 8791 H 870.029 -0.566498 -0.471433 0
M  V30 8792 H 872.671 -1.8011 -0.604998 0
M  V30 8793 H 870.821 -2.47814 -2.992 0
M  V30 8794 H 872.493 -4.43581 -1.26624 0
M  V30 8795 H 870.736 -4.18989 -1.12386 0
M  V30 8796 H 871.407 -4.8625 -2.61276 0
M  V30 8797 H 873.883 -2.96085 -2.92357 0
M  V30 8798 H 872.759 -3.58097 -4.16002 0
M  V30 8799 H 873.02 -1.84995 -4.01534 0
M  V30 8800 N 872.079 0.78992 -1.36375 0
M  V30 8801 C 873.495 1.0879 -1.16777 0
M  V30 8802 C 873.695 2.01498 0.00848236 0
M  V30 8803 O 872.751 2.43338 0.674007 0
M  V30 8804 C 874.064 1.70285 -2.47837 0
M  V30 8805 C 875.612 1.82629 -2.54196 0
M  V30 8806 C 876.087 2.47539 -3.85342 0
M  V30 8807 N 877.578 2.55008 -3.86685 0
M  V30 8808 C 878.313 3.06041 -4.84898 0
M  V30 8809 N 877.809 3.57385 -5.93505 0
M  V30 8810 N 879.602 3.04748 -4.72319 0
M  V30 8811 H 871.753 0.173985 -2.11686 0
M  V30 8812 H 874.016 0.139798 -0.937636 0
M  V30 8813 H 873.722 1.09633 -3.34176 0
M  V30 8814 H 873.596 2.69799 -2.63607 0
M  V30 8815 H 875.983 2.42419 -1.68276 0
M  V30 8816 H 876.064 0.81923 -2.42327 0
M  V30 8817 H 875.708 1.88393 -4.71668 0
M  V30 8818 H 875.638 3.48815 -3.94507 0
M  V30 8819 H 878.129 2.18651 -3.08221 0
M  V30 8820 H 878.442 3.94674 -6.64419 0
M  V30 8821 H 876.787 3.55538 -5.97175 0
M  V30 8822 H 879.978 2.63925 -3.86602 0
M  V30 8823 H 880.151 3.44212 -5.49019 0
M  V30 8824 N 873.557 1.20646 1.01402 0
M  V30 8825 C 874.803 1.0197 1.753 0
M  V30 8826 C 875.136 -0.446803 1.8899 0
M  V30 8827 O 874.411 -1.33169 1.41762 0
M  V30 8828 C 874.694 1.70693 3.17074 0
M  V30 8829 C 874.547 3.24805 3.11162 0
M  V30 8830 C 875.866 1.44212 4.15802 0
M  V30 8831 H 872.985 0.371844 0.636318 0
M  V30 8832 H 875.627 1.48696 1.18277 0
M  V30 8833 H 873.777 1.30968 3.65759 0
M  V30 8834 H 875.449 3.73841 2.70261 0
M  V30 8835 H 873.692 3.55576 2.48492 0
M  V30 8836 H 874.363 3.68049 4.11393 0
M  V30 8837 H 876.839 1.7868 3.75783 0
M  V30 8838 H 875.715 1.94825 5.13161 0
M  V30 8839 H 875.976 0.370252 4.40547 0
M  V30 8840 N 875.035 -1.20752 1.01276 0
M  V30 8841 C 876.284 -1.8934 0.695229 0
M  V30 8842 C 876.597 -1.79459 -0.77806 0
M  V30 8843 O 877.803 -2.43146 -1.20799 0
M  V30 8844 C 876.259 -3.39548 1.1931 0
M  V30 8845 C 875.867 -3.58023 2.69302 0
M  V30 8846 C 877.611 -4.13714 0.950823 0
M  V30 8847 C 875.518 -5.02037 3.1259 0
M  V30 8848 H 874.448 -0.709084 0.25635 0
M  V30 8849 H 877.099 -1.36629 1.22494 0
M  V30 8850 H 875.481 -3.91559 0.591395 0
M  V30 8851 H 876.655 -3.16416 3.34989 0
M  V30 8852 H 874.97 -2.97222 2.9163 0
M  V30 8853 H 877.567 -5.19891 1.24971 0
M  V30 8854 H 877.91 -4.16147 -0.112791 0
M  V30 8855 H 878.443 -3.67792 1.51571 0
M  V30 8856 H 875.182 -5.04757 4.18211 0
M  V30 8857 H 874.702 -5.44469 2.51621 0
M  V30 8858 H 876.381 -5.70594 3.0501 0
M  V30 8859 N 876.513 -0.788492 -1.36457 0
M  V30 8860 C 877.443 -0.200468 -2.32638 0
M  V30 8861 C 878.424 0.664031 -1.56603 0
M  V30 8862 O 879.609 0.598045 -1.84762 0
M  V30 8863 C 876.739 0.666274 -3.40849 0
M  V30 8864 C 875.693 -0.0982574 -4.27887 0
M  V30 8865 C 875.019 0.889018 -5.27258 0
M  V30 8866 C 876.319 -1.28692 -5.06197 0
M  V30 8867 H 878.013 -1.00399 -2.82065 0
M  V30 8868 H 875.559 -0.484237 -1.35614 0
M  V30 8869 H 877.512 1.08757 -4.07124 0
M  V30 8870 H 876.236 1.50249 -2.89987 0
M  V30 8871 H 874.895 -0.500525 -3.63167 0
M  V30 8872 H 874.543 1.72024 -4.7267 0
M  V30 8873 H 874.243 0.381909 -5.86358 0
M  V30 8874 H 875.767 1.30891 -5.96406 0
M  V30 8875 H 877.181 -0.941429 -5.65517 0
M  V30 8876 H 875.578 -1.72726 -5.74705 0
M  V30 8877 H 876.648 -2.08273 -4.37893 0
M  V30 8878 N 877.991 1.48044 -0.54043 0
M  V30 8879 C 879.219 2.06895 -0.0145153 0
M  V30 8880 C 879.634 1.39552 1.27164 0
M  V30 8881 O 878.991 0.486454 1.75897 0
M  V30 8882 C 879.042 3.60934 0.202278 0
M  V30 8883 O 878.763 4.25749 -1.03293 0
M  V30 8884 C 880.264 4.36607 0.767387 0
M  V30 8885 H 877.484 0.66991 -0.0382368 0
M  V30 8886 H 880.028 1.90288 -0.749057 0
M  V30 8887 H 878.183 3.77111 0.886897 0
M  V30 8888 H 878.597 5.18048 -0.820167 0
M  V30 8889 H 880.071 5.45126 0.86845 0
M  V30 8890 H 880.548 4.01745 1.77477 0
M  V30 8891 H 881.154 4.25133 0.119002 0
M  V30 8892 N 879.47 0.276058 1.55163 0
M  V30 8893 C 880.418 -0.626978 2.2399 0
M  V30 8894 C 881.412 -1.15708 1.23725 0
M  V30 8895 O 882.618 -1.1106 1.41653 0
M  V30 8896 H 878.993 -0.220742 0.718872 0
M  V30 8897 H 880.964 -0.0236569 2.98391 0
M  V30 8898 C 879.713 -1.79935 2.97521 0
M  V30 8899 H 879.036 -1.40064 3.74463 0
M  V30 8900 H 880.476 -2.40781 3.48999 0
M  V30 8901 C 878.935 -2.68838 2.03046 0
M  V30 8902 O 879.465 -3.69224 1.58229 0
M  V30 8903 N 877.671 -2.36028 1.69527 0
M  V30 8904 H 877.218 -1.54442 2.06169 0
M  V30 8905 H 877.176 -2.95782 1.06586 0
M  V30 8906 N 880.948 -1.576 0.00335426 0
M  V30 8907 C 882.176 -1.94996 -0.691685 0
M  V30 8908 C 882.591 -0.878405 -1.67121 0
M  V30 8909 O 881.948 0.142343 -1.81944 0
M  V30 8910 C 881.999 -3.32416 -1.42063 0
M  V30 8911 O 881.72 -4.35458 -0.48038 0
M  V30 8912 C 883.221 -3.84291 -2.20987 0
M  V30 8913 H 880.441 -0.642814 -0.192434 0
M  V30 8914 H 882.985 -2.04425 0.0554706 0
M  V30 8915 H 881.14 -3.24285 -2.11939 0
M  V30 8916 H 881.554 -5.14975 -0.995054 0
M  V30 8917 H 883.028 -4.82863 -2.67483 0
M  V30 8918 H 883.505 -3.17174 -3.03805 0
M  V30 8919 H 884.111 -3.95609 -1.56121 0
M  V30 8920 N 882.426 0.269451 -1.5528 0
M  V30 8921 C 883.674 0.998604 -1.75705 0
M  V30 8922 C 883.995 1.86691 -0.563175 0
M  V30 8923 O 883.265 1.91305 0.421811 0
M  V30 8924 H 881.845 0.371698 -0.647958 0
M  V30 8925 H 884.507 0.292826 -1.92688 0
M  V30 8926 H 883.603 1.63348 -2.6594 0
M  V30 8927 N 883.904 1.48273 0.534124 0
M  V30 8928 C 885.129 1.59988 1.31979 0
M  V30 8929 C 885.554 0.258824 1.86311 0
M  V30 8930 O 884.912 -0.768885 1.64188 0
M  V30 8931 C 884.96 2.64642 2.44943 0
M  V30 8932 O 884.064 2.21515 3.47858 0
M  V30 8933 H 883.405 0.536625 0.391063 0
M  V30 8934 H 885.935 1.94229 0.643135 0
M  V30 8935 H 885.945 2.85786 2.91187 0
M  V30 8936 H 884.62 3.62004 2.04758 0
M  V30 8937 H 883.197 2.10567 3.0776 0
M  V30 8938 N 885.382 -0.782676 1.36792 0
M  V30 8939 C 886.332 -1.8855 1.28191 0
M  V30 8940 C 887.316 -1.59978 0.171984 0
M  V30 8941 O 888.508 -1.72295 0.405405 0
M  V30 8942 C 885.637 -3.25862 1.08021 0
M  V30 8943 C 884.723 -3.60422 2.2351 0
M  V30 8944 N 885.114 -3.66241 3.48857 0
M  V30 8945 C 883.412 -3.90523 2.15424 0
M  V30 8946 C 884.113 -3.97233 4.24948 0
M  V30 8947 N 883.089 -4.12567 3.53963 0
M  V30 8948 H 886.891 -1.91285 2.23131 0
M  V30 8949 H 884.405 -0.978554 1.29607 0
M  V30 8950 H 886.402 -4.04742 0.999458 0
M  V30 8951 H 885.062 -3.24399 0.139882 0
M  V30 8952 H 886.073 -3.48717 3.82906 0
M  V30 8953 H 882.75 -3.96945 1.29386 0
M  V30 8954 H 884.14 -4.08602 5.33379 0
M  V30 8955 N 886.86 -1.21182 -1.00761 0
M  V30 8956 C 888.271 -1.02652 -1.55947 0
M  V30 8957 C 888.622 0.414466 -1.91772 0
M  V30 8958 O 887.747 1.29727 -1.73204 0
M  V30 8959 C 888.342 -1.85713 -2.83366 0
M  V30 8960 C 886.901 -1.71523 -3.35048 0
M  V30 8961 C 886.048 -1.83087 -2.08265 0
M  V30 8962 H 888.999 -1.35242 -0.830379 0
M  V30 8963 H 889.02 -1.36583 -3.55141 0
M  V30 8964 H 888.532 -2.90584 -2.5726 0
M  V30 8965 H 886.633 -0.693257 -3.66094 0
M  V30 8966 H 886.746 -2.53333 -4.06644 0
M  V30 8967 H 885.11 -1.26367 -2.21141 0
M  V30 8968 H 885.893 -2.8946 -1.84575 0
M  V30 8969 N 888.338 1.20213 -1.01915 0
M  V30 8970 C 889.584 1.89928 -0.711007 0
M  V30 8971 C 889.917 1.7881 0.75767 0
M  V30 8972 O 889.192 1.17399 1.55073 0
M  V30 8973 C 889.475 3.41225 -1.15053 0
M  V30 8974 C 889.328 3.61264 -2.67971 0
M  V30 8975 C 890.647 4.34108 -0.72377 0
M  V30 8976 H 887.766 0.689702 -0.259768 0
M  V30 8977 H 890.408 1.41557 -1.26734 0
M  V30 8978 H 888.558 3.82552 -0.677199 0
M  V30 8979 H 890.23 3.29173 -3.23176 0
M  V30 8980 H 888.473 3.04647 -3.08824 0
M  V30 8981 H 889.144 4.67331 -2.93779 0
M  V30 8982 H 891.62 4.00442 -1.13073 0
M  V30 8983 H 890.496 5.38581 -1.05931 0
M  V30 8984 H 890.757 4.40512 0.374424 0
M  V30 8985 N 889.816 0.795718 1.36037 0
M  V30 8986 C 890.763 0.196548 2.29962 0
M  V30 8987 C 891.733 -0.663213 1.52285 0
M  V30 8988 O 892.918 -0.610574 1.80767 0
M  V30 8989 C 890.058 -0.657639 3.38776 0
M  V30 8990 C 889.171 0.221358 4.31433 0
M  V30 8991 C 888.306 -0.6398 5.27333 0
M  V30 8992 C 887.345 0.240265 6.11628 0
M  V30 8993 N 886.482 -0.580237 6.99698 0
M  V30 8994 H 891.322 1.00295 2.80615 0
M  V30 8995 H 888.859 0.506147 1.38118 0
M  V30 8996 H 890.817 -1.16793 4.00519 0
M  V30 8997 H 889.447 -1.42941 2.89426 0
M  V30 8998 H 888.499 0.84967 3.70789 0
M  V30 8999 H 889.811 0.899195 4.90628 0
M  V30 9000 H 888.965 -1.21566 5.94396 0
M  V30 9001 H 887.704 -1.35124 4.68607 0
M  V30 9002 H 886.709 0.828474 5.43522 0
M  V30 9003 H 887.934 0.949403 6.72431 0
M  V30 9004 H 885.88 -1.27585 6.43473 0
M  V30 9005 H 885.797 0.0397853 7.5599 0
M  V30 9006 H 887.065 -1.13972 7.71123 0
M  V30 9007 N 891.294 -1.47756 0.548274 0
M  V30 9008 C 892.226 -2.27921 -0.24177 0
M  V30 9009 C 893.239 -1.36471 -0.887658 0
M  V30 9010 O 894.428 -1.6137 -0.763016 0
M  V30 9011 C 891.528 -3.10449 -1.35922 0
M  V30 9012 C 890.701 -4.298 -0.811808 0
M  V30 9013 C 889.76 -4.93994 -1.81264 0
M  V30 9014 O 888.786 -5.52657 -1.3623 0
M  V30 9015 N 889.988 -4.87882 -3.14566 0
M  V30 9016 H 892.753 -2.96365 0.445848 0
M  V30 9017 H 890.314 -1.57286 0.383769 0
M  V30 9018 H 892.306 -3.50261 -2.02729 0
M  V30 9019 H 890.876 -2.44306 -1.95021 0
M  V30 9020 H 890.096 -3.94186 0.0327929 0
M  V30 9021 H 891.384 -5.0702 -0.425272 0
M  V30 9022 H 890.782 -4.41405 -3.53805 0
M  V30 9023 H 889.339 -5.3174 -3.76956 0
M  V30 9024 N 892.772 -0.284283 -1.55015 0
M  V30 9025 C 894.188 0.069603 -1.59448 0
M  V30 9026 C 894.388 1.53833 -1.30144 0
M  V30 9027 O 893.444 2.2886 -1.06674 0
M  V30 9028 C 894.757 -0.313287 -2.99064 0
M  V30 9029 C 896.305 -0.260662 -3.11913 0
M  V30 9030 C 896.78 -0.618127 -4.5381 0
M  V30 9031 N 898.271 -0.570026 -4.59679 0
M  V30 9032 C 899.006 -0.8193 -5.67517 0
M  V30 9033 N 898.502 -1.13367 -6.83462 0
M  V30 9034 N 900.295 -0.747482 -5.57108 0
M  V30 9035 H 892.446 -1.24167 -1.72326 0
M  V30 9036 H 894.709 -0.502259 -0.804015 0
M  V30 9037 H 894.415 -1.33509 -3.25374 0
M  V30 9038 H 894.289 0.341369 -3.75652 0
M  V30 9039 H 896.676 0.751869 -2.85361 0
M  V30 9040 H 896.757 -0.949706 -2.37517 0
M  V30 9041 H 896.401 -1.62839 -4.81088 0
M  V30 9042 H 896.331 0.092807 -5.26518 0
M  V30 9043 H 898.822 -0.3373 -3.76392 0
M  V30 9044 H 899.135 -1.3103 -7.61611 0
M  V30 9045 H 897.48 -1.17154 -6.85055 0
M  V30 9046 H 900.671 -0.501658 -4.65404 0
M  V30 9047 H 900.844 -0.945128 -6.4107 0
M  V30 9048 N 894.251 1.57596 -0.0117121 0
M  V30 9049 C 895.476 1.95764 0.684938 0
M  V30 9050 C 895.901 0.887285 1.65858 0
M  V30 9051 O 895.259 -0.153508 1.80649 0
M  V30 9052 C 895.307 3.33031 1.38285 0
M  V30 9053 O 894.411 3.28163 2.49765 0
M  V30 9054 H 893.752 0.638767 0.181309 0
M  V30 9055 H 896.282 2.04486 -0.0683883 0
M  V30 9056 H 896.292 3.68866 1.74362 0
M  V30 9057 H 894.967 4.10483 0.669043 0
M  V30 9058 H 893.544 3.04021 2.15929 0
M  V30 9059 N 895.729 -0.261212 1.5542 0
M  V30 9060 C 896.975 -0.992699 1.76843 0
M  V30 9061 C 897.308 -1.8551 0.574428 0
M  V30 9062 O 896.583 -1.89739 -0.427713 0
M  V30 9063 C 896.866 -1.86532 3.08022 0
M  V30 9064 C 896.719 -1.03206 4.378 0
M  V30 9065 C 898.038 -2.85036 3.35324 0
M  V30 9066 H 895.157 -0.359473 0.643388 0
M  V30 9067 H 897.799 -0.264214 1.88154 0
M  V30 9068 H 895.949 -2.48644 2.9851 0
M  V30 9069 H 897.621 -0.430743 4.59285 0
M  V30 9070 H 895.864 -0.335911 4.32497 0
M  V30 9071 H 896.535 -1.6761 5.25938 0
M  V30 9072 H 899.011 -2.3306 3.44706 0
M  V30 9073 H 897.887 -3.43226 4.28354 0
M  V30 9074 H 898.148 -3.60768 2.55537 0
M  V30 9075 N 897.207 -1.48554 -0.526253 0
M  V30 9076 C 898.437 -1.60197 -1.30463 0
M  V30 9077 C 898.845 -0.26278 -1.87366 0
M  V30 9078 O 898.188 0.758537 -1.67308 0
M  V30 9079 C 898.25 -2.59223 -2.49085 0
M  V30 9080 C 897.914 -4.04199 -2.13241 0
M  V30 9081 C 898.911 -4.91771 -1.68694 0
M  V30 9082 C 896.596 -4.49762 -2.2365 0
M  V30 9083 C 898.59 -6.22934 -1.35026 0
M  V30 9084 C 896.277 -5.80945 -1.89594 0
M  V30 9085 C 897.275 -6.67354 -1.45353 0
M  V30 9086 O 896.963 -7.96096 -1.11745 0
M  V30 9087 H 896.695 -0.54284 -0.402866 0
M  V30 9088 H 899.249 -1.95137 -0.641157 0
M  V30 9089 H 897.479 -2.19412 -3.18426 0
M  V30 9090 H 899.168 -2.60661 -3.11144 0
M  V30 9091 H 899.934 -4.57806 -1.6012 0
M  V30 9092 H 895.813 -3.8269 -2.5704 0
M  V30 9093 H 899.357 -6.90334 -1.00422 0
M  V30 9094 H 895.254 -6.14444 -1.9781 0
M  V30 9095 H 896.022 -8.08882 -1.25111 0
M  V30 9096 N 898.685 0.775411 -1.37205 0
M  V30 9097 C 899.934 1.52909 -1.31536 0
M  V30 9098 C 900.247 1.9535 0.0989374 0
M  V30 9099 O 901.453 2.70072 0.278079 0
M  V30 9100 C 899.909 2.761 -2.30861 0
M  V30 9101 C 899.517 2.40773 -3.77799 0
M  V30 9102 C 901.261 3.54052 -2.34195 0
M  V30 9103 C 899.168 3.60444 -4.68865 0
M  V30 9104 H 898.098 0.574061 -0.488845 0
M  V30 9105 H 900.749 0.849642 -1.62645 0
M  V30 9106 H 899.131 3.45916 -1.92764 0
M  V30 9107 H 900.305 1.78764 -4.24712 0
M  V30 9108 H 898.62 1.76004 -3.77375 0
M  V30 9109 H 901.217 4.42992 -2.99437 0
M  V30 9110 H 901.56 3.93649 -1.35449 0
M  V30 9111 H 902.093 2.91229 -2.7098 0
M  V30 9112 H 898.832 3.25932 -5.68725 0
M  V30 9113 H 898.352 4.21571 -4.26659 0
M  V30 9114 H 900.031 4.27302 -4.85821 0
M  V30 9115 N 900.163 1.21714 1.00117 0
M  V30 9116 C 901.391 1.06278 1.77518 0
M  V30 9117 C 901.806 -0.387193 1.84787 0
M  V30 9118 O 901.163 -1.26854 1.31203 0
M  V30 9119 C 901.214 1.65795 3.21239 0
M  V30 9120 O 900.935 3.05119 3.14378 0
M  V30 9121 C 902.436 1.55521 4.15124 0
M  V30 9122 H 899.656 0.373013 0.557765 0
M  V30 9123 H 902.2 1.61133 1.25922 0
M  V30 9124 H 900.355 1.15022 3.69931 0
M  V30 9125 H 900.769 3.33643 4.04701 0
M  V30 9126 H 902.243 2.01902 5.13751 0
M  V30 9127 H 902.72 0.510307 4.36225 0
M  V30 9128 H 903.326 2.0556 3.72324 0
M  V30 9129 N 901.641 -1.19671 1.02551 0
M  V30 9130 C 902.604 -2.20987 0.608055 0
M  V30 9131 C 903.604 -1.5745 -0.326534 0
M  V30 9132 O 904.794 -1.73827 -0.114003 0
M  V30 9133 C 901.926 -3.4072 -0.11074 0
M  V30 9134 H 903.119 -2.59434 1.50446 0
M  V30 9135 H 900.672 -1.3329 0.816307 0
M  V30 9136 H 901.407 -3.07787 -1.02165 0
M  V30 9137 H 901.192 -3.88069 0.560772 0
M  V30 9138 H 902.682 -4.15776 -0.389848 0
M  V30 9139 N 903.119 -0.802921 -1.35613 0
M  V30 9140 C 904.049 -0.225131 -2.32412 0
M  V30 9141 C 905.03 0.647383 -1.57299 0
M  V30 9142 O 906.215 0.578414 -1.85386 0
M  V30 9143 C 903.345 0.630085 -3.41537 0
M  V30 9144 C 902.299 -0.143635 -4.27759 0
M  V30 9145 C 901.625 0.833046 -5.28171 0
M  V30 9146 C 902.925 -1.34054 -5.04804 0
M  V30 9147 H 904.619 -1.03385 -2.80984 0
M  V30 9148 H 902.165 -0.498593 -1.35093 0
M  V30 9149 H 904.118 1.04433 -4.08254 0
M  V30 9150 H 902.842 1.47165 -2.91565 0
M  V30 9151 H 901.501 -0.539015 -3.62616 0
M  V30 9152 H 901.149 1.67001 -4.74468 0
M  V30 9153 H 900.849 0.319697 -5.8673 0
M  V30 9154 H 902.373 1.24558 -5.97761 0
M  V30 9155 H 903.787 -1.00136 -5.64487 0
M  V30 9156 H 902.184 -1.78812 -5.72841 0
M  V30 9157 H 903.254 -2.12906 -4.35659 0
M  V30 9158 N 904.597 1.47463 -0.556102 0
M  V30 9159 C 905.527 2.32801 0.180497 0
M  V30 9160 C 906.508 1.43721 0.909848 0
M  V30 9161 O 907.693 1.72578 0.89053 0
M  V30 9162 C 904.823 3.25478 1.21167 0
M  V30 9163 C 903.777 4.2379 0.598846 0
M  V30 9164 C 903.103 5.05783 1.73457 0
M  V30 9165 C 904.403 5.20387 -0.446659 0
M  V30 9166 H 906.097 2.94636 -0.531956 0
M  V30 9167 H 903.643 1.41683 -0.257267 0
M  V30 9168 H 905.596 3.8402 1.73513 0
M  V30 9169 H 904.32 2.61695 1.95405 0
M  V30 9170 H 902.979 3.66472 0.0966897 0
M  V30 9171 H 902.627 4.38405 2.46596 0
M  V30 9172 H 902.327 5.72343 1.33031 0
M  V30 9173 H 903.851 5.67183 2.26131 0
M  V30 9174 H 905.265 5.73299 -0.00930019 0
M  V30 9175 H 903.662 5.95143 -0.769735 0
M  V30 9176 H 904.732 4.65932 -1.34295 0
M  V30 9177 N 906.075 0.2925 1.54862 0
M  V30 9178 C 907.352 -0.371946 1.92031 0
M  V30 9179 C 907.732 -1.72363 1.21878 0
M  V30 9180 O 907.08 -2.25779 0.351573 0
M  V30 9181 C 907.29 -0.495027 3.45471 0
M  V30 9182 C 908.638 -0.769855 4.17562 0
M  V30 9183 O 909.662 -0.579168 3.5146 0
M  V30 9184 O 908.521 -1.13561 5.34571 0
M  V30 9185 H 905.615 -0.206463 0.800813 0
M  V30 9186 H 908.161 0.339933 1.6626 0
M  V30 9187 H 906.933 0.455528 3.88639 0
M  V30 9188 H 906.556 -1.2557 3.7725 0
M  V30 9189 N 907.553 -1.57587 0.0200696 0
M  V30 9190 C 908.778 -1.96124 -0.674547 0
M  V30 9191 C 909.203 -0.896068 -1.65385 0
M  V30 9192 O 908.561 0.143925 -1.80728 0
M  V30 9193 C 908.609 -3.3376 -1.36517 0
M  V30 9194 O 907.713 -3.29483 -2.48022 0
M  V30 9195 H 907.054 -0.639719 -0.177919 0
M  V30 9196 H 909.584 -2.04447 0.0792317 0
M  V30 9197 H 909.594 -3.69785 -1.72403 0
M  V30 9198 H 908.269 -4.10832 -0.647265 0
M  V30 9199 H 906.846 -3.05162 -2.14314 0
M  V30 9200 N 909.032 0.252966 -1.55557 0
M  V30 9201 C 910.28 0.979912 -1.76754 0
M  V30 9202 C 910.601 1.86083 -0.582944 0
M  V30 9203 O 909.871 1.91742 0.401497 0
M  V30 9204 H 908.451 0.364805 -0.651864 0
M  V30 9205 H 911.113 0.272372 -1.92987 0
M  V30 9206 H 910.209 1.60518 -2.67657 0
M  V30 9207 N 910.51 1.48831 0.518367 0
M  V30 9208 C 911.473 1.63721 1.604 0
M  V30 9209 C 912.473 0.509857 1.52503 0
M  V30 9210 O 913.663 0.775922 1.55965 0
M  V30 9211 C 910.795 1.61831 3.00039 0
M  V30 9212 H 911.988 2.60534 1.48533 0
M  V30 9213 H 909.541 1.37602 0.741309 0
M  V30 9214 H 910.276 0.665387 3.17401 0
M  V30 9215 H 910.061 2.43686 3.0718 0
M  V30 9216 H 911.551 1.75467 3.78947 0
M  V30 9217 N 911.988 -0.768124 1.37614 0
M  V30 9218 C 913.265 -1.51637 1.23554 0
M  V30 9219 C 913.645 -2.1042 -0.169331 0
M  V30 9220 O 912.993 -1.95834 -1.17735 0
M  V30 9221 C 913.203 -2.59436 2.33439 0
M  V30 9222 C 914.551 -3.2674 2.71157 0
M  V30 9223 O 915.575 -2.69733 2.32642 0
M  V30 9224 O 914.434 -4.29814 3.37524 0
M  V30 9225 H 911.528 -0.671778 0.482332 0
M  V30 9226 H 914.074 -0.804779 1.49403 0
M  V30 9227 H 912.846 -2.14146 3.27502 0
M  V30 9228 H 912.469 -3.38192 2.09073 0
M  V30 9229 N 913.466 -1.22244 -0.994698 0
M  V30 9230 C 914.715 -1.04005 -1.72817 0
M  V30 9231 C 915.028 0.425413 -1.90918 0
M  V30 9232 O 916.234 0.727429 -2.61574 0
M  V30 9233 C 914.69 -1.81244 -3.10932 0
M  V30 9234 C 914.298 -3.32028 -3.00768 0
M  V30 9235 C 916.042 -1.71448 -3.88337 0
M  V30 9236 C 913.949 -4.01716 -4.34026 0
M  V30 9237 H 912.879 -0.385559 -0.647966 0
M  V30 9238 H 915.53 -1.46077 -1.11058 0
M  V30 9239 H 913.912 -1.3197 -3.73363 0
M  V30 9240 H 915.086 -3.88682 -2.47513 0
M  V30 9241 H 913.401 -3.4248 -2.36846 0
M  V30 9242 H 915.998 -2.20836 -4.86965 0
M  V30 9243 H 916.341 -0.674568 -4.10798 0
M  V30 9244 H 916.874 -2.18256 -3.3258 0
M  V30 9245 H 913.613 -5.05952 -4.16765 0
M  V30 9246 H 913.133 -3.49849 -4.87202 0
M  V30 9247 H 914.812 -4.0721 -5.02782 0
M  V30 9248 N 914.944 1.19125 -1.03184 0
M  V30 9249 C 916.172 1.92838 -0.74975 0
M  V30 9250 C 916.587 1.75667 0.691851 0
M  V30 9251 O 915.944 1.0805 1.47076 0
M  V30 9252 C 915.995 3.44509 -1.09525 0
M  V30 9253 O 915.716 3.6113 -2.48025 0
M  V30 9254 C 917.217 4.35338 -0.836397 0
M  V30 9255 H 914.437 0.61246 -0.274105 0
M  V30 9256 H 916.981 1.5118 -1.37712 0
M  V30 9257 H 915.136 3.83988 -0.513006 0
M  V30 9258 H 915.55 4.54959 -2.60984 0
M  V30 9259 H 917.024 5.4035 -1.12808 0
M  V30 9260 H 917.501 4.38602 0.229102 0
M  V30 9261 H 918.107 4.01544 -1.40152 0
M  V30 9262 N 916.422 0.810101 1.35185 0
M  V30 9263 C 917.671 0.388589 1.97921 0
M  V30 9264 C 917.984 -1.05079 1.64978 0
M  V30 9265 O 919.19 -1.57559 2.21105 0
M  V30 9266 C 917.646 0.643864 3.54094 0
M  V30 9267 C 917.254 2.09602 3.95943 0
M  V30 9268 C 918.998 0.287883 4.23523 0
M  V30 9269 C 916.905 2.29686 5.44976 0
M  V30 9270 H 915.835 0.141562 0.740592 0
M  V30 9271 H 918.486 0.994653 1.54204 0
M  V30 9272 H 916.868 -0.0321978 3.95987 0
M  V30 9273 H 918.042 2.81018 3.65192 0
M  V30 9274 H 916.357 2.4122 3.39414 0
M  V30 9275 H 918.954 0.415946 5.3308 0
M  V30 9276 H 919.297 -0.766305 4.09186 0
M  V30 9277 H 919.83 0.918004 3.87063 0
M  V30 9278 H 916.569 3.33563 5.64284 0
M  V30 9279 H 916.089 1.62798 5.77284 0
M  V30 9280 H 917.768 2.11411 6.11485 0
M  V30 9281 N 917.9 -1.47166 0.563914 0
M  V30 9282 C 919.149 -2.0166 0.0401871 0
M  V30 9283 C 919.462 -1.44303 -1.32046 0
M  V30 9284 O 920.668 -1.905 -1.93448 0
M  V30 9285 C 919.124 -3.59894 0.0213257 0
M  V30 9286 C 918.732 -4.26244 1.37914 0
M  V30 9287 C 920.476 -4.22114 -0.449442 0
M  V30 9288 C 918.383 -5.76503 1.31902 0
M  V30 9289 H 917.313 -0.753916 0.0112534 0
M  V30 9290 H 919.964 -1.69091 0.712766 0
M  V30 9291 H 918.346 -3.89454 -0.717038 0
M  V30 9292 H 919.52 -4.08317 2.13574 0
M  V30 9293 H 917.835 -3.76039 1.78839 0
M  V30 9294 H 920.432 -5.32234 -0.51292 0
M  V30 9295 H 920.775 -3.89749 -1.46291 0
M  V30 9296 H 921.308 -3.9711 0.23427 0
M  V30 9297 H 918.047 -6.13498 2.3087 0
M  V30 9298 H 917.567 -5.96748 0.604324 0
M  V30 9299 H 919.246 -6.38846 1.02392 0
M  V30 9300 N 919.378 -0.300708 -1.54705 0
M  V30 9301 C 920.603 0.314073 -2.05008 0
M  V30 9302 C 921.028 1.46759 -1.17657 0
M  V30 9303 O 920.386 1.80398 -0.180598 0
M  V30 9304 C 920.434 0.748243 -3.52752 0
M  V30 9305 O 919.538 1.85305 -3.68424 0
M  V30 9306 H 918.879 0.0610139 -0.661191 0
M  V30 9307 H 921.409 -0.442467 -1.99758 0
M  V30 9308 H 921.419 1.03713 -3.94598 0
M  V30 9309 H 920.094 -0.095573 -4.1579 0
M  V30 9310 H 918.671 1.56473 -3.38483 0
M  V30 9311 N 920.856 1.57574 -0.0284266 0
M  V30 9312 C 921.766 2.13637 0.96936 0
M  V30 9313 C 922.782 1.08845 1.35752 0
M  V30 9314 O 923.958 1.40899 1.43908 0
M  V30 9315 C 921.023 2.65179 2.2334 0
M  V30 9316 C 920.084 3.84683 1.90572 0
M  V30 9317 C 919.317 4.33758 3.1095 0
M  V30 9318 O 919.54 3.82009 4.23586 0
M  V30 9319 O 918.474 5.2561 2.93288 0
M  V30 9320 H 922.3 2.99169 0.52267 0
M  V30 9321 H 919.885 1.48159 0.192135 0
M  V30 9322 H 921.767 2.98402 2.97547 0
M  V30 9323 H 920.442 1.82731 2.67191 0
M  V30 9324 H 919.349 3.56386 1.13753 0
M  V30 9325 H 920.682 4.68292 1.51538 0
M  V30 9326 N 922.334 -0.244713 1.55689 0
M  V30 9327 C 923.244 -1.32447 1.93636 0
M  V30 9328 C 924.26 -1.52541 0.837086 0
M  V30 9329 O 925.436 -1.66121 1.13867 0
M  V30 9330 C 922.501 -2.65864 2.22525 0
M  V30 9331 C 921.562 -2.54273 3.45896 0
M  V30 9332 C 920.795 -3.81327 3.73397 0
M  V30 9333 O 921.018 -4.83307 3.02936 0
M  V30 9334 O 919.952 -3.79829 4.66919 0
M  V30 9335 H 923.778 -1.03255 2.85608 0
M  V30 9336 H 921.363 -0.445652 1.42598 0
M  V30 9337 H 923.245 -3.447 2.42404 0
M  V30 9338 H 921.92 -2.94784 1.33731 0
M  V30 9339 H 920.827 -1.73715 3.31321 0
M  V30 9340 H 922.16 -2.30297 4.34999 0
M  V30 9341 N 923.813 -1.49104 -0.510467 0
M  V30 9342 C 925.09 -1.48609 -1.27179 0
M  V30 9343 C 925.47 -0.208537 -2.10067 0
M  V30 9344 O 924.818 0.809335 -2.13687 0
M  V30 9345 C 925.028 -2.75953 -2.1366 0
M  V30 9346 C 926.376 -3.25067 -2.73161 0
M  V30 9347 O 927.4 -2.77005 -2.23934 0
M  V30 9348 O 926.259 -4.08747 -3.62751 0
M  V30 9349 H 923.353 -0.594374 -0.57502 0
M  V30 9350 H 925.899 -1.61358 -0.525515 0
M  V30 9351 H 924.671 -3.60434 -1.52325 0
M  V30 9352 H 924.294 -2.66019 -2.95499 0
M  V30 9353 N 925.291 0.760815 -1.38019 0
M  V30 9354 C 926.537 1.52109 -1.35034 0
M  V30 9355 C 926.892 1.92302 0.0615509 0
M  V30 9356 O 926.185 1.62028 1.02261 0
M  V30 9357 C 926.379 2.79024 -2.23339 0
M  V30 9358 C 926.208 2.51238 -3.72974 0
M  V30 9359 C 924.978 2.44818 -4.42032 0
M  V30 9360 C 927.176 2.18499 -4.65578 0
M  V30 9361 N 925.158 2.09232 -5.77144 0
M  V30 9362 C 926.529 1.93143 -5.89148 0
M  V30 9363 C 928.584 2.04747 -4.53854 0
M  V30 9364 C 927.287 1.55423 -7.02308 0
M  V30 9365 C 929.313 1.68428 -5.66909 0
M  V30 9366 C 928.675 1.43939 -6.89537 0
M  V30 9367 H 924.774 0.556482 -0.54941 0
M  V30 9368 H 927.358 0.886614 -1.73341 0
M  V30 9369 H 925.529 3.40292 -1.87232 0
M  V30 9370 H 927.261 3.45016 -2.11533 0
M  V30 9371 H 924.016 2.61045 -3.95161 0
M  V30 9372 H 924.44 1.94104 -6.48577 0
M  V30 9373 H 929.082 2.22358 -3.59607 0
M  V30 9374 H 926.8 1.36551 -7.96479 0
M  V30 9375 H 930.386 1.5843 -5.59814 0
M  V30 9376 H 929.266 1.16253 -7.75535 0
M  V30 9377 N 926.769 1.22769 0.988202 0
M  V30 9378 C 928.18 1.0512 1.54294 0
M  V30 9379 C 928.531 -0.383904 1.92407 0
M  V30 9380 O 927.656 -1.26955 1.75246 0
M  V30 9381 C 928.251 1.90198 2.80375 0
M  V30 9382 C 926.81 1.76831 3.32276 0
M  V30 9383 C 925.957 1.86377 2.05326 0
M  V30 9384 H 928.908 1.36546 0.808758 0
M  V30 9385 H 928.929 1.42216 3.52923 0
M  V30 9386 H 928.441 2.9464 2.52605 0
M  V30 9387 H 926.542 0.751412 3.64945 0
M  V30 9388 H 926.655 2.59771 4.02562 0
M  V30 9389 H 925.019 1.2987 2.19103 0
M  V30 9390 H 925.802 2.9236 1.79946 0
M  V30 9391 N 928.247 -1.18576 1.03814 0
M  V30 9392 C 929.475 -1.92437 0.759966 0
M  V30 9393 C 929.89 -1.76031 -0.682526 0
M  V30 9394 O 929.247 -1.08829 -1.46501 0
M  V30 9395 C 929.298 -3.43923 1.11351 0
M  V30 9396 O 929.019 -3.5981 2.49937 0
M  V30 9397 C 930.52 -4.34888 0.859472 0
M  V30 9398 H 927.74 -0.610998 0.277349 0
M  V30 9399 H 930.284 -1.50448 1.38512 0
M  V30 9400 H 928.439 -3.83711 0.533362 0
M  V30 9401 H 928.853 -4.53569 2.63393 0
M  V30 9402 H 930.327 -5.39744 1.15672 0
M  V30 9403 H 930.804 -4.38717 -0.205839 0
M  V30 9404 H 931.41 -4.00795 1.42279 0
M  V30 9405 N 929.725 -0.817259 -1.34754 0
M  V30 9406 C 931.002 -0.325468 -1.92873 0
M  V30 9407 C 931.382 1.18643 -1.74606 0
M  V30 9408 O 930.73 1.9909 -1.1214 0
M  V30 9409 C 930.94 -0.74858 -3.40877 0
M  V30 9410 C 932.288 -0.744165 -4.18028 0
M  V30 9411 O 933.312 -0.690799 -3.49437 0
M  V30 9412 O 932.171 -0.812207 -5.40431 0
M  V30 9413 H 929.265 -0.0876397 -0.822343 0
M  V30 9414 H 931.811 -0.901671 -1.43764 0
M  V30 9415 H 930.583 -1.79017 -3.47949 0
M  V30 9416 H 930.206 -0.147764 -3.97325 0
M  V30 9417 N 931.203 1.46865 -0.571711 0
M  V30 9418 C 932.449 2.03307 -0.0614759 0
M  V30 9419 C 932.804 1.43657 1.27986 0
M  V30 9420 O 932.097 0.588186 1.82348 0
M  V30 9421 C 932.291 3.57323 0.0742311 0
M  V30 9422 C 932.12 4.31909 -1.2524 0
M  V30 9423 C 930.89 4.71246 -1.82361 0
M  V30 9424 C 933.088 4.66137 -2.17304 0
M  V30 9425 N 931.07 5.30535 -3.08878 0
M  V30 9426 C 932.441 5.25881 -3.28404 0
M  V30 9427 C 934.496 4.48066 -2.1712 0
M  V30 9428 C 933.199 5.69461 -4.39439 0
M  V30 9429 C 935.225 4.92656 -3.27176 0
M  V30 9430 C 934.587 5.52461 -4.36997 0
M  V30 9431 H 930.686 0.779293 -0.0650098 0
M  V30 9432 H 933.27 1.79161 -0.762192 0
M  V30 9433 H 931.441 3.81206 0.744095 0
M  V30 9434 H 933.173 4.00408 0.587849 0
M  V30 9435 H 929.928 4.53658 -1.35985 0
M  V30 9436 H 930.352 5.64711 -3.73404 0
M  V30 9437 H 934.994 4.01173 -1.33492 0
M  V30 9438 H 932.712 6.15338 -5.23817 0
M  V30 9439 H 936.298 4.80433 -3.28139 0
M  V30 9440 H 935.178 5.86334 -5.20752 0
M  V30 9441 N 932.681 0.308908 1.54543 0
M  V30 9442 C 934.092 -0.182144 1.85809 0
M  V30 9443 C 934.443 -1.52796 1.23076 0
M  V30 9444 O 933.568 -2.09775 0.531358 0
M  V30 9445 C 934.163 -0.337275 3.37117 0
M  V30 9446 C 932.722 -0.772545 3.68387 0
M  V30 9447 C 931.869 0.114451 2.77064 0
M  V30 9448 H 934.82 0.529671 1.496 0
M  V30 9449 H 934.841 -1.17058 3.62046 0
M  V30 9450 H 934.353 0.642382 3.82747 0
M  V30 9451 H 932.454 -1.76247 3.2828 0
M  V30 9452 H 932.567 -0.586453 4.75497 0
M  V30 9453 H 930.931 -0.407581 2.51418 0
M  V30 9454 H 931.714 1.09061 3.25516 0
M  V30 9455 N 934.159 -1.57557 0.0367827 0
M  V30 9456 C 935.405 -1.92399 -0.641133 0
M  V30 9457 C 935.738 -0.914191 -1.71336 0
M  V30 9458 O 935.013 0.0619616 -1.94401 0
M  V30 9459 C 935.296 -3.37689 -1.25052 0
M  V30 9460 C 935.149 -4.4941 -0.187326 0
M  V30 9461 C 936.468 -3.8309 -2.16634 0
M  V30 9462 H 933.587 -0.699666 -0.231597 0
M  V30 9463 H 936.229 -1.89759 0.0956083 0
M  V30 9464 H 934.379 -3.40069 -1.87843 0
M  V30 9465 H 936.051 -4.59161 0.443736 0
M  V30 9466 H 934.294 -4.31065 0.486313 0
M  V30 9467 H 934.965 -5.48119 -0.653459 0
M  V30 9468 H 937.441 -3.82494 -1.63821 0
M  V30 9469 H 936.317 -4.85429 -2.56222 0
M  V30 9470 H 936.578 -3.19028 -3.06062 0
M  V30 9471 N 935.637 0.236453 -1.55816 0
M  V30 9472 C 936.57 1.3196 -1.86177 0
M  V30 9473 C 937.548 1.459 -0.717769 0
M  V30 9474 O 938.732 1.61949 -0.964606 0
M  V30 9475 C 935.859 2.69183 -2.05568 0
M  V30 9476 C 934.905 2.72338 -3.28229 0
M  V30 9477 S 935.738 2.27898 -4.84585 0
M  V30 9478 C 936.894 3.67025 -5.06994 0
M  V30 9479 H 937.127 1.06011 -2.77757 0
M  V30 9480 H 934.66 0.437961 -1.48058 0
M  V30 9481 H 936.618 3.48191 -2.17423 0
M  V30 9482 H 935.279 2.92365 -1.14811 0
M  V30 9483 H 934.472 3.7314 -3.38795 0
M  V30 9484 H 934.074 2.01382 -3.15153 0
M  V30 9485 H 936.366 4.62604 -4.94979 0
M  V30 9486 H 937.309 3.61385 -6.08939 0
M  V30 9487 H 937.717 3.60022 -4.34792 0
M  V30 9488 N 937.115 1.49373 0.502552 0
M  V30 9489 C 938.025 1.68659 1.63068 0
M  V30 9490 C 939.041 0.569182 1.64427 0
M  V30 9491 O 940.217 0.843695 1.82876 0
M  V30 9492 C 937.282 1.74745 2.99441 0
M  V30 9493 C 936.343 2.98311 3.08721 0
M  V30 9494 C 935.576 3.04097 4.38589 0
M  V30 9495 O 935.799 2.17519 5.27297 0
M  V30 9496 O 934.733 3.96544 4.52809 0
M  V30 9497 H 938.559 2.64226 1.49727 0
M  V30 9498 H 936.144 1.33096 0.67867 0
M  V30 9499 H 938.026 1.8111 3.80496 0
M  V30 9500 H 936.701 0.823565 3.13048 0
M  V30 9501 H 935.608 2.97465 2.2686 0
M  V30 9502 H 936.941 3.90174 3.00041 0
M  V30 9503 N 938.594 -0.753485 1.38421 0
M  V30 9504 C 939.557 -1.84888 1.35459 0
M  V30 9505 C 940.557 -1.58764 0.255083 0
M  V30 9506 O 941.747 -1.66507 0.511978 0
M  V30 9507 C 938.879 -3.22361 1.10888 0
M  V30 9508 H 940.072 -1.88922 2.32913 0
M  V30 9509 H 937.625 -0.955199 1.23716 0
M  V30 9510 H 938.36 -3.23996 0.1404 0
M  V30 9511 H 938.145 -3.42717 1.90492 0
M  V30 9512 H 939.635 -4.02437 1.1151 0
M  V30 9513 N 940.072 -1.23292 -0.981677 0
M  V30 9514 C 941.035 -1.01417 -2.05542 0
M  V30 9515 C 942.035 0.0235354 -1.60783 0
M  V30 9516 O 943.225 -0.216082 -1.72855 0
M  V30 9517 C 940.357 -0.534239 -3.36688 0
M  V30 9518 H 941.55 -1.96702 -2.26381 0
M  V30 9519 H 939.103 -1.05318 -1.1549 0
M  V30 9520 H 939.838 0.422452 -3.21537 0
M  V30 9521 H 939.623 -1.28304 -3.70514 0
M  V30 9522 H 941.113 -0.40179 -4.15663 0
M  V30 9523 N 941.55 1.18024 -1.04442 0
M  V30 9524 C 942.498 2.23834 -0.632557 0
M  V30 9525 C 943.492 1.65902 0.342488 0
M  V30 9526 O 944.698 1.78778 0.20937 0
M  V30 9527 H 941.073 0.728544 -0.186353 0
M  V30 9528 H 943.044 2.55876 -1.53526 0
M  V30 9529 C 941.793 3.47697 -0.0153661 0
M  V30 9530 H 941.116 3.92574 -0.756704 0
M  V30 9531 H 942.556 4.23345 0.235541 0
M  V30 9532 C 941.015 3.13416 1.23579 0
M  V30 9533 O 941.545 3.27499 2.3261 0
M  V30 9534 N 939.751 2.67708 1.13053 0
M  V30 9535 H 939.298 2.56449 0.243277 0
M  V30 9536 H 939.256 2.45143 1.96855 0
M  V30 9537 N 943.028 0.824394 1.34319 0
M  V30 9538 C 944.439 0.471802 1.8064 0
M  V30 9539 C 944.79 -1.00793 1.6833 0
M  V30 9540 O 943.915 -1.78447 1.22416 0
M  V30 9541 C 944.51 0.849609 3.27974 0
M  V30 9542 C 943.069 0.549365 3.72369 0
M  V30 9543 C 942.216 1.06573 2.56003 0
M  V30 9544 H 945.167 1.01443 1.22045 0
M  V30 9545 H 945.188 0.153968 3.80188 0
M  V30 9546 H 944.7 1.92663 3.36902 0
M  V30 9547 H 942.801 -0.518182 3.68979 0
M  V30 9548 H 942.914 1.09446 4.66432 0
M  V30 9549 H 941.278 0.487214 2.49997 0
M  V30 9550 H 942.061 2.14923 2.677 0
M  V30 9551 N 944.506 -1.46559 0.579492 0
M  V30 9552 C 945.438 -2.28383 -0.19337 0
M  V30 9553 C 946.451 -1.38324 -0.858511 0
M  V30 9554 O 947.64 -1.62952 -0.728615 0
M  V30 9555 C 944.74 -3.13262 -1.29306 0
M  V30 9556 C 943.913 -4.31426 -0.720459 0
M  V30 9557 C 942.972 -4.97728 -1.70744 0
M  V30 9558 O 941.998 -5.55423 -1.24476 0
M  V30 9559 N 943.2 -4.94445 -3.04146 0
M  V30 9560 H 945.965 -2.95353 0.508611 0
M  V30 9561 H 943.526 -1.56436 0.417046 0
M  V30 9562 H 945.518 -3.54483 -1.95254 0
M  V30 9563 H 944.088 -2.48388 -1.89795 0
M  V30 9564 H 943.308 -3.94028 0.116398 0
M  V30 9565 H 944.596 -5.07808 -0.31763 0
M  V30 9566 H 943.994 -4.4881 -3.44363 0
M  V30 9567 H 942.551 -5.39616 -3.65592 0
M  V30 9568 N 945.984 -0.3171 -1.54377 0
M  V30 9569 C 947.233 0.288271 -1.99629 0
M  V30 9570 C 947.546 1.53754 -1.2091 0
M  V30 9571 O 948.752 2.2185 -1.56508 0
M  V30 9572 C 947.208 0.564188 -3.5545 0
M  V30 9573 C 946.816 -0.667659 -4.42997 0
M  V30 9574 C 948.56 1.12987 -4.09187 0
M  V30 9575 C 946.467 -0.364003 -5.90279 0
M  V30 9576 H 945.397 0.111492 -0.745711 0
M  V30 9577 H 948.048 -0.428317 -1.78431 0
M  V30 9578 H 946.43 1.34079 -3.72611 0
M  V30 9579 H 947.604 -1.44335 -4.37612 0
M  V30 9580 H 945.919 -1.1531 -4.00116 0
M  V30 9581 H 948.516 1.37157 -5.1681 0
M  V30 9582 H 948.859 2.07722 -3.60773 0
M  V30 9583 H 949.392 0.414595 -3.95634 0
M  V30 9584 H 946.131 -1.28035 -6.42874 0
M  V30 9585 H 945.651 0.374102 -5.98632 0
M  V30 9586 H 947.33 0.0285433 -6.46994 0
M  V30 9587 N 947.462 1.57535 -0.0451378 0
M  V30 9588 C 948.412 2.07683 0.940829 0
M  V30 9589 C 949.396 0.9807 1.27558 0
M  V30 9590 O 950.588 1.2441 1.25901 0
M  V30 9591 C 947.717 2.62049 2.21778 0
M  V30 9592 C 946.803 3.78621 1.91068 0
M  V30 9593 N 947.194 4.88623 1.30694 0
M  V30 9594 C 945.492 3.87411 2.20972 0
M  V30 9595 C 946.193 5.69714 1.17478 0
M  V30 9596 N 945.169 5.17129 1.67566 0
M  V30 9597 H 948.971 2.90129 0.469267 0
M  V30 9598 H 946.485 1.61615 0.159472 0
M  V30 9599 H 948.482 2.96276 2.93302 0
M  V30 9600 H 947.142 1.81039 2.69546 0
M  V30 9601 H 948.153 5.08545 0.979907 0
M  V30 9602 H 944.83 3.17335 2.71302 0
M  V30 9603 H 946.22 6.68174 0.706574 0
M  V30 9604 N 948.94 -0.228186 1.55939 0
M  V30 9605 C 950.188 -0.951668 1.78291 0
M  V30 9606 C 950.509 -1.85132 0.612474 0
M  V30 9607 O 949.779 -1.92356 -0.370942 0
M  V30 9608 H 948.359 -0.354388 0.657585 0
M  V30 9609 H 951.021 -0.241635 1.93396 0
M  V30 9610 H 950.117 -1.56239 2.70177 0
M  V30 9611 N 950.418 -1.49637 -0.494624 0
M  V30 9612 C 951.667 -1.58691 -1.24499 0
M  V30 9613 C 951.98 -0.281763 -1.9356 0
M  V30 9614 O 953.186 -0.250925 -2.70338 0
M  V30 9615 C 951.642 -2.8002 -2.26091 0
M  V30 9616 C 951.25 -4.17318 -1.6294 0
M  V30 9617 C 952.994 -2.98407 -3.01916 0
M  V30 9618 C 950.901 -5.29862 -2.62679 0
M  V30 9619 H 949.831 -0.590888 -0.468367 0
M  V30 9620 H 952.482 -1.76034 -0.518112 0
M  V30 9621 H 950.864 -2.56185 -3.01969 0
M  V30 9622 H 952.038 -4.51315 -0.930108 0
M  V30 9623 H 950.353 -4.04342 -0.994819 0
M  V30 9624 H 952.95 -3.79658 -3.76516 0
M  V30 9625 H 953.293 -2.09214 -3.5991 0
M  V30 9626 H 953.826 -3.22312 -2.33152 0
M  V30 9627 H 950.565 -6.21134 -2.09458 0
M  V30 9628 H 950.085 -5.00311 -3.3083 0
M  V30 9629 H 951.764 -5.59461 -3.2498 0
M  V30 9630 N 951.896 0.746133 -1.38819 0
M  V30 9631 C 953.144 1.50247 -1.35167 0
M  V30 9632 C 953.465 1.94921 0.0553531 0
M  V30 9633 O 952.735 1.68187 1.00449 0
M  V30 9634 H 951.315 0.557337 -0.497377 0
M  V30 9635 H 953.977 0.886472 -1.73573 0
M  V30 9636 H 953.073 2.38986 -2.00728 0
M  V30 9637 N 953.375 1.23811 0.975125 0
M  V30 9638 C 954.623 1.07124 1.71373 0
M  V30 9639 C 954.944 -0.391864 1.91022 0
M  V30 9640 O 954.214 -1.28041 1.48265 0
M  V30 9641 H 952.794 0.393415 0.635007 0
M  V30 9642 H 955.456 1.55612 1.17349 0
M  V30 9643 H 954.552 1.56338 2.7012 0
M  V30 9644 N 954.853 -1.17469 1.05066 0
M  V30 9645 C 956.101 -1.87327 0.758485 0
M  V30 9646 C 956.422 -1.81358 -0.716549 0
M  V30 9647 O 955.692 -1.23868 -1.51768 0
M  V30 9648 H 954.272 -0.693512 0.277579 0
M  V30 9649 H 956.934 -1.4251 1.32954 0
M  V30 9650 H 956.03 -2.93101 1.0723 0
M  V30 9651 N 956.331 -0.831506 -1.3388 0
M  V30 9652 C 957.58 -0.420028 -1.97278 0
M  V30 9653 C 957.893 1.02441 -1.66629 0
M  V30 9654 O 959.099 1.54021 -2.23584 0
M  V30 9655 C 957.555 -0.700116 -3.53025 0
M  V30 9656 C 957.163 -2.15874 -3.92559 0
M  V30 9657 C 958.907 -0.355226 -4.23011 0
M  V30 9658 C 956.814 -2.38327 -5.41252 0
M  V30 9659 H 955.744 -0.153326 -0.738246 0
M  V30 9660 H 958.395 -1.01906 -1.52602 0
M  V30 9661 H 956.777 -0.0308044 -3.95988 0
M  V30 9662 H 957.951 -2.86792 -3.60675 0
M  V30 9663 H 956.266 -2.4659 -3.35533 0
M  V30 9664 H 958.863 -0.500701 -5.32351 0
M  V30 9665 H 959.206 0.70111 -4.10354 0
M  V30 9666 H 959.739 -0.979466 -3.85553 0
M  V30 9667 H 956.478 -3.42498 -5.58906 0
M  V30 9668 H 955.998 -1.71962 -5.74621 0
M  V30 9669 H 957.677 -2.21113 -6.08045 0
M  V30 9670 N 957.809 1.4625 -0.587256 0
M  V30 9671 C 959.22 1.85997 -0.161918 0
M  V30 9672 C 959.571 1.49025 1.27616 0
M  V30 9673 O 958.696 0.907282 1.96462 0
M  V30 9674 C 959.291 3.37582 -0.287077 0
M  V30 9675 C 957.85 3.76308 0.0834211 0
M  V30 9676 C 956.997 2.70259 -0.620932 0
M  V30 9677 H 959.948 1.3734 -0.795199 0
M  V30 9678 H 959.969 3.77379 0.486333 0
M  V30 9679 H 959.481 3.64459 -1.33383 0
M  V30 9680 H 957.582 3.55047 1.13013 0
M  V30 9681 H 957.695 4.78184 -0.296064 0
M  V30 9682 H 956.059 2.54628 -0.0607027 0
M  V30 9683 H 956.842 2.99975 -1.66942 0
M  V30 9684 N 959.287 0.325282 1.54207 0
M  V30 9685 C 960.22 -0.582485 2.20641 0
M  V30 9686 C 961.198 -1.11441 1.18405 0
M  V30 9687 O 962.382 -1.17809 1.4715 0
M  V30 9688 C 959.509 -1.79944 2.86946 0
M  V30 9689 C 958.555 -1.39861 4.02916 0
M  V30 9690 S 959.388 -0.433859 5.3374 0
M  V30 9691 C 960.544 -1.65806 6.03539 0
M  V30 9692 H 960.777 -0.0181601 2.97294 0
M  V30 9693 H 958.31 0.109365 1.54012 0
M  V30 9694 H 960.268 -2.4977 3.25769 0
M  V30 9695 H 958.929 -2.33495 2.10092 0
M  V30 9696 H 958.122 -2.30547 4.48179 0
M  V30 9697 H 957.724 -0.780036 3.65775 0
M  V30 9698 H 960.016 -2.59524 6.25822 0
M  V30 9699 H 960.959 -1.24756 6.97023 0
M  V30 9700 H 961.367 -1.84581 5.3347 0
M  V30 9701 N 960.765 -1.57509 0.0534917 0
M  V30 9702 C 962.181 -1.56696 -0.303067 0
M  V30 9703 C 962.381 -1.06135 -1.71282 0
M  V30 9704 O 961.437 -0.71899 -2.42047 0
M  V30 9705 C 962.75 -3.00421 -0.129418 0
M  V30 9706 C 964.298 -3.12358 -0.200346 0
M  V30 9707 C 964.773 -4.57967 -0.0551971 0
M  V30 9708 N 966.264 -4.63066 -0.111398 0
M  V30 9709 C 966.999 -5.73395 -0.0232344 0
M  V30 9710 N 966.495 -6.92701 0.11741 0
M  V30 9711 N 968.288 -5.62045 -0.078984 0
M  V30 9712 H 960.439 -1.88696 0.975064 0
M  V30 9713 H 962.702 -0.869072 0.378706 0
M  V30 9714 H 962.408 -3.41456 0.842653 0
M  V30 9715 H 962.282 -3.66563 -0.889476 0
M  V30 9716 H 964.669 -2.71221 -1.16289 0
M  V30 9717 H 964.75 -2.48891 0.590506 0
M  V30 9718 H 964.394 -4.9979 0.904034 0
M  V30 9719 H 964.324 -5.19443 -0.865223 0
M  V30 9720 H 966.815 -3.77263 -0.219256 0
M  V30 9721 H 967.128 -7.72597 0.177326 0
M  V30 9722 H 965.473 -6.94833 0.152526 0
M  V30 9723 H 968.664 -4.67725 -0.187434 0
M  V30 9724 H 968.837 -6.48 -0.00681731 0
M  V30 9725 N 962.243 0.219913 -1.56058 0
M  V30 9726 C 963.19 1.27254 -1.92549 0
M  V30 9727 C 964.16 1.46493 -0.782883 0
M  V30 9728 O 965.345 1.60035 -1.03892 0
M  V30 9729 C 962.485 2.61756 -2.24896 0
M  V30 9730 C 961.598 2.50302 -3.52098 0
M  V30 9731 C 960.733 3.77338 -3.73884 0
M  V30 9732 C 959.772 3.60613 -4.94595 0
M  V30 9733 N 958.909 4.79603 -5.12763 0
M  V30 9734 H 963.749 0.954352 -2.82305 0
M  V30 9735 H 961.286 0.459928 -1.39725 0
M  V30 9736 H 963.244 3.40082 -2.4166 0
M  V30 9737 H 961.874 2.91668 -1.38311 0
M  V30 9738 H 960.926 1.63401 -3.43517 0
M  V30 9739 H 962.238 2.33866 -4.40577 0
M  V30 9740 H 961.392 4.64108 -3.90754 0
M  V30 9741 H 960.131 3.96702 -2.83689 0
M  V30 9742 H 959.136 2.72228 -4.77674 0
M  V30 9743 H 960.361 3.42719 -5.86277 0
M  V30 9744 H 958.307 4.99277 -4.2551 0
M  V30 9745 H 958.224 4.65899 -5.95377 0
M  V30 9746 H 959.492 5.67794 -5.34069 0
M  V30 9747 N 963.721 1.49897 0.486681 0
M  V30 9748 C 964.946 1.64106 1.26823 0
M  V30 9749 C 965.371 0.317967 1.85393 0
M  V30 9750 O 964.729 -0.71626 1.66551 0
M  V30 9751 C 964.777 2.72301 2.36399 0
M  V30 9752 O 963.881 2.32469 3.40634 0
M  V30 9753 H 963.222 0.548794 0.373793 0
M  V30 9754 H 965.752 1.96177 0.581017 0
M  V30 9755 H 965.762 2.94906 2.81948 0
M  V30 9756 H 964.437 3.68335 1.93137 0
M  V30 9757 H 963.014 2.20251 3.00905 0
M  V30 9758 N 965.199 -0.738761 1.39212 0
M  V30 9759 C 966.615 -1.04381 1.20734 0
M  V30 9760 C 966.815 -2.01391 0.0663082 0
M  V30 9761 O 965.871 -2.45672 -0.583229 0
M  V30 9762 C 967.184 -1.6097 2.53987 0
M  V30 9763 C 968.732 -1.73069 2.60799 0
M  V30 9764 C 969.207 -2.33067 3.94264 0
M  V30 9765 N 970.698 -2.40481 3.95883 0
M  V30 9766 C 971.433 -2.87834 4.95923 0
M  V30 9767 N 970.929 -3.35111 6.0636 0
M  V30 9768 N 972.722 -2.87009 4.83304 0
M  V30 9769 H 964.873 -0.0952996 2.12186 0
M  V30 9770 H 967.136 -0.104902 0.942178 0
M  V30 9771 H 966.842 -0.971548 3.38015 0
M  V30 9772 H 966.716 -2.59829 2.73439 0
M  V30 9773 H 969.103 -2.36007 1.77157 0
M  V30 9774 H 969.184 -0.728728 2.452 0
M  V30 9775 H 968.828 -1.70758 4.78335 0
M  V30 9776 H 968.758 -3.33933 4.07181 0
M  V30 9777 H 971.249 -2.07061 3.16123 0
M  V30 9778 H 971.562 -3.69742 6.78609 0
M  V30 9779 H 969.907 -3.33129 6.09959 0
M  V30 9780 H 973.098 -2.49395 3.96131 0
M  V30 9781 H 973.271 -3.23598 5.61416 0
M  V30 9782 N 966.677 -1.24326 -0.968545 0
M  V30 9783 C 967.954 -0.990459 -1.68669 0
M  V30 9784 C 968.334 0.487487 -2.05394 0
M  V30 9785 O 967.682 1.46158 -1.75642 0
M  V30 9786 C 967.892 -1.91251 -2.91931 0
M  V30 9787 C 969.24 -2.18291 -3.6419 0
M  V30 9788 O 970.264 -1.88897 -3.01987 0
M  V30 9789 O 969.123 -2.68204 -4.76161 0
M  V30 9790 H 966.217 -0.374515 -0.737338 0
M  V30 9791 H 968.763 -1.35421 -1.02271 0
M  V30 9792 H 967.535 -2.9111 -2.61478 0
M  V30 9793 H 967.158 -1.55188 -3.66064 0
M  V30 9794 N 968.156 1.1691 -1.05688 0
M  V30 9795 C 969.089 2.19992 -0.606539 0
M  V30 9796 C 970.067 1.58393 0.367483 0
M  V30 9797 O 971.251 1.8644 0.277914 0
M  V30 9798 C 968.378 3.38516 0.111663 0
M  V30 9799 C 967.424 4.18579 -0.818153 0
M  V30 9800 S 968.257 4.83111 -2.31006 0
M  V30 9801 C 969.413 6.0502 -1.60317 0
M  V30 9802 H 969.646 2.57851 -1.47987 0
M  V30 9803 H 967.179 1.27604 -0.869291 0
M  V30 9804 H 969.137 4.07195 0.519829 0
M  V30 9805 H 967.798 2.99034 0.961103 0
M  V30 9806 H 966.991 5.03318 -0.262092 0
M  V30 9807 H 966.593 3.55362 -1.16592 0
M  V30 9808 H 968.885 6.71424 -0.905309 0
M  V30 9809 H 969.828 6.65164 -2.42823 0
M  V30 9810 H 970.236 5.53908 -1.08842 0
M  V30 9811 N 969.634 0.838594 1.33437 0
M  V30 9812 C 970.883 0.430484 1.97053 0
M  V30 9813 C 971.196 -1.01556 1.6717 0
M  V30 9814 O 972.402 -1.52834 2.24397 0
M  V30 9815 C 970.858 0.718828 3.52648 0
M  V30 9816 C 970.466 2.17953 3.91408 0
M  V30 9817 C 972.21 0.377654 4.22817 0
M  V30 9818 C 970.117 2.41194 5.39981 0
M  V30 9819 H 969.047 0.157239 0.737422 0
M  V30 9820 H 971.698 1.02714 1.5206 0
M  V30 9821 H 970.08 0.0518042 3.95966 0
M  V30 9822 H 971.254 2.88701 3.59149 0
M  V30 9823 H 969.569 2.48366 3.34221 0
M  V30 9824 H 972.166 0.528926 5.32077 0
M  V30 9825 H 972.509 -0.679338 4.1072 0
M  V30 9826 H 973.042 0.999899 3.85028 0
M  V30 9827 H 969.781 3.45457 5.57081 0
M  V30 9828 H 969.301 1.75007 5.73701 0
M  V30 9829 H 970.98 2.24334 6.06863 0
M  V30 9830 N 971.112 -1.45937 0.595003 0
M  V30 9831 C 972.022 -2.34221 -0.133325 0
M  V30 9832 C 973.038 -1.50491 -0.873407 0
M  V30 9833 O 974.214 -1.83328 -0.833828 0
M  V30 9834 C 971.279 -3.27896 -1.12628 0
M  V30 9835 C 970.34 -4.27529 -0.389532 0
M  V30 9836 C 969.573 -5.16729 -1.33519 0
M  V30 9837 O 969.796 -5.09102 -2.57238 0
M  V30 9838 O 968.73 -5.96023 -0.839084 0
M  V30 9839 H 972.556 -2.97877 0.591861 0
M  V30 9840 H 970.141 -1.45113 0.355329 0
M  V30 9841 H 972.023 -3.85654 -1.69851 0
M  V30 9842 H 970.698 -2.6682 -1.83272 0
M  V30 9843 H 969.605 -3.73424 0.224843 0
M  V30 9844 H 970.938 -4.91425 0.276169 0
M  V30 9845 N 972.59 -0.333456 -1.54032 0
M  V30 9846 C 973.836 0.266527 -2.01041 0
M  V30 9847 C 974.169 1.51006 -1.2211 0
M  V30 9848 O 973.444 1.92078 -0.306016 0
M  V30 9849 C 973.727 0.59078 -3.55221 0
M  V30 9850 C 973.58 -0.664143 -4.4487 0
M  V30 9851 C 974.899 1.40447 -4.17088 0
M  V30 9852 H 972.018 0.0953979 -0.7308 0
M  V30 9853 H 974.66 -0.451995 -1.84545 0
M  V30 9854 H 972.81 1.20292 -3.69408 0
M  V30 9855 H 974.482 -1.30227 -4.42537 0
M  V30 9856 H 972.725 -1.29106 -4.14143 0
M  V30 9857 H 973.396 -0.392664 -5.50602 0
M  V30 9858 H 975.872 0.886946 -4.06537 0
M  V30 9859 H 974.748 1.6001 -5.2506 0
M  V30 9860 H 975.009 2.40357 -3.71054 0
M  V30 9861 N 974.068 1.57479 -0.061844 0
M  V30 9862 C 975.316 1.92727 0.608336 0
M  V30 9863 C 975.637 0.941799 1.70749 0
M  V30 9864 O 974.907 -0.0116608 1.95897 0
M  V30 9865 H 973.487 0.71145 0.2277 0
M  V30 9866 H 976.149 1.94546 -0.117359 0
M  V30 9867 H 975.245 2.9426 1.04007 0
M  V30 9868 N 975.546 -0.211634 1.56173 0
M  V30 9869 C 976.792 -0.935935 1.79911 0
M  V30 9870 C 977.125 -1.83589 0.633155 0
M  V30 9871 O 976.4 -1.91004 -0.367132 0
M  V30 9872 C 976.683 -1.76638 3.13801 0
M  V30 9873 C 976.536 -0.892259 4.40861 0
M  V30 9874 C 977.855 -2.74224 3.44223 0
M  V30 9875 H 974.974 -0.338822 0.654499 0
M  V30 9876 H 977.616 -0.20422 1.88899 0
M  V30 9877 H 975.766 -2.39021 3.0627 0
M  V30 9878 H 977.438 -0.284407 4.60422 0
M  V30 9879 H 975.681 -0.198145 4.33347 0
M  V30 9880 H 976.352 -1.50793 5.31004 0
M  V30 9881 H 978.828 -2.21975 3.51946 0
M  V30 9882 H 977.704 -3.29424 4.39057 0
M  V30 9883 H 977.965 -3.52455 2.66885 0
M  V30 9884 N 977.024 -1.50153 -0.478725 0
M  V30 9885 C 978.273 -1.60002 -1.22809 0
M  V30 9886 C 978.586 -0.302277 -1.9325 0
M  V30 9887 O 979.792 -0.279583 -2.70057 0
M  V30 9888 C 978.248 -2.82402 -2.23108 0
M  V30 9889 C 977.856 -4.19023 -1.58505 0
M  V30 9890 C 979.6 -3.01593 -2.98734 0
M  V30 9891 C 977.507 -5.32618 -2.57045 0
M  V30 9892 H 976.437 -0.595822 -0.462073 0
M  V30 9893 H 979.088 -1.76573 -0.499412 0
M  V30 9894 H 977.47 -2.59373 -2.99235 0
M  V30 9895 H 978.644 -4.52277 -0.882187 0
M  V30 9896 H 976.959 -4.05374 -0.951877 0
M  V30 9897 H 979.556 -3.8363 -3.72468 0
M  V30 9898 H 979.899 -2.1302 -3.57671 0
M  V30 9899 H 980.432 -3.24766 -2.29721 0
M  V30 9900 H 977.171 -6.23321 -2.02858 0
M  V30 9901 H 976.691 -5.03792 -3.25505 0
M  V30 9902 H 978.37 -5.62877 -3.19028 0
M  V30 9903 N 978.502 0.731368 -1.39602 0
M  V30 9904 C 979.45 1.86676 -1.38761 0
M  V30 9905 C 980.444 1.6723 -0.270247 0
M  V30 9906 O 981.65 1.74528 -0.440471 0
M  V30 9907 H 978.025 0.614553 -0.433391 0
M  V30 9908 H 979.996 1.84501 -2.34525 0
M  V30 9909 C 978.745 3.24394 -1.25155 0
M  V30 9910 H 978.068 3.39955 -2.10406 0
M  V30 9911 H 979.508 4.04019 -1.28625 0
M  V30 9912 C 977.967 3.36877 0.0396976 0
M  V30 9913 O 978.497 3.88833 1.00854 0
M  V30 9914 N 976.703 2.90414 0.103965 0
M  V30 9915 H 976.25 2.48321 -0.685155 0
M  V30 9916 H 976.208 2.99146 0.967435 0
M  V30 9917 N 979.98 1.24838 0.961938 0
M  V30 9918 C 981.396 1.01502 1.23165 0
M  V30 9919 C 981.596 -0.272651 1.99647 0
M  V30 9920 O 980.652 -0.987297 2.32398 0
M  V30 9921 C 981.965 2.23366 2.01316 0
M  V30 9922 C 983.513 2.28051 2.14387 0
M  V30 9923 C 983.988 3.49552 2.95935 0
M  V30 9924 N 985.479 3.49904 3.03515 0
M  V30 9925 C 986.214 4.40577 3.66987 0
M  V30 9926 N 985.71 5.41512 4.3213 0
M  V30 9927 N 987.503 4.28275 3.64056 0
M  V30 9928 H 979.654 2.07576 0.450086 0
M  V30 9929 H 981.917 0.911205 0.261551 0
M  V30 9930 H 981.623 3.16913 1.5251 0
M  V30 9931 H 981.497 2.25949 3.02038 0
M  V30 9932 H 983.884 1.35032 2.62393 0
M  V30 9933 H 983.965 2.29491 1.12994 0
M  V30 9934 H 983.609 4.42889 2.4862 0
M  V30 9935 H 983.539 3.45357 3.97538 0
M  V30 9936 H 986.03 2.76885 2.57183 0
M  V30 9937 H 986.343 6.06924 4.78396 0
M  V30 9938 H 984.688 5.45393 4.3078 0
M  V30 9939 H 987.879 3.48653 3.12344 0
M  V30 9940 H 988.052 4.99138 4.13237 0
M  V30 9941 N 981.458 -1.16348 1.06306 0
M  V30 9942 C 982.735 -1.829 0.69331 0
M  V30 9943 C 983.115 -1.94298 -0.82531 0
M  V30 9944 O 982.463 -1.48619 -1.73565 0
M  V30 9945 C 982.673 -3.1989 1.3954 0
M  V30 9946 C 984.021 -3.95662 1.54068 0
M  V30 9947 O 985.045 -3.29408 1.35532 0
M  V30 9948 O 983.904 -5.14422 1.84479 0
M  V30 9949 H 980.998 -0.789738 0.245445 0
M  V30 9950 H 983.544 -1.23549 1.16334 0
M  V30 9951 H 982.316 -3.06629 2.43093 0
M  V30 9952 H 981.939 -3.86918 0.915453 0
M  V30 9953 N 982.937 -0.845659 -1.3299 0
M  V30 9954 C 984.185 -0.443774 -1.97168 0
M  V30 9955 C 984.506 1.00192 -1.67292 0
M  V30 9956 O 983.776 1.69891 -0.975397 0
M  V30 9957 H 982.356 -0.161111 -0.729419 0
M  V30 9958 H 985.018 -1.08011 -1.62233 0
M  V30 9959 H 984.114 -0.581414 -3.06637 0
M  V30 9960 N 984.415 1.45619 -0.602734 0
M  V30 9961 C 985.64 2.07157 -0.100429 0
M  V30 9962 C 986.065 1.44524 1.20393 0
M  V30 9963 O 985.423 0.536191 1.7319 0
M  V30 9964 C 985.471 3.60587 0.0308604 0
M  V30 9965 O 984.575 3.97944 1.08234 0
M  V30 9966 H 983.916 0.6601 -0.0718643 0
M  V30 9967 H 986.446 1.86948 -0.831366 0
M  V30 9968 H 986.456 4.07348 0.230634 0
M  V30 9969 H 985.131 4.05561 -0.921581 0
M  V30 9970 H 983.708 3.62862 0.859414 0
M  V30 9971 N 985.893 0.34162 1.53853 0
M  V30 9972 C 986.823 -0.508431 2.27897 0
M  V30 9973 C 987.804 -1.10425 1.29384 0
M  V30 9974 O 988.989 -1.126 1.58224 0
M  V30 9975 C 986.119 -1.66048 3.05034 0
M  V30 9976 C 985.073 -1.19309 4.11035 0
M  V30 9977 C 984.399 -2.4335 4.76114 0
M  V30 9978 C 985.699 -0.294952 5.21467 0
M  V30 9979 H 987.393 0.109251 2.99201 0
M  V30 9980 H 984.939 0.0539847 1.43899 0
M  V30 9981 H 986.892 -2.26158 3.5557 0
M  V30 9982 H 985.616 -2.30503 2.31379 0
M  V30 9983 H 984.275 -0.614809 3.61408 0
M  V30 9984 H 983.923 -3.06208 3.99056 0
M  V30 9985 H 983.623 -2.1276 5.47729 0
M  V30 9986 H 985.147 -3.0419 5.29434 0
M  V30 9987 H 986.561 -0.80285 5.67651 0
M  V30 9988 H 984.958 -0.0810221 6.00045 0
M  V30 9989 H 986.028 0.669433 4.80257 0
M  V30 9990 N 987.371 -1.57444 0.0701946 0
M  V30 9991 C 988.281 -2.16132 -0.912377 0
M  V30 9992 C 989.297 -1.12406 -1.32819 0
M  V30 9993 O 990.473 -1.44665 -1.40121 0
M  V30 9994 C 987.538 -2.71008 -2.16231 0
M  V30 9995 C 986.599 -3.896 -1.80306 0
M  V30 9996 C 985.832 -4.4185 -2.9934 0
M  V30 9997 O 986.055 -3.93106 -4.13309 0
M  V30 9998 O 984.989 -5.33201 -2.7925 0
M  V30 9999 H 988.815 -3.00449 -0.443167 0
M  V30 10000 H 986.4 -1.48617 -0.152786 0
M  V30 10001 H 988.282 -3.06186 -2.8953 0
M  V30 10002 H 986.957 -1.8975 -2.62253 0
M  V30 10003 H 985.864 -3.59277 -1.04264 0
M  V30 10004 H 987.197 -4.72145 -1.39068 0
M  V30 10005 N 988.849 0.203349 -1.56283 0
M  V30 10006 C 990.265 0.55384 -1.49682 0
M  V30 10007 C 990.465 1.86261 -0.768701 0
M  V30 10008 O 989.521 2.50517 -0.315824 0
M  V30 10009 C 990.834 0.616216 -2.94318 0
M  V30 10010 C 992.382 0.705611 -3.04943 0
M  V30 10011 C 992.857 0.79917 -4.50974 0
M  V30 10012 N 994.348 0.862916 -4.55091 0
M  V30 10013 C 995.083 0.955334 -5.65386 0
M  V30 10014 N 994.579 1.01057 -6.8539 0
M  V30 10015 N 996.372 0.991884 -5.53279 0
M  V30 10016 H 988.523 -0.655244 -2.0204 0
M  V30 10017 H 990.786 -0.232344 -0.919087 0
M  V30 10018 H 990.492 -0.27619 -3.50614 0
M  V30 10019 H 990.366 1.47371 -3.4722 0
M  V30 10020 H 992.753 1.58845 -2.48701 0
M  V30 10021 H 992.834 -0.177921 -2.5518 0
M  V30 10022 H 992.478 -0.0792841 -5.07838 0
M  V30 10023 H 992.408 1.69838 -4.9846 0
M  V30 10024 H 994.899 0.829812 -3.68677 0
M  V30 10025 H 995.212 1.08137 -7.65197 0
M  V30 10026 H 993.557 0.979384 -6.88065 0
M  V30 10027 H 996.748 0.945514 -4.58451 0
M  V30 10028 H 996.921 1.06045 -6.39264 0
M  V30 10029 N 990.327 1.50405 0.470755 0
M  V30 10030 C 991.738 1.54266 1.05162 0
M  V30 10031 C 992.089 0.346359 1.93119 0
M  V30 10032 O 991.214 -0.540699 2.09536 0
M  V30 10033 C 991.809 2.7956 1.91394 0
M  V30 10034 C 990.368 2.86101 2.44588 0
M  V30 10035 C 989.515 2.48557 1.22941 0
M  V30 10036 H 992.466 1.56665 0.253359 0
M  V30 10037 H 992.487 2.61434 2.76464 0
M  V30 10038 H 991.999 3.66611 1.27351 0
M  V30 10039 H 990.1 2.03403 3.12183 0
M  V30 10040 H 990.213 3.88999 2.79672 0
M  V30 10041 H 988.577 2.01003 1.56429 0
M  V30 10042 H 989.36 3.37916 0.605598 0
M  V30 10043 N 991.805 -0.723954 1.39988 0
M  V30 10044 C 992.735 -1.85103 1.42335 0
M  V30 10045 C 993.716 -1.6769 0.285297 0
M  V30 10046 O 994.901 -1.87846 0.492716 0
M  V30 10047 C 992.031 -3.22972 1.27697 0
M  V30 10048 C 990.985 -3.55041 2.39018 0
M  V30 10049 C 990.311 -4.91965 2.09462 0
M  V30 10050 C 991.611 -3.56889 3.8135 0
M  V30 10051 H 993.305 -1.83396 2.36656 0
M  V30 10052 H 990.851 -0.880926 1.13911 0
M  V30 10053 H 992.804 -4.01503 1.27958 0
M  V30 10054 H 991.528 -3.25233 0.298487 0
M  V30 10055 H 990.187 -2.78845 2.37993 0
M  V30 10056 H 989.835 -4.90819 1.10025 0
M  V30 10057 H 989.535 -5.14389 2.84038 0
M  V30 10058 H 991.059 -5.7284 2.11391 0
M  V30 10059 H 992.473 -4.25476 3.84243 0
M  V30 10060 H 990.87 -3.90836 4.55376 0
M  V30 10061 H 991.94 -2.56452 4.11534 0
M  V30 10062 N 993.283 -1.25346 -0.955304 0
M  V30 10063 C 994.213 -1.08152 -2.06943 0
M  V30 10064 C 995.194 0.00922598 -1.70097 0
M  V30 10065 O 996.379 -0.160181 -1.93538 0
M  V30 10066 C 993.509 -0.698745 -3.40198 0
M  V30 10067 C 992.463 -1.73965 -3.9105 0
M  V30 10068 C 991.789 -1.21158 -5.20792 0
M  V30 10069 C 993.089 -3.13829 -4.17503 0
M  V30 10070 H 994.783 -2.01345 -2.21586 0
M  V30 10071 H 992.329 -0.969459 -1.06478 0
M  V30 10072 H 994.282 -0.565394 -4.1759 0
M  V30 10073 H 993.006 0.268892 -3.25491 0
M  V30 10074 H 991.665 -1.86143 -3.15827 0
M  V30 10075 H 991.313 -0.234193 -5.02455 0
M  V30 10076 H 991.013 -1.90728 -5.55785 0
M  V30 10077 H 992.537 -1.09061 -6.00781 0
M  V30 10078 H 993.951 -3.04809 -4.85556 0
M  V30 10079 H 992.348 -3.80863 -4.63749 0
M  V30 10080 H 993.418 -3.6094 -3.23806 0
M  V30 10081 N 994.761 1.15782 -1.06922 0
M  V30 10082 C 995.691 2.22538 -0.707045 0
M  V30 10083 C 996.672 1.67371 0.303471 0
M  V30 10084 O 997.857 1.9339 0.177189 0
M  V30 10085 C 994.987 3.47158 -0.0994269 0
M  V30 10086 C 993.941 4.15257 -1.03661 0
M  V30 10087 C 993.267 5.33902 -0.291974 0
M  V30 10088 C 994.567 4.65516 -2.36837 0
M  V30 10089 H 996.261 2.53089 -1.59958 0
M  V30 10090 H 993.807 1.21649 -0.770552 0
M  V30 10091 H 995.76 4.21073 0.165852 0
M  V30 10092 H 994.484 3.15926 0.828155 0
M  V30 10093 H 993.143 3.43276 -1.28674 0
M  V30 10094 H 992.791 4.98926 0.638928 0
M  V30 10095 H 992.491 5.80407 -0.916613 0
M  V30 10096 H 994.015 6.1059 -0.0343915 0
M  V30 10097 H 995.429 5.30981 -2.16175 0
M  V30 10098 H 993.826 5.22666 -2.94856 0
M  V30 10099 H 994.896 3.81387 -2.99453 0
M  V30 10100 N 996.239 0.8527 1.3254 0
M  V30 10101 C 997.486 0.455123 1.97319 0
M  V30 10102 C 997.814 -0.988814 1.67489 0
M  V30 10103 O 997.069 -1.70845 0.954483 0
M  V30 10104 C 997.368 0.638757 3.51646 0
M  V30 10105 C 997.034 2.05287 4.01458 0
M  V30 10106 C 995.696 2.43963 4.14771 0
M  V30 10107 C 998.048 2.9759 4.27889 0
M  V30 10108 C 995.376 3.7422 4.51859 0
M  V30 10109 C 997.728 4.27343 4.66434 0
M  V30 10110 C 996.392 4.65957 4.77954 0
M  V30 10111 H 995.662 0.166541 0.722042 0
M  V30 10112 H 998.309 1.08238 1.57977 0
M  V30 10113 H 996.614 -0.0717394 3.91734 0
M  V30 10114 H 998.311 0.311219 3.9979 0
M  V30 10115 H 994.901 1.74253 3.91579 0
M  V30 10116 H 999.085 2.68942 4.17114 0
M  V30 10117 H 994.341 4.03923 4.58973 0
M  V30 10118 H 998.515 4.9893 4.85841 0
M  V30 10119 H 996.142 5.66934 5.06449 0
M  V30 10120 N 997.718 -1.45297 0.610449 0
M  V30 10121 C 999.129 -1.85715 0.191488 0
M  V30 10122 C 999.48 -1.51036 -1.25229 0
M  V30 10123 O 998.605 -0.938422 -1.94994 0
M  V30 10124 C 999.2 -3.37082 0.340747 0
M  V30 10125 C 997.759 -3.76393 -0.0235433 0
M  V30 10126 C 996.906 -2.69237 0.663849 0
M  V30 10127 H 999.857 -1.36058 0.816948 0
M  V30 10128 H 999.878 -3.78105 -0.426233 0
M  V30 10129 H 999.39 -3.62291 1.39164 0
M  V30 10130 H 997.491 -3.56801 -1.07351 0
M  V30 10131 H 997.604 -4.77653 0.372102 0
M  V30 10132 H 995.968 -2.54499 0.101204 0
M  V30 10133 H 996.751 -2.97281 1.71694 0
M  V30 10134 N 999.196 -0.349774 -1.5367 0
M  V30 10135 C 1000.16 0.491676 -2.23864 0
M  V30 10136 C 1001.16 1.02256 -1.24098 0
M  V30 10137 O 1002.35 0.910816 -1.48492 0
M  V30 10138 C 999.481 1.68557 -2.96313 0
M  V30 10139 H 1000.67 -0.12233 -2.9965 0
M  V30 10140 H 998.227 -0.101214 -1.55972 0
M  V30 10141 H 998.962 2.3381 -2.2473 0
M  V30 10142 H 998.747 1.31203 -3.69497 0
M  V30 10143 H 1000.24 2.28225 -3.49718 0
M  V30 10144 N 1000.67 1.57404 -0.0785433 0
M  V30 10145 C 1001.92 1.94031 0.589896 0
M  V30 10146 C 1002.25 0.959297 1.68852 0
M  V30 10147 O 1001.53 -0.0103978 1.94497 0
M  V30 10148 C 1001.81 3.40886 1.16055 0
M  V30 10149 C 1001.66 4.49748 0.0681072 0
M  V30 10150 C 1002.98 3.88699 2.06401 0
M  V30 10151 H 1000.1 0.70556 0.212965 0
M  V30 10152 H 1002.74 1.89439 -0.145886 0
M  V30 10153 H 1000.89 3.4493 1.78761 0
M  V30 10154 H 1002.57 4.57823 -0.565318 0
M  V30 10155 H 1000.81 4.29625 -0.600431 0
M  V30 10156 H 1001.48 5.49658 0.507906 0
M  V30 10157 H 1003.96 3.86703 1.53622 0
M  V30 10158 H 1002.83 4.92052 2.43261 0
M  V30 10159 H 1003.09 3.2703 2.97496 0
M  V30 10160 N 1002.15 -0.195058 1.56388 0
M  V30 10161 C 1003.11 -1.2254 1.93692 0
M  V30 10162 C 1004.11 -1.38437 0.81804 0
M  V30 10163 O 1005.3 -1.36248 1.08545 0
M  V30 10164 C 1002.44 -2.59476 2.21099 0
M  V30 10165 H 1003.63 -0.906544 2.8587 0
M  V30 10166 H 1001.18 -0.436577 1.50079 0
M  V30 10167 H 1001.92 -2.96417 1.31558 0
M  V30 10168 H 1001.7 -2.4931 3.02634 0
M  V30 10169 H 1003.19 -3.33777 2.50964 0
M  V30 10170 N 1003.63 -1.50653 -0.462772 0
M  V30 10171 C 1004.56 -1.64773 -1.57877 0
M  V30 10172 C 1005.54 -0.495664 -1.54861 0
M  V30 10173 O 1006.72 -0.716248 -1.74362 0
M  V30 10174 C 1003.85 -1.63796 -2.9646 0
M  V30 10175 C 1002.9 -2.84663 -3.17599 0
M  V30 10176 S 1003.73 -4.45852 -2.96608 0
M  V30 10177 C 1004.89 -4.47581 -4.37518 0
M  V30 10178 H 1005.12 -2.59172 -1.45661 0
M  V30 10179 H 1002.65 -1.40019 -0.650699 0
M  V30 10180 H 1004.61 -1.63918 -3.76353 0
M  V30 10181 H 1003.27 -0.706185 -3.06059 0
M  V30 10182 H 1002.46 -2.80308 -4.1886 0
M  V30 10183 H 1002.07 -2.82152 -2.45492 0
M  V30 10184 H 1004.36 -4.21656 -5.30295 0
M  V30 10185 H 1005.3 -5.49248 -4.46914 0
M  V30 10186 H 1005.71 -3.7719 -4.19985 0
M  V30 10187 N 1005.11 0.71652 -1.4037 0
M  V30 10188 C 1006.35 1.47857 -1.38803 0
M  V30 10189 C 1006.69 1.94197 0.0100536 0
M  V30 10190 O 1005.96 1.68093 0.978521 0
M  V30 10191 C 1006.25 2.7053 -2.37667 0
M  V30 10192 C 1006.1 2.3009 -3.86496 0
M  V30 10193 C 1007.42 3.72684 -2.34082 0
M  V30 10194 H 1004.54 0.53632 -0.505499 0
M  V30 10195 H 1007.18 0.817824 -1.71498 0
M  V30 10196 H 1005.33 3.26906 -2.09916 0
M  V30 10197 H 1007 1.79202 -4.2507 0
M  V30 10198 H 1005.24 1.62102 -4.02375 0
M  V30 10199 H 1005.91 3.18018 -4.51186 0
M  V30 10200 H 1008.39 3.25935 -2.58661 0
M  V30 10201 H 1007.27 4.56157 -3.05306 0
M  V30 10202 H 1007.53 4.20916 -1.35213 0
M  V30 10203 N 1006.59 1.25851 0.948643 0
M  V30 10204 C 1008 1.02802 1.22081 0
M  V30 10205 C 1008.2 -0.251461 1.99925 0
M  V30 10206 O 1007.26 -0.962592 2.33432 0
M  V30 10207 C 1008.57 2.25489 1.98936 0
M  V30 10208 C 1010.12 2.30312 2.11956 0
M  V30 10209 C 1010.59 3.52671 2.92211 0
M  V30 10210 N 1012.09 3.53103 2.99787 0
M  V30 10211 C 1012.82 4.44445 3.62294 0
M  V30 10212 N 1012.32 5.46065 4.26362 0
M  V30 10213 N 1014.11 4.32113 3.59493 0
M  V30 10214 H 1006.26 2.08042 0.428044 0
M  V30 10215 H 1008.52 0.913928 0.251872 0
M  V30 10216 H 1008.23 3.18513 1.4914 0
M  V30 10217 H 1008.1 2.2914 2.99624 0
M  V30 10218 H 1010.49 1.37808 2.60946 0
M  V30 10219 H 1010.57 2.30676 1.10554 0
M  V30 10220 H 1010.22 4.45501 2.43909 0
M  V30 10221 H 1010.15 3.49554 3.93853 0
M  V30 10222 H 1012.64 2.79597 2.54232 0
M  V30 10223 H 1012.95 6.11964 4.71932 0
M  V30 10224 H 1011.29 5.49931 4.24972 0
M  V30 10225 H 1014.49 3.51946 3.08629 0
M  V30 10226 H 1014.66 5.03493 4.0792 0
M  V30 10227 N 1008.06 -1.15214 1.07534 0
M  V30 10228 C 1009.31 -1.85676 0.79805 0
M  V30 10229 C 1009.63 -1.82837 -0.677919 0
M  V30 10230 O 1008.9 -1.27059 -1.49107 0
M  V30 10231 H 1007.48 -0.687468 0.292227 0
M  V30 10232 H 1010.15 -1.39658 1.35947 0
M  V30 10233 H 1009.24 -2.9076 1.13423 0
M  V30 10234 N 1009.54 -0.859717 -1.32086 0
M  V30 10235 C 1010.77 -0.478865 -2.01796 0
M  V30 10236 C 1011.19 0.918274 -1.64163 0
M  V30 10237 O 1010.55 1.60409 -0.844896 0
M  V30 10238 C 1010.6 -0.631356 -3.5503 0
M  V30 10239 O 1009.7 0.333712 -4.11048 0
M  V30 10240 H 1009.04 -0.191775 -0.635703 0
M  V30 10241 H 1011.57 -1.16031 -1.68517 0
M  V30 10242 H 1011.58 -0.520783 -4.04663 0
M  V30 10243 H 1010.26 -1.65015 -3.81763 0
M  V30 10244 H 1008.84 0.178953 -3.7247 0
M  V30 10245 N 1011.02 1.44971 -0.618145 0
M  V30 10246 C 1012.27 2.01372 -0.115004 0
M  V30 10247 C 1012.58 1.49104 1.26599 0
M  V30 10248 O 1013.79 1.97549 1.86244 0
M  V30 10249 C 1012.24 3.59567 -0.154883 0
M  V30 10250 C 1011.85 4.20832 -1.53639 0
M  V30 10251 C 1013.6 4.23491 0.292468 0
M  V30 10252 C 1011.5 5.7121 -1.53208 0
M  V30 10253 H 1010.43 0.752979 -0.0392267 0
M  V30 10254 H 1013.08 1.66329 -0.775032 0
M  V30 10255 H 1011.47 3.91847 0.572001 0
M  V30 10256 H 1012.64 4.00109 -2.28582 0
M  V30 10257 H 1010.96 3.69143 -1.92672 0
M  V30 10258 H 1013.55 5.33771 0.315032 0
M  V30 10259 H 1013.9 3.9491 1.31725 0
M  V30 10260 H 1014.43 3.95967 -0.381493 0
M  V30 10261 H 1011.17 6.04506 -2.53481 0
M  V30 10262 H 1010.69 5.94094 -0.825387 0
M  V30 10263 H 1012.37 6.34606 -1.26032 0
M  V30 10264 N 1012.5 0.357919 1.53482 0
M  V30 10265 C 1013.43 -0.484231 2.28424 0
M  V30 10266 C 1014.41 -1.09046 1.30548 0
M  V30 10267 O 1015.59 -1.10916 1.59409 0
M  V30 10268 C 1012.72 -1.62803 3.06778 0
M  V30 10269 C 1011.68 -1.14943 4.12277 0
M  V30 10270 C 1011 -2.38287 4.78669 0
M  V30 10271 C 1012.3 -0.239627 5.2175 0
M  V30 10272 H 1014 0.140979 2.99068 0
M  V30 10273 H 1011.54 0.069244 1.43833 0
M  V30 10274 H 1013.5 -2.22374 3.57949 0
M  V30 10275 H 1012.22 -2.28036 2.3381 0
M  V30 10276 H 1010.88 -0.576442 3.6204 0
M  V30 10277 H 1010.53 -3.01959 4.02281 0
M  V30 10278 H 1010.23 -2.06939 5.49955 0
M  V30 10279 H 1011.75 -2.98558 5.32631 0
M  V30 10280 H 1013.17 -0.742597 5.6847 0
M  V30 10281 H 1011.56 -0.0173747 6.00097 0
M  V30 10282 H 1012.63 0.720333 4.7952 0
M  V30 10283 N 1013.98 -1.5736 0.0868897 0
M  V30 10284 C 1015.22 -1.9367 -0.577598 0
M  V30 10285 C 1015.55 -0.968844 -1.69229 0
M  V30 10286 O 1014.82 -0.0195061 -1.9589 0
M  V30 10287 H 1013.4 -0.714983 -0.216353 0
M  V30 10288 H 1016.06 -1.94335 0.148294 0
M  V30 10289 H 1015.15 -2.95877 -0.993128 0
M  V30 10290 N 1015.45 0.186762 -1.56489 0
M  V30 10291 C 1016.87 0.537933 -1.50261 0
M  V30 10292 C 1017.07 1.85435 -0.788414 0
M  V30 10293 O 1016.13 2.50168 -0.342377 0
M  V30 10294 C 1017.44 0.584965 -2.94955 0
M  V30 10295 C 1018.99 0.673228 -3.05674 0
M  V30 10296 C 1019.46 0.751294 -4.51796 0
M  V30 10297 N 1020.95 0.814599 -4.55981 0
M  V30 10298 C 1021.69 0.895313 -5.66367 0
M  V30 10299 N 1021.18 0.937814 -6.86423 0
M  V30 10300 N 1022.98 0.933145 -5.543 0
M  V30 10301 H 1015.13 -0.676636 -2.01334 0
M  V30 10302 H 1017.39 -0.242079 -0.916571 0
M  V30 10303 H 1017.1 -0.313361 -3.50301 0
M  V30 10304 H 1016.97 1.4368 -3.48763 0
M  V30 10305 H 1019.36 1.56198 -2.50372 0
M  V30 10306 H 1019.44 -0.204976 -2.54977 0
M  V30 10307 H 1019.08 -0.133143 -5.07725 0
M  V30 10308 H 1019.01 1.64542 -5.00233 0
M  V30 10309 H 1021.5 0.790662 -3.69536 0
M  V30 10310 H 1021.82 1.00015 -7.66301 0
M  V30 10311 H 1020.16 0.906351 -6.89065 0
M  V30 10312 H 1023.35 0.896836 -4.59428 0
M  V30 10313 H 1023.53 0.992588 -6.40353 0
M  V30 10314 N 1016.93 1.50896 0.454776 0
M  V30 10315 C 1018.21 1.53227 1.21576 0
M  V30 10316 C 1018.59 0.286358 2.09149 0
M  V30 10317 O 1017.94 -0.729469 2.16543 0
M  V30 10318 C 1018.15 2.83693 2.03271 0
M  V30 10319 C 1019.5 3.34981 2.60908 0
M  V30 10320 O 1020.52 2.85126 2.13499 0
M  V30 10321 O 1019.38 4.21929 3.4733 0
M  V30 10322 H 1016.47 0.615306 0.552564 0
M  V30 10323 H 1019.02 1.63197 0.465266 0
M  V30 10324 H 1017.79 3.65839 1.38843 0
M  V30 10325 H 1017.41 2.76803 2.85422 0
M  V30 10326 N 1018.41 -0.709066 1.40748 0
M  V30 10327 C 1019.65 -1.48139 1.40834 0
M  V30 10328 C 1020.01 -1.91996 0.0117625 0
M  V30 10329 O 1021.22 -2.68564 -0.112524 0
M  V30 10330 C 1019.49 -2.67009 2.37573 0
M  V30 10331 S 1021.05 -3.56331 2.56073 0
M  V30 10332 H 1017.86 -0.506396 0.499084 0
M  V30 10333 H 1020.47 -0.828588 1.77072 0
M  V30 10334 H 1019.17 -2.32971 3.37865 0
M  V30 10335 H 1018.7 -3.37195 2.02641 0
M  V30 10336 H 1020.72 -4.61695 1.81803 0
M  V30 10337 N 1019.89 -1.26353 -0.941956 0
M  V30 10338 C 1020.82 -1.10341 -2.05784 0
M  V30 10339 C 1021.8 -0.00881565 -1.70098 0
M  V30 10340 O 1022.99 -0.180699 -1.93357 0
M  V30 10341 C 1020.12 -0.734788 -3.39438 0
M  V30 10342 C 1019.07 -1.78103 -3.89183 0
M  V30 10343 C 1018.4 -1.26675 -5.19478 0
M  V30 10344 C 1019.7 -3.1824 -4.14151 0
M  V30 10345 H 1021.39 -2.03684 -2.19438 0
M  V30 10346 H 1018.94 -0.980698 -1.05443 0
M  V30 10347 H 1020.89 -0.609653 -4.16967 0
M  V30 10348 H 1019.61 0.234354 -3.25758 0
M  V30 10349 H 1018.27 -1.89482 -3.13835 0
M  V30 10350 H 1017.92 -0.287472 -5.02178 0
M  V30 10351 H 1017.62 -1.96612 -5.53731 0
M  V30 10352 H 1019.14 -1.15427 -5.99591 0
M  V30 10353 H 1020.56 -3.09942 -4.82296 0
M  V30 10354 H 1018.95 -3.8576 -4.59684 0
M  V30 10355 H 1020.02 -3.64354 -3.19959 0
M  V30 10356 N 1021.37 1.14642 -1.08144 0
M  V30 10357 C 1022.3 2.19283 -0.6669 0
M  V30 10358 C 1023.31 1.60292 0.284668 0
M  V30 10359 O 1024.5 1.78352 0.0727383 0
M  V30 10360 C 1021.6 3.38877 0.0398572 0
M  V30 10361 C 1020.77 4.274 -0.929929 0
M  V30 10362 C 1019.83 5.25562 -0.258991 0
M  V30 10363 O 1018.86 5.61999 -0.902563 0
M  V30 10364 N 1020.06 5.71958 0.992177 0
M  V30 10365 H 1022.83 2.55464 -1.5671 0
M  V30 10366 H 1020.39 1.29836 -0.96717 0
M  V30 10367 H 1022.38 4.01605 0.499583 0
M  V30 10368 H 1020.95 3.01043 0.842118 0
M  V30 10369 H 1020.17 3.61649 -1.56857 0
M  V30 10370 H 1021.46 4.83411 -1.58717 0
M  V30 10371 H 1020.86 5.44481 1.53484 0
M  V30 10372 H 1019.41 6.36687 1.39544 0
M  V30 10373 N 1022.85 0.866709 1.31628 0
M  V30 10374 C 1024.09 0.475086 1.96437 0
M  V30 10375 C 1024.41 -0.975179 1.68865 0
M  V30 10376 O 1023.68 -1.68317 1.0023 0
M  V30 10377 H 1022.26 0.172695 0.726764 0
M  V30 10378 H 1024.93 1.10578 1.60494 0
M  V30 10379 H 1024.02 0.630123 3.05673 0
M  V30 10380 N 1024.32 -1.44642 0.625825 0
M  V30 10381 C 1025.25 -2.33397 -0.0692188 0
M  V30 10382 C 1026.23 -1.47898 -0.840241 0
M  V30 10383 O 1027.42 -1.7663 -0.807176 0
M  V30 10384 C 1024.55 -3.30888 -1.055 0
M  V30 10385 C 1023.5 -4.26164 -0.395968 0
M  V30 10386 C 1022.83 -5.13483 -1.49128 0
M  V30 10387 C 1024.13 -5.17663 0.694433 0
M  V30 10388 H 1025.82 -2.91763 0.671925 0
M  V30 10389 H 1023.37 -1.40294 0.324573 0
M  V30 10390 H 1025.32 -3.91861 -1.54993 0
M  V30 10391 H 1024.05 -2.7072 -1.82696 0
M  V30 10392 H 1022.71 -3.66516 0.0782691 0
M  V30 10393 H 1022.35 -4.49672 -2.25399 0
M  V30 10394 H 1022.05 -5.78038 -1.05573 0
M  V30 10395 H 1023.58 -5.77327 -1.98813 0
M  V30 10396 H 1024.99 -5.72602 0.282818 0
M  V30 10397 H 1023.39 -5.90793 1.05281 0
M  V30 10398 H 1024.46 -4.58994 1.56372 0
M  V30 10399 N 1025.8 -0.366053 -1.5329 0
M  V30 10400 C 1027.05 0.223051 -2.00865 0
M  V30 10401 C 1027.37 1.49244 -1.25504 0
M  V30 10402 O 1026.64 1.92404 -0.368444 0
M  V30 10403 H 1025.22 0.085413 -0.742101 0
M  V30 10404 H 1027.88 -0.492396 -1.88578 0
M  V30 10405 H 1026.98 0.449701 -3.08843 0
M  V30 10406 N 1027.28 1.57312 -0.0952337 0
M  V30 10407 C 1028.21 2.17056 0.860753 0
M  V30 10408 C 1029.19 1.10394 1.29411 0
M  V30 10409 O 1030.38 1.38532 1.36098 0
M  V30 10410 C 1027.51 2.751 2.11984 0
M  V30 10411 C 1026.46 3.87136 1.8251 0
M  V30 10412 C 1025.79 4.31883 3.15247 0
M  V30 10413 C 1027.09 5.10326 1.11194 0
M  V30 10414 H 1028.78 2.97192 0.362983 0
M  V30 10415 H 1026.33 1.42955 0.173151 0
M  V30 10416 H 1028.28 3.15547 2.79299 0
M  V30 10417 H 1027 1.92219 2.64044 0
M  V30 10418 H 1025.66 3.47229 1.17592 0
M  V30 10419 H 1025.31 3.45893 3.65195 0
M  V30 10420 H 1025.01 5.0742 2.96309 0
M  V30 10421 H 1026.53 4.74964 3.83721 0
M  V30 10422 H 1027.95 5.47942 1.6862 0
M  V30 10423 H 1026.34 5.91293 1.02435 0
M  V30 10424 H 1027.41 4.84807 0.0947227 0
M  V30 10425 N 1028.76 -0.17846 1.56586 0
M  V30 10426 C 1030.17 -0.529957 1.50544 0
M  V30 10427 C 1030.37 -1.85015 0.798237 0
M  V30 10428 O 1029.43 -2.49983 0.355639 0
M  V30 10429 C 1030.74 -0.569314 2.95261 0
M  V30 10430 C 1032.29 -0.657008 3.06027 0
M  V30 10431 C 1032.77 -0.727323 4.52188 0
M  V30 10432 N 1034.26 -0.790406 4.56406 0
M  V30 10433 C 1034.99 -0.865265 5.66834 0
M  V30 10434 N 1034.49 -0.901398 6.86911 0
M  V30 10435 N 1036.28 -0.903736 5.54787 0
M  V30 10436 H 1028.43 0.687304 2.00972 0
M  V30 10437 H 1030.69 0.246936 0.915274 0
M  V30 10438 H 1030.4 0.331934 3.5013 0
M  V30 10439 H 1030.27 -1.41828 3.4952 0
M  V30 10440 H 1032.66 -1.54868 2.51197 0
M  V30 10441 H 1032.74 0.218495 2.54865 0
M  V30 10442 H 1032.39 0.160067 5.07648 0
M  V30 10443 H 1032.32 -1.61887 5.01099 0
M  V30 10444 H 1034.81 -0.771054 3.6995 0
M  V30 10445 H 1035.12 -0.959494 7.6682 0
M  V30 10446 H 1033.47 -0.869795 6.89536 0
M  V30 10447 H 1036.66 -0.872459 4.59898 0
M  V30 10448 H 1036.83 -0.958615 6.4087 0
M  V30 10449 N 1030.24 -1.51135 -0.446768 0
M  V30 10450 C 1031.17 -1.74709 -1.54916 0
M  V30 10451 C 1032.15 -0.596628 -1.59293 0
M  V30 10452 O 1033.33 -0.838356 -1.75172 0
M  V30 10453 C 1030.46 -1.86353 -2.9307 0
M  V30 10454 C 1029.42 -3.01725 -3.03556 0
M  V30 10455 C 1028.74 -2.9854 -4.43597 0
M  V30 10456 C 1030.04 -4.41848 -2.7851 0
M  V30 10457 H 1031.74 -2.67014 -1.3544 0
M  V30 10458 H 1029.28 -1.28489 -0.650131 0
M  V30 10459 H 1031.23 -2.01428 -3.70141 0
M  V30 10460 H 1029.96 -0.906887 -3.13756 0
M  V30 10461 H 1028.62 -2.86339 -2.28922 0
M  V30 10462 H 1028.27 -2.00673 -4.61237 0
M  V30 10463 H 1027.97 -3.76008 -4.51544 0
M  V30 10464 H 1029.49 -3.15696 -5.22655 0
M  V30 10465 H 1030.9 -4.57633 -3.45319 0
M  V30 10466 H 1029.3 -5.2095 -2.97877 0
M  V30 10467 H 1030.37 -4.52536 -1.74182 0
M  V30 10468 N 1031.71 0.701592 -1.41122 0
M  V30 10469 C 1032.94 1.49049 -1.43499 0
M  V30 10470 C 1033.36 1.88761 -0.0385684 0
M  V30 10471 O 1032.71 1.56384 0.940755 0
M  V30 10472 C 1032.76 2.7569 -2.33832 0
M  V30 10473 O 1032.49 2.37653 -3.68039 0
M  V30 10474 C 1033.99 3.69479 -2.44949 0
M  V30 10475 H 1031.21 0.459519 -0.488961 0
M  V30 10476 H 1033.75 0.864318 -1.85337 0
M  V30 10477 H 1031.91 3.34559 -1.95318 0
M  V30 10478 H 1032.32 3.19241 -4.16156 0
M  V30 10479 H 1033.79 4.55139 -3.12334 0
M  V30 10480 H 1034.27 4.13553 -1.47887 0
M  V30 10481 H 1034.88 3.16517 -2.84072 0
M  V30 10482 N 1033.19 1.2685 0.935242 0
M  V30 10483 C 1034.14 1.08746 2.05614 0
M  V30 10484 C 1035.13 0.012681 1.69395 0
M  V30 10485 O 1036.34 0.169822 1.79197 0
M  V30 10486 H 1032.71 0.33485 0.673335 0
M  V30 10487 H 1034.69 2.03725 2.18033 0
M  V30 10488 C 1033.43 0.74346 3.39659 0
M  V30 10489 H 1032.76 1.56236 3.68008 0
M  V30 10490 H 1034.2 0.656607 4.18885 0
M  V30 10491 C 1032.66 -0.551751 3.32351 0
M  V30 10492 O 1033.19 -1.58836 3.68963 0
M  V30 10493 N 1031.39 -0.544583 2.85452 0
M  V30 10494 H 1030.94 0.29939 2.55854 0
M  V30 10495 H 1030.9 -1.41129 2.80945 0
M  V30 10496 N 1034.67 -1.14067 1.0875 0
M  V30 10497 C 1035.6 -2.21385 0.74236 0
M  V30 10498 C 1036.58 -1.67833 -0.276805 0
M  V30 10499 O 1037.77 -1.93647 -0.1464 0
M  V30 10500 C 1034.9 -3.46956 0.154644 0
M  V30 10501 C 1033.85 -4.13555 1.10255 0
M  V30 10502 C 1033.18 -5.3337 0.376877 0
M  V30 10503 C 1034.48 -4.6169 2.44213 0
M  V30 10504 H 1036.17 -2.50512 1.63964 0
M  V30 10505 H 1033.72 -1.20408 0.789807 0
M  V30 10506 H 1035.67 -4.21284 -0.0988419 0
M  V30 10507 H 1034.39 -3.17203 -0.777789 0
M  V30 10508 H 1033.05 -3.41186 1.34119 0
M  V30 10509 H 1032.7 -4.99879 -0.559472 0
M  V30 10510 H 1032.4 -5.78875 1.00884 0
M  V30 10511 H 1033.92 -6.10458 0.131527 0
M  V30 10512 H 1035.34 -5.27475 2.24595 0
M  V30 10513 H 1033.74 -5.17909 3.03134 0
M  V30 10514 H 1034.81 -3.76574 3.05483 0
M  V30 10515 N 1036.15 -0.873678 -1.31166 0
M  V30 10516 C 1037.4 -0.482577 -1.95842 0
M  V30 10517 C 1037.71 0.970881 -1.69804 0
M  V30 10518 O 1038.92 1.4683 -2.28371 0
M  V30 10519 C 1037.37 -0.812074 -3.50619 0
M  V30 10520 C 1036.98 -2.28254 -3.85492 0
M  V30 10521 C 1038.72 -0.489624 -4.21667 0
M  V30 10522 C 1036.63 -2.55426 -5.33396 0
M  V30 10523 H 1035.56 -0.176736 -0.732994 0
M  V30 10524 H 1038.21 -1.06709 -1.49283 0
M  V30 10525 H 1036.59 -0.156769 -3.9569 0
M  V30 10526 H 1037.77 -2.98122 -3.51369 0
M  V30 10527 H 1036.08 -2.5714 -3.27518 0
M  V30 10528 H 1038.68 -0.669811 -5.30488 0
M  V30 10529 H 1039.02 0.570204 -4.12376 0
M  V30 10530 H 1039.56 -1.10163 -3.82242 0
M  V30 10531 H 1036.3 -3.60106 -5.47726 0
M  V30 10532 H 1035.82 -1.90156 -5.68859 0
M  V30 10533 H 1037.49 -2.40345 -6.00702 0
M  V30 10534 N 1037.63 1.44308 -0.633487 0
M  V30 10535 C 1038.87 2.01624 -0.138643 0
M  V30 10536 C 1039.2 1.50101 1.24477 0
M  V30 10537 O 1038.47 0.705575 1.82752 0
M  V30 10538 H 1037.05 0.745439 -0.0482636 0
M  V30 10539 H 1039.71 1.76777 -0.820719 0
M  V30 10540 H 1038.8 3.11913 -0.108136 0
M  V30 10541 N 1039.1 0.374177 1.53094 0
M  V30 10542 C 1040.52 0.0234783 1.59583 0
M  V30 10543 C 1040.72 -1.45984 1.38892 0
M  V30 10544 O 1039.78 -2.22251 1.19836 0
M  V30 10545 C 1041.09 0.487117 2.96728 0
M  V30 10546 C 1042.64 0.442073 3.09862 0
M  V30 10547 C 1043.11 0.881659 4.49434 0
M  V30 10548 N 1044.6 0.837062 4.55574 0
M  V30 10549 C 1045.34 1.14878 5.61774 0
M  V30 10550 N 1044.83 1.53022 6.75689 0
M  V30 10551 N 1046.63 1.07102 5.51802 0
M  V30 10552 H 1038.78 1.34003 1.64794 0
M  V30 10553 H 1041.04 0.548281 0.773364 0
M  V30 10554 H 1040.75 1.52252 3.17037 0
M  V30 10555 H 1040.62 -0.121772 3.77003 0
M  V30 10556 H 1043.01 -0.584216 2.89259 0
M  V30 10557 H 1043.09 1.08657 2.31576 0
M  V30 10558 H 1042.73 1.90611 4.70776 0
M  V30 10559 H 1042.66 0.214326 5.26164 0
M  V30 10560 H 1045.15 0.556173 3.73785 0
M  V30 10561 H 1045.47 1.75211 7.52676 0
M  V30 10562 H 1043.81 1.56895 6.77059 0
M  V30 10563 H 1047 0.772149 4.61688 0
M  V30 10564 H 1047.18 1.31728 6.3447 0
M  V30 10565 N 1040.58 -1.57259 0.103575 0
M  V30 10566 C 1041.55 -2.13337 -0.837859 0
M  V30 10567 C 1042.55 -1.06459 -1.20512 0
M  V30 10568 O 1043.74 -1.32307 -1.13316 0
M  V30 10569 C 1040.87 -2.66093 -2.13089 0
M  V30 10570 H 1042.06 -2.97842 -0.350775 0
M  V30 10571 H 1039.61 -1.55621 -0.145511 0
M  V30 10572 H 1040.35 -1.85133 -2.66264 0
M  V30 10573 H 1040.13 -3.44244 -1.87719 0
M  V30 10574 H 1041.62 -3.09443 -2.80419 0
M  V30 10575 N 1042.06 0.170153 -1.56679 0
M  V30 10576 C 1043.29 0.902134 -1.86197 0
M  V30 10577 C 1043.7 1.75775 -0.689098 0
M  V30 10578 O 1043.06 1.79271 0.341763 0
M  V30 10579 C 1043.11 1.77792 -3.14757 0
M  V30 10580 O 1042.83 0.956817 -4.27524 0
M  V30 10581 C 1044.33 2.61947 -3.57629 0
M  V30 10582 H 1041.55 0.262026 -0.617724 0
M  V30 10583 H 1044.1 0.169899 -2.03793 0
M  V30 10584 H 1042.25 2.46348 -2.98984 0
M  V30 10585 H 1042.67 1.5559 -5.00891 0
M  V30 10586 H 1044.14 3.19011 -4.50484 0
M  V30 10587 H 1044.62 3.36873 -2.81803 0
M  V30 10588 H 1045.22 1.98721 -3.76019 0
M  V30 10589 N 1043.54 1.5137 0.438746 0
M  V30 10590 C 1044.78 1.64211 1.19006 0
M  V30 10591 C 1045.12 0.356607 1.90898 0
M  V30 10592 O 1044.39 -0.643722 1.83539 0
M  V30 10593 C 1044.68 2.8445 2.20817 0
M  V30 10594 C 1044.53 4.22972 1.53018 0
M  V30 10595 C 1045.85 3.00207 3.21813 0
M  V30 10596 H 1042.97 0.597628 0.431288 0
M  V30 10597 H 1045.61 1.8385 0.479487 0
M  V30 10598 H 1043.76 2.67836 2.81418 0
M  V30 10599 H 1045.43 4.5125 0.957654 0
M  V30 10600 H 1043.67 4.25736 0.832556 0
M  V30 10601 H 1044.34 5.03094 2.27158 0
M  V30 10602 H 1046.82 3.15522 2.71266 0
M  V30 10603 H 1045.7 3.85904 3.90345 0
M  V30 10604 H 1045.96 2.12216 3.87836 0
M  V30 10605 N 1045.02 -0.694098 1.41492 0
M  V30 10606 C 1045.95 -1.82042 1.46229 0
M  V30 10607 C 1046.93 -1.67047 0.320803 0
M  V30 10608 O 1048.11 -1.86758 0.53245 0
M  V30 10609 C 1045.24 -3.2019 1.34519 0
M  V30 10610 C 1044.2 -3.49892 2.46495 0
M  V30 10611 C 1043.52 -4.87411 2.1985 0
M  V30 10612 C 1044.82 -3.4872 3.88834 0
M  V30 10613 H 1046.52 -1.78335 2.40493 0
M  V30 10614 H 1044.06 -0.856566 1.15754 0
M  V30 10615 H 1046.02 -3.98699 1.36445 0
M  V30 10616 H 1044.74 -3.24527 0.367406 0
M  V30 10617 H 1043.4 -2.73734 2.43854 0
M  V30 10618 H 1043.05 -4.88375 1.20411 0
M  V30 10619 H 1042.75 -5.08248 2.94885 0
M  V30 10620 H 1044.27 -5.68228 2.23494 0
M  V30 10621 H 1045.68 -4.1723 3.93182 0
M  V30 10622 H 1044.08 -3.81089 4.63564 0
M  V30 10623 H 1045.15 -2.47665 4.16881 0
M  V30 10624 N 1046.49 -1.27344 -0.928501 0
M  V30 10625 C 1047.72 -1.16447 -1.7102 0
M  V30 10626 C 1048.14 0.278799 -1.8673 0
M  V30 10627 O 1047.49 1.18989 -1.38376 0
M  V30 10628 C 1047.55 -1.84242 -3.11026 0
M  V30 10629 O 1047.27 -3.2293 -2.96054 0
M  V30 10630 C 1048.77 -1.7946 -4.05351 0
M  V30 10631 H 1045.99 -0.404898 -0.535069 0
M  V30 10632 H 1048.53 -1.68201 -1.16313 0
M  V30 10633 H 1046.69 -1.36395 -3.62595 0
M  V30 10634 H 1047.1 -3.5667 -3.8456 0
M  V30 10635 H 1048.57 -2.31511 -5.01105 0
M  V30 10636 H 1049.05 -0.763771 -4.32508 0
M  V30 10637 H 1049.66 -2.26918 -3.59706 0
M  V30 10638 N 1047.97 1.13488 -1.09353 0
M  V30 10639 C 1049.22 1.85022 -0.830354 0
M  V30 10640 C 1049.55 1.83266 0.64242 0
M  V30 10641 O 1048.83 1.27024 1.47293 0
M  V30 10642 C 1049.11 3.33218 -1.36521 0
M  V30 10643 C 1048.96 3.43491 -2.90404 0
M  V30 10644 C 1050.28 4.28626 -0.998381 0
M  V30 10645 H 1047.4 0.671786 -0.303105 0
M  V30 10646 H 1050.04 1.33211 -1.3548 0
M  V30 10647 H 1048.19 3.77471 -0.919117 0
M  V30 10648 H 1049.86 3.07954 -3.43456 0
M  V30 10649 H 1048.11 2.84391 -3.27573 0
M  V30 10650 H 1048.78 4.47702 -3.22905 0
M  V30 10651 H 1051.25 3.9244 -1.38311 0
M  V30 10652 H 1050.13 5.30754 -1.39968 0
M  V30 10653 H 1050.39 4.42001 0.093517 0
M  V30 10654 N 1049.45 0.880621 1.30701 0
M  V30 10655 C 1050.41 0.349087 2.26526 0
M  V30 10656 C 1051.41 -0.505973 1.52632 0
M  V30 10657 O 1052.6 -0.313751 1.71351 0
M  V30 10658 C 1049.74 -0.503023 3.37168 0
M  V30 10659 H 1050.93 1.19516 2.75056 0
M  V30 10660 H 1048.48 0.657107 1.41816 0
M  V30 10661 H 1049.22 -1.36986 2.93948 0
M  V30 10662 H 1049 0.109389 3.91947 0
M  V30 10663 H 1050.49 -0.866845 4.08504 0
M  V30 10664 N 1050.93 -1.4397 0.641131 0
M  V30 10665 C 1051.86 -2.33458 -0.04446 0
M  V30 10666 C 1052.84 -1.48781 -0.824507 0
M  V30 10667 O 1054.03 -1.77477 -0.788397 0
M  V30 10668 C 1051.16 -3.31989 -1.01984 0
M  V30 10669 C 1050.11 -4.2656 -0.350745 0
M  V30 10670 C 1049.44 -5.15036 -1.43673 0
M  V30 10671 C 1050.74 -5.16897 0.749299 0
M  V30 10672 H 1052.43 -2.91034 0.702832 0
M  V30 10673 H 1049.98 -1.39942 0.339435 0
M  V30 10674 H 1051.93 -3.93483 -1.50828 0
M  V30 10675 H 1050.65 -2.72643 -1.79815 0
M  V30 10676 H 1049.31 -3.66413 0.117139 0
M  V30 10677 H 1048.96 -4.52037 -2.20617 0
M  V30 10678 H 1048.66 -5.79125 -0.994358 0
M  V30 10679 H 1050.18 -5.79403 -1.92678 0
M  V30 10680 H 1051.6 -5.7227 0.343534 0
M  V30 10681 H 1049.99 -5.89643 1.11541 0
M  V30 10682 H 1051.06 -4.5731 1.61232 0
M  V30 10683 N 1052.41 -0.382291 -1.52893 0
M  V30 10684 C 1053.36 0.473026 -2.23039 0
M  V30 10685 C 1054.34 1.0353 -1.23168 0
M  V30 10686 O 1055.53 0.962566 -1.48538 0
M  V30 10687 C 1052.66 1.60349 -3.03551 0
M  V30 10688 C 1051.75 1.05329 -4.10812 0
M  V30 10689 N 1052.14 0.22746 -5.05288 0
M  V30 10690 C 1050.44 1.32648 -4.25818 0
M  V30 10691 C 1051.14 -0.0757032 -5.81651 0
M  V30 10692 N 1050.11 0.526387 -5.41045 0
M  V30 10693 H 1053.92 -0.164541 -2.93439 0
M  V30 10694 H 1051.43 -0.191211 -1.6127 0
M  V30 10695 H 1053.43 2.22858 -3.52335 0
M  V30 10696 H 1052.09 2.24394 -2.34685 0
M  V30 10697 H 1053.1 -0.134714 -5.17725 0
M  V30 10698 H 1049.78 1.96849 -3.6818 0
M  V30 10699 H 1051.17 -0.744375 -6.67764 0
M  V30 10700 N 1053.89 1.57202 -0.111913 0
M  V30 10701 C 1054.82 2.17957 0.837683 0
M  V30 10702 C 1055.8 1.1176 1.28233 0
M  V30 10703 O 1056.98 1.39967 1.34621 0
M  V30 10704 C 1054.11 2.77333 2.09054 0
M  V30 10705 C 1053.07 3.8905 1.78393 0
M  V30 10706 C 1052.39 4.35203 3.10649 0
M  V30 10707 C 1053.69 5.11477 1.05775 0
M  V30 10708 H 1055.39 2.9756 0.331441 0
M  V30 10709 H 1052.93 1.43131 0.157979 0
M  V30 10710 H 1054.88 3.18492 2.75936 0
M  V30 10711 H 1053.61 1.95009 2.6199 0
M  V30 10712 H 1052.27 3.48456 1.13903 0
M  V30 10713 H 1051.92 3.49747 3.61506 0
M  V30 10714 H 1051.62 5.10534 2.9091 0
M  V30 10715 H 1053.14 4.79007 3.78661 0
M  V30 10716 H 1054.55 5.497 1.62798 0
M  V30 10717 H 1052.95 5.92346 0.961573 0
M  V30 10718 H 1054.02 4.84881 0.043297 0
M  V30 10719 N 1055.36 -0.161842 1.56767 0
M  V30 10720 C 1056.33 -1.18404 1.96247 0
M  V30 10721 C 1057.33 -1.3667 0.84722 0
M  V30 10722 O 1058.52 -1.33915 1.11411 0
M  V30 10723 C 1055.65 -2.54728 2.26553 0
M  V30 10724 H 1056.84 -0.845703 2.87729 0
M  V30 10725 H 1054.39 -0.404645 1.50971 0
M  V30 10726 H 1055.13 -2.93559 1.37816 0
M  V30 10727 H 1054.91 -2.42834 3.07854 0
M  V30 10728 H 1056.4 -3.28378 2.57987 0
M  V30 10729 N 1056.84 -1.516 -0.430713 0
M  V30 10730 C 1058.09 -1.63829 -1.17657 0
M  V30 10731 C 1058.4 -0.363605 -1.92191 0
M  V30 10732 O 1059.61 -0.365358 -2.6903 0
M  V30 10733 C 1058.07 -2.89357 -2.14011 0
M  V30 10734 C 1057.67 -4.23854 -1.45094 0
M  V30 10735 C 1059.42 -3.10944 -2.88988 0
M  V30 10736 C 1057.32 -5.40526 -2.3997 0
M  V30 10737 H 1056.25 -0.610221 -0.442884 0
M  V30 10738 H 1058.91 -1.78073 -0.442984 0
M  V30 10739 H 1057.29 -2.68762 -2.90832 0
M  V30 10740 H 1058.46 -4.54854 -0.737853 0
M  V30 10741 H 1056.78 -4.08197 -0.822429 0
M  V30 10742 H 1059.37 -3.95286 -3.60074 0
M  V30 10743 H 1059.72 -2.24291 -3.50712 0
M  V30 10744 H 1060.25 -3.3191 -2.19272 0
M  V30 10745 H 1056.99 -6.29459 -1.82925 0
M  V30 10746 H 1056.51 -5.13893 -3.09313 0
M  V30 10747 H 1058.19 -5.72741 -3.00959 0
M  V30 10748 N 1058.32 0.686584 -1.41858 0
M  V30 10749 C 1059.73 1.26682 -1.37145 0
M  V30 10750 C 1060.08 1.96112 -0.058922 0
M  V30 10751 O 1059.21 1.99321 0.842629 0
M  V30 10752 C 1059.8 2.30383 -2.48413 0
M  V30 10753 C 1058.36 2.83961 -2.47069 0
M  V30 10754 C 1057.51 1.58119 -2.27802 0
M  V30 10755 H 1060.46 0.480742 -1.51243 0
M  V30 10756 H 1060.48 3.11868 -2.17987 0
M  V30 10757 H 1059.99 1.79822 -3.43927 0
M  V30 10758 H 1058.09 3.38675 -1.55338 0
M  V30 10759 H 1058.21 3.3378 -3.43697 0
M  V30 10760 H 1056.57 1.84258 -1.75844 0
M  V30 10761 H 1057.35 1.09541 -3.25355 0
M  V30 10762 N 1059.8 1.27835 0.921735 0
M  V30 10763 C 1060.73 1.136 2.04003 0
M  V30 10764 C 1061.71 0.0358756 1.70062 0
M  V30 10765 O 1062.89 0.211438 1.93046 0
M  V30 10766 C 1060.02 0.788697 3.38226 0
M  V30 10767 C 1058.98 1.84272 3.863 0
M  V30 10768 C 1058.3 1.34923 5.17397 0
M  V30 10769 C 1059.6 3.24788 4.09035 0
M  V30 10770 H 1061.3 2.07149 2.1617 0
M  V30 10771 H 1058.84 0.997349 1.0387 0
M  V30 10772 H 1060.8 0.675911 4.15944 0
M  V30 10773 H 1059.52 -0.182499 3.2609 0
M  V30 10774 H 1058.18 1.94451 3.1078 0
M  V30 10775 H 1057.83 0.367328 5.01657 0
M  V30 10776 H 1057.53 2.05397 5.50532 0
M  V30 10777 H 1059.05 1.24951 5.97678 0
M  V30 10778 H 1060.47 3.17575 4.77304 0
M  V30 10779 H 1058.86 3.93025 4.53488 0
M  V30 10780 H 1059.93 3.69398 3.14122 0
M  V30 10781 N 1061.28 -1.12907 1.09954 0
M  V30 10782 C 1062.22 -2.18485 0.743848 0
M  V30 10783 C 1063.19 -1.63766 -0.277494 0
M  V30 10784 O 1064.38 -1.90146 -0.157899 0
M  V30 10785 C 1061.52 -3.44649 0.176437 0
M  V30 10786 C 1060.63 -4.13445 1.25248 0
M  V30 10787 C 1059.77 -5.27242 0.647242 0
M  V30 10788 C 1058.8 -5.87897 1.70421 0
M  V30 10789 N 1057.94 -6.93116 1.1196 0
M  V30 10790 H 1062.78 -2.48257 1.64841 0
M  V30 10791 H 1060.32 -1.21891 0.823471 0
M  V30 10792 H 1062.28 -4.16852 -0.170384 0
M  V30 10793 H 1060.91 -3.15309 -0.69137 0
M  V30 10794 H 1059.96 -3.39471 1.7165 0
M  V30 10795 H 1061.27 -4.54601 2.05279 0
M  V30 10796 H 1060.42 -6.06186 0.249579 0
M  V30 10797 H 1059.16 -4.87351 -0.184556 0
M  V30 10798 H 1058.17 -5.07643 2.11136 0
M  V30 10799 H 1059.39 -6.2986 2.53877 0
M  V30 10800 H 1057.34 -6.55271 0.309181 0
M  V30 10801 H 1057.26 -7.32843 1.85681 0
M  V30 10802 H 1058.52 -7.759 0.748326 0
M  V30 10803 N 1062.75 -0.88754 -1.30232 0
M  V30 10804 C 1064 -0.517406 -1.96709 0
M  V30 10805 C 1064.35 0.923757 -1.68774 0
M  V30 10806 O 1063.65 1.64435 -0.983443 0
M  V30 10807 C 1063.84 -0.731765 -3.49828 0
M  V30 10808 C 1063.67 -2.19221 -3.92648 0
M  V30 10809 C 1062.44 -2.83729 -4.18122 0
M  V30 10810 C 1064.64 -3.16627 -4.0528 0
M  V30 10811 N 1062.62 -4.20343 -4.4742 0
M  V30 10812 C 1063.99 -4.38322 -4.38491 0
M  V30 10813 C 1066.05 -3.12381 -3.87715 0
M  V30 10814 C 1064.75 -5.56315 -4.55967 0
M  V30 10815 C 1066.78 -4.29648 -4.06394 0
M  V30 10816 C 1066.14 -5.5011 -4.39953 0
M  V30 10817 H 1062.24 -0.238709 -0.744676 0
M  V30 10818 H 1064.82 -1.14581 -1.57414 0
M  V30 10819 H 1062.99 -0.132827 -3.88173 0
M  V30 10820 H 1064.72 -0.328276 -4.03366 0
M  V30 10821 H 1061.48 -2.34584 -4.11421 0
M  V30 10822 H 1061.9 -4.90905 -4.66199 0
M  V30 10823 H 1066.54 -2.20345 -3.60843 0
M  V30 10824 H 1064.26 -6.48853 -4.8168 0
M  V30 10825 H 1067.85 -4.27835 -3.94269 0
M  V30 10826 H 1066.73 -6.39339 -4.54109 0
M  V30 10827 N 1064.23 1.43628 -0.648757 0
M  V30 10828 C 1065.18 2.30755 0.0455536 0
M  V30 10829 C 1066.15 1.44495 0.819168 0
M  V30 10830 O 1067.33 1.73372 0.79667 0
M  V30 10831 C 1064.47 3.30017 1.00908 0
M  V30 10832 C 1063.59 4.31376 0.232039 0
M  V30 10833 C 1062.72 5.17723 1.18897 0
M  V30 10834 C 1061.76 6.10778 0.402096 0
M  V30 10835 N 1060.9 6.89763 1.31038 0
M  V30 10836 H 1065.74 2.89581 -0.70332 0
M  V30 10837 H 1063.28 1.42662 -0.3586 0
M  V30 10838 H 1065.23 3.86072 1.58128 0
M  V30 10839 H 1063.86 2.72851 1.72488 0
M  V30 10840 H 1062.92 3.77652 -0.456373 0
M  V30 10841 H 1064.23 4.9735 -0.380023 0
M  V30 10842 H 1063.38 5.78381 1.83194 0
M  V30 10843 H 1062.12 4.51864 1.83494 0
M  V30 10844 H 1061.13 5.49212 -0.254255 0
M  V30 10845 H 1062.35 6.78678 -0.239411 0
M  V30 10846 H 1060.3 6.26557 1.94324 0
M  V30 10847 H 1060.21 7.52243 0.752774 0
M  V30 10848 H 1061.48 7.54931 1.94164 0
M  V30 10849 N 1065.71 0.390394 1.52688 0
M  V30 10850 C 1067.12 -0.083394 1.86514 0
M  V30 10851 C 1067.47 -1.46057 1.31003 0
M  V30 10852 O 1066.6 -2.06663 0.641809 0
M  V30 10853 C 1067.19 -0.158102 3.38431 0
M  V30 10854 C 1065.75 -0.576186 3.71964 0
M  V30 10855 C 1064.9 0.261156 2.76068 0
M  V30 10856 H 1067.85 0.608226 1.46582 0
M  V30 10857 H 1067.87 -0.977023 3.67742 0
M  V30 10858 H 1067.38 0.844365 3.78803 0
M  V30 10859 H 1065.48 -1.58598 3.37161 0
M  V30 10860 H 1065.6 -0.333577 4.77937 0
M  V30 10861 H 1063.96 -0.273737 2.53225 0
M  V30 10862 H 1064.74 1.26162 3.19277 0
M  V30 10863 N 1067.19 -1.57141 0.120249 0
M  V30 10864 C 1068.47 -1.8677 -0.581075 0
M  V30 10865 C 1068.85 -1.02163 -1.84732 0
M  V30 10866 O 1068.19 -0.100897 -2.28277 0
M  V30 10867 C 1068.4 -3.37923 -0.872316 0
M  V30 10868 C 1069.75 -4.0655 -1.22483 0
M  V30 10869 O 1070.78 -3.42948 -0.962539 0
M  V30 10870 O 1069.63 -5.18821 -1.71717 0
M  V30 10871 H 1066.73 -0.773219 -0.293362 0
M  V30 10872 H 1069.27 -1.68992 0.154846 0
M  V30 10873 H 1068.05 -3.91292 0.0249416 0
M  V30 10874 H 1067.67 -3.61135 -1.66335 0
M  V30 10875 N 1068.67 0.153526 -1.5685 0
M  V30 10876 C 1069.62 1.19478 -1.94188 0
M  V30 10877 C 1070.6 1.38889 -0.812329 0
M  V30 10878 O 1071.79 1.4056 -1.07572 0
M  V30 10879 C 1068.92 2.53 -2.32047 0
M  V30 10880 C 1068.01 2.37209 -3.51557 0
M  V30 10881 N 1068.4 1.91162 -4.68285 0
M  V30 10882 C 1066.7 2.67981 -3.56514 0
M  V30 10883 C 1067.4 1.88259 -5.50394 0
M  V30 10884 N 1066.37 2.31329 -4.91923 0
M  V30 10885 H 1070.18 0.830748 -2.81915 0
M  V30 10886 H 1067.69 0.361643 -1.58322 0
M  V30 10887 H 1069.69 3.28264 -2.56998 0
M  V30 10888 H 1068.35 2.90191 -1.45669 0
M  V30 10889 H 1069.36 1.61227 -4.92165 0
M  V30 10890 H 1066.03 3.0909 -2.80659 0
M  V30 10891 H 1067.42 1.54205 -6.53965 0
M  V30 10892 N 1070.14 1.51827 0.422667 0
M  V30 10893 C 1071.37 1.69049 1.1929 0
M  V30 10894 C 1071.79 0.394095 1.84641 0
M  V30 10895 O 1071.14 -0.628731 1.71328 0
M  V30 10896 C 1071.2 2.81657 2.26609 0
M  V30 10897 O 1070.92 4.06275 1.63929 0
M  V30 10898 C 1072.42 3.10274 3.16615 0
M  V30 10899 H 1069.64 0.566894 0.358988 0
M  V30 10900 H 1072.18 1.98318 0.499029 0
M  V30 10901 H 1070.34 2.54945 2.91688 0
M  V30 10902 H 1070.75 4.68924 2.3497 0
M  V30 10903 H 1072.22 3.92613 3.88019 0
M  V30 10904 H 1072.7 2.23273 3.78214 0
M  V30 10905 H 1073.31 3.387 2.57221 0
M  V30 10906 N 1071.62 -0.679052 1.4222 0
M  V30 10907 C 1073.03 -1.25953 1.37815 0
M  V30 10908 C 1073.38 -1.96077 0.0693215 0
M  V30 10909 O 1072.51 -1.99765 -0.832047 0
M  V30 10910 C 1073.1 -2.29063 2.49631 0
M  V30 10911 C 1071.66 -2.82647 2.48571 0
M  V30 10912 C 1070.81 -1.56909 2.28637 0
M  V30 10913 H 1073.76 -0.472714 1.51496 0
M  V30 10914 H 1073.78 -3.10708 2.19638 0
M  V30 10915 H 1073.29 -1.77996 3.44876 0
M  V30 10916 H 1071.4 -3.37846 1.57132 0
M  V30 10917 H 1071.51 -3.31952 3.45463 0
M  V30 10918 H 1069.87 -1.83323 1.76819 0
M  V30 10919 H 1070.66 -1.07814 3.25931 0
M  V30 10920 N 1073.1 -1.28322 -0.914942 0
M  V30 10921 C 1074.35 -1.15578 -1.66642 0
M  V30 10922 C 1074.68 0.295209 -1.91943 0
M  V30 10923 O 1073.95 1.21482 -1.51896 0
M  V30 10924 C 1074.24 -1.9535 -3.02507 0
M  V30 10925 C 1074.09 -3.48504 -2.84367 0
M  V30 10926 C 1075.41 -1.76798 -4.03027 0
M  V30 10927 H 1072.53 -0.421234 -0.604757 0
M  V30 10928 H 1075.17 -1.57625 -1.06087 0
M  V30 10929 H 1073.32 -1.59619 -3.54195 0
M  V30 10930 H 1074.99 -3.94135 -2.39699 0
M  V30 10931 H 1073.24 -3.74198 -2.1945 0
M  V30 10932 H 1073.91 -3.99576 -3.80845 0
M  V30 10933 H 1076.38 -2.07977 -3.60395 0
M  V30 10934 H 1075.26 -2.34987 -4.96057 0
M  V30 10935 H 1075.52 -0.719162 -4.36211 0
M  V30 10936 N 1074.58 1.12322 -1.10551 0
M  V30 10937 C 1075.82 1.84333 -0.859826 0
M  V30 10938 C 1076.18 1.82539 0.608052 0
M  V30 10939 O 1075.47 1.26086 1.44267 0
M  V30 10940 C 1075.67 3.31177 -1.34375 0
M  V30 10941 C 1075.5 3.47272 -2.85714 0
M  V30 10942 C 1074.27 3.60837 -3.5373 0
M  V30 10943 C 1076.46 3.42336 -3.83811 0
M  V30 10944 N 1074.45 3.65309 -4.93378 0
M  V30 10945 C 1075.82 3.53318 -5.09477 0
M  V30 10946 C 1077.87 3.25809 -3.76501 0
M  V30 10947 C 1076.57 3.49477 -6.28695 0
M  V30 10948 C 1078.6 3.23282 -4.9522 0
M  V30 10949 C 1077.96 3.34826 -6.19735 0
M  V30 10950 H 1074.06 0.690186 -0.367651 0
M  V30 10951 H 1076.65 1.34463 -1.40811 0
M  V30 10952 H 1074.82 3.79585 -0.822767 0
M  V30 10953 H 1076.55 3.91051 -1.04217 0
M  V30 10954 H 1073.3 3.63005 -3.04178 0
M  V30 10955 H 1073.73 3.71207 -5.66157 0
M  V30 10956 H 1078.37 3.15777 -2.81149 0
M  V30 10957 H 1076.09 3.5828 -7.24335 0
M  V30 10958 H 1079.67 3.11674 -4.91274 0
M  V30 10959 H 1078.55 3.32847 -7.10058 0
M  V30 10960 N 1076.06 0.894434 1.2976 0
M  V30 10961 C 1077.31 0.513673 1.95049 0
M  V30 10962 C 1077.62 -0.943744 1.71327 0
M  V30 10963 O 1078.82 -1.43179 2.30678 0
M  V30 10964 C 1077.28 0.867751 3.49282 0
M  V30 10965 C 1076.89 2.34358 3.81812 0
M  V30 10966 C 1078.63 0.556645 4.20835 0
M  V30 10967 C 1076.54 2.63879 5.29265 0
M  V30 10968 H 1075.47 0.188375 0.73009 0
M  V30 10969 H 1078.12 1.09071 1.47566 0
M  V30 10970 H 1076.5 0.2197 3.9539 0
M  V30 10971 H 1077.68 3.03674 3.46581 0
M  V30 10972 H 1075.99 2.62318 3.23386 0
M  V30 10973 H 1078.59 0.754123 5.29355 0
M  V30 10974 H 1078.93 -0.504526 4.13231 0
M  V30 10975 H 1079.46 1.1623 3.80441 0
M  V30 10976 H 1076.2 3.68774 5.41928 0
M  V30 10977 H 1075.72 1.99182 5.65762 0
M  V30 10978 H 1077.4 2.49871 5.96803 0
M  V30 10979 N 1077.53 -1.43282 0.656365 0
M  V30 10980 C 1078.81 -1.9534 0.100816 0
M  V30 10981 C 1079.19 -1.59755 -1.37992 0
M  V30 10982 O 1078.54 -0.884264 -2.10697 0
M  V30 10983 C 1078.75 -3.47237 0.35038 0
M  V30 10984 C 1080.1 -4.23822 0.257001 0
M  V30 10985 O 1081.12 -3.55073 0.283111 0
M  V30 10986 O 1079.98 -5.46192 0.183397 0
M  V30 10987 H 1077.07 -0.826963 -0.00780287 0
M  V30 10988 H 1079.62 -1.53205 0.72982 0
M  V30 10989 H 1078.39 -3.66276 1.37685 0
M  V30 10990 H 1078.02 -3.96378 -0.311539 0
M  V30 10991 N 1079.01 -0.398486 -1.52479 0
M  V30 10992 C 1079.95 0.467426 -2.24383 0
M  V30 10993 C 1080.96 1.01908 -1.26959 0
M  V30 10994 O 1082.15 0.919843 -1.52974 0
M  V30 10995 C 1079.25 1.66146 -2.95379 0
M  V30 10996 C 1078.42 1.23557 -4.19586 0
M  V30 10997 C 1077.48 2.29532 -4.73499 0
M  V30 10998 O 1076.51 1.90561 -5.36354 0
M  V30 10999 N 1077.71 3.61564 -4.5415 0
M  V30 11000 H 1080.47 -0.148653 -2.99331 0
M  V30 11001 H 1078.03 -0.225313 -1.60325 0
M  V30 11002 H 1080.03 2.36585 -3.28344 0
M  V30 11003 H 1078.6 2.18369 -2.23682 0
M  V30 11004 H 1077.82 0.359715 -3.92555 0
M  V30 11005 H 1079.1 0.927812 -5.00269 0
M  V30 11006 H 1078.5 3.95983 -4.03998 0
M  V30 11007 H 1077.06 4.2801 -4.9158 0
M  V30 11008 N 1080.49 1.57075 -0.12858 0
M  V30 11009 C 1081.74 1.96599 0.52157 0
M  V30 11010 C 1082.09 1.01134 1.63675 0
M  V30 11011 O 1081.39 0.043056 1.91552 0
M  V30 11012 C 1081.58 3.40329 1.09138 0
M  V30 11013 C 1081.41 4.49688 0.0329296 0
M  V30 11014 C 1080.18 5.03697 -0.402184 0
M  V30 11015 C 1082.38 5.08778 -0.75166 0
M  V30 11016 N 1080.36 5.96642 -1.4454 0
M  V30 11017 C 1081.73 5.97756 -1.64583 0
M  V30 11018 C 1083.78 4.91407 -0.801489 0
M  V30 11019 C 1082.49 6.71225 -2.58552 0
M  V30 11020 C 1084.51 5.65564 -1.72892 0
M  V30 11021 C 1083.88 6.54236 -2.61065 0
M  V30 11022 H 1079.97 0.765414 0.160202 0
M  V30 11023 H 1082.56 1.93465 -0.218919 0
M  V30 11024 H 1080.73 3.44091 1.80155 0
M  V30 11025 H 1082.46 3.66955 1.70663 0
M  V30 11026 H 1079.22 4.73599 -0.00794396 0
M  V30 11027 H 1079.64 6.47819 -1.96622 0
M  V30 11028 H 1084.28 4.22588 -0.133909 0
M  V30 11029 H 1082 7.39285 -3.26319 0
M  V30 11030 H 1085.59 5.54125 -1.77304 0
M  V30 11031 H 1084.47 7.10612 -3.31662 0
M  V30 11032 N 1081.97 -0.145205 1.5693 0
M  V30 11033 C 1083.38 -0.705089 1.72874 0
M  V30 11034 C 1083.73 -1.81577 0.743261 0
M  V30 11035 O 1082.86 -2.16214 -0.0897153 0
M  V30 11036 C 1083.45 -1.28578 3.13454 0
M  V30 11037 C 1082.01 -1.79221 3.30994 0
M  V30 11038 C 1081.16 -0.681392 2.68798 0
M  V30 11039 H 1084.11 0.0804798 1.58496 0
M  V30 11040 H 1084.13 -2.15558 3.13552 0
M  V30 11041 H 1083.64 -0.477186 3.85155 0
M  V30 11042 H 1081.74 -2.62642 2.64292 0
M  V30 11043 H 1081.86 -1.91969 4.38959 0
M  V30 11044 H 1080.22 -1.10847 2.29314 0
M  V30 11045 H 1081 0.115786 3.43105 0
M  V30 11046 N 1083.45 -1.52049 -0.414609 0
M  V30 11047 C 1084.38 -1.77956 -1.51175 0
M  V30 11048 C 1085.36 -0.630282 -1.57992 0
M  V30 11049 O 1086.54 -0.875324 -1.73354 0
M  V30 11050 C 1083.67 -1.92527 -2.89051 0
M  V30 11051 C 1082.63 -3.08096 -2.97087 0
M  V30 11052 C 1081.95 -3.07882 -4.37164 0
M  V30 11053 C 1083.25 -4.47656 -2.69075 0
M  V30 11054 H 1084.95 -2.69827 -1.29746 0
M  V30 11055 H 1082.49 -1.29839 -0.62273 0
M  V30 11056 H 1084.45 -2.09234 -3.65786 0
M  V30 11057 H 1083.17 -0.973235 -3.11762 0
M  V30 11058 H 1081.83 -2.91131 -2.22797 0
M  V30 11059 H 1081.48 -2.10411 -4.56877 0
M  V30 11060 H 1081.18 -3.85501 -4.43467 0
M  V30 11061 H 1082.7 -3.26712 -5.15841 0
M  V30 11062 H 1084.12 -4.64855 -3.35534 0
M  V30 11063 H 1082.51 -5.27151 -2.8676 0
M  V30 11064 H 1083.58 -4.56129 -1.64544 0
M  V30 11065 N 1084.93 0.6715 -1.42579 0
M  V30 11066 C 1086.34 1.2522 -1.38481 0
M  V30 11067 C 1086.69 1.96038 -0.079719 0
M  V30 11068 O 1085.81 2.00203 0.821441 0
M  V30 11069 C 1086.41 2.27736 -2.50842 0
M  V30 11070 C 1084.97 2.81325 -2.50067 0
M  V30 11071 C 1084.11 1.55694 -2.29466 0
M  V30 11072 H 1087.06 0.464673 -1.51745 0
M  V30 11073 H 1087.09 3.09539 -2.21283 0
M  V30 11074 H 1086.6 1.76164 -3.45815 0
M  V30 11075 H 1084.7 3.37008 -1.58922 0
M  V30 11076 H 1084.81 3.30116 -3.47218 0
M  V30 11077 H 1083.18 1.82383 -1.77788 0
M  V30 11078 H 1083.96 1.06084 -3.26498 0
M  V30 11079 N 1086.4 1.28806 0.908124 0
M  V30 11080 C 1087.31 1.15079 2.04436 0
M  V30 11081 C 1088.33 0.076012 1.73834 0
M  V30 11082 O 1089.51 0.286421 1.99353 0
M  V30 11083 C 1086.57 0.819733 3.3687 0
M  V30 11084 C 1085.63 1.97746 3.81045 0
M  V30 11085 C 1084.86 1.66211 5.07158 0
M  V30 11086 O 1085.09 0.579092 5.67453 0
M  V30 11087 O 1084.02 2.5075 5.47182 0
M  V30 11088 H 1087.85 2.10477 2.18937 0
M  V30 11089 H 1085.43 1.08177 1.03044 0
M  V30 11090 H 1087.31 0.649304 4.16368 0
M  V30 11091 H 1085.99 -0.10454 3.23531 0
M  V30 11092 H 1084.9 2.20308 3.02349 0
M  V30 11093 H 1086.23 2.88264 3.98955 0
M  V30 11094 N 1087.88 -1.11734 1.11145 0
M  V30 11095 C 1089.13 -1.83043 0.856717 0
M  V30 11096 C 1089.45 -1.84901 -0.619407 0
M  V30 11097 O 1088.72 -1.31738 -1.44989 0
M  V30 11098 H 1087.3 -0.677823 0.31395 0
M  V30 11099 H 1089.96 -1.35262 1.40322 0
M  V30 11100 H 1089.06 -2.87005 1.22616 0
M  V30 11101 N 1089.36 -0.901303 -1.29284 0
M  V30 11102 C 1090.31 -0.378666 -2.27672 0
M  V30 11103 C 1091.28 0.540102 -1.57074 0
M  V30 11104 O 1092.46 0.464997 -1.85047 0
M  V30 11105 C 1089.6 0.38635 -3.42931 0
M  V30 11106 C 1088.71 -0.563496 -4.28309 0
M  V30 11107 C 1087.85 0.218731 -5.30749 0
M  V30 11108 C 1086.89 -0.725536 -6.07785 0
M  V30 11109 N 1086.03 0.0223854 -7.02096 0
M  V30 11110 H 1090.87 -1.22277 -2.71758 0
M  V30 11111 H 1088.4 -0.614302 -1.33659 0
M  V30 11112 H 1090.36 0.845967 -4.08533 0
M  V30 11113 H 1088.99 1.1949 -2.9987 0
M  V30 11114 H 1088.04 -1.14163 -3.62865 0
M  V30 11115 H 1089.35 -1.28623 -4.81931 0
M  V30 11116 H 1088.51 0.739473 -6.02177 0
M  V30 11117 H 1087.25 0.97459 -4.77863 0
M  V30 11118 H 1086.25 -1.25776 -5.3522 0
M  V30 11119 H 1087.48 -1.48075 -6.6276 0
M  V30 11120 H 1085.42 0.760482 -6.51577 0
M  V30 11121 H 1085.34 -0.640408 -7.53283 0
M  V30 11122 H 1086.61 0.523339 -7.77741 0
M  V30 11123 N 1090.84 1.42931 -0.663954 0
M  V30 11124 C 1091.77 2.33499 0.00731327 0
M  V30 11125 C 1092.75 1.50074 0.800733 0
M  V30 11126 O 1093.93 1.78708 0.760062 0
M  V30 11127 C 1091.06 3.33569 0.966897 0
M  V30 11128 C 1090.02 4.27064 0.282839 0
M  V30 11129 C 1089.34 5.17257 1.35461 0
M  V30 11130 C 1090.64 5.1564 -0.831438 0
M  V30 11131 H 1092.34 2.89879 -0.749044 0
M  V30 11132 H 1089.88 1.39385 -0.361656 0
M  V30 11133 H 1091.84 3.95833 1.44549 0
M  V30 11134 H 1090.56 2.75469 1.75455 0
M  V30 11135 H 1089.22 3.6618 -0.175417 0
M  V30 11136 H 1088.87 4.5549 2.13397 0
M  V30 11137 H 1088.57 5.80634 0.902098 0
M  V30 11138 H 1090.09 5.82395 1.83436 0
M  V30 11139 H 1091.51 5.71651 -0.434534 0
M  V30 11140 H 1089.9 5.87794 -1.20908 0
M  V30 11141 H 1090.97 4.54687 -1.68487 0
M  V30 11142 N 1092.32 0.406567 1.52266 0
M  V30 11143 C 1093.56 -0.170305 2.02084 0
M  V30 11144 C 1093.89 -1.45008 1.29176 0
M  V30 11145 O 1093.17 -1.90399 0.39731 0
M  V30 11146 C 1093.45 -0.420627 3.57635 0
M  V30 11147 C 1093.31 0.87564 4.41194 0
M  V30 11148 C 1094.62 -1.20387 4.23314 0
M  V30 11149 H 1091.74 -0.0604219 0.734519 0
M  V30 11150 H 1094.39 0.539529 1.82179 0
M  V30 11151 H 1092.54 -1.0253 3.74726 0
M  V30 11152 H 1094.21 1.51192 4.35819 0
M  V30 11153 H 1092.45 1.48718 4.07511 0
M  V30 11154 H 1093.12 0.654916 5.48101 0
M  V30 11155 H 1095.6 -0.691972 4.10306 0
M  V30 11156 H 1094.47 -1.34776 5.32096 0
M  V30 11157 H 1094.73 -2.2238 3.82099 0
M  V30 11158 N 1093.79 -1.57004 0.136909 0
M  V30 11159 C 1094.76 -2.15066 -0.792419 0
M  V30 11160 C 1095.76 -1.08991 -1.18226 0
M  V30 11161 O 1096.95 -1.34681 -1.10484 0
M  V30 11162 C 1094.08 -2.70554 -2.07397 0
M  V30 11163 H 1095.27 -2.98519 -0.28752 0
M  V30 11164 H 1092.83 -1.55895 -0.112469 0
M  V30 11165 H 1093.56 -1.90739 -2.62277 0
M  V30 11166 H 1093.35 -3.48149 -1.80374 0
M  V30 11167 H 1094.84 -3.15322 -2.73792 0
M  V30 11168 N 1095.27 0.136881 -1.57004 0
M  V30 11169 C 1096.2 1.17026 -2.02057 0
M  V30 11170 C 1097.18 1.44223 -0.901866 0
M  V30 11171 O 1098.37 1.54971 -1.17037 0
M  V30 11172 C 1095.5 2.50095 -2.40977 0
M  V30 11173 C 1094.45 2.37398 -3.56127 0
M  V30 11174 C 1093.78 3.75268 -3.80891 0
M  V30 11175 C 1095.08 1.84952 -4.88457 0
M  V30 11176 H 1096.77 0.795601 -2.88636 0
M  V30 11177 H 1094.32 0.381266 -1.38861 0
M  V30 11178 H 1096.27 3.22621 -2.71097 0
M  V30 11179 H 1095 2.89416 -1.51348 0
M  V30 11180 H 1093.65 1.67322 -3.26188 0
M  V30 11181 H 1093.3 4.12043 -2.88496 0
M  V30 11182 H 1093 3.67631 -4.5839 0
M  V30 11183 H 1094.53 4.49327 -4.13446 0
M  V30 11184 H 1095.94 2.4728 -5.17229 0
M  V30 11185 H 1094.34 1.88181 -5.69832 0
M  V30 11186 H 1095.41 0.805848 -4.78157 0
M  V30 11187 N 1096.75 1.52266 0.40654 0
M  V30 11188 C 1097.98 1.70304 1.17491 0
M  V30 11189 C 1098.39 0.413656 1.84213 0
M  V30 11190 O 1097.75 -0.610524 1.71985 0
M  V30 11191 C 1097.8 2.84045 2.23609 0
M  V30 11192 O 1097.52 4.0799 1.5961 0
M  V30 11193 C 1099.02 3.13614 3.13306 0
M  V30 11194 H 1096.24 0.570669 0.352955 0
M  V30 11195 H 1098.79 1.98836 0.477967 0
M  V30 11196 H 1096.94 2.58025 2.88967 0
M  V30 11197 H 1097.36 4.7139 2.29983 0
M  V30 11198 H 1098.83 3.96707 3.83833 0
M  V30 11199 H 1099.31 2.27272 3.75824 0
M  V30 11200 H 1099.91 3.41409 2.53614 0
M  V30 11201 N 1098.23 -0.663929 1.42933 0
M  V30 11202 C 1099.16 -1.78946 1.43217 0
M  V30 11203 C 1100.17 -1.59426 0.329727 0
M  V30 11204 O 1101.36 -1.68344 0.5935 0
M  V30 11205 C 1098.46 -3.16217 1.21902 0
M  V30 11206 C 1097.64 -3.6249 2.44785 0
M  V30 11207 C 1096.69 -4.78529 2.18853 0
M  V30 11208 O 1095.72 -4.88516 2.92131 0
M  V30 11209 N 1096.92 -5.67994 1.19845 0
M  V30 11210 H 1099.69 -1.79184 2.40236 0
M  V30 11211 H 1097.25 -0.847404 1.37952 0
M  V30 11212 H 1099.24 -3.91517 1.02454 0
M  V30 11213 H 1097.81 -3.10814 0.333676 0
M  V30 11214 H 1097.03 -2.77751 2.79729 0
M  V30 11215 H 1098.32 -3.90151 3.26588 0
M  V30 11216 H 1097.72 -5.62588 0.59259 0
M  V30 11217 H 1096.27 -6.4306 1.06382 0
M  V30 11218 N 1099.71 -1.29285 -0.901281 0
M  V30 11219 C 1100.64 -1.16832 -2.0217 0
M  V30 11220 C 1101.62 -0.0629265 -1.69984 0
M  V30 11221 O 1102.8 -0.242123 -1.92685 0
M  V30 11222 C 1099.93 -0.842406 -3.36929 0
M  V30 11223 C 1098.89 -1.90394 -3.8332 0
M  V30 11224 C 1098.21 -1.43138 -5.15185 0
M  V30 11225 C 1099.51 -3.31254 -4.03817 0
M  V30 11226 H 1101.21 -2.10562 -2.12847 0
M  V30 11227 H 1098.75 -1.01375 -1.0227 0
M  V30 11228 H 1100.71 -0.741999 -4.14816 0
M  V30 11229 H 1099.43 0.130598 -3.26339 0
M  V30 11230 H 1098.09 -1.99371 -3.07647 0
M  V30 11231 H 1097.74 -0.447091 -5.01009 0
M  V30 11232 H 1097.44 -2.14129 -5.47195 0
M  V30 11233 H 1098.96 -1.34444 -5.95615 0
M  V30 11234 H 1100.37 -3.25129 -4.72191 0
M  V30 11235 H 1098.77 -4.00189 -4.47178 0
M  V30 11236 H 1099.84 -3.74349 -3.08206 0
M  V30 11237 N 1101.18 1.11143 -1.11736 0
M  V30 11238 C 1102.43 1.83219 -0.869413 0
M  V30 11239 C 1102.76 1.84588 0.603402 0
M  V30 11240 O 1102.04 1.30119 1.44566 0
M  V30 11241 C 1102.32 3.30247 -1.43559 0
M  V30 11242 C 1102.17 3.37253 -2.97624 0
M  V30 11243 C 1103.49 4.26412 -1.08907 0
M  V30 11244 H 1100.61 0.665205 -0.317286 0
M  V30 11245 H 1103.25 1.30307 -1.38275 0
M  V30 11246 H 1101.4 3.75437 -0.998978 0
M  V30 11247 H 1103.08 3.00599 -3.49911 0
M  V30 11248 H 1101.32 2.77378 -3.33532 0
M  V30 11249 H 1101.99 4.40752 -3.32328 0
M  V30 11250 H 1104.47 3.89418 -1.46604 0
M  V30 11251 H 1103.34 5.27666 -1.51195 0
M  V30 11252 H 1103.6 4.421 -0.000259009 0
M  V30 11253 N 1102.66 0.908147 1.28804 0
M  V30 11254 C 1103.57 0.397167 2.31214 0
M  V30 11255 C 1104.59 -0.512352 1.66286 0
M  V30 11256 O 1105.76 -0.399893 1.9739 0
M  V30 11257 C 1102.83 -0.359522 3.44831 0
M  V30 11258 C 1101.89 0.582539 4.25329 0
M  V30 11259 C 1101.12 -0.138133 5.33521 0
M  V30 11260 O 1101.35 -1.36076 5.53931 0
M  V30 11261 O 1100.28 0.523682 5.99618 0
M  V30 11262 H 1104.11 1.247 2.76918 0
M  V30 11263 H 1101.69 0.672766 1.33395 0
M  V30 11264 H 1103.57 -0.787098 4.13984 0
M  V30 11265 H 1102.25 -1.18528 3.01219 0
M  V30 11266 H 1101.16 1.0594 3.58786 0
M  V30 11267 H 1102.49 1.37495 4.72605 0
M  V30 11268 N 1104.14 -1.42577 0.671525 0
M  V30 11269 C 1105.09 -2.30798 -0.00883676 0
M  V30 11270 C 1106.06 -1.4578 -0.796076 0
M  V30 11271 O 1107.24 -1.74617 -0.768987 0
M  V30 11272 C 1104.38 -3.31581 -0.956452 0
M  V30 11273 C 1103.5 -4.31691 -0.163381 0
M  V30 11274 C 1102.63 -5.19549 -1.10645 0
M  V30 11275 C 1101.67 -6.1134 -0.304876 0
M  V30 11276 N 1100.81 -6.91761 -1.20048 0
M  V30 11277 H 1105.65 -2.88426 0.749301 0
M  V30 11278 H 1103.18 -1.42074 0.381251 0
M  V30 11279 H 1105.14 -3.88539 -1.51966 0
M  V30 11280 H 1103.77 -2.75561 -1.68126 0
M  V30 11281 H 1102.82 -3.76879 0.516396 0
M  V30 11282 H 1104.14 -4.96683 0.459099 0
M  V30 11283 H 1103.29 -5.81223 -1.73969 0
M  V30 11284 H 1102.03 -4.54726 -1.76282 0
M  V30 11285 H 1101.03 -5.48738 0.341597 0
M  V30 11286 H 1102.26 -6.78211 0.347352 0
M  V30 11287 H 1100.2 -6.2957 -1.84331 0
M  V30 11288 H 1100.12 -7.53345 -0.633003 0
M  V30 11289 H 1101.39 -7.57924 -1.82129 0
M  V30 11290 N 1105.62 -0.414636 -1.52048 0
M  V30 11291 C 1106.53 0.414861 -2.30903 0
M  V30 11292 C 1107.54 1.04855 -1.38858 0
M  V30 11293 O 1108.72 1.04886 -1.71933 0
M  V30 11294 C 1105.79 1.51356 -3.11917 0
M  V30 11295 C 1104.85 0.902359 -4.19709 0
M  V30 11296 C 1104.08 1.9487 -4.96852 0
M  V30 11297 O 1104.3 3.16766 -4.74358 0
M  V30 11298 O 1103.24 1.55186 -5.8155 0
M  V30 11299 H 1107.06 -0.228251 -3.02841 0
M  V30 11300 H 1104.65 -0.177704 -1.48339 0
M  V30 11301 H 1106.53 2.15127 -3.62351 0
M  V30 11302 H 1105.2 2.14117 -2.42767 0
M  V30 11303 H 1104.11 0.22721 -3.73409 0
M  V30 11304 H 1105.44 0.318587 -4.91168 0
M  V30 11305 N 1107.1 1.56929 -0.145233 0
M  V30 11306 C 1108.03 2.19685 0.791263 0
M  V30 11307 C 1109.01 1.14455 1.25833 0
M  V30 11308 O 1110.19 1.42791 1.31622 0
M  V30 11309 C 1107.32 2.81705 2.03124 0
M  V30 11310 C 1106.28 3.92746 1.70101 0
M  V30 11311 C 1105.6 4.41694 3.01347 0
M  V30 11312 C 1106.9 5.13606 0.949025 0
M  V30 11313 H 1108.6 2.98196 0.26825 0
M  V30 11314 H 1106.14 1.43434 0.127584 0
M  V30 11315 H 1108.1 3.24273 2.69119 0
M  V30 11316 H 1106.82 2.00523 2.57795 0
M  V30 11317 H 1105.48 3.50794 1.06486 0
M  V30 11318 H 1105.13 3.57336 3.54006 0
M  V30 11319 H 1104.83 5.1659 2.80016 0
M  V30 11320 H 1106.35 4.86931 3.68416 0
M  V30 11321 H 1107.76 5.53029 1.51102 0
M  V30 11322 H 1106.16 5.94252 0.835711 0
M  V30 11323 H 1107.23 4.84863 -0.0595631 0
M  V30 11324 N 1108.58 -0.128553 1.57075 0
M  V30 11325 C 1109.51 -1.18362 1.96273 0
M  V30 11326 C 1110.52 -1.3818 0.860818 0
M  V30 11327 O 1111.71 -1.37424 1.13916 0
M  V30 11328 C 1108.81 -2.54533 2.23755 0
M  V30 11329 C 1107.98 -2.55446 3.55058 0
M  V30 11330 C 1107.04 -3.73291 3.70864 0
M  V30 11331 O 1106.07 -3.57315 4.43074 0
M  V30 11332 N 1107.27 -4.91481 3.08912 0
M  V30 11333 H 1110.03 -0.850276 2.87385 0
M  V30 11334 H 1107.6 -0.317931 1.58748 0
M  V30 11335 H 1109.59 -3.31912 2.31553 0
M  V30 11336 H 1108.16 -2.80087 1.38816 0
M  V30 11337 H 1107.38 -1.6385 3.58534 0
M  V30 11338 H 1108.67 -2.53104 4.4138 0
M  V30 11339 H 1108.06 -5.07364 2.50196 0
M  V30 11340 H 1106.62 -5.6657 3.22245 0
M  V30 11341 N 1110.05 -1.5248 -0.398459 0
M  V30 11342 C 1110.98 -1.79549 -1.49279 0
M  V30 11343 C 1111.96 -0.647004 -1.57315 0
M  V30 11344 O 1113.15 -0.893661 -1.72416 0
M  V30 11345 C 1110.28 -1.95582 -2.86993 0
M  V30 11346 C 1109.23 -3.1123 -2.93803 0
M  V30 11347 C 1108.56 -3.12501 -4.33874 0
M  V30 11348 C 1109.86 -4.50485 -2.64312 0
M  V30 11349 H 1111.55 -2.71187 -1.26877 0
M  V30 11350 H 1109.1 -1.30492 -0.608924 0
M  V30 11351 H 1111.05 -2.13102 -3.63546 0
M  V30 11352 H 1109.78 -1.00625 -3.10712 0
M  V30 11353 H 1108.44 -2.93477 -2.19697 0
M  V30 11354 H 1108.08 -2.15245 -4.54619 0
M  V30 11355 H 1107.78 -3.90183 -4.39353 0
M  V30 11356 H 1109.31 -3.32164 -5.12347 0
M  V30 11357 H 1110.72 -4.68387 -3.30585 0
M  V30 11358 H 1109.12 -5.30163 -2.81153 0
M  V30 11359 H 1110.19 -4.57848 -1.59696 0
M  V30 11360 N 1111.53 0.65634 -1.43283 0
M  V30 11361 C 1112.78 1.41347 -1.44449 0
M  V30 11362 C 1113.1 1.94879 -0.0687217 0
M  V30 11363 O 1112.37 1.74235 0.895492 0
M  V30 11364 H 1110.95 0.524578 -0.531815 0
M  V30 11365 H 1113.61 0.774292 -1.7886 0
M  V30 11366 H 1112.71 2.25737 -2.15521 0
M  V30 11367 N 1113.01 1.29761 0.894412 0
M  V30 11368 C 1113.96 1.11962 1.98617 0
M  V30 11369 C 1114.94 0.0374952 1.60856 0
M  V30 11370 O 1116.14 0.259789 1.75083 0
M  V30 11371 C 1113.26 0.803708 3.3376 0
M  V30 11372 C 1112.35 1.92563 3.77863 0
M  V30 11373 N 1112.74 3.16983 3.94152 0
M  V30 11374 C 1111.04 1.81986 4.07182 0
M  V30 11375 C 1111.74 3.90212 4.31404 0
M  V30 11376 N 1110.72 3.18194 4.40742 0
M  V30 11377 H 1114.52 2.06339 2.09287 0
M  V30 11378 H 1112.03 1.20963 1.08359 0
M  V30 11379 H 1114.03 0.657223 4.11687 0
M  V30 11380 H 1112.69 -0.132098 3.24431 0
M  V30 11381 H 1113.7 3.52378 3.79539 0
M  V30 11382 H 1110.38 0.957112 4.06381 0
M  V30 11383 H 1111.77 4.97312 4.51808 0
M  V30 11384 N 1114.49 -1.10549 1.12324 0
M  V30 11385 C 1115.74 -1.81851 0.872531 0
M  V30 11386 C 1116.05 -1.86058 -0.603468 0
M  V30 11387 O 1117.26 -2.53553 -0.970736 0
M  V30 11388 C 1115.71 -3.26631 1.51131 0
M  V30 11389 C 1115.32 -3.30725 3.02201 0
M  V30 11390 C 1117.06 -4.02768 1.34082 0
M  V30 11391 C 1114.97 -4.69957 3.59018 0
M  V30 11392 H 1113.9 -0.681422 0.322769 0
M  V30 11393 H 1116.55 -1.24332 1.34959 0
M  V30 11394 H 1114.93 -3.8414 0.961913 0
M  V30 11395 H 1116.11 -2.83046 3.63623 0
M  V30 11396 H 1114.42 -2.68072 3.18632 0
M  V30 11397 H 1117.02 -5.05612 1.73955 0
M  V30 11398 H 1117.36 -4.15328 0.284369 0
M  V30 11399 H 1117.9 -3.51671 1.85937 0
M  V30 11400 H 1114.63 -4.62597 4.64418 0
M  V30 11401 H 1114.15 -5.18008 3.02371 0
M  V30 11402 H 1115.83 -5.38925 3.58007 0
M  V30 11403 N 1115.97 -0.914965 -1.28321 0
M  V30 11404 C 1116.88 -0.409424 -2.31 0
M  V30 11405 C 1117.89 0.503526 -1.66555 0
M  V30 11406 O 1119.07 0.38942 -1.97599 0
M  V30 11407 C 1116.13 0.34123 -3.45017 0
M  V30 11408 C 1115.19 -0.605087 -4.25014 0
M  V30 11409 C 1114.43 0.109837 -5.33587 0
M  V30 11410 O 1114.65 1.33136 -5.54645 0
M  V30 11411 O 1113.58 -0.555474 -5.99331 0
M  V30 11412 H 1117.41 -1.26167 -2.76253 0
M  V30 11413 H 1114.99 -0.679831 -1.33036 0
M  V30 11414 H 1116.88 0.765132 -4.14396 0
M  V30 11415 H 1115.55 1.16929 -3.01843 0
M  V30 11416 H 1114.46 -1.07841 -3.58219 0
M  V30 11417 H 1115.79 -1.39999 -4.7187 0
M  V30 11418 N 1117.44 1.42219 -0.679077 0
M  V30 11419 C 1118.85 1.8459 -0.279877 0
M  V30 11420 C 1119.21 1.56839 1.17881 0
M  V30 11421 O 1118.33 1.03039 1.90294 0
M  V30 11422 C 1118.93 3.35072 -0.501185 0
M  V30 11423 C 1117.48 3.76076 -0.156065 0
M  V30 11424 C 1116.63 2.65763 -0.791549 0
M  V30 11425 H 1119.58 1.32005 -0.880932 0
M  V30 11426 H 1119.6 3.79708 0.245349 0
M  V30 11427 H 1119.12 3.55239 -1.56291 0
M  V30 11428 H 1117.22 3.61516 0.90205 0
M  V30 11429 H 1117.33 4.75334 -0.599572 0
M  V30 11430 H 1115.69 2.53726 -0.222514 0
M  V30 11431 H 1116.48 2.88751 -1.85682 0
M  V30 11432 N 1118.92 0.422693 1.51826 0
M  V30 11433 C 1120.15 -0.15017 2.06856 0
M  V30 11434 C 1120.57 -1.36946 1.28948 0
M  V30 11435 O 1119.93 -1.78393 0.32338 0
M  V30 11436 C 1119.98 -0.465563 3.57582 0
M  V30 11437 O 1119.08 -1.55442 3.81984 0
M  V30 11438 H 1118.42 -0.00827931 0.663948 0
M  V30 11439 H 1120.95 0.599806 1.95611 0
M  V30 11440 H 1120.96 -0.720279 4.01592 0
M  V30 11441 H 1119.64 0.425679 4.13716 0
M  V30 11442 H 1118.21 -1.29081 3.49846 0
M  V30 11443 N 1120.4 -1.5685 0.153553 0
M  V30 11444 C 1121.33 -2.20101 -0.779601 0
M  V30 11445 C 1122.31 -1.15121 -1.25225 0
M  V30 11446 O 1123.5 -1.43487 -1.30862 0
M  V30 11447 C 1120.63 -2.82778 -2.01628 0
M  V30 11448 C 1119.58 -3.93643 -1.68015 0
M  V30 11449 C 1118.91 -4.43286 -2.99001 0
M  V30 11450 C 1120.21 -5.14102 -0.921774 0
M  V30 11451 H 1121.9 -2.98334 -0.252432 0
M  V30 11452 H 1119.45 -1.43499 -0.119975 0
M  V30 11453 H 1121.4 -3.25696 -2.67395 0
M  V30 11454 H 1120.12 -2.01887 -2.56728 0
M  V30 11455 H 1118.78 -3.51354 -1.04624 0
M  V30 11456 H 1118.43 -3.59208 -3.52106 0
M  V30 11457 H 1118.13 -5.18068 -2.77272 0
M  V30 11458 H 1119.65 -4.88878 -3.65828 0
M  V30 11459 H 1121.07 -5.53823 -1.48167 0
M  V30 11460 H 1119.46 -5.94687 -0.804185 0
M  V30 11461 H 1120.53 -4.84825 0.0852757 0
M  V30 11462 N 1121.88 0.120221 -1.57141 0
M  V30 11463 C 1123.1 0.84637 -1.89344 0
M  V30 11464 C 1123.53 1.72702 -0.745365 0
M  V30 11465 O 1122.89 1.7873 0.304155 0
M  V30 11466 C 1122.93 1.65671 -3.20289 0
M  V30 11467 O 1122.04 2.76353 -3.06109 0
M  V30 11468 H 1121.38 0.234132 -0.621352 0
M  V30 11469 H 1123.91 0.102986 -2.04341 0
M  V30 11470 H 1123.92 2.04621 -3.52979 0
M  V30 11471 H 1122.59 1.01023 -4.03444 0
M  V30 11472 H 1121.17 2.40615 -2.84884 0
M  V30 11473 N 1123.36 1.52689 0.390367 0
M  V30 11474 C 1124.6 1.69354 1.1445 0
M  V30 11475 C 1124.96 0.423677 1.87267 0
M  V30 11476 O 1126.16 0.466669 2.64718 0
M  V30 11477 C 1124.43 2.89356 2.0978 0
M  V30 11478 S 1125.99 3.26602 2.93047 0
M  V30 11479 H 1122.81 0.596162 0.387442 0
M  V30 11480 H 1125.41 1.90732 0.429119 0
M  V30 11481 H 1124.12 3.80003 1.55004 0
M  V30 11482 H 1123.65 2.70307 2.85828 0
M  V30 11483 H 1125.66 2.76683 4.11899 0
M  V30 11484 N 1124.83 -0.648732 1.43629 0
M  V30 11485 C 1126.08 -1.40898 1.46695 0
M  V30 11486 C 1126.44 -1.92183 0.0914565 0
M  V30 11487 O 1125.73 -1.69642 -0.890623 0
M  V30 11488 C 1125.92 -2.60394 2.44806 0
M  V30 11489 C 1125.75 -2.20805 3.91759 0
M  V30 11490 C 1124.52 -2.08918 4.60088 0
M  V30 11491 C 1126.72 -1.80811 4.81469 0
M  V30 11492 N 1124.7 -1.62707 5.91946 0
M  V30 11493 C 1126.07 -1.45715 6.02633 0
M  V30 11494 C 1128.13 -1.68034 4.68689 0
M  V30 11495 C 1126.83 -0.991224 7.12438 0
M  V30 11496 C 1128.86 -1.22846 5.78501 0
M  V30 11497 C 1128.22 -0.886902 6.98794 0
M  V30 11498 H 1124.32 -0.511063 0.591894 0
M  V30 11499 H 1126.9 -0.746064 1.79839 0
M  V30 11500 H 1125.07 -3.24338 2.13681 0
M  V30 11501 H 1126.8 -3.27115 2.38281 0
M  V30 11502 H 1123.56 -2.28818 4.14656 0
M  V30 11503 H 1123.98 -1.41951 6.61951 0
M  V30 11504 H 1128.63 -1.93078 3.76139 0
M  V30 11505 H 1126.34 -0.728271 8.04812 0
M  V30 11506 H 1129.93 -1.13443 5.70633 0
M  V30 11507 H 1128.81 -0.542577 7.82321 0
M  V30 11508 N 1126.31 -1.30234 -0.887518 0
M  V30 11509 C 1127.26 -1.16302 -2.01436 0
M  V30 11510 C 1128.25 -0.0755422 -1.69231 0
M  V30 11511 O 1129.46 -0.236213 -1.78443 0
M  V30 11512 H 1125.84 -0.35961 -0.660443 0
M  V30 11513 H 1127.81 -2.11677 -2.10322 0
M  V30 11514 C 1126.56 -0.869009 -3.36665 0
M  V30 11515 H 1125.88 -1.69787 -3.61956 0
M  V30 11516 H 1127.32 -0.811621 -4.16159 0
M  V30 11517 C 1125.78 0.428021 -3.3417 0
M  V30 11518 O 1126.31 1.45033 -3.74604 0
M  V30 11519 N 1124.51 0.438264 -2.87276 0
M  V30 11520 H 1124.06 -0.394142 -2.54567 0
M  V30 11521 H 1124.02 1.30604 -2.85989 0
M  V30 11522 N 1127.79 1.09952 -1.12909 0
M  V30 11523 C 1129.02 1.8579 -0.910483 0
M  V30 11524 C 1129.43 1.80898 0.540484 0
M  V30 11525 O 1128.79 1.20126 1.3739 0
M  V30 11526 C 1128.84 3.33987 -1.38329 0
M  V30 11527 O 1128.56 3.38811 -2.77739 0
M  V30 11528 C 1130.06 4.26683 -1.20234 0
M  V30 11529 H 1127.28 0.587026 -0.325025 0
M  V30 11530 H 1129.83 1.38965 -1.5003 0
M  V30 11531 H 1127.98 3.78259 -0.836592 0
M  V30 11532 H 1128.4 4.31204 -2.98603 0
M  V30 11533 H 1129.87 5.28846 -1.58197 0
M  V30 11534 H 1130.35 4.38966 -0.14344 0
M  V30 11535 H 1130.95 3.88221 -1.73679 0
M  V30 11536 N 1129.27 0.921757 1.27833 0
M  V30 11537 C 1130.68 0.604496 1.76643 0
M  V30 11538 C 1131.03 -0.880294 1.75343 0
M  V30 11539 O 1130.16 -1.68875 1.35315 0
M  V30 11540 C 1130.75 1.09055 3.20768 0
M  V30 11541 C 1129.31 0.824066 3.67268 0
M  V30 11542 C 1128.46 1.25269 2.47392 0
M  V30 11543 H 1131.41 1.10217 1.14184 0
M  V30 11544 H 1131.43 0.435558 3.77999 0
M  V30 11545 H 1130.94 2.17122 3.21682 0
M  V30 11546 H 1129.04 -0.243055 3.71806 0
M  V30 11547 H 1129.15 1.43743 4.57028 0
M  V30 11548 H 1127.52 0.671313 2.45694 0
M  V30 11549 H 1128.3 2.34188 2.5102 0
M  V30 11550 N 1130.75 -1.41857 0.686609 0
M  V30 11551 C 1131.99 -2.01666 0.214118 0
M  V30 11552 C 1132.33 -1.5422 -1.18025 0
M  V30 11553 O 1131.6 -0.749482 -1.7948 0
M  V30 11554 C 1131.88 -3.59147 0.261841 0
M  V30 11555 C 1131.74 -4.16742 1.69251 0
M  V30 11556 C 1133.06 -4.38427 -0.383378 0
M  V30 11557 H 1130.17 -0.732724 0.0792785 0
M  V30 11558 H 1132.82 -1.68724 0.873633 0
M  V30 11559 H 1130.97 -3.87342 -0.29971 0
M  V30 11560 H 1132.64 -3.99456 2.30722 0
M  V30 11561 H 1130.88 -3.72124 2.2295 0
M  V30 11562 H 1131.55 -5.25894 1.6775 0
M  V30 11563 H 1134.03 -4.15992 0.0947701 0
M  V30 11564 H 1132.9 -5.4797 -0.319401 0
M  V30 11565 H 1133.17 -4.172 -1.46276 0
M  V30 11566 N 1132.22 -0.430739 -1.51599 0
M  V30 11567 C 1133.47 0.137929 -2.0203 0
M  V30 11568 C 1133.8 1.43287 -1.31526 0
M  V30 11569 O 1133.05 1.9121 -0.416814 0
M  V30 11570 C 1133.35 0.410694 -3.55032 0
M  V30 11571 C 1133.02 -0.797634 -4.43789 0
M  V30 11572 C 1131.68 -1.12902 -4.67768 0
M  V30 11573 C 1134.03 -1.60403 -4.95904 0
M  V30 11574 C 1131.36 -2.2676 -5.41107 0
M  V30 11575 C 1133.71 -2.73354 -5.70491 0
M  V30 11576 C 1132.38 -3.06955 -5.92735 0
M  V30 11577 H 1131.65 0.0504718 -0.739279 0
M  V30 11578 H 1134.29 -0.576585 -1.82614 0
M  V30 11579 H 1132.6 1.20703 -3.72744 0
M  V30 11580 H 1134.3 0.864006 -3.91581 0
M  V30 11581 H 1130.89 -0.529397 -4.25318 0
M  V30 11582 H 1135.07 -1.36122 -4.77268 0
M  V30 11583 H 1130.33 -2.53114 -5.56546 0
M  V30 11584 H 1134.5 -3.36213 -6.09864 0
M  V30 11585 H 1132.13 -3.95293 -6.49344 0
M  V30 11586 N 1133.7 1.56767 -0.161869 0
M  V30 11587 C 1134.95 1.96885 0.486215 0
M  V30 11588 C 1135.28 1.04745 1.6353 0
M  V30 11589 O 1134.56 0.0927156 1.94279 0
M  V30 11590 C 1134.84 3.46559 0.97822 0
M  V30 11591 C 1134.69 4.49477 -0.17039 0
M  V30 11592 C 1136.01 3.99093 1.85506 0
M  V30 11593 H 1133.13 0.715857 0.175265 0
M  V30 11594 H 1135.77 1.88399 -0.246098 0
M  V30 11595 H 1133.92 3.53921 1.60225 0
M  V30 11596 H 1135.59 4.54183 -0.807205 0
M  V30 11597 H 1133.84 4.25838 -0.827322 0
M  V30 11598 H 1134.51 5.51578 0.21583 0
M  V30 11599 H 1136.98 3.94303 1.32908 0
M  V30 11600 H 1135.86 5.04255 2.16837 0
M  V30 11601 H 1136.12 3.4234 2.79742 0
M  V30 11602 N 1135.18 -0.111886 1.57202 0
M  V30 11603 C 1136.43 -0.817022 1.84412 0
M  V30 11604 C 1136.74 -1.80708 0.748608 0
M  V30 11605 O 1137.95 -2.55891 0.907319 0
M  V30 11606 C 1136.4 -1.50376 3.26979 0
M  V30 11607 C 1136.01 -0.554334 4.44557 0
M  V30 11608 C 1137.76 -2.19361 3.63429 0
M  V30 11609 C 1135.66 -1.24471 5.78153 0
M  V30 11610 H 1134.59 -0.308864 0.687836 0
M  V30 11611 H 1137.24 -0.0698109 1.83367 0
M  V30 11612 H 1135.63 -2.29785 3.22514 0
M  V30 11613 H 1136.8 0.207045 4.60335 0
M  V30 11614 H 1135.12 0.0289261 4.1639 0
M  V30 11615 H 1137.71 -2.71716 4.60515 0
M  V30 11616 H 1138.06 -2.97488 2.91215 0
M  V30 11617 H 1138.59 -1.46833 3.69709 0
M  V30 11618 H 1135.33 -0.504584 6.53555 0
M  V30 11619 H 1134.85 -1.97792 5.66249 0
M  V30 11620 H 1136.53 -1.77591 6.2215 0
M  V30 11621 N 1136.66 -1.52894 -0.382264 0
M  V30 11622 C 1138.07 -1.42295 -0.722802 0
M  V30 11623 C 1138.27 -0.548717 -1.93885 0
M  V30 11624 O 1137.33 -0.0247431 -2.52488 0
M  V30 11625 C 1138.64 -2.85246 -0.9516 0
M  V30 11626 C 1140.19 -2.94768 -1.05265 0
M  V30 11627 C 1140.67 -4.38745 -1.31404 0
M  V30 11628 N 1142.16 -4.421 -1.38211 0
M  V30 11629 C 1142.89 -5.50592 -1.60113 0
M  V30 11630 N 1142.39 -6.69158 -1.79442 0
M  V30 11631 N 1144.18 -5.38145 -1.62347 0
M  V30 11632 H 1136.33 -2.0825 0.417816 0
M  V30 11633 H 1138.6 -0.939753 0.124776 0
M  V30 11634 H 1138.3 -3.51459 -0.130088 0
M  V30 11635 H 1138.18 -3.27903 -1.86439 0
M  V30 11636 H 1140.56 -2.28718 -1.86472 0
M  V30 11637 H 1140.64 -2.55529 -0.117619 0
M  V30 11638 H 1140.29 -5.05363 -0.507038 0
M  V30 11639 H 1140.22 -4.75542 -2.26202 0
M  V30 11640 H 1142.71 -3.56644 -1.24954 0
M  V30 11641 H 1143.02 -7.47615 -1.95681 0
M  V30 11642 H 1141.37 -6.72175 -1.76653 0
M  V30 11643 H 1144.56 -4.44485 -1.46803 0
M  V30 11644 H 1144.73 -6.22764 -1.79077 0
M  V30 11645 N 1138.14 0.641106 -1.43971 0
M  V30 11646 C 1139.08 1.75352 -1.50068 0
M  V30 11647 C 1140.05 1.62386 -0.349266 0
M  V30 11648 O 1141.24 1.82455 -0.558118 0
M  V30 11649 C 1138.38 3.13561 -1.4413 0
M  V30 11650 C 1137.49 3.37574 -2.6957 0
M  V30 11651 C 1136.63 4.65698 -2.55535 0
M  V30 11652 C 1135.67 4.82857 -3.76186 0
M  V30 11653 N 1134.8 6.02249 -3.60888 0
M  V30 11654 H 1139.64 1.69477 -2.45116 0
M  V30 11655 H 1137.18 0.826871 -1.2166 0
M  V30 11656 H 1139.14 3.93476 -1.38681 0
M  V30 11657 H 1137.77 3.18476 -0.526563 0
M  V30 11658 H 1136.82 2.5167 -2.85248 0
M  V30 11659 H 1138.13 3.46135 -3.59154 0
M  V30 11660 H 1137.29 5.53759 -2.47862 0
M  V30 11661 H 1136.03 4.59479 -1.63495 0
M  V30 11662 H 1135.03 3.93229 -3.84254 0
M  V30 11663 H 1136.26 4.90898 -4.6925 0
M  V30 11664 H 1134.2 5.97138 -2.71591 0
M  V30 11665 H 1134.12 6.11822 -4.44083 0
M  V30 11666 H 1135.39 6.92898 -3.57088 0
M  V30 11667 N 1139.62 1.30703 0.880598 0
M  V30 11668 C 1140.58 1.17429 1.96832 0
M  V30 11669 C 1141.58 0.104305 1.60461 0
M  V30 11670 O 1142.77 0.352758 1.70591 0
M  V30 11671 C 1139.9 0.800099 3.31378 0
M  V30 11672 H 1141.09 2.14069 2.10034 0
M  V30 11673 H 1138.65 1.14162 1.06755 0
M  V30 11674 H 1139.38 -0.165606 3.23877 0
M  V30 11675 H 1139.17 1.57341 3.59146 0
M  V30 11676 H 1140.66 0.730826 4.11155 0
M  V30 11677 N 1141.09 -1.09351 1.1349 0
M  V30 11678 C 1142.32 -1.85844 0.92069 0
M  V30 11679 C 1142.74 -1.80616 -0.525303 0
M  V30 11680 O 1142.1 -1.1842 -1.37282 0
M  V30 11681 C 1142.15 -3.31716 1.4141 0
M  V30 11682 O 1141.25 -4.08014 0.599838 0
M  V30 11683 H 1140.59 -0.576242 0.32991 0
M  V30 11684 H 1143.12 -1.38084 1.50976 0
M  V30 11685 H 1143.13 -3.82564 1.41805 0
M  V30 11686 H 1141.81 -3.34837 2.46692 0
M  V30 11687 H 1140.39 -3.66944 0.663816 0
M  V30 11688 N 1142.57 -0.928524 -1.27343 0
M  V30 11689 C 1143.82 -0.568267 -1.93946 0
M  V30 11690 C 1144.14 0.893501 -1.73325 0
M  V30 11691 O 1143.41 1.63344 -1.08147 0
M  V30 11692 H 1141.99 -0.207173 -0.717696 0
M  V30 11693 H 1144.65 -1.1811 -1.55036 0
M  V30 11694 H 1143.75 -0.775246 -3.02318 0
M  V30 11695 N 1144.05 1.41491 -0.694123 0
M  V30 11696 C 1145.27 2.06099 -0.23197 0
M  V30 11697 C 1145.7 1.51888 1.10958 0
M  V30 11698 O 1145.06 0.645247 1.69429 0
M  V30 11699 C 1145.11 3.60053 -0.198522 0
M  V30 11700 O 1144.21 4.04021 0.827067 0
M  V30 11701 H 1143.55 0.654193 -0.113699 0
M  V30 11702 H 1146.08 1.81282 -0.948575 0
M  V30 11703 H 1146.09 4.0799 -0.0288904 0
M  V30 11704 H 1144.77 3.98879 -1.17764 0
M  V30 11705 H 1143.34 3.67593 0.626908 0
M  V30 11706 N 1145.53 0.438773 1.51369 0
M  V30 11707 C 1146.76 -0.125665 2.06217 0
M  V30 11708 C 1147.17 -1.36887 1.30609 0
M  V30 11709 O 1146.51 -1.80149 0.359433 0
M  V30 11710 C 1146.57 -0.511846 3.55838 0
M  V30 11711 C 1146.23 0.624755 4.52709 0
M  V30 11712 C 1147.23 1.49731 4.97872 0
M  V30 11713 C 1144.92 0.805895 4.95793 0
M  V30 11714 C 1146.91 2.53569 5.84792 0
M  V30 11715 C 1144.6 1.84755 5.82502 0
M  V30 11716 C 1145.6 2.71083 6.269 0
M  V30 11717 O 1145.28 3.7346 7.11887 0
M  V30 11718 H 1145.02 -0.0107227 0.675915 0
M  V30 11719 H 1147.57 0.617071 1.95912 0
M  V30 11720 H 1145.8 -1.30731 3.63932 0
M  V30 11721 H 1147.49 -1.0076 3.93195 0
M  V30 11722 H 1148.25 1.36891 4.65281 0
M  V30 11723 H 1144.13 0.14352 4.60777 0
M  V30 11724 H 1147.68 3.20984 6.19367 0
M  V30 11725 H 1143.57 1.97614 6.14507 0
M  V30 11726 H 1144.34 3.70058 7.30068 0
M  V30 11727 N 1147.01 -1.56678 0.170181 0
M  V30 11728 C 1148.42 -1.58512 -0.185999 0
M  V30 11729 C 1148.62 -1.18548 -1.62937 0
M  V30 11730 O 1147.68 -0.896554 -2.36047 0
M  V30 11731 C 1148.99 -3.00554 0.0937842 0
M  V30 11732 C 1150.54 -3.12984 0.0319057 0
M  V30 11733 C 1151.01 -4.57115 0.284664 0
M  V30 11734 N 1152.5 -4.62617 0.2324 0
M  V30 11735 C 1153.24 -5.71988 0.40216 0
M  V30 11736 N 1152.74 -6.89921 0.630915 0
M  V30 11737 N 1154.53 -5.61082 0.338144 0
M  V30 11738 H 1146.68 -1.80944 1.11235 0
M  V30 11739 H 1148.94 -0.838586 0.442128 0
M  V30 11740 H 1148.65 -3.34265 1.09362 0
M  V30 11741 H 1148.52 -3.72151 -0.615118 0
M  V30 11742 H 1150.91 -2.791 -0.958502 0
M  V30 11743 H 1150.99 -2.43825 0.773501 0
M  V30 11744 H 1150.63 -4.91707 1.27227 0
M  V30 11745 H 1150.56 -5.2443 -0.477529 0
M  V30 11746 H 1153.06 -3.7785 0.0611933 0
M  V30 11747 H 1153.37 -7.69153 0.749931 0
M  V30 11748 H 1151.71 -6.91787 0.667516 0
M  V30 11749 H 1154.9 -4.67826 0.16003 0
M  V30 11750 H 1155.08 -6.46265 0.473872 0
M  V30 11751 N 1148.48 0.103547 -1.57259 0
M  V30 11752 C 1149.41 1.12714 -2.04494 0
M  V30 11753 C 1150.39 1.42278 -0.932255 0
M  V30 11754 O 1151.58 1.52453 -1.20298 0
M  V30 11755 C 1148.71 2.44927 -2.46228 0
M  V30 11756 C 1147.66 2.2979 -3.61082 0
M  V30 11757 C 1146.99 3.67105 -3.88765 0
M  V30 11758 C 1148.29 1.7455 -4.9227 0
M  V30 11759 H 1149.98 0.734198 -2.90258 0
M  V30 11760 H 1147.53 0.351725 -1.39638 0
M  V30 11761 H 1149.48 3.16798 -2.77879 0
M  V30 11762 H 1148.21 2.8614 -1.57453 0
M  V30 11763 H 1146.87 1.60366 -3.29664 0
M  V30 11764 H 1146.51 4.05831 -2.97171 0
M  V30 11765 H 1146.21 3.57825 -4.66084 0
M  V30 11766 H 1147.74 4.40456 -4.22884 0
M  V30 11767 H 1149.15 2.36253 -5.22358 0
M  V30 11768 H 1147.55 1.76051 -5.73695 0
M  V30 11769 H 1148.62 0.704242 -4.79759 0
M  V30 11770 N 1149.96 1.53094 0.37415 0
M  V30 11771 C 1150.89 1.81901 1.46404 0
M  V30 11772 C 1151.87 0.671949 1.56265 0
M  V30 11773 O 1153.06 0.920978 1.70973 0
M  V30 11774 C 1150.19 2.00123 2.83845 0
M  V30 11775 C 1149.14 3.15864 2.88814 0
M  V30 11776 C 1148.47 3.19364 4.28848 0
M  V30 11777 C 1149.77 4.54633 2.57112 0
M  V30 11778 H 1151.46 2.73172 1.22546 0
M  V30 11779 H 1149.01 1.31444 0.588087 0
M  V30 11780 H 1150.96 2.18859 3.6011 0
M  V30 11781 H 1149.68 1.05555 3.09072 0
M  V30 11782 H 1148.34 2.96935 2.15 0
M  V30 11783 H 1147.99 2.2245 4.51137 0
M  V30 11784 H 1147.69 3.97123 4.3309 0
M  V30 11785 H 1149.22 3.40273 5.06997 0
M  V30 11786 H 1150.63 4.73587 3.23091 0
M  V30 11787 H 1149.03 5.34569 2.72683 0
M  V30 11788 H 1150.1 4.60331 1.52392 0
M  V30 11789 N 1151.44 -0.633461 1.44309 0
M  V30 11790 C 1152.39 -1.73919 1.47432 0
M  V30 11791 C 1153.37 -1.57258 0.340381 0
M  V30 11792 O 1154.57 -1.67035 0.585529 0
M  V30 11793 C 1151.69 -3.12595 1.41912 0
M  V30 11794 C 1150.78 -3.34734 2.60411 0
M  V30 11795 N 1151.17 -3.2725 3.85669 0
M  V30 11796 C 1149.47 -3.65522 2.55557 0
M  V30 11797 C 1150.17 -3.50013 4.64613 0
M  V30 11798 N 1149.15 -3.72775 3.95651 0
M  V30 11799 H 1152.95 -1.66588 2.42128 0
M  V30 11800 H 1150.46 -0.835844 1.39239 0
M  V30 11801 H 1152.46 -3.91887 1.42233 0
M  V30 11802 H 1151.12 -3.21095 0.482525 0
M  V30 11803 H 1152.13 -3.06221 4.17671 0
M  V30 11804 H 1148.81 -3.81017 1.70682 0
M  V30 11805 H 1150.2 -3.49839 5.73639 0
M  V30 11806 N 1152.92 -1.31168 -0.873655 0
M  V30 11807 C 1154.2 -1.11285 -1.60857 0
M  V30 11808 C 1154.58 0.333788 -2.08444 0
M  V30 11809 O 1153.92 1.32726 -1.86 0
M  V30 11810 C 1154.13 -2.12379 -2.7694 0
M  V30 11811 C 1155.48 -2.44704 -3.46994 0
M  V30 11812 O 1156.51 -2.10778 -2.87143 0
M  V30 11813 O 1155.36 -3.02786 -4.54954 0
M  V30 11814 H 1152.46 -0.428177 -0.707526 0
M  V30 11815 H 1155 -1.42634 -0.91944 0
M  V30 11816 H 1153.78 -3.09703 -2.39164 0
M  V30 11817 H 1153.4 -1.81914 -3.53544 0
M  V30 11818 N 1154.4 1.08748 -1.14068 0
M  V30 11819 C 1155.33 2.17591 -0.84714 0
M  V30 11820 C 1156.31 1.68962 0.196415 0
M  V30 11821 O 1157.49 1.94125 0.0538415 0
M  V30 11822 C 1154.62 3.45823 -0.320005 0
M  V30 11823 C 1153.58 4.07824 -1.2986 0
M  V30 11824 C 1152.9 5.30965 -0.630925 0
M  V30 11825 C 1154.2 4.49512 -2.65963 0
M  V30 11826 H 1155.9 2.42404 -1.75729 0
M  V30 11827 H 1153.44 1.16502 -0.846356 0
M  V30 11828 H 1155.4 4.21276 -0.102271 0
M  V30 11829 H 1154.12 3.20553 0.625561 0
M  V30 11830 H 1152.78 3.34398 -1.50245 0
M  V30 11831 H 1152.43 5.01979 0.320337 0
M  V30 11832 H 1152.13 5.73402 -1.28388 0
M  V30 11833 H 1153.65 6.09136 -0.422635 0
M  V30 11834 H 1155.06 5.16159 -2.49506 0
M  V30 11835 H 1153.46 5.02857 -3.27498 0
M  V30 11836 H 1154.53 3.6157 -3.23102 0
M  V30 11837 N 1155.87 0.935264 1.26849 0
M  V30 11838 C 1157.29 0.636661 1.46352 0
M  V30 11839 C 1157.49 -0.811823 1.84423 0
M  V30 11840 O 1156.55 -1.58902 1.9623 0
M  V30 11841 C 1157.86 1.59301 2.55036 0
M  V30 11842 C 1159.41 1.60207 2.68892 0
M  V30 11843 C 1159.88 2.54558 3.80742 0
M  V30 11844 N 1161.37 2.52809 3.88126 0
M  V30 11845 C 1162.11 3.225 4.74111 0
M  V30 11846 N 1161.6 4.01598 5.64527 0
M  V30 11847 N 1163.4 3.11481 4.67906 0
M  V30 11848 H 1155.55 1.8716 1.00423 0
M  V30 11849 H 1157.81 0.803968 0.502334 0
M  V30 11850 H 1157.52 2.62671 2.33874 0
M  V30 11851 H 1157.39 1.34052 3.52576 0
M  V30 11852 H 1159.78 0.575649 2.89431 0
M  V30 11853 H 1159.86 1.89508 1.71815 0
M  V30 11854 H 1159.5 3.57314 3.60956 0
M  V30 11855 H 1159.43 2.22549 4.77263 0
M  V30 11856 H 1161.92 1.9537 3.2348 0
M  V30 11857 H 1162.24 4.51742 6.27016 0
M  V30 11858 H 1160.58 4.057 5.64298 0
M  V30 11859 H 1163.77 2.49175 3.9627 0
M  V30 11860 H 1163.95 3.66064 5.34697 0
M  V30 11861 N 1157.35 -1.41121 0.701616 0
M  V30 11862 C 1158.32 -2.29148 0.0490091 0
M  V30 11863 C 1159.32 -1.44679 -0.701763 0
M  V30 11864 O 1160.51 -1.65757 -0.53575 0
M  V30 11865 C 1157.64 -3.2766 -0.940837 0
M  V30 11866 H 1158.83 -2.88354 0.824133 0
M  V30 11867 H 1156.38 -1.49209 0.465457 0
M  V30 11868 H 1157.12 -2.73445 -1.74351 0
M  V30 11869 H 1156.9 -3.89997 -0.405551 0
M  V30 11870 H 1158.39 -3.93609 -1.39507 0
M  V30 11871 N 1158.83 -0.446794 -1.51134 0
M  V30 11872 C 1160.08 0.116666 -2.02464 0
M  V30 11873 C 1160.41 1.41532 -1.32975 0
M  V30 11874 O 1159.68 1.89278 -0.447651 0
M  V30 11875 C 1159.97 0.325659 -3.58624 0
M  V30 11876 C 1159.82 -0.992307 -4.38718 0
M  V30 11877 C 1161.14 1.09121 -4.26357 0
M  V30 11878 H 1158.26 0.0409262 -0.735863 0
M  V30 11879 H 1160.9 -0.587641 -1.80684 0
M  V30 11880 H 1159.05 0.925585 -3.77313 0
M  V30 11881 H 1160.72 -1.62694 -4.31658 0
M  V30 11882 H 1158.97 -1.5947 -4.03425 0
M  V30 11883 H 1159.64 -0.800005 -5.46172 0
M  V30 11884 H 1162.11 0.582944 -4.11996 0
M  V30 11885 H 1160.99 1.20621 -5.35483 0
M  V30 11886 H 1161.25 2.12171 -3.87861 0
M  V30 11887 N 1160.31 1.56586 -0.178487 0
M  V30 11888 C 1161.26 2.19631 0.765822 0
M  V30 11889 C 1162.25 1.16247 1.23219 0
M  V30 11890 O 1163.46 1.34431 1.19701 0
M  V30 11891 H 1159.83 0.703661 0.265264 0
M  V30 11892 H 1161.8 2.97659 0.210207 0
M  V30 11893 C 1160.55 2.85686 1.98188 0
M  V30 11894 H 1159.87 3.64971 1.63206 0
M  V30 11895 H 1161.31 3.33259 2.62134 0
M  V30 11896 C 1159.77 1.85837 2.81009 0
M  V30 11897 O 1160.3 1.3483 3.78396 0
M  V30 11898 N 1158.51 1.54435 2.46167 0
M  V30 11899 H 1158.06 1.96107 1.67032 0
M  V30 11900 H 1158.01 0.878808 3.01868 0
M  V30 11901 N 1161.79 -0.095206 1.57312 0
M  V30 11902 C 1162.75 -1.09974 2.01093 0
M  V30 11903 C 1163.75 -1.32954 0.904424 0
M  V30 11904 O 1164.94 -1.29069 1.16991 0
M  V30 11905 C 1162.07 -2.4489 2.37153 0
M  V30 11906 H 1163.26 -0.722906 2.91057 0
M  V30 11907 H 1160.82 -0.340249 1.52552 0
M  V30 11908 H 1161.55 -2.8745 1.50143 0
M  V30 11909 H 1161.34 -2.29559 3.17876 0
M  V30 11910 H 1162.83 -3.17141 2.71683 0
M  V30 11911 N 1163.26 -1.53291 -0.366026 0
M  V30 11912 C 1164.21 -1.79697 -1.44836 0
M  V30 11913 C 1165.18 -0.641321 -1.5322 0
M  V30 11914 O 1166.37 -0.883453 -1.69115 0
M  V30 11915 C 1163.51 -1.99223 -2.81788 0
M  V30 11916 C 1162.62 -3.26938 -2.82375 0
M  V30 11917 C 1161.75 -3.36654 -4.10898 0
M  V30 11918 C 1160.79 -4.58404 -4.05626 0
M  V30 11919 N 1159.93 -4.65275 -5.25798 0
M  V30 11920 H 1164.77 -2.72053 -1.21619 0
M  V30 11921 H 1162.31 -1.34768 -0.589577 0
M  V30 11922 H 1164.27 -2.0853 -3.61346 0
M  V30 11923 H 1162.9 -1.10204 -3.03406 0
M  V30 11924 H 1161.95 -3.26587 -1.95052 0
M  V30 11925 H 1163.26 -4.16573 -2.74351 0
M  V30 11926 H 1162.41 -3.4527 -4.98872 0
M  V30 11927 H 1161.15 -2.45035 -4.21674 0
M  V30 11928 H 1160.16 -4.49888 -3.16039 0
M  V30 11929 H 1161.38 -5.51364 -3.96453 0
M  V30 11930 H 1159.33 -3.76557 -5.3716 0
M  V30 11931 H 1159.25 -5.48814 -5.19942 0
M  V30 11932 H 1160.51 -4.78175 -6.15605 0
M  V30 11933 N 1164.74 0.6258 -1.44643 0
M  V30 11934 C 1165.67 1.74858 -1.54748 0
M  V30 11935 C 1166.65 1.65327 -0.400138 0
M  V30 11936 O 1167.84 1.84005 -0.620948 0
M  V30 11937 C 1164.97 3.13408 -1.49643 0
M  V30 11938 C 1163.92 3.37733 -2.62908 0
M  V30 11939 C 1163.25 4.76367 -2.42855 0
M  V30 11940 C 1164.55 3.29771 -4.05029 0
M  V30 11941 H 1166.24 1.66658 -2.48728 0
M  V30 11942 H 1163.79 0.800363 -1.19709 0
M  V30 11943 H 1165.74 3.91735 -1.55312 0
M  V30 11944 H 1164.47 3.22404 -0.521824 0
M  V30 11945 H 1163.12 2.61788 -2.56637 0
M  V30 11946 H 1162.77 4.82074 -1.43575 0
M  V30 11947 H 1162.47 4.936 -3.18799 0
M  V30 11948 H 1164 5.56917 -2.50351 0
M  V30 11949 H 1165.41 3.97996 -4.12641 0
M  V30 11950 H 1163.81 3.58538 -4.81218 0
M  V30 11951 H 1164.88 2.27493 -4.28223 0
M  V30 11952 N 1166.22 1.31629 0.866686 0
M  V30 11953 C 1167.47 1.21683 1.62238 0
M  V30 11954 C 1167.8 -0.223767 1.92907 0
M  V30 11955 O 1167.07 -1.15761 1.563 0
M  V30 11956 C 1167.36 2.06443 2.95048 0
M  V30 11957 C 1167.21 3.58818 2.71237 0
M  V30 11958 C 1168.53 1.91634 3.96187 0
M  V30 11959 H 1165.65 0.443389 0.588707 0
M  V30 11960 H 1168.29 1.61453 1.00164 0
M  V30 11961 H 1166.44 1.72654 3.48027 0
M  V30 11962 H 1168.11 4.0276 2.24905 0
M  V30 11963 H 1166.36 3.82085 2.05411 0
M  V30 11964 H 1167.03 4.13436 3.65752 0
M  V30 11965 H 1169.5 2.21209 3.52428 0
M  V30 11966 H 1168.38 2.53236 4.86993 0
M  V30 11967 H 1168.64 0.880564 4.33242 0
M  V30 11968 N 1167.7 -1.08142 1.14644 0
M  V30 11969 C 1169.11 -1.62061 0.926986 0
M  V30 11970 C 1169.46 -1.88805 -0.533578 0
M  V30 11971 O 1168.59 -1.64753 -1.40305 0
M  V30 11972 C 1169.18 -2.94425 1.67629 0
M  V30 11973 C 1167.74 -3.45118 1.50235 0
M  V30 11974 C 1166.89 -2.19307 1.69705 0
M  V30 11975 H 1169.84 -0.913326 1.29785 0
M  V30 11976 H 1169.86 -3.62987 1.14107 0
M  V30 11977 H 1169.37 -2.74928 2.73927 0
M  V30 11978 H 1167.47 -3.69713 0.462967 0
M  V30 11979 H 1167.59 -4.2169 2.27408 0
M  V30 11980 H 1165.95 -2.28611 1.12291 0
M  V30 11981 H 1166.73 -2.02315 2.77351 0
M  V30 11982 N 1169.18 -0.941978 -1.26351 0
M  V30 11983 C 1170.42 -0.589971 -1.93715 0
M  V30 11984 C 1170.75 0.871085 -1.73903 0
M  V30 11985 O 1170.01 1.63864 -1.06991 0
M  V30 11986 C 1170.31 -0.879481 -3.4641 0
M  V30 11987 C 1169.97 -2.32454 -3.86362 0
M  V30 11988 C 1168.63 -2.71957 -3.9698 0
M  V30 11989 C 1170.99 -3.2636 -4.06373 0
M  V30 11990 C 1168.31 -4.04459 -4.25006 0
M  V30 11991 C 1170.67 -4.58459 -4.35887 0
M  V30 11992 C 1169.33 -4.97775 -4.4472 0
M  V30 11993 H 1168.6 -0.215886 -0.708854 0
M  V30 11994 H 1171.25 -1.18863 -1.50146 0
M  V30 11995 H 1169.55 -0.198289 -3.91298 0
M  V30 11996 H 1171.25 -0.585887 -3.96697 0
M  V30 11997 H 1167.84 -2.00814 -3.78645 0
M  V30 11998 H 1172.02 -2.97037 -3.97596 0
M  V30 11999 H 1167.28 -4.34582 -4.30057 0
M  V30 12000 H 1171.45 -5.31213 -4.50317 0
M  V30 12001 H 1169.08 -6.00475 -4.66191 0
M  V30 12002 N 1170.66 1.40747 -0.709091 0
M  V30 12003 C 1171.9 2.00606 -0.245324 0
M  V30 12004 C 1172.22 1.56489 1.16346 0
M  V30 12005 O 1171.49 0.801456 1.78755 0
M  V30 12006 H 1170.07 0.741833 -0.0877098 0
M  V30 12007 H 1172.74 1.72178 -0.913271 0
M  V30 12008 H 1171.83 3.10901 -0.273322 0
M  V30 12009 N 1172.13 0.454803 1.50895 0
M  V30 12010 C 1173.1 -0.336293 2.26719 0
M  V30 12011 C 1174.1 -0.93464 1.30848 0
M  V30 12012 O 1175.29 -0.80636 1.54413 0
M  V30 12013 C 1172.42 -1.47744 3.07221 0
M  V30 12014 H 1173.61 0.328462 2.98096 0
M  V30 12015 H 1171.16 0.208419 1.54904 0
M  V30 12016 H 1171.9 -2.17773 2.40302 0
M  V30 12017 H 1171.68 -1.05438 3.77658 0
M  V30 12018 H 1173.17 -2.03592 3.6461 0
M  V30 12019 N 1173.61 -1.56489 0.186789 0
M  V30 12020 C 1174.86 -1.97634 -0.454831 0
M  V30 12021 C 1175.19 -1.07334 -1.61843 0
M  V30 12022 O 1174.47 -0.123612 -1.94107 0
M  V30 12023 C 1174.75 -3.48071 -0.922962 0
M  V30 12024 C 1174.6 -4.49149 0.241877 0
M  V30 12025 C 1175.92 -4.01994 -1.79134 0
M  V30 12026 H 1173.04 -0.718555 -0.163854 0
M  V30 12027 H 1175.68 -1.87984 0.27604 0
M  V30 12028 H 1173.83 -3.56425 -1.54575 0
M  V30 12029 H 1175.5 -4.52841 0.87936 0
M  V30 12030 H 1173.75 -4.24468 0.894964 0
M  V30 12031 H 1174.42 -5.51851 -0.128051 0
M  V30 12032 H 1176.89 -3.96367 -1.26618 0
M  V30 12033 H 1175.77 -5.07641 -2.08787 0
M  V30 12034 H 1176.03 -3.46747 -2.74261 0
M  V30 12035 N 1175.09 0.086862 -1.5736 0
M  V30 12036 C 1176.02 1.13117 -1.99342 0
M  V30 12037 C 1177.03 1.35849 -0.897151 0
M  V30 12038 O 1178.22 1.34356 -1.17519 0
M  V30 12039 C 1175.32 2.48511 -2.30425 0
M  V30 12040 C 1174.5 2.45942 -3.61706 0
M  V30 12041 C 1173.56 3.63327 -3.80631 0
M  V30 12042 O 1172.58 3.45443 -4.52392 0
M  V30 12043 N 1173.78 4.83118 -3.21835 0
M  V30 12044 H 1176.55 0.773782 -2.89539 0
M  V30 12045 H 1174.11 0.275731 -1.59535 0
M  V30 12046 H 1176.1 3.25656 -2.40272 0
M  V30 12047 H 1174.67 2.76308 -1.46194 0
M  V30 12048 H 1173.89 1.54287 -3.62752 0
M  V30 12049 H 1175.18 2.41313 -4.47935 0
M  V30 12050 H 1174.58 5.00552 -2.6356 0
M  V30 12051 H 1173.13 5.57827 -3.37154 0
M  V30 12052 N 1176.57 1.53483 0.357892 0
M  V30 12053 C 1177.5 1.76757 1.4591 0
M  V30 12054 C 1178.51 0.648502 1.49326 0
M  V30 12055 O 1179.7 0.924932 1.52667 0
M  V30 12056 C 1176.8 1.83938 2.8464 0
M  V30 12057 C 1175.97 3.13683 3.04831 0
M  V30 12058 C 1175.03 3.12007 4.23719 0
M  V30 12059 O 1174.06 3.8578 4.18524 0
M  V30 12060 N 1175.26 2.33366 5.31527 0
M  V30 12061 H 1178.03 2.71778 1.2632 0
M  V30 12062 H 1175.59 1.52355 0.547673 0
M  V30 12063 H 1177.58 1.80285 3.62325 0
M  V30 12064 H 1176.15 0.961675 2.9744 0
M  V30 12065 H 1175.37 3.30576 2.14739 0
M  V30 12066 H 1176.66 3.99412 3.15194 0
M  V30 12067 H 1176.06 1.72954 5.38613 0
M  V30 12068 H 1174.61 2.35524 6.07759 0
M  V30 12069 N 1178.05 -0.61812 1.44973 0
M  V30 12070 C 1179.29 -1.37468 1.48145 0
M  V30 12071 C 1179.61 -1.94628 0.120366 0
M  V30 12072 O 1178.88 -1.76548 -0.848982 0
M  V30 12073 H 1177.46 -0.510293 0.545536 0
M  V30 12074 H 1180.13 -0.726598 1.8085 0
M  V30 12075 H 1179.22 -2.19944 2.2143 0
M  V30 12076 N 1179.52 -1.32087 -0.859693 0
M  V30 12077 C 1180.49 -1.20546 -1.94939 0
M  V30 12078 C 1181.49 -0.12982 -1.60275 0
M  V30 12079 O 1182.68 -0.379853 -1.70008 0
M  V30 12080 C 1179.81 -0.852717 -3.30063 0
M  V30 12081 H 1181 -2.17384 -2.06602 0
M  V30 12082 H 1178.55 -1.15846 -1.04926 0
M  V30 12083 H 1179.29 0.114059 -3.24099 0
M  V30 12084 H 1179.07 -1.63035 -3.56598 0
M  V30 12085 H 1180.56 -0.796145 -4.09941 0
M  V30 12086 N 1181 1.07532 -1.15215 0
M  V30 12087 C 1182.41 1.61567 -0.935568 0
M  V30 12088 C 1182.76 1.89085 0.523557 0
M  V30 12089 O 1181.89 1.65495 1.39429 0
M  V30 12090 C 1182.48 2.93531 -1.69189 0
M  V30 12091 C 1181.04 3.44316 -1.52063 0
M  V30 12092 C 1180.19 2.18404 -1.70866 0
M  V30 12093 H 1183.14 0.906431 -1.30267 0
M  V30 12094 H 1183.16 3.62377 -1.16031 0
M  V30 12095 H 1182.67 2.73471 -2.75381 0
M  V30 12096 H 1180.77 3.69462 -0.482567 0
M  V30 12097 H 1180.89 4.20478 -2.29642 0
M  V30 12098 H 1179.25 2.28012 -1.13502 0
M  V30 12099 H 1180.03 2.00841 -2.7842 0
M  V30 12100 N 1182.48 0.948665 1.2585 0
M  V30 12101 C 1183.73 0.601125 1.93686 0
M  V30 12102 C 1184.06 -0.858779 1.7418 0
M  V30 12103 O 1183.33 -1.61539 1.0833 0
M  V30 12104 C 1183.62 0.95333 3.47252 0
M  V30 12105 C 1183.47 2.46853 3.7601 0
M  V30 12106 C 1184.79 0.474098 4.37539 0
M  V30 12107 H 1181.91 0.219864 0.703441 0
M  V30 12108 H 1184.55 1.18424 1.48579 0
M  V30 12109 H 1182.7 0.457114 3.85801 0
M  V30 12110 H 1184.37 3.03804 3.47132 0
M  V30 12111 H 1182.62 2.9088 3.21825 0
M  V30 12112 H 1183.29 2.66547 4.83381 0
M  V30 12113 H 1185.76 0.899664 4.06258 0
M  V30 12114 H 1184.64 0.749287 5.43762 0
M  V30 12115 H 1184.9 -0.625961 4.37646 0
M  V30 12116 N 1183.96 -1.40369 0.716545 0
M  V30 12117 C 1184.89 -2.33365 0.0793533 0
M  V30 12118 C 1185.87 -1.52943 -0.744482 0
M  V30 12119 O 1187.05 -1.81406 -0.693212 0
M  V30 12120 C 1184.18 -3.36928 -0.842429 0
M  V30 12121 C 1183.14 -4.2782 -0.124142 0
M  V30 12122 C 1182.46 -5.21928 -1.1617 0
M  V30 12123 C 1183.76 -5.12199 1.02224 0
M  V30 12124 H 1185.46 -2.86899 0.856115 0
M  V30 12125 H 1183 -1.37946 0.413138 0
M  V30 12126 H 1184.96 -4.00925 -1.29759 0
M  V30 12127 H 1183.68 -2.81791 -1.6511 0
M  V30 12128 H 1182.34 -3.65277 0.311201 0
M  V30 12129 H 1181.99 -4.63096 -1.96345 0
M  V30 12130 H 1181.69 -5.83582 -0.685978 0
M  V30 12131 H 1183.21 -5.88802 -1.61694 0
M  V30 12132 H 1184.63 -5.69644 0.646399 0
M  V30 12133 H 1183.02 -5.82901 1.4264 0
M  V30 12134 H 1184.09 -4.4812 1.85246 0
M  V30 12135 N 1185.44 -0.462799 -1.50652 0
M  V30 12136 C 1186.66 0.0952726 -2.07181 0
M  V30 12137 C 1187.09 1.33479 -1.32533 0
M  V30 12138 O 1186.44 1.77473 -0.370564 0
M  V30 12139 C 1186.49 0.370592 -3.58691 0
M  V30 12140 O 1185.6 1.4526 -3.85971 0
M  V30 12141 H 1184.94 -0.00932702 -0.663934 0
M  V30 12142 H 1187.47 -0.651458 -1.93951 0
M  V30 12143 H 1187.48 0.613551 -4.0336 0
M  V30 12144 H 1186.15 -0.535219 -4.12442 0
M  V30 12145 H 1184.73 1.1976 -3.53146 0
M  V30 12146 N 1186.91 1.56388 -0.195085 0
M  V30 12147 C 1187.88 2.17859 0.712053 0
M  V30 12148 C 1188.88 1.13304 1.141 0
M  V30 12149 O 1190.07 1.38689 1.05409 0
M  V30 12150 C 1187.2 2.78065 1.97213 0
M  V30 12151 H 1188.39 2.9938 0.176529 0
M  V30 12152 H 1185.95 1.56205 0.0545322 0
M  V30 12153 H 1186.68 2.00342 2.55017 0
M  V30 12154 H 1186.47 3.54603 1.67329 0
M  V30 12155 H 1187.96 3.25266 2.619 0
M  V30 12156 N 1188.39 -0.0785156 1.57404 0
M  V30 12157 C 1189.32 -1.09446 2.06262 0
M  V30 12158 C 1190.3 -1.40777 0.954772 0
M  V30 12159 O 1191.49 -1.5052 1.22708 0
M  V30 12160 C 1188.62 -2.40979 2.50093 0
M  V30 12161 C 1187.57 -2.24017 3.64692 0
M  V30 12162 C 1186.9 -3.60873 3.94556 0
M  V30 12163 C 1188.2 -1.66696 4.94985 0
M  V30 12164 H 1189.89 -0.687928 2.9139 0
M  V30 12165 H 1187.44 -0.329466 1.4018 0
M  V30 12166 H 1189.39 -3.12337 2.82884 0
M  V30 12167 H 1188.12 -2.83599 1.61985 0
M  V30 12168 H 1186.77 -1.55101 3.32174 0
M  V30 12169 H 1186.42 -4.01051 3.0359 0
M  V30 12170 H 1186.12 -3.50365 4.71718 0
M  V30 12171 H 1187.65 -4.33673 4.29837 0
M  V30 12172 H 1189.06 -2.27913 5.2605 0
M  V30 12173 H 1187.46 -1.66902 5.76423 0
M  V30 12174 H 1188.53 -0.627827 4.80818 0
M  V30 12175 N 1189.87 -1.5367 -0.349747 0
M  V30 12176 C 1191.28 -1.62135 -0.925704 0
M  V30 12177 C 1191.63 -0.498725 -1.89756 0
M  V30 12178 O 1190.76 0.372481 -2.1317 0
M  V30 12179 C 1191.35 -2.93885 -1.68573 0
M  V30 12180 C 1189.91 -3.04632 -2.2108 0
M  V30 12181 C 1189.06 -2.57541 -1.02801 0
M  V30 12182 H 1192.01 -1.58182 -0.128065 0
M  V30 12183 H 1192.03 -2.82577 -2.54815 0
M  V30 12184 H 1191.54 -3.75571 -0.978153 0
M  V30 12185 H 1189.64 -2.27567 -2.95032 0
M  V30 12186 H 1189.76 -4.09993 -2.47876 0
M  V30 12187 H 1188.12 -2.12798 -1.39962 0
M  V30 12188 H 1188.9 -3.4166 -0.335157 0
M  V30 12189 N 1191.35 0.610423 -1.45298 0
M  V30 12190 C 1192.76 0.930872 -1.29642 0
M  V30 12191 C 1192.96 1.99976 -0.247358 0
M  V30 12192 O 1192.02 2.49925 0.359674 0
M  V30 12193 C 1193.33 1.37449 -2.67448 0
M  V30 12194 C 1194.88 1.48885 -2.75322 0
M  V30 12195 C 1195.36 1.96624 -4.13646 0
M  V30 12196 N 1196.85 2.03862 -4.15926 0
M  V30 12197 C 1197.58 2.42015 -5.19823 0
M  V30 12198 N 1197.08 2.79157 -6.34069 0
M  V30 12199 N 1198.87 2.42329 -5.07181 0
M  V30 12200 H 1191.02 -0.0961259 -2.12182 0
M  V30 12201 H 1193.29 0.0196483 -0.947796 0
M  V30 12202 H 1192.99 0.663276 -3.45389 0
M  V30 12203 H 1192.87 2.34155 -2.95721 0
M  V30 12204 H 1195.25 2.19098 -1.97686 0
M  V30 12205 H 1195.33 0.505006 -2.50765 0
M  V30 12206 H 1194.98 1.26998 -4.91766 0
M  V30 12207 H 1194.91 2.95917 -4.35592 0
M  V30 12208 H 1197.4 1.77759 -3.33482 0
M  V30 12209 H 1197.71 3.07143 -7.09142 0
M  V30 12210 H 1196.06 2.7686 -6.37474 0
M  V30 12211 H 1199.25 2.12717 -4.16976 0
M  V30 12212 H 1199.42 2.71738 -5.88271 0
M  V30 12213 N 1192.83 1.32541 0.852676 0
M  V30 12214 C 1194.07 1.22971 1.60383 0
M  V30 12215 C 1194.4 -0.208009 1.93887 0
M  V30 12216 O 1193.67 -1.13326 1.59794 0
M  V30 12217 H 1192.25 0.452149 0.594618 0
M  V30 12218 H 1194.91 1.66089 1.01983 0
M  V30 12219 H 1194 1.81373 2.53989 0
M  V30 12220 N 1194.3 -1.0692 1.15784 0
M  V30 12221 C 1195.55 -1.8002 0.946795 0
M  V30 12222 C 1195.91 -1.85232 -0.520268 0
M  V30 12223 O 1195.2 -1.32825 -1.38087 0
M  V30 12224 C 1195.39 -3.24389 1.50022 0
M  V30 12225 C 1195.22 -3.33245 3.01957 0
M  V30 12226 C 1193.99 -3.43549 3.70543 0
M  V30 12227 C 1196.19 -3.23634 3.99707 0
M  V30 12228 N 1194.17 -3.41354 5.10246 0
M  V30 12229 C 1195.54 -3.28608 5.25754 0
M  V30 12230 C 1197.6 -3.07475 3.91617 0
M  V30 12231 C 1196.3 -3.19084 6.44653 0
M  V30 12232 C 1198.33 -2.99286 5.1008 0
M  V30 12233 C 1197.69 -3.04876 6.35004 0
M  V30 12234 H 1193.79 -0.671859 0.400162 0
M  V30 12235 H 1196.37 -1.27592 1.47066 0
M  V30 12236 H 1194.54 -3.75228 1.00293 0
M  V30 12237 H 1196.27 -3.85633 1.22756 0
M  V30 12238 H 1193.03 -3.48079 3.21151 0
M  V30 12239 H 1193.45 -3.43772 5.83223 0
M  V30 12240 H 1198.1 -3.02004 2.95895 0
M  V30 12241 H 1195.81 -3.23313 7.40604 0
M  V30 12242 H 1199.4 -2.8788 5.05585 0
M  V30 12243 H 1198.28 -2.9859 7.2513 0
M  V30 12244 N 1195.78 -0.955326 -1.25345 0
M  V30 12245 C 1197.19 -0.651118 -1.74978 0
M  V30 12246 C 1197.54 0.833495 -1.77616 0
M  V30 12247 O 1196.67 1.65228 -1.39745 0
M  V30 12248 C 1197.26 -1.17521 -3.17764 0
M  V30 12249 C 1195.82 -0.921151 -3.64954 0
M  V30 12250 C 1194.97 -1.31784 -2.43984 0
M  V30 12251 H 1197.92 -1.13205 -1.11222 0
M  V30 12252 H 1197.94 -0.535625 -3.76711 0
M  V30 12253 H 1197.45 -2.25575 -3.15813 0
M  V30 12254 H 1195.56 0.144392 -3.7232 0
M  V30 12255 H 1195.67 -1.5581 -4.53056 0
M  V30 12256 H 1194.03 -0.736219 -2.43828 0
M  V30 12257 H 1194.82 -2.40761 -2.44723 0
M  V30 12258 N 1197.26 1.39987 -0.723979 0
M  V30 12259 C 1198.19 2.3332 -0.0917282 0
M  V30 12260 C 1199.17 1.53335 0.736361 0
M  V30 12261 O 1200.36 1.81771 0.683582 0
M  V30 12262 C 1197.49 3.3737 0.824549 0
M  V30 12263 C 1196.44 4.2788 0.101452 0
M  V30 12264 C 1195.77 5.22536 1.13401 0
M  V30 12265 C 1197.07 5.11649 -1.04939 0
M  V30 12266 H 1198.76 2.86441 -0.871318 0
M  V30 12267 H 1196.31 1.37725 -0.420448 0
M  V30 12268 H 1198.26 4.01607 1.27631 0
M  V30 12269 H 1196.98 2.82663 1.63613 0
M  V30 12270 H 1195.64 3.65107 -0.330569 0
M  V30 12271 H 1195.29 4.64131 1.93886 0
M  V30 12272 H 1194.99 5.83938 0.65502 0
M  V30 12273 H 1196.52 5.89651 1.58569 0
M  V30 12274 H 1197.93 5.69293 -0.6766 0
M  V30 12275 H 1196.33 5.82137 -1.45729 0
M  V30 12276 H 1197.4 4.47132 -1.8762 0
M  V30 12277 N 1198.74 0.470782 1.50404 0
M  V30 12278 C 1199.67 -0.369532 2.25188 0
M  V30 12279 C 1200.65 -0.996478 1.28488 0
M  V30 12280 O 1201.83 -1.03247 1.57709 0
M  V30 12281 C 1198.96 -1.51775 3.02791 0
M  V30 12282 C 1198.01 -1.00821 4.14412 0
M  V30 12283 S 1198.84 0.076844 5.35445 0
M  V30 12284 C 1200 -1.07525 6.16595 0
M  V30 12285 H 1200.23 0.265286 2.96114 0
M  V30 12286 H 1197.76 0.255662 1.52269 0
M  V30 12287 H 1199.72 -2.17582 3.48092 0
M  V30 12288 H 1198.38 -2.12408 2.31391 0
M  V30 12289 H 1197.57 -1.8678 4.68112 0
M  V30 12290 H 1197.18 -0.427851 3.71545 0
M  V30 12291 H 1199.47 -1.98693 6.47709 0
M  V30 12292 H 1200.41 -0.577518 7.05741 0
M  V30 12293 H 1200.82 -1.32894 5.48634 0
M  V30 12294 N 1200.22 -1.56282 0.203376 0
M  V30 12295 C 1201.46 -1.98105 -0.433844 0
M  V30 12296 C 1201.8 -1.09044 -1.60695 0
M  V30 12297 O 1201.07 -0.144193 -1.93965 0
M  V30 12298 C 1201.35 -3.4903 -0.885992 0
M  V30 12299 C 1201.21 -4.48867 0.289501 0
M  V30 12300 C 1202.53 -4.03871 -1.7486 0
M  V30 12301 H 1199.65 -0.720252 -0.156224 0
M  V30 12302 H 1202.29 -1.87681 0.295963 0
M  V30 12303 H 1200.44 -3.58045 -1.50785 0
M  V30 12304 H 1202.11 -4.51883 0.92734 0
M  V30 12305 H 1200.35 -4.23495 0.939934 0
M  V30 12306 H 1201.02 -5.51956 -0.0695128 0
M  V30 12307 H 1203.5 -3.97688 -1.22407 0
M  V30 12308 H 1202.38 -5.09827 -2.03391 0
M  V30 12309 H 1202.64 -3.49637 -2.70567 0
M  V30 12310 N 1201.7 0.070167 -1.57444 0
M  V30 12311 C 1202.63 1.08351 -2.06839 0
M  V30 12312 C 1203.61 1.40269 -0.962224 0
M  V30 12313 O 1204.79 1.49867 -1.23505 0
M  V30 12314 C 1201.92 2.39649 -2.51368 0
M  V30 12315 C 1200.88 2.22079 -3.65875 0
M  V30 12316 C 1200.2 3.58776 -3.96464 0
M  V30 12317 C 1201.5 1.64069 -4.95862 0
M  V30 12318 H 1203.2 0.672465 -2.9175 0
M  V30 12319 H 1200.74 0.322027 -1.40353 0
M  V30 12320 H 1202.69 3.10833 -2.84537 0
M  V30 12321 H 1201.42 2.82736 -1.63487 0
M  V30 12322 H 1200.08 1.53337 -3.32992 0
M  V30 12323 H 1199.73 3.99436 -3.05712 0
M  V30 12324 H 1199.43 3.47859 -4.7357 0
M  V30 12325 H 1200.95 4.31387 -4.32131 0
M  V30 12326 H 1202.36 2.2512 -5.27251 0
M  V30 12327 H 1200.76 1.63843 -5.773 0
M  V30 12328 H 1201.83 0.60232 -4.81145 0
M  V30 12329 N 1203.17 1.53854 0.341593 0
M  V30 12330 C 1204.45 1.61823 1.09875 0
M  V30 12331 C 1204.83 0.440711 2.06448 0
M  V30 12332 O 1204.18 -0.566833 2.21358 0
M  V30 12333 C 1204.39 2.9799 1.81668 0
M  V30 12334 C 1205.74 3.53411 2.35341 0
M  V30 12335 O 1206.76 3.00177 1.91761 0
M  V30 12336 O 1205.62 4.4653 3.15076 0
M  V30 12337 H 1202.71 0.654599 0.5054 0
M  V30 12338 H 1205.26 1.66199 0.342929 0
M  V30 12339 H 1204.03 3.7513 1.11323 0
M  V30 12340 H 1203.65 2.97213 2.64103 0
M  V30 12341 N 1204.65 -0.602709 1.4562 0
M  V30 12342 C 1205.58 -1.72374 1.5751 0
M  V30 12343 C 1206.56 -1.64669 0.426389 0
M  V30 12344 O 1207.75 -1.82994 0.650143 0
M  V30 12345 C 1204.88 -3.10987 1.5461 0
M  V30 12346 C 1203.83 -3.33507 2.68248 0
M  V30 12347 C 1203.16 -4.72443 2.50403 0
M  V30 12348 C 1204.46 -3.23285 4.10224 0
M  V30 12349 H 1206.15 -1.62679 2.51348 0
M  V30 12350 H 1203.7 -0.781217 1.20967 0
M  V30 12351 H 1205.65 -3.89214 1.61525 0
M  V30 12352 H 1204.37 -3.21533 0.573049 0
M  V30 12353 H 1203.03 -2.57672 2.60769 0
M  V30 12354 H 1202.68 -4.79729 1.51226 0
M  V30 12355 H 1202.38 -4.88466 3.26611 0
M  V30 12356 H 1203.91 -5.52864 2.59179 0
M  V30 12357 H 1205.32 -3.91381 4.1892 0
M  V30 12358 H 1203.72 -3.50837 4.86861 0
M  V30 12359 H 1204.79 -2.20652 4.31788 0
M  V30 12360 N 1206.13 -1.32992 -0.845635 0
M  V30 12361 C 1207.08 -1.22682 -1.95494 0
M  V30 12362 C 1208.05 -0.106942 -1.65755 0
M  V30 12363 O 1209.23 -0.28405 -1.88674 0
M  V30 12364 C 1206.37 -0.965068 -3.31331 0
M  V30 12365 C 1205.48 -2.17058 -3.7351 0
M  V30 12366 C 1204.62 -1.84355 -4.98183 0
M  V30 12367 C 1203.66 -3.01176 -5.32878 0
M  V30 12368 N 1202.8 -2.68506 -6.48729 0
M  V30 12369 H 1207.64 -2.17562 -2.03644 0
M  V30 12370 H 1205.17 -1.08194 -0.996613 0
M  V30 12371 H 1207.13 -0.793771 -4.09579 0
M  V30 12372 H 1205.76 -0.0530285 -3.22756 0
M  V30 12373 H 1204.81 -2.45185 -2.90841 0
M  V30 12374 H 1206.12 -3.04413 -3.95138 0
M  V30 12375 H 1205.28 -1.6383 -5.84162 0
M  V30 12376 H 1204.02 -0.942264 -4.78511 0
M  V30 12377 H 1203.02 -3.22323 -4.45408 0
M  V30 12378 H 1204.25 -3.9205 -5.54503 0
M  V30 12379 H 1202.19 -1.80929 -6.30556 0
M  V30 12380 H 1202.11 -3.49392 -6.70419 0
M  V30 12381 H 1203.38 -2.51432 -7.37836 0
M  V30 12382 N 1207.61 1.06304 -1.1635 0
M  V30 12383 C 1208.88 1.75916 -0.855166 0
M  V30 12384 C 1209.26 2.0094 0.647024 0
M  V30 12385 O 1208.61 1.63642 1.59479 0
M  V30 12386 C 1208.82 3.06028 -1.67774 0
M  V30 12387 C 1210.17 3.80184 -1.89065 0
M  V30 12388 O 1211.19 3.15868 -1.64639 0
M  V30 12389 O 1210.05 4.95723 -2.30045 0
M  V30 12390 H 1207.15 0.764432 -0.315551 0
M  V30 12391 H 1209.69 1.12574 -1.26985 0
M  V30 12392 H 1208.47 2.83498 -2.69712 0
M  V30 12393 H 1208.09 3.77104 -1.26009 0
M  V30 12394 N 1209.09 0.96196 1.24836 0
M  V30 12395 C 1210.33 0.628484 1.94498 0
M  V30 12396 C 1210.69 -0.820337 1.73593 0
M  V30 12397 O 1211.89 -1.26376 2.37239 0
M  V30 12398 C 1210.16 0.986119 3.43527 0
M  V30 12399 S 1211.72 0.766324 4.32057 0
M  V30 12400 H 1208.54 0.230758 0.672511 0
M  V30 12401 H 1211.14 1.23769 1.51332 0
M  V30 12402 H 1209.84 2.03756 3.56247 0
M  V30 12403 H 1209.38 0.367454 3.9168 0
M  V30 12404 H 1211.39 -0.359227 4.94898 0
M  V30 12405 N 1210.56 -1.39601 0.731392 0
M  V30 12406 C 1211.81 -2.00586 0.277756 0
M  V30 12407 C 1212.14 -1.58027 -1.13391 0
M  V30 12408 O 1211.39 -0.798691 -1.7866 0
M  V30 12409 C 1211.69 -3.55934 0.323352 0
M  V30 12410 C 1211.36 -4.18131 1.68753 0
M  V30 12411 C 1210.02 -4.34833 2.06092 0
M  V30 12412 C 1212.37 -4.5267 2.58339 0
M  V30 12413 C 1209.7 -4.83362 3.32532 0
M  V30 12414 C 1212.05 -5.02607 3.84148 0
M  V30 12415 C 1210.72 -5.17517 4.21584 0
M  V30 12416 H 1209.99 -0.733996 0.101638 0
M  V30 12417 H 1212.63 -1.66981 0.937528 0
M  V30 12418 H 1210.94 -3.89542 -0.419995 0
M  V30 12419 H 1212.64 -4.00974 -0.0457235 0
M  V30 12420 H 1209.23 -4.0553 1.38722 0
M  V30 12421 H 1213.41 -4.39388 2.30763 0
M  V30 12422 H 1208.67 -4.93091 3.61485 0
M  V30 12423 H 1212.84 -5.28306 4.53724 0
M  V30 12424 H 1210.47 -5.54882 5.19625 0
M  V30 12425 N 1212.04 -0.478751 -1.50152 0
M  V30 12426 C 1213.29 0.073585 -2.02366 0
M  V30 12427 C 1213.62 1.3903 -1.36018 0
M  V30 12428 O 1212.87 1.89787 -0.477435 0
M  V30 12429 C 1213.17 0.297535 -3.56159 0
M  V30 12430 C 1212.84 -0.938419 -4.41027 0
M  V30 12431 C 1211.5 -1.27727 -4.63939 0
M  V30 12432 C 1213.85 -1.76098 -4.9055 0
M  V30 12433 C 1211.18 -2.4386 -5.33619 0
M  V30 12434 C 1213.53 -2.91366 -5.61506 0
M  V30 12435 C 1212.2 -3.25657 -5.8267 0
M  V30 12436 H 1211.47 0.0269267 -0.740511 0
M  V30 12437 H 1214.11 -0.63439 -1.80687 0
M  V30 12438 H 1212.42 1.08783 -3.76395 0
M  V30 12439 H 1214.11 0.73899 -3.94132 0
M  V30 12440 H 1210.7 -0.664441 -4.23418 0
M  V30 12441 H 1214.89 -1.51237 -4.72696 0
M  V30 12442 H 1210.14 -2.70692 -5.48211 0
M  V30 12443 H 1214.32 -3.55445 -5.98859 0
M  V30 12444 H 1211.95 -4.15751 -6.36439 0
M  V30 12445 N 1213.52 1.56172 -0.211661 0
M  V30 12446 C 1214.75 2.02874 0.430905 0
M  V30 12447 C 1215.17 1.09064 1.53254 0
M  V30 12448 O 1214.53 0.0770408 1.81136 0
M  V30 12449 C 1214.58 3.4789 0.948933 0
M  V30 12450 O 1213.68 3.57213 2.0609 0
M  V30 12451 H 1213.02 0.656614 0.0987607 0
M  V30 12452 H 1215.55 2.01964 -0.327399 0
M  V30 12453 H 1215.56 3.88015 1.2613 0
M  V30 12454 H 1214.24 4.15656 0.142584 0
M  V30 12455 H 1212.81 3.28971 1.75592 0
M  V30 12456 N 1215 -0.0618163 1.57479 0
M  V30 12457 C 1216.25 -0.75794 1.86918 0
M  V30 12458 C 1216.56 -1.78234 0.80572 0
M  V30 12459 O 1217.77 -2.52874 0.98827 0
M  V30 12460 C 1216.22 -1.39898 3.31597 0
M  V30 12461 C 1215.83 -0.412621 4.46096 0
M  V30 12462 C 1217.57 -2.07688 3.70224 0
M  V30 12463 C 1215.48 -1.06014 5.8182 0
M  V30 12464 H 1214.41 -0.286825 0.697314 0
M  V30 12465 H 1217.06 -0.0114386 1.83496 0
M  V30 12466 H 1215.44 -2.19408 3.29661 0
M  V30 12467 H 1216.62 0.353392 4.59443 0
M  V30 12468 H 1214.93 0.161383 4.16087 0
M  V30 12469 H 1217.53 -2.56928 4.68927 0
M  V30 12470 H 1217.87 -2.88073 3.00532 0
M  V30 12471 H 1218.41 -1.34996 3.74194 0
M  V30 12472 H 1215.15 -0.296405 6.5483 0
M  V30 12473 H 1214.67 -1.79677 5.72255 0
M  V30 12474 H 1216.34 -1.57708 6.27485 0
M  V30 12475 N 1216.48 -1.54033 -0.333429 0
M  V30 12476 C 1217.89 -1.63107 -0.908455 0
M  V30 12477 C 1218.24 -0.518823 -1.89216 0
M  V30 12478 O 1217.36 0.34985 -2.13553 0
M  V30 12479 C 1217.96 -2.95657 -1.65447 0
M  V30 12480 C 1216.52 -3.0696 -2.17836 0
M  V30 12481 C 1215.66 -2.58617 -1.00063 0
M  V30 12482 H 1218.62 -1.58309 -0.11128 0
M  V30 12483 H 1218.64 -2.85263 -2.51804 0
M  V30 12484 H 1218.15 -3.76588 -0.938263 0
M  V30 12485 H 1216.25 -2.30683 -2.92602 0
M  V30 12486 H 1216.36 -4.12599 -2.43513 0
M  V30 12487 H 1214.73 -2.1427 -1.37697 0
M  V30 12488 H 1215.51 -3.41996 -0.298901 0
M  V30 12489 N 1217.95 0.594978 -1.45938 0
M  V30 12490 C 1218.88 1.71536 -1.58422 0
M  V30 12491 C 1219.87 1.64441 -0.435116 0
M  V30 12492 O 1221.05 1.82647 -0.659839 0
M  V30 12493 C 1218.18 3.10163 -1.56257 0
M  V30 12494 C 1217.13 3.3208 -2.70013 0
M  V30 12495 C 1216.46 4.71108 -2.52905 0
M  V30 12496 C 1217.76 3.21105 -4.11933 0
M  V30 12497 H 1219.45 1.61344 -2.52207 0
M  V30 12498 H 1217 0.774791 -1.2138 0
M  V30 12499 H 1218.95 3.88352 -1.63587 0
M  V30 12500 H 1217.68 3.21225 -0.590093 0
M  V30 12501 H 1216.34 2.56286 -2.62132 0
M  V30 12502 H 1215.98 4.7892 -1.53768 0
M  V30 12503 H 1215.68 4.86727 -3.29197 0
M  V30 12504 H 1217.21 5.51482 -2.62107 0
M  V30 12505 H 1218.62 3.89153 -4.2099 0
M  V30 12506 H 1217.02 3.4825 -4.88715 0
M  V30 12507 H 1218.09 2.18359 -4.32952 0
M  V30 12508 N 1219.43 1.33438 0.838571 0
M  V30 12509 C 1220.4 1.23632 1.92997 0
M  V30 12510 C 1221.4 0.155302 1.60048 0
M  V30 12511 O 1222.59 0.406852 1.69382 0
M  V30 12512 C 1219.72 0.90512 3.28665 0
M  V30 12513 H 1220.91 2.20643 2.03117 0
M  V30 12514 H 1218.46 1.17501 1.03069 0
M  V30 12515 H 1219.2 -0.0624833 3.2424 0
M  V30 12516 H 1218.98 1.68688 3.53959 0
M  V30 12517 H 1220.47 0.861262 4.08622 0
M  V30 12518 N 1220.91 -1.05686 1.16912 0
M  V30 12519 C 1221.82 -2.16824 0.8958 0
M  V30 12520 C 1222.84 -1.73482 -0.134215 0
M  V30 12521 O 1224.01 -2.01352 0.0438776 0
M  V30 12522 C 1221.08 -3.44298 0.407427 0
M  V30 12523 C 1220.14 -4.02114 1.50342 0
M  V30 12524 C 1219.37 -5.23503 1.03826 0
M  V30 12525 O 1219.59 -5.70295 -0.109579 0
M  V30 12526 O 1218.53 -5.73432 1.8292 0
M  V30 12527 H 1222.35 -2.42725 1.82533 0
M  V30 12528 H 1219.94 -1.15339 0.949589 0
M  V30 12529 H 1221.82 -4.21159 0.142356 0
M  V30 12530 H 1220.5 -3.19908 -0.494009 0
M  V30 12531 H 1219.4 -3.26715 1.82231 0
M  V30 12532 H 1220.74 -4.30811 2.38039 0
M  V30 12533 N 1222.39 -0.968567 -1.24324 0
M  V30 12534 C 1223.32 -0.457247 -2.24593 0
M  V30 12535 C 1224.33 0.434483 -1.56895 0
M  V30 12536 O 1225.52 0.240519 -1.76872 0
M  V30 12537 C 1222.62 0.359086 -3.36992 0
M  V30 12538 C 1221.8 -0.522945 -4.34263 0
M  V30 12539 C 1220.85 0.237528 -5.25664 0
M  V30 12540 O 1219.88 -0.368835 -5.68004 0
M  V30 12541 N 1221.08 1.52686 -5.6006 0
M  V30 12542 H 1223.85 -1.31934 -2.69098 0
M  V30 12543 H 1221.41 -0.840488 -1.38374 0
M  V30 12544 H 1223.4 0.87589 -3.95108 0
M  V30 12545 H 1221.97 1.12212 -2.91766 0
M  V30 12546 H 1221.19 -1.22071 -3.74823 0
M  V30 12547 H 1222.48 -1.12447 -4.96219 0
M  V30 12548 H 1221.88 2.0412 -5.2759 0
M  V30 12549 H 1220.43 1.98934 -6.207 0
M  V30 12550 N 1223.87 1.39211 -0.738786 0
M  V30 12551 C 1225.14 1.9442 -0.214533 0
M  V30 12552 C 1225.52 1.67528 1.28443 0
M  V30 12553 O 1224.87 1.0056 2.05183 0
M  V30 12554 C 1225.08 3.44603 -0.552232 0
M  V30 12555 C 1226.43 4.21602 -0.503663 0
M  V30 12556 O 1227.45 3.52819 -0.489647 0
M  V30 12557 O 1226.31 5.44194 -0.50153 0
M  V30 12558 H 1223.41 0.826011 -0.0404247 0
M  V30 12559 H 1225.95 1.48689 -0.817902 0
M  V30 12560 H 1224.72 3.57626 -1.58806 0
M  V30 12561 H 1224.35 3.9752 0.0799096 0
M  V30 12562 N 1225.34 0.486708 1.49896 0
M  V30 12563 C 1226.76 0.141788 1.58969 0
M  V30 12564 C 1226.96 -1.35279 1.49338 0
M  V30 12565 O 1226.02 -2.1275 1.35992 0
M  V30 12566 C 1227.33 0.70588 2.92297 0
M  V30 12567 C 1228.88 0.670704 3.0573 0
M  V30 12568 C 1229.35 1.21261 4.41656 0
M  V30 12569 N 1230.84 1.17269 4.4811 0
M  V30 12570 C 1231.58 1.56233 5.51705 0
M  V30 12571 N 1231.07 2.02721 6.62477 0
M  V30 12572 N 1232.87 1.47738 5.42337 0
M  V30 12573 H 1225.02 1.45858 1.544 0
M  V30 12574 H 1227.28 0.604137 0.730563 0
M  V30 12575 H 1226.99 1.7535 3.04869 0
M  V30 12576 H 1226.86 0.158215 3.76868 0
M  V30 12577 H 1229.25 -0.368041 2.92796 0
M  V30 12578 H 1229.33 1.25535 2.22878 0
M  V30 12579 H 1228.97 2.25006 4.5534 0
M  V30 12580 H 1228.9 0.604031 5.23124 0
M  V30 12581 H 1231.39 0.831905 3.6863 0
M  V30 12582 H 1231.71 2.3056 7.37606 0
M  V30 12583 H 1230.05 2.06686 6.63556 0
M  V30 12584 H 1233.24 1.11249 4.54688 0
M  V30 12585 H 1233.42 1.78429 6.2295 0
M  V30 12586 N 1226.82 -1.56058 0.219941 0
M  V30 12587 C 1227.73 -2.23844 -0.70222 0
M  V30 12588 C 1228.75 -1.24554 -1.215 0
M  V30 12589 O 1229.93 -1.57362 -1.25695 0
M  V30 12590 C 1226.99 -2.90384 -1.89416 0
M  V30 12591 C 1226.05 -4.05012 -1.42351 0
M  V30 12592 C 1225.28 -4.68369 -2.55863 0
M  V30 12593 O 1225.51 -4.3071 -3.73958 0
M  V30 12594 O 1224.44 -5.5739 -2.27157 0
M  V30 12595 H 1228.27 -3.03305 -0.15478 0
M  V30 12596 H 1225.85 -1.49396 -0.010438 0
M  V30 12597 H 1227.73 -3.32389 -2.59028 0
M  V30 12598 H 1226.41 -2.13883 -2.42973 0
M  V30 12599 H 1225.32 -3.67579 -0.695448 0
M  V30 12600 H 1226.65 -4.83251 -0.934332 0
M  V30 12601 N 1228.3 0.053464 -1.57509 0
M  V30 12602 C 1229.26 1.04604 -2.03938 0
M  V30 12603 C 1230.26 1.30509 -0.939357 0
M  V30 12604 O 1231.45 1.25922 -1.20371 0
M  V30 12605 C 1228.59 2.38516 -2.43563 0
M  V30 12606 H 1229.78 0.645484 -2.92871 0
M  V30 12607 H 1227.33 0.299683 -1.534 0
M  V30 12608 H 1228.07 2.83368 -1.57712 0
M  V30 12609 H 1227.85 2.2105 -3.23851 0
M  V30 12610 H 1229.34 3.09826 -2.79996 0
M  V30 12611 N 1229.78 1.54207 0.325255 0
M  V30 12612 C 1231.03 1.72331 1.0634 0
M  V30 12613 C 1231.35 0.496115 1.88066 0
M  V30 12614 O 1230.61 -0.52214 1.88606 0
M  V30 12615 C 1230.91 2.95 2.01766 0
M  V30 12616 C 1230.57 4.29835 1.36208 0
M  V30 12617 C 1229.24 4.66493 1.18059 0
M  V30 12618 C 1231.59 5.13521 0.891404 0
M  V30 12619 C 1228.92 5.84436 0.514894 0
M  V30 12620 C 1231.27 6.32146 0.239534 0
M  V30 12621 C 1229.93 6.67484 0.0458839 0
M  V30 12622 H 1229.2 0.630605 0.389125 0
M  V30 12623 H 1231.85 1.88445 0.34072 0
M  V30 12624 H 1230.15 2.73567 2.80479 0
M  V30 12625 H 1231.85 3.06217 2.58906 0
M  V30 12626 H 1228.44 4.00993 1.51335 0
M  V30 12627 H 1232.63 4.85718 1.01941 0
M  V30 12628 H 1227.88 6.10376 0.353644 0
M  V30 12629 H 1232.06 6.96273 -0.133185 0
M  V30 12630 H 1229.68 7.58733 -0.471978 0
M  V30 12631 N 1231.26 -0.58723 1.46251 0
M  V30 12632 C 1232.22 -1.67863 1.5606 0
M  V30 12633 C 1233.22 -1.54715 0.438162 0
M  V30 12634 O 1234.41 -1.59415 0.702323 0
M  V30 12635 C 1231.54 -3.07262 1.47659 0
M  V30 12636 H 1232.74 -1.60525 2.53321 0
M  V30 12637 H 1230.29 -0.804691 1.33994 0
M  V30 12638 H 1231.02 -3.20159 0.5166 0
M  V30 12639 H 1230.81 -3.18213 2.29092 0
M  V30 12640 H 1232.3 -3.8672 1.57599 0
M  V30 12641 N 1232.74 -1.33881 -0.831482 0
M  V30 12642 C 1233.98 -1.25755 -1.58719 0
M  V30 12643 C 1234.31 0.174746 -1.93713 0
M  V30 12644 O 1233.57 1.13384 -1.59507 0
M  V30 12645 C 1233.86 -2.08544 -2.90249 0
M  V30 12646 C 1233.53 -3.57651 -2.74585 0
M  V30 12647 C 1232.19 -3.983 -2.7002 0
M  V30 12648 C 1234.54 -4.52369 -2.58866 0
M  V30 12649 C 1231.87 -5.31872 -2.47647 0
M  V30 12650 C 1234.22 -5.86112 -2.38025 0
M  V30 12651 C 1232.89 -6.25934 -2.31867 0
M  V30 12652 H 1232.16 -0.460171 -0.580796 0
M  V30 12653 H 1234.81 -1.6554 -0.96274 0
M  V30 12654 H 1233.11 -1.6156 -3.56939 0
M  V30 12655 H 1234.81 -1.99609 -3.47789 0
M  V30 12656 H 1231.4 -3.2538 -2.78973 0
M  V30 12657 H 1235.58 -4.21868 -2.61421 0
M  V30 12658 H 1230.84 -5.61756 -2.41331 0
M  V30 12659 H 1235.01 -6.59103 -2.24847 0
M  V30 12660 H 1232.64 -7.29372 -2.14291 0
M  V30 12661 N 1234.21 1.05064 -1.1747 0
M  V30 12662 C 1235.44 1.81761 -0.988464 0
M  V30 12663 C 1235.86 1.83028 0.463272 0
M  V30 12664 O 1235.21 1.25846 1.32171 0
M  V30 12665 C 1235.26 3.2782 -1.5237 0
M  V30 12666 O 1234.99 3.26726 -2.91859 0
M  V30 12667 C 1236.49 4.212 -1.38223 0
M  V30 12668 H 1233.71 0.572712 -0.349631 0
M  V30 12669 H 1236.25 1.32477 -1.55789 0
M  V30 12670 H 1234.41 3.7437 -0.996272 0
M  V30 12671 H 1234.82 4.18151 -3.16623 0
M  V30 12672 H 1236.29 5.2166 -1.80485 0
M  V30 12673 H 1236.77 4.37962 -0.329491 0
M  V30 12674 H 1237.38 3.80506 -1.89988 0
M  V30 12675 N 1235.69 0.975146 1.23809 0
M  V30 12676 C 1236.62 0.530389 2.27396 0
M  V30 12677 C 1237.6 -0.433763 1.64476 0
M  V30 12678 O 1238.79 -0.32827 1.91405 0
M  V30 12679 C 1235.92 -0.173066 3.46869 0
M  V30 12680 C 1234.87 0.707844 4.22106 0
M  V30 12681 C 1234.2 -0.127527 5.34548 0
M  V30 12682 C 1235.5 1.99609 4.82652 0
M  V30 12683 H 1237.19 1.39622 2.64851 0
M  V30 12684 H 1234.74 0.672802 1.27316 0
M  V30 12685 H 1236.69 -0.495481 4.18477 0
M  V30 12686 H 1235.41 -1.0733 3.0846 0
M  V30 12687 H 1234.07 1.01364 3.52308 0
M  V30 12688 H 1233.72 -1.02814 4.9238 0
M  V30 12689 H 1233.42 0.458728 5.85807 0
M  V30 12690 H 1234.95 -0.444443 6.0898 0
M  V30 12691 H 1236.36 1.73878 5.46296 0
M  V30 12692 H 1234.76 2.52969 5.44175 0
M  V30 12693 H 1235.83 2.68629 4.03691 0
M  V30 12694 N 1237.17 -1.38817 0.746158 0
M  V30 12695 C 1238.58 -1.83045 0.367629 0
M  V30 12696 C 1238.93 -1.62285 -1.10263 0
M  V30 12697 O 1238.06 -1.12001 -1.85162 0
M  V30 12698 C 1238.65 -3.323 0.660482 0
M  V30 12699 C 1237.21 -3.74903 0.335318 0
M  V30 12700 C 1236.36 -2.61683 0.917446 0
M  V30 12701 H 1239.31 -1.27651 0.94291 0
M  V30 12702 H 1239.33 -3.80446 -0.0639061 0
M  V30 12703 H 1238.84 -3.47377 1.73062 0
M  V30 12704 H 1236.94 -3.65408 -0.728538 0
M  V30 12705 H 1237.06 -4.71932 0.825677 0
M  V30 12706 H 1235.42 -2.52376 0.343316 0
M  V30 12707 H 1236.2 -2.79563 1.99247 0
M  V30 12708 N 1238.65 -0.49465 -1.49636 0
M  V30 12709 C 1239.87 0.051305 -2.07337 0
M  V30 12710 C 1240.3 1.30637 -1.35335 0
M  V30 12711 O 1239.66 1.76647 -0.408126 0
M  V30 12712 C 1239.7 0.294425 -3.59396 0
M  V30 12713 O 1238.81 1.3704 -3.88965 0
M  V30 12714 H 1238.15 -0.023408 -0.663587 0
M  V30 12715 H 1240.68 -0.692451 -1.92526 0
M  V30 12716 H 1240.69 0.527854 -4.04571 0
M  V30 12717 H 1239.36 -0.622583 -4.11214 0
M  V30 12718 H 1237.94 1.12242 -3.55607 0
M  V30 12719 N 1240.13 1.55939 -0.228214 0
M  V30 12720 C 1241.37 1.9877 0.402272 0
M  V30 12721 C 1241.7 1.11587 1.5894 0
M  V30 12722 O 1240.98 0.175032 1.93711 0
M  V30 12723 C 1241.26 3.50396 0.830353 0
M  V30 12724 C 1241.12 4.4835 -0.360876 0
M  V30 12725 C 1242.43 4.06602 1.68413 0
M  V30 12726 H 1239.55 0.722646 0.144746 0
M  V30 12727 H 1242.2 1.87186 -0.325784 0
M  V30 12728 H 1240.35 3.60398 1.4507 0
M  V30 12729 H 1242.02 4.5035 -0.999113 0
M  V30 12730 H 1240.26 4.21946 -1.00719 0
M  V30 12731 H 1240.93 5.51997 -0.0183074 0
M  V30 12732 H 1243.41 3.99585 1.16064 0
M  V30 12733 H 1242.28 5.12998 1.95254 0
M  V30 12734 H 1242.54 3.53897 2.64971 0
M  V30 12735 N 1241.6 -0.0451101 1.57535 0
M  V30 12736 C 1242.55 -1.0692 2.06569 0
M  V30 12737 C 1243.55 -1.38443 0.976218 0
M  V30 12738 O 1244.75 -1.37536 1.1612 0
M  V30 12739 H 1241.13 -0.36226 0.658993 0
M  V30 12740 H 1243.1 -0.629709 2.9168 0
M  V30 12741 C 1241.85 -2.36656 2.54733 0
M  V30 12742 H 1241.17 -2.13257 3.38174 0
M  V30 12743 H 1242.61 -3.06696 2.92769 0
M  V30 12744 C 1241.07 -3.04499 1.4416 0
M  V30 12745 O 1241.6 -3.93679 0.798721 0
M  V30 12746 N 1239.81 -2.6556 1.18009 0
M  V30 12747 H 1239.35 -1.93126 1.7047 0
M  V30 12748 H 1239.31 -3.11272 0.442363 0
M  V30 12749 N 1243.08 -1.54377 -0.317073 0
M  V30 12750 C 1244.03 -1.84948 -1.41057 0
M  V30 12751 C 1245.02 -0.721887 -1.53249 0
M  V30 12752 O 1246.23 -0.905648 -1.55557 0
M  V30 12753 H 1242.61 -0.586353 -0.470844 0
M  V30 12754 H 1244.58 -2.7638 -1.12501 0
M  V30 12755 C 1243.33 -2.09932 -2.77171 0
M  V30 12756 H 1242.65 -2.96162 -2.68566 0
M  V30 12757 H 1244.09 -2.35272 -3.52737 0
M  V30 12758 C 1242.55 -0.892855 -3.24853 0
M  V30 12759 O 1243.08 -0.105336 -4.01562 0
M  V30 12760 N 1241.28 -0.702685 -2.81976 0
M  V30 12761 H 1240.83 -1.34474 -2.19715 0
M  V30 12762 H 1240.79 0.103024 -3.14231 0
M  V30 12763 N 1244.56 0.579466 -1.4656 0
M  V30 12764 C 1245.49 1.70291 -1.53406 0
M  V30 12765 C 1246.51 1.57232 -0.422116 0
M  V30 12766 O 1247.69 1.64598 -0.69064 0
M  V30 12767 C 1244.79 3.08572 -1.40131 0
M  V30 12768 C 1243.97 3.47602 -2.65502 0
M  V30 12769 C 1243.03 4.64955 -2.4638 0
M  V30 12770 O 1242.05 4.70653 -3.20116 0
M  V30 12771 N 1243.25 5.60041 -1.52756 0
M  V30 12772 H 1246.02 1.64873 -2.50274 0
M  V30 12773 H 1243.58 0.765533 -1.42658 0
M  V30 12774 H 1245.57 3.84877 -1.25106 0
M  V30 12775 H 1244.14 3.0834 -0.514322 0
M  V30 12776 H 1243.36 2.60969 -2.95446 0
M  V30 12777 H 1244.65 3.70446 -3.48779 0
M  V30 12778 H 1244.05 5.58176 -0.919587 0
M  V30 12779 H 1242.61 6.35764 -1.43693 0
M  V30 12780 N 1246.04 1.3432 0.824371 0
M  V30 12781 C 1247 1.25672 1.91675 0
M  V30 12782 C 1248 0.172269 1.59875 0
M  V30 12783 O 1249.19 0.424794 1.68941 0
M  V30 12784 C 1246.32 0.939928 3.27686 0
M  V30 12785 H 1247.52 2.22785 2.00766 0
M  V30 12786 H 1245.07 1.18587 1.01817 0
M  V30 12787 H 1245.8 -0.0280898 3.24288 0
M  V30 12788 H 1245.59 1.72432 3.5215 0
M  V30 12789 H 1247.08 0.904553 4.07686 0
M  V30 12790 N 1247.52 -1.0444 1.18026 0
M  V30 12791 C 1248.93 -1.5903 0.978076 0
M  V30 12792 C 1249.28 -1.90407 -0.473241 0
M  V30 12793 O 1248.4 -1.69133 -1.34992 0
M  V30 12794 C 1249 -2.88942 1.76912 0
M  V30 12795 C 1247.56 -3.40164 1.61139 0
M  V30 12796 C 1246.7 -2.13797 1.76596 0
M  V30 12797 H 1249.66 -0.871574 1.32625 0
M  V30 12798 H 1249.68 -3.59173 1.25598 0
M  V30 12799 H 1249.19 -2.66074 2.82535 0
M  V30 12800 H 1247.29 -3.68053 0.580353 0
M  V30 12801 H 1247.4 -4.14241 2.40709 0
M  V30 12802 H 1245.77 -2.24922 1.19507 0
M  V30 12803 H 1246.55 -1.93389 2.83647 0
M  V30 12804 N 1248.99 -0.981699 -1.2329 0
M  V30 12805 C 1249.96 -0.527992 -2.23036 0
M  V30 12806 C 1250.96 0.383083 -1.5617 0
M  V30 12807 O 1252.15 0.176595 -1.73303 0
M  V30 12808 C 1249.28 0.233501 -3.40099 0
M  V30 12809 H 1250.47 -1.40995 -2.64689 0
M  V30 12810 H 1248.03 -0.767724 -1.36146 0
M  V30 12811 H 1248.76 1.13194 -3.03904 0
M  V30 12812 H 1248.55 -0.420505 -3.89839 0
M  V30 12813 H 1250.04 0.539485 -4.14101 0
M  V30 12814 N 1250.47 1.3842 -0.753509 0
M  V30 12815 C 1251.89 1.53668 -0.431095 0
M  V30 12816 C 1252.09 1.71626 1.05578 0
M  V30 12817 O 1251.14 1.72723 1.84182 0
M  V30 12818 C 1252.46 2.74381 -1.23027 0
M  V30 12819 C 1254.01 2.8823 -1.22034 0
M  V30 12820 C 1254.48 4.11904 -2.00248 0
M  V30 12821 N 1255.97 4.18981 -1.97508 0
M  V30 12822 C 1256.71 5.13667 -2.5482 0
M  V30 12823 N 1256.2 6.14027 -3.20846 0
M  V30 12824 N 1258 5.06017 -2.44751 0
M  V30 12825 H 1250.15 1.25012 -1.71714 0
M  V30 12826 H 1252.41 0.607296 -0.727939 0
M  V30 12827 H 1252.12 2.67515 -2.28317 0
M  V30 12828 H 1251.99 3.67565 -0.847098 0
M  V30 12829 H 1254.38 2.94578 -0.175502 0
M  V30 12830 H 1254.46 1.96057 -1.64303 0
M  V30 12831 H 1254.1 4.06318 -3.04742 0
M  V30 12832 H 1254.03 5.03157 -1.55373 0
M  V30 12833 H 1256.52 3.47104 -1.49423 0
M  V30 12834 H 1256.84 6.82771 -3.61999 0
M  V30 12835 H 1255.18 6.1436 -3.24941 0
M  V30 12836 H 1258.37 4.26552 -1.92797 0
M  V30 12837 H 1258.54 5.7963 -2.89713 0
M  V30 12838 N 1251.95 0.502579 1.49372 0
M  V30 12839 C 1253.37 0.158641 1.5881 0
M  V30 12840 C 1253.57 -1.33688 1.50764 0
M  V30 12841 O 1252.62 -2.11295 1.38241 0
M  V30 12842 C 1253.94 0.736843 2.91532 0
M  V30 12843 C 1255.48 0.703093 3.05001 0
M  V30 12844 C 1255.96 1.25938 4.40345 0
M  V30 12845 N 1257.45 1.22015 4.46841 0
M  V30 12846 C 1258.18 1.62076 5.50017 0
M  V30 12847 N 1257.68 2.09736 6.6029 0
M  V30 12848 N 1259.47 1.53482 5.4074 0
M  V30 12849 H 1251.62 1.47487 1.52844 0
M  V30 12850 H 1253.89 0.611851 0.724115 0
M  V30 12851 H 1253.59 1.78573 3.02992 0
M  V30 12852 H 1253.47 0.198178 3.76679 0
M  V30 12853 H 1255.85 -0.336965 2.9317 0
M  V30 12854 H 1255.94 1.27892 2.21534 0
M  V30 12855 H 1255.58 2.29823 4.52928 0
M  V30 12856 H 1255.51 0.659481 5.22454 0
M  V30 12857 H 1258 0.870957 3.67726 0
M  V30 12858 H 1258.31 2.3837 7.35119 0
M  V30 12859 H 1256.66 2.13712 6.61326 0
M  V30 12860 H 1259.85 1.16065 4.53483 0
M  V30 12861 H 1260.02 1.85026 6.21023 0
M  V30 12862 N 1253.43 -1.55816 0.23648 0
M  V30 12863 C 1254.68 -1.98686 -0.391146 0
M  V30 12864 C 1255 -1.12443 -1.58703 0
M  V30 12865 O 1254.26 -0.172805 -1.94936 0
M  V30 12866 C 1254.56 -3.47039 -0.85434 0
M  V30 12867 C 1254.22 -4.50299 0.232651 0
M  V30 12868 C 1252.89 -4.78259 0.531218 0
M  V30 12869 C 1255.24 -5.1215 0.967027 0
M  V30 12870 C 1252.57 -5.65347 1.56842 0
M  V30 12871 C 1254.92 -6.00363 1.99367 0
M  V30 12872 C 1253.58 -6.2666 2.299 0
M  V30 12873 H 1252.85 -0.727045 -0.14313 0
M  V30 12874 H 1255.5 -1.88419 0.342125 0
M  V30 12875 H 1253.8 -3.54585 -1.66663 0
M  V30 12876 H 1255.5 -3.7759 -1.35005 0
M  V30 12877 H 1252.09 -4.28599 -0.0102014 0
M  V30 12878 H 1256.27 -4.90606 0.749609 0
M  V30 12879 H 1251.53 -5.83981 1.81043 0
M  V30 12880 H 1255.7 -6.47335 2.56769 0
M  V30 12881 H 1253.33 -6.93938 3.1041 0
M  V30 12882 N 1254.91 0.036755 -1.57557 0
M  V30 12883 C 1255.84 1.06718 -2.0284 0
M  V30 12884 C 1256.85 1.32926 -0.939917 0
M  V30 12885 O 1258.04 1.30549 -1.21734 0
M  V30 12886 C 1255.14 2.41054 -2.38214 0
M  V30 12887 C 1254.31 2.3431 -3.69347 0
M  V30 12888 C 1253.37 3.51034 -3.91997 0
M  V30 12889 O 1252.4 3.30875 -4.63152 0
M  V30 12890 N 1253.6 4.72634 -3.37042 0
M  V30 12891 H 1256.37 0.681275 -2.91854 0
M  V30 12892 H 1253.93 0.224836 -1.60331 0
M  V30 12893 H 1255.92 3.17847 -2.5051 0
M  V30 12894 H 1254.49 2.71517 -1.5491 0
M  V30 12895 H 1253.71 1.42668 -3.67477 0
M  V30 12896 H 1255 2.2694 -4.55385 0
M  V30 12897 H 1254.39 4.91914 -2.79352 0
M  V30 12898 H 1252.95 5.46818 -3.5473 0
M  V30 12899 N 1256.39 1.54543 0.308881 0
M  V30 12900 C 1257.63 1.74639 1.04273 0
M  V30 12901 C 1257.99 0.521584 1.85195 0
M  V30 12902 O 1257.28 -0.486029 1.85333 0
M  V30 12903 C 1257.47 2.97124 1.98626 0
M  V30 12904 C 1257.3 4.31399 1.26983 0
M  V30 12905 C 1256.07 4.95301 1.00025 0
M  V30 12906 C 1258.27 5.09808 0.67827 0
M  V30 12907 N 1256.25 6.13377 0.253269 0
M  V30 12908 C 1257.62 6.19967 0.0636574 0
M  V30 12909 C 1259.68 4.9448 0.582538 0
M  V30 12910 C 1258.38 7.1647 -0.637416 0
M  V30 12911 C 1260.41 5.91307 -0.104864 0
M  V30 12912 C 1259.77 7.00829 -0.70836 0
M  V30 12913 H 1255.87 0.691718 0.36476 0
M  V30 12914 H 1258.45 1.92015 0.322233 0
M  V30 12915 H 1256.62 2.81187 2.67934 0
M  V30 12916 H 1258.36 3.05781 2.65104 0
M  V30 12917 H 1255.11 4.55512 1.29638 0
M  V30 12918 H 1255.53 6.76916 -0.106505 0
M  V30 12919 H 1260.18 4.0994 1.03483 0
M  V30 12920 H 1257.89 8.00558 -1.1015 0
M  V30 12921 H 1261.48 5.81525 -0.178774 0
M  V30 12922 H 1260.36 7.74465 -1.23182 0
M  V30 12923 N 1257.86 -0.571685 1.46866 0
M  V30 12924 C 1258.81 -1.67992 1.58263 0
M  V30 12925 C 1259.78 -1.60535 0.426345 0
M  V30 12926 O 1260.97 -1.79584 0.644534 0
M  V30 12927 C 1258.11 -3.06327 1.58927 0
M  V30 12928 C 1257.22 -3.24328 2.85369 0
M  V30 12929 C 1256.35 -4.52976 2.77464 0
M  V30 12930 C 1255.39 -4.64359 3.98795 0
M  V30 12931 N 1254.53 -5.84345 3.89211 0
M  V30 12932 H 1259.37 -1.57589 2.52922 0
M  V30 12933 H 1256.91 -0.767883 1.25467 0
M  V30 12934 H 1258.86 -3.86411 1.57296 0
M  V30 12935 H 1257.49 -3.15601 0.677912 0
M  V30 12936 H 1256.55 -2.37774 2.96931 0
M  V30 12937 H 1257.86 -3.28605 3.7526 0
M  V30 12938 H 1257.01 -5.41303 2.74001 0
M  V30 12939 H 1255.75 -4.51155 1.85231 0
M  V30 12940 H 1254.76 -3.74448 4.02578 0
M  V30 12941 H 1255.98 -4.6795 4.92137 0
M  V30 12942 H 1253.93 -5.835 2.99772 0
M  V30 12943 H 1253.84 -5.89938 4.72768 0
M  V30 12944 H 1255.11 -6.75072 3.89741 0
M  V30 12945 N 1259.34 -1.34755 -0.817236 0
M  V30 12946 C 1260.59 -1.2762 -1.5761 0
M  V30 12947 C 1260.92 0.152017 -1.93604 0
M  V30 12948 O 1260.2 1.09881 -1.60488 0
M  V30 12949 C 1260.48 -2.17251 -2.87183 0
M  V30 12950 C 1260.33 -3.68638 -2.57733 0
M  V30 12951 C 1261.65 -2.06206 -3.88802 0
M  V30 12952 H 1258.77 -0.464933 -0.571845 0
M  V30 12953 H 1261.41 -1.6506 -0.941028 0
M  V30 12954 H 1259.56 -1.85452 -3.41379 0
M  V30 12955 H 1261.23 -4.10829 -2.09802 0
M  V30 12956 H 1259.48 -3.89445 -1.91089 0
M  V30 12957 H 1260.15 -4.26726 -3.50156 0
M  V30 12958 H 1262.62 -2.34137 -3.43975 0
M  V30 12959 H 1261.5 -2.71136 -4.77259 0
M  V30 12960 H 1261.76 -1.04075 -4.29675 0
M  V30 12961 N 1260.82 1.03812 -1.18578 0
M  V30 12962 C 1261.75 2.13802 -0.938665 0
M  V30 12963 C 1262.73 1.69643 0.124575 0
M  V30 12964 O 1263.92 1.94179 -0.0285421 0
M  V30 12965 C 1261.05 3.44154 -0.466392 0
M  V30 12966 C 1260 4.01949 -1.47041 0
M  V30 12967 C 1259.33 5.27811 -0.855558 0
M  V30 12968 C 1260.63 4.37827 -2.84789 0
M  V30 12969 H 1262.32 2.34732 -1.85852 0
M  V30 12970 H 1259.87 1.12808 -0.895007 0
M  V30 12971 H 1261.82 4.20463 -0.280856 0
M  V30 12972 H 1260.54 3.22918 0.489041 0
M  V30 12973 H 1259.2 3.27725 -1.64293 0
M  V30 12974 H 1258.85 5.02886 0.107142 0
M  V30 12975 H 1258.55 5.67441 -1.52592 0
M  V30 12976 H 1260.07 6.06795 -0.680609 0
M  V30 12977 H 1261.49 5.05112 -2.71173 0
M  V30 12978 H 1259.88 4.88514 -3.48532 0
M  V30 12979 H 1260.95 3.47541 -3.38147 0
M  V30 12980 N 1262.3 0.988223 1.22768 0
M  V30 12981 C 1263.71 0.697281 1.7319 0
M  V30 12982 C 1264.06 -0.786111 1.79763 0
M  V30 12983 O 1263.18 -1.61465 1.44077 0
M  V30 12984 C 1263.78 1.25905 3.14537 0
M  V30 12985 C 1262.34 1.01759 3.62384 0
M  V30 12986 C 1261.49 1.38207 2.40404 0
M  V30 12987 H 1264.44 1.16114 1.08181 0
M  V30 12988 H 1264.46 0.635315 3.75159 0
M  V30 12989 H 1263.97 2.33869 3.09721 0
M  V30 12990 H 1262.07 -0.045627 3.72572 0
M  V30 12991 H 1262.18 1.67767 4.48766 0
M  V30 12992 H 1260.55 0.800607 2.4179 0
M  V30 12993 H 1261.33 2.47165 2.38253 0
M  V30 12994 N 1263.78 -1.38018 0.760839 0
M  V30 12995 C 1264.71 -2.2899 0.0980916 0
M  V30 12996 C 1265.72 -1.48102 -0.675985 0
M  V30 12997 O 1266.91 -1.70883 -0.515878 0
M  V30 12998 C 1264.01 -3.27142 -0.884959 0
M  V30 12999 C 1263.18 -4.37081 -0.167 0
M  V30 13000 C 1262.24 -5.15375 -1.06184 0
M  V30 13001 O 1261.27 -5.6673 -0.529667 0
M  V30 13002 N 1262.47 -5.29052 -2.38924 0
M  V30 13003 H 1265.23 -2.86508 0.879403 0
M  V30 13004 H 1262.8 -1.49877 0.612245 0
M  V30 13005 H 1264.79 -3.764 -1.48678 0
M  V30 13006 H 1263.36 -2.70471 -1.5673 0
M  V30 13007 H 1262.58 -3.89363 0.615617 0
M  V30 13008 H 1263.87 -5.07732 0.329525 0
M  V30 13009 H 1263.26 -4.88892 -2.84607 0
M  V30 13010 H 1261.82 -5.81658 -2.94139 0
M  V30 13011 N 1265.25 -0.510493 -1.49103 0
M  V30 13012 C 1266.5 0.0305831 -2.02077 0
M  V30 13013 C 1266.82 1.36602 -1.39157 0
M  V30 13014 O 1266.09 1.88016 -0.550154 0
M  V30 13015 H 1264.67 0.0142916 -0.746863 0
M  V30 13016 H 1267.33 -0.669895 -1.83026 0
M  V30 13017 H 1266.43 0.153283 -3.11723 0
M  V30 13018 N 1266.73 1.55688 -0.24474 0
M  V30 13019 C 1267.66 2.17317 0.696311 0
M  V30 13020 C 1268.64 1.12456 1.17441 0
M  V30 13021 O 1269.83 1.40832 1.25294 0
M  V30 13022 C 1266.95 2.77211 1.94606 0
M  V30 13023 C 1266 3.95107 1.60602 0
M  V30 13024 S 1266.83 5.30765 0.710525 0
M  V30 13025 C 1267.99 5.94111 1.96933 0
M  V30 13026 H 1268.22 2.96799 0.172566 0
M  V30 13027 H 1265.75 1.54372 -0.0292155 0
M  V30 13028 H 1267.71 3.12355 2.66354 0
M  V30 13029 H 1266.37 1.9768 2.44093 0
M  V30 13030 H 1265.57 4.35598 2.53517 0
M  V30 13031 H 1265.17 3.61229 0.968986 0
M  V30 13032 H 1267.46 6.11496 2.91682 0
M  V30 13033 H 1268.4 6.89602 1.60794 0
M  V30 13034 H 1268.81 5.23161 2.12043 0
M  V30 13035 N 1268.21 -0.0283989 1.57574 0
M  V30 13036 C 1269.44 -0.730831 1.93563 0
M  V30 13037 C 1269.85 -1.68857 0.844556 0
M  V30 13038 O 1269.21 -1.8162 -0.178971 0
M  V30 13039 C 1269.26 -1.48731 3.29486 0
M  V30 13040 O 1268.98 -0.568017 4.34402 0
M  V30 13041 C 1270.48 -2.28684 3.79761 0
M  V30 13042 H 1267.7 -0.205346 0.638807 0
M  V30 13043 H 1270.25 0.0142728 2.04495 0
M  V30 13044 H 1268.4 -2.18429 3.19949 0
M  V30 13045 H 1268.82 -1.09861 5.12865 0
M  V30 13046 H 1270.29 -2.77157 4.77376 0
M  V30 13047 H 1270.77 -3.10133 3.10989 0
M  V30 13048 H 1271.37 -1.64059 3.92383 0
M  V30 13049 N 1269.69 -1.54705 -0.300681 0
M  V30 13050 C 1270.93 -1.75738 -1.04381 0
M  V30 13051 C 1271.29 -0.532138 -1.84478 0
M  V30 13052 O 1272.49 -0.620213 -2.61547 0
M  V30 13053 C 1270.76 -3.01095 -1.92553 0
M  V30 13054 S 1272.32 -3.43132 -2.73507 0
M  V30 13055 H 1269.14 -0.617737 -0.352025 0
M  V30 13056 H 1271.74 -1.9291 -0.317187 0
M  V30 13057 H 1270.45 -3.88393 -1.32585 0
M  V30 13058 H 1269.98 -2.86512 -2.69582 0
M  V30 13059 H 1271.99 -3.00227 -3.95067 0
M  V30 13060 N 1271.17 0.563888 -1.47167 0
M  V30 13061 C 1272.39 1.35176 -1.57297 0
M  V30 13062 C 1272.82 1.86794 -0.221235 0
M  V30 13063 O 1272.17 1.62606 0.801809 0
M  V30 13064 C 1272.22 2.50225 -2.59654 0
M  V30 13065 O 1271.33 3.5225 -2.14461 0
M  V30 13066 H 1270.67 0.401795 -0.528637 0
M  V30 13067 H 1273.2 0.682137 -1.92894 0
M  V30 13068 H 1273.21 2.96886 -2.79862 0
M  V30 13069 H 1271.88 2.1201 -3.57805 0
M  V30 13070 H 1270.46 3.1194 -2.04323 0
M  V30 13071 N 1272.64 1.35187 0.810078 0
M  V30 13072 C 1274.06 1.25329 1.38381 0
M  V30 13073 C 1274.41 -0.115799 1.95858 0
M  V30 13074 O 1273.53 -1.01663 1.91033 0
M  V30 13075 C 1274.13 2.2693 2.51572 0
M  V30 13076 C 1272.69 2.20824 3.04818 0
M  V30 13077 C 1271.83 2.1283 1.7776 0
M  V30 13078 H 1274.78 1.46366 0.613402 0
M  V30 13079 H 1274.8 1.89375 3.30026 0
M  V30 13080 H 1274.32 3.26563 2.09709 0
M  V30 13081 H 1272.42 1.24589 3.51153 0
M  V30 13082 H 1272.53 3.12637 3.63036 0
M  V30 13083 H 1270.89 1.58752 1.99173 0
M  V30 13084 H 1271.68 3.14318 1.38054 0
M  V30 13085 N 1274.12 -1.03182 1.19127 0
M  V30 13086 C 1275.35 -1.80165 1.01726 0
M  V30 13087 C 1275.77 -1.83742 -0.434095 0
M  V30 13088 O 1275.12 -1.27932 -1.30152 0
M  V30 13089 C 1275.17 -3.25354 1.57566 0
M  V30 13090 O 1274.89 -3.22042 2.9702 0
M  V30 13091 C 1276.4 -4.18948 1.44906 0
M  V30 13092 H 1273.62 -0.567078 0.358698 0
M  V30 13093 H 1276.16 -1.29982 1.57877 0
M  V30 13094 H 1274.31 -3.72738 1.0557 0
M  V30 13095 H 1274.73 -4.13061 3.23235 0
M  V30 13096 H 1276.2 -5.18723 1.88762 0
M  V30 13097 H 1276.68 -4.37383 0.399125 0
M  V30 13098 H 1277.29 -3.77435 1.96018 0
M  V30 13099 N 1275.6 -0.99472 -1.22242 0
M  V30 13100 C 1276.85 -0.667045 -1.90351 0
M  V30 13101 C 1277.16 0.804615 -1.78284 0
M  V30 13102 O 1278.37 1.24395 -2.41326 0
M  V30 13103 C 1276.82 -1.14256 -3.41282 0
M  V30 13104 C 1276.43 -2.63958 -3.61981 0
M  V30 13105 C 1278.18 -0.889302 -4.1508 0
M  V30 13106 C 1276.08 -3.05103 -5.06622 0
M  V30 13107 H 1275.01 -0.245795 -0.712812 0
M  V30 13108 H 1277.66 -1.20452 -1.38432 0
M  V30 13109 H 1276.05 -0.533203 -3.92394 0
M  V30 13110 H 1277.22 -3.30255 -3.21354 0
M  V30 13111 H 1275.54 -2.87186 -3.01518 0
M  V30 13112 H 1278.13 -1.17239 -5.21689 0
M  V30 13113 H 1278.48 0.174556 -4.15934 0
M  V30 13114 H 1279.01 -1.46095 -3.70002 0
M  V30 13115 H 1275.75 -4.10672 -5.1091 0
M  V30 13116 H 1275.27 -2.4351 -5.48145 0
M  V30 13117 H 1276.95 -2.96506 -5.75059 0
M  V30 13118 N 1277.08 1.37613 -0.768148 0
M  V30 13119 C 1278.32 2.0162 -0.335961 0
M  V30 13120 C 1278.68 1.59659 1.06644 0
M  V30 13121 O 1279.88 2.16102 1.59854 0
M  V30 13122 C 1278.15 3.54285 -0.470802 0
M  V30 13123 S 1279.71 4.38627 -0.123347 0
M  V30 13124 H 1276.53 0.699113 -0.129467 0
M  V30 13125 H 1279.13 1.67871 -1.00197 0
M  V30 13126 H 1277.84 3.82313 -1.49215 0
M  V30 13127 H 1277.37 3.92829 0.211886 0
M  V30 13128 H 1279.38 4.84253 1.0823 0
M  V30 13129 N 1278.56 0.518393 1.4883 0
M  V30 13130 C 1279.49 -0.287642 2.27388 0
M  V30 13131 C 1280.5 -0.914974 1.34655 0
M  V30 13132 O 1281.69 -0.795373 1.598 0
M  V30 13133 C 1278.79 -1.42149 3.07647 0
M  V30 13134 C 1277.96 -0.898238 4.28078 0
M  V30 13135 C 1277.02 -1.91179 4.90242 0
M  V30 13136 O 1276.05 -1.47337 5.498 0
M  V30 13137 N 1277.25 -3.24331 4.81445 0
M  V30 13138 H 1280.02 0.386047 2.97203 0
M  V30 13139 H 1277.58 0.352002 1.58027 0
M  V30 13140 H 1279.57 -2.09745 3.46106 0
M  V30 13141 H 1278.14 -1.99903 2.40328 0
M  V30 13142 H 1277.36 -0.0466326 3.94172 0
M  V30 13143 H 1278.65 -0.527338 5.0606 0
M  V30 13144 H 1278.04 -3.62627 4.34187 0
M  V30 13145 H 1276.6 -3.87593 5.24037 0
M  V30 13146 N 1280.03 -1.55556 0.252993 0
M  V30 13147 C 1280.96 -2.24613 -0.638047 0
M  V30 13148 C 1281.95 -1.22852 -1.1765 0
M  V30 13149 O 1283.13 -1.51519 -1.21472 0
M  V30 13150 C 1280.26 -2.95029 -1.83236 0
M  V30 13151 C 1279.21 -4.03531 -1.42641 0
M  V30 13152 C 1278.54 -4.61404 -2.70204 0
M  V30 13153 C 1279.84 -5.18923 -0.592958 0
M  V30 13154 H 1281.53 -2.99335 -0.0621918 0
M  V30 13155 H 1279.08 -1.43972 -0.0284722 0
M  V30 13156 H 1281.03 -3.42042 -2.46141 0
M  V30 13157 H 1279.76 -2.17805 -2.43369 0
M  V30 13158 H 1278.42 -3.57296 -0.820672 0
M  V30 13159 H 1278.06 -3.80874 -3.28548 0
M  V30 13160 H 1277.76 -5.34652 -2.43764 0
M  V30 13161 H 1279.29 -5.11154 -3.33997 0
M  V30 13162 H 1280.7 -5.62124 -1.12646 0
M  V30 13163 H 1279.1 -5.98598 -0.424358 0
M  V30 13164 H 1280.17 -4.83301 0.393434 0
M  V30 13165 N 1281.51 0.0200419 -1.57587 0
M  V30 13166 C 1282.76 0.710078 -1.89962 0
M  V30 13167 C 1283.09 1.74521 -0.851829 0
M  V30 13168 O 1282.37 1.94052 0.132005 0
M  V30 13169 C 1282.65 1.37145 -3.32961 0
M  V30 13170 C 1282.5 0.349221 -4.48442 0
M  V30 13171 C 1283.82 2.30304 -3.75031 0
M  V30 13172 H 1280.94 0.25667 -0.690862 0
M  V30 13173 H 1283.58 -0.0271362 -1.89981 0
M  V30 13174 H 1281.73 1.99981 -3.33076 0
M  V30 13175 H 1283.4 -0.277916 -4.60462 0
M  V30 13176 H 1281.65 -0.330594 -4.32538 0
M  V30 13177 H 1282.32 0.850636 -5.45406 0
M  V30 13178 H 1284.79 1.77503 -3.7634 0
M  V30 13179 H 1283.67 2.73555 -4.75877 0
M  V30 13180 H 1283.93 3.17364 -3.07786 0
M  V30 13181 N 1282.99 1.54862 0.292472 0
M  V30 13182 C 1284.24 1.74807 1.02813 0
M  V30 13183 C 1284.57 0.536935 1.8663 0
M  V30 13184 O 1283.84 -0.465854 1.88839 0
M  V30 13185 C 1284.13 3.04202 1.927 0
M  V30 13186 C 1283.98 4.35631 1.12006 0
M  V30 13187 C 1285.3 3.29514 2.91734 0
M  V30 13188 H 1282.42 0.636015 0.372362 0
M  V30 13189 H 1285.06 1.87583 0.302069 0
M  V30 13190 H 1283.21 2.9344 2.54608 0
M  V30 13191 H 1284.88 4.58323 0.52319 0
M  V30 13192 H 1283.13 4.31733 0.42298 0
M  V30 13193 H 1283.8 5.22454 1.78172 0
M  V30 13194 H 1286.27 3.39941 2.39957 0
M  V30 13195 H 1285.15 4.21352 3.51786 0
M  V30 13196 H 1285.41 2.48216 3.65843 0
M  V30 13197 N 1284.47 -0.556076 1.47464 0
M  V30 13198 C 1285.72 -1.31061 1.53842 0
M  V30 13199 C 1286.04 -1.93943 0.202806 0
M  V30 13200 O 1285.31 -1.7999 -0.773338 0
M  V30 13201 H 1283.89 -0.486696 0.566689 0
M  V30 13202 H 1286.55 -0.64924 1.83769 0
M  V30 13203 H 1285.65 -2.10354 2.30559 0
M  V30 13204 N 1285.95 -1.35615 -0.802897 0
M  V30 13205 C 1286.88 -1.24695 -1.92312 0
M  V30 13206 C 1287.89 -0.169409 -1.61916 0
M  V30 13207 O 1289.08 -0.422995 -1.73416 0
M  V30 13208 C 1286.18 -0.898229 -3.2678 0
M  V30 13209 C 1285.35 -2.07489 -3.85054 0
M  V30 13210 C 1284.41 -1.70137 -4.97936 0
M  V30 13211 O 1283.44 -2.42057 -5.15167 0
M  V30 13212 N 1284.64 -0.627153 -5.77102 0
M  V30 13213 H 1287.41 -2.21208 -2.02205 0
M  V30 13214 H 1284.97 -1.28832 -0.980503 0
M  V30 13215 H 1286.96 -0.629766 -3.9977 0
M  V30 13216 H 1285.53 -0.0226571 -3.12592 0
M  V30 13217 H 1284.75 -2.50694 -3.04214 0
M  V30 13218 H 1286.04 -2.86133 -4.2072 0
M  V30 13219 H 1285.44 -0.0296879 -5.65692 0
M  V30 13220 H 1283.99 -0.41848 -6.50455 0
M  V30 13221 N 1287.43 1.02549 -1.19673 0
M  V30 13222 C 1288.67 1.76265 -1.00293 0
M  V30 13223 C 1289 1.88555 0.464816 0
M  V30 13224 O 1288.28 1.40484 1.34515 0
M  V30 13225 C 1288.56 3.18688 -1.6766 0
M  V30 13226 C 1288.42 3.14247 -3.21821 0
M  V30 13227 C 1289.73 4.17159 -1.40238 0
M  V30 13228 H 1286.85 0.639837 -0.365756 0
M  V30 13229 H 1289.5 1.19691 -1.4756 0
M  V30 13230 H 1287.65 3.66992 -1.27472 0
M  V30 13231 H 1289.32 2.73815 -3.71245 0
M  V30 13232 H 1287.56 2.51874 -3.53188 0
M  V30 13233 H 1288.23 4.14886 -3.64107 0
M  V30 13234 H 1290.71 3.77471 -1.75086 0
M  V30 13235 H 1289.58 5.14997 -1.89919 0
M  V30 13236 H 1289.84 4.4088 -0.328197 0
M  V30 13237 N 1288.9 1.00119 1.21713 0
M  V30 13238 C 1289.83 0.578504 2.2622 0
M  V30 13239 C 1290.81 -0.398777 1.6536 0
M  V30 13240 O 1292 -0.287596 1.92059 0
M  V30 13241 C 1289.13 -0.0994508 3.47158 0
M  V30 13242 C 1288.08 0.79722 4.2051 0
M  V30 13243 C 1287.41 -0.0141125 5.34698 0
M  V30 13244 C 1288.71 2.09802 4.7831 0
M  V30 13245 H 1290.4 1.45208 2.6183 0
M  V30 13246 H 1287.95 0.699656 1.2586 0
M  V30 13247 H 1289.9 -0.406605 4.19434 0
M  V30 13248 H 1288.63 -1.00763 3.10667 0
M  V30 13249 H 1287.29 1.08814 3.50079 0
M  V30 13250 H 1286.93 -0.923468 4.9445 0
M  V30 13251 H 1286.63 0.582883 5.84702 0
M  V30 13252 H 1288.16 -0.31517 6.09786 0
M  V30 13253 H 1289.57 1.85427 5.42485 0
M  V30 13254 H 1287.97 2.64455 5.38687 0
M  V30 13255 H 1289.04 2.77132 3.97902 0
M  V30 13256 N 1290.38 -1.37203 0.775435 0
M  V30 13257 C 1291.29 -2.34019 0.165062 0
M  V30 13258 C 1292.31 -1.6036 -0.675316 0
M  V30 13259 O 1293.48 -1.9243 -0.594375 0
M  V30 13260 C 1290.55 -3.3954 -0.700957 0
M  V30 13261 C 1289.61 -4.29015 0.156304 0
M  V30 13262 C 1288.84 -5.29497 -0.668476 0
M  V30 13263 O 1289.07 -5.37636 -1.90535 0
M  V30 13264 O 1288 -6.01852 -0.0757351 0
M  V30 13265 H 1291.83 -2.87955 0.965184 0
M  V30 13266 H 1289.41 -1.39429 0.536654 0
M  V30 13267 H 1291.29 -4.04094 -1.19524 0
M  V30 13268 H 1289.97 -2.87926 -1.4792 0
M  V30 13269 H 1288.87 -3.67549 0.69703 0
M  V30 13270 H 1290.21 -4.83944 0.897725 0
M  V30 13271 N 1291.86 -0.526279 -1.48553 0
M  V30 13272 C 1293.27 -0.0848694 -1.86507 0
M  V30 13273 C 1293.62 1.3367 -1.43621 0
M  V30 13274 O 1292.75 2.00046 -0.825268 0
M  V30 13275 C 1293.34 -0.147241 -3.3848 0
M  V30 13276 C 1291.9 0.238954 -3.75641 0
M  V30 13277 C 1291.05 -0.508648 -2.72595 0
M  V30 13278 H 1294 -0.737728 -1.40511 0
M  V30 13279 H 1294.02 0.641964 -3.75045 0
M  V30 13280 H 1293.53 -1.18199 -3.69663 0
M  V30 13281 H 1291.63 1.27598 -3.50071 0
M  V30 13282 H 1291.75 -0.0980808 -4.79 0
M  V30 13283 H 1290.11 0.0446382 -2.54661 0
M  V30 13284 H 1290.89 -1.54395 -3.06622 0
M  V30 13285 N 1293.34 1.5542 -0.261239 0
M  V30 13286 C 1294.27 2.24949 0.626126 0
M  V30 13287 C 1295.25 1.23474 1.16997 0
M  V30 13288 O 1296.43 1.52161 1.20667 0
M  V30 13289 C 1293.56 2.95996 1.81669 0
M  V30 13290 C 1292.52 4.04282 1.40499 0
M  V30 13291 C 1291.84 4.62831 2.67753 0
M  V30 13292 C 1293.14 5.1923 0.56543 0
M  V30 13293 H 1294.84 2.99364 0.0463164 0
M  V30 13294 H 1292.38 1.43985 0.0208366 0
M  V30 13295 H 1294.34 3.43343 2.44323 0
M  V30 13296 H 1293.06 2.19093 2.42211 0
M  V30 13297 H 1291.72 3.57726 0.801712 0
M  V30 13298 H 1291.37 3.82611 3.26524 0
M  V30 13299 H 1291.07 5.35938 2.40925 0
M  V30 13300 H 1292.59 5.12918 3.31281 0
M  V30 13301 H 1294.01 5.62714 1.09663 0
M  V30 13302 H 1292.4 5.98814 0.392607 0
M  V30 13303 H 1293.47 4.83086 -0.419059 0
M  V30 13304 N 1294.82 -0.0116844 1.57596 0
M  V30 13305 C 1296.23 -0.367602 1.55309 0
M  V30 13306 C 1296.43 -1.75524 0.98962 0
M  V30 13307 O 1295.49 -2.44813 0.618289 0
M  V30 13308 C 1296.8 -0.253532 2.99629 0
M  V30 13309 C 1298.35 -0.329335 3.11263 0
M  V30 13310 C 1298.82 -0.24452 4.57347 0
M  V30 13311 N 1300.31 -0.302782 4.62209 0
M  V30 13312 C 1301.05 -0.260315 5.72809 0
M  V30 13313 N 1300.55 -0.169124 6.92594 0
M  V30 13314 N 1302.34 -0.311323 5.61237 0
M  V30 13315 H 1294.49 0.896204 1.92567 0
M  V30 13316 H 1296.75 0.342445 0.883988 0
M  V30 13317 H 1296.46 0.70074 3.44648 0
M  V30 13318 H 1296.33 -1.04029 3.62571 0
M  V30 13319 H 1298.72 -1.27405 2.66181 0
M  V30 13320 H 1298.8 0.487084 2.5112 0
M  V30 13321 H 1298.44 0.696597 5.031 0
M  V30 13322 H 1298.37 -1.07927 5.15421 0
M  V30 13323 H 1300.87 -0.375067 3.76034 0
M  V30 13324 H 1301.18 -0.142296 7.72669 0
M  V30 13325 H 1299.52 -0.134919 6.94869 0
M  V30 13326 H 1302.71 -0.380678 4.6655 0
M  V30 13327 H 1302.89 -0.274761 6.47417 0
M  V30 13328 N 1296.29 -1.55015 -0.284256 0
M  V30 13329 C 1297.22 -1.90128 -1.3555 0
M  V30 13330 C 1298.2 -0.761914 -1.52082 0
M  V30 13331 O 1299.39 -1.01909 -1.65312 0
M  V30 13332 C 1296.52 -2.16332 -2.71695 0
M  V30 13333 C 1295.47 -3.32166 -2.69907 0
M  V30 13334 C 1294.8 -3.43824 -4.09498 0
M  V30 13335 C 1296.1 -4.6885 -2.30168 0
M  V30 13336 H 1297.79 -2.79852 -1.06411 0
M  V30 13337 H 1295.34 -1.34649 -0.510451 0
M  V30 13338 H 1297.29 -2.39482 -3.46737 0
M  V30 13339 H 1296.02 -1.23395 -3.02392 0
M  V30 13340 H 1294.68 -3.08965 -1.97322 0
M  V30 13341 H 1294.32 -2.48375 -4.374 0
M  V30 13342 H 1294.02 -4.21698 -4.092 0
M  V30 13343 H 1295.55 -3.69254 -4.86296 0
M  V30 13344 H 1296.96 -4.91619 -2.9493 0
M  V30 13345 H 1295.36 -5.49558 -2.41052 0
M  V30 13346 H 1296.43 -4.68433 -1.25294 0
M  V30 13347 N 1297.77 0.548248 -1.47757 0
M  V30 13348 C 1298.72 1.65453 -1.60916 0
M  V30 13349 C 1299.69 1.59836 -0.451831 0
M  V30 13350 O 1300.87 1.78536 -0.673023 0
M  V30 13351 C 1298.01 3.0376 -1.6378 0
M  V30 13352 C 1297.13 3.19747 -2.90492 0
M  V30 13353 C 1296.26 4.48505 -2.84635 0
M  V30 13354 C 1295.3 4.57956 -4.06132 0
M  V30 13355 N 1294.44 5.78079 -3.98458 0
M  V30 13356 H 1299.28 1.53545 -2.55398 0
M  V30 13357 H 1296.81 0.747826 -1.26673 0
M  V30 13358 H 1298.77 3.8386 -1.63424 0
M  V30 13359 H 1297.4 3.14483 -0.728036 0
M  V30 13360 H 1296.45 2.3302 -3.00676 0
M  V30 13361 H 1297.77 3.22594 -3.8044 0
M  V30 13362 H 1296.92 5.36875 -2.82577 0
M  V30 13363 H 1295.66 4.48151 -1.92385 0
M  V30 13364 H 1294.66 3.67995 -4.08484 0
M  V30 13365 H 1295.89 4.60062 -4.9952 0
M  V30 13366 H 1293.84 5.78657 -3.09017 0
M  V30 13367 H 1293.75 5.82342 -4.82093 0
M  V30 13368 H 1295.02 6.68786 -4.00431 0
M  V30 13369 N 1299.25 1.36039 0.795694 0
M  V30 13370 C 1300.2 1.26386 1.89765 0
M  V30 13371 C 1301.18 0.156711 1.60135 0
M  V30 13372 O 1302.38 0.388946 1.72674 0
M  V30 13373 C 1299.5 1.04907 3.26878 0
M  V30 13374 C 1298.59 2.20061 3.62538 0
M  V30 13375 N 1298.98 3.45347 3.69553 0
M  V30 13376 C 1297.28 2.11688 3.92561 0
M  V30 13377 C 1297.98 4.21138 4.0127 0
M  V30 13378 N 1296.96 3.5001 4.15925 0
M  V30 13379 H 1300.76 2.21295 1.93405 0
M  V30 13380 H 1298.27 1.28668 0.990877 0
M  V30 13381 H 1300.27 0.960791 4.05678 0
M  V30 13382 H 1298.93 0.108921 3.24517 0
M  V30 13383 H 1299.94 3.79561 3.52355 0
M  V30 13384 H 1296.62 1.25592 3.98162 0
M  V30 13385 H 1298.01 5.29456 4.13673 0
M  V30 13386 N 1300.73 -1.01913 1.20215 0
M  V30 13387 C 1302.14 -1.5692 1.01159 0
M  V30 13388 C 1302.49 -1.91368 -0.432746 0
M  V30 13389 O 1301.62 -1.71959 -1.31374 0
M  V30 13390 C 1302.21 -2.85125 1.83001 0
M  V30 13391 C 1300.77 -3.36669 1.68318 0
M  V30 13392 C 1299.92 -2.10003 1.81091 0
M  V30 13393 H 1302.87 -0.843246 1.34443 0
M  V30 13394 H 1302.89 -3.56428 1.33188 0
M  V30 13395 H 1302.4 -2.60021 2.88116 0
M  V30 13396 H 1300.5 -3.66739 0.658292 0
M  V30 13397 H 1300.61 -4.09042 2.49442 0
M  V30 13398 H 1298.98 -2.22337 1.24252 0
M  V30 13399 H 1299.76 -1.87329 2.87685 0
M  V30 13400 N 1302.21 -1.00763 -1.2118 0
M  V30 13401 C 1303.43 -0.710515 -1.9485 0
M  V30 13402 C 1303.86 0.720934 -1.73736 0
M  V30 13403 O 1303.21 1.49484 -1.02588 0
M  V30 13404 C 1303.26 -1.04035 -3.45267 0
M  V30 13405 O 1302.37 -0.147047 -4.12138 0
M  V30 13406 H 1301.71 -0.264472 -0.609057 0
M  V30 13407 H 1304.24 -1.34858 -1.53865 0
M  V30 13408 H 1304.25 -0.9883 -3.95849 0
M  V30 13409 H 1302.92 -2.08334 -3.59958 0
M  V30 13410 H 1301.5 -0.255847 -3.72021 0
M  V30 13411 N 1303.68 1.3679 -0.7827 0
M  V30 13412 C 1304.61 2.32721 -0.190604 0
M  V30 13413 C 1305.6 1.56321 0.670663 0
M  V30 13414 O 1306.78 1.84507 0.605871 0
M  V30 13415 C 1303.91 3.40564 0.680717 0
M  V30 13416 C 1302.86 4.27925 -0.080118 0
M  V30 13417 C 1302.19 5.26876 0.911361 0
M  V30 13418 C 1303.49 5.06738 -1.26545 0
M  V30 13419 H 1305.18 2.82488 -0.992023 0
M  V30 13420 H 1302.73 1.35818 -0.478484 0
M  V30 13421 H 1304.68 4.06659 1.10482 0
M  V30 13422 H 1303.41 2.89348 1.51477 0
M  V30 13423 H 1302.07 3.63376 -0.485125 0
M  V30 13424 H 1301.71 4.71936 1.74026 0
M  V30 13425 H 1301.41 5.8619 0.406762 0
M  V30 13426 H 1302.94 5.95846 1.33418 0
M  V30 13427 H 1304.35 5.65911 -0.917448 0
M  V30 13428 H 1302.75 5.75432 -1.70289 0
M  V30 13429 H 1303.82 4.38772 -2.06415 0
M  V30 13430 N 1305.16 0.53415 1.48272 0
M  V30 13431 C 1306.58 0.192291 1.58437 0
M  V30 13432 C 1306.78 -1.3046 1.53566 0
M  V30 13433 O 1305.83 -2.08316 1.42692 0
M  V30 13434 C 1307.15 0.798515 2.89904 0
M  V30 13435 C 1308.7 0.76763 3.03441 0
M  V30 13436 C 1309.17 1.3525 4.37574 0
M  V30 13437 N 1310.66 1.31466 4.44152 0
M  V30 13438 C 1311.4 1.73706 5.46456 0
M  V30 13439 N 1310.89 2.23695 6.55692 0
M  V30 13440 N 1312.69 1.64918 5.37363 0
M  V30 13441 H 1304.84 1.50696 1.49681 0
M  V30 13442 H 1307.1 0.627073 0.710973 0
M  V30 13443 H 1306.81 1.8496 2.99136 0
M  V30 13444 H 1306.68 0.278033 3.76174 0
M  V30 13445 H 1309.07 -0.274704 2.93819 0
M  V30 13446 H 1309.15 1.32562 2.18771 0
M  V30 13447 H 1308.79 2.39379 4.47951 0
M  V30 13448 H 1308.72 0.770153 5.20938 0
M  V30 13449 H 1311.21 0.948761 3.65796 0
M  V30 13450 H 1311.53 2.5391 7.29897 0
M  V30 13451 H 1309.87 2.27691 6.56644 0
M  V30 13452 H 1313.06 1.25658 4.50919 0
M  V30 13453 H 1313.23 1.98157 6.16958 0
M  V30 13454 N 1306.64 -1.55279 0.269478 0
M  V30 13455 C 1307.57 -2.18397 -0.66165 0
M  V30 13456 C 1308.55 -1.1431 -1.15637 0
M  V30 13457 O 1309.74 -1.42808 -1.23037 0
M  V30 13458 C 1306.86 -2.80272 -1.90172 0
M  V30 13459 C 1305.91 -3.97612 -1.54295 0
M  V30 13460 S 1306.74 -5.31828 -0.625995 0
M  V30 13461 C 1307.9 -5.97169 -1.87456 0
M  V30 13462 H 1308.13 -2.97036 -0.125326 0
M  V30 13463 H 1305.66 -1.54306 0.0537711 0
M  V30 13464 H 1307.62 -3.16553 -2.61351 0
M  V30 13465 H 1306.28 -2.01538 -2.40918 0
M  V30 13466 H 1305.48 -4.39576 -2.46555 0
M  V30 13467 H 1305.08 -3.62725 -0.911395 0
M  V30 13468 H 1307.37 -6.16059 -2.81917 0
M  V30 13469 H 1308.31 -6.92073 -1.49803 0
M  V30 13470 H 1308.72 -5.26469 -2.03693 0
M  V30 13471 N 1308.12 0.00332656 -1.576 0
M  V30 13472 C 1309.05 0.994803 -2.11248 0
M  V30 13473 C 1310.03 1.36061 -1.02085 0
M  V30 13474 O 1311.21 1.44494 -1.2975 0
M  V30 13475 C 1308.34 2.28772 -2.61306 0
M  V30 13476 C 1307.3 2.06362 -3.74965 0
M  V30 13477 C 1306.62 3.41638 -4.11324 0
M  V30 13478 C 1307.92 1.4289 -5.02374 0
M  V30 13479 H 1309.62 0.548119 -2.9434 0
M  V30 13480 H 1307.16 0.262208 -1.41593 0
M  V30 13481 H 1309.12 2.98485 -2.97464 0
M  V30 13482 H 1307.84 2.75547 -1.75332 0
M  V30 13483 H 1306.5 1.39076 -3.39195 0
M  V30 13484 H 1306.15 3.8611 -3.22379 0
M  V30 13485 H 1305.85 3.2746 -4.87897 0
M  V30 13486 H 1307.37 4.12671 -4.50039 0
M  V30 13487 H 1308.79 2.02555 -5.36325 0
M  V30 13488 H 1307.18 1.3921 -5.8373 0
M  V30 13489 H 1308.25 0.397708 -4.83266 0
M  V30 13490 N 1309.6 1.55164 0.276031 0
M  V30 13491 C 1310.55 1.84223 1.34335 0
M  V30 13492 C 1311.53 0.700934 1.4483 0
M  V30 13493 O 1312.72 0.962204 1.48562 0
M  V30 13494 C 1309.85 2.11496 2.70415 0
M  V30 13495 C 1308.94 3.31877 2.64043 0
M  V30 13496 N 1309.33 4.51856 2.27289 0
M  V30 13497 C 1307.63 3.34406 2.95108 0
M  V30 13498 C 1308.33 5.33939 2.30833 0
M  V30 13499 N 1307.3 4.72271 2.69186 0
M  V30 13500 H 1311.11 2.74533 1.04922 0
M  V30 13501 H 1308.62 1.54999 0.484661 0
M  V30 13502 H 1310.62 2.3047 3.47404 0
M  V30 13503 H 1309.28 1.22468 3.00719 0
M  V30 13504 H 1310.29 4.78009 1.99318 0
M  V30 13505 H 1306.96 2.55561 3.30144 0
M  V30 13506 H 1308.35 6.39862 2.05004 0
M  V30 13507 N 1311.07 -0.540404 1.48045 0
M  V30 13508 C 1312.3 -1.31986 1.58944 0
M  V30 13509 C 1312.71 -1.87608 0.244889 0
M  V30 13510 O 1312.06 -1.66576 -0.774467 0
M  V30 13511 C 1312.12 -2.51547 2.56835 0
M  V30 13512 C 1311.78 -2.17089 4.02146 0
M  V30 13513 C 1312.78 -1.73379 4.90138 0
M  V30 13514 C 1310.46 -2.27932 4.47607 0
M  V30 13515 C 1312.46 -1.40964 6.21617 0
M  V30 13516 C 1310.14 -1.95129 5.7911 0
M  V30 13517 C 1311.14 -1.51715 6.65937 0
M  V30 13518 O 1310.83 -1.19337 7.94993 0
M  V30 13519 H 1310.56 -0.408028 0.538971 0
M  V30 13520 H 1313.12 -0.659748 1.94516 0
M  V30 13521 H 1311.35 -3.20505 2.16364 0
M  V30 13522 H 1313.04 -3.13617 2.57681 0
M  V30 13523 H 1313.8 -1.64481 4.56258 0
M  V30 13524 H 1309.68 -2.6068 3.8022 0
M  V30 13525 H 1313.22 -1.07005 6.89344 0
M  V30 13526 H 1309.12 -2.03664 6.12528 0
M  V30 13527 H 1309.89 -1.32824 8.07651 0
M  V30 13528 N 1312.55 -1.36459 -0.788468 0
M  V30 13529 C 1313.49 -1.25222 -1.90774 0
M  V30 13530 C 1314.46 -0.136188 -1.62029 0
M  V30 13531 O 1315.65 -0.307486 -1.85975 0
M  V30 13532 C 1312.77 -0.932287 -3.25616 0
M  V30 13533 C 1311.82 -2.0629 -3.73292 0
M  V30 13534 S 1312.65 -3.68084 -3.8894 0
M  V30 13535 C 1313.81 -3.38206 -5.26657 0
M  V30 13536 H 1314.04 -2.19959 -2.00013 0
M  V30 13537 H 1311.58 -1.21886 -0.947801 0
M  V30 13538 H 1313.53 -0.754514 -4.03506 0
M  V30 13539 H 1312.19 -0.00268413 -3.141 0
M  V30 13540 H 1311.39 -1.79363 -4.71004 0
M  V30 13541 H 1310.99 -2.19994 -3.02454 0
M  V30 13542 H 1313.28 -2.92158 -6.11269 0
M  V30 13543 H 1314.22 -4.35185 -5.58587 0
M  V30 13544 H 1314.63 -2.73531 -4.93802 0
M  V30 13545 N 1314.03 1.01274 -1.20754 0
M  V30 13546 C 1315.31 1.7213 -0.929008 0
M  V30 13547 C 1315.69 2.03503 0.561217 0
M  V30 13548 O 1315.04 1.70259 1.52395 0
M  V30 13549 C 1315.25 2.98636 -1.80603 0
M  V30 13550 C 1316.59 3.71823 -2.0502 0
M  V30 13551 O 1317.62 3.08601 -1.77888 0
M  V30 13552 O 1316.48 4.8552 -2.50864 0
M  V30 13553 H 1313.57 0.750361 -0.347689 0
M  V30 13554 H 1316.12 1.07086 -1.31646 0
M  V30 13555 H 1314.89 2.71803 -2.81494 0
M  V30 13556 H 1314.51 3.7142 -1.4189 0
M  V30 13557 N 1315.51 1.01404 1.20644 0
M  V30 13558 C 1316.79 0.617088 1.85611 0
M  V30 13559 C 1317.17 -0.904947 1.9072 0
M  V30 13560 O 1316.51 -1.79562 1.41315 0
M  V30 13561 C 1316.72 1.26193 3.25386 0
M  V30 13562 C 1318.07 1.37575 4.01694 0
M  V30 13563 O 1319.1 1.21795 3.34731 0
M  V30 13564 O 1317.96 1.6305 5.2161 0
M  V30 13565 H 1315.05 0.212579 0.799211 0
M  V30 13566 H 1317.6 1.11126 1.28254 0
M  V30 13567 H 1316.37 2.30206 3.16419 0
M  V30 13568 H 1315.99 0.754679 3.90372 0
M  V30 13569 N 1316.99 -1.36373 0.789944 0
M  V30 13570 C 1317.92 -2.32616 0.202944 0
M  V30 13571 C 1318.9 -1.56674 -0.662364 0
M  V30 13572 O 1320.08 -1.84826 -0.596078 0
M  V30 13573 C 1317.21 -3.4092 -0.662646 0
M  V30 13574 C 1316.17 -4.27877 0.102811 0
M  V30 13575 C 1315.49 -5.27352 -0.883407 0
M  V30 13576 C 1316.79 -5.0606 1.29231 0
M  V30 13577 H 1318.49 -2.81958 1.00699 0
M  V30 13578 H 1316.03 -1.35562 0.48568 0
M  V30 13579 H 1317.99 -4.07239 -1.08324 0
M  V30 13580 H 1316.71 -2.90147 -1.4994 0
M  V30 13581 H 1315.37 -3.63114 0.504389 0
M  V30 13582 H 1315.02 -4.72853 -1.71521 0
M  V30 13583 H 1314.72 -5.86398 -0.375669 0
M  V30 13584 H 1316.24 -5.96545 -1.30256 0
M  V30 13585 H 1317.66 -5.65417 0.947446 0
M  V30 13586 H 1316.05 -5.74521 1.73338 0
M  V30 13587 H 1317.12 -4.37671 2.08739 0
M  V30 13588 N 1318.47 -0.542005 -1.47987 0
M  V30 13589 C 1319.4 0.202703 -2.32618 0
M  V30 13590 C 1320.38 0.923521 -1.42846 0
M  V30 13591 O 1321.56 0.906957 -1.7172 0
M  V30 13592 C 1318.69 1.24267 -3.24307 0
M  V30 13593 C 1317.65 0.639257 -4.23199 0
M  V30 13594 C 1316.97 1.78275 -5.04105 0
M  V30 13595 C 1318.27 -0.396982 -5.20789 0
M  V30 13596 H 1319.97 -0.503817 -2.95131 0
M  V30 13597 H 1317.51 -0.243736 -1.41922 0
M  V30 13598 H 1319.46 1.7717 -3.82347 0
M  V30 13599 H 1318.19 1.97893 -2.59819 0
M  V30 13600 H 1316.85 0.131655 -3.66364 0
M  V30 13601 H 1316.5 2.50768 -4.36032 0
M  V30 13602 H 1316.2 1.38487 -5.71047 0
M  V30 13603 H 1317.72 2.31533 -5.65 0
M  V30 13604 H 1319.13 0.0454057 -5.73282 0
M  V30 13605 H 1317.53 -0.712911 -5.9585 0
M  V30 13606 H 1318.6 -1.29843 -4.67193 0
M  V30 13607 N 1319.94 1.55134 -0.277709 0
M  V30 13608 C 1320.87 2.256 0.602232 0
M  V30 13609 C 1321.85 1.24708 1.15681 0
M  V30 13610 O 1323.04 1.53433 1.19046 0
M  V30 13611 C 1320.17 2.97907 1.78519 0
M  V30 13612 C 1319.12 4.0575 1.36203 0
M  V30 13613 C 1318.45 4.65644 2.62829 0
M  V30 13614 C 1319.75 5.19801 0.510327 0
M  V30 13615 H 1321.44 2.99396 0.0145622 0
M  V30 13616 H 1318.99 1.43999 0.00556389 0
M  V30 13617 H 1320.94 3.45915 2.40668 0
M  V30 13618 H 1319.67 2.21649 2.39873 0
M  V30 13619 H 1318.33 3.58557 0.763726 0
M  V30 13620 H 1317.97 3.86053 3.22447 0
M  V30 13621 H 1317.67 5.38463 2.35227 0
M  V30 13622 H 1319.2 5.16403 3.25823 0
M  V30 13623 H 1320.61 5.63845 1.03689 0
M  V30 13624 H 1319.01 5.99197 0.329073 0
M  V30 13625 H 1320.08 4.82614 -0.470273 0
M  V30 13626 N 1321.42 0.00503138 1.57599 0
M  V30 13627 C 1322.38 -0.969628 2.0768 0
M  V30 13628 C 1323.38 -1.26933 0.987148 0
M  V30 13629 O 1324.57 -1.21368 1.24962 0
M  V30 13630 C 1321.71 -2.29312 2.52247 0
M  V30 13631 H 1322.9 -0.536342 2.95065 0
M  V30 13632 H 1320.45 -0.242543 1.54407 0
M  V30 13633 H 1321.19 -2.7732 1.6812 0
M  V30 13634 H 1320.97 -2.08878 3.31832 0
M  V30 13635 H 1322.46 -2.99221 2.91302 0
M  V30 13636 N 1322.9 -1.55308 -0.267798 0
M  V30 13637 C 1323.86 -1.87765 -1.31442 0
M  V30 13638 C 1324.86 -0.752571 -1.42102 0
M  V30 13639 O 1326.05 -1.02072 -1.41163 0
M  V30 13640 C 1323.18 -2.08754 -2.69508 0
M  V30 13641 H 1324.38 -2.8133 -1.03891 0
M  V30 13642 H 1321.93 -1.47879 -0.506111 0
M  V30 13643 H 1322.67 -1.17588 -3.02231 0
M  V30 13644 H 1322.45 -2.90674 -2.63156 0
M  V30 13645 H 1323.94 -2.3512 -3.4512 0
M  V30 13646 N 1324.38 0.532545 -1.4833 0
M  V30 13647 C 1325.6 1.31809 -1.60129 0
M  V30 13648 C 1326.03 1.86283 -0.260807 0
M  V30 13649 O 1325.39 1.6427 0.767137 0
M  V30 13650 C 1325.43 2.44661 -2.64903 0
M  V30 13651 O 1324.54 3.47622 -2.21885 0
M  V30 13652 H 1323.88 0.390492 -0.53704 0
M  V30 13653 H 1326.41 0.641068 -1.94297 0
M  V30 13654 H 1326.42 2.90883 -2.86096 0
M  V30 13655 H 1325.09 2.04373 -3.62222 0
M  V30 13656 H 1323.67 3.07536 -2.10894 0
M  V30 13657 N 1325.86 1.36875 0.78122 0
M  V30 13658 C 1327.08 1.349 1.57533 0
M  V30 13659 C 1327.51 -0.0655249 1.87986 0
M  V30 13660 O 1326.86 -1.03986 1.48515 0
M  V30 13661 C 1326.91 2.18562 2.86815 0
M  V30 13662 O 1326.02 1.58374 3.80777 0
M  V30 13663 H 1325.36 0.461355 0.477543 0
M  V30 13664 H 1327.89 1.80271 0.96766 0
M  V30 13665 H 1327.9 2.31436 3.36008 0
M  V30 13666 H 1326.57 3.21385 2.63978 0
M  V30 13667 H 1325.15 1.54487 3.39394 0
M  V30 13668 N 1327.33 -1.00632 1.21289 0
M  V30 13669 C 1328.28 -2.07791 0.938459 0
M  V30 13670 C 1329.27 -1.60552 -0.105773 0
M  V30 13671 O 1330.46 -1.767 0.102981 0
M  V30 13672 C 1327.59 -3.39587 0.503563 0
M  V30 13673 C 1326.67 -3.93497 1.58179 0
M  V30 13674 N 1327.07 -4.20792 2.80656 0
M  V30 13675 C 1325.36 -4.21759 1.45035 0
M  V30 13676 C 1326.06 -4.64411 3.50281 0
M  V30 13677 N 1325.04 -4.67305 2.77717 0
M  V30 13678 H 1328.84 -2.26816 1.869 0
M  V30 13679 H 1326.36 -1.18692 1.10842 0
M  V30 13680 H 1328.35 -4.15902 0.288323 0
M  V30 13681 H 1327.01 -3.21969 -0.420233 0
M  V30 13682 H 1328.02 -4.09386 3.17212 0
M  V30 13683 H 1324.7 -4.13285 0.591745 0
M  V30 13684 H 1326.09 -4.94263 4.55141 0
M  V30 13685 N 1328.81 -1.02043 -1.20104 0
M  V30 13686 C 1330.09 -0.626922 -1.85281 0
M  V30 13687 C 1330.47 0.894819 -1.91197 0
M  V30 13688 O 1329.82 1.7881 -1.42265 0
M  V30 13689 C 1330.03 -1.27917 -3.24713 0
M  V30 13690 C 1331.37 -1.39704 -4.00959 0
M  V30 13691 O 1332.4 -1.23568 -3.3408 0
M  V30 13692 O 1331.26 -1.65814 -5.20738 0
M  V30 13693 H 1328.35 -0.216815 -0.798073 0
M  V30 13694 H 1330.9 -1.11804 -1.27663 0
M  V30 13695 H 1329.67 -2.3188 -3.15194 0
M  V30 13696 H 1329.29 -0.775371 -3.89966 0
M  V30 13697 N 1330.29 1.35952 -0.797165 0
M  V30 13698 C 1331.54 1.98639 -0.372405 0
M  V30 13699 C 1331.86 1.63571 1.06158 0
M  V30 13700 O 1331.13 0.913516 1.73297 0
M  V30 13701 H 1329.71 0.734753 -0.13471 0
M  V30 13702 H 1332.37 1.66022 -1.02092 0
M  V30 13703 H 1331.47 3.08533 -0.47049 0
M  V30 13704 N 1331.77 0.549846 1.47697 0
M  V30 13705 C 1332.7 -0.190364 2.32723 0
M  V30 13706 C 1333.68 -0.915933 1.43334 0
M  V30 13707 O 1334.86 -0.897838 1.72199 0
M  V30 13708 C 1331.99 -1.22545 3.24961 0
M  V30 13709 C 1330.95 -0.616805 4.23532 0
M  V30 13710 C 1330.27 -1.75599 5.05044 0
M  V30 13711 C 1331.57 0.424595 5.20571 0
M  V30 13712 H 1333.27 0.519461 2.94859 0
M  V30 13713 H 1330.81 0.251259 1.41791 0
M  V30 13714 H 1332.77 -1.75139 3.83281 0
M  V30 13715 H 1331.49 -1.96512 2.60865 0
M  V30 13716 H 1330.15 -0.112224 3.66428 0
M  V30 13717 H 1329.8 -2.48453 4.37356 0
M  V30 13718 H 1329.5 -1.35456 5.71774 0
M  V30 13719 H 1331.02 -2.28533 5.6622 0
M  V30 13720 H 1332.44 -0.0150025 5.73298 0
M  V30 13721 H 1330.83 0.7445 5.95464 0
M  V30 13722 H 1331.9 1.32318 4.66497 0
M  V30 13723 N 1333.25 -1.54984 0.285932 0
M  V30 13724 C 1334.16 -2.26621 -0.606648 0
M  V30 13725 C 1335.17 -1.29595 -1.16108 0
M  V30 13726 O 1336.35 -1.62551 -1.18908 0
M  V30 13727 C 1333.41 -2.98156 -1.76929 0
M  V30 13728 C 1332.47 -4.10685 -1.25045 0
M  V30 13729 C 1331.71 -4.788 -2.35768 0
M  V30 13730 O 1331.93 -4.46183 -3.55354 0
M  V30 13731 O 1330.86 -5.66523 -2.03312 0
M  V30 13732 H 1334.69 -3.03689 -0.0259981 0
M  V30 13733 H 1332.28 -1.49306 0.0529355 0
M  V30 13734 H 1334.16 -3.43076 -2.44697 0
M  V30 13735 H 1332.83 -2.23996 -2.33683 0
M  V30 13736 H 1331.74 -3.70198 -0.538919 0
M  V30 13737 H 1333.07 -4.86778 -0.728528 0
M  V30 13738 N 1334.72 -0.0133892 -1.57594 0
M  V30 13739 C 1335.69 0.958601 -2.08191 0
M  V30 13740 C 1336.69 1.26408 -0.993865 0
M  V30 13741 O 1337.88 1.20703 -1.25604 0
M  V30 13742 C 1335.01 2.27971 -2.5346 0
M  V30 13743 H 1336.2 0.520686 -2.95345 0
M  V30 13744 H 1333.76 0.234351 -1.54533 0
M  V30 13745 H 1334.49 2.76424 -1.69588 0
M  V30 13746 H 1334.28 2.07116 -3.32935 0
M  V30 13747 H 1335.77 2.97672 -2.92884 0
M  V30 13748 N 1336.2 1.55448 0.259558 0
M  V30 13749 C 1337.17 1.88459 1.30445 0
M  V30 13750 C 1338.17 0.760096 1.41701 0
M  V30 13751 O 1339.36 1.02819 1.4062 0
M  V30 13752 C 1336.49 2.10181 2.68397 0
M  V30 13753 H 1337.68 2.81877 1.02398 0
M  V30 13754 H 1335.23 1.48145 0.498262 0
M  V30 13755 H 1335.97 1.19189 3.01603 0
M  V30 13756 H 1335.75 2.92066 2.6161 0
M  V30 13757 H 1337.24 2.36947 3.43869 0
M  V30 13758 N 1337.68 -0.524672 1.4861 0
M  V30 13759 C 1338.93 -1.27768 1.56588 0
M  V30 13760 C 1339.25 -1.93469 0.243899 0
M  V30 13761 O 1338.52 -1.8159 -0.734985 0
M  V30 13762 H 1337.1 -0.474566 0.576885 0
M  V30 13763 H 1339.76 -0.610114 1.85104 0
M  V30 13764 H 1338.86 -2.05416 2.34969 0
M  V30 13765 N 1339.16 -1.37287 -0.77395 0
M  V30 13766 C 1340.07 -1.35059 -1.91823 0
M  V30 13767 C 1341.08 -0.250489 -1.72188 0
M  V30 13768 O 1342.26 -0.485501 -1.95461 0
M  V30 13769 C 1339.33 -1.15444 -3.26915 0
M  V30 13770 C 1338.39 -2.35073 -3.5922 0
M  V30 13771 C 1337.62 -2.16384 -4.87867 0
M  V30 13772 O 1337.84 -1.14696 -5.58749 0
M  V30 13773 O 1336.78 -3.0452 -5.19183 0
M  V30 13774 H 1340.6 -2.31432 -1.96654 0
M  V30 13775 H 1338.19 -1.17994 -0.916392 0
M  V30 13776 H 1340.07 -1.06484 -4.07724 0
M  V30 13777 H 1338.74 -0.221435 -3.22942 0
M  V30 13778 H 1337.65 -2.49604 -2.78655 0
M  V30 13779 H 1338.98 -3.26933 -3.67934 0
M  V30 13780 N 1340.64 0.999871 -1.21821 0
M  V30 13781 C 1341.55 2.12303 -0.99823 0
M  V30 13782 C 1342.56 1.73924 0.0512923 0
M  V30 13783 O 1343.74 2.00914 -0.139895 0
M  V30 13784 C 1340.8 3.41962 -0.571232 0
M  V30 13785 C 1339.86 3.94483 -1.69356 0
M  V30 13786 C 1339.1 5.17954 -1.28685 0
M  V30 13787 O 1339.32 5.70168 -0.162641 0
M  V30 13788 O 1338.25 5.64051 -2.10071 0
M  V30 13789 H 1342.08 2.3374 -1.93905 0
M  V30 13790 H 1339.67 1.10677 -1.00354 0
M  V30 13791 H 1341.55 4.20001 -0.343134 0
M  V30 13792 H 1340.22 3.21901 0.340814 0
M  V30 13793 H 1339.13 3.17648 -1.97612 0
M  V30 13794 H 1340.46 4.18964 -2.58322 0
M  V30 13795 N 1342.11 1.02678 1.19562 0
M  V30 13796 C 1343.36 0.723086 1.89471 0
M  V30 13797 C 1343.69 -0.746269 1.79289 0
M  V30 13798 O 1342.97 -1.54322 1.18384 0
M  V30 13799 C 1343.25 1.17224 3.40486 0
M  V30 13800 C 1343.1 2.70266 3.5955 0
M  V30 13801 C 1344.42 0.751397 4.33638 0
M  V30 13802 H 1341.54 0.264155 0.688034 0
M  V30 13803 H 1344.18 1.27633 1.40747 0
M  V30 13804 H 1342.33 0.701544 3.82113 0
M  V30 13805 H 1344.01 3.25266 3.27108 0
M  V30 13806 H 1342.25 3.10758 3.02675 0
M  V30 13807 H 1342.92 2.96748 4.65451 0
M  V30 13808 H 1345.4 1.15621 3.99714 0
M  V30 13809 H 1344.27 1.09358 5.37896 0
M  V30 13810 H 1344.53 -0.346367 4.40741 0
M  V30 13811 N 1343.59 -1.35528 0.804364 0
M  V30 13812 C 1344.84 -1.98084 0.380196 0
M  V30 13813 C 1345.15 -1.64531 -1.05778 0
M  V30 13814 O 1346.36 -2.20435 -1.58495 0
M  V30 13815 C 1344.82 -3.54364 0.628848 0
M  V30 13816 C 1344.42 -3.96828 2.07921 0
M  V30 13817 C 1346.17 -4.23641 0.269927 0
M  V30 13818 C 1344.08 -5.45944 2.27374 0
M  V30 13819 H 1343.01 -0.741185 0.138422 0
M  V30 13820 H 1345.66 -1.54624 0.988107 0
M  V30 13821 H 1344.04 -3.9597 -0.0489837 0
M  V30 13822 H 1345.21 -3.6638 2.79467 0
M  V30 13823 H 1343.53 -3.40433 2.39779 0
M  V30 13824 H 1346.12 -5.33251 0.393344 0
M  V30 13825 H 1346.47 -4.08858 -0.783644 0
M  V30 13826 H 1347 -3.87448 0.901588 0
M  V30 13827 H 1343.74 -5.65693 3.31168 0
M  V30 13828 H 1343.26 -5.77969 1.6035 0
M  V30 13829 H 1344.94 -6.12376 2.08817 0
M  V30 13830 N 1345.07 -0.557671 -1.47404 0
M  V30 13831 C 1346.3 -0.0366797 -2.07368 0
M  V30 13832 C 1346.72 1.2478 -1.40754 0
M  V30 13833 O 1346.08 1.74757 -0.48268 0
M  V30 13834 C 1346.13 0.141728 -3.60321 0
M  V30 13835 O 1345.23 1.20419 -3.94427 0
M  V30 13836 H 1344.57 -0.0515319 -0.661997 0
M  V30 13837 H 1347.1 -0.773485 -1.89416 0
M  V30 13838 H 1347.11 0.355787 -4.06446 0
M  V30 13839 H 1345.79 -0.796433 -4.08203 0
M  V30 13840 H 1344.36 0.970589 -3.60047 0
M  V30 13841 N 1346.55 1.54831 -0.294147 0
M  V30 13842 C 1347.78 2.04411 0.319938 0
M  V30 13843 C 1348.19 1.17174 1.4804 0
M  V30 13844 O 1347.55 0.195881 1.81446 0
M  V30 13845 C 1347.6 3.52924 0.782751 0
M  V30 13846 O 1347.32 4.36844 -0.331512 0
M  V30 13847 C 1348.82 4.18474 1.4627 0
M  V30 13848 H 1346.04 0.667286 0.0704973 0
M  V30 13849 H 1348.59 1.9989 -0.431785 0
M  V30 13850 H 1346.74 3.57828 1.48451 0
M  V30 13851 H 1347.16 5.24493 0.0275743 0
M  V30 13852 H 1348.63 5.23933 1.73776 0
M  V30 13853 H 1349.11 3.67793 2.40052 0
M  V30 13854 H 1349.71 4.17626 0.804291 0
M  V30 13855 N 1348.03 0.0217466 1.57585 0
M  V30 13856 C 1348.96 -0.961069 2.12804 0
M  V30 13857 C 1349.94 -1.3442 1.04237 0
M  V30 13858 O 1351.12 -1.42412 1.32032 0
M  V30 13859 C 1348.25 -2.24586 2.64912 0
M  V30 13860 C 1347.21 -2.0037 3.78201 0
M  V30 13861 C 1346.53 -3.35051 4.16708 0
M  V30 13862 C 1347.83 -1.34879 5.04584 0
M  V30 13863 H 1349.53 -0.501222 2.95175 0
M  V30 13864 H 1347.07 -0.239649 1.41992 0
M  V30 13865 H 1349.03 -2.93715 3.02175 0
M  V30 13866 H 1347.75 -2.72723 1.79693 0
M  V30 13867 H 1346.41 -1.33662 3.41365 0
M  V30 13868 H 1346.06 -3.80932 3.28481 0
M  V30 13869 H 1345.76 -3.19656 4.93045 0
M  V30 13870 H 1347.28 -4.05459 4.56547 0
M  V30 13871 H 1348.7 -1.93997 5.3948 0
M  V30 13872 H 1347.09 -1.29906 5.85871 0
M  V30 13873 H 1348.16 -0.320774 4.83838 0
M  V30 13874 N 1349.51 -1.55583 -0.251311 0
M  V30 13875 C 1350.42 -1.93073 -1.33266 0
M  V30 13876 C 1351.43 -0.830612 -1.52895 0
M  V30 13877 O 1352.61 -1.13162 -1.66602 0
M  V30 13878 C 1349.67 -2.21396 -2.66805 0
M  V30 13879 C 1348.73 -3.44815 -2.55737 0
M  V30 13880 C 1347.97 -3.71777 -3.82907 0
M  V30 13881 O 1348.19 -3.00884 -4.84587 0
M  V30 13882 O 1347.12 -4.65305 -3.81805 0
M  V30 13883 H 1350.95 -2.85168 -1.04465 0
M  V30 13884 H 1348.53 -1.42408 -0.451693 0
M  V30 13885 H 1350.42 -2.4094 -3.45725 0
M  V30 13886 H 1349.09 -1.3248 -2.95348 0
M  V30 13887 H 1348 -3.30582 -1.75118 0
M  V30 13888 H 1349.33 -4.34019 -2.32139 0
M  V30 13889 N 1350.98 0.516783 -1.48886 0
M  V30 13890 C 1352.4 0.84654 -1.35299 0
M  V30 13891 C 1352.6 1.97998 -0.374035 0
M  V30 13892 O 1351.66 2.51707 0.200003 0
M  V30 13893 C 1352.97 1.20162 -2.75648 0
M  V30 13894 C 1354.52 1.31074 -2.84233 0
M  V30 13895 C 1354.99 1.69919 -4.25313 0
M  V30 13896 N 1356.48 1.76998 -4.28049 0
M  V30 13897 C 1357.22 2.08466 -5.34162 0
M  V30 13898 N 1356.71 2.38268 -6.50538 0
M  V30 13899 N 1358.51 2.09584 -5.21566 0
M  V30 13900 H 1350.66 -0.230871 -2.11142 0
M  V30 13901 H 1352.92 -0.0406678 -0.947127 0
M  V30 13902 H 1352.63 0.442278 -3.48908 0
M  V30 13903 H 1352.5 2.14875 -3.10014 0
M  V30 13904 H 1354.89 2.06083 -2.1122 0
M  V30 13905 H 1354.97 0.344506 -2.5347 0
M  V30 13906 H 1354.61 0.954667 -4.98847 0
M  V30 13907 H 1354.54 2.67616 -4.5353 0
M  V30 13908 H 1357.03 1.56191 -3.44112 0
M  V30 13909 H 1357.35 2.61423 -7.2724 0
M  V30 13910 H 1355.69 2.35758 -6.53791 0
M  V30 13911 H 1358.88 1.85768 -4.2966 0
M  V30 13912 H 1359.06 2.33776 -6.04362 0
M  V30 13913 N 1352.46 1.37696 0.766659 0
M  V30 13914 C 1353.42 1.33688 1.86172 0
M  V30 13915 C 1354.42 0.239922 1.59 0
M  V30 13916 O 1355.61 0.496066 1.66988 0
M  V30 13917 C 1352.75 1.07807 3.23405 0
M  V30 13918 H 1353.94 2.311 1.91136 0
M  V30 13919 H 1351.49 1.22799 0.966961 0
M  V30 13920 H 1352.23 0.109477 3.24115 0
M  V30 13921 H 1352.01 1.87213 3.4452 0
M  V30 13922 H 1353.5 1.07665 4.03482 0
M  V30 13923 N 1353.94 -0.993397 1.22349 0
M  V30 13924 C 1355.19 -1.72945 1.04568 0
M  V30 13925 C 1355.51 -1.90419 -0.420178 0
M  V30 13926 O 1354.78 -1.46348 -1.30227 0
M  V30 13927 H 1353.36 -0.640777 0.383945 0
M  V30 13928 H 1356.02 -1.19647 1.53853 0
M  V30 13929 H 1355.12 -2.72411 1.52311 0
M  V30 13930 N 1355.42 -1.03311 -1.19015 0
M  V30 13931 C 1356.66 -0.732039 -1.88805 0
M  V30 13932 C 1356.99 0.739688 -1.79886 0
M  V30 13933 O 1356.25 1.55476 -1.18851 0
M  V30 13934 C 1356.55 -1.13402 -3.38932 0
M  V30 13935 C 1356.21 -2.60473 -3.68055 0
M  V30 13936 C 1354.87 -3.00654 -3.75713 0
M  V30 13937 C 1357.23 -3.55604 -3.81045 0
M  V30 13938 C 1354.55 -4.3487 -3.93833 0
M  V30 13939 C 1356.91 -4.89529 -4.00679 0
M  V30 13940 C 1355.57 -5.29392 -4.06571 0
M  V30 13941 H 1354.84 -0.267872 -0.690888 0
M  V30 13942 H 1357.49 -1.29673 -1.40915 0
M  V30 13943 H 1355.79 -0.487997 -3.88749 0
M  V30 13944 H 1357.49 -0.878532 -3.91258 0
M  V30 13945 H 1354.08 -2.28348 -3.62706 0
M  V30 13946 H 1358.26 -3.25711 -3.74467 0
M  V30 13947 H 1353.52 -4.65285 -3.96636 0
M  V30 13948 H 1357.69 -5.63153 -4.09672 0
M  V30 13949 H 1355.32 -6.33402 -4.20364 0
M  V30 13950 N 1356.9 1.35099 -0.81154 0
M  V30 13951 C 1358.12 2.0286 -0.406855 0
M  V30 13952 C 1358.54 1.61147 0.98372 0
M  V30 13953 O 1357.9 0.811398 1.6347 0
M  V30 13954 C 1357.95 3.58214 -0.486305 0
M  V30 13955 O 1357.67 3.98412 -1.82206 0
M  V30 13956 C 1359.17 4.43236 -0.0750619 0
M  V30 13957 H 1356.39 0.650482 -0.164664 0
M  V30 13958 H 1358.93 1.72616 -1.09654 0
M  V30 13959 H 1357.09 3.87089 0.155177 0
M  V30 13960 H 1357.5 4.93072 -1.78831 0
M  V30 13961 H 1358.98 5.51701 -0.181759 0
M  V30 13962 H 1359.45 4.28123 0.980169 0
M  V30 13963 H 1360.06 4.19667 -0.689894 0
M  V30 13964 N 1358.37 0.56548 1.47106 0
M  V30 13965 C 1359.62 0.042333 2.01656 0
M  V30 13966 C 1359.94 -1.31892 1.44443 0
M  V30 13967 O 1361.14 -1.93245 1.90706 0
M  V30 13968 C 1359.6 0.0251556 3.59891 0
M  V30 13969 C 1359.21 1.38367 4.26097 0
M  V30 13970 C 1360.95 -0.44495 4.22162 0
M  V30 13971 C 1358.86 1.32516 5.76362 0
M  V30 13972 H 1357.79 0.0120557 0.753904 0
M  V30 13973 H 1360.44 0.714565 1.69015 0
M  V30 13974 H 1358.82 -0.712893 3.8953 0
M  V30 13975 H 1359.99 2.14009 4.08089 0
M  V30 13976 H 1358.31 1.79239 3.75849 0
M  V30 13977 H 1360.91 -0.507256 5.32288 0
M  V30 13978 H 1361.25 -1.45876 3.89905 0
M  V30 13979 H 1361.78 0.238496 3.97084 0
M  V30 13980 H 1358.52 2.31523 6.13252 0
M  V30 13981 H 1358.04 0.610674 5.96683 0
M  V30 13982 H 1359.72 1.03072 6.38737 0
M  V30 13983 N 1359.85 -1.54672 0.302354 0
M  V30 13984 C 1361.08 -2.05041 -0.311891 0
M  V30 13985 C 1361.5 -1.17814 -1.46634 0
M  V30 13986 O 1360.86 -0.182517 -1.80379 0
M  V30 13987 C 1360.91 -3.52831 -0.744489 0
M  V30 13988 O 1360.01 -3.68621 -1.84913 0
M  V30 13989 H 1359.35 -0.661255 -0.0603102 0
M  V30 13990 H 1361.88 -1.99711 0.444593 0
M  V30 13991 H 1361.89 -3.94708 -1.03293 0
M  V30 13992 H 1360.57 -4.1578 0.0999976 0
M  V30 13993 H 1359.15 -3.38649 -1.56113 0
M  V30 13994 N 1361.33 -0.0301034 -1.57571 0
M  V30 13995 C 1362.74 0.508591 -1.79639 0
M  V30 13996 C 1363.09 1.72191 -0.940458 0
M  V30 13997 O 1362.22 2.15872 -0.151138 0
M  V30 13998 C 1362.81 0.929446 -3.25802 0
M  V30 13999 C 1361.37 1.41325 -3.48861 0
M  V30 14000 C 1360.52 0.378433 -2.74706 0
M  V30 14001 H 1363.47 -0.256131 -1.56619 0
M  V30 14002 H 1363.49 1.79374 -3.35567 0
M  V30 14003 H 1363 0.0461738 -3.88073 0
M  V30 14004 H 1361.1 2.31641 -2.91844 0
M  V30 14005 H 1361.22 1.41995 -4.57574 0
M  V30 14006 H 1359.58 0.846744 -2.40213 0
M  V30 14007 H 1360.36 -0.49639 -3.39692 0
M  V30 14008 N 1362.81 1.55714 0.243056 0
M  V30 14009 C 1364.09 1.68483 0.993614 0
M  V30 14010 C 1364.47 0.571112 2.03228 0
M  V30 14011 O 1363.81 -0.42491 2.24515 0
M  V30 14012 C 1364.02 3.0894 1.62349 0
M  V30 14013 C 1365.37 3.67663 2.12389 0
M  V30 14014 O 1366.4 3.11764 1.72283 0
M  V30 14015 O 1365.25 4.65664 2.8604 0
M  V30 14016 H 1362.35 0.685415 0.462747 0
M  V30 14017 H 1364.89 1.68043 0.236538 0
M  V30 14018 H 1363.67 3.81451 0.87241 0
M  V30 14019 H 1363.29 3.13407 2.44667 0
M  V30 14020 N 1364.29 -0.50888 1.49158 0
M  V30 14021 C 1365.23 -1.61129 1.65246 0
M  V30 14022 C 1366.2 -1.58582 0.49405 0
M  V30 14023 O 1367.39 -1.76689 0.720122 0
M  V30 14024 C 1364.53 -2.99311 1.71776 0
M  V30 14025 C 1363.64 -3.11933 2.98868 0
M  V30 14026 C 1362.78 -4.408 2.96426 0
M  V30 14027 C 1361.82 -4.47027 4.18131 0
M  V30 14028 N 1360.95 -5.67311 4.13645 0
M  V30 14029 H 1365.79 -1.4672 2.59379 0
M  V30 14030 H 1363.33 -0.713978 1.28611 0
M  V30 14031 H 1365.29 -3.79392 1.73543 0
M  V30 14032 H 1363.92 -3.12442 0.811159 0
M  V30 14033 H 1362.97 -2.24966 3.06748 0
M  V30 14034 H 1364.28 -3.12393 3.8886 0
M  V30 14035 H 1363.44 -5.29194 2.96712 0
M  V30 14036 H 1362.17 -4.42893 2.04199 0
M  V30 14037 H 1361.18 -3.57036 4.18097 0
M  V30 14038 H 1362.4 -4.46656 5.11542 0
M  V30 14039 H 1360.35 -5.70261 3.2425 0
M  V30 14040 H 1360.27 -5.69355 4.97364 0
M  V30 14041 H 1361.54 -6.57934 4.18022 0
M  V30 14042 N 1365.76 -1.381 -0.759346 0
M  V30 14043 C 1367.01 -1.33311 -1.51364 0
M  V30 14044 C 1367.33 0.0761325 -1.95452 0
M  V30 14045 O 1368.53 0.246541 -2.70378 0
M  V30 14046 C 1366.99 -2.34067 -2.73387 0
M  V30 14047 C 1366.6 -3.80583 -2.36348 0
M  V30 14048 C 1368.34 -2.38311 -3.51295 0
M  V30 14049 C 1366.25 -4.73039 -3.54948 0
M  V30 14050 H 1365.18 -0.495512 -0.568317 0
M  V30 14051 H 1367.83 -1.63625 -0.830602 0
M  V30 14052 H 1366.21 -1.96788 -3.43643 0
M  V30 14053 H 1367.38 -4.26769 -1.73796 0
M  V30 14054 H 1365.7 -3.79403 -1.71587 0
M  V30 14055 H 1368.3 -3.04586 -4.39467 0
M  V30 14056 H 1368.64 -1.40034 -3.92041 0
M  V30 14057 H 1369.17 -2.74361 -2.88047 0
M  V30 14058 H 1365.91 -5.7249 -3.19273 0
M  V30 14059 H 1365.43 -4.3155 -4.16563 0
M  V30 14060 H 1367.11 -4.90775 -4.21603 0
M  V30 14061 N 1367.24 0.986894 -1.22875 0
M  V30 14062 C 1368.17 2.08035 -0.961971 0
M  V30 14063 C 1369.19 1.62683 0.0616475 0
M  V30 14064 O 1370.38 1.77659 -0.173094 0
M  V30 14065 C 1367.48 3.36208 -0.426302 0
M  V30 14066 C 1366.65 4.10562 -1.50856 0
M  V30 14067 C 1365.71 5.17014 -0.97891 0
M  V30 14068 O 1364.73 5.44259 -1.66645 0
M  V30 14069 N 1365.94 5.80167 0.196613 0
M  V30 14070 H 1368.7 2.315 -1.90336 0
M  V30 14071 H 1366.26 1.1531 -1.13645 0
M  V30 14072 H 1368.25 4.0466 -0.0571577 0
M  V30 14073 H 1366.82 3.09761 0.420345 0
M  V30 14074 H 1366.04 3.36656 -2.05076 0
M  V30 14075 H 1367.33 4.57007 -2.23655 0
M  V30 14076 H 1366.73 5.60409 0.771892 0
M  V30 14077 H 1365.29 6.49825 0.507083 0
M  V30 14078 N 1368.72 1.0394 1.18466 0
M  V30 14079 C 1370.14 0.758404 1.40429 0
M  V30 14080 C 1370.34 -0.652603 1.90639 0
M  V30 14081 O 1369.39 -1.417 2.08991 0
M  V30 14082 C 1370.71 1.80343 2.40618 0
M  V30 14083 C 1372.25 1.82419 2.54347 0
M  V30 14084 C 1372.73 2.8591 3.57798 0
M  V30 14085 N 1374.22 2.84793 3.65304 0
M  V30 14086 C 1374.95 3.61521 4.45073 0
M  V30 14087 N 1374.45 4.47997 5.28461 0
M  V30 14088 N 1376.24 3.50016 4.39824 0
M  V30 14089 H 1368.39 1.94998 0.842 0
M  V30 14090 H 1370.66 0.843649 0.43239 0
M  V30 14091 H 1370.36 2.81547 2.10771 0
M  V30 14092 H 1370.24 1.63451 3.39947 0
M  V30 14093 H 1372.62 0.818872 2.83511 0
M  V30 14094 H 1372.71 2.03388 1.55136 0
M  V30 14095 H 1372.35 3.8662 3.29375 0
M  V30 14096 H 1372.28 2.62196 4.56684 0
M  V30 14097 H 1374.77 2.22082 3.05758 0
M  V30 14098 H 1375.08 5.03257 5.86475 0
M  V30 14099 H 1373.43 4.52065 5.27885 0
M  V30 14100 H 1376.62 2.81862 3.73726 0
M  V30 14101 H 1376.79 4.10063 5.0175 0
M  V30 14102 N 1370.2 -1.34667 0.818693 0
M  V30 14103 C 1371.11 -2.33375 0.239429 0
M  V30 14104 C 1372.12 -1.62428 -0.623957 0
M  V30 14105 O 1373.3 -1.94223 -0.532854 0
M  V30 14106 C 1370.37 -3.41598 -0.59258 0
M  V30 14107 C 1369.43 -4.28301 0.292712 0
M  V30 14108 C 1368.66 -5.31356 -0.499682 0
M  V30 14109 O 1368.88 -5.43426 -1.73334 0
M  V30 14110 O 1367.82 -6.01789 0.115778 0
M  V30 14111 H 1371.64 -2.84738 1.05631 0
M  V30 14112 H 1369.23 -1.37651 0.58074 0
M  V30 14113 H 1371.11 -4.07692 -1.06607 0
M  V30 14114 H 1369.78 -2.92486 -1.38685 0
M  V30 14115 H 1368.69 -3.65145 0.81361 0
M  V30 14116 H 1370.02 -4.80843 1.05123 0
M  V30 14117 N 1371.68 -0.573274 -1.46804 0
M  V30 14118 C 1373.09 -0.144162 -1.86143 0
M  V30 14119 C 1373.44 1.29033 -1.47801 0
M  V30 14120 O 1372.56 1.97319 -0.888494 0
M  V30 14121 C 1373.16 -0.254851 -3.3784 0
M  V30 14122 C 1371.72 0.119325 -3.76211 0
M  V30 14123 C 1370.86 -0.595115 -2.70839 0
M  V30 14124 H 1373.82 -0.782057 -1.38093 0
M  V30 14125 H 1373.84 0.522321 -3.76898 0
M  V30 14126 H 1373.35 -1.29899 -3.65715 0
M  V30 14127 H 1371.45 1.16396 -3.53953 0
M  V30 14128 H 1371.56 -0.250421 -4.78445 0
M  V30 14129 H 1369.93 -0.0364028 -2.54674 0
M  V30 14130 H 1370.71 -1.64072 -3.01555 0
M  V30 14131 N 1373.15 1.5451 -0.310553 0
M  V30 14132 C 1374.4 1.99931 0.29532 0
M  V30 14133 C 1374.72 1.20042 1.53672 0
M  V30 14134 O 1373.99 0.298841 1.93607 0
M  V30 14135 H 1372.57 0.738539 0.112111 0
M  V30 14136 H 1375.24 1.9023 -0.424092 0
M  V30 14137 H 1374.33 3.07021 0.560749 0
M  V30 14138 N 1374.63 0.0384594 1.57553 0
M  V30 14139 C 1375.88 -0.639085 1.92467 0
M  V30 14140 C 1376.21 -1.71239 0.916014 0
M  V30 14141 O 1375.49 -1.94408 -0.0598928 0
M  V30 14142 C 1375.77 -1.24693 3.37822 0
M  V30 14143 C 1375.62 -0.182544 4.49429 0
M  V30 14144 C 1376.94 -2.16226 3.8332 0
M  V30 14145 H 1374.06 -0.230852 0.699912 0
M  V30 14146 H 1376.7 0.0976276 1.89749 0
M  V30 14147 H 1374.85 -1.87481 3.40269 0
M  V30 14148 H 1376.53 0.448622 4.59113 0
M  V30 14149 H 1374.77 0.4909 4.31013 0
M  V30 14150 H 1375.44 -0.647626 5.48188 0
M  V30 14151 H 1377.92 -1.63413 3.82669 0
M  V30 14152 H 1376.79 -2.55705 4.85702 0
M  V30 14153 H 1377.05 -3.05722 3.19353 0
M  V30 14154 N 1376.11 -1.55841 -0.234795 0
M  V30 14155 C 1377.04 -1.87793 -1.31402 0
M  V30 14156 C 1378.06 -0.765113 -1.43701 0
M  V30 14157 O 1379.25 -1.04332 -1.44834 0
M  V30 14158 C 1376.35 -2.05976 -2.69123 0
M  V30 14159 C 1375.52 -3.36914 -2.7894 0
M  V30 14160 C 1374.58 -3.44691 -3.97586 0
M  V30 14161 O 1373.6 -4.17818 -3.86545 0
M  V30 14162 N 1374.81 -2.74866 -5.11301 0
M  V30 14163 H 1377.57 -2.80957 -1.04324 0
M  V30 14164 H 1375.13 -1.56226 -0.424872 0
M  V30 14165 H 1377.12 -2.08507 -3.46853 0
M  V30 14166 H 1375.69 -1.195 -2.88857 0
M  V30 14167 H 1374.91 -3.46595 -1.87791 0
M  V30 14168 H 1376.2 -4.23196 -2.82458 0
M  V30 14169 H 1375.6 -2.15208 -5.23165 0
M  V30 14170 H 1374.16 -2.83075 -5.87122 0
M  V30 14171 N 1377.59 0.500963 -1.49426 0
M  V30 14172 C 1378.82 1.27725 -1.62388 0
M  V30 14173 C 1379.23 1.86893 -0.294544 0
M  V30 14174 O 1378.57 1.68571 0.73003 0
M  V30 14175 C 1378.63 2.44649 -2.63414 0
M  V30 14176 C 1378.3 2.0635 -4.0776 0
M  V30 14177 C 1379.29 1.60323 -4.94563 0
M  V30 14178 C 1376.98 2.15984 -4.53493 0
M  V30 14179 C 1378.97 1.24433 -6.25136 0
M  V30 14180 C 1376.66 1.79706 -5.8408 0
M  V30 14181 C 1377.66 1.34005 -6.69725 0
M  V30 14182 O 1377.35 0.982171 -7.97878 0
M  V30 14183 H 1377.08 0.393595 -0.549599 0
M  V30 14184 H 1379.63 0.607944 -1.96197 0
M  V30 14185 H 1377.86 3.14656 -2.24785 0
M  V30 14186 H 1379.55 3.06675 -2.65905 0
M  V30 14187 H 1380.32 1.52326 -4.60458 0
M  V30 14188 H 1376.2 2.50507 -3.86998 0
M  V30 14189 H 1379.74 0.886906 -6.91939 0
M  V30 14190 H 1375.64 1.87352 -6.17713 0
M  V30 14191 H 1376.4 1.11364 -8.10889 0
M  V30 14192 N 1379.07 1.38501 0.752011 0
M  V30 14193 C 1380 1.38577 1.87933 0
M  V30 14194 C 1380.98 0.251454 1.68231 0
M  V30 14195 O 1382.16 0.45477 1.888 0
M  V30 14196 C 1379.29 1.21164 3.25479 0
M  V30 14197 C 1378.25 2.31816 3.59785 0
M  V30 14198 C 1377.57 1.99508 4.96085 0
M  V30 14199 C 1378.87 3.74082 3.645 0
M  V30 14200 H 1380.57 2.32913 1.88127 0
M  V30 14201 H 1378.11 1.12113 0.903698 0
M  V30 14202 H 1380.07 1.19842 4.04 0
M  V30 14203 H 1378.79 0.232899 3.25769 0
M  V30 14204 H 1377.45 2.32327 2.83584 0
M  V30 14205 H 1377.1 1.00114 4.92936 0
M  V30 14206 H 1376.8 2.73617 5.20007 0
M  V30 14207 H 1378.32 1.99807 5.76983 0
M  V30 14208 H 1379.74 3.75593 4.33131 0
M  V30 14209 H 1378.13 4.47409 3.99931 0
M  V30 14210 H 1379.2 4.06284 2.64692 0
M  V30 14211 N 1380.55 -0.980364 1.23396 0
M  V30 14212 C 1381.79 -1.71826 1.06397 0
M  V30 14213 C 1382.11 -1.90854 -0.399958 0
M  V30 14214 O 1381.38 -1.47721 -1.28668 0
M  V30 14215 H 1379.96 -0.636669 0.390719 0
M  V30 14216 H 1382.63 -1.18008 1.55113 0
M  V30 14217 H 1381.72 -2.7078 1.55192 0
M  V30 14218 N 1382.02 -1.04567 -1.17913 0
M  V30 14219 C 1383.25 -0.771084 -1.91671 0
M  V30 14220 C 1383.66 0.676261 -1.76701 0
M  V30 14221 O 1383 1.47314 -1.09746 0
M  V30 14222 C 1383.07 -1.06406 -3.43392 0
M  V30 14223 C 1382.73 -2.50632 -3.82142 0
M  V30 14224 C 1383.73 -3.48825 -3.85509 0
M  V30 14225 C 1381.41 -2.85476 -4.1329 0
M  V30 14226 C 1383.41 -4.79909 -4.19483 0
M  V30 14227 C 1381.09 -4.16766 -4.46934 0
M  V30 14228 C 1382.09 -5.13793 -4.50007 0
M  V30 14229 O 1381.78 -6.42728 -4.82862 0
M  V30 14230 H 1381.51 -0.280258 -0.615168 0
M  V30 14231 H 1384.07 -1.39781 -1.50501 0
M  V30 14232 H 1382.3 -0.380221 -3.84826 0
M  V30 14233 H 1383.98 -0.776475 -3.98404 0
M  V30 14234 H 1384.75 -3.23245 -3.61577 0
M  V30 14235 H 1380.63 -2.10621 -4.10073 0
M  V30 14236 H 1384.17 -5.55638 -4.21796 0
M  V30 14237 H 1380.07 -4.42111 -4.70328 0
M  V30 14238 H 1380.84 -6.47454 -5.00744 0
M  V30 14239 N 1383.5 1.34231 -0.825823 0
M  V30 14240 C 1384.45 2.29467 -0.247724 0
M  V30 14241 C 1385.42 1.53724 0.629127 0
M  V30 14242 O 1386.6 1.82082 0.570156 0
M  V30 14243 C 1383.74 3.40157 0.582012 0
M  V30 14244 C 1382.86 4.30832 -0.317406 0
M  V30 14245 C 1381.99 5.28627 0.522176 0
M  V30 14246 C 1381.03 6.10941 -0.376448 0
M  V30 14247 N 1380.17 7.00817 0.424232 0
M  V30 14248 H 1385.01 2.78311 -1.06521 0
M  V30 14249 H 1382.54 1.36956 -0.536788 0
M  V30 14250 H 1384.5 4.03021 1.07843 0
M  V30 14251 H 1383.13 2.92539 1.36459 0
M  V30 14252 H 1382.18 3.68805 -0.932054 0
M  V30 14253 H 1383.5 4.88503 -1.00826 0
M  V30 14254 H 1382.65 5.96957 1.08295 0
M  V30 14255 H 1381.39 4.71501 1.24652 0
M  V30 14256 H 1380.39 5.41542 -0.94934 0
M  V30 14257 H 1381.62 6.70149 -1.09895 0
M  V30 14258 H 1379.57 6.46156 1.1322 0
M  V30 14259 H 1379.48 7.55713 -0.208175 0
M  V30 14260 H 1380.75 7.7347 0.967664 0
M  V30 14261 N 1384.98 0.581051 1.46498 0
M  V30 14262 C 1385.91 -0.140957 2.33074 0
M  V30 14263 C 1386.89 -0.885323 1.45245 0
M  V30 14264 O 1388.08 -0.86111 1.74065 0
M  V30 14265 C 1385.21 -1.15625 3.27488 0
M  V30 14266 C 1384.16 -0.526829 4.24745 0
M  V30 14267 C 1383.49 -1.64847 5.08655 0
M  V30 14268 C 1384.79 0.53492 5.19554 0
M  V30 14269 H 1386.48 0.581888 2.93691 0
M  V30 14270 H 1384.03 0.281278 1.41226 0
M  V30 14271 H 1385.98 -1.6697 3.8691 0
M  V30 14272 H 1384.7 -1.90935 2.64974 0
M  V30 14273 H 1383.36 -0.0344738 3.66584 0
M  V30 14274 H 1383.01 -2.3912 4.42528 0
M  V30 14275 H 1382.71 -1.23298 5.74518 0
M  V30 14276 H 1384.23 -2.16472 5.7094 0
M  V30 14277 H 1385.65 0.106606 5.73201 0
M  V30 14278 H 1384.04 0.870639 5.93751 0
M  V30 14279 H 1385.11 1.42184 4.63586 0
M  V30 14280 N 1386.46 -1.54343 0.318742 0
M  V30 14281 C 1387.71 -2.00084 -0.284713 0
M  V30 14282 C 1388.03 -1.20855 -1.53033 0
M  V30 14283 O 1387.3 -0.309104 -1.93446 0
M  V30 14284 H 1385.88 -0.739123 -0.108193 0
M  V30 14285 H 1388.54 -1.90002 0.434174 0
M  V30 14286 H 1387.63 -3.07314 -0.544459 0
M  V30 14287 N 1387.94 -0.0468143 -1.5753 0
M  V30 14288 C 1389.16 0.641161 -1.97241 0
M  V30 14289 C 1389.59 1.6384 -0.92401 0
M  V30 14290 O 1388.94 1.80946 0.113229 0
M  V30 14291 C 1388.99 1.30832 -3.36029 0
M  V30 14292 O 1388.1 2.42394 -3.33645 0
M  V30 14293 H 1387.44 0.167035 -0.642647 0
M  V30 14294 H 1389.97 -0.113921 -2.04283 0
M  V30 14295 H 1389.98 1.66102 -3.72658 0
M  V30 14296 H 1388.65 0.57744 -4.11872 0
M  V30 14297 H 1387.23 2.09104 -3.08756 0
M  V30 14298 N 1389.41 1.55964 0.226527 0
M  V30 14299 C 1390.64 1.82823 0.968673 0
M  V30 14300 C 1391.06 0.625281 1.78145 0
M  V30 14301 O 1390.41 -0.40617 1.77923 0
M  V30 14302 C 1390.47 3.08143 1.89024 0
M  V30 14303 O 1390.19 4.23797 1.11032 0
M  V30 14304 C 1391.69 3.47954 2.74669 0
M  V30 14305 H 1388.91 0.607876 0.284126 0
M  V30 14306 H 1391.45 2.03048 0.243258 0
M  V30 14307 H 1389.61 2.89908 2.56967 0
M  V30 14308 H 1390.02 4.94957 1.73546 0
M  V30 14309 H 1391.49 4.38691 3.35044 0
M  V30 14310 H 1391.97 2.69476 3.46813 0
M  V30 14311 H 1392.58 3.6861 2.12147 0
M  V30 14312 N 1390.89 -0.493031 1.4969 0
M  V30 14313 C 1392.12 -1.26862 1.63063 0
M  V30 14314 C 1392.53 -1.86734 0.304451 0
M  V30 14315 O 1391.87 -1.68956 -0.72108 0
M  V30 14316 C 1391.94 -2.43249 2.64708 0
M  V30 14317 C 1391.6 -2.04185 4.08849 0
M  V30 14318 C 1392.6 -1.57698 4.95406 0
M  V30 14319 C 1390.28 -2.13576 4.54632 0
M  V30 14320 C 1392.28 -1.21116 6.25787 0
M  V30 14321 C 1389.96 -1.76606 5.85024 0
M  V30 14322 C 1390.96 -1.30451 6.70426 0
M  V30 14323 O 1390.65 -0.939844 7.98387 0
M  V30 14324 H 1390.38 -0.390674 0.551679 0
M  V30 14325 H 1392.93 -0.59753 1.96516 0
M  V30 14326 H 1391.16 -3.1346 2.26451 0
M  V30 14327 H 1392.85 -3.0526 2.67528 0
M  V30 14328 H 1393.62 -1.49882 4.6126 0
M  V30 14329 H 1389.5 -2.48451 3.88321 0
M  V30 14330 H 1393.04 -0.850198 6.924 0
M  V30 14331 H 1388.94 -1.84074 6.18698 0
M  V30 14332 H 1389.71 -1.07062 8.11468 0
M  V30 14333 N 1392.37 -1.38898 -0.744656 0
M  V30 14334 C 1393.62 -1.35795 -1.50623 0
M  V30 14335 C 1393.95 0.0491775 -1.94138 0
M  V30 14336 O 1393.22 1.01219 -1.66087 0
M  V30 14337 C 1393.51 -2.32168 -2.75263 0
M  V30 14338 C 1393.36 -3.81781 -2.3783 0
M  V30 14339 C 1394.68 -2.26526 -3.77325 0
M  V30 14340 H 1391.8 -0.494591 -0.546396 0
M  V30 14341 H 1394.44 -1.69816 -0.852211 0
M  V30 14342 H 1392.59 -2.03287 -3.31069 0
M  V30 14343 H 1394.26 -4.21373 -1.8773 0
M  V30 14344 H 1392.51 -3.99027 -1.70176 0
M  V30 14345 H 1393.18 -4.44687 -3.27044 0
M  V30 14346 H 1395.65 -2.52041 -3.31081 0
M  V30 14347 H 1394.53 -2.96053 -4.62216 0
M  V30 14348 H 1394.79 -1.26705 -4.23554 0
M  V30 14349 N 1393.85 0.973806 -1.23914 0
M  V30 14350 C 1394.81 2.04892 -1.02723 0
M  V30 14351 C 1395.81 1.60795 0.0132972 0
M  V30 14352 O 1397 1.72714 -0.227084 0
M  V30 14353 C 1394.13 3.36341 -0.555667 0
M  V30 14354 H 1395.33 2.25124 -1.98139 0
M  V30 14355 H 1392.88 1.14817 -1.06051 0
M  V30 14356 H 1393.61 3.21799 0.40197 0
M  V30 14357 H 1393.4 3.69689 -1.30661 0
M  V30 14358 H 1394.89 4.15398 -0.428248 0
M  V30 14359 N 1395.33 1.05191 1.17357 0
M  V30 14360 C 1396.74 0.788105 1.69251 0
M  V30 14361 C 1397.09 -0.689717 1.83677 0
M  V30 14362 O 1396.21 -1.53601 1.52433 0
M  V30 14363 C 1396.81 1.42401 3.07421 0
M  V30 14364 C 1395.37 1.20825 3.5648 0
M  V30 14365 C 1394.51 1.50756 2.3274 0
M  V30 14366 H 1397.47 1.21686 1.01874 0
M  V30 14367 H 1397.49 0.833285 3.71264 0
M  V30 14368 H 1397 2.49958 2.96889 0
M  V30 14369 H 1395.1 0.15193 3.7229 0
M  V30 14370 H 1395.21 1.91319 4.39242 0
M  V30 14371 H 1393.58 0.927649 2.37206 0
M  V30 14372 H 1394.36 2.59446 2.24817 0
M  V30 14373 N 1396.8 -1.33791 0.83293 0
M  V30 14374 C 1398.05 -1.98266 0.426412 0
M  V30 14375 C 1398.38 -1.65848 -1.01035 0
M  V30 14376 O 1397.66 -0.93528 -1.70537 0
M  V30 14377 C 1397.94 -3.54356 0.640586 0
M  V30 14378 C 1397.79 -3.96482 2.12419 0
M  V30 14379 C 1399.11 -4.40022 0.0829237 0
M  V30 14380 H 1396.23 -0.720213 0.156404 0
M  V30 14381 H 1398.87 -1.58527 1.04735 0
M  V30 14382 H 1397.02 -3.88338 0.11204 0
M  V30 14383 H 1398.7 -3.72786 2.71714 0
M  V30 14384 H 1396.94 -3.46429 2.61092 0
M  V30 14385 H 1397.61 -5.05179 2.22482 0
M  V30 14386 H 1400.09 -4.12651 0.534634 0
M  V30 14387 H 1398.96 -5.48272 0.262511 0
M  V30 14388 H 1399.22 -4.30341 -1.01287 0
M  V30 14389 N 1398.28 -0.588812 -1.46187 0
M  V30 14390 C 1399.53 -0.0765765 -2.01955 0
M  V30 14391 C 1399.85 1.29034 -1.46203 0
M  V30 14392 O 1399.12 1.84836 -0.649044 0
M  V30 14393 H 1397.7 -0.025318 -0.746571 0
M  V30 14394 H 1400.36 -0.765971 -1.79217 0
M  V30 14395 H 1399.46 -0.0121702 -3.12098 0
M  V30 14396 N 1399.76 1.54172 -0.326923 0
M  V30 14397 C 1400.69 2.27402 0.530154 0
M  V30 14398 C 1401.67 1.28325 1.11655 0
M  V30 14399 O 1402.86 1.57142 1.14105 0
M  V30 14400 C 1399.99 3.03435 1.68951 0
M  V30 14401 C 1398.94 4.09877 1.23226 0
M  V30 14402 C 1398.27 4.7377 2.47882 0
M  V30 14403 C 1399.57 5.21161 0.344698 0
M  V30 14404 H 1401.26 2.99291 -0.0806959 0
M  V30 14405 H 1398.81 1.43944 -0.0402511 0
M  V30 14406 H 1400.76 3.53396 2.29541 0
M  V30 14407 H 1399.48 2.29169 2.327 0
M  V30 14408 H 1398.14 3.60805 0.649267 0
M  V30 14409 H 1397.79 3.96116 3.10002 0
M  V30 14410 H 1397.49 5.45674 2.17977 0
M  V30 14411 H 1399.01 5.26507 3.09229 0
M  V30 14412 H 1400.43 5.66859 0.856979 0
M  V30 14413 H 1398.83 5.99941 0.138276 0
M  V30 14414 H 1399.9 4.80874 -0.623575 0
M  V30 14415 N 1401.24 0.0551678 1.57503 0
M  V30 14416 C 1402.48 -0.618636 1.93134 0
M  V30 14417 C 1402.82 -1.70258 0.934125 0
M  V30 14418 O 1402.09 -1.9446 -0.0392699 0
M  V30 14419 C 1402.38 -1.21103 3.39126 0
M  V30 14420 C 1402.23 -0.134865 4.49598 0
M  V30 14421 C 1403.55 -2.12148 3.85592 0
M  V30 14422 H 1400.67 -0.223416 0.702321 0
M  V30 14423 H 1403.31 0.117748 1.89635 0
M  V30 14424 H 1401.46 -1.83862 3.42238 0
M  V30 14425 H 1403.13 0.497292 4.58612 0
M  V30 14426 H 1401.37 0.536587 4.30469 0
M  V30 14427 H 1402.04 -0.589447 5.48844 0
M  V30 14428 H 1404.52 -1.59346 3.8438 0
M  V30 14429 H 1403.4 -2.50539 4.88387 0
M  V30 14430 H 1403.66 -3.02318 3.22578 0
M  V30 14431 N 1402.72 -1.56081 -0.218252 0
M  V30 14432 C 1403.68 -1.91851 -1.25402 0
M  V30 14433 C 1404.68 -0.797399 -1.39636 0
M  V30 14434 O 1405.87 -1.06511 -1.37844 0
M  V30 14435 C 1403 -2.17223 -2.6273 0
M  V30 14436 H 1404.19 -2.84493 -0.948882 0
M  V30 14437 H 1401.75 -1.49414 -0.458809 0
M  V30 14438 H 1402.48 -1.27144 -2.98337 0
M  V30 14439 H 1402.27 -2.98899 -2.53775 0
M  V30 14440 H 1403.76 -2.45981 -3.37466 0
M  V30 14441 N 1404.2 0.485086 -1.49949 0
M  V30 14442 C 1405.11 1.61089 -1.70551 0
M  V30 14443 C 1406.12 1.63752 -0.588333 0
M  V30 14444 O 1407.3 1.81879 -0.86498 0
M  V30 14445 C 1404.36 2.97382 -1.78227 0
M  V30 14446 C 1403.42 3.05219 -3.01894 0
M  V30 14447 C 1402.66 4.35011 -3.09195 0
M  V30 14448 O 1402.88 5.24722 -2.23658 0
M  V30 14449 O 1401.81 4.48151 -4.01802 0
M  V30 14450 H 1405.64 1.46633 -2.65956 0
M  V30 14451 H 1403.22 0.663091 -1.33879 0
M  V30 14452 H 1405.11 3.78356 -1.85538 0
M  V30 14453 H 1403.78 3.12066 -0.860043 0
M  V30 14454 H 1402.69 2.23373 -3.00092 0
M  V30 14455 H 1404.02 2.95467 -3.93649 0
M  V30 14456 N 1405.67 1.39291 0.737279 0
M  V30 14457 C 1407.08 1.32489 1.31543 0
M  V30 14458 C 1407.44 -0.0118162 1.96196 0
M  V30 14459 O 1406.56 -0.913938 1.96153 0
M  V30 14460 C 1407.16 2.39946 2.39189 0
M  V30 14461 C 1405.71 2.36671 2.92684 0
M  V30 14462 C 1404.86 2.21953 1.66229 0
M  V30 14463 H 1407.81 1.49412 0.534954 0
M  V30 14464 H 1407.83 2.06603 3.19524 0
M  V30 14465 H 1407.35 3.3722 1.92104 0
M  V30 14466 H 1405.45 1.43028 3.44055 0
M  V30 14467 H 1405.56 3.31441 3.45953 0
M  V30 14468 H 1403.92 1.69087 1.90478 0
M  V30 14469 H 1404.71 3.21194 1.21199 0
M  V30 14470 N 1407.15 -0.967221 1.24429 0
M  V30 14471 C 1408.57 -1.23594 1.00979 0
M  V30 14472 C 1408.77 -1.99529 -0.281112 0
M  V30 14473 O 1407.82 -2.31977 -0.997139 0
M  V30 14474 C 1409.14 -2.02261 2.22511 0
M  V30 14475 C 1410.68 -2.15352 2.2714 0
M  V30 14476 C 1411.16 -2.97414 3.48294 0
M  V30 14477 N 1412.65 -3.04996 3.48614 0
M  V30 14478 C 1413.39 -3.68851 4.39017 0
M  V30 14479 N 1412.88 -4.34421 5.39676 0
M  V30 14480 N 1414.67 -3.65868 4.26728 0
M  V30 14481 H 1406.83 -0.458881 2.07384 0
M  V30 14482 H 1409.09 -0.265411 0.910088 0
M  V30 14483 H 1408.79 -1.53852 3.16263 0
M  V30 14484 H 1408.67 -3.02993 2.24667 0
M  V30 14485 H 1411.06 -2.62964 1.33919 0
M  V30 14486 H 1411.14 -1.13966 2.2901 0
M  V30 14487 H 1410.78 -2.50495 4.41831 0
M  V30 14488 H 1410.71 -3.98998 3.43668 0
M  V30 14489 H 1413.2 -2.58354 2.75793 0
M  V30 14490 H 1413.51 -4.80965 6.04891 0
M  V30 14491 H 1411.86 -4.33089 5.43562 0
M  V30 14492 H 1415.05 -3.13819 3.47325 0
M  V30 14493 H 1415.22 -4.15349 4.97382 0
M  V30 14494 N 1408.63 -1.05812 -1.16797 0
M  V30 14495 C 1409.88 -0.767008 -1.86547 0
M  V30 14496 C 1410.19 0.708979 -1.82299 0
M  V30 14497 O 1411.4 1.11428 -2.4758 0
M  V30 14498 C 1409.85 -1.32186 -3.34746 0
M  V30 14499 C 1409.46 -2.82774 -3.4748 0
M  V30 14500 C 1411.21 -1.10808 -4.09783 0
M  V30 14501 C 1409.11 -3.31529 -4.89737 0
M  V30 14502 H 1408.04 -0.283235 -0.698781 0
M  V30 14503 H 1410.69 -1.27621 -1.31853 0
M  V30 14504 H 1409.08 -0.740453 -3.89016 0
M  V30 14505 H 1410.25 -3.46825 -3.03396 0
M  V30 14506 H 1408.56 -3.02765 -2.85871 0
M  V30 14507 H 1411.16 -1.44728 -5.14741 0
M  V30 14508 H 1411.5 -0.046167 -4.16274 0
M  V30 14509 H 1412.04 -1.65502 -3.61737 0
M  V30 14510 H 1408.78 -4.37177 -4.88422 0
M  V30 14511 H 1408.3 -2.72224 -5.34466 0
M  V30 14512 H 1409.98 -3.26572 -5.58534 0
M  V30 14513 N 1410.11 1.33347 -0.840014 0
M  V30 14514 C 1411.07 2.27492 -0.279264 0
M  V30 14515 C 1412.07 1.51004 0.552669 0
M  V30 14516 O 1413.26 1.70305 0.366295 0
M  V30 14517 C 1410.39 3.35462 0.606466 0
M  V30 14518 H 1411.59 2.78601 -1.11001 0
M  V30 14519 H 1409.14 1.4377 -0.613187 0
M  V30 14520 H 1409.87 2.89596 1.45961 0
M  V30 14521 H 1409.66 3.92098 0.0111889 0
M  V30 14522 H 1411.15 4.05645 0.992052 0
M  V30 14523 N 1411.59 0.596556 1.45873 0
M  V30 14524 C 1412.81 0.0934926 2.06689 0
M  V30 14525 C 1413.23 -1.21743 1.44305 0
M  V30 14526 O 1412.59 -1.73912 0.553253 0
M  V30 14527 C 1412.64 -0.0643337 3.61443 0
M  V30 14528 O 1412.36 1.19472 4.21495 0
M  V30 14529 C 1413.86 -0.600141 4.39219 0
M  V30 14530 H 1411.08 0.0637846 0.667961 0
M  V30 14531 H 1413.62 0.821159 1.87289 0
M  V30 14532 H 1411.78 -0.742278 3.80222 0
M  V30 14533 H 1412.19 1.01735 5.14539 0
M  V30 14534 H 1413.67 -0.6597 5.48044 0
M  V30 14535 H 1414.14 -1.62009 4.08227 0
M  V30 14536 H 1414.75 0.0433915 4.25278 0
M  V30 14537 N 1413.06 -1.53996 0.335095 0
M  V30 14538 C 1413.99 -2.2768 -0.518087 0
M  V30 14539 C 1414.97 -1.28915 -1.10972 0
M  V30 14540 O 1416.16 -1.57745 -1.1327 0
M  V30 14541 C 1413.29 -3.04327 -1.67339 0
M  V30 14542 C 1412.24 -4.10525 -1.2105 0
M  V30 14543 C 1411.57 -4.75078 -2.45366 0
M  V30 14544 C 1412.87 -5.21337 -0.317055 0
M  V30 14545 H 1414.56 -2.99244 0.0965669 0
M  V30 14546 H 1412.11 -1.4392 0.0478842 0
M  V30 14547 H 1414.06 -3.54608 -2.27664 0
M  V30 14548 H 1412.79 -2.30399 -2.31481 0
M  V30 14549 H 1411.45 -3.61144 -0.630124 0
M  V30 14550 H 1411.09 -3.97754 -3.07897 0
M  V30 14551 H 1410.79 -5.46822 -2.1508 0
M  V30 14552 H 1412.32 -5.2814 -3.06432 0
M  V30 14553 H 1413.73 -5.67305 -0.826905 0
M  V30 14554 H 1412.13 -6.00006 -0.106458 0
M  V30 14555 H 1413.2 -4.80536 0.649068 0
M  V30 14556 N 1414.54 -0.0635198 -1.57472 0
M  V30 14557 C 1415.79 0.602418 -1.94274 0
M  V30 14558 C 1416.14 1.67717 -0.942797 0
M  V30 14559 O 1415.44 1.91566 0.0361878 0
M  V30 14560 C 1415.63 1.23117 -3.35525 0
M  V30 14561 C 1415.46 0.218848 -4.49167 0
M  V30 14562 C 1414.23 -0.19356 -5.04929 0
M  V30 14563 C 1416.43 -0.540636 -5.1145 0
M  V30 14564 N 1414.41 -1.19745 -6.02108 0
M  V30 14565 C 1415.78 -1.39725 -6.0405 0
M  V30 14566 C 1417.83 -0.597606 -4.94301 0
M  V30 14567 C 1416.54 -2.30575 -6.81342 0
M  V30 14568 C 1418.56 -1.49358 -5.72229 0
M  V30 14569 C 1417.93 -2.33789 -6.64471 0
M  V30 14570 H 1414.02 0.191715 -0.758135 0
M  V30 14571 H 1416.61 -0.138733 -1.94205 0
M  V30 14572 H 1414.78 1.94229 -3.36348 0
M  V30 14573 H 1416.51 1.85691 -3.59584 0
M  V30 14574 H 1413.27 0.187897 -4.73227 0
M  V30 14575 H 1413.69 -1.69666 -6.55395 0
M  V30 14576 H 1418.33 0.0409459 -4.2278 0
M  V30 14577 H 1416.05 -2.9547 -7.52146 0
M  V30 14578 H 1419.64 -1.5424 -5.60983 0
M  V30 14579 H 1418.52 -3.01995 -7.23719 0
M  V30 14580 N 1416.02 1.56195 0.209972 0
M  V30 14581 C 1417.3 1.70553 0.957653 0
M  V30 14582 C 1417.68 0.614091 2.01971 0
M  V30 14583 O 1417.02 -0.377192 2.25365 0
M  V30 14584 C 1417.23 3.12314 1.55759 0
M  V30 14585 C 1418.58 3.72085 2.04543 0
M  V30 14586 O 1419.61 3.15349 1.65631 0
M  V30 14587 O 1418.47 4.71627 2.76099 0
M  V30 14588 H 1415.56 0.695077 0.448104 0
M  V30 14589 H 1418.11 1.68507 0.20084 0
M  V30 14590 H 1416.88 3.83215 0.791302 0
M  V30 14591 H 1416.5 3.18526 2.37964 0
M  V30 14592 N 1417.5 -0.477127 1.50204 0
M  V30 14593 C 1418.74 -1.23147 1.6113 0
M  V30 14594 C 1419.08 -1.91743 0.307909 0
M  V30 14595 O 1418.35 -1.81841 -0.690223 0
M  V30 14596 C 1418.63 -2.27985 2.78738 0
M  V30 14597 C 1418.49 -1.63733 4.18941 0
M  V30 14598 C 1419.81 -3.29349 2.9192 0
M  V30 14599 H 1416.93 -0.446358 0.586459 0
M  V30 14600 H 1419.57 -0.52612 1.8257 0
M  V30 14601 H 1417.72 -2.88143 2.60588 0
M  V30 14602 H 1419.39 -1.07218 4.48667 0
M  V30 14603 H 1417.63 -0.940634 4.23479 0
M  V30 14604 H 1418.3 -2.39888 4.9715 0
M  V30 14605 H 1420.78 -2.79208 3.08516 0
M  V30 14606 H 1419.66 -4.0004 3.75845 0
M  V30 14607 H 1419.92 -3.93111 2.02278 0
M  V30 14608 N 1418.98 -1.3968 -0.729882 0
M  V30 14609 C 1419.91 -1.34713 -1.85432 0
M  V30 14610 C 1420.92 -0.254999 -1.60791 0
M  V30 14611 O 1422.11 -0.514324 -1.7093 0
M  V30 14612 C 1419.21 -1.07019 -3.21559 0
M  V30 14613 C 1418.38 -2.27609 -3.73515 0
M  V30 14614 C 1417.44 -1.96292 -4.88217 0
M  V30 14615 O 1416.47 -2.69025 -5.01612 0
M  V30 14616 N 1417.67 -0.932181 -5.72967 0
M  V30 14617 H 1420.44 -2.31616 -1.90195 0
M  V30 14618 H 1418 -1.33849 -0.910834 0
M  V30 14619 H 1419.99 -0.84079 -3.9587 0
M  V30 14620 H 1418.56 -0.188323 -3.12032 0
M  V30 14621 H 1417.78 -2.66468 -2.90497 0
M  V30 14622 H 1419.07 -3.08033 -4.04961 0
M  V30 14623 H 1418.46 -0.329507 -5.6474 0
M  V30 14624 H 1417.02 -0.762684 -6.47322 0
M  V30 14625 N 1420.45 0.960609 -1.2494 0
M  V30 14626 C 1421.4 2.05634 -1.04801 0
M  V30 14627 C 1422.37 1.66049 0.0409611 0
M  V30 14628 O 1423.56 1.90453 -0.115053 0
M  V30 14629 C 1420.7 3.38604 -0.666444 0
M  V30 14630 C 1419.81 3.91341 -1.82964 0
M  V30 14631 C 1418.94 5.1261 -1.39299 0
M  V30 14632 C 1417.98 5.57562 -2.52569 0
M  V30 14633 N 1417.12 6.70046 -2.09722 0
M  V30 14634 H 1421.96 2.22194 -1.9858 0
M  V30 14635 H 1419.5 1.08892 -0.988981 0
M  V30 14636 H 1421.46 4.15017 -0.426205 0
M  V30 14637 H 1420.09 3.21948 0.23435 0
M  V30 14638 H 1419.14 3.11502 -2.18335 0
M  V30 14639 H 1420.45 4.20656 -2.68049 0
M  V30 14640 H 1419.6 5.96421 -1.11205 0
M  V30 14641 H 1418.34 4.84997 -0.512779 0
M  V30 14642 H 1417.35 4.72319 -2.81415 0
M  V30 14643 H 1418.57 5.87186 -3.41159 0
M  V30 14644 H 1416.52 6.44153 -1.24109 0
M  V30 14645 H 1416.44 6.98846 -2.88357 0
M  V30 14646 H 1417.7 7.57281 -1.84787 0
M  V30 14647 N 1421.93 1.0643 1.16234 0
M  V30 14648 C 1422.86 0.697605 2.22836 0
M  V30 14649 C 1423.84 -0.310563 1.67241 0
M  V30 14650 O 1425.03 -0.185385 1.93313 0
M  V30 14651 C 1422.16 0.0847097 3.47197 0
M  V30 14652 C 1421.11 1.019 4.15693 0
M  V30 14653 C 1420.44 0.269339 5.34021 0
M  V30 14654 C 1421.74 2.34861 4.66516 0
M  V30 14655 H 1423.43 1.58883 2.53765 0
M  V30 14656 H 1420.98 0.765388 1.21975 0
M  V30 14657 H 1422.93 -0.1837 4.20999 0
M  V30 14658 H 1421.66 -0.84154 3.15572 0
M  V30 14659 H 1420.31 1.27218 3.43818 0
M  V30 14660 H 1419.96 -0.660072 4.9865 0
M  V30 14661 H 1419.66 0.892001 5.8079 0
M  V30 14662 H 1421.19 0.00850775 6.10599 0
M  V30 14663 H 1422.6 2.13922 5.31893 0
M  V30 14664 H 1421 2.92637 5.23912 0
M  V30 14665 H 1422.07 2.97834 3.82653 0
M  V30 14666 N 1423.41 -1.329 0.847073 0
M  V30 14667 C 1424.66 -1.97803 0.447417 0
M  V30 14668 C 1424.99 -1.6691 -0.9927 0
M  V30 14669 O 1424.26 -0.953315 -1.69535 0
M  V30 14670 C 1424.55 -3.53657 0.678135 0
M  V30 14671 C 1424.4 -3.94207 2.16612 0
M  V30 14672 C 1425.72 -4.39909 0.129589 0
M  V30 14673 H 1422.84 -0.718514 0.164034 0
M  V30 14674 H 1425.48 -1.57407 1.0641 0
M  V30 14675 H 1423.63 -3.88198 0.153222 0
M  V30 14676 H 1425.3 -3.69883 2.75653 0
M  V30 14677 H 1423.55 -3.43641 2.64752 0
M  V30 14678 H 1424.22 -5.02791 2.27827 0
M  V30 14679 H 1426.69 -4.12061 0.578371 0
M  V30 14680 H 1425.57 -5.47963 0.320648 0
M  V30 14681 H 1425.83 -4.31391 -0.967167 0
M  V30 14682 N 1424.89 -0.604284 -1.45555 0
M  V30 14683 C 1426.14 -0.0979922 -2.01862 0
M  V30 14684 C 1426.46 1.27476 -1.47563 0
M  V30 14685 O 1425.73 1.84137 -0.668612 0
M  V30 14686 H 1424.31 -0.033235 -0.74626 0
M  V30 14687 H 1426.97 -0.784936 -1.78395 0
M  V30 14688 H 1426.07 -0.0452716 -3.12067 0
M  V30 14689 N 1426.37 1.53816 -0.343257 0
M  V30 14690 C 1427.59 2.05796 0.257418 0
M  V30 14691 C 1428.02 1.2166 1.43459 0
M  V30 14692 O 1427.37 0.230278 1.79832 0
M  V30 14693 C 1427.42 3.54681 0.65068 0
M  V30 14694 O 1426.53 3.73394 1.75074 0
M  V30 14695 H 1425.87 0.662622 0.042757 0
M  V30 14696 H 1428.4 1.98462 -0.497386 0
M  V30 14697 H 1428.41 3.97308 0.927914 0
M  V30 14698 H 1427.08 4.15368 -0.210199 0
M  V30 14699 H 1425.66 3.42669 1.4708 0
M  V30 14700 N 1427.84 0.0718701 1.57436 0
M  V30 14701 C 1428.77 -0.89288 2.15754 0
M  V30 14702 C 1429.76 -1.31036 1.0846 0
M  V30 14703 O 1430.94 -1.38139 1.36496 0
M  V30 14704 C 1428.07 -2.16044 2.71923 0
M  V30 14705 C 1427.02 -1.88236 3.84384 0
M  V30 14706 C 1426.35 -3.21624 4.27156 0
M  V30 14707 C 1427.65 -1.18758 5.0862 0
M  V30 14708 H 1429.34 -0.407061 2.9662 0
M  V30 14709 H 1426.89 -0.194354 1.42682 0
M  V30 14710 H 1428.84 -2.83952 3.11366 0
M  V30 14711 H 1427.57 -2.66868 1.88279 0
M  V30 14712 H 1426.23 -1.22734 3.45445 0
M  V30 14713 H 1425.87 -3.70289 3.40433 0
M  V30 14714 H 1425.57 -3.03809 5.02965 0
M  V30 14715 H 1427.1 -3.90729 4.69215 0
M  V30 14716 H 1428.51 -1.76735 5.45378 0
M  V30 14717 H 1426.91 -1.11201 5.89707 0
M  V30 14718 H 1427.98 -0.166682 4.84613 0
M  V30 14719 N 1429.32 -1.56304 -0.201686 0
M  V30 14720 C 1430.25 -1.90538 -1.27389 0
M  V30 14721 C 1431.27 -0.795422 -1.42045 0
M  V30 14722 O 1432.46 -1.07381 -1.42589 0
M  V30 14723 C 1429.56 -2.11638 -2.64694 0
M  V30 14724 C 1428.73 -3.42755 -2.71731 0
M  V30 14725 C 1427.79 -3.53047 -3.90185 0
M  V30 14726 O 1426.81 -4.25923 -3.77595 0
M  V30 14727 N 1428.02 -2.85649 -5.05356 0
M  V30 14728 H 1430.78 -2.83106 -0.983411 0
M  V30 14729 H 1428.34 -1.57092 -0.391638 0
M  V30 14730 H 1430.33 -2.15818 -3.42352 0
M  V30 14731 H 1428.9 -1.256 -2.86258 0
M  V30 14732 H 1428.12 -3.50501 -1.80397 0
M  V30 14733 H 1429.41 -4.29092 -2.73418 0
M  V30 14734 H 1428.81 -2.26256 -5.18483 0
M  V30 14735 H 1427.37 -2.95465 -5.80985 0
M  V30 14736 N 1430.8 0.469154 -1.50455 0
M  V30 14737 C 1432.05 1.22002 -1.62748 0
M  V30 14738 C 1432.4 1.89642 -0.324611 0
M  V30 14739 O 1431.69 1.79218 0.677597 0
M  V30 14740 C 1431.89 2.28673 -2.7467 0
M  V30 14741 C 1431.72 1.71498 -4.15714 0
M  V30 14742 C 1430.49 1.51386 -4.8209 0
M  V30 14743 C 1432.69 1.20886 -4.99891 0
M  V30 14744 N 1430.67 0.894745 -6.07345 0
M  V30 14745 C 1432.04 0.713084 -6.15886 0
M  V30 14746 C 1434.09 1.09759 -4.85652 0
M  V30 14747 C 1432.8 0.117016 -7.19205 0
M  V30 14748 C 1434.82 0.515452 -5.89149 0
M  V30 14749 C 1434.18 0.0300686 -7.04394 0
M  V30 14750 H 1430.28 0.435249 -0.649679 0
M  V30 14751 H 1432.87 0.521706 -1.8758 0
M  V30 14752 H 1431.04 2.95929 -2.51557 0
M  V30 14753 H 1432.77 2.95693 -2.76311 0
M  V30 14754 H 1429.53 1.76665 -4.39416 0
M  V30 14755 H 1429.95 0.603547 -6.74304 0
M  V30 14756 H 1434.59 1.45878 -3.96837 0
M  V30 14757 H 1432.31 -0.256378 -8.07693 0
M  V30 14758 H 1435.9 0.431698 -5.80196 0
M  V30 14759 H 1434.78 -0.413327 -7.8311 0
M  V30 14760 N 1432.28 1.40065 0.722464 0
M  V30 14761 C 1433.21 1.42532 1.84951 0
M  V30 14762 C 1434.19 0.287082 1.6766 0
M  V30 14763 O 1435.37 0.494715 1.87793 0
M  V30 14764 C 1432.5 1.28041 3.22836 0
M  V30 14765 C 1431.46 2.39396 3.54787 0
M  V30 14766 C 1430.78 2.09986 4.91742 0
M  V30 14767 C 1432.08 3.81729 3.56483 0
M  V30 14768 H 1433.78 2.36851 1.83144 0
M  V30 14769 H 1431.32 1.14005 0.879714 0
M  V30 14770 H 1433.28 1.28385 4.01367 0
M  V30 14771 H 1432 0.301947 3.25201 0
M  V30 14772 H 1430.66 2.3829 2.78592 0
M  V30 14773 H 1430.31 1.10547 4.90702 0
M  V30 14774 H 1430.01 2.84586 5.14086 0
M  V30 14775 H 1431.53 2.12 5.72615 0
M  V30 14776 H 1432.95 3.84696 4.25067 0
M  V30 14777 H 1431.34 4.55791 3.90351 0
M  V30 14778 H 1432.41 4.11807 2.56014 0
M  V30 14779 N 1433.76 -0.95397 1.25448 0
M  V30 14780 C 1435.17 -1.22516 1.02284 0
M  V30 14781 C 1435.37 -1.99816 -0.259933 0
M  V30 14782 O 1434.43 -2.33022 -0.972479 0
M  V30 14783 C 1435.74 -1.9989 2.24643 0
M  V30 14784 C 1437.29 -2.1293 2.29412 0
M  V30 14785 C 1437.77 -2.93703 3.51429 0
M  V30 14786 N 1439.26 -3.01281 3.51829 0
M  V30 14787 C 1439.99 -3.64174 4.42905 0
M  V30 14788 N 1439.49 -4.28673 5.44253 0
M  V30 14789 N 1441.28 -3.61321 4.30585 0
M  V30 14790 H 1433.43 -0.436859 2.07859 0
M  V30 14791 H 1435.69 -0.255744 0.912852 0
M  V30 14792 H 1435.4 -1.50489 3.17877 0
M  V30 14793 H 1435.27 -3.00593 2.27868 0
M  V30 14794 H 1437.66 -2.61528 1.367 0
M  V30 14795 H 1437.74 -1.1153 2.30206 0
M  V30 14796 H 1437.39 -2.45795 4.44463 0
M  V30 14797 H 1437.32 -3.95331 3.47881 0
M  V30 14798 H 1439.81 -2.55414 2.78517 0
M  V30 14799 H 1440.12 -4.74522 6.09958 0
M  V30 14800 H 1438.47 -4.27299 5.48125 0
M  V30 14801 H 1441.66 -3.10118 3.50634 0
M  V30 14802 H 1441.83 -4.1005 5.0176 0
M  V30 14803 N 1435.24 -1.07045 -1.15668 0
M  V30 14804 C 1436.65 -0.814932 -1.67975 0
M  V30 14805 C 1437 0.660408 -1.84751 0
M  V30 14806 O 1436.12 1.51156 -1.54857 0
M  V30 14807 C 1436.72 -1.47274 -3.05116 0
M  V30 14808 C 1435.28 -1.26481 -3.54513 0
M  V30 14809 C 1434.42 -1.54439 -2.30312 0
M  V30 14810 H 1437.37 -1.23291 -0.999251 0
M  V30 14811 H 1437.4 -0.892244 -3.69891 0
M  V30 14812 H 1436.91 -2.54649 -2.92874 0
M  V30 14813 H 1435.01 -0.211138 -3.72001 0
M  V30 14814 H 1435.12 -1.98283 -4.36143 0
M  V30 14815 H 1433.49 -0.965269 -2.357 0
M  V30 14816 H 1434.27 -2.6299 -2.20661 0
M  V30 14817 N 1436.71 1.32449 -0.85411 0
M  V30 14818 C 1437.68 2.27183 -0.303377 0
M  V30 14819 C 1438.68 1.51582 0.536622 0
M  V30 14820 O 1439.87 1.70684 0.348211 0
M  V30 14821 C 1437 3.36086 0.570852 0
M  V30 14822 H 1438.19 2.77408 -1.1395 0
M  V30 14823 H 1435.74 1.43111 -0.628402 0
M  V30 14824 H 1436.48 2.91128 1.42881 0
M  V30 14825 H 1436.26 3.92088 -0.030399 0
M  V30 14826 H 1437.75 4.06675 0.948972 0
M  V30 14827 N 1438.19 0.611994 1.45232 0
M  V30 14828 C 1439.12 -0.0914869 2.33321 0
M  V30 14829 C 1440.1 -0.854315 1.4709 0
M  V30 14830 O 1441.29 -0.823994 1.75852 0
M  V30 14831 C 1438.42 -1.08652 3.29867 0
M  V30 14832 C 1437.37 -0.436615 4.25767 0
M  V30 14833 C 1436.7 -1.54021 5.12037 0
M  V30 14834 C 1438 0.645005 5.18302 0
M  V30 14835 H 1439.69 0.644053 2.92391 0
M  V30 14836 H 1437.24 0.311171 1.40598 0
M  V30 14837 H 1439.19 -1.58726 3.90364 0
M  V30 14838 H 1437.91 -1.85271 2.68965 0
M  V30 14839 H 1436.57 0.0432918 3.66574 0
M  V30 14840 H 1436.22 -2.29679 4.475 0
M  V30 14841 H 1435.92 -1.11084 5.77005 0
M  V30 14842 H 1437.45 -2.04313 5.75403 0
M  V30 14843 H 1438.86 0.228166 5.72846 0
M  V30 14844 H 1437.26 0.996387 5.9177 0
M  V30 14845 H 1438.33 1.51985 4.60466 0
M  V30 14846 N 1439.67 -1.53632 0.351409 0
M  V30 14847 C 1440.92 -2.00643 -0.242208 0
M  V30 14848 C 1441.24 -1.24074 -1.50435 0
M  V30 14849 O 1440.51 -0.350067 -1.92747 0
M  V30 14850 H 1439.09 -0.741252 -0.0924904 0
M  V30 14851 H 1441.75 -1.89039 0.474379 0
M  V30 14852 H 1440.85 -3.084 -0.479151 0
M  V30 14853 N 1441.15 -0.0802183 -1.57396 0
M  V30 14854 C 1442.4 0.586573 -1.92982 0
M  V30 14855 C 1442.71 1.70256 -0.962918 0
M  V30 14856 O 1443.92 2.4295 -1.21193 0
M  V30 14857 C 1442.37 1.09475 -3.42846 0
M  V30 14858 C 1441.98 0.0093098 -4.47999 0
M  V30 14859 C 1443.72 1.73512 -3.87419 0
M  V30 14860 C 1441.63 0.532002 -5.89002 0
M  V30 14861 H 1440.56 0.222878 -0.720306 0
M  V30 14862 H 1443.21 -0.153816 -1.82854 0
M  V30 14863 H 1441.59 1.88836 -3.48076 0
M  V30 14864 H 1442.77 -0.765609 -4.54395 0
M  V30 14865 H 1441.08 -0.535345 -4.12944 0
M  V30 14866 H 1443.68 2.13665 -4.90154 0
M  V30 14867 H 1444.02 2.59845 -3.25248 0
M  V30 14868 H 1444.56 1.00758 -3.84828 0
M  V30 14869 H 1441.29 -0.294364 -6.54839 0
M  V30 14870 H 1440.81 1.27425 -5.86108 0
M  V30 14871 H 1442.49 1.00573 -6.39135 0
M  V30 14872 N 1442.63 1.56409 0.193394 0
M  V30 14873 C 1444.04 1.70624 0.757915 0
M  V30 14874 C 1444.39 0.687074 1.83776 0
M  V30 14875 O 1443.51 -0.15616 2.15836 0
M  V30 14876 C 1444.11 3.09352 1.38156 0
M  V30 14877 C 1442.67 3.25326 1.89315 0
M  V30 14878 C 1441.81 2.66576 0.763727 0
M  V30 14879 H 1444.76 1.58668 -0.0317034 0
M  V30 14880 H 1444.79 3.06776 2.25098 0
M  V30 14881 H 1444.3 3.83506 0.595398 0
M  V30 14882 H 1442.4 2.5609 2.70644 0
M  V30 14883 H 1442.51 4.32848 2.05376 0
M  V30 14884 H 1440.88 2.25797 1.17846 0
M  V30 14885 H 1441.66 3.43298 -0.0102243 0
M  V30 14886 N 1444.1 -0.461169 1.50702 0
M  V30 14887 C 1445.51 -1.04177 1.54932 0
M  V30 14888 C 1445.87 -1.92894 0.358648 0
M  V30 14889 O 1444.99 -2.09876 -0.527346 0
M  V30 14890 C 1445.59 -1.8961 2.80773 0
M  V30 14891 C 1444.14 -2.42761 2.87652 0
M  V30 14892 C 1443.29 -1.21356 2.49335 0
M  V30 14893 H 1446.24 -0.243379 1.56823 0
M  V30 14894 H 1446.26 -2.74794 2.63189 0
M  V30 14895 H 1445.78 -1.25014 3.67414 0
M  V30 14896 H 1443.88 -3.10881 2.05386 0
M  V30 14897 H 1443.99 -2.77189 3.90772 0
M  V30 14898 H 1442.35 -1.55146 2.01995 0
M  V30 14899 H 1443.14 -0.584069 3.38295 0
M  V30 14900 N 1445.58 -1.40446 -0.715026 0
M  V30 14901 C 1447 -1.22488 -1.02317 0
M  V30 14902 C 1447.2 -0.100481 -2.01249 0
M  V30 14903 O 1446.25 0.541447 -2.46626 0
M  V30 14904 C 1447.57 -2.56682 -1.56636 0
M  V30 14905 C 1449.11 -2.63699 -1.68617 0
M  V30 14906 C 1449.59 -3.98163 -2.26342 0
M  V30 14907 N 1451.08 -3.99907 -2.33727 0
M  V30 14908 C 1451.82 -5.00737 -2.79375 0
M  V30 14909 N 1451.31 -6.11961 -3.24771 0
M  V30 14910 N 1453.1 -4.88106 -2.78764 0
M  V30 14911 H 1445.26 -2.12317 -0.0592712 0
M  V30 14912 H 1447.52 -0.943823 -0.088895 0
M  V30 14913 H 1447.22 -3.39615 -0.914036 0
M  V30 14914 H 1447.1 -2.77809 -2.55151 0
M  V30 14915 H 1449.49 -1.81138 -2.32966 0
M  V30 14916 H 1449.57 -2.46402 -0.687004 0
M  V30 14917 H 1449.21 -4.81164 -1.62614 0
M  V30 14918 H 1449.14 -4.1279 -3.26974 0
M  V30 14919 H 1451.63 -3.19592 -2.01666 0
M  V30 14920 H 1451.94 -6.84787 -3.58171 0
M  V30 14921 H 1450.29 -6.15525 -3.22729 0
M  V30 14922 H 1453.48 -4.00307 -2.42635 0
M  V30 14923 H 1453.65 -5.66828 -3.14023 0
M  V30 14924 N 1447.06 0.947303 -1.25952 0
M  V30 14925 C 1447.99 2.0625 -1.09467 0
M  V30 14926 C 1448.97 1.701 -0.00160498 0
M  V30 14927 O 1450.16 1.93432 -0.172501 0
M  V30 14928 C 1447.29 3.39746 -0.720392 0
M  V30 14929 C 1446.24 3.89935 -1.76451 0
M  V30 14930 C 1445.57 5.2001 -1.24472 0
M  V30 14931 C 1446.87 4.15496 -3.16481 0
M  V30 14932 H 1448.56 2.203 -2.02752 0
M  V30 14933 H 1446.11 1.05858 -0.97622 0
M  V30 14934 H 1448.06 4.17221 -0.591972 0
M  V30 14935 H 1446.78 3.25656 0.248161 0
M  V30 14936 H 1445.44 3.14635 -1.8815 0
M  V30 14937 H 1445.09 5.02295 -0.266182 0
M  V30 14938 H 1444.79 5.54559 -1.94263 0
M  V30 14939 H 1446.31 6.00075 -1.12884 0
M  V30 14940 H 1447.73 4.83605 -3.07894 0
M  V30 14941 H 1446.12 4.61315 -3.83808 0
M  V30 14942 H 1447.19 3.21501 -3.62995 0
M  V30 14943 N 1448.54 1.07657 1.15099 0
M  V30 14944 C 1449.47 0.643791 2.18931 0
M  V30 14945 C 1450.45 -0.340546 1.58994 0
M  V30 14946 O 1451.63 -0.24623 1.86885 0
M  V30 14947 C 1448.76 -0.0541901 3.38657 0
M  V30 14948 C 1447.81 0.889081 4.1713 0
M  V30 14949 S 1448.64 2.39173 4.79121 0
M  V30 14950 C 1449.8 1.70563 6.02212 0
M  V30 14951 H 1450.03 1.52342 2.55302 0
M  V30 14952 H 1447.56 0.890824 1.2611 0
M  V30 14953 H 1449.52 -0.45064 4.08019 0
M  V30 14954 H 1448.18 -0.910208 3.00623 0
M  V30 14955 H 1447.37 0.347484 5.02801 0
M  V30 14956 H 1446.98 1.22606 3.53332 0
M  V30 14957 H 1449.27 1.01914 6.69791 0
M  V30 14958 H 1450.21 2.54078 6.60946 0
M  V30 14959 H 1450.62 1.18228 5.51981 0
M  V30 14960 N 1450.02 -1.31994 0.861122 0
M  V30 14961 C 1451.26 -1.96636 0.466754 0
M  V30 14962 C 1451.59 -1.6845 -0.982328 0
M  V30 14963 O 1450.86 -0.995157 -1.68741 0
M  V30 14964 H 1449.44 -0.727489 0.169613 0
M  V30 14965 H 1452.1 -1.60962 1.09897 0
M  V30 14966 H 1451.19 -3.05937 0.61716 0
M  V30 14967 N 1451.49 -0.619688 -1.44906 0
M  V30 14968 C 1452.91 -0.203309 -1.8559 0
M  V30 14969 C 1453.26 1.24265 -1.51831 0
M  V30 14970 O 1452.38 1.94392 -0.950819 0
M  V30 14971 C 1452.98 -0.362204 -3.36858 0
M  V30 14972 C 1451.54 -0.000423575 -3.764 0
M  V30 14973 C 1450.68 -0.680979 -2.68808 0
M  V30 14974 H 1453.63 -0.825595 -1.35535 0
M  V30 14975 H 1453.65 0.402149 -3.78369 0
M  V30 14976 H 1453.17 -1.41468 -3.61398 0
M  V30 14977 H 1451.27 1.05077 -3.57477 0
M  V30 14978 H 1451.38 -0.402508 -4.77406 0
M  V30 14979 H 1449.74 -0.117407 -2.54429 0
M  V30 14980 H 1450.53 -1.73583 -2.96182 0
M  V30 14981 N 1452.97 1.53444 -0.359552 0
M  V30 14982 C 1454.22 2.01166 0.232022 0
M  V30 14983 C 1454.55 1.24699 1.49266 0
M  V30 14984 O 1453.8 0.327164 1.92946 0
M  V30 14985 C 1454.1 3.5273 0.575863 0
M  V30 14986 C 1453.77 4.47027 -0.589746 0
M  V30 14987 C 1452.43 4.72525 -0.909587 0
M  V30 14988 C 1454.78 5.02846 -1.37095 0
M  V30 14989 C 1452.11 5.51096 -2.01271 0
M  V30 14990 C 1454.46 5.82622 -2.46444 0
M  V30 14991 C 1453.13 6.06409 -2.7897 0
M  V30 14992 H 1452.4 0.73612 0.084903 0
M  V30 14993 H 1455.04 1.85105 -0.490771 0
M  V30 14994 H 1453.35 3.66708 1.37959 0
M  V30 14995 H 1455.04 3.87125 1.04573 0
M  V30 14996 H 1451.63 4.27324 -0.330418 0
M  V30 14997 H 1455.82 4.83098 -1.1371 0
M  V30 14998 H 1451.07 5.67747 -2.26877 0
M  V30 14999 H 1455.25 6.24884 -3.07398 0
M  V30 15000 H 1452.88 6.67077 -3.64572 0
M  V30 15001 N 1454.45 0.0885642 1.57351 0
M  V30 15002 C 1455.68 -0.584389 1.98163 0
M  V30 15003 C 1456.09 -1.62664 0.966281 0
M  V30 15004 O 1455.43 -1.83623 -0.053226 0
M  V30 15005 C 1455.49 -1.2959 3.35331 0
M  V30 15006 C 1455.16 -0.405168 4.552 0
M  V30 15007 C 1456.15 0.344053 5.1876 0
M  V30 15008 C 1453.84 -0.325136 5.01247 0
M  V30 15009 C 1455.83 1.16135 6.26731 0
M  V30 15010 C 1453.52 0.495821 6.09085 0
M  V30 15011 C 1454.52 1.23772 6.71691 0
M  V30 15012 O 1454.21 2.04511 7.77451 0
M  V30 15013 H 1453.94 -0.161852 0.656338 0
M  V30 15014 H 1456.49 0.162558 2.04756 0
M  V30 15015 H 1454.72 -2.08928 3.25401 0
M  V30 15016 H 1456.41 -1.86274 3.60634 0
M  V30 15017 H 1457.18 0.291916 4.84121 0
M  V30 15018 H 1453.06 -0.892245 4.52283 0
M  V30 15019 H 1456.6 1.74093 6.75528 0
M  V30 15020 H 1452.5 0.549463 6.43157 0
M  V30 15021 H 1453.27 1.97123 7.94409 0
M  V30 15022 N 1455.93 -1.56509 -0.185096 0
M  V30 15023 C 1456.84 -1.98552 -1.24958 0
M  V30 15024 C 1457.85 -0.894713 -1.49234 0
M  V30 15025 O 1459.03 -1.20126 -1.61653 0
M  V30 15026 C 1456.1 -2.32513 -2.57175 0
M  V30 15027 C 1455.16 -3.55351 -2.40882 0
M  V30 15028 C 1454.39 -3.87683 -3.66794 0
M  V30 15029 O 1454.61 -3.21167 -4.7139 0
M  V30 15030 O 1453.55 -4.8108 -3.61726 0
M  V30 15031 H 1457.37 -2.89342 -0.922756 0
M  V30 15032 H 1454.96 -1.44196 -0.390887 0
M  V30 15033 H 1456.84 -2.55387 -3.35195 0
M  V30 15034 H 1455.51 -1.44888 -2.89464 0
M  V30 15035 H 1454.42 -3.37712 -1.60939 0
M  V30 15036 H 1455.75 -4.43474 -2.13522 0
M  V30 15037 N 1457.41 0.45317 -1.50944 0
M  V30 15038 C 1458.34 1.56678 -1.67287 0
M  V30 15039 C 1459.35 1.53089 -0.553853 0
M  V30 15040 O 1460.54 1.58152 -0.827653 0
M  V30 15041 C 1457.64 2.95585 -1.65779 0
M  V30 15042 C 1456.81 3.2385 -2.94007 0
M  V30 15043 C 1455.87 4.42401 -2.84899 0
M  V30 15044 O 1454.9 4.4183 -3.58853 0
M  V30 15045 N 1456.1 5.4508 -1.99671 0
M  V30 15046 H 1458.87 1.43069 -2.63347 0
M  V30 15047 H 1456.43 0.641875 -1.48632 0
M  V30 15048 H 1458.42 3.7289 -1.57275 0
M  V30 15049 H 1456.99 3.02872 -0.773791 0
M  V30 15050 H 1456.21 2.34991 -3.16501 0
M  V30 15051 H 1457.5 3.39554 -3.7892 0
M  V30 15052 H 1456.89 5.48374 -1.38933 0
M  V30 15053 H 1455.45 6.21298 -1.97057 0
M  V30 15054 N 1458.88 1.40823 0.707568 0
M  V30 15055 C 1459.81 1.44485 1.83429 0
M  V30 15056 C 1460.8 0.304848 1.67346 0
M  V30 15057 O 1461.98 0.514605 1.87258 0
M  V30 15058 C 1459.11 1.31458 3.21459 0
M  V30 15059 C 1458.06 2.43145 3.52228 0
M  V30 15060 C 1457.39 2.15189 4.89487 0
M  V30 15061 C 1458.69 3.85489 3.52414 0
M  V30 15062 H 1460.38 2.38781 1.80622 0
M  V30 15063 H 1457.93 1.14931 0.867572 0
M  V30 15064 H 1459.88 1.32635 3.99983 0
M  V30 15065 H 1458.61 0.336422 3.24863 0
M  V30 15066 H 1457.27 2.41231 2.76049 0
M  V30 15067 H 1456.91 1.15745 4.89502 0
M  V30 15068 H 1456.61 2.90022 5.11039 0
M  V30 15069 H 1458.14 2.18062 5.70334 0
M  V30 15070 H 1459.55 3.89183 4.20963 0
M  V30 15071 H 1457.95 4.59906 3.85495 0
M  V30 15072 H 1459.02 4.14499 2.51632 0
M  V30 15073 N 1460.36 -0.94061 1.26453 0
M  V30 15074 C 1461.78 -1.21424 1.03578 0
M  V30 15075 C 1461.98 -2.00081 -0.238726 0
M  V30 15076 O 1461.03 -2.3404 -0.947709 0
M  V30 15077 C 1462.35 -1.97496 2.26751 0
M  V30 15078 C 1463.9 -2.10485 2.31657 0
M  V30 15079 C 1464.37 -2.89959 3.54525 0
M  V30 15080 N 1465.86 -2.97533 3.55005 0
M  V30 15081 C 1466.6 -3.59456 4.46742 0
M  V30 15082 N 1466.09 -4.22876 5.48769 0
M  V30 15083 N 1467.89 -3.56734 4.34393 0
M  V30 15084 H 1460.04 -0.414788 2.08311 0
M  V30 15085 H 1462.3 -0.246047 0.915513 0
M  V30 15086 H 1462.01 -1.47109 3.19456 0
M  V30 15087 H 1461.88 -2.98159 2.31043 0
M  V30 15088 H 1464.27 -2.60064 1.39466 0
M  V30 15089 H 1464.35 -1.09082 2.31376 0
M  V30 15090 H 1463.99 -2.41067 4.47045 0
M  V30 15091 H 1463.92 -3.91619 3.52054 0
M  V30 15092 H 1466.41 -2.52446 2.81211 0
M  V30 15093 H 1466.73 -4.68026 6.14956 0
M  V30 15094 H 1465.07 -4.21461 5.52626 0
M  V30 15095 H 1468.26 -3.06381 3.53904 0
M  V30 15096 H 1468.43 -4.04706 5.0608 0
M  V30 15097 N 1461.84 -1.08266 -1.14527 0
M  V30 15098 C 1463.09 -0.809856 -1.85164 0
M  V30 15099 C 1463.41 0.666263 -1.83265 0
M  V30 15100 O 1462.68 1.48295 -1.28006 0
M  V30 15101 H 1461.26 -0.296598 -0.685594 0
M  V30 15102 H 1463.92 -1.36834 -1.38789 0
M  V30 15103 H 1463.02 -1.15272 -2.90032 0
M  V30 15104 N 1463.32 1.31536 -0.86811 0
M  V30 15105 C 1464.54 2.01487 -0.491705 0
M  V30 15106 C 1464.97 1.64744 0.907803 0
M  V30 15107 O 1464.33 0.855093 1.59868 0
M  V30 15108 C 1464.38 3.54621 -0.65395 0
M  V30 15109 O 1463.48 4.11252 0.307532 0
M  V30 15110 H 1462.82 0.634469 -0.195819 0
M  V30 15111 H 1465.35 1.67775 -1.17101 0
M  V30 15112 H 1465.36 4.04323 -0.546539 0
M  V30 15113 H 1464.04 3.80704 -1.67443 0
M  V30 15114 H 1462.61 3.72577 0.155233 0
M  V30 15115 N 1464.8 0.627364 1.44575 0
M  V30 15116 C 1466.07 0.0614392 1.95503 0
M  V30 15117 C 1466.45 -1.41182 1.56942 0
M  V30 15118 O 1465.8 -2.12435 0.841634 0
M  V30 15119 C 1466.01 0.280349 3.47872 0
M  V30 15120 C 1467.36 0.171559 4.24253 0
M  V30 15121 O 1468.38 0.211515 3.55571 0
M  V30 15122 O 1467.24 0.0733152 5.46451 0
M  V30 15123 H 1464.34 -0.0244626 0.826638 0
M  V30 15124 H 1466.88 0.698805 1.54644 0
M  V30 15125 H 1465.66 1.30278 3.68976 0
M  V30 15126 H 1465.28 -0.391336 3.95669 0
M  V30 15127 N 1466.28 -1.53251 0.367684 0
M  V30 15128 C 1467.69 -1.86369 -0.111073 0
M  V30 15129 C 1468.04 -1.2882 -1.47986 0
M  V30 15130 O 1467.16 -0.611058 -2.07593 0
M  V30 15131 C 1467.76 -3.38159 -0.208325 0
M  V30 15132 C 1466.32 -3.71067 -0.63134 0
M  V30 15133 C 1465.46 -2.76425 0.220144 0
M  V30 15134 H 1468.41 -1.47469 0.586398 0
M  V30 15135 H 1468.44 -3.66252 -1.03151 0
M  V30 15136 H 1467.95 -3.80015 0.788038 0
M  V30 15137 H 1466.05 -3.34769 -1.63586 0
M  V30 15138 H 1466.16 -4.77389 -0.404491 0
M  V30 15139 H 1464.53 -2.5279 -0.311298 0
M  V30 15140 H 1465.31 -3.21115 1.21409 0
M  V30 15141 N 1467.75 -0.0969077 -1.57302 0
M  V30 15142 C 1468.7 0.878876 -2.15357 0
M  V30 15143 C 1469.7 1.29091 -1.0969 0
M  V30 15144 O 1470.9 1.26523 -1.28031 0
M  V30 15145 H 1467.28 0.301458 -0.688932 0
M  V30 15146 H 1469.25 0.364542 -2.96165 0
M  V30 15147 C 1468 2.12761 -2.75006 0
M  V30 15148 H 1467.32 1.81944 -3.56 0
M  V30 15149 H 1468.76 2.79092 -3.19193 0
M  V30 15150 C 1467.22 2.90283 -1.70989 0
M  V30 15151 O 1467.75 3.84889 -1.14992 0
M  V30 15152 N 1465.95 2.53857 -1.41439 0
M  V30 15153 H 1465.5 1.76993 -1.87166 0
M  V30 15154 H 1465.46 3.06025 -0.720816 0
M  V30 15155 N 1469.23 1.56605 0.176793 0
M  V30 15156 C 1470.14 1.99211 1.23903 0
M  V30 15157 C 1471.16 0.902614 1.48758 0
M  V30 15158 O 1472.33 1.20982 1.61014 0
M  V30 15159 C 1469.4 2.33873 2.55938 0
M  V30 15160 C 1468.46 3.56624 2.38994 0
M  V30 15161 C 1467.69 3.89623 3.64733 0
M  V30 15162 O 1467.92 3.23662 4.6968 0
M  V30 15163 O 1466.85 4.82992 3.5917 0
M  V30 15164 H 1470.68 2.89827 0.907398 0
M  V30 15165 H 1468.26 1.44401 0.383234 0
M  V30 15166 H 1470.14 2.57161 3.33836 0
M  V30 15167 H 1468.82 1.46421 2.88691 0
M  V30 15168 H 1467.72 3.38561 1.59146 0
M  V30 15169 H 1469.06 4.446 2.11167 0
M  V30 15170 N 1470.71 -0.445159 1.51182 0
M  V30 15171 C 1471.67 -1.52224 1.71349 0
M  V30 15172 C 1472.67 -1.49834 0.583632 0
M  V30 15173 O 1473.86 -1.51995 0.85107 0
M  V30 15174 C 1470.99 -2.91789 1.76273 0
M  V30 15175 H 1472.19 -1.35649 2.67468 0
M  V30 15176 H 1469.74 -0.673312 1.41054 0
M  V30 15177 H 1470.48 -3.13777 0.819405 0
M  V30 15178 H 1470.26 -2.94928 2.58379 0
M  V30 15179 H 1471.75 -3.69938 1.93741 0
M  V30 15180 N 1472.19 -1.41197 -0.700089 0
M  V30 15181 C 1473.6 -1.23567 -1.01012 0
M  V30 15182 C 1473.8 -0.121821 -2.01131 0
M  V30 15183 O 1472.86 0.515258 -2.47187 0
M  V30 15184 C 1474.17 -2.58329 -1.53904 0
M  V30 15185 C 1475.72 -2.65473 -1.65811 0
M  V30 15186 C 1476.2 -4.00541 -2.22106 0
M  V30 15187 N 1477.69 -4.02364 -2.29472 0
M  V30 15188 C 1478.42 -5.03672 -2.74048 0
M  V30 15189 N 1477.92 -6.15371 -3.18262 0
M  V30 15190 N 1479.71 -4.91035 -2.73571 0
M  V30 15191 H 1471.86 -2.12368 -0.0367488 0
M  V30 15192 H 1474.12 -0.944713 -0.0788795 0
M  V30 15193 H 1473.83 -3.40565 -0.877964 0
M  V30 15194 H 1473.7 -2.805 -2.5219 0
M  V30 15195 H 1476.09 -1.83598 -2.31032 0
M  V30 15196 H 1476.17 -2.47117 -0.660831 0
M  V30 15197 H 1475.82 -4.82862 -1.57502 0
M  V30 15198 H 1475.75 -4.16235 -3.22577 0
M  V30 15199 H 1478.24 -3.21713 -1.98265 0
M  V30 15200 H 1478.55 -6.88548 -3.50888 0
M  V30 15201 H 1476.9 -6.18914 -3.16182 0
M  V30 15202 H 1480.09 -4.02858 -2.38376 0
M  V30 15203 H 1480.26 -5.70127 -3.07993 0
M  V30 15204 N 1473.67 0.933891 -1.2695 0
M  V30 15205 C 1474.58 2.06713 -1.10936 0
M  V30 15206 C 1475.59 1.73952 -0.0409734 0
M  V30 15207 O 1476.77 1.9989 -0.246199 0
M  V30 15208 C 1473.83 3.38453 -0.751696 0
M  V30 15209 C 1472.89 3.84951 -1.90029 0
M  V30 15210 C 1472.13 5.10404 -1.55959 0
M  V30 15211 O 1472.35 5.68504 -0.464646 0
M  V30 15212 O 1471.28 5.52123 -2.39675 0
M  V30 15213 H 1475.11 2.23133 -2.06023 0
M  V30 15214 H 1472.69 1.05202 -1.06079 0
M  V30 15215 H 1474.58 4.17591 -0.565285 0
M  V30 15216 H 1473.25 3.23255 0.169703 0
M  V30 15217 H 1472.16 3.06727 -2.14172 0
M  V30 15218 H 1473.49 4.04681 -2.80167 0
M  V30 15219 N 1475.14 1.08871 1.13951 0
M  V30 15220 C 1476.39 0.832367 1.85589 0
M  V30 15221 C 1476.74 -0.635083 1.81616 0
M  V30 15222 O 1476.04 -1.46123 1.2393 0
M  V30 15223 C 1476.23 1.29443 3.33135 0
M  V30 15224 C 1476.06 2.80527 3.51475 0
M  V30 15225 C 1474.83 3.48334 3.66048 0
M  V30 15226 C 1477.03 3.78686 3.47996 0
M  V30 15227 N 1475.01 4.87901 3.72593 0
M  V30 15228 C 1476.38 5.04176 3.60842 0
M  V30 15229 C 1478.44 3.71623 3.31362 0
M  V30 15230 C 1477.14 6.23438 3.58772 0
M  V30 15231 C 1479.17 4.90366 3.30598 0
M  V30 15232 C 1478.53 6.14696 3.43989 0
M  V30 15233 H 1474.63 0.357365 0.695568 0
M  V30 15234 H 1477.21 1.38799 1.36539 0
M  V30 15235 H 1475.38 0.766326 3.80765 0
M  V30 15236 H 1477.11 0.984006 3.92555 0
M  V30 15237 H 1473.87 2.98755 3.67481 0
M  V30 15238 H 1474.29 5.60584 3.79571 0
M  V30 15239 H 1478.93 2.7643 3.19916 0
M  V30 15240 H 1476.65 7.18937 3.68993 0
M  V30 15241 H 1480.24 4.86593 3.18933 0
M  V30 15242 H 1479.12 7.05039 3.43351 0
M  V30 15243 N 1476.62 -1.31073 0.875073 0
M  V30 15244 C 1477.57 -2.30335 0.3238 0
M  V30 15245 C 1478.56 -1.5974 -0.563869 0
M  V30 15246 O 1479.77 -1.743 -0.449402 0
M  V30 15247 H 1476.14 -0.747062 0.0860376 0
M  V30 15248 H 1478.12 -2.743 1.17483 0
M  V30 15249 C 1476.86 -3.44705 -0.455348 0
M  V30 15250 H 1476.19 -3.99203 0.218433 0
M  V30 15251 H 1477.63 -4.16262 -0.806329 0
M  V30 15252 C 1476.09 -2.93807 -1.6486 0
M  V30 15253 O 1476.62 -2.93004 -2.74794 0
M  V30 15254 N 1474.82 -2.49944 -1.48244 0
M  V30 15255 H 1474.37 -2.50797 -0.588116 0
M  V30 15256 H 1474.33 -2.16245 -2.28222 0
M  V30 15257 N 1478.1 -0.635022 -1.4424 0
M  V30 15258 C 1479.03 0.0543561 -2.33437 0
M  V30 15259 C 1480.01 0.830807 -1.48431 0
M  V30 15260 O 1481.2 0.795913 -1.77141 0
M  V30 15261 C 1478.33 1.03391 -3.31553 0
M  V30 15262 C 1477.28 0.368824 -4.26408 0
M  V30 15263 C 1476.61 1.45855 -5.14422 0
M  V30 15264 C 1477.91 -0.727381 -5.1721 0
M  V30 15265 H 1479.6 -0.690489 -2.91329 0
M  V30 15266 H 1477.15 -0.3335 -1.40085 0
M  V30 15267 H 1479.1 1.52495 -3.9284 0
M  V30 15268 H 1477.82 1.80969 -2.71878 0
M  V30 15269 H 1476.48 -0.101605 -3.66459 0
M  V30 15270 H 1476.13 2.22531 -4.51098 0
M  V30 15271 H 1475.83 1.0189 -5.78699 0
M  V30 15272 H 1477.35 1.95132 -5.78581 0
M  V30 15273 H 1478.77 -0.319272 -5.7241 0
M  V30 15274 H 1477.17 -1.09041 -5.9011 0
M  V30 15275 H 1478.24 -1.59292 -4.57989 0
M  V30 15276 N 1479.58 1.53054 -0.375806 0
M  V30 15277 C 1480.86 1.93761 0.26757 0
M  V30 15278 C 1481.24 1.31019 1.65521 0
M  V30 15279 O 1480.58 0.473138 2.23548 0
M  V30 15280 C 1480.79 3.47643 0.307505 0
M  V30 15281 C 1482.14 4.21114 0.542951 0
M  V30 15282 O 1483.17 3.54077 0.388285 0
M  V30 15283 O 1482.02 5.39929 0.8449 0
M  V30 15284 H 1479.12 0.810805 0.16286 0
M  V30 15285 H 1481.66 1.64179 -0.429334 0
M  V30 15286 H 1480.44 3.85608 -0.665001 0
M  V30 15287 H 1480.06 3.83488 1.04988 0
M  V30 15288 N 1481.06 0.105248 1.57248 0
M  V30 15289 C 1481.99 -0.886904 2.1026 0
M  V30 15290 C 1482.97 -1.26981 1.01561 0
M  V30 15291 O 1484.15 -1.37327 1.29126 0
M  V30 15292 C 1481.28 -2.18499 2.58797 0
M  V30 15293 C 1480.32 -1.95119 3.79251 0
M  V30 15294 S 1481.16 -1.17995 5.22338 0
M  V30 15295 C 1482.31 -2.49012 5.74233 0
M  V30 15296 H 1482.55 -0.435954 2.94086 0
M  V30 15297 H 1480.08 -0.108251 1.5402 0
M  V30 15298 H 1482.04 -2.93089 2.87418 0
M  V30 15299 H 1480.7 -2.60714 1.75178 0
M  V30 15300 H 1479.89 -2.91268 4.11314 0
M  V30 15301 H 1479.49 -1.28654 3.51175 0
M  V30 15302 H 1481.79 -3.44932 5.83119 0
M  V30 15303 H 1482.73 -2.21513 6.7256 0
M  V30 15304 H 1483.14 -2.5775 5.0222 0
M  V30 15305 N 1482.53 -1.56697 -0.168486 0
M  V30 15306 C 1483.48 -1.96628 -1.20855 0
M  V30 15307 C 1484.45 -0.830623 -1.4384 0
M  V30 15308 O 1485.64 -1.09097 -1.56533 0
M  V30 15309 C 1482.78 -2.3338 -2.5422 0
M  V30 15310 C 1481.89 -3.60137 -2.3859 0
M  V30 15311 C 1481.02 -3.86088 -3.64842 0
M  V30 15312 C 1480.06 -5.06184 -3.44157 0
M  V30 15313 N 1479.2 -5.28254 -4.62485 0
M  V30 15314 H 1484.04 -2.8529 -0.86102 0
M  V30 15315 H 1481.58 -1.41162 -0.413741 0
M  V30 15316 H 1483.54 -2.52711 -3.31953 0
M  V30 15317 H 1482.17 -1.47825 -2.86963 0
M  V30 15318 H 1481.22 -3.48704 -1.52019 0
M  V30 15319 H 1482.53 -4.48028 -2.19254 0
M  V30 15320 H 1481.68 -4.05802 -4.5101 0
M  V30 15321 H 1480.42 -2.96578 -3.8716 0
M  V30 15322 H 1479.43 -4.86366 -2.56376 0
M  V30 15323 H 1480.65 -5.97228 -3.23258 0
M  V30 15324 H 1478.6 -4.41695 -4.85017 0
M  V30 15325 H 1478.52 -6.10373 -4.46072 0
M  V30 15326 H 1479.78 -5.52448 -5.49928 0
M  V30 15327 N 1484.01 0.437135 -1.51416 0
M  V30 15328 C 1484.95 1.55058 -1.67429 0
M  V30 15329 C 1485.92 1.53997 -0.521878 0
M  V30 15330 O 1487.11 1.73121 -0.74574 0
M  V30 15331 C 1484.23 2.93637 -1.68805 0
M  V30 15332 C 1483.28 3.12721 -2.90013 0
M  V30 15333 S 1484.11 2.88998 -4.50822 0
M  V30 15334 C 1485.27 4.29858 -4.54942 0
M  V30 15335 H 1485.5 1.41241 -2.61607 0
M  V30 15336 H 1483.04 0.62684 -1.41103 0
M  V30 15337 H 1484.99 3.73516 -1.70282 0
M  V30 15338 H 1483.65 3.04816 -0.758031 0
M  V30 15339 H 1482.85 4.14041 -2.87377 0
M  V30 15340 H 1482.45 2.40667 -2.86278 0
M  V30 15341 H 1484.74 5.23062 -4.30596 0
M  V30 15342 H 1485.68 4.37528 -5.56754 0
M  V30 15343 H 1486.09 4.13523 -3.84265 0
M  V30 15344 N 1485.49 1.41566 0.692592 0
M  V30 15345 C 1486.45 1.43369 1.78824 0
M  V30 15346 C 1487.45 0.323867 1.57505 0
M  V30 15347 O 1488.64 0.583885 1.64123 0
M  V30 15348 C 1485.78 1.24798 3.17235 0
M  V30 15349 H 1486.97 2.40906 1.78617 0
M  V30 15350 H 1484.52 1.27752 0.900508 0
M  V30 15351 H 1485.26 0.281129 3.23079 0
M  V30 15352 H 1485.04 2.05212 3.34111 0
M  V30 15353 H 1486.53 1.28902 3.97208 0
M  V30 15354 N 1486.97 -0.927146 1.27443 0
M  V30 15355 C 1488.21 -1.67775 1.14991 0
M  V30 15356 C 1488.57 -1.90029 -0.301107 0
M  V30 15357 O 1487.86 -1.47997 -1.21686 0
M  V30 15358 C 1488.06 -3.0472 1.86764 0
M  V30 15359 C 1487.89 -2.95829 3.38696 0
M  V30 15360 C 1486.66 -2.9808 4.08015 0
M  V30 15361 C 1488.85 -2.74905 4.34663 0
M  V30 15362 N 1486.84 -2.79636 5.46513 0
M  V30 15363 C 1488.21 -2.65172 5.60432 0
M  V30 15364 C 1490.26 -2.59797 4.24747 0
M  V30 15365 C 1488.96 -2.41872 6.77415 0
M  V30 15366 C 1490.99 -2.37874 5.41452 0
M  V30 15367 C 1490.35 -2.28884 6.66177 0
M  V30 15368 H 1486.45 -0.620709 0.475651 0
M  V30 15369 H 1489.04 -1.09605 1.60919 0
M  V30 15370 H 1487.21 -3.61002 1.43291 0
M  V30 15371 H 1488.94 -3.68722 1.66812 0
M  V30 15372 H 1485.69 -3.08329 3.59486 0
M  V30 15373 H 1486.12 -2.73544 6.19276 0
M  V30 15374 H 1490.76 -2.65506 3.29039 0
M  V30 15375 H 1488.48 -2.34903 7.73205 0
M  V30 15376 H 1492.06 -2.27069 5.35659 0
M  V30 15377 H 1490.94 -2.12149 7.54959 0
M  V30 15378 N 1488.45 -1.09474 -1.13372 0
M  V30 15379 C 1489.86 -0.824541 -1.36651 0
M  V30 15380 C 1490.06 0.560903 -1.93536 0
M  V30 15381 O 1489.12 1.31567 -2.15514 0
M  V30 15382 C 1490.43 -1.91618 -2.31739 0
M  V30 15383 C 1491.98 -1.94346 -2.45354 0
M  V30 15384 C 1492.45 -3.02655 -3.4375 0
M  V30 15385 N 1493.95 -3.01898 -3.513 0
M  V30 15386 C 1494.68 -3.82344 -4.27318 0
M  V30 15387 N 1494.18 -4.727 -5.06484 0
M  V30 15388 N 1495.97 -3.70602 -4.22623 0
M  V30 15389 H 1488.12 -1.98793 -0.748005 0
M  V30 15390 H 1490.38 -0.863318 -0.391646 0
M  V30 15391 H 1490.09 -2.91282 -1.97098 0
M  V30 15392 H 1489.96 -1.79484 -3.31761 0
M  V30 15393 H 1492.35 -0.953206 -2.79281 0
M  V30 15394 H 1492.43 -2.10558 -1.45255 0
M  V30 15395 H 1492.08 -4.01894 -3.10553 0
M  V30 15396 H 1492.01 -2.83687 -4.43655 0
M  V30 15397 H 1494.5 -2.36417 -2.94814 0
M  V30 15398 H 1494.81 -5.30665 -5.61796 0
M  V30 15399 H 1493.15 -4.76736 -5.05715 0
M  V30 15400 H 1496.35 -2.99372 -3.59853 0
M  V30 15401 H 1496.52 -4.33535 -4.81614 0
M  V30 15402 N 1489.92 1.30607 -0.882012 0
M  V30 15403 C 1490.83 2.31967 -0.350503 0
M  V30 15404 C 1491.85 1.6522 0.54575 0
M  V30 15405 O 1493.03 1.96544 0.439581 0
M  V30 15406 C 1490.09 3.44037 0.428924 0
M  V30 15407 C 1489.15 4.26417 -0.496727 0
M  V30 15408 C 1488.39 5.33135 0.245597 0
M  V30 15409 O 1488.61 5.51077 1.47209 0
M  V30 15410 O 1487.54 6.00551 -0.402767 0
M  V30 15411 H 1491.37 2.79374 -1.19095 0
M  V30 15412 H 1488.95 1.34723 -0.645754 0
M  V30 15413 H 1490.84 4.12314 0.870346 0
M  V30 15414 H 1489.51 2.9877 1.24573 0
M  V30 15415 H 1488.42 3.60848 -0.986899 0
M  V30 15416 H 1489.75 4.7528 -1.27945 0
M  V30 15417 N 1491.4 0.642663 1.43901 0
M  V30 15418 C 1492.65 0.149167 2.01148 0
M  V30 15419 C 1492.96 -1.2405 1.51231 0
M  V30 15420 O 1494.17 -1.82864 2.00681 0
M  V30 15421 C 1492.63 0.215891 3.59252 0
M  V30 15422 C 1492.23 1.60759 4.18163 0
M  V30 15423 C 1493.98 -0.220546 4.23927 0
M  V30 15424 C 1491.89 1.62881 5.68528 0
M  V30 15425 H 1490.82 0.0520015 0.752205 0
M  V30 15426 H 1493.47 0.803152 1.6499 0
M  V30 15427 H 1491.85 -0.505409 3.92762 0
M  V30 15428 H 1493.02 2.3534 3.96171 0
M  V30 15429 H 1491.34 1.9891 3.65819 0
M  V30 15430 H 1493.93 -0.224389 5.34229 0
M  V30 15431 H 1494.28 -1.25003 3.97089 0
M  V30 15432 H 1494.81 0.448646 3.95262 0
M  V30 15433 H 1491.55 2.63704 6.00117 0
M  V30 15434 H 1491.07 0.926104 5.92607 0
M  V30 15435 H 1492.75 1.36785 6.32375 0
M  V30 15436 N 1492.88 -1.52852 0.383918 0
M  V30 15437 C 1494.13 -2.01809 -0.200285 0
M  V30 15438 C 1494.46 -1.27009 -1.46909 0
M  V30 15439 O 1493.74 -0.369002 -1.90968 0
M  V30 15440 C 1494.02 -3.56971 -0.473672 0
M  V30 15441 C 1493.87 -4.42446 0.810048 0
M  V30 15442 C 1495.19 -4.21481 -1.26658 0
M  V30 15443 H 1492.31 -0.733541 -0.0713192 0
M  V30 15444 H 1494.95 -1.8296 0.512425 0
M  V30 15445 H 1493.1 -3.73163 -1.08081 0
M  V30 15446 H 1494.77 -4.38016 1.44706 0
M  V30 15447 H 1493.02 -4.09674 1.42652 0
M  V30 15448 H 1493.69 -5.49013 0.573478 0
M  V30 15449 H 1496.16 -4.09233 -0.752806 0
M  V30 15450 H 1495.04 -5.30037 -1.42661 0
M  V30 15451 H 1495.3 -3.78756 -2.28028 0
M  V30 15452 N 1494.36 -0.113586 -1.5719 0
M  V30 15453 C 1495.29 0.868985 -2.12088 0
M  V30 15454 C 1496.3 1.23362 -1.06233 0
M  V30 15455 O 1497.49 1.18352 -1.33623 0
M  V30 15456 C 1494.59 2.17252 -2.60106 0
M  V30 15457 C 1493.77 1.9804 -3.89999 0
M  V30 15458 C 1492.83 3.12073 -4.23671 0
M  V30 15459 O 1491.85 2.85224 -4.92581 0
M  V30 15460 N 1493.05 4.38358 -3.80556 0
M  V30 15461 H 1495.82 0.399996 -2.97019 0
M  V30 15462 H 1493.38 0.0709947 -1.61744 0
M  V30 15463 H 1495.37 2.92523 -2.79665 0
M  V30 15464 H 1493.94 2.55516 -1.80084 0
M  V30 15465 H 1493.16 1.06993 -3.79402 0
M  V30 15466 H 1494.45 1.82502 -4.74943 0
M  V30 15467 H 1493.85 4.63048 -3.24966 0
M  V30 15468 H 1492.4 5.10518 -4.05234 0
M  V30 15469 N 1495.84 1.56784 0.160173 0
M  V30 15470 C 1496.77 2.00298 1.20012 0
M  V30 15471 C 1497.75 0.880356 1.45546 0
M  V30 15472 O 1498.93 1.14724 1.56691 0
M  V30 15473 C 1496.06 2.37238 2.53645 0
M  V30 15474 C 1495.02 3.52563 2.42658 0
M  V30 15475 C 1494.34 3.75278 3.80881 0
M  V30 15476 C 1495.64 4.85657 1.92183 0
M  V30 15477 H 1497.34 2.87423 0.838362 0
M  V30 15478 H 1494.88 1.3828 0.401838 0
M  V30 15479 H 1496.84 2.66278 3.2661 0
M  V30 15480 H 1495.56 1.47035 2.9163 0
M  V30 15481 H 1494.22 3.23669 1.72146 0
M  V30 15482 H 1493.87 2.82347 4.1628 0
M  V30 15483 H 1493.57 4.52882 3.74396 0
M  V30 15484 H 1495.09 4.0673 4.55415 0
M  V30 15485 H 1496.51 5.13501 2.54931 0
M  V30 15486 H 1494.9 5.66975 1.96619 0
M  V30 15487 H 1495.97 4.76908 0.876742 0
M  V30 15488 N 1497.32 -0.429099 1.51646 0
M  V30 15489 C 1498.54 -1.20465 1.68828 0
M  V30 15490 C 1498.97 -1.84044 0.388514 0
M  V30 15491 O 1498.32 -1.69165 -0.652152 0
M  V30 15492 C 1498.37 -2.25831 2.81128 0
M  V30 15493 O 1497.48 -3.31511 2.45305 0
M  V30 15494 H 1496.82 -0.352568 0.562665 0
M  V30 15495 H 1499.35 -0.505698 1.98252 0
M  V30 15496 H 1499.36 -2.70484 3.05455 0
M  V30 15497 H 1498.03 -1.78934 3.7544 0
M  V30 15498 H 1496.61 -2.92277 2.31579 0
M  V30 15499 N 1498.79 -1.41931 -0.685074 0
M  V30 15500 C 1500.02 -1.45229 -1.47364 0
M  V30 15501 C 1500.44 -0.060595 -1.88703 0
M  V30 15502 O 1499.79 0.92244 -1.57472 0
M  V30 15503 C 1499.84 -2.37033 -2.72942 0
M  V30 15504 O 1499.57 -3.70787 -2.33342 0
M  V30 15505 C 1501.07 -2.49244 -3.66596 0
M  V30 15506 H 1498.29 -0.494291 -0.453781 0
M  V30 15507 H 1500.83 -1.86333 -0.84263 0
M  V30 15508 H 1498.99 -1.9921 -3.32256 0
M  V30 15509 H 1499.4 -4.19853 -3.14362 0
M  V30 15510 H 1500.87 -3.17624 -4.51463 0
M  V30 15511 H 1501.35 -1.52703 -4.11799 0
M  V30 15512 H 1501.96 -2.87747 -3.1318 0
M  V30 15513 N 1500.27 0.920374 -1.27933 0
M  V30 15514 C 1501.5 1.70275 -1.17533 0
M  V30 15515 C 1501.91 1.86904 0.266903 0
M  V30 15516 O 1501.27 1.39131 1.18105 0
M  V30 15517 C 1501.32 3.09847 -1.86219 0
M  V30 15518 O 1501.04 2.93992 -3.24808 0
M  V30 15519 C 1502.54 4.042 -1.82037 0
M  V30 15520 H 1499.76 0.53248 -0.408297 0
M  V30 15521 H 1502.31 1.1524 -1.68938 0
M  V30 15522 H 1500.46 3.61719 -1.38701 0
M  V30 15523 H 1500.88 3.82281 -3.59112 0
M  V30 15524 H 1502.35 4.99621 -2.34697 0
M  V30 15525 H 1502.83 4.32013 -0.791295 0
M  V30 15526 H 1503.43 3.58254 -2.29203 0
M  V30 15527 N 1501.75 1.10074 1.1279 0
M  V30 15528 C 1502.71 0.74967 2.16593 0
M  V30 15529 C 1503.71 -0.224046 1.59232 0
M  V30 15530 O 1504.9 -0.00137104 1.742 0
M  V30 15531 C 1502.03 0.109795 3.40723 0
M  V30 15532 H 1503.23 1.66906 2.49164 0
M  V30 15533 H 1500.78 0.900781 1.27733 0
M  V30 15534 H 1501.52 -0.820501 3.13749 0
M  V30 15535 H 1501.3 0.810517 3.83631 0
M  V30 15536 H 1502.79 -0.120198 4.17427 0
M  V30 15537 N 1503.23 -1.30138 0.888926 0
M  V30 15538 C 1504.19 -2.26299 0.363504 0
M  V30 15539 C 1505.19 -1.52951 -0.496244 0
M  V30 15540 O 1506.38 -1.71548 -0.302834 0
M  V30 15541 C 1503.51 -3.37482 -0.481544 0
M  V30 15542 H 1504.71 -2.7429 1.21265 0
M  V30 15543 H 1502.26 -1.41395 0.666124 0
M  V30 15544 H 1502.99 -2.94814 -1.35112 0
M  V30 15545 H 1502.78 -3.9187 0.134344 0
M  V30 15546 H 1504.27 -4.09048 -0.840816 0
M  V30 15547 N 1504.71 -0.650285 -1.43559 0
M  V30 15548 C 1505.64 0.0295939 -2.33481 0
M  V30 15549 C 1506.62 0.815017 -1.49303 0
M  V30 15550 O 1507.8 0.77708 -1.77975 0
M  V30 15551 C 1504.93 0.998683 -3.32631 0
M  V30 15552 C 1503.89 0.323577 -4.26775 0
M  V30 15553 C 1503.21 1.40391 -5.1594 0
M  V30 15554 C 1504.51 -0.782197 -5.1641 0
M  V30 15555 H 1506.21 -0.721349 -2.9058 0
M  V30 15556 H 1503.75 -0.348339 -1.39723 0
M  V30 15557 H 1505.7 1.4832 -3.94435 0
M  V30 15558 H 1504.43 1.78075 -2.73782 0
M  V30 15559 H 1503.09 -0.140467 -3.66331 0
M  V30 15560 H 1502.74 2.17734 -4.53432 0
M  V30 15561 H 1502.44 0.957462 -5.79747 0
M  V30 15562 H 1503.96 1.88985 -5.80618 0
M  V30 15563 H 1505.37 -0.379966 -5.72039 0
M  V30 15564 H 1503.77 -1.15293 -5.88921 0
M  V30 15565 H 1504.84 -1.6414 -4.56274 0
M  V30 15566 N 1506.18 1.52647 -0.392018 0
M  V30 15567 C 1507.09 2.30261 0.449093 0
M  V30 15568 C 1508.11 1.37286 1.06905 0
M  V30 15569 O 1509.29 1.70357 1.07427 0
M  V30 15570 C 1506.35 3.09636 1.55969 0
M  V30 15571 C 1505.41 4.18324 0.964566 0
M  V30 15572 C 1504.64 4.93904 2.02224 0
M  V30 15573 O 1504.87 4.69603 3.23773 0
M  V30 15574 O 1503.8 5.79183 1.63802 0
M  V30 15575 H 1507.63 3.03147 -0.183269 0
M  V30 15576 H 1505.21 1.48587 -0.155664 0
M  V30 15577 H 1507.09 3.59118 2.20482 0
M  V30 15578 H 1505.77 2.39561 2.17697 0
M  V30 15579 H 1504.68 3.73031 0.282618 0
M  V30 15580 H 1506.01 4.90641 0.391466 0
M  V30 15581 N 1507.66 0.121921 1.57128 0
M  V30 15582 C 1509.08 -0.234655 1.57866 0
M  V30 15583 C 1509.28 -1.66506 1.13482 0
M  V30 15584 O 1508.33 -2.38692 0.823544 0
M  V30 15585 C 1509.65 0.00131784 3.007 0
M  V30 15586 C 1511.2 -0.0643537 3.12934 0
M  V30 15587 C 1511.67 0.143964 4.57774 0
M  V30 15588 N 1513.16 0.0900323 4.63112 0
M  V30 15589 C 1513.9 0.22608 5.72954 0
M  V30 15590 N 1513.39 0.418461 6.91535 0
M  V30 15591 N 1515.19 0.165449 5.61856 0
M  V30 15592 H 1507.34 1.05618 1.84279 0
M  V30 15593 H 1509.6 0.416132 0.851785 0
M  V30 15594 H 1509.31 0.99031 3.3747 0
M  V30 15595 H 1509.18 -0.729266 3.70083 0
M  V30 15596 H 1511.57 -1.04387 2.7602 0
M  V30 15597 H 1511.65 0.698157 2.46088 0
M  V30 15598 H 1511.29 1.12047 4.95387 0
M  V30 15599 H 1511.22 -0.638569 5.22714 0
M  V30 15600 H 1513.71 -0.0550269 3.7786 0
M  V30 15601 H 1514.03 0.513057 7.71095 0
M  V30 15602 H 1512.37 0.454471 6.93512 0
M  V30 15603 H 1515.56 0.0160945 4.68097 0
M  V30 15604 H 1515.73 0.274917 6.47417 0
M  V30 15605 N 1509.14 -1.56867 -0.151857 0
M  V30 15606 C 1510.39 -1.84242 -0.861767 0
M  V30 15607 C 1510.74 -0.705229 -1.79009 0
M  V30 15608 O 1510.03 0.297135 -1.89282 0
M  V30 15609 C 1510.23 -3.15597 -1.6773 0
M  V30 15610 C 1510.06 -4.41985 -0.829442 0
M  V30 15611 C 1508.83 -5.0285 -0.496943 0
M  V30 15612 C 1511.03 -5.14045 -0.162006 0
M  V30 15613 N 1509.01 -6.12814 0.365022 0
M  V30 15614 C 1510.38 -6.17463 0.560301 0
M  V30 15615 C 1512.43 -4.97832 -0.0821767 0
M  V30 15616 C 1511.14 -7.06424 1.35489 0
M  V30 15617 C 1513.16 -5.87253 0.699138 0
M  V30 15618 C 1512.52 -6.90149 1.40974 0
M  V30 15619 H 1508.62 -0.724902 -0.293329 0
M  V30 15620 H 1511.21 -1.94282 -0.127448 0
M  V30 15621 H 1509.38 -3.06713 -2.3829 0
M  V30 15622 H 1511.11 -3.30897 -2.33001 0
M  V30 15623 H 1507.87 -4.66242 -0.831596 0
M  V30 15624 H 1508.29 -6.72411 0.786886 0
M  V30 15625 H 1512.93 -4.18271 -0.617211 0
M  V30 15626 H 1510.65 -7.85417 1.9012 0
M  V30 15627 H 1514.24 -5.76777 0.762833 0
M  V30 15628 H 1513.12 -7.58146 2.00461 0
M  V30 15629 N 1510.62 0.421051 -1.51871 0
M  V30 15630 C 1511.9 1.18133 -1.55897 0
M  V30 15631 C 1512.28 2.08459 -0.332876 0
M  V30 15632 O 1511.62 2.18114 0.681052 0
M  V30 15633 C 1511.83 1.96902 -2.88151 0
M  V30 15634 C 1513.18 2.53382 -3.4071 0
M  V30 15635 O 1514.21 2.07095 -2.89811 0
M  V30 15636 O 1513.06 3.37846 -4.29561 0
M  V30 15637 H 1510.16 0.538721 -0.627462 0
M  V30 15638 H 1512.7 0.428798 -1.64193 0
M  V30 15639 H 1511.48 1.30659 -3.68841 0
M  V30 15640 H 1511.1 2.79185 -2.83093 0
M  V30 15641 N 1512.1 1.42293 0.677538 0
M  V30 15642 C 1513.51 1.37948 1.25806 0
M  V30 15643 C 1513.86 0.071408 1.9607 0
M  V30 15644 O 1512.98 -0.829921 1.99853 0
M  V30 15645 C 1513.58 2.49875 2.28797 0
M  V30 15646 C 1512.14 2.48872 2.82382 0
M  V30 15647 C 1511.28 2.28804 1.56665 0
M  V30 15648 H 1514.24 1.51546 0.471102 0
M  V30 15649 H 1514.26 2.19969 3.10474 0
M  V30 15650 H 1513.77 3.45065 1.77629 0
M  V30 15651 H 1511.87 1.57492 3.37679 0
M  V30 15652 H 1511.98 3.45816 3.31585 0
M  V30 15653 H 1510.35 1.77014 1.83135 0
M  V30 15654 H 1511.13 3.26046 1.07467 0
M  V30 15655 N 1513.57 -0.913576 1.28419 0
M  V30 15656 C 1514.54 -1.99757 1.12382 0
M  V30 15657 C 1515.54 -1.60675 0.063435 0
M  V30 15658 O 1516.73 -1.71433 0.30923 0
M  V30 15659 C 1513.86 -3.33307 0.715506 0
M  V30 15660 H 1515.05 -2.15414 2.08655 0
M  V30 15661 H 1512.61 -1.09626 1.11408 0
M  V30 15662 H 1513.34 -3.23351 -0.247977 0
M  V30 15663 H 1513.13 -3.63034 1.4815 0
M  V30 15664 H 1514.62 -4.12882 0.625953 0
M  V30 15665 N 1515.05 -1.1067 -1.12204 0
M  V30 15666 C 1515.98 -0.779829 -2.20093 0
M  V30 15667 C 1516.96 0.248279 -1.68278 0
M  V30 15668 O 1518.15 0.113511 -1.93868 0
M  V30 15669 C 1515.28 -0.213511 -3.46643 0
M  V30 15670 C 1514.23 -1.17258 -4.11624 0
M  V30 15671 C 1513.56 -0.467352 -5.32654 0
M  V30 15672 C 1514.86 -2.52014 -4.57478 0
M  V30 15673 H 1516.55 -1.68192 -2.47693 0
M  V30 15674 H 1514.1 -0.810131 -1.1905 0
M  V30 15675 H 1516.05 0.0273225 -4.21391 0
M  V30 15676 H 1514.78 0.723837 -3.18478 0
M  V30 15677 H 1513.43 -1.39891 -3.3886 0
M  V30 15678 H 1513.08 0.474547 -5.00756 0
M  V30 15679 H 1512.78 -1.10694 -5.77079 0
M  V30 15680 H 1514.31 -0.235122 -6.10147 0
M  V30 15681 H 1515.72 -2.33516 -5.23587 0
M  V30 15682 H 1514.12 -3.1188 -5.1269 0
M  V30 15683 H 1515.19 -3.11831 -3.71335 0
M  V30 15684 N 1516.53 1.29665 -0.895815 0
M  V30 15685 C 1517.94 1.77825 -0.568784 0
M  V30 15686 C 1518.29 1.73534 0.915443 0
M  V30 15687 O 1517.42 1.31885 1.71567 0
M  V30 15688 C 1518.01 3.22901 -1.0257 0
M  V30 15689 C 1516.57 3.68854 -0.749903 0
M  V30 15690 C 1515.72 2.49866 -1.20259 0
M  V30 15691 H 1518.67 1.16381 -1.07894 0
M  V30 15692 H 1518.69 3.788 -0.359312 0
M  V30 15693 H 1518.2 3.25991 -2.10597 0
M  V30 15694 H 1516.3 3.71241 0.317916 0
M  V30 15695 H 1516.42 4.59831 -1.34506 0
M  V30 15696 H 1514.78 2.46997 -0.621676 0
M  V30 15697 H 1515.56 2.55687 -2.29083 0
M  V30 15698 N 1518.01 0.657889 1.43212 0
M  V30 15699 C 1518.94 -0.0172114 2.33494 0
M  V30 15700 C 1519.92 -0.807087 1.49733 0
M  V30 15701 O 1521.1 -0.767631 1.78385 0
M  V30 15702 C 1518.23 -0.981029 3.33156 0
M  V30 15703 C 1517.19 -0.30094 4.26941 0
M  V30 15704 C 1516.51 -1.37653 5.16678 0
M  V30 15705 C 1517.81 0.809572 5.15988 0
M  V30 15706 H 1519.51 0.736749 2.90194 0
M  V30 15707 H 1517.05 0.355744 1.39537 0
M  V30 15708 H 1519.01 -1.46226 3.95216 0
M  V30 15709 H 1517.73 -1.76621 2.74723 0
M  V30 15710 H 1516.39 0.159893 3.66251 0
M  V30 15711 H 1516.04 -2.15326 4.54581 0
M  V30 15712 H 1515.74 -0.926704 5.80246 0
M  V30 15713 H 1517.26 -1.85903 5.81612 0
M  V30 15714 H 1518.68 0.410297 5.7183 0
M  V30 15715 H 1517.07 1.18415 5.88301 0
M  V30 15716 H 1518.14 1.66558 4.55397 0
M  V30 15717 N 1519.49 -1.52437 0.400108 0
M  V30 15718 C 1520.4 -2.30496 -0.436875 0
M  V30 15719 C 1521.41 -1.37851 -1.06175 0
M  V30 15720 O 1522.59 -1.70924 -1.06522 0
M  V30 15721 C 1519.65 -3.10459 -1.54325 0
M  V30 15722 C 1518.71 -4.18829 -0.942367 0
M  V30 15723 C 1517.95 -4.94969 -1.99602 0
M  V30 15724 O 1518.17 -4.71314 -3.21278 0
M  V30 15725 O 1517.1 -5.80043 -1.60728 0
M  V30 15726 H 1520.93 -3.03045 0.199343 0
M  V30 15727 H 1518.52 -1.48502 0.163541 0
M  V30 15728 H 1520.4 -3.60282 -2.18575 0
M  V30 15729 H 1519.07 -2.40713 -2.16423 0
M  V30 15730 H 1517.98 -3.73176 -0.262831 0
M  V30 15731 H 1519.31 -4.90841 -0.365441 0
M  V30 15732 N 1520.96 -0.130252 -1.57061 0
M  V30 15733 C 1522.21 0.523969 -1.9519 0
M  V30 15734 C 1522.53 1.66493 -1.01514 0
M  V30 15735 O 1521.8 1.95762 -0.0735194 0
M  V30 15736 H 1520.38 0.196553 -0.720677 0
M  V30 15737 H 1523.05 -0.20183 -1.93852 0
M  V30 15738 H 1522.14 0.911156 -2.98504 0
M  V30 15739 N 1522.44 1.56945 0.143535 0
M  V30 15740 C 1523.41 1.97616 1.16106 0
M  V30 15741 C 1524.41 0.863113 1.35672 0
M  V30 15742 O 1525.6 1.12966 1.32606 0
M  V30 15743 C 1522.73 2.29511 2.52067 0
M  V30 15744 H 1523.92 2.88696 0.812066 0
M  V30 15745 H 1521.47 1.51433 0.386999 0
M  V30 15746 H 1522.21 1.41233 2.91931 0
M  V30 15747 H 1521.99 3.10667 2.39225 0
M  V30 15748 H 1523.48 2.61802 3.25345 0
M  V30 15749 N 1523.92 -0.412991 1.52093 0
M  V30 15750 C 1525.17 -1.16202 1.66208 0
M  V30 15751 C 1525.5 -1.90265 0.388957 0
M  V30 15752 O 1524.78 -1.84605 -0.612477 0
M  V30 15753 C 1525.06 -2.15958 2.88157 0
M  V30 15754 C 1524.91 -1.45817 4.25509 0
M  V30 15755 C 1526.23 -3.16671 3.05626 0
M  V30 15756 H 1523.35 -0.421083 0.604862 0
M  V30 15757 H 1525.99 -0.448212 1.84638 0
M  V30 15758 H 1524.14 -2.76831 2.72574 0
M  V30 15759 H 1525.81 -0.880925 4.52811 0
M  V30 15760 H 1524.06 -0.760175 4.27088 0
M  V30 15761 H 1524.73 -2.18587 5.06877 0
M  V30 15762 H 1527.2 -2.65871 3.20081 0
M  V30 15763 H 1526.08 -3.83739 3.92474 0
M  V30 15764 H 1526.34 -3.84178 2.18769 0
M  V30 15765 N 1525.4 -1.4265 -0.669982 0
M  V30 15766 C 1526.36 -1.46196 -1.7652 0
M  V30 15767 C 1527.36 -0.348884 -1.5697 0
M  V30 15768 O 1528.55 -0.609921 -1.63174 0
M  V30 15769 C 1525.68 -1.29829 -3.1521 0
M  V30 15770 H 1526.88 -2.43718 -1.74762 0
M  V30 15771 H 1524.43 -1.29168 -0.88007 0
M  V30 15772 H 1525.17 -0.332493 -3.22591 0
M  V30 15773 H 1524.95 -2.10501 -3.30804 0
M  V30 15774 H 1526.44 -1.35205 -3.95107 0
M  V30 15775 N 1526.88 0.906753 -1.28902 0
M  V30 15776 C 1528.29 1.18635 -1.06761 0
M  V30 15777 C 1528.49 2.00643 0.185594 0
M  V30 15778 O 1527.55 2.3647 0.885324 0
M  V30 15779 C 1528.86 1.91414 -2.31907 0
M  V30 15780 C 1530.41 2.04269 -2.37156 0
M  V30 15781 C 1530.89 2.80458 -3.62088 0
M  V30 15782 N 1532.38 2.88016 -3.62769 0
M  V30 15783 C 1533.11 3.47485 -4.56116 0
M  V30 15784 N 1532.61 4.08178 -5.59788 0
M  V30 15785 N 1534.4 3.45092 -4.43698 0
M  V30 15786 H 1526.55 0.359413 -2.09337 0
M  V30 15787 H 1528.81 0.221688 -0.921715 0
M  V30 15788 H 1528.52 1.38587 -3.23244 0
M  V30 15789 H 1528.39 2.91929 -2.38867 0
M  V30 15790 H 1530.78 2.56275 -1.46312 0
M  V30 15791 H 1530.86 1.0291 -2.34186 0
M  V30 15792 H 1530.51 2.2913 -4.53279 0
M  V30 15793 H 1530.44 3.82147 -3.62314 0
M  V30 15794 H 1532.93 2.44902 -2.87805 0
M  V30 15795 H 1533.24 4.51557 -6.27149 0
M  V30 15796 H 1531.59 4.06661 -5.63606 0
M  V30 15797 H 1534.78 2.96891 -3.61903 0
M  V30 15798 H 1534.95 3.91145 -5.16633 0
M  V30 15799 N 1528.36 1.11264 1.11616 0
M  V30 15800 C 1529.6 0.870286 1.84947 0
M  V30 15801 C 1529.96 -0.593351 1.82602 0
M  V30 15802 O 1531.16 -0.952396 2.51362 0
M  V30 15803 C 1529.43 1.4142 3.2823 0
M  V30 15804 S 1530.99 1.30856 4.18834 0
M  V30 15805 H 1527.81 0.314257 0.63778 0
M  V30 15806 H 1530.41 1.41978 1.34397 0
M  V30 15807 H 1529.11 2.47328 3.27501 0
M  V30 15808 H 1528.65 0.861661 3.83848 0
M  V30 15809 H 1530.66 0.271878 4.95455 0
M  V30 15810 N 1529.83 -1.29188 0.902679 0
M  V30 15811 C 1530.74 -2.3138 0.387363 0
M  V30 15812 C 1531.76 -1.66067 -0.519396 0
M  V30 15813 O 1532.94 -1.97219 -0.408257 0
M  V30 15814 C 1530 -3.44675 -0.374137 0
M  V30 15815 C 1529.06 -4.25572 0.564503 0
M  V30 15816 C 1528.29 -5.33458 -0.160748 0
M  V30 15817 O 1528.52 -5.53349 -1.38423 0
M  V30 15818 O 1527.45 -5.99834 0.498259 0
M  V30 15819 H 1531.28 -2.77444 1.23525 0
M  V30 15820 H 1528.86 -1.33679 0.667106 0
M  V30 15821 H 1530.74 -4.13647 -0.80464 0
M  V30 15822 H 1529.42 -3.00714 -1.19804 0
M  V30 15823 H 1528.33 -3.59232 1.04418 0
M  V30 15824 H 1529.66 -4.73184 1.3549 0
M  V30 15825 N 1531.31 -0.665475 -1.42861 0
M  V30 15826 C 1532.24 0.0574495 -2.29128 0
M  V30 15827 C 1533.26 0.774881 -1.43176 0
M  V30 15828 O 1534.45 0.630593 -1.6699 0
M  V30 15829 C 1531.55 1.10481 -3.20386 0
M  V30 15830 C 1530.72 0.463071 -4.34942 0
M  V30 15831 C 1529.78 1.40896 -5.06986 0
M  V30 15832 O 1528.8 0.912839 -5.61833 0
M  V30 15833 N 1530.01 2.74257 -5.11628 0
M  V30 15834 H 1532.77 -0.683051 -2.91812 0
M  V30 15835 H 1530.33 -0.509179 -1.53685 0
M  V30 15836 H 1532.32 1.73866 -3.65449 0
M  V30 15837 H 1530.89 1.74715 -2.59217 0
M  V30 15838 H 1530.11 -0.350109 -3.92642 0
M  V30 15839 H 1531.4 0.0156092 -5.08798 0
M  V30 15840 H 1530.8 3.17112 -4.68462 0
M  V30 15841 H 1529.36 3.32913 -5.60368 0
M  V30 15842 N 1532.79 1.52222 -0.408187 0
M  V30 15843 C 1534.04 2.01404 0.167574 0
M  V30 15844 C 1534.36 1.29572 1.45726 0
M  V30 15845 O 1533.63 0.421363 1.91315 0
M  V30 15846 H 1532.21 0.744174 0.0649156 0
M  V30 15847 H 1534.87 1.87148 -0.544212 0
M  V30 15848 H 1533.97 3.09966 0.36436 0
M  V30 15849 N 1534.27 0.138579 1.5699 0
M  V30 15850 C 1535.23 -0.79013 2.1515 0
M  V30 15851 C 1536.23 -1.1811 1.09117 0
M  V30 15852 O 1537.42 -1.1034 1.34798 0
M  V30 15853 C 1534.55 -2.07109 2.70774 0
M  V30 15854 H 1535.75 -0.284343 2.98549 0
M  V30 15855 H 1533.3 -0.11081 1.55907 0
M  V30 15856 H 1534.03 -2.62074 1.91018 0
M  V30 15857 H 1533.82 -1.80004 3.4834 0
M  V30 15858 H 1535.31 -2.73456 3.15613 0
M  V30 15859 N 1535.75 -1.57019 -0.13521 0
M  V30 15860 C 1536.99 -1.83178 -0.844308 0
M  V30 15861 C 1537.31 -0.7217 -1.81799 0
M  V30 15862 O 1538.51 -0.869232 -2.57209 0
M  V30 15863 C 1536.97 -3.2471 -1.55214 0
M  V30 15864 C 1536.58 -4.43685 -0.620268 0
M  V30 15865 C 1538.32 -3.60133 -2.24732 0
M  V30 15866 C 1536.23 -5.76242 -1.3304 0
M  V30 15867 H 1535.16 -0.683175 -0.319041 0
M  V30 15868 H 1537.81 -1.83243 -0.0970242 0
M  V30 15869 H 1536.19 -3.19067 -2.34547 0
M  V30 15870 H 1537.37 -4.60591 0.138685 0
M  V30 15871 H 1535.68 -4.16387 -0.0328906 0
M  V30 15872 H 1538.28 -4.56431 -2.78522 0
M  V30 15873 H 1538.62 -2.86767 -3.01779 0
M  V30 15874 H 1539.15 -3.67489 -1.52305 0
M  V30 15875 H 1535.89 -6.52734 -0.60155 0
M  V30 15876 H 1535.41 -5.63251 -2.06176 0
M  V30 15877 H 1537.09 -6.19445 -1.86808 0
M  V30 15878 N 1537.22 0.404919 -1.52309 0
M  V30 15879 C 1538.47 1.14921 -1.66246 0
M  V30 15880 C 1538.79 1.90919 -0.396868 0
M  V30 15881 O 1538.06 1.86856 0.588361 0
M  V30 15882 H 1536.64 0.427223 -0.612772 0
M  V30 15883 H 1539.31 0.461091 -1.89367 0
M  V30 15884 H 1538.4 1.86095 -2.5055 0
M  V30 15885 N 1538.7 1.43003 0.662408 0
M  V30 15886 C 1539.95 1.44346 1.4245 0
M  V30 15887 C 1540.28 0.064094 1.94094 0
M  V30 15888 O 1539.56 -0.913633 1.71706 0
M  V30 15889 C 1539.84 2.47822 2.61259 0
M  V30 15890 C 1539.69 3.94998 2.15166 0
M  V30 15891 C 1541.01 2.48139 3.63476 0
M  V30 15892 H 1538.13 0.525606 0.51663 0
M  V30 15893 H 1540.77 1.74495 0.751754 0
M  V30 15894 H 1538.92 2.22244 3.18653 0
M  V30 15895 H 1540.59 4.31601 1.62843 0
M  V30 15896 H 1538.84 4.0827 1.46622 0
M  V30 15897 H 1539.51 4.62998 3.00561 0
M  V30 15898 H 1541.98 2.70916 3.15823 0
M  V30 15899 H 1540.86 3.22498 4.44169 0
M  V30 15900 H 1541.12 1.51184 4.15447 0
M  V30 15901 N 1540.18 -0.899904 1.29381 0
M  V30 15902 C 1541.11 -2.02045 1.17047 0
M  V30 15903 C 1542.09 -1.69977 0.0647354 0
M  V30 15904 O 1543.28 -1.92659 0.244173 0
M  V30 15905 C 1540.41 -3.36839 0.845991 0
M  V30 15906 C 1539.36 -3.83117 1.90802 0
M  V30 15907 C 1538.69 -5.15032 1.43686 0
M  V30 15908 C 1539.99 -4.03464 3.31684 0
M  V30 15909 H 1541.68 -2.12623 2.10789 0
M  V30 15910 H 1539.23 -1.02162 1.01484 0
M  V30 15911 H 1541.18 -4.14737 0.746413 0
M  V30 15912 H 1539.9 -3.26352 -0.127125 0
M  V30 15913 H 1538.56 -3.07435 1.99698 0
M  V30 15914 H 1538.21 -5.00961 0.452422 0
M  V30 15915 H 1537.91 -5.46967 2.14711 0
M  V30 15916 H 1539.43 -5.95472 1.35078 0
M  V30 15917 H 1540.85 -4.71845 3.25631 0
M  V30 15918 H 1539.25 -4.46752 4.00665 0
M  V30 15919 H 1540.32 -3.07807 3.74677 0
M  V30 15920 N 1541.66 -1.11854 -1.11024 0
M  V30 15921 C 1542.91 -0.868355 -1.82494 0
M  V30 15922 C 1543.23 0.607622 -1.85292 0
M  V30 15923 O 1542.5 1.44147 -1.32659 0
M  V30 15924 H 1541.08 -0.31826 -0.67581 0
M  V30 15925 H 1543.74 -1.4118 -1.34366 0
M  V30 15926 H 1542.84 -1.24441 -2.86218 0
M  V30 15927 N 1543.14 1.28707 -0.909517 0
M  V30 15928 C 1544.07 2.26481 -0.35198 0
M  V30 15929 C 1545.08 1.54698 0.507199 0
M  V30 15930 O 1546.27 1.75558 0.322765 0
M  V30 15931 C 1543.37 3.3495 0.515897 0
M  V30 15932 C 1542.54 4.36229 -0.3198 0
M  V30 15933 C 1541.6 5.23983 0.482483 0
M  V30 15934 O 1540.63 5.69106 -0.10347 0
M  V30 15935 N 1541.83 5.52328 1.78645 0
M  V30 15936 H 1544.6 2.74959 -1.19238 0
M  V30 15937 H 1542.16 1.42144 -0.775023 0
M  V30 15938 H 1544.15 3.90592 1.05925 0
M  V30 15939 H 1542.72 2.86214 1.257 0
M  V30 15940 H 1541.94 3.80109 -1.04454 0
M  V30 15941 H 1543.23 5.00924 -0.891769 0
M  V30 15942 H 1542.62 5.17494 2.28509 0
M  V30 15943 H 1541.18 6.10744 2.27672 0
M  V30 15944 N 1544.61 0.673042 1.42506 0
M  V30 15945 C 1545.86 0.194192 2.01165 0
M  V30 15946 C 1546.18 -1.2029 1.53477 0
M  V30 15947 O 1545.45 -1.80737 0.755704 0
M  V30 15948 H 1544.03 0.0688022 0.743825 0
M  V30 15949 H 1546.7 0.869157 1.74447 0
M  V30 15950 H 1545.79 0.194111 3.11496 0
M  V30 15951 N 1546.09 -1.52004 0.416254 0
M  V30 15952 C 1547.02 -2.30106 -0.396671 0
M  V30 15953 C 1548 -1.34616 -1.03983 0
M  V30 15954 O 1549.19 -1.63528 -1.04749 0
M  V30 15955 C 1546.32 -3.12769 -1.50972 0
M  V30 15956 C 1545.27 -4.16365 -0.99119 0
M  V30 15957 C 1544.6 -4.87417 -2.19838 0
M  V30 15958 C 1545.9 -5.22284 -0.0402599 0
M  V30 15959 H 1547.59 -2.98312 0.255054 0
M  V30 15960 H 1545.14 -1.43464 0.124106 0
M  V30 15961 H 1547.09 -3.66178 -2.08547 0
M  V30 15962 H 1545.82 -2.42346 -2.18943 0
M  V30 15963 H 1544.47 -3.63976 -0.437803 0
M  V30 15964 H 1544.12 -4.13516 -2.8638 0
M  V30 15965 H 1543.82 -5.57454 -1.85792 0
M  V30 15966 H 1545.35 -5.43641 -2.78006 0
M  V30 15967 H 1546.76 -5.70891 -0.525027 0
M  V30 15968 H 1545.16 -5.99726 0.211742 0
M  V30 15969 H 1546.23 -4.7642 0.902877 0
M  V30 15970 N 1547.57 -0.146903 -1.56914 0
M  V30 15971 C 1548.8 0.514426 -2.00919 0
M  V30 15972 C 1549.22 1.57632 -1.02634 0
M  V30 15973 O 1548.58 1.813 -0.00207478 0
M  V30 15974 C 1548.63 1.09197 -3.43669 0
M  V30 15975 O 1547.73 2.20684 -3.48385 0
M  V30 15976 H 1547.07 0.125827 -0.651969 0
M  V30 15977 H 1549.6 -0.243607 -2.03145 0
M  V30 15978 H 1549.61 1.42066 -3.82467 0
M  V30 15979 H 1548.29 0.314336 -4.1471 0
M  V30 15980 H 1546.86 1.89045 -3.21429 0
M  V30 15981 N 1549.05 1.57088 0.126881 0
M  V30 15982 C 1550.28 1.88614 0.850444 0
M  V30 15983 C 1550.69 0.737309 1.73808 0
M  V30 15984 O 1550.05 -0.292196 1.80146 0
M  V30 15985 C 1550.1 3.19541 1.69044 0
M  V30 15986 O 1549.82 4.3 0.838555 0
M  V30 15987 C 1551.32 3.64717 2.51985 0
M  V30 15988 H 1548.54 0.624715 0.244892 0
M  V30 15989 H 1551.09 2.04184 0.113634 0
M  V30 15990 H 1549.24 3.05664 2.38009 0
M  V30 15991 H 1549.65 5.04992 1.41717 0
M  V30 15992 H 1551.13 4.5911 3.06467 0
M  V30 15993 H 1551.61 2.90986 3.28974 0
M  V30 15994 H 1552.21 3.81356 1.88276 0
M  V30 15995 N 1550.53 -0.396836 1.52522 0
M  V30 15996 C 1551.48 -1.48365 1.73123 0
M  V30 15997 C 1552.46 -1.4988 0.585224 0
M  V30 15998 O 1553.65 -1.55649 0.842763 0
M  V30 15999 C 1550.78 -2.86165 1.89644 0
M  V30 16000 C 1549.87 -2.8925 3.10153 0
M  V30 16001 N 1550.26 -2.62017 4.32644 0
M  V30 16002 C 1548.56 -3.20419 3.10238 0
M  V30 16003 C 1549.26 -2.71985 5.14197 0
M  V30 16004 N 1548.23 -3.05385 4.49712 0
M  V30 16005 H 1552.04 -1.26124 2.65462 0
M  V30 16006 H 1549.55 -0.604696 1.50722 0
M  V30 16007 H 1551.55 -3.64404 2.02522 0
M  V30 16008 H 1550.21 -3.09395 0.985134 0
M  V30 16009 H 1551.22 -2.36183 4.6091 0
M  V30 16010 H 1547.89 -3.49164 2.2889 0
M  V30 16011 H 1549.28 -2.54541 6.21819 0
M  V30 16012 N 1552.01 -1.43353 -0.654814 0
M  V30 16013 C 1553.42 -1.39933 -1.23595 0
M  V30 16014 C 1553.77 -0.102592 -1.95932 0
M  V30 16015 O 1552.89 0.798021 -2.01148 0
M  V30 16016 C 1553.49 -2.53483 -2.24793 0
M  V30 16017 C 1552.05 -2.53333 -2.78387 0
M  V30 16018 C 1551.19 -2.31268 -1.53005 0
M  V30 16019 H 1554.14 -1.52277 -0.446932 0
M  V30 16020 H 1554.17 -2.2488 -3.06935 0
M  V30 16021 H 1553.68 -3.47847 -1.72116 0
M  V30 16022 H 1551.78 -1.62844 -3.35131 0
M  V30 16023 H 1551.89 -3.51047 -3.26041 0
M  V30 16024 H 1550.26 -1.79905 -1.80295 0
M  V30 16025 H 1551.04 -3.27714 -1.02266 0
M  V30 16026 N 1553.48 0.89303 -1.29857 0
M  V30 16027 C 1554.9 1.17496 -1.08013 0
M  V30 16028 C 1555.1 2.00829 0.164302 0
M  V30 16029 O 1554.16 2.37396 0.860194 0
M  V30 16030 C 1555.47 1.88944 -2.33924 0
M  V30 16031 C 1557.02 2.01742 -2.3931 0
M  V30 16032 C 1557.49 2.76601 -3.65042 0
M  V30 16033 N 1558.98 2.84152 -3.65803 0
M  V30 16034 C 1559.72 3.42628 -4.59776 0
M  V30 16035 N 1559.21 4.02218 -5.64086 0
M  V30 16036 N 1561.01 3.40366 -4.47334 0
M  V30 16037 H 1553.16 0.33719 -2.09706 0
M  V30 16038 H 1555.42 0.211899 -0.924014 0
M  V30 16039 H 1555.13 1.35151 -3.24695 0
M  V30 16040 H 1555 2.89379 -2.4195 0
M  V30 16041 H 1557.39 2.54708 -1.49022 0
M  V30 16042 H 1557.47 1.0042 -2.35265 0
M  V30 16043 H 1557.11 2.24309 -4.55684 0
M  V30 16044 H 1557.04 3.78283 -3.66346 0
M  V30 16045 H 1559.53 2.41835 -2.90386 0
M  V30 16046 H 1559.85 4.4488 -6.31903 0
M  V30 16047 H 1558.19 4.00661 -5.67887 0
M  V30 16048 H 1561.38 2.93035 -3.65031 0
M  V30 16049 H 1561.56 3.85644 -5.20752 0
M  V30 16050 N 1554.96 1.12442 1.10429 0
M  V30 16051 C 1556.37 0.894147 1.63896 0
M  V30 16052 C 1556.72 -0.571509 1.87692 0
M  V30 16053 O 1555.85 -1.43595 1.61893 0
M  V30 16054 C 1556.44 1.61664 2.97742 0
M  V30 16055 C 1555 1.43251 3.48075 0
M  V30 16056 C 1554.15 1.65252 2.22682 0
M  V30 16057 H 1557.1 1.27918 0.939289 0
M  V30 16058 H 1557.12 1.06771 3.65213 0
M  V30 16059 H 1556.63 2.68333 2.80391 0
M  V30 16060 H 1554.73 0.388385 3.7057 0
M  V30 16061 H 1554.85 2.18866 4.26186 0
M  V30 16062 H 1553.21 1.07663 2.30827 0
M  V30 16063 H 1553.99 2.73219 2.07862 0
M  V30 16064 N 1556.44 -1.28223 0.91633 0
M  V30 16065 C 1557.68 -1.96637 0.557957 0
M  V30 16066 C 1558.04 -1.70523 -0.882386 0
M  V30 16067 O 1559.24 -2.32529 -1.34846 0
M  V30 16068 C 1557.52 -3.46858 0.861633 0
M  V30 16069 S 1559.07 -4.34538 0.610066 0
M  V30 16070 H 1555.89 -0.680393 0.206364 0
M  V30 16071 H 1558.49 -1.55696 1.18233 0
M  V30 16072 H 1557.2 -3.63361 1.90781 0
M  V30 16073 H 1556.73 -3.9275 0.226011 0
M  V30 16074 H 1558.74 -4.93281 -0.537408 0
M  V30 16075 N 1557.92 -0.68059 -1.42147 0
M  V30 16076 C 1558.85 -0.0199376 -2.33491 0
M  V30 16077 C 1559.83 0.783164 -1.50999 0
M  V30 16078 O 1561.01 0.739154 -1.79583 0
M  V30 16079 C 1558.14 0.927902 -3.34675 0
M  V30 16080 C 1557.1 0.232979 -4.27365 0
M  V30 16081 C 1556.42 1.29415 -5.18802 0
M  V30 16082 C 1557.72 -0.891559 -5.14634 0
M  V30 16083 H 1559.42 -0.782823 -2.88985 0
M  V30 16084 H 1556.96 -0.377898 -1.38953 0
M  V30 16085 H 1558.92 1.3992 -3.97493 0
M  V30 16086 H 1557.64 1.72228 -2.77498 0
M  V30 16087 H 1556.3 -0.21814 -3.6595 0
M  V30 16088 H 1555.95 2.08067 -4.57949 0
M  V30 16089 H 1555.65 0.834274 -5.81647 0
M  V30 16090 H 1557.17 1.76627 -5.84496 0
M  V30 16091 H 1558.59 -0.501219 -5.71105 0
M  V30 16092 H 1556.98 -1.27759 -5.86343 0
M  V30 16093 H 1558.05 -1.73781 -4.5269 0
M  V30 16094 N 1559.4 1.51781 -0.424309 0
M  V30 16095 C 1560.64 2.02924 0.139027 0
M  V30 16096 C 1561 1.30356 1.4151 0
M  V30 16097 O 1560.29 0.405762 1.87254 0
M  V30 16098 C 1560.48 3.54855 0.42574 0
M  V30 16099 C 1560.31 4.42142 -0.820996 0
M  V30 16100 C 1559.08 4.86913 -1.35069 0
M  V30 16101 C 1561.28 4.8527 -1.70346 0
M  V30 16102 N 1559.26 5.58373 -2.55133 0
M  V30 16103 C 1560.63 5.55664 -2.75023 0
M  V30 16104 C 1562.69 4.67269 -1.71942 0
M  V30 16105 C 1561.39 6.09967 -3.81226 0
M  V30 16106 C 1563.42 5.2248 -2.77072 0
M  V30 16107 C 1562.78 5.92809 -3.8047 0
M  V30 16108 H 1558.88 0.781907 0.0120462 0
M  V30 16109 H 1561.46 1.85796 -0.582061 0
M  V30 16110 H 1559.63 3.72026 1.11587 0
M  V30 16111 H 1561.37 3.92673 0.979289 0
M  V30 16112 H 1558.12 4.64844 -0.906501 0
M  V30 16113 H 1558.54 5.98737 -3.15979 0
M  V30 16114 H 1563.19 4.12369 -0.933379 0
M  V30 16115 H 1560.9 6.6393 -4.60676 0
M  V30 16116 H 1564.49 5.10411 -2.79234 0
M  V30 16117 H 1563.37 6.34764 -4.60482 0
M  V30 16118 N 1560.87 0.155222 1.56834 0
M  V30 16119 C 1561.8 -0.777258 2.20184 0
M  V30 16120 C 1562.78 -1.25102 1.15254 0
M  V30 16121 O 1563.97 -1.3071 1.43627 0
M  V30 16122 C 1561.1 -2.01326 2.82993 0
M  V30 16123 C 1560.05 -1.67596 3.93822 0
M  V30 16124 C 1559.38 -2.98529 4.43604 0
M  V30 16125 C 1560.68 -0.916302 5.142 0
M  V30 16126 H 1562.37 -0.249257 2.98361 0
M  V30 16127 H 1559.92 -0.118448 1.43512 0
M  V30 16128 H 1561.87 -2.67048 3.2598 0
M  V30 16129 H 1560.6 -2.56513 2.0216 0
M  V30 16130 H 1559.26 -1.0425 3.51465 0
M  V30 16131 H 1558.9 -3.51723 3.59583 0
M  V30 16132 H 1558.6 -2.76721 5.18362 0
M  V30 16133 H 1560.13 -3.65308 4.89267 0
M  V30 16134 H 1561.54 -1.47577 5.5398 0
M  V30 16135 H 1559.94 -0.797856 5.94772 0
M  V30 16136 H 1561.01 0.0904351 4.84816 0
M  V30 16137 N 1562.35 -1.57153 -0.118549 0
M  V30 16138 C 1563.6 -1.84876 -0.826255 0
M  V30 16139 C 1563.93 -0.740373 -1.79858 0
M  V30 16140 O 1563.18 0.268233 -1.93853 0
M  V30 16141 C 1563.48 -3.19084 -1.60998 0
M  V30 16142 C 1563.15 -4.44069 -0.781911 0
M  V30 16143 C 1561.81 -4.78005 -0.553559 0
M  V30 16144 C 1564.16 -5.20798 -0.204739 0
M  V30 16145 C 1561.49 -5.86114 0.262212 0
M  V30 16146 C 1563.84 -6.29765 0.598225 0
M  V30 16147 C 1562.5 -6.62233 0.83689 0
M  V30 16148 H 1561.77 -0.676511 -0.302348 0
M  V30 16149 H 1564.42 -1.91295 -0.0886182 0
M  V30 16150 H 1562.73 -3.08243 -2.41854 0
M  V30 16151 H 1564.42 -3.37755 -2.16153 0
M  V30 16152 H 1561.01 -4.1748 -0.969984 0
M  V30 16153 H 1565.2 -4.94931 -0.368374 0
M  V30 16154 H 1560.45 -6.09695 0.456338 0
M  V30 16155 H 1564.63 -6.88401 1.05244 0
M  V30 16156 H 1562.25 -7.45835 1.47083 0
M  V30 16157 N 1563.83 0.388742 -1.5273 0
M  V30 16158 C 1565.05 1.15946 -1.71963 0
M  V30 16159 C 1565.48 1.82949 -0.437173 0
M  V30 16160 O 1564.84 1.70834 0.607072 0
M  V30 16161 C 1564.89 2.18298 -2.87016 0
M  V30 16162 O 1563.99 3.24891 -2.54008 0
M  V30 16163 H 1563.33 0.337526 -0.571815 0
M  V30 16164 H 1565.86 0.452957 -1.99523 0
M  V30 16165 H 1565.87 2.6229 -3.12519 0
M  V30 16166 H 1564.55 1.68917 -3.80052 0
M  V30 16167 H 1563.12 2.86034 -2.39246 0
M  V30 16168 N 1565.31 1.43698 0.647203 0
M  V30 16169 C 1566.54 1.49085 1.43462 0
M  V30 16170 C 1566.95 0.110605 1.88476 0
M  V30 16171 O 1566.31 -0.880365 1.59862 0
M  V30 16172 C 1566.36 2.44186 2.66562 0
M  V30 16173 O 1566.08 3.76844 2.23429 0
M  V30 16174 C 1567.58 2.58876 3.59858 0
M  V30 16175 H 1564.8 0.506148 0.440517 0
M  V30 16176 H 1567.34 1.88502 0.792931 0
M  V30 16177 H 1565.5 2.07949 3.26858 0
M  V30 16178 H 1565.91 4.2804 3.0312 0
M  V30 16179 H 1567.39 3.29482 4.42883 0
M  V30 16180 H 1567.86 1.63567 4.07606 0
M  V30 16181 H 1568.47 2.95949 3.05441 0
M  V30 16182 N 1566.79 -0.886131 1.30328 0
M  V30 16183 C 1567.72 -1.99733 1.12425 0
M  V30 16184 C 1568.73 -1.62659 0.067824 0
M  V30 16185 O 1569.92 -1.75721 0.313723 0
M  V30 16186 C 1567.02 -3.31757 0.692122 0
M  V30 16187 C 1566.19 -3.97276 1.83004 0
M  V30 16188 C 1565.25 -5.076 1.38666 0
M  V30 16189 O 1564.28 -5.29295 2.09368 0
M  V30 16190 N 1565.48 -5.79895 0.265039 0
M  V30 16191 H 1568.25 -2.15643 2.0813 0
M  V30 16192 H 1565.81 -1.05915 1.22449 0
M  V30 16193 H 1567.8 -4.02926 0.37854 0
M  V30 16194 H 1566.37 -3.12122 -0.172864 0
M  V30 16195 H 1565.59 -3.19295 2.3118 0
M  V30 16196 H 1566.88 -4.37789 2.59264 0
M  V30 16197 H 1566.27 -5.64771 -0.324121 0
M  V30 16198 H 1564.83 -6.51799 0.0109044 0
M  V30 16199 N 1568.26 -1.13026 -1.09832 0
M  V30 16200 C 1569.68 -0.902826 -1.6342 0
M  V30 16201 C 1570.03 0.561547 -1.87992 0
M  V30 16202 O 1569.15 1.42735 -1.62652 0
M  V30 16203 C 1569.75 -1.6324 -2.96881 0
M  V30 16204 C 1568.31 -1.45095 -3.4731 0
M  V30 16205 C 1567.45 -1.66431 -2.21802 0
M  V30 16206 H 1570.4 -1.28414 -0.932492 0
M  V30 16207 H 1570.42 -1.08706 -3.64641 0
M  V30 16208 H 1569.94 -2.69816 -2.78964 0
M  V30 16209 H 1568.04 -0.408031 -3.70359 0
M  V30 16210 H 1568.15 -2.21123 -4.25019 0
M  V30 16211 H 1566.51 -1.08885 -2.30252 0
M  V30 16212 H 1567.3 -2.74317 -2.0641 0
M  V30 16213 N 1569.74 1.27735 -0.923117 0
M  V30 16214 C 1570.97 1.98682 -0.577317 0
M  V30 16215 C 1571.39 1.68904 0.843608 0
M  V30 16216 O 1570.74 0.947021 1.56006 0
M  V30 16217 C 1570.79 3.52804 -0.788144 0
M  V30 16218 O 1570.51 3.81537 -2.15316 0
M  V30 16219 C 1572.02 4.41006 -0.450437 0
M  V30 16220 H 1569.24 0.634186 -0.2192 0
M  V30 16221 H 1571.78 1.62702 -1.23888 0
M  V30 16222 H 1569.93 3.87012 -0.173441 0
M  V30 16223 H 1570.35 4.76142 -2.19976 0
M  V30 16224 H 1571.82 5.48175 -0.648674 0
M  V30 16225 H 1572.3 4.3489 0.613806 0
M  V30 16226 H 1572.91 4.1231 -1.04308 0
M  V30 16227 N 1571.22 0.688118 1.41784 0
M  V30 16228 C 1572.17 0.018099 2.30793 0
M  V30 16229 C 1573.14 -0.779009 1.46699 0
M  V30 16230 O 1574.32 -0.748556 1.75503 0
M  V30 16231 C 1571.46 -0.91769 3.32675 0
M  V30 16232 C 1570.58 -0.11299 4.31852 0
M  V30 16233 C 1569.71 -1.04574 5.20805 0
M  V30 16234 C 1568.75 -0.233509 6.11654 0
M  V30 16235 N 1567.89 -1.11967 6.93115 0
M  V30 16236 H 1572.73 0.782911 2.87532 0
M  V30 16237 H 1570.26 0.397806 1.41619 0
M  V30 16238 H 1572.22 -1.47421 3.90286 0
M  V30 16239 H 1570.85 -1.64898 2.77504 0
M  V30 16240 H 1569.9 0.560344 3.7625 0
M  V30 16241 H 1571.22 0.517033 4.96113 0
M  V30 16242 H 1570.37 -1.67174 5.83213 0
M  V30 16243 H 1569.11 -1.70963 4.56753 0
M  V30 16244 H 1568.11 0.405614 5.48302 0
M  V30 16245 H 1569.34 0.426479 6.7776 0
M  V30 16246 H 1567.28 -1.76972 6.31678 0
M  V30 16247 H 1567.2 -0.545042 7.54033 0
M  V30 16248 H 1568.47 -1.73272 7.59998 0
M  V30 16249 N 1572.7 -1.51554 0.432352 0
M  V30 16250 C 1573.66 -2.26195 -0.369912 0
M  V30 16251 C 1574.66 -1.29446 -0.953961 0
M  V30 16252 O 1575.85 -1.53199 -0.829193 0
M  V30 16253 C 1572.98 -3.04993 -1.52289 0
M  V30 16254 H 1574.18 -2.98551 0.284173 0
M  V30 16255 H 1571.73 -1.55197 0.1854 0
M  V30 16256 H 1572.46 -2.37043 -2.21317 0
M  V30 16257 H 1572.25 -3.76051 -1.11032 0
M  V30 16258 H 1573.74 -3.61547 -2.08982 0
M  V30 16259 N 1574.18 -0.163538 -1.56749 0
M  V30 16260 C 1575.42 0.483404 -1.96646 0
M  V30 16261 C 1575.75 1.63776 -1.04918 0
M  V30 16262 O 1575.01 1.95529 -0.0816828 0
M  V30 16263 C 1575.31 1.0153 -3.42675 0
M  V30 16264 C 1574.97 -0.0223402 -4.50894 0
M  V30 16265 C 1573.63 -0.30754 -4.80216 0
M  V30 16266 C 1575.99 -0.727064 -5.16104 0
M  V30 16267 C 1573.31 -1.30299 -5.72048 0
M  V30 16268 C 1575.67 -1.71144 -6.09009 0
M  V30 16269 C 1574.33 -2.00417 -6.36702 0
M  V30 16270 H 1573.6 0.17689 -0.719577 0
M  V30 16271 H 1576.25 -0.253859 -1.8981 0
M  V30 16272 H 1574.55 1.83023 -3.46425 0
M  V30 16273 H 1576.25 1.52472 -3.70882 0
M  V30 16274 H 1572.84 0.210124 -4.28085 0
M  V30 16275 H 1577.02 -0.519934 -4.93569 0
M  V30 16276 H 1572.28 -1.53604 -5.9179 0
M  V30 16277 H 1576.45 -2.26292 -6.58608 0
M  V30 16278 H 1574.08 -2.77701 -7.07663 0
M  V30 16279 N 1575.65 1.57214 0.110213 0
M  V30 16280 C 1576.88 1.89505 0.830391 0
M  V30 16281 C 1577.3 0.755702 1.73016 0
M  V30 16282 O 1576.65 -0.273072 1.80445 0
M  V30 16283 C 1576.71 3.21316 1.65646 0
M  V30 16284 O 1576.43 4.30865 0.7929 0
M  V30 16285 C 1577.93 3.67369 2.48102 0
M  V30 16286 H 1575.15 0.627277 0.238252 0
M  V30 16287 H 1577.69 2.04293 0.0919716 0
M  V30 16288 H 1575.85 3.08171 2.34754 0
M  V30 16289 H 1576.26 5.06466 1.36353 0
M  V30 16290 H 1577.73 4.62335 3.0158 0
M  V30 16291 H 1578.21 2.94459 3.25869 0
M  V30 16292 H 1578.82 3.83331 1.8422 0
M  V30 16293 N 1577.13 -0.380637 1.52934 0
M  V30 16294 C 1578.1 -1.44819 1.77652 0
M  V30 16295 C 1579.1 -1.47224 0.646657 0
M  V30 16296 O 1580.29 -1.48248 0.91477 0
M  V30 16297 C 1577.42 -2.8405 1.8849 0
M  V30 16298 H 1578.61 -1.24183 2.72981 0
M  V30 16299 H 1576.16 -0.61288 1.43783 0
M  V30 16300 H 1576.9 -3.1002 0.951751 0
M  V30 16301 H 1576.68 -2.83704 2.70655 0
M  V30 16302 H 1578.17 -3.61388 2.09257 0
M  V30 16303 N 1578.61 -1.44039 -0.639573 0
M  V30 16304 C 1579.86 -1.47589 -1.39961 0
M  V30 16305 C 1580.21 -0.103692 -1.9212 0
M  V30 16306 O 1579.5 0.879803 -1.70206 0
M  V30 16307 C 1579.7 -2.46459 -2.5883 0
M  V30 16308 C 1579.53 -3.93157 -2.18306 0
M  V30 16309 C 1578.3 -4.61409 -2.05984 0
M  V30 16310 C 1580.5 -4.8261 -1.77741 0
M  V30 16311 N 1578.48 -5.9297 -1.58935 0
M  V30 16312 C 1579.85 -6.03549 -1.41875 0
M  V30 16313 C 1581.9 -4.69749 -1.65046 0
M  V30 16314 C 1580.61 -7.13054 -0.94584 0
M  V30 16315 C 1582.63 -5.79271 -1.1916 0
M  V30 16316 C 1581.99 -6.99345 -0.842389 0
M  V30 16317 H 1578.09 -0.595136 -0.507284 0
M  V30 16318 H 1580.68 -1.8031 -0.734598 0
M  V30 16319 H 1578.85 -2.15742 -3.22971 0
M  V30 16320 H 1580.58 -2.40359 -3.25592 0
M  V30 16321 H 1577.34 -4.16104 -2.26173 0
M  V30 16322 H 1577.76 -6.62841 -1.37733 0
M  V30 16323 H 1582.4 -3.77361 -1.90679 0
M  V30 16324 H 1580.12 -8.05259 -0.677011 0
M  V30 16325 H 1583.71 -5.71344 -1.09808 0
M  V30 16326 H 1582.59 -7.8265 -0.492752 0
M  V30 16327 N 1580.09 0.879207 -1.30796 0
M  V30 16328 C 1581.02 2.00158 -1.20246 0
M  V30 16329 C 1582 1.69852 -0.091769 0
M  V30 16330 O 1583.18 1.92246 -0.274792 0
M  V30 16331 C 1580.31 3.3545 -0.899472 0
M  V30 16332 C 1579.27 3.80033 -1.96873 0
M  V30 16333 C 1578.59 5.12681 -1.51861 0
M  V30 16334 C 1579.89 3.98136 -3.38061 0
M  V30 16335 H 1581.59 2.09242 -2.14145 0
M  V30 16336 H 1579.13 1.00535 -1.03096 0
M  V30 16337 H 1581.09 4.13497 -0.812299 0
M  V30 16338 H 1579.81 3.26513 0.075189 0
M  V30 16339 H 1578.47 3.04219 -2.04564 0
M  V30 16340 H 1578.12 5.00178 -0.532063 0
M  V30 16341 H 1577.82 5.43482 -2.23386 0
M  V30 16342 H 1579.34 5.93247 -1.44534 0
M  V30 16343 H 1580.76 4.66604 -3.33096 0
M  V30 16344 H 1579.15 4.40321 -4.07722 0
M  V30 16345 H 1580.22 3.01807 -3.79526 0
M  V30 16346 N 1581.57 1.13606 1.09231 0
M  V30 16347 C 1582.48 0.828702 2.19476 0
M  V30 16348 C 1583.49 -0.187499 1.72987 0
M  V30 16349 O 1584.67 -0.0180602 2.01392 0
M  V30 16350 C 1581.73 0.301361 3.45388 0
M  V30 16351 C 1580.8 1.37906 4.06547 0
M  V30 16352 C 1580.03 0.876786 5.26449 0
M  V30 16353 O 1580.25 -0.284896 5.69688 0
M  V30 16354 O 1579.19 1.652 5.78785 0
M  V30 16355 H 1583.01 1.74982 2.48223 0
M  V30 16356 H 1580.6 0.913673 1.18205 0
M  V30 16357 H 1582.48 0.0127792 4.21398 0
M  V30 16358 H 1581.15 -0.592149 3.18238 0
M  V30 16359 H 1580.06 1.72098 3.32164 0
M  V30 16360 H 1581.39 2.24678 4.37927 0
M  V30 16361 N 1583.05 -1.27244 0.929878 0
M  V30 16362 C 1584.29 -1.94557 0.572306 0
M  V30 16363 C 1584.62 -1.72886 -0.884542 0
M  V30 16364 O 1583.9 -1.0592 -1.63129 0
M  V30 16365 C 1584.18 -3.48629 0.901675 0
M  V30 16366 C 1584.04 -3.79633 2.41244 0
M  V30 16367 C 1585.35 -4.38195 0.409093 0
M  V30 16368 H 1582.47 -0.706627 0.209397 0
M  V30 16369 H 1585.12 -1.50321 1.16205 0
M  V30 16370 H 1583.27 -3.86437 0.399791 0
M  V30 16371 H 1584.94 -3.51604 2.98618 0
M  V30 16372 H 1583.18 -3.26108 2.8607 0
M  V30 16373 H 1583.85 -4.87284 2.59342 0
M  V30 16374 H 1586.33 -4.07548 0.839256 0
M  V30 16375 H 1585.2 -5.44814 0.668482 0
M  V30 16376 H 1585.46 -4.36669 -0.690861 0
M  V30 16377 N 1584.52 -0.695628 -1.41417 0
M  V30 16378 C 1585.45 -0.0447013 -2.33457 0
M  V30 16379 C 1586.43 0.767104 -1.51821 0
M  V30 16380 O 1587.62 0.720066 -1.80357 0
M  V30 16381 C 1584.75 0.892353 -3.3564 0
M  V30 16382 C 1583.7 0.187638 -4.27588 0
M  V30 16383 C 1583.03 1.23906 -5.20146 0
M  V30 16384 C 1584.33 -0.946093 -5.1366 0
M  V30 16385 H 1586.02 -0.81343 -2.88138 0
M  V30 16386 H 1583.57 -0.392614 -1.38544 0
M  V30 16387 H 1585.52 1.35696 -3.98954 0
M  V30 16388 H 1584.25 1.69275 -2.79309 0
M  V30 16389 H 1582.91 -0.256942 -3.65698 0
M  V30 16390 H 1582.55 2.03198 -4.6013 0
M  V30 16391 H 1582.25 0.772536 -5.82499 0
M  V30 16392 H 1583.78 1.70417 -5.86336 0
M  V30 16393 H 1585.19 -0.561764 -5.70541 0
M  V30 16394 H 1583.59 -1.33971 -5.84954 0
M  V30 16395 H 1584.66 -1.78573 -4.50821 0
M  V30 16396 N 1586 1.51322 -0.440383 0
M  V30 16397 C 1587.23 2.0653 0.123649 0
M  V30 16398 C 1587.64 1.30751 1.36197 0
M  V30 16399 O 1587 0.367932 1.78753 0
M  V30 16400 C 1587.05 3.58778 0.442802 0
M  V30 16401 O 1586.77 4.31695 -0.746375 0
M  V30 16402 C 1588.27 4.3051 1.05717 0
M  V30 16403 H 1585.49 0.670968 0.00657466 0
M  V30 16404 H 1588.04 1.94864 -0.620341 0
M  V30 16405 H 1586.19 3.70349 1.13669 0
M  V30 16406 H 1586.61 5.22368 -0.472466 0
M  V30 16407 H 1588.08 5.38111 1.23046 0
M  V30 16408 H 1588.56 3.88999 2.03903 0
M  V30 16409 H 1589.16 4.2339 0.402574 0
M  V30 16410 N 1587.48 0.171848 1.5666 0
M  V30 16411 C 1588.41 -0.753861 2.20996 0
M  V30 16412 C 1589.39 -1.23873 1.16574 0
M  V30 16413 O 1590.58 -1.29179 1.45005 0
M  V30 16414 C 1587.71 -1.98314 2.85112 0
M  V30 16415 C 1586.66 -1.6341 3.95577 0
M  V30 16416 C 1585.99 -2.93807 4.46745 0
M  V30 16417 C 1587.29 -0.861713 5.15142 0
M  V30 16418 H 1588.98 -0.217598 2.98608 0
M  V30 16419 H 1586.53 -0.10322 1.4363 0
M  V30 16420 H 1588.48 -2.63576 3.28794 0
M  V30 16421 H 1587.2 -2.54354 2.04869 0
M  V30 16422 H 1585.86 -1.00516 3.52551 0
M  V30 16423 H 1585.51 -3.47889 3.63293 0
M  V30 16424 H 1585.21 -2.71207 5.21268 0
M  V30 16425 H 1586.73 -3.60098 4.93114 0
M  V30 16426 H 1588.15 -1.41693 5.55514 0
M  V30 16427 H 1586.54 -0.734727 5.95585 0
M  V30 16428 H 1587.61 0.141851 4.84692 0
M  V30 16429 N 1588.96 -1.5727 -0.101874 0
M  V30 16430 C 1589.89 -2.04614 -1.12496 0
M  V30 16431 C 1590.87 -0.933768 -1.42179 0
M  V30 16432 O 1592.05 -1.2046 -1.52325 0
M  V30 16433 C 1589.18 -2.46488 -2.44665 0
M  V30 16434 C 1588.14 -3.61327 -2.29406 0
M  V30 16435 C 1587.46 -3.89155 -3.66691 0
M  V30 16436 C 1588.76 -4.92455 -1.74026 0
M  V30 16437 H 1590.46 -2.90336 -0.731109 0
M  V30 16438 H 1588 -1.39676 -0.350239 0
M  V30 16439 H 1589.96 -2.78216 -3.16502 0
M  V30 16440 H 1588.68 -1.57757 -2.85972 0
M  V30 16441 H 1587.34 -3.29835 -1.60015 0
M  V30 16442 H 1586.99 -2.97603 -4.05514 0
M  V30 16443 H 1586.69 -4.66465 -3.57329 0
M  V30 16444 H 1588.21 -4.23352 -4.40006 0
M  V30 16445 H 1589.63 -5.22609 -2.35697 0
M  V30 16446 H 1588.02 -5.73882 -1.75441 0
M  V30 16447 H 1589.09 -4.79833 -0.699136 0
M  V30 16448 N 1590.44 0.372521 -1.53134 0
M  V30 16449 C 1591.68 1.11316 -1.68201 0
M  V30 16450 C 1592 1.90662 -0.436714 0
M  V30 16451 O 1593.2 2.67439 -0.467802 0
M  V30 16452 C 1591.66 2.02808 -2.97317 0
M  V30 16453 C 1591.27 1.28806 -4.29084 0
M  V30 16454 C 1593.01 2.76906 -3.2175 0
M  V30 16455 C 1590.92 2.19159 -5.49294 0
M  V30 16456 H 1589.85 0.419264 -0.626685 0
M  V30 16457 H 1592.5 0.374677 -1.79634 0
M  V30 16458 H 1590.88 2.80359 -2.79669 0
M  V30 16459 H 1592.06 0.563661 -4.5734 0
M  V30 16460 H 1590.37 0.665989 -4.1104 0
M  V30 16461 H 1592.97 3.44721 -4.08744 0
M  V30 16462 H 1593.31 3.41894 -2.37517 0
M  V30 16463 H 1593.84 2.06441 -3.4004 0
M  V30 16464 H 1590.58 1.5876 -6.35984 0
M  V30 16465 H 1590.1 2.89468 -5.25327 0
M  V30 16466 H 1591.78 2.78874 -5.83814 0
M  V30 16467 N 1591.91 1.44376 0.631925 0
M  V30 16468 C 1593.14 1.50598 1.41873 0
M  V30 16469 C 1593.56 0.130589 1.88348 0
M  V30 16470 O 1592.91 -0.86336 1.60787 0
M  V30 16471 C 1592.96 2.47 2.63957 0
M  V30 16472 O 1592.69 3.79192 2.1942 0
M  V30 16473 C 1594.19 2.62678 3.57092 0
M  V30 16474 H 1591.41 0.510792 0.435124 0
M  V30 16475 H 1593.95 1.89332 0.772893 0
M  V30 16476 H 1592.11 2.11404 3.24634 0
M  V30 16477 H 1592.52 4.31231 2.98563 0
M  V30 16478 H 1593.99 3.34161 4.39364 0
M  V30 16479 H 1594.47 1.67881 4.05848 0
M  V30 16480 H 1595.08 2.99172 3.02285 0
M  V30 16481 N 1593.39 -0.872258 1.31261 0
M  V30 16482 C 1594.34 -1.97926 1.18718 0
M  V30 16483 C 1595.31 -1.65937 0.0735242 0
M  V30 16484 O 1596.49 -1.89208 0.245979 0
M  V30 16485 C 1593.63 -3.33208 0.898117 0
M  V30 16486 C 1592.75 -3.77808 2.09488 0
M  V30 16487 C 1591.88 -5.01796 1.74281 0
M  V30 16488 C 1590.92 -5.38838 2.90379 0
M  V30 16489 N 1590.06 -6.54007 2.55382 0
M  V30 16490 H 1594.9 -2.07986 2.13415 0
M  V30 16491 H 1592.43 -1.01821 1.06165 0
M  V30 16492 H 1594.39 -4.11095 0.711089 0
M  V30 16493 H 1593.02 -3.22798 -0.0120097 0
M  V30 16494 H 1592.07 -2.95722 2.39276 0
M  V30 16495 H 1593.39 -4.01191 2.96391 0
M  V30 16496 H 1592.54 -5.87344 1.52027 0
M  V30 16497 H 1591.28 -4.80312 0.845665 0
M  V30 16498 H 1590.28 -4.51811 3.13284 0
M  V30 16499 H 1591.51 -5.62289 3.80799 0
M  V30 16500 H 1589.46 -6.34073 1.68188 0
M  V30 16501 H 1589.37 -6.77322 3.35814 0
M  V30 16502 H 1590.64 -7.42752 2.36516 0
M  V30 16503 N 1594.87 -1.14184 -1.08627 0
M  V30 16504 C 1595.8 -0.849455 -2.17501 0
M  V30 16505 C 1596.78 0.194617 -1.68983 0
M  V30 16506 O 1597.97 0.0517757 -1.94131 0
M  V30 16507 C 1595.1 -0.323685 -3.45788 0
M  V30 16508 C 1594.05 -1.30294 -4.07685 0
M  V30 16509 C 1593.38 -0.636575 -5.30897 0
M  V30 16510 C 1594.68 -2.66441 -4.49229 0
M  V30 16511 H 1596.37 -1.75987 -2.42217 0
M  V30 16512 H 1593.92 -0.847595 -1.16412 0
M  V30 16513 H 1595.87 -0.106754 -4.21265 0
M  V30 16514 H 1594.59 0.62215 -3.20619 0
M  V30 16515 H 1593.25 -1.50601 -3.34238 0
M  V30 16516 H 1592.9 0.314995 -5.02013 0
M  V30 16517 H 1592.6 -1.28998 -5.73266 0
M  V30 16518 H 1594.12 -0.429117 -6.0909 0
M  V30 16519 H 1595.54 -2.50055 -5.15893 0
M  V30 16520 H 1593.93 -3.28033 -5.02508 0
M  V30 16521 H 1595 -3.23486 -3.61226 0
M  V30 16522 N 1596.35 1.26749 -0.936613 0
M  V30 16523 C 1597.76 1.46284 -0.638218 0
M  V30 16524 C 1597.96 1.84509 0.80986 0
M  V30 16525 O 1597.02 1.96399 1.58693 0
M  V30 16526 C 1598.33 2.54867 -1.59573 0
M  V30 16527 C 1599.88 2.68721 -1.60493 0
M  V30 16528 C 1600.36 3.80471 -2.54963 0
M  V30 16529 N 1601.85 3.87857 -2.53221 0
M  V30 16530 C 1602.58 4.73767 -3.23005 0
M  V30 16531 N 1602.08 5.641 -4.02198 0
M  V30 16532 N 1603.87 4.67574 -3.11979 0
M  V30 16533 H 1596.02 1.00224 -1.87267 0
M  V30 16534 H 1598.29 0.501478 -0.804502 0
M  V30 16535 H 1597.99 2.33594 -2.62919 0
M  V30 16536 H 1597.87 3.52433 -1.34427 0
M  V30 16537 H 1600.25 2.8937 -0.578729 0
M  V30 16538 H 1600.33 1.71613 -1.89691 0
M  V30 16539 H 1599.98 3.60575 -3.57698 0
M  V30 16540 H 1599.91 4.77026 -2.23056 0
M  V30 16541 H 1602.4 3.23272 -1.95714 0
M  V30 16542 H 1602.71 6.26535 -4.52409 0
M  V30 16543 H 1601.06 5.63866 -4.063 0
M  V30 16544 H 1604.25 3.96004 -2.49596 0
M  V30 16545 H 1604.42 5.34308 -3.66633 0
M  V30 16546 N 1597.83 0.703118 1.41046 0
M  V30 16547 C 1598.79 0.0514476 2.29142 0
M  V30 16548 C 1599.79 -0.700223 1.44753 0
M  V30 16549 O 1600.98 -0.533985 1.65814 0
M  V30 16550 C 1598.11 -0.93735 3.2776 0
M  V30 16551 H 1599.3 0.827201 2.88266 0
M  V30 16552 H 1596.86 0.467045 1.49159 0
M  V30 16553 H 1597.59 -1.7406 2.7363 0
M  V30 16554 H 1597.38 -0.4014 3.9004 0
M  V30 16555 H 1598.87 -1.39088 3.93757 0
M  V30 16556 N 1599.3 -1.51086 0.448402 0
M  V30 16557 C 1600.53 -2.07081 -0.115038 0
M  V30 16558 C 1600.95 -1.31253 -1.34737 0
M  V30 16559 O 1600.31 -0.353613 -1.77818 0
M  V30 16560 C 1600.36 -3.58321 -0.404803 0
M  V30 16561 O 1599.46 -3.84567 -1.48936 0
M  V30 16562 H 1598.81 -0.663993 0.00299118 0
M  V30 16563 H 1601.34 -1.94564 0.632921 0
M  V30 16564 H 1601.35 -4.02756 -0.652013 0
M  V30 16565 H 1600.02 -4.12934 0.495838 0
M  V30 16566 H 1598.6 -3.51987 -1.23124 0
M  V30 16567 N 1600.78 -0.180154 -1.56567 0
M  V30 16568 C 1601.75 0.732809 -2.17169 0
M  V30 16569 C 1602.75 1.15176 -1.1221 0
M  V30 16570 O 1603.94 1.06728 -1.37677 0
M  V30 16571 C 1601.07 1.99857 -2.7617 0
M  V30 16572 H 1602.26 0.205088 -2.99198 0
M  V30 16573 H 1599.81 0.0694351 -1.56146 0
M  V30 16574 H 1600.55 2.56917 -1.97899 0
M  V30 16575 H 1600.33 1.70705 -3.5299 0
M  V30 16576 H 1601.82 2.64992 -3.22752 0
M  V30 16577 N 1602.26 1.57322 0.0935319 0
M  V30 16578 C 1603.51 1.86443 0.797919 0
M  V30 16579 C 1603.84 0.769491 1.78304 0
M  V30 16580 O 1603.11 -0.222383 1.93225 0
M  V30 16581 C 1603.4 3.26201 1.52528 0
M  V30 16582 C 1603.25 4.46325 0.558031 0
M  V30 16583 C 1604.57 3.63879 2.47548 0
M  V30 16584 H 1601.69 0.678136 0.288618 0
M  V30 16585 H 1604.33 1.899 0.0615161 0
M  V30 16586 H 1602.48 3.23385 2.15301 0
M  V30 16587 H 1604.15 4.61257 -0.0628154 0
M  V30 16588 H 1602.4 4.3361 -0.128462 0
M  V30 16589 H 1603.07 5.40845 1.10413 0
M  V30 16590 H 1605.54 3.6765 1.94866 0
M  V30 16591 H 1604.42 4.62598 2.95456 0
M  V30 16592 H 1604.68 2.92647 3.31376 0
M  V30 16593 N 1603.74 -0.364395 1.53329 0
M  V30 16594 C 1605.15 -0.706147 1.43128 0
M  V30 16595 C 1605.35 -1.93231 0.571307 0
M  V30 16596 O 1604.41 -2.52442 0.0542079 0
M  V30 16597 C 1605.72 -0.918245 2.86337 0
M  V30 16598 C 1607.27 -1.01818 2.95976 0
M  V30 16599 C 1607.75 -1.26274 4.40249 0
M  V30 16600 N 1609.24 -1.33042 4.43683 0
M  V30 16601 C 1609.97 -1.53677 5.52423 0
M  V30 16602 N 1609.47 -1.7162 6.71207 0
M  V30 16603 N 1611.26 -1.56056 5.40003 0
M  V30 16604 H 1603.41 0.442091 2.07748 0
M  V30 16605 H 1605.68 0.135735 0.938232 0
M  V30 16606 H 1605.38 -0.0890628 3.51587 0
M  V30 16607 H 1605.26 -1.826 3.30056 0
M  V30 16608 H 1607.64 -1.83791 2.30879 0
M  V30 16609 H 1607.72 -0.0877892 2.55649 0
M  V30 16610 H 1607.37 -0.448026 5.0592 0
M  V30 16611 H 1607.3 -2.20637 4.78149 0
M  V30 16612 H 1609.79 -1.20784 3.58078 0
M  V30 16613 H 1610.1 -1.86942 7.49848 0
M  V30 16614 H 1608.45 -1.68797 6.7419 0
M  V30 16615 H 1611.64 -1.41605 4.46168 0
M  V30 16616 H 1611.81 -1.71796 6.24812 0
M  V30 16617 N 1605.22 -1.44709 -0.62426 0
M  V30 16618 C 1606.44 -1.51348 -1.41072 0
M  V30 16619 C 1606.86 -0.140576 -1.88276 0
M  V30 16620 O 1606.22 0.854821 -1.61242 0
M  V30 16621 C 1606.27 -2.48396 -2.62643 0
M  V30 16622 O 1605.99 -3.8035 -2.17406 0
M  V30 16623 C 1607.49 -2.64568 -3.55694 0
M  V30 16624 H 1604.71 -0.513092 -0.432409 0
M  V30 16625 H 1607.25 -1.89739 -0.762841 0
M  V30 16626 H 1605.41 -2.13122 -3.23508 0
M  V30 16627 H 1605.82 -4.32809 -2.96272 0
M  V30 16628 H 1607.3 -3.36486 -4.37585 0
M  V30 16629 H 1607.77 -1.70031 -4.04952 0
M  V30 16630 H 1608.38 -3.00771 -3.00694 0
M  V30 16631 N 1606.69 0.865285 -1.31722 0
M  V30 16632 C 1607.94 1.61868 -1.21675 0
M  V30 16633 C 1608.27 1.93206 0.223988 0
M  V30 16634 O 1607.52 1.5657 1.17407 0
M  V30 16635 C 1607.82 2.95462 -2.0109 0
M  V30 16636 C 1607.49 2.83598 -3.50547 0
M  V30 16637 C 1606.15 2.80069 -3.91299 0
M  V30 16638 C 1608.5 2.70295 -4.45635 0
M  V30 16639 C 1605.83 2.61102 -5.25398 0
M  V30 16640 C 1608.18 2.52864 -5.79864 0
M  V30 16641 C 1606.85 2.47722 -6.19831 0
M  V30 16642 H 1606.12 0.592319 -0.445241 0
M  V30 16643 H 1608.76 1.00456 -1.63036 0
M  V30 16644 H 1607.07 3.60935 -1.52424 0
M  V30 16645 H 1608.77 3.52756 -1.90693 0
M  V30 16646 H 1605.36 2.87164 -3.18175 0
M  V30 16647 H 1609.54 2.72073 -4.15078 0
M  V30 16648 H 1604.8 2.55549 -5.55432 0
M  V30 16649 H 1608.97 2.41548 -6.53167 0
M  V30 16650 H 1606.6 2.32784 -7.23682 0
M  V30 16651 N 1608.17 1.14759 1.0802 0
M  V30 16652 C 1609.42 0.916435 1.80127 0
M  V30 16653 C 1609.74 -0.558281 1.86837 0
M  V30 16654 O 1609.01 -1.40579 1.36434 0
M  V30 16655 H 1607.59 0.336066 0.667135 0
M  V30 16656 H 1610.25 1.44693 1.30576 0
M  V30 16657 H 1609.35 1.31986 2.82818 0
M  V30 16658 N 1609.65 -1.26251 0.943322 0
M  V30 16659 C 1610.6 -2.26304 0.453315 0
M  V30 16660 C 1611.57 -1.58764 -0.488168 0
M  V30 16661 O 1612.75 -1.86476 -0.403906 0
M  V30 16662 C 1609.89 -3.44015 -0.273393 0
M  V30 16663 C 1609.01 -4.26225 0.70401 0
M  V30 16664 C 1608.14 -5.31182 -0.0441134 0
M  V30 16665 C 1607.18 -6.05071 0.924971 0
M  V30 16666 N 1606.32 -7.0179 0.208461 0
M  V30 16667 H 1611.16 -2.67591 1.31146 0
M  V30 16668 H 1608.69 -1.31567 0.657914 0
M  V30 16669 H 1610.65 -4.11094 -0.711192 0
M  V30 16670 H 1609.28 -3.03636 -1.09566 0
M  V30 16671 H 1608.33 -3.58915 1.26032 0
M  V30 16672 H 1609.65 -4.77442 1.44398 0
M  V30 16673 H 1608.8 -6.04282 -0.541091 0
M  V30 16674 H 1607.54 -4.80809 -0.816952 0
M  V30 16675 H 1606.54 -5.30795 1.43305 0
M  V30 16676 H 1607.77 -6.57533 1.69785 0
M  V30 16677 H 1605.71 -6.53725 -0.545846 0
M  V30 16678 H 1605.63 -7.5077 0.887725 0
M  V30 16679 H 1606.9 -7.79041 -0.267352 0
M  V30 16680 N 1611.13 -0.710588 -1.40671 0
M  V30 16681 C 1612.04 -0.0557164 -2.34534 0
M  V30 16682 C 1613.06 0.749387 -1.57036 0
M  V30 16683 O 1614.23 0.683493 -1.89447 0
M  V30 16684 C 1611.3 0.858583 -3.35901 0
M  V30 16685 C 1610.36 0.043995 -4.29277 0
M  V30 16686 C 1609.59 0.91475 -5.25802 0
M  V30 16687 O 1609.81 2.15407 -5.28163 0
M  V30 16688 O 1608.75 0.356407 -6.00844 0
M  V30 16689 H 1612.57 -0.829807 -2.92144 0
M  V30 16690 H 1610.16 -0.471028 -1.4178 0
M  V30 16691 H 1612.04 1.38244 -3.98079 0
M  V30 16692 H 1610.72 1.61191 -2.80712 0
M  V30 16693 H 1609.62 -0.524815 -3.704 0
M  V30 16694 H 1610.96 -0.670996 -4.87605 0
M  V30 16695 N 1612.61 1.50847 -0.456408 0
M  V30 16696 C 1613.85 2.02534 0.103772 0
M  V30 16697 C 1614.19 1.33874 1.40682 0
M  V30 16698 O 1613.46 0.459695 1.8899 0
M  V30 16699 C 1613.74 3.58825 0.302817 0
M  V30 16700 C 1613.6 4.38077 -1.02022 0
M  V30 16701 C 1614.92 4.27044 1.06404 0
M  V30 16702 H 1612.04 0.736108 0.0362398 0
M  V30 16703 H 1614.68 1.80306 -0.599134 0
M  V30 16704 H 1612.83 3.77895 0.901542 0
M  V30 16705 H 1614.5 4.30613 -1.6544 0
M  V30 16706 H 1612.74 4.02401 -1.62036 0
M  V30 16707 H 1613.41 5.45652 -0.834766 0
M  V30 16708 H 1615.89 4.12359 0.556698 0
M  V30 16709 H 1614.77 5.3624 1.17209 0
M  V30 16710 H 1615.03 3.89204 2.09697 0
M  V30 16711 N 1614.09 0.188454 1.56469 0
M  V30 16712 C 1615.36 -0.499324 1.89119 0
M  V30 16713 C 1615.74 -1.80116 1.10098 0
M  V30 16714 O 1615.09 -2.27623 0.200048 0
M  V30 16715 C 1615.3 -0.724574 3.41396 0
M  V30 16716 C 1616.65 -1.04692 4.11491 0
M  V30 16717 O 1617.67 -0.812526 3.46809 0
M  V30 16718 O 1616.53 -1.48998 5.25797 0
M  V30 16719 H 1613.63 -0.259468 0.785242 0
M  V30 16720 H 1616.17 0.228172 1.68159 0
M  V30 16721 H 1614.94 0.195039 3.90814 0
M  V30 16722 H 1614.57 -1.50477 3.68025 0
M  V30 16723 N 1615.56 -1.5737 -0.0851874 0
M  V30 16724 C 1616.81 -1.85772 -0.785604 0
M  V30 16725 C 1617.13 -0.779172 -1.79411 0
M  V30 16726 O 1618.33 -0.950621 -2.54314 0
M  V30 16727 C 1616.79 -3.29484 -1.44805 0
M  V30 16728 C 1616.4 -4.45434 -0.478799 0
M  V30 16729 C 1618.14 -3.671 -2.13161 0
M  V30 16730 C 1616.05 -5.80183 -1.1464 0
M  V30 16731 H 1614.98 -0.69298 -0.297145 0
M  V30 16732 H 1617.63 -1.83459 -0.0386776 0
M  V30 16733 H 1616.01 -3.26367 -2.24278 0
M  V30 16734 H 1617.18 -4.59917 0.285148 0
M  V30 16735 H 1615.5 -4.16281 0.0995964 0
M  V30 16736 H 1618.1 -4.65061 -2.6386 0
M  V30 16737 H 1618.44 -2.96223 -2.92503 0
M  V30 16738 H 1618.97 -3.72148 -1.40536 0
M  V30 16739 H 1615.71 -6.54317 -0.393583 0
M  V30 16740 H 1615.23 -5.69525 -1.88153 0
M  V30 16741 H 1616.91 -6.25074 -1.67006 0
M  V30 16742 N 1617.04 0.356258 -1.53521 0
M  V30 16743 C 1617.97 1.44271 -1.83598 0
M  V30 16744 C 1618.95 1.5547 -0.690141 0
M  V30 16745 O 1620.14 1.69886 -0.940868 0
M  V30 16746 C 1617.27 2.8149 -2.03422 0
M  V30 16747 C 1616.22 2.85108 -3.19213 0
M  V30 16748 C 1615.55 4.25091 -3.24348 0
M  V30 16749 C 1616.85 2.51788 -4.57602 0
M  V30 16750 H 1618.54 1.1935 -2.74583 0
M  V30 16751 H 1616.09 0.572707 -1.32121 0
M  V30 16752 H 1618.04 3.57531 -2.23046 0
M  V30 16753 H 1616.76 3.07819 -1.09155 0
M  V30 16754 H 1615.42 2.1152 -2.99424 0
M  V30 16755 H 1615.07 4.4851 -2.277 0
M  V30 16756 H 1614.77 4.28426 -4.0215 0
M  V30 16757 H 1616.3 5.02992 -3.46167 0
M  V30 16758 H 1617.71 3.17542 -4.77326 0
M  V30 16759 H 1616.11 2.66426 -5.37715 0
M  V30 16760 H 1617.18 1.4701 -4.62078 0
M  V30 16761 N 1618.52 1.45038 0.616577 0
M  V30 16762 C 1619.45 1.55858 1.73869 0
M  V30 16763 C 1620.43 0.410657 1.65069 0
M  V30 16764 O 1621.62 0.632652 1.83606 0
M  V30 16765 C 1618.75 1.51635 3.12448 0
M  V30 16766 C 1617.7 2.65053 3.36052 0
M  V30 16767 C 1617.03 2.45883 4.74811 0
M  V30 16768 C 1618.33 4.07121 3.27185 0
M  V30 16769 H 1620.02 2.49784 1.6507 0
M  V30 16770 H 1617.57 1.20216 0.792724 0
M  V30 16771 H 1619.52 1.57803 3.90738 0
M  V30 16772 H 1618.24 0.542342 3.22066 0
M  V30 16773 H 1616.9 2.58299 2.60149 0
M  V30 16774 H 1616.55 1.46641 4.8115 0
M  V30 16775 H 1616.25 3.21935 4.9156 0
M  V30 16776 H 1617.77 2.53892 5.55312 0
M  V30 16777 H 1619.19 4.15167 3.9536 0
M  V30 16778 H 1617.58 4.83491 3.55466 0
M  V30 16779 H 1618.65 4.29663 2.24762 0
M  V30 16780 N 1620 -0.858287 1.32179 0
M  V30 16781 C 1620.93 -1.98219 1.23415 0
M  V30 16782 C 1621.91 -1.69685 0.118779 0
M  V30 16783 O 1623.09 -1.91785 0.305342 0
M  V30 16784 C 1620.22 -3.33977 0.952725 0
M  V30 16785 C 1619.18 -3.76853 2.02894 0
M  V30 16786 C 1618.5 -5.10201 1.59999 0
M  V30 16787 C 1619.8 -3.92707 3.44352 0
M  V30 16788 H 1621.5 -2.05809 2.17446 0
M  V30 16789 H 1619.04 -0.988817 1.04682 0
M  V30 16790 H 1621 -4.12152 0.87798 0
M  V30 16791 H 1619.72 -3.26592 -0.023234 0
M  V30 16792 H 1618.38 -3.00926 2.09378 0
M  V30 16793 H 1618.03 -4.99268 0.61157 0
M  V30 16794 H 1617.73 -5.39859 2.32004 0
M  V30 16795 H 1619.25 -5.90873 1.53954 0
M  V30 16796 H 1620.67 -4.61246 3.40477 0
M  V30 16797 H 1619.06 -4.33779 4.14675 0
M  V30 16798 H 1620.13 -2.95731 3.8428 0
M  V30 16799 N 1621.48 -1.1533 -1.07409 0
M  V30 16800 C 1622.89 -0.937287 -1.61468 0
M  V30 16801 C 1623.24 0.521545 -1.89141 0
M  V30 16802 O 1622.36 1.39253 -1.65643 0
M  V30 16803 C 1622.96 -1.69501 -2.93351 0
M  V30 16804 C 1621.52 -1.52429 -3.44154 0
M  V30 16805 C 1620.66 -1.71098 -2.18222 0
M  V30 16806 H 1623.61 -1.30364 -0.905044 0
M  V30 16807 H 1623.64 -1.16416 -3.62253 0
M  V30 16808 H 1623.15 -2.75672 -2.73178 0
M  V30 16809 H 1621.25 -0.486498 -3.6941 0
M  V30 16810 H 1621.36 -2.30089 -4.20233 0
M  V30 16811 H 1619.73 -1.13745 -2.27891 0
M  V30 16812 H 1620.51 -2.78634 -2.00545 0
M  V30 16813 N 1622.95 1.25748 -0.950004 0
M  V30 16814 C 1623.92 2.24307 -0.47106 0
M  V30 16815 C 1624.92 1.55145 0.422704 0
M  V30 16816 O 1626.11 1.72797 0.220642 0
M  V30 16817 C 1623.24 3.39395 0.319979 0
M  V30 16818 H 1624.43 2.68192 -1.34214 0
M  V30 16819 H 1621.98 1.38056 -0.732827 0
M  V30 16820 H 1622.72 3.00925 1.20892 0
M  V30 16821 H 1622.5 3.90783 -0.321157 0
M  V30 16822 H 1623.99 4.12594 0.644697 0
M  V30 16823 N 1624.43 0.718038 1.40292 0
M  V30 16824 C 1625.67 0.263057 2.027 0
M  V30 16825 C 1626.04 -1.1233 1.55711 0
M  V30 16826 O 1627.24 -1.67541 2.10199 0
M  V30 16827 C 1625.51 0.342773 3.55752 0
M  V30 16828 S 1627.07 -0.0348622 4.38786 0
M  V30 16829 H 1623.88 0.10418 0.703326 0
M  V30 16830 H 1626.49 0.940801 1.71374 0
M  V30 16831 H 1625.19 1.35336 3.87443 0
M  V30 16832 H 1624.72 -0.353367 3.9181 0
M  V30 16833 H 1626.74 -1.25618 4.80036 0
M  V30 16834 N 1625.91 -1.50602 0.464402 0
M  V30 16835 C 1627.16 -2.02287 -0.0928919 0
M  V30 16836 C 1627.49 -1.34685 -1.40321 0
M  V30 16837 O 1626.74 -0.459304 -1.90234 0
M  V30 16838 C 1627.04 -3.55859 -0.331507 0
M  V30 16839 C 1626.71 -4.41902 0.896292 0
M  V30 16840 C 1625.37 -4.65137 1.23294 0
M  V30 16841 C 1627.72 -4.92208 1.71409 0
M  V30 16842 C 1625.05 -5.35922 2.38757 0
M  V30 16843 C 1627.4 -5.6426 2.85995 0
M  V30 16844 C 1626.06 -5.85751 3.20082 0
M  V30 16845 H 1625.33 -0.74022 -0.0339916 0
M  V30 16846 H 1627.98 -1.81284 0.61712 0
M  V30 16847 H 1626.29 -3.7534 -1.1237 0
M  V30 16848 H 1627.98 -3.93409 -0.776566 0
M  V30 16849 H 1624.57 -4.24033 0.624007 0
M  V30 16850 H 1628.76 -4.74117 1.46719 0
M  V30 16851 H 1624.01 -5.50769 2.65449 0
M  V30 16852 H 1628.19 -6.02223 3.49714 0
M  V30 16853 H 1625.81 -6.40377 4.09659 0
M  V30 16854 N 1627.39 -0.19675 -1.56367 0
M  V30 16855 C 1628.8 0.159068 -1.58805 0
M  V30 16856 C 1629 1.60902 -1.21297 0
M  V30 16857 O 1628.06 2.34491 -0.93649 0
M  V30 16858 C 1629.37 -0.144784 -3.00351 0
M  V30 16859 C 1630.92 -0.0850243 -3.12884 0
M  V30 16860 C 1631.4 -0.362209 -4.56565 0
M  V30 16861 N 1632.89 -0.310887 -4.62156 0
M  V30 16862 C 1633.62 -0.499187 -5.71223 0
M  V30 16863 N 1633.12 -0.747925 -6.88751 0
M  V30 16864 N 1634.91 -0.433329 -5.60427 0
M  V30 16865 H 1627.06 -1.1429 -1.79029 0
M  V30 16866 H 1629.33 -0.456298 -0.830961 0
M  V30 16867 H 1629.03 -1.15019 -3.3236 0
M  V30 16868 H 1628.91 0.551864 -3.73141 0
M  V30 16869 H 1631.29 0.910992 -2.80687 0
M  V30 16870 H 1631.37 -0.814774 -2.42477 0
M  V30 16871 H 1631.02 -1.35555 -4.89477 0
M  V30 16872 H 1630.95 0.388448 -5.25165 0
M  V30 16873 H 1633.44 -0.125318 -3.77692 0
M  V30 16874 H 1633.75 -0.880372 -7.67769 0
M  V30 16875 H 1632.1 -0.784838 -6.90554 0
M  V30 16876 H 1635.29 -0.239411 -4.67487 0
M  V30 16877 H 1635.46 -0.583495 -6.45368 0
M  V30 16878 N 1628.87 1.57413 0.0768405 0
M  V30 16879 C 1629.78 2.06688 1.10983 0
M  V30 16880 C 1630.79 0.995392 1.42716 0
M  V30 16881 O 1631.97 1.30977 1.52994 0
M  V30 16882 C 1629.03 2.49676 2.40546 0
M  V30 16883 C 1628.09 3.71101 2.1583 0
M  V30 16884 C 1627.33 4.1203 3.39216 0
M  V30 16885 O 1627.55 3.52877 4.48145 0
M  V30 16886 O 1626.48 5.04856 3.27726 0
M  V30 16887 H 1630.31 2.95012 0.721242 0
M  V30 16888 H 1627.9 1.46546 0.290624 0
M  V30 16889 H 1629.78 2.77871 3.16805 0
M  V30 16890 H 1628.45 1.64484 2.78795 0
M  V30 16891 H 1627.36 3.47996 1.37293 0
M  V30 16892 H 1628.69 4.5713 1.82465 0
M  V30 16893 N 1630.34 -0.348112 1.53707 0
M  V30 16894 C 1631.62 -1.1056 1.61356 0
M  V30 16895 C 1632 -2.06633 0.431955 0
M  V30 16896 O 1631.35 -2.21115 -0.576211 0
M  V30 16897 C 1631.56 -1.82929 2.97217 0
M  V30 16898 C 1632.91 -2.36837 3.52411 0
M  V30 16899 O 1633.93 -1.93032 2.99361 0
M  V30 16900 O 1632.79 -3.16966 4.45191 0
M  V30 16901 H 1629.88 -0.50817 0.652451 0
M  V30 16902 H 1632.43 -0.349971 1.66052 0
M  V30 16903 H 1631.2 -1.12912 3.74655 0
M  V30 16904 H 1630.83 -2.65361 2.9609 0
M  V30 16905 N 1631.82 -1.45363 -0.608876 0
M  V30 16906 C 1632.75 -1.56778 -1.7304 0
M  V30 16907 C 1633.73 -0.419405 -1.64848 0
M  V30 16908 O 1634.92 -0.64238 -1.83268 0
M  V30 16909 C 1632.05 -1.5329 -3.1164 0
M  V30 16910 C 1631 -2.66832 -3.34641 0
M  V30 16911 C 1630.33 -2.48398 -4.735 0
M  V30 16912 C 1631.63 -4.0885 -3.25021 0
M  V30 16913 H 1633.32 -2.50656 -1.63743 0
M  V30 16914 H 1630.87 -1.20635 -0.786338 0
M  V30 16915 H 1632.82 -1.59873 -3.89895 0
M  V30 16916 H 1631.55 -0.559414 -3.21773 0
M  V30 16917 H 1630.2 -2.59675 -2.58775 0
M  V30 16918 H 1629.85 -1.49191 -4.80366 0
M  V30 16919 H 1629.55 -3.24537 -4.89846 0
M  V30 16920 H 1631.08 -2.56833 -5.53958 0
M  V30 16921 H 1632.49 -4.17257 -3.93153 0
M  V30 16922 H 1630.89 -4.85369 -3.52897 0
M  V30 16923 H 1631.96 -4.30849 -2.2248 0
M  V30 16924 N 1633.3 0.851265 -1.32632 0
M  V30 16925 C 1634.71 1.4217 -1.21015 0
M  V30 16926 C 1635.06 1.95409 0.175972 0
M  V30 16927 O 1634.19 1.87816 1.07489 0
M  V30 16928 C 1634.78 2.58431 -2.19086 0
M  V30 16929 C 1633.34 3.11464 -2.11346 0
M  V30 16930 C 1632.49 1.84221 -2.07263 0
M  V30 16931 H 1635.44 0.65812 -1.44411 0
M  V30 16932 H 1635.46 3.35694 -1.79137 0
M  V30 16933 H 1634.97 2.19652 -3.1996 0
M  V30 16934 H 1633.07 3.54818 -1.13732 0
M  V30 16935 H 1633.19 3.72478 -3.01325 0
M  V30 16936 H 1631.55 2.0396 -1.52553 0
M  V30 16937 H 1632.33 1.47654 -3.09924 0
M  V30 16938 N 1634.78 1.15898 1.06796 0
M  V30 16939 C 1635.71 0.88395 2.16122 0
M  V30 16940 C 1636.69 -0.167708 1.69271 0
M  V30 16941 O 1637.87 -0.0208846 1.94189 0
M  V30 16942 C 1635 0.378656 3.4523 0
M  V30 16943 C 1633.96 1.36764 4.05561 0
M  V30 16944 C 1633.28 0.720956 5.29817 0
M  V30 16945 C 1634.58 2.73554 4.44933 0
M  V30 16946 H 1636.28 1.79818 2.39386 0
M  V30 16947 H 1633.82 0.866008 1.15049 0
M  V30 16948 H 1635.78 0.17376 4.21042 0
M  V30 16949 H 1634.5 -0.571063 3.21569 0
M  V30 16950 H 1633.16 1.55899 3.318 0
M  V30 16951 H 1632.81 -0.235089 5.0245 0
M  V30 16952 H 1632.51 1.38101 5.71141 0
M  V30 16953 H 1634.03 0.525963 6.0833 0
M  V30 16954 H 1635.45 2.58231 5.11849 0
M  V30 16955 H 1633.84 3.35986 4.97226 0
M  V30 16956 H 1634.91 3.29192 3.56034 0
M  V30 16957 N 1636.26 -1.25243 0.956659 0
M  V30 16958 C 1637.67 -1.74909 0.652979 0
M  V30 16959 C 1638.02 -1.77704 -0.831605 0
M  V30 16960 O 1637.14 -1.39921 -1.65079 0
M  V30 16961 C 1637.74 -3.17639 1.1786 0
M  V30 16962 C 1636.3 -3.64856 0.925034 0
M  V30 16963 C 1635.44 -2.43844 1.32044 0
M  V30 16964 H 1638.4 -1.11101 1.13324 0
M  V30 16965 H 1638.42 -3.76654 0.539633 0
M  V30 16966 H 1637.93 -3.15572 2.25911 0
M  V30 16967 H 1636.03 -3.72335 -0.14043 0
M  V30 16968 H 1636.14 -4.5289 1.56292 0
M  V30 16969 H 1634.51 -2.43749 0.738813 0
M  V30 16970 H 1635.29 -2.44466 2.41021 0
M  V30 16971 N 1637.73 -0.725468 -1.3991 0
M  V30 16972 C 1638.64 -0.0805887 -2.34462 0
M  V30 16973 C 1639.66 0.732689 -1.57822 0
M  V30 16974 O 1640.84 0.663362 -1.90162 0
M  V30 16975 C 1637.9 0.822908 -3.36792 0
M  V30 16976 C 1636.96 -0.00153812 -4.293 0
M  V30 16977 C 1636.2 0.85893 -5.26743 0
M  V30 16978 O 1636.42 2.09793 -5.30418 0
M  V30 16979 O 1635.35 0.292659 -6.01188 0
M  V30 16980 H 1639.18 -0.860746 -2.91247 0
M  V30 16981 H 1636.76 -0.48604 -1.41273 0
M  V30 16982 H 1638.65 1.34014 -3.99522 0
M  V30 16983 H 1637.32 1.58204 -2.82406 0
M  V30 16984 H 1636.23 -0.564072 -3.69823 0
M  V30 16985 H 1637.56 -0.722675 -4.86866 0
M  V30 16986 N 1639.21 1.50354 -0.472382 0
M  V30 16987 C 1640.46 2.01934 0.0820006 0
M  V30 16988 C 1640.78 1.35636 1.401 0
M  V30 16989 O 1640.05 0.502127 1.89355 0
M  V30 16990 H 1638.63 0.746258 0.0332943 0
M  V30 16991 H 1641.29 1.84671 -0.623099 0
M  V30 16992 H 1640.39 3.11232 0.232565 0
M  V30 16993 N 1640.69 0.205039 1.56261 0
M  V30 16994 C 1641.94 -0.431364 1.97033 0
M  V30 16995 C 1642.25 -1.62066 1.09517 0
M  V30 16996 O 1643.46 -2.32551 1.40116 0
M  V30 16997 C 1641.92 -0.818841 3.50461 0
M  V30 16998 C 1641.52 0.346723 4.46656 0
M  V30 16999 C 1643.27 -1.42177 3.99982 0
M  V30 17000 C 1641.17 -0.0622677 5.91367 0
M  V30 17001 H 1640.1 -0.164934 0.73574 0
M  V30 17002 H 1642.76 0.298635 1.81054 0
M  V30 17003 H 1641.14 -1.60579 3.61981 0
M  V30 17004 H 1642.31 1.12427 4.46874 0
M  V30 17005 H 1640.63 0.861799 4.07384 0
M  V30 17006 H 1643.22 -1.74039 5.05583 0
M  V30 17007 H 1643.57 -2.33177 3.44868 0
M  V30 17008 H 1644.1 -0.698591 3.91618 0
M  V30 17009 H 1640.84 0.813802 6.50429 0
M  V30 17010 H 1640.36 -0.804474 5.94381 0
M  V30 17011 H 1642.04 -0.49466 6.45106 0
M  V30 17012 N 1642.17 -1.57451 -0.0684915 0
M  V30 17013 C 1643.1 -2.06954 -1.0813 0
M  V30 17014 C 1644.08 -0.963716 -1.40166 0
M  V30 17015 O 1645.27 -1.23664 -1.49736 0
M  V30 17016 C 1642.4 -2.51622 -2.39381 0
M  V30 17017 C 1641.35 -3.66111 -2.2169 0
M  V30 17018 C 1640.68 -3.96846 -3.58354 0
M  V30 17019 C 1641.98 -4.96036 -1.63541 0
M  V30 17020 H 1643.67 -2.91822 -0.66936 0
M  V30 17021 H 1641.22 -1.40387 -0.320533 0
M  V30 17022 H 1643.17 -2.84867 -3.1053 0
M  V30 17023 H 1641.89 -1.63788 -2.82562 0
M  V30 17024 H 1640.55 -3.33155 -1.52982 0
M  V30 17025 H 1640.2 -3.06137 -3.9911 0
M  V30 17026 H 1639.9 -4.73939 -3.47354 0
M  V30 17027 H 1641.42 -4.3259 -4.30927 0
M  V30 17028 H 1642.84 -5.27491 -2.24559 0
M  V30 17029 H 1641.23 -5.77474 -1.63228 0
M  V30 17030 H 1642.3 -4.81208 -0.597199 0
M  V30 17031 N 1643.65 0.339955 -1.5389 0
M  V30 17032 C 1644.58 1.42316 -1.85117 0
M  V30 17033 C 1645.56 1.5473 -0.706591 0
M  V30 17034 O 1646.74 1.68879 -0.958834 0
M  V30 17035 C 1643.87 2.79317 -2.06396 0
M  V30 17036 C 1642.83 2.81707 -3.22219 0
M  V30 17037 C 1642.15 4.21627 -3.28838 0
M  V30 17038 C 1643.45 2.46921 -4.60247 0
M  V30 17039 H 1645.15 1.16431 -2.75834 0
M  V30 17040 H 1642.69 0.558661 -1.32721 0
M  V30 17041 H 1644.65 3.55145 -2.26826 0
M  V30 17042 H 1643.37 3.06644 -1.12414 0
M  V30 17043 H 1642.03 2.08332 -3.01651 0
M  V30 17044 H 1641.68 4.4607 -2.32444 0
M  V30 17045 H 1641.38 4.24137 -4.06672 0
M  V30 17046 H 1642.9 4.99292 -3.51482 0
M  V30 17047 H 1644.32 3.12462 -4.80667 0
M  V30 17048 H 1642.71 2.60707 -5.40511 0
M  V30 17049 H 1643.78 1.421 -4.63611 0
M  V30 17050 N 1645.13 1.45684 0.601159 0
M  V30 17051 C 1646.09 1.54451 1.69344 0
M  V30 17052 C 1647.09 0.423379 1.55126 0
M  V30 17053 O 1648.28 0.687079 1.60078 0
M  V30 17054 C 1645.41 1.4472 3.08657 0
M  V30 17055 H 1646.6 2.51778 1.62935 0
M  V30 17056 H 1644.16 1.3322 0.81744 0
M  V30 17057 H 1644.89 0.486027 3.20637 0
M  V30 17058 H 1644.68 2.26045 3.20384 0
M  V30 17059 H 1646.17 1.53902 3.88206 0
M  V30 17060 N 1646.6 -0.84422 1.33082 0
M  V30 17061 C 1647.53 -1.96899 1.25511 0
M  V30 17062 C 1648.51 -1.69549 0.13677 0
M  V30 17063 O 1649.7 -1.9145 0.325667 0
M  V30 17064 C 1646.83 -3.32947 0.988094 0
M  V30 17065 C 1645.78 -3.7468 2.06879 0
M  V30 17066 C 1645.11 -5.08475 1.65401 0
M  V30 17067 C 1646.41 -3.89033 3.48498 0
M  V30 17068 H 1648.1 -2.03491 2.19617 0
M  V30 17069 H 1645.65 -0.977659 1.05725 0
M  V30 17070 H 1647.6 -4.11198 0.921645 0
M  V30 17071 H 1646.33 -3.26598 0.0114067 0
M  V30 17072 H 1644.99 -2.98689 2.12557 0
M  V30 17073 H 1644.63 -4.98592 0.66449 0
M  V30 17074 H 1644.33 -5.37368 2.37717 0
M  V30 17075 H 1645.86 -5.89207 1.60212 0
M  V30 17076 H 1647.27 -4.57609 3.4535 0
M  V30 17077 H 1645.67 -4.29357 4.19253 0
M  V30 17078 H 1646.74 -2.91639 3.87395 0
M  V30 17079 N 1648.08 -1.16463 -1.0618 0
M  V30 17080 C 1649.5 -0.909776 -1.31131 0
M  V30 17081 C 1649.7 0.436686 -1.96711 0
M  V30 17082 O 1648.75 1.17595 -2.23445 0
M  V30 17083 C 1650.07 -2.05967 -2.19084 0
M  V30 17084 C 1651.61 -2.09557 -2.32497 0
M  V30 17085 C 1652.09 -3.23904 -3.23806 0
M  V30 17086 N 1653.58 -3.23628 -3.3139 0
M  V30 17087 C 1654.32 -4.08746 -4.02137 0
M  V30 17088 N 1653.81 -5.03954 -4.75397 0
M  V30 17089 N 1655.6 -3.96729 -3.98199 0
M  V30 17090 H 1647.76 -2.03148 -0.620066 0
M  V30 17091 H 1650.02 -0.886477 -0.335949 0
M  V30 17092 H 1649.72 -3.03227 -1.78174 0
M  V30 17093 H 1649.6 -2.00219 -3.19675 0
M  V30 17094 H 1651.99 -1.12889 -2.72654 0
M  V30 17095 H 1652.07 -2.19369 -1.3157 0
M  V30 17096 H 1651.71 -4.20831 -2.84366 0
M  V30 17097 H 1651.64 -3.11327 -4.24715 0
M  V30 17098 H 1654.13 -2.54687 -2.79182 0
M  V30 17099 H 1654.44 -5.65319 -5.2691 0
M  V30 17100 H 1652.79 -5.07932 -4.74373 0
M  V30 17101 H 1655.98 -3.21652 -3.40085 0
M  V30 17102 H 1656.15 -4.63286 -4.53067 0
M  V30 17103 N 1649.56 1.24734 -0.963288 0
M  V30 17104 C 1650.81 1.92305 -0.621536 0
M  V30 17105 C 1651.13 1.75723 0.845363 0
M  V30 17106 O 1650.4 1.1261 1.60299 0
M  V30 17107 H 1648.98 0.71171 -0.226886 0
M  V30 17108 H 1651.64 1.5172 -1.2234 0
M  V30 17109 H 1650.74 3.00065 -0.858322 0
M  V30 17110 N 1651.04 0.732878 1.39523 0
M  V30 17111 C 1652.28 0.279891 2.00556 0
M  V30 17112 C 1652.61 -1.13223 1.58148 0
M  V30 17113 O 1651.87 -1.78575 0.800591 0
M  V30 17114 C 1652.17 0.32714 3.559 0
M  V30 17115 C 1651.83 1.69198 4.17951 0
M  V30 17116 C 1650.49 2.06555 4.34613 0
M  V30 17117 C 1652.85 2.58821 4.52395 0
M  V30 17118 C 1650.17 3.33047 4.83008 0
M  V30 17119 C 1652.53 3.84682 5.02197 0
M  V30 17120 C 1651.19 4.22134 5.17068 0
M  V30 17121 H 1650.46 0.102419 0.733888 0
M  V30 17122 H 1653.11 0.939304 1.66881 0
M  V30 17123 H 1651.41 -0.415849 3.89587 0
M  V30 17124 H 1653.11 -0.0414564 4.00979 0
M  V30 17125 H 1649.7 1.39153 4.05382 0
M  V30 17126 H 1653.88 2.31231 4.39142 0
M  V30 17127 H 1649.14 3.6201 4.92706 0
M  V30 17128 H 1653.31 4.54286 5.27823 0
M  V30 17129 H 1650.94 5.20215 5.54329 0
M  V30 17130 N 1652.52 -1.50101 0.480349 0
M  V30 17131 C 1653.48 -2.27258 -0.297763 0
M  V30 17132 C 1654.48 -1.32415 -0.912296 0
M  V30 17133 O 1655.67 -1.5576 -0.780035 0
M  V30 17134 C 1652.8 -3.09684 -1.42508 0
M  V30 17135 H 1653.99 -2.97495 0.379011 0
M  V30 17136 H 1651.55 -1.54528 0.234681 0
M  V30 17137 H 1652.28 -2.43964 -2.13663 0
M  V30 17138 H 1652.07 -3.79393 -0.990125 0
M  V30 17139 H 1653.56 -3.68013 -1.97374 0
M  V30 17140 N 1653.99 -0.213323 -1.5615 0
M  V30 17141 C 1655.24 0.419767 -1.97693 0
M  V30 17142 C 1655.56 1.60878 -1.10197 0
M  V30 17143 O 1654.83 1.95097 -0.177185 0
M  V30 17144 H 1653.41 0.158075 -0.730083 0
M  V30 17145 H 1656.07 -0.304303 -1.9251 0
M  V30 17146 H 1655.17 0.751645 -3.02914 0
M  V30 17147 N 1655.47 1.57485 0.0601405 0
M  V30 17148 C 1656.42 2.04487 1.07023 0
M  V30 17149 C 1657.39 0.927738 1.37776 0
M  V30 17150 O 1658.57 1.19621 1.48645 0
M  V30 17151 C 1655.71 2.50338 2.37539 0
M  V30 17152 C 1654.83 3.75717 2.13215 0
M  V30 17153 C 1653.96 4.10304 3.37378 0
M  V30 17154 C 1653 5.2869 3.0847 0
M  V30 17155 N 1652.14 5.58858 4.24996 0
M  V30 17156 H 1656.98 2.90544 0.662444 0
M  V30 17157 H 1654.52 1.43676 0.315515 0
M  V30 17158 H 1656.47 2.74978 3.13756 0
M  V30 17159 H 1655.1 1.67242 2.76098 0
M  V30 17160 H 1654.16 3.58348 1.27636 0
M  V30 17161 H 1655.47 4.62068 1.87869 0
M  V30 17162 H 1654.62 4.35907 4.21983 0
M  V30 17163 H 1653.36 3.22544 3.6581 0
M  V30 17164 H 1652.37 5.02871 2.22262 0
M  V30 17165 H 1653.59 6.18077 2.81349 0
M  V30 17166 H 1651.54 4.74058 4.53437 0
M  V30 17167 H 1651.45 6.39652 4.02965 0
M  V30 17168 H 1652.72 5.89019 5.10565 0
M  V30 17169 N 1656.95 -0.331789 1.54068 0
M  V30 17170 C 1658.2 -1.06818 1.71093 0
M  V30 17171 C 1658.51 -1.89438 0.487111 0
M  V30 17172 O 1659.72 -2.66105 0.538544 0
M  V30 17173 C 1658.17 -1.94853 3.02589 0
M  V30 17174 C 1657.78 -1.17384 4.32348 0
M  V30 17175 C 1659.53 -2.68278 3.28979 0
M  V30 17176 C 1657.43 -2.04518 5.54911 0
M  V30 17177 H 1656.36 -0.402501 0.63758 0
M  V30 17178 H 1659.01 -0.326918 1.80564 0
M  V30 17179 H 1657.4 -2.72845 2.87004 0
M  V30 17180 H 1658.57 -0.442208 4.58673 0
M  V30 17181 H 1656.89 -0.556775 4.12661 0
M  V30 17182 H 1659.48 -3.33762 4.1774 0
M  V30 17183 H 1659.83 -3.35476 2.46498 0
M  V30 17184 H 1660.36 -1.97353 3.45394 0
M  V30 17185 H 1657.1 -1.41842 6.3997 0
M  V30 17186 H 1656.62 -2.75438 5.32817 0
M  V30 17187 H 1658.3 -2.63297 5.91002 0
M  V30 17188 N 1658.43 -1.46001 -0.593424 0
M  V30 17189 C 1659.84 -1.30719 -0.915678 0
M  V30 17190 C 1660.04 -0.270679 -1.99674 0
M  V30 17191 O 1659.1 0.330482 -2.50328 0
M  V30 17192 C 1660.41 -2.69034 -1.34318 0
M  V30 17193 C 1661.96 -2.77041 -1.45662 0
M  V30 17194 C 1662.44 -4.15913 -1.91783 0
M  V30 17195 N 1663.93 -4.18277 -1.98994 0
M  V30 17196 C 1664.66 -5.22612 -2.35932 0
M  V30 17197 N 1664.16 -6.37283 -2.71738 0
M  V30 17198 N 1665.95 -5.09975 -2.36394 0
M  V30 17199 H 1658.1 -2.12056 0.120882 0
M  V30 17200 H 1660.37 -0.947961 -0.00858574 0
M  V30 17201 H 1660.07 -3.4614 -0.622922 0
M  V30 17202 H 1659.95 -2.98434 -2.30688 0
M  V30 17203 H 1662.33 -2.0023 -2.16776 0
M  V30 17204 H 1662.41 -2.51338 -0.475706 0
M  V30 17205 H 1662.06 -4.93215 -1.2125 0
M  V30 17206 H 1661.99 -4.39016 -2.90813 0
M  V30 17207 H 1664.48 -3.35534 -1.73855 0
M  V30 17208 H 1664.79 -7.12679 -2.98846 0
M  V30 17209 H 1663.14 -6.40662 -2.69401 0
M  V30 17210 H 1666.33 -4.1943 -2.07836 0
M  V30 17211 H 1666.5 -5.91402 -2.64854 0
M  V30 17212 N 1659.91 0.83715 -1.33527 0
M  V30 17213 C 1661.13 1.62976 -1.28271 0
M  V30 17214 C 1661.56 1.87554 0.143201 0
M  V30 17215 O 1660.91 1.44088 1.10038 0
M  V30 17216 C 1660.96 2.95607 -2.06516 0
M  V30 17217 O 1660.07 3.87 -1.42494 0
M  V30 17218 H 1659.41 0.496212 -0.441214 0
M  V30 17219 H 1661.94 1.04137 -1.76115 0
M  V30 17220 H 1661.95 3.4529 -2.17344 0
M  V30 17221 H 1660.62 2.77041 -3.10195 0
M  V30 17222 H 1659.2 3.45492 -1.40321 0
M  V30 17223 N 1661.38 1.17024 1.05561 0
M  V30 17224 C 1662.61 0.981293 1.82717 0
M  V30 17225 C 1663.03 -0.465636 1.82246 0
M  V30 17226 O 1662.39 -1.33315 1.22869 0
M  V30 17227 C 1662.44 1.52239 3.26888 0
M  V30 17228 O 1661.54 0.73366 4.05822 0
M  V30 17229 H 1660.89 0.348677 0.565084 0
M  V30 17230 H 1663.42 1.55435 1.33046 0
M  V30 17231 H 1663.43 1.54306 3.77695 0
M  V30 17232 H 1662.1 2.57567 3.26545 0
M  V30 17233 H 1660.68 0.784101 3.64563 0
M  V30 17234 N 1662.86 -1.24221 0.969889 0
M  V30 17235 C 1664.14 -1.87715 0.549772 0
M  V30 17236 C 1664.52 -1.87333 -0.973114 0
M  V30 17237 O 1663.87 -1.3475 -1.84539 0
M  V30 17238 C 1664.08 -3.29724 1.14381 0
M  V30 17239 C 1665.43 -4.06393 1.23005 0
M  V30 17240 O 1666.45 -3.38904 1.09648 0
M  V30 17241 O 1665.31 -5.27149 1.4414 0
M  V30 17242 H 1662.4 -0.806356 0.183629 0
M  V30 17243 H 1664.95 -1.32177 1.0643 0
M  V30 17244 H 1663.72 -3.24513 2.18649 0
M  V30 17245 H 1663.34 -3.92839 0.613456 0
M  V30 17246 N 1664.34 -0.740267 -1.39132 0
M  V30 17247 C 1665.57 -0.30093 -2.047 0
M  V30 17248 C 1665.98 1.0661 -1.5582 0
M  V30 17249 O 1665.34 1.67465 -0.725388 0
M  V30 17250 C 1665.39 -0.299574 -3.60257 0
M  V30 17251 O 1665.11 -1.61265 -4.07339 0
M  V30 17252 C 1666.61 0.155279 -4.43028 0
M  V30 17253 H 1663.83 -0.130652 -0.658157 0
M  V30 17254 H 1666.38 -1.00539 -1.78079 0
M  V30 17255 H 1664.53 0.356041 -3.8576 0
M  V30 17256 H 1664.95 -1.52977 -5.01695 0
M  V30 17257 H 1666.42 0.105068 -5.519 0
M  V30 17258 H 1666.9 1.20123 -4.22454 0
M  V30 17259 H 1667.5 -0.470965 -4.22684 0
M  V30 17260 N 1665.82 1.49844 -0.488302 0
M  V30 17261 C 1667.23 1.86663 -0.037377 0
M  V30 17262 C 1667.58 1.40172 1.37281 0
M  V30 17263 O 1666.71 0.77409 2.02081 0
M  V30 17264 C 1667.3 3.38745 -0.0610523 0
M  V30 17265 C 1665.86 3.74911 0.334475 0
M  V30 17266 C 1665.01 2.73801 -0.439109 0
M  V30 17267 H 1667.96 1.42343 -0.70173 0
M  V30 17268 H 1667.98 3.7329 0.737203 0
M  V30 17269 H 1667.49 3.72551 -1.08753 0
M  V30 17270 H 1665.59 3.4671 1.36466 0
M  V30 17271 H 1665.7 4.79094 0.0238536 0
M  V30 17272 H 1664.07 2.54465 0.109433 0
M  V30 17273 H 1664.85 3.10452 -1.46542 0
M  V30 17274 N 1667.3 0.221601 1.56034 0
M  V30 17275 C 1668.52 -0.417979 2.03145 0
M  V30 17276 C 1668.95 -1.52556 1.10038 0
M  V30 17277 O 1668.3 -1.81084 0.0885729 0
M  V30 17278 C 1668.35 -0.926762 3.48487 0
M  V30 17279 O 1667.46 -2.03811 3.58518 0
M  V30 17280 H 1666.8 -0.0945778 0.65723 0
M  V30 17281 H 1669.33 0.340252 2.01751 0
M  V30 17282 H 1669.34 -1.23656 3.8881 0
M  V30 17283 H 1668.01 -0.116115 4.15738 0
M  V30 17284 H 1666.59 -1.73494 3.30082 0
M  V30 17285 N 1668.77 -1.57515 -0.0517878 0
M  V30 17286 C 1670.02 -1.87396 -0.746022 0
M  V30 17287 C 1670.34 -0.817053 -1.77718 0
M  V30 17288 O 1671.54 -1.00435 -2.5224 0
M  V30 17289 C 1670 -3.32481 -1.37783 0
M  V30 17290 C 1669.61 -4.46349 -0.384208 0
M  V30 17291 C 1671.35 -3.71539 -2.05327 0
M  V30 17292 C 1669.26 -5.82484 -1.02307 0
M  V30 17293 H 1668.19 -0.699127 -0.282379 0
M  V30 17294 H 1670.84 -1.835 0.000245524 0
M  V30 17295 H 1669.22 -3.31051 -2.17304 0
M  V30 17296 H 1670.39 -4.59209 0.382639 0
M  V30 17297 H 1668.71 -4.15976 0.187873 0
M  V30 17298 H 1671.31 -4.70553 -2.53936 0
M  V30 17299 H 1671.65 -3.02361 -2.86153 0
M  V30 17300 H 1672.18 -3.75046 -1.32611 0
M  V30 17301 H 1668.92 -6.55005 -0.254704 0
M  V30 17302 H 1668.44 -5.73388 -1.7603 0
M  V30 17303 H 1670.12 -6.28476 -1.5371 0
M  V30 17304 N 1670.25 0.323614 -1.54242 0
M  V30 17305 C 1671.5 1.06156 -1.72444 0
M  V30 17306 C 1671.83 1.88013 -0.498116 0
M  V30 17307 O 1671.08 1.88661 0.520133 0
M  V30 17308 C 1671.38 2.01452 -2.95215 0
M  V30 17309 C 1671.05 1.3575 -4.2998 0
M  V30 17310 C 1669.71 1.17563 -4.66618 0
M  V30 17311 C 1672.06 0.885938 -5.13615 0
M  V30 17312 C 1669.39 0.508674 -5.84491 0
M  V30 17313 C 1671.74 0.232807 -6.32171 0
M  V30 17314 C 1670.41 0.0387807 -6.67489 0
M  V30 17315 H 1669.68 0.388454 -0.631019 0
M  V30 17316 H 1672.32 0.338714 -1.88481 0
M  V30 17317 H 1670.63 2.80188 -2.73865 0
M  V30 17318 H 1672.33 2.5858 -3.06492 0
M  V30 17319 H 1668.92 1.50908 -4.01154 0
M  V30 17320 H 1673.1 1.01424 -4.85826 0
M  V30 17321 H 1668.36 0.347149 -6.10414 0
M  V30 17322 H 1672.53 -0.140594 -6.96258 0
M  V30 17323 H 1670.16 -0.480052 -7.58683 0
M  V30 17324 N 1671.73 1.46313 0.585673 0
M  V30 17325 C 1673.01 1.41946 1.34576 0
M  V30 17326 C 1673.39 0.101379 2.10856 0
M  V30 17327 O 1672.74 -0.917016 2.09292 0
M  V30 17328 C 1672.95 2.64724 2.27425 0
M  V30 17329 C 1674.29 3.10746 2.89347 0
M  V30 17330 O 1675.32 2.65252 2.37739 0
M  V30 17331 O 1674.18 3.8976 3.83079 0
M  V30 17332 H 1671.27 0.564346 0.604519 0
M  V30 17333 H 1673.82 1.58475 0.606937 0
M  V30 17334 H 1672.59 3.52217 1.70467 0
M  V30 17335 H 1672.21 2.50639 3.08652 0
M  V30 17336 N 1673.21 -0.830057 1.33969 0
M  V30 17337 C 1674.46 -1.58084 1.25269 0
M  V30 17338 C 1674.77 -1.94792 -0.177557 0
M  V30 17339 O 1675.98 -2.68733 -0.386657 0
M  V30 17340 C 1674.43 -2.85177 2.1955 0
M  V30 17341 C 1674.04 -2.55798 3.67792 0
M  V30 17342 C 1675.79 -3.632 2.19741 0
M  V30 17343 C 1673.69 -3.79041 4.53963 0
M  V30 17344 H 1672.62 -0.593289 0.465321 0
M  V30 17345 H 1675.27 -0.914476 1.5909 0
M  V30 17346 H 1673.66 -3.53401 1.78672 0
M  V30 17347 H 1674.83 -1.9573 4.17165 0
M  V30 17348 H 1673.14 -1.91064 3.69978 0
M  V30 17349 H 1675.74 -4.54695 2.81347 0
M  V30 17350 H 1676.08 -3.98786 1.1948 0
M  V30 17351 H 1676.62 -3.0191 2.59028 0
M  V30 17352 H 1673.36 -3.4858 5.55133 0
M  V30 17353 H 1672.88 -4.38417 4.09329 0
M  V30 17354 H 1674.56 -4.46527 4.68212 0
M  V30 17355 N 1674.69 -1.17582 -1.04939 0
M  V30 17356 C 1675.65 -0.897095 -2.10914 0
M  V30 17357 C 1676.65 0.113823 -1.60397 0
M  V30 17358 O 1677.84 -0.118635 -1.73796 0
M  V30 17359 C 1674.97 -0.344251 -3.39157 0
M  V30 17360 H 1676.17 -1.83674 -2.37074 0
M  V30 17361 H 1673.72 -0.986634 -1.21224 0
M  V30 17362 H 1674.45 0.602417 -3.18656 0
M  V30 17363 H 1674.24 -1.07287 -3.77137 0
M  V30 17364 H 1675.73 -0.167644 -4.17263 0
M  V30 17365 N 1676.17 1.23705 -0.976463 0
M  V30 17366 C 1677.58 1.44179 -0.684434 0
M  V30 17367 C 1677.78 1.86992 0.75075 0
M  V30 17368 O 1676.84 2.01349 1.52365 0
M  V30 17369 C 1678.15 2.49661 -1.676 0
M  V30 17370 C 1679.7 2.63479 -1.68961 0
M  V30 17371 C 1680.17 3.72167 -2.66938 0
M  V30 17372 N 1681.66 3.79605 -2.65433 0
M  V30 17373 C 1682.4 4.63251 -3.37914 0
M  V30 17374 N 1681.9 5.51018 -4.19941 0
M  V30 17375 N 1683.69 4.57412 -3.26697 0
M  V30 17376 H 1675.84 0.942155 -1.90361 0
M  V30 17377 H 1678.1 0.475629 -0.820049 0
M  V30 17378 H 1677.81 2.25111 -2.70218 0
M  V30 17379 H 1677.68 3.47978 -1.45571 0
M  V30 17380 H 1680.07 2.87382 -0.670497 0
M  V30 17381 H 1680.15 1.65491 -1.95055 0
M  V30 17382 H 1679.79 3.49013 -3.68988 0
M  V30 17383 H 1679.72 4.69688 -2.3812 0
M  V30 17384 H 1682.22 3.16882 -2.05899 0
M  V30 17385 H 1682.53 6.11825 -4.72113 0
M  V30 17386 H 1680.87 5.50655 -4.24033 0
M  V30 17387 H 1684.06 3.87863 -2.62069 0
M  V30 17388 H 1684.24 5.22373 -3.83446 0
M  V30 17389 N 1677.64 0.747635 1.38738 0
M  V30 17390 C 1679.05 0.369576 1.83006 0
M  V30 17391 C 1679.41 -1.10091 1.62402 0
M  V30 17392 O 1678.53 -1.85042 1.12198 0
M  V30 17393 C 1679.13 0.664018 3.32229 0
M  V30 17394 C 1677.68 0.339308 3.74868 0
M  V30 17395 C 1676.83 0.920231 2.61586 0
M  V30 17396 H 1679.78 0.944268 1.27551 0
M  V30 17397 H 1679.8 -0.0598575 3.80453 0
M  V30 17398 H 1679.32 1.73432 3.47193 0
M  V30 17399 H 1677.42 -0.724649 3.65485 0
M  V30 17400 H 1677.53 0.830699 4.71843 0
M  V30 17401 H 1675.89 0.346002 2.52339 0
M  V30 17402 H 1676.68 1.99544 2.79351 0
M  V30 17403 N 1679.12 -1.49583 0.496242 0
M  V30 17404 C 1680.05 -2.31885 -0.274139 0
M  V30 17405 C 1681.03 -1.39939 -0.96701 0
M  V30 17406 O 1682.22 -1.6885 -0.959333 0
M  V30 17407 C 1679.35 -3.20332 -1.34181 0
M  V30 17408 C 1678.3 -4.21033 -0.769091 0
M  V30 17409 C 1677.63 -4.98385 -1.93693 0
M  V30 17410 C 1678.93 -5.21764 0.236648 0
M  V30 17411 H 1680.62 -2.9654 0.412824 0
M  V30 17412 H 1678.17 -1.42605 0.199979 0
M  V30 17413 H 1680.12 -3.76718 -1.88843 0
M  V30 17414 H 1678.84 -2.53611 -2.05789 0
M  V30 17415 H 1677.5 -3.65785 -0.244252 0
M  V30 17416 H 1677.15 -4.28115 -2.64058 0
M  V30 17417 H 1676.85 -5.66519 -1.55981 0
M  V30 17418 H 1678.38 -5.57613 -2.48798 0
M  V30 17419 H 1679.79 -5.72871 -0.221672 0
M  V30 17420 H 1678.19 -5.97761 0.529346 0
M  V30 17421 H 1679.26 -4.70964 1.15415 0
M  V30 17422 N 1680.6 -0.229873 -1.55915 0
M  V30 17423 C 1681.55 0.690362 -2.17297 0
M  V30 17424 C 1682.53 1.15155 -1.12375 0
M  V30 17425 O 1683.73 1.10416 -1.38338 0
M  V30 17426 C 1680.85 1.89461 -2.86286 0
M  V30 17427 C 1679.94 1.45271 -3.98443 0
M  V30 17428 N 1680.33 0.723932 -5.00593 0
M  V30 17429 C 1678.63 1.73935 -4.10686 0
M  V30 17430 C 1679.33 0.497439 -5.79569 0
M  V30 17431 N 1678.31 1.05662 -5.33232 0
M  V30 17432 H 1682.11 0.12522 -2.93633 0
M  V30 17433 H 1679.62 -0.0314724 -1.6237 0
M  V30 17434 H 1681.62 2.5647 -3.28677 0
M  V30 17435 H 1680.28 2.46414 -2.11448 0
M  V30 17436 H 1681.29 0.375765 -5.16535 0
M  V30 17437 H 1677.97 2.32149 -3.47006 0
M  V30 17438 H 1679.36 -0.0831841 -6.71849 0
M  V30 17439 N 1682.08 1.5754 0.0434337 0
M  V30 17440 C 1683.32 1.88887 0.7382 0
M  V30 17441 C 1683.66 0.825827 1.75766 0
M  V30 17442 O 1682.93 -0.160797 1.93834 0
M  V30 17443 C 1683.21 3.30889 1.42072 0
M  V30 17444 C 1683.07 4.47874 0.415754 0
M  V30 17445 C 1684.39 3.71571 2.35846 0
M  V30 17446 H 1681.51 0.686975 0.266897 0
M  V30 17447 H 1684.15 1.9 0.00106957 0
M  V30 17448 H 1682.3 3.30071 2.04903 0
M  V30 17449 H 1683.97 4.60824 -0.209529 0
M  V30 17450 H 1682.21 4.32982 -0.266346 0
M  V30 17451 H 1682.88 5.44084 0.931509 0
M  V30 17452 H 1685.36 3.73663 1.83071 0
M  V30 17453 H 1684.24 4.71763 2.80589 0
M  V30 17454 H 1684.5 3.03041 3.21898 0
M  V30 17455 N 1683.56 -0.31543 1.54411 0
M  V30 17456 C 1684.78 -1.0761 1.77299 0
M  V30 17457 C 1685.21 -1.80655 0.523963 0
M  V30 17458 O 1684.56 -1.73536 -0.524874 0
M  V30 17459 C 1684.61 -2.04355 2.97105 0
M  V30 17460 O 1683.72 -3.12401 2.69219 0
M  V30 17461 H 1683.06 -0.30986 0.587267 0
M  V30 17462 H 1685.59 -0.357246 2.01457 0
M  V30 17463 H 1685.6 -2.47081 3.24677 0
M  V30 17464 H 1684.27 -1.50592 3.87679 0
M  V30 17465 H 1682.85 -2.74294 2.52621 0
M  V30 17466 N 1685.03 -1.46622 -0.577906 0
M  V30 17467 C 1685.96 -1.60413 -1.69676 0
M  V30 17468 C 1686.95 -0.454277 -1.63922 0
M  V30 17469 O 1688.13 -0.68111 -1.81864 0
M  V30 17470 C 1685.26 -1.59866 -3.08318 0
M  V30 17471 C 1684.21 -2.7387 -3.28906 0
M  V30 17472 C 1683.54 -2.58386 -4.68125 0
M  V30 17473 C 1684.84 -4.15652 -3.16276 0
M  V30 17474 H 1686.53 -2.54073 -1.5839 0
M  V30 17475 H 1684.08 -1.22275 -0.760572 0
M  V30 17476 H 1686.03 -1.68108 -3.86417 0
M  V30 17477 H 1684.76 -0.627541 -3.20514 0
M  V30 17478 H 1683.42 -2.65105 -2.53209 0
M  V30 17479 H 1683.06 -1.59347 -4.77093 0
M  V30 17480 H 1682.76 -3.34855 -4.82852 0
M  V30 17481 H 1684.29 -2.68525 -5.48385 0
M  V30 17482 H 1685.7 -4.25503 -3.84214 0
M  V30 17483 H 1684.1 -4.92746 -3.42523 0
M  V30 17484 H 1685.17 -4.35471 -2.13291 0
M  V30 17485 N 1686.51 0.822941 -1.34408 0
M  V30 17486 C 1687.46 1.93383 -1.25982 0
M  V30 17487 C 1688.43 1.6555 -0.13506 0
M  V30 17488 O 1689.61 1.88164 -0.316033 0
M  V30 17489 C 1686.75 3.29646 -1.02117 0
M  V30 17490 C 1685.87 3.69772 -2.23366 0
M  V30 17491 C 1685 4.94982 -1.92784 0
M  V30 17492 C 1684.04 5.2769 -3.10177 0
M  V30 17493 N 1683.18 6.44078 -2.79479 0
M  V30 17494 H 1688.02 1.99922 -2.20987 0
M  V30 17495 H 1685.56 0.978105 -1.0987 0
M  V30 17496 H 1687.51 4.08173 -0.863175 0
M  V30 17497 H 1686.14 3.2262 -0.107803 0
M  V30 17498 H 1685.2 2.86637 -2.50086 0
M  V30 17499 H 1686.51 3.89914 -3.11076 0
M  V30 17500 H 1685.66 5.81297 -1.73721 0
M  V30 17501 H 1684.4 4.76843 -1.02335 0
M  V30 17502 H 1683.41 4.39873 -3.29837 0
M  V30 17503 H 1684.63 5.47769 -4.01405 0
M  V30 17504 H 1682.58 6.27394 -1.91605 0
M  V30 17505 H 1682.49 6.64392 -3.60721 0
M  V30 17506 H 1683.76 7.33462 -2.63919 0
M  V30 17507 N 1687.99 1.18137 1.04314 0
M  V30 17508 C 1689.24 0.976648 1.77734 0
M  V30 17509 C 1689.57 -0.492756 1.87844 0
M  V30 17510 O 1688.84 -1.36586 1.38472 0
M  V30 17511 C 1689.13 1.62911 3.21142 0
M  V30 17512 C 1688.98 3.1712 3.1899 0
M  V30 17513 C 1690.3 1.34029 4.19195 0
M  V30 17514 H 1687.42 0.356217 0.645197 0
M  V30 17515 H 1690.06 1.45767 1.21868 0
M  V30 17516 H 1688.21 1.22009 3.68844 0
M  V30 17517 H 1689.88 3.67139 2.79296 0
M  V30 17518 H 1688.13 3.4941 2.57089 0
M  V30 17519 H 1688.8 3.57907 4.20245 0
M  V30 17520 H 1691.27 1.69463 3.80028 0
M  V30 17521 H 1690.15 1.82253 5.1776 0
M  V30 17522 H 1690.41 0.262712 4.41319 0
M  V30 17523 N 1689.47 -1.23186 0.98301 0
M  V30 17524 C 1690.88 -1.43814 0.69207 0
M  V30 17525 C 1691.08 -1.87387 -0.740823 0
M  V30 17526 O 1690.14 -2.02154 -1.51295 0
M  V30 17527 C 1691.45 -2.48769 1.68922 0
M  V30 17528 C 1693 -2.62579 1.70356 0
M  V30 17529 C 1693.48 -3.70746 2.68908 0
M  V30 17530 N 1694.97 -3.78192 2.67442 0
M  V30 17531 C 1695.7 -4.61453 3.40366 0
M  V30 17532 N 1695.2 -5.48784 4.22857 0
M  V30 17533 N 1696.99 -4.55673 3.29118 0
M  V30 17534 H 1689.14 -0.932046 1.90858 0
M  V30 17535 H 1691.41 -0.471274 0.82256 0
M  V30 17536 H 1691.11 -2.23675 2.71408 0
M  V30 17537 H 1690.99 -3.47201 1.47415 0
M  V30 17538 H 1693.37 -2.87022 0.685728 0
M  V30 17539 H 1693.45 -1.64454 1.9593 0
M  V30 17540 H 1693.1 -3.47051 3.70834 0
M  V30 17541 H 1693.03 -4.68418 2.40607 0
M  V30 17542 H 1695.52 -3.15785 2.07577 0
M  V30 17543 H 1695.83 -6.09312 4.75351 0
M  V30 17544 H 1694.18 -5.48398 4.26948 0
M  V30 17545 H 1697.37 -3.86468 2.64122 0
M  V30 17546 H 1697.54 -5.20332 3.8621 0
M  V30 17547 N 1690.95 -0.754982 -1.38339 0
M  V30 17548 C 1692.19 -0.312224 -2.00382 0
M  V30 17549 C 1692.53 1.10362 -1.59793 0
M  V30 17550 O 1691.8 1.75611 -0.83613 0
M  V30 17551 C 1692.08 -0.436701 -3.57442 0
M  V30 17552 C 1691.94 -1.89376 -4.07991 0
M  V30 17553 C 1693.26 0.169083 -4.39775 0
M  V30 17554 H 1690.37 -0.114922 -0.727985 0
M  V30 17555 H 1693.02 -0.954887 -1.64262 0
M  V30 17556 H 1691.17 0.11043 -3.88343 0
M  V30 17557 H 1692.84 -2.4993 -3.87728 0
M  V30 17558 H 1691.08 -2.40834 -3.60807 0
M  V30 17559 H 1691.75 -1.932 -5.17086 0
M  V30 17560 H 1694.23 -0.297554 -4.15035 0
M  V30 17561 H 1693.1 0.0517531 -5.48876 0
M  V30 17562 H 1693.37 1.25754 -4.23838 0
M  V30 17563 N 1692.42 1.49318 -0.504168 0
M  V30 17564 C 1693.65 2.06869 0.0359415 0
M  V30 17565 C 1694.07 1.3641 1.30529 0
M  V30 17566 O 1693.42 0.443416 1.77031 0
M  V30 17567 C 1693.48 3.60333 0.290233 0
M  V30 17568 O 1693.2 4.28141 -0.928801 0
M  V30 17569 C 1694.7 4.34606 0.873628 0
M  V30 17570 H 1691.92 0.670643 -0.0218893 0
M  V30 17571 H 1694.46 1.92058 -0.702432 0
M  V30 17572 H 1692.62 3.74836 0.978594 0
M  V30 17573 H 1693.03 5.19894 -0.693595 0
M  V30 17574 H 1694.5 5.42846 1.00112 0
M  V30 17575 H 1694.98 3.97297 1.87221 0
M  V30 17576 H 1695.59 4.24717 0.222638 0
M  V30 17577 N 1693.9 0.238138 1.5579 0
M  V30 17578 C 1695.18 -0.438905 1.90612 0
M  V30 17579 C 1695.56 -1.76522 1.15773 0
M  V30 17580 O 1694.91 -2.26871 0.272363 0
M  V30 17581 C 1695.12 -0.615595 3.43528 0
M  V30 17582 C 1696.47 -0.915478 4.14613 0
M  V30 17583 O 1697.49 -0.70178 3.49218 0
M  V30 17584 O 1696.35 -1.32194 5.30271 0
M  V30 17585 H 1693.44 -0.234355 0.7931 0
M  V30 17586 H 1695.99 0.281555 1.67348 0
M  V30 17587 H 1694.76 0.319274 3.89995 0
M  V30 17588 H 1694.38 -1.38692 3.72626 0
M  V30 17589 N 1695.38 -1.57561 -0.0350783 0
M  V30 17590 C 1696.33 -2.02627 -1.04528 0
M  V30 17591 C 1697.31 -0.914525 -1.32383 0
M  V30 17592 O 1698.51 -1.17843 -1.32068 0
M  V30 17593 C 1695.64 -2.50425 -2.34824 0
M  V30 17594 C 1694.72 -3.68408 -2.10086 0
M  V30 17595 N 1695.11 -4.8134 -1.55387 0
M  V30 17596 C 1693.41 -3.75666 -2.40398 0
M  V30 17597 C 1694.11 -5.62998 -1.46314 0
M  V30 17598 N 1693.09 -5.07933 -1.93662 0
M  V30 17599 H 1696.89 -2.87366 -0.616284 0
M  V30 17600 H 1694.4 -1.60594 -0.241499 0
M  V30 17601 H 1696.4 -2.80968 -3.07998 0
M  V30 17602 H 1695.06 -1.67089 -2.78408 0
M  V30 17603 H 1696.07 -5.029 -1.2374 0
M  V30 17604 H 1692.75 -3.03119 -2.87098 0
M  V30 17605 H 1694.14 -6.63714 -1.04564 0
M  V30 17606 N 1696.86 0.307236 -1.54576 0
M  V30 17607 C 1698.27 0.88064 -1.64626 0
M  V30 17608 C 1698.62 1.88308 -0.550865 0
M  V30 17609 O 1697.75 2.14116 0.313553 0
M  V30 17610 C 1698.34 1.60405 -2.98422 0
M  V30 17611 C 1696.9 2.12595 -3.10613 0
M  V30 17612 C 1696.05 0.956593 -2.60278 0
M  V30 17613 H 1699 0.0843939 -1.58475 0
M  V30 17614 H 1699.02 2.46925 -2.89496 0
M  V30 17615 H 1698.53 0.874209 -3.78126 0
M  V30 17616 H 1696.63 2.88644 -2.35617 0
M  V30 17617 H 1696.74 2.36475 -4.16673 0
M  V30 17618 H 1695.11 1.3404 -2.16576 0
M  V30 17619 H 1695.89 0.24081 -3.42454 0
M  V30 17620 N 1698.34 1.46926 0.570122 0
M  V30 17621 C 1699.58 1.53113 1.32982 0
M  V30 17622 C 1699.92 0.187401 1.93294 0
M  V30 17623 O 1699.19 -0.802585 1.77169 0
M  V30 17624 C 1699.47 2.63936 2.44969 0
M  V30 17625 C 1699.33 4.07882 1.8961 0
M  V30 17626 C 1700.65 2.70753 3.46959 0
M  V30 17627 H 1697.76 0.557398 0.482158 0
M  V30 17628 H 1700.41 1.78923 0.639259 0
M  V30 17629 H 1698.56 2.42059 3.03874 0
M  V30 17630 H 1700.23 4.41084 1.35066 0
M  V30 17631 H 1698.47 4.16768 1.20361 0
M  V30 17632 H 1699.14 4.81175 2.70508 0
M  V30 17633 H 1701.62 2.90452 2.97954 0
M  V30 17634 H 1700.49 3.50093 4.2276 0
M  V30 17635 H 1700.76 1.77299 4.04991 0
M  V30 17636 N 1699.82 -0.815801 1.34842 0
M  V30 17637 C 1701.23 -1.38911 1.24742 0
M  V30 17638 C 1701.58 -1.95807 -0.124101 0
M  V30 17639 O 1700.7 -1.906 -1.02472 0
M  V30 17640 C 1701.3 -2.52532 2.25861 0
M  V30 17641 C 1699.86 -3.05751 2.1953 0
M  V30 17642 C 1699 -1.78661 2.12075 0
M  V30 17643 H 1701.95 -0.619601 1.46105 0
M  V30 17644 H 1701.98 -3.30826 1.87974 0
M  V30 17645 H 1701.49 -2.11092 3.25671 0
M  V30 17646 H 1699.59 -3.51678 1.23099 0
M  V30 17647 H 1699.7 -3.64358 3.11095 0
M  V30 17648 H 1698.07 -1.99844 1.57907 0
M  V30 17649 H 1698.85 -1.39385 3.1373 0
M  V30 17650 N 1701.29 -1.18689 -1.03686 0
M  V30 17651 C 1702.54 -0.982656 -1.76602 0
M  V30 17652 C 1702.86 0.488553 -1.88781 0
M  V30 17653 O 1702.13 1.35419 -1.41558 0
M  V30 17654 H 1700.71 -0.360595 -0.654202 0
M  V30 17655 H 1703.37 -1.49439 -1.25115 0
M  V30 17656 H 1702.47 -1.42392 -2.77725 0
M  V30 17657 N 1702.77 1.22662 -0.989529 0
M  V30 17658 C 1704.18 1.73116 -0.699124 0
M  V30 17659 C 1704.53 1.79847 0.784197 0
M  V30 17660 O 1703.66 1.44248 1.61311 0
M  V30 17661 C 1704.25 3.14403 -1.2624 0
M  V30 17662 C 1702.81 3.62275 -1.02144 0
M  V30 17663 C 1701.96 2.40257 -1.38463 0
M  V30 17664 H 1704.91 1.08057 -1.1623 0
M  V30 17665 H 1704.93 3.75091 -0.639307 0
M  V30 17666 H 1704.44 3.09472 -2.34198 0
M  V30 17667 H 1702.54 3.72577 0.0416622 0
M  V30 17668 H 1702.66 4.48587 -1.68245 0
M  V30 17669 H 1701.02 2.41705 -0.803179 0
M  V30 17670 H 1701.8 2.3799 -2.47418 0
M  V30 17671 N 1704.25 0.762308 1.37937 0
M  V30 17672 C 1705.48 0.333458 2.04195 0
M  V30 17673 C 1705.89 -1.04118 1.57496 0
M  V30 17674 O 1705.25 -1.66289 0.751938 0
M  V30 17675 C 1705.3 0.35685 3.59734 0
M  V30 17676 O 1705.02 1.67725 4.04722 0
M  V30 17677 C 1706.52 -0.0847776 4.43219 0
M  V30 17678 H 1703.74 0.141107 0.655995 0
M  V30 17679 H 1706.29 1.03359 1.76457 0
M  V30 17680 H 1704.44 -0.294625 3.86278 0
M  V30 17681 H 1704.86 1.60939 4.99198 0
M  V30 17682 H 1706.33 -0.017252 5.51997 0
M  V30 17683 H 1706.81 -1.13387 4.24311 0
M  V30 17684 H 1707.41 0.538151 4.21882 0
M  V30 17685 N 1705.73 -1.49049 0.51208 0
M  V30 17686 C 1706.69 -2.27838 -0.249491 0
M  V30 17687 C 1707.69 -1.34321 -0.884004 0
M  V30 17688 O 1708.88 -1.57379 -0.74682 0
M  V30 17689 C 1706.01 -3.12637 -1.35908 0
M  V30 17690 H 1707.21 -2.96625 0.442029 0
M  V30 17691 H 1704.76 -1.53996 0.267406 0
M  V30 17692 H 1705.49 -2.48441 -2.0844 0
M  V30 17693 H 1705.28 -3.81408 -0.909427 0
M  V30 17694 H 1706.77 -3.72117 -1.89523 0
M  V30 17695 N 1707.21 -0.246397 -1.55662 0
M  V30 17696 C 1708.45 0.378487 -1.98931 0
M  V30 17697 C 1708.78 1.57984 -1.13452 0
M  V30 17698 O 1708.04 1.94822 -0.185214 0
M  V30 17699 C 1708.33 0.832225 -3.47576 0
M  V30 17700 C 1708 -0.261318 -4.50142 0
M  V30 17701 C 1706.66 -0.56166 -4.77911 0
M  V30 17702 C 1709.01 -0.999618 -5.11524 0
M  V30 17703 C 1706.34 -1.60438 -5.64337 0
M  V30 17704 C 1708.69 -2.03186 -5.99081 0
M  V30 17705 C 1707.36 -2.33885 -6.25183 0
M  V30 17706 H 1706.63 0.138498 -0.727942 0
M  V30 17707 H 1709.28 -0.354116 -1.88197 0
M  V30 17708 H 1707.58 1.64402 -3.55639 0
M  V30 17709 H 1709.28 1.32598 -3.78442 0
M  V30 17710 H 1705.87 -0.0170894 -4.28597 0
M  V30 17711 H 1710.05 -0.780833 -4.90119 0
M  V30 17712 H 1705.31 -1.84758 -5.82816 0
M  V30 17713 H 1709.48 -2.60886 -6.45687 0
M  V30 17714 H 1707.11 -3.14822 -6.91947 0
M  V30 17715 N 1708.68 1.57577 0.026722 0
M  V30 17716 C 1709.91 1.9364 0.728771 0
M  V30 17717 C 1710.33 0.846352 1.68767 0
M  V30 17718 O 1709.68 -0.177038 1.81639 0
M  V30 17719 C 1709.73 3.29644 1.48381 0
M  V30 17720 O 1709.46 4.34462 0.563393 0
M  V30 17721 C 1710.96 3.80004 2.2828 0
M  V30 17722 H 1708.18 0.639025 0.204666 0
M  V30 17723 H 1710.72 2.04493 -0.016449 0
M  V30 17724 H 1708.88 3.20181 2.18089 0
M  V30 17725 H 1709.29 5.12982 1.09315 0
M  V30 17726 H 1710.76 4.77671 2.76649 0
M  V30 17727 H 1711.24 3.11319 3.09802 0
M  V30 17728 H 1711.85 3.92558 1.63642 0
M  V30 17729 N 1710.16 -0.299034 1.54737 0
M  V30 17730 C 1711.44 -1.05371 1.64792 0
M  V30 17731 C 1711.82 -2.05155 0.497475 0
M  V30 17732 O 1711.17 -2.22837 -0.505573 0
M  V30 17733 C 1711.38 -1.73381 3.02886 0
M  V30 17734 C 1712.72 -2.25506 3.59767 0
M  V30 17735 O 1713.75 -1.8341 3.05351 0
M  V30 17736 O 1712.61 -3.02642 4.55049 0
M  V30 17737 H 1709.7 -0.487156 0.668287 0
M  V30 17738 H 1712.25 -0.296965 1.67081 0
M  V30 17739 H 1711.02 -1.00936 3.78058 0
M  V30 17740 H 1710.64 -2.55806 3.04383 0
M  V30 17741 N 1711.64 -1.47227 -0.562322 0
M  V30 17742 C 1712.6 -1.58887 -1.6519 0
M  V30 17743 C 1713.6 -0.464359 -1.53949 0
M  V30 17744 O 1714.79 -0.729279 -1.582 0
M  V30 17745 C 1711.92 -1.52853 -3.04711 0
M  V30 17746 H 1713.12 -2.5601 -1.56202 0
M  V30 17747 H 1710.67 -1.35341 -0.781832 0
M  V30 17748 H 1711.41 -0.570867 -3.19236 0
M  V30 17749 H 1711.19 -2.3446 -3.14279 0
M  V30 17750 H 1712.68 -1.6414 -3.83989 0
M  V30 17751 N 1713.12 0.808639 -1.35273 0
M  V30 17752 C 1714.34 1.60219 -1.31699 0
M  V30 17753 C 1714.77 1.87816 0.103386 0
M  V30 17754 O 1714.13 1.46389 1.06957 0
M  V30 17755 C 1714.17 2.9116 -2.12739 0
M  V30 17756 O 1713.28 3.83891 -1.5067 0
M  V30 17757 H 1712.62 0.486742 -0.45164 0
M  V30 17758 H 1715.15 1.00378 -1.78284 0
M  V30 17759 H 1715.16 3.40602 -2.2462 0
M  V30 17760 H 1713.83 2.70399 -3.16002 0
M  V30 17761 H 1712.41 3.42437 -1.47618 0
M  V30 17762 N 1714.6 1.19237 1.03055 0
M  V30 17763 C 1715.82 1.01983 1.80594 0
M  V30 17764 C 1716.25 -0.426875 1.83192 0
M  V30 17765 O 1715.6 -1.30678 1.2567 0
M  V30 17766 C 1715.65 1.59139 3.23585 0
M  V30 17767 O 1714.76 0.819576 4.04174 0
M  V30 17768 H 1714.1 0.360585 0.557561 0
M  V30 17769 H 1716.63 1.58222 1.29719 0
M  V30 17770 H 1716.64 1.62283 3.74337 0
M  V30 17771 H 1715.31 2.64436 3.21009 0
M  V30 17772 H 1713.89 0.861253 3.62818 0
M  V30 17773 N 1716.07 -1.22136 0.99602 0
M  V30 17774 C 1717.3 -1.95519 0.69189 0
M  V30 17775 C 1717.72 -1.7304 -0.73748 0
M  V30 17776 O 1717.08 -1.01157 -1.50456 0
M  V30 17777 C 1717.13 -3.46244 1.00735 0
M  V30 17778 O 1716.23 -4.12259 0.107713 0
M  V30 17779 H 1715.58 -0.611553 0.258648 0
M  V30 17780 H 1718.11 -1.55145 1.33384 0
M  V30 17781 H 1718.12 -3.96774 0.950482 0
M  V30 17782 H 1716.79 -3.6193 2.04889 0
M  V30 17783 H 1715.37 -3.72248 0.220336 0
M  V30 17784 N 1717.55 -0.769612 -1.37531 0
M  V30 17785 C 1718.78 -0.344282 -2.04015 0
M  V30 17786 C 1719.2 1.03281 -1.58046 0
M  V30 17787 O 1718.55 1.65888 -0.760746 0
M  V30 17788 C 1718.6 -0.375922 -3.5954 0
M  V30 17789 O 1718.32 -1.69869 -4.03827 0
M  V30 17790 C 1719.83 0.0612715 -4.43258 0
M  V30 17791 H 1717.05 -0.144584 -0.655238 0
M  V30 17792 H 1719.59 -1.04294 -1.75906 0
M  V30 17793 H 1717.74 0.274136 -3.86429 0
M  V30 17794 H 1718.16 -1.63584 -4.98338 0
M  V30 17795 H 1719.63 -0.012022 -5.51999 0
M  V30 17796 H 1720.11 1.11136 -4.24906 0
M  V30 17797 H 1720.72 -0.560517 -4.2159 0
M  V30 17798 N 1719.03 1.48775 -0.519977 0
M  V30 17799 C 1719.98 2.26421 0.267886 0
M  V30 17800 C 1720.96 1.32087 0.918795 0
M  V30 17801 O 1722.16 1.56689 0.823256 0
M  V30 17802 C 1719.29 3.16896 1.3203 0
M  V30 17803 C 1718.37 4.18699 0.674688 0
M  V30 17804 N 1718.76 5.05259 -0.233769 0
M  V30 17805 C 1717.06 4.3613 0.933071 0
M  V30 17806 C 1717.76 5.78543 -0.605233 0
M  V30 17807 N 1716.74 5.43591 0.0313426 0
M  V30 17808 H 1720.54 2.9072 -0.43116 0
M  V30 17809 H 1718.05 1.58858 -0.337322 0
M  V30 17810 H 1720.05 3.71171 1.89836 0
M  V30 17811 H 1718.71 2.5415 2.02083 0
M  V30 17812 H 1719.72 5.14345 -0.605766 0
M  V30 17813 H 1716.4 3.84581 1.62492 0
M  V30 17814 H 1717.79 6.58207 -1.34957 0
M  V30 17815 N 1720.51 0.254649 1.55529 0
M  V30 17816 C 1721.46 -0.64162 2.21702 0
M  V30 17817 C 1722.43 -1.16544 1.1835 0
M  V30 17818 O 1723.61 -1.2185 1.46824 0
M  V30 17819 C 1720.75 -1.82935 2.92624 0
M  V30 17820 C 1719.86 -1.34132 4.10649 0
M  V30 17821 C 1719 -2.48922 4.69267 0
M  V30 17822 C 1718.04 -1.9702 5.79525 0
M  V30 17823 N 1717.17 -3.05206 6.32293 0
M  V30 17824 H 1722.01 -0.0706476 2.97916 0
M  V30 17825 H 1719.55 -0.0231077 1.47082 0
M  V30 17826 H 1721.51 -2.52719 3.31947 0
M  V30 17827 H 1720.14 -2.37267 2.1887 0
M  V30 17828 H 1719.19 -0.53726 3.76587 0
M  V30 17829 H 1720.5 -0.921003 4.90223 0
M  V30 17830 H 1719.66 -3.26735 5.11203 0
M  V30 17831 H 1718.4 -2.94259 3.88925 0
M  V30 17832 H 1717.4 -1.17679 5.37058 0
M  V30 17833 H 1718.63 -1.52643 6.61723 0
M  V30 17834 H 1716.57 -3.49963 5.54853 0
M  V30 17835 H 1716.49 -2.67528 7.07082 0
M  V30 17836 H 1717.76 -3.83055 6.78888 0
M  V30 17837 N 1721.99 -1.57589 -0.0183649 0
M  V30 17838 C 1723.23 -1.89382 -0.705612 0
M  V30 17839 C 1723.56 -0.853698 -1.7532 0
M  V30 17840 O 1722.83 0.111322 -1.95583 0
M  V30 17841 H 1721.41 -0.698943 -0.263605 0
M  V30 17842 H 1724.07 -1.94891 0.0182168 0
M  V30 17843 H 1723.16 -2.88587 -1.18845 0
M  V30 17844 N 1723.46 0.290824 -1.54893 0
M  V30 17845 C 1724.71 1.02627 -1.74916 0
M  V30 17846 C 1725.04 1.86572 -0.538921 0
M  V30 17847 O 1724.32 1.88888 0.463844 0
M  V30 17848 C 1724.6 1.92376 -3.04407 0
M  V30 17849 C 1724.45 1.11542 -4.3575 0
M  V30 17850 C 1725.77 2.91383 -3.29824 0
M  V30 17851 H 1722.89 0.371685 -0.636411 0
M  V30 17852 H 1725.53 0.300072 -1.87615 0
M  V30 17853 H 1723.68 2.54295 -2.93711 0
M  V30 17854 H 1725.36 0.518312 -4.58379 0
M  V30 17855 H 1723.6 0.418386 -4.31778 0
M  V30 17856 H 1724.27 1.77616 -5.22644 0
M  V30 17857 H 1726.75 2.39595 -3.40196 0
M  V30 17858 H 1725.62 3.51338 -4.21726 0
M  V30 17859 H 1725.88 3.65579 -2.48606 0
M  V30 17860 N 1724.94 1.47523 0.554506 0
M  V30 17861 C 1726.19 1.54515 1.3135 0
M  V30 17862 C 1726.52 0.207892 1.93084 0
M  V30 17863 O 1725.8 -0.783749 1.7801 0
M  V30 17864 C 1726.08 2.66519 2.42156 0
M  V30 17865 C 1725.93 4.0987 1.85274 0
M  V30 17866 C 1727.25 2.74418 3.44068 0
M  V30 17867 H 1724.37 0.562481 0.476219 0
M  V30 17868 H 1727.01 1.79591 0.620246 0
M  V30 17869 H 1725.16 2.45268 3.0129 0
M  V30 17870 H 1726.83 4.42492 1.3038 0
M  V30 17871 H 1725.08 4.18021 1.15934 0
M  V30 17872 H 1725.75 4.84017 2.65389 0
M  V30 17873 H 1728.22 2.93596 2.94857 0
M  V30 17874 H 1727.1 3.54557 4.19023 0
M  V30 17875 H 1727.36 1.81584 4.03088 0
M  V30 17876 N 1726.42 -0.801453 1.357 0
M  V30 17877 C 1727.67 -1.5611 1.29451 0
M  V30 17878 C 1728 -1.93768 -0.129412 0
M  V30 17879 O 1727.27 -1.6176 -1.08 0
M  V30 17880 C 1727.56 -2.84628 2.20588 0
M  V30 17881 C 1727.41 -2.53413 3.71621 0
M  V30 17882 C 1728.73 -3.86369 2.10729 0
M  V30 17883 H 1725.85 -0.56638 0.471575 0
M  V30 17884 H 1728.49 -0.921701 1.66147 0
M  V30 17885 H 1726.64 -3.39192 1.89424 0
M  V30 17886 H 1728.31 -2.04993 4.1325 0
M  V30 17887 H 1726.56 -1.86531 3.91649 0
M  V30 17888 H 1727.23 -3.45152 4.30783 0
M  V30 17889 H 1729.7 -3.41219 2.38136 0
M  V30 17890 H 1728.58 -4.74062 2.76688 0
M  V30 17891 H 1728.84 -4.28431 1.09083 0
M  V30 17892 N 1727.9 -1.19782 -1.02421 0
M  V30 17893 C 1729.14 -1.01483 -1.76275 0
M  V30 17894 C 1729.5 0.449171 -1.87083 0
M  V30 17895 O 1728.79 1.32915 -1.38 0
M  V30 17896 C 1728.99 -1.62297 -3.18425 0
M  V30 17897 C 1728.82 -3.14459 -3.21474 0
M  V30 17898 C 1727.59 -3.83389 -3.29152 0
M  V30 17899 C 1729.78 -4.11771 -3.08138 0
M  V30 17900 N 1727.77 -5.22906 -3.21625 0
M  V30 17901 C 1729.14 -5.37916 -3.08296 0
M  V30 17902 C 1731.19 -4.0307 -2.92299 0
M  V30 17903 C 1729.89 -6.56365 -2.9424 0
M  V30 17904 C 1731.92 -5.21134 -2.79594 0
M  V30 17905 C 1731.28 -6.4618 -2.80411 0
M  V30 17906 H 1727.38 -0.425521 -0.656092 0
M  V30 17907 H 1729.97 -1.5183 -1.21884 0
M  V30 17908 H 1728.14 -1.14546 -3.71125 0
M  V30 17909 H 1729.87 -1.37389 -3.80666 0
M  V30 17910 H 1726.62 -3.34205 -3.35565 0
M  V30 17911 H 1727.05 -5.95923 -3.21256 0
M  V30 17912 H 1731.69 -3.07209 -2.90487 0
M  V30 17913 H 1729.41 -7.52408 -2.94802 0
M  V30 17914 H 1732.99 -5.16207 -2.68368 0
M  V30 17915 H 1731.87 -7.36001 -2.70688 0
M  V30 17916 N 1729.38 1.21606 -1.00248 0
M  V30 17917 C 1730.79 1.42695 -0.714862 0
M  V30 17918 C 1730.99 1.88542 0.710917 0
M  V30 17919 O 1730.05 2.04535 1.48059 0
M  V30 17920 C 1731.36 2.4605 -1.72858 0
M  V30 17921 C 1732.91 2.59836 -1.74511 0
M  V30 17922 C 1733.39 3.66421 -2.74772 0
M  V30 17923 N 1734.88 3.73889 -2.73425 0
M  V30 17924 C 1735.61 4.5598 -3.47664 0
M  V30 17925 N 1735.11 5.41987 -4.31535 0
M  V30 17926 N 1736.9 4.50379 -3.36326 0
M  V30 17927 H 1729.05 0.901565 -1.92316 0
M  V30 17928 H 1731.31 0.458128 -0.829954 0
M  V30 17929 H 1731.02 2.19329 -2.74932 0
M  V30 17930 H 1730.89 3.44812 -1.5292 0
M  V30 17931 H 1733.28 2.85895 -0.731304 0
M  V30 17932 H 1733.36 1.61317 -1.98521 0
M  V30 17933 H 1733.01 3.41108 -3.76308 0
M  V30 17934 H 1732.94 4.64531 -2.48029 0
M  V30 17935 H 1735.43 3.12443 -2.12575 0
M  V30 17936 H 1735.74 6.01673 -4.84984 0
M  V30 17937 H 1734.09 5.41537 -4.35618 0
M  V30 17938 H 1737.28 3.82217 -2.70237 0
M  V30 17939 H 1737.45 5.14122 -3.9444 0
M  V30 17940 N 1730.86 0.776895 1.37121 0
M  V30 17941 C 1731.77 0.167552 2.34001 0
M  V30 17942 C 1732.78 -0.673609 1.60432 0
M  V30 17943 O 1733.96 -0.592327 1.92493 0
M  V30 17944 C 1731.02 -0.697343 3.39615 0
M  V30 17945 C 1730.08 0.160869 4.28998 0
M  V30 17946 C 1729.32 -0.662841 5.29568 0
M  V30 17947 O 1729.54 -1.89962 5.37839 0
M  V30 17948 O 1728.47 -0.0693304 6.0186 0
M  V30 17949 H 1732.3 0.968247 2.87852 0
M  V30 17950 H 1729.88 0.538137 1.39372 0
M  V30 17951 H 1731.77 -1.19094 4.04221 0
M  V30 17952 H 1730.44 -1.47614 2.88083 0
M  V30 17953 H 1729.35 0.700941 3.67475 0
M  V30 17954 H 1730.68 0.902875 4.83848 0
M  V30 17955 N 1732.33 -1.48497 0.527859 0
M  V30 17956 C 1733.58 -2.02099 -0.00699772 0
M  V30 17957 C 1733.9 -1.40742 -1.34969 0
M  V30 17958 O 1733.17 -0.572059 -1.87361 0
M  V30 17959 H 1731.75 -0.746979 -0.00557445 0
M  V30 17960 H 1734.41 -1.82231 0.691209 0
M  V30 17961 H 1733.51 -3.11881 -0.116893 0
M  V30 17962 N 1733.81 -0.262893 -1.55392 0
M  V30 17963 C 1735.22 0.237224 -1.85187 0
M  V30 17964 C 1735.57 1.56383 -1.18486 0
M  V30 17965 O 1734.7 2.1126 -0.468849 0
M  V30 17966 C 1735.29 0.437206 -3.35967 0
M  V30 17967 C 1733.85 0.881568 -3.65931 0
M  V30 17968 C 1733 -0.0321489 -2.77281 0
M  V30 17969 H 1735.95 -0.485025 -1.51107 0
M  V30 17970 H 1735.97 1.27755 -3.58412 0
M  V30 17971 H 1735.48 -0.528474 -3.84485 0
M  V30 17972 H 1733.58 1.85915 -3.22903 0
M  V30 17973 H 1733.7 0.727355 -4.73547 0
M  V30 17974 H 1732.06 0.48204 -2.50097 0
M  V30 17975 H 1732.84 -0.99349 -3.2861 0
M  V30 17976 N 1735.29 1.57597 0.0100073 0
M  V30 17977 C 1736.71 1.55348 0.365949 0
M  V30 17978 C 1736.91 0.991487 1.75419 0
M  V30 17979 O 1735.96 0.620894 2.44747 0
M  V30 17980 C 1737.27 2.99656 0.250343 0
M  V30 17981 C 1738.82 3.11297 0.326023 0
M  V30 17982 C 1739.3 4.57373 0.239653 0
M  V30 17983 N 1740.79 4.62241 0.297863 0
M  V30 17984 C 1741.52 5.72836 0.254219 0
M  V30 17985 N 1741.02 6.92611 0.161753 0
M  V30 17986 N 1742.81 5.6127 0.30535 0
M  V30 17987 H 1734.96 1.92471 -0.898253 0
M  V30 17988 H 1737.23 0.883623 -0.343386 0
M  V30 17989 H 1736.93 3.44574 -0.704407 0
M  V30 17990 H 1736.81 3.62682 1.03643 0
M  V30 17991 H 1739.19 2.66316 1.27121 0
M  V30 17992 H 1739.27 2.51068 -0.489756 0
M  V30 17993 H 1738.92 5.03026 -0.70195 0
M  V30 17994 H 1738.85 5.15536 1.07379 0
M  V30 17995 H 1741.34 3.76074 0.371065 0
M  V30 17996 H 1741.65 7.72684 0.134073 0
M  V30 17997 H 1740 6.94883 0.127524 0
M  V30 17998 H 1743.19 4.6659 0.375713 0
M  V30 17999 H 1743.36 6.47446 0.267871 0
M  V30 18000 N 1736.77 -0.282606 1.55045 0
M  V30 18001 C 1738.01 -1.01294 1.76384 0
M  V30 18002 C 1738.37 -1.84283 0.552942 0
M  V30 18003 O 1737.66 -1.86131 -0.454502 0
M  V30 18004 C 1737.86 -1.93554 3.00452 0
M  V30 18005 C 1737.68 -1.19643 4.33492 0
M  V30 18006 C 1736.45 -0.916036 4.96927 0
M  V30 18007 C 1738.65 -0.591642 5.10886 0
M  V30 18008 N 1736.63 -0.149123 6.13719 0
M  V30 18009 C 1738.01 0.0415798 6.19986 0
M  V30 18010 C 1740.06 -0.498525 4.95398 0
M  V30 18011 C 1738.76 0.758931 7.15285 0
M  V30 18012 C 1740.79 0.205213 5.91044 0
M  V30 18013 C 1740.15 0.827211 6.99526 0
M  V30 18014 H 1736.25 -0.352967 0.69781 0
M  V30 18015 H 1738.83 -0.289596 1.92534 0
M  V30 18016 H 1737.01 -2.63122 2.85694 0
M  V30 18017 H 1738.74 -2.59876 3.10236 0
M  V30 18018 H 1735.49 -1.21888 4.57647 0
M  V30 18019 H 1735.92 0.221383 6.76638 0
M  V30 18020 H 1740.56 -0.965097 4.11638 0
M  V30 18021 H 1738.28 1.23722 7.98573 0
M  V30 18022 H 1741.86 0.277451 5.81138 0
M  V30 18023 H 1740.74 1.36309 7.72263 0
M  V30 18024 N 1738.25 -1.47815 -0.546675 0
M  V30 18025 C 1739.16 -1.63744 -1.68003 0
M  V30 18026 C 1740.17 -0.520118 -1.66044 0
M  V30 18027 O 1741.35 -0.789033 -1.853 0
M  V30 18028 C 1738.41 -1.65778 -3.04497 0
M  V30 18029 C 1737.47 -2.89015 -3.17441 0
M  V30 18030 C 1736.71 -2.90943 -4.47424 0
M  V30 18031 O 1736.93 -2.01769 -5.33522 0
M  V30 18032 O 1735.86 -3.82927 -4.64382 0
M  V30 18033 H 1739.69 -2.59665 -1.57505 0
M  V30 18034 H 1737.27 -1.31022 -0.717883 0
M  V30 18035 H 1739.16 -1.69734 -3.85705 0
M  V30 18036 H 1737.83 -0.730268 -3.15355 0
M  V30 18037 H 1736.74 -2.90599 -2.35591 0
M  V30 18038 H 1738.07 -3.81095 -3.11492 0
M  V30 18039 N 1739.72 0.794246 -1.36123 0
M  V30 18040 C 1740.97 1.54708 -1.29416 0
M  V30 18041 C 1741.29 1.95195 0.125849 0
M  V30 18042 O 1742.49 2.69663 0.315271 0
M  V30 18043 C 1740.95 2.79256 -2.27034 0
M  V30 18044 C 1740.56 2.45957 -3.74445 0
M  V30 18045 C 1742.3 3.57246 -2.29294 0
M  V30 18046 C 1740.21 3.66871 -4.63853 0
M  V30 18047 H 1739.14 0.580743 -0.480888 0
M  V30 18048 H 1741.79 0.871975 -1.61458 0
M  V30 18049 H 1740.17 3.4854 -1.87979 0
M  V30 18050 H 1741.34 1.846 -4.22208 0
M  V30 18051 H 1739.66 1.81187 -3.74913 0
M  V30 18052 H 1742.26 4.47076 -2.93304 0
M  V30 18053 H 1742.6 3.95478 -1.30011 0
M  V30 18054 H 1743.13 2.94936 -2.66941 0
M  V30 18055 H 1739.87 3.33739 -5.6418 0
M  V30 18056 H 1739.39 4.27411 -4.20809 0
M  V30 18057 H 1741.07 4.33957 -4.79886 0
M  V30 18058 N 1741.2 1.20323 1.01785 0
M  V30 18059 C 1742.15 0.950946 2.10299 0
M  V30 18060 C 1743.12 -0.118376 1.65678 0
M  V30 18061 O 1744.3 0.0260849 1.90782 0
M  V30 18062 C 1741.44 0.507765 3.41344 0
M  V30 18063 C 1740.56 1.6451 3.9945 0
M  V30 18064 C 1739.69 1.15235 5.1855 0
M  V30 18065 C 1738.73 2.26285 5.68737 0
M  V30 18066 N 1737.87 1.78237 6.79099 0
M  V30 18067 H 1742.71 1.87999 2.31215 0
M  V30 18068 H 1740.24 0.937108 1.13387 0
M  V30 18069 H 1742.2 0.232143 4.16554 0
M  V30 18070 H 1740.83 -0.384278 3.20505 0
M  V30 18071 H 1739.88 2.03567 3.21348 0
M  V30 18072 H 1741.2 2.48135 4.32702 0
M  V30 18073 H 1740.35 0.832619 6.0096 0
M  V30 18074 H 1739.09 0.285978 4.86861 0
M  V30 18075 H 1738.09 2.59076 4.84933 0
M  V30 18076 H 1739.32 3.13397 6.02461 0
M  V30 18077 H 1737.27 0.939248 6.49241 0
M  V30 18078 H 1737.18 2.55443 7.11537 0
M  V30 18079 H 1738.45 1.4926 7.65076 0
M  V30 18080 N 1742.68 -1.21073 1.00892 0
M  V30 18081 C 1743.59 -2.27265 0.582065 0
M  V30 18082 C 1744.61 -1.69872 -0.376785 0
M  V30 18083 O 1745.78 -1.99969 -0.239644 0
M  V30 18084 C 1742.85 -3.46606 -0.0806764 0
M  V30 18085 C 1741.91 -4.19257 0.923147 0
M  V30 18086 C 1741.14 -5.32901 0.291938 0
M  V30 18087 O 1741.36 -5.6309 -0.910282 0
M  V30 18088 O 1740.3 -5.93453 1.00483 0
M  V30 18089 H 1744.12 -2.65977 1.46594 0
M  V30 18090 H 1741.71 -1.27544 0.777999 0
M  V30 18091 H 1743.59 -4.18978 -0.451177 0
M  V30 18092 H 1742.27 -3.09785 -0.93887 0
M  V30 18093 H 1741.17 -3.4909 1.34488 0
M  V30 18094 H 1742.51 -4.59999 1.75106 0
M  V30 18095 N 1744.16 -0.784156 -1.36707 0
M  V30 18096 C 1745.41 -0.350748 -1.98627 0
M  V30 18097 C 1745.72 1.08208 -1.62943 0
M  V30 18098 O 1746.93 1.6175 -2.18058 0
M  V30 18099 C 1745.38 -0.576173 -3.55258 0
M  V30 18100 C 1744.99 -2.02008 -3.99871 0
M  V30 18101 C 1746.73 -0.207008 -4.23995 0
M  V30 18102 C 1744.64 -2.19244 -5.4926 0
M  V30 18103 H 1743.57 -0.127403 -0.743158 0
M  V30 18104 H 1746.22 -0.965044 -1.56074 0
M  V30 18105 H 1744.6 0.10776 -3.95853 0
M  V30 18106 H 1745.78 -2.73998 -3.70489 0
M  V30 18107 H 1744.09 -2.34699 -3.43955 0
M  V30 18108 H 1746.69 -0.314139 -5.33776 0
M  V30 18109 H 1747.03 0.844253 -4.07649 0
M  V30 18110 H 1747.57 -0.843971 -3.88744 0
M  V30 18111 H 1744.31 -3.22734 -5.70546 0
M  V30 18112 H 1743.83 -1.51752 -5.80286 0
M  V30 18113 H 1745.5 -1.99703 -6.15408 0
M  V30 18114 N 1745.64 1.48215 -0.535727 0
M  V30 18115 C 1746.6 2.28206 0.213212 0
M  V30 18116 C 1747.6 1.3571 0.862522 0
M  V30 18117 O 1748.79 1.58547 0.721688 0
M  V30 18118 C 1745.92 3.1476 1.30917 0
M  V30 18119 H 1747.11 2.95884 -0.489163 0
M  V30 18120 H 1744.67 1.53551 -0.291872 0
M  V30 18121 H 1745.4 2.51726 2.04462 0
M  V30 18122 H 1745.19 3.82806 0.848633 0
M  V30 18123 H 1746.68 3.75085 1.83579 0
M  V30 18124 N 1747.11 0.27113 1.5525 0
M  V30 18125 C 1748.39 -0.398374 1.915 0
M  V30 18126 C 1748.77 -1.74026 1.19491 0
M  V30 18127 O 1748.12 -2.26242 0.320425 0
M  V30 18128 C 1748.33 -0.542589 3.44756 0
M  V30 18129 C 1749.68 -0.827326 4.16462 0
M  V30 18130 O 1750.7 -0.627548 3.50628 0
M  V30 18131 O 1749.56 -1.20917 5.32955 0
M  V30 18132 H 1746.65 -0.217479 0.797892 0
M  V30 18133 H 1749.2 0.316988 1.66713 0
M  V30 18134 H 1747.97 0.401926 3.8923 0
M  V30 18135 H 1747.6 -1.30757 3.75484 0
M  V30 18136 N 1748.59 -1.576 -0.00164943 0
M  V30 18137 C 1749.52 -2.11354 -0.992554 0
M  V30 18138 C 1750.5 -1.0223 -1.35952 0
M  V30 18139 O 1751.69 -1.29904 -1.44356 0
M  V30 18140 C 1748.82 -2.61549 -2.28494 0
M  V30 18141 C 1747.77 -3.75185 -2.05962 0
M  V30 18142 C 1747.1 -4.11688 -3.412 0
M  V30 18143 C 1748.4 -5.02526 -1.42355 0
M  V30 18144 H 1750.09 -2.94398 -0.544986 0
M  V30 18145 H 1747.64 -1.4162 -0.260702 0
M  V30 18146 H 1749.59 -2.97782 -2.98168 0
M  V30 18147 H 1748.32 -1.75625 -2.75361 0
M  V30 18148 H 1746.97 -3.39343 -1.38714 0
M  V30 18149 H 1746.62 -3.22789 -3.85767 0
M  V30 18150 H 1746.32 -4.88246 -3.2694 0
M  V30 18151 H 1747.85 -4.50478 -4.12192 0
M  V30 18152 H 1749.26 -5.3654 -2.01984 0
M  V30 18153 H 1747.66 -5.83878 -1.38589 0
M  V30 18154 H 1748.73 -4.83308 -0.392565 0
M  V30 18155 N 1750.07 0.274379 -1.55193 0
M  V30 18156 C 1751.32 1.00418 -1.75387 0
M  V30 18157 C 1751.64 1.86868 -0.557244 0
M  V30 18158 O 1750.91 1.9117 0.427883 0
M  V30 18159 H 1749.49 0.373753 -0.646775 0
M  V30 18160 H 1752.15 0.298942 -1.92594 0
M  V30 18161 H 1751.25 1.64191 -2.6542 0
M  V30 18162 N 1751.55 1.48103 0.538828 0
M  V30 18163 C 1752.51 1.61495 1.62641 0
M  V30 18164 C 1753.51 0.488792 1.53191 0
M  V30 18165 O 1754.7 0.754355 1.57019 0
M  V30 18166 C 1751.83 1.57681 3.02241 0
M  V30 18167 H 1753.03 2.58462 1.5211 0
M  V30 18168 H 1750.58 1.36567 0.760201 0
M  V30 18169 H 1751.31 0.621583 3.18287 0
M  V30 18170 H 1751.1 2.3943 3.10509 0
M  V30 18171 H 1752.59 1.70228 3.81329 0
M  V30 18172 N 1753.03 -0.787016 1.36542 0
M  V30 18173 C 1754.25 -1.58103 1.34231 0
M  V30 18174 C 1754.68 -1.87956 -0.0734932 0
M  V30 18175 O 1754.03 -1.48073 -1.04615 0
M  V30 18176 C 1754.08 -2.87739 2.17345 0
M  V30 18177 O 1753.19 -3.81445 1.56759 0
M  V30 18178 H 1752.53 -0.479495 0.459326 0
M  V30 18179 H 1755.06 -0.975294 1.79859 0
M  V30 18180 H 1755.07 -3.36986 2.3001 0
M  V30 18181 H 1753.74 -2.65338 3.20264 0
M  V30 18182 H 1752.32 -3.40046 1.53047 0
M  V30 18183 N 1754.5 -1.20861 -1.01145 0
M  V30 18184 C 1755.75 -1.02343 -1.75082 0
M  V30 18185 C 1756.08 0.44278 -1.89085 0
M  V30 18186 O 1755.36 1.32867 -1.42045 0
M  V30 18187 C 1755.64 -1.71368 -3.1671 0
M  V30 18188 C 1755.49 -3.25466 -3.1047 0
M  V30 18189 C 1756.81 -1.45097 -4.15494 0
M  V30 18190 H 1753.93 -0.373198 -0.635525 0
M  V30 18191 H 1756.57 -1.48947 -1.17961 0
M  V30 18192 H 1754.72 -1.31746 -3.6548 0
M  V30 18193 H 1756.4 -3.74415 -2.69464 0
M  V30 18194 H 1754.64 -3.56104 -2.47735 0
M  V30 18195 H 1755.31 -3.68924 -4.10608 0
M  V30 18196 H 1757.79 -1.7948 -3.75401 0
M  V30 18197 H 1756.66 -1.95917 -5.12745 0
M  V30 18198 H 1756.92 -0.379628 -4.40467 0
M  V30 18199 N 1755.98 1.20536 -1.01532 0
M  V30 18200 C 1756.91 2.22683 -0.542658 0
M  V30 18201 C 1757.93 1.5844 0.374267 0
M  V30 18202 O 1759.12 1.77661 0.172818 0
M  V30 18203 C 1756.22 3.38117 0.230168 0
M  V30 18204 C 1755.39 4.3195 -0.688356 0
M  V30 18205 C 1754.45 5.26187 0.0366686 0
M  V30 18206 O 1753.47 5.66182 -0.585418 0
M  V30 18207 N 1754.68 5.65481 1.31193 0
M  V30 18208 H 1757.44 2.63864 -1.42111 0
M  V30 18209 H 1755 1.35065 -0.892703 0
M  V30 18210 H 1756.99 3.98164 0.724408 0
M  V30 18211 H 1755.56 2.95837 1.00991 0
M  V30 18212 H 1754.78 3.69889 -1.36292 0
M  V30 18213 H 1756.07 4.91564 -1.3131 0
M  V30 18214 H 1755.47 5.34998 1.83829 0
M  V30 18215 H 1754.03 6.27842 1.75092 0
M  V30 18216 N 1757.46 0.791395 1.36289 0
M  V30 18217 C 1758.39 0.149076 2.28715 0
M  V30 18218 C 1759.41 -0.642827 1.49571 0
M  V30 18219 O 1760.59 -0.477685 1.7199 0
M  V30 18220 C 1757.69 -0.811868 3.29032 0
M  V30 18221 C 1756.87 -0.0695975 4.37345 0
M  V30 18222 C 1755.93 -0.946776 5.17612 0
M  V30 18223 O 1754.95 -0.403295 5.67769 0
M  V30 18224 N 1756.15 -2.27079 5.34243 0
M  V30 18225 H 1758.92 0.943005 2.84478 0
M  V30 18226 H 1756.48 0.645479 1.48476 0
M  V30 18227 H 1758.47 -1.40257 3.79618 0
M  V30 18228 H 1757.04 -1.50667 2.73895 0
M  V30 18229 H 1756.26 0.702196 3.87895 0
M  V30 18230 H 1757.55 0.442542 5.06872 0
M  V30 18231 H 1756.95 -2.73646 4.9511 0
M  V30 18232 H 1755.51 -2.81109 5.88065 0
M  V30 18233 N 1758.94 -1.47929 0.54358 0
M  V30 18234 C 1759.87 -2.3264 -0.200228 0
M  V30 18235 C 1760.85 -1.42945 -0.922 0
M  V30 18236 O 1762.04 -1.71817 -0.905129 0
M  V30 18237 C 1759.17 -3.24439 -1.23922 0
M  V30 18238 C 1758.12 -4.23267 -0.634753 0
M  V30 18239 C 1757.45 -5.04295 -1.77739 0
M  V30 18240 C 1758.75 -5.20747 0.402524 0
M  V30 18241 H 1760.44 -2.95077 0.506957 0
M  V30 18242 H 1757.99 -1.41896 0.245246 0
M  V30 18243 H 1759.94 -3.82535 -1.76763 0
M  V30 18244 H 1758.66 -2.60029 -1.97616 0
M  V30 18245 H 1757.32 -3.66377 -0.127756 0
M  V30 18246 H 1756.97 -4.36299 -2.50304 0
M  V30 18247 H 1756.67 -5.71195 -1.37879 0
M  V30 18248 H 1758.19 -5.65246 -2.30932 0
M  V30 18249 H 1759.61 -5.73287 -0.039305 0
M  V30 18250 H 1758 -5.95774 0.719251 0
M  V30 18251 H 1759.07 -4.67054 1.3034 0
M  V30 18252 N 1760.42 -0.27936 -1.55104 0
M  V30 18253 C 1761.33 0.616249 -2.26361 0
M  V30 18254 C 1762.34 1.16656 -1.29102 0
M  V30 18255 O 1763.52 1.19596 -1.62046 0
M  V30 18256 C 1760.58 1.78191 -2.97403 0
M  V30 18257 C 1759.65 1.26785 -4.10151 0
M  V30 18258 C 1758.88 2.37795 -4.77796 0
M  V30 18259 O 1759.1 3.57242 -4.44673 0
M  V30 18260 O 1758.04 2.05711 -5.65656 0
M  V30 18261 H 1761.86 0.0388715 -3.03675 0
M  V30 18262 H 1759.45 -0.0466058 -1.49327 0
M  V30 18263 H 1761.33 2.4615 -3.42036 0
M  V30 18264 H 1760 2.3463 -2.23003 0
M  V30 18265 H 1758.91 0.554608 -3.69966 0
M  V30 18266 H 1760.24 0.749157 -4.86465 0
M  V30 18267 N 1761.9 1.57599 -0.0067085 0
M  V30 18268 C 1762.86 2.07783 0.967417 0
M  V30 18269 C 1763.86 0.988498 1.26828 0
M  V30 18270 O 1765.05 1.25091 1.21235 0
M  V30 18271 C 1762.18 2.52491 2.29044 0
M  V30 18272 H 1763.37 2.95122 0.533201 0
M  V30 18273 H 1760.93 1.54432 0.2409 0
M  V30 18274 H 1761.66 1.68415 2.77141 0
M  V30 18275 H 1761.45 3.32054 2.08525 0
M  V30 18276 H 1762.94 2.9162 2.98911 0
M  V30 18277 N 1763.37 -0.266145 1.55336 0
M  V30 18278 C 1764.79 -0.613693 1.47329 0
M  V30 18279 C 1764.99 -1.89207 0.693038 0
M  V30 18280 O 1764.05 -2.51586 0.214642 0
M  V30 18281 C 1765.36 -0.734287 2.91597 0
M  V30 18282 C 1766.91 -0.82789 3.01853 0
M  V30 18283 C 1767.38 -0.980205 4.47388 0
M  V30 18284 N 1768.87 -1.04556 4.51245 0
M  V30 18285 C 1769.61 -1.18233 5.61078 0
M  V30 18286 N 1769.1 -1.28587 6.80762 0
M  V30 18287 N 1770.9 -1.21398 5.48834 0
M  V30 18288 H 1763.05 0.573316 2.04516 0
M  V30 18289 H 1765.31 0.195128 0.927701 0
M  V30 18290 H 1765.02 0.134714 3.51442 0
M  V30 18291 H 1764.89 -1.6124 3.41001 0
M  V30 18292 H 1767.28 -1.68735 2.421 0
M  V30 18293 H 1767.36 0.0749719 2.5569 0
M  V30 18294 H 1767 -0.125373 5.07745 0
M  V30 18295 H 1766.93 -1.89782 4.91213 0
M  V30 18296 H 1769.42 -0.977667 3.65034 0
M  V30 18297 H 1769.74 -1.38876 7.60219 0
M  V30 18298 H 1768.08 -1.25579 6.8356 0
M  V30 18299 H 1771.27 -1.12944 4.5427 0
M  V30 18300 H 1771.45 -1.31713 6.34473 0
M  V30 18301 N 1764.85 -1.48386 -0.530967 0
M  V30 18302 C 1765.81 -1.62355 -1.61782 0
M  V30 18303 C 1766.81 -0.496909 -1.5293 0
M  V30 18304 O 1768 -0.762672 -1.56617 0
M  V30 18305 C 1765.14 -1.59282 -3.014 0
M  V30 18306 H 1766.33 -2.59265 -1.50737 0
M  V30 18307 H 1763.88 -1.36969 -0.752948 0
M  V30 18308 H 1764.62 -0.638453 -3.17953 0
M  V30 18309 H 1764.4 -2.41073 -3.09235 0
M  V30 18310 H 1765.89 -1.72248 -3.80421 0
M  V30 18311 N 1766.33 0.779763 -1.36958 0
M  V30 18312 C 1767.58 1.54031 -1.31918 0
M  V30 18313 C 1767.91 1.9395 0.0985685 0
M  V30 18314 O 1767.18 1.63458 1.05413 0
M  V30 18315 C 1767.47 2.81083 -2.25088 0
M  V30 18316 C 1767.32 2.47469 -3.75605 0
M  V30 18317 C 1768.64 3.82968 -2.1685 0
M  V30 18318 H 1765.76 0.558806 -0.480526 0
M  V30 18319 H 1768.4 0.895152 -1.67592 0
M  V30 18320 H 1766.55 3.36135 -1.94796 0
M  V30 18321 H 1768.22 1.98393 -4.16459 0
M  V30 18322 H 1766.46 1.80276 -3.94567 0
M  V30 18323 H 1767.14 3.38255 -4.3622 0
M  V30 18324 H 1769.61 3.37388 -2.43534 0
M  V30 18325 H 1768.49 4.69601 -2.84194 0
M  V30 18326 H 1768.75 4.26642 -1.15885 0
M  V30 18327 N 1767.81 1.21396 1.00503 0
M  V30 18328 C 1768.77 0.974756 2.07439 0
M  V30 18329 C 1769.77 -0.0542142 1.60709 0
M  V30 18330 O 1770.96 0.183056 1.73236 0
M  V30 18331 C 1768.09 0.46989 3.37646 0
M  V30 18332 H 1769.29 1.92346 2.30094 0
M  V30 18333 H 1766.84 1.03095 1.17479 0
M  V30 18334 H 1767.57 -0.483735 3.20672 0
M  V30 18335 H 1767.36 1.2121 3.72895 0
M  V30 18336 H 1768.85 0.322393 4.16354 0
M  V30 18337 N 1769.29 -1.19996 1.0217 0
M  V30 18338 C 1770.22 -2.21695 0.540962 0
M  V30 18339 C 1771.2 -1.57232 -0.414343 0
M  V30 18340 O 1772.38 -1.85533 -0.33314 0
M  V30 18341 C 1769.51 -3.38035 -0.212109 0
M  V30 18342 C 1768.55 -4.20824 0.693529 0
M  V30 18343 S 1769.39 -4.89756 2.16562 0
M  V30 18344 C 1770.54 -6.09513 1.42286 0
M  V30 18345 H 1770.78 -2.62131 1.40267 0
M  V30 18346 H 1768.31 -1.30128 0.831026 0
M  V30 18347 H 1770.27 -4.05473 -0.640484 0
M  V30 18348 H 1768.93 -2.96049 -1.04945 0
M  V30 18349 H 1768.12 -5.03874 0.112557 0
M  V30 18350 H 1767.72 -3.58667 1.05991 0
M  V30 18351 H 1770.01 -6.73816 0.705585 0
M  V30 18352 H 1770.96 -6.72079 2.22969 0
M  V30 18353 H 1771.37 -5.56895 0.923499 0
M  V30 18354 N 1770.76 -0.798611 -1.35867 0
M  V30 18355 C 1771.73 -0.209177 -2.28243 0
M  V30 18356 C 1772.73 0.598842 -1.49233 0
M  V30 18357 O 1773.92 0.418491 -1.69098 0
M  V30 18358 C 1771.05 0.709336 -3.33438 0
M  V30 18359 H 1772.24 -1.02382 -2.81883 0
M  V30 18360 H 1769.79 -0.568687 -1.45587 0
M  V30 18361 H 1770.53 1.54797 -2.84971 0
M  V30 18362 H 1770.31 0.131756 -3.91879 0
M  V30 18363 H 1771.8 1.11632 -4.02403 0
M  V30 18364 N 1772.24 1.47639 -0.551417 0
M  V30 18365 C 1773.17 2.32743 0.187887 0
M  V30 18366 C 1774.15 1.43432 0.914407 0
M  V30 18367 O 1775.34 1.72295 0.896005 0
M  V30 18368 C 1772.47 3.25092 1.22199 0
M  V30 18369 C 1771.42 4.23598 0.612298 0
M  V30 18370 C 1770.75 5.0523 1.75062 0
M  V30 18371 C 1772.05 5.20526 -0.430135 0
M  V30 18372 H 1773.74 2.94804 -0.522598 0
M  V30 18373 H 1771.29 1.41764 -0.252768 0
M  V30 18374 H 1773.24 3.83467 1.74731 0
M  V30 18375 H 1771.96 2.61074 1.96235 0
M  V30 18376 H 1770.62 3.6644 0.108324 0
M  V30 18377 H 1770.27 4.3762 2.47987 0
M  V30 18378 H 1769.97 5.71918 1.34848 0
M  V30 18379 H 1771.5 5.66463 2.27931 0
M  V30 18380 H 1772.91 5.73299 0.00890168 0
M  V30 18381 H 1771.31 5.95384 -0.750836 0
M  V30 18382 H 1772.38 4.66356 -1.32815 0
M  V30 18383 N 1773.72 0.287581 1.54954 0
M  V30 18384 C 1774.65 -0.587855 2.25979 0
M  V30 18385 C 1775.63 -1.14884 1.25442 0
M  V30 18386 O 1776.82 -1.18067 1.54188 0
M  V30 18387 C 1773.95 -1.76618 2.99037 0
M  V30 18388 C 1772.9 -1.33617 4.06609 0
M  V30 18389 C 1772.23 -2.59859 4.67309 0
M  V30 18390 C 1773.53 -0.477219 5.20115 0
M  V30 18391 H 1775.22 0.00450183 2.994 0
M  V30 18392 H 1772.77 0.00360521 1.44 0
M  V30 18393 H 1774.72 -2.38461 3.4744 0
M  V30 18394 H 1773.44 -2.38457 2.23172 0
M  V30 18395 H 1772.1 -0.74088 3.59036 0
M  V30 18396 H 1771.75 -3.19983 3.88098 0
M  V30 18397 H 1771.45 -2.31793 5.3995 0
M  V30 18398 H 1772.97 -3.22528 5.18467 0
M  V30 18399 H 1774.39 -1.00096 5.64494 0
M  V30 18400 H 1772.79 -0.290913 5.99394 0
M  V30 18401 H 1773.86 0.500993 4.82305 0
M  V30 18402 N 1775.2 -1.57593 0.0150662 0
M  V30 18403 C 1776.13 -2.12395 -0.970081 0
M  V30 18404 C 1777.11 -1.03666 -1.34861 0
M  V30 18405 O 1778.29 -1.31427 -1.4297 0
M  V30 18406 C 1775.42 -2.63958 -2.25707 0
M  V30 18407 C 1774.38 -3.77348 -2.01971 0
M  V30 18408 C 1773.7 -4.15284 -3.36814 0
M  V30 18409 C 1775 -5.04008 -1.37017 0
M  V30 18410 H 1776.7 -2.9496 -0.513731 0
M  V30 18411 H 1774.24 -1.41889 -0.245666 0
M  V30 18412 H 1776.2 -3.00927 -2.94993 0
M  V30 18413 H 1774.92 -1.78535 -2.73483 0
M  V30 18414 H 1773.58 -3.40795 -1.35107 0
M  V30 18415 H 1773.23 -3.26863 -3.82321 0
M  V30 18416 H 1772.93 -4.91686 -3.21744 0
M  V30 18417 H 1774.45 -4.54824 -4.07391 0
M  V30 18418 H 1775.87 -5.38652 -1.96282 0
M  V30 18419 H 1774.26 -5.85315 -1.32388 0
M  V30 18420 H 1775.33 -4.83698 -0.341281 0
M  V30 18421 N 1776.68 0.257904 -1.55475 0
M  V30 18422 C 1777.92 0.984747 -1.77973 0
M  V30 18423 C 1778.28 1.8338 -0.58219 0
M  V30 18424 O 1777.57 1.86831 0.424833 0
M  V30 18425 C 1777.76 1.8875 -3.03494 0
M  V30 18426 C 1777.59 1.12731 -4.35341 0
M  V30 18427 C 1776.36 0.836863 -4.98322 0
M  V30 18428 C 1778.56 0.51029 -5.11762 0
M  V30 18429 N 1776.54 0.0514671 -6.13878 0
M  V30 18430 C 1777.91 -0.140209 -6.19841 0
M  V30 18431 C 1779.97 0.419648 -4.96128 0
M  V30 18432 C 1778.67 -0.872631 -7.13987 0
M  V30 18433 C 1780.7 -0.299217 -5.90643 0
M  V30 18434 C 1780.06 -0.938395 -6.98121 0
M  V30 18435 H 1776.16 0.341821 -0.703337 0
M  V30 18436 H 1778.74 0.258929 -1.92971 0
M  V30 18437 H 1776.91 2.58544 -2.89844 0
M  V30 18438 H 1778.65 2.54908 -3.14331 0
M  V30 18439 H 1775.4 1.14592 -4.59528 0
M  V30 18440 H 1775.83 -0.329003 -6.762 0
M  V30 18441 H 1780.47 0.899487 -4.13121 0
M  V30 18442 H 1778.19 -1.36411 -7.96503 0
M  V30 18443 H 1781.77 -0.36987 -5.80623 0
M  V30 18444 H 1780.65 -1.48578 -7.69996 0
M  V30 18445 N 1778.15 1.48666 0.52309 0
M  V30 18446 C 1779.57 1.50492 1.10495 0
M  V30 18447 C 1779.92 0.278579 1.94212 0
M  V30 18448 O 1779.04 -0.613679 2.07516 0
M  V30 18449 C 1779.64 2.72692 2.01058 0
M  V30 18450 C 1778.2 2.77368 2.54448 0
M  V30 18451 C 1777.34 2.44104 1.31562 0
M  V30 18452 H 1780.29 1.55682 0.308017 0
M  V30 18453 H 1780.31 2.51601 2.85442 0
M  V30 18454 H 1779.83 3.61931 1.401 0
M  V30 18455 H 1777.93 1.92356 3.19108 0
M  V30 18456 H 1778.04 3.78976 2.93111 0
M  V30 18457 H 1776.4 1.95407 1.63366 0
M  V30 18458 H 1777.19 3.35591 0.723455 0
M  V30 18459 N 1779.63 -0.772489 1.37369 0
M  V30 18460 C 1780.86 -1.56158 1.35729 0
M  V30 18461 C 1781.28 -1.88712 -0.0575274 0
M  V30 18462 O 1780.63 -1.51395 -1.01911 0
M  V30 18463 C 1780.68 -2.87231 2.19501 0
M  V30 18464 O 1780.4 -2.56072 3.5547 0
M  V30 18465 C 1781.91 -3.81464 2.25831 0
M  V30 18466 H 1779.13 -0.483803 0.464947 0
M  V30 18467 H 1781.67 -0.957502 1.80699 0
M  V30 18468 H 1779.82 -3.44063 1.78042 0
M  V30 18469 H 1780.24 -3.40002 3.99373 0
M  V30 18470 H 1781.71 -4.70442 2.8877 0
M  V30 18471 H 1782.19 -4.20542 1.26653 0
M  V30 18472 H 1782.8 -3.30561 2.67599 0
M  V30 18473 N 1781.11 -1.21927 -0.998575 0
M  V30 18474 C 1782.34 -1.06655 -1.77291 0
M  V30 18475 C 1782.75 0.38326 -1.84869 0
M  V30 18476 O 1782.11 1.26575 -1.31473 0
M  V30 18477 C 1782.16 -1.66478 -3.20885 0
M  V30 18478 O 1781.88 -3.05788 -3.13728 0
M  V30 18479 C 1783.38 -1.56404 -4.14792 0
M  V30 18480 H 1780.6 -0.3742 -0.55697 0
M  V30 18481 H 1783.15 -1.61401 -1.25579 0
M  V30 18482 H 1781.3 -1.15809 -3.69685 0
M  V30 18483 H 1781.72 -3.34503 -4.0399 0
M  V30 18484 H 1783.19 -2.02995 -5.1332 0
M  V30 18485 H 1783.67 -0.519591 -4.36116 0
M  V30 18486 H 1784.27 -2.06352 -3.71886 0
M  V30 18487 N 1782.59 1.19452 -1.02805 0
M  V30 18488 C 1784 1.70804 -0.753845 0
M  V30 18489 C 1784.35 1.8225 0.726584 0
M  V30 18490 O 1783.48 1.49307 1.56641 0
M  V30 18491 C 1784.07 3.10227 -1.36178 0
M  V30 18492 C 1782.63 3.58842 -1.13618 0
M  V30 18493 C 1781.78 2.3573 -1.46036 0
M  V30 18494 H 1784.73 1.04305 -1.19608 0
M  V30 18495 H 1784.75 3.72867 -0.758315 0
M  V30 18496 H 1784.26 3.01864 -2.43925 0
M  V30 18497 H 1782.36 3.72521 -0.0768914 0
M  V30 18498 H 1782.47 4.43008 -1.82431 0
M  V30 18499 H 1780.84 2.39027 -0.879669 0
M  V30 18500 H 1781.62 2.29998 -2.54864 0
M  V30 18501 N 1784.07 0.805805 1.35442 0
M  V30 18502 C 1785.29 0.398252 2.03031 0
M  V30 18503 C 1785.71 -0.990542 1.60729 0
M  V30 18504 O 1785.07 -1.63813 0.804461 0
M  V30 18505 C 1785.12 0.471116 3.58417 0
M  V30 18506 O 1784.84 1.80516 3.99181 0
M  V30 18507 C 1786.34 0.056272 4.43264 0
M  V30 18508 H 1783.56 0.161905 0.651174 0
M  V30 18509 H 1786.1 1.08921 1.73079 0
M  V30 18510 H 1784.26 -0.171584 3.8702 0
M  V30 18511 H 1784.67 1.76739 4.93825 0
M  V30 18512 H 1786.15 0.15837 5.51773 0
M  V30 18513 H 1786.62 -0.998308 4.27704 0
M  V30 18514 H 1787.23 0.672097 4.19956 0
M  V30 18515 N 1785.54 -1.47344 0.559239 0
M  V30 18516 C 1786.49 -2.31735 -0.200368 0
M  V30 18517 C 1787.49 -1.43051 -0.907351 0
M  V30 18518 O 1788.69 -1.59804 -0.828406 0
M  V30 18519 H 1785.07 -0.747351 -0.0834871 0
M  V30 18520 H 1787.04 -2.93645 0.530556 0
M  V30 18521 C 1785.79 -3.25747 -1.2159 0
M  V30 18522 H 1785.11 -3.93952 -0.681314 0
M  V30 18523 H 1786.55 -3.87624 -1.71825 0
M  V30 18524 C 1785.01 -2.49414 -2.26482 0
M  V30 18525 O 1785.54 -2.24006 -3.33443 0
M  V30 18526 N 1783.75 -2.10387 -2.00464 0
M  V30 18527 H 1783.29 -2.3125 -1.13495 0
M  V30 18528 H 1783.25 -1.5963 -2.70861 0
M  V30 18529 N 1787.02 -0.295795 -1.54799 0
M  V30 18530 C 1788.27 0.315473 -2.00331 0
M  V30 18531 C 1788.6 1.53939 -1.18392 0
M  V30 18532 O 1787.88 1.92767 -0.259086 0
M  V30 18533 C 1788.16 0.677227 -3.53674 0
M  V30 18534 C 1788.01 -0.555462 -4.46357 0
M  V30 18535 C 1789.33 1.50576 -4.1354 0
M  V30 18536 H 1786.45 0.113191 -0.728256 0
M  V30 18537 H 1789.09 -0.406858 -1.85593 0
M  V30 18538 H 1787.24 1.29264 -3.66365 0
M  V30 18539 H 1788.91 -1.19397 -4.45581 0
M  V30 18540 H 1787.16 -1.18968 -4.17168 0
M  V30 18541 H 1787.83 -0.25828 -5.51395 0
M  V30 18542 H 1790.3 0.985819 -4.04253 0
M  V30 18543 H 1789.18 1.72766 -5.21002 0
M  V30 18544 H 1789.44 2.49334 -3.65082 0
M  V30 18545 N 1788.5 1.57583 -0.0234236 0
M  V30 18546 C 1789.75 1.91848 0.657422 0
M  V30 18547 C 1790.08 0.899633 1.72105 0
M  V30 18548 O 1789.36 -0.0784409 1.94342 0
M  V30 18549 C 1789.64 3.36617 1.2791 0
M  V30 18550 C 1789.49 4.49235 0.225421 0
M  V30 18551 C 1790.81 3.81239 2.19874 0
M  V30 18552 H 1787.93 0.697677 0.23752 0
M  V30 18553 H 1790.57 1.89834 -0.0795169 0
M  V30 18554 H 1788.72 3.38465 1.90719 0
M  V30 18555 H 1790.39 4.59521 -0.404792 0
M  V30 18556 H 1788.64 4.31462 -0.449749 0
M  V30 18557 H 1789.31 5.47545 0.699906 0
M  V30 18558 H 1791.78 3.81092 1.67058 0
M  V30 18559 H 1790.66 4.8324 2.60328 0
M  V30 18560 H 1790.92 3.16421 3.08755 0
M  V30 18561 N 1789.98 -0.249655 1.5561 0
M  V30 18562 C 1791.21 -0.995707 1.81365 0
M  V30 18563 C 1791.62 -1.79054 0.598767 0
M  V30 18564 O 1790.98 -1.773 -0.432538 0
M  V30 18565 C 1791.03 -1.93577 3.05303 0
M  V30 18566 O 1790.75 -1.17311 4.22102 0
M  V30 18567 C 1792.25 -2.79804 3.43838 0
M  V30 18568 H 1789.47 -0.293118 0.603591 0
M  V30 18569 H 1792.02 -0.273374 2.02665 0
M  V30 18570 H 1790.17 -2.61242 2.86062 0
M  V30 18571 H 1790.59 -1.80875 4.92326 0
M  V30 18572 H 1792.06 -3.4152 4.33668 0
M  V30 18573 H 1792.54 -3.50776 2.64298 0
M  V30 18574 H 1793.14 -2.17596 3.6542 0
M  V30 18575 N 1791.46 -1.48941 -0.515198 0
M  V30 18576 C 1792.73 -1.48205 -1.27651 0
M  V30 18577 C 1793.11 -0.201866 -2.10133 0
M  V30 18578 O 1792.46 0.816115 -2.13429 0
M  V30 18579 C 1792.67 -2.75274 -2.14535 0
M  V30 18580 C 1794.02 -3.24198 -2.74192 0
M  V30 18581 O 1795.04 -2.76293 -2.24813 0
M  V30 18582 O 1793.9 -4.07593 -3.64047 0
M  V30 18583 H 1791 -0.592546 -0.576904 0
M  V30 18584 H 1793.54 -1.6119 -0.530636 0
M  V30 18585 H 1792.32 -3.59949 -1.53469 0
M  V30 18586 H 1791.94 -2.6508 -2.96342 0
M  V30 18587 N 1792.94 0.765193 -1.37777 0
M  V30 18588 C 1794.16 1.55948 -1.3673 0
M  V30 18589 C 1794.59 1.8805 0.0435817 0
M  V30 18590 O 1793.94 1.49718 1.02246 0
M  V30 18591 C 1793.99 2.84245 -2.21895 0
M  V30 18592 O 1793.1 3.78903 -1.62807 0
M  V30 18593 H 1792.44 0.472127 -0.466897 0
M  V30 18594 H 1794.97 0.946556 -1.81388 0
M  V30 18595 H 1794.98 3.33284 -2.35342 0
M  V30 18596 H 1793.65 2.60209 -3.24444 0
M  V30 18597 H 1792.23 3.37568 -1.58437 0
M  V30 18598 N 1794.41 1.22455 0.992094 0
M  V30 18599 C 1795.38 0.996703 2.06394 0
M  V30 18600 C 1796.38 -0.0371659 1.60757 0
M  V30 18601 O 1797.57 0.20142 1.73032 0
M  V30 18602 C 1794.7 0.505675 3.37129 0
M  V30 18603 H 1795.89 1.94776 2.28041 0
M  V30 18604 H 1793.44 1.04335 1.16378 0
M  V30 18605 H 1794.18 -0.449697 3.21167 0
M  V30 18606 H 1793.96 1.25158 3.71588 0
M  V30 18607 H 1795.45 0.366535 4.15988 0
M  V30 18608 N 1795.89 -1.18905 1.03437 0
M  V30 18609 C 1797.14 -1.88727 0.734048 0
M  V30 18610 C 1797.47 -1.79964 -0.737773 0
M  V30 18611 O 1796.72 -1.19016 -1.5535 0
M  V30 18612 C 1797.02 -3.38811 1.13762 0
M  V30 18613 C 1796.69 -3.67777 2.60865 0
M  V30 18614 C 1795.35 -3.75393 3.01054 0
M  V30 18615 C 1797.7 -3.80666 3.5601 0
M  V30 18616 C 1795.03 -3.9337 4.35289 0
M  V30 18617 C 1797.38 -4.00158 4.89955 0
M  V30 18618 C 1796.04 -4.06007 5.29825 0
M  V30 18619 H 1795.31 -0.690602 0.268607 0
M  V30 18620 H 1797.96 -1.40777 1.29823 0
M  V30 18621 H 1796.27 -3.88697 0.492134 0
M  V30 18622 H 1797.96 -3.91164 0.882696 0
M  V30 18623 H 1794.55 -3.62462 2.28733 0
M  V30 18624 H 1798.74 -3.7412 3.2611 0
M  V30 18625 H 1793.99 -3.9614 4.65707 0
M  V30 18626 H 1798.17 -4.09073 5.63589 0
M  V30 18627 H 1795.79 -4.1969 6.33849 0
M  V30 18628 N 1797.37 -0.812977 -1.35013 0
M  V30 18629 C 1798.62 -0.396932 -1.98878 0
M  V30 18630 C 1798.95 1.03486 -1.6433 0
M  V30 18631 O 1798.22 1.71906 -0.90986 0
M  V30 18632 C 1798.51 -0.587911 -3.55268 0
M  V30 18633 C 1798.36 -2.06509 -3.99592 0
M  V30 18634 C 1799.68 -0.017593 -4.40096 0
M  V30 18635 H 1796.8 -0.145695 -0.722455 0
M  V30 18636 H 1799.44 -1.0237 -1.60064 0
M  V30 18637 H 1797.59 -0.0543785 -3.88462 0
M  V30 18638 H 1799.26 -2.6615 -3.76778 0
M  V30 18639 H 1797.5 -2.55921 -3.50267 0
M  V30 18640 H 1798.18 -2.14958 -5.08426 0
M  V30 18641 H 1800.65 -0.473317 -4.13399 0
M  V30 18642 H 1799.53 -0.18109 -5.48601 0
M  V30 18643 H 1799.79 1.07664 -4.2879 0
M  V30 18644 N 1798.85 1.47045 -0.567045 0
M  V30 18645 C 1799.81 2.28607 0.164758 0
M  V30 18646 C 1800.81 1.37509 0.833542 0
M  V30 18647 O 1802 1.60043 0.687895 0
M  V30 18648 C 1799.13 3.17466 1.24211 0
M  V30 18649 H 1800.33 2.9478 -0.551814 0
M  V30 18650 H 1797.88 1.52897 -0.324376 0
M  V30 18651 H 1798.61 2.56006 1.99076 0
M  V30 18652 H 1798.4 3.8452 0.767243 0
M  V30 18653 H 1799.89 3.78894 1.75582 0
M  V30 18654 N 1800.33 0.304 1.5464 0
M  V30 18655 C 1801.27 -0.570762 2.23631 0
M  V30 18656 C 1802.24 -1.1272 1.21998 0
M  V30 18657 O 1803.43 -1.17117 1.50626 0
M  V30 18658 C 1800.57 -1.73533 2.98296 0
M  V30 18659 C 1799.68 -1.21 4.14708 0
M  V30 18660 C 1798.82 -2.33867 4.76948 0
M  V30 18661 C 1797.85 -1.78483 5.855 0
M  V30 18662 N 1796.99 -2.84935 6.41682 0
M  V30 18663 H 1801.83 0.024168 2.9799 0
M  V30 18664 H 1799.37 0.023697 1.47081 0
M  V30 18665 H 1801.33 -2.42031 3.39819 0
M  V30 18666 H 1799.96 -2.30184 2.26308 0
M  V30 18667 H 1799.01 -0.41718 3.78105 0
M  V30 18668 H 1800.32 -0.764576 4.92905 0
M  V30 18669 H 1799.47 -3.10306 5.21339 0
M  V30 18670 H 1798.21 -2.81737 3.9809 0
M  V30 18671 H 1797.22 -1.00534 5.4053 0
M  V30 18672 H 1798.44 -1.31513 6.66244 0
M  V30 18673 H 1796.39 -3.32133 5.65706 0
M  V30 18674 H 1796.31 -2.44898 7.15235 0
M  V30 18675 H 1797.57 -3.61263 6.90731 0
M  V30 18676 N 1801.8 -1.57568 0.0317802 0
M  V30 18677 C 1802.74 -2.05894 -0.984021 0
M  V30 18678 C 1803.71 -0.955271 -1.3158 0
M  V30 18679 O 1804.9 -1.22579 -1.43201 0
M  V30 18680 C 1802.03 -2.48323 -2.30334 0
M  V30 18681 C 1801.07 -3.69736 -2.12598 0
M  V30 18682 S 1801.9 -5.16266 -1.42233 0
M  V30 18683 C 1803.06 -5.61992 -2.75528 0
M  V30 18684 H 1803.29 -2.91732 -0.572665 0
M  V30 18685 H 1800.83 -1.53347 -0.179981 0
M  V30 18686 H 1802.78 -2.73433 -3.06178 0
M  V30 18687 H 1801.45 -1.62825 -2.68602 0
M  V30 18688 H 1800.64 -3.97279 -3.10138 0
M  V30 18689 H 1800.24 -3.44792 -1.44896 0
M  V30 18690 H 1802.53 -5.66394 -3.71758 0
M  V30 18691 H 1803.48 -6.61495 -2.52646 0
M  V30 18692 H 1803.88 -4.8965 -2.80897 0
M  V30 18693 N 1803.28 0.241399 -1.5574 0
M  V30 18694 C 1804.21 1.30255 -1.93793 0
M  V30 18695 C 1805.19 1.49923 -0.803563 0
M  V30 18696 O 1806.38 1.62439 -1.06429 0
M  V30 18697 C 1803.51 2.65625 -2.23742 0
M  V30 18698 C 1802.46 2.60645 -3.39483 0
M  V30 18699 C 1801.79 3.99861 -3.54986 0
M  V30 18700 C 1803.09 2.17151 -4.75019 0
M  V30 18701 H 1804.78 0.986532 -2.8268 0
M  V30 18702 H 1802.33 0.473125 -1.36006 0
M  V30 18703 H 1804.28 3.40001 -2.48953 0
M  V30 18704 H 1803.01 2.98874 -1.31688 0
M  V30 18705 H 1801.66 1.88727 -3.14289 0
M  V30 18706 H 1801.31 4.30385 -2.60342 0
M  V30 18707 H 1801.01 3.97415 -4.32822 0
M  V30 18708 H 1802.54 4.75928 -3.82524 0
M  V30 18709 H 1803.95 2.8126 -4.99565 0
M  V30 18710 H 1802.35 2.25805 -5.55996 0
M  V30 18711 H 1803.42 1.12329 -4.7171 0
M  V30 18712 N 1804.76 1.49212 0.507292 0
M  V30 18713 C 1805.69 1.68326 1.61829 0
M  V30 18714 C 1806.67 0.531969 1.61568 0
M  V30 18715 O 1807.86 0.767104 1.78407 0
M  V30 18716 C 1804.99 1.74394 3.0034 0
M  V30 18717 C 1803.94 2.89251 3.15465 0
M  V30 18718 C 1803.27 2.80426 4.55264 0
M  V30 18719 C 1804.57 4.30269 2.96085 0
M  V30 18720 H 1806.26 2.6134 1.46087 0
M  V30 18721 H 1803.81 1.25765 0.701367 0
M  V30 18722 H 1805.76 1.86353 3.77956 0
M  V30 18723 H 1804.48 0.779748 3.17155 0
M  V30 18724 H 1803.14 2.76884 2.40272 0
M  V30 18725 H 1802.79 1.81928 4.68947 0
M  V30 18726 H 1802.49 3.57511 4.66326 0
M  V30 18727 H 1804.01 2.94384 5.34949 0
M  V30 18728 H 1805.43 4.4335 3.63475 0
M  V30 18729 H 1803.83 5.08527 3.18623 0
M  V30 18730 H 1804.9 4.45151 1.92272 0
M  V30 18731 N 1806.24 -0.757876 1.38181 0
M  V30 18732 C 1807.19 -1.87152 1.35065 0
M  V30 18733 C 1808.16 -1.64717 0.213892 0
M  V30 18734 O 1809.34 -1.86442 0.405448 0
M  V30 18735 C 1806.48 -3.24398 1.17728 0
M  V30 18736 C 1805.59 -3.58694 2.40754 0
M  V30 18737 C 1804.73 -4.85221 2.16181 0
M  V30 18738 C 1803.77 -5.1229 3.35001 0
M  V30 18739 N 1802.9 -6.3001 3.0989 0
M  V30 18740 H 1807.74 -1.89151 2.30274 0
M  V30 18741 H 1805.28 -0.924571 1.14412 0
M  V30 18742 H 1807.24 -4.0359 1.05694 0
M  V30 18743 H 1805.87 -3.21738 0.261606 0
M  V30 18744 H 1804.92 -2.74379 2.63477 0
M  V30 18745 H 1806.23 -3.74628 3.29325 0
M  V30 18746 H 1805.39 -5.72346 2.01258 0
M  V30 18747 H 1804.13 -4.71417 1.24969 0
M  V30 18748 H 1803.13 -4.23635 3.50448 0
M  V30 18749 H 1804.36 -5.27993 4.27083 0
M  V30 18750 H 1802.3 -6.17538 2.21321 0
M  V30 18751 H 1802.22 -6.46425 3.92009 0
M  V30 18752 H 1803.49 -7.20035 2.98613 0
M  V30 18753 N 1807.72 -1.22979 -0.985586 0
M  V30 18754 C 1808.65 -0.949615 -2.07503 0
M  V30 18755 C 1809.63 0.110178 -1.62226 0
M  V30 18756 O 1810.81 -0.022974 -1.88486 0
M  V30 18757 C 1807.94 -0.429626 -3.35964 0
M  V30 18758 C 1806.98 -1.47522 -4.00174 0
M  V30 18759 S 1807.82 -3.05095 -4.40088 0
M  V30 18760 C 1808.97 -2.54753 -5.71709 0
M  V30 18761 H 1809.21 -1.87215 -2.3095 0
M  V30 18762 H 1806.74 -1.06167 -1.12107 0
M  V30 18763 H 1808.7 -0.136212 -4.10274 0
M  V30 18764 H 1807.36 0.471907 -3.10535 0
M  V30 18765 H 1806.55 -1.06142 -4.92697 0
M  V30 18766 H 1806.15 -1.71772 -3.3222 0
M  V30 18767 H 1808.45 -1.9645 -6.48393 0
M  V30 18768 H 1809.39 -3.45795 -6.17925 0
M  V30 18769 H 1809.8 -1.95785 -5.29461 0
M  V30 18770 N 1809.19 1.18355 -1.04066 0
M  V30 18771 C 1810.44 1.87963 -0.742576 0
M  V30 18772 C 1810.76 1.80744 0.731899 0
M  V30 18773 O 1810.03 1.22576 1.52813 0
M  V30 18774 H 1808.61 0.69584 -0.271689 0
M  V30 18775 H 1811.28 1.43632 -1.31741 0
M  V30 18776 H 1810.37 2.93999 -1.04741 0
M  V30 18777 N 1810.67 0.820125 1.3458 0
M  V30 18778 C 1811.6 0.197556 2.28347 0
M  V30 18779 C 1812.62 -0.610956 1.50901 0
M  V30 18780 O 1813.81 -0.441096 1.72964 0
M  V30 18781 C 1810.91 -0.741893 3.3068 0
M  V30 18782 C 1810.08 0.0231854 4.37394 0
M  V30 18783 C 1809.14 -0.83677 5.19504 0
M  V30 18784 O 1808.16 -0.282772 5.68497 0
M  V30 18785 N 1809.37 -2.15696 5.38939 0
M  V30 18786 H 1812.13 1.00314 2.82413 0
M  V30 18787 H 1809.69 0.676827 1.47074 0
M  V30 18788 H 1811.68 -1.32173 3.82508 0
M  V30 18789 H 1810.25 -1.44823 2.77029 0
M  V30 18790 H 1809.47 0.784316 3.86319 0
M  V30 18791 H 1810.76 0.549958 5.05819 0
M  V30 18792 H 1810.16 -2.63083 5.00803 0
M  V30 18793 H 1808.72 -2.68572 5.93896 0
M  V30 18794 N 1812.15 -1.46743 0.574835 0
M  V30 18795 C 1813.06 -2.34015 -0.16559 0
M  V30 18796 C 1814.08 -1.49273 -0.894064 0
M  V30 18797 O 1815.25 -1.82162 -0.859013 0
M  V30 18798 C 1812.32 -3.26313 -1.17136 0
M  V30 18799 C 1811.38 -4.26952 -0.448413 0
M  V30 18800 C 1810.61 -5.1484 -1.40627 0
M  V30 18801 O 1810.83 -5.05508 -2.6423 0
M  V30 18802 O 1809.77 -5.9481 -0.921143 0
M  V30 18803 H 1813.59 -2.98664 0.550754 0
M  V30 18804 H 1811.18 -1.45589 0.335297 0
M  V30 18805 H 1813.06 -3.83276 -1.75149 0
M  V30 18806 H 1811.74 -2.64269 -1.86931 0
M  V30 18807 H 1810.64 -3.73698 0.17336 0
M  V30 18808 H 1811.98 -4.91759 0.208419 0
M  V30 18809 N 1813.63 -0.312197 -1.54477 0
M  V30 18810 C 1814.88 0.293192 -1.99962 0
M  V30 18811 C 1815.2 1.53544 -1.20205 0
M  V30 18812 O 1814.47 1.93575 -0.300901 0
M  V30 18813 H 1813.05 0.111325 -0.738658 0
M  V30 18814 H 1815.71 -0.426116 -1.90185 0
M  V30 18815 H 1814.81 0.557482 -3.07081 0
M  V30 18816 N 1815.11 1.57549 -0.040136 0
M  V30 18817 C 1816.35 1.92535 0.637037 0
M  V30 18818 C 1816.69 0.917836 1.71141 0
M  V30 18819 O 1815.96 -0.057824 1.94414 0
M  V30 18820 C 1816.24 3.37955 1.24333 0
M  V30 18821 C 1816.1 4.49449 0.177761 0
M  V30 18822 C 1817.42 3.8355 2.15818 0
M  V30 18823 H 1814.53 0.700157 0.230107 0
M  V30 18824 H 1817.18 1.89739 -0.0996468 0
M  V30 18825 H 1815.33 3.40468 1.87119 0
M  V30 18826 H 1817 4.59065 -0.453507 0
M  V30 18827 H 1815.24 4.30961 -0.495486 0
M  V30 18828 H 1815.91 5.48256 0.641792 0
M  V30 18829 H 1818.39 3.82842 1.63006 0
M  V30 18830 H 1817.26 4.85974 2.55188 0
M  V30 18831 H 1817.53 3.19678 3.05382 0
M  V30 18832 N 1816.58 -0.233136 1.55866 0
M  V30 18833 C 1818 -0.801092 1.6864 0
M  V30 18834 C 1818.35 -1.85465 0.640081 0
M  V30 18835 O 1817.47 -2.15368 -0.211038 0
M  V30 18836 C 1818.07 -1.45984 3.05735 0
M  V30 18837 C 1816.63 -1.97533 3.20403 0
M  V30 18838 C 1815.77 -0.831321 2.64546 0
M  V30 18839 H 1818.72 -0.00868708 1.58698 0
M  V30 18840 H 1818.74 -2.32832 3.00948 0
M  V30 18841 H 1818.26 -0.692805 3.81866 0
M  V30 18842 H 1816.36 -2.77074 2.4912 0
M  V30 18843 H 1816.47 -2.16326 4.27481 0
M  V30 18844 H 1814.83 -1.23554 2.22725 0
M  V30 18845 H 1815.62 -0.0771465 3.43213 0
M  V30 18846 N 1818.06 -1.49479 -0.499372 0
M  V30 18847 C 1819.29 -1.63025 -1.28209 0
M  V30 18848 C 1819.71 -0.302238 -1.85656 0
M  V30 18849 O 1819.07 0.730355 -1.65938 0
M  V30 18850 C 1819.12 -2.70287 -2.38699 0
M  V30 18851 O 1818.22 -2.29573 -3.42593 0
M  V30 18852 H 1817.56 -0.545605 -0.378432 0
M  V30 18853 H 1820.09 -1.95677 -0.597628 0
M  V30 18854 H 1820.1 -2.92505 -2.84438 0
M  V30 18855 H 1818.78 -3.66684 -1.96253 0
M  V30 18856 H 1817.36 -2.17692 -3.02761 0
M  V30 18857 N 1819.54 0.750537 -1.38581 0
M  V30 18858 C 1820.77 1.53978 -1.38196 0
M  V30 18859 C 1821.18 1.8878 0.0274976 0
M  V30 18860 O 1820.54 1.52997 0.994894 0
M  V30 18861 C 1820.59 2.83702 -2.24043 0
M  V30 18862 O 1820.31 2.50384 -3.59499 0
M  V30 18863 C 1821.81 3.77823 -2.31872 0
M  V30 18864 H 1819.03 0.476345 -0.472585 0
M  V30 18865 H 1821.58 0.928634 -1.82199 0
M  V30 18866 H 1819.73 3.41187 -1.83494 0
M  V30 18867 H 1820.15 3.33605 -4.04732 0
M  V30 18868 H 1821.62 4.65788 -2.96218 0
M  V30 18869 H 1822.1 4.18474 -1.33327 0
M  V30 18870 H 1822.7 3.26262 -2.72824 0
M  V30 18871 N 1821.02 1.235 0.979051 0
M  V30 18872 C 1821.98 1.01854 2.05325 0
M  V30 18873 C 1822.98 -0.0201133 1.60787 0
M  V30 18874 O 1824.17 0.219761 1.72808 0
M  V30 18875 C 1821.3 0.541404 3.36573 0
M  V30 18876 H 1822.5 1.97183 2.25962 0
M  V30 18877 H 1820.05 1.05563 1.15265 0
M  V30 18878 H 1820.79 -0.415607 3.21626 0
M  V30 18879 H 1820.57 1.29092 3.7024 0
M  V30 18880 H 1822.06 0.410635 4.15576 0
M  V30 18881 N 1822.5 -1.17802 1.04693 0
M  V30 18882 C 1823.46 -2.19854 0.647816 0
M  V30 18883 C 1824.46 -1.58013 -0.298081 0
M  V30 18884 O 1825.65 -1.74004 -0.0826309 0
M  V30 18885 C 1822.78 -3.40864 -0.0492661 0
M  V30 18886 H 1823.98 -2.56678 1.55101 0
M  V30 18887 H 1821.53 -1.31796 0.840215 0
M  V30 18888 H 1822.26 -3.0958 -0.965967 0
M  V30 18889 H 1822.05 -3.86995 0.630677 0
M  V30 18890 H 1823.54 -4.16412 -0.31479 0
M  V30 18891 N 1823.98 -0.827251 -1.34143 0
M  V30 18892 C 1824.94 -0.257543 -2.27748 0
M  V30 18893 C 1825.94 0.567053 -1.5047 0
M  V30 18894 O 1827.13 0.382529 -1.69948 0
M  V30 18895 C 1824.26 0.638449 -3.34868 0
M  V30 18896 H 1825.45 -1.08338 -2.79648 0
M  V30 18897 H 1823.01 -0.599441 -1.44348 0
M  V30 18898 H 1823.74 1.48717 -2.8819 0
M  V30 18899 H 1823.53 0.0486033 -3.9207 0
M  V30 18900 H 1825.02 1.03071 -4.0468 0
M  V30 18901 N 1825.45 1.46436 -0.582609 0
M  V30 18902 C 1826.7 2.02385 -0.0681494 0
M  V30 18903 C 1827.03 1.4541 1.29175 0
M  V30 18904 O 1826.28 0.609021 1.85982 0
M  V30 18905 C 1826.58 3.57368 0.0476745 0
M  V30 18906 C 1826.25 4.33382 -1.24462 0
M  V30 18907 C 1824.91 4.53868 -1.59866 0
M  V30 18908 C 1827.26 4.7703 -2.09981 0
M  V30 18909 C 1824.59 5.15254 -2.80589 0
M  V30 18910 C 1826.94 5.39749 -3.29929 0
M  V30 18911 C 1825.61 5.58463 -3.65616 0
M  V30 18912 H 1824.88 0.74058 -0.0249376 0
M  V30 18913 H 1827.52 1.75807 -0.759226 0
M  V30 18914 H 1825.83 3.83083 0.821879 0
M  V30 18915 H 1827.53 3.98336 0.461487 0
M  V30 18916 H 1824.12 4.17734 -0.958993 0
M  V30 18917 H 1828.3 4.60959 -1.83931 0
M  V30 18918 H 1823.56 5.27934 -3.08376 0
M  V30 18919 H 1827.73 5.72529 -3.96464 0
M  V30 18920 H 1825.36 6.05799 -4.59252 0
M  V30 18921 N 1826.93 0.320385 1.54309 0
M  V30 18922 C 1828.18 -0.284021 1.9969 0
M  V30 18923 C 1828.49 -1.53496 1.21237 0
M  V30 18924 O 1829.7 -2.21517 1.5698 0
M  V30 18925 C 1828.16 -0.556621 3.5557 0
M  V30 18926 C 1827.76 0.677086 4.42854 0
M  V30 18927 C 1829.51 -1.12116 4.09427 0
M  V30 18928 C 1827.41 0.376566 5.902 0
M  V30 18929 H 1826.34 -0.109905 0.745947 0
M  V30 18930 H 1829 0.432113 1.7834 0
M  V30 18931 H 1827.38 -1.33286 3.72895 0
M  V30 18932 H 1828.55 1.45266 4.37304 0
M  V30 18933 H 1826.87 1.16161 3.99869 0
M  V30 18934 H 1829.46 -1.36057 5.171 0
M  V30 18935 H 1829.81 -2.06954 3.61215 0
M  V30 18936 H 1830.34 -0.406174 3.95721 0
M  V30 18937 H 1827.08 1.29403 6.426 0
M  V30 18938 H 1826.6 -0.36136 5.9871 0
M  V30 18939 H 1828.28 -0.014773 6.46998 0
M  V30 18940 N 1828.41 -1.57525 0.0484906 0
M  V30 18941 C 1829.34 -2.14405 -0.924811 0
M  V30 18942 C 1830.32 -1.06503 -1.32631 0
M  V30 18943 O 1831.51 -1.3443 -1.4015 0
M  V30 18944 C 1828.64 -2.68686 -2.20057 0
M  V30 18945 C 1827.59 -3.81547 -1.93922 0
M  V30 18946 C 1826.92 -4.22334 -3.27929 0
M  V30 18947 C 1828.22 -5.06801 -1.26295 0
M  V30 18948 H 1829.91 -2.95983 -0.45105 0
M  V30 18949 H 1827.46 -1.42378 -0.215514 0
M  V30 18950 H 1829.41 -3.07117 -2.88543 0
M  V30 18951 H 1828.13 -1.84296 -2.69634 0
M  V30 18952 H 1826.79 -3.43585 -1.27848 0
M  V30 18953 H 1826.44 -3.34899 -3.75302 0
M  V30 18954 H 1826.14 -4.984 -3.11242 0
M  V30 18955 H 1827.66 -4.63363 -3.97652 0
M  V30 18956 H 1829.08 -5.42695 -1.84812 0
M  V30 18957 H 1827.47 -5.87991 -1.19943 0
M  V30 18958 H 1828.54 -4.84313 -0.238605 0
M  V30 18959 N 1829.89 0.224867 -1.55988 0
M  V30 18960 C 1830.8 1.2997 -1.95307 0
M  V30 18961 C 1831.81 1.51463 -0.856444 0
M  V30 18962 O 1832.99 1.64658 -1.15973 0
M  V30 18963 C 1830.05 2.63009 -2.25892 0
M  V30 18964 C 1829.12 2.49847 -3.49106 0
M  V30 18965 C 1828.35 3.76541 -3.78223 0
M  V30 18966 O 1828.57 4.7941 -3.09066 0
M  V30 18967 O 1827.51 3.73852 -4.71718 0
M  V30 18968 H 1831.33 0.996093 -2.869 0
M  V30 18969 H 1828.92 0.427457 -1.43154 0
M  V30 18970 H 1830.8 3.41586 -2.46774 0
M  V30 18971 H 1829.47 2.93057 -1.37474 0
M  V30 18972 H 1828.38 1.69482 -3.33507 0
M  V30 18973 H 1829.71 2.24739 -4.37896 0
M  V30 18974 N 1831.37 1.49742 0.491438 0
M  V30 18975 C 1832.64 1.50217 1.25277 0
M  V30 18976 C 1833.02 0.235271 2.09785 0
M  V30 18977 O 1832.37 -0.782057 2.147 0
M  V30 18978 C 1832.58 2.78652 2.10129 0
M  V30 18979 C 1833.93 3.28519 2.68999 0
M  V30 18980 O 1834.95 2.79834 2.20389 0
M  V30 18981 O 1833.81 4.13333 3.57516 0
M  V30 18982 H 1830.91 0.601649 0.567405 0
M  V30 18983 H 1833.45 1.62014 0.504924 0
M  V30 18984 H 1832.22 3.62345 1.47723 0
M  V30 18985 H 1831.85 2.69761 2.92087 0
M  V30 18986 N 1832.84 -0.743177 1.38977 0
M  V30 18987 C 1833.81 -1.83876 1.36829 0
M  V30 18988 C 1834.81 -1.5857 0.266875 0
M  V30 18989 O 1836 -1.66121 0.524337 0
M  V30 18990 C 1833.13 -3.21528 1.1328 0
M  V30 18991 H 1834.32 -1.87186 2.3431 0
M  V30 18992 H 1831.88 -0.945979 1.24422 0
M  V30 18993 H 1832.61 -3.23883 0.164474 0
M  V30 18994 H 1832.4 -3.41292 1.93034 0
M  V30 18995 H 1833.89 -4.01597 1.14498 0
M  V30 18996 N 1834.32 -1.24018 -0.972487 0
M  V30 18997 C 1835.25 -1.0529 -2.08414 0
M  V30 18998 C 1836.23 0.0326663 -1.70069 0
M  V30 18999 O 1837.42 -0.133494 -1.93741 0
M  V30 19000 C 1834.55 -0.651796 -3.41129 0
M  V30 19001 C 1833.5 -1.68559 -3.9341 0
M  V30 19002 C 1832.83 -1.1397 -5.22413 0
M  V30 19003 C 1834.13 -3.08046 -4.21788 0
M  V30 19004 H 1835.82 -1.98272 -2.2434 0
M  V30 19005 H 1833.37 -0.954694 -1.07804 0
M  V30 19006 H 1835.32 -0.507792 -4.18329 0
M  V30 19007 H 1834.05 0.313722 -3.2509 0
M  V30 19008 H 1832.7 -1.81773 -3.18362 0
M  V30 19009 H 1832.35 -0.164928 -5.0273 0
M  V30 19010 H 1832.05 -1.83051 -5.5836 0
M  V30 19011 H 1833.58 -1.00771 -6.02227 0
M  V30 19012 H 1834.99 -2.98088 -4.8971 0
M  V30 19013 H 1833.39 -3.74436 -4.68954 0
M  V30 19014 H 1834.46 -3.56444 -3.28749 0
M  V30 19015 N 1835.8 1.17245 -1.05316 0
M  V30 19016 C 1837.03 1.91995 -0.784387 0
M  V30 19017 C 1837.45 1.76362 0.65408 0
M  V30 19018 O 1836.81 1.0822 1.45458 0
M  V30 19019 C 1836.86 3.41043 -1.1714 0
M  V30 19020 O 1835.96 4.11276 -0.304285 0
M  V30 19021 H 1835.3 0.598516 -0.287532 0
M  V30 19022 H 1837.83 1.48604 -1.40634 0
M  V30 19023 H 1837.84 3.91788 -1.13871 0
M  V30 19024 H 1836.52 3.51742 -2.21924 0
M  V30 19025 H 1835.09 3.70773 -0.39769 0
M  V30 19026 N 1837.28 0.834353 1.33702 0
M  V30 19027 C 1838.21 0.221764 2.28125 0
M  V30 19028 C 1839.22 -0.594917 1.51541 0
M  V30 19029 O 1840.41 -0.422726 1.73422 0
M  V30 19030 C 1837.51 -0.706778 3.31448 0
M  V30 19031 C 1836.69 0.0695756 4.37345 0
M  V30 19032 C 1835.74 -0.781623 5.20362 0
M  V30 19033 O 1834.77 -0.222459 5.68765 0
M  V30 19034 N 1835.97 -2.09968 5.41197 0
M  V30 19035 H 1838.74 1.03303 2.81333 0
M  V30 19036 H 1836.3 0.692389 1.46348 0
M  V30 19037 H 1838.29 -1.28109 3.83888 0
M  V30 19038 H 1836.86 -1.41877 2.78549 0
M  V30 19039 H 1836.08 0.825247 3.85465 0
M  V30 19040 H 1837.37 0.603576 5.05207 0
M  V30 19041 H 1836.77 -2.57756 5.03565 0
M  V30 19042 H 1835.32 -2.62258 5.96711 0
M  V30 19043 N 1838.76 -1.46125 0.590367 0
M  V30 19044 C 1840.17 -1.57588 0.252639 0
M  V30 19045 C 1840.37 -1.58435 -1.24502 0
M  V30 19046 O 1839.43 -1.50541 -2.02716 0
M  V30 19047 C 1840.74 -2.86644 0.908612 0
M  V30 19048 C 1842.29 -3.00289 0.882917 0
M  V30 19049 C 1842.76 -4.32092 1.51858 0
M  V30 19050 N 1844.26 -4.38809 1.48327 0
M  V30 19051 C 1844.99 -5.39426 1.94442 0
M  V30 19052 N 1844.49 -6.46674 2.48565 0
M  V30 19053 N 1846.28 -5.30675 1.85313 0
M  V30 19054 H 1838.43 -1.43819 1.56301 0
M  V30 19055 H 1840.69 -0.686515 0.653759 0
M  V30 19056 H 1840.4 -2.91857 1.96246 0
M  V30 19057 H 1840.27 -3.74838 0.421445 0
M  V30 19058 H 1842.66 -2.94653 -0.16233 0
M  V30 19059 H 1842.74 -2.13551 1.40818 0
M  V30 19060 H 1842.39 -4.38486 2.56306 0
M  V30 19061 H 1842.32 -5.17618 0.968474 0
M  V30 19062 H 1844.81 -3.61907 1.08772 0
M  V30 19063 H 1845.12 -7.19671 2.8159 0
M  V30 19064 H 1843.46 -6.47473 2.52595 0
M  V30 19065 H 1846.66 -4.45793 1.42782 0
M  V30 19066 H 1846.83 -6.08943 2.21567 0
M  V30 19067 N 1840.23 -0.328564 -1.54137 0
M  V30 19068 C 1841.46 0.277044 -2.05541 0
M  V30 19069 C 1841.88 1.44613 -1.20285 0
M  V30 19070 O 1841.24 1.80043 -0.213107 0
M  V30 19071 C 1841.29 0.684495 -3.54044 0
M  V30 19072 O 1840.39 1.78629 -3.71706 0
M  V30 19073 H 1839.74 0.049078 -0.662184 0
M  V30 19074 H 1842.27 -0.478426 -1.98928 0
M  V30 19075 H 1842.28 0.965784 -3.96405 0
M  V30 19076 H 1840.95 -0.170554 -4.1555 0
M  V30 19077 H 1839.53 1.50343 -3.4125 0
M  V30 19078 N 1841.71 1.57497 -0.0568439 0
M  V30 19079 C 1842.68 2.10755 0.900823 0
M  V30 19080 C 1843.68 1.02835 1.23619 0
M  V30 19081 O 1844.87 1.28885 1.17194 0
M  V30 19082 C 1842 2.5965 2.20895 0
M  V30 19083 H 1843.19 2.96669 0.439041 0
M  V30 19084 H 1840.74 1.55121 0.191646 0
M  V30 19085 H 1841.48 1.77147 2.71642 0
M  V30 19086 H 1841.26 3.3852 1.97855 0
M  V30 19087 H 1842.75 3.00982 2.89482 0
M  V30 19088 N 1843.19 -0.216591 1.56105 0
M  V30 19089 C 1844.12 -1.29579 1.87842 0
M  V30 19090 C 1845.1 -1.44974 0.73629 0
M  V30 19091 O 1846.29 -1.60708 0.985151 0
M  V30 19092 C 1843.41 -2.66544 2.08979 0
M  V30 19093 C 1842.46 -2.68136 3.3167 0
M  V30 19094 S 1843.29 -2.21708 4.87448 0
M  V30 19095 C 1844.45 -3.60539 5.11627 0
M  V30 19096 H 1844.68 -1.02465 2.79085 0
M  V30 19097 H 1842.21 -0.419071 1.48604 0
M  V30 19098 H 1844.17 -3.45394 2.2184 0
M  V30 19099 H 1842.83 -2.90879 1.18524 0
M  V30 19100 H 1842.03 -3.68796 3.4352 0
M  V30 19101 H 1841.63 -1.97352 3.17692 0
M  V30 19102 H 1843.92 -4.56263 5.0083 0
M  V30 19103 H 1844.86 -3.53601 6.13491 0
M  V30 19104 H 1845.27 -3.54456 4.39342 0
M  V30 19105 N 1844.67 -1.5 -0.48349 0
M  V30 19106 C 1845.63 -1.6742 -1.56535 0
M  V30 19107 C 1846.63 -0.545311 -1.51271 0
M  V30 19108 O 1847.82 -0.812112 -1.54112 0
M  V30 19109 C 1844.95 -1.6879 -2.9618 0
M  V30 19110 H 1846.15 -2.6393 -1.42412 0
M  V30 19111 H 1843.7 -1.39295 -0.708991 0
M  V30 19112 H 1844.43 -0.739285 -3.15761 0
M  V30 19113 H 1844.22 -2.50789 -3.01408 0
M  V30 19114 H 1845.71 -1.84264 -3.74749 0
M  V30 19115 N 1846.15 0.735796 -1.39369 0
M  V30 19116 C 1847.11 1.83148 -1.37802 0
M  V30 19117 C 1848.11 1.58426 -0.27528 0
M  V30 19118 O 1849.3 1.65841 -0.53314 0
M  V30 19119 C 1846.43 3.20923 -1.14984 0
M  V30 19120 H 1847.62 1.85941 -2.353 0
M  V30 19121 H 1845.18 0.939367 -1.24922 0
M  V30 19122 H 1845.91 3.23791 -0.181648 0
M  V30 19123 H 1845.7 3.40264 -1.94841 0
M  V30 19124 H 1847.19 4.00984 -1.16626 0
M  V30 19125 N 1847.63 1.24532 0.965897 0
M  V30 19126 C 1848.87 1.0877 1.71163 0
M  V30 19127 C 1849.2 -0.372297 1.90598 0
M  V30 19128 O 1848.48 -1.27503 1.46878 0
M  V30 19129 C 1848.76 1.83004 3.10131 0
M  V30 19130 C 1848.62 3.36765 2.98177 0
M  V30 19131 C 1849.93 1.60417 4.09822 0
M  V30 19132 H 1847.05 0.396528 0.621236 0
M  V30 19133 H 1849.7 1.53223 1.12351 0
M  V30 19134 H 1847.85 1.4522 3.60338 0
M  V30 19135 H 1849.52 3.84158 2.55382 0
M  V30 19136 H 1847.76 3.65053 2.34347 0
M  V30 19137 H 1848.43 3.83909 3.96633 0
M  V30 19138 H 1850.91 1.93289 3.68482 0
M  V30 19139 H 1849.78 2.14812 5.05121 0
M  V30 19140 H 1850.04 0.542843 4.38755 0
M  V30 19141 N 1849.1 -1.16685 1.05936 0
M  V30 19142 C 1850.03 -2.23129 0.688153 0
M  V30 19143 C 1851.01 -1.67108 -0.31765 0
M  V30 19144 O 1852.2 -1.93233 -0.193578 0
M  V30 19145 C 1849.33 -3.47229 0.069991 0
M  V30 19146 C 1848.28 -4.16121 1.00137 0
M  V30 19147 C 1847.61 -5.34131 0.246699 0
M  V30 19148 C 1848.91 -4.67508 2.32882 0
M  V30 19149 H 1850.6 -2.54436 1.57806 0
M  V30 19150 H 1848.15 -1.22298 0.76021 0
M  V30 19151 H 1850.1 -4.20918 -0.201545 0
M  V30 19152 H 1848.83 -3.15212 -0.854909 0
M  V30 19153 H 1847.49 -3.44355 1.25759 0
M  V30 19154 H 1847.13 -4.98366 -0.681204 0
M  V30 19155 H 1846.83 -5.81163 0.867373 0
M  V30 19156 H 1848.36 -6.10598 -0.0173762 0
M  V30 19157 H 1849.77 -5.32795 2.11666 0
M  V30 19158 H 1848.17 -5.25147 2.90414 0
M  V30 19159 H 1849.24 -3.83912 2.96209 0
M  V30 19160 N 1850.58 -0.841432 -1.33258 0
M  V30 19161 C 1851.53 -0.248505 -2.26642 0
M  V30 19162 C 1852.52 0.59799 -1.49375 0
M  V30 19163 O 1853.71 0.449539 -1.71196 0
M  V30 19164 C 1850.84 0.573322 -3.38479 0
M  V30 19165 C 1849.92 -0.284825 -4.23142 0
M  V30 19166 N 1850.31 -1.36477 -4.8704 0
M  V30 19167 C 1848.61 -0.072296 -4.45941 0
M  V30 19168 C 1849.31 -1.89162 -5.50084 0
M  V30 19169 N 1848.29 -1.19272 -5.30354 0
M  V30 19170 H 1852.09 -1.07432 -2.73561 0
M  V30 19171 H 1849.6 -0.686153 -1.47193 0
M  V30 19172 H 1851.6 1.01441 -4.0437 0
M  V30 19173 H 1850.26 1.39708 -2.93107 0
M  V30 19174 H 1851.27 -1.74767 -4.87521 0
M  V30 19175 H 1847.95 0.717812 -4.11283 0
M  V30 19176 H 1849.34 -2.79613 -6.10955 0
M  V30 19177 N 1852.06 1.4581 -0.598108 0
M  V30 19178 C 1853.31 2.02601 -0.089744 0
M  V30 19179 C 1853.64 1.46673 1.27282 0
M  V30 19180 O 1852.91 0.637735 1.83748 0
M  V30 19181 C 1853.2 3.60077 -0.0405712 0
M  V30 19182 C 1853.05 4.26358 -1.43313 0
M  V30 19183 C 1854.37 4.35241 0.652164 0
M  V30 19184 H 1851.49 0.736211 -0.0340865 0
M  V30 19185 H 1854.13 1.73775 -0.768263 0
M  V30 19186 H 1852.28 3.84767 0.537251 0
M  V30 19187 H 1853.95 4.12884 -2.0573 0
M  V30 19188 H 1852.19 3.85125 -1.99653 0
M  V30 19189 H 1852.87 5.35211 -1.35105 0
M  V30 19190 H 1855.34 4.15788 0.161128 0
M  V30 19191 H 1854.22 5.4497 0.655646 0
M  V30 19192 H 1854.48 4.07419 1.71646 0
M  V30 19193 N 1853.54 0.336733 1.53961 0
M  V30 19194 C 1854.95 -0.0154439 1.59593 0
M  V30 19195 C 1855.15 -1.49328 1.35291 0
M  V30 19196 O 1854.21 -2.25107 1.14381 0
M  V30 19197 C 1855.52 0.414613 2.97828 0
M  V30 19198 C 1857.07 0.36638 3.10848 0
M  V30 19199 C 1857.55 0.7718 4.5145 0
M  V30 19200 N 1859.04 0.725719 4.5748 0
M  V30 19201 C 1859.77 1.01145 5.64409 0
M  V30 19202 N 1859.27 1.36499 6.7922 0
M  V30 19203 N 1861.06 0.936141 5.5425 0
M  V30 19204 H 1853.21 1.29944 1.68012 0
M  V30 19205 H 1855.47 0.529259 0.786504 0
M  V30 19206 H 1855.18 1.44476 3.20655 0
M  V30 19207 H 1855.05 -0.21367 3.76594 0
M  V30 19208 H 1857.44 -0.65458 2.87749 0
M  V30 19209 H 1857.52 1.02978 2.34157 0
M  V30 19210 H 1857.17 1.79074 4.75284 0
M  V30 19211 H 1857.1 0.0859543 5.2653 0
M  V30 19212 H 1859.59 0.464858 3.7503 0
M  V30 19213 H 1859.9 1.56805 7.56725 0
M  V30 19214 H 1858.25 1.40338 6.80684 0
M  V30 19215 H 1861.44 0.659334 4.63433 0
M  V30 19216 H 1861.61 1.16217 6.37493 0
M  V30 19217 N 1855.02 -1.57465 0.0651956 0
M  V30 19218 C 1856.24 -1.97975 -0.618099 0
M  V30 19219 C 1856.67 -0.943068 -1.62751 0
M  V30 19220 O 1856.02 0.0921045 -1.81066 0
M  V30 19221 C 1856.07 -3.37533 -1.26902 0
M  V30 19222 O 1855.18 -3.36451 -2.38483 0
M  V30 19223 H 1854.52 -0.644553 -0.159524 0
M  V30 19224 H 1857.05 -2.04136 0.137754 0
M  V30 19225 H 1857.06 -3.74571 -1.61742 0
M  V30 19226 H 1855.73 -4.12518 -0.529334 0
M  V30 19227 H 1854.31 -3.11175 -2.05486 0
M  V30 19228 N 1856.49 0.20831 -1.56217 0
M  V30 19229 C 1857.44 1.26199 -1.89889 0
M  V30 19230 C 1858.43 1.41646 -0.763239 0
M  V30 19231 O 1859.62 1.44238 -1.02588 0
M  V30 19232 C 1856.75 2.60964 -2.23053 0
M  V30 19233 C 1855.83 2.49364 -3.43043 0
M  V30 19234 N 1856.23 2.07429 -4.6131 0
M  V30 19235 C 1854.52 2.80291 -3.4692 0
M  V30 19236 C 1855.22 2.07401 -5.4347 0
M  V30 19237 N 1854.2 2.48398 -4.83528 0
M  V30 19238 H 1858 0.928874 -2.78835 0
M  V30 19239 H 1855.52 0.416815 -1.5696 0
M  V30 19240 H 1857.51 3.37055 -2.45356 0
M  V30 19241 H 1856.17 2.9511 -1.35426 0
M  V30 19242 H 1857.18 1.78348 -4.86223 0
M  V30 19243 H 1853.86 3.1872 -2.69673 0
M  V30 19244 H 1855.25 1.76991 -6.4817 0
M  V30 19245 N 1857.97 1.50255 0.475528 0
M  V30 19246 C 1859.2 1.65044 1.25599 0
M  V30 19247 C 1859.62 0.331736 1.85152 0
M  V30 19248 O 1858.98 -0.703863 1.67079 0
M  V30 19249 C 1859.03 2.7405 2.34369 0
M  V30 19250 O 1858.13 2.34994 3.38897 0
M  V30 19251 H 1857.47 0.551557 0.369704 0
M  V30 19252 H 1860 1.96603 0.566422 0
M  V30 19253 H 1860.01 2.96993 2.79749 0
M  V30 19254 H 1858.69 3.6976 1.90395 0
M  V30 19255 H 1857.26 2.22481 2.9926 0
M  V30 19256 N 1859.45 -0.728395 1.39758 0
M  V30 19257 C 1860.36 -1.87279 1.41293 0
M  V30 19258 C 1861.38 -1.71271 0.306965 0
M  V30 19259 O 1862.55 -1.93759 0.549502 0
M  V30 19260 C 1859.62 -3.22943 1.2613 0
M  V30 19261 C 1858.68 -3.51297 2.46756 0
M  V30 19262 C 1857.91 -4.80489 2.32307 0
M  V30 19263 O 1858.13 -5.54676 1.33005 0
M  V30 19264 O 1857.07 -5.08891 3.21425 0
M  V30 19265 H 1860.89 -1.88939 2.37773 0
M  V30 19266 H 1858.48 -0.877103 1.20943 0
M  V30 19267 H 1860.36 -4.04003 1.19832 0
M  V30 19268 H 1859.04 -3.22039 0.327492 0
M  V30 19269 H 1857.94 -2.70298 2.58631 0
M  V30 19270 H 1859.28 -3.56986 3.38853 0
M  V30 19271 N 1860.93 -1.25042 -0.959279 0
M  V30 19272 C 1862.17 -1.09677 -1.70584 0
M  V30 19273 C 1862.51 0.362184 -1.90793 0
M  V30 19274 O 1861.78 1.26722 -1.47552 0
M  V30 19275 C 1862.06 -1.84646 -3.09157 0
M  V30 19276 C 1861.92 -3.38342 -2.96387 0
M  V30 19277 C 1863.24 -1.62588 -4.08966 0
M  V30 19278 H 1860.36 -0.399817 -0.619125 0
M  V30 19279 H 1863 -1.53816 -1.11537 0
M  V30 19280 H 1861.15 -1.47129 -3.59563 0
M  V30 19281 H 1862.82 -3.85507 -2.53342 0
M  V30 19282 H 1861.06 -3.66291 -2.32408 0
M  V30 19283 H 1861.73 -3.86007 -3.94592 0
M  V30 19284 H 1864.21 -1.9524 -3.67451 0
M  V30 19285 H 1863.09 -2.17488 -5.03975 0
M  V30 19286 H 1863.35 -0.566103 -4.38461 0
M  V30 19287 N 1862.41 1.16121 -1.06553 0
M  V30 19288 C 1863.82 1.68319 -0.807804 0
M  V30 19289 C 1864.17 1.8447 0.668234 0
M  V30 19290 O 1863.29 1.54215 1.51811 0
M  V30 19291 C 1863.89 3.05738 -1.45979 0
M  V30 19292 C 1862.45 3.55046 -1.24977 0
M  V30 19293 C 1861.59 2.30965 -1.53462 0
M  V30 19294 H 1864.55 1.00447 -1.22866 0
M  V30 19295 H 1864.57 3.70266 -0.876556 0
M  V30 19296 H 1864.08 2.93951 -2.53405 0
M  V30 19297 H 1862.18 3.72087 -0.195367 0
M  V30 19298 H 1862.29 4.36979 -1.96433 0
M  V30 19299 H 1860.66 2.36107 -0.955268 0
M  V30 19300 H 1861.44 2.21773 -2.62052 0
M  V30 19301 N 1863.88 0.848487 1.3281 0
M  V30 19302 C 1865.13 0.44797 1.97073 0
M  V30 19303 C 1865.45 -0.998358 1.67505 0
M  V30 19304 O 1864.72 -1.69683 0.97901 0
M  V30 19305 H 1863.3 0.162663 0.729075 0
M  V30 19306 H 1865.97 1.08356 1.62003 0
M  V30 19307 H 1865.06 0.587939 3.06512 0
M  V30 19308 N 1865.36 -1.4549 0.605832 0
M  V30 19309 C 1866.61 -2.02251 0.100338 0
M  V30 19310 C 1866.94 -1.47447 -1.26845 0
M  V30 19311 O 1866.19 -0.638532 -1.8499 0
M  V30 19312 C 1866.49 -3.57399 0.00918576 0
M  V30 19313 C 1866.16 -4.31347 1.31341 0
M  V30 19314 C 1864.82 -4.51267 1.67067 0
M  V30 19315 C 1867.17 -4.73629 2.17543 0
M  V30 19316 C 1864.5 -5.10725 2.88751 0
M  V30 19317 C 1866.85 -5.34432 3.38474 0
M  V30 19318 C 1865.52 -5.52576 3.74455 0
M  V30 19319 H 1864.79 -0.74009 0.0367165 0
M  V30 19320 H 1867.43 -1.74577 0.787099 0
M  V30 19321 H 1865.74 -3.84342 -0.760829 0
M  V30 19322 H 1867.43 -3.99019 -0.398057 0
M  V30 19323 H 1864.02 -4.16155 1.02533 0
M  V30 19324 H 1868.21 -4.57974 1.91241 0
M  V30 19325 H 1863.46 -5.22961 3.16736 0
M  V30 19326 H 1867.64 -5.66149 4.05522 0
M  V30 19327 H 1865.27 -5.98416 4.68831 0
M  V30 19328 N 1866.84 -0.344893 -1.5378 0
M  V30 19329 C 1868.09 0.251208 -2.00936 0
M  V30 19330 C 1868.42 1.50449 -1.23269 0
M  V30 19331 O 1867.67 1.93249 -0.308738 0
M  V30 19332 C 1867.97 0.609495 -3.52165 0
M  V30 19333 C 1867.64 -0.547063 -4.47569 0
M  V30 19334 C 1866.3 -0.864456 -4.73372 0
M  V30 19335 C 1868.65 -1.3229 -5.04132 0
M  V30 19336 C 1865.98 -1.96003 -5.52991 0
M  V30 19337 C 1868.33 -2.40874 -5.84947 0
M  V30 19338 C 1866.99 -2.73171 -6.09043 0
M  V30 19339 H 1866.26 0.0919233 -0.735276 0
M  V30 19340 H 1868.91 -0.473086 -1.85564 0
M  V30 19341 H 1867.22 1.41452 -3.65375 0
M  V30 19342 H 1868.91 1.08262 -3.86109 0
M  V30 19343 H 1865.5 -0.289626 -4.2762 0
M  V30 19344 H 1869.69 -1.09095 -4.84161 0
M  V30 19345 H 1864.94 -2.21449 -5.69886 0
M  V30 19346 H 1869.12 -3.01421 -6.27789 0
M  V30 19347 H 1866.74 -3.5819 -6.70525 0
M  V30 19348 N 1868.32 1.57428 -0.0735454 0
M  V30 19349 C 1869.55 1.97883 0.604148 0
M  V30 19350 C 1869.96 0.951968 1.63043 0
M  V30 19351 O 1869.32 -0.0611641 1.82397 0
M  V30 19352 C 1869.37 3.38414 1.27116 0
M  V30 19353 O 1869.09 4.37166 0.285951 0
M  V30 19354 C 1870.59 3.93753 2.03651 0
M  V30 19355 H 1867.81 0.650747 0.163613 0
M  V30 19356 H 1870.36 2.03975 -0.146466 0
M  V30 19357 H 1868.51 3.33403 1.97285 0
M  V30 19358 H 1868.92 5.18896 0.764698 0
M  V30 19359 H 1870.4 4.94298 2.45711 0
M  V30 19360 H 1870.88 3.30391 2.89376 0
M  V30 19361 H 1871.48 4.0217 1.38345 0
M  V30 19362 N 1869.8 -0.200022 1.56326 0
M  V30 19363 C 1870.71 -1.26847 1.9735 0
M  V30 19364 C 1871.72 -1.50081 0.880432 0
M  V30 19365 O 1872.9 -1.62792 1.18578 0
M  V30 19366 C 1869.96 -2.59382 2.30048 0
M  V30 19367 C 1869.02 -2.44262 3.53036 0
M  V30 19368 C 1868.26 -3.70476 3.84165 0
M  V30 19369 O 1868.48 -4.74433 3.16654 0
M  V30 19370 O 1867.41 -3.663 4.77606 0
M  V30 19371 H 1871.24 -0.950324 2.88449 0
M  V30 19372 H 1868.83 -0.404628 1.43816 0
M  V30 19373 H 1870.71 -3.37616 2.52177 0
M  V30 19374 H 1869.38 -2.90833 1.42119 0
M  V30 19375 H 1868.29 -1.64154 3.36161 0
M  V30 19376 H 1869.62 -2.17744 4.41416 0
M  V30 19377 N 1871.27 -1.50505 -0.467553 0
M  V30 19378 C 1872.52 -1.61352 -1.21697 0
M  V30 19379 C 1872.84 -0.317583 -1.92396 0
M  V30 19380 O 1872.11 0.665123 -1.84263 0
M  V30 19381 H 1870.69 -0.594582 -0.452196 0
M  V30 19382 H 1873.36 -1.87299 -0.539 0
M  V30 19383 H 1872.45 -2.4264 -1.96296 0
M  V30 19384 N 1872.75 0.720973 -1.40142 0
M  V30 19385 C 1873.7 1.8564 -1.40145 0
M  V30 19386 C 1874.69 1.67025 -0.282667 0
M  V30 19387 O 1875.9 1.74195 -0.453429 0
M  V30 19388 H 1872.28 0.611316 -0.437947 0
M  V30 19389 H 1874.25 1.82753 -2.35889 0
M  V30 19390 C 1873 3.23455 -1.27563 0
M  V30 19391 H 1872.32 3.38382 -2.12926 0
M  V30 19392 H 1873.76 4.03052 -1.31623 0
M  V30 19393 C 1872.22 3.36897 0.0146614 0
M  V30 19394 O 1872.75 3.89572 0.979616 0
M  V30 19395 N 1870.95 2.90483 0.0823795 0
M  V30 19396 H 1870.5 2.47805 -0.70359 0
M  V30 19397 H 1870.46 2.99856 0.945177 0
M  V30 19398 N 1874.23 1.25549 0.952634 0
M  V30 19399 C 1875.51 1.01186 1.67394 0
M  V30 19400 C 1875.89 -0.461292 2.05998 0
M  V30 19401 O 1875.24 -1.43909 1.77489 0
M  V30 19402 C 1875.45 1.94954 2.89472 0
M  V30 19403 C 1876.79 2.22911 3.6138 0
M  V30 19404 O 1877.82 1.92728 2.99557 0
M  V30 19405 O 1876.68 2.74246 4.72706 0
M  V30 19406 H 1873.77 0.383874 0.732509 0
M  V30 19407 H 1876.32 1.36712 1.00538 0
M  V30 19408 H 1875.09 2.94416 2.5775 0
M  V30 19409 H 1874.71 1.59837 3.64058 0
M  V30 19410 N 1875.71 -1.15554 1.07168 0
M  V30 19411 C 1876.95 -1.86572 0.794894 0
M  V30 19412 C 1877.29 -1.82007 -0.677276 0
M  V30 19413 O 1876.56 -1.2419 -1.4969 0
M  V30 19414 C 1876.85 -3.35762 1.30137 0
M  V30 19415 C 1876.7 -3.4897 2.83796 0
M  V30 19416 C 1878.02 -4.30453 0.916402 0
M  V30 19417 H 1875.14 -0.677448 0.29023 0
M  V30 19418 H 1877.78 -1.35772 1.32914 0
M  V30 19419 H 1875.93 -3.79156 0.846915 0
M  V30 19420 H 1877.6 -3.14452 3.37517 0
M  V30 19421 H 1875.84 -2.9059 3.22087 0
M  V30 19422 H 1876.51 -4.53782 3.14302 0
M  V30 19423 H 1878.99 -3.95008 1.30797 0
M  V30 19424 H 1877.87 -5.33329 1.29814 0
M  V30 19425 H 1878.13 -4.41742 -0.17785 0
M  V30 19426 N 1877.19 -0.855519 -1.32358 0
M  V30 19427 C 1878.15 -0.305794 -2.27151 0
M  V30 19428 C 1879.15 0.535008 -1.51639 0
M  V30 19429 O 1880.34 0.346394 -1.70721 0
M  V30 19430 C 1877.47 0.567275 -3.36147 0
M  V30 19431 H 1878.67 -1.14245 -2.77287 0
M  V30 19432 H 1876.22 -0.629924 -1.43044 0
M  V30 19433 H 1876.95 1.42571 -2.9128 0
M  V30 19434 H 1876.74 -0.0345714 -3.92085 0
M  V30 19435 H 1878.23 0.944644 -4.06775 0
M  V30 19436 N 1878.67 1.45167 -0.61354 0
M  V30 19437 C 1879.94 1.95553 -0.042781 0
M  V30 19438 C 1880.32 1.55588 1.42673 0
M  V30 19439 O 1879.67 0.821325 2.13229 0
M  V30 19440 C 1879.88 3.48124 -0.247141 0
M  V30 19441 C 1881.23 4.24398 -0.131068 0
M  V30 19442 O 1882.25 3.55757 -0.177576 0
M  V30 19443 O 1881.11 5.46496 -0.0211683 0
M  V30 19444 H 1878.21 0.826367 0.0323494 0
M  V30 19445 H 1880.75 1.55304 -0.684017 0
M  V30 19446 H 1879.52 3.70202 -1.26751 0
M  V30 19447 H 1879.15 3.95278 0.429074 0
M  V30 19448 N 1880.14 0.353044 1.53595 0
M  V30 19449 C 1881.37 -0.244309 2.05956 0
M  V30 19450 C 1881.79 -1.42681 1.22571 0
M  V30 19451 O 1881.15 -1.79681 0.241723 0
M  V30 19452 C 1881.2 -0.628083 3.55088 0
M  V30 19453 O 1880.3 -1.72693 3.74501 0
M  V30 19454 H 1879.64 -0.038537 0.662881 0
M  V30 19455 H 1882.17 0.510013 1.98141 0
M  V30 19456 H 1882.18 -0.902597 3.97891 0
M  V30 19457 H 1880.86 0.236643 4.15226 0
M  V30 19458 H 1879.44 -1.44895 3.43599 0
M  V30 19459 N 1881.62 -1.57387 0.0818932 0
M  V30 19460 C 1882.55 -2.10294 -0.911539 0
M  V30 19461 C 1883.57 -1.03726 -1.25478 0
M  V30 19462 O 1884.76 -1.31212 -1.2102 0
M  V30 19463 C 1881.86 -2.55676 -2.22448 0
M  V30 19464 C 1881.03 -3.8593 -2.05857 0
M  V30 19465 C 1880.09 -4.17297 -3.20545 0
M  V30 19466 O 1879.11 -4.86734 -2.9509 0
M  V30 19467 N 1880.32 -3.71647 -4.45936 0
M  V30 19468 H 1883.08 -2.96153 -0.459757 0
M  V30 19469 H 1880.64 -1.61568 -0.103568 0
M  V30 19470 H 1882.63 -2.73715 -2.98098 0
M  V30 19471 H 1881.2 -1.749 -2.59092 0
M  V30 19472 H 1880.42 -3.7717 -1.14615 0
M  V30 19473 H 1881.71 -4.71169 -1.92034 0
M  V30 19474 H 1881.11 -3.15571 -4.69501 0
M  V30 19475 H 1879.67 -3.94866 -5.18579 0
M  V30 19476 N 1883.1 0.191729 -1.56429 0
M  V30 19477 C 1884.06 1.22128 -1.93952 0
M  V30 19478 C 1885.06 1.38262 -0.820984 0
M  V30 19479 O 1886.25 1.36017 -1.08835 0
M  V30 19480 C 1883.38 2.59005 -2.21651 0
M  V30 19481 H 1884.58 0.900458 -2.86063 0
M  V30 19482 H 1882.13 0.433382 -1.50172 0
M  V30 19483 H 1882.87 2.96136 -1.32189 0
M  V30 19484 H 1882.65 2.48665 -3.03164 0
M  V30 19485 H 1884.14 3.33242 -2.51674 0
M  V30 19486 N 1884.58 1.50751 0.459565 0
M  V30 19487 C 1885.81 1.66089 1.23377 0
M  V30 19488 C 1886.22 0.348952 1.85547 0
M  V30 19489 O 1885.58 -0.670323 1.69744 0
M  V30 19490 C 1885.63 2.76047 2.3341 0
M  V30 19491 O 1885.35 4.02156 1.73787 0
M  V30 19492 C 1886.85 3.02461 3.24087 0
M  V30 19493 H 1884.07 0.557971 0.372705 0
M  V30 19494 H 1886.61 1.97042 0.547242 0
M  V30 19495 H 1884.77 2.47756 2.97818 0
M  V30 19496 H 1885.18 4.63055 2.46335 0
M  V30 19497 H 1886.66 3.83034 3.97478 0
M  V30 19498 H 1887.13 2.13984 3.83546 0
M  V30 19499 H 1887.74 3.32326 2.65404 0
M  V30 19500 N 1886.06 -0.713531 1.40522 0
M  V30 19501 C 1887.3 -1.47343 1.38911 0
M  V30 19502 C 1887.63 -1.94498 -0.00787452 0
M  V30 19503 O 1886.89 -1.68648 -0.992786 0
M  V30 19504 C 1887.18 -2.71283 2.32681 0
M  V30 19505 C 1886.85 -2.42881 3.79894 0
M  V30 19506 C 1885.51 -2.34846 4.20001 0
M  V30 19507 C 1887.86 -2.19093 4.72914 0
M  V30 19508 C 1885.19 -2.01093 5.51161 0
M  V30 19509 C 1887.54 -1.86852 6.04375 0
M  V30 19510 C 1886.21 -1.773 6.43522 0
M  V30 19511 H 1885.48 -0.539166 0.508312 0
M  V30 19512 H 1888.13 -0.817138 1.73191 0
M  V30 19513 H 1886.43 -3.41759 1.91593 0
M  V30 19514 H 1888.13 -3.29378 2.28717 0
M  V30 19515 H 1884.72 -2.50023 3.48118 0
M  V30 19516 H 1888.9 -2.24256 4.42745 0
M  V30 19517 H 1884.16 -1.92236 5.80392 0
M  V30 19518 H 1888.33 -1.6746 6.75966 0
M  V30 19519 H 1885.96 -1.50913 7.4507 0
M  V30 19520 N 1887.53 -1.26053 -0.945962 0
M  V30 19521 C 1888.47 -1.02985 -2.0476 0
M  V30 19522 C 1889.48 0.00812739 -1.62798 0
M  V30 19523 O 1890.67 -0.231411 -1.76994 0
M  V30 19524 C 1887.77 -0.536609 -3.34625 0
M  V30 19525 C 1886.94 -1.64273 -4.0538 0
M  V30 19526 C 1886 -1.14836 -5.13516 0
M  V30 19527 O 1885.03 -1.84449 -5.38486 0
M  V30 19528 N 1886.23 0.00576017 -5.805 0
M  V30 19529 H 1888.99 -1.97845 -2.25117 0
M  V30 19530 H 1886.55 -1.17375 -1.11512 0
M  V30 19531 H 1888.55 -0.19017 -4.04253 0
M  V30 19532 H 1887.12 0.318275 -3.10976 0
M  V30 19533 H 1886.34 -2.16034 -3.29732 0
M  V30 19534 H 1887.62 -2.3856 -4.49407 0
M  V30 19535 H 1887.02 0.587225 -5.62644 0
M  V30 19536 H 1885.58 0.293161 -6.5114 0
M  V30 19537 N 1889.01 1.14984 -1.07779 0
M  V30 19538 C 1889.97 2.1806 -0.705879 0
M  V30 19539 C 1890.97 1.58748 0.256082 0
M  V30 19540 O 1892.16 1.74162 0.0364678 0
M  V30 19541 C 1889.3 3.40875 -0.0411253 0
M  V30 19542 H 1890.49 2.52476 -1.61852 0
M  V30 19543 H 1888.04 1.29522 -0.874863 0
M  V30 19544 H 1888.78 3.12032 0.883548 0
M  V30 19545 H 1888.56 3.85186 -0.73306 0
M  V30 19546 H 1890.05 4.171 0.204275 0
M  V30 19547 N 1890.49 0.862526 1.31902 0
M  V30 19548 C 1891.72 0.483304 2.00867 0
M  V30 19549 C 1892.13 -0.926733 1.64949 0
M  V30 19550 O 1891.47 -1.61745 0.870881 0
M  V30 19551 C 1891.53 0.551872 3.55239 0
M  V30 19552 C 1891.2 1.9222 4.14609 0
M  V30 19553 C 1892.19 2.88872 4.3226 0
M  V30 19554 C 1889.88 2.22149 4.50506 0
M  V30 19555 C 1891.87 4.136 4.84988 0
M  V30 19556 C 1889.56 3.47128 5.02937 0
M  V30 19557 C 1890.56 4.4267 5.20127 0
M  V30 19558 O 1890.25 5.65435 5.71435 0
M  V30 19559 H 1889.98 0.187544 0.649464 0
M  V30 19560 H 1892.53 1.16337 1.69278 0
M  V30 19561 H 1890.76 -0.18508 3.86257 0
M  V30 19562 H 1892.45 0.187136 4.05468 0
M  V30 19563 H 1893.22 2.67056 4.04853 0
M  V30 19564 H 1889.1 1.48564 4.36406 0
M  V30 19565 H 1892.64 4.88182 4.98321 0
M  V30 19566 H 1888.54 3.68791 5.29777 0
M  V30 19567 H 1889.3 5.67503 5.89816 0
M  V30 19568 N 1891.97 -1.4484 0.62123 0
M  V30 19569 C 1893.38 -1.85568 0.205284 0
M  V30 19570 C 1893.73 -1.51963 -1.24104 0
M  V30 19571 O 1892.86 -0.952887 -1.94291 0
M  V30 19572 C 1893.45 -3.3682 0.365788 0
M  V30 19573 C 1892.01 -3.764 0.00442911 0
M  V30 19574 C 1891.16 -2.68736 0.683839 0
M  V30 19575 H 1894.11 -1.35447 0.827036 0
M  V30 19576 H 1894.13 -3.78411 -0.398123 0
M  V30 19577 H 1893.64 -3.61247 1.41853 0
M  V30 19578 H 1891.74 -3.57588 -1.04696 0
M  V30 19579 H 1891.85 -4.77363 0.407588 0
M  V30 19580 H 1890.22 -2.54417 0.120114 0
M  V30 19581 H 1891 -2.95997 1.73898 0
M  V30 19582 N 1893.45 -0.361184 -1.53405 0
M  V30 19583 C 1894.38 0.479368 -2.28526 0
M  V30 19584 C 1895.36 1.08768 -1.3078 0
M  V30 19585 O 1896.54 1.10576 -1.59645 0
M  V30 19586 C 1893.67 1.6215 -3.07123 0
M  V30 19587 C 1892.63 1.14065 -4.12521 0
M  V30 19588 C 1891.95 2.37267 -4.79175 0
M  V30 19589 C 1893.25 0.228522 -5.218 0
M  V30 19590 H 1894.95 -0.147344 -2.99037 0
M  V30 19591 H 1892.49 -0.0723051 -1.43818 0
M  V30 19592 H 1894.45 2.21612 -3.58422 0
M  V30 19593 H 1893.17 2.27538 -2.34295 0
M  V30 19594 H 1891.83 0.568735 -3.62162 0
M  V30 19595 H 1891.48 3.01102 -4.02923 0
M  V30 19596 H 1891.18 2.05768 -5.50394 0
M  V30 19597 H 1892.7 2.97424 -5.33265 0
M  V30 19598 H 1894.11 0.730497 -5.68627 0
M  V30 19599 H 1892.51 0.00460259 -6.001 0
M  V30 19600 H 1893.58 -0.730537 -4.79365 0
M  V30 19601 N 1894.92 1.57341 -0.0902386 0
M  V30 19602 C 1896.34 1.57361 0.266413 0
M  V30 19603 C 1896.54 1.10104 1.68758 0
M  V30 19604 O 1895.6 0.775287 2.40303 0
M  V30 19605 C 1896.91 3.00642 0.0592661 0
M  V30 19606 C 1898.46 3.12741 0.127389 0
M  V30 19607 C 1898.93 4.57971 -0.0517042 0
M  V30 19608 N 1900.42 4.632 0.0032917 0
M  V30 19609 C 1901.16 5.73293 -0.110598 0
M  V30 19610 N 1900.65 6.92238 -0.279049 0
M  V30 19611 N 1902.45 5.62076 -0.0522147 0
M  V30 19612 H 1894.6 1.86369 -1.01884 0
M  V30 19613 H 1896.86 0.859996 -0.398886 0
M  V30 19614 H 1896.57 3.39396 -0.922117 0
M  V30 19615 H 1896.44 3.68539 0.80368 0
M  V30 19616 H 1898.83 2.73861 1.09927 0
M  V30 19617 H 1898.91 2.47445 -0.648435 0
M  V30 19618 H 1898.55 4.97544 -1.02043 0
M  V30 19619 H 1898.48 5.21321 0.743753 0
M  V30 19620 H 1900.97 3.77672 0.131145 0
M  V30 19621 H 1901.29 7.71972 -0.357596 0
M  V30 19622 H 1899.63 6.94287 -0.314653 0
M  V30 19623 H 1902.82 4.68035 0.0782189 0
M  V30 19624 H 1903 6.47839 -0.144423 0
M  V30 19625 N 1896.4 -0.183431 1.56529 0
M  V30 19626 C 1897.31 -1.24746 1.98684 0
M  V30 19627 C 1898.33 -1.49139 0.8963 0
M  V30 19628 O 1899.5 -1.61525 1.20298 0
M  V30 19629 C 1896.57 -2.56927 2.32786 0
M  V30 19630 C 1895.63 -2.40503 3.55607 0
M  V30 19631 C 1894.86 -3.66381 3.88073 0
M  V30 19632 O 1895.09 -4.71048 3.21668 0
M  V30 19633 O 1894.02 -3.61214 4.81465 0
M  V30 19634 H 1897.85 -0.919676 2.8944 0
M  V30 19635 H 1895.43 -0.389352 1.44237 0
M  V30 19636 H 1897.31 -3.34923 2.55744 0
M  V30 19637 H 1895.99 -2.89309 1.45196 0
M  V30 19638 H 1894.9 -1.6058 3.37883 0
M  V30 19639 H 1896.23 -2.1305 4.43701 0
M  V30 19640 N 1897.88 -1.50992 -0.451564 0
M  V30 19641 C 1898.84 -1.70703 -1.52949 0
M  V30 19642 C 1899.84 -0.577275 -1.50081 0
M  V30 19643 O 1901.03 -0.844619 -1.52354 0
M  V30 19644 C 1898.17 -1.75035 -2.92533 0
M  V30 19645 H 1899.36 -2.66891 -1.36782 0
M  V30 19646 H 1896.91 -1.40767 -0.679285 0
M  V30 19647 H 1897.65 -0.806096 -3.14122 0
M  V30 19648 H 1897.43 -2.57126 -2.96021 0
M  V30 19649 H 1898.92 -1.92171 -3.70756 0
M  V30 19650 N 1899.36 0.706069 -1.40899 0
M  V30 19651 C 1900.31 1.82011 -1.41918 0
M  V30 19652 C 1901.28 1.6381 -0.274879 0
M  V30 19653 O 1902.46 1.84809 -0.474366 0
M  V30 19654 C 1899.6 3.19805 -1.29687 0
M  V30 19655 C 1898.71 3.49512 -2.53901 0
M  V30 19656 C 1897.85 4.76863 -2.34041 0
M  V30 19657 C 1896.89 4.99504 -3.53783 0
M  V30 19658 N 1896.02 6.18074 -3.33059 0
M  V30 19659 H 1900.86 1.80474 -2.37135 0
M  V30 19660 H 1898.4 0.881471 -1.17765 0
M  V30 19661 H 1900.36 3.99389 -1.206 0
M  V30 19662 H 1898.99 3.20546 -0.380837 0
M  V30 19663 H 1898.04 2.64411 -2.73479 0
M  V30 19664 H 1899.35 3.62147 -3.43002 0
M  V30 19665 H 1898.51 5.64482 -2.22361 0
M  V30 19666 H 1897.25 4.66454 -1.42379 0
M  V30 19667 H 1896.25 4.10336 -3.65929 0
M  V30 19668 H 1897.48 5.11779 -4.46385 0
M  V30 19669 H 1895.42 6.08898 -2.44088 0
M  V30 19670 H 1895.34 6.3143 -4.15731 0
M  V30 19671 H 1896.61 7.08456 -3.25131 0
M  V30 19672 N 1900.84 1.26553 0.939264 0
M  V30 19673 C 1902.11 1.02956 1.66312 0
M  V30 19674 C 1902.49 -0.439417 2.06476 0
M  V30 19675 O 1901.84 -1.42019 1.79005 0
M  V30 19676 C 1902.05 1.98013 2.87388 0
M  V30 19677 C 1903.4 2.26732 3.58996 0
M  V30 19678 O 1904.42 1.95894 2.97496 0
M  V30 19679 O 1903.28 2.79244 4.69771 0
M  V30 19680 H 1900.38 0.391621 0.728397 0
M  V30 19681 H 1902.92 1.37771 0.990824 0
M  V30 19682 H 1901.69 2.97133 2.54613 0
M  V30 19683 H 1901.32 1.63689 3.62342 0
M  V30 19684 N 1902.31 -1.14411 1.08387 0
M  V30 19685 C 1903.24 -2.21619 0.735327 0
M  V30 19686 C 1904.23 -1.67744 -0.282132 0
M  V30 19687 O 1905.41 -1.936 -0.152547 0
M  V30 19688 C 1902.54 -3.47003 0.143628 0
M  V30 19689 C 1901.49 -4.13903 1.08941 0
M  V30 19690 C 1900.82 -5.33487 0.359941 0
M  V30 19691 C 1902.12 -4.62463 2.42746 0
M  V30 19692 H 1903.81 -2.51031 1.63168 0
M  V30 19693 H 1901.36 -1.20658 0.785981 0
M  V30 19694 H 1903.31 -4.21251 -0.112217 0
M  V30 19695 H 1902.04 -3.16955 -0.787856 0
M  V30 19696 H 1900.7 -3.4161 1.33035 0
M  V30 19697 H 1900.34 -4.99699 -0.57534 0
M  V30 19698 H 1900.04 -5.79192 0.990451 0
M  V30 19699 H 1901.57 -6.10497 0.112145 0
M  V30 19700 H 1902.98 -5.28185 2.22919 0
M  V30 19701 H 1901.38 -5.18869 3.01488 0
M  V30 19702 H 1902.45 -3.77542 3.04286 0
M  V30 19703 N 1903.79 -0.869509 -1.31443 0
M  V30 19704 C 1904.74 -0.296524 -2.26064 0
M  V30 19705 C 1905.73 0.566171 -1.5061 0
M  V30 19706 O 1906.92 0.413124 -1.72111 0
M  V30 19707 C 1904.05 0.501397 -3.39619 0
M  V30 19708 C 1903.13 -0.374516 -4.22443 0
M  V30 19709 N 1903.52 -1.46777 -4.84035 0
M  V30 19710 C 1901.82 -0.16687 -4.45688 0
M  V30 19711 C 1902.52 -2.00787 -5.45948 0
M  V30 19712 N 1901.5 -1.30494 -5.27705 0
M  V30 19713 H 1905.3 -1.1321 -2.71221 0
M  V30 19714 H 1902.82 -0.71722 -1.45704 0
M  V30 19715 H 1904.81 0.928409 -4.06431 0
M  V30 19716 H 1903.47 1.33459 -2.96005 0
M  V30 19717 H 1904.48 -1.85069 -4.83704 0
M  V30 19718 H 1901.16 0.630411 -4.12713 0
M  V30 19719 H 1902.55 -2.9251 -6.04887 0
M  V30 19720 N 1905.27 1.44508 -0.628902 0
M  V30 19721 C 1906.5 2.06429 -0.13951 0
M  V30 19722 C 1906.91 1.46981 1.18499 0
M  V30 19723 O 1906.27 0.591856 1.72636 0
M  V30 19724 C 1906.32 3.61496 -0.016195 0
M  V30 19725 O 1906.04 4.18729 -1.28831 0
M  V30 19726 C 1907.54 4.40447 0.502154 0
M  V30 19727 H 1904.76 0.666375 -0.0786479 0
M  V30 19728 H 1907.31 1.85414 -0.862674 0
M  V30 19729 H 1905.46 3.81781 0.657398 0
M  V30 19730 H 1905.88 5.12145 -1.13171 0
M  V30 19731 H 1907.35 5.49377 0.537458 0
M  V30 19732 H 1907.83 4.11735 1.52876 0
M  V30 19733 H 1908.43 4.25076 -0.138113 0
M  V30 19734 N 1906.75 0.369315 1.53212 0
M  V30 19735 C 1907.71 -0.463128 2.24472 0
M  V30 19736 C 1908.71 -1.00667 1.2539 0
M  V30 19737 O 1909.9 -0.891832 1.4964 0
M  V30 19738 C 1907.03 -1.6477 2.98435 0
M  V30 19739 H 1908.23 0.160479 2.9947 0
M  V30 19740 H 1905.78 0.121068 1.5583 0
M  V30 19741 H 1906.52 -2.30929 2.27689 0
M  V30 19742 H 1906.3 -1.26487 3.71138 0
M  V30 19743 H 1907.79 -2.23753 3.52596 0
M  V30 19744 N 1908.23 -1.57291 0.0985816 0
M  V30 19745 C 1909.16 -2.17239 -0.856131 0
M  V30 19746 C 1910.14 -1.10669 -1.29176 0
M  V30 19747 O 1911.32 -1.38821 -1.35803 0
M  V30 19748 C 1908.45 -2.75551 -2.11398 0
M  V30 19749 C 1907.41 -3.87524 -1.81685 0
M  V30 19750 C 1906.73 -4.32553 -3.14327 0
M  V30 19751 C 1908.03 -5.10562 -1.10108 0
M  V30 19752 H 1909.73 -2.97268 -0.356657 0
M  V30 19753 H 1907.27 -1.42992 -0.170108 0
M  V30 19754 H 1909.23 -3.16141 -2.78627 0
M  V30 19755 H 1907.95 -1.92781 -2.63634 0
M  V30 19756 H 1906.61 -3.47478 -1.16853 0
M  V30 19757 H 1906.26 -3.46669 -3.64458 0
M  V30 19758 H 1905.96 -5.08049 -2.95228 0
M  V30 19759 H 1907.48 -4.7578 -3.82709 0
M  V30 19760 H 1908.9 -5.483 -1.67453 0
M  V30 19761 H 1907.29 -5.91509 -1.01176 0
M  V30 19762 H 1908.36 -4.84827 -0.0844041 0
M  V30 19763 N 1909.71 0.175127 -1.56624 0
M  V30 19764 C 1910.66 1.22142 -1.92523 0
M  V30 19765 C 1911.64 1.39995 -0.793112 0
M  V30 19766 O 1912.83 1.4203 -1.05625 0
M  V30 19767 C 1909.96 2.56174 -2.28538 0
M  V30 19768 C 1909.05 2.42031 -3.48255 0
M  V30 19769 N 1909.44 1.97597 -4.65606 0
M  V30 19770 C 1907.74 2.72869 -3.52787 0
M  V30 19771 C 1908.44 1.95826 -5.47747 0
M  V30 19772 N 1907.41 2.38086 -4.88688 0
M  V30 19773 H 1911.21 0.869519 -2.80743 0
M  V30 19774 H 1908.73 0.383427 -1.57809 0
M  V30 19775 H 1910.73 3.31775 -2.5245 0
M  V30 19776 H 1909.39 2.92171 -1.41656 0
M  V30 19777 H 1910.4 1.67994 -4.89896 0
M  V30 19778 H 1907.07 3.12929 -2.76373 0
M  V30 19779 H 1908.46 1.63202 -6.51778 0
M  V30 19780 N 1911.18 1.5123 0.44355 0
M  V30 19781 C 1912.43 1.62825 1.19041 0
M  V30 19782 C 1912.75 0.347298 1.92492 0
M  V30 19783 O 1913.95 0.342537 2.69331 0
M  V30 19784 C 1912.41 2.87532 2.16456 0
M  V30 19785 C 1912.02 4.22608 1.48682 0
M  V30 19786 C 1913.76 3.08483 2.91614 0
M  V30 19787 C 1911.67 5.38472 2.44544 0
M  V30 19788 H 1910.6 0.606444 0.448041 0
M  V30 19789 H 1913.25 1.77691 0.458065 0
M  V30 19790 H 1911.63 2.66287 2.931 0
M  V30 19791 H 1912.8 4.54212 0.776389 0
M  V30 19792 H 1911.12 4.07485 0.857007 0
M  V30 19793 H 1913.72 3.92219 3.63413 0
M  V30 19794 H 1914.06 2.2131 3.52601 0
M  V30 19795 H 1914.59 3.30039 2.22078 0
M  V30 19796 H 1911.33 6.27886 1.88255 0
M  V30 19797 H 1910.85 5.11252 3.13658 0
M  V30 19798 H 1912.53 5.70169 3.05804 0
M  V30 19799 N 1912.66 -0.698586 1.41271 0
M  V30 19800 C 1913.91 -1.45573 1.40189 0
M  V30 19801 C 1914.23 -1.94997 0.0108379 0
M  V30 19802 O 1913.5 -1.715 -0.946822 0
M  V30 19803 H 1912.08 -0.540134 0.516008 0
M  V30 19804 H 1914.74 -0.827048 1.76482 0
M  V30 19805 H 1913.84 -2.32036 2.08724 0
M  V30 19806 N 1914.14 -1.27049 -0.93254 0
M  V30 19807 C 1915.55 -1.11887 -1.49459 0
M  V30 19808 C 1915.9 0.297825 -1.93926 0
M  V30 19809 O 1915.03 1.19024 -1.80727 0
M  V30 19810 C 1915.62 -2.02497 -2.71626 0
M  V30 19811 C 1914.18 -1.91455 -3.24071 0
M  V30 19812 C 1913.33 -1.95337 -1.96821 0
M  V30 19813 H 1916.28 -1.40013 -0.747138 0
M  V30 19814 H 1916.3 -1.57794 -3.46239 0
M  V30 19815 H 1915.81 -3.05598 -2.39231 0
M  V30 19816 H 1913.91 -0.913212 -3.61236 0
M  V30 19817 H 1914.03 -2.77443 -3.90592 0
M  V30 19818 H 1912.39 -1.395 -2.13101 0
M  V30 19819 H 1913.17 -3.00084 -1.66746 0
M  V30 19820 N 1915.62 1.13835 -1.08993 0
M  V30 19821 C 1917.03 1.36999 -0.81874 0
M  V30 19822 C 1917.23 1.93296 0.569102 0
M  V30 19823 O 1916.29 2.14954 1.3248 0
M  V30 19824 C 1917.6 2.3255 -1.90634 0
M  V30 19825 C 1919.15 2.46175 -1.93305 0
M  V30 19826 C 1919.63 3.4503 -3.01195 0
M  V30 19827 N 1921.12 3.52577 -3.00406 0
M  V30 19828 C 1921.85 4.28934 -3.8053 0
M  V30 19829 N 1921.35 5.08484 -4.70549 0
M  V30 19830 N 1923.14 4.24191 -3.68807 0
M  V30 19831 H 1915.29 0.756425 -1.98474 0
M  V30 19832 H 1917.55 0.395302 -0.86165 0
M  V30 19833 H 1917.26 1.98331 -2.90444 0
M  V30 19834 H 1917.13 3.32519 -1.78076 0
M  V30 19835 H 1919.52 2.79683 -0.941359 0
M  V30 19836 H 1919.6 1.46146 -2.0994 0
M  V30 19837 H 1919.25 3.12254 -4.00574 0
M  V30 19838 H 1919.18 4.44853 -2.81803 0
M  V30 19839 H 1921.67 2.95814 -2.35165 0
M  V30 19840 H 1921.98 5.6404 -5.28279 0
M  V30 19841 H 1920.33 5.07732 -4.74588 0
M  V30 19842 H 1923.52 3.61118 -2.97844 0
M  V30 19843 H 1923.69 4.83447 -4.31489 0
M  V30 19844 N 1917.1 0.876467 1.3098 0
M  V30 19845 C 1918.06 0.341893 2.26636 0
M  V30 19846 C 1919.06 -0.510816 1.52471 0
M  V30 19847 O 1920.25 -0.31919 1.71251 0
M  V30 19848 C 1917.38 -0.513725 3.37007 0
M  V30 19849 H 1918.57 1.18642 2.75434 0
M  V30 19850 H 1916.13 0.652602 1.42024 0
M  V30 19851 H 1916.86 -1.37919 2.93511 0
M  V30 19852 H 1916.65 0.0969443 3.9198 0
M  V30 19853 H 1918.14 -0.87981 4.08227 0
M  V30 19854 N 1918.57 -1.44173 0.636557 0
M  V30 19855 C 1919.5 -2.33442 -0.0518719 0
M  V30 19856 C 1920.48 -1.48519 -0.829226 0
M  V30 19857 O 1921.67 -1.77225 -0.794028 0
M  V30 19858 C 1918.8 -3.31663 -1.03038 0
M  V30 19859 C 1917.75 -4.26447 -0.364286 0
M  V30 19860 C 1917.08 -5.14577 -1.45308 0
M  V30 19861 C 1918.38 -5.17133 0.732884 0
M  V30 19862 H 1920.07 -2.91255 0.693589 0
M  V30 19863 H 1917.62 -1.40049 0.33499 0
M  V30 19864 H 1919.57 -3.93002 -1.52077 0
M  V30 19865 H 1918.3 -2.72071 -1.80679 0
M  V30 19866 H 1916.96 -3.66448 0.105505 0
M  V30 19867 H 1916.6 -4.51334 -2.22051 0
M  V30 19868 H 1916.3 -5.78807 -1.01274 0
M  V30 19869 H 1917.83 -5.78788 -1.94517 0
M  V30 19870 H 1919.24 -5.72376 0.325363 0
M  V30 19871 H 1917.64 -5.89994 1.09669 0
M  V30 19872 H 1918.71 -4.5782 1.59779 0
M  V30 19873 N 1920.05 -0.377435 -1.53014 0
M  V30 19874 C 1921.28 0.211512 -2.06319 0
M  V30 19875 C 1921.7 1.40713 -1.24825 0
M  V30 19876 O 1921.06 1.79274 -0.270279 0
M  V30 19877 C 1921.11 0.571512 -3.56042 0
M  V30 19878 O 1920.21 1.66713 -3.77201 0
M  V30 19879 H 1919.55 0.0279862 -0.66341 0
M  V30 19880 H 1922.08 -0.541471 -1.97305 0
M  V30 19881 H 1922.09 0.839182 -3.99277 0
M  V30 19882 H 1920.77 -0.302672 -4.14797 0
M  V30 19883 H 1919.34 1.3941 -3.4586 0
M  V30 19884 N 1921.53 1.57237 -0.106922 0
M  V30 19885 C 1922.48 2.14668 0.847728 0
M  V30 19886 C 1923.45 1.06838 1.2718 0
M  V30 19887 O 1924.63 1.34686 1.35146 0
M  V30 19888 C 1921.77 2.74079 2.09702 0
M  V30 19889 C 1920.89 3.96178 1.7224 0
M  V30 19890 C 1920.02 4.43715 2.92045 0
M  V30 19891 C 1919.06 5.58375 2.50766 0
M  V30 19892 N 1918.2 6.00711 3.63443 0
M  V30 19893 H 1923.04 2.95924 0.351133 0
M  V30 19894 H 1920.57 1.46209 0.161636 0
M  V30 19895 H 1922.53 3.06649 2.82882 0
M  V30 19896 H 1921.16 1.95532 2.56841 0
M  V30 19897 H 1920.21 3.69846 0.889819 0
M  V30 19898 H 1921.53 4.7936 1.37896 0
M  V30 19899 H 1920.68 4.78131 3.73464 0
M  V30 19900 H 1919.42 3.59458 3.29607 0
M  V30 19901 H 1918.42 5.23576 1.67776 0
M  V30 19902 H 1919.65 6.4439 2.14334 0
M  V30 19903 H 1917.59 5.19397 4.00702 0
M  V30 19904 H 1917.51 6.78718 3.32983 0
M  V30 19905 H 1918.78 6.39761 4.45338 0
M  V30 19906 N 1923.01 -0.166818 1.56715 0
M  V30 19907 C 1923.97 -1.19027 1.95871 0
M  V30 19908 C 1924.97 -1.36939 0.842877 0
M  V30 19909 O 1926.16 -1.34268 1.10985 0
M  V30 19910 C 1923.29 -2.55446 2.25743 0
M  V30 19911 H 1924.49 -0.854834 2.87459 0
M  V30 19912 H 1922.04 -0.409436 1.50842 0
M  V30 19913 H 1922.77 -2.93996 1.36884 0
M  V30 19914 H 1922.56 -2.4381 3.07081 0
M  V30 19915 H 1924.05 -3.29196 2.56943 0
M  V30 19916 N 1924.49 -1.51463 -0.435524 0
M  V30 19917 C 1925.73 -1.65881 -1.19427 0
M  V30 19918 C 1926.09 -0.367896 -1.88442 0
M  V30 19919 O 1927.29 -0.387877 -2.65987 0
M  V30 19920 C 1925.56 -2.83001 -2.18278 0
M  V30 19921 S 1927.12 -3.17758 -3.02614 0
M  V30 19922 H 1923.94 -0.584398 -0.404969 0
M  V30 19923 H 1926.54 -1.89374 -0.485553 0
M  V30 19924 H 1925.25 -3.75233 -1.66217 0
M  V30 19925 H 1924.78 -2.61702 -2.93727 0
M  V30 19926 H 1926.79 -2.64333 -4.19932 0
M  V30 19927 N 1925.96 0.691085 -1.4164 0
M  V30 19928 C 1926.91 1.82625 -1.44051 0
M  V30 19929 C 1927.91 1.66388 -0.318032 0
M  V30 19930 O 1929.11 1.73194 -0.490276 0
M  V30 19931 H 1925.49 0.601889 -0.450815 0
M  V30 19932 H 1927.46 1.77709 -2.39713 0
M  V30 19933 C 1926.21 3.20676 -1.34395 0
M  V30 19934 H 1925.53 3.3379 -2.20056 0
M  V30 19935 H 1926.97 4.0017 -1.40143 0
M  V30 19936 C 1925.43 3.36852 -0.0568027 0
M  V30 19937 O 1925.96 3.91562 0.896762 0
M  V30 19938 N 1924.17 2.90593 0.0207452 0
M  V30 19939 H 1923.71 2.46257 -0.755995 0
M  V30 19940 H 1923.67 3.01794 0.88136 0
M  V30 19941 N 1927.44 1.27542 0.925789 0
M  V30 19942 C 1928.69 1.13375 1.6682 0
M  V30 19943 C 1929 -0.319507 1.92973 0
M  V30 19944 O 1930.21 -0.582109 2.65186 0
M  V30 19945 C 1928.67 1.98111 3.00466 0
M  V30 19946 C 1928.27 3.48105 2.82005 0
M  V30 19947 C 1930.02 1.92597 3.78294 0
M  V30 19948 C 1927.93 4.25034 4.11218 0
M  V30 19949 H 1926.86 0.420697 0.625724 0
M  V30 19950 H 1929.51 1.51978 1.02835 0
M  V30 19951 H 1927.89 1.52354 3.65519 0
M  V30 19952 H 1929.06 4.01737 2.25707 0
M  V30 19953 H 1927.38 3.55018 2.17604 0
M  V30 19954 H 1929.97 2.47348 4.74049 0
M  V30 19955 H 1930.32 0.900028 4.06454 0
M  V30 19956 H 1930.85 2.3626 3.20041 0
M  V30 19957 H 1927.59 5.2816 3.88236 0
M  V30 19958 H 1927.11 3.76178 4.67173 0
M  V30 19959 H 1928.79 4.3431 4.79566 0
M  V30 19960 N 1928.92 -1.13255 1.09595 0
M  V30 19961 C 1930.15 -1.88952 0.855104 0
M  V30 19962 C 1930.57 -1.78668 -0.588174 0
M  V30 19963 O 1929.93 -1.13544 -1.41341 0
M  V30 19964 C 1929.98 -3.36461 1.29717 0
M  V30 19965 O 1929.08 -4.09863 0.456717 0
M  V30 19966 H 1928.42 -0.587432 0.309547 0
M  V30 19967 H 1930.95 -1.43282 1.46053 0
M  V30 19968 H 1930.96 -3.87291 1.28333 0
M  V30 19969 H 1929.64 -3.43263 2.34826 0
M  V30 19970 H 1928.21 -3.69042 0.535026 0
M  V30 19971 N 1930.4 -0.883401 -1.30514 0
M  V30 19972 C 1931.33 -0.293631 -2.26303 0
M  V30 19973 C 1932.31 0.584908 -1.51715 0
M  V30 19974 O 1933.49 0.535352 -1.80738 0
M  V30 19975 C 1930.62 0.582932 -3.33646 0
M  V30 19976 C 1929.67 -0.226068 -4.259 0
M  V30 19977 S 1930.5 -1.61333 -5.10619 0
M  V30 19978 C 1931.66 -0.743252 -6.21471 0
M  V30 19979 H 1931.89 -1.10559 -2.75978 0
M  V30 19980 H 1929.42 -0.682729 -1.38485 0
M  V30 19981 H 1931.38 1.08294 -3.95958 0
M  V30 19982 H 1930.04 1.36897 -2.82698 0
M  V30 19983 H 1929.23 0.442796 -5.02051 0
M  V30 19984 H 1928.84 -0.65864 -3.68155 0
M  V30 19985 H 1931.13 0.0404453 -6.77488 0
M  V30 19986 H 1932.07 -1.47631 -6.92539 0
M  V30 19987 H 1932.48 -0.304852 -5.63676 0
M  V30 19988 N 1931.88 1.43833 -0.644194 0
M  V30 19989 C 1932.81 2.29017 0.0914574 0
M  V30 19990 C 1933.82 1.4201 0.79605 0
M  V30 19991 O 1935.01 1.66036 0.655313 0
M  V30 19992 C 1932.11 3.18711 1.15225 0
M  V30 19993 C 1931.28 4.34206 0.527588 0
M  V30 19994 C 1930.34 5.04839 1.48406 0
M  V30 19995 O 1929.37 5.60416 0.996143 0
M  V30 19996 N 1930.57 5.075 2.81822 0
M  V30 19997 H 1933.34 2.92794 -0.639656 0
M  V30 19998 H 1930.9 1.54424 -0.486308 0
M  V30 19999 H 1932.89 3.62827 1.79272 0
M  V30 20000 H 1931.46 2.56595 1.78543 0
M  V30 20001 H 1930.68 3.93119 -0.291782 0
M  V30 20002 H 1931.97 5.08718 0.091139 0
M  V30 20003 H 1931.36 4.63703 3.24031 0
M  V30 20004 H 1929.92 5.55364 3.41195 0
M  V30 20005 N 1933.35 0.385544 1.52811 0
M  V30 20006 C 1934.29 -0.486433 2.23979 0
M  V30 20007 C 1935.3 -1.02981 1.2609 0
M  V30 20008 O 1936.49 -0.932779 1.52189 0
M  V30 20009 C 1933.59 -1.68645 2.93959 0
M  V30 20010 C 1932.76 -1.2711 4.18523 0
M  V30 20011 C 1931.82 -2.33538 4.71536 0
M  V30 20012 O 1930.85 -1.95101 5.34719 0
M  V30 20013 N 1932.05 -3.65401 4.51068 0
M  V30 20014 H 1934.81 0.12327 2.99446 0
M  V30 20015 H 1932.37 0.211712 1.6051 0
M  V30 20016 H 1934.37 -2.3936 3.26326 0
M  V30 20017 H 1932.94 -2.20257 2.21823 0
M  V30 20018 H 1932.16 -0.392983 3.92236 0
M  V30 20019 H 1933.44 -0.970192 4.99464 0
M  V30 20020 H 1932.84 -3.99393 4.00626 0
M  V30 20021 H 1931.4 -4.32162 4.87934 0
M  V30 20022 N 1934.83 -1.57178 0.115259 0
M  V30 20023 C 1935.8 -2.13953 -0.821982 0
M  V30 20024 C 1936.8 -1.07352 -1.19717 0
M  V30 20025 O 1937.99 -1.33146 -1.12329 0
M  V30 20026 C 1935.12 -2.6767 -2.11106 0
M  V30 20027 H 1936.31 -2.98094 -0.328631 0
M  V30 20028 H 1933.86 -1.55725 -0.133942 0
M  V30 20029 H 1934.6 -1.87106 -2.6488 0
M  V30 20030 H 1934.38 -3.4563 -1.85155 0
M  V30 20031 H 1935.87 -3.11519 -2.78111 0
M  V30 20032 N 1936.31 0.158505 -1.56801 0
M  V30 20033 C 1937.73 0.510743 -1.51207 0
M  V30 20034 C 1937.93 1.83983 -0.821733 0
M  V30 20035 O 1936.98 2.4951 -0.387444 0
M  V30 20036 C 1938.3 0.531668 -2.95962 0
M  V30 20037 C 1939.84 0.617983 -3.06839 0
M  V30 20038 C 1940.32 0.66968 -4.53078 0
M  V30 20039 N 1941.81 0.73222 -4.57376 0
M  V30 20040 C 1942.55 0.793011 -5.6789 0
M  V30 20041 N 1942.04 0.81385 -6.88003 0
M  V30 20042 N 1943.83 0.833013 -5.55893 0
M  V30 20043 H 1935.99 -0.712841 -2.00081 0
M  V30 20044 H 1938.25 -0.258572 -0.912055 0
M  V30 20045 H 1937.95 -0.376495 -3.49679 0
M  V30 20046 H 1937.83 1.37366 -3.51298 0
M  V30 20047 H 1940.22 1.51657 -2.53149 0
M  V30 20048 H 1940.3 -0.250933 -2.54566 0
M  V30 20049 H 1939.94 -0.2247 -5.07403 0
M  V30 20050 H 1939.87 1.55492 -5.0312 0
M  V30 20051 H 1942.36 0.72388 -3.70902 0
M  V30 20052 H 1942.67 0.861766 -7.6798 0
M  V30 20053 H 1941.02 0.781915 -6.90587 0
M  V30 20054 H 1944.21 0.813822 -4.60971 0
M  V30 20055 H 1944.38 0.876926 -6.42039 0
M  V30 20056 N 1937.79 1.51692 0.427485 0
M  V30 20057 C 1938.7 1.76576 1.5446 0
M  V30 20058 C 1939.72 0.650421 1.61386 0
M  V30 20059 O 1940.89 0.933787 1.78444 0
M  V30 20060 C 1937.96 1.89451 2.90361 0
M  V30 20061 C 1937.02 3.13326 2.93471 0
M  V30 20062 C 1936.25 3.25577 4.22889 0
M  V30 20063 O 1936.47 2.43528 5.15801 0
M  V30 20064 O 1935.41 4.18618 4.32484 0
M  V30 20065 H 1939.23 2.7136 1.36373 0
M  V30 20066 H 1936.82 1.36312 0.611496 0
M  V30 20067 H 1938.7 1.99848 3.70997 0
M  V30 20068 H 1937.38 0.978556 3.08555 0
M  V30 20069 H 1936.28 3.08401 2.11754 0
M  V30 20070 H 1937.62 4.04643 2.80223 0
M  V30 20071 N 1939.27 -0.683564 1.42004 0
M  V30 20072 C 1940.51 -1.44577 1.42216 0
M  V30 20073 C 1940.85 -1.94168 0.0352735 0
M  V30 20074 O 1940.12 -1.70331 -0.939023 0
M  V30 20075 C 1940.4 -2.64909 2.43916 0
M  V30 20076 C 1940.26 -2.21006 3.9176 0
M  V30 20077 C 1941.58 -3.6712 2.42716 0
M  V30 20078 H 1938.7 -0.524376 0.517879 0
M  V30 20079 H 1941.34 -0.777575 1.7336 0
M  V30 20080 H 1939.49 -3.21918 2.17489 0
M  V30 20081 H 1941.16 -1.69233 4.29136 0
M  V30 20082 H 1939.4 -1.52667 4.06048 0
M  V30 20083 H 1940.07 -3.07401 4.58485 0
M  V30 20084 H 1942.55 -3.1981 2.66197 0
M  V30 20085 H 1941.43 -4.48907 3.15869 0
M  V30 20086 H 1941.69 -4.17645 1.45 0
M  V30 20087 N 1940.75 -1.28031 -0.919012 0
M  V30 20088 C 1941.99 -1.15048 -1.67008 0
M  V30 20089 C 1942.32 0.301301 -1.91848 0
M  V30 20090 O 1941.6 1.21964 -1.51509 0
M  V30 20091 C 1941.88 -1.94388 -3.03126 0
M  V30 20092 C 1941.74 -3.476 -2.85473 0
M  V30 20093 C 1943.05 -1.75517 -4.03586 0
M  V30 20094 H 1940.17 -0.419311 -0.606091 0
M  V30 20095 H 1942.82 -1.57287 -1.06587 0
M  V30 20096 H 1940.97 -1.58493 -3.547 0
M  V30 20097 H 1942.64 -3.93372 -2.40949 0
M  V30 20098 H 1940.88 -3.73499 -2.20637 0
M  V30 20099 H 1941.55 -3.98365 -3.82111 0
M  V30 20100 H 1944.03 -2.06832 -3.61054 0
M  V30 20101 H 1942.9 -2.33411 -4.968 0
M  V30 20102 H 1943.16 -0.705309 -4.36438 0
M  V30 20103 N 1942.22 1.12672 -1.10194 0
M  V30 20104 C 1943.16 2.18045 -0.706344 0
M  V30 20105 C 1944.17 1.60779 0.25571 0
M  V30 20106 O 1945.36 1.78454 0.0405568 0
M  V30 20107 C 1942.46 3.38893 -0.021273 0
M  V30 20108 C 1941.63 4.25654 -1.00687 0
M  V30 20109 C 1940.69 5.2501 -0.353745 0
M  V30 20110 O 1939.72 5.60279 -1.00378 0
M  V30 20111 N 1940.92 5.73655 0.888851 0
M  V30 20112 H 1943.68 2.52596 -1.61293 0
M  V30 20113 H 1941.24 1.28071 -0.990431 0
M  V30 20114 H 1943.24 4.0244 0.427064 0
M  V30 20115 H 1941.81 3.02513 0.787681 0
M  V30 20116 H 1941.03 3.5876 -1.63354 0
M  V30 20117 H 1942.31 4.8047 -1.67411 0
M  V30 20118 H 1941.71 5.4716 1.43638 0
M  V30 20119 H 1940.27 6.39101 1.28038 0
M  V30 20120 N 1943.7 0.89031 1.30043 0
M  V30 20121 C 1944.93 0.526566 2.00087 0
M  V30 20122 C 1945.34 -0.88632 1.66703 0
M  V30 20123 O 1944.7 -1.58365 0.907012 0
M  V30 20124 C 1944.75 0.698102 3.54695 0
M  V30 20125 O 1944.47 2.05537 3.86893 0
M  V30 20126 C 1945.97 0.338058 4.42009 0
M  V30 20127 H 1943.19 0.20299 0.639559 0
M  V30 20128 H 1945.74 1.19708 1.65802 0
M  V30 20129 H 1943.89 0.0748931 3.87328 0
M  V30 20130 H 1944.31 2.07787 4.81586 0
M  V30 20131 H 1945.78 0.508957 5.49649 0
M  V30 20132 H 1946.26 -0.724284 4.33187 0
M  V30 20133 H 1946.86 0.937813 4.14831 0
M  V30 20134 N 1945.18 -1.43489 0.651812 0
M  V30 20135 C 1946.42 -2.03707 0.168214 0
M  V30 20136 C 1946.78 -1.50302 -1.19471 0
M  V30 20137 O 1947.98 -2.02154 -1.77164 0
M  V30 20138 C 1946.26 -3.56964 0.176447 0
M  V30 20139 S 1947.81 -4.38146 -0.239511 0
M  V30 20140 H 1944.63 -0.70742 0.0712573 0
M  V30 20141 H 1947.23 -1.75577 0.859833 0
M  V30 20142 H 1945.94 -3.93335 1.17115 0
M  V30 20143 H 1945.47 -3.89735 -0.535755 0
M  V30 20144 H 1947.48 -4.73654 -1.47874 0
M  V30 20145 N 1946.66 -0.393643 -1.52605 0
M  V30 20146 C 1948.07 0.0794242 -1.86531 0
M  V30 20147 C 1948.42 1.45778 -1.31313 0
M  V30 20148 O 1947.54 2.06526 -0.646206 0
M  V30 20149 C 1948.14 0.150899 -3.38464 0
M  V30 20150 C 1946.7 0.568268 -3.72086 0
M  V30 20151 C 1945.85 -0.267031 -2.76011 0
M  V30 20152 H 1948.8 -0.611344 -1.46452 0
M  V30 20153 H 1948.82 0.969194 -3.6795 0
M  V30 20154 H 1948.33 -0.852425 -3.78623 0
M  V30 20155 H 1946.43 1.5788 -3.37498 0
M  V30 20156 H 1946.54 0.323405 -4.78007 0
M  V30 20157 H 1944.91 0.268347 -2.53282 0
M  V30 20158 H 1945.69 -1.26841 -3.19008 0
M  V30 20159 N 1948.14 1.57115 -0.123593 0
M  V30 20160 C 1949.09 2.12114 0.836157 0
M  V30 20161 C 1950.07 1.04305 1.22512 0
M  V30 20162 O 1951.26 1.3053 1.19545 0
M  V30 20163 C 1948.39 2.72776 2.08442 0
M  V30 20164 C 1947.48 3.87673 1.71962 0
M  V30 20165 N 1947.87 4.9453 1.0618 0
M  V30 20166 C 1946.17 3.97942 2.0139 0
M  V30 20167 C 1946.87 5.74861 0.889393 0
M  V30 20168 N 1945.84 5.24838 1.41586 0
M  V30 20169 H 1949.64 2.92108 0.324092 0
M  V30 20170 H 1947.16 1.62209 0.0787292 0
M  V30 20171 H 1949.16 3.10525 2.78172 0
M  V30 20172 H 1947.82 1.94247 2.60188 0
M  V30 20173 H 1948.83 5.12797 0.725245 0
M  V30 20174 H 1945.5 3.30461 2.5515 0
M  V30 20175 H 1946.89 6.70866 0.372697 0
M  V30 20176 N 1949.61 -0.150187 1.56883 0
M  V30 20177 C 1950.85 -0.869587 1.8498 0
M  V30 20178 C 1951.22 -1.78491 0.707449 0
M  V30 20179 O 1952.42 -2.54352 0.869387 0
M  V30 20180 C 1950.69 -1.62639 3.1825 0
M  V30 20181 S 1952.25 -2.39165 3.67893 0
M  V30 20182 H 1949.07 -0.290853 0.648788 0
M  V30 20183 H 1951.67 -0.129797 1.95069 0
M  V30 20184 H 1950.37 -0.945372 3.99363 0
M  V30 20185 H 1949.9 -2.40715 3.11159 0
M  V30 20186 H 1951.92 -3.64294 3.36904 0
M  V30 20187 N 1951.09 -1.51916 -0.419434 0
M  V30 20188 C 1952.04 -1.75117 -1.5309 0
M  V30 20189 C 1953.03 -0.617961 -1.57726 0
M  V30 20190 O 1954.24 -0.79977 -1.61257 0
M  V30 20191 H 1950.62 -0.553609 -0.508941 0
M  V30 20192 H 1952.59 -2.68253 -1.30702 0
M  V30 20193 C 1951.34 -1.90958 -2.90569 0
M  V30 20194 H 1950.66 -2.77571 -2.8774 0
M  V30 20195 H 1952.1 -2.11196 -3.67658 0
M  V30 20196 C 1950.56 -0.673977 -3.3009 0
M  V30 20197 O 1951.09 0.163 -4.01369 0
M  V30 20198 N 1949.29 -0.512857 -2.86039 0
M  V30 20199 H 1948.84 -1.19505 -2.28202 0
M  V30 20200 H 1948.8 0.312589 -3.12842 0
M  V30 20201 N 1952.57 0.676023 -1.42365 0
M  V30 20202 C 1953.8 1.46937 -1.46371 0
M  V30 20203 C 1954.22 1.87946 -0.076099 0
M  V30 20204 O 1953.58 1.55917 0.925172 0
M  V30 20205 C 1953.63 2.69558 -2.39523 0
M  V30 20206 O 1952.73 3.67782 -1.86575 0
M  V30 20207 H 1952.07 0.441478 -0.495977 0
M  V30 20208 H 1954.6 0.829284 -1.8704 0
M  V30 20209 H 1954.61 3.17642 -2.56061 0
M  V30 20210 H 1953.29 2.39049 -3.40336 0
M  V30 20211 H 1951.86 3.26808 -1.79585 0
M  V30 20212 N 1954.05 1.28517 0.912209 0
M  V30 20213 C 1955.01 1.12594 1.99637 0
M  V30 20214 C 1956.01 0.0651449 1.60668 0
M  V30 20215 O 1957.2 0.311054 1.714 0
M  V30 20216 C 1954.33 0.719053 3.3323 0
M  V30 20217 H 1955.53 2.08884 2.15192 0
M  V30 20218 H 1953.08 1.11525 1.09508 0
M  V30 20219 H 1953.81 -0.244536 3.23377 0
M  V30 20220 H 1953.6 1.48536 3.62876 0
M  V30 20221 H 1955.09 0.630346 4.12815 0
M  V30 20222 N 1955.53 -1.12086 1.1079 0
M  V30 20223 C 1956.94 -1.65205 0.869718 0
M  V30 20224 C 1957.29 -1.86823 -0.599309 0
M  V30 20225 O 1956.41 -1.59743 -1.45983 0
M  V30 20226 C 1957.01 -3.00109 1.57226 0
M  V30 20227 C 1955.57 -3.50163 1.38068 0
M  V30 20228 C 1954.71 -2.2511 1.61928 0
M  V30 20229 H 1957.67 -0.958175 1.2651 0
M  V30 20230 H 1957.69 -3.66757 1.01337 0
M  V30 20231 H 1957.2 -2.84344 2.64141 0
M  V30 20232 H 1955.3 -3.71106 0.33333 0
M  V30 20233 H 1955.41 -4.29388 2.12515 0
M  V30 20234 H 1953.78 -2.32399 1.04224 0
M  V30 20235 H 1954.56 -2.11895 2.70103 0
M  V30 20236 N 1957 -0.897194 -1.29569 0
M  V30 20237 C 1957.97 -0.377906 -2.26063 0
M  V30 20238 C 1958.97 0.486495 -1.53264 0
M  V30 20239 O 1960.16 0.291905 -1.71737 0
M  V30 20240 C 1957.29 0.460046 -3.37782 0
M  V30 20241 H 1958.48 -1.23009 -2.73512 0
M  V30 20242 H 1956.04 -0.675114 -1.40968 0
M  V30 20243 H 1956.77 1.33232 -2.95668 0
M  V30 20244 H 1956.56 -0.159293 -3.91776 0
M  V30 20245 H 1958.05 0.814753 -4.09575 0
M  V30 20246 N 1958.48 1.43142 -0.659413 0
M  V30 20247 C 1959.41 2.33495 0.0147266 0
M  V30 20248 C 1960.39 1.49819 0.805493 0
M  V30 20249 O 1961.58 1.78466 0.765732 0
M  V30 20250 C 1958.71 3.33261 0.977483 0
M  V30 20251 C 1957.66 4.26972 0.296396 0
M  V30 20252 C 1956.99 5.16824 1.37103 0
M  V30 20253 C 1958.29 5.15901 -0.815063 0
M  V30 20254 H 1959.98 2.90115 -0.739837 0
M  V30 20255 H 1957.53 1.39499 -0.357229 0
M  V30 20256 H 1959.48 3.95372 1.45805 0
M  V30 20257 H 1958.21 2.74911 1.76328 0
M  V30 20258 H 1956.86 3.66234 -0.16379 0
M  V30 20259 H 1956.51 4.5481 2.14842 0
M  V30 20260 H 1956.21 5.80345 0.920528 0
M  V30 20261 H 1957.74 5.81809 1.85284 0
M  V30 20262 H 1959.15 5.71786 -0.416382 0
M  V30 20263 H 1957.55 5.88175 -1.19041 0
M  V30 20264 H 1958.62 4.5522 -1.67042 0
M  V30 20265 N 1959.96 0.40173 1.52394 0
M  V30 20266 C 1960.87 -0.434422 2.30543 0
M  V30 20267 C 1961.89 -1.06028 1.37964 0
M  V30 20268 O 1963.06 -1.0634 1.71037 0
M  V30 20269 C 1960.13 -1.53995 3.10623 0
M  V30 20270 C 1959.19 -0.93791 4.18929 0
M  V30 20271 C 1958.42 -1.99075 4.95182 0
M  V30 20272 O 1958.64 -3.20777 4.71655 0
M  V30 20273 O 1957.58 -1.60111 5.80214 0
M  V30 20274 H 1961.4 0.202567 3.03024 0
M  V30 20275 H 1958.99 0.165122 1.48485 0
M  V30 20276 H 1960.87 -2.18191 3.60514 0
M  V30 20277 H 1959.55 -2.16167 2.40943 0
M  V30 20278 H 1958.45 -0.25886 3.73203 0
M  V30 20279 H 1959.79 -0.360217 4.9088 0
M  V30 20280 N 1961.44 -1.57047 0.131923 0
M  V30 20281 C 1962.4 -2.14813 -0.799243 0
M  V30 20282 C 1963.4 -1.08616 -1.18572 0
M  V30 20283 O 1964.59 -1.3433 -1.10911 0
M  V30 20284 C 1961.72 -2.69894 -2.08255 0
M  V30 20285 H 1962.92 -2.98426 -0.296996 0
M  V30 20286 H 1960.47 -1.55858 -0.117418 0
M  V30 20287 H 1961.2 -1.89905 -2.62881 0
M  V30 20288 H 1960.99 -3.47574 -1.81479 0
M  V30 20289 H 1962.48 -3.14451 -2.74792 0
M  V30 20290 N 1962.92 0.141865 -1.5696 0
M  V30 20291 C 1964.16 0.851923 -1.83267 0
M  V30 20292 C 1964.49 1.81473 -0.713611 0
M  V30 20293 O 1963.76 1.94109 0.264326 0
M  V30 20294 H 1962.34 0.317594 -0.676124 0
M  V30 20295 H 1965 0.134643 -1.94434 0
M  V30 20296 H 1964.09 1.41106 -2.7838 0
M  V30 20297 N 1964.39 1.52136 0.411372 0
M  V30 20298 C 1965.64 1.66331 1.16025 0
M  V30 20299 C 1965.97 0.390981 1.90223 0
M  V30 20300 O 1965.25 -0.610512 1.8467 0
M  V30 20301 C 1965.53 2.88386 2.15651 0
M  V30 20302 C 1965.38 4.25664 1.45364 0
M  V30 20303 C 1966.7 3.05963 3.16346 0
M  V30 20304 H 1963.82 0.60531 0.420439 0
M  V30 20305 H 1966.46 1.84685 0.446247 0
M  V30 20306 H 1964.61 2.72869 2.76541 0
M  V30 20307 H 1966.29 4.52904 0.876105 0
M  V30 20308 H 1964.53 4.27168 0.75563 0
M  V30 20309 H 1965.2 5.07109 2.18047 0
M  V30 20310 H 1967.68 3.20363 2.65531 0
M  V30 20311 H 1966.55 3.92882 3.83321 0
M  V30 20312 H 1966.81 2.19177 3.83945 0
M  V30 20313 N 1965.87 -0.668464 1.42721 0
M  V30 20314 C 1966.82 -1.80311 1.46938 0
M  V30 20315 C 1967.82 -1.65861 0.344463 0
M  V30 20316 O 1969.02 -1.72392 0.517768 0
M  V30 20317 H 1965.4 -0.59464 0.460333 0
M  V30 20318 H 1967.37 -1.73872 2.4251 0
M  V30 20319 C 1966.12 -3.18498 1.3948 0
M  V30 20320 H 1965.44 -3.30246 2.25338 0
M  V30 20321 H 1966.88 -3.9789 1.46492 0
M  V30 20322 C 1965.34 -3.36719 0.110386 0
M  V30 20323 O 1965.87 -3.92939 -0.834354 0
M  V30 20324 N 1964.07 -2.90589 0.0254882 0
M  V30 20325 H 1963.62 -2.45023 0.795077 0
M  V30 20326 H 1963.58 -3.03158 -0.833236 0
M  V30 20327 N 1967.35 -1.28999 -0.905381 0
M  V30 20328 C 1968.76 -1.15033 -1.47052 0
M  V30 20329 C 1969.11 0.256623 -1.94514 0
M  V30 20330 O 1968.24 1.15164 -1.83211 0
M  V30 20331 C 1968.83 -2.08213 -2.67269 0
M  V30 20332 C 1967.39 -1.98286 -3.19937 0
M  V30 20333 C 1966.54 -1.99468 -1.92634 0
M  V30 20334 H 1969.49 -1.41566 -0.717271 0
M  V30 20335 H 1969.51 -1.65102 -3.42814 0
M  V30 20336 H 1969.02 -3.10604 -2.32695 0
M  V30 20337 H 1967.12 -0.98963 -3.59217 0
M  V30 20338 H 1967.24 -2.85666 -3.84619 0
M  V30 20339 H 1965.6 -1.43988 -2.10094 0
M  V30 20340 H 1966.38 -3.03554 -1.60344 0
M  V30 20341 N 1968.83 1.11497 -1.11383 0
M  V30 20342 C 1970.25 1.35232 -0.847616 0
M  V30 20343 C 1970.45 1.9446 0.527973 0
M  V30 20344 O 1969.5 2.17716 1.2789 0
M  V30 20345 C 1970.81 2.28454 -1.95523 0
M  V30 20346 C 1972.36 2.4202 -1.98483 0
M  V30 20347 C 1972.84 3.38563 -3.08446 0
M  V30 20348 N 1974.33 3.46126 -3.07817 0
M  V30 20349 C 1975.06 4.20766 -3.89542 0
M  V30 20350 N 1974.56 4.98388 -4.81229 0
M  V30 20351 N 1976.35 4.16272 -3.77722 0
M  V30 20352 H 1968.5 0.714156 -2.00034 0
M  V30 20353 H 1970.77 0.376936 -0.869841 0
M  V30 20354 H 1970.47 1.92126 -2.94586 0
M  V30 20355 H 1970.35 3.28667 -1.85089 0
M  V30 20356 H 1972.73 2.77623 -1.00047 0
M  V30 20357 H 1972.81 1.4166 -2.12993 0
M  V30 20358 H 1972.46 3.03687 -4.07107 0
M  V30 20359 H 1972.39 4.38776 -2.91176 0
M  V30 20360 H 1974.88 2.90759 -2.41387 0
M  V30 20361 H 1975.19 5.52708 -5.40124 0
M  V30 20362 H 1973.54 4.97551 -4.85251 0
M  V30 20363 H 1976.73 3.54719 -3.05437 0
M  V30 20364 H 1976.9 4.74186 -4.41647 0
M  V30 20365 N 1970.31 0.904053 1.29092 0
M  V30 20366 C 1971.56 0.531152 1.94995 0
M  V30 20367 C 1971.88 -0.926415 1.71588 0
M  V30 20368 O 1971.15 -1.65378 1.0501 0
M  V30 20369 H 1969.73 0.193439 0.721519 0
M  V30 20370 H 1972.39 1.1513 1.57262 0
M  V30 20371 H 1971.48 0.717412 3.03743 0
M  V30 20372 N 1971.79 -1.4279 0.666995 0
M  V30 20373 C 1972.72 -2.335 -0.00234362 0
M  V30 20374 C 1973.7 -1.50244 -0.797537 0
M  V30 20375 O 1974.88 -1.7887 -0.756257 0
M  V30 20376 C 1972.01 -3.33774 -0.959795 0
M  V30 20377 C 1970.97 -4.27124 -0.273749 0
M  V30 20378 C 1970.29 -5.17544 -1.3436 0
M  V30 20379 C 1971.59 -5.15462 0.842411 0
M  V30 20380 H 1973.29 -2.89719 0.755212 0
M  V30 20381 H 1970.83 -1.39307 0.364622 0
M  V30 20382 H 1972.78 -3.96139 -1.43707 0
M  V30 20383 H 1971.51 -2.75842 -1.74868 0
M  V30 20384 H 1970.17 -3.66142 0.18321 0
M  V30 20385 H 1969.82 -4.55943 -2.12427 0
M  V30 20386 H 1969.52 -5.80825 -0.889738 0
M  V30 20387 H 1971.04 -5.82784 -1.82196 0
M  V30 20388 H 1972.45 -5.71557 0.4467 0
M  V30 20389 H 1970.85 -5.87535 1.22158 0
M  V30 20390 H 1971.92 -4.54327 1.69454 0
M  V30 20391 N 1973.26 -0.409806 -1.52179 0
M  V30 20392 C 1974.51 0.16543 -2.01422 0
M  V30 20393 C 1974.83 1.45588 -1.29727 0
M  V30 20394 O 1974.1 1.9127 -0.423399 0
M  V30 20395 H 1972.68 0.0641237 -0.744243 0
M  V30 20396 H 1975.34 -0.546204 -1.8709 0
M  V30 20397 H 1974.44 0.361061 -3.10004 0
M  V30 20398 N 1974.74 1.56975 -0.14025 0
M  V30 20399 C 1976.15 1.82757 0.381688 0
M  V30 20400 C 1976.5 1.0586 1.65191 0
M  V30 20401 O 1975.63 0.301768 2.14286 0
M  V30 20402 C 1976.22 3.31505 0.699272 0
M  V30 20403 C 1974.78 3.57892 1.16576 0
M  V30 20404 C 1973.93 2.7668 0.185351 0
M  V30 20405 H 1976.88 1.54444 -0.365058 0
M  V30 20406 H 1976.9 3.47292 1.55462 0
M  V30 20407 H 1976.41 3.87445 -0.225394 0
M  V30 20408 H 1974.51 3.07332 2.1066 0
M  V30 20409 H 1974.63 4.66386 1.0964 0
M  V30 20410 H 1972.99 2.45548 0.676642 0
M  V30 20411 H 1973.77 3.35388 -0.732787 0
M  V30 20412 N 1976.22 -0.133539 1.57033 0
M  V30 20413 C 1977.15 -1.16595 2.02306 0
M  V30 20414 C 1978.13 -1.44031 0.904933 0
M  V30 20415 O 1979.32 -1.54721 1.17367 0
M  V30 20416 C 1976.45 -2.49581 2.41509 0
M  V30 20417 C 1975.4 -2.36639 3.56631 0
M  V30 20418 C 1974.73 -3.74457 3.81688 0
M  V30 20419 C 1976.03 -1.83912 4.88849 0
M  V30 20420 H 1977.72 -0.789456 2.88804 0
M  V30 20421 H 1975.27 -0.378309 1.38942 0
M  V30 20422 H 1977.22 -3.22043 2.71783 0
M  V30 20423 H 1975.94 -2.89093 1.51964 0
M  V30 20424 H 1974.6 -1.66628 3.26544 0
M  V30 20425 H 1974.25 -4.11428 2.89372 0
M  V30 20426 H 1973.95 -3.66655 4.59171 0
M  V30 20427 H 1975.47 -4.48446 4.14401 0
M  V30 20428 H 1976.89 -2.46178 5.17754 0
M  V30 20429 H 1975.28 -1.86967 5.70231 0
M  V30 20430 H 1976.35 -0.795669 4.78327 0
M  V30 20431 N 1977.7 -1.52352 -0.403298 0
M  V30 20432 C 1978.63 -1.72347 -1.51093 0
M  V30 20433 C 1979.64 -0.603886 -1.51186 0
M  V30 20434 O 1980.83 -0.879203 -1.55346 0
M  V30 20435 C 1977.93 -1.75407 -2.89975 0
M  V30 20436 C 1977.1 -3.04495 -3.14009 0
M  V30 20437 C 1976.16 -2.9929 -4.32795 0
M  V30 20438 O 1975.19 -3.73185 -4.29792 0
M  V30 20439 N 1976.39 -2.17484 -5.3822 0
M  V30 20440 H 1979.16 -2.67908 -1.34333 0
M  V30 20441 H 1976.72 -1.50662 -0.592661 0
M  V30 20442 H 1978.71 -1.6945 -3.67517 0
M  V30 20443 H 1977.28 -0.87295 -3.00164 0
M  V30 20444 H 1976.5 -3.24056 -2.24458 0
M  V30 20445 H 1977.79 -3.89879 -3.26913 0
M  V30 20446 H 1977.19 -1.56888 -5.4351 0
M  V30 20447 H 1975.74 -2.17378 -6.14484 0
M  V30 20448 N 1979.18 0.660885 -1.43074 0
M  V30 20449 C 1980.42 1.41668 -1.43572 0
M  V30 20450 C 1980.74 1.95506 -0.0607715 0
M  V30 20451 O 1981.94 2.71441 0.0568092 0
M  V30 20452 C 1980.4 2.56345 -2.52617 0
M  V30 20453 C 1980.01 2.09147 -3.96183 0
M  V30 20454 C 1981.75 3.33765 -2.623 0
M  V30 20455 C 1979.66 3.20989 -4.96709 0
M  V30 20456 H 1978.59 0.532264 -0.534051 0
M  V30 20457 H 1981.24 0.714113 -1.69035 0
M  V30 20458 H 1979.62 3.29036 -2.20343 0
M  V30 20459 H 1980.8 1.43518 -4.3788 0
M  V30 20460 H 1979.11 1.44628 -3.90476 0
M  V30 20461 H 1981.71 4.17085 -3.34581 0
M  V30 20462 H 1982.05 3.81285 -1.67114 0
M  V30 20463 H 1982.58 2.6815 -2.93837 0
M  V30 20464 H 1979.32 2.78445 -5.93421 0
M  V30 20465 H 1978.84 3.85356 -4.59631 0
M  V30 20466 H 1980.52 3.86241 -5.19063 0
M  V30 20467 N 1980.65 1.29477 0.898527 0
M  V30 20468 C 1981.9 1.187 1.65172 0
M  V30 20469 C 1982.26 -0.258703 1.90653 0
M  V30 20470 O 1981.55 -1.1836 1.5067 0
M  V30 20471 C 1981.74 1.93505 3.00484 0
M  V30 20472 C 1981.57 3.45202 2.88211 0
M  V30 20473 C 1980.34 4.14554 2.88917 0
M  V30 20474 C 1982.54 4.40679 2.65155 0
M  V30 20475 N 1980.52 5.52607 2.67393 0
M  V30 20476 C 1981.89 5.662 2.52622 0
M  V30 20477 C 1983.95 4.30429 2.50271 0
M  V30 20478 C 1982.65 6.82634 2.26722 0
M  V30 20479 C 1984.68 5.46616 2.25754 0
M  V30 20480 C 1984.04 6.7111 2.13988 0
M  V30 20481 H 1980.14 0.48936 0.60996 0
M  V30 20482 H 1982.72 1.6332 1.05993 0
M  V30 20483 H 1980.89 1.51297 3.5772 0
M  V30 20484 H 1982.62 1.74984 3.64915 0
M  V30 20485 H 1979.38 3.66265 3.00244 0
M  V30 20486 H 1979.8 6.25216 2.59681 0
M  V30 20487 H 1984.45 3.34871 2.58111 0
M  V30 20488 H 1982.16 7.78246 2.17621 0
M  V30 20489 H 1985.75 5.40585 2.1508 0
M  V30 20490 H 1984.63 7.59497 1.9528 0
M  V30 20491 N 1982.13 -1.10905 1.11972 0
M  V30 20492 C 1983.06 -2.16893 0.740943 0
M  V30 20493 C 1984.08 -1.61166 -0.230099 0
M  V30 20494 O 1985.27 -1.78496 -0.0121612 0
M  V30 20495 C 1982.37 -3.38817 0.0751853 0
M  V30 20496 C 1981.54 -4.23998 1.07446 0
M  V30 20497 C 1980.6 -5.2438 0.437225 0
M  V30 20498 O 1979.62 -5.58611 1.09279 0
M  V30 20499 N 1980.83 -5.74996 -0.797475 0
M  V30 20500 H 1983.59 -2.49998 1.65291 0
M  V30 20501 H 1981.15 -1.26479 1.01068 0
M  V30 20502 H 1983.14 -4.03069 -0.362985 0
M  V30 20503 H 1981.71 -3.03728 -0.739454 0
M  V30 20504 H 1980.93 -3.56116 1.69041 0
M  V30 20505 H 1982.22 -4.77745 1.75034 0
M  V30 20506 H 1981.62 -5.49376 -1.34915 0
M  V30 20507 H 1980.18 -6.41057 -1.17854 0
M  V30 20508 N 1983.61 -0.910886 -1.2861 0
M  V30 20509 C 1984.84 -0.558332 -1.99224 0
M  V30 20510 C 1985.25 0.859686 -1.68092 0
M  V30 20511 O 1984.61 1.56902 -0.932092 0
M  V30 20512 C 1984.66 -0.754443 -3.5354 0
M  V30 20513 O 1984.38 -2.11666 -3.83574 0
M  V30 20514 C 1985.88 -0.408335 -4.41415 0
M  V30 20515 H 1983.1 -0.213139 -0.636249 0
M  V30 20516 H 1985.65 -1.2233 -1.63877 0
M  V30 20517 H 1983.8 -0.136504 -3.87159 0
M  V30 20518 H 1984.22 -2.15422 -4.78219 0
M  V30 20519 H 1985.69 -0.596337 -5.48769 0
M  V30 20520 H 1986.17 0.655276 -4.34284 0
M  V30 20521 H 1986.77 -1.00369 -4.13287 0
M  V30 20522 N 1985.09 1.42434 -0.674558 0
M  V30 20523 C 1986.37 1.95196 -0.125683 0
M  V30 20524 C 1986.75 1.61499 1.35946 0
M  V30 20525 O 1986.09 0.911023 2.09553 0
M  V30 20526 C 1986.3 3.46762 -0.39457 0
M  V30 20527 C 1987.65 4.2346 -0.310951 0
M  V30 20528 O 1988.68 3.54684 -0.328304 0
M  V30 20529 O 1987.53 5.45914 -0.252937 0
M  V30 20530 H 1984.63 0.826995 -0.00272875 0
M  V30 20531 H 1987.17 1.52263 -0.749271 0
M  V30 20532 H 1985.95 3.64493 -1.42339 0
M  V30 20533 H 1985.57 3.96742 0.261037 0
M  V30 20534 N 1986.57 0.417871 1.51959 0
M  V30 20535 C 1987.81 -0.155052 2.01906 0
M  V30 20536 C 1988.14 -1.44397 1.30307 0
M  V30 20537 O 1987.4 -1.91556 0.400588 0
M  V30 20538 C 1987.7 -0.440779 3.54672 0
M  V30 20539 C 1987.36 0.759981 4.44449 0
M  V30 20540 C 1986.02 1.08932 4.68708 0
M  V30 20541 C 1988.38 1.56193 4.97246 0
M  V30 20542 C 1985.7 2.22164 5.4301 0
M  V30 20543 C 1988.06 2.68508 5.72788 0
M  V30 20544 C 1986.72 3.01918 5.95316 0
M  V30 20545 H 1985.99 -0.0567377 0.738825 0
M  V30 20546 H 1988.64 0.561082 1.83096 0
M  V30 20547 H 1986.94 -1.23858 3.71707 0
M  V30 20548 H 1988.64 -0.897174 3.90835 0
M  V30 20549 H 1985.23 0.49332 4.25751 0
M  V30 20550 H 1989.41 1.32071 4.78405 0
M  V30 20551 H 1984.67 2.48387 5.58672 0
M  V30 20552 H 1988.84 3.3103 6.12692 0
M  V30 20553 H 1986.47 3.89774 6.52672 0
M  V30 20554 N 1988.04 -1.56898 0.148573 0
M  V30 20555 C 1989.27 -2.0054 -0.509047 0
M  V30 20556 C 1989.69 -1.02867 -1.58315 0
M  V30 20557 O 1989.04 -0.0259297 -1.82482 0
M  V30 20558 C 1989.1 -3.44093 -1.10825 0
M  V30 20559 O 1988.82 -4.38032 -0.077048 0
M  V30 20560 C 1990.32 -4.03021 -1.84633 0
M  V30 20561 H 1987.54 -0.657812 -0.132378 0
M  V30 20562 H 1990.08 -2.03044 0.243618 0
M  V30 20563 H 1988.24 -3.42436 -1.81153 0
M  V30 20564 H 1988.65 -5.21953 -0.516256 0
M  V30 20565 H 1990.12 -5.05458 -2.21847 0
M  V30 20566 H 1990.6 -3.43821 -2.73283 0
M  V30 20567 H 1991.21 -4.08313 -1.19 0
M  V30 20568 N 1989.52 0.125209 -1.57102 0
M  V30 20569 C 1990.45 1.15521 -2.02922 0
M  V30 20570 C 1991.43 1.43549 -0.912559 0
M  V30 20571 O 1992.62 1.54097 -1.18185 0
M  V30 20572 C 1989.75 2.48297 -2.42829 0
M  V30 20573 C 1988.7 2.34744 -3.57881 0
M  V30 20574 C 1988.03 3.72427 -3.83669 0
M  V30 20575 C 1989.33 1.81317 -4.89818 0
M  V30 20576 H 1991.02 0.774129 -2.89219 0
M  V30 20577 H 1988.57 0.370935 -1.3914 0
M  V30 20578 H 1990.52 3.20597 -2.73487 0
M  V30 20579 H 1989.25 2.88283 -1.53495 0
M  V30 20580 H 1987.9 1.64893 -3.27423 0
M  V30 20581 H 1987.55 4.09887 -2.9155 0
M  V30 20582 H 1987.25 3.64215 -4.61109 0
M  V30 20583 H 1988.78 4.46242 -4.16773 0
M  V30 20584 H 1990.19 2.43429 -5.19052 0
M  V30 20585 H 1988.59 1.83941 -5.71214 0
M  V30 20586 H 1989.66 0.770291 -4.78743 0
M  V30 20587 N 1991 1.52564 0.395213 0
M  V30 20588 C 1991.91 1.79813 1.5068 0
M  V30 20589 C 1992.93 0.684507 1.5997 0
M  V30 20590 O 1994.1 0.971428 1.76423 0
M  V30 20591 C 1991.17 1.95567 2.86277 0
M  V30 20592 C 1990.23 3.19481 2.86759 0
M  V30 20593 C 1989.46 3.34474 4.15888 0
M  V30 20594 O 1989.68 2.54414 5.10519 0
M  V30 20595 O 1988.62 4.27698 4.23507 0
M  V30 20596 H 1992.44 2.74191 1.30586 0
M  V30 20597 H 1990.03 1.37579 0.582445 0
M  V30 20598 H 1991.91 2.07672 3.66675 0
M  V30 20599 H 1990.59 1.04378 3.0641 0
M  V30 20600 H 1989.49 3.12823 2.05164 0
M  V30 20601 H 1990.83 4.10496 2.71577 0
M  V30 20602 N 1992.48 -0.653289 1.43422 0
M  V30 20603 C 1993.89 -1.23446 1.40064 0
M  V30 20604 C 1994.24 -1.95921 0.104677 0
M  V30 20605 O 1993.37 -2.01233 -0.79588 0
M  V30 20606 C 1993.96 -2.24523 2.53722 0
M  V30 20607 C 1992.52 -2.78117 2.53629 0
M  V30 20608 C 1991.67 -1.52759 2.3143 0
M  V30 20609 H 1994.62 -0.445312 1.52324 0
M  V30 20610 H 1994.64 -3.06696 2.25207 0
M  V30 20611 H 1994.15 -1.71746 3.4803 0
M  V30 20612 H 1992.25 -3.34957 1.632 0
M  V30 20613 H 1992.36 -3.25667 3.51394 0
M  V30 20614 H 1990.73 -1.80104 1.80096 0
M  V30 20615 H 1991.51 -1.01917 3.27823 0
M  V30 20616 N 1993.96 -1.29952 -0.891648 0
M  V30 20617 C 1995.37 -1.08138 -1.17381 0
M  V30 20618 C 1995.57 0.162165 -2.00846 0
M  V30 20619 O 1994.63 0.857667 -2.37488 0
M  V30 20620 C 1995.94 -2.34125 -1.88695 0
M  V30 20621 C 1997.49 -2.39524 -2.01487 0
M  V30 20622 C 1997.96 -3.65336 -2.76213 0
M  V30 20623 N 1999.46 -3.66105 -2.83762 0
M  V30 20624 C 2000.19 -4.6014 -3.42139 0
M  V30 20625 N 1999.69 -5.64513 -4.01617 0
M  V30 20626 N 2001.48 -4.47695 -3.3989 0
M  V30 20627 H 1993.63 -2.09742 -0.334958 0
M  V30 20628 H 1995.89 -0.924239 -0.210916 0
M  V30 20629 H 1995.6 -3.24839 -1.34805 0
M  V30 20630 H 1995.47 -2.42258 -2.89121 0
M  V30 20631 H 1997.86 -1.49293 -2.5455 0
M  V30 20632 H 1997.94 -2.35371 -1.0017 0
M  V30 20633 H 1997.59 -4.55922 -2.23824 0
M  V30 20634 H 1997.52 -3.66749 -3.77893 0
M  V30 20635 H 2000.01 -2.90643 -2.41526 0
M  V30 20636 H 2000.32 -6.32376 -4.44207 0
M  V30 20637 H 1998.66 -5.68313 -4.00056 0
M  V30 20638 H 2001.86 -3.65343 -2.92647 0
M  V30 20639 H 2002.03 -5.21162 -3.85089 0
M  V30 20640 N 1995.44 1.1031 -1.12559 0
M  V30 20641 C 1996.37 2.15925 -0.738365 0
M  V30 20642 C 1997.35 1.60324 0.271099 0
M  V30 20643 O 1998.53 1.87779 0.164746 0
M  V30 20644 C 1995.66 3.38572 -0.0930976 0
M  V30 20645 C 1994.7 4.1287 -1.06959 0
M  V30 20646 S 1995.54 4.68269 -2.59777 0
M  V30 20647 C 1996.69 5.94227 -1.96584 0
M  V30 20648 H 1996.93 2.48437 -1.63298 0
M  V30 20649 H 1994.46 1.22118 -0.94481 0
M  V30 20650 H 1996.42 4.09592 0.272822 0
M  V30 20651 H 1995.08 3.04296 0.778647 0
M  V30 20652 H 1994.27 5.00815 -0.565756 0
M  V30 20653 H 1993.87 3.47668 -1.37852 0
M  V30 20654 H 1996.16 6.64727 -1.30938 0
M  V30 20655 H 1997.11 6.49275 -2.82574 0
M  V30 20656 H 1997.52 5.46318 -1.42114 0
M  V30 20657 N 1996.91 0.917694 1.28125 0
M  V30 20658 C 1997.88 0.413823 2.25433 0
M  V30 20659 C 1998.88 -0.46205 1.54019 0
M  V30 20660 O 2000.07 -0.264546 1.7218 0
M  V30 20661 C 1997.2 -0.406249 3.38471 0
M  V30 20662 H 1998.39 1.27345 2.7152 0
M  V30 20663 H 1995.94 0.697455 1.39876 0
M  V30 20664 H 1996.68 -1.28511 2.97751 0
M  V30 20665 H 1996.46 0.221601 3.91473 0
M  V30 20666 H 1997.95 -0.749491 4.10819 0
M  V30 20667 N 1998.39 -1.42074 0.682102 0
M  V30 20668 C 1999.8 -1.8453 0.283805 0
M  V30 20669 C 2000.15 -1.5709 -1.17547 0
M  V30 20670 O 1999.28 -1.03444 -1.90075 0
M  V30 20671 C 1999.87 -3.34965 0.508316 0
M  V30 20672 C 1998.43 -3.76042 0.164069 0
M  V30 20673 C 1997.58 -2.65594 0.797204 0
M  V30 20674 H 2000.53 -1.31817 0.88374 0
M  V30 20675 H 2000.55 -3.7976 -0.237267 0
M  V30 20676 H 2000.06 -3.54905 1.57047 0
M  V30 20677 H 1998.16 -3.61707 -0.894353 0
M  V30 20678 H 1998.28 -4.75205 0.609688 0
M  V30 20679 H 1996.64 -2.53678 0.227913 0
M  V30 20680 H 1997.42 -2.88355 1.86296 0
M  V30 20681 N 1999.87 -0.425924 -1.51735 0
M  V30 20682 C 2001.29 -0.0776294 -1.59411 0
M  V30 20683 C 2001.49 1.41186 -1.43767 0
M  V30 20684 O 2000.54 2.18056 -1.27311 0
M  V30 20685 C 2001.85 -0.58755 -2.94904 0
M  V30 20686 C 2003.4 -0.54699 -3.08183 0
M  V30 20687 C 2003.88 -1.0337 -4.46182 0
M  V30 20688 N 2005.37 -0.991208 -4.5247 0
M  V30 20689 C 2006.1 -1.3388 -5.57552 0
M  V30 20690 N 2005.6 -1.75868 -6.70106 0
M  V30 20691 N 2007.39 -1.25769 -5.47849 0
M  V30 20692 H 1999.54 -1.39519 -1.60151 0
M  V30 20693 H 2001.81 -0.574214 -0.754309 0
M  V30 20694 H 2001.51 -1.62925 -3.11686 0
M  V30 20695 H 2001.39 -0.0062584 -3.77199 0
M  V30 20696 H 2003.77 0.485701 -2.91076 0
M  V30 20697 H 2003.85 -1.16454 -2.27754 0
M  V30 20698 H 2003.5 -2.0648 -4.64035 0
M  V30 20699 H 2003.43 -0.39279 -5.25133 0
M  V30 20700 H 2005.92 -0.682721 -3.71682 0
M  V30 20701 H 2006.23 -2.00657 -7.46295 0
M  V30 20702 H 2004.58 -1.79785 -6.71344 0
M  V30 20703 H 2007.77 -0.928407 -4.58801 0
M  V30 20704 H 2007.94 -1.53187 -6.29633 0
M  V30 20705 N 2001.35 1.56817 -0.156891 0
M  V30 20706 C 2002.57 2.01242 0.501622 0
M  V30 20707 C 2003 1.03635 1.56976 0
M  V30 20708 O 2002.36 0.0136188 1.81295 0
M  V30 20709 C 2002.4 3.44357 1.07007 0
M  V30 20710 O 2001.51 3.49783 2.18461 0
M  V30 20711 H 2000.85 0.652757 0.121673 0
M  V30 20712 H 2003.38 2.02985 -0.256537 0
M  V30 20713 H 2003.39 3.83364 1.39628 0
M  V30 20714 H 2002.06 4.14902 0.287924 0
M  V30 20715 H 2000.64 3.22626 1.86994 0
M  V30 20716 N 2002.83 -0.116876 1.57166 0
M  V30 20717 C 2004.07 -0.820513 1.86116 0
M  V30 20718 C 2004.43 -1.77394 0.744929 0
M  V30 20719 O 2003.72 -1.89897 -0.254897 0
M  V30 20720 C 2003.91 -1.60659 3.19255 0
M  V30 20721 C 2003.74 -0.730782 4.43723 0
M  V30 20722 C 2002.51 -0.384808 5.03833 0
M  V30 20723 C 2004.71 -0.0474598 5.14278 0
M  V30 20724 N 2002.69 0.501438 6.11849 0
M  V30 20725 C 2004.06 0.697704 6.16062 0
M  V30 20726 C 2006.12 0.0287378 4.97892 0
M  V30 20727 C 2004.82 1.51191 7.03231 0
M  V30 20728 C 2006.85 0.829778 5.8555 0
M  V30 20729 C 2006.21 1.56313 6.86837 0
M  V30 20730 H 2002.31 -0.277109 0.731256 0
M  V30 20731 H 2004.89 -0.084139 1.94518 0
M  V30 20732 H 2003.06 -2.31398 3.11944 0
M  V30 20733 H 2004.8 -2.25572 3.36005 0
M  V30 20734 H 2001.55 -0.727532 4.67979 0
M  V30 20735 H 2001.97 0.936473 6.70492 0
M  V30 20736 H 2006.62 -0.523887 4.19542 0
M  V30 20737 H 2004.33 2.07569 7.80987 0
M  V30 20738 H 2007.92 0.891123 5.74935 0
M  V30 20739 H 2006.8 2.173 7.53492 0
M  V30 20740 N 2004.3 -1.52772 -0.387116 0
M  V30 20741 C 2005.23 -1.80654 -1.47941 0
M  V30 20742 C 2006.21 -0.658677 -1.56829 0
M  V30 20743 O 2007.4 -0.906449 -1.71747 0
M  V30 20744 C 2004.53 -1.97709 -2.85532 0
M  V30 20745 C 2003.48 -3.13404 -2.91482 0
M  V30 20746 C 2002.81 -3.15717 -4.3154 0
M  V30 20747 C 2004.11 -4.52437 -2.60957 0
M  V30 20748 H 2005.8 -2.72123 -1.24858 0
M  V30 20749 H 2003.35 -1.30941 -0.59921 0
M  V30 20750 H 2005.3 -2.15798 -3.61952 0
M  V30 20751 H 2004.03 -1.02931 -3.09956 0
M  V30 20752 H 2002.69 -2.95102 -2.1751 0
M  V30 20753 H 2002.33 -2.18618 -4.53007 0
M  V30 20754 H 2002.03 -3.93437 -4.36441 0
M  V30 20755 H 2003.56 -3.35963 -5.09864 0
M  V30 20756 H 2004.97 -4.70831 -3.27095 0
M  V30 20757 H 2003.37 -5.32238 -2.77205 0
M  V30 20758 H 2004.44 -4.59022 -1.5629 0
M  V30 20759 N 2005.78 0.645673 -1.43767 0
M  V30 20760 C 2006.74 1.74013 -1.49171 0
M  V30 20761 C 2007.74 1.56355 -0.375476 0
M  V30 20762 O 2008.93 1.62115 -0.637529 0
M  V30 20763 C 2006.07 3.12961 -1.3516 0
M  V30 20764 H 2007.26 1.706 -2.46649 0
M  V30 20765 H 2004.81 0.858019 -1.30643 0
M  V30 20766 H 2005.55 3.2198 -0.387199 0
M  V30 20767 H 2005.33 3.27184 -2.16086 0
M  V30 20768 H 2006.82 3.92755 -1.41891 0
M  V30 20769 N 2007.26 1.30423 0.884744 0
M  V30 20770 C 2008.51 1.19435 1.63899 0
M  V30 20771 C 2008.84 -0.25033 1.9258 0
M  V30 20772 O 2008.11 -1.17904 1.5469 0
M  V30 20773 C 2008.4 2.02357 2.97865 0
M  V30 20774 C 2008.25 3.55046 2.76156 0
M  V30 20775 C 2009.57 1.86156 3.98791 0
M  V30 20776 H 2006.69 0.435234 0.594761 0
M  V30 20777 H 2009.33 1.60058 1.0238 0
M  V30 20778 H 2007.48 1.67842 3.50373 0
M  V30 20779 H 2009.15 3.99622 2.30434 0
M  V30 20780 H 2007.39 3.79218 2.10657 0
M  V30 20781 H 2008.07 4.08356 3.71415 0
M  V30 20782 H 2010.54 2.16332 3.55443 0
M  V30 20783 H 2009.42 2.46501 4.90437 0
M  V30 20784 H 2009.68 0.820775 4.34414 0
M  V30 20785 N 2008.74 -1.09711 1.13142 0
M  V30 20786 C 2009.97 -1.85595 0.914436 0
M  V30 20787 C 2010.38 -1.81013 -0.536632 0
M  V30 20788 O 2009.74 -1.20419 -1.37134 0
M  V30 20789 C 2009.79 -3.33692 1.39039 0
M  V30 20790 O 2009.51 -3.38219 2.78459 0
M  V30 20791 C 2011.01 -4.26427 1.21142 0
M  V30 20792 H 2008.23 -0.586333 0.326274 0
M  V30 20793 H 2010.77 -1.38646 1.50325 0
M  V30 20794 H 2008.93 -3.7808 0.844641 0
M  V30 20795 H 2009.34 -4.30567 2.9952 0
M  V30 20796 H 2010.82 -5.28508 1.59323 0
M  V30 20797 H 2011.29 -4.38934 0.152782 0
M  V30 20798 H 2011.9 -3.87851 1.74505 0
M  V30 20799 N 2010.22 -0.924476 -1.27637 0
M  V30 20800 C 2011.46 -0.564054 -1.94798 0
M  V30 20801 C 2011.8 0.891863 -1.72509 0
M  V30 20802 O 2011.07 1.63577 -1.05228 0
M  V30 20803 C 2011.35 -0.886888 -3.49008 0
M  V30 20804 C 2011.21 -2.39632 -3.80653 0
M  V30 20805 C 2012.53 -0.390514 -4.38364 0
M  V30 20806 H 2009.64 -0.206399 -0.707509 0
M  V30 20807 H 2012.29 -1.15567 -1.50812 0
M  V30 20808 H 2010.44 -0.383406 -3.86603 0
M  V30 20809 H 2012.11 -2.97125 -3.52866 0
M  V30 20810 H 2010.35 -2.84685 -3.27318 0
M  V30 20811 H 2011.02 -2.57274 -4.88379 0
M  V30 20812 H 2013.5 -0.821972 -4.07901 0
M  V30 20813 H 2012.37 -0.645381 -5.45093 0
M  V30 20814 H 2012.64 0.709365 -4.36372 0
M  V30 20815 N 2011.69 1.41711 -0.689627 0
M  V30 20816 C 2012.97 1.95052 -0.146379 0
M  V30 20817 C 2013.35 1.62932 1.34225 0
M  V30 20818 O 2012.7 0.933198 2.08575 0
M  V30 20819 C 2012.91 3.46324 -0.431327 0
M  V30 20820 C 2014.26 4.23106 -0.355847 0
M  V30 20821 O 2015.28 3.54316 -0.365905 0
M  V30 20822 O 2014.14 5.45615 -0.310824 0
M  V30 20823 H 2011.23 0.82692 -0.0115 0
M  V30 20824 H 2013.78 1.5146 -0.765378 0
M  V30 20825 H 2012.55 3.62963 -1.46197 0
M  V30 20826 H 2012.18 3.96997 0.218942 0
M  V30 20827 N 2013.17 0.433965 1.51507 0
M  V30 20828 C 2014.4 -0.132403 2.06476 0
M  V30 20829 C 2014.82 -1.3675 1.30172 0
M  V30 20830 O 2014.17 -1.78907 0.360351 0
M  V30 20831 C 2014.22 -0.458007 3.58587 0
M  V30 20832 O 2013.94 0.728069 4.32008 0
M  V30 20833 C 2015.45 -1.07541 4.30058 0
M  V30 20834 H 2012.67 -0.00941889 0.670934 0
M  V30 20835 H 2015.21 0.612075 1.95125 0
M  V30 20836 H 2013.36 -1.15238 3.69863 0
M  V30 20837 H 2013.78 0.450318 5.22563 0
M  V30 20838 H 2015.25 -1.25326 5.37585 0
M  V30 20839 H 2015.73 -2.0555 3.88131 0
M  V30 20840 H 2016.34 -0.420519 4.23216 0
M  V30 20841 N 2014.65 -1.56732 0.165206 0
M  V30 20842 C 2015.61 -2.1646 -0.753498 0
M  V30 20843 C 2016.61 -1.11106 -1.16241 0
M  V30 20844 O 2017.8 -1.36652 -1.08037 0
M  V30 20845 C 2014.94 -2.7425 -2.02483 0
M  V30 20846 H 2016.13 -2.98989 -0.233629 0
M  V30 20847 H 2013.68 -1.56072 -0.0843317 0
M  V30 20848 H 2014.42 -1.95439 -2.58794 0
M  V30 20849 H 2014.2 -3.51345 -1.74065 0
M  V30 20850 H 2015.69 -3.20209 -2.6806 0
M  V30 20851 N 2016.13 0.10854 -1.57226 0
M  V30 20852 C 2017.35 0.832276 -1.89968 0
M  V30 20853 C 2017.78 1.72143 -0.758179 0
M  V30 20854 O 2017.14 1.78952 0.290864 0
M  V30 20855 C 2017.18 1.63287 -3.21512 0
M  V30 20856 O 2016.29 2.74071 -3.08154 0
M  V30 20857 H 2015.63 0.229508 -0.623075 0
M  V30 20858 H 2018.16 0.0877974 -2.04412 0
M  V30 20859 H 2018.17 2.01992 -3.5449 0
M  V30 20860 H 2016.84 0.98022 -4.04184 0
M  V30 20861 H 2015.42 2.38492 -2.86664 0
M  V30 20862 N 2017.61 1.52975 0.379009 0
M  V30 20863 C 2018.83 1.72698 1.14849 0
M  V30 20864 C 2019.26 0.448814 1.82667 0
M  V30 20865 O 2018.61 -0.596182 1.71217 0
M  V30 20866 C 2018.66 2.884 2.16466 0
M  V30 20867 O 2017.77 2.56071 3.23267 0
M  V30 20868 H 2017.11 0.573952 0.333878 0
M  V30 20869 H 2019.64 1.99807 0.440243 0
M  V30 20870 H 2019.65 3.14183 2.60295 0
M  V30 20871 H 2018.32 3.8112 1.66494 0
M  V30 20872 H 2016.9 2.41063 2.84505 0
M  V30 20873 N 2019.08 -0.63804 1.44107 0
M  V30 20874 C 2020.05 -1.7322 1.50092 0
M  V30 20875 C 2021.05 -1.56153 0.383763 0
M  V30 20876 O 2022.24 -1.61774 0.646118 0
M  V30 20877 C 2019.37 -3.1224 1.36818 0
M  V30 20878 H 2020.56 -1.6929 2.4755 0
M  V30 20879 H 2018.12 -0.851079 1.31097 0
M  V30 20880 H 2018.85 -3.2177 0.404269 0
M  V30 20881 H 2018.64 -3.26033 2.17818 0
M  V30 20882 H 2020.13 -3.91997 1.43972 0
M  V30 20883 N 2020.56 -1.3089 -0.877815 0
M  V30 20884 C 2021.81 -1.19488 -1.62498 0
M  V30 20885 C 2022.12 0.247666 -1.94026 0
M  V30 20886 O 2023.33 0.483286 -2.67164 0
M  V30 20887 C 2021.79 -2.09126 -2.92906 0
M  V30 20888 C 2021.39 -3.58331 -2.68891 0
M  V30 20889 C 2023.14 -2.06505 -3.70885 0
M  V30 20890 C 2021.05 -4.40003 -3.9516 0
M  V30 20891 H 2019.98 -0.44363 -0.609679 0
M  V30 20892 H 2022.63 -1.5569 -0.971235 0
M  V30 20893 H 2021.01 -1.65815 -3.59613 0
M  V30 20894 H 2022.18 -4.09838 -2.10642 0
M  V30 20895 H 2020.5 -3.62849 -2.04278 0
M  V30 20896 H 2023.09 -2.64772 -4.64543 0
M  V30 20897 H 2023.44 -1.05026 -4.02834 0
M  V30 20898 H 2023.97 -2.47975 -3.11052 0
M  V30 20899 H 2020.71 -5.42205 -3.68366 0
M  V30 20900 H 2020.23 -3.93258 -4.52889 0
M  V30 20901 H 2021.91 -4.5181 -4.63117 0
M  V30 20902 N 2022.04 1.0911 -1.13723 0
M  V30 20903 C 2023.29 1.81621 -0.902319 0
M  V30 20904 C 2023.62 1.85646 0.570009 0
M  V30 20905 O 2022.89 1.32706 1.42195 0
M  V30 20906 C 2023.18 3.27604 -1.49492 0
M  V30 20907 C 2023.03 3.3183 -3.03659 0
M  V30 20908 C 2024.35 4.24378 -1.16581 0
M  V30 20909 H 2021.47 0.659374 -0.329233 0
M  V30 20910 H 2024.11 1.27792 -1.40603 0
M  V30 20911 H 2022.26 3.73574 -1.06653 0
M  V30 20912 H 2023.93 2.94239 -3.55276 0
M  V30 20913 H 2022.18 2.71317 -3.38481 0
M  V30 20914 H 2022.85 4.34686 -3.40224 0
M  V30 20915 H 2025.32 3.8671 -1.53604 0
M  V30 20916 H 2024.2 5.24853 -1.60688 0
M  V30 20917 H 2024.46 4.42028 -0.0800013 0
M  V30 20918 N 2023.52 0.931232 1.27145 0
M  V30 20919 C 2024.76 0.574376 1.94496 0
M  V30 20920 C 2025.1 -0.882702 1.7298 0
M  V30 20921 O 2024.37 -1.63016 1.06094 0
M  V30 20922 C 2024.66 0.905384 3.48532 0
M  V30 20923 C 2024.51 2.41647 3.79377 0
M  V30 20924 C 2025.83 0.413756 4.38151 0
M  V30 20925 H 2022.95 0.210149 0.706404 0
M  V30 20926 H 2025.59 1.16365 1.50197 0
M  V30 20927 H 2023.74 0.403903 3.86395 0
M  V30 20928 H 2025.41 2.98992 3.51286 0
M  V30 20929 H 2023.65 2.86417 3.25803 0
M  V30 20930 H 2024.32 2.5986 4.87008 0
M  V30 20931 H 2026.8 0.843592 4.07459 0
M  V30 20932 H 2025.68 0.67428 5.44743 0
M  V30 20933 H 2025.94 -0.686214 4.36742 0
M  V30 20934 N 2025 -1.41343 0.697132 0
M  V30 20935 C 2026.23 -2.05528 0.237841 0
M  V30 20936 C 2026.64 -1.52468 -1.11351 0
M  V30 20937 O 2026 -0.673549 -1.69616 0
M  V30 20938 C 2026.05 -3.61007 0.188651 0
M  V30 20939 O 2025.77 -4.12106 1.48662 0
M  V30 20940 C 2027.27 -4.42341 -0.291439 0
M  V30 20941 H 2024.49 -0.661864 0.110352 0
M  V30 20942 H 2027.03 -1.81086 0.950155 0
M  V30 20943 H 2025.19 -3.84483 -0.474496 0
M  V30 20944 H 2025.6 -5.06162 1.37477 0
M  V30 20945 H 2027.08 -5.51316 -0.274731 0
M  V30 20946 H 2027.55 -4.1856 -1.33057 0
M  V30 20947 H 2028.16 -4.23933 0.340765 0
M  V30 20948 N 2026.48 -0.441993 -1.51275 0
M  V30 20949 C 2027.41 0.40297 -2.2563 0
M  V30 20950 C 2028.42 0.982305 -1.29825 0
M  V30 20951 O 2029.61 0.875653 -1.55546 0
M  V30 20952 C 2026.71 1.57618 -3.00016 0
M  V30 20953 C 2025.88 1.11489 -4.22953 0
M  V30 20954 C 2024.94 2.15876 -4.79879 0
M  V30 20955 O 2023.97 1.75121 -5.41591 0
M  V30 20956 N 2025.17 3.48408 -4.64319 0
M  V30 20957 H 2027.93 -0.234323 -2.98783 0
M  V30 20958 H 2025.5 -0.271138 -1.59613 0
M  V30 20959 H 2027.49 2.27084 -3.34985 0
M  V30 20960 H 2026.06 2.11873 -2.29845 0
M  V30 20961 H 2025.28 0.247136 -3.93425 0
M  V30 20962 H 2026.57 0.78415 -5.02721 0
M  V30 20963 H 2025.96 3.84249 -4.15173 0
M  V30 20964 H 2024.52 4.13755 -5.03637 0
M  V30 20965 N 2027.95 1.56642 -0.173515 0
M  V30 20966 C 2028.9 2.14667 0.768251 0
M  V30 20967 C 2029.89 1.0815 1.19132 0
M  V30 20968 O 2031.08 1.34267 1.15331 0
M  V30 20969 C 2028.21 2.79269 1.99659 0
M  V30 20970 C 2027.29 3.92947 1.59541 0
M  V30 20971 N 2027.69 4.97657 0.903929 0
M  V30 20972 C 2025.98 4.04148 1.88627 0
M  V30 20973 C 2026.68 5.77399 0.706055 0
M  V30 20974 N 2025.66 5.29076 1.24817 0
M  V30 20975 H 2029.46 2.92991 0.230996 0
M  V30 20976 H 2026.98 1.62377 0.0270838 0
M  V30 20977 H 2028.97 3.19217 2.68153 0
M  V30 20978 H 2027.63 2.02427 2.53877 0
M  V30 20979 H 2028.64 5.14845 0.561736 0
M  V30 20980 H 2025.32 3.38411 2.44508 0
M  V30 20981 H 2026.71 6.71712 0.159077 0
M  V30 20982 N 2029.43 -0.1002 1.57281 0
M  V30 20983 C 2030.68 -0.803034 1.85461 0
M  V30 20984 C 2031 -1.79518 0.761475 0
M  V30 20985 O 2030.27 -1.94741 -0.212768 0
M  V30 20986 H 2028.85 -0.299556 0.684306 0
M  V30 20987 H 2031.51 -0.0830444 1.94723 0
M  V30 20988 H 2030.61 -1.33676 2.82024 0
M  V30 20989 N 2030.91 -1.53174 -0.370891 0
M  V30 20990 C 2032.33 -1.42828 -0.712207 0
M  V30 20991 C 2032.53 -0.563111 -1.93472 0
M  V30 20992 O 2031.58 -0.0435062 -2.52463 0
M  V30 20993 C 2032.89 -2.85945 -0.930375 0
M  V30 20994 C 2034.44 -2.95542 -1.03072 0
M  V30 20995 C 2034.92 -4.39709 -1.28139 0
M  V30 20996 N 2036.41 -4.43115 -1.34921 0
M  V30 20997 C 2037.14 -5.51766 -1.56017 0
M  V30 20998 N 2036.64 -6.70473 -1.74464 0
M  V30 20999 N 2038.43 -5.39336 -1.58344 0
M  V30 21000 H 2030.58 -2.07934 0.433281 0
M  V30 21001 H 2032.85 -0.938799 0.131756 0
M  V30 21002 H 2032.55 -3.51546 -0.103966 0
M  V30 21003 H 2032.43 -3.29279 -1.83997 0
M  V30 21004 H 2034.81 -2.30098 -1.84768 0
M  V30 21005 H 2034.89 -2.5561 -0.0986256 0
M  V30 21006 H 2034.54 -5.05726 -0.469468 0
M  V30 21007 H 2034.47 -4.7721 -2.22662 0
M  V30 21008 H 2036.96 -3.57563 -1.223 0
M  V30 21009 H 2037.27 -7.49049 -1.90119 0
M  V30 21010 H 2035.62 -6.73469 -1.71653 0
M  V30 21011 H 2038.81 -4.45563 -1.43496 0
M  V30 21012 H 2038.98 -6.24078 -1.74443 0
M  V30 21013 N 2032.39 0.630389 -1.44443 0
M  V30 21014 C 2033.63 1.39199 -1.47484 0
M  V30 21015 C 2033.97 1.93903 -0.107313 0
M  V30 21016 O 2033.24 1.73699 0.875158 0
M  V30 21017 C 2033.52 2.55674 -2.5358 0
M  V30 21018 C 2033.38 2.06314 -3.99693 0
M  V30 21019 C 2034.7 3.57858 -2.56174 0
M  V30 21020 H 2031.82 0.504794 -0.536984 0
M  V30 21021 H 2034.46 0.712698 -1.76127 0
M  V30 21022 H 2032.61 3.13624 -2.29287 0
M  V30 21023 H 2034.28 1.53189 -4.35122 0
M  V30 21024 H 2032.52 1.37492 -4.11435 0
M  V30 21025 H 2033.19 2.90173 -4.69578 0
M  V30 21026 H 2035.67 3.0971 -2.77883 0
M  V30 21027 H 2034.55 4.36875 -3.32312 0
M  V30 21028 H 2034.81 4.11976 -1.60401 0
M  V30 21029 N 2033.87 1.31354 0.870861 0
M  V30 21030 C 2035.09 1.23948 1.65664 0
M  V30 21031 C 2035.51 -0.195353 1.87787 0
M  V30 21032 O 2034.87 -1.12708 1.43538 0
M  V30 21033 C 2034.92 1.97912 3.02511 0
M  V30 21034 O 2034.64 3.35795 2.81377 0
M  V30 21035 C 2036.14 1.97336 3.96955 0
M  V30 21036 H 2033.36 0.428328 0.516504 0
M  V30 21037 H 2035.9 1.73214 1.08706 0
M  V30 21038 H 2034.06 1.52409 3.5616 0
M  V30 21039 H 2034.47 3.73444 3.68293 0
M  V30 21040 H 2035.95 2.53601 4.90297 0
M  V30 21041 H 2036.42 0.955651 4.28677 0
M  V30 21042 H 2037.03 2.42714 3.49242 0
M  V30 21043 N 2035.34 -1.08505 1.143 0
M  V30 21044 C 2036.57 -1.85155 0.934475 0
M  V30 21045 C 2036.99 -1.81002 -0.511866 0
M  V30 21046 O 2036.35 -1.19437 -1.36398 0
M  V30 21047 C 2036.4 -3.30656 1.43871 0
M  V30 21048 O 2035.5 -4.07557 0.630143 0
M  V30 21049 H 2034.84 -0.573775 0.334183 0
M  V30 21050 H 2037.37 -1.36959 1.51998 0
M  V30 21051 H 2037.38 -3.815 1.44644 0
M  V30 21052 H 2036.06 -3.32995 2.49173 0
M  V30 21053 H 2034.64 -3.66441 0.691067 0
M  V30 21054 N 2036.82 -0.937962 -1.26649 0
M  V30 21055 C 2038.07 -0.584683 -1.94189 0
M  V30 21056 C 2038.4 0.873516 -1.73446 0
M  V30 21057 O 2037.68 1.62451 -1.06957 0
M  V30 21058 C 2037.96 -0.923855 -3.48047 0
M  V30 21059 C 2037.81 -2.43656 -3.7809 0
M  V30 21060 C 2039.13 -0.436986 -4.37925 0
M  V30 21061 H 2036.25 -0.213892 -0.70528 0
M  V30 21062 H 2038.89 -1.1716 -1.49578 0
M  V30 21063 H 2037.04 -0.424389 -3.86175 0
M  V30 21064 H 2038.71 -3.00851 -3.49695 0
M  V30 21065 H 2036.96 -2.88141 -3.2428 0
M  V30 21066 H 2037.63 -2.62439 -4.85623 0
M  V30 21067 H 2040.1 -0.865189 -4.07006 0
M  V30 21068 H 2038.98 -0.703159 -5.44378 0
M  V30 21069 H 2039.24 0.663042 -4.371 0
M  V30 21070 N 2038.3 1.40971 -0.704618 0
M  V30 21071 C 2039.26 2.29137 -0.053886 0
M  V30 21072 C 2040.26 1.44828 0.698682 0
M  V30 21073 O 2041.45 1.65871 0.532221 0
M  V30 21074 C 2038.58 3.27859 0.933861 0
M  V30 21075 H 2039.78 2.88178 -0.830268 0
M  V30 21076 H 2037.33 1.49109 -0.468632 0
M  V30 21077 H 2038.07 2.73815 1.73769 0
M  V30 21078 H 2037.85 3.90082 0.397249 0
M  V30 21079 H 2039.34 3.93905 1.38669 0
M  V30 21080 N 2039.78 0.45001 1.51039 0
M  V30 21081 C 2040.74 -0.343489 2.26612 0
M  V30 21082 C 2041.74 -0.938789 1.3055 0
M  V30 21083 O 2042.93 -0.811258 1.54157 0
M  V30 21084 C 2040.06 -1.48719 3.0675 0
M  V30 21085 H 2041.26 0.318996 2.98199 0
M  V30 21086 H 2038.81 0.2035 1.5497 0
M  V30 21087 H 2039.54 -2.18535 2.3961 0
M  V30 21088 H 2039.33 -1.06636 3.77321 0
M  V30 21089 H 2040.82 -2.04748 3.63961 0
M  V30 21090 N 2041.26 -1.56548 0.18182 0
M  V30 21091 C 2042.19 -2.15665 -0.775955 0
M  V30 21092 C 2043.2 -1.11496 -1.18627 0
M  V30 21093 O 2044.39 -1.38642 -1.1243 0
M  V30 21094 C 2041.49 -2.69305 -2.05738 0
M  V30 21095 C 2040.66 -3.9824 -1.80897 0
M  V30 21096 C 2039.72 -4.36838 -2.93358 0
M  V30 21097 O 2038.75 -5.04516 -2.63539 0
M  V30 21098 N 2039.95 -3.99254 -4.21398 0
M  V30 21099 H 2042.72 -2.98477 -0.270484 0
M  V30 21100 H 2040.28 -1.619 -0.000606634 0
M  V30 21101 H 2042.27 -2.92119 -2.80087 0
M  V30 21102 H 2040.84 -1.91023 -2.47445 0
M  V30 21103 H 2040.06 -3.83695 -0.903963 0
M  V30 21104 H 2041.35 -4.82428 -1.6168 0
M  V30 21105 H 2040.74 -3.44791 -4.48482 0
M  V30 21106 H 2039.3 -4.27047 -4.92417 0
M  V30 21107 N 2042.73 0.0918577 -1.57332 0
M  V30 21108 C 2043.68 1.11765 -1.98727 0
M  V30 21109 C 2044.67 1.35594 -0.866205 0
M  V30 21110 O 2045.86 1.36231 -1.13005 0
M  V30 21111 C 2042.99 2.437 -2.41796 0
M  V30 21112 C 2042.08 2.23231 -3.60595 0
M  V30 21113 N 2042.47 1.72638 -4.75426 0
M  V30 21114 C 2040.76 2.53785 -3.66755 0
M  V30 21115 C 2041.47 1.66516 -5.57357 0
M  V30 21116 N 2040.44 2.11847 -5.00621 0
M  V30 21117 H 2044.24 0.719481 -2.84957 0
M  V30 21118 H 2041.76 0.299237 -1.59619 0
M  V30 21119 H 2043.75 3.17927 -2.69682 0
M  V30 21120 H 2042.41 2.84251 -1.56944 0
M  V30 21121 H 2043.43 1.41789 -4.98113 0
M  V30 21122 H 2040.1 2.97839 -2.92572 0
M  V30 21123 H 2041.49 1.28424 -6.59513 0
M  V30 21124 N 2044.21 1.53368 0.362763 0
M  V30 21125 C 2045.16 1.76385 1.44472 0
M  V30 21126 C 2046.15 0.618465 1.48539 0
M  V30 21127 O 2047.34 0.877226 1.53733 0
M  V30 21128 C 2044.47 1.95971 2.81869 0
M  V30 21129 C 2043.55 3.1652 2.8227 0
M  V30 21130 N 2043.94 4.38373 2.52314 0
M  V30 21131 C 2042.24 3.17299 3.13429 0
M  V30 21132 C 2042.94 5.20128 2.60464 0
M  V30 21133 N 2041.92 4.56403 2.95292 0
M  V30 21134 H 2045.72 2.68205 1.20179 0
M  V30 21135 H 2043.24 1.52032 0.570972 0
M  V30 21136 H 2045.23 2.10589 3.59802 0
M  V30 21137 H 2043.89 1.05381 3.07124 0
M  V30 21138 H 2044.9 4.66057 2.25857 0
M  V30 21139 H 2041.58 2.36611 3.43979 0
M  V30 21140 H 2042.97 6.27335 2.40626 0
M  V30 21141 N 2045.69 -0.62272 1.44776 0
M  V30 21142 C 2046.94 -1.38229 1.49212 0
M  V30 21143 C 2047.29 -1.91986 0.126106 0
M  V30 21144 O 2046.58 -1.71221 -0.859879 0
M  V30 21145 C 2046.78 -2.55936 2.49463 0
M  V30 21146 C 2046.61 -2.13703 3.95678 0
M  V30 21147 C 2045.38 -2.00585 4.63782 0
M  V30 21148 C 2047.58 -1.72097 4.84652 0
M  V30 21149 N 2045.56 -1.52004 5.94784 0
M  V30 21150 C 2046.93 -1.34822 6.05164 0
M  V30 21151 C 2048.98 -1.59553 4.71643 0
M  V30 21152 C 2047.69 -0.862559 7.1411 0
M  V30 21153 C 2049.71 -1.12391 5.80622 0
M  V30 21154 C 2049.07 -0.760715 7.0028 0
M  V30 21155 H 2045.17 -0.500304 0.601016 0
M  V30 21156 H 2047.76 -0.713505 1.81155 0
M  V30 21157 H 2045.93 -3.20431 2.19496 0
M  V30 21158 H 2047.66 -3.22764 2.44142 0
M  V30 21159 H 2044.42 -2.21301 4.18716 0
M  V30 21160 H 2044.84 -1.29988 6.64404 0
M  V30 21161 H 2049.48 -1.86262 3.7956 0
M  V30 21162 H 2047.2 -0.582988 8.05994 0
M  V30 21163 H 2050.79 -1.03132 5.72586 0
M  V30 21164 H 2049.67 -0.40138 7.83172 0
M  V30 21165 N 2047.17 -1.31814 -0.863883 0
M  V30 21166 C 2048.13 -1.19926 -1.95321 0
M  V30 21167 C 2049.13 -0.124731 -1.60316 0
M  V30 21168 O 2050.32 -0.374454 -1.70128 0
M  V30 21169 C 2047.45 -0.842234 -3.30332 0
M  V30 21170 H 2048.65 -2.16727 -2.07291 0
M  V30 21171 H 2046.2 -1.15512 -1.05293 0
M  V30 21172 H 2046.93 0.124348 -3.24062 0
M  V30 21173 H 2046.72 -1.61902 -3.57114 0
M  V30 21174 H 2048.21 -0.783125 -4.10191 0
M  V30 21175 N 2048.65 1.07897 -1.14873 0
M  V30 21176 C 2049.87 1.84117 -0.943847 0
M  V30 21177 C 2050.29 1.81844 0.507767 0
M  V30 21178 O 2049.65 1.22585 1.352 0
M  V30 21179 C 2049.7 3.31438 -1.4433 0
M  V30 21180 O 2049.42 3.33746 -2.83805 0
M  V30 21181 C 2050.92 4.24445 -1.2791 0
M  V30 21182 H 2048.14 0.581068 -0.335561 0
M  V30 21183 H 2050.68 1.36237 -1.52512 0
M  V30 21184 H 2048.84 3.76689 -0.904683 0
M  V30 21185 H 2049.25 4.25748 -3.06332 0
M  V30 21186 H 2050.73 5.25906 -1.67711 0
M  V30 21187 H 2051.2 4.38636 -0.222593 0
M  V30 21188 H 2051.81 3.85025 -1.80653 0
M  V30 21189 N 2050.12 0.944665 1.2615 0
M  V30 21190 C 2051.09 0.461547 2.24505 0
M  V30 21191 C 2052.09 -0.429277 1.54964 0
M  V30 21192 O 2053.28 -0.227965 1.72702 0
M  V30 21193 C 2050.41 -0.334363 3.39256 0
M  V30 21194 H 2051.6 1.33075 2.68758 0
M  V30 21195 H 2049.16 0.726968 1.38365 0
M  V30 21196 H 2049.89 -1.22167 3.00409 0
M  V30 21197 H 2049.68 0.304588 3.90915 0
M  V30 21198 H 2051.17 -0.662181 4.12317 0
M  V30 21199 N 2051.6 -1.40596 0.712085 0
M  V30 21200 C 2052.85 -2.00181 0.247097 0
M  V30 21201 C 2053.16 -1.57102 -1.16526 0
M  V30 21202 O 2054.37 -2.09361 -1.72858 0
M  V30 21203 C 2052.83 -3.57771 0.390856 0
M  V30 21204 C 2052.43 -4.09825 1.80964 0
M  V30 21205 C 2054.18 -4.24498 -0.0135164 0
M  V30 21206 C 2052.09 -5.59907 1.90417 0
M  V30 21207 H 2051.02 -0.748773 0.0886278 0
M  V30 21208 H 2053.67 -1.60876 0.882669 0
M  V30 21209 H 2052.05 -3.94759 -0.313241 0
M  V30 21210 H 2053.22 -3.84221 2.54383 0
M  V30 21211 H 2051.54 -3.55682 2.16516 0
M  V30 21212 H 2054.13 -5.34688 0.0364444 0
M  V30 21213 H 2054.48 -4.02714 -1.05487 0
M  V30 21214 H 2055.01 -3.92603 0.640898 0
M  V30 21215 H 2051.75 -5.86541 2.92661 0
M  V30 21216 H 2051.27 -5.87385 1.21404 0
M  V30 21217 H 2052.95 -6.24951 1.67466 0
M  V30 21218 N 2053.08 -0.458013 -1.50798 0
M  V30 21219 C 2054.04 0.331466 -2.26791 0
M  V30 21220 C 2055.04 0.931853 -1.31046 0
M  V30 21221 O 2056.23 0.803071 -1.54585 0
M  V30 21222 C 2053.37 1.4709 -3.07534 0
M  V30 21223 H 2054.56 -0.334805 -2.98025 0
M  V30 21224 H 2052.11 -0.211715 -1.54859 0
M  V30 21225 H 2052.85 2.17261 -2.40765 0
M  V30 21226 H 2052.63 1.04634 -3.77881 0
M  V30 21227 H 2054.12 2.02815 -3.65042 0
M  V30 21228 N 2054.56 1.56449 -0.190119 0
M  V30 21229 C 2055.81 1.9773 0.450624 0
M  V30 21230 C 2056.14 1.07678 1.61614 0
M  V30 21231 O 2055.41 0.127743 1.9408 0
M  V30 21232 C 2055.7 3.48267 0.915552 0
M  V30 21233 C 2055.55 4.49097 -0.251436 0
M  V30 21234 C 2056.87 4.02374 1.78278 0
M  V30 21235 H 2053.99 0.718902 0.162325 0
M  V30 21236 H 2056.63 1.87925 -0.28004 0
M  V30 21237 H 2054.78 3.56753 1.53816 0
M  V30 21238 H 2056.45 4.52653 -0.888996 0
M  V30 21239 H 2054.69 4.24276 -0.903996 0
M  V30 21240 H 2055.37 5.51877 0.116306 0
M  V30 21241 H 2057.84 3.96636 1.25774 0
M  V30 21242 H 2056.72 5.08084 2.07706 0
M  V30 21243 H 2056.98 3.4733 2.73522 0
M  V30 21244 N 2056.04 -0.0835127 1.57379 0
M  V30 21245 C 2056.97 -1.101 2.05913 0
M  V30 21246 C 2057.95 -1.41079 0.950298 0
M  V30 21247 O 2059.13 -1.50909 1.2223 0
M  V30 21248 C 2056.26 -2.41772 2.49327 0
M  V30 21249 C 2055.22 -2.25173 3.63979 0
M  V30 21250 C 2054.54 -3.62124 3.93408 0
M  V30 21251 C 2055.84 -1.68267 4.94453 0
M  V30 21252 H 2057.54 -0.697176 2.9117 0
M  V30 21253 H 2055.08 -0.333914 1.40075 0
M  V30 21254 H 2057.04 -3.13234 2.81891 0
M  V30 21255 H 2055.76 -2.84112 1.61084 0
M  V30 21256 H 2054.42 -1.56154 3.3168 0
M  V30 21257 H 2054.07 -4.02013 3.02315 0
M  V30 21258 H 2053.77 -3.51861 4.70603 0
M  V30 21259 H 2055.29 -4.35036 4.28458 0
M  V30 21260 H 2056.71 -2.29582 5.25324 0
M  V30 21261 H 2055.1 -1.68731 5.7589 0
M  V30 21262 H 2056.17 -0.64309 4.80617 0
M  V30 21263 N 2057.52 -1.53558 -0.354624 0
M  V30 21264 C 2058.76 -1.69934 -1.09393 0
M  V30 21265 C 2059.08 -0.459423 -1.89511 0
M  V30 21266 O 2058.35 0.526608 -1.88689 0
M  V30 21267 H 2056.93 -0.626487 -0.406845 0
M  V30 21268 H 2059.6 -1.90781 -0.398582 0
M  V30 21269 H 2058.69 -2.56533 -1.77757 0
M  V30 21270 N 2058.99 0.615033 -1.45104 0
M  V30 21271 C 2060.41 0.934983 -1.29345 0
M  V30 21272 C 2060.61 2.00053 -0.241008 0
M  V30 21273 O 2059.67 2.4981 0.367607 0
M  V30 21274 C 2060.98 1.38297 -2.6701 0
M  V30 21275 C 2062.53 1.49759 -2.74848 0
M  V30 21276 C 2063 1.97936 -4.1302 0
M  V30 21277 N 2064.49 2.05181 -4.15277 0
M  V30 21278 C 2065.23 2.43664 -5.19052 0
M  V30 21279 N 2064.72 2.81169 -6.33179 0
M  V30 21280 N 2066.52 2.43938 -5.06409 0
M  V30 21281 H 2058.67 -0.0893888 -2.12212 0
M  V30 21282 H 2060.93 0.0226574 -0.947729 0
M  V30 21283 H 2060.64 0.674238 -3.45177 0
M  V30 21284 H 2060.51 2.35093 -2.94976 0
M  V30 21285 H 2062.9 2.19725 -1.9699 0
M  V30 21286 H 2062.98 0.512965 -2.50604 0
M  V30 21287 H 2062.62 1.28559 -4.9136 0
M  V30 21288 H 2062.55 2.97298 -4.34651 0
M  V30 21289 H 2065.04 1.78817 -3.32916 0
M  V30 21290 H 2065.36 3.09393 -7.08164 0
M  V30 21291 H 2063.7 2.78882 -6.36592 0
M  V30 21292 H 2066.89 2.1404 -4.16299 0
M  V30 21293 H 2067.07 2.73604 -5.87405 0
M  V30 21294 N 2060.47 1.3227 0.85688 0
M  V30 21295 C 2061.88 1.20411 1.42682 0
M  V30 21296 C 2062.23 -0.184254 1.95333 0
M  V30 21297 O 2061.36 -1.08285 1.87359 0
M  V30 21298 C 2061.95 2.17989 2.59358 0
M  V30 21299 C 2060.51 2.10024 3.12357 0
M  V30 21300 C 2059.66 2.0648 1.85098 0
M  V30 21301 H 2062.61 1.4413 0.664236 0
M  V30 21302 H 2062.63 1.77712 3.3645 0
M  V30 21303 H 2062.14 3.19026 2.21007 0
M  V30 21304 H 2060.24 1.12227 3.55297 0
M  V30 21305 H 2060.36 2.99744 3.73752 0
M  V30 21306 H 2058.72 1.51687 2.04605 0
M  V30 21307 H 2059.5 3.09296 1.48967 0
M  V30 21308 N 2061.95 -1.07287 1.15444 0
M  V30 21309 C 2062.9 -2.14506 0.85181 0
M  V30 21310 C 2063.87 -1.64945 -0.195533 0
M  V30 21311 O 2065.05 -1.90696 -0.0629401 0
M  V30 21312 C 2062.19 -3.43341 0.347981 0
M  V30 21313 C 2061.3 -4.0669 1.45697 0
M  V30 21314 C 2060.44 -5.23361 0.9092 0
M  V30 21315 C 2059.48 -5.78673 1.99508 0
M  V30 21316 N 2058.62 -6.86675 1.46364 0
M  V30 21317 H 2063.46 -2.39733 1.77008 0
M  V30 21318 H 2060.99 -1.17635 0.883195 0
M  V30 21319 H 2062.95 -4.17183 0.0375747 0
M  V30 21320 H 2061.58 -3.18363 -0.53337 0
M  V30 21321 H 2060.63 -3.30495 1.88355 0
M  V30 21322 H 2061.94 -4.43806 2.2768 0
M  V30 21323 H 2061.1 -6.04189 0.551375 0
M  V30 21324 H 2059.84 -4.87665 0.0585544 0
M  V30 21325 H 2058.84 -4.9649 2.36173 0
M  V30 21326 H 2060.07 -6.16425 2.84952 0
M  V30 21327 H 2058.01 -6.52916 0.635365 0
M  V30 21328 H 2057.93 -7.22678 2.21973 0
M  V30 21329 H 2059.2 -7.71206 1.13408 0
M  V30 21330 N 2063.43 -0.951342 -1.25647 0
M  V30 21331 C 2064.39 -0.473447 -2.24257 0
M  V30 21332 C 2065.39 0.421053 -1.5519 0
M  V30 21333 O 2066.58 0.218803 -1.7282 0
M  V30 21334 C 2063.71 0.316367 -3.39429 0
M  V30 21335 H 2064.91 -1.34499 -2.68049 0
M  V30 21336 H 2062.46 -0.734296 -1.37978 0
M  V30 21337 H 2063.19 1.20572 -3.01053 0
M  V30 21338 H 2062.98 -0.325315 -3.90748 0
M  V30 21339 H 2064.47 0.640306 -4.12662 0
M  V30 21340 N 2064.91 1.40216 -0.719531 0
M  V30 21341 C 2066.15 2.00047 -0.25771 0
M  V30 21342 C 2066.47 1.57718 1.15692 0
M  V30 21343 O 2067.67 2.10275 1.71746 0
M  V30 21344 C 2066.13 3.57559 -0.409824 0
M  V30 21345 C 2065.74 4.08859 -1.83134 0
M  V30 21346 C 2067.48 4.24499 -0.00899594 0
M  V30 21347 C 2065.39 5.58889 -1.93383 0
M  V30 21348 H 2064.32 0.748293 -0.0925975 0
M  V30 21349 H 2066.97 1.60406 -0.891188 0
M  V30 21350 H 2065.35 3.9492 0.292302 0
M  V30 21351 H 2066.53 3.82867 -2.56417 0
M  V30 21352 H 2064.84 3.54529 -2.18399 0
M  V30 21353 H 2067.44 5.34661 -0.0647997 0
M  V30 21354 H 2067.78 4.03267 1.0335 0
M  V30 21355 H 2068.31 3.92258 -0.66171 0
M  V30 21356 H 2065.05 5.8498 -2.95767 0
M  V30 21357 H 2064.57 5.86733 -1.24517 0
M  V30 21358 H 2066.25 6.24054 -1.70778 0
M  V30 21359 N 2066.38 0.466004 1.50553 0
M  V30 21360 C 2067.33 -0.330804 2.28417 0
M  V30 21361 C 2068.3 -0.991708 1.33246 0
M  V30 21362 O 2069.49 -1.00512 1.62179 0
M  V30 21363 C 2066.63 -1.40978 3.14991 0
M  V30 21364 C 2065.74 -0.76416 4.25188 0
M  V30 21365 C 2064.87 -1.8206 4.99027 0
M  V30 21366 C 2063.91 -1.15495 6.01105 0
M  V30 21367 N 2063.05 -2.15401 6.68242 0
M  V30 21368 H 2067.89 0.339504 2.9606 0
M  V30 21369 H 2065.43 0.179273 1.46003 0
M  V30 21370 H 2067.38 -2.04695 3.63532 0
M  V30 21371 H 2066.01 -2.04932 2.49405 0
M  V30 21372 H 2065.07 -0.0145483 3.80397 0
M  V30 21373 H 2066.38 -0.238458 4.9823 0
M  V30 21374 H 2065.53 -2.5337 5.51261 0
M  V30 21375 H 2064.27 -2.38009 4.25679 0
M  V30 21376 H 2063.28 -0.427447 5.48136 0
M  V30 21377 H 2064.5 -0.602414 6.76423 0
M  V30 21378 H 2062.45 -2.70378 5.97689 0
M  V30 21379 H 2062.36 -1.67802 7.37142 0
M  V30 21380 H 2063.63 -2.86107 7.25095 0
M  V30 21381 N 2067.86 -1.56346 0.198413 0
M  V30 21382 C 2069.09 -2.02058 -0.444989 0
M  V30 21383 C 2069.5 -1.07852 -1.54963 0
M  V30 21384 O 2068.86 -0.0839717 -1.82307 0
M  V30 21385 C 2068.91 -3.47445 -0.99822 0
M  V30 21386 O 2068.63 -4.38056 0.0623476 0
M  V30 21387 C 2070.13 -4.08691 -1.71717 0
M  V30 21388 H 2067.35 -0.661691 -0.111383 0
M  V30 21389 H 2069.9 -2.02166 0.308092 0
M  V30 21390 H 2068.05 -3.48026 -1.70167 0
M  V30 21391 H 2068.47 -5.23331 -0.349939 0
M  V30 21392 H 2069.94 -5.1226 -2.05654 0
M  V30 21393 H 2070.42 -3.52341 -2.62207 0
M  V30 21394 H 2071.02 -4.11892 -1.05949 0
M  V30 21395 N 2069.34 0.0751653 -1.57421 0
M  V30 21396 C 2070.62 0.807768 -1.78142 0
M  V30 21397 C 2071 1.95956 -0.785139 0
M  V30 21398 O 2070.35 2.27771 0.182413 0
M  V30 21399 C 2070.56 1.28385 -3.24528 0
M  V30 21400 C 2071.9 1.71859 -3.88265 0
M  V30 21401 O 2072.93 1.3796 -3.28398 0
M  V30 21402 O 2071.79 2.3461 -4.93579 0
M  V30 21403 H 2068.88 0.386806 -0.730965 0
M  V30 21404 H 2071.43 0.0555021 -1.69609 0
M  V30 21405 H 2070.2 0.459543 -3.88592 0
M  V30 21406 H 2069.82 2.09753 -3.37771 0
M  V30 21407 N 2070.82 1.53744 0.346476 0
M  V30 21408 C 2071.77 1.82222 1.44561 0
M  V30 21409 C 2072.76 0.69251 1.54598 0
M  V30 21410 O 2073.97 0.875797 1.57257 0
M  V30 21411 H 2070.34 0.577261 0.481948 0
M  V30 21412 H 2072.31 2.74183 1.17755 0
M  V30 21413 C 2071.06 2.04604 2.81127 0
M  V30 21414 H 2070.38 2.90983 2.74169 0
M  V30 21415 H 2071.82 2.28497 3.57162 0
M  V30 21416 C 2070.28 0.830699 3.26498 0
M  V30 21417 O 2070.81 0.0286844 4.0169 0
M  V30 21418 N 2069.02 0.648746 2.83266 0
M  V30 21419 H 2068.57 1.30257 2.22241 0
M  V30 21420 H 2068.52 -0.162972 3.13977 0
M  V30 21421 N 2072.3 -0.607329 1.45428 0
M  V30 21422 C 2073.54 -1.36363 1.49163 0
M  V30 21423 C 2073.87 -1.94533 0.134827 0
M  V30 21424 O 2073.14 -1.77174 -0.835838 0
M  V30 21425 H 2071.72 -0.506225 0.549314 0
M  V30 21426 H 2074.38 -0.713138 1.81385 0
M  V30 21427 H 2073.47 -2.18292 2.23058 0
M  V30 21428 N 2073.77 -1.32722 -0.849853 0
M  V30 21429 C 2075 -1.2671 -1.64193 0
M  V30 21430 C 2075.42 0.161092 -1.87409 0
M  V30 21431 O 2074.78 1.11408 -1.43031 0
M  V30 21432 C 2074.83 -2.03686 -2.97564 0
M  V30 21433 O 2073.93 -1.38794 -3.88343 0
M  V30 21434 H 2073.28 -0.436459 -0.5004 0
M  V30 21435 H 2075.81 -1.75113 -1.05813 0
M  V30 21436 H 2075.82 -2.1404 -3.47349 0
M  V30 21437 H 2074.49 -3.07537 -2.79989 0
M  V30 21438 H 2073.07 -1.37018 -3.46815 0
M  V30 21439 N 2075.25 1.06673 -1.16011 0
M  V30 21440 C 2076.49 1.80988 -0.949872 0
M  V30 21441 C 2076.86 1.85009 0.513401 0
M  V30 21442 O 2078.06 2.55265 0.842212 0
M  V30 21443 C 2076.33 3.21772 -1.55556 0
M  V30 21444 S 2077.89 4.12749 -1.48941 0
M  V30 21445 H 2074.71 0.623514 -0.341689 0
M  V30 21446 H 2077.31 1.28097 -1.47687 0
M  V30 21447 H 2076.01 3.16438 -2.61333 0
M  V30 21448 H 2075.54 3.79738 -1.02773 0
M  V30 21449 H 2077.56 4.93804 -0.487028 0
M  V30 21450 N 2076.73 0.957992 1.25141 0
M  V30 21451 C 2077.98 0.614592 1.92948 0
M  V30 21452 C 2078.31 -0.848868 1.74999 0
M  V30 21453 O 2077.56 -1.62488 1.09069 0
M  V30 21454 C 2077.86 0.923523 3.45262 0
M  V30 21455 C 2077.53 2.37356 3.83371 0
M  V30 21456 C 2076.19 2.7699 3.93484 0
M  V30 21457 C 2078.54 3.31508 4.02184 0
M  V30 21458 C 2075.87 4.09838 4.19821 0
M  V30 21459 C 2078.22 4.63973 4.30014 0
M  V30 21460 C 2076.88 5.03398 4.38345 0
M  V30 21461 H 2076.15 0.224895 0.706048 0
M  V30 21462 H 2078.8 1.20766 1.4862 0
M  V30 21463 H 2077.11 0.248102 3.91014 0
M  V30 21464 H 2078.8 0.636357 3.95919 0
M  V30 21465 H 2075.39 2.05619 3.76057 0
M  V30 21466 H 2079.58 3.02076 3.93781 0
M  V30 21467 H 2074.83 4.40023 4.24488 0
M  V30 21468 H 2079.01 5.36905 4.43516 0
M  V30 21469 H 2076.63 6.06363 4.58506 0
M  V30 21470 N 2078.21 -1.39832 0.726957 0
M  V30 21471 C 2079.44 -2.04978 0.281383 0
M  V30 21472 C 2079.85 -1.54795 -1.08092 0
M  V30 21473 O 2079.21 -0.709375 -1.68149 0
M  V30 21474 C 2079.26 -3.60526 0.265184 0
M  V30 21475 O 2078.98 -4.0886 1.5737 0
M  V30 21476 C 2080.48 -4.4286 -0.197547 0
M  V30 21477 H 2077.7 -0.659374 0.124366 0
M  V30 21478 H 2080.25 -1.7903 0.988352 0
M  V30 21479 H 2078.4 -3.85403 -0.392835 0
M  V30 21480 H 2078.81 -5.03132 1.48183 0
M  V30 21481 H 2080.29 -5.51775 -0.157727 0
M  V30 21482 H 2080.77 -4.21288 -1.24149 0
M  V30 21483 H 2081.37 -4.23114 0.430611 0
M  V30 21484 N 2079.69 -0.473982 -1.50304 0
M  V30 21485 C 2080.91 0.0798733 -2.07246 0
M  V30 21486 C 2081.34 1.3249 -1.33521 0
M  V30 21487 O 2080.69 1.77192 -0.383743 0
M  V30 21488 C 2080.74 0.343926 -3.58956 0
M  V30 21489 O 2079.85 1.42387 -3.8704 0
M  V30 21490 H 2079.19 -0.0142608 -0.663847 0
M  V30 21491 H 2081.72 -0.665854 -1.93462 0
M  V30 21492 H 2081.73 0.583558 -4.03805 0
M  V30 21493 H 2080.4 -0.565855 -4.12033 0
M  V30 21494 H 2078.98 1.17132 -3.54026 0
M  V30 21495 N 2081.16 1.56239 -0.206702 0
M  V30 21496 C 2082.11 2.19624 0.709491 0
M  V30 21497 C 2083.08 1.1471 1.20128 0
M  V30 21498 O 2084.27 1.43008 1.26307 0
M  V30 21499 C 2081.41 2.8686 1.91847 0
M  V30 21500 C 2080.52 4.0633 1.46696 0
M  V30 21501 C 2079.65 4.6139 2.63235 0
M  V30 21502 C 2078.69 5.73193 2.14747 0
M  V30 21503 N 2077.83 6.22608 3.24505 0
M  V30 21504 H 2082.67 2.97558 0.162225 0
M  V30 21505 H 2080.21 1.46941 0.0683253 0
M  V30 21506 H 2082.17 3.24019 2.62807 0
M  V30 21507 H 2080.8 2.1147 2.43886 0
M  V30 21508 H 2079.85 3.74757 0.652809 0
M  V30 21509 H 2081.16 4.87159 1.07131 0
M  V30 21510 H 2080.31 5.00914 3.42301 0
M  V30 21511 H 2079.05 3.79693 3.0608 0
M  V30 21512 H 2078.06 5.33186 1.34139 0
M  V30 21513 H 2079.28 6.56716 1.72919 0
M  V30 21514 H 2077.23 5.43829 3.66859 0
M  V30 21515 H 2077.15 6.98521 2.89145 0
M  V30 21516 H 2078.41 6.66788 4.0375 0
M  V30 21517 N 2082.64 -0.0668159 1.57458 0
M  V30 21518 C 2083.87 -0.781616 1.92108 0
M  V30 21519 C 2084.29 -1.70072 0.803553 0
M  V30 21520 O 2083.65 -1.7966 -0.243316 0
M  V30 21521 C 2083.7 -1.54705 3.25728 0
M  V30 21522 O 2082.8 -2.65804 3.15312 0
M  V30 21523 H 2082.14 -0.212907 0.628941 0
M  V30 21524 H 2084.67 -0.0335704 2.04572 0
M  V30 21525 H 2084.68 -1.92522 3.59721 0
M  V30 21526 H 2083.36 -0.872713 4.06641 0
M  V30 21527 H 2081.94 -2.30807 2.92886 0
M  V30 21528 N 2084.12 -1.53926 -0.338317 0
M  V30 21529 C 2085.35 -1.75368 -1.09789 0
M  V30 21530 C 2085.76 -0.495294 -1.82187 0
M  V30 21531 O 2085.12 0.533316 -1.74534 0
M  V30 21532 C 2085.17 -2.93722 -2.10736 0
M  V30 21533 O 2084.89 -4.14695 -1.4128 0
M  V30 21534 C 2086.39 -3.27258 -2.99027 0
M  V30 21535 H 2083.61 -0.585824 -0.327188 0
M  V30 21536 H 2086.16 -2.00767 -0.388932 0
M  V30 21537 H 2084.31 -2.70639 -2.77188 0
M  V30 21538 H 2084.73 -4.81165 -2.08759 0
M  V30 21539 H 2086.2 -4.13409 -3.65783 0
M  V30 21540 H 2086.68 -2.43786 -3.65329 0
M  V30 21541 H 2087.28 -3.52366 -2.38156 0
M  V30 21542 N 2085.6 0.599608 -1.45748 0
M  V30 21543 C 2087.02 0.921212 -1.3033 0
M  V30 21544 C 2087.22 1.99787 -0.262213 0
M  V30 21545 O 2086.27 2.50186 0.34109 0
M  V30 21546 C 2087.58 1.35457 -2.68462 0
M  V30 21547 C 2089.13 1.46835 -2.76421 0
M  V30 21548 C 2089.61 1.93544 -4.15096 0
M  V30 21549 N 2091.1 2.00765 -4.1743 0
M  V30 21550 C 2091.83 2.38145 -5.21608 0
M  V30 21551 N 2091.33 2.74437 -6.36126 0
M  V30 21552 N 2093.12 2.38554 -5.08968 0
M  V30 21553 H 2085.27 -0.111892 -2.12105 0
M  V30 21554 H 2087.54 0.0126042 -0.947916 0
M  V30 21555 H 2087.24 0.63759 -3.45872 0
M  V30 21556 H 2087.12 2.31951 -2.97453 0
M  V30 21557 H 2089.5 2.17623 -1.99309 0
M  V30 21558 H 2089.58 0.486356 -2.51134 0
M  V30 21559 H 2089.23 1.2334 -4.92696 0
M  V30 21560 H 2089.16 2.92672 -4.3778 0
M  V30 21561 H 2091.65 1.75275 -3.34794 0
M  V30 21562 H 2091.96 3.01865 -7.11405 0
M  V30 21563 H 2090.31 2.72115 -6.39514 0
M  V30 21564 H 2093.5 2.09612 -4.18546 0
M  V30 21565 H 2093.67 2.67359 -5.90274 0
M  V30 21566 N 2087.08 1.33171 0.842803 0
M  V30 21567 C 2087.99 1.25124 1.98447 0
M  V30 21568 C 2089 0.162551 1.73239 0
M  V30 21569 O 2090.18 0.385417 1.97678 0
M  V30 21570 C 2087.24 0.9866 3.32366 0
M  V30 21571 C 2086.31 2.16491 3.70716 0
M  V30 21572 C 2085.54 1.9128 4.98245 0
M  V30 21573 O 2085.76 0.861174 5.63862 0
M  V30 21574 O 2084.7 2.77708 5.34005 0
M  V30 21575 H 2088.52 2.21126 2.08175 0
M  V30 21576 H 2086.11 1.13178 0.975243 0
M  V30 21577 H 2087.99 0.856003 4.12614 0
M  V30 21578 H 2086.66 0.0568283 3.2365 0
M  V30 21579 H 2085.57 2.35103 2.90994 0
M  V30 21580 H 2086.9 3.07788 3.84093 0
M  V30 21581 N 2088.56 -1.06056 1.16576 0
M  V30 21582 C 2089.8 -1.79312 0.960147 0
M  V30 21583 C 2090.16 -1.85614 -0.506488 0
M  V30 21584 O 2089.45 -1.33848 -1.37096 0
M  V30 21585 C 2089.64 -3.23265 1.52429 0
M  V30 21586 C 2089.47 -3.30992 3.04425 0
M  V30 21587 C 2088.24 -3.40786 3.73086 0
M  V30 21588 C 2090.44 -3.20655 4.02101 0
M  V30 21589 N 2088.42 -3.37552 5.12769 0
M  V30 21590 C 2089.79 -3.24691 5.28181 0
M  V30 21591 C 2091.85 -3.04556 3.93891 0
M  V30 21592 C 2090.55 -3.14284 6.47007 0
M  V30 21593 C 2092.58 -2.95487 5.1229 0
M  V30 21594 C 2091.94 -3.00149 6.37252 0
M  V30 21595 H 2088.04 -0.668866 0.405144 0
M  V30 21596 H 2090.62 -1.26496 1.4801 0
M  V30 21597 H 2088.79 -3.74472 1.03079 0
M  V30 21598 H 2090.53 -3.8471 1.25619 0
M  V30 21599 H 2087.28 -3.45683 3.23729 0
M  V30 21600 H 2087.7 -3.39429 5.85762 0
M  V30 21601 H 2092.35 -2.99796 2.98131 0
M  V30 21602 H 2090.06 -3.178 7.42986 0
M  V30 21603 H 2093.65 -2.84115 5.07711 0
M  V30 21604 H 2092.53 -2.93193 7.27329 0
M  V30 21605 N 2090.03 -0.964615 -1.24631 0
M  V30 21606 C 2090.96 -0.511091 -2.27838 0
M  V30 21607 C 2091.94 0.447692 -1.64103 0
M  V30 21608 O 2093.13 0.344485 -1.9112 0
M  V30 21609 C 2090.26 0.202467 -3.46709 0
M  V30 21610 C 2089.21 -0.672032 -4.22691 0
M  V30 21611 C 2088.54 0.172842 -5.34421 0
M  V30 21612 C 2089.84 -1.9551 -4.84327 0
M  V30 21613 H 2091.53 -1.37371 -2.66025 0
M  V30 21614 H 2089.08 -0.661983 -1.27882 0
M  V30 21615 H 2091.03 0.530942 -4.18042 0
M  V30 21616 H 2089.76 1.09942 -3.07539 0
M  V30 21617 H 2088.42 -0.983734 -3.53155 0
M  V30 21618 H 2088.06 1.06985 -4.91491 0
M  V30 21619 H 2087.76 -0.409046 -5.86175 0
M  V30 21620 H 2089.29 0.496057 -6.08582 0
M  V30 21621 H 2090.7 -1.69241 -5.4775 0
M  V30 21622 H 2089.1 -2.48346 -5.46301 0
M  V30 21623 H 2090.17 -2.65197 -4.05954 0
M  V30 21624 N 2091.51 1.39445 -0.734362 0
M  V30 21625 C 2092.47 2.28971 -0.102477 0
M  V30 21626 C 2093.47 1.46277 0.667805 0
M  V30 21627 O 2094.66 1.66962 0.496917 0
M  V30 21628 C 2091.8 3.29767 0.864107 0
M  V30 21629 H 2092.99 2.86352 -0.891208 0
M  V30 21630 H 2090.54 1.48082 -0.500154 0
M  V30 21631 H 2091.28 2.7744 1.67922 0
M  V30 21632 H 2091.06 3.90837 0.314418 0
M  V30 21633 H 2092.55 3.96757 1.30282 0
M  V30 21634 N 2092.99 0.481946 1.5005 0
M  V30 21635 C 2094.41 0.13674 1.59013 0
M  V30 21636 C 2094.61 -1.35753 1.48908 0
M  V30 21637 O 2093.66 -2.1318 1.35316 0
M  V30 21638 C 2094.97 0.696597 2.9252 0
M  V30 21639 C 2096.52 0.660993 3.05941 0
M  V30 21640 C 2097 1.19858 4.42038 0
M  V30 21641 N 2098.49 1.15846 4.4848 0
M  V30 21642 C 2099.22 1.54481 5.52199 0
M  V30 21643 N 2098.72 2.00617 6.63117 0
M  V30 21644 N 2100.51 1.46016 5.42804 0
M  V30 21645 H 2092.66 1.45367 1.54862 0
M  V30 21646 H 2094.93 0.601814 0.732478 0
M  V30 21647 H 2094.63 1.74381 3.05425 0
M  V30 21648 H 2094.51 0.146249 3.76916 0
M  V30 21649 H 2096.89 -0.377335 2.92678 0
M  V30 21650 H 2096.97 1.24827 2.23275 0
M  V30 21651 H 2096.62 2.2356 4.56052 0
M  V30 21652 H 2096.55 0.587419 5.23313 0
M  V30 21653 H 2099.04 0.820197 3.68892 0
M  V30 21654 H 2099.35 2.28217 7.38334 0
M  V30 21655 H 2097.7 2.04578 6.64209 0
M  V30 21656 H 2100.89 1.09805 4.55039 0
M  V30 21657 H 2101.06 1.7645 6.23514 0
M  V30 21658 N 2094.47 -1.56127 0.214985 0
M  V30 21659 C 2095.71 -1.99176 -0.412386 0
M  V30 21660 C 2096.07 -1.10004 -1.57851 0
M  V30 21661 O 2095.36 -0.148599 -1.91023 0
M  V30 21662 C 2095.56 -3.45828 -0.902084 0
M  V30 21663 C 2095.38 -4.49186 0.215047 0
M  V30 21664 C 2094.15 -5.00713 0.679276 0
M  V30 21665 C 2096.35 -5.0386 1.03102 0
M  V30 21666 N 2094.33 -5.87765 1.77215 0
M  V30 21667 C 2095.71 -5.87773 1.97289 0
M  V30 21668 C 2097.76 -4.8624 1.0712 0
M  V30 21669 C 2096.46 -6.5595 2.95165 0
M  V30 21670 C 2098.49 -5.55171 2.03811 0
M  V30 21671 C 2097.85 -6.38847 2.96738 0
M  V30 21672 H 2093.95 -0.773083 -0.117759 0
M  V30 21673 H 2096.53 -1.91964 0.325249 0
M  V30 21674 H 2094.71 -3.535 -1.6091 0
M  V30 21675 H 2096.44 -3.75806 -1.50172 0
M  V30 21676 H 2093.19 -4.72835 0.269042 0
M  V30 21677 H 2093.62 -6.35993 2.32039 0
M  V30 21678 H 2098.26 -4.21207 0.366691 0
M  V30 21679 H 2095.98 -7.20169 3.66581 0
M  V30 21680 H 2099.56 -5.43507 2.07585 0
M  V30 21681 H 2098.44 -6.91246 3.70336 0
M  V30 21682 N 2095.95 0.0584645 -1.57492 0
M  V30 21683 C 2097.19 0.75358 -1.87525 0
M  V30 21684 C 2097.51 1.77436 -0.808803 0
M  V30 21685 O 2096.78 1.95237 0.161061 0
M  V30 21686 H 2095.36 0.281308 -0.692008 0
M  V30 21687 H 2098.03 0.0313879 -1.94875 0
M  V30 21688 H 2097.12 1.26151 -2.85469 0
M  V30 21689 N 2097.42 1.54103 0.330149 0
M  V30 21690 C 2098.67 1.71207 1.06635 0
M  V30 21691 C 2098.99 0.489127 1.89386 0
M  V30 21692 O 2100.19 0.541376 2.66048 0
M  V30 21693 C 2098.65 3.02796 1.94531 0
M  V30 21694 C 2098.26 4.32473 1.16924 0
M  V30 21695 C 2100 3.29264 2.67928 0
M  V30 21696 C 2097.91 5.55128 2.03928 0
M  V30 21697 H 2096.84 0.638008 0.401822 0
M  V30 21698 H 2099.49 1.80599 0.324996 0
M  V30 21699 H 2097.87 2.87294 2.7254 0
M  V30 21700 H 2099.04 4.5872 0.437326 0
M  V30 21701 H 2097.36 4.1272 0.552383 0
M  V30 21702 H 2099.96 4.18095 3.33318 0
M  V30 21703 H 2100.3 2.46855 3.35214 0
M  V30 21704 H 2100.83 3.45603 1.96985 0
M  V30 21705 H 2097.57 6.4012 1.41161 0
M  V30 21706 H 2097.09 5.3311 2.74871 0
M  V30 21707 H 2098.77 5.91282 2.62668 0
M  V30 21708 N 2098.9 -0.59187 1.46064 0
M  V30 21709 C 2099.87 -1.68357 1.55526 0
M  V30 21710 C 2100.87 -1.54854 0.433247 0
M  V30 21711 O 2102.06 -1.59637 0.697258 0
M  V30 21712 C 2099.19 -3.07729 1.46683 0
M  V30 21713 H 2100.38 -1.61328 2.5281 0
M  V30 21714 H 2097.93 -0.808941 1.33738 0
M  V30 21715 H 2098.67 -3.20321 0.506433 0
M  V30 21716 H 2098.45 -3.18939 2.2808 0
M  V30 21717 H 2099.94 -3.87218 1.5637 0
M  V30 21718 N 2100.38 -1.33616 -0.835729 0
M  V30 21719 C 2101.33 -1.20697 -1.93433 0
M  V30 21720 C 2102.31 -0.109103 -1.6053 0
M  V30 21721 O 2103.51 -0.337513 -1.73752 0
M  V30 21722 C 2100.64 -0.951566 -3.29849 0
M  V30 21723 C 2099.72 -2.09201 -3.68911 0
M  V30 21724 N 2100.11 -3.34223 -3.79642 0
M  V30 21725 C 2098.41 -1.99941 -3.98672 0
M  V30 21726 C 2099.11 -4.0904 -4.13596 0
M  V30 21727 N 2098.09 -3.37508 -4.26133 0
M  V30 21728 H 2101.89 -2.15456 -1.99889 0
M  V30 21729 H 2099.4 -1.25669 -1.02864 0
M  V30 21730 H 2101.4 -0.839935 -4.08351 0
M  V30 21731 H 2100.06 -0.0125334 -3.24698 0
M  V30 21732 H 2101.07 -3.68933 -3.63468 0
M  V30 21733 H 2097.75 -1.13716 -4.01715 0
M  V30 21734 H 2099.14 -5.16942 -4.29209 0
M  V30 21735 N 2101.86 1.05436 -1.17136 0
M  V30 21736 C 2103.09 1.82074 -0.982688 0
M  V30 21737 C 2103.5 1.8288 0.469081 0
M  V30 21738 O 2102.86 1.25425 1.3257 0
M  V30 21739 C 2102.91 3.28302 -1.51328 0
M  V30 21740 O 2102.63 3.27651 -2.9082 0
M  V30 21741 C 2104.13 4.21637 -1.36885 0
M  V30 21742 H 2101.35 0.57382 -0.347811 0
M  V30 21743 H 2103.9 1.32971 -1.55367 0
M  V30 21744 H 2102.05 3.74685 -0.984381 0
M  V30 21745 H 2102.46 4.19154 -3.15294 0
M  V30 21746 H 2103.94 5.2223 -1.78828 0
M  V30 21747 H 2104.42 4.38065 -0.315584 0
M  V30 21748 H 2105.02 3.81107 -1.88779 0
M  V30 21749 N 2103.34 0.971211 1.24118 0
M  V30 21750 C 2104.56 0.652748 1.96333 0
M  V30 21751 C 2104.98 -0.778509 1.72002 0
M  V30 21752 O 2104.34 -1.52276 1.00589 0
M  V30 21753 C 2104.39 0.922262 3.49538 0
M  V30 21754 O 2104.11 2.29726 3.73039 0
M  V30 21755 C 2105.61 0.618475 4.38964 0
M  V30 21756 H 2102.83 0.243252 0.625355 0
M  V30 21757 H 2105.37 1.3001 1.57853 0
M  V30 21758 H 2103.53 0.321067 3.86067 0
M  V30 21759 H 2103.94 2.37994 4.67396 0
M  V30 21760 H 2105.42 0.857482 5.45299 0
M  V30 21761 H 2105.89 -0.447327 4.36916 0
M  V30 21762 H 2106.5 1.19973 4.08028 0
M  V30 21763 N 2104.81 -1.39054 0.741747 0
M  V30 21764 C 2106.06 -1.99978 0.292077 0
M  V30 21765 C 2106.38 -1.59162 -1.12662 0
M  V30 21766 O 2105.65 -0.842958 -1.76836 0
M  V30 21767 H 2104.23 -0.739584 0.105 0
M  V30 21768 H 2106.9 -1.7 0.953207 0
M  V30 21769 H 2105.99 -3.10178 0.34581 0
M  V30 21770 N 2106.29 -0.489897 -1.49792 0
M  V30 21771 C 2107.54 0.0603289 -2.0161 0
M  V30 21772 C 2107.85 1.39071 -1.37545 0
M  V30 21773 O 2109.06 2.02698 -1.80626 0
M  V30 21774 C 2107.52 0.157998 -3.59553 0
M  V30 21775 C 2107.12 -1.16507 -4.32585 0
M  V30 21776 C 2108.87 0.65918 -4.19351 0
M  V30 21777 C 2106.78 -1.03017 -5.82358 0
M  V30 21778 H 2105.71 0.0263203 -0.75354 0
M  V30 21779 H 2108.36 -0.627641 -1.72432 0
M  V30 21780 H 2106.74 0.910172 -3.85398 0
M  V30 21781 H 2107.91 -1.92967 -4.1845 0
M  V30 21782 H 2106.23 -1.59883 -3.84482 0
M  V30 21783 H 2108.82 0.77744 -5.29018 0
M  V30 21784 H 2109.17 1.65527 -3.81977 0
M  V30 21785 H 2109.7 -0.0361409 -3.97784 0
M  V30 21786 H 2106.44 -2.00019 -6.24238 0
M  V30 21787 H 2105.96 -0.306276 -5.99018 0
M  V30 21788 H 2107.64 -0.704383 -6.43154 0
M  V30 21789 N 2107.77 1.56011 -0.223262 0
M  V30 21790 C 2109.18 1.84523 0.284276 0
M  V30 21791 C 2109.53 1.14468 1.59347 0
M  V30 21792 O 2108.66 0.414932 2.12385 0
M  V30 21793 C 2109.25 3.34746 0.522566 0
M  V30 21794 C 2107.81 3.63569 0.974409 0
M  V30 21795 C 2106.96 2.77273 0.038428 0
M  V30 21796 H 2109.91 1.52292 -0.446413 0
M  V30 21797 H 2109.93 3.55044 1.36835 0
M  V30 21798 H 2109.44 3.85705 -0.430453 0
M  V30 21799 H 2107.54 3.18067 1.94073 0
M  V30 21800 H 2107.66 4.71542 0.847634 0
M  V30 21801 H 2106.02 2.48789 0.545532 0
M  V30 21802 H 2106.8 3.31032 -0.909539 0
M  V30 21803 N 2109.25 -0.0501116 1.5752 0
M  V30 21804 C 2110.5 -0.743624 1.87922 0
M  V30 21805 C 2110.82 -1.77004 0.818202 0
M  V30 21806 O 2110.09 -1.95319 -0.150705 0
M  V30 21807 H 2108.67 -0.277634 0.69349 0
M  V30 21808 H 2111.33 -0.0210527 1.94889 0
M  V30 21809 H 2110.43 -1.24635 2.86134 0
M  V30 21810 N 2110.73 -1.54276 -0.321972 0
M  V30 21811 C 2111.67 -1.84499 -1.41644 0
M  V30 21812 C 2112.67 -0.717018 -1.53477 0
M  V30 21813 O 2113.87 -0.900704 -1.55844 0
M  V30 21814 H 2110.25 -0.584855 -0.472704 0
M  V30 21815 H 2112.22 -2.76022 -1.13378 0
M  V30 21816 C 2110.97 -2.09051 -2.77836 0
M  V30 21817 H 2110.29 -2.95308 -2.69505 0
M  V30 21818 H 2111.73 -2.3415 -3.53482 0
M  V30 21819 C 2110.19 -0.882537 -3.25135 0
M  V30 21820 O 2110.72 -0.0925862 -4.01593 0
M  V30 21821 N 2108.93 -0.693729 -2.82198 0
M  V30 21822 H 2108.47 -1.33776 -2.2014 0
M  V30 21823 H 2108.43 0.113 -3.14197 0
M  V30 21824 N 2112.2 0.584116 -1.46376 0
M  V30 21825 C 2113.43 1.37331 -1.55419 0
M  V30 21826 C 2113.85 1.87082 -0.195472 0
M  V30 21827 O 2113.21 1.61486 0.824141 0
M  V30 21828 C 2113.26 2.53779 -2.56181 0
M  V30 21829 O 2112.36 3.55172 -2.09586 0
M  V30 21830 H 2111.71 0.409042 -0.523049 0
M  V30 21831 H 2114.24 0.708655 -1.91936 0
M  V30 21832 H 2114.25 3.00715 -2.75744 0
M  V30 21833 H 2112.92 2.16921 -3.5485 0
M  V30 21834 H 2111.5 3.14726 -2.00005 0
M  V30 21835 N 2113.68 1.34058 0.828631 0
M  V30 21836 C 2114.62 1.21002 1.94657 0
M  V30 21837 C 2115.63 0.138478 1.6221 0
M  V30 21838 O 2116.82 0.389824 1.74191 0
M  V30 21839 C 2113.92 0.835704 3.28434 0
M  V30 21840 C 2113.09 2.00103 3.88944 0
M  V30 21841 C 2112.15 1.60604 5.01092 0
M  V30 21842 O 2111.18 2.32182 5.19692 0
M  V30 21843 N 2112.38 0.516907 5.78194 0
M  V30 21844 H 2115.14 2.17309 2.0639 0
M  V30 21845 H 2112.7 1.26938 1.00491 0
M  V30 21846 H 2114.7 0.553361 4.00899 0
M  V30 21847 H 2113.27 -0.0370007 3.12578 0
M  V30 21848 H 2112.49 2.44843 3.08943 0
M  V30 21849 H 2113.77 2.78052 4.26104 0
M  V30 21850 H 2113.17 -0.0782718 5.65646 0
M  V30 21851 H 2111.73 0.294274 6.51135 0
M  V30 21852 N 2115.16 -1.04814 1.17694 0
M  V30 21853 C 2116.41 -1.77532 0.96576 0
M  V30 21854 C 2116.73 -1.88306 -0.506545 0
M  V30 21855 O 2116 -1.40259 -1.36763 0
M  V30 21856 H 2114.58 -0.657613 0.354336 0
M  V30 21857 H 2117.24 -1.26536 1.48239 0
M  V30 21858 H 2116.34 -2.79071 1.39735 0
M  V30 21859 N 2116.64 -0.977779 -1.23601 0
M  V30 21860 C 2117.57 -0.473925 -2.24247 0
M  V30 21861 C 2118.58 0.422811 -1.57214 0
M  V30 21862 O 2119.77 0.227368 -1.77046 0
M  V30 21863 C 2116.87 0.334033 -3.3725 0
M  V30 21864 C 2116.05 -0.555203 -4.33862 0
M  V30 21865 C 2115.11 0.198457 -5.25826 0
M  V30 21866 O 2114.13 -0.411037 -5.67714 0
M  V30 21867 N 2115.33 1.48519 -5.61179 0
M  V30 21868 H 2118.1 -1.3393 -2.6811 0
M  V30 21869 H 2115.66 -0.850748 -1.37746 0
M  V30 21870 H 2117.65 0.846503 -3.95748 0
M  V30 21871 H 2116.22 1.1004 -2.92592 0
M  V30 21872 H 2115.44 -1.24853 -3.73905 0
M  V30 21873 H 2116.73 -1.16132 -4.95369 0
M  V30 21874 H 2116.13 2.00194 -5.29092 0
M  V30 21875 H 2114.68 1.94316 -6.22161 0
M  V30 21876 N 2118.12 1.38658 -0.749111 0
M  V30 21877 C 2119.08 2.28849 -0.126757 0
M  V30 21878 C 2120.08 1.46977 0.652253 0
M  V30 21879 O 2121.27 1.6748 0.479181 0
M  V30 21880 C 2118.4 3.30665 0.829083 0
M  V30 21881 H 2119.6 2.85391 -0.921529 0
M  V30 21882 H 2117.15 1.47543 -0.515832 0
M  V30 21883 H 2117.88 2.79205 1.6497 0
M  V30 21884 H 2117.67 3.91149 0.272946 0
M  V30 21885 H 2119.16 3.98117 1.26067 0
M  V30 21886 N 2119.6 0.497834 1.49531 0
M  V30 21887 C 2120.53 -0.328854 2.25818 0
M  V30 21888 C 2121.51 -0.97314 1.30264 0
M  V30 21889 O 2122.69 -1.00386 1.59546 0
M  V30 21890 C 2119.82 -1.46289 3.05479 0
M  V30 21891 C 2118.86 -0.933294 4.16163 0
M  V30 21892 S 2119.7 0.173411 5.35219 0
M  V30 21893 C 2120.85 -0.963862 6.18434 0
M  V30 21894 H 2121.09 0.318653 2.95587 0
M  V30 21895 H 2118.62 0.283085 1.51783 0
M  V30 21896 H 2120.58 -2.11268 3.5196 0
M  V30 21897 H 2119.24 -2.08199 2.35185 0
M  V30 21898 H 2118.43 -1.78306 4.71405 0
M  V30 21899 H 2118.03 -0.360765 3.72256 0
M  V30 21900 H 2120.32 -1.86978 6.51188 0
M  V30 21901 H 2121.27 -0.450129 7.06668 0
M  V30 21902 H 2121.68 -1.22977 5.50942 0
M  V30 21903 N 2121.07 -1.5589 0.231532 0
M  V30 21904 C 2122.32 -1.98855 -0.398041 0
M  V30 21905 C 2122.65 -1.11925 -1.58702 0
M  V30 21906 O 2121.93 -0.179155 -1.93673 0
M  V30 21907 C 2122.21 -3.50572 -0.822893 0
M  V30 21908 C 2122.06 -4.48272 0.370417 0
M  V30 21909 C 2123.38 -4.0696 -1.67547 0
M  V30 21910 H 2120.5 -0.722953 -0.143207 0
M  V30 21911 H 2123.14 -1.87116 0.329767 0
M  V30 21912 H 2121.29 -3.60706 -1.44303 0
M  V30 21913 H 2122.97 -4.50137 1.0087 0
M  V30 21914 H 2121.21 -4.2173 1.01617 0
M  V30 21915 H 2121.88 -5.51992 0.0300558 0
M  V30 21916 H 2124.36 -3.99831 -1.15214 0
M  V30 21917 H 2123.23 -5.13412 -1.94162 0
M  V30 21918 H 2123.49 -3.5446 -2.64217 0
M  V30 21919 N 2122.55 0.0417572 -1.57545 0
M  V30 21920 C 2123.46 1.06351 -2.09109 0
M  V30 21921 C 2124.48 1.40464 -1.02694 0
M  V30 21922 O 2125.65 1.50038 -1.34352 0
M  V30 21923 C 2122.72 2.34925 -2.54973 0
M  V30 21924 C 2121.78 2.0751 -3.75816 0
M  V30 21925 C 2121.01 3.29954 -4.19483 0
M  V30 21926 O 2121.24 4.40174 -3.62772 0
M  V30 21927 O 2120.17 3.16399 -5.12031 0
M  V30 21928 H 2124 0.655348 -2.96545 0
M  V30 21929 H 2121.58 0.257909 -1.47157 0
M  V30 21930 H 2123.46 3.10537 -2.84859 0
M  V30 21931 H 2122.14 2.75062 -1.70653 0
M  V30 21932 H 2121.04 1.29507 -3.50968 0
M  V30 21933 H 2122.38 1.72237 -4.61081 0
M  V30 21934 N 2124.03 1.54445 0.313786 0
M  V30 21935 C 2125.45 1.45373 0.658707 0
M  V30 21936 C 2125.65 0.634528 1.91248 0
M  V30 21937 O 2124.7 0.137176 2.52127 0
M  V30 21938 C 2126.01 2.89201 0.823608 0
M  V30 21939 C 2127.56 2.99164 0.92032 0
M  V30 21940 C 2128.04 4.44162 1.11732 0
M  V30 21941 N 2129.53 4.47817 1.18382 0
M  V30 21942 C 2130.26 5.57177 1.35431 0
M  V30 21943 N 2129.76 6.76486 1.4946 0
M  V30 21944 N 2131.55 5.44842 1.38217 0
M  V30 21945 H 2123.7 2.06182 -0.510155 0
M  V30 21946 H 2125.97 0.933263 -0.166508 0
M  V30 21947 H 2125.67 3.5169 -0.0265797 0
M  V30 21948 H 2125.55 3.35881 1.7165 0
M  V30 21949 H 2127.93 2.36797 1.761 0
M  V30 21950 H 2128.01 2.558 0.00368975 0
M  V30 21951 H 2127.66 5.0712 0.281448 0
M  V30 21952 H 2127.59 4.85145 2.04797 0
M  V30 21953 H 2130.08 3.61855 1.08945 0
M  V30 21954 H 2130.39 7.55589 1.62188 0
M  V30 21955 H 2128.74 6.79376 1.46539 0
M  V30 21956 H 2131.93 4.50582 1.2686 0
M  V30 21957 H 2132.1 6.30122 1.51161 0
M  V30 21958 N 2125.51 -0.576345 1.46683 0
M  V30 21959 C 2126.47 -1.66698 1.57303 0
M  V30 21960 C 2127.47 -1.54385 0.449647 0
M  V30 21961 O 2128.66 -1.58888 0.71415 0
M  V30 21962 C 2125.79 -3.06156 1.49938 0
M  V30 21963 H 2126.99 -1.58638 2.54507 0
M  V30 21964 H 2124.54 -0.79471 1.34588 0
M  V30 21965 H 2125.27 -3.19766 0.540379 0
M  V30 21966 H 2125.06 -3.16502 2.3145 0
M  V30 21967 H 2126.55 -3.85538 1.60469 0
M  V30 21968 N 2126.99 -1.34495 -0.82151 0
M  V30 21969 C 2127.93 -1.26196 -1.9539 0
M  V30 21970 C 2128.93 -0.159788 -1.68645 0
M  V30 21971 O 2130.13 -0.32485 -1.77044 0
M  V30 21972 H 2126.51 -0.392077 -0.6417 0
M  V30 21973 H 2128.48 -2.21896 -1.99511 0
M  V30 21974 C 2127.23 -1.03571 -3.31916 0
M  V30 21975 H 2126.55 -1.87615 -3.53045 0
M  V30 21976 H 2127.99 -1.01801 -4.11597 0
M  V30 21977 C 2126.45 0.260949 -3.35888 0
M  V30 21978 O 2126.98 1.26183 -3.81367 0
M  V30 21979 N 2125.19 0.29455 -2.89103 0
M  V30 21980 H 2124.73 -0.520521 -2.52286 0
M  V30 21981 H 2124.69 1.16189 -2.92143 0
M  V30 21982 N 2128.46 1.04188 -1.18248 0
M  V30 21983 C 2129.88 1.29568 -0.931902 0
M  V30 21984 C 2130.08 1.97424 0.403235 0
M  V30 21985 O 2129.14 2.25409 1.13785 0
M  V30 21986 C 2130.45 2.15557 -2.09656 0
M  V30 21987 C 2132 2.28907 -2.13473 0
M  V30 21988 C 2132.47 3.18262 -3.29353 0
M  V30 21989 N 2133.96 3.25849 -3.29206 0
M  V30 21990 C 2134.7 3.95141 -4.15513 0
M  V30 21991 N 2134.19 4.66775 -5.1195 0
M  V30 21992 N 2135.99 3.91408 -4.03431 0
M  V30 21993 H 2128.14 0.585496 -2.04171 0
M  V30 21994 H 2130.4 0.320854 -0.892052 0
M  V30 21995 H 2130.11 1.73002 -3.06208 0
M  V30 21996 H 2129.98 3.16231 -2.05616 0
M  V30 21997 H 2132.37 2.70698 -1.175 0
M  V30 21998 H 2132.45 1.27828 -2.21571 0
M  V30 21999 H 2132.09 2.77182 -4.25597 0
M  V30 22000 H 2132.02 4.1937 -3.18491 0
M  V30 22001 H 2134.51 2.74819 -2.59389 0
M  V30 22002 H 2134.83 5.17239 -5.74181 0
M  V30 22003 H 2133.17 4.65683 -5.15911 0
M  V30 22004 H 2136.36 3.34577 -3.27377 0
M  V30 22005 H 2136.54 4.45139 -4.70909 0
M  V30 22006 N 2129.94 0.98432 1.23081 0
M  V30 22007 C 2130.87 0.547274 2.26996 0
M  V30 22008 C 2131.85 -0.421528 1.64794 0
M  V30 22009 O 2133.04 -0.314036 1.91644 0
M  V30 22010 C 2130.17 -0.147283 3.46988 0
M  V30 22011 C 2129.12 0.739194 4.21568 0
M  V30 22012 C 2128.45 -0.0877981 5.34628 0
M  V30 22013 C 2129.75 2.03191 4.81156 0
M  V30 22014 H 2131.44 1.41586 2.63806 0
M  V30 22015 H 2128.99 0.682245 1.26813 0
M  V30 22016 H 2130.94 -0.464368 4.18834 0
M  V30 22017 H 2129.67 -1.05035 3.09249 0
M  V30 22018 H 2128.32 1.03979 3.51545 0
M  V30 22019 H 2127.97 -0.99152 4.93131 0
M  V30 22020 H 2127.67 0.50225 5.8545 0
M  V30 22021 H 2129.2 -0.399175 6.09294 0
M  V30 22022 H 2130.61 1.77933 5.44989 0
M  V30 22023 H 2129.01 2.57006 5.4228 0
M  V30 22024 H 2130.08 2.71622 4.01684 0
M  V30 22025 N 2131.42 -1.38259 0.756453 0
M  V30 22026 C 2132.35 -2.33042 0.146158 0
M  V30 22027 C 2133.33 -1.55012 -0.700373 0
M  V30 22028 O 2134.52 -1.83317 -0.640972 0
M  V30 22029 C 2131.65 -3.39202 -0.745585 0
M  V30 22030 C 2130.6 -4.28 -0.00155995 0
M  V30 22031 C 2129.93 -5.25041 -1.01174 0
M  V30 22032 C 2131.23 -5.09061 1.16852 0
M  V30 22033 H 2132.92 -2.84329 0.937934 0
M  V30 22034 H 2130.47 -1.36706 0.452478 0
M  V30 22035 H 2132.42 -4.04477 -1.18223 0
M  V30 22036 H 2131.14 -2.86405 -1.56971 0
M  V30 22037 H 2129.8 -3.64236 0.415692 0
M  V30 22038 H 2129.45 -4.68529 -1.83001 0
M  V30 22039 H 2129.15 -5.85307 -0.518554 0
M  V30 22040 H 2130.67 -5.93191 -1.44764 0
M  V30 22041 H 2132.09 -5.67559 0.809284 0
M  V30 22042 H 2130.49 -5.78577 1.59276 0
M  V30 22043 H 2131.56 -4.42631 1.98004 0
M  V30 22044 N 2132.9 -0.505757 -1.49264 0
M  V30 22045 C 2133.85 0.270127 -2.29214 0
M  V30 22046 C 2134.82 0.956031 -1.35828 0
M  V30 22047 O 2136 0.961771 -1.64787 0
M  V30 22048 C 2133.14 1.32577 -3.18618 0
M  V30 22049 C 2132.25 0.65116 -4.27064 0
M  V30 22050 C 2131.39 1.68765 -5.03678 0
M  V30 22051 C 2130.43 0.995172 -6.03956 0
M  V30 22052 N 2129.56 1.97608 -6.73718 0
M  V30 22053 H 2134.4 -0.41788 -2.95056 0
M  V30 22054 H 2131.94 -0.217921 -1.45477 0
M  V30 22055 H 2133.9 1.94985 -3.68832 0
M  V30 22056 H 2132.53 1.98248 -2.5475 0
M  V30 22057 H 2131.58 -0.0863124 -3.80302 0
M  V30 22058 H 2132.89 0.106277 -4.98687 0
M  V30 22059 H 2132.05 2.38665 -5.57785 0
M  V30 22060 H 2130.79 2.2664 -4.3184 0
M  V30 22061 H 2129.79 0.281968 -5.49076 0
M  V30 22062 H 2131.02 0.422861 -6.77782 0
M  V30 22063 H 2128.96 2.54436 -6.04647 0
M  V30 22064 H 2128.88 1.48199 -7.41332 0
M  V30 22065 H 2130.15 2.66782 -7.32426 0
M  V30 22066 N 2134.38 1.55765 -0.239796 0
M  V30 22067 C 2135.65 1.90659 0.436876 0
M  V30 22068 C 2136.03 1.1596 1.76398 0
M  V30 22069 O 2135.38 0.274778 2.26842 0
M  V30 22070 C 2135.59 3.43593 0.611939 0
M  V30 22071 C 2136.94 4.1471 0.911065 0
M  V30 22072 O 2137.96 3.49293 0.698064 0
M  V30 22073 O 2136.82 5.30411 1.3163 0
M  V30 22074 H 2133.92 0.793348 0.233511 0
M  V30 22075 H 2136.46 1.67318 -0.283335 0
M  V30 22076 H 2135.23 3.89961 -0.323424 0
M  V30 22077 H 2134.86 3.72773 1.38296 0
M  V30 22078 N 2135.85 -0.0334016 1.57565 0
M  V30 22079 C 2136.8 -1.03536 2.06274 0
M  V30 22080 C 2137.77 -1.36182 0.950989 0
M  V30 22081 O 2138.96 -1.46593 1.22127 0
M  V30 22082 C 2136.1 -2.33256 2.54334 0
M  V30 22083 C 2135.21 -2.06807 3.79282 0
M  V30 22084 C 2134.34 -3.30365 4.15971 0
M  V30 22085 C 2133.38 -2.99452 5.33849 0
M  V30 22086 N 2132.52 -4.15449 5.65991 0
M  V30 22087 H 2137.36 -0.613034 2.91626 0
M  V30 22088 H 2134.9 -0.291083 1.44191 0
M  V30 22089 H 2136.86 -3.09044 2.80264 0
M  V30 22090 H 2135.49 -2.73219 1.71905 0
M  V30 22091 H 2134.54 -1.21536 3.60463 0
M  V30 22092 H 2135.85 -1.8 4.6519 0
M  V30 22093 H 2135 -4.14524 4.43007 0
M  V30 22094 H 2133.74 -3.60282 3.28706 0
M  V30 22095 H 2132.75 -2.13695 5.06571 0
M  V30 22096 H 2133.97 -2.70817 6.22764 0
M  V30 22097 H 2131.92 -4.45326 4.81686 0
M  V30 22098 H 2131.84 -3.9205 6.464 0
M  V30 22099 H 2133.1 -5.00494 5.976 0
M  V30 22100 N 2137.33 -1.54609 -0.305591 0
M  V30 22101 C 2138.58 -1.72882 -1.03898 0
M  V30 22102 C 2138.89 -0.519195 -1.88583 0
M  V30 22103 O 2140.1 -0.583633 -2.65153 0
M  V30 22104 C 2138.56 -3.05853 -1.89689 0
M  V30 22105 C 2138.16 -4.34278 -1.10029 0
M  V30 22106 C 2139.91 -3.33485 -2.62656 0
M  V30 22107 C 2137.82 -5.58302 -1.9507 0
M  V30 22108 H 2136.75 -0.64432 -0.391621 0
M  V30 22109 H 2139.4 -1.81093 -0.296223 0
M  V30 22110 H 2137.78 -2.91594 -2.67935 0
M  V30 22111 H 2138.95 -4.59358 -0.364293 0
M  V30 22112 H 2137.27 -4.13546 -0.486653 0
M  V30 22113 H 2139.86 -4.23345 -3.26624 0
M  V30 22114 H 2140.21 -2.52157 -3.31244 0
M  V30 22115 H 2140.74 -3.48694 -1.91462 0
M  V30 22116 H 2137.48 -6.42285 -1.3096 0
M  V30 22117 H 2137 -5.37415 -2.66355 0
M  V30 22118 H 2138.68 -5.95386 -2.53228 0
M  V30 22119 N 2138.81 0.568558 -1.46987 0
M  V30 22120 C 2140.23 0.893359 -1.32254 0
M  V30 22121 C 2140.43 1.99185 -0.304531 0
M  V30 22122 O 2139.48 2.50853 0.287946 0
M  V30 22123 C 2140.8 1.29733 -2.71275 0
M  V30 22124 C 2142.34 1.40939 -2.79473 0
M  V30 22125 C 2142.82 1.84696 -4.19108 0
M  V30 22126 N 2144.31 1.91866 -4.21594 0
M  V30 22127 C 2145.04 2.27028 -5.26542 0
M  V30 22128 N 2144.54 2.60882 -6.41804 0
M  V30 22129 N 2146.33 2.27704 -5.13914 0
M  V30 22130 H 2138.48 -0.156857 -2.1182 0
M  V30 22131 H 2140.75 -0.00750539 -0.94797 0
M  V30 22132 H 2140.45 0.564082 -3.47147 0
M  V30 22133 H 2140.33 2.2559 -3.02306 0
M  V30 22134 H 2142.71 2.13347 -2.0388 0
M  V30 22135 H 2142.8 0.432977 -2.52109 0
M  V30 22136 H 2142.44 1.12862 -4.95202 0
M  V30 22137 H 2142.37 2.8332 -4.43889 0
M  V30 22138 H 2144.86 1.68135 -3.38436 0
M  V30 22139 H 2145.17 2.86707 -7.17648 0
M  V30 22140 H 2143.52 2.58488 -6.45142 0
M  V30 22141 H 2146.71 2.00687 -4.22898 0
M  V30 22142 H 2146.88 2.54778 -5.95812 0
M  V30 22143 N 2140.29 1.34929 0.814366 0
M  V30 22144 C 2141.53 1.27956 1.57338 0
M  V30 22145 C 2141.87 -0.147896 1.93636 0
M  V30 22146 O 2141.14 -1.09539 1.60722 0
M  V30 22147 C 2141.43 2.17862 2.8672 0
M  V30 22148 C 2141.28 3.69185 2.56948 0
M  V30 22149 C 2142.6 2.07033 3.88362 0
M  V30 22150 H 2139.72 0.466149 0.570854 0
M  V30 22151 H 2142.36 1.65259 0.937513 0
M  V30 22152 H 2140.51 1.86178 3.40984 0
M  V30 22153 H 2142.18 4.11275 2.08927 0
M  V30 22154 H 2140.42 3.89851 1.90259 0
M  V30 22155 H 2141.09 4.2747 3.49247 0
M  V30 22156 H 2143.57 2.34869 3.43476 0
M  V30 22157 H 2142.45 2.72151 4.76681 0
M  V30 22158 H 2142.71 1.04989 4.29453 0
M  V30 22159 N 2141.77 -1.0356 1.18799 0
M  V30 22160 C 2142.7 -2.13602 0.943213 0
M  V30 22161 C 2143.68 -1.69669 -0.120965 0
M  V30 22162 O 2144.86 -1.94173 0.0326748 0
M  V30 22163 C 2141.99 -3.44054 0.473716 0
M  V30 22164 C 2140.95 -4.01635 1.47896 0
M  V30 22165 C 2140.27 -5.27628 0.866789 0
M  V30 22166 C 2141.57 -4.3722 2.8572 0
M  V30 22167 H 2143.27 -2.34336 1.86351 0
M  V30 22168 H 2140.81 -1.12617 0.897406 0
M  V30 22169 H 2142.77 -4.20402 0.289804 0
M  V30 22170 H 2141.49 -3.23021 -0.482167 0
M  V30 22171 H 2140.15 -3.27374 1.6499 0
M  V30 22172 H 2139.8 -5.02908 -0.0964386 0
M  V30 22173 H 2139.5 -5.67115 1.53799 0
M  V30 22174 H 2141.02 -6.06649 0.693523 0
M  V30 22175 H 2142.43 -5.04533 2.72248 0
M  V30 22176 H 2140.83 -4.87771 3.49571 0
M  V30 22177 H 2141.9 -3.46821 3.38885 0
M  V30 22178 N 2143.25 -0.990834 -1.22557 0
M  V30 22179 C 2144.21 -0.544553 -2.22637 0
M  V30 22180 C 2145.21 0.371467 -1.56451 0
M  V30 22181 O 2146.4 0.163711 -1.73429 0
M  V30 22182 C 2143.53 0.20822 -3.40264 0
M  V30 22183 H 2144.72 -1.42959 -2.63634 0
M  V30 22184 H 2142.28 -0.77782 -1.35572 0
M  V30 22185 H 2143.01 1.10933 -3.04737 0
M  V30 22186 H 2142.8 -0.449464 -3.89515 0
M  V30 22187 H 2144.29 0.508696 -4.1449 0
M  V30 22188 N 2144.72 1.37856 -0.763775 0
M  V30 22189 C 2145.63 2.3415 -0.145216 0
M  V30 22190 C 2146.65 1.59782 0.688888 0
M  V30 22191 O 2147.83 1.91919 0.610668 0
M  V30 22192 C 2144.89 3.38934 0.729718 0
M  V30 22193 C 2143.95 4.29132 -0.119926 0
M  V30 22194 C 2143.18 5.28911 0.713343 0
M  V30 22195 O 2143.41 5.36002 1.95086 0
M  V30 22196 O 2142.34 6.01767 0.126758 0
M  V30 22197 H 2146.17 2.88763 -0.940736 0
M  V30 22198 H 2143.75 1.39879 -0.524814 0
M  V30 22199 H 2145.63 4.03066 1.22946 0
M  V30 22200 H 2144.31 2.86661 1.50356 0
M  V30 22201 H 2143.22 3.68127 -0.665843 0
M  V30 22202 H 2144.55 4.84688 -0.856664 0
M  V30 22203 N 2146.2 0.513665 1.48994 0
M  V30 22204 C 2147.45 -0.0262821 2.02083 0
M  V30 22205 C 2147.77 -1.36306 1.39448 0
M  V30 22206 O 2147.04 -1.87899 0.554154 0
M  V30 22207 H 2145.62 -0.012702 0.746892 0
M  V30 22208 H 2148.28 0.673788 1.82883 0
M  V30 22209 H 2147.38 -0.146648 3.11755 0
M  V30 22210 N 2147.68 -1.55636 0.248053 0
M  V30 22211 C 2148.96 -1.90888 -0.426759 0
M  V30 22212 C 2149.34 -1.16894 -1.75781 0
M  V30 22213 O 2148.68 -0.286804 -2.26693 0
M  V30 22214 C 2148.89 -3.43913 -0.593709 0
M  V30 22215 C 2150.24 -4.15188 -0.889059 0
M  V30 22216 O 2151.27 -3.49658 -0.67953 0
M  V30 22217 O 2150.13 -5.31102 -1.28815 0
M  V30 22218 H 2147.22 -0.794576 -0.2293 0
M  V30 22219 H 2149.77 -1.67165 0.292205 0
M  V30 22220 H 2148.54 -3.89784 0.3441 0
M  V30 22221 H 2148.16 -3.73502 -1.36317 0
M  V30 22222 N 2149.16 0.0250451 -1.5758 0
M  V30 22223 C 2150.41 0.713634 -1.89081 0
M  V30 22224 C 2150.73 1.7568 -0.846258 0
M  V30 22225 O 2150 1.95534 0.119612 0
M  V30 22226 H 2148.58 0.266566 -0.697819 0
M  V30 22227 H 2151.24 -0.00995501 -1.94897 0
M  V30 22228 H 2150.33 1.20068 -2.8808 0
M  V30 22229 N 2150.64 1.54769 0.297388 0
M  V30 22230 C 2151.88 1.74221 1.03214 0
M  V30 22231 C 2152.21 0.529956 1.87141 0
M  V30 22232 O 2151.47 -0.488036 1.89517 0
M  V30 22233 C 2151.76 2.98592 1.96412 0
M  V30 22234 C 2151.43 4.32222 1.28433 0
M  V30 22235 C 2150.09 4.68546 1.09626 0
M  V30 22236 C 2152.44 5.15045 0.798634 0
M  V30 22237 C 2149.77 5.8527 0.409394 0
M  V30 22238 C 2152.12 6.32476 0.125474 0
M  V30 22239 C 2150.79 6.67458 -0.0745188 0
M  V30 22240 H 2150.06 0.637521 0.377688 0
M  V30 22241 H 2152.71 1.89028 0.306675 0
M  V30 22242 H 2151.01 2.78581 2.75499 0
M  V30 22243 H 2152.71 3.10837 2.5334 0
M  V30 22244 H 2149.3 4.03658 1.44078 0
M  V30 22245 H 2153.48 4.87477 0.931633 0
M  V30 22246 H 2148.74 6.10915 0.243492 0
M  V30 22247 H 2152.91 6.95919 -0.258751 0
M  V30 22248 H 2150.54 7.57759 -0.608755 0
M  V30 22249 N 2152.11 -0.560755 1.47286 0
M  V30 22250 C 2153.05 -1.68362 1.54044 0
M  V30 22251 C 2154.02 -1.57783 0.392845 0
M  V30 22252 O 2155.21 -1.78691 0.60014 0
M  V30 22253 C 2152.34 -3.06581 1.43964 0
M  V30 22254 C 2151.38 -3.35616 2.63181 0
M  V30 22255 S 2152.21 -3.25261 4.254 0
M  V30 22256 C 2153.37 -4.6598 4.17868 0
M  V30 22257 H 2153.6 -1.62375 2.49042 0
M  V30 22258 H 2151.14 -0.741289 1.35441 0
M  V30 22259 H 2153.09 -3.86309 1.38836 0
M  V30 22260 H 2151.76 -3.10037 0.503571 0
M  V30 22261 H 2150.95 -4.36371 2.52182 0
M  V30 22262 H 2150.55 -2.63499 2.65413 0
M  V30 22263 H 2152.84 -5.56853 3.85903 0
M  V30 22264 H 2153.79 -4.82036 5.18698 0
M  V30 22265 H 2154.19 -4.4386 3.48781 0
M  V30 22266 N 2153.59 -1.35359 -0.807199 0
M  V30 22267 C 2154.54 -1.2823 -1.919 0
M  V30 22268 C 2155.51 -0.154371 -1.65381 0
M  V30 22269 O 2156.69 -0.337971 -1.87783 0
M  V30 22270 C 2153.83 -1.05957 -3.28431 0
M  V30 22271 C 2152.95 -2.27666 -3.6714 0
M  V30 22272 C 2152.08 -1.98548 -4.92699 0
M  V30 22273 C 2151.12 -3.16315 -5.24034 0
M  V30 22274 N 2150.26 -2.86976 -6.40772 0
M  V30 22275 H 2155.1 -2.23305 -1.97329 0
M  V30 22276 H 2152.63 -1.11004 -0.965216 0
M  V30 22277 H 2154.59 -0.910752 -4.07138 0
M  V30 22278 H 2153.22 -0.145447 -3.22472 0
M  V30 22279 H 2152.27 -2.53414 -2.83699 0
M  V30 22280 H 2153.59 -3.15606 -3.86257 0
M  V30 22281 H 2152.74 -1.80493 -5.7923 0
M  V30 22282 H 2151.48 -1.07893 -4.75616 0
M  V30 22283 H 2150.48 -3.34948 -4.35993 0
M  V30 22284 H 2151.71 -4.07771 -5.43047 0
M  V30 22285 H 2149.66 -1.98914 -6.25115 0
M  V30 22286 H 2149.57 -3.6845 -6.60137 0
M  V30 22287 H 2150.84 -2.72461 -7.30332 0
M  V30 22288 N 2155.07 1.02928 -1.19346 0
M  V30 22289 C 2156.49 1.28572 -0.945592 0
M  V30 22290 C 2156.69 1.97841 0.382273 0
M  V30 22291 O 2155.74 2.26603 1.11388 0
M  V30 22292 C 2157.05 2.13321 -2.11931 0
M  V30 22293 C 2158.6 2.2663 -2.15889 0
M  V30 22294 C 2159.08 3.14751 -3.3271 0
M  V30 22295 N 2160.57 3.22339 -3.32644 0
M  V30 22296 C 2161.3 3.90712 -4.19681 0
M  V30 22297 N 2160.8 4.61319 -5.16872 0
M  V30 22298 N 2162.59 3.87107 -4.07559 0
M  V30 22299 H 2154.74 0.563808 -2.0478 0
M  V30 22300 H 2157.01 0.311375 -0.895405 0
M  V30 22301 H 2156.71 1.69745 -3.08025 0
M  V30 22302 H 2156.59 3.14032 -2.08959 0
M  V30 22303 H 2158.97 2.69437 -1.20365 0
M  V30 22304 H 2159.05 1.25471 -2.22914 0
M  V30 22305 H 2158.7 2.72652 -4.28513 0
M  V30 22306 H 2158.63 4.15968 -3.22921 0
M  V30 22307 H 2161.12 2.72052 -2.6229 0
M  V30 22308 H 2161.43 5.1112 -5.79634 0
M  V30 22309 H 2159.78 4.60185 -5.20821 0
M  V30 22310 H 2162.97 3.31086 -3.30908 0
M  V30 22311 H 2163.14 4.40119 -4.75604 0
M  V30 22312 N 2156.55 0.997319 1.2203 0
M  V30 22313 C 2157.8 0.671095 1.90208 0
M  V30 22314 C 2158.11 -0.800818 1.78455 0
M  V30 22315 O 2159.32 -1.23881 2.4159 0
M  V30 22316 C 2157.77 1.14983 3.41038 0
M  V30 22317 C 2157.38 2.64727 3.61419 0
M  V30 22318 C 2159.12 0.898134 4.1489 0
M  V30 22319 C 2157.03 3.06181 5.05972 0
M  V30 22320 H 2155.96 0.247312 0.712287 0
M  V30 22321 H 2158.61 1.20747 1.38176 0
M  V30 22322 H 2156.99 0.541553 3.92279 0
M  V30 22323 H 2158.17 3.30938 3.2065 0
M  V30 22324 H 2156.48 2.87827 3.00906 0
M  V30 22325 H 2159.08 1.18349 5.21438 0
M  V30 22326 H 2159.42 -0.165703 4.1597 0
M  V30 22327 H 2159.96 1.46882 3.6969 0
M  V30 22328 H 2156.69 4.11759 5.10034 0
M  V30 22329 H 2156.21 2.44676 5.47625 0
M  V30 22330 H 2157.89 2.97729 5.74427 0
M  V30 22331 N 2158.03 -1.37449 0.771075 0
M  V30 22332 C 2159.44 -1.82352 0.400585 0
M  V30 22333 C 2159.79 -1.64247 -1.07318 0
M  V30 22334 O 2158.91 -1.15322 -1.83111 0
M  V30 22335 C 2159.51 -3.31054 0.720312 0
M  V30 22336 C 2158.07 -3.74238 0.402886 0
M  V30 22337 C 2157.21 -2.59986 0.964497 0
M  V30 22338 H 2160.17 -1.2593 0.965782 0
M  V30 22339 H 2160.19 -3.805 0.00472604 0
M  V30 22340 H 2159.7 -3.44199 1.793 0
M  V30 22341 H 2157.8 -3.66663 -0.662511 0
M  V30 22342 H 2157.91 -4.70365 0.910666 0
M  V30 22343 H 2156.28 -2.51715 0.388782 0
M  V30 22344 H 2157.06 -2.75924 2.04257 0
M  V30 22345 N 2159.5 -0.52156 -1.4872 0
M  V30 22346 C 2160.73 0.0117966 -2.06897 0
M  V30 22347 C 2161.15 1.28928 -1.37924 0
M  V30 22348 O 2160.5 1.76502 -0.464046 0
M  V30 22349 C 2160.56 0.248161 -3.60647 0
M  V30 22350 O 2160.28 -0.978703 -4.27028 0
M  V30 22351 C 2161.78 0.822848 -4.35596 0
M  V30 22352 H 2159 -0.0297145 -0.670342 0
M  V30 22353 H 2161.54 -0.724798 -1.91225 0
M  V30 22354 H 2159.7 0.934783 -3.75953 0
M  V30 22355 H 2160.11 -0.754221 -5.19049 0
M  V30 22356 H 2161.58 0.937703 -5.43977 0
M  V30 22357 H 2162.06 1.82571 -3.99455 0
M  V30 22358 H 2162.67 0.173056 -4.24948 0
M  V30 22359 N 2160.98 1.55502 -0.256304 0
M  V30 22360 C 2162.21 2.04025 0.372624 0
M  V30 22361 C 2162.63 1.13408 1.50067 0
M  V30 22362 O 2161.99 0.128888 1.80841 0
M  V30 22363 C 2162.04 3.50465 0.848906 0
M  V30 22364 O 2161.14 3.62969 1.95774 0
M  V30 22365 H 2160.48 0.659174 0.0799143 0
M  V30 22366 H 2163.01 2.00943 -0.385109 0
M  V30 22367 H 2163.02 3.91468 1.14965 0
M  V30 22368 H 2161.7 4.15893 0.0234786 0
M  V30 22369 H 2160.28 3.33865 1.66098 0
M  V30 22370 N 2162.46 -0.0166879 1.57591 0
M  V30 22371 C 2163.41 -1.01343 2.0736 0
M  V30 22372 C 2164.38 -1.35165 0.96538 0
M  V30 22373 O 2165.56 -1.4529 1.23675 0
M  V30 22374 C 2162.7 -2.30545 2.56794 0
M  V30 22375 C 2161.82 -2.02772 3.81454 0
M  V30 22376 C 2160.95 -3.25935 4.19452 0
M  V30 22377 C 2159.99 -2.93773 5.36995 0
M  V30 22378 N 2159.13 -4.09423 5.70366 0
M  V30 22379 H 2163.97 -0.582069 2.9226 0
M  V30 22380 H 2161.5 -0.275773 1.44492 0
M  V30 22381 H 2163.46 -3.06054 2.83526 0
M  V30 22382 H 2162.09 -2.7138 1.74793 0
M  V30 22383 H 2161.14 -1.17706 3.61731 0
M  V30 22384 H 2162.46 -1.75056 4.67073 0
M  V30 22385 H 2161.61 -4.09802 4.47378 0
M  V30 22386 H 2160.35 -3.56776 3.32509 0
M  V30 22387 H 2159.35 -2.0831 5.08809 0
M  V30 22388 H 2160.58 -2.64197 6.25601 0
M  V30 22389 H 2158.52 -4.40192 4.86382 0
M  V30 22390 H 2158.44 -3.85172 6.50521 0
M  V30 22391 H 2159.71 -4.94127 6.02875 0
M  V30 22392 N 2163.94 -1.54924 -0.289176 0
M  V30 22393 C 2164.87 -1.8308 -1.37892 0
M  V30 22394 C 2165.88 -0.714368 -1.4629 0
M  V30 22395 O 2167.07 -0.992012 -1.48396 0
M  V30 22396 C 2164.17 -1.96434 -2.76165 0
M  V30 22397 C 2163.35 -3.26949 -2.90557 0
M  V30 22398 C 2162.4 -3.3057 -4.09402 0
M  V30 22399 O 2161.43 -4.04038 -4.00926 0
M  V30 22400 N 2162.63 -2.56808 -5.20605 0
M  V30 22401 H 2165.4 -2.77135 -1.1409 0
M  V30 22402 H 2162.96 -1.54643 -0.479271 0
M  V30 22403 H 2164.95 -1.96244 -3.53935 0
M  V30 22404 H 2163.52 -1.0932 -2.92862 0
M  V30 22405 H 2162.74 -3.39813 -1.99802 0
M  V30 22406 H 2164.03 -4.13054 -2.97092 0
M  V30 22407 H 2163.43 -1.96772 -5.30375 0
M  V30 22408 H 2161.98 -2.6236 -5.96666 0
M  V30 22409 N 2165.42 0.552936 -1.47582 0
M  V30 22410 C 2166.66 1.30733 -1.54121 0
M  V30 22411 C 2166.99 1.93899 -0.206934 0
M  V30 22412 O 2166.26 1.80154 0.769505 0
M  V30 22413 H 2164.84 0.485489 -0.567723 0
M  V30 22414 H 2167.5 0.645327 -1.83906 0
M  V30 22415 H 2166.59 2.09863 -2.31006 0
M  V30 22416 N 2166.89 1.35785 0.800009 0
M  V30 22417 C 2167.8 1.31374 1.94366 0
M  V30 22418 C 2168.82 0.217584 1.72634 0
M  V30 22419 O 2170 0.448112 1.96352 0
M  V30 22420 C 2167.06 1.09184 3.29059 0
M  V30 22421 C 2166.12 2.28175 3.63641 0
M  V30 22422 C 2165.36 2.07034 4.91907 0
M  V30 22423 O 2165.58 1.04013 5.60836 0
M  V30 22424 O 2164.51 2.94557 5.249 0
M  V30 22425 H 2168.34 2.27637 2.01035 0
M  V30 22426 H 2165.92 1.16224 0.938743 0
M  V30 22427 H 2167.81 0.98684 4.09682 0
M  V30 22428 H 2166.48 0.159766 3.23305 0
M  V30 22429 H 2165.39 2.44241 2.83367 0
M  V30 22430 H 2166.72 3.19852 3.74106 0
M  V30 22431 N 2168.37 -1.02294 1.19891 0
M  V30 22432 C 2169.3 -2.12589 0.965816 0
M  V30 22433 C 2170.28 -1.69788 -0.102962 0
M  V30 22434 O 2171.47 -1.94127 0.0532676 0
M  V30 22435 C 2168.6 -3.43532 0.510181 0
M  V30 22436 C 2167.55 -4.00044 1.52147 0
M  V30 22437 C 2166.88 -5.26679 0.922703 0
M  V30 22438 C 2168.18 -4.34165 2.90341 0
M  V30 22439 H 2169.87 -2.32347 1.88826 0
M  V30 22440 H 2167.42 -1.11659 0.9093 0
M  V30 22441 H 2169.37 -4.20071 0.334377 0
M  V30 22442 H 2168.1 -3.23514 -0.447879 0
M  V30 22443 H 2166.75 -3.25606 1.68453 0
M  V30 22444 H 2166.4 -5.02982 -0.0430931 0
M  V30 22445 H 2166.1 -5.65452 1.59806 0
M  V30 22446 H 2167.63 -6.05879 0.757827 0
M  V30 22447 H 2169.04 -5.01617 2.77584 0
M  V30 22448 H 2167.44 -4.84036 3.54724 0
M  V30 22449 H 2168.51 -3.43207 3.42545 0
M  V30 22450 N 2169.85 -1.00378 -1.21499 0
M  V30 22451 C 2170.78 -0.583318 -2.26097 0
M  V30 22452 C 2171.76 0.395257 -1.65444 0
M  V30 22453 O 2172.95 0.283508 -1.92119 0
M  V30 22454 C 2170.08 0.0920619 -3.47178 0
M  V30 22455 C 2169.03 -0.806168 -4.20339 0
M  V30 22456 C 2168.36 0.0027323 -5.347 0
M  V30 22457 C 2169.66 -2.1082 -4.77862 0
M  V30 22458 H 2171.35 -1.45765 -2.6152 0
M  V30 22459 H 2168.9 -0.702333 -1.25711 0
M  V30 22460 H 2170.85 0.397677 -4.19519 0
M  V30 22461 H 2169.57 1.00102 -3.10881 0
M  V30 22462 H 2168.23 -1.09559 -3.49846 0
M  V30 22463 H 2167.88 0.912942 -4.94646 0
M  V30 22464 H 2167.58 -0.595326 -5.84576 0
M  V30 22465 H 2169.1 0.302191 -6.09852 0
M  V30 22466 H 2170.52 -1.86581 -5.42089 0
M  V30 22467 H 2168.92 -2.656 -5.38123 0
M  V30 22468 H 2169.99 -2.77978 -3.97311 0
M  V30 22469 N 2171.33 1.37038 -0.778354 0
M  V30 22470 C 2172.29 2.28529 -0.175271 0
M  V30 22471 C 2173.29 1.48328 0.62093 0
M  V30 22472 O 2174.48 1.68459 0.443548 0
M  V30 22473 C 2171.61 3.32349 0.758757 0
M  V30 22474 H 2172.81 2.83372 -0.981858 0
M  V30 22475 H 2170.36 1.46415 -0.547012 0
M  V30 22476 H 2171.09 2.82642 1.5901 0
M  V30 22477 H 2170.88 3.9164 0.189916 0
M  V30 22478 H 2172.37 4.00701 1.17594 0
M  V30 22479 N 2172.81 0.529439 1.48441 0
M  V30 22480 C 2173.75 -0.233627 2.29615 0
M  V30 22481 C 2174.72 -0.934301 1.37332 0
M  V30 22482 O 2175.91 -0.935433 1.66296 0
M  V30 22483 C 2173.05 -1.27491 3.20687 0
M  V30 22484 C 2172.16 -0.583135 4.28046 0
M  V30 22485 C 2171.3 -1.6073 5.06299 0
M  V30 22486 C 2170.34 -0.898962 6.05463 0
M  V30 22487 N 2169.47 -1.86865 6.76776 0
M  V30 22488 H 2174.31 0.464768 2.94353 0
M  V30 22489 H 2171.85 0.241037 1.45112 0
M  V30 22490 H 2173.81 -1.89092 3.71887 0
M  V30 22491 H 2172.44 -1.9417 2.57872 0
M  V30 22492 H 2171.49 0.146804 3.80117 0
M  V30 22493 H 2172.8 -0.0269268 4.98793 0
M  V30 22494 H 2171.96 -2.29761 5.61511 0
M  V30 22495 H 2170.7 -2.19741 4.35391 0
M  V30 22496 H 2169.7 -0.194579 5.49456 0
M  V30 22497 H 2170.93 -0.314978 6.78369 0
M  V30 22498 H 2168.87 -2.44784 6.08619 0
M  V30 22499 H 2168.79 -1.36386 7.43596 0
M  V30 22500 H 2170.06 -2.55096 7.36577 0
M  V30 22501 N 2174.29 -1.55364 0.264547 0
M  V30 22502 C 2175.25 -2.20814 -0.614312 0
M  V30 22503 C 2176.25 -1.18274 -1.0894 0
M  V30 22504 O 2177.44 -1.43246 -0.991274 0
M  V30 22505 C 2174.57 -2.86572 -1.84632 0
M  V30 22506 H 2175.76 -2.99869 -0.0430102 0
M  V30 22507 H 2173.32 -1.56293 0.0150952 0
M  V30 22508 H 2174.05 -2.11501 -2.45841 0
M  V30 22509 H 2173.84 -3.61704 -1.51369 0
M  V30 22510 H 2175.33 -3.36608 -2.47153 0
M  V30 22511 N 2175.76 0.00833021 -1.57598 0
M  V30 22512 C 2176.7 1.0361 -2.03323 0
M  V30 22513 C 2177.67 1.33969 -0.921475 0
M  V30 22514 O 2178.86 1.46274 -1.18895 0
M  V30 22515 C 2175.99 2.36579 -2.4238 0
M  V30 22516 C 2175.03 2.21938 -3.64205 0
M  V30 22517 S 2175.86 1.55325 -5.12479 0
M  V30 22518 C 2177.02 2.89741 -5.54798 0
M  V30 22519 H 2177.25 0.646724 -2.90181 0
M  V30 22520 H 2174.79 0.218949 -1.5284 0
M  V30 22521 H 2176.74 3.13037 -2.65552 0
M  V30 22522 H 2175.41 2.72658 -1.55937 0
M  V30 22523 H 2174.6 3.20148 -3.89257 0
M  V30 22524 H 2174.2 1.53624 -3.40992 0
M  V30 22525 H 2176.49 3.86052 -5.56749 0
M  V30 22526 H 2177.44 2.69399 -6.54851 0
M  V30 22527 H 2177.84 2.93267 -4.82343 0
M  V30 22528 N 2177.24 1.55075 0.280956 0
M  V30 22529 C 2178.47 1.79062 1.03055 0
M  V30 22530 C 2178.88 0.560149 1.80718 0
M  V30 22531 O 2178.22 -0.480122 1.77315 0
M  V30 22532 C 2178.28 2.95847 2.04242 0
M  V30 22533 C 2177.95 4.33189 1.4559 0
M  V30 22534 C 2178.95 5.12473 0.87563 0
M  V30 22535 C 2176.63 4.79831 1.4855 0
M  V30 22536 C 2178.62 6.36531 0.332759 0
M  V30 22537 C 2176.31 6.03846 0.938764 0
M  V30 22538 C 2177.31 6.82033 0.363385 0
M  V30 22539 O 2177 8.03709 -0.175 0
M  V30 22540 H 2176.73 0.600471 0.3105 0
M  V30 22541 H 2179.28 2.02898 0.319591 0
M  V30 22542 H 2177.51 2.67683 2.79075 0
M  V30 22543 H 2179.2 3.07228 2.65265 0
M  V30 22544 H 2179.97 4.77573 0.84552 0
M  V30 22545 H 2175.85 4.18989 1.92274 0
M  V30 22546 H 2179.39 6.97502 -0.116986 0
M  V30 22547 H 2175.29 6.3823 0.966087 0
M  V30 22548 H 2176.06 8.18475 -0.063602 0
M  V30 22549 N 2178.72 -0.545102 1.47873 0
M  V30 22550 C 2179.68 -1.63324 1.60804 0
M  V30 22551 C 2180.68 -1.53397 0.482294 0
M  V30 22552 O 2181.87 -1.57338 0.747692 0
M  V30 22553 C 2179 -3.02906 1.56399 0
M  V30 22554 H 2180.2 -1.53204 2.57815 0
M  V30 22555 H 2177.75 -0.765983 1.36244 0
M  V30 22556 H 2178.49 -3.18548 0.608084 0
M  V30 22557 H 2178.27 -3.11521 2.38112 0
M  V30 22558 H 2179.76 -3.82048 1.6861 0
M  V30 22559 N 2180.2 -1.36208 -0.792797 0
M  V30 22560 C 2181.13 -1.32936 -1.91964 0
M  V30 22561 C 2182.11 -0.2014 -1.68903 0
M  V30 22562 O 2183.29 -0.39852 -1.90067 0
M  V30 22563 C 2180.42 -1.11449 -3.28932 0
M  V30 22564 C 2179.38 -2.21033 -3.66508 0
M  V30 22565 C 2178.7 -1.84693 -5.01789 0
M  V30 22566 C 2180 -3.63096 -3.75444 0
M  V30 22567 H 2181.7 -2.27226 -1.94958 0
M  V30 22568 H 2179.24 -1.09381 -0.936582 0
M  V30 22569 H 2181.2 -1.07796 -4.07379 0
M  V30 22570 H 2179.92 -0.136086 -3.26316 0
M  V30 22571 H 2178.58 -2.23806 -2.90356 0
M  V30 22572 H 2178.23 -0.854356 -4.95691 0
M  V30 22573 H 2177.93 -2.58059 -5.27901 0
M  V30 22574 H 2179.45 -1.8259 -5.82661 0
M  V30 22575 H 2180.87 -3.62569 -4.44091 0
M  V30 22576 H 2179.26 -4.35339 -4.13037 0
M  V30 22577 H 2180.33 -3.98247 -2.76636 0
M  V30 22578 N 2181.68 1.01656 -1.20431 0
M  V30 22579 C 2182.62 2.12315 -0.950014 0
M  V30 22580 C 2183.62 1.69113 0.0986435 0
M  V30 22581 O 2184.82 1.79926 -0.0517176 0
M  V30 22582 H 2181.2 0.69388 -0.289886 0
M  V30 22583 H 2183.17 2.30948 -1.8896 0
M  V30 22584 C 2181.92 3.43809 -0.518689 0
M  V30 22585 H 2181.24 3.77478 -1.3172 0
M  V30 22586 H 2182.68 4.22294 -0.37997 0
M  V30 22587 C 2181.14 3.28008 0.768922 0
M  V30 22588 O 2181.67 3.5773 1.82735 0
M  V30 22589 N 2179.88 2.81257 0.730955 0
M  V30 22590 H 2179.42 2.57269 -0.13064 0
M  V30 22591 H 2179.38 2.71065 1.59282 0
M  V30 22592 N 2183.15 1.01021 1.20965 0
M  V30 22593 C 2184.1 0.54593 2.21368 0
M  V30 22594 C 2185.09 -0.395278 1.55969 0
M  V30 22595 O 2186.28 -0.219283 1.75636 0
M  V30 22596 C 2183.41 -0.120843 3.43087 0
M  V30 22597 C 2182.49 0.841693 4.15664 0
M  V30 22598 N 2182.89 1.99663 4.64724 0
M  V30 22599 C 2181.18 0.661168 4.41072 0
M  V30 22600 C 2181.88 2.60219 5.20251 0
M  V30 22601 N 2180.86 1.88334 5.09932 0
M  V30 22602 H 2184.66 1.42652 2.56959 0
M  V30 22603 H 2182.18 0.874711 1.3683 0
M  V30 22604 H 2184.17 -0.470956 4.14231 0
M  V30 22605 H 2182.83 -0.99735 3.09003 0
M  V30 22606 H 2183.84 2.37681 4.60139 0
M  V30 22607 H 2180.52 -0.167822 4.17163 0
M  V30 22608 H 2181.91 3.57924 5.6863 0
M  V30 22609 N 2184.63 -1.36623 0.78561 0
M  V30 22610 C 2185.88 -1.99342 0.356255 0
M  V30 22611 C 2186.21 -1.62355 -1.07103 0
M  V30 22612 O 2185.46 -0.868184 -1.75388 0
M  V30 22613 C 2185.76 -3.54391 0.462776 0
M  V30 22614 C 2185.43 -4.11186 1.85031 0
M  V30 22615 C 2184.09 -4.2641 2.22997 0
M  V30 22616 C 2186.44 -4.42184 2.75904 0
M  V30 22617 C 2183.77 -4.69941 3.51244 0
M  V30 22618 C 2186.12 -4.87145 4.03575 0
M  V30 22619 C 2184.78 -5.00575 4.41567 0
M  V30 22620 H 2184.05 -0.729443 0.130363 0
M  V30 22621 H 2186.7 -1.63173 1.00233 0
M  V30 22622 H 2185.01 -3.9089 -0.266811 0
M  V30 22623 H 2186.7 -4.00845 0.111658 0
M  V30 22624 H 2183.29 -3.99774 1.54528 0
M  V30 22625 H 2187.48 -4.29994 2.47827 0
M  V30 22626 H 2182.73 -4.78526 3.80556 0
M  V30 22627 H 2186.91 -5.10094 4.74106 0
M  V30 22628 H 2184.53 -5.34064 5.40999 0
M  V30 22629 N 2186.11 -0.537304 -1.48158 0
M  V30 22630 C 2187.02 0.225092 -2.33518 0
M  V30 22631 C 2188.04 0.931763 -1.4695 0
M  V30 22632 O 2189.21 0.905094 -1.79917 0
M  V30 22633 C 2186.28 1.25403 -3.23226 0
M  V30 22634 C 2185.34 0.556924 -4.25672 0
M  V30 22635 C 2184.57 1.53684 -5.11094 0
M  V30 22636 O 2184.79 2.77009 -4.9862 0
M  V30 22637 O 2183.73 1.07222 -5.92273 0
M  V30 22638 H 2187.55 -0.474567 -2.99969 0
M  V30 22639 H 2185.14 -0.298137 -1.46395 0
M  V30 22640 H 2187.02 1.84847 -3.78695 0
M  V30 22641 H 2185.7 1.93596 -2.59427 0
M  V30 22642 H 2184.6 -0.0781996 -3.74018 0
M  V30 22643 H 2185.94 -0.0832021 -4.9213 0
M  V30 22644 N 2187.59 1.55221 -0.272782 0
M  V30 22645 C 2189 1.59392 0.0814225 0
M  V30 22646 C 2189.2 1.29 1.54794 0
M  V30 22647 O 2188.26 1.04975 2.29644 0
M  V30 22648 C 2189.57 2.99288 -0.291106 0
M  V30 22649 C 2191.12 3.12097 -0.23753 0
M  V30 22650 C 2191.6 4.54255 -0.584464 0
M  V30 22651 N 2193.09 4.60089 -0.53593 0
M  V30 22652 C 2193.82 5.68108 -0.777202 0
M  V30 22653 N 2193.32 6.84283 -1.08297 0
M  V30 22654 N 2195.11 5.57647 -0.706157 0
M  V30 22655 H 2187.26 1.73242 -1.22886 0
M  V30 22656 H 2189.53 0.807717 -0.496284 0
M  V30 22657 H 2189.23 3.26355 -1.31093 0
M  V30 22658 H 2189.11 3.75389 0.36921 0
M  V30 22659 H 2191.49 2.84796 0.773005 0
M  V30 22660 H 2191.57 2.38214 -0.93207 0
M  V30 22661 H 2191.22 4.82282 -1.59267 0
M  V30 22662 H 2191.15 5.26435 0.13184 0
M  V30 22663 H 2193.64 3.76631 -0.309385 0
M  V30 22664 H 2193.95 7.62561 -1.2538 0
M  V30 22665 H 2192.3 6.85904 -1.12072 0
M  V30 22666 H 2195.49 4.65763 -0.46714 0
M  V30 22667 H 2195.66 6.41754 -0.897574 0
M  V30 22668 N 2189.07 2.77022e-05 1.576 0
M  V30 22669 C 2190.31 -0.683462 1.90193 0
M  V30 22670 C 2190.64 -1.74311 0.8741 0
M  V30 22671 O 2189.91 -1.957 -0.0884894 0
M  V30 22672 H 2188.49 -0.25543 0.701972 0
M  V30 22673 H 2191.15 0.0409602 1.94857 0
M  V30 22674 H 2190.24 -1.15469 2.89954 0
M  V30 22675 N 2190.54 -1.55222 -0.272728 0
M  V30 22676 C 2191.45 -1.91218 -1.35915 0
M  V30 22677 C 2192.47 -0.809463 -1.54025 0
M  V30 22678 O 2193.65 -1.10855 -1.68146 0
M  V30 22679 C 2190.71 -2.17698 -2.69831 0
M  V30 22680 C 2189.77 -3.41258 -2.60464 0
M  V30 22681 C 2189.01 -3.66465 -3.87994 0
M  V30 22682 O 2189.23 -2.94178 -4.88688 0
M  V30 22683 O 2188.16 -4.59999 -3.88181 0
M  V30 22684 H 2191.99 -2.83701 -1.08385 0
M  V30 22685 H 2189.57 -1.41772 -0.471276 0
M  V30 22686 H 2191.46 -2.36153 -3.49012 0
M  V30 22687 H 2190.13 -1.28397 -2.97146 0
M  V30 22688 H 2189.04 -3.28137 -1.79657 0
M  V30 22689 H 2190.37 -4.30778 -2.38098 0
M  V30 22690 N 2192.02 0.537252 -1.4816 0
M  V30 22691 C 2192.97 1.66349 -1.62575 0
M  V30 22692 C 2193.96 1.62086 -0.492394 0
M  V30 22693 O 2195.17 1.67031 -0.670876 0
M  V30 22694 H 2191.55 0.55078 -0.512001 0
M  V30 22695 H 2193.52 1.51332 -2.57179 0
M  V30 22696 C 2192.27 3.04646 -1.67589 0
M  V30 22697 H 2191.59 3.08617 -2.54156 0
M  V30 22698 H 2193.03 3.83085 -1.8172 0
M  V30 22699 C 2191.49 3.34358 -0.413097 0
M  V30 22700 O 2192.02 3.98856 0.477189 0
M  V30 22701 N 2190.22 2.89179 -0.287012 0
M  V30 22702 H 2189.77 2.3687 -1.01245 0
M  V30 22703 H 2189.73 3.09428 0.556909 0
M  V30 22704 N 2193.5 1.36626 0.785562 0
M  V30 22705 C 2194.73 1.34233 1.57446 0
M  V30 22706 C 2195.14 -0.0755322 1.88649 0
M  V30 22707 O 2194.5 -1.03351 1.50416 0
M  V30 22708 C 2194.55 2.1675 2.89312 0
M  V30 22709 O 2194.27 3.5301 2.59452 0
M  V30 22710 C 2195.77 2.22181 3.83602 0
M  V30 22711 H 2192.99 0.460309 0.488218 0
M  V30 22712 H 2195.54 1.79777 0.974701 0
M  V30 22713 H 2193.69 1.74751 3.45747 0
M  V30 22714 H 2194.11 3.96111 3.43797 0
M  V30 22715 H 2195.58 2.84268 4.73176 0
M  V30 22716 H 2196.06 1.22634 4.21732 0
M  V30 22717 H 2196.66 2.64433 3.331 0
M  V30 22718 N 2194.98 -1.01016 1.20969 0
M  V30 22719 C 2195.93 -2.09689 0.964317 0
M  V30 22720 C 2196.9 -1.6575 -0.107824 0
M  V30 22721 O 2198.08 -1.90762 0.0382323 0
M  V30 22722 C 2195.22 -3.41014 0.52949 0
M  V30 22723 C 2194.33 -3.98395 1.6705 0
M  V30 22724 C 2193.47 -5.17806 1.18534 0
M  V30 22725 C 2192.51 -5.67284 2.29902 0
M  V30 22726 N 2191.64 -6.77951 1.82558 0
M  V30 22727 H 2196.48 -2.30013 1.89467 0
M  V30 22728 H 2194.02 -1.12788 0.944309 0
M  V30 22729 H 2195.98 -4.16397 0.258662 0
M  V30 22730 H 2194.61 -3.20743 -0.363862 0
M  V30 22731 H 2193.66 -3.20046 2.05609 0
M  V30 22732 H 2194.97 -4.31113 2.50885 0
M  V30 22733 H 2194.13 -6.00417 0.870867 0
M  V30 22734 H 2192.87 -4.86669 0.316973 0
M  V30 22735 H 2191.87 -4.83273 2.62158 0
M  V30 22736 H 2193.1 -6.00453 3.17226 0
M  V30 22737 H 2191.04 -6.4863 0.980568 0
M  V30 22738 H 2190.96 -7.09896 2.59969 0
M  V30 22739 H 2192.23 -7.6411 1.54129 0
M  V30 22740 N 2196.46 -1.01661 -1.20428 0
M  V30 22741 C 2197.68 -0.725166 -1.93776 0
M  V30 22742 C 2198.1 0.714135 -1.74773 0
M  V30 22743 O 2197.46 1.48438 -1.06171 0
M  V30 22744 C 2197.51 -1.05136 -3.45874 0
M  V30 22745 O 2197.23 -2.43412 -3.64255 0
M  V30 22746 C 2198.73 -0.780967 -4.36367 0
M  V30 22747 H 2195.95 -0.266294 -0.615896 0
M  V30 22748 H 2198.49 -1.35779 -1.52919 0
M  V30 22749 H 2196.65 -0.464133 -3.8461 0
M  V30 22750 H 2197.06 -2.55177 -4.58241 0
M  V30 22751 H 2198.54 -1.05928 -5.41741 0
M  V30 22752 H 2199.01 0.28486 -4.38275 0
M  V30 22753 H 2199.62 -1.35034 -4.03294 0
M  V30 22754 N 2197.93 1.36205 -0.792844 0
M  V30 22755 C 2199.35 1.81692 -0.429545 0
M  V30 22756 C 2199.7 1.65934 1.04692 0
M  V30 22757 O 2198.82 1.18221 1.81253 0
M  V30 22758 C 2199.42 3.29866 -0.772889 0
M  V30 22759 C 2197.98 3.73549 -0.462373 0
M  V30 22760 C 2197.12 2.58419 -1.00574 0
M  V30 22761 H 2200.07 1.24378 -0.985694 0
M  V30 22762 H 2200.09 3.80444 -0.0652596 0
M  V30 22763 H 2199.61 3.41303 -1.84753 0
M  V30 22764 H 2197.71 3.6767 0.604094 0
M  V30 22765 H 2197.82 4.68857 -0.985382 0
M  V30 22766 H 2196.18 2.51065 -0.428778 0
M  V30 22767 H 2196.97 2.72639 -2.08621 0
M  V30 22768 N 2199.41 0.545154 1.47871 0
M  V30 22769 C 2200.66 0.0145388 2.01695 0
M  V30 22770 C 2200.97 -1.3387 1.42612 0
M  V30 22771 O 2202.18 -1.95854 1.88025 0
M  V30 22772 C 2200.64 -0.0244435 3.59892 0
M  V30 22773 C 2200.24 1.32482 4.27963 0
M  V30 22774 C 2201.99 -0.503086 4.21508 0
M  V30 22775 C 2199.9 1.2456 5.78134 0
M  V30 22776 H 2198.83 0.00166498 0.753998 0
M  V30 22777 H 2201.48 0.691205 1.69984 0
M  V30 22778 H 2199.86 -0.766507 3.88511 0
M  V30 22779 H 2201.03 2.08365 4.11 0
M  V30 22780 H 2199.35 1.74042 3.78283 0
M  V30 22781 H 2201.94 -0.580563 5.31539 0
M  V30 22782 H 2202.29 -1.51236 3.87858 0
M  V30 22783 H 2202.82 0.183751 3.97375 0
M  V30 22784 H 2199.56 2.2305 6.16384 0
M  V30 22785 H 2199.08 0.528387 5.97468 0
M  V30 22786 H 2200.76 0.9426 6.40097 0
M  V30 22787 N 2200.89 -1.55074 0.28101 0
M  V30 22788 C 2201.82 -2.20164 -0.637229 0
M  V30 22789 C 2202.84 -1.18815 -1.11296 0
M  V30 22790 O 2204.02 -1.45512 -1.03386 0
M  V30 22791 C 2201.12 -2.81844 -1.88195 0
M  V30 22792 C 2200.3 -4.08938 -1.55204 0
M  V30 22793 C 2199.36 -4.5461 -2.64983 0
M  V30 22794 O 2198.38 -5.20254 -2.3092 0
M  V30 22795 N 2199.58 -4.25245 -3.95154 0
M  V30 22796 H 2202.35 -2.99593 -0.0801167 0
M  V30 22797 H 2199.91 -1.61576 0.102357 0
M  V30 22798 H 2201.9 -3.0934 -2.60942 0
M  V30 22799 H 2200.47 -2.06373 -2.34796 0
M  V30 22800 H 2199.69 -3.88668 -0.658117 0
M  V30 22801 H 2200.98 -4.91734 -1.30673 0
M  V30 22802 H 2200.38 -3.72614 -4.25647 0
M  V30 22803 H 2198.94 -4.57498 -4.64261 0
M  V30 22804 N 2202.37 -0.00838561 -1.57598 0
M  V30 22805 C 2203.32 0.980309 -2.08946 0
M  V30 22806 C 2204.29 1.33612 -0.986761 0
M  V30 22807 O 2205.47 1.43304 -1.25971 0
M  V30 22808 C 2202.61 2.2643 -2.60429 0
M  V30 22809 C 2201.72 1.96678 -3.84632 0
M  V30 22810 C 2200.86 3.1922 -4.24584 0
M  V30 22811 C 2199.9 2.85192 -5.41601 0
M  V30 22812 N 2199.04 4.00297 -5.76807 0
M  V30 22813 H 2203.88 0.535499 -2.93149 0
M  V30 22814 H 2201.41 0.252751 -1.44912 0
M  V30 22815 H 2203.37 3.01504 -2.88359 0
M  V30 22816 H 2202 2.68565 -1.79088 0
M  V30 22817 H 2201.05 1.11936 -3.63558 0
M  V30 22818 H 2202.36 1.67603 -4.69799 0
M  V30 22819 H 2201.52 4.02633 -4.53841 0
M  V30 22820 H 2200.26 3.51441 -3.38143 0
M  V30 22821 H 2199.26 2.00189 -5.12059 0
M  V30 22822 H 2200.49 2.54211 -6.29725 0
M  V30 22823 H 2198.43 4.32398 -4.93323 0
M  V30 22824 H 2198.35 3.74774 -6.56567 0
M  V30 22825 H 2199.62 4.84473 -6.1066 0
M  V30 22826 N 2203.85 1.55365 0.264492 0
M  V30 22827 C 2204.8 1.85216 1.32962 0
M  V30 22828 C 2205.78 0.711678 1.44305 0
M  V30 22829 O 2206.97 0.973218 1.47843 0
M  V30 22830 C 2204.1 2.135 2.68836 0
M  V30 22831 C 2203.19 3.3383 2.61569 0
M  V30 22832 N 2203.58 4.53532 2.23925 0
M  V30 22833 C 2201.88 3.36589 2.92615 0
M  V30 22834 C 2202.58 5.3564 2.26858 0
M  V30 22835 N 2201.55 4.74259 2.65669 0
M  V30 22836 H 2205.36 2.75305 1.02879 0
M  V30 22837 H 2202.87 1.55355 0.473129 0
M  V30 22838 H 2204.87 2.33045 3.45681 0
M  V30 22839 H 2203.53 1.24699 2.998 0
M  V30 22840 H 2204.54 4.79477 1.9576 0
M  V30 22841 H 2201.22 2.58008 3.28235 0
M  V30 22842 H 2202.61 6.41368 2.00243 0
M  V30 22843 N 2205.33 -0.529387 1.48443 0
M  V30 22844 C 2206.57 -1.2846 1.57701 0
M  V30 22845 C 2206.93 -1.90796 0.247947 0
M  V30 22846 O 2206.22 -1.76343 -0.749248 0
M  V30 22847 C 2206.41 -2.39553 2.65234 0
M  V30 22848 C 2206.24 -1.88107 4.08468 0
M  V30 22849 C 2205.01 -1.70685 4.75599 0
M  V30 22850 C 2207.21 -1.40926 4.94615 0
M  V30 22851 N 2205.19 -1.1387 6.03247 0
M  V30 22852 C 2206.56 -0.960627 6.12513 0
M  V30 22853 C 2208.62 -1.29235 4.80835 0
M  V30 22854 C 2207.32 -0.406666 7.1815 0
M  V30 22855 C 2209.35 -0.752384 5.86595 0
M  V30 22856 C 2208.71 -0.313823 7.03701 0
M  V30 22857 H 2204.81 -0.461069 0.631616 0
M  V30 22858 H 2207.39 -0.596853 1.85326 0
M  V30 22859 H 2205.56 -3.05823 2.3943 0
M  V30 22860 H 2207.3 -3.06584 2.64174 0
M  V30 22861 H 2204.05 -1.94225 4.31942 0
M  V30 22862 H 2204.47 -0.874713 6.71325 0
M  V30 22863 H 2209.12 -1.61747 3.90638 0
M  V30 22864 H 2206.83 -0.069225 8.0807 0
M  V30 22865 H 2210.42 -0.665091 5.77986 0
M  V30 22866 H 2209.3 0.097501 7.84139 0
M  V30 22867 N 2206.8 -1.37041 -0.778305 0
M  V30 22868 C 2208.22 -1.17697 -1.07794 0
M  V30 22869 C 2208.42 -0.00863657 -2.01498 0
M  V30 22870 O 2207.48 0.653309 -2.43902 0
M  V30 22871 C 2208.79 -2.49275 -1.68174 0
M  V30 22872 C 2210.34 -2.55739 -1.80463 0
M  V30 22873 C 2210.81 -3.87431 -2.44257 0
M  V30 22874 N 2212.3 -3.88837 -2.51714 0
M  V30 22875 C 2213.04 -4.87481 -3.01911 0
M  V30 22876 N 2212.53 -5.9652 -3.5233 0
M  V30 22877 N 2214.33 -4.74891 -3.00725 0
M  V30 22878 H 2206.48 -2.11826 -0.155995 0
M  V30 22879 H 2208.74 -0.938789 -0.131827 0
M  V30 22880 H 2208.45 -3.35095 -1.0679 0
M  V30 22881 H 2208.32 -2.65889 -2.67549 0
M  V30 22882 H 2210.71 -1.70329 -2.40981 0
M  V30 22883 H 2210.79 -2.43014 -0.798613 0
M  V30 22884 H 2210.43 -4.73251 -1.84379 0
M  V30 22885 H 2210.36 -3.97456 -3.45451 0
M  V30 22886 H 2212.85 -3.10067 -2.16025 0
M  V30 22887 H 2213.17 -6.67748 -3.89015 0
M  V30 22888 H 2211.51 -6.00174 -3.50452 0
M  V30 22889 H 2214.7 -3.8883 -2.60631 0
M  V30 22890 H 2214.88 -5.51924 -3.39535 0
M  V30 22891 N 2208.28 1.00373 -1.21503 0
M  V30 22892 C 2209.69 1.55619 -1.03149 0
M  V30 22893 C 2210.04 1.91904 0.408341 0
M  V30 22894 O 2209.17 1.73618 1.29174 0
M  V30 22895 C 2209.76 2.82771 -1.86617 0
M  V30 22896 C 2208.32 3.34498 -1.72591 0
M  V30 22897 C 2207.47 2.0768 -1.83751 0
M  V30 22898 H 2210.42 0.826057 -1.35506 0
M  V30 22899 H 2210.44 3.54703 -1.37716 0
M  V30 22900 H 2209.95 2.56331 -2.91403 0
M  V30 22901 H 2208.05 3.65871 -0.704941 0
M  V30 22902 H 2208.17 4.05833 -2.5463 0
M  V30 22903 H 2206.53 2.20736 -1.27073 0
M  V30 22904 H 2207.31 1.8365 -2.90048 0
M  V30 22905 N 2209.76 1.02298 1.19887 0
M  V30 22906 C 2210.99 0.735433 1.93388 0
M  V30 22907 C 2211.4 -0.704856 1.75149 0
M  V30 22908 O 2210.76 -1.47873 1.06957 0
M  V30 22909 C 2210.81 1.06968 3.45312 0
M  V30 22910 O 2210.53 2.45341 3.62959 0
M  V30 22911 C 2212.03 0.804098 4.35946 0
M  V30 22912 H 2209.25 0.269557 0.614475 0
M  V30 22913 H 2211.8 1.36588 1.52197 0
M  V30 22914 H 2209.95 0.484523 3.84358 0
M  V30 22915 H 2210.37 2.57603 4.56882 0
M  V30 22916 H 2211.84 1.08799 5.41172 0
M  V30 22917 H 2212.32 -0.261613 4.3842 0
M  V30 22918 H 2212.92 1.37171 4.02572 0
M  V30 22919 N 2211.24 -1.35782 0.800057 0
M  V30 22920 C 2212.48 -1.99247 0.377936 0
M  V30 22921 C 2212.82 -1.63335 -1.05049 0
M  V30 22922 O 2212.09 -0.893415 -1.72767 0
M  V30 22923 C 2212.37 -3.55813 0.553984 0
M  V30 22924 C 2212.23 -4.01545 2.02687 0
M  V30 22925 C 2213.55 -4.40093 -0.0244028 0
M  V30 22926 H 2210.67 -0.723813 0.138795 0
M  V30 22927 H 2213.31 -1.61033 1.00838 0
M  V30 22928 H 2211.46 -3.88496 0.0173081 0
M  V30 22929 H 2213.13 -3.79301 2.62543 0
M  V30 22930 H 2211.37 -3.52693 2.52567 0
M  V30 22931 H 2212.04 -5.10454 2.10096 0
M  V30 22932 H 2214.52 -4.13832 0.433848 0
M  V30 22933 H 2213.4 -5.48749 0.128733 0
M  V30 22934 H 2213.66 -4.27743 -1.11751 0
M  V30 22935 N 2212.72 -0.552988 -1.4758 0
M  V30 22936 C 2213.65 0.18541 -2.32763 0
M  V30 22937 C 2214.63 0.91288 -1.43529 0
M  V30 22938 O 2215.81 0.894171 -1.7239 0
M  V30 22939 C 2212.94 1.21853 -3.25222 0
M  V30 22940 C 2211.9 0.607789 -4.23663 0
M  V30 22941 C 2211.22 1.74524 -5.05416 0
M  V30 22942 C 2212.52 -0.435674 -5.2048 0
M  V30 22943 H 2214.22 -0.525735 -2.94748 0
M  V30 22944 H 2211.76 -0.254276 -1.41737 0
M  V30 22945 H 2213.71 1.74323 -3.83653 0
M  V30 22946 H 2212.44 1.95957 -2.61282 0
M  V30 22947 H 2211.1 0.104425 -3.66451 0
M  V30 22948 H 2210.75 2.47521 -4.37884 0
M  V30 22949 H 2210.45 1.34239 -5.72061 0
M  V30 22950 H 2211.97 2.27328 -5.66705 0
M  V30 22951 H 2213.38 0.0028008 -5.733 0
M  V30 22952 H 2211.78 -0.757172 -5.95304 0
M  V30 22953 H 2212.85 -1.33311 -4.66215 0
M  V30 22954 N 2214.19 1.54923 -0.28923 0
M  V30 22955 C 2215.42 2.04309 0.326427 0
M  V30 22956 C 2215.84 1.16703 1.48411 0
M  V30 22957 O 2215.19 0.190119 1.81507 0
M  V30 22958 C 2215.24 3.52674 0.793952 0
M  V30 22959 O 2214.97 4.36947 -0.317641 0
M  V30 22960 C 2216.47 4.18007 1.47598 0
M  V30 22961 H 2213.69 0.667059 0.0726155 0
M  V30 22962 H 2216.23 2.00026 -0.425436 0
M  V30 22963 H 2214.39 3.57355 1.49587 0
M  V30 22964 H 2214.8 5.24481 0.0442264 0
M  V30 22965 H 2216.27 5.23379 1.75438 0
M  V30 22966 H 2216.75 3.67029 2.41218 0
M  V30 22967 H 2217.36 4.17368 0.817547 0
M  V30 22968 N 2215.67 0.0167433 1.57591 0
M  V30 22969 C 2216.58 -0.985172 2.12912 0
M  V30 22970 C 2217.6 -1.36555 1.07836 0
M  V30 22971 O 2218.77 -1.44948 1.39828 0
M  V30 22972 C 2215.84 -2.253 2.63516 0
M  V30 22973 C 2214.9 -1.93419 3.83259 0
M  V30 22974 C 2214.13 -3.14157 4.3144 0
M  V30 22975 O 2214.36 -4.26406 3.78859 0
M  V30 22976 O 2213.29 -2.97177 5.23421 0
M  V30 22977 H 2217.12 -0.544836 2.98773 0
M  V30 22978 H 2214.7 -0.203115 1.48013 0
M  V30 22979 H 2216.58 -2.99751 2.96188 0
M  V30 22980 H 2215.26 -2.68539 1.80745 0
M  V30 22981 H 2214.16 -1.16392 3.55533 0
M  V30 22982 H 2215.5 -1.55005 4.67155 0
M  V30 22983 N 2217.15 -1.55503 -0.256249 0
M  V30 22984 C 2218.4 -1.76547 -0.983641 0
M  V30 22985 C 2218.72 -0.579015 -1.86205 0
M  V30 22986 O 2217.99 0.405543 -1.91656 0
M  V30 22987 H 2216.57 -0.651093 -0.36618 0
M  V30 22988 H 2219.23 -1.92929 -0.276445 0
M  V30 22989 H 2218.33 -2.67318 -1.61082 0
M  V30 22990 N 2218.63 0.521507 -1.48721 0
M  V30 22991 C 2220.04 1.10334 -1.50609 0
M  V30 22992 C 2220.39 1.94182 -0.280646 0
M  V30 22993 O 2219.52 2.07581 0.61147 0
M  V30 22994 C 2220.11 2.00768 -2.72906 0
M  V30 22995 C 2218.67 2.54153 -2.77639 0
M  V30 22996 C 2217.82 1.31302 -2.44244 0
M  V30 22997 H 2220.77 0.30636 -1.55715 0
M  V30 22998 H 2220.79 2.85174 -2.51905 0
M  V30 22999 H 2220.3 1.39714 -3.62079 0
M  V30 23000 H 2218.4 3.18903 -1.92695 0
M  V30 23001 H 2218.51 2.92707 -3.79288 0
M  V30 23002 H 2216.88 1.63158 -1.9558 0
M  V30 23003 H 2217.66 0.719884 -3.35667 0
M  V30 23004 N 2220.11 1.37452 0.771027 0
M  V30 23005 C 2221.52 1.29241 1.34735 0
M  V30 23006 C 2221.87 -0.0596564 1.96109 0
M  V30 23007 O 2220.99 -0.9615 1.93866 0
M  V30 23008 C 2221.59 2.34042 2.44969 0
M  V30 23009 C 2220.15 2.29463 2.98368 0
M  V30 23010 C 2219.29 2.17834 1.71592 0
M  V30 23011 H 2222.25 1.48063 0.57123 0
M  V30 23012 H 2222.27 1.98749 3.24467 0
M  V30 23013 H 2221.78 3.32436 2.0027 0
M  V30 23014 H 2219.88 1.34595 3.4744 0
M  V30 23015 H 2219.99 3.22906 3.53933 0
M  V30 23016 H 2218.36 1.64392 1.94544 0
M  V30 23017 H 2219.14 3.18143 1.28995 0
M  V30 23018 N 2221.58 -0.997276 1.22033 0
M  V30 23019 C 2222.83 -1.73876 1.04379 0
M  V30 23020 C 2223.16 -1.89589 -0.420682 0
M  V30 23021 O 2222.44 -1.43586 -1.312 0
M  V30 23022 C 2222.72 -3.14688 1.75052 0
M  V30 23023 C 2222.57 -3.06651 3.29067 0
M  V30 23024 C 2223.89 -4.13772 1.49936 0
M  V30 23025 H 2221.01 -0.631127 0.380589 0
M  V30 23026 H 2223.65 -1.16214 1.50314 0
M  V30 23027 H 2221.8 -3.63917 1.36002 0
M  V30 23028 H 2223.48 -2.65076 3.77534 0
M  V30 23029 H 2221.72 -2.43562 3.58971 0
M  V30 23030 H 2222.39 -4.06275 3.73691 0
M  V30 23031 H 2224.87 -3.73281 1.83849 0
M  V30 23032 H 2223.74 -5.10424 2.01887 0
M  V30 23033 H 2224 -4.39994 0.431006 0
M  V30 23034 N 2223.06 -1.02932 -1.19343 0
M  V30 23035 C 2224.01 -0.610503 -2.22579 0
M  V30 23036 C 2224.98 0.375917 -1.6179 0
M  V30 23037 O 2226.16 0.272478 -1.88844 0
M  V30 23038 C 2223.3 0.0320867 -3.45085 0
M  V30 23039 C 2222.42 -1.00043 -4.20256 0
M  V30 23040 C 2221.55 -0.327553 -5.30189 0
M  V30 23041 C 2220.59 -1.34595 -5.97119 0
M  V30 23042 N 2219.73 -0.698849 -6.98613 0
M  V30 23043 H 2224.57 -1.49542 -2.57762 0
M  V30 23044 H 2222.11 -0.748333 -1.26643 0
M  V30 23045 H 2224.06 0.421893 -4.15061 0
M  V30 23046 H 2222.69 0.880585 -3.10557 0
M  V30 23047 H 2221.75 -1.50829 -3.4922 0
M  V30 23048 H 2223.06 -1.77441 -4.66172 0
M  V30 23049 H 2222.21 0.117073 -6.06587 0
M  V30 23050 H 2220.95 0.478627 -4.85346 0
M  V30 23051 H 2219.96 -1.80083 -5.19471 0
M  V30 23052 H 2221.18 -2.15363 -6.44046 0
M  V30 23053 H 2219.13 0.0872318 -6.55942 0
M  V30 23054 H 2219.04 -1.41071 -7.42721 0
M  V30 23055 H 2220.31 -0.278239 -7.79003 0
M  V30 23056 N 2224.54 1.35356 -0.807246 0
M  V30 23057 C 2225.79 1.98003 -0.384411 0
M  V30 23058 C 2226.1 1.64756 1.05427 0
M  V30 23059 O 2227.31 2.20772 1.58025 0
M  V30 23060 C 2225.76 3.54229 -0.636389 0
M  V30 23061 C 2225.37 3.96385 -2.08766 0
M  V30 23062 C 2227.12 4.23583 -0.278943 0
M  V30 23063 C 2225.02 5.45459 -2.28535 0
M  V30 23064 H 2223.95 0.740889 -0.139999 0
M  V30 23065 H 2226.6 1.54414 -0.991396 0
M  V30 23066 H 2224.99 3.95979 0.040556 0
M  V30 23067 H 2226.16 3.65785 -2.80247 0
M  V30 23068 H 2224.48 3.39922 -2.40503 0
M  V30 23069 H 2227.07 5.33166 -0.404693 0
M  V30 23070 H 2227.42 4.09024 0.77494 0
M  V30 23071 H 2227.95 3.87256 -0.909832 0
M  V30 23072 H 2224.69 5.64986 -3.32371 0
M  V30 23073 H 2224.21 5.77626 -1.61579 0
M  V30 23074 H 2225.89 6.1193 -2.1012 0
M  V30 23075 N 2226.02 0.560807 1.47284 0
M  V30 23076 C 2227.43 0.220837 1.58065 0
M  V30 23077 C 2227.63 -1.27668 1.55894 0
M  V30 23078 O 2226.69 -2.05708 1.46426 0
M  V30 23079 C 2228 0.850676 2.88416 0
M  V30 23080 C 2229.55 0.822237 3.02007 0
M  V30 23081 C 2230.03 1.43121 4.35064 0
M  V30 23082 N 2231.52 1.39456 4.41708 0
M  V30 23083 C 2232.25 1.83534 5.43234 0
M  V30 23084 N 2231.75 2.35485 6.51551 0
M  V30 23085 N 2233.54 1.74583 5.34301 0
M  V30 23086 H 2225.69 1.53371 1.46939 0
M  V30 23087 H 2227.96 0.639795 0.699547 0
M  V30 23088 H 2227.66 1.90326 2.95752 0
M  V30 23089 H 2227.54 0.345839 3.75611 0
M  V30 23090 H 2229.92 -0.221663 2.94266 0
M  V30 23091 H 2230 1.36487 2.16345 0
M  V30 23092 H 2229.65 2.4742 4.43561 0
M  V30 23093 H 2229.58 0.86399 5.19464 0
M  V30 23094 H 2232.07 1.01459 3.64026 0
M  V30 23095 H 2232.38 2.67034 7.25198 0
M  V30 23096 H 2230.73 2.39498 6.5243 0
M  V30 23097 H 2233.92 1.33771 4.48579 0
M  V30 23098 H 2234.09 2.09253 6.13284 0
M  V30 23099 N 2227.5 -1.54768 0.297442 0
M  V30 23100 C 2228.75 -1.99247 -0.313634 0
M  V30 23101 C 2229.06 -1.18945 -1.55279 0
M  V30 23102 O 2230.26 -1.53674 -2.23823 0
M  V30 23103 C 2228.72 -3.54704 -0.609345 0
M  V30 23104 C 2228.33 -4.4381 0.61127 0
M  V30 23105 C 2230.07 -4.07717 -1.18181 0
M  V30 23106 C 2227.98 -5.90694 0.288908 0
M  V30 23107 H 2226.91 -0.744233 -0.120966 0
M  V30 23108 H 2229.56 -1.78961 0.405591 0
M  V30 23109 H 2227.94 -3.70876 -1.38807 0
M  V30 23110 H 2229.12 -4.39412 1.38758 0
M  V30 23111 H 2227.43 -4.0155 1.10212 0
M  V30 23112 H 2230.03 -5.15023 -1.43718 0
M  V30 23113 H 2230.37 -3.58102 -2.12293 0
M  V30 23114 H 2230.9 -3.95074 -0.464874 0
M  V30 23115 H 2227.64 -6.4445 1.19849 0
M  V30 23116 H 2227.16 -5.98108 -0.4502 0
M  V30 23117 H 2228.84 -6.46905 -0.110819 0
M  V30 23118 N 2228.97 -0.0251005 -1.5758 0
M  V30 23119 C 2229.88 0.973867 -2.13431 0
M  V30 23120 C 2230.9 1.35982 -1.08559 0
M  V30 23121 O 2232.08 1.44205 -1.40595 0
M  V30 23122 C 2229.14 2.23899 -2.64707 0
M  V30 23123 C 2228.2 1.91384 -3.84279 0
M  V30 23124 C 2227.44 3.11865 -4.331 0
M  V30 23125 O 2227.66 4.24391 -3.81115 0
M  V30 23126 O 2226.59 2.94397 -5.24989 0
M  V30 23127 H 2230.42 0.528984 -2.99058 0
M  V30 23128 H 2228 0.195262 -1.48118 0
M  V30 23129 H 2229.89 2.98176 -2.97774 0
M  V30 23130 H 2228.56 2.67576 -1.82166 0
M  V30 23131 H 2227.47 1.14505 -3.56145 0
M  V30 23132 H 2228.8 1.52526 -4.67971 0
M  V30 23133 N 2230.45 1.55637 0.247999 0
M  V30 23134 C 2231.68 1.81471 0.993776 0
M  V30 23135 C 2232.1 0.600672 1.7899 0
M  V30 23136 O 2231.45 -0.430651 1.77346 0
M  V30 23137 C 2231.5 3.05509 1.93252 0
M  V30 23138 O 2231.22 4.22226 1.16862 0
M  V30 23139 C 2232.73 3.44135 2.79438 0
M  V30 23140 H 2229.95 0.603903 0.292476 0
M  V30 23141 H 2232.49 2.02694 0.271217 0
M  V30 23142 H 2230.64 2.8634 2.60938 0
M  V30 23143 H 2231.06 4.92518 1.80351 0
M  V30 23144 H 2232.53 4.34032 3.41058 0
M  V30 23145 H 2233.01 2.64671 3.50494 0
M  V30 23146 H 2233.62 3.65652 2.17207 0
M  V30 23147 N 2231.93 -0.513613 1.48996 0
M  V30 23148 C 2233.18 -1.26601 1.57533 0
M  V30 23149 C 2233.5 -1.93282 0.25827 0
M  V30 23150 O 2232.77 -1.82131 -0.72147 0
M  V30 23151 H 2231.35 -0.470266 0.580396 0
M  V30 23152 H 2234.01 -0.596341 1.85553 0
M  V30 23153 H 2233.11 -2.03664 2.36489 0
M  V30 23154 N 2233.41 -1.37859 -0.763727 0
M  V30 23155 C 2234.32 -1.36481 -1.90814 0
M  V30 23156 C 2235.34 -0.263278 -1.71997 0
M  V30 23157 O 2236.51 -0.500013 -1.95094 0
M  V30 23158 C 2233.58 -1.1787 -3.26048 0
M  V30 23159 C 2232.64 -2.37736 -3.57463 0
M  V30 23160 C 2231.87 -2.20003 -4.86245 0
M  V30 23161 O 2232.09 -1.18846 -5.57882 0
M  V30 23162 O 2231.03 -3.0837 -5.16906 0
M  V30 23163 H 2234.85 -2.32887 -1.94929 0
M  V30 23164 H 2232.44 -1.18672 -0.907598 0
M  V30 23165 H 2234.32 -1.09511 -4.06922 0
M  V30 23166 H 2233 -0.245429 -3.22768 0
M  V30 23167 H 2231.9 -2.51668 -2.76792 0
M  V30 23168 H 2233.24 -3.29658 -3.65494 0
M  V30 23169 N 2234.89 0.990791 -1.22561 0
M  V30 23170 C 2236.13 1.73409 -1.06306 0
M  V30 23171 C 2236.49 1.88251 0.397409 0
M  V30 23172 O 2235.78 1.41613 1.29059 0
M  V30 23173 C 2235.98 3.13828 -1.71017 0
M  V30 23174 C 2235.8 3.1268 -3.23205 0
M  V30 23175 C 2234.57 3.18454 -3.9232 0
M  V30 23176 C 2236.77 2.96666 -4.20112 0
M  V30 23177 N 2234.75 3.07082 -5.31577 0
M  V30 23178 C 2236.13 2.93344 -5.46213 0
M  V30 23179 C 2238.18 2.81073 -4.10978 0
M  V30 23180 C 2236.88 2.76027 -6.6423 0
M  V30 23181 C 2238.91 2.65117 -5.28647 0
M  V30 23182 C 2238.27 2.62484 -6.53668 0
M  V30 23183 H 2234.37 0.644108 -0.443452 0
M  V30 23184 H 2236.95 1.17651 -1.55133 0
M  V30 23185 H 2235.13 3.67825 -1.24737 0
M  V30 23186 H 2236.86 3.76732 -1.47835 0
M  V30 23187 H 2233.61 3.26221 -3.43332 0
M  V30 23188 H 2234.04 3.047 -6.04555 0
M  V30 23189 H 2238.68 2.81904 -3.15103 0
M  V30 23190 H 2236.4 2.73941 -7.60251 0
M  V30 23191 H 2239.98 2.5403 -5.23412 0
M  V30 23192 H 2238.86 2.50288 -7.43186 0
M  V30 23193 N 2236.37 1.03564 1.18795 0
M  V30 23194 C 2237.28 0.632544 2.25912 0
M  V30 23195 C 2238.29 -0.338852 1.70669 0
M  V30 23196 O 2239.47 -0.195041 2.00453 0
M  V30 23197 C 2236.53 -0.00344848 3.467 0
M  V30 23198 C 2235.59 1.01631 4.17097 0
M  V30 23199 C 2234.83 0.410571 5.32118 0
M  V30 23200 O 2235.05 -0.784626 5.64978 0
M  V30 23201 O 2233.98 1.13677 5.91068 0
M  V30 23202 H 2237.81 1.52483 2.62646 0
M  V30 23203 H 2235.39 0.806217 1.2578 0
M  V30 23204 H 2237.28 -0.357736 4.19879 0
M  V30 23205 H 2235.95 -0.869631 3.118 0
M  V30 23206 H 2234.86 1.4223 3.46008 0
M  V30 23207 H 2236.19 1.85309 4.55984 0
M  V30 23208 N 2237.84 -1.34926 0.814413 0
M  V30 23209 C 2238.79 -2.29668 0.228261 0
M  V30 23210 C 2239.76 -1.53186 -0.642137 0
M  V30 23211 O 2240.95 -1.81592 -0.585573 0
M  V30 23212 C 2238.09 -3.39651 -0.61083 0
M  V30 23213 C 2237.2 -4.31086 0.280868 0
M  V30 23214 C 2236.33 -5.28166 -0.566974 0
M  V30 23215 C 2235.37 -6.11239 0.324638 0
M  V30 23216 N 2234.51 -7.00432 -0.483633 0
M  V30 23217 H 2239.35 -2.79205 1.04158 0
M  V30 23218 H 2236.89 -1.37406 0.525157 0
M  V30 23219 H 2238.84 -4.02092 -1.11256 0
M  V30 23220 H 2237.47 -2.91371 -1.38934 0
M  V30 23221 H 2236.53 -3.69582 0.900753 0
M  V30 23222 H 2237.84 -4.89341 0.966809 0
M  V30 23223 H 2236.99 -5.96017 -1.13352 0
M  V30 23224 H 2235.73 -4.70427 -1.28645 0
M  V30 23225 H 2234.74 -5.42327 0.903394 0
M  V30 23226 H 2235.96 -6.71057 1.0421 0
M  V30 23227 H 2233.91 -6.45173 -1.18694 0
M  V30 23228 H 2233.82 -7.55863 0.144097 0
M  V30 23229 H 2235.09 -7.72622 -1.0332 0
M  V30 23230 N 2239.32 -0.56861 -1.46985 0
M  V30 23231 C 2240.57 -0.0487377 -2.02041 0
M  V30 23232 C 2240.89 1.31037 -1.44411 0
M  V30 23233 O 2240.16 1.85713 -0.62351 0
M  V30 23234 H 2238.74 -0.0150271 -0.746849 0
M  V30 23235 H 2241.4 -0.7412 -1.80256 0
M  V30 23236 H 2240.5 0.0308412 -3.12085 0
M  V30 23237 N 2240.8 1.54608 -0.305646 0
M  V30 23238 C 2242.05 2.01241 0.295559 0
M  V30 23239 C 2242.4 1.1902 1.51169 0
M  V30 23240 O 2241.69 0.259718 1.89832 0
M  V30 23241 C 2241.89 3.50499 0.698922 0
M  V30 23242 C 2241.72 4.47168 -0.476569 0
M  V30 23243 C 2240.49 4.95901 -0.97005 0
M  V30 23244 C 2242.68 4.96991 -1.32303 0
M  V30 23245 N 2240.67 5.76433 -2.11182 0
M  V30 23246 C 2242.04 5.75271 -2.31222 0
M  V30 23247 C 2244.09 4.79168 -1.35287 0
M  V30 23248 C 2242.8 6.37625 -3.32907 0
M  V30 23249 C 2244.82 5.42344 -2.35832 0
M  V30 23250 C 2244.18 6.2046 -3.3348 0
M  V30 23251 H 2240.28 0.778633 0.0724855 0
M  V30 23252 H 2242.87 1.89741 -0.436617 0
M  V30 23253 H 2241.04 3.62281 1.40026 0
M  V30 23254 H 2242.77 3.83923 1.28006 0
M  V30 23255 H 2239.52 4.70462 -0.54426 0
M  V30 23256 H 2239.95 6.21382 -2.68725 0
M  V30 23257 H 2244.59 4.18352 -0.611643 0
M  V30 23258 H 2242.31 6.97571 -4.07946 0
M  V30 23259 H 2245.89 5.30479 -2.3892 0
M  V30 23260 H 2244.77 6.68478 -4.10008 0
M  V30 23261 N 2242.28 0.033457 1.57564 0
M  V30 23262 C 2243.23 -0.964923 2.11641 0
M  V30 23263 C 2244.22 -1.33405 1.044 0
M  V30 23264 O 2245.43 -1.31578 1.2283 0
M  V30 23265 H 2241.8 -0.328968 0.676228 0
M  V30 23266 H 2243.77 -0.483562 2.94456 0
M  V30 23267 C 2242.52 -2.23667 2.66211 0
M  V30 23268 H 2241.84 -1.96139 3.48381 0
M  V30 23269 H 2243.28 -2.91724 3.0769 0
M  V30 23270 C 2241.74 -2.96936 1.59156 0
M  V30 23271 O 2242.27 -3.89209 0.993927 0
M  V30 23272 N 2240.48 -2.59349 1.31097 0
M  V30 23273 H 2240.03 -1.8439 1.79883 0
M  V30 23274 H 2239.98 -3.08681 0.596943 0
M  V30 23275 N 2243.76 -1.55766 -0.239741 0
M  V30 23276 C 2245 -1.78196 -0.968202 0
M  V30 23277 C 2245.33 -0.599971 -1.847 0
M  V30 23278 O 2244.61 0.401491 -1.90311 0
M  V30 23279 C 2244.89 -3.10567 -1.82264 0
M  V30 23280 C 2244.75 -4.39182 -0.971555 0
M  V30 23281 C 2246.06 -3.39226 -2.80382 0
M  V30 23282 H 2243.18 -0.648287 -0.350561 0
M  V30 23283 H 2245.83 -1.88501 -0.238226 0
M  V30 23284 H 2243.98 -3.01913 -2.44501 0
M  V30 23285 H 2245.65 -4.59835 -0.367327 0
M  V30 23286 H 2243.89 -4.3292 -0.2762 0
M  V30 23287 H 2244.56 -5.28201 -1.60337 0
M  V30 23288 H 2247.04 -3.47889 -2.28281 0
M  V30 23289 H 2245.91 -4.3305 -3.37282 0
M  V30 23290 H 2246.17 -2.60491 -3.57207 0
M  V30 23291 N 2245.23 0.505704 -1.49266 0
M  V30 23292 C 2246.16 1.6165 -1.68498 0
M  V30 23293 C 2247.14 1.61511 -0.533688 0
M  V30 23294 O 2248.33 1.78326 -0.769002 0
M  V30 23295 C 2245.46 3.00154 -1.74714 0
M  V30 23296 C 2244.41 3.15157 -2.89586 0
M  V30 23297 C 2243.74 4.54965 -2.80911 0
M  V30 23298 C 2245.04 2.95627 -4.30584 0
M  V30 23299 H 2246.73 1.45809 -2.61496 0
M  V30 23300 H 2244.28 0.700028 -1.2584 0
M  V30 23301 H 2246.23 3.77757 -1.86755 0
M  V30 23302 H 2244.96 3.17072 -0.783123 0
M  V30 23303 H 2243.62 2.39977 -2.7714 0
M  V30 23304 H 2243.26 4.68753 -1.82427 0
M  V30 23305 H 2242.96 4.65945 -3.58007 0
M  V30 23306 H 2244.49 5.34636 -2.94953 0
M  V30 23307 H 2245.9 3.63003 -4.43736 0
M  V30 23308 H 2244.3 3.18082 -5.08866 0
M  V30 23309 H 2245.37 1.91798 -4.45356 0
M  V30 23310 N 2246.71 1.38262 0.756405 0
M  V30 23311 C 2247.96 1.34514 1.51769 0
M  V30 23312 C 2248.29 -0.065635 1.94089 0
M  V30 23313 O 2247.57 -1.02623 1.65223 0
M  V30 23314 C 2247.85 2.29826 2.77222 0
M  V30 23315 C 2247.7 3.79751 2.41058 0
M  V30 23316 C 2249.02 2.23319 3.79232 0
M  V30 23317 H 2246.14 0.489941 0.55057 0
M  V30 23318 H 2248.78 1.69087 0.866577 0
M  V30 23319 H 2246.93 2.00473 3.3278 0
M  V30 23320 H 2248.6 4.19766 1.91296 0
M  V30 23321 H 2246.85 3.9757 1.73553 0
M  V30 23322 H 2247.52 4.41898 3.30802 0
M  V30 23323 H 2249.99 2.49225 3.33206 0
M  V30 23324 H 2248.87 2.92124 4.64709 0
M  V30 23325 H 2249.13 1.2311 4.24613 0
M  V30 23326 N 2248.19 -0.984277 1.23084 0
M  V30 23327 C 2249.44 -1.72843 1.07224 0
M  V30 23328 C 2249.79 -1.88459 -0.38742 0
M  V30 23329 O 2249.08 -1.42296 -1.28306 0
M  V30 23330 C 2249.28 -3.12917 1.72679 0
M  V30 23331 C 2249.11 -3.10961 3.24859 0
M  V30 23332 C 2247.88 -3.16369 3.94003 0
M  V30 23333 C 2250.08 -2.94433 4.21679 0
M  V30 23334 N 2248.06 -3.04259 5.33198 0
M  V30 23335 C 2249.43 -2.90444 5.47761 0
M  V30 23336 C 2251.48 -2.78889 4.12462 0
M  V30 23337 C 2250.19 -2.72501 6.65685 0
M  V30 23338 C 2252.21 -2.62309 5.30045 0
M  V30 23339 C 2251.57 -2.59014 6.5505 0
M  V30 23340 H 2247.67 -0.641747 0.446861 0
M  V30 23341 H 2250.26 -1.16827 1.55755 0
M  V30 23342 H 2248.43 -3.67158 1.26686 0
M  V30 23343 H 2250.16 -3.75943 1.4983 0
M  V30 23344 H 2246.92 -3.24395 3.45057 0
M  V30 23345 H 2247.34 -3.01489 6.06163 0
M  V30 23346 H 2251.98 -2.80229 3.16593 0
M  V30 23347 H 2249.7 -2.69905 7.61693 0
M  V30 23348 H 2253.29 -2.51251 5.24752 0
M  V30 23349 H 2252.17 -2.46344 7.44503 0
M  V30 23350 N 2249.67 -1.04192 -1.18244 0
M  V30 23351 C 2250.92 -0.744576 -1.87884 0
M  V30 23352 C 2251.24 0.729975 -1.80821 0
M  V30 23353 O 2250.51 1.52682 -1.22739 0
M  V30 23354 H 2249.09 -0.27243 -0.695551 0
M  V30 23355 H 2251.75 -1.31894 -1.43492 0
M  V30 23356 H 2250.85 -1.05054 -2.93888 0
M  V30 23357 N 2251.15 1.34492 -0.821557 0
M  V30 23358 C 2252.56 1.51328 -0.507143 0
M  V30 23359 C 2252.76 1.76675 0.968932 0
M  V30 23360 O 2251.82 1.81688 1.75345 0
M  V30 23361 C 2253.13 2.67908 -1.36549 0
M  V30 23362 C 2254.68 2.8179 -1.36247 0
M  V30 23363 C 2255.15 4.01412 -2.20527 0
M  V30 23364 N 2256.65 4.08617 -2.18143 0
M  V30 23365 C 2257.38 5.0033 -2.80103 0
M  V30 23366 N 2256.88 5.97274 -3.51049 0
M  V30 23367 N 2258.67 4.93191 -2.69665 0
M  V30 23368 H 2250.82 1.16299 -1.77731 0
M  V30 23369 H 2253.08 0.570263 -0.757301 0
M  V30 23370 H 2252.79 2.55804 -2.41365 0
M  V30 23371 H 2252.66 3.62887 -1.02923 0
M  V30 23372 H 2255.05 2.93337 -0.322093 0
M  V30 23373 H 2255.13 1.87625 -1.73869 0
M  V30 23374 H 2254.78 3.90626 -3.24614 0
M  V30 23375 H 2254.71 4.94788 -1.80256 0
M  V30 23376 H 2257.2 3.39226 -1.66536 0
M  V30 23377 H 2257.51 6.63882 -3.95576 0
M  V30 23378 H 2255.85 5.97402 -3.55155 0
M  V30 23379 H 2259.05 4.16414 -2.13816 0
M  V30 23380 H 2259.22 5.64471 -3.1824 0
M  V30 23381 N 2252.62 0.576397 1.46681 0
M  V30 23382 C 2253.87 0.0594518 2.02013 0
M  V30 23383 C 2254.19 -1.30269 1.45104 0
M  V30 23384 O 2253.46 -1.85379 0.63335 0
M  V30 23385 H 2252.04 0.0189876 0.746759 0
M  V30 23386 H 2254.71 0.750749 1.7986 0
M  V30 23387 H 2253.8 -0.0142902 3.12097 0
M  V30 23388 N 2254.1 -1.54444 0.313841 0
M  V30 23389 C 2255.33 -2.04505 -0.293455 0
M  V30 23390 C 2255.74 -1.19008 -1.47084 0
M  V30 23391 O 2255.08 -0.21129 -1.82481 0
M  V30 23392 C 2255.15 -3.50477 -0.800394 0
M  V30 23393 C 2254.81 -4.56297 0.253403 0
M  V30 23394 C 2255.81 -5.08426 1.08621 0
M  V30 23395 C 2253.49 -5.00714 0.398796 0
M  V30 23396 C 2255.49 -6.03526 2.05023 0
M  V30 23397 C 2253.17 -5.95631 1.36625 0
M  V30 23398 C 2254.17 -6.46922 2.19044 0
M  V30 23399 O 2253.86 -7.39978 3.14147 0
M  V30 23400 H 2253.59 -0.672788 -0.0658207 0
M  V30 23401 H 2256.14 -2.00292 0.455212 0
M  V30 23402 H 2254.37 -3.52056 -1.59981 0
M  V30 23403 H 2256.06 -3.83666 -1.32497 0
M  V30 23404 H 2256.83 -4.74896 0.98482 0
M  V30 23405 H 2252.71 -4.60412 -0.232809 0
M  V30 23406 H 2256.25 -6.43485 2.69393 0
M  V30 23407 H 2252.15 -6.28578 1.46831 0
M  V30 23408 H 2252.92 -7.57821 3.09274 0
M  V30 23409 N 2255.58 -0.0418125 -1.57545 0
M  V30 23410 C 2256.54 0.920893 -2.09886 0
M  V30 23411 C 2257.54 1.24595 -1.0165 0
M  V30 23412 O 2258.73 1.18418 -1.27761 0
M  V30 23413 C 2255.87 2.23363 -2.57531 0
M  V30 23414 H 2257.06 0.467329 -2.96236 0
M  V30 23415 H 2254.61 0.20644 -1.54931 0
M  V30 23416 H 2255.35 2.7332 -1.74547 0
M  V30 23417 H 2255.13 2.01077 -3.36616 0
M  V30 23418 H 2256.62 2.9234 -2.98206 0
M  V30 23419 N 2257.06 1.55891 0.231477 0
M  V30 23420 C 2258.02 1.90781 1.27024 0
M  V30 23421 C 2259.02 0.785531 1.40307 0
M  V30 23422 O 2260.21 1.05338 1.38742 0
M  V30 23423 C 2257.34 2.14988 2.64562 0
M  V30 23424 H 2258.54 2.83678 0.972968 0
M  V30 23425 H 2256.09 1.4902 0.47146 0
M  V30 23426 H 2256.82 1.2461 2.99404 0
M  V30 23427 H 2256.61 2.96737 2.563 0
M  V30 23428 H 2258.1 2.43111 3.39539 0
M  V30 23429 N 2258.54 -0.497781 1.49532 0
M  V30 23430 C 2259.78 -1.25355 1.59417 0
M  V30 23431 C 2260.12 -1.9215 0.281455 0
M  V30 23432 O 2259.39 -1.80873 -0.715217 0
M  V30 23433 C 2259.67 -2.31805 2.7557 0
M  V30 23434 C 2259.53 -1.69491 4.16645 0
M  V30 23435 C 2260.85 -3.33341 2.87353 0
M  V30 23436 H 2257.96 -0.454398 0.580252 0
M  V30 23437 H 2260.61 -0.55123 1.81828 0
M  V30 23438 H 2258.76 -2.91707 2.56592 0
M  V30 23439 H 2260.43 -1.13391 4.47147 0
M  V30 23440 H 2258.67 -0.998904 4.22143 0
M  V30 23441 H 2259.34 -2.46717 4.93796 0
M  V30 23442 H 2261.82 -2.83433 3.04639 0
M  V30 23443 H 2260.69 -4.05181 3.70296 0
M  V30 23444 H 2260.96 -3.95861 1.96841 0
M  V30 23445 N 2260.01 -1.38661 -0.749062 0
M  V30 23446 C 2260.96 -1.36254 -1.86289 0
M  V30 23447 C 2261.93 -0.224376 -1.64578 0
M  V30 23448 O 2263.12 -0.417312 -1.8618 0
M  V30 23449 C 2260.26 -1.19791 -3.23642 0
M  V30 23450 C 2259.37 -2.43033 -3.57154 0
M  V30 23451 C 2258.5 -2.19266 -4.83834 0
M  V30 23452 C 2257.54 -3.38256 -5.10146 0
M  V30 23453 N 2256.68 -3.13895 -6.28024 0
M  V30 23454 H 2261.52 -2.31473 -1.87681 0
M  V30 23455 H 2259.06 -1.14998 -0.917267 0
M  V30 23456 H 2261.02 -1.08261 -4.02909 0
M  V30 23457 H 2259.65 -0.282087 -3.21565 0
M  V30 23458 H 2258.7 -2.65219 -2.72696 0
M  V30 23459 H 2260.01 -3.31704 -3.72524 0
M  V30 23460 H 2259.16 -2.04898 -5.71053 0
M  V30 23461 H 2257.9 -1.27968 -4.70612 0
M  V30 23462 H 2256.91 -3.53138 -4.21395 0
M  V30 23463 H 2258.13 -4.30436 -5.25263 0
M  V30 23464 H 2256.08 -2.25249 -6.16116 0
M  V30 23465 H 2256 -3.96117 -6.43915 0
M  V30 23466 H 2257.26 -3.03192 -7.18119 0
M  V30 23467 N 2261.49 0.977736 -1.23605 0
M  V30 23468 C 2262.44 2.09185 -1.01708 0
M  V30 23469 C 2263.44 1.69341 0.0447917 0
M  V30 23470 O 2264.64 1.7967 -0.108933 0
M  V30 23471 H 2261.02 0.684307 -0.311815 0
M  V30 23472 H 2262.99 2.24819 -1.96211 0
M  V30 23473 C 2261.74 3.41985 -0.627806 0
M  V30 23474 H 2261.06 3.73097 -1.43662 0
M  V30 23475 H 2262.5 4.20871 -0.514127 0
M  V30 23476 C 2260.96 3.30288 0.66418 0
M  V30 23477 O 2261.49 3.63363 1.71261 0
M  V30 23478 N 2259.69 2.8344 0.641106 0
M  V30 23479 H 2259.24 2.56723 -0.212422 0
M  V30 23480 H 2259.2 2.75996 1.50578 0
M  V30 23481 N 2262.97 1.04818 1.1769 0
M  V30 23482 C 2264.39 0.768819 1.39862 0
M  V30 23483 C 2264.59 -0.638418 1.91119 0
M  V30 23484 O 2263.64 -1.40143 2.10039 0
M  V30 23485 C 2264.96 1.82126 2.39271 0
M  V30 23486 C 2266.5 1.84304 2.52984 0
M  V30 23487 C 2266.98 2.88561 3.55664 0
M  V30 23488 N 2268.47 2.875 3.63178 0
M  V30 23489 C 2269.21 3.64819 4.42374 0
M  V30 23490 N 2268.7 4.51912 5.25117 0
M  V30 23491 N 2270.49 3.53275 4.37211 0
M  V30 23492 H 2262.65 1.95618 0.827485 0
M  V30 23493 H 2264.91 0.846839 0.426108 0
M  V30 23494 H 2264.61 2.83105 2.08673 0
M  V30 23495 H 2264.49 1.65972 3.38723 0
M  V30 23496 H 2266.88 0.839919 2.82895 0
M  V30 23497 H 2266.96 2.04535 1.5362 0
M  V30 23498 H 2266.6 3.89057 3.26492 0
M  V30 23499 H 2266.53 2.65583 4.54723 0
M  V30 23500 H 2269.02 2.24348 3.04099 0
M  V30 23501 H 2269.33 5.07601 5.82719 0
M  V30 23502 H 2267.68 4.55975 5.24511 0
M  V30 23503 H 2270.87 2.84632 3.71621 0
M  V30 23504 H 2271.04 4.1378 4.98688 0
M  V30 23505 N 2264.45 -1.34055 0.828678 0
M  V30 23506 C 2265.73 -1.9259 0.341842 0
M  V30 23507 C 2266.11 -1.75607 -1.17155 0
M  V30 23508 O 2265.45 -1.13827 -1.9813 0
M  V30 23509 C 2265.66 -3.40229 0.777512 0
M  V30 23510 C 2267.01 -4.17381 0.779652 0
M  V30 23511 O 2268.04 -3.48838 0.720461 0
M  V30 23512 O 2266.9 -5.39721 0.858091 0
M  V30 23513 H 2263.99 -0.821569 0.0946229 0
M  V30 23514 H 2266.54 -1.42992 0.913852 0
M  V30 23515 H 2265.31 -3.46416 1.81966 0
M  V30 23516 H 2264.93 -3.97185 0.181514 0
M  V30 23517 N 2265.93 -0.584167 -1.46374 0
M  V30 23518 C 2267.16 -0.075966 -2.0676 0
M  V30 23519 C 2267.57 1.22962 -1.43268 0
M  V30 23520 O 2266.93 1.74375 -0.538489 0
M  V30 23521 C 2266.98 0.0949749 -3.61375 0
M  V30 23522 O 2266.7 -1.15894 -4.22493 0
M  V30 23523 C 2268.2 0.637357 -4.38694 0
M  V30 23524 H 2265.42 -0.0581192 -0.668478 0
M  V30 23525 H 2267.96 -0.805251 -1.87979 0
M  V30 23526 H 2266.12 0.774487 -3.79579 0
M  V30 23527 H 2266.53 -0.973689 -5.15383 0
M  V30 23528 H 2268.01 0.70614 -5.47465 0
M  V30 23529 H 2268.48 1.65465 -4.06839 0
M  V30 23530 H 2269.09 -0.00733443 -4.25299 0
M  V30 23531 N 2267.41 1.54275 -0.322027 0
M  V30 23532 C 2268.68 1.92706 0.335198 0
M  V30 23533 C 2269.06 1.25148 1.70004 0
M  V30 23534 O 2268.41 0.394635 2.25066 0
M  V30 23535 C 2268.62 3.46354 0.428947 0
M  V30 23536 C 2269.97 4.18957 0.689955 0
M  V30 23537 O 2270.99 3.52502 0.51193 0
M  V30 23538 O 2269.85 5.36643 1.03329 0
M  V30 23539 H 2266.95 0.804611 0.191129 0
M  V30 23540 H 2269.49 1.65581 -0.371629 0
M  V30 23541 H 2268.26 3.87698 -0.529679 0
M  V30 23542 H 2267.89 3.7958 1.18341 0
M  V30 23543 N 2268.88 0.0501669 1.5752 0
M  V30 23544 C 2269.83 -0.924566 2.11472 0
M  V30 23545 C 2270.8 -1.30949 1.02184 0
M  V30 23546 O 2271.99 -1.39914 1.29726 0
M  V30 23547 C 2269.13 -2.19446 2.66341 0
M  V30 23548 C 2268.24 -1.86411 3.89711 0
M  V30 23549 C 2267.37 -3.07851 4.32899 0
M  V30 23550 C 2266.41 -2.70733 5.48972 0
M  V30 23551 N 2265.55 -3.84863 5.87218 0
M  V30 23552 H 2270.39 -0.457588 2.94466 0
M  V30 23553 H 2267.93 -0.214241 1.45532 0
M  V30 23554 H 2269.88 -2.93753 2.96252 0
M  V30 23555 H 2268.51 -2.63723 1.86146 0
M  V30 23556 H 2267.57 -1.02257 3.66398 0
M  V30 23557 H 2268.88 -1.55088 4.74077 0
M  V30 23558 H 2268.03 -3.90458 4.64357 0
M  V30 23559 H 2266.77 -3.42352 3.47342 0
M  V30 23560 H 2265.78 -1.86542 5.17187 0
M  V30 23561 H 2267 -2.37425 6.36244 0
M  V30 23562 H 2264.95 -4.19166 5.04614 0
M  V30 23563 H 2264.86 -3.57235 6.66273 0
M  V30 23564 H 2266.13 -4.68113 6.2329 0
M  V30 23565 N 2270.36 -1.56011 -0.223207 0
M  V30 23566 C 2271.61 -1.79213 -0.949248 0
M  V30 23567 C 2271.94 -0.619527 -1.84053 0
M  V30 23568 O 2271.22 0.381283 -1.90726 0
M  V30 23569 C 2271.5 -3.12483 -1.7896 0
M  V30 23570 C 2271.35 -4.40188 -0.92492 0
M  V30 23571 C 2272.67 -3.4218 -2.76768 0
M  V30 23572 H 2269.79 -0.651969 -0.343665 0
M  V30 23573 H 2272.43 -1.88743 -0.21822 0
M  V30 23574 H 2270.58 -3.04489 -2.41285 0
M  V30 23575 H 2272.25 -4.60199 -0.318535 0
M  V30 23576 H 2270.5 -4.33188 -0.230268 0
M  V30 23577 H 2271.17 -5.29872 -1.54726 0
M  V30 23578 H 2273.64 -3.50291 -2.24578 0
M  V30 23579 H 2272.52 -4.36603 -3.3267 0
M  V30 23580 H 2272.78 -2.64265 -3.54424 0
M  V30 23581 N 2271.84 0.489844 -1.49794 0
M  V30 23582 C 2273.09 1.23992 -1.59088 0
M  V30 23583 C 2273.4 1.93469 -0.287941 0
M  V30 23584 O 2274.61 2.70256 -0.259554 0
M  V30 23585 C 2273.06 2.25195 -2.8074 0
M  V30 23586 C 2272.67 1.61607 -4.17836 0
M  V30 23587 C 2274.42 3.00962 -2.9937 0
M  V30 23588 C 2272.32 2.60987 -5.30698 0
M  V30 23589 H 2271.25 0.466478 -0.59238 0
M  V30 23590 H 2273.9 0.512489 -1.76198 0
M  V30 23591 H 2272.29 3.0115 -2.57148 0
M  V30 23592 H 2273.46 0.915695 -4.5161 0
M  V30 23593 H 2271.77 0.981905 -4.04657 0
M  V30 23594 H 2274.37 3.75302 -3.80858 0
M  V30 23595 H 2274.71 3.5924 -2.10362 0
M  V30 23596 H 2275.25 2.32122 -3.23054 0
M  V30 23597 H 2271.99 2.07474 -6.218 0
M  V30 23598 H 2271.51 3.29231 -5.01365 0
M  V30 23599 H 2273.19 3.23193 -5.60496 0
M  V30 23600 N 2273.32 1.39056 0.741698 0
M  V30 23601 C 2274.56 1.3712 1.50232 0
M  V30 23602 C 2274.92 -0.0350101 1.92368 0
M  V30 23603 O 2274.21 -1.00016 1.63424 0
M  V30 23604 C 2274.41 2.27168 2.75916 0
M  V30 23605 C 2274.23 3.76405 2.46068 0
M  V30 23606 C 2273 4.45368 2.38696 0
M  V30 23607 C 2275.2 4.68549 2.12054 0
M  V30 23608 N 2273.18 5.79976 2.01248 0
M  V30 23609 C 2274.56 5.91757 1.84995 0
M  V30 23610 C 2276.61 4.56636 1.98465 0
M  V30 23611 C 2275.31 7.04386 1.45717 0
M  V30 23612 C 2277.34 5.69179 1.60589 0
M  V30 23613 C 2276.7 6.91457 1.34411 0
M  V30 23614 H 2272.8 0.557037 0.548848 0
M  V30 23615 H 2275.38 1.74548 0.862611 0
M  V30 23616 H 2273.56 1.9191 3.37676 0
M  V30 23617 H 2275.29 2.16273 3.42064 0
M  V30 23618 H 2272.04 3.98726 2.55567 0
M  V30 23619 H 2272.47 6.51194 1.85136 0
M  V30 23620 H 2277.11 3.62641 2.17374 0
M  V30 23621 H 2274.83 7.98288 1.25548 0
M  V30 23622 H 2278.41 5.61946 1.5069 0
M  V30 23623 H 2277.29 7.77065 1.05541 0
M  V30 23624 N 2274.8 -0.971167 1.24121 0
M  V30 23625 C 2276.04 -1.71623 1.08044 0
M  V30 23626 C 2276.37 -1.90438 -0.380373 0
M  V30 23627 O 2275.65 -1.46336 -1.28125 0
M  V30 23628 C 2275.93 -3.10904 1.81688 0
M  V30 23629 C 2275.79 -2.99602 3.35498 0
M  V30 23630 C 2277.1 -4.10499 1.58679 0
M  V30 23631 H 2274.22 -0.622912 0.393891 0
M  V30 23632 H 2276.87 -1.13 1.52745 0
M  V30 23633 H 2275.02 -3.6095 1.43691 0
M  V30 23634 H 2276.69 -2.57009 3.83072 0
M  V30 23635 H 2274.93 -2.35893 3.64056 0
M  V30 23636 H 2275.6 -3.98257 3.82224 0
M  V30 23637 H 2278.08 -3.69298 1.91725 0
M  V30 23638 H 2276.95 -5.06027 2.12669 0
M  V30 23639 H 2277.21 -4.38981 0.524238 0
M  V30 23640 N 2276.27 -1.05441 -1.17133 0
M  V30 23641 C 2277.69 -0.791706 -1.69083 0
M  V30 23642 C 2278.04 0.685806 -1.83824 0
M  V30 23643 O 2277.16 1.53276 -1.5276 0
M  V30 23644 C 2277.76 -1.43055 -3.07117 0
M  V30 23645 C 2276.32 -1.21583 -3.56222 0
M  V30 23646 C 2275.46 -1.51251 -2.32419 0
M  V30 23647 H 2278.41 -1.21902 -1.01615 0
M  V30 23648 H 2278.43 -0.841185 -3.71085 0
M  V30 23649 H 2277.95 -2.50589 -2.96356 0
M  V30 23650 H 2276.05 -0.159853 -3.72257 0
M  V30 23651 H 2276.16 -1.92254 -4.38834 0
M  V30 23652 H 2274.52 -0.932695 -2.37008 0
M  V30 23653 H 2275.31 -2.59924 -2.24264 0
M  V30 23654 N 2277.75 1.33613 -0.835776 0
M  V30 23655 C 2278.98 2.02626 -0.442425 0
M  V30 23656 C 2279.4 1.62481 0.947707 0
M  V30 23657 O 2278.76 0.815854 1.61906 0
M  V30 23658 C 2278.81 3.5611 -0.567279 0
M  V30 23659 O 2277.91 4.1038 0.407726 0
M  V30 23660 H 2277.25 0.639055 -0.180289 0
M  V30 23661 H 2279.78 1.70581 -1.12975 0
M  V30 23662 H 2279.79 4.05535 -0.44778 0
M  V30 23663 H 2278.47 3.84674 -1.58109 0
M  V30 23664 H 2277.05 3.72087 0.246042 0
M  V30 23665 N 2279.23 0.591922 1.46062 0
M  V30 23666 C 2280.65 0.254316 1.57561 0
M  V30 23667 C 2280.85 -1.24333 1.58567 0
M  V30 23668 O 2279.9 -2.02556 1.50756 0
M  V30 23669 C 2281.22 0.911662 2.86547 0
M  V30 23670 C 2282.76 0.886112 3.00195 0
M  V30 23671 C 2283.24 1.52317 4.3193 0
M  V30 23672 N 2284.73 1.48794 4.38651 0
M  V30 23673 C 2285.46 1.95016 5.39218 0
M  V30 23674 N 2284.96 2.49253 6.46409 0
M  V30 23675 N 2286.75 1.85877 5.30477 0
M  V30 23676 H 2278.9 1.56454 1.43652 0
M  V30 23677 H 2281.17 0.65449 0.685819 0
M  V30 23678 H 2280.87 1.96556 2.91648 0
M  V30 23679 H 2280.75 0.425434 3.74793 0
M  V30 23680 H 2283.13 -0.159195 2.9467 0
M  V30 23681 H 2283.22 1.41045 2.13401 0
M  V30 23682 H 2282.86 2.56773 4.38213 0
M  V30 23683 H 2282.79 0.973982 5.17514 0
M  V30 23684 H 2285.28 1.09157 3.61792 0
M  V30 23685 H 2285.59 2.82356 7.19371 0
M  V30 23686 H 2283.94 2.53283 6.47204 0
M  V30 23687 H 2287.13 1.43256 4.4564 0
M  V30 23688 H 2287.3 2.22215 6.08707 0
M  V30 23689 N 2280.71 -1.54102 0.330204 0
M  V30 23690 C 2281.66 -2.24568 -0.532722 0
M  V30 23691 C 2282.63 -1.23893 -1.10633 0
M  V30 23692 O 2283.81 -1.52593 -1.14543 0
M  V30 23693 C 2280.95 -3.01198 -1.68445 0
M  V30 23694 C 2280.06 -4.16702 -1.13943 0
M  V30 23695 C 2279.2 -4.80849 -2.25738 0
M  V30 23696 C 2278.24 -5.88445 -1.68519 0
M  V30 23697 N 2277.37 -6.46426 -2.74003 0
M  V30 23698 H 2282.21 -2.97906 0.0747429 0
M  V30 23699 H 2279.75 -1.4702 0.0486579 0
M  V30 23700 H 2281.71 -3.43878 -2.36228 0
M  V30 23701 H 2280.34 -2.30182 -2.2631 0
M  V30 23702 H 2279.39 -3.78759 -0.352944 0
M  V30 23703 H 2280.7 -4.94132 -0.680805 0
M  V30 23704 H 2279.86 -5.26531 -3.01413 0
M  V30 23705 H 2278.6 -4.02814 -2.7494 0
M  V30 23706 H 2277.6 -5.42159 -0.913448 0
M  V30 23707 H 2278.83 -6.6838 -1.20186 0
M  V30 23708 H 2276.77 -5.71262 -3.22484 0
M  V30 23709 H 2276.69 -7.19289 -2.32723 0
M  V30 23710 H 2277.96 -6.96763 -3.49487 0
M  V30 23711 N 2282.19 -0.0585199 -1.57491 0
M  V30 23712 C 2283.43 0.614524 -1.93265 0
M  V30 23713 C 2283.77 1.70059 -0.937746 0
M  V30 23714 O 2283.04 1.94468 0.0351311 0
M  V30 23715 C 2283.32 1.2038 -3.39383 0
M  V30 23716 C 2283.18 0.125296 -4.49625 0
M  V30 23717 C 2284.5 2.11327 -3.86043 0
M  V30 23718 H 2281.61 0.22192 -0.702795 0
M  V30 23719 H 2284.26 -0.121783 -1.89609 0
M  V30 23720 H 2282.41 1.83133 -3.42629 0
M  V30 23721 H 2284.08 -0.507051 -4.58505 0
M  V30 23722 H 2282.32 -0.545747 -4.30353 0
M  V30 23723 H 2282.99 0.577765 -5.48968 0
M  V30 23724 H 2285.47 1.58527 -3.84719 0
M  V30 23725 H 2284.34 2.49499 -4.88919 0
M  V30 23726 H 2284.61 3.0163 -3.23221 0
M  V30 23727 N 2283.66 1.56128 0.21493 0
M  V30 23728 C 2284.61 1.92954 1.26639 0
M  V30 23729 C 2285.58 0.787555 1.46242 0
M  V30 23730 O 2286.77 1.04402 1.59702 0
M  V30 23731 C 2283.91 2.2573 2.61036 0
M  V30 23732 C 2283.02 3.52895 2.49177 0
M  V30 23733 C 2282.15 3.75087 3.76143 0
M  V30 23734 C 2281.19 4.95744 3.59033 0
M  V30 23735 N 2280.33 5.14291 4.77963 0
M  V30 23736 H 2285.17 2.82608 0.945334 0
M  V30 23737 H 2282.71 1.39871 0.455465 0
M  V30 23738 H 2284.67 2.42745 3.39309 0
M  V30 23739 H 2283.3 1.39241 2.91225 0
M  V30 23740 H 2282.35 3.44037 1.62304 0
M  V30 23741 H 2283.66 4.41322 2.32458 0
M  V30 23742 H 2282.81 3.92234 4.62858 0
M  V30 23743 H 2281.55 2.84954 3.95794 0
M  V30 23744 H 2280.56 4.7854 2.70701 0
M  V30 23745 H 2281.78 5.87368 3.40846 0
M  V30 23746 H 2279.73 4.27102 4.97916 0
M  V30 23747 H 2279.65 5.96862 4.63996 0
M  V30 23748 H 2280.91 5.35879 5.66086 0
M  V30 23749 N 2285.14 -0.481893 1.50052 0
M  V30 23750 C 2286.55 -1.06303 1.53482 0
M  V30 23751 C 2286.9 -1.9337 0.332031 0
M  V30 23752 O 2286.03 -2.0913 -0.556219 0
M  V30 23753 C 2286.62 -1.93461 2.78133 0
M  V30 23754 C 2285.18 -2.46702 2.8428 0
M  V30 23755 C 2284.33 -1.2478 2.47639 0
M  V30 23756 H 2287.28 -0.264968 1.56472 0
M  V30 23757 H 2287.3 -2.78395 2.59377 0
M  V30 23758 H 2286.81 -1.30065 3.65656 0
M  V30 23759 H 2284.92 -3.13682 2.01082 0
M  V30 23760 H 2285.03 -2.82548 3.86915 0
M  V30 23761 H 2283.39 -1.57915 1.99837 0
M  V30 23762 H 2284.18 -0.630634 3.37458 0
M  V30 23763 N 2286.62 -1.39448 -0.734313 0
M  V30 23764 C 2287.9 -1.27217 -1.48577 0
M  V30 23765 C 2288.28 0.117931 -2.1077 0
M  V30 23766 O 2287.63 1.12921 -1.98648 0
M  V30 23767 C 2287.84 -2.397 -2.53663 0
M  V30 23768 C 2289.18 -2.7905 -3.20026 0
M  V30 23769 O 2290.21 -2.39155 -2.63976 0
M  V30 23770 O 2289.07 -3.47912 -4.21449 0
M  V30 23771 H 2286.16 -0.498582 -0.659807 0
M  V30 23772 H 2288.71 -1.51323 -0.76808 0
M  V30 23773 H 2287.48 -3.3263 -2.0609 0
M  V30 23774 H 2287.1 -2.17264 -3.3299 0
M  V30 23775 N 2288.1 0.964571 -1.24635 0
M  V30 23776 C 2289.34 1.71047 -1.08952 0
M  V30 23777 C 2289.68 1.90637 0.370268 0
M  V30 23778 O 2288.95 1.47014 1.27347 0
M  V30 23779 C 2289.24 3.09936 -1.83334 0
M  V30 23780 C 2289.09 2.97818 -3.37082 0
M  V30 23781 C 2290.41 4.09651 -1.60853 0
M  V30 23782 H 2287.53 0.620814 -0.397189 0
M  V30 23783 H 2290.17 1.12188 -1.53342 0
M  V30 23784 H 2288.32 3.60183 -1.45603 0
M  V30 23785 H 2289.99 2.54973 -3.8443 0
M  V30 23786 H 2288.23 2.33959 -3.65302 0
M  V30 23787 H 2288.9 3.96224 -3.84331 0
M  V30 23788 H 2291.38 3.68276 -1.93681 0
M  V30 23789 H 2290.26 5.04892 -2.15349 0
M  V30 23790 H 2290.52 4.38697 -0.547511 0
M  V30 23791 N 2289.58 1.0606 1.16572 0
M  V30 23792 C 2290.8 0.796585 1.90951 0
M  V30 23793 C 2291.22 -0.648777 1.77303 0
M  V30 23794 O 2290.58 -1.44395 1.11607 0
M  V30 23795 C 2290.63 1.179 3.41734 0
M  V30 23796 O 2290.35 2.56764 3.5497 0
M  V30 23797 C 2291.85 0.942384 4.33167 0
M  V30 23798 H 2289.07 0.28897 0.605589 0
M  V30 23799 H 2291.61 1.41361 1.47775 0
M  V30 23800 H 2289.77 0.606558 3.82622 0
M  V30 23801 H 2290.18 2.72008 4.48455 0
M  V30 23802 H 2291.66 1.25961 5.37436 0
M  V30 23803 H 2292.13 -0.122001 4.39031 0
M  V30 23804 H 2292.74 1.49909 3.98004 0
M  V30 23805 N 2291.06 -1.33168 0.84285 0
M  V30 23806 C 2291.99 -2.27979 0.236285 0
M  V30 23807 C 2293 -1.51916 -0.585256 0
M  V30 23808 O 2294.19 -1.73688 -0.411675 0
M  V30 23809 C 2291.29 -3.31891 -0.685659 0
M  V30 23810 C 2290.46 -4.37291 0.0974217 0
M  V30 23811 C 2289.52 -5.2085 -0.748473 0
M  V30 23812 O 2288.55 -5.68895 -0.186239 0
M  V30 23813 N 2289.75 -5.42523 -2.06518 0
M  V30 23814 H 2292.51 -2.8067 1.05093 0
M  V30 23815 H 2290.08 -1.45904 0.701693 0
M  V30 23816 H 2292.07 -3.84696 -1.25662 0
M  V30 23817 H 2290.64 -2.79447 -1.401 0
M  V30 23818 H 2289.86 -3.84932 0.849774 0
M  V30 23819 H 2291.15 -5.04813 0.635732 0
M  V30 23820 H 2290.54 -5.05196 -2.54545 0
M  V30 23821 H 2289.1 -5.98369 -2.58453 0
M  V30 23822 N 2292.53 -0.599659 -1.45746 0
M  V30 23823 C 2293.48 0.123808 -2.30468 0
M  V30 23824 C 2294.45 0.867715 -1.41633 0
M  V30 23825 O 2295.64 0.855026 -1.70569 0
M  V30 23826 C 2292.78 1.12046 -3.26404 0
M  V30 23827 C 2291.89 0.378245 -4.30341 0
M  V30 23828 C 2291.02 1.36391 -5.13392 0
M  V30 23829 C 2290.06 0.609064 -6.09062 0
M  V30 23830 N 2289.2 1.54362 -6.84921 0
M  V30 23831 H 2294.04 -0.604678 -2.91801 0
M  V30 23832 H 2291.58 -0.309997 -1.43796 0
M  V30 23833 H 2293.53 1.71134 -3.80485 0
M  V30 23834 H 2292.16 1.81645 -2.66842 0
M  V30 23835 H 2291.22 -0.327996 -3.78983 0
M  V30 23836 H 2292.53 -0.211084 -4.98353 0
M  V30 23837 H 2291.68 2.02709 -5.71834 0
M  V30 23838 H 2290.42 1.98717 -4.45379 0
M  V30 23839 H 2289.43 -0.0677945 -5.49758 0
M  V30 23840 H 2290.65 -0.00903928 -6.79099 0
M  V30 23841 H 2288.6 2.15467 -6.19605 0
M  V30 23842 H 2288.51 1.00753 -7.49256 0
M  V30 23843 H 2289.78 2.19663 -7.47909 0
M  V30 23844 N 2294.01 1.53925 -0.338371 0
M  V30 23845 C 2295.29 1.93051 0.31474 0
M  V30 23846 C 2295.67 1.26944 1.68667 0
M  V30 23847 O 2295.02 0.418484 2.24635 0
M  V30 23848 C 2295.23 3.46789 0.392188 0
M  V30 23849 C 2296.57 4.19665 0.645481 0
M  V30 23850 O 2297.6 3.53025 0.474513 0
M  V30 23851 O 2296.46 5.37708 0.976314 0
M  V30 23852 H 2293.55 0.806593 0.182584 0
M  V30 23853 H 2296.1 1.65177 -0.38917 0
M  V30 23854 H 2294.87 3.87115 -0.57077 0
M  V30 23855 H 2294.49 3.80814 1.14309 0
M  V30 23856 N 2295.49 0.0668712 1.57458 0
M  V30 23857 C 2296.4 -0.916937 2.15938 0
M  V30 23858 C 2297.42 -1.33056 1.12126 0
M  V30 23859 O 2298.59 -1.40426 1.44369 0
M  V30 23860 C 2295.66 -2.16802 2.70551 0
M  V30 23861 C 2294.72 -1.81128 3.89219 0
M  V30 23862 C 2293.95 -3.00272 4.41217 0
M  V30 23863 O 2294.17 -4.14137 3.92233 0
M  V30 23864 O 2293.11 -2.80375 5.3261 0
M  V30 23865 H 2296.93 -0.449508 3.00355 0
M  V30 23866 H 2294.52 -0.155923 1.48584 0
M  V30 23867 H 2296.4 -2.90176 3.05575 0
M  V30 23868 H 2295.08 -2.62653 1.89196 0
M  V30 23869 H 2293.98 -1.05022 3.59056 0
M  V30 23870 H 2295.32 -1.40065 4.7185 0
M  V30 23871 N 2296.97 -1.56239 -0.206647 0
M  V30 23872 C 2298.21 -1.80209 -0.930186 0
M  V30 23873 C 2298.55 -0.639013 -1.83386 0
M  V30 23874 O 2297.82 0.361032 -1.9112 0
M  V30 23875 C 2298.1 -3.14363 -1.75635 0
M  V30 23876 C 2297.96 -4.41144 -0.87818 0
M  V30 23877 C 2299.28 -3.45097 -2.73123 0
M  V30 23878 H 2296.4 -0.655577 -0.336731 0
M  V30 23879 H 2299.04 -1.88964 -0.198189 0
M  V30 23880 H 2297.19 -3.07031 -2.38042 0
M  V30 23881 H 2298.86 -4.60511 -0.269706 0
M  V30 23882 H 2297.1 -4.33408 -0.184309 0
M  V30 23883 H 2297.77 -5.31483 -1.49097 0
M  V30 23884 H 2300.25 -3.52653 -2.2085 0
M  V30 23885 H 2299.13 -4.40106 -3.28021 0
M  V30 23886 H 2299.39 -2.68009 -3.51602 0
M  V30 23887 N 2298.45 0.473929 -1.50305 0
M  V30 23888 C 2299.67 1.24957 -1.64904 0
M  V30 23889 C 2300.09 1.85872 -0.331231 0
M  V30 23890 O 2299.45 1.69096 0.68649 0
M  V30 23891 C 2299.5 2.36033 -2.73807 0
M  V30 23892 O 2299.22 1.77617 -4.0048 0
M  V30 23893 C 2300.72 3.26958 -2.99354 0
M  V30 23894 H 2297.94 0.378013 -0.554389 0
M  V30 23895 H 2300.48 0.566019 -1.96511 0
M  V30 23896 H 2298.64 3.00169 -2.44903 0
M  V30 23897 H 2299.05 2.50742 -4.60683 0
M  V30 23898 H 2300.53 4.01115 -3.79224 0
M  V30 23899 H 2301 3.8557 -2.10314 0
M  V30 23900 H 2301.61 2.68563 -3.29779 0
M  V30 23901 N 2299.92 1.39835 0.726907 0
M  V30 23902 C 2300.87 1.392 1.84097 0
M  V30 23903 C 2301.84 0.250531 1.642 0
M  V30 23904 O 2303.03 0.446879 1.85493 0
M  V30 23905 C 2300.17 1.24925 3.21695 0
M  V30 23906 C 2299.28 2.48684 3.53242 0
M  V30 23907 C 2298.41 2.26936 4.80285 0
M  V30 23908 C 2297.45 3.46329 5.047 0
M  V30 23909 N 2296.59 3.23847 6.22951 0
M  V30 23910 H 2301.43 2.3443 1.83974 0
M  V30 23911 H 2298.97 1.16443 0.898856 0
M  V30 23912 H 2300.92 1.14658 4.01135 0
M  V30 23913 H 2299.55 0.33321 3.21076 0
M  V30 23914 H 2298.61 2.69524 2.68442 0
M  V30 23915 H 2299.92 3.37589 3.67199 0
M  V30 23916 H 2299.07 2.13957 5.67721 0
M  V30 23917 H 2297.81 1.35439 4.68516 0
M  V30 23918 H 2296.82 3.59798 4.15723 0
M  V30 23919 H 2298.04 4.38738 5.18349 0
M  V30 23920 H 2295.99 2.35022 6.12455 0
M  V30 23921 H 2295.9 4.06311 6.37532 0
M  V30 23922 H 2297.17 3.14578 7.13205 0
M  V30 23923 N 2301.4 -0.957948 1.25144 0
M  V30 23924 C 2302.35 -2.05411 1.05239 0
M  V30 23925 C 2303.32 -1.66058 -0.0374269 0
M  V30 23926 O 2304.5 -1.90428 0.119106 0
M  V30 23927 C 2301.64 -3.38461 0.673649 0
M  V30 23928 C 2300.76 -3.90951 1.83797 0
M  V30 23929 C 2299.89 -5.12313 1.4039 0
M  V30 23930 C 2298.93 -5.57023 2.53756 0
M  V30 23931 N 2298.07 -6.69598 2.11147 0
M  V30 23932 H 2302.91 -2.21771 1.99052 0
M  V30 23933 H 2300.44 -1.08682 0.991297 0
M  V30 23934 H 2302.4 -4.14926 0.435037 0
M  V30 23935 H 2301.03 -3.21997 -0.227497 0
M  V30 23936 H 2300.08 -3.11037 2.18998 0
M  V30 23937 H 2301.4 -4.20084 2.68944 0
M  V30 23938 H 2300.55 -5.96183 1.12474 0
M  V30 23939 H 2299.29 -4.84887 0.5231 0
M  V30 23940 H 2298.29 -4.71719 2.8242 0
M  V30 23941 H 2299.52 -5.86458 3.42408 0
M  V30 23942 H 2297.47 -6.43887 1.25479 0
M  V30 23943 H 2297.38 -6.98231 2.89844 0
M  V30 23944 H 2298.65 -7.56886 1.86399 0
M  V30 23945 N 2302.88 -1.06677 -1.16008 0
M  V30 23946 C 2304.16 -0.699146 -1.82678 0
M  V30 23947 C 2304.54 0.819102 -1.94561 0
M  V30 23948 O 2303.88 1.73089 -1.49172 0
M  V30 23949 C 2304.09 -1.40561 -3.19443 0
M  V30 23950 C 2305.44 -1.5533 -3.95168 0
M  V30 23951 O 2306.47 -1.36582 -3.28974 0
M  V30 23952 O 2305.33 -1.86121 -5.1383 0
M  V30 23953 H 2302.42 -0.247965 -0.78895 0
M  V30 23954 H 2304.97 -1.16728 -1.23177 0
M  V30 23955 H 2303.74 -2.4407 -3.05852 0
M  V30 23956 H 2303.36 -0.927801 -3.86623 0
M  V30 23957 N 2304.36 1.32719 -0.8499 0
M  V30 23958 C 2305.27 2.32753 -0.293832 0
M  V30 23959 C 2306.28 1.6384 0.585878 0
M  V30 23960 O 2307.46 1.95414 0.487379 0
M  V30 23961 C 2304.52 3.42888 0.512692 0
M  V30 23962 C 2303.59 4.27501 -0.392595 0
M  V30 23963 C 2302.82 5.32377 0.375532 0
M  V30 23964 O 2303.04 5.47323 1.60603 0
M  V30 23965 O 2301.98 6.01354 -0.2562 0
M  V30 23966 H 2305.8 2.82195 -1.12247 0
M  V30 23967 H 2303.39 1.36258 -0.612709 0
M  V30 23968 H 2305.27 4.10069 0.970632 0
M  V30 23969 H 2303.94 2.95643 1.31821 0
M  V30 23970 H 2302.85 3.63147 -0.89861 0
M  V30 23971 H 2304.18 4.78258 -1.16317 0
M  V30 23972 N 2305.84 0.60738 1.45426 0
M  V30 23973 C 2306.8 -0.101653 2.28974 0
M  V30 23974 C 2307.8 -0.795304 1.39755 0
M  V30 23975 O 2308.99 -0.643499 1.61879 0
M  V30 23976 C 2306.12 -1.15409 3.2077 0
M  V30 23977 H 2307.31 0.632896 2.93146 0
M  V30 23978 H 2304.87 0.366417 1.51944 0
M  V30 23979 H 2305.6 -1.91941 2.61399 0
M  V30 23980 H 2305.39 -0.660912 3.8649 0
M  V30 23981 H 2306.88 -1.65066 3.83592 0
M  V30 23982 N 2307.31 -1.53743 0.34653 0
M  V30 23983 C 2308.54 -2.05851 -0.253038 0
M  V30 23984 C 2308.96 -1.21965 -1.432 0
M  V30 23985 O 2308.32 -0.234104 -1.79782 0
M  V30 23986 C 2308.37 -3.54819 -0.64313 0
M  V30 23987 O 2307.47 -3.73765 -1.74279 0
M  V30 23988 H 2306.82 -0.662711 -0.0413466 0
M  V30 23989 H 2309.35 -1.98356 0.501609 0
M  V30 23990 H 2309.36 -3.97505 -0.919456 0
M  V30 23991 H 2308.03 -4.15323 0.219039 0
M  V30 23992 H 2306.61 -3.42981 -1.4635 0
M  V30 23993 N 2308.79 -0.0752207 -1.5742 0
M  V30 23994 C 2310.2 0.456932 -1.81022 0
M  V30 23995 C 2310.55 1.69427 -0.989389 0
M  V30 23996 O 2309.68 2.1535 -0.212903 0
M  V30 23997 C 2310.27 0.835752 -3.2833 0
M  V30 23998 C 2308.83 1.31275 -3.52766 0
M  V30 23999 C 2307.98 0.2996 -2.75677 0
M  V30 24000 H 2310.93 -0.300883 -1.55822 0
M  V30 24001 H 2310.95 1.6969 -3.40567 0
M  V30 24002 H 2310.46 -0.064992 -3.88046 0
M  V30 24003 H 2308.57 2.23188 -2.98359 0
M  V30 24004 H 2308.68 1.28831 -4.61454 0
M  V30 24005 H 2307.04 0.777598 -2.4254 0
M  V30 24006 H 2307.83 -0.593477 -3.38131 0
M  V30 24007 N 2310.27 1.56347 0.198358 0
M  V30 24008 C 2311.2 1.97312 1.24861 0
M  V30 24009 C 2312.18 0.844602 1.4765 0
M  V30 24010 O 2313.37 1.10868 1.59442 0
M  V30 24011 C 2310.5 2.30982 2.59354 0
M  V30 24012 C 2309.45 3.46541 2.51183 0
M  V30 24013 C 2308.78 3.65878 3.8992 0
M  V30 24014 C 2310.08 4.80826 2.03969 0
M  V30 24015 H 2311.77 2.85293 0.908202 0
M  V30 24016 H 2309.32 1.37259 0.435438 0
M  V30 24017 H 2311.27 2.58234 3.33006 0
M  V30 24018 H 2309.99 1.3988 2.95129 0
M  V30 24019 H 2308.65 3.19374 1.79988 0
M  V30 24020 H 2308.3 2.72112 4.23041 0
M  V30 24021 H 2308 4.43617 3.85328 0
M  V30 24022 H 2309.52 3.95503 4.65198 0
M  V30 24023 H 2310.94 5.07132 2.67377 0
M  V30 24024 H 2309.34 5.62012 2.10387 0
M  V30 24025 H 2310.41 4.74628 0.992778 0
M  V30 24026 N 2311.75 -0.465951 1.50554 0
M  V30 24027 C 2313 -1.21765 1.61801 0
M  V30 24028 C 2313.32 -1.91837 0.320729 0
M  V30 24029 O 2312.58 -1.82993 -0.693692 0
M  V30 24030 C 2312.88 -2.28088 2.75156 0
M  V30 24031 C 2312.54 -1.75232 4.15457 0
M  V30 24032 C 2311.21 -1.60538 4.53631 0
M  V30 24033 C 2313.56 -1.36075 5.03123 0
M  V30 24034 C 2310.89 -1.05118 5.77206 0
M  V30 24035 C 2313.24 -0.820946 6.27251 0
M  V30 24036 C 2311.9 -0.660678 6.64222 0
M  V30 24037 H 2311.17 -0.445571 0.59207 0
M  V30 24038 H 2313.82 -0.512895 1.84504 0
M  V30 24039 H 2312.12 -3.04491 2.46561 0
M  V30 24040 H 2313.82 -2.86018 2.8106 0
M  V30 24041 H 2310.41 -1.87637 3.85344 0
M  V30 24042 H 2314.59 -1.46259 4.74259 0
M  V30 24043 H 2309.85 -0.914513 6.04522 0
M  V30 24044 H 2314.02 -0.508895 6.94538 0
M  V30 24045 H 2311.65 -0.229092 7.59855 0
M  V30 24046 N 2313.23 -1.40218 -0.719481 0
M  V30 24047 C 2314.19 -1.3993 -1.81527 0
M  V30 24048 C 2315.19 -0.29375 -1.58094 0
M  V30 24049 O 2316.38 -0.552458 -1.65208 0
M  V30 24050 C 2313.51 -1.18721 -3.19559 0
M  V30 24051 H 2314.7 -2.37454 -1.83182 0
M  V30 24052 H 2312.26 -1.2601 -0.924724 0
M  V30 24053 H 2312.99 -0.219423 -3.23557 0
M  V30 24054 H 2312.78 -1.98799 -3.37967 0
M  V30 24055 H 2314.27 -1.21298 -3.99595 0
M  V30 24056 N 2314.7 0.951297 -1.25651 0
M  V30 24057 C 2315.95 1.69296 -1.10378 0
M  V30 24058 C 2316.27 1.91736 0.355305 0
M  V30 24059 O 2315.54 1.50683 1.25185 0
M  V30 24060 H 2314.12 0.627376 -0.405472 0
M  V30 24061 H 2316.79 1.14356 -1.57825 0
M  V30 24062 H 2315.88 2.67084 -1.6147 0
M  V30 24063 N 2316.18 1.07291 1.1544 0
M  V30 24064 C 2317.43 0.790702 1.85555 0
M  V30 24065 C 2317.74 -0.685706 1.83187 0
M  V30 24066 O 2318.95 -1.08266 2.48979 0
M  V30 24067 C 2317.41 1.36439 3.33035 0
M  V30 24068 C 2317.01 2.87176 3.43851 0
M  V30 24069 C 2318.76 1.16017 4.08338 0
M  V30 24070 C 2316.67 3.37739 4.85476 0
M  V30 24071 H 2315.6 0.29211 0.695117 0
M  V30 24072 H 2318.25 1.2929 1.30217 0
M  V30 24073 H 2316.63 0.789932 3.88041 0
M  V30 24074 H 2317.8 3.5066 2.98955 0
M  V30 24075 H 2316.12 3.06381 2.81992 0
M  V30 24076 H 2318.71 1.51271 5.12856 0
M  V30 24077 H 2319.06 0.0991739 4.16182 0
M  V30 24078 H 2319.59 1.70095 3.596 0
M  V30 24079 H 2316.33 4.43361 4.82816 0
M  V30 24080 H 2315.85 2.79008 5.30956 0
M  V30 24081 H 2317.53 3.33658 5.5433 0
M  V30 24082 N 2317.66 -1.32267 0.856927 0
M  V30 24083 C 2318.89 -2.01897 0.474605 0
M  V30 24084 C 2319.31 -1.63968 -0.921738 0
M  V30 24085 O 2318.67 -0.841509 -1.60587 0
M  V30 24086 C 2318.72 -3.55162 0.623861 0
M  V30 24087 O 2317.82 -4.10976 -0.342387 0
M  V30 24088 H 2317.16 -0.636106 0.190433 0
M  V30 24089 H 2319.69 -1.68762 1.15675 0
M  V30 24090 H 2319.7 -4.04772 0.51224 0
M  V30 24091 H 2318.38 -3.8211 1.64209 0
M  V30 24092 H 2316.95 -3.72432 -0.186814 0
M  V30 24093 N 2319.14 -0.615084 -1.45102 0
M  V30 24094 C 2320.42 -0.044862 -1.95549 0
M  V30 24095 C 2320.8 1.42508 -1.55739 0
M  V30 24096 O 2320.14 2.13141 -0.823593 0
M  V30 24097 C 2320.35 -0.250846 -3.48097 0
M  V30 24098 C 2321.7 -0.135584 -4.24383 0
M  V30 24099 O 2322.73 -0.181361 -3.55738 0
M  V30 24100 O 2321.58 -0.0269839 -5.46493 0
M  V30 24101 H 2318.68 0.03147 -0.826401 0
M  V30 24102 H 2321.22 -0.685669 -1.55231 0
M  V30 24103 H 2320 -1.27145 -3.70067 0
M  V30 24104 H 2319.62 0.424867 -3.95323 0
M  V30 24105 N 2320.62 1.53557 -0.354678 0
M  V30 24106 C 2321.86 2.0208 0.231386 0
M  V30 24107 C 2322.22 1.23769 1.47305 0
M  V30 24108 O 2321.51 0.31998 1.88909 0
M  V30 24109 C 2321.71 3.52546 0.587059 0
M  V30 24110 C 2321.53 4.45425 -0.618591 0
M  V30 24111 C 2320.3 4.92564 -1.12733 0
M  V30 24112 C 2322.5 4.92531 -1.48048 0
M  V30 24113 N 2320.48 5.69423 -2.29414 0
M  V30 24114 C 2321.86 5.67623 -2.49407 0
M  V30 24115 C 2323.91 4.74621 -1.50463 0
M  V30 24116 C 2322.61 6.26711 -3.53024 0
M  V30 24117 C 2324.64 5.34567 -2.52967 0
M  V30 24118 C 2324 6.09536 -3.53051 0
M  V30 24119 H 2320.1 0.780545 0.0476772 0
M  V30 24120 H 2322.68 1.88256 -0.49676 0
M  V30 24121 H 2320.86 3.66552 1.2843 0
M  V30 24122 H 2322.59 3.87801 1.15727 0
M  V30 24123 H 2319.34 4.68493 -0.693659 0
M  V30 24124 H 2319.77 6.12519 -2.88357 0
M  V30 24125 H 2324.41 4.16195 -0.744429 0
M  V30 24126 H 2322.13 6.8424 -4.29932 0
M  V30 24127 H 2325.71 5.2261 -2.55676 0
M  V30 24128 H 2324.59 6.55096 -4.31067 0
M  V30 24129 N 2322.1 0.083568 1.57378 0
M  V30 24130 C 2323.34 -0.582464 1.93107 0
M  V30 24131 C 2323.66 -1.70051 0.96654 0
M  V30 24132 O 2324.86 -2.42691 1.2171 0
M  V30 24133 C 2323.32 -1.08745 3.43078 0
M  V30 24134 C 2322.93 0.000225151 4.48 0
M  V30 24135 C 2324.67 -1.72687 3.87788 0
M  V30 24136 C 2322.58 -0.519464 5.89114 0
M  V30 24137 H 2321.51 -0.221345 0.720779 0
M  V30 24138 H 2324.16 0.157707 1.82821 0
M  V30 24139 H 2322.54 -1.88095 3.48477 0
M  V30 24140 H 2323.72 0.775279 4.54231 0
M  V30 24141 H 2322.03 0.544133 4.12829 0
M  V30 24142 H 2324.63 -2.12621 4.90608 0
M  V30 24143 H 2324.97 -2.59152 3.258 0
M  V30 24144 H 2325.5 -0.999389 3.85042 0
M  V30 24145 H 2322.24 0.308301 6.54775 0
M  V30 24146 H 2321.76 -1.26178 5.86378 0
M  V30 24147 H 2323.44 -0.992125 6.39348 0
M  V30 24148 N 2323.57 -1.5645 -0.190064 0
M  V30 24149 C 2324.98 -1.70785 -0.754282 0
M  V30 24150 C 2325.34 -0.690984 -1.8363 0
M  V30 24151 O 2324.46 0.151566 -2.15869 0
M  V30 24152 C 2325.06 -3.09645 -1.37497 0
M  V30 24153 C 2323.61 -3.25728 -1.88622 0
M  V30 24154 C 2322.76 -2.66737 -0.758051 0
M  V30 24155 H 2325.71 -1.58661 0.0350803 0
M  V30 24156 H 2325.73 -3.07254 -2.24444 0
M  V30 24157 H 2325.25 -3.83632 -0.587234 0
M  V30 24158 H 2323.35 -2.56666 -2.70099 0
M  V30 24159 H 2323.46 -4.33284 -2.04455 0
M  V30 24160 H 2321.82 -2.26048 -1.17365 0
M  V30 24161 H 2322.61 -3.43296 0.0175308 0
M  V30 24162 N 2325.05 0.45796 -1.50799 0
M  V30 24163 C 2326.3 1.20789 -1.63651 0
M  V30 24164 C 2326.65 1.89395 -0.338695 0
M  V30 24165 O 2325.95 1.79717 0.66426 0
M  V30 24166 C 2326.14 2.26625 -2.76362 0
M  V30 24167 C 2325.97 1.68404 -4.16977 0
M  V30 24168 C 2324.74 1.47799 -4.83201 0
M  V30 24169 C 2326.94 1.17167 -5.00776 0
M  V30 24170 N 2324.92 0.849585 -6.07993 0
M  V30 24171 C 2326.29 0.667295 -6.16399 0
M  V30 24172 C 2328.34 1.06146 -4.86454 0
M  V30 24173 C 2327.05 0.0635644 -7.19272 0
M  V30 24174 C 2329.07 0.471655 -5.89516 0
M  V30 24175 C 2328.44 -0.0222795 -7.04396 0
M  V30 24176 H 2324.53 0.430409 -0.652895 0
M  V30 24177 H 2327.12 0.507752 -1.87963 0
M  V30 24178 H 2325.29 2.94051 -2.53749 0
M  V30 24179 H 2327.02 2.93631 -2.78501 0
M  V30 24180 H 2323.78 1.73395 -4.40717 0
M  V30 24181 H 2324.2 0.553419 -6.74734 0
M  V30 24182 H 2328.84 1.42925 -3.9791 0
M  V30 24183 H 2326.56 -0.316395 -8.0748 0
M  V30 24184 H 2330.15 0.388569 -5.80501 0
M  V30 24185 H 2329.03 -0.471513 -7.82781 0
M  V30 24186 N 2326.53 1.40598 0.712035 0
M  V30 24187 C 2327.44 1.43469 1.85617 0
M  V30 24188 C 2328.46 0.326932 1.70901 0
M  V30 24189 O 2329.63 0.572077 1.93104 0
M  V30 24190 C 2326.7 1.2989 3.21449 0
M  V30 24191 C 2325.76 2.50839 3.48394 0
M  V30 24192 C 2324.99 2.37899 4.77745 0
M  V30 24193 O 2325.21 1.39469 5.53086 0
M  V30 24194 O 2324.15 3.27342 5.05105 0
M  V30 24195 H 2327.97 2.39961 1.86151 0
M  V30 24196 H 2325.56 1.21959 0.862929 0
M  V30 24197 H 2327.44 1.24538 4.02577 0
M  V30 24198 H 2326.12 0.365053 3.21635 0
M  V30 24199 H 2325.02 2.61768 2.67261 0
M  V30 24200 H 2326.36 3.42996 3.53007 0
M  V30 24201 N 2328.01 -0.94462 1.26153 0
M  V30 24202 C 2329.28 -1.66746 1.0225 0
M  V30 24203 C 2329.66 -2.06288 -0.448165 0
M  V30 24204 O 2329.01 -1.78402 -1.42776 0
M  V30 24205 C 2329.22 -2.88225 1.96793 0
M  V30 24206 C 2330.57 -3.59954 2.25208 0
M  V30 24207 O 2331.59 -2.98324 1.94631 0
M  V30 24208 O 2330.45 -4.70951 2.7725 0
M  V30 24209 H 2327.55 -0.73005 0.38853 0
M  V30 24210 H 2330.09 -0.996656 1.37349 0
M  V30 24211 H 2328.87 -2.5587 2.96051 0
M  V30 24212 H 2328.49 -3.63033 1.62152 0
M  V30 24213 N 2329.49 -1.07901 -1.1487 0
M  V30 24214 C 2330.4 -0.715954 -2.23408 0
M  V30 24215 C 2331.41 0.275275 -1.71809 0
M  V30 24216 O 2332.59 0.12051 -2.01039 0
M  V30 24217 C 2329.65 -0.125229 -3.46474 0
M  V30 24218 C 2328.71 -1.17041 -4.13037 0
M  V30 24219 C 2327.95 -0.607781 -5.30228 0
M  V30 24220 O 2328.17 0.574397 -5.67501 0
M  V30 24221 O 2327.1 -1.35536 -5.86441 0
M  V30 24222 H 2330.93 -1.62125 -2.56805 0
M  V30 24223 H 2328.51 -0.852344 -1.22701 0
M  V30 24224 H 2330.4 0.201655 -4.20917 0
M  V30 24225 H 2329.07 0.753309 -3.14813 0
M  V30 24226 H 2327.98 -1.54974 -3.40491 0
M  V30 24227 H 2329.31 -2.02105 -4.48792 0
M  V30 24228 N 2330.96 1.31811 -0.863929 0
M  V30 24229 C 2331.9 2.27574 -0.272525 0
M  V30 24230 C 2332.91 1.52828 0.561013 0
M  V30 24231 O 2334.1 1.74321 0.383991 0
M  V30 24232 C 2331.2 3.3294 0.632771 0
M  V30 24233 C 2330.37 4.37081 -0.166979 0
M  V30 24234 C 2329.43 5.21974 0.665516 0
M  V30 24235 O 2328.46 5.6912 0.0957091 0
M  V30 24236 N 2329.66 5.45739 1.9786 0
M  V30 24237 H 2332.42 2.78963 -1.09544 0
M  V30 24238 H 2329.98 1.44769 -0.724816 0
M  V30 24239 H 2331.98 3.86647 1.19526 0
M  V30 24240 H 2330.55 2.81641 1.35637 0
M  V30 24241 H 2329.77 3.83531 -0.910906 0
M  V30 24242 H 2331.05 5.03737 -0.715963 0
M  V30 24243 H 2330.45 5.09182 2.46475 0
M  V30 24244 H 2329.01 6.02405 2.48901 0
M  V30 24245 N 2332.44 0.62277 1.44773 0
M  V30 24246 C 2333.35 -0.0885619 2.34433 0
M  V30 24247 C 2334.37 -0.844502 1.52132 0
M  V30 24248 O 2335.54 -0.798658 1.84888 0
M  V30 24249 C 2332.61 -1.06344 3.29987 0
M  V30 24250 C 2331.67 -0.307798 4.28195 0
M  V30 24251 C 2330.9 -1.23624 5.19185 0
M  V30 24252 O 2331.13 -2.47467 5.13922 0
M  V30 24253 O 2330.06 -0.725084 5.97517 0
M  V30 24254 H 2333.89 0.648651 2.96692 0
M  V30 24255 H 2331.47 0.382982 1.44408 0
M  V30 24256 H 2333.35 -1.62453 3.88828 0
M  V30 24257 H 2332.03 -1.78142 2.70272 0
M  V30 24258 H 2330.93 0.29613 3.72926 0
M  V30 24259 H 2332.27 0.369986 4.90807 0
M  V30 24260 N 2333.92 -1.53367 0.362817 0
M  V30 24261 C 2335.17 -2.00818 -0.22729 0
M  V30 24262 C 2335.49 -1.25188 -1.49509 0
M  V30 24263 O 2334.76 -0.364382 -1.92481 0
M  V30 24264 H 2333.34 -0.741919 -0.0869792 0
M  V30 24265 H 2336 -1.88681 0.488414 0
M  V30 24266 H 2335.1 -3.08748 -0.456219 0
M  V30 24267 N 2335.4 -0.091913 -1.57332 0
M  V30 24268 C 2336.33 0.865333 -2.16874 0
M  V30 24269 C 2337.31 1.29644 -1.1012 0
M  V30 24270 O 2338.49 1.3639 -1.38244 0
M  V30 24271 C 2335.62 2.12564 -2.74652 0
M  V30 24272 C 2334.58 1.83326 -3.8675 0
M  V30 24273 C 2333.9 3.16158 -4.31217 0
M  V30 24274 C 2335.2 1.12271 -5.10091 0
M  V30 24275 H 2336.9 0.369255 -2.97114 0
M  V30 24276 H 2334.44 0.176168 -1.42918 0
M  V30 24277 H 2336.4 2.79964 -3.14957 0
M  V30 24278 H 2335.12 2.64449 -1.91662 0
M  V30 24279 H 2333.78 1.18325 -3.4698 0
M  V30 24280 H 2333.43 3.65924 -3.45121 0
M  V30 24281 H 2333.13 2.97379 -5.06793 0
M  V30 24282 H 2334.65 3.84722 -4.74153 0
M  V30 24283 H 2336.07 1.69776 -5.47585 0
M  V30 24284 H 2334.46 1.03682 -5.91075 0
M  V30 24285 H 2335.53 0.104956 -4.84786 0
M  V30 24286 N 2336.88 1.56548 0.181765 0
M  V30 24287 C 2337.81 1.92144 1.24953 0
M  V30 24288 C 2338.82 0.813446 1.41021 0
M  V30 24289 O 2340.01 1.09188 1.4121 0
M  V30 24290 C 2337.11 2.14991 2.61977 0
M  V30 24291 C 2336.28 3.46188 2.67344 0
M  V30 24292 C 2335.34 3.57987 3.85657 0
M  V30 24293 O 2334.37 4.30697 3.72141 0
M  V30 24294 N 2335.57 2.92062 5.01677 0
M  V30 24295 H 2338.34 2.84336 0.947279 0
M  V30 24296 H 2335.9 1.57578 0.371602 0
M  V30 24297 H 2337.89 2.2016 3.39576 0
M  V30 24298 H 2336.46 1.29235 2.84635 0
M  V30 24299 H 2335.68 3.52769 1.75919 0
M  V30 24300 H 2336.97 4.32539 2.67931 0
M  V30 24301 H 2336.36 2.32841 5.1556 0
M  V30 24302 H 2334.92 3.0284 5.77175 0
M  V30 24303 N 2338.35 -0.449957 1.5104 0
M  V30 24304 C 2339.6 -1.19805 1.62761 0
M  V30 24305 C 2339.92 -1.92013 0.340015 0
M  V30 24306 O 2339.19 -1.85027 -0.643573 0
M  V30 24307 H 2337.77 -0.445226 0.599819 0
M  V30 24308 H 2340.44 -0.517105 1.87915 0
M  V30 24309 H 2339.53 -1.93451 2.44915 0
M  V30 24310 N 2339.83 -1.40974 -0.704569 0
M  V30 24311 C 2340.74 -1.44452 -1.84854 0
M  V30 24312 C 2341.76 -0.335991 -1.70725 0
M  V30 24313 O 2342.93 -0.58231 -1.92798 0
M  V30 24314 C 2340 -1.31593 -3.20756 0
M  V30 24315 C 2339.06 -2.52683 -3.47058 0
M  V30 24316 C 2338.29 -2.40429 -4.76476 0
M  V30 24317 O 2338.52 -1.424 -5.52339 0
M  V30 24318 O 2337.45 -3.30016 -5.03362 0
M  V30 24319 H 2341.28 -2.40945 -1.84876 0
M  V30 24320 H 2338.86 -1.22415 -0.856449 0
M  V30 24321 H 2340.74 -1.26672 -4.01911 0
M  V30 24322 H 2339.42 -0.382105 -3.21437 0
M  V30 24323 H 2338.33 -2.63182 -2.65869 0
M  V30 24324 H 2339.66 -3.44864 -3.51184 0
M  V30 24325 N 2341.31 0.937917 -1.26653 0
M  V30 24326 C 2342.54 1.71878 -1.15176 0
M  V30 24327 C 2342.95 1.86518 0.292635 0
M  V30 24328 O 2342.31 1.3749 1.20011 0
M  V30 24329 C 2342.36 3.12383 -1.81931 0
M  V30 24330 O 2342.08 2.9844 -3.20726 0
M  V30 24331 C 2343.58 4.0667 -1.76449 0
M  V30 24332 H 2340.8 0.538056 -0.40092 0
M  V30 24333 H 2343.35 1.17557 -1.67334 0
M  V30 24334 H 2341.5 3.63596 -1.33703 0
M  V30 24335 H 2341.92 3.87194 -3.53809 0
M  V30 24336 H 2343.39 5.02808 -2.2779 0
M  V30 24337 H 2343.87 4.33062 -0.731684 0
M  V30 24338 H 2344.47 3.61379 -2.24245 0
M  V30 24339 N 2342.79 1.08509 1.14296 0
M  V30 24340 C 2343.75 0.71975 2.17606 0
M  V30 24341 C 2344.75 -0.245969 1.58908 0
M  V30 24342 O 2345.94 -0.0253775 1.74182 0
M  V30 24343 C 2343.07 0.0628294 3.40842 0
M  V30 24344 H 2344.27 1.63456 2.5144 0
M  V30 24345 H 2341.82 0.883093 1.28962 0
M  V30 24346 H 2342.55 -0.863661 3.12588 0
M  V30 24347 H 2342.34 0.757572 3.84712 0
M  V30 24348 H 2343.83 -0.177712 4.17222 0
M  V30 24349 N 2344.27 -1.31351 0.870907 0
M  V30 24350 C 2345.49 -2.01382 0.495992 0
M  V30 24351 C 2345.92 -1.64937 -0.904295 0
M  V30 24352 O 2345.27 -0.858494 -1.59686 0
M  V30 24353 C 2345.32 -3.54481 0.661496 0
M  V30 24354 O 2344.43 -4.11316 -0.298778 0
M  V30 24355 H 2343.77 -0.634051 0.197169 0
M  V30 24356 H 2346.3 -1.67525 1.17458 0
M  V30 24357 H 2346.31 -4.04206 0.555143 0
M  V30 24358 H 2344.98 -3.80347 1.68253 0
M  V30 24359 H 2343.56 -3.72609 -0.147303 0
M  V30 24360 N 2345.74 -0.630439 -1.44441 0
M  V30 24361 C 2346.69 0.087102 -2.32437 0
M  V30 24362 C 2347.69 0.836499 -1.47306 0
M  V30 24363 O 2348.89 0.749477 -1.63655 0
M  V30 24364 H 2345.27 0.0469363 -0.750534 0
M  V30 24365 H 2347.24 -0.673148 -2.90708 0
M  V30 24366 C 2345.99 1.05557 -3.3129 0
M  V30 24367 H 2345.31 0.488356 -3.96806 0
M  V30 24368 H 2346.75 1.52714 -3.95543 0
M  V30 24369 C 2345.21 2.14048 -2.60164 0
M  V30 24370 O 2345.74 3.2212 -2.40003 0
M  V30 24371 N 2343.95 1.89964 -2.19914 0
M  V30 24372 H 2343.49 1.0208 -2.36511 0
M  V30 24373 H 2343.45 2.62753 -1.72651 0
M  V30 24374 N 2347.22 1.53172 -0.370945 0
M  V30 24375 C 2348.17 2.25901 0.472995 0
M  V30 24376 C 2349.14 1.26783 1.07309 0
M  V30 24377 O 2350.32 1.55576 1.10457 0
M  V30 24378 C 2347.46 3.05558 1.604 0
M  V30 24379 C 2346.58 4.19577 1.02855 0
M  V30 24380 C 2345.71 4.86665 2.1291 0
M  V30 24381 C 2344.75 5.92706 1.52859 0
M  V30 24382 N 2343.89 6.53464 2.56768 0
M  V30 24383 H 2348.73 2.97603 -0.153701 0
M  V30 24384 H 2346.27 1.46839 -0.0876204 0
M  V30 24385 H 2348.22 3.5002 2.27028 0
M  V30 24386 H 2346.85 2.36101 2.20127 0
M  V30 24387 H 2345.91 3.79562 0.252398 0
M  V30 24388 H 2347.22 4.95763 0.549555 0
M  V30 24389 H 2346.37 5.34338 2.87347 0
M  V30 24390 H 2345.11 4.09962 2.64163 0
M  V30 24391 H 2344.12 5.4439 0.769383 0
M  V30 24392 H 2345.34 6.71332 1.02423 0
M  V30 24393 H 2343.29 5.79611 3.07224 0
M  V30 24394 H 2343.2 7.25206 2.1357 0
M  V30 24395 H 2344.47 7.05784 3.30891 0
M  V30 24396 N 2348.7 0.100255 1.57281 0
M  V30 24397 C 2349.63 -0.886935 2.11344 0
M  V30 24398 C 2350.65 -1.24259 1.05184 0
M  V30 24399 O 2351.83 -1.1948 1.32615 0
M  V30 24400 C 2348.93 -2.19449 2.58254 0
M  V30 24401 C 2348.11 -2.01339 3.88306 0
M  V30 24402 C 2347.17 -3.15654 4.2101 0
M  V30 24403 O 2346.19 -2.8939 4.90145 0
M  V30 24404 N 2347.39 -4.41568 3.76826 0
M  V30 24405 H 2350.16 -0.425163 2.96669 0
M  V30 24406 H 2347.72 -0.084705 1.61678 0
M  V30 24407 H 2349.71 -2.94883 2.77175 0
M  V30 24408 H 2348.28 -2.57034 1.77912 0
M  V30 24409 H 2347.5 -1.10205 3.78482 0
M  V30 24410 H 2348.79 -1.86522 4.73378 0
M  V30 24411 H 2348.19 -4.65787 3.21029 0
M  V30 24412 H 2346.75 -5.13935 4.00892 0
M  V30 24413 N 2350.18 -1.56643 -0.17346 0
M  V30 24414 C 2351.09 -1.99475 -1.23479 0
M  V30 24415 C 2352.11 -0.905778 -1.48565 0
M  V30 24416 O 2353.28 -1.21324 -1.60756 0
M  V30 24417 C 2350.35 -2.34417 -2.5544 0
M  V30 24418 C 2349.41 -3.57131 -2.38234 0
M  V30 24419 C 2348.64 -3.90398 -3.63903 0
M  V30 24420 O 2348.86 -3.24661 -4.6899 0
M  V30 24421 O 2347.8 -4.83755 -3.58141 0
M  V30 24422 H 2351.62 -2.9002 -0.901228 0
M  V30 24423 H 2349.21 -1.44482 -0.38016 0
M  V30 24424 H 2351.09 -2.57871 -3.33287 0
M  V30 24425 H 2349.77 -1.47035 -2.88379 0
M  V30 24426 H 2348.67 -3.38899 -1.58425 0
M  V30 24427 H 2350.01 -4.45049 -2.1022 0
M  V30 24428 N 2351.66 0.44194 -1.51277 0
M  V30 24429 C 2353.07 0.778059 -1.3935 0
M  V30 24430 C 2353.27 1.95888 -0.472246 0
M  V30 24431 O 2352.33 2.52391 0.0743107 0
M  V30 24432 C 2353.64 1.06275 -2.81294 0
M  V30 24433 C 2355.19 1.16746 -2.90412 0
M  V30 24434 C 2355.67 1.48512 -4.33253 0
M  V30 24435 N 2357.16 1.55445 -4.36338 0
M  V30 24436 C 2357.89 1.81586 -5.43888 0
M  V30 24437 N 2357.39 2.05551 -6.61605 0
M  V30 24438 N 2359.18 1.8333 -5.31363 0
M  V30 24439 H 2351.33 -0.335811 -2.09729 0
M  V30 24440 H 2353.59 -0.0878193 -0.943924 0
M  V30 24441 H 2353.3 0.267843 -3.50679 0
M  V30 24442 H 2353.17 1.99157 -3.20338 0
M  V30 24443 H 2355.56 1.953 -2.21228 0
M  V30 24444 H 2355.64 0.217756 -2.54871 0
M  V30 24445 H 2355.29 0.704869 -5.02985 0
M  V30 24446 H 2355.22 2.44681 -4.66304 0
M  V30 24447 H 2357.71 1.38847 -3.51468 0
M  V30 24448 H 2358.02 2.24854 -7.39365 0
M  V30 24449 H 2356.37 2.02882 -6.64728 0
M  V30 24450 H 2359.56 1.64124 -4.38384 0
M  V30 24451 H 2359.73 2.03366 -6.15261 0
M  V30 24452 N 2353.14 1.41345 0.697083 0
M  V30 24453 C 2354.55 1.36202 1.27695 0
M  V30 24454 C 2354.9 0.0443808 1.9615 0
M  V30 24455 O 2354.02 -0.857384 1.9869 0
M  V30 24456 C 2354.62 2.46698 2.32219 0
M  V30 24457 C 2353.18 2.44957 2.85785 0
M  V30 24458 C 2352.32 2.26623 1.59804 0
M  V30 24459 H 2355.27 1.50883 0.491942 0
M  V30 24460 H 2355.3 2.15669 3.13476 0
M  V30 24461 H 2354.81 3.42584 1.82367 0
M  V30 24462 H 2352.91 1.52823 3.39817 0
M  V30 24463 H 2353.02 3.41213 3.36319 0
M  V30 24464 H 2351.39 1.74473 1.85557 0
M  V30 24465 H 2352.17 3.24534 1.1195 0
M  V30 24466 N 2354.61 -0.931187 1.27148 0
M  V30 24467 C 2355.86 -1.67518 1.13058 0
M  V30 24468 C 2356.18 -1.92277 -0.324757 0
M  V30 24469 O 2355.45 -1.52656 -1.22772 0
M  V30 24470 H 2354.03 -0.620846 0.415402 0
M  V30 24471 H 2356.69 -1.1183 1.59624 0
M  V30 24472 H 2355.79 -2.64482 1.65698 0
M  V30 24473 N 2356.09 -1.09114 -1.13719 0
M  V30 24474 C 2357 -0.739609 -2.22636 0
M  V30 24475 C 2358.02 0.257037 -1.72091 0
M  V30 24476 O 2359.19 0.0991801 -2.01156 0
M  V30 24477 C 2356.26 -0.16197 -3.46321 0
M  V30 24478 C 2355.32 -1.21415 -4.11773 0
M  V30 24479 C 2354.55 -0.663984 -5.29554 0
M  V30 24480 O 2354.78 0.514174 -5.68078 0
M  V30 24481 O 2353.71 -1.41748 -5.84971 0
M  V30 24482 H 2357.54 -1.6484 -2.55071 0
M  V30 24483 H 2355.12 -0.86531 -1.2179 0
M  V30 24484 H 2357 0.156999 -4.21107 0
M  V30 24485 H 2355.68 0.719877 -3.15594 0
M  V30 24486 H 2354.58 -1.58577 -3.38828 0
M  V30 24487 H 2355.92 -2.06853 -4.46624 0
M  V30 24488 N 2357.57 1.30887 -0.877861 0
M  V30 24489 C 2358.85 1.91188 -0.413085 0
M  V30 24490 C 2359.23 1.79834 1.10557 0
M  V30 24491 O 2358.57 1.21102 1.93769 0
M  V30 24492 C 2358.78 3.37109 -0.90325 0
M  V30 24493 C 2360.13 4.14199 -0.934023 0
M  V30 24494 O 2361.16 3.45923 -0.849434 0
M  V30 24495 O 2360.02 5.36165 -1.05781 0
M  V30 24496 H 2357.11 0.817491 -0.12505 0
M  V30 24497 H 2359.66 1.39502 -0.966293 0
M  V30 24498 H 2358.43 3.39424 -1.94698 0
M  V30 24499 H 2358.05 3.96238 -0.328801 0
M  V30 24500 N 2359.05 0.638091 1.44105 0
M  V30 24501 C 2360.28 0.152651 2.06336 0
M  V30 24502 C 2360.69 -1.1756 1.47733 0
M  V30 24503 O 2360.05 -1.72256 0.602836 0
M  V30 24504 C 2360.1 0.0392126 3.61479 0
M  V30 24505 O 2359.82 1.31495 4.179 0
M  V30 24506 C 2361.32 -0.474099 4.40758 0
M  V30 24507 H 2358.54 0.0828893 0.665861 0
M  V30 24508 H 2361.08 0.874463 1.8486 0
M  V30 24509 H 2359.24 -0.633075 3.82192 0
M  V30 24510 H 2359.65 1.1643 5.11414 0
M  V30 24511 H 2361.13 -0.502466 5.49708 0
M  V30 24512 H 2361.6 -1.50251 4.127 0
M  V30 24513 H 2362.21 0.165176 4.24979 0
M  V30 24514 N 2360.53 -1.52973 0.379063 0
M  V30 24515 C 2361.46 -2.2907 -0.452665 0
M  V30 24516 C 2362.44 -1.32041 -1.07235 0
M  V30 24517 O 2363.62 -1.60925 -1.08705 0
M  V30 24518 C 2360.75 -3.08995 -1.58554 0
M  V30 24519 C 2359.71 -4.13824 -1.09243 0
M  V30 24520 C 2359.03 -4.81911 -2.31659 0
M  V30 24521 C 2360.33 -5.22031 -0.16761 0
M  V30 24522 H 2362.03 -2.98845 0.182233 0
M  V30 24523 H 2359.57 -1.43724 0.0890845 0
M  V30 24524 H 2361.52 -3.60983 -2.17414 0
M  V30 24525 H 2360.25 -2.36935 -2.24788 0
M  V30 24526 H 2358.91 -3.62801 -0.526431 0
M  V30 24527 H 2358.56 -4.06409 -2.96379 0
M  V30 24528 H 2358.26 -5.52758 -1.9933 0
M  V30 24529 H 2359.78 -5.367 -2.9118 0
M  V30 24530 H 2361.19 -5.69441 -0.664086 0
M  V30 24531 H 2359.59 -6.00064 0.065432 0
M  V30 24532 H 2360.66 -4.7848 0.786431 0
M  V30 24533 N 2362 -0.108595 -1.57225 0
M  V30 24534 C 2362.97 0.831044 -2.13603 0
M  V30 24535 C 2363.97 1.20171 -1.06843 0
M  V30 24536 O 2365.16 1.12893 -1.32668 0
M  V30 24537 C 2362.29 2.12239 -2.66772 0
M  V30 24538 H 2363.48 0.341265 -2.97952 0
M  V30 24539 H 2361.03 0.140542 -1.55667 0
M  V30 24540 H 2361.77 2.65671 -1.85982 0
M  V30 24541 H 2361.55 1.86619 -3.44842 0
M  V30 24542 H 2363.04 2.79429 -3.10337 0
M  V30 24543 N 2363.48 1.56732 0.16515 0
M  V30 24544 C 2364.44 1.95997 1.18818 0
M  V30 24545 C 2365.44 0.844334 1.36849 0
M  V30 24546 O 2366.63 1.11128 1.3415 0
M  V30 24547 C 2363.77 2.26015 2.55206 0
M  V30 24548 H 2364.96 2.8755 0.851774 0
M  V30 24549 H 2362.51 1.50885 0.407831 0
M  V30 24550 H 2363.25 1.37196 2.9385 0
M  V30 24551 H 2363.03 3.0734 2.43484 0
M  V30 24552 H 2364.52 2.57294 3.28922 0
M  V30 24553 N 2364.96 -0.433911 1.51509 0
M  V30 24554 C 2365.91 -1.54754 1.73649 0
M  V30 24555 C 2366.9 -1.58309 0.602882 0
M  V30 24556 O 2368.11 -1.62012 0.784346 0
M  V30 24557 H 2364.48 -0.514201 0.548727 0
M  V30 24558 H 2366.45 -1.33256 2.66993 0
M  V30 24559 C 2365.2 -2.92378 1.88177 0
M  V30 24560 H 2364.53 -2.90376 2.74813 0
M  V30 24561 H 2365.97 -3.69656 2.07678 0
M  V30 24562 C 2364.43 -3.30718 0.642448 0
M  V30 24563 O 2364.95 -4.01195 -0.201292 0
M  V30 24564 N 2363.16 -2.86515 0.485539 0
M  V30 24565 H 2362.71 -2.29332 1.17322 0
M  V30 24566 H 2362.67 -3.1253 -0.342427 0
M  V30 24567 N 2366.44 -1.41713 -0.689577 0
M  V30 24568 C 2367.35 -1.46404 -1.83311 0
M  V30 24569 C 2368.36 -0.35408 -1.70359 0
M  V30 24570 O 2369.54 -0.602726 -1.9217 0
M  V30 24571 C 2366.61 -1.34988 -3.19342 0
M  V30 24572 C 2365.67 -2.5635 -3.44359 0
M  V30 24573 C 2364.9 -2.45469 -4.73899 0
M  V30 24574 O 2365.12 -1.48251 -5.50798 0
M  V30 24575 O 2364.06 -3.35336 -4.99833 0
M  V30 24576 H 2367.88 -2.42893 -1.8231 0
M  V30 24577 H 2365.47 -1.23316 -0.843417 0
M  V30 24578 H 2367.35 -1.30927 -4.00545 0
M  V30 24579 H 2366.02 -0.416176 -3.21013 0
M  V30 24580 H 2364.93 -2.65987 -2.63063 0
M  V30 24581 H 2366.26 -3.48569 -3.47506 0
M  V30 24582 N 2367.92 0.924431 -1.2764 0
M  V30 24583 C 2369.14 1.71177 -1.17104 0
M  V30 24584 C 2369.57 1.8618 0.268101 0
M  V30 24585 O 2368.92 1.3642 1.19413 0
M  V30 24586 C 2368.97 3.08736 -1.86319 0
M  V30 24587 O 2368.08 3.9565 -1.16338 0
M  V30 24588 H 2367.42 0.524562 -0.4071 0
M  V30 24589 H 2369.95 1.15663 -1.68769 0
M  V30 24590 H 2369.96 3.59031 -1.93806 0
M  V30 24591 H 2368.63 2.97133 -2.91006 0
M  V30 24592 H 2367.21 3.54089 -1.16941 0
M  V30 24593 O 2369.43 1.21946 1.05884 0
M  V30 24594 H 2370.12 0.982188 1.66951 0
M  V30 END ATOM
M  V30 BEGIN BOND
M  V30 END BOND
M  V30 END CTAB
M  END
$$$$
