drugbank_target|P07986 Exoglucanase/xylanase (DB01921; DB02374; DB02379; DB03389; DB03717; DB04282)
 OpenBabel12092119523D

  0  0  0     0  0            999 V3000
M  V30 BEGIN CTAB
M  V30 COUNTS 7102 7197 0 0 0
M  V30 BEGIN ATOM
M  V30 1 H -0.908 1.98254 -0.117106 0
M  V30 2 N 0 1.576 0 0
M  V30 3 C 0.933 2.03868 1.02534 0
M  V30 4 C 1.911 0.928543 1.3348 0
M  V30 5 O 3.095 1.19667 1.45644 0
M  V30 6 C 0.222 2.43627 2.35294 0
M  V30 7 C -0.732 3.65373 2.2001 0
M  V30 8 S 0.101 5.13292 1.52614 0
M  V30 9 C 1.257 5.56322 2.86805 0
M  V30 10 H 1.49 2.90518 0.631377 0
M  V30 11 H -0.977 1.52953 0.210867 0
M  V30 12 H 0.981 2.67203 3.11629 0
M  V30 13 H -0.358 1.57376 2.7183 0
M  V30 14 H -1.165 3.90944 3.18086 0
M  V30 15 H -1.563 3.418 1.51819 0
M  V30 16 H 0.729 5.58782 3.83104 0
M  V30 17 H 1.672 6.56266 2.65933 0
M  V30 18 H 2.08 4.83886 2.90714 0
M  V30 19 N 1.4781 -0.272755 1.55222 0
M  V30 20 C 2.8891 -0.84378 1.66545 0
M  V30 21 C 3.2401 -1.87035 0.592641 0
M  V30 22 O 2.3651 -2.14761 -0.265818 0
M  V30 23 C 2.9601 -1.53723 3.01918 0
M  V30 24 C 1.5191 -2.05628 3.15268 0
M  V30 25 C 0.6661 -0.898424 2.62343 0
M  V30 26 H 3.6171 -0.0490998 1.58624 0
M  V30 27 H 3.6381 -2.40421 2.94921 0
M  V30 28 H 3.1501 -0.78983 3.79978 0
M  V30 29 H 1.2511 -2.83329 2.41983 0
M  V30 30 H 1.3641 -2.27142 4.21833 0
M  V30 31 H -0.2719 -1.29186 2.19506 0
M  V30 32 H 0.5111 -0.164528 3.42906 0
M  V30 33 N 2.9562 -1.48159 -0.537278 0
M  V30 34 C 4.3722 -1.34118 -0.865129 0
M  V30 35 C 4.5722 -0.346678 -1.98495 0
M  V30 36 O 3.6282 0.234715 -2.51407 0
M  V30 37 C 4.9412 -2.73963 -1.23954 0
M  V30 38 C 6.4892 -2.82397 -1.34984 0
M  V30 39 C 6.9642 -4.22928 -1.75772 0
M  V30 40 N 8.4552 -4.25566 -1.82887 0
M  V30 41 C 9.1902 -5.31235 -2.15817 0
M  V30 42 N 8.6862 -6.47189 -2.47222 0
M  V30 43 N 10.4792 -5.18624 -2.16761 0
M  V30 44 H 2.6302 -2.1144 0.201715 0
M  V30 45 H 4.8932 -0.947598 0.0275949 0
M  V30 46 H 4.5992 -3.48264 -0.490381 0
M  V30 47 H 4.4732 -3.0702 -2.19132 0
M  V30 48 H 6.8602 -2.08356 -2.08978 0
M  V30 49 H 6.9412 -2.5297 -0.379448 0
M  V30 50 H 6.5852 -4.97482 -1.02341 0
M  V30 51 H 6.5152 -4.49794 -2.73848 0
M  V30 52 H 9.0062 -3.41924 -1.60924 0
M  V30 53 H 9.3192 -7.23564 -2.71433 0
M  V30 54 H 7.6642 -6.50476 -2.44757 0
M  V30 55 H 10.8552 -4.27056 -1.91679 0
M  V30 56 H 11.0282 -6.01078 -2.42093 0
M  V30 57 N 4.4343 0.785586 -1.36625 0
M  V30 58 C 5.6623 1.57448 -1.3423 0
M  V30 59 C 6.0773 1.88649 0.0755653 0
M  V30 60 O 5.4343 1.50414 1.03354 0
M  V30 61 C 5.4853 2.89316 -2.16745 0
M  V30 62 O 5.2063 2.59459 -3.53005 0
M  V30 63 C 6.7073 3.83606 -2.22174 0
M  V30 64 H 3.9273 0.488226 -0.4603 0
M  V30 65 H 6.4713 0.974733 -1.79775 0
M  V30 66 H 4.6263 3.4575 -1.74745 0
M  V30 67 H 5.0403 3.43804 -3.96105 0
M  V30 68 H 6.5143 4.73181 -2.8426 0
M  V30 69 H 6.9913 4.21734 -1.22627 0
M  V30 70 H 7.5973 3.33104 -2.64427 0
M  V30 71 N 5.9124 1.20967 1.01018 0
M  V30 72 C 7.1404 1.04956 1.78303 0
M  V30 73 C 7.5554 -0.400915 1.84494 0
M  V30 74 O 6.9124 -1.27826 1.30257 0
M  V30 75 C 6.9634 1.63403 3.22462 0
M  V30 76 O 6.6844 3.02775 3.16637 0
M  V30 77 C 8.1854 1.52432 4.16268 0
M  V30 78 H 5.4054 0.368858 0.560522 0
M  V30 79 H 7.9494 1.60193 1.27116 0
M  V30 80 H 6.1044 1.1227 3.70775 0
M  V30 81 H 6.5184 3.30626 4.07169 0
M  V30 82 H 7.9924 1.98078 5.15237 0
M  V30 83 H 8.4694 0.477875 4.36592 0
M  V30 84 H 9.0754 2.02787 3.73841 0
M  V30 85 N 7.3905 -1.2043 1.01659 0
M  V30 86 C 8.8015 -1.71517 0.737482 0
M  V30 87 C 9.1525 -1.81547 -0.743973 0
M  V30 88 O 8.2775 -1.47803 -1.58061 0
M  V30 89 C 8.8725 -3.11515 1.33206 0
M  V30 90 C 7.4315 -3.59912 1.10183 0
M  V30 91 C 6.5785 -2.37116 1.43776 0
M  V30 92 H 9.5295 -1.05444 1.18606 0
M  V30 93 H 9.5505 -3.73575 0.722636 0
M  V30 94 H 9.0625 -3.04182 2.41028 0
M  V30 95 H 7.1635 -3.72577 0.0412756 0
M  V30 96 H 7.2765 -4.44731 1.78188 0
M  V30 97 H 5.6405 -2.39857 0.856778 0
M  V30 98 H 6.4235 -2.32424 2.52654 0
M  V30 99 N 8.8686 -0.792821 -1.36206 0
M  V30 100 C 9.8316 -0.199459 -2.2833 0
M  V30 101 C 10.8316 0.605189 -1.48977 0
M  V30 102 O 12.0216 0.425685 -1.68919 0
M  V30 103 C 9.1536 0.723523 -3.33134 0
M  V30 104 H 10.3466 -1.01181 -2.82316 0
M  V30 105 H 7.8996 -0.562485 -1.45828 0
M  V30 106 H 8.6346 1.56008 -2.84309 0
M  V30 107 H 8.4196 0.148436 -3.91819 0
M  V30 108 H 9.9096 1.13344 -4.01924 0
M  V30 109 N 10.3467 1.47872 -0.545128 0
M  V30 110 C 11.7577 1.86384 -0.108581 0
M  V30 111 C 12.1087 1.45309 1.31832 0
M  V30 112 O 11.2337 0.850641 1.9898 0
M  V30 113 C 11.8287 3.38265 -0.190274 0
M  V30 114 C 10.3877 3.75914 0.191164 0
M  V30 115 C 9.5347 2.71926 -0.543273 0
M  V30 116 H 12.4857 1.39561 -0.755537 0
M  V30 117 H 12.5067 3.75831 0.594217 0
M  V30 118 H 12.0187 3.6813 -1.2289 0
M  V30 119 H 10.1197 3.51665 1.23136 0
M  V30 120 H 10.2327 4.78836 -0.158987 0
M  V30 121 H 8.5967 2.54697 0.0122495 0
M  V30 122 H 9.3797 3.04634 -1.58282 0
M  V30 123 N 11.8248 0.280983 1.55075 0
M  V30 124 C 13.0728 -0.333455 1.9933 0
M  V30 125 C 13.3938 -1.55937 1.17085 0
M  V30 126 O 12.6638 -1.94143 0.261805 0
M  V30 127 H 11.2438 -0.126197 0.736263 0
M  V30 128 H 13.9058 0.387678 1.91005 0
M  V30 129 H 13.0018 -0.619292 3.05894 0
M  V30 130 N 13.3029 -1.57598 0.00835791 0
M  V30 131 C 14.2529 -2.05431 -0.989045 0
M  V30 132 C 15.2369 -0.950662 -1.29812 0
M  V30 133 O 16.4289 -1.21438 -1.28771 0
M  V30 134 C 13.5579 -2.56801 -2.27833 0
M  V30 135 C 12.6439 -3.74058 -1.99853 0
M  V30 136 N 13.0349 -4.8544 -1.42062 0
M  V30 137 C 11.3329 -3.82148 -2.29953 0
M  V30 138 C 12.0339 -5.66817 -1.30743 0
M  V30 139 N 11.0099 -5.13077 -1.7959 0
M  V30 140 H 14.8119 -2.88955 -0.536853 0
M  V30 141 H 12.3259 -1.61199 -0.197148 0
M  V30 142 H 14.3229 -2.89349 -3.00137 0
M  V30 143 H 12.9829 -1.74699 -2.73698 0
M  V30 144 H 13.9939 -5.0612 -1.09833 0
M  V30 145 H 10.6709 -3.10916 -2.78635 0
M  V30 146 H 12.0609 -6.66343 -0.862328 0
M  V30 147 N 14.781 0.264519 -1.55364 0
M  V30 148 C 16.192 0.834936 -1.6699 0
M  V30 149 C 16.543 1.86718 -0.602552 0
M  V30 150 O 15.668 2.14899 0.254425 0
M  V30 151 C 16.263 1.5212 -3.02729 0
M  V30 152 C 14.822 2.03954 -3.16354 0
M  V30 153 C 13.969 0.884498 -2.62815 0
M  V30 154 H 16.92 0.0406869 -1.58648 0
M  V30 155 H 16.941 2.38853 -2.96191 0
M  V30 156 H 16.453 0.769668 -3.80392 0
M  V30 157 H 14.554 2.82041 -2.43482 0
M  V30 158 H 14.667 2.24902 -4.23032 0
M  V30 159 H 13.031 1.2802 -2.20188 0
M  V30 160 H 13.814 0.14634 -3.42988 0
M  V30 161 N 16.2591 1.48442 0.529413 0
M  V30 162 C 17.2221 1.62524 1.61612 0
M  V30 163 C 18.2221 0.498509 1.52877 0
M  V30 164 O 19.4121 0.76431 1.56537 0
M  V30 165 C 16.5441 1.59597 3.01233 0
M  V30 166 H 17.7371 2.59423 1.50465 0
M  V30 167 H 15.2901 1.37047 0.751514 0
M  V30 168 H 16.0251 0.641781 3.17886 0
M  V30 169 H 15.8101 2.41397 3.08982 0
M  V30 170 H 17.3001 1.72646 3.80241 0
M  V30 171 N 17.7372 -0.778329 1.37039 0
M  V30 172 C 19.1532 -1.07796 1.17695 0
M  V30 173 C 19.3532 -2.01498 0.00860115 0
M  V30 174 O 18.4092 -2.43901 -0.653352 0
M  V30 175 C 19.7222 -1.68178 2.49272 0
M  V30 176 C 21.2702 -1.80467 2.55735 0
M  V30 177 C 21.7452 -2.44263 3.87427 0
M  V30 178 N 23.2362 -2.51721 3.88833 0
M  V30 179 C 23.9712 -3.01919 4.87476 0
M  V30 180 N 23.4672 -3.5234 5.96513 0
M  V30 181 N 25.2602 -3.00733 4.74885 0
M  V30 182 H 17.4112 -0.156032 2.11826 0
M  V30 183 H 19.6742 -0.131844 0.938787 0
M  V30 184 H 19.3802 -1.06796 3.35093 0
M  V30 185 H 19.2542 -2.67554 2.65885 0
M  V30 186 H 21.6412 -2.40984 1.70325 0
M  V30 187 H 21.7222 -0.798656 2.43013 0
M  V30 188 H 21.3662 -1.84388 4.73248 0
M  V30 189 H 21.2962 -3.45458 3.9745 0
M  V30 190 H 23.7872 -2.1603 3.10063 0
M  V30 191 H 24.1002 -3.89027 6.67741 0
M  V30 192 H 22.4452 -3.50462 6.00168 0
M  V30 193 H 25.6362 -2.60638 3.88826 0
M  V30 194 H 25.8092 -3.39545 5.51918 0
M  V30 195 N 19.2153 -1.21501 -1.00376 0
M  V30 196 C 20.4633 -1.03095 -1.73827 0
M  V30 197 C 20.7843 0.436341 -1.90055 0
M  V30 198 O 20.0543 1.31466 -1.45236 0
M  V30 199 H 18.6343 -0.378487 -0.644016 0
M  V30 200 H 21.2963 -1.52831 -1.20949 0
M  V30 201 H 20.3923 -1.49991 -2.73695 0
M  V30 202 N 20.6934 1.19889 -1.02296 0
M  V30 203 C 21.6564 2.21116 -0.603351 0
M  V30 204 C 22.6564 1.5738 0.329884 0
M  V30 205 O 23.8464 1.73802 0.117702 0
M  V30 206 C 20.9784 3.40696 0.117992 0
M  V30 207 H 22.1714 2.59754 -1.49893 0
M  V30 208 H 19.7244 1.33463 -0.813468 0
M  V30 209 H 20.4594 3.07569 1.0282 0
M  V30 210 H 20.2444 3.88188 -0.552511 0
M  V30 211 H 21.7344 4.15692 0.398696 0
M  V30 212 N 22.1715 0.800033 1.35784 0
M  V30 213 C 23.5875 0.482977 1.52117 0
M  V30 214 C 23.7875 -0.996948 1.75109 0
M  V30 215 O 22.8435 -1.78216 1.78872 0
M  V30 216 C 24.1565 1.32264 2.70049 0
M  V30 217 C 25.7045 1.31742 2.83924 0
M  V30 218 C 26.1795 2.14106 4.04874 0
M  V30 219 N 27.6705 2.11607 4.12039 0
M  V30 220 C 28.4055 2.72099 5.04727 0
M  V30 221 N 27.9015 3.41492 6.02789 0
M  V30 222 N 29.6945 2.61776 4.97423 0
M  V30 223 H 21.8455 1.75856 1.19115 0
M  V30 224 H 24.1085 0.748122 0.582252 0
M  V30 225 H 23.8145 2.37261 2.59616 0
M  V30 226 H 23.6885 0.971303 3.6448 0
M  V30 227 H 26.0755 0.275333 2.93813 0
M  V30 228 H 26.1565 1.70859 1.9037 0
M  V30 229 H 25.8005 3.18351 3.95746 0
M  V30 230 H 25.7305 1.72353 4.97596 0
M  V30 231 H 28.2215 1.61112 3.41835 0
M  V30 232 H 28.5345 3.84953 6.70098 0
M  V30 233 H 26.8795 3.45596 6.02983 0
M  V30 234 H 30.0705 2.07157 4.19766 0
M  V30 235 H 30.2435 3.0921 5.69468 0
M  V30 236 N 23.6496 -1.47581 0.552962 0
M  V30 237 C 24.8776 -2.06875 0.0320556 0
M  V30 238 C 25.2926 -1.40625 -1.25976 0
M  V30 239 O 24.6496 -0.501349 -1.75479 0
M  V30 240 C 24.7006 -3.61092 -0.17167 0
M  V30 241 O 24.4216 -4.24858 1.06899 0
M  V30 242 C 25.9226 -4.37242 -0.730344 0
M  V30 243 H 23.1426 -0.669561 0.043915 0
M  V30 244 H 25.6866 -1.89646 0.765163 0
M  V30 245 H 23.8416 -3.7785 -0.854894 0
M  V30 246 H 24.2556 -5.17334 0.864059 0
M  V30 247 H 25.7296 -5.45842 -0.822203 0
M  V30 248 H 26.2066 -4.03235 -1.74064 0
M  V30 249 H 26.8126 -4.25219 -0.0829543 0
M  V30 250 N 25.1277 -0.289203 -1.54924 0
M  V30 251 C 26.0907 0.579144 -2.21762 0
M  V30 252 C 27.0907 1.07047 -1.1999 0
M  V30 253 O 28.2807 0.968384 -1.44803 0
M  V30 254 C 25.4127 1.80055 -2.8947 0
M  V30 255 H 26.6057 -0.00464908 -2.999 0
M  V30 256 H 24.1587 -0.0399306 -1.56249 0
M  V30 257 H 24.8937 2.42449 -2.15381 0
M  V30 258 H 24.6787 1.45602 -3.64064 0
M  V30 259 H 26.1687 2.41773 -3.40493 0
M  V30 260 N 26.6058 1.57591 -0.0167156 0
M  V30 261 C 27.5358 2.12496 0.967858 0
M  V30 262 C 28.5168 1.03807 1.34752 0
M  V30 263 O 29.7018 1.31577 1.42833 0
M  V30 264 C 26.8318 2.64194 2.25431 0
M  V30 265 C 25.7858 3.77559 2.01576 0
M  V30 266 C 25.1118 4.15636 3.36379 0
M  V30 267 C 26.4118 5.04151 1.36489 0
M  V30 268 H 28.1058 2.95013 0.510643 0
M  V30 269 H 25.6518 1.41915 0.244181 0
M  V30 270 H 27.6048 3.01236 2.94678 0
M  V30 271 H 26.3288 1.78821 2.73296 0
M  V30 272 H 24.9878 3.40937 1.34751 0
M  V30 273 H 24.6358 3.27263 3.81979 0
M  V30 274 H 24.3358 4.92022 3.21229 0
M  V30 275 H 25.8598 4.5525 4.06915 0
M  V30 276 H 27.2738 5.38857 1.95718 0
M  V30 277 H 25.6708 5.85453 1.31776 0
M  V30 278 H 26.7408 4.83733 0.336219 0
M  V30 279 N 28.0839 -0.256276 1.55502 0
M  V30 280 C 29.4999 -0.604325 1.47716 0
M  V30 281 C 29.6999 -1.88763 0.705039 0
M  V30 282 O 28.7559 -2.51445 0.230613 0
M  V30 283 C 30.0689 -0.715756 2.92057 0
M  V30 284 C 31.6169 -0.808706 3.02372 0
M  V30 285 C 32.0919 -0.951777 4.48001 0
M  V30 286 N 33.5829 -1.01688 4.519 0
M  V30 287 C 34.3179 -1.14668 5.61817 0
M  V30 288 N 33.8139 -1.24261 6.81565 0
M  V30 289 N 35.6069 -1.1791 5.49594 0
M  V30 290 H 27.7579 0.586291 2.04148 0
M  V30 291 H 30.0209 0.201015 0.926443 0
M  V30 292 H 29.7269 0.157027 3.51349 0
M  V30 293 H 29.6009 -1.59071 3.42018 0
M  V30 294 H 31.9879 -1.67195 2.43166 0
M  V30 295 H 32.0689 0.0912063 2.55637 0
M  V30 296 H 31.7129 -0.0931291 5.07815 0
M  V30 297 H 31.6429 -1.86659 4.92408 0
M  V30 298 H 34.1339 -0.954468 3.65648 0
M  V30 299 H 34.4469 -1.34046 7.61086 0
M  V30 300 H 32.7919 -1.21236 6.84344 0
M  V30 301 H 35.9829 -1.10057 4.54978 0
M  V30 302 H 36.1559 -1.27681 6.35296 0
M  V30 303 N 29.562 -1.4872 -0.521534 0
M  V30 304 C 30.79 -1.60843 -1.30142 0
M  V30 305 C 31.205 -0.271897 -1.86832 0
M  V30 306 O 30.562 0.739969 -1.66825 0
M  V30 307 C 30.613 -2.66155 -2.4463 0
M  V30 308 O 30.334 -3.94623 -1.90275 0
M  V30 309 C 31.835 -2.88795 -3.36322 0
M  V30 310 H 29.055 -0.542075 -0.395468 0
M  V30 311 H 31.599 -1.94609 -0.628285 0
M  V30 312 H 29.754 -2.35224 -3.07812 0
M  V30 313 H 30.168 -4.52468 -2.65279 0
M  V30 314 H 31.642 -3.66264 -4.12983 0
M  V30 315 H 32.119 -1.97934 -3.9207 0
M  V30 316 H 32.725 -3.21063 -2.78924 0
M  V30 317 N 31.0401 0.771051 -1.3745 0
M  V30 318 C 32.2681 1.56015 -1.35893 0
M  V30 319 C 32.6831 1.88718 0.0555523 0
M  V30 320 O 32.0401 1.51502 1.01752 0
M  V30 321 C 32.0911 2.87001 -2.19801 0
M  V30 322 O 31.8121 2.557 -3.55738 0
M  V30 323 C 33.3131 3.81228 -2.26231 0
M  V30 324 H 30.5331 0.483317 -0.465453 0
M  V30 325 H 33.0771 0.955611 -1.80799 0
M  V30 326 H 31.2321 3.43877 -1.78402 0
M  V30 327 H 31.6461 3.39584 -3.99729 0
M  V30 328 H 33.1201 4.70139 -2.89263 0
M  V30 329 H 33.5971 4.20409 -1.27093 0
M  V30 330 H 34.2031 3.30281 -2.67945 0
M  V30 331 N 32.5182 1.22032 0.997298 0
M  V30 332 C 33.9342 0.979326 1.26021 0
M  V30 333 C 34.1342 -0.32972 1.98784 0
M  V30 334 O 33.1902 -1.05345 2.29475 0
M  V30 335 C 34.5032 2.17509 2.07631 0
M  V30 336 C 36.0512 2.21817 2.2083 0
M  V30 337 C 36.5262 3.40933 3.05825 0
M  V30 338 N 38.0172 3.41067 3.13412 0
M  V30 339 C 38.7522 4.29885 3.79455 0
M  V30 340 N 38.2482 5.28914 4.47462 0
M  V30 341 N 40.0412 4.17673 3.76173 0
M  V30 342 H 32.1922 2.06202 0.509352 0
M  V30 343 H 34.4552 0.90334 0.287541 0
M  V30 344 H 34.1612 3.12415 1.61524 0
M  V30 345 H 34.0352 2.17206 3.08385 0
M  V30 346 H 36.4222 1.27462 2.66153 0
M  V30 347 H 36.5032 2.2616 1.1952 0
M  V30 348 H 36.1472 4.35586 2.61203 0
M  V30 349 H 36.0772 3.33829 4.07266 0
M  V30 350 H 38.5682 2.69406 2.65007 0
M  V30 351 H 38.8812 5.92973 4.95583 0
M  V30 352 H 37.2262 5.32831 4.46224 0
M  V30 353 H 40.4172 3.39564 3.22202 0
M  V30 354 H 40.5902 4.87098 4.27363 0
M  V30 355 N 33.9963 -1.19345 1.0293 0
M  V30 356 C 35.4123 -1.41069 0.746446 0
M  V30 357 C 35.6123 -1.90078 -0.668776 0
M  V30 358 O 34.6683 -2.0778 -1.4347 0
M  V30 359 C 35.9813 -2.42141 1.78292 0
M  V30 360 C 37.5293 -2.55887 1.80252 0
M  V30 361 C 38.0043 -3.60214 2.8286 0
M  V30 362 N 39.4953 -3.67711 2.81679 0
M  V30 363 C 40.2303 -4.48128 3.57727 0
M  V30 364 N 39.7263 -5.32248 4.43491 0
M  V30 365 N 41.5193 -4.42782 3.46267 0
M  V30 366 H 33.6703 -0.858536 1.94275 0
M  V30 367 H 35.9333 -0.439541 0.839945 0
M  V30 368 H 35.6393 -2.13155 2.79746 0
M  V30 369 H 35.5133 -3.41323 1.60557 0
M  V30 370 H 37.9003 -2.84196 0.794757 0
M  V30 371 H 37.9813 -1.56858 2.02062 0
M  V30 372 H 37.6253 -3.32647 3.83807 0
M  V30 373 H 37.5553 -4.58895 2.58307 0
M  V30 374 H 40.0463 -3.07634 2.19476 0
M  V30 375 H 40.3593 -5.90729 4.98256 0
M  V30 376 H 38.7043 -5.31707 4.47564 0
M  V30 377 H 41.8953 -3.76107 2.78677 0
M  V30 378 H 42.0683 -5.05215 4.05785 0
M  V30 379 N 35.4744 -0.807222 -1.35358 0
M  V30 380 C 36.8904 -0.491038 -1.51858 0
M  V30 381 C 37.0904 0.987648 -1.75635 0
M  V30 382 O 36.1464 1.77265 -1.79815 0
M  V30 383 C 37.4594 -1.33695 -2.69344 0
M  V30 384 C 39.0074 -1.33246 -2.83222 0
M  V30 385 C 39.4824 -2.1625 -4.03733 0
M  V30 386 N 40.9734 -2.1379 -4.10911 0
M  V30 387 C 41.7084 -2.74772 -5.03277 0
M  V30 388 N 41.2044 -3.44684 -6.0097 0
M  V30 389 N 42.9974 -2.6441 -4.96028 0
M  V30 390 H 35.1484 -1.76485 -1.18181 0
M  V30 391 H 37.4114 -0.751199 -0.578276 0
M  V30 392 H 37.1174 -2.38634 -2.58354 0
M  V30 393 H 36.9914 -0.990618 -3.6396 0
M  V30 394 H 39.3784 -0.290911 -2.93663 0
M  V30 395 H 39.4594 -1.71866 -1.89461 0
M  V30 396 H 39.1034 -3.20445 -3.94052 0
M  V30 397 H 39.0334 -1.74989 -4.96675 0
M  V30 398 H 41.5244 -1.62923 -3.40976 0
M  V30 399 H 41.8374 -3.88501 -6.68047 0
M  V30 400 H 40.1824 -3.48788 -6.01142 0
M  V30 401 H 43.3734 -2.0938 -4.18662 0
M  V30 402 H 43.5464 -3.12225 -5.6782 0
M  V30 403 N 36.9525 1.47285 -0.560781 0
M  V30 404 C 37.9155 2.28535 0.174488 0
M  V30 405 C 38.9155 1.37153 0.839388 0
M  V30 406 O 40.1055 1.59748 0.694702 0
M  V30 407 C 37.2375 3.16934 1.25561 0
M  V30 408 H 38.4305 2.95012 -0.539262 0
M  V30 409 H 35.9835 1.53034 -0.317865 0
M  V30 410 H 36.7185 2.55157 2.00164 0
M  V30 411 H 36.5035 3.8419 0.783604 0
M  V30 412 H 37.9935 3.78143 1.77193 0
M  V30 413 N 38.4306 0.297415 1.54768 0
M  V30 414 C 39.3936 -0.567375 2.22066 0
M  V30 415 C 40.3936 -1.06409 1.20556 0
M  V30 416 O 41.5836 -0.960691 1.45315 0
M  V30 417 C 38.7156 -1.78517 2.90421 0
M  V30 418 H 39.9086 0.0205534 2.99893 0
M  V30 419 H 37.4616 0.0482163 1.56226 0
M  V30 420 H 38.1966 -2.41303 2.16664 0
M  V30 421 H 37.9816 -1.43669 3.64831 0
M  V30 422 H 39.4716 -2.39964 3.41771 0
M  V30 423 N 39.9087 -1.5758 0.0250728 0
M  V30 424 C 41.1367 -1.9593 -0.664747 0
M  V30 425 C 41.5517 -0.901352 -1.65895 0
M  V30 426 O 40.9087 0.117255 -1.82123 0
M  V30 427 C 40.9597 -3.34342 -1.37468 0
M  V30 428 O 40.6807 -4.36079 -0.420324 0
M  V30 429 C 42.1817 -3.873 -2.1567 0
M  V30 430 H 39.4017 -0.645405 -0.183557 0
M  V30 431 H 41.9457 -2.04329 0.0836372 0
M  V30 432 H 40.1007 -3.27175 -2.0745 0
M  V30 433 H 40.5147 -5.16297 -0.923991 0
M  V30 434 H 41.9887 -4.86504 -2.60803 0
M  V30 435 H 42.4657 -3.21331 -2.99405 0
M  V30 436 H 43.0717 -3.97723 -1.50654 0
M  V30 437 N 41.3868 0.248026 -1.55636 0
M  V30 438 C 42.3168 1.31079 -1.93237 0
M  V30 439 C 43.2978 1.50264 -0.797174 0
M  V30 440 O 44.4828 1.62891 -1.05737 0
M  V30 441 C 41.6128 2.66575 -2.22609 0
M  V30 442 C 40.5668 2.62087 -3.3837 0
M  V30 443 C 39.8928 4.01369 -3.53281 0
M  V30 444 C 41.1928 2.19171 -4.7409 0
M  V30 445 H 42.8868 0.998556 -2.82257 0
M  V30 446 H 40.4328 0.47891 -1.35803 0
M  V30 447 H 42.3858 3.41057 -2.47503 0
M  V30 448 H 41.1098 2.99432 -1.30414 0
M  V30 449 H 39.7688 1.90063 -3.13483 0
M  V30 450 H 39.4168 4.31489 -2.58508 0
M  V30 451 H 39.1168 3.99254 -4.31127 0
M  V30 452 H 40.6408 4.77552 -3.80495 0
M  V30 453 H 42.0548 2.83384 -4.98363 0
M  V30 454 H 40.4518 2.2817 -5.5503 0
M  V30 455 H 41.5218 1.14336 -4.71227 0
M  V30 456 N 42.8649 1.48995 0.513639 0
M  V30 457 C 44.1109 1.58076 1.27042 0
M  V30 458 C 44.4439 0.261026 1.92438 0
M  V30 459 O 43.7189 -0.734393 1.80103 0
M  V30 460 C 44.0019 2.73091 2.34719 0
M  V30 461 C 43.8549 4.14821 1.73907 0
M  V30 462 C 45.1739 2.83796 3.36375 0
M  V30 463 H 42.2929 0.575391 0.460536 0
M  V30 464 H 44.9349 1.81232 0.570516 0
M  V30 465 H 43.0849 2.53479 2.94416 0
M  V30 466 H 44.7569 4.45917 1.18135 0
M  V30 467 H 42.9999 4.21058 1.0437 0
M  V30 468 H 43.6709 4.91147 2.51949 0
M  V30 469 H 46.1469 3.01611 2.86653 0
M  V30 470 H 45.0229 3.65971 4.09093 0
M  V30 471 H 45.2839 1.92624 3.9793 0
M  V30 472 N 44.343 -0.763751 1.37857 0
M  V30 473 C 45.589 -1.52483 1.33704 0
M  V30 474 C 45.922 -1.94051 -0.0759612 0
M  V30 475 O 45.197 -1.64675 -1.03501 0
M  V30 476 C 45.48 -2.78441 2.28348 0
M  V30 477 C 45.333 -2.43075 3.78463 0
M  V30 478 C 46.652 -3.80415 2.21298 0
M  V30 479 H 43.771 -0.553169 0.487005 0
M  V30 480 H 46.413 -0.875562 1.68624 0
M  V30 481 H 44.563 -3.33842 1.987 0
M  V30 482 H 46.235 -1.93527 4.18742 0
M  V30 483 H 44.478 -1.75666 3.96641 0
M  V30 484 H 45.149 -3.33149 4.40132 0
M  V30 485 H 47.625 -3.34527 2.47449 0
M  V30 486 H 46.501 -4.66257 2.89647 0
M  V30 487 H 46.762 -4.25262 1.20849 0
M  V30 488 N 45.8211 -1.22559 -0.990812 0
M  V30 489 C 47.0691 -1.04933 -1.72724 0
M  V30 490 C 47.3901 0.416158 -1.90508 0
M  V30 491 O 46.6601 1.29918 -1.46622 0
M  V30 492 H 45.2401 -0.385296 -0.639965 0
M  V30 493 H 47.9021 -1.54105 -1.19322 0
M  V30 494 H 46.9981 -1.52886 -2.72089 0
M  V30 495 N 47.2992 1.18797 -1.03562 0
M  V30 496 C 48.2622 2.20464 -0.626769 0
M  V30 497 C 49.2622 1.57721 0.313173 0
M  V30 498 O 50.4522 1.73917 0.0992615 0
M  V30 499 C 47.5842 3.40802 0.0818498 0
M  V30 500 H 48.7772 2.58149 -1.5264 0
M  V30 501 H 46.3302 1.32593 -0.827578 0
M  V30 502 H 47.0652 3.08642 0.995518 0
M  V30 503 H 46.8502 3.8758 -0.593652 0
M  V30 504 H 48.3402 4.16092 0.354584 0
M  V30 505 N 48.7773 0.814389 1.34928 0
M  V30 506 C 50.0053 0.411136 2.02774 0
M  V30 507 C 50.4203 -0.980316 1.61354 0
M  V30 508 O 49.7773 -1.63299 0.814847 0
M  V30 509 C 49.8283 0.493865 3.58111 0
M  V30 510 O 49.5493 1.83047 3.98027 0
M  V30 511 C 51.0503 0.0844174 4.4322 0
M  V30 512 H 48.2703 0.166037 0.650133 0
M  V30 513 H 50.8143 1.10018 1.72384 0
M  V30 514 H 48.9693 -0.147006 3.87121 0
M  V30 515 H 49.3833 1.79872 4.92693 0
M  V30 516 H 50.8573 0.193404 5.51661 0
M  V30 517 H 51.3343 -0.97113 4.28329 0
M  V30 518 H 51.9403 0.69875 4.19521 0
M  V30 519 N 50.2554 -1.46986 0.568584 0
M  V30 520 C 51.5014 -2.02741 0.0488709 0
M  V30 521 C 51.8344 -1.44077 -1.30214 0
M  V30 522 O 51.1094 -0.600552 -1.84996 0
M  V30 523 C 51.3924 -3.60086 -0.032047 0
M  V30 524 C 51.2454 -4.29162 1.34686 0
M  V30 525 C 52.5644 -4.33838 -0.739798 0
M  V30 526 H 49.6834 -0.736749 0.0192338 0
M  V30 527 H 52.3254 -1.75289 0.733065 0
M  V30 528 H 50.4754 -3.83606 -0.61473 0
M  V30 529 H 52.1474 -4.16948 1.97362 0
M  V30 530 H 50.3904 -3.89073 1.91846 0
M  V30 531 H 51.0614 -5.37826 1.24285 0
M  V30 532 H 53.5374 -4.15378 -0.244939 0
M  V30 533 H 52.4134 -5.43537 -0.765406 0
M  V30 534 H 52.6744 -4.03875 -1.79827 0
M  V30 535 N 51.7335 -0.305618 -1.54608 0
M  V30 536 C 52.9795 0.302746 -2.00528 0
M  V30 537 C 53.3125 1.53184 -1.19367 0
M  V30 538 O 52.5875 1.92598 -0.271321 0
M  V30 539 C 52.8705 0.654756 -3.54097 0
M  V30 540 C 52.7235 -0.583793 -4.45995 0
M  V30 541 C 54.0425 1.47947 -4.14487 0
M  V30 542 H 51.1615 0.108564 -0.72896 0
M  V30 543 H 53.8035 -0.418634 -1.85331 0
M  V30 544 H 51.9535 1.26935 -3.67178 0
M  V30 545 H 53.6255 -1.22224 -4.44814 0
M  V30 546 H 51.8685 -1.21615 -4.16404 0
M  V30 547 H 52.5395 -0.293287 -5.5122 0
M  V30 548 H 55.0155 0.96013 -4.04871 0
M  V30 549 H 53.8915 1.69454 -5.22088 0
M  V30 550 H 54.1525 2.47011 -3.66658 0
M  V30 551 N 53.2116 1.57565 -0.0334293 0
M  V30 552 C 54.1416 2.13511 0.945265 0
M  V30 553 C 55.1226 1.05231 1.33643 0
M  V30 554 O 56.3076 1.33084 1.41429 0
M  V30 555 C 53.4376 2.6657 2.22616 0
M  V30 556 C 52.3916 3.79676 1.97561 0
M  V30 557 C 51.7176 4.1918 3.31952 0
M  V30 558 C 53.0176 5.0557 1.31135 0
M  V30 559 H 54.7116 2.95538 0.479325 0
M  V30 560 H 52.2576 1.42166 0.229115 0
M  V30 561 H 54.2106 3.04344 2.91466 0
M  V30 562 H 52.9346 1.8171 2.71384 0
M  V30 563 H 51.5936 3.42347 1.31127 0
M  V30 564 H 51.2416 3.31296 3.78487 0
M  V30 565 H 50.9416 4.95402 3.15992 0
M  V30 566 H 52.4656 4.59541 4.02063 0
M  V30 567 H 53.8796 5.40903 1.89992 0
M  V30 568 H 52.2766 5.86818 1.25559 0
M  V30 569 H 53.3466 4.84062 0.284894 0
M  V30 570 N 54.6897 -0.239769 1.55765 0
M  V30 571 C 56.1007 -0.808263 1.68297 0
M  V30 572 C 56.4517 -1.85736 0.632181 0
M  V30 573 O 55.5767 -2.15277 -0.220204 0
M  V30 574 C 56.1717 -1.47284 3.05111 0
M  V30 575 C 54.7307 -1.98895 3.19559 0
M  V30 576 C 53.8777 -0.842575 2.64189 0
M  V30 577 H 56.8287 -0.0154422 1.58692 0
M  V30 578 H 56.8497 -2.34111 2.99954 0
M  V30 579 H 56.3617 -0.709053 3.81568 0
M  V30 580 H 54.4627 -2.78132 2.47938 0
M  V30 581 H 54.5757 -2.18143 4.26556 0
M  V30 582 H 52.9397 -1.24501 2.22197 0
M  V30 583 H 53.7227 -0.0917552 3.43177 0
M  V30 584 N 56.1678 -1.49265 -0.50573 0
M  V30 585 C 57.1308 -1.65075 -1.59006 0
M  V30 586 C 58.1308 -0.522768 -1.52065 0
M  V30 587 O 59.3208 -0.789117 -1.55302 0
M  V30 588 C 56.4528 -1.64369 -2.98656 0
M  V30 589 H 57.6458 -2.61784 -1.46319 0
M  V30 590 H 55.1988 -1.38226 -0.729616 0
M  V30 591 H 55.9338 -0.692272 -3.16825 0
M  V30 592 H 55.7188 -2.46282 -3.05103 0
M  V30 593 H 57.2088 -1.78674 -3.77446 0
M  V30 594 N 57.6459 0.756429 -1.3826 0
M  V30 595 C 58.5779 1.87971 -1.31147 0
M  V30 596 C 59.5909 1.61248 -0.224239 0
M  V30 597 O 60.7799 1.71881 -0.481581 0
M  V30 598 C 57.8799 3.23545 -1.00857 0
M  V30 599 C 57.0529 3.77794 -2.20432 0
M  V30 600 C 56.1119 4.91877 -1.86931 0
M  V30 601 O 55.1379 5.06659 -2.59395 0
M  V30 602 N 56.3399 5.74643 -0.822568 0
M  V30 603 H 59.1049 1.94585 -2.2794 0
M  V30 604 H 56.6659 0.936234 -1.32084 0
M  V30 605 H 58.6579 3.97403 -0.765021 0
M  V30 606 H 57.2279 3.12335 -0.128687 0
M  V30 607 H 56.4479 2.95534 -2.6087 0
M  V30 608 H 57.7359 4.10771 -3.00241 0
M  V30 609 H 57.1339 5.65266 -0.221575 0
M  V30 610 H 55.6909 6.48661 -0.638899 0
M  V30 611 N 59.124 1.23083 0.984299 0
M  V30 612 C 60.087 1.00979 2.05757 0
M  V30 613 C 61.087 -0.0269573 1.60777 0
M  V30 614 O 62.277 0.212403 1.729 0
M  V30 615 C 59.409 0.527072 3.36801 0
M  V30 616 H 60.602 1.9622 2.26799 0
M  V30 617 H 58.155 1.05072 1.15714 0
M  V30 618 H 58.89 -0.429294 3.21446 0
M  V30 619 H 58.675 1.27515 3.70786 0
M  V30 620 H 60.165 0.392942 4.15747 0
M  V30 621 N 60.6021 -1.18246 1.0419 0
M  V30 622 C 61.5651 -2.20128 0.638452 0
M  V30 623 C 62.5651 -1.57885 -0.304805 0
M  V30 624 O 63.7551 -1.73967 -0.0900369 0
M  V30 625 C 60.8871 -3.4084 -0.0637751 0
M  V30 626 H 62.0801 -2.57336 1.54007 0
M  V30 627 H 59.6331 -1.32152 0.834598 0
M  V30 628 H 60.3681 -3.09166 -0.979136 0
M  V30 629 H 60.1531 -3.8726 0.614198 0
M  V30 630 H 61.6431 -4.16274 -0.332512 0
M  V30 631 N 62.0802 -0.821533 -1.34494 0
M  V30 632 C 63.3082 -0.421884 -2.02553 0
M  V30 633 C 63.7232 0.971745 -1.61872 0
M  V30 634 O 63.0802 1.62864 -0.823496 0
M  V30 635 C 63.1312 -0.51285 -3.57844 0
M  V30 636 O 62.8522 -1.85155 -3.97051 0
M  V30 637 C 64.3532 -0.107921 -4.43169 0
M  V30 638 H 61.5732 -0.169482 -0.649243 0
M  V30 639 H 64.1172 -1.1093 -1.71798 0
M  V30 640 H 62.2722 0.126474 -3.87193 0
M  V30 641 H 62.6862 -1.82482 -4.91732 0
M  V30 642 H 64.1602 -0.222657 -5.51551 0
M  V30 643 H 64.6372 0.948401 -4.28838 0
M  V30 644 H 65.2432 -0.720989 -4.19144 0
M  V30 645 N 63.5583 1.46682 -0.576371 0
M  V30 646 C 64.7863 2.06798 -0.0649635 0
M  V30 647 C 65.2013 1.42612 1.23723 0
M  V30 648 O 64.5583 0.529203 1.74659 0
M  V30 649 C 64.6093 3.6132 0.114202 0
M  V30 650 O 64.3303 4.23104 -1.13644 0
M  V30 651 C 65.8313 4.38349 0.66069 0
M  V30 652 H 63.0513 0.668778 -0.0545616 0
M  V30 653 H 65.5953 1.88404 -0.795237 0
M  V30 654 H 63.7503 3.79162 0.794673 0
M  V30 655 H 64.1643 5.15894 -0.946253 0
M  V30 656 H 65.6383 5.47081 0.73526 0
M  V30 657 H 66.1153 4.05953 1.67627 0
M  V30 658 H 66.7213 4.25297 0.0152951 0
M  V30 659 N 65.0364 0.313813 1.54444 0
M  V30 660 C 65.9664 -0.549454 2.26943 0
M  V30 661 C 66.9474 -1.12741 1.27372 0
M  V30 662 O 68.1324 -1.15436 1.56167 0
M  V30 663 C 65.2624 -1.71523 3.01989 0
M  V30 664 C 64.2164 -1.26703 4.08816 0
M  V30 665 C 63.5424 -2.51898 4.71647 0
M  V30 666 C 64.8424 -0.388962 5.2085 0
M  V30 667 H 66.5364 0.0552661 2.99349 0
M  V30 668 H 64.0824 0.0280207 1.43973 0
M  V30 669 H 66.0354 -2.32535 3.51433 0
M  V30 670 H 64.7594 -2.34639 2.27183 0
M  V30 671 H 63.4184 -0.679896 3.6024 0
M  V30 672 H 63.0664 -3.13356 3.93468 0
M  V30 673 H 62.7664 -2.22605 5.43802 0
M  V30 674 H 64.2904 -3.1369 5.23861 0
M  V30 675 H 65.7044 -0.905107 5.6611 0
M  V30 676 H 64.1014 -0.18924 5.99802 0
M  V30 677 H 65.1714 0.582699 4.81386 0
M  V30 678 N 66.5145 -1.57545 0.0417849 0
M  V30 679 C 67.4615 -2.10977 -0.935805 0
M  V30 680 C 68.4315 -1.01486 -1.31491 0
M  V30 681 O 69.6165 -1.2898 -1.40602 0
M  V30 682 C 66.7565 -2.65169 -2.2086 0
M  V30 683 C 65.8695 -3.88714 -1.88482 0
M  V30 684 C 65.0045 -4.31254 -3.1015 0
M  V30 685 C 64.0435 -5.47524 -2.7365 0
M  V30 686 N 63.1805 -5.85162 -3.87982 0
M  V30 687 H 68.0205 -2.94218 -0.473249 0
M  V30 688 H 65.5575 -1.45415 -0.221981 0
M  V30 689 H 67.5155 -2.94685 -2.95325 0
M  V30 690 H 66.1455 -1.8474 -2.64709 0
M  V30 691 H 65.1975 -3.65849 -1.04205 0
M  V30 692 H 66.5095 -4.73245 -1.57608 0
M  V30 693 H 65.6635 -4.62273 -3.92923 0
M  V30 694 H 64.4025 -3.45516 -3.44195 0
M  V30 695 H 63.4075 -5.16187 -1.89291 0
M  V30 696 H 64.6325 -6.34971 -2.40807 0
M  V30 697 H 62.5785 -5.02377 -4.21846 0
M  V30 698 H 62.4955 -6.64362 -3.60775 0
M  V30 699 H 63.7635 -6.20791 -4.71422 0
M  V30 700 N 67.9926 0.231505 -1.5589 0
M  V30 701 C 68.9026 1.308 -1.94752 0
M  V30 702 C 69.9186 1.51826 -0.849989 0
M  V30 703 O 71.0946 1.6515 -1.15271 0
M  V30 704 C 68.1596 2.63968 -2.24771 0
M  V30 705 C 67.2206 2.51331 -3.48039 0
M  V30 706 C 66.4536 3.78148 -3.76616 0
M  V30 707 O 66.6766 4.80722 -3.07022 0
M  V30 708 O 65.6106 3.75857 -4.70123 0
M  V30 709 H 69.4366 1.0083 -2.86474 0
M  V30 710 H 67.0216 0.433547 -1.42971 0
M  V30 711 H 68.9036 3.42633 -2.45318 0
M  V30 712 H 67.5786 2.9364 -1.36225 0
M  V30 713 H 66.4856 1.709 -3.32782 0
M  V30 714 H 67.8186 2.26601 -4.36936 0
M  V30 715 N 69.4707 1.49531 0.497807 0
M  V30 716 C 70.4337 1.65916 1.58128 0
M  V30 717 C 71.4337 0.530825 1.51786 0
M  V30 718 O 72.6237 0.797342 1.54881 0
M  V30 719 C 69.7557 1.65951 2.9778 0
M  V30 720 H 70.9487 2.62556 1.44929 0
M  V30 721 H 68.5017 1.38611 0.722275 0
M  V30 722 H 69.2367 0.709065 3.16453 0
M  V30 723 H 69.0217 2.47897 3.03792 0
M  V30 724 H 70.5117 1.80673 3.76493 0
M  V30 725 N 70.9488 -0.749086 1.3866 0
M  V30 726 C 71.9118 -1.84457 1.36045 0
M  V30 727 C 72.9118 -1.58682 0.260122 0
M  V30 728 O 74.1018 -1.66343 0.517261 0
M  V30 729 C 71.2338 -3.22008 1.11911 0
M  V30 730 H 72.4268 -1.88182 2.33512 0
M  V30 731 H 69.9798 -0.951266 1.24019 0
M  V30 732 H 70.7148 -3.2395 0.150686 0
M  V30 733 H 70.4998 -3.42111 1.91579 0
M  V30 734 H 71.9898 -4.0208 1.12788 0
M  V30 735 N 72.4269 -1.23603 -0.977757 0
M  V30 736 C 73.7039 -0.977897 -1.69401 0
M  V30 737 C 74.0839 0.502738 -2.05026 0
M  V30 738 O 73.4319 1.47459 -1.74551 0
M  V30 739 C 73.6419 -1.89077 -2.93345 0
M  V30 740 C 74.9899 -2.15579 -3.65802 0
M  V30 741 O 76.0139 -1.86648 -3.03383 0
M  V30 742 O 74.8729 -2.64658 -4.78141 0
M  V30 743 H 71.9669 -0.369025 -0.740101 0
M  V30 744 H 74.5129 -1.34657 -1.03274 0
M  V30 745 H 73.2849 -2.89158 -2.63634 0
M  V30 746 H 72.9079 -1.52463 -3.67207 0
M  V30 747 N 73.905 1.17692 -1.04816 0
M  V30 748 C 75.153 1.87488 -0.754497 0
M  V30 749 C 75.474 1.81205 0.720407 0
M  V30 750 O 74.744 1.23544 1.52032 0
M  V30 751 H 73.324 0.694101 -0.276102 0
M  V30 752 H 75.986 1.42793 -1.32651 0
M  V30 753 H 75.082 2.93328 -1.06606 0
M  V30 754 N 75.3831 0.828654 1.34056 0
M  V30 755 C 76.3461 0.259927 2.27721 0
M  V30 756 C 77.3461 -0.565478 1.50529 0
M  V30 757 O 78.5361 -0.38075 1.69988 0
M  V30 758 C 75.6681 -0.634944 3.34935 0
M  V30 759 H 76.8611 1.0863 2.79534 0
M  V30 760 H 74.4141 0.600951 1.44285 0
M  V30 761 H 75.1491 -1.48416 2.88346 0
M  V30 762 H 74.9341 -0.0444999 3.92075 0
M  V30 763 H 76.4241 -1.02648 4.04788 0
M  V30 764 N 76.8612 -1.46375 0.584142 0
M  V30 765 C 78.1092 -2.01978 0.0701287 0
M  V30 766 C 78.4302 -1.4579 -1.295 0
M  V30 767 O 77.7002 -0.64314 -1.85042 0
M  V30 768 H 76.2802 -0.746648 0.0229345 0
M  V30 769 H 78.9422 -1.79461 0.760245 0
M  V30 770 H 78.0382 -3.121 0.0022064 0
M  V30 771 N 78.3393 -0.321999 -1.54275 0
M  V30 772 C 79.7553 0.0306999 -1.5957 0
M  V30 773 C 79.9553 1.50614 -1.33857 0
M  V30 774 O 79.0113 2.2619 -1.12223 0
M  V30 775 C 80.3243 -0.386122 -2.98211 0
M  V30 776 C 81.8723 -0.336647 -3.11184 0
M  V30 777 C 82.3473 -0.728607 -4.52167 0
M  V30 778 N 83.8383 -0.681952 -4.58152 0
M  V30 779 C 84.5733 -0.957449 -5.6535 0
M  V30 780 N 84.0693 -1.3 -6.80494 0
M  V30 781 N 85.8623 -0.883113 -5.55119 0
M  V30 782 H 78.0133 -1.28332 -1.69247 0
M  V30 783 H 80.2763 -0.521716 -0.791528 0
M  V30 784 H 79.9823 -1.41404 -3.22022 0
M  V30 785 H 79.8563 0.249662 -3.76373 0
M  V30 786 H 82.2433 0.682058 -2.8711 0
M  V30 787 H 82.3243 -1.00734 -2.3513 0
M  V30 788 H 81.9683 -1.74522 -4.76974 0
M  V30 789 H 81.8983 -0.0356152 -5.26588 0
M  V30 790 H 84.3893 -0.428985 -3.75457 0
M  V30 791 H 84.7023 -1.49563 -7.58189 0
M  V30 792 H 83.0473 -1.33824 -6.81994 0
M  V30 793 H 86.2383 -0.615001 -4.64042 0
M  V30 794 H 86.4113 -1.10118 -6.38575 0
M  V30 795 N 79.8174 1.5752 -0.0501392 0
M  V30 796 C 81.0944 1.83996 0.663685 0
M  V30 797 C 81.4744 0.938339 1.89099 0
M  V30 798 O 80.8224 -0.00087759 2.285 0
M  V30 799 C 81.0324 3.33702 1.02196 0
M  V30 800 C 82.3804 4.00691 1.40469 0
M  V30 801 O 83.4044 3.38321 1.11433 0
M  V30 802 O 82.2634 5.10658 1.94654 0
M  V30 803 H 79.3574 0.759385 0.32751 0
M  V30 804 H 81.9034 1.69514 -0.0794238 0
M  V30 805 H 80.6754 3.91015 0.149364 0
M  V30 806 H 80.2984 3.53368 1.82255 0
M  V30 807 N 81.2955 -0.223234 1.56011 0
M  V30 808 C 82.5425 -0.947875 1.78946 0
M  V30 809 C 82.8705 -1.844 0.618608 0
M  V30 810 O 82.1255 -1.91629 -0.397093 0
M  V30 811 C 82.4245 -1.81948 3.0762 0
M  V30 812 C 82.0905 -1.07672 4.37856 0
M  V30 813 C 80.7525 -0.871544 4.73242 0
M  V30 814 C 83.1045 -0.552081 5.18268 0
M  V30 815 C 80.4325 -0.129791 5.86556 0
M  V30 816 C 82.7845 0.17632 6.32354 0
M  V30 817 C 81.4485 0.39277 6.66343 0
M  V30 818 H 80.7185 -0.346852 0.654809 0
M  V30 819 H 83.3655 -0.216171 1.90276 0
M  V30 820 H 81.6705 -2.61899 2.91404 0
M  V30 821 H 83.3675 -2.38227 3.22566 0
M  V30 822 H 79.9575 -1.24662 4.1007 0
M  V30 823 H 84.1415 -0.698076 4.91366 0
M  V30 824 H 79.3975 0.048153 6.11381 0
M  V30 825 H 83.5715 0.590367 6.93893 0
M  V30 826 H 81.1985 0.969466 7.53993 0
M  V30 827 N 82.7736 -1.49793 -0.48987 0
M  V30 828 C 84.0216 -1.59525 -1.24081 0
M  V30 829 C 84.3426 -0.288953 -1.92847 0
M  V30 830 O 83.6126 0.692436 -1.83254 0
M  V30 831 H 82.1926 -0.587796 -0.460983 0
M  V30 832 H 84.8546 -1.86477 -0.566778 0
M  V30 833 H 83.9506 -2.39696 -1.99881 0
M  V30 834 N 84.2517 0.741722 -1.39055 0
M  V30 835 C 85.4987 1.50114 -1.35912 0
M  V30 836 C 85.8267 1.94443 0.0470937 0
M  V30 837 O 85.0817 1.66612 1.02659 0
M  V30 838 C 85.3807 2.7592 -2.27163 0
M  V30 839 C 85.0467 2.50493 -3.74919 0
M  V30 840 C 83.7087 2.43267 -4.1518 0
M  V30 841 C 86.0607 2.28585 -4.684 0
M  V30 842 C 83.3887 2.12166 -5.46994 0
M  V30 843 C 85.7407 1.99002 -6.00484 0
M  V30 844 C 84.4047 1.90241 -6.39816 0
M  V30 845 H 83.6747 0.549306 -0.497336 0
M  V30 846 H 86.3217 0.851896 -1.71508 0
M  V30 847 H 84.6267 3.45553 -1.84663 0
M  V30 848 H 86.3237 3.33923 -2.22028 0
M  V30 849 H 82.9137 2.56992 -3.43006 0
M  V30 850 H 87.0977 2.33139 -4.38132 0
M  V30 851 H 82.3537 2.03901 -5.76398 0
M  V30 852 H 86.5277 1.81057 -6.72452 0
M  V30 853 H 84.1547 1.65907 -7.41875 0
M  V30 854 N 85.7298 1.2412 0.971189 0
M  V30 855 C 86.6928 1.03156 2.04674 0
M  V30 856 C 87.6928 -0.00990322 1.60797 0
M  V30 857 O 88.8828 0.230729 1.72665 0
M  V30 858 C 86.0148 0.562765 3.36223 0
M  V30 859 H 87.2078 1.98614 2.24705 0
M  V30 860 H 84.7608 1.06293 1.14593 0
M  V30 861 H 85.4958 -0.395176 3.21883 0
M  V30 862 H 85.2808 1.31441 3.69413 0
M  V30 863 H 86.7708 0.437015 4.15307 0
M  V30 864 N 87.2079 -1.17134 1.05439 0
M  V30 865 C 88.1379 -2.2342 0.678649 0
M  V30 866 C 89.1189 -1.66971 -0.32476 0
M  V30 867 O 90.3039 -1.93149 -0.201802 0
M  V30 868 C 87.4339 -3.47256 0.0552099 0
M  V30 869 C 86.3879 -4.16543 0.98365 0
M  V30 870 C 85.7139 -5.34231 0.223961 0
M  V30 871 C 87.0139 -4.68495 2.3089 0
M  V30 872 H 88.7079 -2.55105 1.56722 0
M  V30 873 H 86.2539 -1.2262 0.754998 0
M  V30 874 H 88.2069 -4.20828 -0.21946 0
M  V30 875 H 86.9309 -3.14846 -0.868319 0
M  V30 876 H 85.5899 -3.44887 1.24293 0
M  V30 877 H 85.2379 -4.98071 -0.702412 0
M  V30 878 H 84.9379 -5.81527 0.842627 0
M  V30 879 H 86.4619 -6.10585 -0.0433671 0
M  V30 880 H 87.8759 -5.33691 2.09396 0
M  V30 881 H 86.2729 -5.26379 2.88176 0
M  V30 882 H 87.3429 -3.85169 2.94572 0
M  V30 883 N 88.686 -0.835752 -1.33615 0
M  V30 884 C 89.963 -0.352017 -1.92406 0
M  V30 885 C 90.343 1.16225 -1.76224 0
M  V30 886 O 89.691 1.97526 -1.14873 0
M  V30 887 C 89.901 -0.795485 -3.39813 0
M  V30 888 C 91.249 -0.801703 -4.16963 0
M  V30 889 O 92.273 -0.738889 -3.48452 0
M  V30 890 O 91.132 -0.886607 -5.3926 0
M  V30 891 H 88.226 -0.0989641 -0.821057 0
M  V30 892 H 90.772 -0.921397 -1.42507 0
M  V30 893 H 89.544 -1.83795 -3.45449 0
M  V30 894 H 89.167 -0.202505 -3.97084 0
M  V30 895 N 90.1641 1.46063 -0.591896 0
M  V30 896 C 91.5751 1.85944 -0.167822 0
M  V30 897 C 91.9261 1.49429 1.27143 0
M  V30 898 O 91.0511 0.913515 1.96173 0
M  V30 899 C 91.6461 3.37489 -0.297794 0
M  V30 900 C 90.2051 3.76332 0.0714732 0
M  V30 901 C 89.3521 2.7006 -0.629509 0
M  V30 902 H 92.3031 1.37087 -0.799555 0
M  V30 903 H 92.3241 3.77532 0.474349 0
M  V30 904 H 91.8361 3.64034 -1.3454 0
M  V30 905 H 89.9371 3.55405 1.11886 0
M  V30 906 H 90.0501 4.78088 -0.311245 0
M  V30 907 H 88.4141 2.54607 -0.0687867 0
M  V30 908 H 89.1971 2.99444 -1.67894 0
M  V30 909 N 91.6422 0.330177 1.54103 0
M  V30 910 C 92.5902 -0.548226 2.26047 0
M  V30 911 C 93.5842 -1.11309 1.27698 0
M  V30 912 O 94.7902 -1.06036 1.45452 0
M  V30 913 H 91.1652 -0.195456 0.726155 0
M  V30 914 H 93.1362 0.0807567 2.98291 0
M  V30 915 C 91.8852 -1.69415 3.03634 0
M  V30 916 H 91.2082 -1.26876 3.79134 0
M  V30 917 H 92.6482 -2.28423 3.5721 0
M  V30 918 C 91.1072 -2.61569 2.12328 0
M  V30 919 O 91.6372 -3.63462 1.7105 0
M  V30 920 N 89.8432 -2.29952 1.77681 0
M  V30 921 H 89.3902 -1.47134 2.11446 0
M  V30 922 H 89.3482 -2.91871 1.16869 0
M  V30 923 N 93.1203 -1.57491 0.0584922 0
M  V30 924 C 94.5363 -1.56792 -0.298091 0
M  V30 925 C 94.7363 -1.06679 -1.70944 0
M  V30 926 O 93.7923 -0.726672 -2.41818 0
M  V30 927 C 95.1053 -3.00461 -0.119879 0
M  V30 928 C 96.6533 -3.1242 -0.190428 0
M  V30 929 C 97.1283 -4.57982 -0.0406567 0
M  V30 930 N 98.6193 -4.63099 -0.0966958 0
M  V30 931 C 99.3543 -5.734 -0.00502943 0
M  V30 932 N 98.8503 -6.9266 0.139402 0
M  V30 933 N 100.643 -5.62067 -0.0611391 0
M  V30 934 H 92.7943 -1.88386 0.98105 0
M  V30 935 H 95.0573 -0.867865 0.381463 0
M  V30 936 H 94.7633 -3.41187 0.85349 0
M  V30 937 H 94.6373 -3.66843 -0.877833 0
M  V30 938 H 97.0243 -2.71589 -1.15427 0
M  V30 939 H 97.1053 -2.48702 0.598405 0
M  V30 940 H 96.7493 -4.995 0.919897 0
M  V30 941 H 96.6793 -5.19715 -0.848727 0
M  V30 942 H 99.1703 -3.77331 -0.207277 0
M  V30 943 H 99.4833 -7.72536 0.201855 0
M  V30 944 H 97.8283 -6.94781 0.174586 0
M  V30 945 H 101.019 -4.67782 -0.172583 0
M  V30 946 H 101.192 -6.47999 0.0137562 0
M  V30 947 N 94.5984 0.214957 -1.56127 0
M  V30 948 C 95.5284 1.2695 -1.95974 0
M  V30 949 C 96.5094 1.48539 -0.828868 0
M  V30 950 O 97.6944 1.60611 -1.09168 0
M  V30 951 C 94.8244 2.61794 -2.28214 0
M  V30 952 C 93.7784 2.54851 -3.43853 0
M  V30 953 C 93.1044 3.93785 -3.61715 0
M  V30 954 C 94.4044 2.09065 -4.78632 0
M  V30 955 H 96.0984 0.93846 -2.84312 0
M  V30 956 H 93.6444 0.449996 -1.36788 0
M  V30 957 H 95.5974 3.35731 -2.54682 0
M  V30 958 H 94.3214 2.96599 -1.36736 0
M  V30 959 H 92.9804 1.8337 -3.17444 0
M  V30 960 H 92.6284 4.25908 -2.67602 0
M  V30 961 H 92.3284 3.90019 -4.39498 0
M  V30 962 H 93.8524 4.69374 -3.90539 0
M  V30 963 H 95.2664 2.7275 -5.04262 0
M  V30 964 H 93.6634 2.16346 -5.59745 0
M  V30 965 H 94.7334 1.04315 -4.73547 0
M  V30 966 N 96.0765 1.50051 0.48192 0
M  V30 967 C 97.3015 1.64508 1.26301 0
M  V30 968 C 97.7265 0.323851 1.85291 0
M  V30 969 O 97.0845 -0.710969 1.66778 0
M  V30 970 C 97.1325 2.7305 2.35533 0
M  V30 971 O 96.2365 2.3355 3.39895 0
M  V30 972 H 95.5775 0.549978 0.372048 0
M  V30 973 H 98.1075 1.9636 0.574786 0
M  V30 974 H 98.1175 2.95799 2.8101 0
M  V30 975 H 96.7925 3.68946 1.91967 0
M  V30 976 H 95.3695 2.21205 3.00204 0
M  V30 977 N 97.5546 -0.734337 1.39446 0
M  V30 978 C 98.4646 -1.87879 1.40495 0
M  V30 979 C 99.4806 -1.714 0.299672 0
M  V30 980 O 100.657 -1.93991 0.541249 0
M  V30 981 C 97.7216 -3.23477 1.24754 0
M  V30 982 C 96.7826 -3.52344 2.45259 0
M  V30 983 C 96.0156 -4.81473 2.30259 0
M  V30 984 O 96.2386 -5.55237 1.30643 0
M  V30 985 O 95.1726 -5.10254 3.19256 0
M  V30 986 H 98.9986 -1.89949 2.36966 0
M  V30 987 H 96.5836 -0.882243 1.20569 0
M  V30 988 H 98.4656 -4.04509 1.18111 0
M  V30 989 H 97.1406 -3.22176 0.313781 0
M  V30 990 H 96.0476 -2.71396 2.57478 0
M  V30 991 H 97.3806 -3.58426 3.37331 0
M  V30 992 N 99.0327 -1.24633 -0.964593 0
M  V30 993 C 99.9957 -1.0424 -2.04124 0
M  V30 994 C 100.996 0.00137563 -1.608 0
M  V30 995 O 102.186 -0.239883 -1.7254 0
M  V30 996 C 99.3177 -0.580588 -3.3592 0
M  V30 997 H 100.511 -1.99803 -2.23649 0
M  V30 998 H 98.0637 -1.06899 -1.14027 0
M  V30 999 H 98.7987 0.3781 -3.22088 0
M  V30 1000 H 98.5837 -1.33398 -3.6871 0
M  V30 1001 H 100.074 -0.459034 -4.15069 0
M  V30 1002 N 100.511 1.16574 -1.06058 0
M  V30 1003 C 101.443 2.2045 -0.627239 0
M  V30 1004 C 102.456 1.59752 0.313534 0
M  V30 1005 O 103.645 1.78192 0.104896 0
M  V30 1006 C 100.745 3.3875 0.100974 0
M  V30 1007 C 99.9178 4.29008 -0.852687 0
M  V30 1008 C 98.9768 5.25944 -0.164152 0
M  V30 1009 O 98.0028 5.63535 -0.801047 0
M  V30 1010 N 99.2048 5.70075 1.09518 0
M  V30 1011 H 101.97 2.58249 -1.52077 0
M  V30 1012 H 99.5308 1.3156 -0.943594 0
M  V30 1013 H 101.523 4.00638 0.57194 0
M  V30 1014 H 100.093 2.99476 0.89628 0
M  V30 1015 H 99.3128 3.64419 -1.50308 0
M  V30 1016 H 100.601 4.86195 -1.49972 0
M  V30 1017 H 99.9988 5.41624 1.6328 0
M  V30 1018 H 98.5558 6.34067 1.51006 0
M  V30 1019 N 101.989 0.842826 1.3317 0
M  V30 1020 C 103.219 0.453397 2.01564 0
M  V30 1021 C 103.627 -0.951147 1.63554 0
M  V30 1022 O 102.97 -1.63021 0.846746 0
M  V30 1023 C 103.032 0.499013 3.5602 0
M  V30 1024 C 102.696 1.86037 4.1742 0
M  V30 1025 C 103.693 2.82416 4.36506 0
M  V30 1026 C 101.378 2.15428 4.53757 0
M  V30 1027 C 103.372 4.06346 4.91082 0
M  V30 1028 C 101.059 3.39615 5.0804 0
M  V30 1029 C 102.057 4.3489 5.26649 0
M  V30 1030 O 101.745 5.5688 5.79776 0
M  V30 1031 H 101.477 0.177871 0.652179 0
M  V30 1032 H 104.031 1.13808 1.70988 0
M  V30 1033 H 102.261 -0.242467 3.85939 0
M  V30 1034 H 103.95 0.126852 4.05702 0
M  V30 1035 H 104.716 2.6101 4.08777 0
M  V30 1036 H 100.595 1.42061 4.38565 0
M  V30 1037 H 104.139 4.80722 5.05522 0
M  V30 1038 H 100.036 3.60876 5.352 0
M  V30 1039 H 100.804 5.58674 5.98185 0
M  V30 1040 N 103.467 -1.45747 0.599634 0
M  V30 1041 C 104.414 -2.30467 -0.123849 0
M  V30 1042 C 105.384 -1.41632 -0.86774 0
M  V30 1043 O 106.569 -1.70568 -0.855056 0
M  V30 1044 C 103.709 -3.26402 -1.12051 0
M  V30 1045 C 102.822 -4.3034 -0.37832 0
M  V30 1046 C 101.957 -5.13389 -1.364 0
M  V30 1047 C 100.996 -6.09061 -0.609171 0
M  V30 1048 N 100.133 -6.84918 -1.54374 0
M  V30 1049 H 104.973 -2.91802 0.604627 0
M  V30 1050 H 102.51 -1.43797 0.309972 0
M  V30 1051 H 104.468 -3.80482 -1.7114 0
M  V30 1052 H 103.098 -2.66839 -1.8165 0
M  V30 1053 H 102.15 -3.78984 0.327929 0
M  V30 1054 H 103.462 -4.98354 0.210997 0
M  V30 1055 H 102.616 -5.7183 -2.02719 0
M  V30 1056 H 101.355 -4.45376 -1.98725 0
M  V30 1057 H 100.36 -5.49758 0.0676979 0
M  V30 1058 H 101.585 -6.79099 0.00891991 0
M  V30 1059 H 99.531 -6.19601 -2.15478 0
M  V30 1060 H 99.448 -7.49254 -1.00766 0
M  V30 1061 H 100.716 -7.47906 -2.19676 0
M  V30 1062 N 104.945 -0.338344 -1.53925 0
M  V30 1063 C 105.908 0.508299 -2.23493 0
M  V30 1064 C 106.908 1.03175 -1.23335 0
M  V30 1065 O 108.098 0.921826 -1.47811 0
M  V30 1066 C 105.23 1.70754 -2.95052 0
M  V30 1067 H 106.423 -0.100058 -2.99733 0
M  V30 1068 H 103.976 -0.0896198 -1.56043 0
M  V30 1069 H 104.711 2.35474 -2.22986 0
M  V30 1070 H 104.496 1.33946 -3.68512 0
M  V30 1071 H 105.986 2.30818 -3.48013 0
M  V30 1072 N 106.423 1.57458 -0.0668435 0
M  V30 1073 C 107.672 1.92477 0.602947 0
M  V30 1074 C 107.985 0.948419 1.71068 0
M  V30 1075 O 109.191 1.19124 2.43971 0
M  V30 1076 C 107.647 3.41903 1.12383 0
M  V30 1077 C 107.255 4.47975 0.04737 0
M  V30 1078 C 108.999 3.85931 1.76797 0
M  V30 1079 C 106.906 5.88529 0.582022 0
M  V30 1080 H 105.836 0.718387 0.22899 0
M  V30 1081 H 108.487 1.82978 -0.138276 0
M  V30 1082 H 106.869 3.46459 1.91787 0
M  V30 1083 H 108.043 4.55029 -0.726978 0
M  V30 1084 H 106.358 4.13384 -0.500243 0
M  V30 1085 H 108.955 4.88322 2.17821 0
M  V30 1086 H 109.298 3.23029 2.62599 0
M  V30 1087 H 109.831 3.83958 1.04024 0
M  V30 1088 H 106.57 6.55065 -0.238721 0
M  V30 1089 H 106.09 5.85004 1.324 0
M  V30 1090 H 107.769 6.38258 1.05999 0
M  V30 1091 N 107.901 -0.206675 1.56239 0
M  V30 1092 C 108.864 -1.23976 1.92776 0
M  V30 1093 C 109.864 -1.39041 0.807729 0
M  V30 1094 O 111.054 -1.37051 1.0753 0
M  V30 1095 C 108.186 -2.61112 2.19165 0
M  V30 1096 H 109.379 -0.927764 2.85189 0
M  V30 1097 H 106.932 -0.447718 1.4975 0
M  V30 1098 H 107.667 -2.97386 1.29352 0
M  V30 1099 H 107.452 -2.51552 3.00772 0
M  V30 1100 H 108.942 -3.35633 2.48476 0
M  V30 1101 N 109.379 -1.50304 -0.473955 0
M  V30 1102 C 110.656 -1.51667 -1.23518 0
M  V30 1103 C 111.036 -0.259701 -2.09496 0
M  V30 1104 O 110.384 0.756986 -2.15597 0
M  V30 1105 C 110.594 -2.81082 -2.06868 0
M  V30 1106 C 111.942 -3.31631 -2.65153 0
M  V30 1107 O 112.966 -2.82384 -2.17113 0
M  V30 1108 O 111.825 -4.17471 -3.52675 0
M  V30 1109 H 108.919 -0.60822 -0.560355 0
M  V30 1110 H 111.465 -1.62592 -0.486011 0
M  V30 1111 H 110.237 -3.64041 -1.4349 0
M  V30 1112 H 109.86 -2.73146 -2.88924 0
M  V30 1113 N 110.857 0.726932 -1.39834 0
M  V30 1114 C 112.082 1.52121 -1.40976 0
M  V30 1115 C 112.507 1.88098 -0.00826029 0
M  V30 1116 O 111.865 1.52479 0.980807 0
M  V30 1117 C 111.913 2.78021 -2.29644 0
M  V30 1118 O 111.017 3.74272 -1.73188 0
M  V30 1119 H 110.358 0.45908 -0.479731 0
M  V30 1120 H 112.888 0.896207 -1.83927 0
M  V30 1121 H 112.898 3.26671 -2.44438 0
M  V30 1122 H 111.573 2.51169 -3.31492 0
M  V30 1123 H 110.15 3.33073 -1.6768 0
M  V30 1124 N 112.336 1.25143 0.95797 0
M  V30 1125 C 113.246 1.06968 2.08794 0
M  V30 1126 C 114.262 0.00773911 1.73998 0
M  V30 1127 O 115.438 0.207972 2.00323 0
M  V30 1128 C 112.503 0.68691 3.39827 0
M  V30 1129 C 111.564 1.82641 3.88511 0
M  V30 1130 C 110.797 1.46181 5.1329 0
M  V30 1131 O 111.02 0.355971 5.69288 0
M  V30 1132 O 109.954 2.29085 5.566 0
M  V30 1133 H 113.78 2.01723 2.27027 0
M  V30 1134 H 111.365 1.04051 1.07209 0
M  V30 1135 H 113.247 0.485417 4.18595 0
M  V30 1136 H 111.922 -0.231417 3.22872 0
M  V30 1137 H 110.829 2.08274 3.10762 0
M  V30 1138 H 112.162 2.72386 4.09959 0
M  V30 1139 N 113.814 -1.1601 1.06675 0
M  V30 1140 C 115.061 -1.86633 0.785781 0
M  V30 1141 C 115.389 -1.81929 -0.687896 0
M  V30 1142 O 114.644 -1.23253 -1.52011 0
M  V30 1143 C 114.943 -3.35547 1.23057 0
M  V30 1144 C 114.609 -3.60448 2.70902 0
M  V30 1145 C 113.271 -3.66954 3.11285 0
M  V30 1146 C 115.623 -3.7071 3.66365 0
M  V30 1147 C 112.951 -3.81225 4.45965 0
M  V30 1148 C 115.303 -3.86503 5.00797 0
M  V30 1149 C 113.967 -3.91252 5.40813 0
M  V30 1150 H 113.237 -0.682937 0.287538 0
M  V30 1151 H 115.884 -1.37146 1.33654 0
M  V30 1152 H 114.189 -3.87193 0.59907 0
M  V30 1153 H 115.886 -3.88583 0.990163 0
M  V30 1154 H 112.476 -3.56021 2.38636 0
M  V30 1155 H 116.66 -3.64991 3.36296 0
M  V30 1156 H 111.916 -3.83155 4.76447 0
M  V30 1157 H 116.09 -3.93385 5.74649 0
M  V30 1158 H 113.717 -4.02062 6.45174 0
M  V30 1159 N 115.292 -0.849877 -1.32721 0
M  V30 1160 C 116.24 -0.279745 -2.30912 0
M  V30 1161 C 117.234 0.594278 -1.58634 0
M  V30 1162 O 118.44 0.482613 -1.73409 0
M  V30 1163 H 114.815 -0.0717521 -0.748569 0
M  V30 1164 H 116.786 -1.12222 -2.76494 0
M  V30 1165 C 115.535 0.521108 -3.43773 0
M  V30 1166 H 114.858 -0.142141 -3.99547 0
M  V30 1167 H 116.298 0.885693 -4.14646 0
M  V30 1168 C 114.757 1.70442 -2.90605 0
M  V30 1169 O 115.287 2.8034 -2.87702 0
M  V30 1170 N 113.493 1.52991 -2.47067 0
M  V30 1171 H 113.04 0.635914 -2.49628 0
M  V30 1172 H 112.998 2.32311 -2.11847 0
M  V30 1173 N 116.77 1.45427 -0.607355 0
M  V30 1174 C 117.7 2.3329 0.0989352 0
M  V30 1175 C 118.681 1.46816 0.859007 0
M  V30 1176 O 119.866 1.75588 0.829604 0
M  V30 1177 C 116.996 3.29518 1.09705 0
M  V30 1178 C 115.95 4.25626 0.450206 0
M  V30 1179 C 115.276 5.11542 1.55655 0
M  V30 1180 C 116.576 5.18505 -0.628455 0
M  V30 1181 H 118.27 2.92595 -0.634716 0
M  V30 1182 H 115.816 1.40696 -0.306681 0
M  V30 1183 H 117.769 3.89855 1.59971 0
M  V30 1184 H 116.493 2.68372 1.86129 0
M  V30 1185 H 115.152 3.66586 -0.0315886 0
M  V30 1186 H 114.8 4.46765 2.31107 0
M  V30 1187 H 114.5 5.76647 1.12925 0
M  V30 1188 H 116.024 5.74748 2.06148 0
M  V30 1189 H 117.438 5.72916 -0.209877 0
M  V30 1190 H 115.835 5.92085 -0.977489 0
M  V30 1191 H 116.905 4.60948 -1.50514 0
M  V30 1192 N 118.248 0.346503 1.53744 0
M  V30 1193 C 119.494 -0.249473 2.0126 0
M  V30 1194 C 119.827 -1.49965 1.23386 0
M  V30 1195 O 119.102 -1.91811 0.32229 0
M  V30 1196 C 119.385 -0.560643 3.55709 0
M  V30 1197 C 119.238 0.701836 4.44291 0
M  V30 1198 C 120.557 -1.36905 4.18264 0
M  V30 1199 H 117.676 -0.0891987 0.731582 0
M  V30 1200 H 120.318 0.467624 1.84156 0
M  V30 1201 H 118.468 -1.17156 3.70414 0
M  V30 1202 H 120.14 1.33974 4.41417 0
M  V30 1203 H 118.383 1.32612 4.13033 0
M  V30 1204 H 119.054 0.43933 5.50249 0
M  V30 1205 H 121.53 -0.852448 4.07275 0
M  V30 1206 H 120.406 -1.55553 5.26398 0
M  V30 1207 H 120.667 -2.37203 3.73078 0
M  V30 1208 N 119.726 -1.57421 0.075193 0
M  V30 1209 C 120.972 -1.93905 -0.594025 0
M  V30 1210 C 121.305 -0.955701 -1.69056 0
M  V30 1211 O 120.58 0.0145373 -1.94495 0
M  V30 1212 C 120.863 -3.40638 -1.1678 0
M  V30 1213 C 120.716 -4.49733 -0.0776792 0
M  V30 1214 C 122.035 -3.88259 -2.07228 0
M  V30 1215 H 119.154 -0.705105 -0.214466 0
M  V30 1216 H 121.796 -1.8947 0.141854 0
M  V30 1217 H 119.946 -3.44549 -1.79494 0
M  V30 1218 H 121.618 -4.57942 0.555573 0
M  V30 1219 H 119.861 -4.29751 0.591286 0
M  V30 1220 H 120.532 -5.49549 -0.519603 0
M  V30 1221 H 123.008 -3.86376 -1.54445 0
M  V30 1222 H 121.884 -4.91533 -2.44308 0
M  V30 1223 H 122.145 -3.26396 -2.98191 0
M  V30 1224 N 121.204 0.198386 -1.56346 0
M  V30 1225 C 122.167 1.22952 -1.93431 0
M  V30 1226 C 123.167 1.38611 -0.815092 0
M  V30 1227 O 124.357 1.36479 -1.08255 0
M  V30 1228 C 121.489 2.59946 -2.20546 0
M  V30 1229 H 122.682 0.912626 -2.85677 0
M  V30 1230 H 120.235 0.43977 -1.49986 0
M  V30 1231 H 120.97 2.96696 -1.30927 0
M  V30 1232 H 120.755 2.49953 -3.02102 0
M  V30 1233 H 122.245 3.3431 -2.50253 0
M  V30 1234 N 122.682 1.50554 0.465978 0
M  V30 1235 C 123.592 1.72585 1.58907 0
M  V30 1236 C 124.608 0.60911 1.6299 0
M  V30 1237 O 125.784 0.88804 1.80765 0
M  V30 1238 C 122.849 1.81995 2.95091 0
M  V30 1239 C 121.91 3.05751 3.01355 0
M  V30 1240 C 121.143 3.14702 4.31043 0
M  V30 1241 O 121.366 2.30313 5.21835 0
M  V30 1242 O 120.3 4.07468 4.43005 0
M  V30 1243 H 124.126 2.67799 1.43239 0
M  V30 1244 H 121.711 1.34711 0.646013 0
M  V30 1245 H 123.593 1.90335 3.75966 0
M  V30 1246 H 122.268 0.899659 3.10947 0
M  V30 1247 H 121.175 3.02908 2.19539 0
M  V30 1248 H 122.508 3.97375 2.90437 0
M  V30 1249 N 124.16 -0.719506 1.40217 0
M  V30 1250 C 125.108 -1.85493 1.40339 0
M  V30 1251 C 126.102 -1.66995 0.284415 0
M  V30 1252 O 127.308 -1.74148 0.455252 0
M  V30 1253 H 123.683 -0.610857 0.438586 0
M  V30 1254 H 125.654 -1.82506 2.36081 0
M  V30 1255 C 124.403 -3.23321 1.27901 0
M  V30 1256 H 123.726 -3.38159 2.1328 0
M  V30 1257 H 125.166 -4.02914 1.32045 0
M  V30 1258 C 123.625 -3.36898 -0.0111355 0
M  V30 1259 O 124.155 -3.89674 -0.975538 0
M  V30 1260 N 122.361 -2.90492 -0.0793393 0
M  V30 1261 H 121.908 -2.47731 0.706183 0
M  V30 1262 H 121.866 -2.99955 -0.942038 0
M  V30 1263 N 125.638 -1.25649 -0.95132 0
M  V30 1264 C 126.601 -1.06399 -2.03007 0
M  V30 1265 C 127.601 -0.0156794 -1.60792 0
M  V30 1266 O 128.791 -0.25817 -1.72276 0
M  V30 1267 C 125.923 -0.616184 -3.35285 0
M  V30 1268 H 127.116 -2.02164 -2.21517 0
M  V30 1269 H 124.669 -1.08103 -1.12887 0
M  V30 1270 H 125.404 0.343917 -3.22471 0
M  V30 1271 H 125.189 -1.37301 -3.67275 0
M  V30 1272 H 126.679 -0.503032 -4.14559 0
M  V30 1273 N 127.117 1.15442 -1.07289 0
M  V30 1274 C 128.05 2.19135 -0.636798 0
M  V30 1275 C 129.028 1.58884 0.34562 0
M  V30 1276 O 130.212 1.86805 0.252195 0
M  V30 1277 C 127.339 3.38638 0.0650014 0
M  V30 1278 C 126.385 4.17412 -0.87576 0
M  V30 1279 S 127.218 4.79882 -2.37642 0
M  V30 1280 C 128.374 6.02753 -1.6864 0
M  V30 1281 H 128.607 2.55787 -1.51526 0
M  V30 1282 H 126.14 1.26394 -0.886793 0
M  V30 1283 H 128.098 4.07873 0.463664 0
M  V30 1284 H 126.759 3.00331 0.919801 0
M  V30 1285 H 125.952 5.02909 -0.33143 0
M  V30 1286 H 125.554 3.53722 -1.21478 0
M  V30 1287 H 127.846 6.70113 -0.997753 0
M  V30 1288 H 128.789 6.61754 -2.51967 0
M  V30 1289 H 129.197 5.52355 -1.16465 0
M  V30 1290 N 128.595 0.856903 1.32268 0
M  V30 1291 C 129.542 0.301172 2.28827 0
M  V30 1292 C 130.512 -0.593104 1.5515 0
M  V30 1293 O 131.697 -0.527537 1.83362 0
M  V30 1294 C 128.837 -0.502523 3.41422 0
M  V30 1295 C 127.95 0.417797 4.29975 0
M  V30 1296 C 127.085 -0.398749 5.29701 0
M  V30 1297 C 126.124 0.518827 6.09897 0
M  V30 1298 N 125.261 -0.260674 7.01616 0
M  V30 1299 H 130.101 1.12983 2.75751 0
M  V30 1300 H 127.638 0.568582 1.35667 0
M  V30 1301 H 129.596 -0.984141 4.05426 0
M  V30 1302 H 128.226 -1.29599 2.95642 0
M  V30 1303 H 127.278 1.01781 3.66531 0
M  V30 1304 H 128.59 1.12191 4.86019 0
M  V30 1305 H 127.744 -0.943435 5.9932 0
M  V30 1306 H 126.483 -1.13622 4.7428 0
M  V30 1307 H 125.488 1.07538 5.39181 0
M  V30 1308 H 126.713 1.25495 6.67404 0
M  V30 1309 H 124.659 -0.981198 6.4862 0
M  V30 1310 H 124.576 0.384364 7.55022 0
M  V30 1311 H 125.844 -0.787014 7.75517 0
M  V30 1312 N 130.073 -1.45103 0.615059 0
M  V30 1313 C 131.319 -2.03035 0.121804 0
M  V30 1314 C 131.674 -1.47393 -1.23665 0
M  V30 1315 O 130.967 -0.642061 -1.80522 0
M  V30 1316 C 131.161 -3.57386 0.0318797 0
M  V30 1317 C 130.99 -4.28 1.38007 0
M  V30 1318 C 129.76 -4.65624 1.9627 0
M  V30 1319 C 131.958 -4.5948 2.31047 0
M  V30 1320 N 129.94 -5.21132 3.24492 0
M  V30 1321 C 131.311 -5.159 3.43872 0
M  V30 1322 C 133.366 -4.41423 2.30326 0
M  V30 1323 C 132.069 -5.56165 4.5615 0
M  V30 1324 C 134.095 -4.82726 3.41658 0
M  V30 1325 C 133.457 -5.39245 4.53205 0
M  V30 1326 H 129.556 -0.77702 0.0881159 0
M  V30 1327 H 132.14 -1.76819 0.815044 0
M  V30 1328 H 130.311 -3.83247 -0.630599 0
M  V30 1329 H 132.043 -4.01976 -0.468721 0
M  V30 1330 H 128.798 -4.49421 1.49392 0
M  V30 1331 H 129.222 -5.53377 3.90004 0
M  V30 1332 H 133.864 -3.97033 1.45343 0
M  V30 1333 H 131.582 -5.99517 5.41854 0
M  V30 1334 H 135.168 -4.7048 3.42257 0
M  V30 1335 H 134.048 -5.70616 5.37929 0
M  V30 1336 N 131.551 -0.354651 -1.53558 0
M  V30 1337 C 132.828 0.294281 -1.93374 0
M  V30 1338 C 133.208 1.67313 -1.28723 0
M  V30 1339 O 132.556 2.24179 -0.442247 0
M  V30 1340 C 132.766 0.355445 -3.47185 0
M  V30 1341 C 134.114 0.601007 -4.20325 0
M  V30 1342 O 135.138 0.437106 -3.53508 0
M  V30 1343 O 133.997 0.919322 -5.38712 0
M  V30 1344 H 131.091 0.174033 -0.808481 0
M  V30 1345 H 133.637 -0.406638 -1.64756 0
M  V30 1346 H 132.409 -0.611729 -3.86489 0
M  V30 1347 H 132.032 1.1027 -3.82003 0
M  V30 1348 N 133.029 1.57378 -0.0835403 0
M  V30 1349 C 133.992 2.12252 0.864959 0
M  V30 1350 C 134.992 1.04916 1.21858 0
M  V30 1351 O 136.182 1.30853 1.14991 0
M  V30 1352 C 133.314 2.63358 2.16461 0
M  V30 1353 H 134.507 2.97371 0.388676 0
M  V30 1354 H 132.06 1.55423 0.165317 0
M  V30 1355 H 132.795 1.81727 2.686 0
M  V30 1356 H 132.58 3.41826 1.92087 0
M  V30 1357 H 134.07 3.05847 2.84337 0
M  V30 1358 N 134.507 -0.190092 1.56449 0
M  V30 1359 C 135.735 -0.925772 1.85033 0
M  V30 1360 C 136.15 -1.76638 0.666658 0
M  V30 1361 O 135.507 -1.78822 -0.364565 0
M  V30 1362 C 135.558 -1.81786 3.12468 0
M  V30 1363 O 135.279 -1.01118 4.26271 0
M  V30 1364 C 136.78 -2.6648 3.54265 0
M  V30 1365 H 134 -0.269872 0.614337 0
M  V30 1366 H 136.544 -0.195837 2.0356 0
M  V30 1367 H 134.699 -2.50136 2.95822 0
M  V30 1368 H 135.113 -1.61956 4.98869 0
M  V30 1369 H 136.587 -3.24722 4.46385 0
M  V30 1370 H 137.064 -3.40434 2.77491 0
M  V30 1371 H 137.67 -2.03493 3.73458 0
M  V30 1372 N 135.985 -1.50799 -0.457987 0
M  V30 1373 C 136.895 -1.73426 -1.57989 0
M  V30 1374 C 137.911 -0.617745 -1.62665 0
M  V30 1375 O 139.087 -0.897614 -1.80291 0
M  V30 1376 C 136.152 -1.83557 -2.94122 0
M  V30 1377 C 135.213 -3.07345 -2.99729 0
M  V30 1378 C 134.446 -3.16983 -4.29368 0
M  V30 1379 O 134.669 -2.33077 -5.20607 0
M  V30 1380 O 133.603 -4.09812 -4.40837 0
M  V30 1381 H 137.429 -2.68555 -1.41817 0
M  V30 1382 H 135.014 -1.35052 -0.638859 0
M  V30 1383 H 136.896 -1.92326 -3.74952 0
M  V30 1384 H 135.571 -0.916137 -3.10465 0
M  V30 1385 H 134.478 -3.04068 -2.1793 0
M  V30 1386 H 135.811 -3.9891 -2.88326 0
M  V30 1387 N 137.463 0.71206 -1.40597 0
M  V30 1388 C 138.874 1.29135 -1.34837 0
M  V30 1389 C 139.225 1.96186 -0.0235395 0
M  V30 1390 O 138.35 1.97768 0.878444 0
M  V30 1391 C 138.945 2.34827 -2.44217 0
M  V30 1392 C 137.504 2.88371 -2.41907 0
M  V30 1393 C 136.651 1.62202 -2.24913 0
M  V30 1394 H 139.602 0.507944 -1.50352 0
M  V30 1395 H 139.623 3.15749 -2.12327 0
M  V30 1396 H 139.135 1.85996 -3.40627 0
M  V30 1397 H 137.236 3.41422 -1.49204 0
M  V30 1398 H 137.349 3.39925 -3.37621 0
M  V30 1399 H 135.713 1.874 -1.72492 0
M  V30 1400 H 136.496 1.15391 -3.23326 0
M  V30 1401 N 138.941 1.26152 0.944643 0
M  V30 1402 C 140.166 1.14363 1.7302 0
M  V30 1403 C 140.591 -0.29772 1.85729 0
M  V30 1404 O 139.949 -1.2157 1.34501 0
M  V30 1405 C 139.997 1.81378 3.11664 0
M  V30 1406 O 139.101 1.10022 3.97453 0
M  V30 1407 H 138.442 0.398694 0.53098 0
M  V30 1408 H 140.972 1.66906 1.18337 0
M  V30 1409 H 140.982 1.88064 3.62072 0
M  V30 1410 H 139.657 2.86237 3.0173 0
M  V30 1411 H 138.234 1.11287 3.55907 0
M  V30 1412 N 140.419 -1.14872 1.07899 0
M  V30 1413 C 141.351 -2.19425 0.662231 0
M  V30 1414 C 142.364 -1.60231 -0.288079 0
M  V30 1415 O 143.553 -1.78336 -0.076534 0
M  V30 1416 C 140.653 -3.38867 -0.0470695 0
M  V30 1417 C 139.826 -4.27597 0.920831 0
M  V30 1418 C 138.885 -5.25616 0.247805 0
M  V30 1419 O 137.911 -5.62189 0.890599 0
M  V30 1420 N 139.113 -5.71746 -1.00435 0
M  V30 1421 H 141.878 -2.55797 1.56166 0
M  V30 1422 H 139.439 -1.30042 0.964404 0
M  V30 1423 H 141.431 -4.01497 -0.50813 0
M  V30 1424 H 140.001 -3.00864 -0.848523 0
M  V30 1425 H 139.221 -3.61982 1.56087 0
M  V30 1426 H 140.509 -4.83748 1.57688 0
M  V30 1427 H 139.907 -5.44153 -1.54642 0
M  V30 1428 H 138.464 -6.36389 -1.40899 0
M  V30 1429 N 141.898 -0.863906 -1.31812 0
M  V30 1430 C 142.846 -0.30422 -2.30602 0
M  V30 1431 C 143.84 0.577419 -1.59255 0
M  V30 1432 O 145.046 0.464194 -1.73912 0
M  V30 1433 H 141.421 -0.0796877 -0.747766 0
M  V30 1434 H 143.392 -1.15148 -2.75288 0
M  V30 1435 C 142.141 0.484617 -3.44306 0
M  V30 1436 H 141.464 -0.18451 -3.99374 0
M  V30 1437 H 142.904 0.841664 -4.15562 0
M  V30 1438 C 141.363 1.6735 -2.92396 0
M  V30 1439 O 141.893 2.77273 -2.90659 0
M  V30 1440 N 140.099 1.50362 -2.48676 0
M  V30 1441 H 139.646 0.609402 -2.50288 0
M  V30 1442 H 139.604 2.30051 -2.14299 0
M  V30 1443 N 143.376 1.44774 -0.622745 0
M  V30 1444 C 144.601 2.06999 -0.128968 0
M  V30 1445 C 145.026 1.4617 1.1839 0
M  V30 1446 O 144.384 0.560007 1.72434 0
M  V30 1447 C 144.432 3.60595 -0.0188351 0
M  V30 1448 O 143.536 3.99398 1.02739 0
M  V30 1449 H 142.877 0.659047 -0.0809544 0
M  V30 1450 H 145.407 1.85784 -0.85705 0
M  V30 1451 H 145.417 4.07627 0.174476 0
M  V30 1452 H 144.092 4.04252 -0.977384 0
M  V30 1453 H 142.669 3.64011 0.809326 0
M  V30 1454 N 144.854 0.36279 1.53368 0
M  V30 1455 C 146.101 -0.227776 2.01215 0
M  V30 1456 C 146.429 -1.49003 1.25014 0
M  V30 1457 O 145.684 -1.92876 0.331236 0
M  V30 1458 C 145.983 -0.568417 3.52851 0
M  V30 1459 C 145.649 0.59918 4.46901 0
M  V30 1460 C 144.311 0.919559 4.72332 0
M  V30 1461 C 146.663 1.38156 5.02556 0
M  V30 1462 C 143.991 2.02434 5.5067 0
M  V30 1463 C 146.343 2.47674 5.821 0
M  V30 1464 C 145.007 2.8025 6.05819 0
M  V30 1465 H 144.277 -0.083349 0.736297 0
M  V30 1466 H 146.924 0.494677 1.85001 0
M  V30 1467 H 145.229 -1.37185 3.66998 0
M  V30 1468 H 146.926 -1.03756 3.87344 0
M  V30 1469 H 143.516 0.339437 4.27254 0
M  V30 1470 H 147.7 1.14729 4.82857 0
M  V30 1471 H 142.956 2.28075 5.67267 0
M  V30 1472 H 147.13 3.08716 6.24234 0
M  V30 1473 H 144.757 3.65979 6.66306 0
M  V30 1474 N 146.332 -1.57332 0.0918853 0
M  V30 1475 C 147.557 -1.98995 -0.584442 0
M  V30 1476 C 147.982 -0.970528 -1.61128 0
M  V30 1477 O 147.34 0.0613904 -1.81196 0
M  V30 1478 C 147.388 -3.39636 -1.21161 0
M  V30 1479 O 146.492 -3.40447 -2.32744 0
M  V30 1480 H 145.833 -0.647165 -0.148572 0
M  V30 1481 H 148.363 -2.03873 0.172347 0
M  V30 1482 H 148.373 -3.7726 -1.55367 0
M  V30 1483 H 147.048 -4.13356 -0.459313 0
M  V30 1484 H 145.625 -3.14614 -2.0018 0
M  V30 1485 N 147.81 0.181792 -1.56548 0
M  V30 1486 C 149.057 0.900097 -1.81396 0
M  V30 1487 C 149.385 1.82695 -0.667281 0
M  V30 1488 O 148.64 1.92614 0.346146 0
M  V30 1489 C 148.939 1.73728 -3.12335 0
M  V30 1490 C 148.605 0.960255 -4.40556 0
M  V30 1491 C 147.267 0.745766 -4.75386 0
M  V30 1492 C 149.619 0.414477 -5.19549 0
M  V30 1493 C 146.947 -0.0257694 -5.86694 0
M  V30 1494 C 149.299 -0.343916 -6.31664 0
M  V30 1495 C 147.963 -0.569301 -6.65068 0
M  V30 1496 H 147.233 0.329369 -0.663775 0
M  V30 1497 H 149.88 0.165647 -1.90782 0
M  V30 1498 H 148.185 2.54081 -2.98245 0
M  V30 1499 H 149.882 2.29591 -3.28769 0
M  V30 1500 H 146.472 1.13746 -4.13231 0
M  V30 1501 H 150.656 0.567554 -4.93044 0
M  V30 1502 H 145.912 -0.210233 -6.11038 0
M  V30 1503 H 150.086 -0.774133 -6.92084 0
M  V30 1504 H 147.713 -1.16903 -7.51158 0
M  V30 1505 N 149.288 1.51039 0.449983 0
M  V30 1506 C 150.536 1.62759 1.19808 0
M  V30 1507 C 150.857 0.339981 1.92013 0
M  V30 1508 O 150.127 -0.643606 1.85026 0
M  V30 1509 H 148.707 0.599811 0.445237 0
M  V30 1510 H 151.369 1.87914 0.517138 0
M  V30 1511 H 150.465 2.44911 1.93455 0
M  V30 1512 N 150.766 -0.704594 1.40972 0
M  V30 1513 C 151.729 -1.80035 1.41845 0
M  V30 1514 C 152.729 -1.57774 0.310474 0
M  V30 1515 O 153.919 -1.64613 0.56992 0
M  V30 1516 C 151.051 -3.18284 1.22098 0
M  V30 1517 H 152.244 -1.80658 2.3938 0
M  V30 1518 H 149.797 -0.911329 1.26982 0
M  V30 1519 H 150.532 -3.23306 0.253672 0
M  V30 1520 H 150.317 -3.35843 2.02366 0
M  V30 1521 H 151.807 -3.98289 1.25522 0
M  V30 1522 N 152.244 -1.26651 -0.937939 0
M  V30 1523 C 153.492 -1.12165 -1.68118 0
M  V30 1524 C 153.813 0.334983 -1.92101 0
M  V30 1525 O 153.083 1.23583 -1.52 0
M  V30 1526 H 151.663 -0.412093 -0.623048 0
M  V30 1527 H 154.325 -1.59027 -1.12678 0
M  V30 1528 H 153.421 -1.64289 -2.6536 0
M  V30 1529 N 153.722 1.14298 -1.08507 0
M  V30 1530 C 154.999 1.81544 -0.728088 0
M  V30 1531 C 155.379 1.95838 0.78808 0
M  V30 1532 O 154.727 1.51904 1.70697 0
M  V30 1533 C 154.937 3.17169 -1.45619 0
M  V30 1534 C 156.285 3.9265 -1.61591 0
M  V30 1535 O 157.309 3.26762 -1.41793 0
M  V30 1536 O 156.168 5.10807 -1.94263 0
M  V30 1537 H 153.262 0.78491 -0.260471 0
M  V30 1538 H 155.808 1.21307 -1.18671 0
M  V30 1539 H 154.58 3.01934 -2.489 0
M  V30 1540 H 154.203 3.851 -0.989124 0
M  V30 1541 N 155.201 0.870884 1.31352 0
M  V30 1542 C 156.617 0.562932 1.49343 0
M  V30 1543 C 156.817 -0.902725 1.80148 0
M  V30 1544 O 155.873 -1.68484 1.88067 0
M  V30 1545 C 157.186 1.46393 2.62659 0
M  V30 1546 C 158.734 1.46607 2.76542 0
M  V30 1547 C 159.209 2.35266 3.92955 0
M  V30 1548 N 160.7 2.33151 4.00243 0
M  V30 1549 C 161.435 2.98471 4.89594 0
M  V30 1550 N 160.931 3.72964 5.8384 0
M  V30 1551 N 162.724 2.87775 4.82848 0
M  V30 1552 H 154.875 1.81923 1.09626 0
M  V30 1553 H 157.138 0.777934 0.541777 0
M  V30 1554 H 156.844 2.50689 2.46674 0
M  V30 1555 H 156.718 1.16314 3.58819 0
M  V30 1556 H 159.105 0.43069 2.9194 0
M  V30 1557 H 159.186 1.8071 1.81046 0
M  V30 1558 H 158.83 3.38881 3.78315 0
M  V30 1559 H 158.76 1.98487 4.87761 0
M  V30 1560 H 161.251 1.79006 3.32814 0
M  V30 1561 H 161.564 4.19932 6.4875 0
M  V30 1562 H 159.909 3.77073 5.83816 0
M  V30 1563 H 163.1 2.29116 4.08195 0
M  V30 1564 H 163.273 3.38961 5.52277 0
M  V30 1565 N 156.679 -1.44442 0.630414 0
M  V30 1566 C 157.925 -2.02351 0.134816 0
M  V30 1567 C 158.258 -1.4947 -1.23986 0
M  V30 1568 O 157.533 -0.678475 -1.82283 0
M  V30 1569 C 157.816 -3.59898 0.120707 0
M  V30 1570 C 157.669 -4.23063 1.52767 0
M  V30 1571 C 158.988 -4.36585 -0.555127 0
M  V30 1572 H 156.107 -0.73527 0.0504646 0
M  V30 1573 H 158.749 -1.72022 0.806751 0
M  V30 1574 H 156.899 -3.85868 -0.451477 0
M  V30 1575 H 158.571 -4.08202 2.14869 0
M  V30 1576 H 156.814 -3.80586 2.08175 0
M  V30 1577 H 157.485 -5.32071 1.46984 0
M  V30 1578 H 159.961 -4.16044 -0.0685429 0
M  V30 1579 H 158.837 -5.46294 -0.534185 0
M  V30 1580 H 159.098 -4.11138 -1.62535 0
M  V30 1581 N 158.157 -0.370918 -1.53173 0
M  V30 1582 C 159.12 0.460778 -2.24521 0
M  V30 1583 C 160.12 1.00536 -1.25496 0
M  V30 1584 O 161.31 0.890266 -1.49733 0
M  V30 1585 C 158.442 1.64457 -2.98608 0
M  V30 1586 H 159.635 -0.163613 -2.99453 0
M  V30 1587 H 157.188 -0.122699 -1.55818 0
M  V30 1588 H 157.923 2.30691 -2.2793 0
M  V30 1589 H 157.708 1.26099 -3.7127 0
M  V30 1590 H 159.198 2.23384 -3.5283 0
M  V30 1591 N 159.635 1.57281 -0.100228 0
M  V30 1592 C 160.86 1.99302 0.573881 0
M  V30 1593 C 161.285 0.979059 1.60611 0
M  V30 1594 O 160.643 -0.0517803 1.81226 0
M  V30 1595 C 160.691 3.40274 1.19358 0
M  V30 1596 O 159.795 3.41676 2.30935 0
M  V30 1597 H 159.136 0.647944 0.145138 0
M  V30 1598 H 161.666 2.03779 -0.183156 0
M  V30 1599 H 161.676 3.78078 1.53365 0
M  V30 1600 H 160.351 4.13594 0.437385 0
M  V30 1601 H 158.928 3.15672 1.98509 0
M  V30 1602 N 161.113 -0.173488 1.56642 0
M  V30 1603 C 162.343 -0.904781 1.85734 0
M  V30 1604 C 162.751 -1.76431 0.68328 0
M  V30 1605 O 162.094 -1.802 -0.356865 0
M  V30 1606 C 162.156 -1.83382 3.09211 0
M  V30 1607 C 161.82 -1.15411 4.42187 0
M  V30 1608 C 162.817 -0.520609 5.17287 0
M  V30 1609 C 160.502 -1.15151 4.88923 0
M  V30 1610 C 162.496 0.106412 6.37311 0
M  V30 1611 C 160.183 -0.520664 6.08878 0
M  V30 1612 C 161.181 0.107196 6.82916 0
M  V30 1613 O 160.869 0.728102 8.00596 0
M  V30 1614 H 160.601 -0.268408 0.62043 0
M  V30 1615 H 163.155 -0.179096 2.04618 0
M  V30 1616 H 161.385 -2.59976 2.86268 0
M  V30 1617 H 163.074 -2.43476 3.24768 0
M  V30 1618 H 163.84 -0.514606 4.82262 0
M  V30 1619 H 159.719 -1.62961 4.31236 0
M  V30 1620 H 163.263 0.597081 6.9504 0
M  V30 1621 H 159.16 -0.524242 6.43368 0
M  V30 1622 H 159.928 0.627138 8.16094 0
M  V30 1623 N 162.591 -1.51276 -0.441967 0
M  V30 1624 C 163.554 -1.7167 -1.51862 0
M  V30 1625 C 164.554 -0.586793 -1.49711 0
M  V30 1626 O 165.744 -0.854276 -1.51815 0
M  V30 1627 C 162.876 -1.76889 -2.91416 0
M  V30 1628 H 164.069 -2.67754 -1.35084 0
M  V30 1629 H 161.622 -1.41196 -0.670333 0
M  V30 1630 H 162.357 -0.826026 -3.13604 0
M  V30 1631 H 162.142 -2.59001 -2.94382 0
M  V30 1632 H 163.632 -1.94522 -3.69528 0
M  V30 1633 N 164.069 0.697108 -1.41344 0
M  V30 1634 C 165.032 1.79281 -1.42797 0
M  V30 1635 C 166.032 1.57607 -0.318837 0
M  V30 1636 O 167.222 1.64309 -0.578642 0
M  V30 1637 C 164.354 3.17632 -1.23785 0
M  V30 1638 H 165.547 1.79385 -2.40335 0
M  V30 1639 H 163.1 0.904582 -1.27464 0
M  V30 1640 H 163.835 3.23167 -0.270814 0
M  V30 1641 H 163.62 3.34765 -2.04144 0
M  V30 1642 H 165.11 3.97617 -1.27633 0
M  V30 1643 N 165.547 1.27147 0.931209 0
M  V30 1644 C 166.824 1.0401 1.65654 0
M  V30 1645 C 167.204 -0.426297 2.06751 0
M  V30 1646 O 166.552 -1.40879 1.79904 0
M  V30 1647 C 166.762 1.99834 2.86125 0
M  V30 1648 C 168.11 2.29007 3.57549 0
M  V30 1649 O 169.134 1.97779 2.96246 0
M  V30 1650 O 167.993 2.82222 4.67989 0
M  V30 1651 H 165.087 0.396239 0.725895 0
M  V30 1652 H 167.633 1.38397 0.982056 0
M  V30 1653 H 166.405 2.98744 2.52721 0
M  V30 1654 H 166.028 1.65987 3.61295 0
M  V30 1655 N 167.025 -1.13721 1.09112 0
M  V30 1656 C 168.253 -1.88773 0.846899 0
M  V30 1657 C 168.668 -1.7896 -0.601572 0
M  V30 1658 O 168.025 -1.15394 -1.41388 0
M  V30 1659 C 168.076 -3.3849 1.26913 0
M  V30 1660 O 167.797 -3.48043 2.66079 0
M  V30 1661 C 169.298 -4.30518 1.05682 0
M  V30 1662 H 166.518 -0.59772 0.304914 0
M  V30 1663 H 169.062 -1.43977 1.45227 0
M  V30 1664 H 167.217 -3.80881 0.707723 0
M  V30 1665 H 167.631 -4.4109 2.83795 0
M  V30 1666 H 169.105 -5.3391 1.40156 0
M  V30 1667 H 169.582 -4.392 -0.00563416 0
M  V30 1668 H 170.188 -3.93893 1.60402 0
M  V30 1669 N 168.503 -0.877838 -1.30888 0
M  V30 1670 C 169.751 -0.491723 -1.96027 0
M  V30 1671 C 170.072 0.960827 -1.69685 0
M  V30 1672 O 169.342 1.67462 -1.01654 0
M  V30 1673 H 167.922 -0.17885 -0.725273 0
M  V30 1674 H 170.584 -1.11935 -1.59551 0
M  V30 1675 H 169.68 -0.656016 -3.05128 0
M  V30 1676 N 169.982 1.44106 -0.638065 0
M  V30 1677 C 170.929 2.30715 0.062701 0
M  V30 1678 C 171.899 1.43882 0.829883 0
M  V30 1679 O 173.084 1.72775 0.809532 0
M  V30 1680 C 170.224 3.29258 1.03358 0
M  V30 1681 C 169.337 4.31192 0.26409 0
M  V30 1682 C 168.472 5.16825 1.22741 0
M  V30 1683 C 167.511 6.10462 0.447475 0
M  V30 1684 N 166.648 6.8877 1.36161 0
M  V30 1685 H 171.488 2.90096 -0.681781 0
M  V30 1686 H 169.025 1.42925 -0.347988 0
M  V30 1687 H 170.983 3.84886 1.60992 0
M  V30 1688 H 169.613 2.71562 1.74511 0
M  V30 1689 H 168.665 3.77981 -0.428295 0
M  V30 1690 H 169.977 4.97619 -0.343052 0
M  V30 1691 H 169.131 5.77004 1.87487 0
M  V30 1692 H 167.87 4.50488 1.86847 0
M  V30 1693 H 166.875 5.49386 -0.213433 0
M  V30 1694 H 168.1 6.78837 -0.188968 0
M  V30 1695 H 166.046 6.25096 1.98975 0
M  V30 1696 H 165.963 7.51663 0.808656 0
M  V30 1697 H 167.231 7.53467 1.99769 0
M  V30 1698 N 171.46 0.379036 1.52974 0
M  V30 1699 C 172.37 -0.468639 2.29872 0
M  V30 1700 C 173.386 -1.08067 1.36373 0
M  V30 1701 O 174.562 -1.08871 1.69438 0
M  V30 1702 C 171.627 -1.58594 3.083 0
M  V30 1703 C 170.688 -1.00007 4.17489 0
M  V30 1704 C 169.921 -2.06413 4.92168 0
M  V30 1705 O 170.144 -3.27751 4.66835 0
M  V30 1706 O 169.078 -1.68717 5.7777 0
M  V30 1707 H 172.904 0.157508 3.03291 0
M  V30 1708 H 170.489 0.143035 1.48714 0
M  V30 1709 H 172.371 -2.23525 3.57232 0
M  V30 1710 H 171.046 -2.19724 2.37703 0
M  V30 1711 H 169.953 -0.314299 3.72777 0
M  V30 1712 H 171.286 -0.433135 4.90291 0
M  V30 1713 N 172.938 -1.57226 0.108567 0
M  V30 1714 C 173.868 -2.17778 -0.84232 0
M  V30 1715 C 174.849 -1.11487 -1.2847 0
M  V30 1716 O 176.034 -1.39681 -1.34918 0
M  V30 1717 C 173.164 -2.76888 -2.09644 0
M  V30 1718 C 172.118 -3.88669 -1.79221 0
M  V30 1719 C 171.444 -4.34541 -3.11574 0
M  V30 1720 C 172.744 -5.11251 -1.06864 0
M  V30 1721 H 174.438 -2.97489 -0.337774 0
M  V30 1722 H 171.984 -1.43097 -0.161025 0
M  V30 1723 H 173.937 -3.17904 -2.76614 0
M  V30 1724 H 172.661 -1.94451 -2.62405 0
M  V30 1725 H 171.32 -3.48213 -1.14644 0
M  V30 1726 H 170.968 -3.48977 -3.62249 0
M  V30 1727 H 170.668 -5.09914 -2.91996 0
M  V30 1728 H 172.192 -4.782 -3.7968 0
M  V30 1729 H 173.606 -5.49352 -1.63968 0
M  V30 1730 H 172.003 -5.9214 -0.974178 0
M  V30 1731 H 173.073 -4.8487 -0.0536168 0
M  V30 1732 N 174.416 0.165178 -1.56732 0
M  V30 1733 C 175.646 0.894919 -1.86212 0
M  V30 1734 C 176.054 1.76066 -0.692627 0
M  V30 1735 O 175.397 1.80387 0.347303 0
M  V30 1736 C 175.459 1.8174 -3.10179 0
M  V30 1737 C 175.123 1.13064 -4.42793 0
M  V30 1738 C 176.12 0.493169 -5.17556 0
M  V30 1739 C 173.805 1.12556 -4.89527 0
M  V30 1740 C 175.799 -0.140209 -6.37246 0
M  V30 1741 C 173.486 0.488366 -6.09145 0
M  V30 1742 C 174.484 -0.143411 -6.82849 0
M  V30 1743 O 174.172 -0.77055 -8.00199 0
M  V30 1744 H 173.904 0.265114 -0.621844 0
M  V30 1745 H 176.458 0.168242 -2.0471 0
M  V30 1746 H 174.688 2.58455 -2.87642 0
M  V30 1747 H 176.377 2.4175 -3.26055 0
M  V30 1748 H 177.143 0.489023 -4.82528 0
M  V30 1749 H 173.022 1.60672 -4.32094 0
M  V30 1750 H 176.566 -0.633932 -6.94714 0
M  V30 1751 H 172.463 0.490116 -6.43637 0
M  V30 1752 H 173.231 -0.670408 -8.1575 0
M  V30 1753 N 175.894 1.51508 0.433938 0
M  V30 1754 C 177.142 1.6402 1.18075 0
M  V30 1755 C 177.463 0.360328 1.91642 0
M  V30 1756 O 176.733 -0.623945 1.85698 0
M  V30 1757 H 175.313 0.6045 0.43885 0
M  V30 1758 H 177.975 1.88452 0.497178 0
M  V30 1759 H 177.071 2.46949 1.90847 0
M  V30 1760 N 177.372 -0.689602 1.41712 0
M  V30 1761 C 178.322 -1.79571 1.40493 0
M  V30 1762 C 179.306 -1.58473 0.278409 0
M  V30 1763 O 180.498 -1.69204 0.519532 0
M  V30 1764 C 177.627 -3.17923 1.29536 0
M  V30 1765 C 176.713 -3.44695 2.47075 0
M  V30 1766 N 177.104 -3.42132 3.72531 0
M  V30 1767 C 175.402 -3.75269 2.41017 0
M  V30 1768 C 176.103 -3.67976 4.50521 0
M  V30 1769 N 175.079 -3.88014 3.80718 0
M  V30 1770 H 178.881 -1.75961 2.35404 0
M  V30 1771 H 176.395 -0.889839 1.35851 0
M  V30 1772 H 178.392 -3.97167 1.26745 0
M  V30 1773 H 177.052 -3.22741 0.356153 0
M  V30 1774 H 178.063 -3.22375 4.05333 0
M  V30 1775 H 174.74 -3.87421 1.55599 0
M  V30 1776 H 176.13 -3.7208 5.59469 0
M  V30 1777 N 178.85 -1.27639 -0.924453 0
M  V30 1778 C 180.078 -1.16989 -1.70649 0
M  V30 1779 C 180.493 0.272869 -1.86818 0
M  V30 1780 O 179.85 1.18549 -1.38753 0
M  V30 1781 C 179.901 -1.85229 -3.10439 0
M  V30 1782 O 179.622 -3.23868 -2.95028 0
M  V30 1783 C 181.123 -1.80746 -4.04779 0
M  V30 1784 H 178.343 -0.406595 -0.53378 0
M  V30 1785 H 180.887 -1.68569 -1.15778 0
M  V30 1786 H 179.042 -1.37545 -3.6216 0
M  V30 1787 H 179.456 -3.57889 -3.83426 0
M  V30 1788 H 180.93 -2.33101 -5.00368 0
M  V30 1789 H 181.407 -0.777499 -4.32263 0
M  V30 1790 H 182.013 -2.28059 -3.58984 0
M  V30 1791 N 180.328 1.1314 -1.09713 0
M  V30 1792 C 181.258 2.20748 -0.761102 0
M  V30 1793 C 182.239 1.68061 0.262566 0
M  V30 1794 O 183.424 1.93765 0.129977 0
M  V30 1795 C 180.554 3.46812 -0.184054 0
M  V30 1796 C 179.508 4.12606 -1.13757 0
M  V30 1797 C 178.834 5.33031 -0.422083 0
M  V30 1798 C 180.134 4.59603 -2.48118 0
M  V30 1799 H 181.828 2.49113 -1.66082 0
M  V30 1800 H 179.374 1.19734 -0.799987 0
M  V30 1801 H 181.327 4.21353 0.0631215 0
M  V30 1802 H 180.051 3.17851 0.750868 0
M  V30 1803 H 178.71 3.40036 -1.37007 0
M  V30 1804 H 178.358 5.00335 0.517072 0
M  V30 1805 H 178.058 5.77999 -1.05788 0
M  V30 1806 H 179.582 6.10325 -0.183277 0
M  V30 1807 H 180.996 5.25552 -2.29059 0
M  V30 1808 H 179.393 5.15321 -3.07514 0
M  V30 1809 H 180.463 3.73971 -3.08665 0
M  V30 1810 N 181.806 0.884767 1.30421 0
M  V30 1811 C 183.052 0.503851 1.96441 0
M  V30 1812 C 183.385 -0.944518 1.69684 0
M  V30 1813 O 182.66 -1.66737 1.00145 0
M  V30 1814 C 182.943 0.779085 3.51571 0
M  V30 1815 C 182.796 2.27807 3.87846 0
M  V30 1816 C 184.115 0.255452 4.39358 0
M  V30 1817 H 181.234 0.184533 0.713524 0
M  V30 1818 H 183.876 1.10872 1.54297 0
M  V30 1819 H 182.026 0.264274 3.876 0
M  V30 1820 H 183.698 2.86127 3.61841 0
M  V30 1821 H 181.941 2.74479 3.35922 0
M  V30 1822 H 182.612 2.42125 4.96064 0
M  V30 1823 H 185.088 0.696079 4.10236 0
M  V30 1824 H 183.964 0.477361 5.4682 0
M  V30 1825 H 184.225 -0.843293 4.33983 0
M  V30 1826 N 183.284 -1.43765 0.645699 0
M  V30 1827 C 184.53 -2.02731 0.164844 0
M  V30 1828 C 184.885 -1.49983 -1.2051 0
M  V30 1829 O 184.178 -0.680208 -1.79119 0
M  V30 1830 C 184.372 -3.57238 0.107679 0
M  V30 1831 C 184.201 -4.24977 1.47054 0
M  V30 1832 C 182.971 -4.61356 2.06103 0
M  V30 1833 C 185.169 -4.54476 2.40741 0
M  V30 1834 N 183.151 -5.14132 3.35473 0
M  V30 1835 C 184.522 -5.08489 3.54737 0
M  V30 1836 C 186.577 -4.36438 2.39637 0
M  V30 1837 C 185.28 -5.46364 4.67845 0
M  V30 1838 C 187.306 -4.7537 3.5182 0
M  V30 1839 C 186.668 -5.2951 4.64541 0
M  V30 1840 H 182.767 -0.774976 0.104578 0
M  V30 1841 H 185.351 -1.75051 0.852367 0
M  V30 1842 H 183.522 -3.84498 -0.549165 0
M  V30 1843 H 185.254 -4.0288 -0.383351 0
M  V30 1844 H 182.009 -4.46151 1.58892 0
M  V30 1845 H 182.433 -5.4498 4.01654 0
M  V30 1846 H 187.075 -3.93861 1.53731 0
M  V30 1847 H 184.793 -5.87888 5.54448 0
M  V30 1848 H 188.379 -4.63115 3.52159 0
M  V30 1849 H 187.259 -5.59077 5.49911 0
M  V30 1850 N 184.763 -0.387143 -1.52771 0
M  V30 1851 C 185.713 0.465942 -2.23188 0
M  V30 1852 C 186.697 1.03138 -1.23496 0
M  V30 1853 O 187.889 0.957845 -1.48843 0
M  V30 1854 C 185.018 1.59384 -3.04059 0
M  V30 1855 C 184.104 1.04024 -4.11144 0
M  V30 1856 N 184.495 0.211416 -5.05358 0
M  V30 1857 C 182.793 1.31295 -4.26237 0
M  V30 1858 C 183.494 -0.0941698 -5.81624 0
M  V30 1859 N 182.47 0.509207 -5.4121 0
M  V30 1860 H 186.272 -0.173856 -2.93385 0
M  V30 1861 H 183.786 -0.19633 -1.61209 0
M  V30 1862 H 185.783 2.21738 -3.53041 0
M  V30 1863 H 184.443 2.23648 -2.35397 0
M  V30 1864 H 185.454 -0.151151 -5.17679 0
M  V30 1865 H 182.131 1.95679 -3.68803 0
M  V30 1866 H 183.521 -0.765572 -6.67524 0
M  V30 1867 N 186.241 1.57166 -0.116904 0
M  V30 1868 C 187.466 1.999 0.55271 0
M  V30 1869 C 187.891 0.996039 1.59564 0
M  V30 1870 O 187.249 -0.032556 1.81271 0
M  V30 1871 C 187.297 3.4152 1.15742 0
M  V30 1872 O 186.401 3.44106 2.27299 0
M  V30 1873 H 185.742 0.649447 0.138258 0
M  V30 1874 H 188.272 2.03573 -0.204759 0
M  V30 1875 H 188.282 3.79684 1.49346 0
M  V30 1876 H 186.957 4.14034 0.393493 0
M  V30 1877 H 185.534 3.17759 1.9515 0
M  V30 1878 N 187.719 -0.156864 1.56817 0
M  V30 1879 C 188.651 -1.21883 1.94106 0
M  V30 1880 C 189.664 -1.3971 0.835754 0
M  V30 1881 O 190.853 -1.39457 1.11418 0
M  V30 1882 C 187.953 -2.58527 2.19127 0
M  V30 1883 C 187.126 -2.61809 3.50393 0
M  V30 1884 C 186.185 -3.7992 3.64071 0
M  V30 1885 O 185.211 -3.65249 4.36557 0
M  V30 1886 N 186.413 -4.96973 2.99997 0
M  V30 1887 H 189.178 -0.901974 2.85805 0
M  V30 1888 H 186.739 -0.346513 1.58148 0
M  V30 1889 H 188.731 -3.36034 2.25529 0
M  V30 1890 H 187.301 -2.82545 1.33742 0
M  V30 1891 H 186.521 -1.7029 3.5552 0
M  V30 1892 H 187.809 -2.61024 4.36742 0
M  V30 1893 H 187.207 -5.11794 2.41004 0
M  V30 1894 H 185.764 -5.7229 3.11974 0
M  V30 1895 N 189.197 -1.51736 -0.425897 0
M  V30 1896 C 190.127 -1.76827 -1.52494 0
M  V30 1897 C 191.108 -0.618524 -1.58456 0
M  V30 1898 O 192.293 -0.862416 -1.74 0
M  V30 1899 C 189.423 -1.90374 -2.90474 0
M  V30 1900 C 188.377 -3.0588 -2.99369 0
M  V30 1901 C 187.703 -3.04625 -4.3944 0
M  V30 1902 C 189.003 -4.45644 -2.72394 0
M  V30 1903 H 190.697 -2.68855 -1.31748 0
M  V30 1904 H 188.243 -1.29372 -0.632362 0
M  V30 1905 H 190.196 -2.0651 -3.6733 0
M  V30 1906 H 188.92 -0.95004 -3.12477 0
M  V30 1907 H 187.579 -2.89467 -2.24954 0
M  V30 1908 H 187.227 -2.0701 -4.58428 0
M  V30 1909 H 186.927 -3.82195 -4.46319 0
M  V30 1910 H 188.451 -3.22869 -5.18255 0
M  V30 1911 H 189.865 -4.62348 -3.38979 0
M  V30 1912 H 188.262 -5.25006 -2.9067 0
M  V30 1913 H 189.332 -4.54893 -1.67929 0
M  V30 1914 N 190.675 0.682077 -1.42076 0
M  V30 1915 C 192.086 1.26246 -1.37546 0
M  V30 1916 C 192.437 1.96092 -0.0651481 0
M  V30 1917 O 191.562 1.99587 0.836297 0
M  V30 1918 C 192.157 2.29594 -2.49143 0
M  V30 1919 C 190.716 2.83175 -2.47969 0
M  V30 1920 C 189.863 1.57395 -2.28303 0
M  V30 1921 H 192.814 0.475937 -1.51395 0
M  V30 1922 H 192.835 3.11175 -2.18976 0
M  V30 1923 H 192.347 1.78729 -3.44496 0
M  V30 1924 H 190.448 3.3818 -1.56413 0
M  V30 1925 H 190.561 3.32687 -3.44755 0
M  V30 1926 H 188.925 1.83699 -1.76428 0
M  V30 1927 H 189.708 1.08507 -3.25701 0
M  V30 1928 N 192.153 1.28127 0.917671 0
M  V30 1929 C 193.43 1.05761 1.64542 0
M  V30 1930 C 193.81 -0.404344 2.07191 0
M  V30 1931 O 193.158 -1.38963 1.81388 0
M  V30 1932 C 193.368 2.02857 2.83989 0
M  V30 1933 C 194.716 2.32786 3.551 0
M  V30 1934 O 195.74 2.0091 2.94132 0
M  V30 1935 O 194.599 2.87169 4.64969 0
M  V30 1936 H 191.693 0.403916 0.721652 0
M  V30 1937 H 194.239 1.39431 0.967322 0
M  V30 1938 H 193.011 3.01407 2.49538 0
M  V30 1939 H 192.634 1.69809 3.59514 0
M  V30 1940 N 193.631 -1.12557 1.10312 0
M  V30 1941 C 194.877 -1.84515 0.855901 0
M  V30 1942 C 195.232 -1.82409 -0.611936 0
M  V30 1943 O 194.525 -1.25778 -1.44535 0
M  V30 1944 C 194.719 -3.31462 1.33669 0
M  V30 1945 C 194.548 -3.47879 2.84974 0
M  V30 1946 C 193.318 -3.61589 3.52961 0
M  V30 1947 C 195.516 -3.43152 3.83081 0
M  V30 1948 N 193.498 -3.66359 4.926 0
M  V30 1949 C 194.869 -3.54401 5.08724 0
M  V30 1950 C 196.924 -3.2661 3.75807 0
M  V30 1951 C 195.627 -3.50815 6.2795 0
M  V30 1952 C 197.653 -3.24335 4.94531 0
M  V30 1953 C 197.015 -3.36144 6.19021 0
M  V30 1954 H 193.114 -0.690967 0.366182 0
M  V30 1955 H 195.698 -1.34763 1.40524 0
M  V30 1956 H 193.869 -3.7976 0.814686 0
M  V30 1957 H 195.601 -3.91272 1.03385 0
M  V30 1958 H 192.356 -3.63652 3.03404 0
M  V30 1959 H 192.78 -3.72411 5.65366 0
M  V30 1960 H 197.422 -3.16375 2.80476 0
M  V30 1961 H 195.14 -3.5982 7.23571 0
M  V30 1962 H 198.726 -3.12719 4.9061 0
M  V30 1963 H 197.606 -3.34357 7.09348 0
M  V30 1964 N 195.109 -0.891671 -1.2995 0
M  V30 1965 C 196.072 -0.36828 -2.26222 0
M  V30 1966 C 197.072 0.493014 -1.53056 0
M  V30 1967 O 198.262 0.299213 -1.71611 0
M  V30 1968 C 195.394 0.47442 -3.37583 0
M  V30 1969 H 196.587 -1.21844 -2.74033 0
M  V30 1970 H 194.14 -0.669107 -1.41254 0
M  V30 1971 H 194.875 1.34489 -2.95099 0
M  V30 1972 H 194.66 -0.142615 -3.91841 0
M  V30 1973 H 196.15 0.83218 -4.09224 0
M  V30 1974 N 196.587 1.43421 -0.653314 0
M  V30 1975 C 197.534 2.30768 0.0382271 0
M  V30 1976 C 198.504 1.44755 0.814576 0
M  V30 1977 O 199.689 1.73624 0.791162 0
M  V30 1978 C 196.829 3.30336 0.998599 0
M  V30 1979 C 195.942 4.31448 0.218342 0
M  V30 1980 C 195.077 5.18098 1.17252 0
M  V30 1981 C 194.116 6.10902 0.382702 0
M  V30 1982 N 193.253 6.90176 1.28848 0
M  V30 1983 H 198.093 2.89357 -0.712511 0
M  V30 1984 H 195.63 1.42548 -0.363128 0
M  V30 1985 H 197.588 3.86572 1.56901 0
M  V30 1986 H 196.218 2.73397 1.71621 0
M  V30 1987 H 195.27 3.77506 -0.46836 0
M  V30 1988 H 196.582 4.97227 -0.395812 0
M  V30 1989 H 195.736 5.7896 1.81356 0
M  V30 1990 H 194.475 4.52444 1.82058 0
M  V30 1991 H 193.48 5.49128 -0.27169 0
M  V30 1992 H 194.705 6.78598 -0.260957 0
M  V30 1993 H 192.651 6.27171 1.92334 0
M  V30 1994 H 192.568 7.52478 0.728887 0
M  V30 1995 H 193.836 7.55543 1.91766 0
M  V30 1996 N 198.065 0.39524 1.52563 0
M  V30 1997 C 199.013 -0.451859 2.28169 0
M  V30 1998 C 200.007 -1.05792 1.32304 0
M  V30 1999 O 201.213 -0.997718 1.49818 0
M  V30 2000 H 197.588 -0.164481 0.733792 0
M  V30 2001 H 199.559 0.207199 2.9768 0
M  V30 2002 C 198.308 -1.56385 3.10546 0
M  V30 2003 H 197.631 -1.10682 3.84174 0
M  V30 2004 H 199.071 -2.13067 3.66577 0
M  V30 2005 C 197.53 -2.52328 2.23231 0
M  V30 2006 O 198.06 -3.5588 1.86312 0
M  V30 2007 N 196.266 -2.22209 1.87274 0
M  V30 2008 H 195.813 -1.38033 2.17496 0
M  V30 2009 H 195.771 -2.86652 1.29143 0
M  V30 2010 N 199.544 -1.57102 0.125237 0
M  V30 2011 C 200.474 -2.18659 -0.819174 0
M  V30 2012 C 201.455 -1.12843 -1.27281 0
M  V30 2013 O 202.64 -1.41104 -1.33429 0
M  V30 2014 C 199.77 -2.79096 -2.06695 0
M  V30 2015 C 198.724 -3.90548 -1.75088 0
M  V30 2016 C 198.05 -4.37821 -3.06948 0
M  V30 2017 C 199.35 -5.12356 -1.01435 0
M  V30 2018 H 201.044 -2.9783 -0.306202 0
M  V30 2019 H 198.59 -1.4326 -0.145839 0
M  V30 2020 H 200.543 -3.2082 -2.73226 0
M  V30 2021 H 199.267 -1.97223 -2.60328 0
M  V30 2022 H 197.926 -3.49409 -1.10944 0
M  V30 2023 H 197.574 -3.52799 -3.58527 0
M  V30 2024 H 197.274 -5.12982 -2.86571 0
M  V30 2025 H 198.798 -4.822 -3.74587 0
M  V30 2026 H 200.212 -5.5106 -1.58132 0
M  V30 2027 H 198.609 -5.9314 -0.911319 0
M  V30 2028 H 199.679 -4.849 -0.00218681 0
M  V30 2029 N 201.022 0.148545 -1.56898 0
M  V30 2030 C 201.97 1.20265 -1.99096 0
M  V30 2031 C 202.964 1.44559 -0.883123 0
M  V30 2032 O 204.17 1.4487 -1.0683 0
M  V30 2033 H 200.545 0.404786 -0.63376 0
M  V30 2034 H 202.516 0.82004 -2.86911 0
M  V30 2035 C 201.265 2.52886 -2.3863 0
M  V30 2036 H 200.588 2.35021 -3.23427 0
M  V30 2037 H 202.028 3.25274 -2.7198 0
M  V30 2038 C 200.487 3.13315 -1.23837 0
M  V30 2039 O 201.017 3.98077 -0.538268 0
M  V30 2040 N 199.223 2.72742 -1.00301 0
M  V30 2041 H 198.77 2.03912 -1.5741 0
M  V30 2042 H 198.728 3.13507 -0.236838 0
M  V30 2043 N 202.5 1.5196 0.417844 0
M  V30 2044 C 203.748 1.65263 1.16329 0
M  V30 2045 C 204.069 0.380634 1.91249 0
M  V30 2046 O 203.339 -0.604214 1.86349 0
M  V30 2047 H 201.919 0.60912 0.432414 0
M  V30 2048 H 204.581 1.88969 0.477162 0
M  V30 2049 H 203.677 2.4896 1.88217 0
M  V30 2050 N 203.978 -0.674533 1.42435 0
M  V30 2051 C 205.203 -1.46784 1.46524 0
M  V30 2052 C 205.628 -1.87938 0.078066 0
M  V30 2053 O 204.986 -1.56014 -0.92354 0
M  V30 2054 C 205.034 -2.69307 2.39805 0
M  V30 2055 O 204.138 -3.67587 1.86959 0
M  V30 2056 H 203.479 -0.440959 0.496439 0
M  V30 2057 H 206.009 -0.827326 1.87127 0
M  V30 2058 H 206.019 -3.17374 2.56393 0
M  V30 2059 H 204.694 -2.38692 3.40586 0
M  V30 2060 H 203.271 -3.2662 1.79927 0
M  V30 2061 N 205.456 -1.28612 -0.910864 0
M  V30 2062 C 206.419 -1.12803 -1.9952 0
M  V30 2063 C 207.419 -0.0668264 -1.60661 0
M  V30 2064 O 208.609 -0.312847 -1.71368 0
M  V30 2065 C 205.741 -0.72254 -3.33155 0
M  V30 2066 H 206.934 -2.09109 -2.14973 0
M  V30 2067 H 204.487 -1.11639 -1.09391 0
M  V30 2068 H 205.222 0.241152 -3.23402 0
M  V30 2069 H 205.007 -1.48916 -3.62721 0
M  V30 2070 H 206.497 -0.634666 -4.12749 0
M  V30 2071 N 206.934 1.1197 -1.10907 0
M  V30 2072 C 208.181 1.83588 -0.854507 0
M  V30 2073 C 208.509 1.84357 0.6199 0
M  V30 2074 O 207.764 1.28809 1.47332 0
M  V30 2075 C 208.063 3.30749 -1.35425 0
M  V30 2076 C 207.729 3.50146 -2.84093 0
M  V30 2077 C 206.391 3.55148 -3.2469 0
M  V30 2078 C 208.743 3.56857 -3.79872 0
M  V30 2079 C 206.071 3.6441 -4.59806 0
M  V30 2080 C 208.423 3.6765 -5.14797 0
M  V30 2081 C 207.087 3.7091 -5.54961 0
M  V30 2082 H 206.357 0.671795 -0.312686 0
M  V30 2083 H 209.004 1.32091 -1.38652 0
M  V30 2084 H 207.309 3.84703 -0.742361 0
M  V30 2085 H 209.006 3.8464 -1.1337 0
M  V30 2086 H 205.596 3.46919 -2.51685 0
M  V30 2087 H 209.78 3.52258 -3.49611 0
M  V30 2088 H 205.036 3.65208 -4.9034 0
M  V30 2089 H 209.21 3.71786 -5.88853 0
M  V30 2090 H 206.837 3.7784 -6.59652 0
M  V30 2091 N 208.412 0.89855 1.29475 0
M  V30 2092 C 209.322 0.379974 2.31502 0
M  V30 2093 C 210.338 -0.524695 1.659 0
M  V30 2094 O 211.514 -0.414551 1.97087 0
M  V30 2095 C 208.579 -0.385138 3.44554 0
M  V30 2096 C 207.64 0.550914 4.2575 0
M  V30 2097 C 206.873 -0.177778 5.33404 0
M  V30 2098 O 207.096 -1.40189 5.52904 0
M  V30 2099 O 206.03 0.479106 5.9999 0
M  V30 2100 H 209.856 1.22639 2.77837 0
M  V30 2101 H 207.441 0.662834 1.33891 0
M  V30 2102 H 209.323 -0.817841 4.13388 0
M  V30 2103 H 207.998 -1.20763 3.0033 0
M  V30 2104 H 206.905 1.03271 3.59564 0
M  V30 2105 H 208.238 1.33979 4.73614 0
M  V30 2106 N 209.89 -1.43072 0.660911 0
M  V30 2107 C 211.115 -2.06584 0.183805 0
M  V30 2108 C 211.54 -1.49257 -1.14472 0
M  V30 2109 O 210.898 -0.605528 -1.70889 0
M  V30 2110 C 210.946 -3.60418 0.114434 0
M  V30 2111 O 210.05 -4.01981 -0.921137 0
M  V30 2112 H 209.391 -0.656669 0.0983994 0
M  V30 2113 H 211.921 -1.83447 0.906006 0
M  V30 2114 H 211.931 -4.07946 -0.0663394 0
M  V30 2115 H 210.606 -4.01519 1.08422 0
M  V30 2116 H 209.183 -3.66029 -0.71253 0
M  V30 2117 N 211.368 -0.403325 -1.52352 0
M  V30 2118 C 212.331 0.413051 -2.25447 0
M  V30 2119 C 213.331 0.978513 -1.276 0
M  V30 2120 O 214.521 0.858305 -1.51587 0
M  V30 2121 C 211.653 1.58087 -3.02029 0
M  V30 2122 H 212.846 -0.227094 -2.99039 0
M  V30 2123 H 210.399 -0.155722 -1.55522 0
M  V30 2124 H 211.134 2.25804 -2.32772 0
M  V30 2125 H 210.919 1.18195 -3.73861 0
M  V30 2126 H 212.409 2.1585 -3.57489 0
M  V30 2127 N 212.846 1.57033 -0.133567 0
M  V30 2128 C 213.779 2.11824 0.848872 0
M  V30 2129 C 214.757 1.03833 1.2513 0
M  V30 2130 O 215.941 1.31579 1.34978 0
M  V30 2131 C 213.068 2.62692 2.138 0
M  V30 2132 C 212.114 3.82705 1.88253 0
M  V30 2133 S 212.947 5.2438 1.08563 0
M  V30 2134 C 214.103 5.78627 2.38624 0
M  V30 2135 H 214.336 2.94824 0.38289 0
M  V30 2136 H 211.869 1.5419 0.0804796 0
M  V30 2137 H 213.827 2.92652 2.87863 0
M  V30 2138 H 212.488 1.79847 2.57515 0
M  V30 2139 H 211.681 4.16496 2.83809 0
M  V30 2140 H 211.283 3.53437 1.22305 0
M  V30 2141 H 213.575 5.8924 3.34369 0
M  V30 2142 H 214.518 6.76443 2.09358 0
M  V30 2143 H 214.926 5.06783 2.48658 0
M  V30 2144 N 214.325 -0.140222 1.56975 0
M  V30 2145 C 215.571 -0.852949 1.83991 0
M  V30 2146 C 215.904 -1.80512 0.716187 0
M  V30 2147 O 215.179 -1.92479 -0.279681 0
M  V30 2148 C 215.462 -1.6215 3.21527 0
M  V30 2149 C 215.315 -0.690363 4.4447 0
M  V30 2150 C 216.634 -2.58247 3.56366 0
M  V30 2151 H 213.753 -0.308634 0.669264 0
M  V30 2152 H 216.395 -0.117898 1.89634 0
M  V30 2153 H 214.545 -2.24812 3.16847 0
M  V30 2154 H 216.217 -0.0742264 4.6124 0
M  V30 2155 H 214.46 -0.000396433 4.338 0
M  V30 2156 H 215.131 -1.2643 5.37326 0
M  V30 2157 H 217.607 -2.05701 3.61699 0
M  V30 2158 H 216.483 -3.09067 4.53617 0
M  V30 2159 H 216.744 -3.39923 2.82674 0
M  V30 2160 N 215.803 -1.52179 -0.40978 0
M  V30 2161 C 216.751 -1.76086 -1.51975 0
M  V30 2162 C 217.745 -0.627964 -1.57331 0
M  V30 2163 O 218.951 -0.809993 -1.60745 0
M  V30 2164 H 215.326 -0.556829 -0.505416 0
M  V30 2165 H 217.297 -2.69077 -1.28996 0
M  V30 2166 C 216.046 -1.92799 -2.8935 0
M  V30 2167 H 215.369 -2.79392 -2.85972 0
M  V30 2168 H 216.809 -2.13527 -3.66309 0
M  V30 2169 C 215.268 -0.694923 -3.29655 0
M  V30 2170 O 215.798 0.13751 -4.01465 0
M  V30 2171 N 214.004 -0.53101 -2.85707 0
M  V30 2172 H 213.551 -1.20952 -2.27439 0
M  V30 2173 H 213.509 0.292718 -3.13034 0
M  V30 2174 N 217.281 0.66697 -1.42791 0
M  V30 2175 C 218.231 1.77313 -1.43332 0
M  V30 2176 C 219.215 1.5801 -0.303586 0
M  V30 2177 O 220.407 1.68356 -0.546385 0
M  V30 2178 C 217.536 3.15822 -1.34578 0
M  V30 2179 C 216.622 3.40721 -2.52528 0
M  V30 2180 N 217.013 3.36162 -3.77927 0
M  V30 2181 C 215.311 3.71387 -2.46956 0
M  V30 2182 C 216.012 3.60762 -4.56318 0
M  V30 2183 N 214.988 3.81908 -3.86843 0
M  V30 2184 H 218.79 1.72193 -2.38174 0
M  V30 2185 H 216.304 0.868114 -1.3725 0
M  V30 2186 H 218.301 3.951 -1.33048 0
M  V30 2187 H 216.961 3.22133 -0.407453 0
M  V30 2188 H 217.972 3.15885 -4.10411 0
M  V30 2189 H 214.649 3.84897 -1.61743 0
M  V30 2190 H 216.039 3.63132 -5.65318 0
M  V30 2191 N 218.759 1.29093 0.90403 0
M  V30 2192 C 220.005 1.16986 1.65656 0
M  V30 2193 C 220.338 -0.278925 1.92186 0
M  V30 2194 O 219.613 -1.2019 1.5292 0
M  V30 2195 C 219.896 1.97908 3.0084 0
M  V30 2196 C 219.749 3.50903 2.81403 0
M  V30 2197 C 221.068 1.80208 4.01513 0
M  V30 2198 H 218.187 0.426346 0.601164 0
M  V30 2199 H 220.829 1.58518 1.04747 0
M  V30 2200 H 218.979 1.62616 3.52829 0
M  V30 2201 H 220.651 3.96153 2.36348 0
M  V30 2202 H 218.894 3.76045 2.1627 0
M  V30 2203 H 219.565 4.02791 3.77443 0
M  V30 2204 H 222.041 2.11025 3.58619 0
M  V30 2205 H 220.917 2.39184 4.94047 0
M  V30 2206 H 221.178 0.756119 4.35586 0
M  V30 2207 N 220.237 -1.11381 1.11499 0
M  V30 2208 C 221.465 -1.86934 0.88675 0
M  V30 2209 C 221.88 -1.80195 -0.563476 0
M  V30 2210 O 221.237 -1.18367 -1.38908 0
M  V30 2211 C 221.288 -3.35722 1.34064 0
M  V30 2212 O 221.009 -3.4232 2.73401 0
M  V30 2213 C 222.51 -4.2818 1.14791 0
M  V30 2214 H 219.73 -0.591117 0.317523 0
M  V30 2215 H 222.274 -1.40865 1.48248 0
M  V30 2216 H 220.429 -3.79294 0.788355 0
M  V30 2217 H 220.843 -4.34971 2.93087 0
M  V30 2218 H 222.317 -5.30817 1.5145 0
M  V30 2219 H 222.794 -4.39113 0.0875279 0
M  V30 2220 H 223.4 -3.90402 1.68721 0
M  V30 2221 N 221.715 -0.905404 -1.28997 0
M  V30 2222 C 222.662 -0.385892 -2.27551 0
M  V30 2223 C 223.632 0.535113 -1.57244 0
M  V30 2224 O 224.817 0.459119 -1.85194 0
M  V30 2225 C 221.957 0.375461 -3.43051 0
M  V30 2226 C 221.07 -0.577092 -4.28128 0
M  V30 2227 C 220.205 0.201879 -5.30816 0
M  V30 2228 C 219.244 -0.744829 -6.07551 0
M  V30 2229 N 218.381 9.42587e-05 -7.021 0
M  V30 2230 H 223.221 -1.23139 -2.71368 0
M  V30 2231 H 220.758 -0.618542 -1.33463 0
M  V30 2232 H 222.716 0.832992 -4.088 0
M  V30 2233 H 221.346 1.18537 -3.00248 0
M  V30 2234 H 220.398 -1.15315 -3.62501 0
M  V30 2235 H 221.71 -1.30152 -4.8152 0
M  V30 2236 H 220.864 0.720351 -6.02408 0
M  V30 2237 H 219.603 0.959413 -4.7817 0
M  V30 2238 H 218.608 -1.27475 -5.34818 0
M  V30 2239 H 219.833 -1.50178 -6.62286 0
M  V30 2240 H 217.779 0.739791 -6.51815 0
M  V30 2241 H 217.696 -0.664321 -7.53076 0
M  V30 2242 H 218.964 0.498644 -7.77903 0
M  V30 2243 N 223.193 1.4272 -0.668489 0
M  V30 2244 C 224.439 2.01923 -0.188419 0
M  V30 2245 C 224.772 1.52704 1.19979 0
M  V30 2246 O 224.047 0.726566 1.8042 0
M  V30 2247 C 224.33 3.59451 -0.216085 0
M  V30 2248 C 224.183 4.18864 -1.6393 0
M  V30 2249 C 225.502 4.37903 0.439179 0
M  V30 2250 H 222.621 0.733674 -0.0699412 0
M  V30 2251 H 225.263 1.69822 -0.852076 0
M  V30 2252 H 223.413 3.86929 0.349012 0
M  V30 2253 H 225.085 4.02362 -2.25616 0
M  V30 2254 H 223.328 3.74933 -2.18193 0
M  V30 2255 H 223.999 5.27987 -1.61039 0
M  V30 2256 H 226.475 4.16079 -0.0417878 0
M  V30 2257 H 225.351 5.47519 0.389157 0
M  V30 2258 H 225.612 4.15303 1.51577 0
M  V30 2259 N 224.671 0.411399 1.52136 0
M  V30 2260 C 225.634 -0.401089 2.25663 0
M  V30 2261 C 226.634 -0.971732 1.28117 0
M  V30 2262 O 227.824 -0.850254 1.52041 0
M  V30 2263 C 224.956 -1.56483 3.02863 0
M  V30 2264 H 226.149 0.24295 2.98914 0
M  V30 2265 H 223.702 0.163968 1.55438 0
M  V30 2266 H 224.437 -2.24567 2.33967 0
M  V30 2267 H 224.222 -1.16211 3.74483 0
M  V30 2268 H 225.712 -2.13951 3.58629 0
M  V30 2269 N 226.149 -1.5696 0.141893 0
M  V30 2270 C 227.426 -1.87553 -0.555281 0
M  V30 2271 C 227.806 -1.04699 -1.83306 0
M  V30 2272 O 227.154 -0.132346 -2.28116 0
M  V30 2273 C 227.364 -3.39093 -0.825664 0
M  V30 2274 C 228.712 -4.08199 -1.16869 0
M  V30 2275 O 229.736 -3.44242 -0.915185 0
M  V30 2276 O 228.595 -5.21139 -1.6455 0
M  V30 2277 H 225.689 -0.777188 -0.282679 0
M  V30 2278 H 228.235 -1.68763 0.17812 0
M  V30 2279 H 227.007 -3.91221 0.0788633 0
M  V30 2280 H 226.63 -3.63393 -1.61343 0
M  V30 2281 N 227.627 0.131896 -1.57047 0
M  V30 2282 C 228.577 1.1679 -1.95816 0
M  V30 2283 C 229.561 1.37756 -0.831393 0
M  V30 2284 O 230.753 1.39065 -1.09499 0
M  V30 2285 C 227.882 2.49778 -2.35512 0
M  V30 2286 C 226.968 2.32342 -3.54793 0
M  V30 2287 N 227.359 1.8469 -4.70875 0
M  V30 2288 C 225.657 2.63043 -3.60173 0
M  V30 2289 C 226.358 1.80656 -5.52936 0
M  V30 2290 N 225.334 2.24528 -4.95064 0
M  V30 2291 H 229.136 0.791818 -2.83033 0
M  V30 2292 H 226.65 0.339791 -1.58805 0
M  V30 2293 H 228.647 3.24692 -2.61498 0
M  V30 2294 H 227.307 2.88156 -1.49654 0
M  V30 2295 H 228.318 1.54429 -4.9434 0
M  V30 2296 H 224.995 3.05193 -2.84892 0
M  V30 2297 H 226.385 1.45178 -6.56028 0
M  V30 2298 N 229.106 1.52395 0.401703 0
M  V30 2299 C 230.353 1.66817 1.14796 0
M  V30 2300 C 230.681 0.401772 1.90305 0
M  V30 2301 O 229.936 -0.615487 1.85769 0
M  V30 2302 C 230.235 2.84578 2.16217 0
M  V30 2303 C 229.901 4.22513 1.5746 0
M  V30 2304 C 228.563 4.60029 1.41161 0
M  V30 2305 C 230.915 5.0844 1.14622 0
M  V30 2306 C 228.243 5.81144 0.80552 0
M  V30 2307 C 230.595 6.30167 0.55428 0
M  V30 2308 C 229.259 6.66426 0.378482 0
M  V30 2309 H 228.529 0.610428 0.420069 0
M  V30 2310 H 231.176 1.86512 0.434212 0
M  V30 2311 H 229.481 2.59248 2.93764 0
M  V30 2312 H 231.178 2.92933 2.73845 0
M  V30 2313 H 227.768 3.92953 1.71132 0
M  V30 2314 H 231.952 4.80034 1.26021 0
M  V30 2315 H 227.208 6.07855 0.657399 0
M  V30 2316 H 231.382 6.96071 0.213983 0
M  V30 2317 H 229.009 7.60143 -0.0932606 0
M  V30 2318 N 230.584 -0.659388 1.43143 0
M  V30 2319 C 231.494 -1.80167 1.50256 0
M  V30 2320 C 232.51 -1.69571 0.390106 0
M  V30 2321 O 233.686 -1.90849 0.643319 0
M  V30 2322 C 230.751 -3.16409 1.41725 0
M  V30 2323 C 229.812 -3.38848 2.63591 0
M  V30 2324 C 229.045 -4.68591 2.55458 0
M  V30 2325 O 229.268 -5.47532 1.59891 0
M  V30 2326 O 228.202 -4.92614 3.45854 0
M  V30 2327 H 232.028 -1.77121 2.46702 0
M  V30 2328 H 229.613 -0.817092 1.25076 0
M  V30 2329 H 231.495 -3.9768 1.39387 0
M  V30 2330 H 230.17 -3.20059 0.484118 0
M  V30 2331 H 229.077 -2.57366 2.71502 0
M  V30 2332 H 230.41 -3.4004 3.55856 0
M  V30 2333 N 232.062 -1.29571 -0.897171 0
M  V30 2334 C 233.31 -1.17456 -1.64464 0
M  V30 2335 C 233.631 0.273698 -1.9307 0
M  V30 2336 O 232.901 1.18684 -1.55855 0
M  V30 2337 H 231.481 -0.431706 -0.609622 0
M  V30 2338 H 234.143 -1.62531 -1.07562 0
M  V30 2339 H 233.239 -1.72648 -2.59998 0
M  V30 2340 N 233.54 1.10788 -1.12088 0
M  V30 2341 C 234.487 2.17025 -0.785407 0
M  V30 2342 C 235.457 1.64265 0.246191 0
M  V30 2343 O 236.642 1.90412 0.121584 0
M  V30 2344 C 233.782 3.44249 -0.242177 0
M  V30 2345 C 232.895 4.1098 -1.33115 0
M  V30 2346 C 232.03 5.25911 -0.747741 0
M  V30 2347 C 231.069 5.84538 -1.81609 0
M  V30 2348 N 230.206 6.90853 -1.25167 0
M  V30 2349 H 235.046 2.45066 -1.69548 0
M  V30 2350 H 232.583 1.20297 -0.846582 0
M  V30 2351 H 234.541 4.17101 0.0908026 0
M  V30 2352 H 233.171 3.16571 0.631072 0
M  V30 2353 H 232.223 3.36133 -1.78097 0
M  V30 2354 H 233.535 4.50601 -2.13917 0
M  V30 2355 H 232.689 6.056 -0.365216 0
M  V30 2356 H 231.428 4.87614 0.0915188 0
M  V30 2357 H 230.433 5.03522 -2.20785 0
M  V30 2358 H 231.658 6.249 -2.6585 0
M  V30 2359 H 229.604 6.54562 -0.434174 0
M  V30 2360 H 229.521 7.29166 -1.99633 0
M  V30 2361 H 230.789 7.7433 -0.896259 0
M  V30 2362 N 235.018 0.912232 1.28515 0
M  V30 2363 C 236.264 0.545405 1.95328 0
M  V30 2364 C 236.597 -0.908313 1.71649 0
M  V30 2365 O 235.872 -1.64575 1.03659 0
M  V30 2366 C 236.155 0.853483 3.4984 0
M  V30 2367 C 236.008 2.35982 3.82926 0
M  V30 2368 C 237.327 0.348589 4.38717 0
M  V30 2369 H 234.446 0.199626 0.709449 0
M  V30 2370 H 237.088 1.1412 1.5191 0
M  V30 2371 H 235.238 0.34643 3.86952 0
M  V30 2372 H 236.91 2.93738 3.55691 0
M  V30 2373 H 235.153 2.81543 3.30024 0
M  V30 2374 H 235.824 2.52593 4.90816 0
M  V30 2375 H 238.3 0.78294 4.08668 0
M  V30 2376 H 237.176 0.593242 5.45685 0
M  V30 2377 H 237.437 -0.751049 4.35674 0
M  V30 2378 N 236.496 -1.42363 0.676048 0
M  V30 2379 C 237.459 -2.29199 0.00766941 0
M  V30 2380 C 238.459 -1.43389 -0.727745 0
M  V30 2381 O 239.649 -1.64764 -0.56556 0
M  V30 2382 C 236.781 -3.2591 -0.999785 0
M  V30 2383 H 237.974 -2.89794 0.771988 0
M  V30 2384 H 235.527 -1.50024 0.438468 0
M  V30 2385 H 236.262 -2.70256 -1.79255 0
M  V30 2386 H 236.047 -3.89202 -0.475829 0
M  V30 2387 H 237.537 -3.91028 -1.46583 0
M  V30 2388 N 237.974 -0.419461 -1.51915 0
M  V30 2389 C 239.199 0.154572 -2.06823 0
M  V30 2390 C 239.624 1.3722 -1.28656 0
M  V30 2391 O 238.982 1.78461 -0.319583 0
M  V30 2392 C 239.03 0.473172 -3.57482 0
M  V30 2393 O 238.134 1.56255 -3.81652 0
M  V30 2394 H 237.475 0.0096924 -0.663929 0
M  V30 2395 H 240.005 -0.595642 -1.95738 0
M  V30 2396 H 240.015 0.728825 -4.01438 0
M  V30 2397 H 238.69 -0.416873 -4.13805 0
M  V30 2398 H 237.267 1.29825 -3.49571 0
M  V30 2399 N 239.452 1.56882 -0.150215 0
M  V30 2400 C 240.698 1.97299 0.494427 0
M  V30 2401 C 241.053 1.0338 1.62266 0
M  V30 2402 O 240.346 0.0694497 1.91474 0
M  V30 2403 C 240.54 3.41801 1.04437 0
M  V30 2404 C 240.369 4.49691 -0.0290451 0
M  V30 2405 C 239.139 5.03095 -0.47156 0
M  V30 2406 C 241.337 5.07693 -0.821703 0
M  V30 2407 N 239.319 5.94593 -1.52749 0
M  V30 2408 C 240.69 5.95431 -1.72805 0
M  V30 2409 C 242.745 4.90256 -0.869134 0
M  V30 2410 C 241.448 6.67599 -2.67777 0
M  V30 2411 C 243.474 5.63127 -1.8067 0
M  V30 2412 C 242.836 6.50576 -2.70057 0
M  V30 2413 H 238.935 0.76755 0.149639 0
M  V30 2414 H 241.519 1.93145 -0.24556 0
M  V30 2415 H 239.69 3.46541 1.75396 0
M  V30 2416 H 241.422 3.69272 1.6559 0
M  V30 2417 H 238.177 4.73543 -0.0732101 0
M  V30 2418 H 238.601 6.45047 -2.05531 0
M  V30 2419 H 243.243 4.22363 -0.192134 0
M  V30 2420 H 240.961 7.34717 -3.36476 0
M  V30 2421 H 244.547 5.51629 -1.84924 0
M  V30 2422 H 243.427 7.05974 -3.41424 0
M  V30 2423 N 240.93 -0.123565 1.57115 0
M  V30 2424 C 242.207 -0.862196 1.75572 0
M  V30 2425 C 242.587 -1.98279 0.724475 0
M  V30 2426 O 241.935 -2.27102 -0.252407 0
M  V30 2427 C 242.145 -1.38309 3.20424 0
M  V30 2428 C 243.493 -1.83724 3.82793 0
M  V30 2429 O 244.517 -1.47999 3.23998 0
M  V30 2430 O 243.376 -2.49685 4.86127 0
M  V30 2431 H 240.47 -0.409113 0.718718 0
M  V30 2432 H 243.016 -0.107661 1.69358 0
M  V30 2433 H 241.788 -0.578889 3.86994 0
M  V30 2434 H 241.411 -2.20046 3.31158 0
M  V30 2435 N 242.408 -1.52605 -0.393616 0
M  V30 2436 C 243.654 -1.67672 -1.14079 0
M  V30 2437 C 243.987 -0.413121 -1.89755 0
M  V30 2438 O 243.262 0.588952 -1.85369 0
M  V30 2439 C 243.545 -2.9088 -2.12276 0
M  V30 2440 C 243.398 -4.27329 -1.40394 0
M  V30 2441 C 244.717 -3.09628 -3.12759 0
M  V30 2442 H 241.836 -0.610168 -0.413356 0
M  V30 2443 H 244.478 -1.85193 -0.424696 0
M  V30 2444 H 242.628 -2.76073 -2.73342 0
M  V30 2445 H 244.3 -4.53894 -0.82327 0
M  V30 2446 H 242.543 -4.2802 -0.705801 0
M  V30 2447 H 243.214 -5.09615 -2.12123 0
M  V30 2448 H 245.69 -3.23436 -2.61779 0
M  V30 2449 H 244.566 -3.97322 -3.78717 0
M  V30 2450 H 244.827 -2.23637 -3.81365 0
M  V30 2451 N 243.887 0.651787 -1.4349 0
M  V30 2452 C 245.133 1.41376 -1.45398 0
M  V30 2453 C 245.466 1.94041 -0.0784823 0
M  V30 2454 O 244.741 1.72379 0.900878 0
M  V30 2455 C 245.024 2.59414 -2.49752 0
M  V30 2456 C 244.877 2.12232 -3.96582 0
M  V30 2457 C 246.196 3.61626 -2.50827 0
M  V30 2458 H 243.315 0.512719 -0.529422 0
M  V30 2459 H 245.957 0.738796 -1.75048 0
M  V30 2460 H 244.107 3.16997 -2.246 0
M  V30 2461 H 245.779 1.59639 -4.32797 0
M  V30 2462 H 244.022 1.43592 -4.09346 0
M  V30 2463 H 244.693 2.9712 -4.65214 0
M  V30 2464 H 247.169 3.13805 -2.7325 0
M  V30 2465 H 246.045 4.41766 -3.25783 0
M  V30 2466 H 246.306 4.14314 -1.5426 0
M  V30 2467 N 245.365 1.30045 0.890287 0
M  V30 2468 C 246.313 1.15873 2.01683 0
M  V30 2469 C 247.307 0.0719403 1.69247 0
M  V30 2470 O 248.513 0.232414 1.78493 0
M  V30 2471 H 244.888 0.358203 0.661207 0
M  V30 2472 H 246.859 2.11229 2.10772 0
M  V30 2473 C 245.608 0.861842 3.36849 0
M  V30 2474 H 244.931 1.69016 3.62317 0
M  V30 2475 H 246.371 0.802762 4.16331 0
M  V30 2476 C 244.83 -0.435132 3.34078 0
M  V30 2477 O 245.36 -1.4583 3.74295 0
M  V30 2478 N 243.566 -0.444377 2.87182 0
M  V30 2479 H 243.113 0.388723 2.5465 0
M  V30 2480 H 243.071 -1.31213 2.85711 0
M  V30 2481 N 246.843 -1.10192 1.12674 0
M  V30 2482 C 247.753 -2.20172 0.810026 0
M  V30 2483 C 248.769 -1.72821 -0.202188 0
M  V30 2484 O 249.945 -2.01369 -0.0351691 0
M  V30 2485 C 247.01 -3.45631 0.272007 0
M  V30 2486 C 246.071 -4.07704 1.34447 0
M  V30 2487 C 245.304 -5.27175 0.832029 0
M  V30 2488 O 245.527 -5.69425 -0.333284 0
M  V30 2489 O 244.461 -5.80168 1.60277 0
M  V30 2490 H 248.287 -2.49701 1.72867 0
M  V30 2491 H 245.872 -1.18977 0.903597 0
M  V30 2492 H 247.754 -4.21394 -0.0230219 0
M  V30 2493 H 246.429 -3.17723 -0.619164 0
M  V30 2494 H 245.336 -3.33614 1.6927 0
M  V30 2495 H 246.669 -4.3982 2.2095 0
M  V30 2496 N 248.321 -0.919034 -1.28029 0
M  V30 2497 C 249.284 -0.416182 -2.2539 0
M  V30 2498 C 250.284 0.460438 -1.54067 0
M  V30 2499 O 251.474 0.262744 -1.72207 0
M  V30 2500 C 248.606 0.402707 -3.38513 0
M  V30 2501 H 249.799 -1.27629 -2.71387 0
M  V30 2502 H 247.352 -0.698919 -1.39803 0
M  V30 2503 H 248.087 1.282 -2.97885 0
M  V30 2504 H 247.872 -0.225698 -3.9145 0
M  V30 2505 H 249.362 0.745191 -4.10897 0
M  V30 2506 N 249.799 1.42003 -0.683588 0
M  V30 2507 C 251.046 2.01413 -0.209514 0
M  V30 2508 C 251.374 1.54088 1.1869 0
M  V30 2509 O 250.629 0.737591 1.81268 0
M  V30 2510 C 250.928 3.56827 -0.202357 0
M  V30 2511 C 250.594 4.23617 -1.54464 0
M  V30 2512 C 249.256 4.41577 -1.91215 0
M  V30 2513 C 251.608 4.61178 -2.42826 0
M  V30 2514 C 248.936 4.9437 -3.15935 0
M  V30 2515 C 251.288 5.15355 -3.66867 0
M  V30 2516 C 249.952 5.31528 -4.03776 0
M  V30 2517 H 249.222 0.737023 -0.0766668 0
M  V30 2518 H 251.869 1.70067 -0.880312 0
M  V30 2519 H 250.174 3.87892 0.551969 0
M  V30 2520 H 251.871 4.00588 0.181793 0
M  V30 2521 H 248.461 4.10004 -1.24877 0
M  V30 2522 H 252.645 4.46968 -2.15717 0
M  V30 2523 H 247.901 5.05076 -3.44541 0
M  V30 2524 H 252.075 5.43402 -4.35531 0
M  V30 2525 H 249.702 5.72199 -5.00492 0
M  V30 2526 N 251.277 0.427512 1.51691 0
M  V30 2527 C 252.24 -0.377132 2.26076 0
M  V30 2528 C 253.24 -0.958089 1.29141 0
M  V30 2529 O 254.43 -0.83408 1.52934 0
M  V30 2530 C 251.562 -1.53262 3.04506 0
M  V30 2531 H 252.755 0.27464 2.9864 0
M  V30 2532 H 250.308 0.180445 1.55255 0
M  V30 2533 H 251.043 -2.22072 2.36335 0
M  V30 2534 H 250.828 -1.12232 3.75694 0
M  V30 2535 H 252.318 -2.10135 3.60878 0
M  V30 2536 N 252.755 -1.56801 0.158532 0
M  V30 2537 C 254.032 -1.88131 -0.535357 0
M  V30 2538 C 254.412 -1.06638 -1.82186 0
M  V30 2539 O 253.76 -0.156533 -2.27963 0
M  V30 2540 C 253.97 -3.39949 -0.789653 0
M  V30 2541 C 255.318 -4.09416 -1.12533 0
M  V30 2542 O 256.342 -3.45194 -0.878622 0
M  V30 2543 O 255.201 -5.22855 -1.59014 0
M  V30 2544 H 252.295 -0.780143 -0.27442 0
M  V30 2545 H 254.841 -1.68564 0.19601 0
M  V30 2546 H 253.613 -3.91115 0.120353 0
M  V30 2547 H 253.236 -3.65084 -1.57479 0
M  V30 2548 N 254.233 0.115231 -1.57178 0
M  V30 2549 C 255.481 0.820727 -1.84685 0
M  V30 2550 C 255.802 1.80237 -0.744279 0
M  V30 2551 O 255.072 1.94529 0.231375 0
M  V30 2552 H 253.652 0.306084 -0.681411 0
M  V30 2553 H 256.314 0.101656 -1.94635 0
M  V30 2554 H 255.41 1.36366 -2.80733 0
M  V30 2555 N 255.711 1.52812 0.385517 0
M  V30 2556 C 256.988 1.5861 1.14465 0
M  V30 2557 C 257.368 0.381402 2.07626 0
M  V30 2558 O 256.716 -0.629999 2.19643 0
M  V30 2559 C 256.926 2.92664 1.90128 0
M  V30 2560 C 258.274 3.46526 2.45367 0
M  V30 2561 O 259.298 2.94562 2.0028 0
M  V30 2562 O 258.157 4.37323 3.27736 0
M  V30 2563 H 255.251 0.639855 0.523941 0
M  V30 2564 H 257.797 1.65149 0.390389 0
M  V30 2565 H 256.569 3.71788 1.22022 0
M  V30 2566 H 256.192 2.89527 2.72507 0
M  V30 2567 N 257.189 -0.644168 1.43834 0
M  V30 2568 C 258.437 -1.40117 1.45642 0
M  V30 2569 C 258.758 -1.94814 0.0852413 0
M  V30 2570 O 258.028 -1.74988 -0.880688 0
M  V30 2571 H 256.608 -0.52005 0.536243 0
M  V30 2572 H 259.27 -0.7591 1.7951 0
M  V30 2573 H 258.366 -2.23902 2.17427 0
M  V30 2574 N 258.668 -1.30515 -0.883378 0
M  V30 2575 C 260.079 -1.17509 -1.45081 0
M  V30 2576 C 260.43 0.223605 -1.94922 0
M  V30 2577 O 259.555 1.12041 -1.85137 0
M  V30 2578 C 260.15 -2.12715 -2.63701 0
M  V30 2579 C 258.709 -2.03682 -3.16529 0
M  V30 2580 C 257.856 -2.02706 -1.89224 0
M  V30 2581 H 260.807 -1.42762 -0.693165 0
M  V30 2582 H 260.828 -1.70891 -3.39965 0
M  V30 2583 H 260.34 -3.14505 -2.27395 0
M  V30 2584 H 258.441 -1.05039 -3.57488 0
M  V30 2585 H 258.554 -2.92146 -3.7972 0
M  V30 2586 H 256.918 -1.4753 -2.07622 0
M  V30 2587 H 257.701 -3.06229 -1.55174 0
M  V30 2588 N 260.146 1.09593 -1.13257 0
M  V30 2589 C 261.557 1.63229 -0.906274 0
M  V30 2590 C 261.908 1.8811 0.557578 0
M  V30 2591 O 261.033 1.62953 1.42391 0
M  V30 2592 C 261.628 2.96535 -1.63867 0
M  V30 2593 C 260.187 3.47003 -1.45828 0
M  V30 2594 C 259.334 2.2145 -1.66898 0
M  V30 2595 H 262.285 0.92978 -1.28611 0
M  V30 2596 H 262.306 3.64411 -1.09476 0
M  V30 2597 H 261.818 2.78394 -2.70404 0
M  V30 2598 H 259.919 3.70272 -0.415848 0
M  V30 2599 H 260.032 4.24551 -2.2202 0
M  V30 2600 H 258.396 2.30022 -1.09371 0
M  V30 2601 H 259.179 2.0583 -2.74752 0
M  V30 2602 N 261.624 0.925811 1.2754 0
M  V30 2603 C 262.556 0.380753 2.26015 0
M  V30 2604 C 263.569 -0.487485 1.5533 0
M  V30 2605 O 264.758 -0.300413 1.75954 0
M  V30 2606 C 261.858 -0.473259 3.35579 0
M  V30 2607 C 261.031 0.375249 4.35787 0
M  V30 2608 C 260.09 -0.415809 5.24555 0
M  V30 2609 O 259.116 0.175834 5.68928 0
M  V30 2610 N 260.318 -1.71607 5.54555 0
M  V30 2611 H 263.083 1.22725 2.73421 0
M  V30 2612 H 260.644 0.793037 1.41147 0
M  V30 2613 H 262.636 -1.00949 3.91907 0
M  V30 2614 H 261.206 -1.2205 2.87789 0
M  V30 2615 H 260.426 1.09279 3.7875 0
M  V30 2616 H 261.714 0.955399 4.99749 0
M  V30 2617 H 261.112 -2.2191 5.20358 0
M  V30 2618 H 259.669 -2.19887 6.1359 0
M  V30 2619 N 263.102 -1.41638 0.69111 0
M  V30 2620 C 264.379 -1.95036 0.148421 0
M  V30 2621 C 264.759 -1.63072 -1.34055 0
M  V30 2622 O 264.107 -0.93538 -2.08478 0
M  V30 2623 C 264.317 -3.46279 0.434951 0
M  V30 2624 C 265.665 -4.23069 0.360275 0
M  V30 2625 O 266.689 -3.54277 0.369613 0
M  V30 2626 O 265.548 -5.45583 0.316534 0
M  V30 2627 H 262.642 -0.826908 0.0123654 0
M  V30 2628 H 265.188 -1.5138 0.766963 0
M  V30 2629 H 263.96 -3.6281 1.46576 0
M  V30 2630 H 263.583 -3.97019 -0.214787 0
M  V30 2631 N 264.58 -0.43555 -1.51462 0
M  V30 2632 C 265.805 0.132627 -2.06976 0
M  V30 2633 C 266.23 1.35848 -1.30104 0
M  V30 2634 O 265.588 1.78112 -0.338493 0
M  V30 2635 C 265.636 0.43523 -3.57964 0
M  V30 2636 O 264.74 1.52198 -3.83288 0
M  V30 2637 H 264.081 0.00265 -0.663995 0
M  V30 2638 H 266.611 -0.616369 -1.95095 0
M  V30 2639 H 266.621 0.686206 -4.02188 0
M  V30 2640 H 265.296 -0.460739 -4.1334 0
M  V30 2641 H 263.873 1.2611 -3.50928 0
M  V30 2642 N 266.058 1.56714 -0.166846 0
M  V30 2643 C 267.021 2.16539 0.751232 0
M  V30 2644 C 268.021 1.11228 1.16125 0
M  V30 2645 O 269.211 1.36765 1.07894 0
M  V30 2646 C 266.343 2.74462 2.02196 0
M  V30 2647 H 267.536 2.99013 0.230499 0
M  V30 2648 H 265.089 1.56081 0.0826982 0
M  V30 2649 H 265.824 1.95709 2.58589 0
M  V30 2650 H 265.609 3.51527 1.73698 0
M  V30 2651 H 267.099 3.20489 2.67725 0
M  V30 2652 N 267.536 -0.106894 1.57237 0
M  V30 2653 C 268.783 -0.812526 1.85484 0
M  V30 2654 C 269.111 -1.79304 0.753687 0
M  V30 2655 O 268.366 -1.94047 -0.253853 0
M  V30 2656 C 268.665 -1.58628 3.20268 0
M  V30 2657 C 268.331 -0.748967 4.44636 0
M  V30 2658 C 266.993 -0.518104 4.78403 0
M  V30 2659 C 269.345 -0.166122 5.20935 0
M  V30 2660 C 266.673 0.305659 5.85903 0
M  V30 2661 C 269.025 0.644899 6.29304 0
M  V30 2662 C 267.689 0.885965 6.61594 0
M  V30 2663 H 266.959 -0.297324 0.678734 0
M  V30 2664 H 269.606 -0.0744332 1.91355 0
M  V30 2665 H 267.911 -2.39562 3.10028 0
M  V30 2666 H 269.608 -2.13643 3.39349 0
M  V30 2667 H 266.198 -0.939006 4.18187 0
M  V30 2668 H 270.382 -0.33167 4.95191 0
M  V30 2669 H 265.638 0.501528 6.0934 0
M  V30 2670 H 269.812 1.10345 6.87602 0
M  V30 2671 H 267.439 1.52609 7.44725 0
M  V30 2672 N 269.014 -1.53014 -0.377408 0
M  V30 2673 C 269.946 -1.74884 -1.48149 0
M  V30 2674 C 270.959 -0.629433 -1.5014 0
M  V30 2675 O 272.148 -0.905416 -1.53833 0
M  V30 2676 C 269.248 -1.80299 -2.86959 0
M  V30 2677 C 268.421 -3.09776 -3.08801 0
M  V30 2678 C 267.48 -3.06586 -4.27658 0
M  V30 2679 O 266.506 -3.80419 -4.23403 0
M  V30 2680 N 267.708 -2.26578 -5.34455 0
M  V30 2681 H 270.473 -2.70147 -1.29771 0
M  V30 2682 H 268.034 -1.51646 -0.56703 0
M  V30 2683 H 270.026 -1.75657 -3.64591 0
M  V30 2684 H 268.596 -0.92372 -2.98641 0
M  V30 2685 H 267.816 -3.27815 -2.18931 0
M  V30 2686 H 269.104 -3.95366 -3.20255 0
M  V30 2687 H 268.502 -1.66081 -5.40771 0
M  V30 2688 H 267.059 -2.27766 -6.10709 0
M  V30 2689 N 270.492 0.636531 -1.44174 0
M  V30 2690 C 271.424 1.7618 -1.46606 0
M  V30 2691 C 272.437 1.58768 -0.360091 0
M  V30 2692 O 273.626 1.67181 -0.625518 0
M  V30 2693 C 270.726 3.13833 -1.27915 0
M  V30 2694 C 269.899 3.57753 -2.51658 0
M  V30 2695 C 268.958 4.74265 -2.27945 0
M  V30 2696 O 267.984 4.82852 -3.01401 0
M  V30 2697 N 269.186 5.65604 -1.30662 0
M  V30 2698 H 271.951 1.74567 -2.43612 0
M  V30 2699 H 269.512 0.820924 -1.39544 0
M  V30 2700 H 271.504 3.8949 -1.09907 0
M  V30 2701 H 270.074 3.10121 -0.39293 0
M  V30 2702 H 269.294 2.72362 -2.84978 0
M  V30 2703 H 270.582 3.83847 -3.33974 0
M  V30 2704 H 269.98 5.61354 -0.699844 0
M  V30 2705 H 268.537 6.40913 -1.18634 0
M  V30 2706 N 271.97 1.30982 0.876444 0
M  V30 2707 C 272.917 1.18085 1.98304 0
M  V30 2708 C 273.887 0.0682263 1.6596 0
M  V30 2709 O 275.072 0.239937 1.89285 0
M  V30 2710 C 272.212 0.887475 3.33493 0
M  V30 2711 C 271.325 2.08281 3.78475 0
M  V30 2712 C 270.46 1.72678 5.0235 0
M  V30 2713 C 269.499 2.88657 5.39762 0
M  V30 2714 N 268.636 2.53292 6.54819 0
M  V30 2715 H 273.476 2.1275 2.08666 0
M  V30 2716 H 271.013 1.05839 1.02159 0
M  V30 2717 H 272.971 0.697961 4.1132 0
M  V30 2718 H 271.601 -0.022315 3.22792 0
M  V30 2719 H 270.653 2.3833 2.96484 0
M  V30 2720 H 271.965 2.95108 4.02135 0
M  V30 2721 H 271.119 1.50151 5.87826 0
M  V30 2722 H 269.858 0.830327 4.8058 0
M  V30 2723 H 268.863 3.1184 4.52809 0
M  V30 2724 H 270.088 3.79002 5.63502 0
M  V30 2725 H 268.034 1.66163 6.34607 0
M  V30 2726 H 267.951 3.3365 6.7839 0
M  V30 2727 H 269.219 2.34143 7.43503 0
M  V30 2728 N 273.449 -1.08991 1.13837 0
M  V30 2729 C 274.379 -2.17771 0.842507 0
M  V30 2730 C 275.36 -1.6892 -0.20001 0
M  V30 2731 O 276.545 -1.94113 -0.0579731 0
M  V30 2732 C 273.675 -3.4589 0.312644 0
M  V30 2733 C 272.629 -4.08099 1.28992 0
M  V30 2734 C 271.955 -5.31098 0.619623 0
M  V30 2735 C 273.255 -4.50077 2.65005 0
M  V30 2736 H 274.949 -2.42777 1.75213 0
M  V30 2737 H 272.495 -1.16682 0.843875 0
M  V30 2738 H 274.448 -4.21297 0.0933043 0
M  V30 2739 H 273.172 -3.20419 -0.632382 0
M  V30 2740 H 271.831 -3.34717 1.49533 0
M  V30 2741 H 271.479 -5.0191 -0.33102 0
M  V30 2742 H 271.179 -5.73674 1.27167 0
M  V30 2743 H 272.703 -6.09224 0.409669 0
M  V30 2744 H 274.117 -5.16688 2.48407 0
M  V30 2745 H 272.514 -5.03553 3.26427 0
M  V30 2746 H 273.584 -3.62257 3.22332 0
M  V30 2747 N 274.927 -0.932562 -1.27047 0
M  V30 2748 C 276.175 -0.574422 -1.93765 0
M  V30 2749 C 276.496 0.887993 -1.73608 0
M  V30 2750 O 275.766 1.62999 -1.08665 0
M  V30 2751 H 274.346 -0.209451 -0.717035 0
M  V30 2752 H 277.008 -1.18601 -1.5466 0
M  V30 2753 H 276.104 -0.784841 -3.02071 0
M  V30 2754 N 276.405 1.4127 -0.698611 0
M  V30 2755 C 277.353 2.32588 -0.023855 0
M  V30 2756 C 278.347 1.51128 0.765292 0
M  V30 2757 O 279.553 1.67043 0.670571 0
M  V30 2758 H 275.928 0.751918 0.0110871 0
M  V30 2759 H 277.899 2.87167 -0.811031 0
M  V30 2760 C 276.648 3.35947 0.896369 0
M  V30 2761 H 275.971 3.98684 0.298548 0
M  V30 2762 H 277.411 4.02376 1.33676 0
M  V30 2763 C 275.87 2.70076 2.01396 0
M  V30 2764 O 276.4 2.55093 3.10307 0
M  V30 2765 N 274.606 2.28724 1.79259 0
M  V30 2766 H 274.153 2.4111 0.906841 0
M  V30 2767 H 274.111 1.84986 2.54219 0
M  V30 2768 N 277.883 0.443576 1.51229 0
M  V30 2769 C 279.131 -0.120557 2.0174 0
M  V30 2770 C 279.452 -1.42665 1.32935 0
M  V30 2771 O 278.722 -1.9028 0.465866 0
M  V30 2772 H 277.302 -0.0475426 0.745486 0
M  V30 2773 H 279.964 0.587711 1.85828 0
M  V30 2774 H 279.06 -0.291972 3.10731 0
M  V30 2775 N 279.361 -1.56624 0.175154 0
M  V30 2776 C 280.591 -2.01082 -0.474283 0
M  V30 2777 C 280.999 -1.05447 -1.57091 0
M  V30 2778 O 280.342 -0.0480595 -1.83637 0
M  V30 2779 C 280.404 -3.41963 -1.10911 0
M  V30 2780 C 280.068 -4.56742 -0.153666 0
M  V30 2781 C 281.065 -5.16076 0.629448 0
M  V30 2782 C 278.75 -5.02277 -0.0483776 0
M  V30 2783 C 280.744 -6.19377 1.50501 0
M  V30 2784 C 278.431 -6.05427 0.830768 0
M  V30 2785 C 279.429 -6.63849 1.60605 0
M  V30 2786 O 279.117 -7.64998 2.47049 0
M  V30 2787 H 278.849 -0.664261 -0.125432 0
M  V30 2788 H 281.403 -2.03549 0.275163 0
M  V30 2789 H 279.633 -3.36422 -1.90676 0
M  V30 2790 H 281.322 -3.70352 -1.66114 0
M  V30 2791 H 282.088 -4.81776 0.558297 0
M  V30 2792 H 277.967 -4.56513 -0.641611 0
M  V30 2793 H 281.511 -6.64906 2.1106 0
M  V30 2794 H 277.408 -6.39151 0.903107 0
M  V30 2795 H 278.176 -7.82336 2.40607 0
M  V30 2796 N 280.839 0.0985539 -1.57292 0
M  V30 2797 C 282.088 0.801358 -1.85098 0
M  V30 2798 C 282.401 1.80066 -0.763902 0
M  V30 2799 O 283.607 2.55112 -0.928981 0
M  V30 2800 C 282.063 1.47599 -3.28242 0
M  V30 2801 C 281.671 0.516624 -4.45011 0
M  V30 2802 C 283.415 2.16272 -3.65276 0
M  V30 2803 C 281.322 1.19564 -5.79188 0
M  V30 2804 H 280.252 0.303022 -0.69043 0
M  V30 2805 H 282.903 0.0542623 -1.8342 0
M  V30 2806 H 281.285 2.27042 -3.2445 0
M  V30 2807 H 282.459 -0.246065 -4.60143 0
M  V30 2808 H 280.774 -0.064227 -4.1635 0
M  V30 2809 H 283.371 2.67802 -4.62803 0
M  V30 2810 H 283.714 2.95009 -2.93727 0
M  V30 2811 H 284.247 1.43693 -3.70941 0
M  V30 2812 H 280.986 0.449157 -6.53959 0
M  V30 2813 H 280.506 1.92984 -5.67906 0
M  V30 2814 H 282.185 1.7231 -6.23633 0
M  V30 2815 N 282.317 1.53212 0.369288 0
M  V30 2816 C 283.227 1.82342 1.47609 0
M  V30 2817 C 284.243 0.711532 1.58787 0
M  V30 2818 O 285.419 1.0012 1.74751 0
M  V30 2819 C 282.484 2.00393 2.8292 0
M  V30 2820 C 281.545 3.24297 2.81301 0
M  V30 2821 C 280.778 3.41478 4.10157 0
M  V30 2822 O 281.001 2.63033 5.06132 0
M  V30 2823 O 279.935 4.34817 4.16194 0
M  V30 2824 H 283.761 2.76366 1.25918 0
M  V30 2825 H 281.346 1.38547 0.559034 0
M  V30 2826 H 283.228 2.13859 3.63101 0
M  V30 2827 H 281.903 1.09559 3.04596 0
M  V30 2828 H 280.81 3.16257 1.99831 0
M  V30 2829 H 282.143 4.15041 2.64578 0
M  V30 2830 N 283.795 -0.628877 1.44509 0
M  V30 2831 C 285.023 -1.41554 1.50897 0
M  V30 2832 C 285.438 -1.8832 0.134564 0
M  V30 2833 O 284.795 -1.60969 -0.859965 0
M  V30 2834 C 284.846 -2.63435 2.47556 0
M  V30 2835 O 284.567 -2.18619 3.79654 0
M  V30 2836 C 286.068 -3.56537 2.63431 0
M  V30 2837 H 283.288 -0.434044 0.511709 0
M  V30 2838 H 285.832 -0.768895 1.89495 0
M  V30 2839 H 283.987 -3.24187 2.12089 0
M  V30 2840 H 284.401 -2.97652 4.31861 0
M  V30 2841 H 285.875 -4.38657 3.35088 0
M  V30 2842 H 286.352 -4.05493 1.68738 0
M  V30 2843 H 286.958 -3.01653 2.9981 0
M  V30 2844 N 285.273 -1.31445 -0.869486 0
M  V30 2845 C 286.236 -1.19094 -1.9583 0
M  V30 2846 C 287.236 -0.117906 -1.60367 0
M  V30 2847 O 288.426 -0.367208 -1.70286 0
M  V30 2848 C 285.558 -0.828165 -3.30688 0
M  V30 2849 H 286.751 -2.15842 -2.08212 0
M  V30 2850 H 284.304 -1.15063 -1.05784 0
M  V30 2851 H 285.039 0.138142 -3.24006 0
M  V30 2852 H 284.824 -1.6038 -3.578 0
M  V30 2853 H 286.314 -0.765658 -4.10521 0
M  V30 2854 N 286.751 1.08385 -1.14413 0
M  V30 2855 C 287.998 1.80776 -0.912482 0
M  V30 2856 C 288.326 1.86236 0.560934 0
M  V30 2857 O 287.581 1.33431 1.43159 0
M  V30 2858 C 287.88 3.26273 -1.45879 0
M  V30 2859 C 287.546 3.4093 -2.95089 0
M  V30 2860 C 286.208 3.44638 -3.35824 0
M  V30 2861 C 288.56 3.44591 -3.91033 0
M  V30 2862 C 285.888 3.49597 -4.71167 0
M  V30 2863 C 288.24 3.51086 -5.26233 0
M  V30 2864 C 286.904 3.53067 -5.6648 0
M  V30 2865 H 286.174 0.661507 -0.333901 0
M  V30 2866 H 288.821 1.27613 -1.42784 0
M  V30 2867 H 287.126 3.82146 -0.864376 0
M  V30 2868 H 288.823 3.80839 -1.2555 0
M  V30 2869 H 285.413 3.38736 -2.62594 0
M  V30 2870 H 289.597 3.40957 -3.60641 0
M  V30 2871 H 284.853 3.49424 -5.0171 0
M  V30 2872 H 289.027 3.52864 -6.00383 0
M  V30 2873 H 286.654 3.56662 -6.71339 0
M  V30 2874 N 288.23 0.939286 1.26551 0
M  V30 2875 C 289.646 0.641304 1.46149 0
M  V30 2876 C 289.846 -0.805964 1.84679 0
M  V30 2877 O 288.902 -1.58278 1.96734 0
M  V30 2878 C 290.215 1.6011 2.54529 0
M  V30 2879 C 291.763 1.6106 2.68382 0
M  V30 2880 C 292.238 2.55765 3.79932 0
M  V30 2881 N 293.729 2.5404 3.87322 0
M  V30 2882 C 294.464 3.24004 4.73085 0
M  V30 2883 N 293.96 4.03388 5.63249 0
M  V30 2884 N 295.753 3.12965 4.66914 0
M  V30 2885 H 287.904 1.87478 0.998285 0
M  V30 2886 H 290.167 0.805559 0.499779 0
M  V30 2887 H 289.873 2.63412 2.33039 0
M  V30 2888 H 289.747 1.35171 3.52149 0
M  V30 2889 H 292.134 0.584835 2.89247 0
M  V30 2890 H 292.215 1.90053 1.71212 0
M  V30 2891 H 291.859 3.58458 3.5982 0
M  V30 2892 H 291.789 2.24063 4.76554 0
M  V30 2893 H 294.28 1.96396 3.22858 0
M  V30 2894 H 294.593 4.5373 6.25579 0
M  V30 2895 H 292.938 4.07489 5.63008 0
M  V30 2896 H 296.129 2.50432 3.95476 0
M  V30 2897 H 296.302 3.67759 5.33533 0
M  V30 2898 N 289.708 -1.40897 0.706093 0
M  V30 2899 C 290.671 -2.29131 0.0562841 0
M  V30 2900 C 291.671 -1.44901 -0.697166 0
M  V30 2901 O 292.861 -1.65926 -0.530484 0
M  V30 2902 C 289.993 -3.27957 -0.93043 0
M  V30 2903 H 291.186 -2.88091 0.833284 0
M  V30 2904 H 288.739 -1.4906 0.470192 0
M  V30 2905 H 289.474 -2.73997 -1.73482 0
M  V30 2906 H 289.259 -3.90124 -0.393166 0
M  V30 2907 H 290.749 -3.94049 -1.38256 0
M  V30 2908 N 291.186 -0.45159 -1.50991 0
M  V30 2909 C 292.149 0.341117 -2.26647 0
M  V30 2910 C 293.149 0.937422 -1.30649 0
M  V30 2911 O 294.339 0.809644 -1.54241 0
M  V30 2912 C 291.471 1.48398 -3.06905 0
M  V30 2913 H 292.664 -0.322117 -2.98165 0
M  V30 2914 H 290.217 -0.205122 -1.54948 0
M  V30 2915 H 290.952 2.18284 -2.39838 0
M  V30 2916 H 290.737 1.06241 -3.77432 0
M  V30 2917 H 292.227 2.04367 -3.64176 0
M  V30 2918 N 292.664 1.56529 -0.183458 0
M  V30 2919 C 294.08 1.58664 0.172554 0
M  V30 2920 C 294.28 1.19925 1.61926 0
M  V30 2921 O 293.336 0.916534 2.35278 0
M  V30 2922 C 294.649 3.00463 -0.119262 0
M  V30 2923 C 296.197 3.12945 -0.0584396 0
M  V30 2924 C 296.672 4.56857 -0.323408 0
M  V30 2925 N 298.163 4.62403 -0.271612 0
M  V30 2926 C 298.898 5.71626 -0.450639 0
M  V30 2927 N 298.394 6.89362 -0.689384 0
M  V30 2928 N 300.187 5.60775 -0.385701 0
M  V30 2929 H 292.338 1.79994 -1.12765 0
M  V30 2930 H 294.601 0.834808 -0.449222 0
M  V30 2931 H 294.307 3.33326 -1.12192 0
M  V30 2932 H 294.181 3.72659 0.583544 0
M  V30 2933 H 296.568 2.79902 0.934805 0
M  V30 2934 H 296.649 2.4316 -0.794144 0
M  V30 2935 H 296.293 4.9061 -1.31392 0
M  V30 2936 H 296.223 5.24816 0.43305 0
M  V30 2937 H 298.714 3.77785 -0.0932256 0
M  V30 2938 H 299.027 7.68489 -0.815113 0
M  V30 2939 H 297.372 6.91196 -0.726142 0
M  V30 2940 H 300.563 4.67674 -0.199687 0
M  V30 2941 H 300.736 6.4584 -0.528646 0
M  V30 2942 N 294.142 -0.090211 1.57342 0
M  V30 2943 C 295.105 -1.09335 2.01441 0
M  V30 2944 C 296.105 -1.32666 0.908641 0
M  V30 2945 O 297.295 -1.28697 1.174 0
M  V30 2946 C 294.427 -2.44136 2.3793 0
M  V30 2947 H 295.62 -0.713662 2.91285 0
M  V30 2948 H 293.173 -0.335404 1.52659 0
M  V30 2949 H 293.908 -2.86972 1.51055 0
M  V30 2950 H 293.693 -2.28548 3.18603 0
M  V30 2951 H 295.183 -3.16277 2.72688 0
M  V30 2952 N 295.62 -1.53406 -0.361157 0
M  V30 2953 C 296.583 -1.79479 -1.42548 0
M  V30 2954 C 297.583 -0.665327 -1.4639 0
M  V30 2955 O 298.773 -0.933549 -1.47073 0
M  V30 2956 C 295.905 -1.92087 -2.8163 0
M  V30 2957 H 297.098 -2.74538 -1.20701 0
M  V30 2958 H 294.651 -1.4455 -0.594546 0
M  V30 2959 H 295.386 -0.991099 -3.08784 0
M  V30 2960 H 295.171 -2.74241 -2.80239 0
M  V30 2961 H 296.661 -2.13836 -3.58697 0
M  V30 2962 N 297.098 0.621204 -1.44841 0
M  V30 2963 C 298.375 1.38 -1.38619 0
M  V30 2964 C 298.755 2.11041 -0.0498935 0
M  V30 2965 O 298.103 2.06992 0.967816 0
M  V30 2966 C 298.313 2.33817 -2.59096 0
M  V30 2967 C 299.661 2.96844 -3.03593 0
M  V30 2968 O 300.685 2.44141 -2.59371 0
M  V30 2969 O 299.544 3.92476 -3.80296 0
M  V30 2970 H 296.638 0.61811 -0.549426 0
M  V30 2971 H 299.184 0.645429 -1.56947 0
M  V30 2972 H 297.956 1.79012 -3.47952 0
M  V30 2973 H 297.579 3.14676 -2.43032 0
M  V30 2974 N 298.576 1.31904 0.862503 0
M  V30 2975 C 299.987 1.19803 1.43193 0
M  V30 2976 C 300.338 -0.192567 1.95253 0
M  V30 2977 O 299.463 -1.09081 1.86896 0
M  V30 2978 C 300.058 2.16883 2.60283 0
M  V30 2979 C 298.617 2.08692 3.13248 0
M  V30 2980 C 297.764 2.05691 1.85975 0
M  V30 2981 H 300.715 1.43846 0.670365 0
M  V30 2982 H 300.736 1.76278 3.37204 0
M  V30 2983 H 300.248 3.18083 2.22363 0
M  V30 2984 H 298.349 1.10713 3.55771 0
M  V30 2985 H 298.462 2.9815 3.75025 0
M  V30 2986 H 296.826 1.50814 2.05249 0
M  V30 2987 H 297.609 3.08659 1.50282 0
M  V30 2988 N 300.054 -1.07777 1.14986 0
M  V30 2989 C 301.282 -1.84018 0.945773 0
M  V30 2990 C 301.697 -1.81897 -0.505863 0
M  V30 2991 O 301.054 -1.22726 -1.35072 0
M  V30 2992 C 301.105 -3.31287 1.44677 0
M  V30 2993 O 300.826 -3.33449 2.84154 0
M  V30 2994 C 302.327 -4.24311 1.28355 0
M  V30 2995 H 299.547 -0.580716 0.336169 0
M  V30 2996 H 302.091 -1.36077 1.52654 0
M  V30 2997 H 300.246 -3.76594 0.908625 0
M  V30 2998 H 300.66 -4.25427 3.06777 0
M  V30 2999 H 302.134 -5.2573 1.68261 0
M  V30 3000 H 302.611 -4.38612 0.227184 0
M  V30 3001 H 303.217 -3.84836 1.81056 0
M  V30 3002 N 301.532 -0.945985 -1.26051 0
M  V30 3003 C 302.495 -0.463897 -2.24456 0
M  V30 3004 C 303.495 0.427655 -1.55009 0
M  V30 3005 O 304.685 0.226157 -1.72726 0
M  V30 3006 C 301.817 0.330812 -3.39291 0
M  V30 3007 H 303.01 -1.33357 -2.68619 0
M  V30 3008 H 300.563 -0.728416 -1.38289 0
M  V30 3009 H 301.298 1.21852 -3.00537 0
M  V30 3010 H 301.083 -0.308679 -3.90883 0
M  V30 3011 H 302.573 0.657865 -4.12386 0
M  V30 3012 N 303.011 1.40521 -0.713556 0
M  V30 3013 C 303.958 2.30723 -0.059684 0
M  V30 3014 C 304.928 1.48079 0.752448 0
M  V30 3015 O 306.113 1.76823 0.71681 0
M  V30 3016 C 303.253 3.34274 0.857594 0
M  V30 3017 C 302.366 4.31986 0.0351536 0
M  V30 3018 C 301.501 5.22605 0.951724 0
M  V30 3019 C 300.54 6.11976 0.123253 0
M  V30 3020 N 299.677 6.9502 0.99459 0
M  V30 3021 H 304.517 2.86074 -0.834596 0
M  V30 3022 H 302.054 1.40879 -0.42326 0
M  V30 3023 H 304.012 3.92879 1.40364 0
M  V30 3024 H 302.642 2.8043 1.59871 0
M  V30 3025 H 301.694 3.7518 -0.628052 0
M  V30 3026 H 303.006 4.95101 -0.606347 0
M  V30 3027 H 302.16 5.86131 1.56638 0
M  V30 3028 H 300.899 4.59759 1.62705 0
M  V30 3029 H 299.904 5.47482 -0.50435 0
M  V30 3030 H 301.129 6.76881 -0.548539 0
M  V30 3031 H 299.075 6.34764 1.6556 0
M  V30 3032 H 298.992 7.54892 0.40908 0
M  V30 3033 H 300.26 7.62997 1.59549 0
M  V30 3034 N 304.489 0.459591 1.5075 0
M  V30 3035 C 305.419 -0.330644 2.31147 0
M  V30 3036 C 306.4 -1.00087 1.37538 0
M  V30 3037 O 307.585 -1.00025 1.66459 0
M  V30 3038 C 304.715 -1.41958 3.16962 0
M  V30 3039 C 303.669 -0.871608 4.19031 0
M  V30 3040 C 302.995 -2.05797 4.9351 0
M  V30 3041 C 304.295 0.109251 5.22186 0
M  V30 3042 H 305.989 0.340336 2.97459 0
M  V30 3043 H 303.535 0.165119 1.4305 0
M  V30 3044 H 305.488 -1.9798 3.71997 0
M  V30 3045 H 304.212 -2.11917 2.48513 0
M  V30 3046 H 302.871 -0.333442 3.6508 0
M  V30 3047 H 302.519 -2.74427 4.21544 0
M  V30 3048 H 302.219 -1.6976 5.62544 0
M  V30 3049 H 303.743 -2.62331 5.51375 0
M  V30 3050 H 305.157 -0.361405 5.7216 0
M  V30 3051 H 303.554 0.383316 5.98875 0
M  V30 3052 H 304.624 1.03887 4.73641 0
M  V30 3053 N 305.967 -1.56429 0.191757 0
M  V30 3054 C 307.207 -1.99383 -0.450099 0
M  V30 3055 C 307.571 -1.07581 -1.59029 0
M  V30 3056 O 308.772 -1.39758 -2.29611 0
M  V30 3057 C 307.043 -3.45841 -0.901611 0
M  V30 3058 S 308.602 -4.10822 -1.54177 0
M  V30 3059 H 305.42 -0.696253 -0.144057 0
M  V30 3060 H 308.022 -1.93276 0.294036 0
M  V30 3061 H 306.726 -4.10354 -0.0616596 0
M  V30 3062 H 306.257 -3.55757 -1.67929 0
M  V30 3063 H 308.272 -4.07553 -2.83046 0
M  V30 3064 N 307.445 0.0818655 -1.57387 0
M  V30 3065 C 308.694 0.781681 -1.85937 0
M  V30 3066 C 309.007 1.79246 -0.782957 0
M  V30 3067 O 310.213 2.54112 -0.955987 0
M  V30 3068 C 308.669 1.44109 -3.29789 0
M  V30 3069 C 308.277 0.469396 -4.45534 0
M  V30 3070 C 310.021 2.12386 -3.67549 0
M  V30 3071 C 307.928 1.13415 -5.80423 0
M  V30 3072 H 306.858 0.295682 -0.693605 0
M  V30 3073 H 309.509 0.0348051 -1.83467 0
M  V30 3074 H 307.891 2.23588 -3.2684 0
M  V30 3075 H 309.065 -0.294856 -4.59856 0
M  V30 3076 H 307.38 -0.108383 -4.16259 0
M  V30 3077 H 309.977 2.62878 -4.65617 0
M  V30 3078 H 310.32 2.91877 -2.96839 0
M  V30 3079 H 310.853 1.39751 -3.72444 0
M  V30 3080 H 307.592 0.379771 -6.54399 0
M  V30 3081 H 307.112 1.8695 -5.69921 0
M  V30 3082 H 308.791 1.65686 -6.25426 0
M  V30 3083 N 308.923 1.53595 0.353017 0
M  V30 3084 C 309.871 1.81605 1.45335 0
M  V30 3085 C 310.865 0.685923 1.54892 0
M  V30 3086 O 312.071 0.869095 1.57628 0
M  V30 3087 H 308.446 0.575204 0.484401 0
M  V30 3088 H 310.417 2.73679 1.18921 0
M  V30 3089 C 309.166 2.03406 2.81995 0
M  V30 3090 H 308.489 2.89814 2.75405 0
M  V30 3091 H 309.929 2.26975 3.58132 0
M  V30 3092 C 308.388 0.816794 3.26849 0
M  V30 3093 O 308.918 0.0115856 4.01698 0
M  V30 3094 N 307.124 0.636682 2.8354 0
M  V30 3095 H 306.671 1.2931 2.22793 0
M  V30 3096 H 306.629 -0.176336 3.13905 0
M  V30 3097 N 310.401 -0.613514 1.45168 0
M  V30 3098 C 311.678 -1.37263 1.39349 0
M  V30 3099 C 312.058 -2.11012 0.0610848 0
M  V30 3100 O 311.406 -2.07502 -0.956825 0
M  V30 3101 C 311.616 -2.3244 2.60332 0
M  V30 3102 C 312.964 -2.9523 3.05163 0
M  V30 3103 O 313.988 -2.42762 2.60663 0
M  V30 3104 O 312.847 -3.90454 3.82372 0
M  V30 3105 H 309.941 -0.615188 0.552696 0
M  V30 3106 H 312.487 -0.637097 1.57287 0
M  V30 3107 H 311.259 -1.77164 3.48896 0
M  V30 3108 H 310.882 -3.13383 2.44698 0
M  V30 3109 N 311.879 -1.3236 -0.855495 0
M  V30 3110 C 313.109 -1.25688 -1.6397 0
M  V30 3111 C 313.517 0.177592 -1.88365 0
M  V30 3112 O 312.86 1.12485 -1.45234 0
M  V30 3113 C 312.922 -1.94602 -3.02275 0
M  V30 3114 C 312.586 -3.43937 -3.00926 0
M  V30 3115 C 313.583 -4.39435 -2.77835 0
M  V30 3116 C 311.268 -3.85858 -3.21588 0
M  V30 3117 C 313.262 -5.74829 -2.75409 0
M  V30 3118 C 310.949 -5.21361 -3.18789 0
M  V30 3119 C 311.947 -6.15658 -2.95727 0
M  V30 3120 O 311.635 -7.48681 -2.928 0
M  V30 3121 H 311.367 -0.434972 -0.51747 0
M  V30 3122 H 313.921 -1.75023 -1.075 0
M  V30 3123 H 312.151 -1.39836 -3.60531 0
M  V30 3124 H 313.84 -1.81651 -3.62985 0
M  V30 3125 H 314.606 -4.08374 -2.6164 0
M  V30 3126 H 310.485 -3.12883 -3.38564 0
M  V30 3127 H 314.029 -6.48404 -2.57328 0
M  V30 3128 H 309.926 -5.52052 -3.34528 0
M  V30 3129 H 310.694 -7.5803 -3.0876 0
M  V30 3130 N 313.357 1.07166 -1.15556 0
M  V30 3131 C 314.305 2.16517 -0.8499 0
M  V30 3132 C 315.299 1.68468 0.177454 0
M  V30 3133 O 316.505 1.79971 0.0323026 0
M  V30 3134 H 312.88 0.706652 -0.25719 0
M  V30 3135 H 314.851 2.39514 -1.77976 0
M  V30 3136 C 313.6 3.45855 -0.357682 0
M  V30 3137 H 312.923 3.83214 -1.13961 0
M  V30 3138 H 314.363 4.23607 -0.182489 0
M  V30 3139 C 312.822 3.24062 0.921152 0
M  V30 3140 O 313.352 3.48813 1.9923 0
M  V30 3141 N 311.558 2.77539 0.86141 0
M  V30 3142 H 311.105 2.57598 -0.0104408 0
M  V30 3143 H 311.063 2.63337 1.71758 0
M  V30 3144 N 314.835 0.952656 1.25548 0
M  V30 3145 C 316.081 0.607272 1.93494 0
M  V30 3146 C 316.414 -0.853245 1.74452 0
M  V30 3147 O 315.689 -1.61194 1.08843 0
M  V30 3148 C 315.972 0.96435 3.46947 0
M  V30 3149 C 315.825 2.48045 3.75225 0
M  V30 3150 C 317.144 0.487987 4.37386 0
M  V30 3151 H 314.263 0.222096 0.702739 0
M  V30 3152 H 316.905 1.18895 1.48203 0
M  V30 3153 H 315.055 0.469361 3.85654 0
M  V30 3154 H 316.727 3.04905 3.46166 0
M  V30 3155 H 314.97 2.919 3.209 0
M  V30 3156 H 315.641 2.6808 4.82532 0
M  V30 3157 H 318.117 0.912558 4.0597 0
M  V30 3158 H 316.993 0.766547 5.43521 0
M  V30 3159 H 317.254 -0.612063 4.37843 0
M  V30 3160 N 316.313 -1.40141 0.720998 0
M  V30 3161 C 317.223 -2.34486 0.0731031 0
M  V30 3162 C 318.239 -1.57587 -0.737723 0
M  V30 3163 O 319.415 -1.89949 -0.669429 0
M  V30 3164 C 316.48 -3.36528 -0.833656 0
M  V30 3165 C 315.541 -4.29298 -0.0121673 0
M  V30 3166 C 314.774 -5.26466 -0.875742 0
M  V30 3167 O 314.997 -5.29745 -2.11485 0
M  V30 3168 O 313.931 -6.01092 -0.31185 0
M  V30 3169 H 317.757 -2.9152 0.851444 0
M  V30 3170 H 315.342 -1.41427 0.481527 0
M  V30 3171 H 317.224 -3.99093 -1.35289 0
M  V30 3172 H 315.899 -2.81899 -1.59105 0
M  V30 3173 H 314.806 -3.70001 0.552262 0
M  V30 3174 H 316.139 -4.87094 0.707129 0
M  V30 3175 N 317.792 -0.46758 -1.50504 0
M  V30 3176 C 319.04 0.0884469 -2.01906 0
M  V30 3177 C 319.361 1.40532 -1.35188 0
M  V30 3178 O 318.631 1.89515 -0.496079 0
M  V30 3179 H 317.211 0.0356765 -0.746148 0
M  V30 3180 H 319.873 -0.6172 -1.84869 0
M  V30 3181 H 318.969 0.2425 -3.11156 0
M  V30 3182 N 319.27 1.56325 -0.20005 0
M  V30 3183 C 320.519 1.96895 0.437652 0
M  V30 3184 C 320.832 1.08999 1.62415 0
M  V30 3185 O 322.038 1.39372 2.32997 0
M  V30 3186 C 320.494 3.50198 0.830025 0
M  V30 3187 C 320.102 4.46765 -0.332461 0
M  V30 3188 C 321.846 3.99526 1.43453 0
M  V30 3189 C 319.753 5.91344 0.0811468 0
M  V30 3190 H 318.683 0.735209 0.167282 0
M  V30 3191 H 321.334 1.81148 -0.292853 0
M  V30 3192 H 319.716 3.61467 1.61734 0
M  V30 3193 H 320.89 4.47231 -1.11 0
M  V30 3194 H 319.205 4.07657 -0.848789 0
M  V30 3195 H 321.802 5.05025 1.75652 0
M  V30 3196 H 322.145 3.44122 2.34277 0
M  V30 3197 H 322.678 3.91393 0.71109 0
M  V30 3198 H 319.417 6.50685 -0.793033 0
M  V30 3199 H 318.937 5.94121 0.823445 0
M  V30 3200 H 320.616 6.44945 0.515252 0
M  V30 3201 N 320.748 -0.0735177 1.57428 0
M  V30 3202 C 321.696 -1.10628 2.04607 0
M  V30 3203 C 322.69 -1.40181 0.951088 0
M  V30 3204 O 323.896 -1.39608 1.1362 0
M  V30 3205 H 320.271 -0.374088 0.652351 0
M  V30 3206 H 322.242 -0.682218 2.90497 0
M  V30 3207 C 320.991 -2.41212 2.50423 0
M  V30 3208 H 320.314 -2.19322 3.34272 0
M  V30 3209 H 321.754 -3.11927 2.87189 0
M  V30 3210 C 320.213 -3.0705 1.38644 0
M  V30 3211 O 320.743 -3.95056 0.727582 0
M  V30 3212 N 318.949 -2.67645 1.132 0
M  V30 3213 H 318.496 -1.96169 1.66959 0
M  V30 3214 H 318.454 -3.1202 0.386147 0
M  V30 3215 N 322.226 -1.5378 -0.344866 0
M  V30 3216 C 323.189 -1.80981 -1.40637 0
M  V30 3217 C 324.189 -0.680816 -1.45676 0
M  V30 3218 O 325.379 -0.949095 -1.46075 0
M  V30 3219 C 322.511 -1.95063 -2.79577 0
M  V30 3220 H 323.704 -2.75803 -1.17783 0
M  V30 3221 H 321.257 -1.45173 -0.579181 0
M  V30 3222 H 321.992 -1.02379 -3.07716 0
M  V30 3223 H 321.777 -2.77198 -2.77315 0
M  V30 3224 H 323.267 -2.17629 -3.56409 0
M  V30 3225 N 323.704 0.605807 -1.45491 0
M  V30 3226 C 324.651 1.7164 -1.54299 0
M  V30 3227 C 325.621 1.61486 -0.388761 0
M  V30 3228 O 326.806 1.81039 -0.602445 0
M  V30 3229 C 323.946 3.09953 -1.51734 0
M  V30 3230 C 323.059 3.309 -2.77721 0
M  V30 3231 C 322.194 4.59329 -2.66816 0
M  V30 3232 C 321.233 4.7354 -3.87848 0
M  V30 3233 N 320.37 5.9327 -3.75467 0
M  V30 3234 H 325.21 1.63449 -2.49176 0
M  V30 3235 H 322.747 0.796957 -1.23641 0
M  V30 3236 H 324.705 3.89977 -1.48235 0
M  V30 3237 H 323.335 3.17098 -0.604068 0
M  V30 3238 H 322.387 2.44639 -2.913 0
M  V30 3239 H 323.699 3.37274 -3.67488 0
M  V30 3240 H 322.853 5.4755 -2.61292 0
M  V30 3241 H 321.592 4.55355 -1.74651 0
M  V30 3242 H 320.597 3.83741 -3.93729 0
M  V30 3243 H 321.822 4.79309 -4.81082 0
M  V30 3244 H 319.768 5.90338 -2.86072 0
M  V30 3245 H 319.685 6.00811 -4.5887 0
M  V30 3246 H 320.953 6.83984 -3.73879 0
M  V30 3247 N 325.182 1.32811 0.848464 0
M  V30 3248 C 326.407 1.26882 1.6406 0
M  V30 3249 C 326.832 -0.15913 1.87426 0
M  V30 3250 O 326.19 -1.11258 1.43148 0
M  V30 3251 C 326.238 2.03997 2.97351 0
M  V30 3252 O 325.342 1.39201 3.88197 0
M  V30 3253 H 324.683 0.436982 0.499943 0
M  V30 3254 H 327.213 1.75224 1.0563 0
M  V30 3255 H 327.223 2.14403 3.47124 0
M  V30 3256 H 325.898 3.0783 2.79666 0
M  V30 3257 H 324.475 1.37381 3.46671 0
M  V30 3258 N 326.66 -1.06551 1.16123 0
M  V30 3259 C 327.608 -2.16063 0.861371 0
M  V30 3260 C 328.602 -1.6856 -0.168517 0
M  V30 3261 O 329.808 -1.79986 -0.0227579 0
M  V30 3262 H 326.183 -0.705278 0.260934 0
M  V30 3263 H 328.154 -2.38567 1.79244 0
M  V30 3264 C 326.903 -3.45661 0.376018 0
M  V30 3265 H 326.226 -3.82604 1.15992 0
M  V30 3266 H 327.666 -4.23504 0.204951 0
M  V30 3267 C 326.125 -3.24546 -0.903954 0
M  V30 3268 O 326.655 -3.49865 -1.97377 0
M  V30 3269 N 324.861 -2.77992 -0.846679 0
M  V30 3270 H 324.408 -2.57589 0.0241017 0
M  V30 3271 H 324.366 -2.64244 -1.70359 0
M  V30 3272 N 328.138 -0.959301 -1.25041 0
M  V30 3273 C 329.363 -0.633507 -1.97488 0
M  V30 3274 C 329.788 0.788555 -1.70773 0
M  V30 3275 O 329.146 1.53394 -0.966431 0
M  V30 3276 C 329.194 -0.904057 -3.49083 0
M  V30 3277 O 328.298 0.0147939 -4.12397 0
M  V30 3278 H 327.639 -0.240368 -0.618966 0
M  V30 3279 H 330.169 -1.28717 -1.59038 0
M  V30 3280 H 330.179 -0.832203 -3.99423 0
M  V30 3281 H 328.854 -1.94048 -3.67856 0
M  V30 3282 H 327.431 -0.109664 -3.72739 0
M  V30 3283 N 329.616 1.39756 -0.72842 0
M  V30 3284 C 330.546 2.33289 -0.0991354 0
M  V30 3285 C 331.527 1.53568 0.731489 0
M  V30 3286 O 332.712 1.81987 0.677807 0
M  V30 3287 C 329.842 3.3763 0.813834 0
M  V30 3288 C 328.796 4.2791 0.0878663 0
M  V30 3289 C 328.122 5.22894 1.11741 0
M  V30 3290 C 329.422 5.11314 -1.06563 0
M  V30 3291 H 331.116 2.86163 -0.880408 0
M  V30 3292 H 328.662 1.37591 -0.424819 0
M  V30 3293 H 330.615 4.0201 1.26355 0
M  V30 3294 H 329.339 2.83181 1.62715 0
M  V30 3295 H 327.998 3.65 -0.342159 0
M  V30 3296 H 327.646 4.64744 1.92412 0
M  V30 3297 H 327.346 5.84143 0.636477 0
M  V30 3298 H 328.87 5.90151 1.56697 0
M  V30 3299 H 330.284 5.69076 -0.694671 0
M  V30 3300 H 328.681 5.81671 -1.47577 0
M  V30 3301 H 329.751 4.46534 -1.89038 0
M  V30 3302 N 331.094 0.475555 1.50254 0
M  V30 3303 C 332.324 -0.0753399 2.06463 0
M  V30 3304 C 332.732 -1.33661 1.33908 0
M  V30 3305 O 332.075 -1.79219 0.403257 0
M  V30 3306 C 332.137 -0.424921 3.5698 0
M  V30 3307 C 331.801 0.734965 4.51051 0
M  V30 3308 C 332.798 1.61827 4.94073 0
M  V30 3309 C 330.483 0.926557 4.9368 0
M  V30 3310 C 332.477 2.67754 5.78434 0
M  V30 3311 C 330.164 1.98904 5.77824 0
M  V30 3312 C 331.162 2.8629 6.20103 0
M  V30 3313 O 330.85 3.90708 7.02568 0
M  V30 3314 H 330.582 0.00576308 0.675975 0
M  V30 3315 H 333.136 0.664662 1.94349 0
M  V30 3316 H 331.366 -1.21817 3.67012 0
M  V30 3317 H 333.055 -0.911422 3.95535 0
M  V30 3318 H 333.821 1.48196 4.61804 0
M  V30 3319 H 329.7 0.25584 4.6029 0
M  V30 3320 H 333.244 3.35992 6.11355 0
M  V30 3321 H 329.141 2.12541 6.09505 0
M  V30 3322 H 329.909 3.87751 7.20827 0
M  V30 3323 N 332.573 -1.56217 0.208337 0
M  V30 3324 C 333.85 -1.89739 -0.475234 0
M  V30 3325 C 334.23 -1.1238 -1.78701 0
M  V30 3326 O 333.578 -0.228979 -2.2735 0
M  V30 3327 C 333.788 -3.42289 -0.681101 0
M  V30 3328 C 335.136 -4.12789 -0.994507 0
M  V30 3329 O 336.16 -3.47814 -0.768357 0
M  V30 3330 O 335.019 -5.27649 -1.42299 0
M  V30 3331 H 332.113 -0.788478 -0.249461 0
M  V30 3332 H 334.659 -1.67855 0.249538 0
M  V30 3333 H 333.431 -3.90534 0.244722 0
M  V30 3334 H 333.054 -3.69909 -1.45785 0
M  V30 3335 N 334.051 0.0651679 -1.57465 0
M  V30 3336 C 334.981 1.07693 -2.07182 0
M  V30 3337 C 335.962 1.39962 -0.966673 0
M  V30 3338 O 337.147 1.49475 -1.2398 0
M  V30 3339 C 334.277 2.3885 -2.52127 0
M  V30 3340 C 333.231 2.20917 -3.66579 0
M  V30 3341 C 332.557 3.57515 -3.97601 0
M  V30 3342 C 333.857 1.62493 -4.9638 0
M  V30 3343 H 335.551 0.663199 -2.91962 0
M  V30 3344 H 333.097 0.317569 -1.40455 0
M  V30 3345 H 335.05 3.09928 -2.85522 0
M  V30 3346 H 333.774 2.82215 -1.64384 0
M  V30 3347 H 332.433 1.52279 -3.33477 0
M  V30 3348 H 332.081 3.98463 -3.06979 0
M  V30 3349 H 331.781 3.46353 -4.74672 0
M  V30 3350 H 333.305 4.30013 -4.33499 0
M  V30 3351 H 334.719 2.23445 -5.27963 0
M  V30 3352 H 333.116 1.62009 -5.77818 0
M  V30 3353 H 334.186 0.587041 -4.81333 0
M  V30 3354 N 335.529 1.53961 0.336706 0
M  V30 3355 C 336.775 1.7179 1.07777 0
M  V30 3356 C 337.108 0.483263 1.88091 0
M  V30 3357 O 336.383 -0.519747 1.87427 0
M  V30 3358 C 336.666 2.98558 2.01334 0
M  V30 3359 C 336.519 4.32245 1.24437 0
M  V30 3360 C 337.838 3.21023 3.01052 0
M  V30 3361 H 334.957 0.625089 0.390426 0
M  V30 3362 H 337.599 1.86641 0.35567 0
M  V30 3363 H 335.749 2.86028 2.62908 0
M  V30 3364 H 337.421 4.56637 0.654243 0
M  V30 3365 H 335.664 4.30344 0.546458 0
M  V30 3366 H 336.335 5.17137 1.93063 0
M  V30 3367 H 338.811 3.32929 2.49595 0
M  V30 3368 H 337.687 4.11104 3.6371 0
M  V30 3369 H 337.948 2.37637 3.72802 0
M  V30 3370 N 337.007 -0.598083 1.45811 0
M  V30 3371 C 337.954 -1.7082 1.55207 0
M  V30 3372 C 338.924 -1.61278 0.39732 0
M  V30 3373 O 340.109 -1.80717 0.612038 0
M  V30 3374 C 337.249 -3.09144 1.53376 0
M  V30 3375 C 336.362 -3.29423 2.79472 0
M  V30 3376 C 335.497 -4.57907 2.69248 0
M  V30 3377 C 334.536 -4.71476 3.90354 0
M  V30 3378 N 333.673 -5.9127 3.78608 0
M  V30 3379 H 338.513 -1.62125 2.50039 0
M  V30 3380 H 336.05 -0.790389 1.24062 0
M  V30 3381 H 338.008 -3.89186 1.50301 0
M  V30 3382 H 336.638 -3.16773 0.620876 0
M  V30 3383 H 335.69 -2.43091 2.92594 0
M  V30 3384 H 337.002 -3.3532 3.69272 0
M  V30 3385 H 336.156 -5.46157 2.64192 0
M  V30 3386 H 334.895 -4.54423 1.77063 0
M  V30 3387 H 333.9 -3.81648 3.95759 0
M  V30 3388 H 335.125 -4.76751 4.83617 0
M  V30 3389 H 333.071 -5.88813 2.89199 0
M  V30 3390 H 332.988 -5.98369 4.6205 0
M  V30 3391 H 334.256 -6.81992 3.77501 0
M  V30 3392 N 338.485 -1.33259 -0.841409 0
M  V30 3393 C 339.762 -1.15174 -1.58096 0
M  V30 3394 C 340.142 0.282858 -2.09196 0
M  V30 3395 O 339.49 1.28151 -1.89181 0
M  V30 3396 C 339.7 -2.1907 -2.71679 0
M  V30 3397 C 341.048 -2.53093 -3.40924 0
M  V30 3398 O 342.072 -2.17717 -2.81918 0
M  V30 3399 O 340.931 -3.1379 -4.47435 0
M  V30 3400 H 338.025 -0.445303 -0.696875 0
M  V30 3401 H 340.571 -1.44833 -0.884385 0
M  V30 3402 H 339.343 -3.15443 -2.31541 0
M  V30 3403 H 338.966 -1.90481 -3.49002 0
M  V30 3404 N 339.963 1.05934 -1.16686 0
M  V30 3405 C 341.21 1.788 -0.950622 0
M  V30 3406 C 341.538 1.87384 0.521305 0
M  V30 3407 O 340.793 1.36438 1.40297 0
M  V30 3408 C 341.092 3.23105 -1.52767 0
M  V30 3409 C 340.758 3.34594 -3.02254 0
M  V30 3410 C 339.42 3.37437 -3.43059 0
M  V30 3411 C 341.772 3.36219 -3.98254 0
M  V30 3412 C 339.1 3.39525 -4.78477 0
M  V30 3413 C 341.452 3.39845 -5.33562 0
M  V30 3414 C 340.116 3.40971 -5.73842 0
M  V30 3415 H 339.386 0.654275 -0.347857 0
M  V30 3416 H 342.033 1.24555 -1.45459 0
M  V30 3417 H 340.338 3.80227 -0.94524 0
M  V30 3418 H 342.035 3.7809 -1.336 0
M  V30 3419 H 338.625 3.3309 -2.6972 0
M  V30 3420 H 342.809 3.33231 -3.67792 0
M  V30 3421 H 338.065 3.38703 -5.09009 0
M  V30 3422 H 342.239 3.4005 -6.07733 0
M  V30 3423 H 339.866 3.42342 -6.78753 0
M  V30 3424 N 341.441 0.965919 1.2453 0
M  V30 3425 C 342.388 0.49402 2.25451 0
M  V30 3426 C 343.358 -0.45948 1.59618 0
M  V30 3427 O 344.543 -0.370238 1.87173 0
M  V30 3428 C 341.683 -0.211359 3.44452 0
M  V30 3429 C 340.796 0.7807 4.24887 0
M  V30 3430 C 339.931 0.0516105 5.31175 0
M  V30 3431 C 338.97 1.03385 6.03306 0
M  V30 3432 N 338.107 0.334887 7.01301 0
M  V30 3433 H 342.947 1.35946 2.65184 0
M  V30 3434 H 340.484 0.681515 1.3036 0
M  V30 3435 H 342.442 -0.637 4.12308 0
M  V30 3436 H 341.072 -1.04077 3.05562 0
M  V30 3437 H 340.124 1.32479 3.56586 0
M  V30 3438 H 341.436 1.52978 4.74762 0
M  V30 3439 H 340.59 -0.432114 6.05159 0
M  V30 3440 H 339.329 -0.730179 4.82203 0
M  V30 3441 H 338.334 1.52847 5.28127 0
M  V30 3442 H 339.559 1.81606 6.54367 0
M  V30 3443 H 337.505 -0.427959 6.54603 0
M  V30 3444 H 337.422 1.02287 7.49048 0
M  V30 3445 H 338.69 -0.126928 7.79397 0
M  V30 3446 N 342.919 -1.39368 0.735821 0
M  V30 3447 C 343.882 -2.2896 0.104874 0
M  V30 3448 C 344.882 -1.46347 -0.666274 0
M  V30 3449 O 346.072 -1.67014 -0.49517 0
M  V30 3450 C 343.204 -3.29857 -0.860656 0
M  V30 3451 H 344.397 -2.86259 0.894205 0
M  V30 3452 H 341.95 -1.48029 0.501704 0
M  V30 3453 H 342.685 -2.77615 -1.67631 0
M  V30 3454 H 342.47 -3.9087 -0.310327 0
M  V30 3455 H 343.96 -3.96893 -1.29867 0
M  V30 3456 N 344.397 -0.483516 -1.5 0
M  V30 3457 C 345.813 -0.138404 -1.58999 0
M  V30 3458 C 346.013 1.35597 -1.4905 0
M  V30 3459 O 345.069 2.13039 -1.35539 0
M  V30 3460 C 346.382 -0.699658 -2.92447 0
M  V30 3461 C 347.93 -0.664195 -3.05872 0
M  V30 3462 C 348.405 -1.20321 -4.41913 0
M  V30 3463 N 349.896 -1.16315 -4.48358 0
M  V30 3464 C 350.631 -1.55058 -5.52037 0
M  V30 3465 N 350.127 -2.01311 -6.62907 0
M  V30 3466 N 351.92 -1.46584 -5.42651 0
M  V30 3467 H 344.071 -1.45529 -1.5471 0
M  V30 3468 H 346.334 -0.60258 -0.731848 0
M  V30 3469 H 346.04 -1.747 -3.05242 0
M  V30 3470 H 345.914 -0.150194 -3.76901 0
M  V30 3471 H 348.301 0.374272 -2.92717 0
M  V30 3472 H 348.382 -1.25061 -2.23144 0
M  V30 3473 H 348.026 -2.24037 -4.55818 0
M  V30 3474 H 347.956 -0.592896 -5.23252 0
M  V30 3475 H 350.447 -0.824058 -3.68806 0
M  V30 3476 H 350.76 -2.2899 -7.38095 0
M  V30 3477 H 349.105 -2.05273 -6.63994 0
M  V30 3478 H 352.296 -1.10281 -4.54924 0
M  V30 3479 H 352.469 -1.77103 -6.23329 0
M  V30 3480 N 345.875 1.56104 -0.216619 0
M  V30 3481 C 347.123 1.97781 0.415593 0
M  V30 3482 C 347.444 1.10536 1.60645 0
M  V30 3483 O 346.714 0.181303 1.95059 0
M  V30 3484 H 345.294 0.730415 0.156534 0
M  V30 3485 H 347.956 1.92445 -0.308366 0
M  V30 3486 H 347.052 3.03072 0.74525 0
M  V30 3487 N 347.353 -0.0568162 1.57498 0
M  V30 3488 C 348.599 -0.75422 1.88253 0
M  V30 3489 C 348.932 -1.76461 0.810865 0
M  V30 3490 O 348.207 -1.93691 -0.177259 0
M  V30 3491 C 348.49 -1.44878 3.2967 0
M  V30 3492 C 348.343 -0.453789 4.47505 0
M  V30 3493 C 349.662 -2.38994 3.69554 0
M  V30 3494 H 346.781 -0.272724 0.684683 0
M  V30 3495 H 349.423 -0.0172113 1.89992 0
M  V30 3496 H 347.573 -2.077 3.28318 0
M  V30 3497 H 349.245 0.170371 4.60985 0
M  V30 3498 H 347.488 0.229552 4.33192 0
M  V30 3499 H 348.159 -0.977699 5.43273 0
M  V30 3500 H 350.635 -1.86239 3.72095 0
M  V30 3501 H 349.511 -2.84587 4.69363 0
M  V30 3502 H 349.772 -3.24461 3.00296 0
M  V30 3503 N 348.832 -1.54138 -0.328536 0
M  V30 3504 C 350.243 -1.63395 -0.903272 0
M  V30 3505 C 350.594 -0.524828 -1.8905 0
M  V30 3506 O 349.719 0.343068 -2.13663 0
M  V30 3507 C 350.314 -2.9618 -1.64507 0
M  V30 3508 C 348.873 -3.0765 -2.1686 0
M  V30 3509 C 348.02 -2.58933 -0.992416 0
M  V30 3510 H 350.971 -1.58344 -0.106253 0
M  V30 3511 H 350.992 -2.86061 -2.50897 0
M  V30 3512 H 350.504 -3.76884 -0.926302 0
M  V30 3513 H 348.605 -2.31611 -2.91868 0
M  V30 3514 H 348.718 -4.1337 -2.42202 0
M  V30 3515 H 347.082 -2.14706 -1.37016 0
M  V30 3516 H 347.865 -3.42089 -0.288041 0
M  V30 3517 N 350.31 0.590341 -1.46126 0
M  V30 3518 C 351.24 1.71032 -1.58966 0
M  V30 3519 C 352.221 1.64302 -0.440335 0
M  V30 3520 O 353.406 1.82436 -0.665634 0
M  V30 3521 C 350.536 3.09665 -1.57241 0
M  V30 3522 C 349.49 3.31221 -2.71066 0
M  V30 3523 C 348.816 4.70303 -2.54399 0
M  V30 3524 C 350.116 3.19796 -4.1295 0
M  V30 3525 H 351.81 1.60543 -2.52718 0
M  V30 3526 H 349.356 0.770933 -1.21625 0
M  V30 3527 H 351.309 3.87831 -1.64819 0
M  V30 3528 H 350.033 3.21036 -0.600289 0
M  V30 3529 H 348.692 2.55452 -2.62944 0
M  V30 3530 H 348.34 4.78429 -1.55288 0
M  V30 3531 H 348.04 4.85679 -3.30741 0
M  V30 3532 H 349.564 5.50647 -2.63857 0
M  V30 3533 H 350.978 3.87815 -4.22223 0
M  V30 3534 H 349.375 3.46696 -4.89818 0
M  V30 3535 H 350.445 2.16983 -4.33643 0
M  V30 3536 N 351.788 1.33704 0.83433 0
M  V30 3537 C 353.065 1.16011 1.57483 0
M  V30 3538 C 353.445 -0.27176 2.09343 0
M  V30 3539 O 352.793 -1.27146 1.89858 0
M  V30 3540 C 353.003 2.20507 2.70514 0
M  V30 3541 C 354.351 2.54898 3.39577 0
M  V30 3542 O 355.375 2.19209 2.80759 0
M  V30 3543 O 354.234 3.16158 4.45765 0
M  V30 3544 H 351.328 0.448992 0.694503 0
M  V30 3545 H 353.874 1.453 0.876691 0
M  V30 3546 H 352.646 3.16667 2.29865 0
M  V30 3547 H 352.269 1.92329 3.47987 0
M  V30 3548 N 353.266 -1.05314 1.17247 0
M  V30 3549 C 354.506 -1.79869 0.970898 0
M  V30 3550 C 354.87 -1.85594 -0.491808 0
M  V30 3551 O 356.071 -2.56229 -0.812409 0
M  V30 3552 C 354.342 -3.19937 1.59295 0
M  V30 3553 S 355.901 -4.10986 1.53741 0
M  V30 3554 H 352.719 -0.61949 0.348931 0
M  V30 3555 H 355.321 -1.26368 1.49169 0
M  V30 3556 H 354.025 -3.13372 2.65003 0
M  V30 3557 H 353.556 -3.78515 1.07191 0
M  V30 3558 H 355.571 -4.93203 0.544537 0
M  V30 3559 N 354.744 -0.972509 -1.24016 0
M  V30 3560 C 355.99 -0.637978 -1.92504 0
M  V30 3561 C 356.323 0.825383 -1.75787 0
M  V30 3562 O 355.598 1.59442 -1.11393 0
M  V30 3563 C 355.881 -1.01942 -3.45369 0
M  V30 3564 C 355.734 -2.53983 -3.71231 0
M  V30 3565 C 357.053 -0.55751 -4.36555 0
M  V30 3566 H 354.172 -0.233248 -0.699117 0
M  V30 3567 H 356.814 -1.21238 -1.46292 0
M  V30 3568 H 354.964 -0.530656 -3.84859 0
M  V30 3569 H 356.636 -3.10374 -3.41271 0
M  V30 3570 H 354.879 -2.96968 -3.16216 0
M  V30 3571 H 355.55 -2.75723 -4.78206 0
M  V30 3572 H 358.026 -0.977029 -4.04467 0
M  V30 3573 H 356.902 -0.85292 -5.42233 0
M  V30 3574 H 357.163 0.542328 -4.38761 0
M  V30 3575 N 356.222 1.38976 -0.743202 0
M  V30 3576 C 357.47 1.99948 -0.29417 0
M  V30 3577 C 357.791 1.59279 1.12495 0
M  V30 3578 O 357.061 0.844808 1.76748 0
M  V30 3579 H 355.641 0.739473 -0.105774 0
M  V30 3580 H 358.303 1.699 -0.954986 0
M  V30 3581 H 357.399 3.10142 -0.349056 0
M  V30 3582 N 357.7 0.491464 1.49741 0
M  V30 3583 C 358.947 -0.0564256 2.02421 0
M  V30 3584 C 359.275 -1.37872 1.37192 0
M  V30 3585 O 358.53 -1.89375 0.493508 0
M  V30 3586 C 358.829 -0.267329 3.56399 0
M  V30 3587 C 358.495 0.975775 4.40215 0
M  V30 3588 C 357.157 1.31655 4.62839 0
M  V30 3589 C 359.509 1.80251 4.89039 0
M  V30 3590 C 356.837 2.48375 5.31532 0
M  V30 3591 C 359.189 2.96116 5.59015 0
M  V30 3592 C 357.853 3.30585 5.79888 0
M  V30 3593 H 357.123 -0.0206476 0.740712 0
M  V30 3594 H 359.77 0.649686 1.80143 0
M  V30 3595 H 358.075 -1.05588 3.77304 0
M  V30 3596 H 359.772 -0.705549 3.94744 0
M  V30 3597 H 356.362 0.700315 4.2284 0
M  V30 3598 H 360.546 1.55239 4.71396 0
M  V30 3599 H 355.802 2.7533 5.45897 0
M  V30 3600 H 359.976 3.60509 5.95824 0
M  V30 3601 H 357.603 4.21132 6.32892 0
M  V30 3602 N 359.178 -1.55987 0.224894 0
M  V30 3603 C 360.11 -2.17722 -0.716224 0
M  V30 3604 C 361.123 -1.14723 -1.15509 0
M  V30 3605 O 362.312 -1.41688 -1.08567 0
M  V30 3606 C 359.412 -2.74873 -1.98238 0
M  V30 3607 C 358.585 -4.03074 -1.69853 0
M  V30 3608 C 357.644 -4.44757 -2.81208 0
M  V30 3609 O 356.67 -5.11587 -2.49534 0
M  V30 3610 N 357.872 -4.10716 -4.10235 0
M  V30 3611 H 360.637 -2.99109 -0.188123 0
M  V30 3612 H 358.198 -1.6184 0.0440123 0
M  V30 3613 H 360.19 -2.99727 -2.7193 0
M  V30 3614 H 358.76 -1.9777 -2.42086 0
M  V30 3615 H 357.98 -3.86041 -0.797875 0
M  V30 3616 H 359.268 -4.86701 -1.48324 0
M  V30 3617 H 358.666 -3.57019 -4.38809 0
M  V30 3618 H 357.223 -4.40455 -4.80461 0
M  V30 3619 N 360.656 0.0484629 -1.57525 0
M  V30 3620 C 361.881 0.759177 -1.93006 0
M  V30 3621 C 362.306 1.69125 -0.823317 0
M  V30 3622 O 361.664 1.79931 0.222364 0
M  V30 3623 C 361.712 1.50899 -3.27509 0
M  V30 3624 O 360.816 2.62112 -3.18388 0
M  V30 3625 H 360.157 0.205564 -0.631379 0
M  V30 3626 H 362.687 0.00972959 -2.04598 0
M  V30 3627 H 362.697 1.88317 -3.6194 0
M  V30 3628 H 361.372 0.825269 -4.0763 0
M  V30 3629 H 359.949 2.27379 -2.95556 0
M  V30 3630 N 362.134 1.5431 0.320358 0
M  V30 3631 C 363.084 1.803 1.39556 0
M  V30 3632 C 364.068 0.659166 1.46778 0
M  V30 3633 O 365.26 0.91926 1.51257 0
M  V30 3634 C 362.389 2.03665 2.76361 0
M  V30 3635 C 361.475 3.24178 2.73439 0
M  V30 3636 N 361.866 4.4516 2.40137 0
M  V30 3637 C 360.164 3.25816 3.04565 0
M  V30 3638 C 360.865 5.27109 2.4603 0
M  V30 3639 N 359.841 4.64368 2.82601 0
M  V30 3640 H 363.643 2.71416 1.12742 0
M  V30 3641 H 361.157 1.53548 0.528856 0
M  V30 3642 H 363.154 2.20425 3.53862 0
M  V30 3643 H 361.814 1.13805 3.04103 0
M  V30 3644 H 362.825 4.72104 2.12927 0
M  V30 3645 H 359.502 2.46001 3.37328 0
M  V30 3646 H 360.892 6.33728 2.23246 0
M  V30 3647 N 363.613 -0.582584 1.46437 0
M  V30 3648 C 364.543 -1.70187 1.59871 0
M  V30 3649 C 365.524 -1.64066 0.449042 0
M  V30 3650 O 366.709 -1.82081 0.6753 0
M  V30 3651 C 363.839 -3.08827 1.58881 0
M  V30 3652 C 362.793 -3.29779 2.72819 0
M  V30 3653 C 362.119 -4.68947 2.5689 0
M  V30 3654 C 363.419 -3.17601 4.1464 0
M  V30 3655 H 365.113 -1.592 2.53566 0
M  V30 3656 H 362.659 -0.764472 1.22032 0
M  V30 3657 H 364.612 -3.86951 1.66873 0
M  V30 3658 H 363.336 -3.20713 0.617306 0
M  V30 3659 H 361.995 -2.54054 2.64296 0
M  V30 3660 H 361.643 -4.77599 1.57823 0
M  V30 3661 H 361.343 -4.83919 3.33312 0
M  V30 3662 H 362.867 -5.4924 2.66773 0
M  V30 3663 H 364.281 -3.8557 4.24274 0
M  V30 3664 H 362.678 -3.44094 4.9165 0
M  V30 3665 H 363.748 -2.14681 4.34788 0
M  V30 3666 N 365.091 -1.34144 -0.827227 0
M  V30 3667 C 366.34 -1.25602 -1.5782 0
M  V30 3668 C 366.653 0.173445 -1.94829 0
M  V30 3669 O 367.859 0.380984 -2.68814 0
M  V30 3670 C 366.315 -2.20151 -2.84713 0
M  V30 3671 C 365.923 -3.68331 -2.55021 0
M  V30 3672 C 367.667 -2.20508 -3.62735 0
M  V30 3673 C 365.574 -4.54762 -3.78082 0
M  V30 3674 H 364.504 -0.466573 -0.592306 0
M  V30 3675 H 367.155 -1.59283 -0.911116 0
M  V30 3676 H 365.537 -1.79417 -3.53023 0
M  V30 3677 H 366.711 -4.17577 -1.94849 0
M  V30 3678 H 365.026 -3.7038 -1.90283 0
M  V30 3679 H 367.623 -2.82306 -4.54101 0
M  V30 3680 H 367.966 -1.20322 -3.98533 0
M  V30 3681 H 368.499 -2.59664 -3.01362 0
M  V30 3682 H 365.238 -5.55867 -3.47407 0
M  V30 3683 H 364.758 -4.10254 -4.37552 0
M  V30 3684 H 366.437 -4.69153 -4.45538 0
M  V30 3685 N 366.569 1.04691 -1.17803 0
M  V30 3686 C 367.815 1.78045 -0.970969 0
M  V30 3687 C 368.148 1.87686 0.498751 0
M  V30 3688 O 367.423 1.38035 1.37027 0
M  V30 3689 C 367.706 3.2166 -1.61884 0
M  V30 3690 C 367.559 3.20001 -3.161 0
M  V30 3691 C 368.878 4.1962 -1.3269 0
M  V30 3692 H 365.997 0.64633 -0.354155 0
M  V30 3693 H 368.639 1.22333 -1.45378 0
M  V30 3694 H 366.789 3.69232 -1.20831 0
M  V30 3695 H 368.461 2.80467 -3.66246 0
M  V30 3696 H 366.704 2.58203 -3.48588 0
M  V30 3697 H 367.375 4.21386 -3.56564 0
M  V30 3698 H 369.851 3.80567 -1.68249 0
M  V30 3699 H 368.727 5.18339 -1.80599 0
M  V30 3700 H 368.988 4.414 -0.248622 0
M  V30 3701 N 368.047 0.979072 1.23499 0
M  V30 3702 C 369.295 0.645941 1.91499 0
M  V30 3703 C 369.616 -0.822948 1.76784 0
M  V30 3704 O 368.886 -1.58854 1.14639 0
M  V30 3705 H 367.466 0.235919 0.708767 0
M  V30 3706 H 370.128 1.2426 1.50152 0
M  V30 3707 H 369.224 0.896411 2.9895 0
M  V30 3708 N 369.525 -1.3858 0.750561 0
M  V30 3709 C 370.457 -2.29057 0.0810714 0
M  V30 3710 C 371.47 -1.47596 -0.686973 0
M  V30 3711 O 372.659 -1.70495 -0.528563 0
M  V30 3712 C 369.759 -3.26475 -0.909247 0
M  V30 3713 C 368.932 -4.36945 -0.199478 0
M  V30 3714 C 367.991 -5.14572 -1.10011 0
M  V30 3715 O 367.017 -5.66321 -0.57177 0
M  V30 3716 N 368.219 -5.27262 -2.42849 0
M  V30 3717 H 370.984 -2.87153 0.858087 0
M  V30 3718 H 368.545 -1.50328 0.60109 0
M  V30 3719 H 370.537 -3.75285 -1.51471 0
M  V30 3720 H 369.107 -2.69298 -1.58736 0
M  V30 3721 H 368.327 -3.8981 0.586664 0
M  V30 3722 H 369.615 -5.07963 0.291783 0
M  V30 3723 H 369.013 -4.86763 -2.88233 0
M  V30 3724 H 367.57 -5.79456 -2.98453 0
M  V30 3725 N 371.003 -0.499398 -1.49478 0
M  V30 3726 C 372.249 0.0457576 -2.02748 0
M  V30 3727 C 372.582 1.36793 -1.37846 0
M  V30 3728 O 371.857 1.87596 -0.513601 0
M  V30 3729 C 372.14 0.199986 -3.59544 0
M  V30 3730 C 371.993 -1.1452 -4.34977 0
M  V30 3731 C 373.312 0.94137 -4.29914 0
M  V30 3732 H 370.431 0.0151552 -0.736844 0
M  V30 3733 H 373.073 -0.650498 -1.78518 0
M  V30 3734 H 371.223 0.793007 -3.8032 0
M  V30 3735 H 372.895 -1.77697 -4.25701 0
M  V30 3736 H 371.138 -1.73488 -3.97598 0
M  V30 3737 H 371.809 -0.990607 -5.43039 0
M  V30 3738 H 374.285 0.43844 -4.13784 0
M  V30 3739 H 373.161 1.01812 -5.39375 0
M  V30 3740 H 373.422 1.98471 -3.95046 0
M  V30 3741 N 372.481 1.55866 -0.233164 0
M  V30 3742 C 373.892 1.847 0.272554 0
M  V30 3743 C 374.243 1.15477 1.58617 0
M  V30 3744 O 373.368 0.42841 2.12117 0
M  V30 3745 C 373.963 3.35071 0.501299 0
M  V30 3746 C 372.522 3.6418 0.951304 0
M  V30 3747 C 371.669 2.77292 0.0208209 0
M  V30 3748 H 374.62 1.52005 -0.456074 0
M  V30 3749 H 374.641 3.55906 1.34577 0
M  V30 3750 H 374.153 3.85424 -0.454936 0
M  V30 3751 H 372.254 3.19293 1.92049 0
M  V30 3752 H 372.367 4.72071 0.817675 0
M  V30 3753 H 370.731 2.49131 0.529723 0
M  V30 3754 H 371.514 3.30448 -0.93054 0
M  V30 3755 N 373.959 -0.0401083 1.57549 0
M  V30 3756 C 375.207 -0.731677 1.8839 0
M  V30 3757 C 375.528 -1.76481 0.829425 0
M  V30 3758 O 374.798 -1.95411 -0.1383 0
M  V30 3759 H 373.378 -0.273225 0.695239 0
M  V30 3760 H 376.04 -0.00867725 1.94898 0
M  V30 3761 H 375.136 -1.22816 2.86919 0
M  V30 3762 N 375.437 -1.54477 -0.31217 0
M  V30 3763 C 376.714 -1.63891 -1.06767 0
M  V30 3764 C 377.094 -0.480028 -2.0557 0
M  V30 3765 O 376.442 0.524487 -2.22399 0
M  V30 3766 C 376.652 -3.01402 -1.75948 0
M  V30 3767 C 378 -3.57838 -2.28554 0
M  V30 3768 O 379.024 -3.03782 -1.85998 0
M  V30 3769 O 377.883 -4.52462 -3.06497 0
M  V30 3770 H 374.977 -0.664125 -0.492816 0
M  V30 3771 H 377.523 -1.66823 -0.311149 0
M  V30 3772 H 376.295 -3.77187 -1.04144 0
M  V30 3773 H 375.918 -3.02199 -2.58383 0
M  V30 3774 N 376.915 0.57481 -1.46744 0
M  V30 3775 C 378.162 1.33272 -1.52462 0
M  V30 3776 C 378.49 1.93669 -0.179572 0
M  V30 3777 O 377.745 1.7743 0.825664 0
M  V30 3778 C 378.044 2.476 -2.57738 0
M  V30 3779 C 377.71 2.05146 -4.01529 0
M  V30 3780 C 376.372 1.93284 -4.40676 0
M  V30 3781 C 378.724 1.72506 -4.91824 0
M  V30 3782 C 376.052 1.47049 -5.67973 0
M  V30 3783 C 378.404 1.27748 -6.19567 0
M  V30 3784 C 377.068 1.14468 -6.57612 0
M  V30 3785 H 376.338 0.487678 -0.557899 0
M  V30 3786 H 378.985 0.646456 -1.80259 0
M  V30 3787 H 377.29 3.21708 -2.23632 0
M  V30 3788 H 378.987 3.05807 -2.5939 0
M  V30 3789 H 375.577 2.15316 -3.7059 0
M  V30 3790 H 379.761 1.80552 -4.62293 0
M  V30 3791 H 375.017 1.35417 -5.96215 0
M  V30 3792 H 379.191 1.01547 -6.88957 0
M  V30 3793 H 376.818 0.78419 -7.56145 0
M  V30 3794 N 378.394 1.34581 0.820102 0
M  V30 3795 C 379.81 1.14325 1.11364 0
M  V30 3796 C 380.01 -0.0533648 2.01429 0
M  V30 3797 O 379.066 -0.728044 2.41776 0
M  V30 3798 C 380.379 2.43983 1.75764 0
M  V30 3799 C 381.927 2.50065 1.88246 0
M  V30 3800 C 382.402 3.79732 2.56061 0
M  V30 3801 N 383.893 3.80908 2.63558 0
M  V30 3802 C 384.628 4.77961 3.16766 0
M  V30 3803 N 384.124 5.85397 3.70517 0
M  V30 3804 N 385.917 4.65413 3.15194 0
M  V30 3805 H 378.068 2.11246 0.221096 0
M  V30 3806 H 380.331 0.934289 0.160649 0
M  V30 3807 H 380.037 3.31651 1.1705 0
M  V30 3808 H 379.911 2.57531 2.75604 0
M  V30 3809 H 382.298 1.62834 2.46108 0
M  V30 3810 H 382.379 2.40442 0.873006 0
M  V30 3811 H 382.023 4.67354 1.98853 0
M  V30 3812 H 381.953 3.86639 3.57516 0
M  V30 3813 H 384.444 3.03274 2.25463 0
M  V30 3814 H 384.757 6.55463 4.09376 0
M  V30 3815 H 383.102 5.89107 3.68752 0
M  V30 3816 H 386.293 3.80627 2.72471 0
M  V30 3817 H 386.466 5.41216 3.56356 0
M  V30 3818 N 379.872 -1.04064 1.18357 0
M  V30 3819 C 380.804 -2.12114 0.868358 0
M  V30 3820 C 381.817 -1.62247 -0.134045 0
M  V30 3821 O 383.006 -1.78253 0.0937933 0
M  V30 3822 C 380.106 -3.37773 0.276132 0
M  V30 3823 C 379.279 -4.16874 1.3242 0
M  V30 3824 C 378.338 -5.20861 0.747662 0
M  V30 3825 O 377.364 -5.51141 1.42239 0
M  V30 3826 N 378.566 -5.78715 -0.454823 0
M  V30 3827 H 381.331 -2.39748 1.79836 0
M  V30 3828 H 378.892 -1.20258 1.08396 0
M  V30 3829 H 380.884 -4.04513 -0.123133 0
M  V30 3830 H 379.454 -3.07581 -0.557895 0
M  V30 3831 H 378.674 -3.45456 1.89878 0
M  V30 3832 H 379.962 -4.66516 2.03078 0
M  V30 3833 H 379.36 -5.56415 -1.02073 0
M  V30 3834 H 377.917 -6.46921 -0.79601 0
M  V30 3835 N 381.35 -0.985608 -1.22978 0
M  V30 3836 C 382.298 -0.522631 -2.26652 0
M  V30 3837 C 383.292 0.422998 -1.64034 0
M  V30 3838 O 384.498 0.296319 -1.77544 0
M  V30 3839 H 380.873 -0.150597 -0.736766 0
M  V30 3840 H 382.844 -1.40863 -2.63059 0
M  V30 3841 C 381.593 0.154238 -3.47358 0
M  V30 3842 H 380.916 -0.564329 -3.95797 0
M  V30 3843 H 382.356 0.441744 -4.21693 0
M  V30 3844 C 380.815 1.38719 -3.07016 0
M  V30 3845 O 381.345 2.48307 -3.15764 0
M  V30 3846 N 379.551 1.25975 -2.61875 0
M  V30 3847 H 379.098 0.368068 -2.54957 0
M  V30 3848 H 379.056 2.08578 -2.3525 0
M  V30 3849 N 382.828 1.3818 -0.7579 0
M  V30 3850 C 383.758 2.33027 -0.148597 0
M  V30 3851 C 384.739 1.55085 0.69875 0
M  V30 3852 O 385.924 1.83384 0.639053 0
M  V30 3853 C 383.054 3.3928 0.742034 0
M  V30 3854 C 382.008 4.28 -0.00291946 0
M  V30 3855 C 381.334 5.25146 1.00625 0
M  V30 3856 C 382.634 5.08938 -1.17385 0
M  V30 3857 H 384.328 2.84231 -0.940909 0
M  V30 3858 H 381.874 1.36659 -0.453908 0
M  V30 3859 H 383.827 4.046 1.17799 0
M  V30 3860 H 382.551 2.86569 1.56671 0
M  V30 3861 H 381.21 3.64192 -0.419504 0
M  V30 3862 H 380.858 4.68721 1.8251 0
M  V30 3863 H 380.558 5.85361 0.512428 0
M  V30 3864 H 382.082 5.93342 1.44143 0
M  V30 3865 H 383.496 5.67474 -0.815224 0
M  V30 3866 H 381.893 5.7841 -1.59882 0
M  V30 3867 H 382.963 4.42424 -1.98468 0
M  V30 3868 N 384.306 0.507319 1.49211 0
M  V30 3869 C 385.238 -0.304532 2.27168 0
M  V30 3870 C 386.251 -0.924956 1.33972 0
M  V30 3871 O 387.44 -0.807227 1.59205 0
M  V30 3872 C 384.54 -1.44431 3.06583 0
M  V30 3873 C 383.713 -0.930026 4.27398 0
M  V30 3874 C 382.772 -1.94817 4.88807 0
M  V30 3875 O 381.798 -1.51418 5.4869 0
M  V30 3876 N 383 -3.279 4.79022 0
M  V30 3877 H 385.765 0.36395 2.97482 0
M  V30 3878 H 383.326 0.340249 1.58284 0
M  V30 3879 H 385.318 -2.12311 3.44537 0
M  V30 3880 H 383.888 -2.01684 2.38835 0
M  V30 3881 H 383.108 -0.0759244 3.94127 0
M  V30 3882 H 384.396 -0.564932 5.05654 0
M  V30 3883 H 383.794 -3.65843 4.3148 0
M  V30 3884 H 382.351 -3.91476 5.21142 0
M  V30 3885 N 385.784 -1.5574 0.241426 0
M  V30 3886 C 387.2 -1.59196 -0.113548 0
M  V30 3887 C 387.4 -1.25852 -1.57364 0
M  V30 3888 O 386.456 -1.00322 -2.31715 0
M  V30 3889 C 387.769 -2.99814 0.230695 0
M  V30 3890 C 389.317 -3.12513 0.174547 0
M  V30 3891 C 389.792 -4.55342 0.492744 0
M  V30 3892 N 391.283 -4.61076 0.443043 0
M  V30 3893 C 392.018 -5.6956 0.662484 0
M  V30 3894 N 391.514 -6.86328 0.944761 0
M  V30 3895 N 393.307 -5.58957 0.593564 0
M  V30 3896 H 385.458 -1.75685 1.19368 0
M  V30 3897 H 387.721 -0.81756 0.479896 0
M  V30 3898 H 387.427 -3.28932 1.24485 0
M  V30 3899 H 387.301 -3.74568 -0.444833 0
M  V30 3900 H 389.688 -2.83179 -0.830277 0
M  V30 3901 H 389.769 -2.40045 0.883845 0
M  V30 3902 H 389.413 -4.85396 1.4951 0
M  V30 3903 H 389.343 -5.26062 -0.23797 0
M  V30 3904 H 391.834 -3.77179 0.233374 0
M  V30 3905 H 392.147 -7.64935 1.09977 0
M  V30 3906 H 390.492 -6.88025 0.982175 0
M  V30 3907 H 393.683 -4.66611 0.373123 0
M  V30 3908 H 393.856 -6.43433 0.767981 0
M  V30 3909 N 387.262 0.0317525 -1.57568 0
M  V30 3910 C 388.509 0.723104 -1.89149 0
M  V30 3911 C 388.837 1.75504 -0.838377 0
M  V30 3912 O 388.092 1.95037 0.160982 0
M  V30 3913 C 388.391 1.43167 -3.27472 0
M  V30 3914 C 388.057 0.535972 -4.47703 0
M  V30 3915 C 386.719 0.289262 -4.8033 0
M  V30 3916 C 389.071 -0.0826125 -5.21135 0
M  V30 3917 C 386.399 -0.584853 -5.83778 0
M  V30 3918 C 388.751 -0.944414 -6.25511 0
M  V30 3919 C 387.415 -1.20061 -6.56614 0
M  V30 3920 H 386.685 0.264602 -0.692146 0
M  V30 3921 H 389.332 -0.0169496 -1.91492 0
M  V30 3922 H 387.637 2.24497 -3.21105 0
M  V30 3923 H 389.334 1.97209 -3.49155 0
M  V30 3924 H 385.924 0.738414 -4.22191 0
M  V30 3925 H 390.108 0.0950302 -4.96209 0
M  V30 3926 H 385.364 -0.79168 -6.06253 0
M  V30 3927 H 389.538 -1.43026 -6.81554 0
M  V30 3928 H 387.165 -1.87967 -7.36595 0
M  V30 3929 N 388.74 1.54641 0.303973 0
M  V30 3930 C 389.703 1.84646 1.35789 0
M  V30 3931 C 390.703 0.7192 1.4382 0
M  V30 3932 O 391.893 0.987491 1.43507 0
M  V30 3933 C 389.025 2.02407 2.74307 0
M  V30 3934 H 390.218 2.78829 1.10429 0
M  V30 3935 H 387.771 1.46658 0.540487 0
M  V30 3936 H 388.506 1.10502 3.04893 0
M  V30 3937 H 388.291 2.84453 2.69868 0
M  V30 3938 H 389.781 2.27002 3.50514 0
M  V30 3939 N 390.218 -0.567019 1.47046 0
M  V30 3940 C 391.495 -1.3276 1.43646 0
M  V30 3941 C 391.875 -2.1071 0.128186 0
M  V30 3942 O 391.223 -2.10441 -0.890326 0
M  V30 3943 C 391.433 -2.2404 2.67595 0
M  V30 3944 C 392.781 -2.85372 3.14401 0
M  V30 3945 O 393.805 -2.34346 2.68254 0
M  V30 3946 O 392.664 -3.78091 3.946 0
M  V30 3947 H 389.758 -0.597293 0.571988 0
M  V30 3948 H 392.304 -0.586735 1.59234 0
M  V30 3949 H 391.076 -1.65975 3.54356 0
M  V30 3950 H 390.699 -3.05439 2.54544 0
M  V30 3951 N 391.696 -1.35014 -0.812953 0
M  V30 3952 C 392.626 -1.30069 -1.93919 0
M  V30 3953 C 393.607 -0.176275 -1.69184 0
M  V30 3954 O 394.792 -0.370227 -1.90638 0
M  V30 3955 C 391.922 -1.06547 -3.30552 0
M  V30 3956 C 390.876 -2.15561 -3.69753 0
M  V30 3957 C 390.202 -1.77214 -5.04479 0
M  V30 3958 C 391.502 -3.57476 -3.808 0
M  V30 3959 H 393.196 -2.24303 -1.98314 0
M  V30 3960 H 390.742 -1.07977 -0.952736 0
M  V30 3961 H 392.695 -1.01729 -4.08937 0
M  V30 3962 H 391.419 -0.0875719 -3.26483 0
M  V30 3963 H 390.078 -2.19466 -2.9365 0
M  V30 3964 H 389.726 -0.780589 -4.96906 0
M  V30 3965 H 389.426 -2.50184 -5.31678 0
M  V30 3966 H 390.95 -1.7391 -5.8531 0
M  V30 3967 H 392.364 -3.55929 -4.4943 0
M  V30 3968 H 390.761 -4.29152 -4.19462 0
M  V30 3969 H 391.831 -3.94091 -2.82525 0
M  V30 3970 N 393.175 1.03435 -1.18907 0
M  V30 3971 C 394.423 1.76394 -0.986382 0
M  V30 3972 C 394.744 1.88883 0.484567 0
M  V30 3973 O 394.014 1.41843 1.3512 0
M  V30 3974 H 392.594 0.65344 -0.361975 0
M  V30 3975 H 395.256 1.248 -1.49703 0
M  V30 3976 H 394.352 2.77424 -1.42978 0
M  V30 3977 N 394.653 0.992116 1.22453 0
M  V30 3978 C 395.899 0.668523 1.91464 0
M  V30 3979 C 396.232 -0.797313 1.77078 0
M  V30 3980 O 395.507 -1.5765 1.13916 0
M  V30 3981 C 395.79 1.07424 3.43703 0
M  V30 3982 C 395.643 2.59857 3.67143 0
M  V30 3983 C 396.962 0.626891 4.35612 0
M  V30 3984 H 394.081 0.244341 0.695318 0
M  V30 3985 H 396.723 1.2355 1.44345 0
M  V30 3986 H 394.873 0.591816 3.83966 0
M  V30 3987 H 396.545 3.15764 3.3629 0
M  V30 3988 H 394.788 3.01961 3.11451 0
M  V30 3989 H 395.459 2.83296 4.73759 0
M  V30 3990 H 397.935 1.04125 4.02861 0
M  V30 3991 H 396.811 0.939076 5.40807 0
M  V30 3992 H 397.072 -0.472457 4.39568 0
M  V30 3993 N 396.131 -1.37776 0.765217 0
M  V30 3994 C 397.408 -1.93975 0.251596 0
M  V30 3995 C 397.788 -1.69949 -1.25222 0
M  V30 3996 O 397.136 -1.04457 -2.03226 0
M  V30 3997 C 397.346 -3.43487 0.617895 0
M  V30 3998 C 398.694 -4.20564 0.584029 0
M  V30 3999 O 399.718 -3.5182 0.556888 0
M  V30 4000 O 398.577 -5.43138 0.605291 0
M  V30 4001 H 395.671 -0.82509 0.0561806 0
M  V30 4002 H 398.217 -1.47101 0.846128 0
M  V30 4003 H 396.989 -3.5453 1.65602 0
M  V30 4004 H 396.612 -3.976 -0.00403411 0
M  V30 4005 N 397.609 -0.515225 -1.4894 0
M  V30 4006 C 398.855 0.0242508 -2.02785 0
M  V30 4007 C 399.188 1.35323 -1.39289 0
M  V30 4008 O 398.463 1.87041 -0.533469 0
M  V30 4009 C 398.746 0.16184 -3.59736 0
M  V30 4010 C 398.599 -1.19127 -4.33738 0
M  V30 4011 C 399.918 0.895719 -4.30888 0
M  V30 4012 H 397.037 0.00733914 -0.736963 0
M  V30 4013 H 399.679 -0.669395 -1.77818 0
M  V30 4014 H 397.829 0.752624 -3.8114 0
M  V30 4015 H 399.501 -1.82202 -4.23792 0
M  V30 4016 H 397.744 -1.77695 -3.95736 0
M  V30 4017 H 398.415 -1.04815 -5.41957 0
M  V30 4018 H 400.891 0.394528 -4.14225 0
M  V30 4019 H 399.767 0.960859 -5.40425 0
M  V30 4020 H 400.028 1.9427 -3.97129 0
M  V30 4021 N 399.087 1.5561 -0.249682 0
M  V30 4022 C 400.503 1.59254 0.105103 0
M  V30 4023 C 400.703 1.26685 1.56694 0
M  V30 4024 O 399.759 1.0155 2.31179 0
M  V30 4025 C 401.072 2.99687 -0.246592 0
M  V30 4026 C 402.62 3.12416 -0.191118 0
M  V30 4027 C 403.095 4.55074 -0.516885 0
M  V30 4028 N 404.586 4.60835 -0.467489 0
M  V30 4029 C 405.321 5.69201 -0.69268 0
M  V30 4030 N 404.817 6.85817 -0.981146 0
M  V30 4031 N 406.61 5.58635 -0.623198 0
M  V30 4032 H 398.761 1.75049 -1.20298 0
M  V30 4033 H 401.024 0.815003 -0.484225 0
M  V30 4034 H 400.73 3.28267 -1.26228 0
M  V30 4035 H 400.604 3.74798 0.424962 0
M  V30 4036 H 402.991 2.83615 0.815247 0
M  V30 4037 H 403.072 2.39573 -0.896563 0
M  V30 4038 H 402.716 4.84596 -1.52082 0
M  V30 4039 H 402.646 5.26181 0.210068 0
M  V30 4040 H 405.137 3.7705 -0.253373 0
M  V30 4041 H 405.45 7.64341 -1.14032 0
M  V30 4042 H 403.795 6.87494 -1.01865 0
M  V30 4043 H 406.986 4.66406 -0.397863 0
M  V30 4044 H 407.159 6.43017 -0.802093 0
M  V30 4045 N 400.565 -0.0233959 1.57583 0
M  V30 4046 C 401.814 -0.712133 1.8871 0
M  V30 4047 C 402.127 -1.76217 0.848944 0
M  V30 4048 O 403.333 -2.50389 1.04964 0
M  V30 4049 C 401.789 -1.3177 3.3491 0
M  V30 4050 C 401.397 -0.303715 4.46969 0
M  V30 4051 C 403.141 -1.98598 3.75179 0
M  V30 4052 C 401.048 -0.917945 5.84233 0
M  V30 4053 H 399.978 -0.269735 0.704101 0
M  V30 4054 H 402.629 0.0333114 1.8347 0
M  V30 4055 H 401.011 -2.11304 3.34913 0
M  V30 4056 H 402.185 0.465325 4.58445 0
M  V30 4057 H 400.5 0.2628 4.1557 0
M  V30 4058 H 403.097 -2.45416 4.75053 0
M  V30 4059 H 403.44 -2.80659 3.07468 0
M  V30 4060 H 403.973 -1.25831 3.77374 0
M  V30 4061 H 400.712 -0.136633 6.55358 0
M  V30 4062 H 400.232 -1.65669 5.76467 0
M  V30 4063 H 401.911 -1.4236 6.31144 0
M  V30 4064 N 402.043 -1.548 -0.295768 0
M  V30 4065 C 403.271 -1.78327 -1.04914 0
M  V30 4066 C 403.686 -0.545316 -1.80753 0
M  V30 4067 O 403.043 0.485013 -1.75937 0
M  V30 4068 C 403.094 -2.99418 -2.02561 0
M  V30 4069 O 402.815 -4.18431 -1.29798 0
M  V30 4070 C 404.316 -3.35375 -2.89895 0
M  V30 4071 H 401.536 -0.594618 -0.310918 0
M  V30 4072 H 404.08 -2.01763 -0.333454 0
M  V30 4073 H 402.235 -2.78175 -2.69624 0
M  V30 4074 H 402.649 -4.86736 -1.95419 0
M  V30 4075 H 404.123 -4.23332 -3.54251 0
M  V30 4076 H 404.6 -2.53761 -3.58472 0
M  V30 4077 H 405.206 -3.58796 -2.28355 0
M  V30 4078 N 403.521 0.559213 -1.47345 0
M  V30 4079 C 404.431 1.69388 -1.62311 0
M  V30 4080 C 405.447 1.6648 -0.505993 0
M  V30 4081 O 406.623 1.85964 -0.773262 0
M  V30 4082 C 403.688 3.05894 -1.63185 0
M  V30 4083 C 402.749 3.19885 -2.86307 0
M  V30 4084 C 401.982 4.49879 -2.87131 0
M  V30 4085 O 402.205 5.35217 -1.97229 0
M  V30 4086 O 401.139 4.67618 -3.78968 0
M  V30 4087 H 404.965 1.59706 -2.58317 0
M  V30 4088 H 402.55 0.728989 -1.30407 0
M  V30 4089 H 404.432 3.87133 -1.66451 0
M  V30 4090 H 403.107 3.15964 -0.70345 0
M  V30 4091 H 402.014 2.38052 -2.88587 0
M  V30 4092 H 403.347 3.14718 -3.78435 0
M  V30 4093 N 404.999 1.35443 0.805782 0
M  V30 4094 C 405.929 1.31095 1.93226 0
M  V30 4095 C 406.91 0.185244 1.69088 0
M  V30 4096 O 408.095 0.380332 1.90439 0
M  V30 4097 C 405.225 1.08299 3.29983 0
M  V30 4098 C 404.179 2.17519 3.68605 0
M  V30 4099 C 403.505 1.79887 5.03532 0
M  V30 4100 C 404.805 3.5949 3.78898 0
M  V30 4101 H 406.499 2.25352 1.97122 0
M  V30 4102 H 404.045 1.0848 0.946996 0
M  V30 4103 H 405.998 1.03897 4.08391 0
M  V30 4104 H 404.722 0.104885 3.26432 0
M  V30 4105 H 403.381 2.2102 2.92482 0
M  V30 4106 H 403.029 0.80693 4.96485 0
M  V30 4107 H 402.729 2.53001 5.30344 0
M  V30 4108 H 404.253 1.77011 5.84379 0
M  V30 4109 H 405.667 3.58307 4.47536 0
M  V30 4110 H 404.064 4.31371 4.1718 0
M  V30 4111 H 405.134 3.95584 2.80431 0
M  V30 4112 N 406.477 -1.02803 1.19454 0
M  V30 4113 C 407.754 -1.73299 0.907013 0
M  V30 4114 C 408.134 -2.02772 -0.587086 0
M  V30 4115 O 407.482 -1.68304 -1.54551 0
M  V30 4116 C 407.692 -3.00912 1.76785 0
M  V30 4117 C 409.04 -3.74403 2.00268 0
M  V30 4118 O 410.064 -3.10841 1.73943 0
M  V30 4119 O 408.923 -4.88675 2.4466 0
M  V30 4120 H 406.017 -0.754727 0.338106 0
M  V30 4121 H 408.563 -1.08754 1.30271 0
M  V30 4122 H 407.335 -2.75366 2.7801 0
M  V30 4123 H 406.958 -3.73197 1.37149 0
M  V30 4124 N 407.956 -0.998596 -1.21925 0
M  V30 4125 C 409.205 -0.673085 -1.90138 0
M  V30 4126 C 409.518 0.79895 -1.78539 0
M  V30 4127 O 410.724 1.23628 -2.4172 0
M  V30 4128 C 409.18 -1.15339 -3.40918 0
M  V30 4129 C 408.788 -2.65106 -3.61141 0
M  V30 4130 C 410.532 -0.902476 -4.14796 0
M  V30 4131 C 408.439 -3.0671 -5.05651 0
M  V30 4132 H 407.369 -0.248057 -0.712028 0
M  V30 4133 H 410.02 -1.20891 -1.38049 0
M  V30 4134 H 408.402 -0.545658 -3.92223 0
M  V30 4135 H 409.576 -3.31274 -3.20304 0
M  V30 4136 H 407.891 -2.88142 -3.00605 0
M  V30 4137 H 410.488 -1.18895 -5.21314 0
M  V30 4138 H 410.831 0.161349 -4.15987 0
M  V30 4139 H 411.364 -1.47269 -3.69536 0
M  V30 4140 H 408.103 -4.12292 -5.09603 0
M  V30 4141 H 407.623 -2.45249 -5.47369 0
M  V30 4142 H 409.302 -2.9833 -5.74115 0
M  V30 4143 N 409.434 1.37368 -0.772513 0
M  V30 4144 C 410.85 1.53059 -0.452231 0
M  V30 4145 C 411.05 1.73065 1.03203 0
M  V30 4146 O 410.106 1.75245 1.81784 0
M  V30 4147 C 411.419 2.72659 -1.26797 0
M  V30 4148 C 412.967 2.86521 -1.25995 0
M  V30 4149 C 413.442 4.09105 -2.05905 0
M  V30 4150 N 414.933 4.16219 -2.03263 0
M  V30 4151 C 415.668 5.10107 -2.61875 0
M  V30 4152 N 415.164 6.09547 -3.29278 0
M  V30 4153 N 416.957 5.02596 -2.51701 0
M  V30 4154 H 409.108 1.22634 -1.7342 0
M  V30 4155 H 411.371 0.597206 -0.736239 0
M  V30 4156 H 411.077 2.64343 -2.31982 0
M  V30 4157 H 410.951 3.66363 -0.897672 0
M  V30 4158 H 413.338 2.94308 -0.216081 0
M  V30 4159 H 413.419 1.93774 -1.66989 0
M  V30 4160 H 413.063 4.0208 -3.10313 0
M  V30 4161 H 412.993 5.00968 -1.62292 0
M  V30 4162 H 415.484 3.45012 -1.54192 0
M  V30 4163 H 415.797 6.77718 -3.71374 0
M  V30 4164 H 414.142 6.09824 -3.33377 0
M  V30 4165 H 417.333 4.23855 -1.98657 0
M  V30 4166 H 417.506 5.75582 -2.97673 0
M  V30 4167 N 410.912 0.523116 1.48665 0
M  V30 4168 C 411.845 -0.290518 2.26343 0
M  V30 4169 C 412.823 -0.950913 1.31895 0
M  V30 4170 O 414.007 -0.976662 1.61225 0
M  V30 4171 C 411.134 -1.41088 3.07915 0
M  V30 4172 C 410.18 -0.862597 4.17686 0
M  V30 4173 S 411.013 0.264135 5.34848 0
M  V30 4174 C 412.169 -0.858864 6.19979 0
M  V30 4175 H 412.402 0.368726 2.95005 0
M  V30 4176 H 409.935 0.30878 1.51281 0
M  V30 4177 H 411.893 -2.0527 3.55492 0
M  V30 4178 H 410.554 -2.04182 2.38681 0
M  V30 4179 H 409.747 -1.70287 4.74361 0
M  V30 4180 H 409.349 -0.297595 3.72814 0
M  V30 4181 H 411.641 -1.7591 6.54264 0
M  V30 4182 H 412.584 -0.330244 7.07329 0
M  V30 4183 H 412.992 -1.13617 5.52948 0
M  V30 4184 N 412.39 -1.55475 0.257931 0
M  V30 4185 C 413.806 -1.59307 -0.0966563 0
M  V30 4186 C 414.006 -1.27514 -1.5602 0
M  V30 4187 O 413.062 -1.02774 -2.30637 0
M  V30 4188 C 414.375 -2.99552 0.262481 0
M  V30 4189 C 415.923 -3.1231 0.207683 0
M  V30 4190 C 416.398 -4.54793 0.541012 0
M  V30 4191 N 417.889 -4.6058 0.491921 0
M  V30 4192 C 418.624 -5.68825 0.722857 0
M  V30 4193 N 418.12 -6.85287 1.0175 0
M  V30 4194 N 419.913 -5.58296 0.652815 0
M  V30 4195 H 412.064 -1.74409 1.21224 0
M  V30 4196 H 414.327 -0.812424 0.48854 0
M  V30 4197 H 414.033 -3.27593 1.27967 0
M  V30 4198 H 413.907 -3.75019 -0.40508 0
M  V30 4199 H 416.294 -2.84044 -0.800195 0
M  V30 4200 H 416.375 -2.39095 0.909255 0
M  V30 4201 H 416.019 -4.83783 1.5465 0
M  V30 4202 H 415.949 -5.26285 -0.18216 0
M  V30 4203 H 418.44 -3.7691 0.273366 0
M  V30 4204 H 418.753 -7.63725 1.18084 0
M  V30 4205 H 417.098 -6.86945 1.05509 0
M  V30 4206 H 420.289 -4.66189 0.422592 0
M  V30 4207 H 420.462 -6.42582 0.836182 0
M  V30 4208 N 413.868 0.0150385 -1.57593 0
M  V30 4209 C 415.096 0.714395 -1.94175 0
M  V30 4210 C 415.511 1.68135 -0.858841 0
M  V30 4211 O 414.868 1.81766 0.163567 0
M  V30 4212 C 414.919 1.45933 -3.30735 0
M  V30 4213 O 414.64 0.531167 -4.34868 0
M  V30 4214 C 416.141 2.25456 -3.81686 0
M  V30 4215 H 413.361 0.199923 -0.640525 0
M  V30 4216 H 415.905 -0.0316096 -2.04476 0
M  V30 4217 H 414.06 2.15709 -3.21789 0
M  V30 4218 H 414.474 1.05509 -5.13778 0
M  V30 4219 H 415.948 2.731 -4.79709 0
M  V30 4220 H 416.425 3.07485 -3.13607 0
M  V30 4221 H 417.031 1.60727 -3.9376 0
M  V30 4222 N 415.346 1.54954 0.287554 0
M  V30 4223 C 416.757 1.65732 0.859634 0
M  V30 4224 C 417.108 0.574767 1.87592 0
M  V30 4225 O 416.233 -0.286299 2.14498 0
M  V30 4226 C 416.828 3.00438 1.56597 0
M  V30 4227 C 415.387 3.13292 2.08627 0
M  V30 4228 C 414.534 2.61473 0.923416 0
M  V30 4229 H 417.485 1.5857 0.0642338 0
M  V30 4230 H 417.506 2.92613 2.43224 0
M  V30 4231 H 417.018 3.79207 0.826053 0
M  V30 4232 H 415.119 2.39268 2.85625 0
M  V30 4233 H 415.232 4.19647 2.31157 0
M  V30 4234 H 413.596 2.18264 1.31275 0
M  V30 4235 H 414.379 3.42733 0.197241 0
M  V30 4236 N 416.824 -0.551391 1.4764 0
M  V30 4237 C 418.049 -1.33837 1.58437 0
M  V30 4238 C 418.474 -1.866 0.237063 0
M  V30 4239 O 417.832 -1.6328 -0.787994 0
M  V30 4240 C 417.88 -2.48014 2.61766 0
M  V30 4241 O 416.984 -3.50419 2.1744 0
M  V30 4242 H 416.325 -0.397299 0.532024 0
M  V30 4243 H 418.855 -0.665759 1.93465 0
M  V30 4244 H 418.865 -2.94503 2.82369 0
M  V30 4245 H 417.54 -2.08969 3.5959 0
M  V30 4246 H 416.117 -3.10196 2.06961 0
M  V30 4247 N 418.302 -1.35869 -0.798587 0
M  V30 4248 C 419.579 -1.20145 -1.54352 0
M  V30 4249 C 419.959 0.216161 -2.0999 0
M  V30 4250 O 419.307 1.22068 -1.93162 0
M  V30 4251 C 419.517 -2.27602 -2.64572 0
M  V30 4252 C 420.865 -2.63811 -3.32699 0
M  V30 4253 O 421.889 -2.26576 -2.74849 0
M  V30 4254 O 420.748 -3.27866 -4.37226 0
M  V30 4255 H 417.842 -0.467248 -0.682355 0
M  V30 4256 H 420.388 -1.47574 -0.837859 0
M  V30 4257 H 419.16 -3.2265 -2.21388 0
M  V30 4258 H 418.783 -2.01488 -3.42766 0
M  V30 4259 N 419.78 1.02168 -1.19998 0
M  V30 4260 C 420.743 2.08765 -0.94604 0
M  V30 4261 C 421.743 1.60618 0.0763846 0
M  V30 4262 O 422.933 1.73472 -0.159135 0
M  V30 4263 C 420.065 3.38262 -0.423255 0
M  V30 4264 H 421.258 2.32726 -1.89153 0
M  V30 4265 H 418.811 1.1889 -1.01464 0
M  V30 4266 H 419.546 3.19974 0.527938 0
M  V30 4267 H 419.331 3.74532 -1.16053 0
M  V30 4268 H 420.821 4.16759 -0.264911 0
M  V30 4269 N 421.258 1.00505 1.21394 0
M  V30 4270 C 422.486 0.706609 1.9446 0
M  V30 4271 C 422.901 -0.73081 1.74082 0
M  V30 4272 O 422.258 -1.49446 1.04747 0
M  V30 4273 C 422.309 1.01824 3.46863 0
M  V30 4274 O 422.03 2.39919 3.66566 0
M  V30 4275 C 423.531 0.739216 4.37093 0
M  V30 4276 H 420.751 0.260394 0.618414 0
M  V30 4277 H 423.295 1.34311 1.54211 0
M  V30 4278 H 421.45 0.427343 3.85036 0
M  V30 4279 H 421.864 2.50784 4.6066 0
M  V30 4280 H 423.338 1.00744 5.42729 0
M  V30 4281 H 423.815 -0.326746 4.37983 0
M  V30 4282 H 424.421 1.31173 4.04566 0
M  V30 4283 N 422.737 -1.36956 0.779787 0
M  V30 4284 C 423.684 -2.30175 0.169697 0
M  V30 4285 C 424.654 -1.51501 -0.68094 0
M  V30 4286 O 425.839 -1.80042 -0.631629 0
M  V30 4287 C 422.979 -3.37985 -0.697131 0
M  V30 4288 C 422.092 -4.31661 0.170992 0
M  V30 4289 C 421.227 -5.2655 -0.701298 0
M  V30 4290 C 420.266 -6.11867 0.168869 0
M  V30 4291 N 419.403 -6.98973 -0.661855 0
M  V30 4292 H 424.243 -2.81767 0.970135 0
M  V30 4293 H 421.78 -1.38699 0.489994 0
M  V30 4294 H 423.738 -3.99128 -1.2146 0
M  V30 4295 H 422.368 -2.87739 -1.46309 0
M  V30 4296 H 421.42 -3.71756 0.80634 0
M  V30 4297 H 422.732 -4.91644 0.841875 0
M  V30 4298 H 421.886 -5.92937 -1.28494 0
M  V30 4299 H 420.625 -4.66998 -1.40584 0
M  V30 4300 H 419.63 -5.44452 0.764986 0
M  V30 4301 H 420.855 -6.73493 0.870863 0
M  V30 4302 H 418.801 -6.41941 -1.35086 0
M  V30 4303 H 418.718 -7.55984 -0.0484447 0
M  V30 4304 H 419.986 -7.6974 -1.22963 0
M  V30 4305 N 424.215 -0.530993 -1.48385 0
M  V30 4306 C 425.145 0.219985 -2.32461 0
M  V30 4307 C 426.126 0.934111 -1.42156 0
M  V30 4308 O 427.311 0.919694 -1.71042 0
M  V30 4309 C 424.441 1.26674 -3.23375 0
M  V30 4310 C 423.395 0.67069 -4.22712 0
M  V30 4311 C 422.721 1.82017 -5.02766 0
M  V30 4312 C 424.021 -0.358268 -5.2107 0
M  V30 4313 H 425.715 -0.48187 -2.95497 0
M  V30 4314 H 423.261 -0.233182 -1.42099 0
M  V30 4315 H 425.214 1.80006 -3.81019 0
M  V30 4316 H 423.938 1.99818 -2.58341 0
M  V30 4317 H 422.597 0.158878 -3.66256 0
M  V30 4318 H 422.245 2.54002 -4.34157 0
M  V30 4319 H 421.945 1.42727 -5.70003 0
M  V30 4320 H 423.469 2.35725 -5.63264 0
M  V30 4321 H 424.883 0.0880081 -5.73232 0
M  V30 4322 H 423.28 -0.66861 -5.96364 0
M  V30 4323 H 424.35 -1.26367 -4.68145 0
M  V30 4324 N 425.693 1.55336 -0.266172 0
M  V30 4325 C 426.656 2.20878 0.612001 0
M  V30 4326 C 427.656 1.18388 1.08816 0
M  V30 4327 O 428.846 1.4335 0.989774 0
M  V30 4328 C 425.978 2.86765 1.84332 0
M  V30 4329 H 427.171 2.99873 0.0398718 0
M  V30 4330 H 424.724 1.56291 -0.0167309 0
M  V30 4331 H 425.459 2.11759 2.45619 0
M  V30 4332 H 425.244 3.61862 1.5099 0
M  V30 4333 H 426.734 3.36867 2.46801 0
M  V30 4334 N 427.171 -0.0066808 1.57599 0
M  V30 4335 C 428.399 -0.704087 1.94551 0
M  V30 4336 C 428.814 -1.67677 0.867746 0
M  V30 4337 O 428.171 -1.8185 -0.153925 0
M  V30 4338 C 428.222 -1.44177 3.31505 0
M  V30 4339 O 427.943 -0.508097 4.35144 0
M  V30 4340 C 429.444 -2.23429 3.82876 0
M  V30 4341 H 426.664 -0.196523 0.641576 0
M  V30 4342 H 429.208 0.042453 2.04456 0
M  V30 4343 H 427.363 -2.13999 3.22929 0
M  V30 4344 H 427.777 -1.02782 5.14331 0
M  V30 4345 H 429.251 -2.70552 4.8115 0
M  V30 4346 H 429.728 -3.05818 3.15233 0
M  V30 4347 H 430.334 -1.58636 3.94607 0
M  V30 4348 N 428.649 -1.55105 -0.279332 0
M  V30 4349 C 429.581 -1.83952 -1.36727 0
M  V30 4350 C 430.594 -0.723642 -1.45833 0
M  V30 4351 O 431.783 -1.00141 -1.47763 0
M  V30 4352 C 428.883 -1.98183 -2.74912 0
M  V30 4353 C 428.056 -3.28787 -2.88475 0
M  V30 4354 C 427.115 -3.33162 -4.07295 0
M  V30 4355 O 426.141 -4.06576 -3.98353 0
M  V30 4356 N 427.343 -2.60109 -5.18964 0
M  V30 4357 H 430.108 -2.77853 -1.12328 0
M  V30 4358 H 427.669 -1.54945 -0.469442 0
M  V30 4359 H 429.661 -1.98488 -3.52682 0
M  V30 4360 H 428.231 -1.11177 -2.92162 0
M  V30 4361 H 427.451 -3.41075 -1.97641 0
M  V30 4362 H 428.739 -4.14933 -2.94463 0
M  V30 4363 H 428.137 -2.00136 -5.29115 0
M  V30 4364 H 426.694 -2.66143 -5.94988 0
M  V30 4365 N 430.127 0.543554 -1.4793 0
M  V30 4366 C 431.09 1.63156 -1.60975 0
M  V30 4367 C 432.09 1.53346 -0.483899 0
M  V30 4368 O 433.28 1.5726 -0.749339 0
M  V30 4369 C 430.412 3.02743 -1.56716 0
M  V30 4370 H 431.605 1.52934 -2.57975 0
M  V30 4371 H 429.158 0.764557 -1.36324 0
M  V30 4372 H 429.893 3.18484 -0.611418 0
M  V30 4373 H 429.678 3.11272 -2.38438 0
M  V30 4374 H 431.168 3.81871 -1.6901 0
M  V30 4375 N 431.605 1.3629 0.791371 0
M  V30 4376 C 432.568 1.30309 1.88553 0
M  V30 4377 C 433.568 0.211204 1.59407 0
M  V30 4378 O 434.758 0.465865 1.67855 0
M  V30 4379 C 431.89 1.01956 3.25297 0
M  V30 4380 H 433.083 2.27614 1.95273 0
M  V30 4381 H 430.636 1.21035 0.988953 0
M  V30 4382 H 431.371 0.050998 3.2426 0
M  V30 4383 H 431.156 1.80968 3.4784 0
M  V30 4384 H 432.646 1.0037 4.05359 0
M  V30 4385 N 433.083 -1.0153 1.20538 0
M  V30 4386 C 434.36 -1.72327 0.925343 0
M  V30 4387 C 434.74 -2.03383 -0.565547 0
M  V30 4388 O 434.088 -1.69934 -1.52757 0
M  V30 4389 C 434.298 -2.9902 1.79967 0
M  V30 4390 C 435.646 -3.72258 2.04228 0
M  V30 4391 O 436.67 -3.08979 1.77231 0
M  V30 4392 O 435.529 -4.86053 2.4983 0
M  V30 4393 H 432.623 -0.751099 0.346092 0
M  V30 4394 H 435.169 -1.07366 1.31417 0
M  V30 4395 H 433.941 -2.72402 2.80915 0
M  V30 4396 H 433.564 -3.71721 1.41099 0
M  V30 4397 N 434.561 -1.01147 -1.20859 0
M  V30 4398 C 435.791 -0.715872 -1.93801 0
M  V30 4399 C 436.199 0.726592 -1.74692 0
M  V30 4400 O 435.542 1.50397 -1.05482 0
M  V30 4401 C 435.604 -0.965269 -3.46299 0
M  V30 4402 C 435.268 -2.39584 -3.89164 0
M  V30 4403 C 436.265 -3.3764 -3.95342 0
M  V30 4404 C 433.95 -2.73522 -4.21297 0
M  V30 4405 C 435.944 -4.67698 -4.33056 0
M  V30 4406 C 433.631 -4.03794 -4.58687 0
M  V30 4407 C 434.629 -5.00693 -4.64538 0
M  V30 4408 O 434.317 -6.28635 -5.01072 0
M  V30 4409 H 434.049 -0.262524 -0.622942 0
M  V30 4410 H 436.603 -1.35413 -1.54443 0
M  V30 4411 H 434.833 -0.269847 -3.85757 0
M  V30 4412 H 436.522 -0.662051 -4.00464 0
M  V30 4413 H 437.288 -3.12757 -3.70686 0
M  V30 4414 H 433.167 -1.9879 -4.15937 0
M  V30 4415 H 436.711 -5.4333 -4.37537 0
M  V30 4416 H 432.608 -4.28459 -4.82797 0
M  V30 4417 H 433.376 -6.32847 -5.19083 0
M  V30 4418 N 436.039 1.36541 -0.78704 0
M  V30 4419 C 436.986 2.30082 -0.181901 0
M  V30 4420 C 437.956 1.5186 0.672896 0
M  V30 4421 O 439.141 1.80374 0.622072 0
M  V30 4422 C 436.281 3.3835 0.679197 0
M  V30 4423 C 435.394 4.31565 -0.193882 0
M  V30 4424 C 434.529 5.26915 0.673364 0
M  V30 4425 C 433.568 6.11769 -0.201315 0
M  V30 4426 N 432.705 6.99315 0.624777 0
M  V30 4427 H 437.545 2.81248 -0.985064 0
M  V30 4428 H 435.082 1.38437 -0.497342 0
M  V30 4429 H 437.04 3.99767 1.19341 0
M  V30 4430 H 435.67 2.8851 1.44781 0
M  V30 4431 H 434.722 3.71323 -0.826044 0
M  V30 4432 H 436.034 4.91191 -0.867937 0
M  V30 4433 H 435.188 5.9361 1.25348 0
M  V30 4434 H 433.927 4.67737 1.38105 0
M  V30 4435 H 432.932 5.44039 -0.793849 0
M  V30 4436 H 434.157 6.73022 -0.906568 0
M  V30 4437 H 432.103 6.42648 1.3168 0
M  V30 4438 H 432.02 7.56 0.00835237 0
M  V30 4439 H 433.288 7.70382 1.18879 0
M  V30 4440 N 437.518 0.538854 1.48102 0
M  V30 4441 C 438.465 -0.219042 2.29758 0
M  V30 4442 C 439.435 -0.925562 1.37922 0
M  V30 4443 O 440.62 -0.924855 1.66886 0
M  V30 4444 C 437.76 -1.25452 3.2149 0
M  V30 4445 C 436.873 -0.555943 4.28408 0
M  V30 4446 C 436.008 -1.57512 5.0731 0
M  V30 4447 C 435.047 -0.860498 6.06021 0
M  V30 4448 N 434.184 -1.82564 6.77949 0
M  V30 4449 H 439.024 0.483449 2.94052 0
M  V30 4450 H 436.561 0.250247 1.44956 0
M  V30 4451 H 438.519 -1.86727 3.7308 0
M  V30 4452 H 437.149 -1.92528 2.591 0
M  V30 4453 H 436.201 0.170938 3.80016 0
M  V30 4454 H 437.513 0.00474616 4.988 0
M  V30 4455 H 436.667 -2.26191 5.62959 0
M  V30 4456 H 435.406 -2.16972 4.36778 0
M  V30 4457 H 434.411 -0.159686 5.49568 0
M  V30 4458 H 435.636 -0.271897 6.78555 0
M  V30 4459 H 433.582 -2.40915 6.10161 0
M  V30 4460 H 433.499 -1.31662 7.44447 0
M  V30 4461 H 434.767 -2.50414 7.38182 0
M  V30 4462 N 438.996 -1.55193 0.274407 0
M  V30 4463 C 440.242 -1.99877 -0.343086 0
M  V30 4464 C 440.575 -1.16256 -1.55558 0
M  V30 4465 O 439.85 -0.232462 -1.93106 0
M  V30 4466 C 440.133 -3.52706 -0.725965 0
M  V30 4467 C 439.986 -4.47081 0.493818 0
M  V30 4468 C 441.305 -4.11422 -1.56268 0
M  V30 4469 H 438.424 -0.726625 -0.123229 0
M  V30 4470 H 441.066 -1.86136 0.38121 0
M  V30 4471 H 439.216 -3.64546 -1.34307 0
M  V30 4472 H 440.888 -4.47186 1.13237 0
M  V30 4473 H 439.131 -4.1877 1.13201 0
M  V30 4474 H 439.802 -5.51699 0.18217 0
M  V30 4475 H 442.278 -4.02855 -1.04151 0
M  V30 4476 H 441.154 -5.18568 -1.79939 0
M  V30 4477 H 441.415 -3.61607 -2.54348 0
M  V30 4478 N 440.474 -0.00167713 -1.576 0
M  V30 4479 C 441.72 0.683832 -1.90923 0
M  V30 4480 C 442.053 1.7333 -0.875799 0
M  V30 4481 O 441.328 1.94215 0.10525 0
M  V30 4482 C 441.611 1.32543 -3.3482 0
M  V30 4483 C 441.464 0.287387 -4.48881 0
M  V30 4484 C 442.783 2.25114 -3.78169 0
M  V30 4485 H 439.902 0.247125 -0.694333 0
M  V30 4486 H 442.544 -0.0533149 -1.89925 0
M  V30 4487 H 440.694 1.95372 -3.35801 0
M  V30 4488 H 442.366 -0.341346 -4.60035 0
M  V30 4489 H 440.609 -0.39017 -4.32042 0
M  V30 4490 H 441.28 0.775393 -5.46527 0
M  V30 4491 H 443.756 1.723 -3.7875 0
M  V30 4492 H 442.632 2.66971 -4.79602 0
M  V30 4493 H 442.893 3.13092 -3.12131 0
M  V30 4494 N 441.952 1.55251 0.271103 0
M  V30 4495 C 442.884 1.84675 1.35749 0
M  V30 4496 C 443.897 0.731366 1.45447 0
M  V30 4497 O 445.086 1.00924 1.4723 0
M  V30 4498 C 442.186 1.99638 2.73857 0
M  V30 4499 C 441.359 3.30312 2.86727 0
M  V30 4500 C 440.418 3.35318 4.05522 0
M  V30 4501 O 439.444 4.08682 3.96191 0
M  V30 4502 N 440.646 2.62857 5.17577 0
M  V30 4503 H 443.411 2.78445 1.10853 0
M  V30 4504 H 440.972 1.55191 0.461218 0
M  V30 4505 H 442.964 2.00355 3.51625 0
M  V30 4506 H 441.534 1.12725 2.91568 0
M  V30 4507 H 440.754 3.42118 1.95829 0
M  V30 4508 H 442.042 4.16488 2.92258 0
M  V30 4509 H 441.44 2.02939 5.28046 0
M  V30 4510 H 439.997 2.69295 5.93568 0
M  V30 4511 N 443.43 -0.535701 1.48216 0
M  V30 4512 C 444.393 -1.623 1.61838 0
M  V30 4513 C 445.393 -1.53087 0.492024 0
M  V30 4514 O 446.583 -1.5686 0.757668 0
M  V30 4515 C 443.715 -3.01907 1.58319 0
M  V30 4516 H 444.908 -1.51564 2.58783 0
M  V30 4517 H 442.461 -0.757317 1.36727 0
M  V30 4518 H 443.196 -3.18155 0.628299 0
M  V30 4519 H 442.981 -3.10003 2.40085 0
M  V30 4520 H 444.471 -3.80969 1.71033 0
M  V30 4521 N 444.908 -1.36708 -0.784132 0
M  V30 4522 C 446.148 -1.32618 -1.55537 0
M  V30 4523 C 446.512 0.0920681 -1.91779 0
M  V30 4524 O 447.713 0.257573 -2.67563 0
M  V30 4525 C 445.984 -2.22788 -2.79464 0
M  V30 4526 S 447.543 -2.36432 -3.69656 0
M  V30 4527 H 444.361 -0.470973 -0.53264 0
M  V30 4528 H 446.963 -1.72333 -0.92312 0
M  V30 4529 H 445.667 -3.24774 -2.50899 0
M  V30 4530 H 445.198 -1.84112 -3.47658 0
M  V30 4531 H 447.213 -1.56573 -4.7085 0
M  V30 4532 N 446.386 1.0089 -1.21074 0
M  V30 4533 C 447.319 2.09279 -0.909806 0
M  V30 4534 C 448.297 1.61986 0.141145 0
M  V30 4535 O 449.481 1.88495 0.0130332 0
M  V30 4536 C 446.608 3.36723 -0.365374 0
M  V30 4537 C 445.654 4.02919 -1.39852 0
M  V30 4538 S 446.487 4.45835 -2.96633 0
M  V30 4539 C 447.643 5.76471 -2.43786 0
M  V30 4540 H 447.876 2.34484 -1.82769 0
M  V30 4541 H 445.409 1.14115 -1.04006 0
M  V30 4542 H 447.367 4.10459 -0.0578203 0
M  V30 4543 H 446.028 3.09577 0.531136 0
M  V30 4544 H 445.221 4.94634 -0.967117 0
M  V30 4545 H 444.823 3.35441 -1.65395 0
M  V30 4546 H 447.115 6.52027 -1.84029 0
M  V30 4547 H 448.058 6.24418 -3.33928 0
M  V30 4548 H 448.466 5.33104 -1.85636 0
M  V30 4549 N 447.864 1.01787 1.20321 0
M  V30 4550 C 448.796 0.547357 2.22568 0
M  V30 4551 C 449.809 -0.370922 1.58518 0
M  V30 4552 O 450.998 -0.169067 1.77698 0
M  V30 4553 C 448.098 -0.223031 3.38165 0
M  V30 4554 C 447.271 0.697472 4.31803 0
M  V30 4555 C 446.33 -0.025562 5.26194 0
M  V30 4556 O 445.356 0.597367 5.66057 0
M  V30 4557 N 446.558 -1.29999 5.65757 0
M  V30 4558 H 449.323 1.42668 2.63564 0
M  V30 4559 H 446.884 0.895552 1.34876 0
M  V30 4560 H 448.876 -0.716002 3.98316 0
M  V30 4561 H 447.446 -1.00366 2.9605 0
M  V30 4562 H 446.666 1.37073 3.69601 0
M  V30 4563 H 447.954 1.32347 4.91286 0
M  V30 4564 H 447.352 -1.827 5.35385 0
M  V30 4565 H 445.909 -1.73766 6.28211 0
M  V30 4566 N 449.342 -1.36122 0.79427 0
M  V30 4567 C 450.588 -1.99406 0.369452 0
M  V30 4568 C 450.921 -1.62886 -1.05743 0
M  V30 4569 O 450.196 -0.886053 -1.73145 0
M  V30 4570 C 450.479 -3.56046 0.538833 0
M  V30 4571 C 450.332 -4.02404 2.00976 0
M  V30 4572 C 451.651 -4.40079 -0.0431359 0
M  V30 4573 H 448.77 -0.724397 0.135712 0
M  V30 4574 H 451.412 -1.61461 1.00151 0
M  V30 4575 H 449.562 -3.885 0.000771004 0
M  V30 4576 H 451.234 -3.80415 2.60926 0
M  V30 4577 H 449.477 -3.53765 2.51063 0
M  V30 4578 H 450.148 -5.11344 2.07922 0
M  V30 4579 H 452.624 -4.14013 0.416228 0
M  V30 4580 H 451.5 -5.48799 0.105374 0
M  V30 4581 H 451.761 -4.27264 -1.13571 0
M  V30 4582 N 450.82 -0.546701 -1.47814 0
M  V30 4583 C 452.048 -0.0232857 -2.06887 0
M  V30 4584 C 452.463 1.26571 -1.4009 0
M  V30 4585 O 451.82 1.7569 -0.493906 0
M  V30 4586 C 451.871 0.186975 -3.61016 0
M  V30 4587 O 451.592 -1.05097 -4.25307 0
M  V30 4588 C 453.093 0.748872 -4.36929 0
M  V30 4589 H 450.313 -0.0410763 -0.669742 0
M  V30 4590 H 452.857 -0.757117 -1.89968 0
M  V30 4591 H 451.012 0.870903 -3.77484 0
M  V30 4592 H 451.426 -0.842121 -5.17695 0
M  V30 4593 H 452.9 0.845334 -5.45489 0
M  V30 4594 H 453.377 1.75772 -4.02493 0
M  V30 4595 H 453.983 0.100979 -4.2518 0
M  V30 4596 N 452.299 1.55045 -0.282633 0
M  V30 4597 C 453.715 1.59441 0.0712997 0
M  V30 4598 C 453.915 1.2998 1.53972 0
M  V30 4599 O 452.971 1.06431 2.28973 0
M  V30 4600 C 454.284 2.99097 -0.310104 0
M  V30 4601 C 455.832 3.1194 -0.257343 0
M  V30 4602 C 456.307 4.53875 -0.613297 0
M  V30 4603 N 457.798 4.5974 -0.565134 0
M  V30 4604 C 458.533 5.67603 -0.81326 0
M  V30 4605 N 458.029 6.83582 -1.1264 0
M  V30 4606 N 459.822 5.57187 -0.741553 0
M  V30 4607 H 451.973 1.72458 -1.23984 0
M  V30 4608 H 454.236 0.804549 -0.501403 0
M  V30 4609 H 453.942 3.25516 -1.33163 0
M  V30 4610 H 453.816 3.75616 0.345366 0
M  V30 4611 H 456.203 2.85281 0.754905 0
M  V30 4612 H 456.284 2.37618 -0.947178 0
M  V30 4613 H 455.928 4.81261 -1.62327 0
M  V30 4614 H 455.858 5.26508 0.09841 0
M  V30 4615 H 458.349 3.76427 -0.333294 0
M  V30 4616 H 458.662 7.6175 -1.30219 0
M  V30 4617 H 457.007 6.85179 -1.16425 0
M  V30 4618 H 460.198 4.65457 -0.496705 0
M  V30 4619 H 460.371 6.41171 -0.938306 0
M  V30 4620 N 453.777 0.010035 1.57597 0
M  V30 4621 C 455.017 -0.677084 1.9286 0
M  V30 4622 C 455.381 -1.70377 0.885192 0
M  V30 4623 O 456.582 -2.44199 1.12339 0
M  V30 4624 C 454.853 -1.29452 3.33132 0
M  V30 4625 S 456.412 -2.00537 3.90295 0
M  V30 4626 H 453.23 -0.223409 0.674989 0
M  V30 4627 H 455.832 0.0691289 1.95378 0
M  V30 4628 H 454.536 -0.534593 4.06903 0
M  V30 4629 H 454.067 -2.07845 3.34012 0
M  V30 4630 H 456.082 -3.28168 3.72183 0
M  V30 4631 N 455.255 -1.55392 -0.262866 0
M  V30 4632 C 456.187 -1.85392 -1.34768 0
M  V30 4633 C 457.2 -0.739069 -1.45057 0
M  V30 4634 O 458.389 -1.01703 -1.46693 0
M  V30 4635 C 455.489 -2.01088 -2.72795 0
M  V30 4636 C 454.662 -3.31828 -2.84972 0
M  V30 4637 C 453.721 -3.37464 -4.03738 0
M  V30 4638 O 452.747 -4.10778 -3.94018 0
M  V30 4639 N 453.949 -2.65599 -5.16176 0
M  V30 4640 H 456.714 -2.79029 -1.09375 0
M  V30 4641 H 454.275 -1.55434 -0.452981 0
M  V30 4642 H 456.267 -2.02217 -3.50557 0
M  V30 4643 H 454.837 -1.1427 -2.90966 0
M  V30 4644 H 454.057 -3.43152 -1.94012 0
M  V30 4645 H 455.345 -4.18032 -2.90045 0
M  V30 4646 H 454.743 -2.05736 -5.26962 0
M  V30 4647 H 453.3 -2.72439 -5.92132 0
M  V30 4648 N 456.733 0.527833 -1.48498 0
M  V30 4649 C 457.981 1.28101 -1.56316 0
M  V30 4650 C 458.302 1.9352 -0.239781 0
M  V30 4651 O 457.572 1.81433 0.738849 0
M  V30 4652 H 456.152 0.475793 -0.575873 0
M  V30 4653 H 458.814 0.614052 -1.84974 0
M  V30 4654 H 457.91 2.05916 -2.34532 0
M  V30 4655 N 458.211 1.37122 0.776871 0
M  V30 4656 C 459.457 1.32243 1.53752 0
M  V30 4657 C 459.79 -0.0944745 1.9397 0
M  V30 4658 O 459.065 -1.05068 1.6368 0
M  V30 4659 C 459.348 2.25681 2.80607 0
M  V30 4660 C 459.201 3.76127 2.46676 0
M  V30 4661 C 460.52 2.17657 3.82509 0
M  V30 4662 H 457.639 0.481704 0.557791 0
M  V30 4663 H 460.281 1.6778 0.891612 0
M  V30 4664 H 458.431 1.95505 3.35723 0
M  V30 4665 H 460.103 4.16877 1.97513 0
M  V30 4666 H 458.346 3.94946 1.79443 0
M  V30 4667 H 459.017 4.36933 3.37333 0
M  V30 4668 H 461.493 2.44245 3.36873 0
M  V30 4669 H 460.369 2.85185 4.69 0
M  V30 4670 H 460.63 1.16785 4.26396 0
M  V30 4671 N 459.689 -1.00246 1.21608 0
M  V30 4672 C 460.917 -1.77631 1.06089 0
M  V30 4673 C 461.332 -1.84746 -0.38916 0
M  V30 4674 O 460.689 -1.31068 -1.26994 0
M  V30 4675 C 460.74 -3.21415 1.65453 0
M  V30 4676 O 460.461 -3.14703 3.04785 0
M  V30 4677 C 461.962 -4.15289 1.55079 0
M  V30 4678 H 459.182 -0.558162 0.37242 0
M  V30 4679 H 461.726 -1.26093 1.60999 0
M  V30 4680 H 459.881 -3.70053 1.14629 0
M  V30 4681 H 460.295 -4.05056 3.33212 0
M  V30 4682 H 461.769 -5.13965 2.01355 0
M  V30 4683 H 462.246 -4.36279 0.505665 0
M  V30 4684 H 462.852 -3.72543 2.05163 0
M  V30 4685 N 461.167 -1.02423 -1.1978 0
M  V30 4686 C 462.413 -0.719051 -1.89625 0
M  V30 4687 C 462.746 0.750083 -1.7913 0
M  V30 4688 O 462.021 1.54574 -1.18056 0
M  V30 4689 C 462.304 -1.16499 -3.40735 0
M  V30 4690 C 462.157 -2.695 -3.60125 0
M  V30 4691 C 463.476 -0.742166 -4.33797 0
M  V30 4692 H 460.595 -0.26269 -0.688595 0
M  V30 4693 H 463.237 -1.27333 -1.41018 0
M  V30 4694 H 461.387 -0.69341 -3.82262 0
M  V30 4695 H 463.059 -3.24569 -3.278 0
M  V30 4696 H 461.302 -3.10113 -3.03336 0
M  V30 4697 H 461.973 -2.95757 -4.66081 0
M  V30 4698 H 464.449 -1.1477 -3.99959 0
M  V30 4699 H 463.325 -1.08213 -5.38127 0
M  V30 4700 H 463.586 0.355747 -4.40666 0
M  V30 4701 N 462.645 1.35699 -0.801477 0
M  V30 4702 C 463.891 1.99643 -0.389135 0
M  V30 4703 C 464.246 1.62447 1.03095 0
M  V30 4704 O 463.539 0.875064 1.7045 0
M  V30 4705 C 463.733 3.53828 -0.504041 0
M  V30 4706 C 463.562 4.06 -1.93375 0
M  V30 4707 C 462.332 4.35592 -2.561 0
M  V30 4708 C 464.53 4.24905 -2.89759 0
M  V30 4709 N 462.512 4.73663 -3.90534 0
M  V30 4710 C 463.883 4.65914 -4.09052 0
M  V30 4711 C 465.938 4.07101 -2.86658 0
M  V30 4712 C 464.641 4.90984 -5.25669 0
M  V30 4713 C 466.667 4.33324 -4.02472 0
M  V30 4714 C 466.029 4.74601 -5.20512 0
M  V30 4715 H 462.128 0.758552 -0.19006 0
M  V30 4716 H 464.712 1.64493 -1.04164 0
M  V30 4717 H 462.883 3.88219 0.118437 0
M  V30 4718 H 464.615 4.04645 -0.0667794 0
M  V30 4719 H 461.37 4.25728 -2.07492 0
M  V30 4720 H 461.794 4.96965 -4.59734 0
M  V30 4721 H 466.436 3.74335 -1.96552 0
M  V30 4722 H 464.154 5.22626 -6.1635 0
M  V30 4723 H 467.74 4.21107 -4.01447 0
M  V30 4724 H 466.62 4.94497 -6.08639 0
M  V30 4725 N 464.123 0.554532 1.47522 0
M  V30 4726 C 465.371 0.0294208 2.02079 0
M  V30 4727 C 465.692 -1.32411 1.43151 0
M  V30 4728 O 464.962 -1.863 0.605728 0
M  V30 4729 H 463.542 0.00788672 0.746958 0
M  V30 4730 H 466.204 0.723934 1.80956 0
M  V30 4731 H 465.3 -0.0606745 3.12041 0
M  V30 4732 N 465.601 -1.54893 0.290851 0
M  V30 4733 C 466.85 -1.99111 -0.322113 0
M  V30 4734 C 467.163 -1.18283 -1.55784 0
M  V30 4735 O 468.369 -1.5272 -2.24475 0
M  V30 4736 C 466.825 -3.54442 -0.624438 0
M  V30 4737 C 466.433 -4.44066 0.592373 0
M  V30 4738 C 468.177 -4.07211 -1.19916 0
M  V30 4739 C 466.084 -5.90812 0.263762 0
M  V30 4740 H 465.014 -0.743712 -0.124133 0
M  V30 4741 H 467.665 -1.79132 0.39797 0
M  V30 4742 H 466.047 -3.70281 -1.40384 0
M  V30 4743 H 467.221 -4.39999 1.36886 0
M  V30 4744 H 465.536 -4.02015 1.08502 0
M  V30 4745 H 468.133 -5.14407 -1.45909 0
M  V30 4746 H 468.476 -3.57196 -2.13815 0
M  V30 4747 H 469.009 -3.94873 -0.481687 0
M  V30 4748 H 465.748 -6.44955 1.17105 0
M  V30 4749 H 465.268 -5.97911 -0.475655 0
M  V30 4750 H 466.947 -6.46852 -0.138354 0
M  V30 4751 N 467.08 -0.0183926 -1.57589 0
M  V30 4752 C 468.308 0.673046 -1.95647 0
M  V30 4753 C 468.723 1.66275 -0.894312 0
M  V30 4754 O 468.08 1.82072 0.124975 0
M  V30 4755 C 468.131 1.38884 -3.33756 0
M  V30 4756 O 467.852 0.438806 -4.35897 0
M  V30 4757 C 469.353 2.1731 -3.86383 0
M  V30 4758 H 466.573 0.186292 -0.644621 0
M  V30 4759 H 469.117 -0.0749748 -2.04363 0
M  V30 4760 H 467.272 2.08835 -3.26293 0
M  V30 4761 H 467.686 0.945869 -5.15901 0
M  V30 4762 H 469.16 2.62863 -4.85394 0
M  V30 4763 H 469.637 3.00764 -3.20059 0
M  V30 4764 H 470.243 1.52339 -3.97081 0
M  V30 4765 N 468.558 1.5553 0.254621 0
M  V30 4766 C 469.835 1.6774 1.00611 0
M  V30 4767 C 470.215 0.555993 2.03647 0
M  V30 4768 O 469.563 -0.441583 2.24193 0
M  V30 4769 C 469.773 3.07725 1.6464 0
M  V30 4770 C 471.121 3.66074 2.15116 0
M  V30 4771 O 472.145 3.10476 1.74595 0
M  V30 4772 O 471.004 4.63526 2.89493 0
M  V30 4773 H 468.098 0.681958 0.467828 0
M  V30 4774 H 470.644 1.67863 0.24902 0
M  V30 4775 H 469.416 3.80792 0.900734 0
M  V30 4776 H 469.039 3.1158 2.46989 0
M  V30 4777 N 470.036 -0.519951 1.48776 0
M  V30 4778 C 470.983 -1.62352 1.64044 0
M  V30 4779 C 471.953 -1.58945 0.482251 0
M  V30 4780 O 473.138 -1.77219 0.706971 0
M  V30 4781 C 470.278 -3.00579 1.69547 0
M  V30 4782 C 469.391 -3.14145 2.96541 0
M  V30 4783 C 468.526 -4.42991 2.93142 0
M  V30 4784 C 467.565 -4.50122 4.14797 0
M  V30 4785 N 466.702 -5.7037 4.09418 0
M  V30 4786 H 471.542 -1.48643 2.58281 0
M  V30 4787 H 469.079 -0.723516 1.28077 0
M  V30 4788 H 471.037 -3.80671 1.70719 0
M  V30 4789 H 469.667 -3.13036 0.787918 0
M  V30 4790 H 468.719 -2.27239 3.05068 0
M  V30 4791 H 470.031 -3.15275 3.86527 0
M  V30 4792 H 469.185 -5.31385 2.92772 0
M  V30 4793 H 467.924 -4.44398 2.00902 0
M  V30 4794 H 466.929 -3.60133 4.15433 0
M  V30 4795 H 468.154 -4.50445 5.08208 0
M  V30 4796 H 466.1 -5.72655 3.20004 0
M  V30 4797 H 466.017 -5.73036 4.93119 0
M  V30 4798 H 467.285 -6.61023 4.13121 0
M  V30 4799 N 471.514 -1.37532 -0.769588 0
M  V30 4800 C 472.744 -1.35861 -1.55645 0
M  V30 4801 C 473.152 0.0574398 -1.89113 0
M  V30 4802 O 472.495 1.03021 -1.52093 0
M  V30 4803 C 472.557 -2.13431 -2.89288 0
M  V30 4804 C 472.221 -3.62378 -2.78444 0
M  V30 4805 C 473.218 -4.56215 -2.49326 0
M  V30 4806 C 470.903 -4.05529 -2.96398 0
M  V30 4807 C 472.897 -5.91181 -2.38294 0
M  V30 4808 C 470.584 -5.40579 -2.84987 0
M  V30 4809 C 471.582 -6.33218 -2.55975 0
M  V30 4810 O 471.27 -7.65787 -2.44594 0
M  V30 4811 H 471.002 -0.467001 -0.48876 0
M  V30 4812 H 473.556 -1.81505 -0.961515 0
M  V30 4813 H 471.786 -1.62481 -3.50909 0
M  V30 4814 H 473.475 -2.04368 -3.50697 0
M  V30 4815 H 474.241 -4.24187 -2.35139 0
M  V30 4816 H 470.12 -3.33781 -3.1798 0
M  V30 4817 H 473.664 -6.63457 -2.15571 0
M  V30 4818 H 469.561 -5.72209 -2.98743 0
M  V30 4819 H 470.329 -7.76132 -2.59927 0
M  V30 4820 N 472.992 0.995999 -1.22138 0
M  V30 4821 C 474.217 1.77601 -1.0711 0
M  V30 4822 C 474.642 1.84339 0.374264 0
M  V30 4823 O 474 1.29359 1.27028 0
M  V30 4824 C 474.048 3.18897 -1.68336 0
M  V30 4825 O 473.152 4.01663 -0.934928 0
M  V30 4826 H 472.493 0.547011 -0.376397 0
M  V30 4827 H 475.023 1.25137 -1.6187 0
M  V30 4828 H 475.033 3.69539 -1.72931 0
M  V30 4829 H 473.708 3.13308 -2.73516 0
M  V30 4830 H 472.285 3.60204 -0.964751 0
M  V30 4831 N 474.47 1.03057 1.19235 0
M  V30 4832 C 475.716 0.738841 1.89506 0
M  V30 4833 C 476.071 -0.724807 1.78225 0
M  V30 4834 O 475.364 -1.52118 1.16494 0
M  V30 4835 C 475.558 1.1268 3.39172 0
M  V30 4836 C 475.387 2.62662 3.65019 0
M  V30 4837 C 474.157 3.29658 3.82954 0
M  V30 4838 C 476.355 3.60873 3.66436 0
M  V30 4839 N 474.337 4.68726 3.96446 0
M  V30 4840 C 475.708 4.85566 3.8552 0
M  V30 4841 C 477.763 3.54647 3.49471 0
M  V30 4842 C 476.466 6.04783 3.89397 0
M  V30 4843 C 478.492 4.73281 3.54625 0
M  V30 4844 C 477.854 5.96789 3.74196 0
M  V30 4845 H 473.953 0.322256 0.712513 0
M  V30 4846 H 476.537 1.31822 1.43287 0
M  V30 4847 H 474.708 0.575612 3.84111 0
M  V30 4848 H 476.44 0.787145 3.96971 0
M  V30 4849 H 473.195 2.8007 3.81913 0
M  V30 4850 H 473.619 5.40971 4.07037 0
M  V30 4851 H 478.261 2.60143 3.33295 0
M  V30 4852 H 475.979 6.99654 4.04364 0
M  V30 4853 H 479.565 4.70094 3.42787 0
M  V30 4854 H 478.445 6.87051 3.78061 0
M  V30 4855 N 475.948 -1.35272 0.808662 0
M  V30 4856 C 477.194 -1.99003 0.390581 0
M  V30 4857 C 477.527 -1.63999 -1.0401 0
M  V30 4858 O 476.802 -0.904368 -1.72196 0
M  V30 4859 C 477.085 -3.55454 0.576566 0
M  V30 4860 C 476.938 -4.00249 2.05233 0
M  V30 4861 C 478.257 -4.401 0.00354277 0
M  V30 4862 H 475.376 -0.722917 0.143388 0
M  V30 4863 H 478.018 -1.6039 1.01858 0
M  V30 4864 H 476.168 -3.88477 0.0419766 0
M  V30 4865 H 477.84 -3.77626 2.64946 0
M  V30 4866 H 476.083 -3.51082 2.54801 0
M  V30 4867 H 476.754 -5.0911 2.13333 0
M  V30 4868 H 479.23 -4.13548 0.460117 0
M  V30 4869 H 478.106 -5.48656 0.163575 0
M  V30 4870 H 478.367 -4.28444 -1.09032 0
M  V30 4871 N 477.426 -0.562348 -1.47226 0
M  V30 4872 C 478.837 -0.130325 -1.86245 0
M  V30 4873 C 479.188 1.30128 -1.46838 0
M  V30 4874 O 478.313 1.97974 -0.873805 0
M  V30 4875 C 478.908 -0.229738 -3.3802 0
M  V30 4876 C 477.467 0.14728 -3.76112 0
M  V30 4877 C 476.614 -0.574971 -2.71274 0
M  V30 4878 H 479.565 -0.771773 -1.3867 0
M  V30 4879 H 479.586 0.550316 -3.76499 0
M  V30 4880 H 479.098 -1.27178 -3.66671 0
M  V30 4881 H 477.199 1.19023 -3.53078 0
M  V30 4882 H 477.312 -0.214858 -4.78618 0
M  V30 4883 H 475.676 -0.0174756 -2.54694 0
M  V30 4884 H 476.459 -1.61827 -3.02766 0
M  V30 4885 N 478.904 1.54736 -0.299062 0
M  V30 4886 C 480.181 1.92187 0.363802 0
M  V30 4887 C 480.561 1.22607 1.71845 0
M  V30 4888 O 479.909 0.361141 2.25628 0
M  V30 4889 C 480.119 3.45678 0.480377 0
M  V30 4890 C 481.467 4.17885 0.752147 0
M  V30 4891 O 482.491 3.51702 0.564264 0
M  V30 4892 O 481.35 5.35048 1.11294 0
M  V30 4893 H 478.444 0.801681 0.203066 0
M  V30 4894 H 480.99 1.66115 -0.346978 0
M  V30 4895 H 479.762 3.88443 -0.471999 0
M  V30 4896 H 479.385 3.77779 1.2397 0
M  V30 4897 N 480.382 0.0267497 1.57577 0
M  V30 4898 C 481.628 -0.653371 1.91987 0
M  V30 4899 C 481.961 -1.71915 0.903263 0
M  V30 4900 O 481.236 -1.94358 -0.0743387 0
M  V30 4901 C 481.519 -1.272 3.36886 0
M  V30 4902 C 481.372 -0.215938 4.49281 0
M  V30 4903 C 482.691 -2.19069 3.81703 0
M  V30 4904 H 479.81 -0.236047 0.698177 0
M  V30 4905 H 482.452 0.0835236 1.89816 0
M  V30 4906 H 480.602 -1.90005 3.38866 0
M  V30 4907 H 482.274 0.41449 4.59434 0
M  V30 4908 H 480.517 0.458855 4.31366 0
M  V30 4909 H 481.188 -0.688347 5.47691 0
M  V30 4910 H 483.664 -1.66253 3.81444 0
M  V30 4911 H 482.54 -2.59307 4.83788 0
M  V30 4912 H 482.801 -3.08087 3.17072 0
M  V30 4913 N 481.861 -1.55662 -0.24637 0
M  V30 4914 C 483.108 -1.77519 -0.974335 0
M  V30 4915 C 483.436 -0.591165 -1.85298 0
M  V30 4916 O 482.691 0.425497 -1.91018 0
M  V30 4917 C 482.99 -3.04885 -1.86494 0
M  V30 4918 C 482.656 -4.36209 -1.14161 0
M  V30 4919 C 481.318 -4.71896 -0.941701 0
M  V30 4920 C 483.67 -5.17391 -0.628957 0
M  V30 4921 C 480.998 -5.86299 -0.216852 0
M  V30 4922 C 483.35 -6.32546 0.0824273 0
M  V30 4923 C 482.014 -6.66853 0.293807 0
M  V30 4924 H 481.284 -0.649588 -0.356535 0
M  V30 4925 H 483.931 -1.89934 -0.244394 0
M  V30 4926 H 482.236 -2.87484 -2.66196 0
M  V30 4927 H 483.933 -3.18994 -2.42989 0
M  V30 4928 H 480.523 -4.08174 -1.30736 0
M  V30 4929 H 484.707 -4.90276 -0.770943 0
M  V30 4930 H 479.963 -6.11385 -0.0426124 0
M  V30 4931 H 484.137 -6.94693 0.487292 0
M  V30 4932 H 481.764 -7.55349 0.857428 0
M  V30 4933 N 483.339 0.512053 -1.4905 0
M  V30 4934 C 484.75 1.09376 -1.51307 0
M  V30 4935 C 485.101 1.94 -0.292971 0
M  V30 4936 O 484.226 2.07965 0.598277 0
M  V30 4937 C 484.821 1.99031 -2.74176 0
M  V30 4938 C 483.38 2.52385 -2.79247 0
M  V30 4939 C 482.527 1.29749 -2.45073 0
M  V30 4940 H 485.478 0.296467 -1.55906 0
M  V30 4941 H 485.499 2.83569 -2.53711 0
M  V30 4942 H 485.011 1.37412 -3.62959 0
M  V30 4943 H 483.112 3.17673 -1.94716 0
M  V30 4944 H 483.225 2.90293 -3.81139 0
M  V30 4945 H 481.589 1.61912 -1.96612 0
M  V30 4946 H 482.372 0.698555 -3.36118 0
M  V30 4947 N 484.817 1.37938 0.762283 0
M  V30 4948 C 486.065 1.33404 1.51815 0
M  V30 4949 C 486.386 -0.0780975 1.94844 0
M  V30 4950 O 485.656 -1.02405 1.67003 0
M  V30 4951 H 484.236 0.490839 0.563104 0
M  V30 4952 H 486.898 1.72527 0.906669 0
M  V30 4953 H 485.994 1.97926 2.41313 0
M  V30 4954 N 486.295 -0.989507 1.22664 0
M  V30 4955 C 487.205 -2.11449 1.01619 0
M  V30 4956 C 488.221 -1.73962 -0.036545 0
M  V30 4957 O 489.397 -2.00788 0.156924 0
M  V30 4958 C 486.462 -3.41465 0.600204 0
M  V30 4959 C 485.523 -3.93033 1.72695 0
M  V30 4960 C 484.756 -5.16844 1.33071 0
M  V30 4961 O 484.979 -5.7001 0.210975 0
M  V30 4962 O 483.913 -5.6225 2.14845 0
M  V30 4963 H 487.739 -2.32088 1.9588 0
M  V30 4964 H 485.324 -1.09823 1.01289 0
M  V30 4965 H 487.206 -4.19695 0.37873 0
M  V30 4966 H 485.881 -3.22178 -0.313511 0
M  V30 4967 H 484.788 -3.15961 2.00298 0
M  V30 4968 H 486.121 -4.16758 2.61865 0
M  V30 4969 N 487.773 -1.03688 -1.18687 0
M  V30 4970 C 489.021 -0.736572 -1.88199 0
M  V30 4971 C 489.342 0.737665 -1.80509 0
M  V30 4972 O 488.612 1.53204 -1.22088 0
M  V30 4973 H 487.192 -0.269466 -0.696704 0
M  V30 4974 H 489.854 -1.31282 -1.44052 0
M  V30 4975 H 488.95 -1.03802 -2.94332 0
M  V30 4976 N 489.251 1.34841 -0.815825 0
M  V30 4977 C 490.214 2.27959 -0.238185 0
M  V30 4978 C 491.214 1.49983 0.579816 0
M  V30 4979 O 492.404 1.69617 0.396953 0
M  V30 4980 C 489.536 3.34314 0.666876 0
M  V30 4981 H 490.729 2.80558 -1.05958 0
M  V30 4982 H 488.282 1.44852 -0.587156 0
M  V30 4983 H 489.017 2.86916 1.5116 0
M  V30 4984 H 488.802 3.92014 0.0819106 0
M  V30 4985 H 490.292 4.0379 1.06506 0
M  V30 4986 N 490.729 0.570148 1.46925 0
M  V30 4987 C 491.692 -0.159933 2.28641 0
M  V30 4988 C 492.692 -0.830638 1.37685 0
M  V30 4989 O 493.882 -0.684516 1.60187 0
M  V30 4990 C 491.014 -1.2354 3.17727 0
M  V30 4991 H 492.207 0.558035 2.94662 0
M  V30 4992 H 489.76 0.327603 1.52828 0
M  V30 4993 H 490.495 -1.98535 2.56426 0
M  V30 4994 H 490.28 -0.759125 3.84681 0
M  V30 4995 H 491.77 -1.74782 3.79264 0
M  V30 4996 N 492.207 -1.54576 0.307264 0
M  V30 4997 C 493.137 -2.26708 -0.55907 0
M  V30 4998 C 494.118 -1.26893 -1.1328 0
M  V30 4999 O 495.303 -1.55677 -1.16097 0
M  V30 5000 C 492.433 -3.01259 -1.72801 0
M  V30 5001 C 491.387 -4.08275 -1.28435 0
M  V30 5002 C 490.713 -4.70575 -2.53895 0
M  V30 5003 C 492.013 -5.2068 -0.411038 0
M  V30 5004 H 493.707 -2.9937 0.042576 0
M  V30 5005 H 491.253 -1.43983 0.0219173 0
M  V30 5006 H 493.206 -3.50444 -2.34023 0
M  V30 5007 H 491.93 -2.26187 -2.356 0
M  V30 5008 H 490.589 -3.59949 -0.695161 0
M  V30 5009 H 490.237 -3.92136 -3.15021 0
M  V30 5010 H 489.937 -5.42854 -2.24908 0
M  V30 5011 H 491.461 -5.22527 -3.15908 0
M  V30 5012 H 492.875 -5.65721 -0.929097 0
M  V30 5013 H 491.272 -5.99716 -0.214664 0
M  V30 5014 H 492.342 -4.81629 0.562287 0
M  V30 5015 N 493.685 -0.035106 -1.57561 0
M  V30 5016 C 494.931 0.64318 -1.92331 0
M  V30 5017 C 495.264 1.71434 -0.912368 0
M  V30 5018 O 494.539 1.94395 0.0640303 0
M  V30 5019 C 494.822 1.25411 -3.37556 0
M  V30 5020 C 494.675 0.192109 -4.4939 0
M  V30 5021 C 495.994 2.17041 -3.82859 0
M  V30 5022 H 493.113 0.232341 -0.699419 0
M  V30 5023 H 495.755 -0.0935889 -1.89769 0
M  V30 5024 H 493.905 1.88205 -3.39869 0
M  V30 5025 H 495.577 -0.438849 -4.59208 0
M  V30 5026 H 493.82 -0.481725 -4.31117 0
M  V30 5027 H 494.491 0.659292 -5.48049 0
M  V30 5028 H 496.967 1.64228 -3.8232 0
M  V30 5029 H 495.843 2.56738 -4.85157 0
M  V30 5030 H 496.104 3.06401 -3.18702 0
M  V30 5031 N 495.163 1.55791 0.238111 0
M  V30 5032 C 496.409 1.79211 0.962035 0
M  V30 5033 C 496.764 0.605463 1.82625 0
M  V30 5034 O 496.057 -0.40104 1.87356 0
M  V30 5035 C 496.251 3.05869 1.84875 0
M  V30 5036 C 496.08 4.36739 1.07186 0
M  V30 5037 C 494.85 4.99346 0.773424 0
M  V30 5038 C 497.048 5.1237 0.445168 0
M  V30 5039 N 495.03 6.13894 -0.0266037 0
M  V30 5040 C 496.401 6.19613 -0.219023 0
M  V30 5041 C 498.456 4.96622 0.356522 0
M  V30 5042 C 497.159 7.1282 -0.963358 0
M  V30 5043 C 499.185 5.90214 -0.374304 0
M  V30 5044 C 498.547 6.96872 -1.0271 0
M  V30 5045 H 494.646 0.707627 0.332849 0
M  V30 5046 H 497.23 1.93284 0.234368 0
M  V30 5047 H 495.401 2.93108 2.54837 0
M  V30 5048 H 497.133 3.17547 2.5089 0
M  V30 5049 H 493.888 4.60948 1.08738 0
M  V30 5050 H 494.312 6.75727 -0.414968 0
M  V30 5051 H 498.954 4.14232 0.846878 0
M  V30 5052 H 496.672 7.94704 -1.46529 0
M  V30 5053 H 500.258 5.80106 -0.443678 0
M  V30 5054 H 499.138 7.68045 -1.58358 0
M  V30 5055 N 496.642 -0.504142 1.49319 0
M  V30 5056 C 497.919 -1.26548 1.49147 0
M  V30 5057 C 498.299 -2.09977 0.21744 0
M  V30 5058 O 497.647 -2.14028 -0.800269 0
M  V30 5059 C 497.857 -2.12489 2.76857 0
M  V30 5060 C 499.205 -2.7178 3.26222 0
M  V30 5061 O 500.229 -2.22758 2.77952 0
M  V30 5062 O 499.088 -3.61015 4.10281 0
M  V30 5063 H 496.182 -0.572495 0.596806 0
M  V30 5064 H 498.728 -0.51867 1.61579 0
M  V30 5065 H 497.5 -1.50796 3.61077 0
M  V30 5066 H 497.123 -2.94368 2.6727 0
M  V30 5067 N 498.12 -1.38341 -0.754957 0
M  V30 5068 C 499.083 -1.35262 -1.85032 0
M  V30 5069 C 500.083 -0.253393 -1.58791 0
M  V30 5070 O 501.273 -0.510205 -1.66561 0
M  V30 5071 C 498.405 -1.10544 -3.22479 0
M  V30 5072 H 499.598 -2.32712 -1.8917 0
M  V30 5073 H 497.151 -1.23614 -0.956515 0
M  V30 5074 H 497.886 -0.136952 -3.24011 0
M  V30 5075 H 497.671 -1.90127 -3.4292 0
M  V30 5076 H 499.161 -1.11082 -4.02555 0
M  V30 5077 N 499.598 0.982988 -1.23187 0
M  V30 5078 C 500.823 1.76455 -1.08988 0
M  V30 5079 C 501.248 1.84726 0.354691 0
M  V30 5080 O 500.606 1.30699 1.25649 0
M  V30 5081 C 500.654 3.17094 -1.71708 0
M  V30 5082 O 499.758 4.00648 -0.977477 0
M  V30 5083 H 499.099 0.542988 -0.382177 0
M  V30 5084 H 501.629 1.23413 -1.63188 0
M  V30 5085 H 501.639 3.67684 -1.76841 0
M  V30 5086 H 500.314 3.10389 -2.76823 0
M  V30 5087 H 498.891 3.59161 -1.0029 0
M  V30 5088 N 501.076 1.04316 1.18135 0
M  V30 5089 C 502.306 0.767003 1.91835 0
M  V30 5090 C 502.714 -0.68002 1.76557 0
M  V30 5091 O 502.057 -1.47548 1.09432 0
M  V30 5092 C 502.119 1.05674 3.43618 0
M  V30 5093 C 501.783 2.49818 3.82675 0
M  V30 5094 C 502.78 3.48003 3.86251 0
M  V30 5095 C 500.465 2.84596 4.13897 0
M  V30 5096 C 502.459 4.79016 4.20503 0
M  V30 5097 C 500.146 4.15813 4.4782 0
M  V30 5098 C 501.144 5.12834 4.51099 0
M  V30 5099 O 500.832 6.41699 4.84229 0
M  V30 5100 H 500.564 0.278948 0.615763 0
M  V30 5101 H 503.118 1.3946 1.50798 0
M  V30 5102 H 501.348 0.372029 3.84906 0
M  V30 5103 H 503.037 0.767994 3.98568 0
M  V30 5104 H 503.803 3.22475 3.62264 0
M  V30 5105 H 499.682 2.09748 4.1052 0
M  V30 5106 H 503.226 5.54739 4.22978 0
M  V30 5107 H 499.123 4.41109 4.71268 0
M  V30 5108 H 499.891 6.46387 5.02121 0
M  V30 5109 N 502.554 -1.34406 0.822964 0
M  V30 5110 C 503.517 -2.2783 0.250271 0
M  V30 5111 C 504.517 -1.50288 -0.571854 0
M  V30 5112 O 505.707 -1.69825 -0.387952 0
M  V30 5113 C 502.839 -3.34663 -0.649137 0
M  V30 5114 H 504.032 -2.79992 1.07444 0
M  V30 5115 H 501.585 -1.44539 0.594829 0
M  V30 5116 H 502.32 -2.87714 -1.49637 0
M  V30 5117 H 502.105 -3.92052 -0.0611199 0
M  V30 5118 H 503.595 -4.04349 -1.04363 0
M  V30 5119 N 504.032 -0.577932 -1.46621 0
M  V30 5120 C 504.979 0.158048 -2.30258 0
M  V30 5121 C 505.949 0.888669 -1.40328 0
M  V30 5122 O 507.134 0.880283 -1.6928 0
M  V30 5123 C 504.274 1.16884 -3.24703 0
M  V30 5124 C 503.387 0.442163 -4.29731 0
M  V30 5125 C 502.522 1.44007 -5.11308 0
M  V30 5126 C 501.561 0.69952 -6.0809 0
M  V30 5127 N 500.698 1.64525 -6.82551 0
M  V30 5128 H 505.538 -0.561242 -2.92667 0
M  V30 5129 H 503.075 -0.288591 -1.44241 0
M  V30 5130 H 505.033 1.7677 -3.779 0
M  V30 5131 H 503.663 1.85591 -2.64113 0
M  V30 5132 H 502.715 -0.271632 -3.79429 0
M  V30 5133 H 504.027 -0.136992 -4.98612 0
M  V30 5134 H 503.181 2.11186 -5.68758 0
M  V30 5135 H 501.92 2.05315 -4.42377 0
M  V30 5136 H 500.925 0.0139217 -5.49798 0
M  V30 5137 H 502.15 0.091894 -6.79038 0
M  V30 5138 H 500.096 2.24653 -6.16334 0
M  V30 5139 H 500.013 1.11878 -7.47676 0
M  V30 5140 H 501.281 2.30754 -7.44562 0
M  V30 5141 N 505.51 1.54411 -0.315457 0
M  V30 5142 C 506.457 2.24048 0.554166 0
M  V30 5143 C 507.427 1.2283 1.11812 0
M  V30 5144 O 508.612 1.51491 1.15997 0
M  V30 5145 C 505.752 2.99574 1.71316 0
M  V30 5146 C 504.865 4.15594 1.17922 0
M  V30 5147 C 504 4.78669 2.30324 0
M  V30 5148 C 503.039 5.86807 1.74137 0
M  V30 5149 N 502.176 6.43777 2.8017 0
M  V30 5150 H 507.016 2.97964 -0.0462602 0
M  V30 5151 H 504.553 1.47059 -0.0346009 0
M  V30 5152 H 506.511 3.41604 2.39505 0
M  V30 5153 H 505.141 2.28008 2.285 0
M  V30 5154 H 504.193 3.78404 0.389136 0
M  V30 5155 H 505.505 4.93459 0.728012 0
M  V30 5156 H 504.659 5.23626 3.06433 0
M  V30 5157 H 503.398 4.00168 2.78778 0
M  V30 5158 H 502.403 5.41261 0.965236 0
M  V30 5159 H 503.628 6.67201 1.2657 0
M  V30 5160 H 501.574 5.68153 3.2793 0
M  V30 5161 H 501.491 7.17031 2.39588 0
M  V30 5162 H 502.759 6.9339 3.56132 0
M  V30 5163 N 506.988 0.0434614 1.5754 0
M  V30 5164 C 508.399 -0.493343 1.80064 0
M  V30 5165 C 508.75 -1.71388 0.955023 0
M  V30 5166 O 507.875 -2.15736 0.169434 0
M  V30 5167 C 508.47 -0.90179 3.26578 0
M  V30 5168 C 507.029 -1.38362 3.50047 0
M  V30 5169 C 506.176 -0.355129 2.75017 0
M  V30 5170 H 509.127 0.2694 1.56397 0
M  V30 5171 H 509.148 -1.76523 3.37075 0
M  V30 5172 H 508.66 -0.013271 3.88098 0
M  V30 5173 H 506.761 -2.29159 2.93798 0
M  V30 5174 H 506.874 -1.3811 4.58762 0
M  V30 5175 H 505.238 -0.826348 2.40922 0
M  V30 5176 H 506.021 0.525172 3.39259 0
M  V30 5177 N 508.466 -1.55915 -0.229846 0
M  V30 5178 C 509.429 -1.90914 -1.26824 0
M  V30 5179 C 510.429 -0.786999 -1.40225 0
M  V30 5180 O 511.619 -1.05484 -1.38632 0
M  V30 5181 C 508.751 -2.15264 -2.64337 0
M  V30 5182 H 509.944 -2.8378 -0.969998 0
M  V30 5183 H 507.497 -1.49069 -0.4699 0
M  V30 5184 H 508.232 -1.24923 -2.99274 0
M  V30 5185 H 508.017 -2.97005 -2.55989 0
M  V30 5186 H 509.507 -2.43467 -3.39284 0
M  V30 5187 N 509.944 0.496216 -1.49584 0
M  V30 5188 C 511.174 1.27209 -1.62793 0
M  V30 5189 C 511.582 1.86799 -0.300476 0
M  V30 5190 O 510.925 1.68802 0.724674 0
M  V30 5191 C 510.987 2.43812 -2.64189 0
M  V30 5192 C 510.651 2.05055 -4.08414 0
M  V30 5193 C 511.648 1.58752 -4.9507 0
M  V30 5194 C 509.333 2.14543 -4.54177 0
M  V30 5195 C 511.327 1.22448 -6.25528 0
M  V30 5196 C 509.014 1.77851 -5.84647 0
M  V30 5197 C 510.012 1.31878 -6.70147 0
M  V30 5198 O 509.7 0.956834 -7.98185 0
M  V30 5199 H 509.432 0.391848 -0.550846 0
M  V30 5200 H 511.986 0.601712 -1.96389 0
M  V30 5201 H 510.216 3.13941 -2.25783 0
M  V30 5202 H 511.905 3.05829 -2.66877 0
M  V30 5203 H 512.671 1.50863 -4.60939 0
M  V30 5204 H 508.55 2.49277 -3.87791 0
M  V30 5205 H 512.094 0.864933 -6.92217 0
M  V30 5206 H 507.991 1.8539 -6.18305 0
M  V30 5207 H 508.759 1.08789 -8.11238 0
M  V30 5208 N 511.423 1.38739 0.74761 0
M  V30 5209 C 512.386 1.36241 1.84312 0
M  V30 5210 C 513.386 0.261811 1.58654 0
M  V30 5211 O 514.576 0.519031 1.66288 0
M  V30 5212 C 511.708 1.12253 3.21888 0
M  V30 5213 H 512.901 2.33712 1.87933 0
M  V30 5214 H 510.454 1.2412 0.949946 0
M  V30 5215 H 511.189 0.154133 3.23934 0
M  V30 5216 H 510.974 1.91943 3.41907 0
M  V30 5217 H 512.464 1.13215 4.0196 0
M  V30 5218 N 512.901 -0.976442 1.23707 0
M  V30 5219 C 513.864 -2.0511 1.02287 0
M  V30 5220 C 514.864 -1.60791 -0.0167195 0
M  V30 5221 O 516.054 -1.72761 0.223408 0
M  V30 5222 C 513.186 -3.36458 0.548507 0
M  V30 5223 H 514.379 -2.25545 1.9766 0
M  V30 5224 H 511.932 -1.15042 1.05806 0
M  V30 5225 H 512.667 -3.21713 -0.408818 0
M  V30 5226 H 512.452 -3.69967 1.29874 0
M  V30 5227 H 513.942 -4.15489 0.419406 0
M  V30 5228 N 514.379 -1.04941 -1.1758 0
M  V30 5229 C 515.625 -0.759112 -1.88057 0
M  V30 5230 C 515.958 0.711918 -1.8068 0
M  V30 5231 O 515.233 1.52035 -1.21308 0
M  V30 5232 C 515.516 -1.237 -3.38187 0
M  V30 5233 C 515.369 -2.77078 -3.54327 0
M  V30 5234 C 516.688 -0.834014 -4.32125 0
M  V30 5235 H 513.807 -0.277237 -0.682868 0
M  V30 5236 H 516.449 -1.30296 -1.38286 0
M  V30 5237 H 514.599 -0.774337 -3.80705 0
M  V30 5238 H 516.271 -3.31449 -3.20842 0
M  V30 5239 H 514.514 -3.16477 -2.96689 0
M  V30 5240 H 515.185 -3.05577 -4.59703 0
M  V30 5241 H 517.661 -1.23228 -3.97434 0
M  V30 5242 H 516.537 -1.19603 -5.35711 0
M  V30 5243 H 516.798 0.262195 -4.41322 0
M  V30 5244 N 515.857 1.33968 -0.830081 0
M  V30 5245 C 516.79 2.27303 -0.202182 0
M  V30 5246 C 517.768 1.49235 0.645581 0
M  V30 5247 O 518.952 1.78433 0.607762 0
M  V30 5248 C 516.079 3.31025 0.716932 0
M  V30 5249 C 515.125 4.26466 -0.0542271 0
M  V30 5250 S 515.958 5.16707 -1.40622 0
M  V30 5251 C 517.114 6.23962 -0.492167 0
M  V30 5252 H 517.347 2.8021 -0.99346 0
M  V30 5253 H 514.88 1.41124 -0.626359 0
M  V30 5254 H 516.838 3.91271 1.24165 0
M  V30 5255 H 515.499 2.76951 1.4818 0
M  V30 5256 H 514.692 4.99858 0.644785 0
M  V30 5257 H 514.294 3.7051 -0.509722 0
M  V30 5258 H 516.586 6.76774 0.31347 0
M  V30 5259 H 517.529 6.97927 -1.19599 0
M  V30 5260 H 517.937 5.64447 -0.0774176 0
M  V30 5261 N 517.335 0.585699 1.46312 0
M  V30 5262 C 518.245 -0.148236 2.34131 0
M  V30 5263 C 519.261 -0.882972 1.49932 0
M  V30 5264 O 520.437 -0.845484 1.82794 0
M  V30 5265 C 517.502 -1.14714 3.27172 0
M  V30 5266 C 516.563 -0.416746 4.27272 0
M  V30 5267 C 515.796 -1.36806 5.15868 0
M  V30 5268 O 516.019 -2.60475 5.07454 0
M  V30 5269 O 514.953 -0.877018 5.95476 0
M  V30 5270 H 518.779 0.572882 2.98248 0
M  V30 5271 H 516.364 0.346082 1.45336 0
M  V30 5272 H 518.246 -1.72303 3.84564 0
M  V30 5273 H 516.921 -1.84967 2.65648 0
M  V30 5274 H 515.828 0.201061 3.73559 0
M  V30 5275 H 517.161 0.244872 4.9159 0
M  V30 5276 N 518.813 -1.54241 0.323641 0
M  V30 5277 C 519.776 -2.22997 -0.529602 0
M  V30 5278 C 520.776 -1.22345 -1.04347 0
M  V30 5279 O 521.966 -1.46924 -0.935889 0
M  V30 5280 C 519.098 -2.93409 -1.73562 0
M  V30 5281 H 520.291 -2.99815 0.0714518 0
M  V30 5282 H 517.844 -1.56121 0.0747258 0
M  V30 5283 H 518.579 -2.20729 -2.37591 0
M  V30 5284 H 518.364 -3.67217 -1.37456 0
M  V30 5285 H 519.854 -3.45794 -2.34128 0
M  V30 5286 N 520.291 -0.0518155 -1.57515 0
M  V30 5287 C 521.538 0.621823 -1.92716 0
M  V30 5288 C 521.866 1.70813 -0.930229 0
M  V30 5289 O 521.121 1.95616 0.0573708 0
M  V30 5290 C 521.42 1.25607 -3.34601 0
M  V30 5291 C 521.086 0.297901 -4.49915 0
M  V30 5292 C 519.748 0.034243 -4.81188 0
M  V30 5293 C 522.1 -0.358738 -5.19964 0
M  V30 5294 C 519.428 -0.893479 -5.79857 0
M  V30 5295 C 521.78 -1.27466 -6.19625 0
M  V30 5296 C 520.444 -1.54698 -6.49326 0
M  V30 5297 H 519.714 0.227541 -0.705199 0
M  V30 5298 H 522.361 -0.118432 -1.91133 0
M  V30 5299 H 520.666 2.07161 -3.32553 0
M  V30 5300 H 522.363 1.78424 -3.59118 0
M  V30 5301 H 518.953 0.513581 -4.25512 0
M  V30 5302 H 523.137 -0.168133 -4.96015 0
M  V30 5303 H 518.393 -1.11193 -6.01204 0
M  V30 5304 H 522.567 -1.78953 -6.73015 0
M  V30 5305 H 520.194 -2.26748 -7.25596 0
M  V30 5306 N 521.769 1.56035 0.221574 0
M  V30 5307 C 523.017 1.78693 0.944102 0
M  V30 5308 C 523.338 0.620317 1.8487 0
M  V30 5309 O 522.608 -0.362784 1.92512 0
M  V30 5310 H 521.188 0.659082 0.351597 0
M  V30 5311 H 523.85 1.93497 0.233435 0
M  V30 5312 H 522.946 2.70837 1.55093 0
M  V30 5313 N 523.247 -0.488276 1.49845 0
M  V30 5314 C 524.21 -1.57069 1.66919 0
M  V30 5315 C 525.21 -1.51445 0.540479 0
M  V30 5316 O 526.4 -1.5437 0.807188 0
M  V30 5317 C 523.532 -2.96718 1.67844 0
M  V30 5318 H 524.725 -1.43254 2.63474 0
M  V30 5319 H 522.278 -0.713435 1.39068 0
M  V30 5320 H 523.013 -3.15996 0.7292 0
M  V30 5321 H 522.798 -3.02208 2.49826 0
M  V30 5322 H 524.288 -3.75335 1.83066 0
M  V30 5323 N 524.725 -1.39134 -0.740242 0
M  V30 5324 C 525.95 -1.39518 -1.53459 0
M  V30 5325 C 526.375 0.00968883 -1.88098 0
M  V30 5326 O 525.733 0.995312 -1.51536 0
M  V30 5327 C 525.781 -2.26981 -2.802 0
M  V30 5328 O 524.885 -1.69609 -3.75908 0
M  V30 5329 H 524.226 -0.475328 -0.463637 0
M  V30 5330 H 526.756 -1.83064 -0.913717 0
M  V30 5331 H 526.766 -2.41309 -3.28989 0
M  V30 5332 H 525.441 -3.29081 -2.5432 0
M  V30 5333 H 524.018 -1.64495 -3.34658 0
M  V30 5334 N 526.204 0.969867 -1.24223 0
M  V30 5335 C 527.615 1.52717 -1.07399 0
M  V30 5336 C 527.966 1.92956 0.355298 0
M  V30 5337 O 527.091 1.77112 1.2434 0
M  V30 5338 C 527.686 2.77521 -1.94339 0
M  V30 5339 C 526.245 3.29615 -1.81744 0
M  V30 5340 C 525.392 2.02537 -1.89405 0
M  V30 5341 H 528.343 0.788399 -1.37732 0
M  V30 5342 H 528.364 3.50773 -1.47439 0
M  V30 5343 H 527.876 2.48203 -2.98357 0
M  V30 5344 H 525.977 3.63789 -0.805505 0
M  V30 5345 H 526.09 3.98661 -2.65718 0
M  V30 5346 H 524.454 2.17151 -1.33108 0
M  V30 5347 H 525.237 1.75587 -2.94999 0
M  V30 5348 N 527.682 1.05563 1.17022 0
M  V30 5349 C 528.91 0.78845 1.91288 0
M  V30 5350 C 529.325 -0.656318 1.77025 0
M  V30 5351 O 528.682 -1.44869 1.10992 0
M  V30 5352 C 528.733 1.16444 3.42232 0
M  V30 5353 O 528.454 2.5525 3.5606 0
M  V30 5354 C 529.955 0.923937 4.33565 0
M  V30 5355 H 527.175 0.286389 0.606813 0
M  V30 5356 H 529.719 1.4073 1.48375 0
M  V30 5357 H 527.874 0.590266 3.82877 0
M  V30 5358 H 528.288 2.70097 4.49609 0
M  V30 5359 H 529.762 1.23672 5.37968 0
M  V30 5360 H 530.239 -0.140688 4.38975 0
M  V30 5361 H 530.845 1.48214 3.98639 0
M  V30 5362 N 529.16 -1.33526 0.837174 0
M  V30 5363 C 530.571 -1.80182 0.489017 0
M  V30 5364 C 530.922 -1.69285 -0.991826 0
M  V30 5365 O 530.047 -1.24113 -1.77271 0
M  V30 5366 C 530.642 -3.27149 0.880866 0
M  V30 5367 C 529.201 -3.71828 0.584872 0
M  V30 5368 C 528.348 -2.54974 1.09011 0
M  V30 5369 H 531.299 -1.21071 1.02603 0
M  V30 5370 H 531.32 -3.80024 0.190239 0
M  V30 5371 H 530.832 -3.35048 1.95869 0
M  V30 5372 H 528.933 -3.69457 -0.48295 0
M  V30 5373 H 529.046 -4.65366 1.13892 0
M  V30 5374 H 527.41 -2.4952 0.511047 0
M  V30 5375 H 528.193 -2.65637 2.17467 0
M  V30 5376 N 530.638 -0.59345 -1.46 0
M  V30 5377 C 531.866 -0.0890934 -2.06708 0
M  V30 5378 C 532.281 1.2205 -1.44046 0
M  V30 5379 O 531.638 1.74029 -0.549551 0
M  V30 5380 C 531.689 0.0720263 -3.61428 0
M  V30 5381 O 531.41 -1.18574 -4.21748 0
M  V30 5382 C 532.911 0.609487 -4.3909 0
M  V30 5383 H 530.131 -0.0623628 -0.668096 0
M  V30 5384 H 532.675 -0.817171 -1.87464 0
M  V30 5385 H 530.83 0.750369 -3.80063 0
M  V30 5386 H 531.244 -1.0064 -5.14754 0
M  V30 5387 H 532.718 0.671363 -5.47902 0
M  V30 5388 H 533.195 1.62878 -4.07882 0
M  V30 5389 H 533.801 -0.03434 -4.25286 0
M  V30 5390 N 532.116 1.54067 -0.331816 0
M  V30 5391 C 533.527 1.86059 0.15454 0
M  V30 5392 C 533.878 1.25331 1.50952 0
M  V30 5393 O 533.003 0.562441 2.08963 0
M  V30 5394 C 533.598 3.37581 0.287192 0
M  V30 5395 C 532.157 3.69493 0.717773 0
M  V30 5396 C 531.304 2.76863 -0.155569 0
M  V30 5397 H 534.255 1.48797 -0.55182 0
M  V30 5398 H 534.276 3.63744 1.11671 0
M  V30 5399 H 533.788 3.81751 -0.699131 0
M  V30 5400 H 531.889 3.3086 1.71354 0
M  V30 5401 H 532.002 4.76315 0.5158 0
M  V30 5402 H 530.366 2.51995 0.370213 0
M  V30 5403 H 531.149 3.23861 -1.13881 0
M  V30 5404 N 533.594 0.0601682 1.57485 0
M  V30 5405 C 534.822 -0.620937 1.97363 0
M  V30 5406 C 535.237 -1.63846 0.938082 0
M  V30 5407 O 534.594 -1.82339 -0.0766578 0
M  V30 5408 C 534.645 -1.29987 3.37321 0
M  V30 5409 O 534.366 -0.323081 4.36907 0
M  V30 5410 C 535.867 -2.06989 3.92008 0
M  V30 5411 H 533.087 -0.169135 0.649334 0
M  V30 5412 H 535.631 0.129132 2.04092 0
M  V30 5413 H 533.786 -2.0011 3.31715 0
M  V30 5414 H 534.2 -0.808754 5.18227 0
M  V30 5415 H 535.674 -2.49901 4.92192 0
M  V30 5416 H 536.151 -2.92173 3.2792 0
M  V30 5417 H 536.757 -1.41757 4.0098 0
M  V30 5418 N 535.072 -1.5615 -0.213296 0
M  V30 5419 C 536.3 -1.83638 -0.953139 0
M  V30 5420 C 536.715 -0.640362 -1.77609 0
M  V30 5421 O 536.072 0.391071 -1.78261 0
M  V30 5422 C 536.123 -3.09735 -1.86405 0
M  V30 5423 O 535.844 -4.24723 -1.07435 0
M  V30 5424 C 537.345 -3.5027 -2.71709 0
M  V30 5425 H 534.565 -0.610263 -0.278962 0
M  V30 5426 H 537.109 -2.03247 -0.226035 0
M  V30 5427 H 535.264 -2.92077 -2.545 0
M  V30 5428 H 535.678 -4.9641 -1.69343 0
M  V30 5429 H 537.152 -4.41515 -3.31313 0
M  V30 5430 H 537.629 -2.72406 -3.44516 0
M  V30 5431 H 538.235 -3.70396 -2.09015 0
M  V30 5432 N 536.55 0.480323 -1.50102 0
M  V30 5433 C 537.961 1.06142 -1.53593 0
M  V30 5434 C 538.312 1.93335 -0.334055 0
M  V30 5435 O 537.437 2.09188 0.55403 0
M  V30 5436 C 538.032 1.9317 -2.78336 0
M  V30 5437 C 536.591 2.46405 -2.84538 0
M  V30 5438 C 535.738 1.24521 -2.4777 0
M  V30 5439 H 538.689 0.26333 -1.565 0
M  V30 5440 H 538.71 2.78123 -2.59669 0
M  V30 5441 H 538.222 1.29683 -3.65792 0
M  V30 5442 H 536.323 3.13472 -2.01411 0
M  V30 5443 H 536.436 2.82143 -3.87211 0
M  V30 5444 H 534.8 1.57706 -2.00003 0
M  V30 5445 H 535.583 0.627102 -3.37524 0
M  V30 5446 N 538.028 1.39524 0.732853 0
M  V30 5447 C 539.256 1.40143 1.52209 0
M  V30 5448 C 539.671 -0.00348836 1.888 0
M  V30 5449 O 539.028 -0.975357 1.5425 0
M  V30 5450 C 539.079 2.27632 2.8083 0
M  V30 5451 O 538.8 3.62654 2.45792 0
M  V30 5452 C 540.301 2.36658 3.74844 0
M  V30 5453 H 537.521 0.478604 0.470297 0
M  V30 5454 H 540.065 1.83366 0.905388 0
M  V30 5455 H 538.22 1.87818 3.38826 0
M  V30 5456 H 538.634 4.08941 3.28431 0
M  V30 5457 H 540.108 3.02118 4.61984 0
M  V30 5458 H 540.585 1.38638 4.16745 0
M  V30 5459 H 541.191 2.76951 3.22766 0
M  V30 5460 N 539.506 -0.963266 1.24736 0
M  V30 5461 C 540.917 -1.52145 1.08207 0
M  V30 5462 C 541.268 -1.93142 -0.345061 0
M  V30 5463 O 540.393 -1.77769 -1.23399 0
M  V30 5464 C 540.988 -2.76486 1.95808 0
M  V30 5465 C 539.547 -3.28646 1.8349 0
M  V30 5466 C 538.694 -2.01529 1.90476 0
M  V30 5467 H 541.645 -0.781083 1.38148 0
M  V30 5468 H 541.666 -3.49986 1.49297 0
M  V30 5469 H 541.178 -2.46617 2.99669 0
M  V30 5470 H 539.279 -3.63357 0.824787 0
M  V30 5471 H 539.392 -3.97246 2.67829 0
M  V30 5472 H 537.756 -2.16442 1.34258 0
M  V30 5473 H 538.539 -1.7402 2.95926 0
M  V30 5474 N 540.985 -1.06182 -1.16461 0
M  V30 5475 C 542.213 -0.798583 -1.90867 0
M  V30 5476 C 542.628 0.646921 -1.77371 0
M  V30 5477 O 541.985 1.44279 -1.11758 0
M  V30 5478 C 542.036 -1.18258 -3.4161 0
M  V30 5479 O 541.757 -2.57135 -3.54701 0
M  V30 5480 C 543.258 -0.946917 -4.33069 0
M  V30 5481 H 540.478 -0.289603 -0.605286 0
M  V30 5482 H 543.022 -1.41515 -1.47627 0
M  V30 5483 H 541.177 -0.610562 -3.82558 0
M  V30 5484 H 541.591 -2.72477 -4.4817 0
M  V30 5485 H 543.065 -1.26523 -5.37304 0
M  V30 5486 H 543.542 0.117406 -4.39043 0
M  V30 5487 H 544.148 -1.50326 -3.97847 0
M  V30 5488 N 542.463 1.3308 -0.844243 0
M  V30 5489 C 543.874 1.7992 -0.498566 0
M  V30 5490 C 544.225 1.69808 0.982834 0
M  V30 5491 O 543.35 1.25051 1.7661 0
M  V30 5492 C 543.945 3.26677 -0.898204 0
M  V30 5493 C 542.504 3.71513 -0.604583 0
M  V30 5494 C 541.651 2.54393 -1.10362 0
M  V30 5495 H 544.602 1.20526 -1.03244 0
M  V30 5496 H 544.623 3.79918 -0.21039 0
M  V30 5497 H 544.135 3.34004 -1.97643 0
M  V30 5498 H 542.236 3.69708 0.46335 0
M  V30 5499 H 542.349 4.64755 -1.16358 0
M  V30 5500 H 540.713 2.49246 -0.524273 0
M  V30 5501 H 541.496 2.6448 -2.18873 0
M  V30 5502 N 543.941 0.601185 1.45683 0
M  V30 5503 C 545.169 0.100054 2.06658 0
M  V30 5504 C 545.584 -1.21285 1.44691 0
M  V30 5505 O 544.941 -1.73735 0.558772 0
M  V30 5506 C 544.992 -0.0528579 3.61461 0
M  V30 5507 O 544.713 1.20809 4.21114 0
M  V30 5508 C 546.214 -0.586193 4.39407 0
M  V30 5509 H 543.434 0.065905 0.667756 0
M  V30 5510 H 545.978 0.827101 1.87028 0
M  V30 5511 H 544.133 -0.730203 3.80456 0
M  V30 5512 H 544.547 1.03368 5.14213 0
M  V30 5513 H 546.021 -0.642297 5.4825 0
M  V30 5514 H 546.498 -1.60713 4.0874 0
M  V30 5515 H 547.104 0.0568935 4.25262 0
M  V30 5516 N 545.419 -1.53889 0.339982 0
M  V30 5517 C 546.647 -2.05271 -0.259114 0
M  V30 5518 C 547.062 -1.21517 -1.44496 0
M  V30 5519 O 546.419 -0.24966 -1.80784 0
M  V30 5520 C 546.47 -3.55092 -0.677634 0
M  V30 5521 O 546.191 -4.35667 0.461051 0
M  V30 5522 C 547.692 -4.22631 -1.33782 0
M  V30 5523 H 544.912 -0.669085 -0.0506566 0
M  V30 5524 H 547.456 -1.9852 0.490935 0
M  V30 5525 H 545.611 -3.62077 -1.37763 0
M  V30 5526 H 546.025 -5.24343 0.128144 0
M  V30 5527 H 547.499 -5.28861 -1.58145 0
M  V30 5528 H 547.976 -3.74758 -2.29027 0
M  V30 5529 H 548.582 -4.19829 -0.679957 0
M  V30 5530 N 546.897 -0.0685191 -1.57451 0
M  V30 5531 C 548.308 0.464634 -1.80826 0
M  V30 5532 C 548.659 1.69847 -0.982169 0
M  V30 5533 O 547.784 2.15439 -0.203734 0
M  V30 5534 C 548.379 0.849721 -3.27971 0
M  V30 5535 C 546.938 1.32776 -3.52204 0
M  V30 5536 C 546.085 0.311332 -2.75547 0
M  V30 5537 H 549.036 -0.294248 -1.55948 0
M  V30 5538 H 549.057 1.71138 -3.39841 0
M  V30 5539 H 548.569 -0.0484736 -3.8807 0
M  V30 5540 H 546.67 2.24456 -2.97406 0
M  V30 5541 H 546.783 1.30794 -4.60901 0
M  V30 5542 H 545.147 0.787915 -2.42206 0
M  V30 5543 H 545.93 -0.579078 -3.38381 0
M  V30 5544 N 548.375 1.56261 0.205012 0
M  V30 5545 C 549.603 1.84141 0.943386 0
M  V30 5546 C 550.018 0.649772 1.77266 0
M  V30 5547 O 549.375 -0.381612 1.78466 0
M  V30 5548 C 549.426 3.10719 1.84759 0
M  V30 5549 O 549.147 4.25286 1.05181 0
M  V30 5550 C 550.648 3.51706 2.69848 0
M  V30 5551 H 547.868 0.611734 0.275721 0
M  V30 5552 H 550.412 2.03364 0.215253 0
M  V30 5553 H 548.567 2.93422 2.52947 0
M  V30 5554 H 548.981 4.97301 1.66709 0
M  V30 5555 H 550.455 4.43266 3.28967 0
M  V30 5556 H 550.932 2.7423 3.43067 0
M  V30 5557 H 551.538 3.71499 2.07047 0
M  V30 5558 N 549.853 -0.472356 1.50355 0
M  V30 5559 C 551.264 -1.05326 1.54154 0
M  V30 5560 C 551.615 -1.93155 0.344303 0
M  V30 5561 O 550.74 -2.09479 -0.542928 0
M  V30 5562 C 551.335 -1.91691 2.79356 0
M  V30 5563 C 549.894 -2.44892 2.8584 0
M  V30 5564 C 549.041 -1.23205 2.48426 0
M  V30 5565 H 551.992 -0.255027 1.56637 0
M  V30 5566 H 552.013 -2.76742 2.6114 0
M  V30 5567 H 551.525 -1.27741 3.66475 0
M  V30 5568 H 549.626 -3.12399 2.0307 0
M  V30 5569 H 549.739 -2.80086 3.88701 0
M  V30 5570 H 548.103 -1.56643 2.00836 0
M  V30 5571 H 548.886 -0.609194 3.37852 0
M  V30 5572 N 551.331 -1.39911 -0.725443 0
M  V30 5573 C 552.559 -1.40949 -1.51463 0
M  V30 5574 C 552.974 -0.0065242 -1.88799 0
M  V30 5575 O 552.331 0.967163 -1.54765 0
M  V30 5576 C 552.382 -2.29119 -2.79619 0
M  V30 5577 O 552.103 -3.63952 -2.43866 0
M  V30 5578 C 553.604 -2.38642 -3.73584 0
M  V30 5579 H 550.824 -0.481091 -0.467752 0
M  V30 5580 H 553.368 -1.83843 -0.895651 0
M  V30 5581 H 551.523 -1.89612 -3.37826 0
M  V30 5582 H 551.937 -4.10677 -3.26258 0
M  V30 5583 H 553.411 -3.04563 -4.60375 0
M  V30 5584 H 553.888 -1.40846 -4.16004 0
M  V30 5585 H 554.494 -2.78659 -3.21293 0
M  V30 5586 N 552.809 0.956637 -1.25245 0
M  V30 5587 C 554.22 1.51569 -1.09012 0
M  V30 5588 C 554.571 1.93322 0.334813 0
M  V30 5589 O 553.696 1.78421 1.22454 0
M  V30 5590 C 554.291 2.75444 -1.97271 0
M  V30 5591 C 552.85 3.27669 -1.8523 0
M  V30 5592 C 551.997 2.00517 -1.91542 0
M  V30 5593 H 554.948 0.773746 -1.3856 0
M  V30 5594 H 554.969 3.4919 -1.51151 0
M  V30 5595 H 554.481 2.45024 -3.00973 0
M  V30 5596 H 552.582 3.62914 -0.844045 0
M  V30 5597 H 552.695 3.9582 -2.69932 0
M  V30 5598 H 551.059 2.15727 -1.35404 0
M  V30 5599 H 551.842 1.72448 -2.96844 0
M  V30 5600 N 554.287 1.06798 1.15896 0
M  V30 5601 C 555.515 0.808694 1.90441 0
M  V30 5602 C 555.93 -0.637506 1.77711 0
M  V30 5603 O 555.287 -1.43684 1.12522 0
M  V30 5604 C 555.338 1.20068 3.40978 0
M  V30 5605 O 555.059 2.59013 3.53333 0
M  V30 5606 C 556.56 0.96987 4.3256 0
M  V30 5607 H 553.78 0.292809 0.603742 0
M  V30 5608 H 556.324 1.42296 1.46874 0
M  V30 5609 H 554.479 0.630842 3.82229 0
M  V30 5610 H 554.893 2.7485 4.46719 0
M  V30 5611 H 556.367 1.29371 5.36626 0
M  V30 5612 H 556.844 -0.0941209 4.39099 0
M  V30 5613 H 557.45 1.52433 3.97044 0
M  V30 5614 N 555.766 -1.3263 0.851289 0
M  V30 5615 C 556.991 -2.02097 0.466006 0
M  V30 5616 C 557.416 -1.63574 -0.928709 0
M  V30 5617 O 556.774 -0.834665 -1.60944 0
M  V30 5618 C 556.822 -3.55425 0.608737 0
M  V30 5619 O 555.926 -4.10827 -0.359878 0
M  V30 5620 H 555.267 -0.636911 0.187724 0
M  V30 5621 H 557.797 -1.69253 1.14955 0
M  V30 5622 H 557.807 -4.04986 0.495006 0
M  V30 5623 H 556.482 -3.82806 1.62581 0
M  V30 5624 H 555.059 -3.72349 -0.202666 0
M  V30 5625 N 557.244 -0.608902 -1.45362 0
M  V30 5626 C 558.492 -0.104401 -2.0183 0
M  V30 5627 C 558.813 1.27007 -1.47967 0
M  V30 5628 O 558.083 1.83924 -0.674455 0
M  V30 5629 H 556.663 -0.0356042 -0.746151 0
M  V30 5630 H 559.325 -0.790596 -1.78145 0
M  V30 5631 H 558.421 -0.0551793 -3.12051 0
M  V30 5632 N 558.722 1.53707 -0.348139 0
M  V30 5633 C 560.133 1.86213 0.134797 0
M  V30 5634 C 560.484 1.26925 1.49614 0
M  V30 5635 O 559.609 0.584573 2.08355 0
M  V30 5636 C 560.204 3.37866 0.251371 0
M  V30 5637 C 558.763 3.70233 0.678543 0
M  V30 5638 C 557.91 2.76683 -0.184925 0
M  V30 5639 H 560.861 1.48204 -0.567571 0
M  V30 5640 H 560.882 3.64908 1.07806 0
M  V30 5641 H 560.394 3.80988 -0.739581 0
M  V30 5642 H 558.495 3.32659 1.67835 0
M  V30 5643 H 558.608 4.76836 0.465251 0
M  V30 5644 H 556.972 2.52374 0.343465 0
M  V30 5645 H 557.755 3.22635 -1.1731 0
M  V30 5646 N 560.2 0.0768682 1.57412 0
M  V30 5647 C 561.163 -0.873949 2.11884 0
M  V30 5648 C 562.163 -1.22301 1.04398 0
M  V30 5649 O 563.353 -1.15545 1.30365 0
M  V30 5650 C 560.485 -2.17575 2.62438 0
M  V30 5651 H 561.678 -0.401278 2.97203 0
M  V30 5652 H 559.231 -0.171904 1.55352 0
M  V30 5653 H 559.966 -2.69368 1.80587 0
M  V30 5654 H 559.751 -1.93534 3.41009 0
M  V30 5655 H 561.241 -2.85631 3.04639 0
M  V30 5656 N 561.678 -1.56367 -0.196722 0
M  V30 5657 C 562.926 -1.80172 -0.915554 0
M  V30 5658 C 563.247 -0.649649 -1.8386 0
M  V30 5659 O 562.517 0.332111 -1.93064 0
M  V30 5660 H 561.097 -0.664592 -0.341067 0
M  V30 5661 H 563.759 -1.93844 -0.202622 0
M  V30 5662 H 562.855 -2.7327 -1.50764 0
M  V30 5663 N 563.156 0.464375 -1.50603 0
M  V30 5664 C 564.396 1.22573 -1.6357 0
M  V30 5665 C 564.76 1.89111 -0.331834 0
M  V30 5666 O 565.961 2.66679 -0.336999 0
M  V30 5667 C 564.232 2.23643 -2.7878 0
M  V30 5668 S 565.791 3.08628 -3.1192 0
M  V30 5669 H 562.609 0.416058 -0.576556 0
M  V30 5670 H 565.211 0.521637 -1.88412 0
M  V30 5671 H 563.915 1.73354 -3.7199 0
M  V30 5672 H 563.446 2.98672 -2.56044 0
M  V30 5673 H 565.461 4.24904 -2.56264 0
M  V30 5674 N 564.634 1.40294 0.718013 0
M  V30 5675 C 565.566 1.36281 1.84283 0
M  V30 5676 C 566.579 0.268621 1.60569 0
M  V30 5677 O 567.768 0.528798 1.70487 0
M  V30 5678 C 564.868 1.09741 3.2064 0
M  V30 5679 C 564.041 2.30767 3.71571 0
M  V30 5680 C 563.1 2.00424 4.86535 0
M  V30 5681 O 562.126 2.73268 4.99313 0
M  V30 5682 N 563.328 0.980724 5.72156 0
M  V30 5683 H 566.093 2.3322 1.88225 0
M  V30 5684 H 563.654 1.34616 0.899453 0
M  V30 5685 H 565.646 0.874322 3.95143 0
M  V30 5686 H 564.216 0.214771 3.11861 0
M  V30 5687 H 563.436 2.68921 2.88228 0
M  V30 5688 H 564.724 3.11455 4.02335 0
M  V30 5689 H 564.122 0.377375 5.6444 0
M  V30 5690 H 562.679 0.817538 6.46653 0
M  V30 5691 N 566.112 -0.949982 1.2575 0
M  V30 5692 C 567.358 -1.69766 1.10938 0
M  V30 5693 C 567.691 -1.91056 -0.348028 0
M  V30 5694 O 566.966 -1.48488 -1.25625 0
M  V30 5695 C 567.249 -3.07779 1.86933 0
M  V30 5696 C 567.102 -2.9387 3.4053 0
M  V30 5697 C 568.421 -4.07749 1.65616 0
M  V30 5698 H 565.54 -0.616144 0.404396 0
M  V30 5699 H 568.182 -1.10394 1.54639 0
M  V30 5700 H 566.332 -3.58462 1.4979 0
M  V30 5701 H 568.004 -2.50476 3.87375 0
M  V30 5702 H 566.247 -2.29686 3.68004 0
M  V30 5703 H 566.918 -3.91719 3.88922 0
M  V30 5704 H 569.394 -3.65994 1.97959 0
M  V30 5705 H 568.27 -5.02348 2.21218 0
M  V30 5706 H 568.531 -4.38029 0.598595 0
M  V30 5707 N 567.59 -1.07411 -1.15328 0
M  V30 5708 C 568.52 -0.716472 -2.22236 0
M  V30 5709 C 569.501 0.296373 -1.67498 0
M  V30 5710 O 570.686 0.168989 -1.93463 0
M  V30 5711 C 567.816 -0.114142 -3.47112 0
M  V30 5712 C 566.77 -1.05421 -4.14814 0
M  V30 5713 C 566.096 -0.314604 -5.33774 0
M  V30 5714 C 567.396 -2.38808 -4.64508 0
M  V30 5715 H 569.09 -1.61029 -2.52408 0
M  V30 5716 H 566.636 -0.775702 -1.21321 0
M  V30 5717 H 568.589 0.148001 -4.2114 0
M  V30 5718 H 567.313 0.814755 -3.16274 0
M  V30 5719 H 565.972 -1.30128 -3.42728 0
M  V30 5720 H 565.62 0.617772 -4.99192 0
M  V30 5721 H 565.32 -0.941209 -5.80013 0
M  V30 5722 H 566.844 -0.0602747 -6.1057 0
M  V30 5723 H 568.258 -2.18424 -5.3006 0
M  V30 5724 H 566.655 -2.97069 -5.21412 0
M  V30 5725 H 567.725 -3.01067 -3.80114 0
M  V30 5726 N 569.068 1.32177 -0.85831 0
M  V30 5727 C 570.314 1.97813 -0.47346 0
M  V30 5728 C 570.669 1.66674 0.961122 0
M  V30 5729 O 569.962 0.94657 1.66585 0
M  V30 5730 C 570.156 3.51372 -0.653658 0
M  V30 5731 C 569.985 3.97433 -2.1042 0
M  V30 5732 C 568.755 4.24338 -2.74345 0
M  V30 5733 C 570.953 4.12233 -3.0752 0
M  V30 5734 N 568.935 4.56672 -4.10272 0
M  V30 5735 C 570.306 4.48146 -4.28445 0
M  V30 5736 C 572.361 3.94577 -3.03667 0
M  V30 5737 C 571.064 4.68246 -5.4602 0
M  V30 5738 C 573.09 4.15864 -4.20489 0
M  V30 5739 C 572.452 4.52098 -5.40173 0
M  V30 5740 H 568.551 0.749808 -0.222061 0
M  V30 5741 H 571.135 1.59927 -1.11047 0
M  V30 5742 H 569.306 3.88372 -0.0463267 0
M  V30 5743 H 571.038 4.03998 -0.238343 0
M  V30 5744 H 567.793 4.16544 -2.25362 0
M  V30 5745 H 568.217 4.77019 -4.80398 0
M  V30 5746 H 572.859 3.65662 -2.12252 0
M  V30 5747 H 570.577 4.96014 -6.37962 0
M  V30 5748 H 574.163 4.03702 -4.18947 0
M  V30 5749 H 573.043 4.68238 -6.29065 0
M  V30 5750 N 570.547 0.616602 1.45037 0
M  V30 5751 C 571.795 0.115103 2.01772 0
M  V30 5752 C 572.116 -1.2622 1.48639 0
M  V30 5753 O 571.386 -1.83563 0.684199 0
M  V30 5754 H 569.966 0.0395607 0.745952 0
M  V30 5755 H 572.628 0.800032 1.77723 0
M  V30 5756 H 571.724 0.0717274 3.12018 0
M  V30 5757 N 572.025 -1.5352 0.356285 0
M  V30 5758 C 573.271 -2.01414 -0.236653 0
M  V30 5759 C 573.604 -1.24339 -1.49176 0
M  V30 5760 O 572.879 -0.334496 -1.91602 0
M  V30 5761 C 573.162 -3.56059 -0.537982 0
M  V30 5762 C 573.015 -4.43835 0.730112 0
M  V30 5763 C 574.334 -4.19127 -1.34239 0
M  V30 5764 H 571.453 -0.732135 -0.0845386 0
M  V30 5765 H 574.095 -1.83854 0.479341 0
M  V30 5766 H 572.245 -3.71153 -1.14795 0
M  V30 5767 H 573.917 -4.40555 1.36782 0
M  V30 5768 H 572.16 -4.1218 1.3524 0
M  V30 5769 H 572.831 -5.49958 0.474358 0
M  V30 5770 H 575.307 -4.07809 -0.826498 0
M  V30 5771 H 574.183 -5.27378 -1.52198 0
M  V30 5772 H 574.444 -3.74581 -2.34822 0
M  V30 5773 N 573.503 -0.0852151 -1.57369 0
M  V30 5774 C 574.451 0.894856 -2.14698 0
M  V30 5775 C 575.445 1.29903 -1.08727 0
M  V30 5776 O 576.651 1.27471 -1.27088 0
M  V30 5777 H 573.026 0.306569 -0.686673 0
M  V30 5778 H 574.997 0.386542 -2.95886 0
M  V30 5779 C 573.746 2.14798 -2.73417 0
M  V30 5780 H 573.069 1.84585 -3.54638 0
M  V30 5781 H 574.509 2.81456 -3.1711 0
M  V30 5782 C 572.968 2.91546 -1.68828 0
M  V30 5783 O 573.498 3.85733 -1.12129 0
M  V30 5784 N 571.704 2.54901 -1.39549 0
M  V30 5785 H 571.251 1.7838 -1.85845 0
M  V30 5786 H 571.209 3.06553 -0.698054 0
M  V30 5787 N 574.981 1.5647 0.188427 0
M  V30 5788 C 575.913 1.91611 1.25769 0
M  V30 5789 C 576.926 0.807436 1.41366 0
M  V30 5790 O 578.115 1.08586 1.41673 0
M  V30 5791 C 575.215 2.13874 2.6289 0
M  V30 5792 C 574.388 3.45047 2.68815 0
M  V30 5793 C 573.447 3.56342 3.87178 0
M  V30 5794 O 572.473 4.29109 3.73971 0
M  V30 5795 N 573.675 2.89924 5.02916 0
M  V30 5796 H 576.44 2.8393 0.959373 0
M  V30 5797 H 574.001 1.57418 0.378306 0
M  V30 5798 H 575.993 2.18713 3.4051 0
M  V30 5799 H 574.563 1.28022 2.85183 0
M  V30 5800 H 573.783 3.52017 1.77419 0
M  V30 5801 H 575.071 4.31395 2.6977 0
M  V30 5802 H 574.469 2.30644 5.16546 0
M  V30 5803 H 573.026 3.0038 5.78459 0
M  V30 5804 N 576.459 -0.456382 1.50847 0
M  V30 5805 C 577.705 -1.20618 1.63777 0
M  V30 5806 C 578.06 -1.8936 0.340677 0
M  V30 5807 O 577.353 -1.79786 -0.662378 0
M  V30 5808 C 577.547 -2.26336 2.76599 0
M  V30 5809 C 577.376 -1.67968 4.17153 0
M  V30 5810 C 576.146 -1.47293 4.83356 0
M  V30 5811 C 578.344 -1.16643 5.00898 0
M  V30 5812 N 576.326 -0.843222 6.08081 0
M  V30 5813 C 577.697 -0.660843 6.16468 0
M  V30 5814 C 579.752 -1.05637 4.86565 0
M  V30 5815 C 578.455 -0.0560365 7.19278 0
M  V30 5816 C 580.481 -0.465485 5.89565 0
M  V30 5817 C 579.843 0.0296516 7.04394 0
M  V30 5818 H 575.942 -0.429725 0.653345 0
M  V30 5819 H 578.526 -0.505784 1.88016 0
M  V30 5820 H 576.697 -2.93785 2.54056 0
M  V30 5821 H 578.429 -2.9334 2.78808 0
M  V30 5822 H 575.184 -1.72934 4.40898 0
M  V30 5823 H 575.608 -0.546357 6.74792 0
M  V30 5824 H 580.25 -1.42508 3.98059 0
M  V30 5825 H 577.968 0.324845 8.07447 0
M  V30 5826 H 581.554 -0.382493 5.80541 0
M  V30 5827 H 580.434 0.479705 7.82731 0
M  V30 5828 N 577.937 -1.40673 -0.710563 0
M  V30 5829 C 578.885 -1.41517 -1.84596 0
M  V30 5830 C 579.879 -0.295043 -1.66811 0
M  V30 5831 O 581.085 -0.466331 -1.73854 0
M  V30 5832 H 577.46 -0.442467 -0.608052 0
M  V30 5833 H 579.431 -2.37238 -1.80999 0
M  V30 5834 C 578.18 -1.29957 -3.225 0
M  V30 5835 H 577.503 -2.15429 -3.36794 0
M  V30 5836 H 578.943 -1.34608 -4.02066 0
M  V30 5837 C 577.402 -0.0103164 -3.36898 0
M  V30 5838 O 577.932 0.950707 -3.90288 0
M  V30 5839 N 576.138 0.0608409 -2.90536 0
M  V30 5840 H 575.685 -0.721943 -2.47277 0
M  V30 5841 H 575.643 0.92292 -3.00549 0
M  V30 5842 N 579.415 0.9433 -1.26252 0
M  V30 5843 C 580.643 1.72367 -1.14443 0
M  V30 5844 C 581.058 1.86392 0.300572 0
M  V30 5845 O 580.415 1.36978 1.20596 0
M  V30 5846 C 580.466 3.13155 -1.806 0
M  V30 5847 O 580.187 2.99803 -3.19452 0
M  V30 5848 C 581.688 4.07417 -1.74717 0
M  V30 5849 H 578.908 0.539758 -0.398626 0
M  V30 5850 H 581.452 1.18268 -1.66832 0
M  V30 5851 H 579.607 3.64162 -1.32154 0
M  V30 5852 H 580.021 3.88697 -3.52158 0
M  V30 5853 H 581.495 5.03773 -2.25647 0
M  V30 5854 H 581.972 4.3337 -0.713244 0
M  V30 5855 H 582.578 3.6233 -2.22704 0
M  V30 5856 N 580.893 1.08022 1.14757 0
M  V30 5857 C 582.141 0.805913 1.85336 0
M  V30 5858 C 582.462 -0.670162 1.83122 0
M  V30 5859 O 581.732 -1.48567 1.2769 0
M  V30 5860 H 580.312 0.295138 0.686223 0
M  V30 5861 H 582.974 1.36538 1.3908 0
M  V30 5862 H 582.07 1.14655 2.90277 0
M  V30 5863 N 582.371 -1.3172 0.865308 0
M  V30 5864 C 583.618 -1.96876 0.473931 0
M  V30 5865 C 583.946 -1.68425 -0.972786 0
M  V30 5866 O 583.201 -0.970742 -1.69927 0
M  V30 5867 C 583.5 -3.5102 0.672283 0
M  V30 5868 C 583.166 -3.9948 2.09108 0
M  V30 5869 C 581.828 -4.12425 2.4791 0
M  V30 5870 C 584.18 -4.2503 3.0166 0
M  V30 5871 C 581.508 -4.48267 3.78515 0
M  V30 5872 C 583.86 -4.62335 4.31774 0
M  V30 5873 C 582.524 -4.73486 4.70497 0
M  V30 5874 H 581.794 -0.72042 0.173424 0
M  V30 5875 H 584.441 -1.56937 1.0974 0
M  V30 5876 H 582.746 -3.91785 -0.034356 0
M  V30 5877 H 584.443 -3.99475 0.349353 0
M  V30 5878 H 581.033 -3.89898 1.77981 0
M  V30 5879 H 585.217 -4.14529 2.7291 0
M  V30 5880 H 580.473 -4.55097 4.08285 0
M  V30 5881 H 584.647 -4.81058 5.03543 0
M  V30 5882 H 582.274 -5.01016 5.71741 0
M  V30 5883 N 583.85 -0.624285 -1.44708 0
M  V30 5884 C 585.077 -0.132919 -2.06473 0
M  V30 5885 C 585.493 1.18967 -1.46602 0
M  V30 5886 O 584.85 1.72824 -0.586341 0
M  V30 5887 C 584.901 -0.00465418 -3.615 0
M  V30 5888 O 584.622 -1.27494 -4.19138 0
M  V30 5889 C 586.123 0.516213 -4.40284 0
M  V30 5890 H 583.343 -0.0765201 -0.666623 0
M  V30 5891 H 585.887 -0.856751 -1.85688 0
M  V30 5892 H 584.042 0.669583 -3.8157 0
M  V30 5893 H 584.456 -1.11536 -5.12504 0
M  V30 5894 H 585.93 0.554994 -5.49203 0
M  V30 5895 H 586.407 1.5419 -4.11245 0
M  V30 5896 H 587.013 -0.124542 -4.25118 0
M  V30 5897 N 585.328 1.53329 -0.364422 0
M  V30 5898 C 586.291 2.24323 0.470292 0
M  V30 5899 C 587.291 1.25068 1.01067 0
M  V30 5900 O 588.481 1.49354 0.896605 0
M  V30 5901 C 585.613 2.97908 1.65722 0
M  V30 5902 H 586.806 2.9952 -0.150917 0
M  V30 5903 H 584.359 1.55868 -0.116092 0
M  V30 5904 H 585.094 2.2695 2.31655 0
M  V30 5905 H 584.879 3.70732 1.27671 0
M  V30 5906 H 586.369 3.5188 2.24878 0
M  V30 5907 N 586.806 0.0935595 1.57322 0
M  V30 5908 C 587.754 -0.883457 2.15169 0
M  V30 5909 C 588.748 -1.29324 1.09415 0
M  V30 5910 O 589.954 -1.26795 1.27762 0
M  V30 5911 H 586.329 -0.302923 0.688289 0
M  V30 5912 H 588.3 -0.370845 2.96087 0
M  V30 5913 C 587.049 -2.13345 2.74552 0
M  V30 5914 H 586.372 -1.82702 3.55612 0
M  V30 5915 H 587.812 -2.7977 3.18598 0
M  V30 5916 C 586.271 -2.90646 1.70371 0
M  V30 5917 O 586.801 -3.85133 1.14173 0
M  V30 5918 N 585.007 -2.54157 1.40899 0
M  V30 5919 H 584.554 -1.77391 1.86789 0
M  V30 5920 H 584.512 -3.06178 0.714301 0
M  V30 5921 N 588.284 -1.56567 -0.180126 0
M  V30 5922 C 589.53 -1.81761 -0.899497 0
M  V30 5923 C 589.863 -0.670015 -1.82276 0
M  V30 5924 O 589.138 0.328575 -1.91705 0
M  V30 5925 C 589.421 -3.17296 -1.7028 0
M  V30 5926 C 589.274 -4.4257 -0.803255 0
M  V30 5927 C 590.593 -3.49678 -2.67233 0
M  V30 5928 H 587.712 -0.661192 -0.325567 0
M  V30 5929 H 590.354 -1.89272 -0.16612 0
M  V30 5930 H 588.504 -3.11023 -2.32802 0
M  V30 5931 H 590.176 -4.60902 -0.191585 0
M  V30 5932 H 588.419 -4.33658 -0.110796 0
M  V30 5933 H 589.09 -5.33935 -1.40064 0
M  V30 5934 H 591.566 -3.56347 -2.14839 0
M  V30 5935 H 590.442 -4.45605 -3.20511 0
M  V30 5936 H 590.703 -2.73932 -3.47007 0
M  V30 5937 N 589.762 0.448376 -1.51087 0
M  V30 5938 C 590.99 1.22143 -1.66999 0
M  V30 5939 C 591.405 1.85283 -0.362699 0
M  V30 5940 O 590.762 1.70236 0.65772 0
M  V30 5941 C 590.813 2.31357 -2.7777 0
M  V30 5942 O 590.534 1.70801 -4.03434 0
M  V30 5943 C 592.035 3.21836 -3.04855 0
M  V30 5944 H 589.255 0.368558 -0.560719 0
M  V30 5945 H 591.799 0.532618 -1.97442 0
M  V30 5946 H 589.954 2.95973 -2.49958 0
M  V30 5947 H 590.368 2.42895 -4.64868 0
M  V30 5948 H 591.842 3.94627 -3.85971 0
M  V30 5949 H 592.319 3.81949 -2.16821 0
M  V30 5950 H 592.925 2.62933 -3.34285 0
M  V30 5951 N 591.24 1.41047 0.703093 0
M  V30 5952 C 592.486 1.40207 1.46526 0
M  V30 5953 C 592.819 0.00847763 1.94198 0
M  V30 5954 O 592.094 -0.962437 1.69019 0
M  V30 5955 C 592.377 2.40238 2.6825 0
M  V30 5956 C 592.23 3.88674 2.26391 0
M  V30 5957 C 593.549 2.37627 3.70434 0
M  V30 5958 H 590.668 0.510594 0.531472 0
M  V30 5959 H 593.31 1.72271 0.801422 0
M  V30 5960 H 591.46 2.13026 3.24888 0
M  V30 5961 H 593.132 4.2676 1.75138 0
M  V30 5962 H 591.375 4.03903 1.58255 0
M  V30 5963 H 592.046 4.542 3.13698 0
M  V30 5964 H 594.522 2.61759 3.23452 0
M  V30 5965 H 593.398 3.09645 4.53223 0
M  V30 5966 H 593.659 1.39223 4.19606 0
M  V30 5967 N 592.718 -0.936591 1.26751 0
M  V30 5968 C 593.665 -2.03597 1.08706 0
M  V30 5969 C 594.635 -1.66097 -0.00926542 0
M  V30 5970 O 595.82 -1.90199 0.151377 0
M  V30 5971 C 592.96 -3.3727 0.73094 0
M  V30 5972 C 592.073 -3.87778 1.90399 0
M  V30 5973 C 591.208 -5.09859 1.49056 0
M  V30 5974 C 590.247 -5.5264 2.63164 0
M  V30 5975 N 589.384 -6.65921 2.22471 0
M  V30 5976 H 594.224 -2.18364 2.02784 0
M  V30 5977 H 591.761 -1.06985 1.00958 0
M  V30 5978 H 593.719 -4.14128 0.505328 0
M  V30 5979 H 592.349 -3.22337 -0.172868 0
M  V30 5980 H 591.401 -3.07279 2.2424 0
M  V30 5981 H 592.713 -4.15464 2.76028 0
M  V30 5982 H 591.867 -5.9419 1.22567 0
M  V30 5983 H 590.606 -4.8393 0.60524 0
M  V30 5984 H 589.611 -4.66863 2.90377 0
M  V30 5985 H 590.836 -5.80568 3.52303 0
M  V30 5986 H 588.782 -6.41667 1.36379 0
M  V30 5987 H 588.699 -6.93216 3.01641 0
M  V30 5988 H 589.967 -7.53616 1.99205 0
M  V30 5989 N 594.196 -1.08629 -1.14182 0
M  V30 5990 C 595.144 -0.71284 -2.21408 0
M  V30 5991 C 596.138 0.282457 -1.67029 0
M  V30 5992 O 597.344 0.144783 -1.79417 0
M  V30 5993 H 593.719 -0.212497 -0.721352 0
M  V30 5994 H 595.69 -1.6265 -2.50175 0
M  V30 5995 C 594.439 -0.140704 -3.47415 0
M  V30 5996 H 593.762 -0.897739 -3.8959 0
M  V30 5997 H 595.202 0.0827677 -4.23919 0
M  V30 5998 C 593.661 1.122 -3.17668 0
M  V30 5999 O 594.191 2.20652 -3.35672 0
M  V30 6000 N 592.397 1.03328 -2.71609 0
M  V30 6001 H 591.944 0.150666 -2.57159 0
M  V30 6002 H 591.902 1.8789 -2.52081 0
M  V30 6003 N 595.674 1.31259 -0.872281 0
M  V30 6004 C 596.902 2.00795 -0.498907 0
M  V30 6005 C 597.317 1.65464 0.909238 0
M  V30 6006 O 596.674 0.885073 1.59602 0
M  V30 6007 C 596.725 3.55625 -0.649092 0
M  V30 6008 O 596.446 3.89692 -2.00179 0
M  V30 6009 C 597.947 4.42434 -0.277034 0
M  V30 6010 H 595.167 0.642299 -0.194145 0
M  V30 6011 H 597.711 1.67438 -1.17408 0
M  V30 6012 H 595.866 3.87394 -0.0214402 0
M  V30 6013 H 596.28 4.84407 -2.01122 0
M  V30 6014 H 597.754 5.50299 -0.433064 0
M  V30 6015 H 598.231 4.32146 0.783989 0
M  V30 6016 H 598.837 4.16086 -0.880483 0
M  V30 6017 N 597.152 0.631951 1.44375 0
M  V30 6018 C 598.377 0.142146 2.06912 0
M  V30 6019 C 598.802 -1.17456 1.4692 0
M  V30 6020 O 598.16 -1.72074 0.570975 0
M  V30 6021 C 598.208 0.0417952 3.60576 0
M  V30 6022 O 597.312 -1.00194 4.00044 0
M  V30 6023 H 596.653 0.0851491 0.658518 0
M  V30 6024 H 599.183 0.868863 1.85235 0
M  V30 6025 H 599.193 -0.148517 4.0773 0
M  V30 6026 H 597.868 1.0031 4.03622 0
M  V30 6027 H 596.445 -0.786131 3.64519 0
M  V30 6028 N 598.631 -1.53133 0.372548 0
M  V30 6029 C 599.856 -2.0625 -0.218098 0
M  V30 6030 C 600.281 -1.24375 -1.41111 0
M  V30 6031 O 599.639 -0.264554 -1.79359 0
M  V30 6032 C 599.687 -3.55858 -0.582876 0
M  V30 6033 O 598.791 -3.76667 -1.67917 0
M  V30 6034 H 598.132 -0.663317 -0.030104 0
M  V30 6035 H 600.662 -1.97477 0.535169 0
M  V30 6036 H 600.672 -3.99007 -0.851925 0
M  V30 6037 H 599.347 -4.14892 0.289428 0
M  V30 6038 H 597.924 -3.45413 -1.40513 0
M  V30 6039 N 600.109 -0.101901 -1.5727 0
M  V30 6040 C 601.072 0.840129 -2.13247 0
M  V30 6041 C 602.072 1.20625 -1.06331 0
M  V30 6042 O 603.262 1.13456 -1.32186 0
M  V30 6043 C 600.394 2.13372 -2.65867 0
M  V30 6044 H 601.587 0.353945 -2.97804 0
M  V30 6045 H 599.14 0.147167 -1.55606 0
M  V30 6046 H 599.875 2.66461 -1.84849 0
M  V30 6047 H 599.66 1.88085 -3.44044 0
M  V30 6048 H 601.15 2.80748 -3.09145 0
M  V30 6049 N 601.587 1.56661 0.17182 0
M  V30 6050 C 602.998 1.71652 0.734329 0
M  V30 6051 C 603.349 0.712335 1.82812 0
M  V30 6052 O 602.474 -0.126401 2.16031 0
M  V30 6053 C 603.069 3.11226 1.3388 0
M  V30 6054 C 601.628 3.27904 1.84813 0
M  V30 6055 C 600.775 2.67603 0.726917 0
M  V30 6056 H 603.726 1.5861 -0.0535665 0
M  V30 6057 H 603.747 3.09849 2.20849 0
M  V30 6058 H 603.259 3.8429 0.54249 0
M  V30 6059 H 601.36 2.59796 2.6709 0
M  V30 6060 H 601.473 4.35637 1.99392 0
M  V30 6061 H 599.837 2.274 1.14723 0
M  V30 6062 H 600.62 3.43252 -0.0575334 0
M  V30 6063 N 603.065 -0.440357 1.51323 0
M  V30 6064 C 604.311 -1.19181 1.64085 0
M  V30 6065 C 604.644 -1.90936 0.354575 0
M  V30 6066 O 603.919 -1.8347 -0.645675 0
M  V30 6067 C 604.202 -2.2112 2.84215 0
M  V30 6068 C 604.055 -1.53468 4.22809 0
M  V30 6069 C 605.374 -3.22133 2.99864 0
M  V30 6070 H 602.493 -0.431924 0.597169 0
M  V30 6071 H 605.135 -0.481443 1.83799 0
M  V30 6072 H 603.285 -2.81703 2.67537 0
M  V30 6073 H 604.957 -0.962455 4.51148 0
M  V30 6074 H 603.2 -0.837086 4.25647 0
M  V30 6075 H 603.871 -2.27694 5.02852 0
M  V30 6076 H 606.347 -2.71601 3.15233 0
M  V30 6077 H 605.223 -3.90756 3.85488 0
M  V30 6078 H 605.484 -3.88061 2.11804 0
M  V30 6079 N 604.543 -1.41418 -0.695603 0
M  V30 6080 C 605.82 -1.31264 -1.45014 0
M  V30 6081 C 606.2 0.0597994 -2.11015 0
M  V30 6082 O 605.548 1.07403 -2.01685 0
M  V30 6083 C 605.758 -2.466 -2.4696 0
M  V30 6084 C 607.106 -2.87763 -3.12214 0
M  V30 6085 O 608.13 -2.46339 -2.57285 0
M  V30 6086 O 606.989 -3.59395 -4.11701 0
M  V30 6087 H 604.083 -0.516576 -0.645816 0
M  V30 6088 H 606.629 -1.53382 -0.726084 0
M  V30 6089 H 605.401 -3.38183 -1.96845 0
M  V30 6090 H 605.024 -2.26358 -3.26876 0
M  V30 6091 N 606.021 0.929856 -1.27246 0
M  V30 6092 C 607.269 1.674 -1.13233 0
M  V30 6093 C 607.59 1.92311 0.322744 0
M  V30 6094 O 606.86 1.52784 1.22612 0
M  V30 6095 H 605.44 0.620411 -0.416052 0
M  V30 6096 H 608.102 1.11663 -1.59741 0
M  V30 6097 H 607.198 2.64308 -1.65975 0
M  V30 6098 N 607.499 1.09233 1.13605 0
M  V30 6099 C 608.745 0.838255 1.85324 0
M  V30 6100 C 609.1 -0.629314 1.81817 0
M  V30 6101 O 608.393 -1.45729 1.24393 0
M  V30 6102 C 608.587 1.305 3.32723 0
M  V30 6103 C 608.416 2.81641 3.50583 0
M  V30 6104 C 607.186 3.49494 3.64941 0
M  V30 6105 C 609.384 3.79789 3.46792 0
M  V30 6106 N 607.366 4.89082 3.71042 0
M  V30 6107 C 608.737 5.05319 3.59239 0
M  V30 6108 C 610.792 3.72673 3.30181 0
M  V30 6109 C 609.495 6.24574 3.56791 0
M  V30 6110 C 611.521 4.91413 3.29039 0
M  V30 6111 C 610.883 6.15785 3.42035 0
M  V30 6112 H 606.982 0.359572 0.69443 0
M  V30 6113 H 609.566 1.39232 1.36098 0
M  V30 6114 H 607.737 0.778411 3.8052 0
M  V30 6115 H 609.469 0.996465 3.92241 0
M  V30 6116 H 606.224 2.9992 3.66531 0
M  V30 6117 H 606.648 5.61787 3.77789 0
M  V30 6118 H 611.29 2.77444 3.19037 0
M  V30 6119 H 609.008 7.20105 3.66708 0
M  V30 6120 H 612.594 4.87604 3.17386 0
M  V30 6121 H 611.474 7.06126 3.41111 0
M  V30 6122 N 608.977 -1.30795 0.87923 0
M  V30 6123 C 610.205 -2.00527 0.509548 0
M  V30 6124 C 610.62 -1.65944 -0.90045 0
M  V30 6125 O 609.977 -0.893525 -1.5913 0
M  V30 6126 C 610.028 -3.55276 0.667943 0
M  V30 6127 O 609.749 -3.88625 2.02242 0
M  V30 6128 C 611.25 -4.4228 0.300494 0
M  V30 6129 H 608.47 -0.641261 0.197549 0
M  V30 6130 H 611.014 -1.66813 1.18295 0
M  V30 6131 H 609.169 -3.87377 0.0419843 0
M  V30 6132 H 609.583 -4.83334 2.03688 0
M  V30 6133 H 611.057 -5.50061 0.462242 0
M  V30 6134 H 611.534 -4.32556 -0.76106 0
M  V30 6135 H 612.14 -4.15613 0.902536 0
M  V30 6136 N 610.455 -0.639598 -1.44038 0
M  V30 6137 C 611.385 0.0469443 -2.33453 0
M  V30 6138 C 612.366 0.82609 -1.48694 0
M  V30 6139 O 613.551 0.790285 -1.77393 0
M  V30 6140 C 610.681 1.02338 -3.3188 0
M  V30 6141 C 609.635 0.355284 -4.26523 0
M  V30 6142 C 608.961 1.44221 -5.14883 0
M  V30 6143 C 610.261 -0.743798 -5.16977 0
M  V30 6144 H 611.955 -0.699735 -2.91108 0
M  V30 6145 H 609.501 -0.337946 -1.39978 0
M  V30 6146 H 611.454 1.51247 -3.93322 0
M  V30 6147 H 610.178 1.80105 -2.72451 0
M  V30 6148 H 608.837 -0.113239 -3.66425 0
M  V30 6149 H 608.485 2.21097 -4.51802 0
M  V30 6150 H 608.185 1.00052 -5.79019 0
M  V30 6151 H 609.709 1.93295 -5.79197 0
M  V30 6152 H 611.123 -0.337444 -5.72306 0
M  V30 6153 H 609.52 -1.10914 -5.89761 0
M  V30 6154 H 610.59 -1.60745 -4.57481 0
M  V30 6155 N 611.933 1.52934 -0.380664 0
M  V30 6156 C 613.161 2.05886 0.204599 0
M  V30 6157 C 613.576 1.25305 1.41223 0
M  V30 6158 O 612.933 0.297504 1.80059 0
M  V30 6159 C 612.984 3.56764 0.583249 0
M  V30 6160 O 612.705 4.34292 -0.576398 0
M  V30 6161 C 614.206 4.2603 1.2253 0
M  V30 6162 H 611.426 0.670193 0.0328991 0
M  V30 6163 H 613.97 1.97148 -0.543397 0
M  V30 6164 H 612.125 3.65603 1.28115 0
M  V30 6165 H 612.539 5.23819 -0.267119 0
M  V30 6166 H 614.013 5.32868 1.44068 0
M  V30 6167 H 614.49 3.80698 2.19011 0
M  V30 6168 H 615.096 4.21485 0.568407 0
M  V30 6169 N 613.412 0.11024 1.57214 0
M  V30 6170 C 614.659 -0.54987 1.94891 0
M  V30 6171 C 614.987 -1.67243 0.992984 0
M  V30 6172 O 614.242 -1.95694 0.0152703 0
M  V30 6173 C 614.541 -1.13102 3.39032 0
M  V30 6174 C 614.207 -0.130713 4.5071 0
M  V30 6175 C 612.869 0.14437 4.80983 0
M  V30 6176 C 615.221 0.551472 5.18274 0
M  V30 6177 C 612.549 1.10807 5.76141 0
M  V30 6178 C 614.901 1.50375 6.14467 0
M  V30 6179 C 613.565 1.78691 6.43138 0
M  V30 6180 H 612.835 -0.201212 0.713158 0
M  V30 6181 H 615.482 0.189288 1.90562 0
M  V30 6182 H 613.787 -1.94675 3.40013 0
M  V30 6183 H 615.484 -1.64973 3.65493 0
M  V30 6184 H 612.074 -0.355301 4.27125 0
M  V30 6185 H 616.258 0.35211 4.95049 0
M  V30 6186 H 611.514 1.3343 5.96663 0
M  V30 6187 H 615.688 2.03808 6.65909 0
M  V30 6188 H 613.315 2.53522 7.1668 0
M  V30 6189 N 614.89 -1.56749 -0.16351 0
M  V30 6190 C 616.115 -1.86938 -0.898264 0
M  V30 6191 C 616.54 -0.697456 -1.74692 0
M  V30 6192 O 615.898 0.353327 -1.77824 0
M  V30 6193 C 615.946 -3.15599 -1.74441 0
M  V30 6194 O 615.05 -2.98371 -2.8469 0
M  V30 6195 H 614.391 -0.614659 -0.251178 0
M  V30 6196 H 616.921 -2.03979 -0.159298 0
M  V30 6197 H 616.931 -3.47202 -2.14277 0
M  V30 6198 H 615.606 -4.00505 -1.1211 0
M  V30 6199 H 614.183 -2.7814 -2.4838 0
M  V30 6200 N 616.368 0.432326 -1.51554 0
M  V30 6201 C 617.615 1.18134 -1.64471 0
M  V30 6202 C 617.943 1.91076 -0.363349 0
M  V30 6203 O 617.198 1.84492 0.65279 0
M  V30 6204 C 617.497 2.21907 -2.80164 0
M  V30 6205 C 617.163 1.65941 -4.19255 0
M  V30 6206 C 615.825 1.50401 -4.57092 0
M  V30 6207 C 618.177 1.24843 -5.06027 0
M  V30 6208 C 615.505 0.922443 -5.79403 0
M  V30 6209 C 617.857 0.68113 -6.28922 0
M  V30 6210 C 616.521 0.512673 -6.65528 0
M  V30 6211 H 615.791 0.432283 -0.601841 0
M  V30 6212 H 618.438 0.471701 -1.856 0
M  V30 6213 H 616.743 2.98928 -2.53277 0
M  V30 6214 H 618.44 2.79691 -2.87357 0
M  V30 6215 H 615.03 1.79014 -3.89425 0
M  V30 6216 H 619.214 1.35667 -4.77397 0
M  V30 6217 H 614.47 0.779733 -6.06408 0
M  V30 6218 H 618.644 0.35418 -6.95499 0
M  V30 6219 H 616.271 0.0599084 -7.60176 0
M  V30 6220 N 617.846 1.41785 0.688094 0
M  V30 6221 C 619.257 1.3701 1.26828 0
M  V30 6222 C 619.608 0.056835 1.96118 0
M  V30 6223 O 618.733 -0.84475 1.99231 0
M  V30 6224 C 619.328 2.48168 2.30648 0
M  V30 6225 C 617.887 2.46766 2.84224 0
M  V30 6226 C 617.034 2.27633 1.58361 0
M  V30 6227 H 619.985 1.51192 0.482351 0
M  V30 6228 H 620.006 2.17655 3.121 0
M  V30 6229 H 619.518 3.43735 1.80188 0
M  V30 6230 H 617.619 1.54978 3.3884 0
M  V30 6231 H 617.732 3.43342 3.34145 0
M  V30 6232 H 616.096 1.75648 1.84445 0
M  V30 6233 H 616.879 3.25238 1.09887 0
M  V30 6234 N 619.324 -0.923095 1.27737 0
M  V30 6235 C 620.549 -1.71054 1.17283 0
M  V30 6236 C 620.974 -1.86208 -0.266153 0
M  V30 6237 O 620.332 -1.36545 -1.1927 0
M  V30 6238 C 620.38 -3.0854 1.86642 0
M  V30 6239 O 619.484 -3.95528 1.16752 0
M  V30 6240 H 618.825 -0.524136 0.407649 0
M  V30 6241 H 621.355 -1.15487 1.6889 0
M  V30 6242 H 621.365 -3.58828 1.94182 0
M  V30 6243 H 620.04 -2.96828 2.91317 0
M  V30 6244 H 618.617 -3.53967 1.17312 0
M  V30 6245 N 620.802 -1.09834 -1.13024 0
M  V30 6246 C 622.05 -0.835297 -1.8403 0
M  V30 6247 C 622.371 0.640944 -1.84165 0
M  V30 6248 O 621.641 1.46517 -1.30037 0
M  V30 6249 H 620.221 -0.306018 -0.681441 0
M  V30 6250 H 622.883 -1.38734 -1.36891 0
M  V30 6251 H 621.979 -1.19258 -2.88416 0
M  V30 6252 N 622.28 1.30327 -0.886154 0
M  V30 6253 C 623.212 2.27079 -0.311072 0
M  V30 6254 C 624.225 1.53758 0.53502 0
M  V30 6255 O 625.414 1.74947 0.354378 0
M  V30 6256 C 622.514 3.33965 0.576228 0
M  V30 6257 C 621.687 4.36735 -0.241064 0
M  V30 6258 C 620.746 5.23028 0.576916 0
M  V30 6259 O 619.772 5.692 -0.000802231 0
M  V30 6260 N 620.974 5.49016 1.88579 0
M  V30 6261 H 623.739 2.77065 -1.14259 0
M  V30 6262 H 621.3 1.43519 -0.749258 0
M  V30 6263 H 623.292 3.88618 1.12953 0
M  V30 6264 H 621.862 2.839 1.30842 0
M  V30 6265 H 621.082 3.81932 -0.975805 0
M  V30 6266 H 622.37 5.02451 -0.801272 0
M  V30 6267 H 621.768 5.13288 2.37806 0
M  V30 6268 H 620.325 6.06539 2.38651 0
M  V30 6269 N 623.758 0.647228 1.43697 0
M  V30 6270 C 624.69 -0.0866232 2.29036 0
M  V30 6271 C 625.703 -0.793051 1.42178 0
M  V30 6272 O 626.892 -0.651807 1.66174 0
M  V30 6273 C 623.992 -1.14552 3.18953 0
M  V30 6274 C 623.165 -0.518422 4.34317 0
M  V30 6275 C 622.224 -1.4734 5.05151 0
M  V30 6276 O 621.25 -0.984312 5.60625 0
M  V30 6277 N 622.452 -2.8075 5.08094 0
M  V30 6278 H 625.217 0.645834 2.92659 0
M  V30 6279 H 622.778 0.489567 1.54321 0
M  V30 6280 H 624.77 -1.78505 3.63205 0
M  V30 6281 H 623.34 -1.78001 2.56971 0
M  V30 6282 H 622.56 0.300079 3.93056 0
M  V30 6283 H 623.848 -0.080401 5.08736 0
M  V30 6284 H 623.246 -3.23052 4.64386 0
M  V30 6285 H 621.803 -3.40022 5.56083 0
M  V30 6286 N 625.236 -1.5273 0.388769 0
M  V30 6287 C 626.482 -2.01871 -0.193877 0
M  V30 6288 C 626.815 -1.27475 -1.46505 0
M  V30 6289 O 626.09 -0.375063 -1.90849 0
M  V30 6290 C 626.373 -3.5712 -0.462336 0
M  V30 6291 C 626.226 -4.42186 0.824091 0
M  V30 6292 C 627.545 -4.21881 -1.25319 0
M  V30 6293 H 624.664 -0.733764 -0.0689899 0
M  V30 6294 H 627.306 -1.82796 0.518231 0
M  V30 6295 H 625.456 -3.73504 -1.06896 0
M  V30 6296 H 627.128 -4.37554 1.46096 0
M  V30 6297 H 625.371 -4.09219 1.43952 0
M  V30 6298 H 626.042 -5.48828 0.590905 0
M  V30 6299 H 628.518 -4.0947 -0.73981 0
M  V30 6300 H 627.394 -5.30487 -1.40977 0
M  V30 6301 H 627.655 -3.79478 -2.26824 0
M  V30 6302 N 626.714 -0.118576 -1.57153 0
M  V30 6303 C 627.942 0.54726 -1.99531 0
M  V30 6304 C 628.357 1.60251 -0.998246 0
M  V30 6305 O 627.714 1.82498 0.00893106 0
M  V30 6306 C 627.765 1.17378 -3.41913 0
M  V30 6307 O 627.486 0.160703 -4.37805 0
M  V30 6308 C 628.987 1.92297 -3.9942 0
M  V30 6309 H 626.207 0.144919 -0.655164 0
M  V30 6310 H 628.751 -0.20479 -2.03472 0
M  V30 6311 H 626.906 1.87661 -3.38913 0
M  V30 6312 H 627.32 0.61586 -5.20872 0
M  V30 6313 H 628.794 2.31462 -5.01128 0
M  V30 6314 H 629.271 2.79801 -3.38538 0
M  V30 6315 H 629.877 1.26777 -4.05965 0
M  V30 6316 N 628.193 1.56834 0.155195 0
M  V30 6317 C 629.125 1.94235 1.21677 0
M  V30 6318 C 630.138 0.83724 1.39621 0
M  V30 6319 O 631.327 1.11567 1.39338 0
M  V30 6320 C 628.427 2.19402 2.58294 0
M  V30 6321 C 627.6 3.50671 2.61436 0
M  V30 6322 C 626.659 3.64475 3.79532 0
M  V30 6323 O 625.685 4.36945 3.64784 0
M  V30 6324 N 626.887 3.00526 4.96653 0
M  V30 6325 H 629.652 2.85901 0.898932 0
M  V30 6326 H 627.213 1.58185 0.34483 0
M  V30 6327 H 629.205 2.25886 3.35794 0
M  V30 6328 H 627.775 1.34042 2.82403 0
M  V30 6329 H 626.995 3.55702 1.69912 0
M  V30 6330 H 628.283 4.3702 2.60559 0
M  V30 6331 H 627.681 2.41549 5.11538 0
M  V30 6332 H 626.238 3.12583 5.71958 0
M  V30 6333 N 629.671 -0.424282 1.51781 0
M  V30 6334 C 630.634 -1.49848 1.73431 0
M  V30 6335 C 631.634 -1.49016 0.604225 0
M  V30 6336 O 632.824 -1.50808 0.871935 0
M  V30 6337 C 629.956 -2.89332 1.80277 0
M  V30 6338 H 631.149 -1.3195 2.69312 0
M  V30 6339 H 628.702 -0.653809 1.41968 0
M  V30 6340 H 629.437 -3.12618 0.862568 0
M  V30 6341 H 629.222 -2.9134 2.62419 0
M  V30 6342 H 630.712 -3.67233 1.98821 0
M  V30 6343 N 631.149 -1.42148 -0.680565 0
M  V30 6344 C 632.395 -1.4352 -1.44131 0
M  V30 6345 C 632.75 -0.0486244 -1.92339 0
M  V30 6346 O 632.043 0.92819 -1.67616 0
M  V30 6347 C 632.237 -2.38945 -2.65782 0
M  V30 6348 C 632.066 -3.86743 -2.29477 0
M  V30 6349 C 630.836 -4.5532 -2.19115 0
M  V30 6350 C 633.034 -4.77321 -1.91491 0
M  V30 6351 N 631.016 -5.88174 -1.75853 0
M  V30 6352 C 632.387 -5.99238 -1.59103 0
M  V30 6353 C 634.442 -4.64829 -1.78432 0
M  V30 6354 C 633.145 -7.10053 -1.14968 0
M  V30 6355 C 635.171 -5.75621 -1.35702 0
M  V30 6356 C 634.533 -6.96645 -1.04234 0
M  V30 6357 H 630.632 -0.580363 -0.524121 0
M  V30 6358 H 633.216 -1.78132 -0.785939 0
M  V30 6359 H 631.387 -2.06403 -3.29017 0
M  V30 6360 H 633.119 -2.30935 -3.32342 0
M  V30 6361 H 629.874 -4.09456 -2.37998 0
M  V30 6362 H 630.298 -6.58625 -1.56661 0
M  V30 6363 H 634.94 -3.71745 -2.01409 0
M  V30 6364 H 632.658 -8.0299 -0.907365 0
M  V30 6365 H 636.244 -5.67964 -1.26126 0
M  V30 6366 H 635.124 -7.80918 -0.716707 0
M  V30 6367 N 632.627 0.916307 -1.28225 0
M  V30 6368 C 633.852 1.7043 -1.18188 0
M  V30 6369 C 634.277 1.86346 0.256274 0
M  V30 6370 O 633.635 1.37175 1.18544 0
M  V30 6371 C 633.683 3.07546 -1.88275 0
M  V30 6372 O 632.787 3.94904 -1.18848 0
M  V30 6373 H 632.128 0.521967 -0.410423 0
M  V30 6374 H 634.658 1.14589 -1.69501 0
M  V30 6375 H 634.668 3.57793 -1.96082 0
M  V30 6376 H 633.343 2.95279 -2.92887 0
M  V30 6377 H 631.92 3.53339 -1.19187 0
M  V30 6378 N 634.105 1.10431 1.1244 0
M  V30 6379 C 635.33 0.869089 1.88313 0
M  V30 6380 C 635.755 -0.574912 1.79099 0
M  V30 6381 O 635.113 -1.40496 1.14589 0
M  V30 6382 C 635.161 1.32208 3.3549 0
M  V30 6383 O 634.265 0.487092 4.09513 0
M  V30 6384 H 633.606 0.313894 0.585121 0
M  V30 6385 H 636.136 1.47111 1.42195 0
M  V30 6386 H 636.146 1.31201 3.86329 0
M  V30 6387 H 634.821 2.37364 3.41513 0
M  V30 6388 H 633.398 0.562372 3.68635 0
M  V30 6389 N 635.583 -1.29855 0.893053 0
M  V30 6390 C 636.811 -1.99976 0.530788 0
M  V30 6391 C 637.226 -1.66889 -0.882799 0
M  V30 6392 O 636.583 -0.910352 -1.58173 0
M  V30 6393 C 636.634 -3.54547 0.705587 0
M  V30 6394 O 636.355 -3.86458 2.06353 0
M  V30 6395 C 637.856 -4.41937 0.347387 0
M  V30 6396 H 635.076 -0.639129 0.204339 0
M  V30 6397 H 637.62 -1.65549 1.20057 0
M  V30 6398 H 635.775 -3.87311 0.0830685 0
M  V30 6399 H 636.189 -4.81146 2.08803 0
M  V30 6400 H 637.663 -5.4954 0.520557 0
M  V30 6401 H 638.14 -4.33339 -0.715139 0
M  V30 6402 H 638.746 -4.14633 0.946567 0
M  V30 6403 N 637.061 -0.65484 -1.43351 0
M  V30 6404 C 638.307 -0.169142 -2.02093 0
M  V30 6405 C 638.64 1.21431 -1.51553 0
M  V30 6406 O 637.915 1.81105 -0.709317 0
M  V30 6407 C 638.198 -0.181775 -3.59641 0
M  V30 6408 C 638.051 -1.59926 -4.20409 0
M  V30 6409 C 639.37 0.480945 -4.37464 0
M  V30 6410 H 636.489 -0.0629371 -0.734308 0
M  V30 6411 H 639.131 -0.835833 -1.70628 0
M  V30 6412 H 637.281 0.385918 -3.86578 0
M  V30 6413 H 638.953 -2.21766 -4.04497 0
M  V30 6414 H 637.196 -2.14605 -3.76998 0
M  V30 6415 H 637.867 -1.55994 -5.295 0
M  V30 6416 H 640.343 -0.00208273 -4.161 0
M  V30 6417 H 639.219 0.441384 -5.47122 0
M  V30 6418 H 639.48 1.55533 -4.13838 0
M  V30 6419 N 638.539 1.52521 -0.396863 0
M  V30 6420 C 639.767 2.06091 0.18275 0
M  V30 6421 C 640.182 1.26796 1.39886 0
M  V30 6422 O 639.539 0.316585 1.79733 0
M  V30 6423 C 639.59 3.57362 0.545377 0
M  V30 6424 O 639.311 4.33656 -0.622428 0
M  V30 6425 C 640.812 4.27305 1.18004 0
M  V30 6426 H 638.032 0.670504 0.025789 0
M  V30 6427 H 640.576 1.96561 -0.564276 0
M  V30 6428 H 638.731 3.66941 1.2423 0
M  V30 6429 H 639.145 5.23507 -0.322662 0
M  V30 6430 H 640.619 5.34366 1.38408 0
M  V30 6431 H 641.096 3.83 2.1496 0
M  V30 6432 H 641.702 4.22064 0.523671 0
M  V30 6433 N 640.017 0.126909 1.57088 0
M  V30 6434 C 640.949 -0.850973 2.12817 0
M  V30 6435 C 641.962 -1.22457 1.07276 0
M  V30 6436 O 643.151 -1.17215 1.34622 0
M  V30 6437 C 640.251 -2.15039 2.61938 0
M  V30 6438 C 639.424 -1.94726 3.91664 0
M  V30 6439 C 638.483 -3.0847 4.26301 0
M  V30 6440 O 637.509 -2.81038 4.94981 0
M  V30 6441 N 638.711 -4.35116 3.84259 0
M  V30 6442 H 641.476 -0.3748 2.97347 0
M  V30 6443 H 639.037 -0.0572793 1.61799 0
M  V30 6444 H 641.029 -2.90141 2.82135 0
M  V30 6445 H 639.599 -2.5398 1.82244 0
M  V30 6446 H 638.819 -1.03772 3.80296 0
M  V30 6447 H 640.107 -1.78469 4.76473 0
M  V30 6448 H 639.505 -4.60276 3.2888 0
M  V30 6449 H 638.062 -5.07064 4.09548 0
M  V30 6450 N 641.495 -1.56914 -0.146875 0
M  V30 6451 C 642.72 -1.87881 -0.878386 0
M  V30 6452 C 643.145 -0.715945 -1.73942 0
M  V30 6453 O 642.503 0.334447 -1.78189 0
M  V30 6454 C 642.551 -3.17431 -1.71084 0
M  V30 6455 O 641.655 -3.01374 -2.81509 0
M  V30 6456 H 640.996 -0.617289 -0.244644 0
M  V30 6457 H 643.526 -2.04136 -0.137654 0
M  V30 6458 H 643.536 -3.49455 -2.10582 0
M  V30 6459 H 642.211 -4.01671 -1.07856 0
M  V30 6460 H 640.788 -2.80758 -2.45416 0
M  V30 6461 N 642.974 0.416227 -1.52004 0
M  V30 6462 C 644.222 1.16153 -1.65387 0
M  V30 6463 C 644.543 1.91208 -0.382669 0
M  V30 6464 O 643.813 1.86413 0.602231 0
M  V30 6465 H 642.393 0.431765 -0.60958 0
M  V30 6466 H 645.055 0.475151 -1.89019 0
M  V30 6467 H 644.151 1.87952 -2.4916 0
M  V30 6468 N 644.452 1.42507 0.673017 0
M  V30 6469 C 645.677 1.4668 1.46627 0
M  V30 6470 C 646.102 0.080066 1.8793 0
M  V30 6471 O 645.46 -0.921879 1.56112 0
M  V30 6472 C 645.508 2.40091 2.69051 0
M  V30 6473 O 644.612 1.8735 3.67387 0
M  V30 6474 H 643.953 0.496908 0.44043 0
M  V30 6475 H 646.483 1.87215 0.825334 0
M  V30 6476 H 646.493 2.56731 3.17101 0
M  V30 6477 H 645.168 3.4084 2.3833 0
M  V30 6478 H 643.745 1.80274 3.26429 0
M  V30 6479 N 645.93 -0.909495 1.28709 0
M  V30 6480 C 646.893 -1.99399 1.13016 0
M  V30 6481 C 647.893 -1.60654 0.068536 0
M  V30 6482 O 649.083 -1.71334 0.314671 0
M  V30 6483 C 646.215 -3.33078 0.726085 0
M  V30 6484 H 647.408 -2.14751 2.09338 0
M  V30 6485 H 644.961 -1.09272 1.11756 0
M  V30 6486 H 645.696 -3.23428 -0.23771 0
M  V30 6487 H 645.481 -3.62562 1.49302 0
M  V30 6488 H 646.971 -4.12681 0.639058 0
M  V30 6489 N 647.408 -1.11026 -1.11852 0
M  V30 6490 C 648.654 -0.857729 -1.83768 0
M  V30 6491 C 648.987 0.615143 -1.842 0
M  V30 6492 O 648.262 1.45391 -1.29196 0
M  V30 6493 C 648.545 -1.41453 -3.31154 0
M  V30 6494 C 648.398 -2.95471 -3.39142 0
M  V30 6495 C 649.717 -1.0619 -4.27097 0
M  V30 6496 H 646.836 -0.313044 -0.667212 0
M  V30 6497 H 649.478 -1.37443 -1.31185 0
M  V30 6498 H 647.628 -0.975052 -3.76065 0
M  V30 6499 H 649.3 -3.4799 -3.02821 0
M  V30 6500 H 647.543 -3.31759 -2.79497 0
M  V30 6501 H 648.214 -3.29515 -4.42859 0
M  V30 6502 H 650.69 -1.44122 -3.90344 0
M  V30 6503 H 649.566 -1.47832 -5.28618 0
M  V30 6504 H 649.827 0.0278912 -4.42091 0
M  V30 6505 N 648.886 1.2938 -0.899927 0
M  V30 6506 C 650.114 1.99691 -0.541386 0
M  V30 6507 C 650.529 1.67355 0.873936 0
M  V30 6508 O 649.886 0.918728 1.57688 0
M  V30 6509 C 649.937 3.54168 -0.72438 0
M  V30 6510 O 649.658 3.85359 -2.08399 0
M  V30 6511 C 651.159 4.41746 -0.370819 0
M  V30 6512 H 648.379 0.638037 -0.207726 0
M  V30 6513 H 650.923 1.6491 -1.20934 0
M  V30 6514 H 649.078 3.87261 -0.103607 0
M  V30 6515 H 649.492 4.80032 -2.11352 0
M  V30 6516 H 650.966 5.49256 -0.549693 0
M  V30 6517 H 651.443 4.33712 0.692148 0
M  V30 6518 H 652.049 4.14125 -0.968543 0
M  V30 6519 N 650.364 0.662433 1.43002 0
M  V30 6520 C 651.61 0.179857 2.02001 0
M  V30 6521 C 651.943 -1.20625 1.52195 0
M  V30 6522 O 651.218 -1.80726 0.718911 0
M  V30 6523 C 651.501 0.200845 3.59539 0
M  V30 6524 C 651.354 1.62153 4.19555 0
M  V30 6525 C 652.673 -0.457738 4.37713 0
M  V30 6526 H 649.792 0.0668305 0.733964 0
M  V30 6527 H 652.434 0.84487 1.70182 0
M  V30 6528 H 650.584 -0.365411 3.86778 0
M  V30 6529 H 652.256 2.23908 4.03315 0
M  V30 6530 H 650.499 2.16601 3.75854 0
M  V30 6531 H 651.17 1.58799 5.28665 0
M  V30 6532 H 653.646 0.0241495 4.16093 0
M  V30 6533 H 652.522 -0.412363 5.47349 0
M  V30 6534 H 652.783 -1.53336 4.14657 0
M  V30 6535 N 651.842 -1.52309 0.404946 0
M  V30 6536 C 653.258 -1.59503 0.0556255 0
M  V30 6537 C 653.458 -1.41805 -1.43156 0
M  V30 6538 O 652.514 -1.2429 -2.19792 0
M  V30 6539 C 653.827 -2.95687 0.546801 0
M  V30 6540 C 655.375 -3.08909 0.504413 0
M  V30 6541 C 655.85 -4.47566 0.97203 0
M  V30 6542 N 657.341 -4.53795 0.928679 0
M  V30 6543 C 658.076 -5.59346 1.26174 0
M  V30 6544 N 657.572 -6.72469 1.66604 0
M  V30 6545 N 659.365 -5.49532 1.18198 0
M  V30 6546 H 651.516 -1.6206 1.37296 0
M  V30 6547 H 653.779 -0.762161 0.563751 0
M  V30 6548 H 653.485 -3.13905 1.58609 0
M  V30 6549 H 653.359 -3.77172 -0.0457905 0
M  V30 6550 H 655.746 -2.90378 -0.525819 0
M  V30 6551 H 655.827 -2.2934 1.13301 0
M  V30 6552 H 655.471 -4.6684 2.00057 0
M  V30 6553 H 655.401 -5.25625 0.320292 0
M  V30 6554 H 657.892 -3.72588 0.631369 0
M  V30 6555 H 658.205 -7.48993 1.9034 0
M  V30 6556 H 656.55 -6.73761 1.70504 0
M  V30 6557 H 659.741 -4.60038 0.865011 0
M  V30 6558 H 659.914 -6.31687 1.44485 0
M  V30 6559 N 653.32 -0.135238 -1.57019 0
M  V30 6560 C 654.268 0.826099 -2.17436 0
M  V30 6561 C 655.262 1.26378 -1.12805 0
M  V30 6562 O 656.468 1.23363 -1.31079 0
M  V30 6563 H 652.843 0.284568 -0.696078 0
M  V30 6564 H 654.814 0.292212 -2.96966 0
M  V30 6565 C 653.563 2.05991 -2.80112 0
M  V30 6566 H 652.886 1.73209 -3.60331 0
M  V30 6567 H 654.326 2.71225 -3.25903 0
M  V30 6568 C 652.785 2.86027 -1.78017 0
M  V30 6569 O 653.315 3.81971 -1.24344 0
M  V30 6570 N 651.521 2.50332 -1.47588 0
M  V30 6571 H 651.068 1.72377 -1.91426 0
M  V30 6572 H 651.026 3.04177 -0.795228 0
M  V30 6573 N 654.798 1.5699 0.138552 0
M  V30 6574 C 655.761 1.97984 1.15478 0
M  V30 6575 C 656.761 0.867416 1.35398 0
M  V30 6576 O 657.951 1.13387 1.32246 0
M  V30 6577 C 655.083 2.3031 2.51337 0
M  V30 6578 H 656.276 2.88953 0.802896 0
M  V30 6579 H 653.829 1.51555 0.382189 0
M  V30 6580 H 654.564 1.42159 2.91481 0
M  V30 6581 H 654.349 3.11425 2.38237 0
M  V30 6582 H 655.839 2.62834 3.24512 0
M  V30 6583 N 656.276 -0.40816 1.52223 0
M  V30 6584 C 657.687 -0.986929 1.58482 0
M  V30 6585 C 658.038 -1.91521 0.425917 0
M  V30 6586 O 657.163 -2.11593 -0.453593 0
M  V30 6587 C 657.758 -1.7967 2.87235 0
M  V30 6588 C 656.317 -2.32549 2.9597 0
M  V30 6589 C 655.464 -1.12558 2.53428 0
M  V30 6590 H 658.415 -0.188362 1.57578 0
M  V30 6591 H 658.436 -2.65417 2.72642 0
M  V30 6592 H 657.948 -1.12082 3.71563 0
M  V30 6593 H 656.049 -3.03505 2.16137 0
M  V30 6594 H 656.162 -2.63348 4.00231 0
M  V30 6595 H 654.526 -1.47984 2.07299 0
M  V30 6596 H 655.309 -0.465351 3.40131 0
M  V30 6597 N 657.755 -1.42862 -0.66545 0
M  V30 6598 C 659.001 -1.4504 -1.426 0
M  V30 6599 C 659.356 -0.0690217 -1.92276 0
M  V30 6600 O 658.649 0.91036 -1.68591 0
M  V30 6601 C 658.843 -2.4175 -2.63233 0
M  V30 6602 C 658.672 -3.89155 -2.25362 0
M  V30 6603 C 657.442 -4.57619 -2.14273 0
M  V30 6604 C 659.64 -4.79326 -1.86417 0
M  V30 6605 N 657.622 -5.90006 -1.69604 0
M  V30 6606 C 658.993 -6.00892 -1.52738 0
M  V30 6607 C 661.048 -4.66696 -1.73492 0
M  V30 6608 C 659.751 -7.11232 -1.0743 0
M  V30 6609 C 661.777 -5.77027 -1.29589 0
M  V30 6610 C 661.139 -6.97712 -0.968393 0
M  V30 6611 H 657.238 -0.585889 -0.517936 0
M  V30 6612 H 659.822 -1.78956 -0.767002 0
M  V30 6613 H 657.993 -2.09881 -3.26809 0
M  V30 6614 H 659.725 -2.34447 -3.29874 0
M  V30 6615 H 656.48 -4.11957 -2.33641 0
M  V30 6616 H 656.904 -6.60249 -1.49666 0
M  V30 6617 H 661.546 -3.7386 -1.97455 0
M  V30 6618 H 659.264 -8.03907 -0.822147 0
M  V30 6619 H 662.85 -5.6927 -1.20095 0
M  V30 6620 H 661.73 -7.81634 -0.63384 0
M  V30 6621 N 659.233 0.902656 -1.29189 0
M  V30 6622 C 660.181 2.0278 -1.13943 0
M  V30 6623 C 661.175 1.69308 -0.055787 0
M  V30 6624 O 662.381 1.78707 -0.215371 0
M  V30 6625 H 658.756 0.664595 -0.351877 0
M  V30 6626 H 660.727 2.12778 -2.09208 0
M  V30 6627 C 659.476 3.37657 -0.82966 0
M  V30 6628 H 658.799 3.63913 -1.65551 0
M  V30 6629 H 660.239 4.17078 -0.762998 0
M  V30 6630 C 658.698 3.33648 0.466991 0
M  V30 6631 O 659.228 3.72886 1.49395 0
M  V30 6632 N 657.434 2.86745 0.471761 0
M  V30 6633 H 656.981 2.55009 -0.364406 0
M  V30 6634 H 656.939 2.84446 1.33933 0
M  V30 6635 N 660.711 1.11618 1.11262 0
M  V30 6636 C 661.959 0.864469 1.82678 0
M  V30 6637 C 662.28 -0.611564 1.85162 0
M  V30 6638 O 661.55 -1.44429 1.32352 0
M  V30 6639 H 660.13 0.316821 0.676486 0
M  V30 6640 H 662.792 1.40894 1.34666 0
M  V30 6641 H 661.888 1.23832 2.86482 0
M  V30 6642 N 662.189 -1.289 0.906776 0
M  V30 6643 C 663.414 -1.99939 0.551303 0
M  V30 6644 C 663.839 -1.67366 -0.858496 0
M  V30 6645 O 663.197 -0.902176 -1.57259 0
M  V30 6646 C 663.245 -3.52523 0.758937 0
M  V30 6647 O 662.349 -4.11983 -0.185308 0
M  V30 6648 H 661.69 -0.628376 0.214568 0
M  V30 6649 H 664.22 -1.64225 1.2203 0
M  V30 6650 H 664.23 -4.02522 0.666329 0
M  V30 6651 H 662.905 -3.75566 1.78671 0
M  V30 6652 H 661.482 -3.72873 -0.0445577 0
M  V30 6653 N 663.667 -0.670007 -1.42649 0
M  V30 6654 C 664.916 -0.187526 -2.00826 0
M  V30 6655 C 665.229 1.21142 -1.53571 0
M  V30 6656 O 666.435 1.79001 -2.04134 0
M  V30 6657 C 664.891 -0.284409 -3.58774 0
M  V30 6658 C 664.499 -1.6871 -4.15019 0
M  V30 6659 C 666.243 0.139605 -4.2427 0
M  V30 6660 C 664.15 -1.73701 -5.65316 0
M  V30 6661 H 663.08 -0.0663468 -0.751075 0
M  V30 6662 H 665.731 -0.834492 -1.63427 0
M  V30 6663 H 664.113 0.430364 -3.93655 0
M  V30 6664 H 665.287 -2.42857 -3.91608 0
M  V30 6665 H 663.602 -2.05855 -3.61957 0
M  V30 6666 H 666.199 0.122398 -5.3456 0
M  V30 6667 H 666.542 1.17403 -3.99402 0
M  V30 6668 H 667.075 -0.523995 -3.94334 0
M  V30 6669 H 663.814 -2.75109 -5.94975 0
M  V30 6670 H 663.334 -1.03903 -5.90732 0
M  V30 6671 H 665.013 -1.48829 -6.2965 0
M  V30 6672 N 665.145 1.52092 -0.413018 0
M  V30 6673 C 666.556 1.86617 0.0556967 0
M  V30 6674 C 666.907 1.33156 1.44097 0
M  V30 6675 O 666.032 0.672417 2.05688 0
M  V30 6676 C 666.627 3.38628 0.107844 0
M  V30 6677 C 665.186 3.72778 0.520904 0
M  V30 6678 C 664.333 2.75649 -0.302109 0
M  V30 6679 H 667.284 1.45663 -0.629919 0
M  V30 6680 H 667.305 3.69152 0.922324 0
M  V30 6681 H 666.817 3.77508 -0.900506 0
M  V30 6682 H 664.918 3.39478 1.53575 0
M  V30 6683 H 665.031 4.7838 0.262591 0
M  V30 6684 H 663.395 2.53603 0.236115 0
M  V30 6685 H 664.178 3.17369 -1.30888 0
M  V30 6686 N 666.623 0.143563 1.56945 0
M  V30 6687 C 667.586 -0.783295 2.154 0
M  V30 6688 C 668.586 -1.17763 1.09492 0
M  V30 6689 O 669.776 -1.09912 1.35148 0
M  V30 6690 C 666.908 -2.06248 2.7143 0
M  V30 6691 H 668.101 -0.274863 2.98638 0
M  V30 6692 H 665.654 -0.105859 1.55941 0
M  V30 6693 H 666.389 -2.61466 1.91849 0
M  V30 6694 H 666.174 -1.78897 3.4891 0
M  V30 6695 H 667.664 -2.72453 3.16479 0
M  V30 6696 N 668.101 -1.57061 -0.130224 0
M  V30 6697 C 669.349 -1.83893 -0.838313 0
M  V30 6698 C 669.67 -0.727046 -1.80939 0
M  V30 6699 O 668.94 0.249927 -1.94299 0
M  V30 6700 H 667.52 -0.67846 -0.312573 0
M  V30 6701 H 670.182 -1.94529 -0.120224 0
M  V30 6702 H 669.278 -2.79419 -1.39038 0
M  V30 6703 N 669.579 0.400081 -1.52437 0
M  V30 6704 C 670.827 1.14392 -1.6661 0
M  V30 6705 C 671.148 1.90792 -0.402927 0
M  V30 6706 O 670.418 1.87042 0.582425 0
M  V30 6707 H 668.998 0.425275 -0.614125 0
M  V30 6708 H 671.66 0.455076 -1.89513 0
M  V30 6709 H 670.756 1.85298 -2.51139 0
M  V30 6710 N 671.057 1.43213 0.657864 0
M  V30 6711 C 672.285 1.48015 1.44566 0
M  V30 6712 C 672.7 0.0965951 1.88553 0
M  V30 6713 O 672.057 -0.892221 1.59203 0
M  V30 6714 C 672.108 2.42199 2.68369 0
M  V30 6715 O 671.829 3.75173 2.26223 0
M  V30 6716 C 673.33 2.56195 3.61772 0
M  V30 6717 H 670.55 0.502861 0.444266 0
M  V30 6718 H 673.094 1.87907 0.806917 0
M  V30 6719 H 671.249 2.05514 3.28394 0
M  V30 6720 H 671.663 4.25776 3.06293 0
M  V30 6721 H 673.137 3.26182 4.4532 0
M  V30 6722 H 673.614 1.60534 4.0881 0
M  V30 6723 H 674.22 2.93671 3.07632 0
M  V30 6724 N 672.536 -0.895792 1.29666 0
M  V30 6725 C 673.499 -1.98189 1.15124 0
M  V30 6726 C 674.499 -1.60572 0.0855717 0
M  V30 6727 O 675.689 -1.70991 0.332826 0
M  V30 6728 C 672.821 -3.32289 0.761372 0
M  V30 6729 H 674.014 -2.12518 2.11603 0
M  V30 6730 H 671.567 -1.0808 1.12908 0
M  V30 6731 H 672.302 -3.23662 -0.203393 0
M  V30 6732 H 672.087 -3.60958 1.53139 0
M  V30 6733 H 673.577 -4.1198 0.682792 0
M  V30 6734 N 674.014 -1.12206 -1.10668 0
M  V30 6735 C 674.946 -0.74552 -2.16736 0
M  V30 6736 C 675.959 0.226696 -1.61214 0
M  V30 6737 O 677.148 0.0083936 -1.78498 0
M  V30 6738 C 674.248 -0.0823368 -3.388 0
M  V30 6739 C 673.421 -1.08341 -4.2377 0
M  V30 6740 C 672.48 -0.448292 -5.24287 0
M  V30 6741 O 671.506 -1.10458 -5.58379 0
M  V30 6742 N 672.708 0.785336 -5.75163 0
M  V30 6743 H 675.473 -1.65818 -2.49649 0
M  V30 6744 H 673.034 -1.01335 -1.26265 0
M  V30 6745 H 675.026 0.354476 -4.03145 0
M  V30 6746 H 673.596 0.733041 -3.03884 0
M  V30 6747 H 672.816 -1.69792 -3.55759 0
M  V30 6748 H 674.104 -1.76042 -4.77375 0
M  V30 6749 H 673.502 1.33755 -5.4966 0
M  V30 6750 H 672.059 1.16501 -6.41304 0
M  V30 6751 N 675.492 1.28418 -0.913599 0
M  V30 6752 C 676.739 1.94981 -0.546674 0
M  V30 6753 C 677.067 1.7192 0.909606 0
M  V30 6754 O 676.322 1.03314 1.66207 0
M  V30 6755 C 676.621 3.48283 -0.802099 0
M  V30 6756 C 676.287 3.91444 -2.2379 0
M  V30 6757 C 674.949 4.02939 -2.63046 0
M  V30 6758 C 677.301 4.13542 -3.17227 0
M  V30 6759 C 674.629 4.3391 -3.94891 0
M  V30 6760 C 676.981 4.45992 -4.48636 0
M  V30 6761 C 675.645 4.55698 -4.87746 0
M  V30 6762 H 674.915 0.713487 -0.200042 0
M  V30 6763 H 677.562 1.52756 -1.15489 0
M  V30 6764 H 675.867 3.91643 -0.111076 0
M  V30 6765 H 677.564 3.97903 -0.497375 0
M  V30 6766 H 674.154 3.83024 -1.9233 0
M  V30 6767 H 678.338 4.04114 -2.88107 0
M  V30 6768 H 673.594 4.39631 -4.24894 0
M  V30 6769 H 677.768 4.62038 -5.21051 0
M  V30 6770 H 675.395 4.79451 -5.89942 0
M  V30 6771 N 676.97 0.677563 1.42291 0
M  V30 6772 C 678.218 0.200578 2.01102 0
M  V30 6773 C 678.539 -1.19803 1.53858 0
M  V30 6774 O 677.809 -1.80496 0.761439 0
M  V30 6775 H 676.389 0.0711634 0.743603 0
M  V30 6776 H 679.051 0.874691 1.7417 0
M  V30 6777 H 678.147 0.204 3.11433 0
M  V30 6778 N 678.448 -1.51871 0.421078 0
M  V30 6779 C 679.695 -2.01938 -0.15079 0
M  V30 6780 C 680.023 -1.30611 -1.44121 0
M  V30 6781 O 679.278 -0.404631 -1.91471 0
M  V30 6782 C 679.577 -3.54764 -0.433292 0
M  V30 6783 C 679.243 -4.44288 0.76936 0
M  V30 6784 C 677.905 -4.68477 1.09921 0
M  V30 6785 C 680.257 -4.96915 1.57242 0
M  V30 6786 C 677.585 -5.4254 2.2331 0
M  V30 6787 C 679.937 -5.7222 2.69716 0
M  V30 6788 C 678.601 -5.94678 3.03174 0
M  V30 6789 H 677.871 -0.738943 -0.0551781 0
M  V30 6790 H 680.518 -1.82977 0.564945 0
M  V30 6791 H 678.823 -3.71968 -1.23074 0
M  V30 6792 H 680.52 -3.91023 -0.888922 0
M  V30 6793 H 677.11 -4.25646 0.502305 0
M  V30 6794 H 681.294 -4.78125 1.3308 0
M  V30 6795 H 676.55 -5.58146 2.49565 0
M  V30 6796 H 680.724 -6.11992 3.32323 0
M  V30 6797 H 678.351 -6.51848 3.9115 0
M  V30 6798 N 679.926 -0.151884 -1.56866 0
M  V30 6799 C 680.874 0.80299 -2.183 0
M  V30 6800 C 681.868 1.25174 -1.14139 0
M  V30 6801 O 683.074 1.21966 -1.3238 0
M  V30 6802 H 679.449 0.277169 -0.699057 0
M  V30 6803 H 681.42 0.260699 -2.97259 0
M  V30 6804 C 680.169 2.03009 -2.82281 0
M  V30 6805 H 679.492 1.69377 -3.62148 0
M  V30 6806 H 680.932 2.67753 -3.28762 0
M  V30 6807 C 679.391 2.84123 -1.81041 0
M  V30 6808 O 679.921 3.8063 -1.28388 0
M  V30 6809 N 678.127 2.48753 -1.50234 0
M  V30 6810 H 677.674 1.70337 -1.93244 0
M  V30 6811 H 677.632 3.03316 -0.827445 0
M  V30 6812 N 681.404 1.57128 0.121893 0
M  V30 6813 C 682.652 1.84335 0.828548 0
M  V30 6814 C 682.973 0.736632 1.80551 0
M  V30 6815 O 682.243 -0.23962 1.94429 0
M  V30 6816 H 680.823 0.680108 0.30897 0
M  V30 6817 H 683.485 1.9459 0.109906 0
M  V30 6818 H 682.581 2.80152 1.37554 0
M  V30 6819 N 682.882 -0.391992 1.52647 0
M  V30 6820 C 684.107 -1.16312 1.71716 0
M  V30 6821 C 684.532 -1.83042 0.433279 0
M  V30 6822 O 683.89 -1.70705 -0.610707 0
M  V30 6823 C 683.938 -2.18908 2.86551 0
M  V30 6824 O 683.042 -3.2543 2.53316 0
M  V30 6825 H 682.383 -0.338743 0.571095 0
M  V30 6826 H 684.913 -0.457202 1.99426 0
M  V30 6827 H 684.923 -2.62954 3.1196 0
M  V30 6828 H 683.598 -1.69726 3.79692 0
M  V30 6829 H 682.175 -2.86543 2.38637 0
M  V30 6830 N 684.36 -1.4356 -0.65026 0
M  V30 6831 C 685.31 -1.45392 -1.75628 0
M  V30 6832 C 686.294 -0.322006 -1.57645 0
M  V30 6833 O 687.486 -0.565996 -1.67707 0
M  V30 6834 C 684.615 -1.38254 -3.1423 0
M  V30 6835 C 683.701 -2.56487 -3.3775 0
M  V30 6836 N 684.092 -3.81824 -3.31729 0
M  V30 6837 C 682.39 -2.51274 -3.6848 0
M  V30 6838 C 683.091 -4.60497 -3.55412 0
M  V30 6839 N 682.067 -3.91274 -3.77367 0
M  V30 6840 H 685.869 -2.40167 -1.69402 0
M  V30 6841 H 683.383 -1.38254 -0.852037 0
M  V30 6842 H 685.38 -1.3765 -3.9352 0
M  V30 6843 H 684.04 -0.445019 -3.21636 0
M  V30 6844 H 685.051 -4.14069 -3.11074 0
M  V30 6845 H 681.728 -1.66223 -3.82983 0
M  V30 6846 H 683.118 -5.69518 -3.5651 0
M  V30 6847 N 685.838 0.888903 -1.30139 0
M  V30 6848 C 687.066 1.67358 -1.21651 0
M  V30 6849 C 687.481 1.87499 0.221246 0
M  V30 6850 O 686.838 1.41969 1.14677 0
M  V30 6851 C 686.889 3.05213 -1.93719 0
M  V30 6852 O 686.61 2.85984 -3.31881 0
M  V30 6853 C 688.111 3.9964 -1.9184 0
M  V30 6854 H 685.331 0.522365 -0.42116 0
M  V30 6855 H 687.875 1.11086 -1.71698 0
M  V30 6856 H 686.03 3.5823 -1.4748 0
M  V30 6857 H 686.444 3.73411 -3.68327 0
M  V30 6858 H 687.918 4.93749 -2.46811 0
M  V30 6859 H 688.395 4.29955 -0.896409 0
M  V30 6860 H 689.001 3.52558 -2.37872 0
M  V30 6861 N 687.317 1.12792 1.10072 0
M  V30 6862 C 688.565 0.883796 1.81751 0
M  V30 6863 C 688.886 -0.591891 1.858 0
M  V30 6864 O 688.156 -1.43017 1.33876 0
M  V30 6865 H 686.736 0.323978 0.673088 0
M  V30 6866 H 689.398 1.42314 1.33164 0
M  V30 6867 H 688.494 1.26863 2.85153 0
M  V30 6868 N 688.795 -1.27931 0.920396 0
M  V30 6869 C 690.023 -1.98805 0.573087 0
M  V30 6870 C 690.438 -1.68724 -0.847201 0
M  V30 6871 O 689.795 -0.943699 -1.56207 0
M  V30 6872 C 689.846 -3.52971 0.780633 0
M  V30 6873 O 689.567 -3.81994 2.14504 0
M  V30 6874 C 691.068 -4.411 0.44105 0
M  V30 6875 H 688.288 -0.634651 0.21785 0
M  V30 6876 H 690.832 -1.62965 1.23542 0
M  V30 6877 H 688.987 -3.87048 0.165204 0
M  V30 6878 H 689.401 -4.76609 2.18962 0
M  V30 6879 H 690.875 -5.48312 0.637006 0
M  V30 6880 H 691.352 -4.34758 -0.62306 0
M  V30 6881 H 691.958 -4.12532 1.0343 0
M  V30 6882 N 690.273 -0.685099 -1.4193 0
M  V30 6883 C 691.221 -0.00165985 -2.326 0
M  V30 6884 C 692.215 0.779678 -1.50391 0
M  V30 6885 O 693.421 0.68648 -1.66395 0
M  V30 6886 H 689.796 0.0182616 -0.751778 0
M  V30 6887 H 691.767 -0.783592 -2.87928 0
M  V30 6888 C 690.516 0.928385 -3.35077 0
M  V30 6889 H 689.839 0.336578 -3.98381 0
M  V30 6890 H 691.279 1.37509 -4.01083 0
M  V30 6891 C 689.738 2.03964 -2.68142 0
M  V30 6892 O 690.268 3.12727 -2.5212 0
M  V30 6893 N 688.474 1.81433 -2.27003 0
M  V30 6894 H 688.021 0.929807 -2.40234 0
M  V30 6895 H 687.979 2.55973 -1.82552 0
M  V30 6896 N 691.751 1.51645 -0.429126 0
M  V30 6897 C 692.714 2.26116 0.374726 0
M  V30 6898 C 693.714 1.29242 0.956714 0
M  V30 6899 O 694.904 1.53022 0.832452 0
M  V30 6900 C 692.036 3.04669 1.52937 0
M  V30 6901 H 693.229 2.9861 -0.277818 0
M  V30 6902 H 690.782 1.55236 -0.182097 0
M  V30 6903 H 691.517 2.36571 2.21821 0
M  V30 6904 H 691.302 3.75814 1.11833 0
M  V30 6905 H 692.792 3.61102 2.09751 0
M  V30 6906 N 693.229 0.160201 1.56784 0
M  V30 6907 C 694.192 -0.760405 2.16219 0
M  V30 6908 C 695.192 -1.16595 1.10735 0
M  V30 6909 O 696.382 -1.08472 1.36306 0
M  V30 6910 C 693.514 -2.03358 2.73603 0
M  V30 6911 H 694.707 -0.243173 2.98912 0
M  V30 6912 H 692.26 -0.0893139 1.56045 0
M  V30 6913 H 692.995 -2.59416 1.94612 0
M  V30 6914 H 692.78 -1.75186 3.50788 0
M  V30 6915 H 694.27 -2.69081 3.19351 0
M  V30 6916 N 694.707 -1.5719 -0.113559 0
M  V30 6917 C 696.118 -1.74259 -0.670116 0
M  V30 6918 C 696.469 -0.779694 -1.80042 0
M  V30 6919 O 695.594 0.0461353 -2.16351 0
M  V30 6920 C 696.189 -3.15981 -1.22236 0
M  V30 6921 C 694.748 -3.34537 -1.72516 0
M  V30 6922 C 693.895 -2.70116 -0.627098 0
M  V30 6923 H 696.846 -1.58301 0.112396 0
M  V30 6924 H 696.867 -3.17832 -2.09197 0
M  V30 6925 H 696.379 -3.86038 -0.39949 0
M  V30 6926 H 694.48 -2.6953 -2.57263 0
M  V30 6927 H 694.593 -4.42737 -1.83086 0
M  V30 6928 H 692.957 -2.31501 -1.06204 0
M  V30 6929 H 693.74 -3.42802 0.184889 0
M  V30 6930 N 696.185 0.383891 -1.52853 0
M  V30 6931 C 697.413 1.1495 -1.7203 0
M  V30 6932 C 697.828 1.83578 -0.440957 0
M  V30 6933 O 697.185 1.72872 0.584925 0
M  V30 6934 C 697.236 2.19368 -2.87333 0
M  V30 6935 O 696.957 1.53536 -4.10315 0
M  V30 6936 C 698.458 3.08616 -3.18231 0
M  V30 6937 H 695.678 0.344445 -0.575846 0
M  V30 6938 H 698.222 0.448397 -1.99524 0
M  V30 6939 H 696.377 2.85105 -2.62286 0
M  V30 6940 H 696.791 2.2296 -4.74752 0
M  V30 6941 H 698.265 3.77902 -4.02361 0
M  V30 6942 H 698.742 3.72409 -2.32826 0
M  V30 6943 H 699.348 2.48518 -3.45136 0
M  V30 6944 N 697.663 1.43903 0.642637 0
M  V30 6945 C 698.626 1.49538 1.73698 0
M  V30 6946 C 699.626 0.378776 1.56275 0
M  V30 6947 O 700.816 0.64095 1.6198 0
M  V30 6948 C 697.948 1.35821 3.12675 0
M  V30 6949 H 699.141 2.47008 1.70079 0
M  V30 6950 H 696.694 1.30824 0.85526 0
M  V30 6951 H 697.429 0.393994 3.21898 0
M  V30 6952 H 697.214 2.16776 3.26727 0
M  V30 6953 H 698.704 1.4272 3.92455 0
M  V30 6954 N 699.141 -0.881989 1.30609 0
M  V30 6955 C 700.388 -1.63405 1.19604 0
M  V30 6956 C 700.716 -1.92905 -0.248574 0
M  V30 6957 O 699.971 -1.55062 -1.19391 0
M  V30 6958 C 700.27 -2.97999 1.97311 0
M  V30 6959 C 699.936 -2.88039 3.46907 0
M  V30 6960 C 698.598 -2.85029 3.877 0
M  V30 6961 C 700.95 -2.75948 4.42156 0
M  V30 6962 C 698.278 -2.67772 5.2203 0
M  V30 6963 C 700.63 -2.60228 5.76597 0
M  V30 6964 C 699.294 -2.55595 6.16626 0
M  V30 6965 H 698.564 -0.597941 0.437662 0
M  V30 6966 H 701.211 -1.02524 1.61744 0
M  V30 6967 H 699.516 -3.62847 1.47815 0
M  V30 6968 H 701.213 -3.55156 1.86186 0
M  V30 6969 H 697.803 -2.91192 3.14492 0
M  V30 6970 H 701.987 -2.77337 4.1158 0
M  V30 6971 H 697.243 -2.62601 5.52133 0
M  V30 6972 H 701.417 -2.49847 6.50038 0
M  V30 6973 H 699.044 -2.41981 7.20659 0
M  V30 6974 N 700.619 -1.13374 -1.09472 0
M  V30 6975 C 701.844 -0.918711 -1.85942 0
M  V30 6976 C 702.269 0.527225 -1.8056 0
M  V30 6977 O 701.627 1.37408 -1.18274 0
M  V30 6978 C 701.675 -1.41056 -3.31867 0
M  V30 6979 O 700.779 -0.595496 -4.08078 0
M  V30 6980 H 700.12 -0.329297 -0.576593 0
M  V30 6981 H 702.65 -1.50829 -1.38245 0
M  V30 6982 H 702.66 -1.41398 -3.82715 0
M  V30 6983 H 701.335 -2.46335 -3.35099 0
M  V30 6984 H 699.912 -0.659911 -3.67014 0
M  V30 6985 N 702.098 1.27442 -0.927168 0
M  V30 6986 C 703.028 2.29256 -0.443188 0
M  V30 6987 C 704.009 1.62701 0.49624 0
M  V30 6988 O 705.194 1.90013 0.401105 0
M  V30 6989 C 702.324 3.45955 0.305366 0
M  V30 6990 C 701.278 4.24501 -0.546178 0
M  V30 6991 C 700.604 5.33671 0.331512 0
M  V30 6992 C 701.904 4.89921 -1.81037 0
M  V30 6993 H 703.598 2.69988 -1.29409 0
M  V30 6994 H 701.144 1.29792 -0.623705 0
M  V30 6995 H 703.097 4.1628 0.654885 0
M  V30 6996 H 701.821 3.04138 1.19029 0
M  V30 6997 H 700.48 3.55921 -0.878398 0
M  V30 6998 H 700.128 4.88096 1.21537 0
M  V30 6999 H 699.828 5.87131 -0.234746 0
M  V30 7000 H 701.352 6.0684 0.676614 0
M  V30 7001 H 702.766 5.52536 -1.52895 0
M  V30 7002 H 701.163 5.53436 -2.32009 0
M  V30 7003 H 702.233 4.13652 -2.53021 0
M  V30 7004 N 703.576 0.692616 1.41565 0
M  V30 7005 C 704.524 0.0139952 2.32596 0
M  V30 7006 C 705.518 -0.771691 1.50802 0
M  V30 7007 O 706.724 -0.677646 1.66757 0
M  V30 7008 H 703.099 -0.0142745 0.751865 0
M  V30 7009 H 705.07 0.798851 2.87508 0
M  V30 7010 C 703.819 -0.910602 3.35564 0
M  V30 7011 H 703.142 -0.315446 3.98554 0
M  V30 7012 H 704.582 -1.3538 4.01806 0
M  V30 7013 C 703.041 -2.02539 2.6922 0
M  V30 7014 O 703.571 -3.11386 2.53775 0
M  V30 7015 N 701.777 -1.80227 2.27962 0
M  V30 7016 H 701.324 -0.917054 2.40724 0
M  V30 7017 H 701.282 -2.55001 1.83907 0
M  V30 7018 N 705.054 -1.51416 0.437162 0
M  V30 7019 C 706.302 -2.01687 -0.129108 0
M  V30 7020 C 706.623 -1.32329 -1.43227 0
M  V30 7021 O 705.893 -0.457796 -1.90476 0
M  V30 7022 H 704.473 -0.745277 -0.0507023 0
M  V30 7023 H 707.135 -1.86075 0.579828 0
M  V30 7024 H 706.231 -3.10605 -0.305141 0
M  V30 7025 N 706.532 -0.168513 -1.56696 0
M  V30 7026 C 707.76 0.483503 -2.01171 0
M  V30 7027 C 708.175 1.56994 -1.04872 0
M  V30 7028 O 707.532 1.82434 -0.0491337 0
M  V30 7029 C 707.583 1.0644 -3.45475 0
M  V30 7030 O 707.304 0.0213375 -4.38095 0
M  V30 7031 C 708.805 1.79493 -4.05336 0
M  V30 7032 H 706.025 0.124002 -0.659443 0
M  V30 7033 H 708.569 -0.269419 -2.02717 0
M  V30 7034 H 706.724 1.76784 -3.44712 0
M  V30 7035 H 707.138 0.449837 -5.22567 0
M  V30 7036 H 708.612 2.15401 -5.08238 0
M  V30 7037 H 709.089 2.68889 -3.47269 0
M  V30 7038 H 709.695 1.13798 -4.09793 0
M  V30 7039 N 708.01 1.57248 0.105221 0
M  V30 7040 C 709.421 1.74612 0.660865 0
M  V30 7041 C 709.772 0.789231 1.79626 0
M  V30 7042 O 708.897 -0.0346611 2.16372 0
M  V30 7043 C 709.492 3.16624 1.20559 0
M  V30 7044 C 708.051 3.35447 1.7074 0
M  V30 7045 C 707.198 2.70445 0.612764 0
M  V30 7046 H 710.149 1.5824 -0.12079 0
M  V30 7047 H 710.17 3.18937 2.07508 0
M  V30 7048 H 709.682 3.86245 0.379012 0
M  V30 7049 H 707.783 2.7089 2.5583 0
M  V30 7050 H 707.896 4.43702 1.80736 0
M  V30 7051 H 706.26 2.32061 1.04975 0
M  V30 7052 H 707.043 3.42699 -0.203066 0
M  V30 7053 N 709.488 -0.375779 1.53054 0
M  V30 7054 C 710.728 -1.12828 1.70438 0
M  V30 7055 C 711.092 -1.86854 0.441527 0
M  V30 7056 O 712.293 -2.64261 0.491908 0
M  V30 7057 C 710.564 -2.07009 2.91345 0
M  V30 7058 S 712.123 -2.89917 3.29383 0
M  V30 7059 H 708.941 -0.381736 0.599832 0
M  V30 7060 H 711.543 -0.4109 1.91133 0
M  V30 7061 H 710.247 -1.51371 3.81464 0
M  V30 7062 H 709.778 -2.83236 2.73022 0
M  V30 7063 H 711.793 -4.0924 2.80601 0
M  V30 7064 N 710.966 -1.44241 -0.634997 0
M  V30 7065 C 712.194 -1.50296 -1.42193 0
M  V30 7066 C 712.609 -0.12658 -1.88375 0
M  V30 7067 O 711.966 0.86678 -1.60603 0
M  V30 7068 C 712.017 -2.46437 -2.64482 0
M  V30 7069 O 711.738 -3.78724 -2.20226 0
M  V30 7070 C 713.239 -2.61918 -3.57651 0
M  V30 7071 H 710.459 -0.509865 -0.43621 0
M  V30 7072 H 713.003 -1.89167 -0.776921 0
M  V30 7073 H 711.158 -2.10712 -3.25083 0
M  V30 7074 H 711.572 -4.30595 -2.9948 0
M  V30 7075 H 713.046 -3.33225 -4.40074 0
M  V30 7076 H 713.523 -1.67017 -4.06204 0
M  V30 7077 H 714.129 -2.98528 -3.02921 0
M  V30 7078 N 712.444 0.87505 -1.31075 0
M  V30 7079 C 713.69 1.63009 -1.20647 0
M  V30 7080 C 714.023 1.9276 0.236045 0
M  V30 7081 O 713.298 1.55559 1.16754 0
M  V30 7082 C 713.581 2.96357 -2.0456 0
M  V30 7083 C 713.434 2.73516 -3.57084 0
M  V30 7084 C 714.753 3.974 -1.89107 0
M  V30 7085 H 711.872 0.591518 -0.439631 0
M  V30 7086 H 714.514 1.0119 -1.60812 0
M  V30 7087 H 712.664 3.49119 -1.70435 0
M  V30 7088 H 714.336 2.27465 -4.01319 0
M  V30 7089 H 712.579 2.0784 -3.80769 0
M  V30 7090 H 713.25 3.68377 -4.11099 0
M  V30 7091 H 715.726 3.5383 -2.18961 0
M  V30 7092 H 714.602 4.88596 -2.5013 0
M  V30 7093 H 714.863 4.33794 -0.85296 0
M  V30 7094 N 713.922 1.13953 1.08869 0
M  V30 7095 C 715.17 0.903023 1.80803 0
M  V30 7096 C 715.491 -0.572151 1.86417 0
M  V30 7097 O 714.761 -1.41589 1.35386 0
M  V30 7098 H 713.341 0.331099 0.669614 0
M  V30 7099 H 716.003 1.43719 1.31647 0
M  V30 7100 H 715.099 1.29881 2.83791 0
M  V30 7101 O 715.439 -1.21416 1.06491 0
M  V30 7102 H 716.13 -1.7871 0.747168 0
M  V30 END ATOM
M  V30 BEGIN BOND
M  V30 END BOND
M  V30 END CTAB
M  END
$$$$
