drugbank_target|P34932 Heat shock 70 kDa protein 4 (DB12695)
 OpenBabel12092121073D

  0  0  0     0  0            999 V3000
M  V30 BEGIN CTAB
M  V30 COUNTS 13184 13296 0 0 0
M  V30 BEGIN ATOM
M  V30 1 H -0.908 1.98254 -0.117106 0
M  V30 2 N 0 1.576 0 0
M  V30 3 C 0.933 2.03868 1.02534 0
M  V30 4 C 1.911 0.928543 1.3348 0
M  V30 5 O 3.095 1.19667 1.45644 0
M  V30 6 C 0.222 2.43627 2.35294 0
M  V30 7 C -0.732 3.65373 2.2001 0
M  V30 8 S 0.101 5.13292 1.52614 0
M  V30 9 C 1.257 5.56322 2.86805 0
M  V30 10 H 1.49 2.90518 0.631377 0
M  V30 11 H -0.977 1.52953 0.210867 0
M  V30 12 H 0.981 2.67203 3.11629 0
M  V30 13 H -0.358 1.57376 2.7183 0
M  V30 14 H -1.165 3.90944 3.18086 0
M  V30 15 H -1.563 3.418 1.51819 0
M  V30 16 H 0.729 5.58782 3.83104 0
M  V30 17 H 1.672 6.56266 2.65933 0
M  V30 18 H 2.08 4.83886 2.90714 0
M  V30 19 N 1.4781 -0.272755 1.55222 0
M  V30 20 C 2.7031 -1.02683 1.80197 0
M  V30 21 C 3.1281 -1.79142 0.573551 0
M  V30 22 O 2.4861 -1.74917 -0.476849 0
M  V30 23 C 2.5341 -1.9609 3.02624 0
M  V30 24 O 1.6381 -3.04863 2.77727 0
M  V30 25 H 0.9791 -0.293557 0.595584 0
M  V30 26 H 3.5091 -0.30159 2.02365 0
M  V30 27 H 3.5191 -2.38039 3.31363 0
M  V30 28 H 2.1941 -1.39851 3.91682 0
M  V30 29 H 0.7711 -2.67228 2.60084 0
M  V30 30 N 2.9562 -1.48159 -0.537278 0
M  V30 31 C 4.2022 -1.56035 -1.29541 0
M  V30 32 C 4.5352 -0.230377 -1.92829 0
M  V30 33 O 3.8102 0.762952 -1.78911 0
M  V30 34 C 4.0932 -2.69323 -2.39034 0
M  V30 35 C 3.9462 -4.12002 -1.80485 0
M  V30 36 C 5.2652 -2.78408 -3.40847 0
M  V30 37 H 2.3842 -0.567992 -0.469632 0
M  V30 38 H 5.0262 -1.80302 -0.599277 0
M  V30 39 H 3.1762 -2.48763 -2.98412 0
M  V30 40 H 4.8482 -4.43981 -1.25215 0
M  V30 41 H 3.0912 -4.19344 -1.11055 0
M  V30 42 H 3.7622 -4.87077 -2.59731 0
M  V30 43 H 6.2382 -2.97012 -2.91416 0
M  V30 44 H 5.1142 -3.59416 -4.14863 0
M  V30 45 H 5.3752 -1.86269 -4.00944 0
M  V30 46 N 4.4343 0.785586 -1.36625 0
M  V30 47 C 5.6803 1.54591 -1.31261 0
M  V30 48 C 6.0133 1.93906 0.106823 0
M  V30 49 O 5.2883 1.63007 1.06108 0
M  V30 50 C 5.5713 2.82038 -2.23889 0
M  V30 51 C 5.4243 2.49066 -3.74548 0
M  V30 52 C 6.7433 3.83887 -2.15217 0
M  V30 53 H 3.8623 0.560846 -0.478143 0
M  V30 54 H 6.5043 0.902278 -1.67209 0
M  V30 55 H 4.6543 3.36961 -1.93363 0
M  V30 56 H 6.3263 2.00164 -4.15611 0
M  V30 57 H 4.5693 1.81954 -3.93796 0
M  V30 58 H 5.2403 3.40109 -4.34776 0
M  V30 59 H 7.7163 3.38421 -2.42096 0
M  V30 60 H 6.5923 4.70806 -2.82193 0
M  V30 61 H 6.8533 4.27131 -1.14068 0
M  V30 62 N 5.9124 1.20967 1.01018 0
M  V30 63 C 7.1604 1.02172 1.74371 0
M  V30 64 C 7.4814 -0.446414 1.89821 0
M  V30 65 O 6.7514 -1.32234 1.44537 0
M  V30 66 H 5.3314 0.375066 0.646014 0
M  V30 67 H 7.9934 1.52187 1.21758 0
M  V30 68 H 7.0894 1.48538 2.74487 0
M  V30 69 N 7.3905 -1.2043 1.01659 0
M  V30 70 C 8.6395 -1.89118 0.701237 0
M  V30 71 C 8.9525 -1.79705 -0.772358 0
M  V30 72 O 10.1585 -2.43528 -1.20026 0
M  V30 73 C 8.6145 -3.39168 1.20388 0
M  V30 74 C 8.2225 -3.57166 2.70438 0
M  V30 75 C 9.9665 -4.1341 0.963953 0
M  V30 76 C 7.8735 -5.01042 3.14183 0
M  V30 77 H 6.8035 -0.708267 0.2586 0
M  V30 78 H 9.4545 -1.36239 1.22927 0
M  V30 79 H 7.8365 -3.91369 0.603824 0
M  V30 80 H 9.0105 -3.15351 3.35992 0
M  V30 81 H 7.3255 -2.96294 2.92572 0
M  V30 82 H 9.9225 -5.19491 1.26621 0
M  V30 83 H 10.2655 -4.16181 -0.099578 0
M  V30 84 H 10.7985 -3.67309 1.52738 0
M  V30 85 H 7.5375 -5.03426 4.19812 0
M  V30 86 H 7.0575 -5.43668 2.53348 0
M  V30 87 H 8.7365 -5.69623 3.0682 0
M  V30 88 N 8.8686 -0.792821 -1.36206 0
M  V30 89 C 10.1456 -0.290627 -1.93429 0
M  V30 90 C 10.5256 1.21773 -1.72437 0
M  V30 91 O 9.8736 2.0108 -1.08531 0
M  V30 92 C 10.0836 -0.686973 -3.42172 0
M  V30 93 C 11.4316 -0.668643 -4.19302 0
M  V30 94 O 12.4556 -0.627658 -3.50626 0
M  V30 95 O 11.3146 -0.714597 -5.41808 0
M  V30 96 H 8.4086 -0.0727927 -0.82379 0
M  V30 97 H 10.9546 -0.875593 -1.45367 0
M  V30 98 H 9.7266 -1.72711 -3.51122 0
M  V30 99 H 9.3496 -0.0760733 -3.97527 0
M  V30 100 N 10.3467 1.47872 -0.545128 0
M  V30 101 C 11.2767 2.32661 0.197793 0
M  V30 102 C 12.2577 1.43041 0.920504 0
M  V30 103 O 13.4427 1.71912 0.90333 0
M  V30 104 C 10.5727 3.24569 1.23582 0
M  V30 105 C 9.5267 4.23333 0.630323 0
M  V30 106 C 8.8527 5.0448 1.77211 0
M  V30 107 C 10.1527 5.20704 -0.407974 0
M  V30 108 H 11.8467 2.95024 -0.510045 0
M  V30 109 H 9.3927 1.4187 -0.246731 0
M  V30 110 H 11.3457 3.8272 1.76362 0
M  V30 111 H 10.0697 2.60236 1.97344 0
M  V30 112 H 8.7287 3.6639 0.123922 0
M  V30 113 H 8.3767 4.36561 2.49847 0
M  V30 114 H 8.0767 5.71339 1.37281 0
M  V30 115 H 9.6007 5.65487 2.3034 0
M  V30 116 H 11.0147 5.7329 0.033305 0
M  V30 117 H 9.4117 5.95699 -0.725486 0
M  V30 118 H 10.4817 4.66917 -1.30828 0
M  V30 119 N 11.8248 0.280983 1.55075 0
M  V30 120 C 13.0728 -0.333455 1.9933 0
M  V30 121 C 13.3938 -1.55937 1.17085 0
M  V30 122 O 12.6638 -1.94143 0.261805 0
M  V30 123 H 11.2438 -0.126197 0.736263 0
M  V30 124 H 13.9058 0.387678 1.91005 0
M  V30 125 H 13.0018 -0.619292 3.05894 0
M  V30 126 N 13.3029 -1.57598 0.00835791 0
M  V30 127 C 14.5499 -1.90928 -0.674732 0
M  V30 128 C 14.8779 -0.88277 -1.73313 0
M  V30 129 O 14.1329 0.111294 -1.95383 0
M  V30 130 C 14.4319 -3.3101 -1.34787 0
M  V30 131 C 14.0979 -4.48922 -0.421861 0
M  V30 132 C 12.7599 -4.8091 -0.166927 0
M  V30 133 C 15.1119 -5.20755 0.215211 0
M  V30 134 C 12.4399 -5.821 0.733232 0
M  V30 135 C 14.7919 -6.22905 1.1033 0
M  V30 136 C 13.4559 -6.53346 1.36733 0
M  V30 137 H 12.7259 -0.698656 -0.246902 0
M  V30 138 H 15.3729 -1.91387 0.0656779 0
M  V30 139 H 13.6779 -3.26714 -2.16253 0
M  V30 140 H 15.3749 -3.54061 -1.8826 0
M  V30 141 H 11.9649 -4.23934 -0.630729 0
M  V30 142 H 16.1489 -4.9629 0.0312829 0
M  V30 143 H 11.4049 -6.04042 0.945712 0
M  V30 144 H 15.5789 -6.77694 1.60325 0
M  V30 145 H 13.2059 -7.31573 2.06652 0
M  V30 146 N 14.781 0.264519 -1.55364 0
M  V30 147 C 15.713 1.34965 -1.85248 0
M  V30 148 C 16.726 1.45136 -0.737525 0
M  V30 149 O 17.915 1.46801 -1.01547 0
M  V30 150 C 15.015 2.73008 -2.00797 0
M  V30 151 C 14.188 2.85324 -3.31525 0
M  V30 152 C 13.247 4.04097 -3.37034 0
M  V30 153 O 12.273 3.94455 -4.10358 0
M  V30 154 N 13.475 5.16458 -2.65049 0
M  V30 155 H 16.24 1.09672 -2.78913 0
M  V30 156 H 13.801 0.454635 -1.55386 0
M  V30 157 H 15.793 3.50772 -2.01844 0
M  V30 158 H 14.363 2.91087 -1.1396 0
M  V30 159 H 13.583 1.94377 -3.42945 0
M  V30 160 H 14.871 2.9049 -4.17724 0
M  V30 161 H 14.269 5.27181 -2.05175 0
M  V30 162 H 12.826 5.92422 -2.71809 0
M  V30 163 N 16.2591 1.48442 0.529413 0
M  V30 164 C 17.4841 1.60406 1.31471 0
M  V30 165 C 17.9091 0.264738 1.86228 0
M  V30 166 O 17.2671 -0.763668 1.64432 0
M  V30 167 C 17.3151 2.65419 2.44101 0
M  V30 168 O 16.4191 2.22618 3.47153 0
M  V30 169 H 15.7601 0.537863 0.389357 0
M  V30 170 H 18.2901 1.94432 0.636965 0
M  V30 171 H 18.3001 2.86709 2.90279 0
M  V30 172 H 16.9751 3.62652 2.03608 0
M  V30 173 H 15.5521 2.11543 3.0709 0
M  V30 174 N 17.7372 -0.778329 1.37039 0
M  V30 175 C 18.9772 -1.54973 1.33276 0
M  V30 176 C 19.3412 -1.91816 -0.0839376 0
M  V30 177 O 20.5422 -2.6767 -0.246228 0
M  V30 178 C 18.8132 -2.78517 2.23971 0
M  V30 179 S 20.3722 -3.6865 2.37997 0
M  V30 180 H 17.1902 -0.530639 0.473226 0
M  V30 181 H 19.7922 -0.915806 1.72723 0
M  V30 182 H 18.4962 -2.4952 3.25835 0
M  V30 183 H 18.0272 -3.46875 1.85584 0
M  V30 184 H 20.0422 -4.70182 1.58567 0
M  V30 185 N 19.2153 -1.21501 -1.00376 0
M  V30 186 C 20.4453 -1.05746 -1.77486 0
M  V30 187 C 20.8533 0.395655 -1.85017 0
M  V30 188 O 20.1963 1.28626 -1.31152 0
M  V30 189 C 20.2583 -1.58092 -3.22873 0
M  V30 190 C 19.9223 -3.06568 -3.38917 0
M  V30 191 C 20.9193 -4.04106 -3.271 0
M  V30 192 C 18.6043 -3.45799 -3.64319 0
M  V30 193 C 20.5983 -5.38862 -3.40451 0
M  V30 194 C 18.2853 -4.80707 -3.77311 0
M  V30 195 C 19.2833 -5.77047 -3.65384 0
M  V30 196 O 18.9713 -7.09507 -3.77961 0
M  V30 197 H 18.7033 -0.371778 -0.564586 0
M  V30 198 H 21.2573 -1.61319 -1.27143 0
M  V30 199 H 19.4873 -0.969163 -3.74358 0
M  V30 200 H 21.1763 -1.38162 -3.81662 0
M  V30 201 H 21.9423 -3.75141 -3.07399 0
M  V30 202 H 17.8213 -2.71344 -3.72684 0
M  V30 203 H 21.3653 -6.14041 -3.31058 0
M  V30 204 H 17.2623 -5.09357 -3.96517 0
M  V30 205 H 18.0303 -7.16935 -3.94901 0
M  V30 206 N 20.6934 1.19889 -1.02296 0
M  V30 207 C 21.9394 1.89701 -0.717033 0
M  V30 208 C 22.2724 1.7905 0.751989 0
M  V30 209 O 21.5474 1.17891 1.547 0
M  V30 210 C 21.8304 3.40858 -1.16136 0
M  V30 211 C 21.6834 3.60411 -2.69117 0
M  V30 212 C 23.0024 4.33876 -0.737549 0
M  V30 213 H 20.1214 0.688874 -0.261957 0
M  V30 214 H 22.7634 1.41154 -1.27183 0
M  V30 215 H 20.9134 3.82335 -0.689342 0
M  V30 216 H 22.5854 3.28145 -3.2422 0
M  V30 217 H 20.8284 3.03665 -3.0979 0
M  V30 218 H 21.4994 4.66396 -2.95261 0
M  V30 219 H 23.9754 4.00081 -1.14344 0
M  V30 220 H 22.8514 5.38242 -1.0764 0
M  V30 221 H 23.1124 4.40628 0.360436 0
M  V30 222 N 22.1715 0.800033 1.35784 0
M  V30 223 C 23.1345 0.211565 2.28221 0
M  V30 224 C 24.1345 -0.59728 1.49296 0
M  V30 225 O 25.3245 -0.416721 1.69142 0
M  V30 226 C 22.4565 -0.705846 3.33513 0
M  V30 227 H 23.6495 1.02677 2.81776 0
M  V30 228 H 21.2025 0.570211 1.45528 0
M  V30 229 H 21.9375 -1.54498 2.85133 0
M  V30 230 H 21.7225 -0.127655 3.91892 0
M  V30 231 H 23.2125 -1.11211 4.02519 0
M  V30 232 N 23.6496 -1.47581 0.552962 0
M  V30 233 C 24.8956 -2.02782 0.0273648 0
M  V30 234 C 25.2286 -1.42687 -1.31734 0
M  V30 235 O 24.5036 -0.580897 -1.85623 0
M  V30 236 C 24.7866 -3.60031 -0.0702371 0
M  V30 237 C 24.6396 -4.30566 1.30126 0
M  V30 238 C 25.9586 -4.33028 -0.785771 0
M  V30 239 H 23.0776 -0.736912 0.0114185 0
M  V30 240 H 25.7196 -1.76056 0.714432 0
M  V30 241 H 23.8696 -3.82932 -0.655382 0
M  V30 242 H 25.5416 -4.19018 1.92929 0
M  V30 243 H 23.7846 -3.91086 1.87709 0
M  V30 244 H 24.4556 -5.39114 1.18573 0
M  V30 245 H 26.9316 -4.15095 -0.288982 0
M  V30 246 H 25.8076 -5.42695 -0.823013 0
M  V30 247 H 26.0686 -4.01945 -1.841 0
M  V30 248 N 25.1277 -0.289203 -1.54924 0
M  V30 249 C 26.0907 0.579144 -2.21762 0
M  V30 250 C 27.0907 1.07047 -1.1999 0
M  V30 251 O 28.2807 0.968384 -1.44803 0
M  V30 252 C 25.4127 1.80055 -2.8947 0
M  V30 253 H 26.6057 -0.00464908 -2.999 0
M  V30 254 H 24.1587 -0.0399306 -1.56249 0
M  V30 255 H 24.8937 2.42449 -2.15381 0
M  V30 256 H 24.6787 1.45602 -3.64064 0
M  V30 257 H 26.1687 2.41773 -3.40493 0
M  V30 258 N 26.6058 1.57591 -0.0167156 0
M  V30 259 C 28.0218 1.55946 0.339557 0
M  V30 260 C 28.2218 1.02109 1.73713 0
M  V30 261 O 27.2778 0.662303 2.43659 0
M  V30 262 C 28.5908 3.00037 0.199499 0
M  V30 263 C 30.1388 3.11805 0.273193 0
M  V30 264 C 30.6138 4.57713 0.162068 0
M  V30 265 N 32.1048 4.6268 0.219444 0
M  V30 266 C 32.8398 5.73185 0.157054 0
M  V30 267 N 32.3358 6.92786 0.0442936 0
M  V30 268 N 34.1288 5.61707 0.21014 0
M  V30 269 H 26.2798 1.90921 -0.930758 0
M  V30 270 H 28.5428 0.877674 -0.358319 0
M  V30 271 H 28.2488 3.4333 -0.76273 0
M  V30 272 H 28.1228 3.64387 0.974786 0
M  V30 273 H 30.5098 2.68433 1.22587 0
M  V30 274 H 30.5908 2.50201 -0.532256 0
M  V30 275 H 30.2348 5.01763 -0.78714 0
M  V30 276 H 30.1648 5.17283 0.986222 0
M  V30 277 H 32.6558 3.76649 0.307246 0
M  V30 278 H 32.9688 7.728 0.00304069 0
M  V30 279 H 31.3138 6.94999 0.00968457 0
M  V30 280 H 34.5048 4.6716 0.296546 0
M  V30 281 H 34.6778 6.47807 0.158054 0
M  V30 282 N 28.0839 -0.256276 1.55502 0
M  V30 283 C 29.0469 -1.30047 1.88734 0
M  V30 284 C 30.0469 -1.4154 0.763086 0
M  V30 285 O 31.2369 -1.40403 1.03115 0
M  V30 286 C 28.3689 -2.67953 2.10747 0
M  V30 287 H 29.5619 -1.01802 2.82093 0
M  V30 288 H 27.1149 -0.495134 1.4825 0
M  V30 289 H 27.8499 -3.01351 1.19825 0
M  V30 290 H 27.6349 -2.60993 2.92617 0
M  V30 291 H 29.1249 -3.43368 2.37673 0
M  V30 292 N 29.562 -1.4872 -0.521534 0
M  V30 293 C 30.81 -1.56857 -1.27437 0
M  V30 294 C 31.131 -0.247982 -1.93417 0
M  V30 295 O 30.401 0.731151 -1.81744 0
M  V30 296 H 28.981 -0.577885 -0.473347 0
M  V30 297 H 31.643 -1.85233 -0.606205 0
M  V30 298 H 30.739 -2.35402 -2.0492 0
M  V30 299 N 31.0401 0.771051 -1.3745 0
M  V30 300 C 32.2881 1.52661 -1.32435 0
M  V30 301 C 32.6091 1.9479 0.0905024 0
M  V30 302 O 31.8791 1.66348 1.03466 0
M  V30 303 H 30.4591 0.566218 -0.487244 0
M  V30 304 H 33.1211 0.917636 -1.71946 0
M  V30 305 H 32.2171 2.42568 -1.96385 0
M  V30 306 N 32.5182 1.22032 0.997298 0
M  V30 307 C 33.7672 1.03637 1.73038 0
M  V30 308 C 34.0802 -0.429475 1.90827 0
M  V30 309 O 35.2862 -0.732995 2.61418 0
M  V30 310 C 33.7422 1.80582 3.11317 0
M  V30 311 C 33.3502 3.31387 3.01474 0
M  V30 312 C 35.0942 1.70621 3.88701 0
M  V30 313 C 33.0012 4.00791 4.3488 0
M  V30 314 H 31.9312 0.384179 0.648785 0
M  V30 315 H 34.5822 1.4584 1.11368 0
M  V30 316 H 32.9642 1.31175 3.73643 0
M  V30 317 H 34.1382 3.88155 2.4834 0
M  V30 318 H 32.4532 3.41976 2.37575 0
M  V30 319 H 35.0502 2.19799 4.87434 0
M  V30 320 H 35.3932 0.665823 4.10941 0
M  V30 321 H 35.9262 2.17547 3.33044 0
M  V30 322 H 32.6652 5.05064 4.1784 0
M  V30 323 H 32.1852 3.48811 4.87945 0
M  V30 324 H 33.8642 4.06139 5.03647 0
M  V30 325 N 33.9963 -1.19345 1.0293 0
M  V30 326 C 34.9063 -2.26245 0.620515 0
M  V30 327 C 35.9223 -1.70486 -0.347928 0
M  V30 328 O 37.0983 -2.00347 -0.205704 0
M  V30 329 C 34.1633 -3.46693 -0.0218957 0
M  V30 330 C 33.2243 -4.17632 0.994102 0
M  V30 331 C 32.4573 -5.32329 0.382253 0
M  V30 332 O 32.6803 -5.64552 -0.814676 0
M  V30 333 O 31.6143 -5.91664 1.10531 0
M  V30 334 H 35.4403 -2.63453 1.51083 0
M  V30 335 H 33.0253 -1.26207 0.799513 0
M  V30 336 H 34.9073 -4.19683 -0.380072 0
M  V30 337 H 33.5823 -3.11333 -0.886209 0
M  V30 338 H 32.4893 -3.4676 1.40387 0
M  V30 339 H 33.8223 -4.56964 1.8288 0
M  V30 340 N 35.4744 -0.807222 -1.35358 0
M  V30 341 C 36.7024 -0.400377 -2.02989 0
M  V30 342 C 37.1174 0.988859 -1.60832 0
M  V30 343 O 36.4744 1.63729 -0.806175 0
M  V30 344 C 36.5254 -0.474867 -3.58368 0
M  V30 345 O 36.2464 -1.80933 -3.98992 0
M  V30 346 C 37.7474 -0.0609112 -4.43258 0
M  V30 347 H 34.9674 -0.162587 -0.651004 0
M  V30 348 H 37.5114 -1.09102 -1.72965 0
M  V30 349 H 35.6664 0.167534 -3.87038 0
M  V30 350 H 36.0804 -1.77256 -4.9364 0
M  V30 351 H 37.5544 -0.164145 -5.51756 0
M  V30 352 H 38.0314 0.993831 -4.27808 0
M  V30 353 H 38.6374 -0.676492 -4.19885 0
M  V30 354 N 36.9525 1.47285 -0.560781 0
M  V30 355 C 38.2015 2.01668 -0.035895 0
M  V30 356 C 38.5145 1.44021 1.32353 0
M  V30 357 O 39.7205 1.90088 1.93853 0
M  V30 358 C 38.1765 3.59897 -0.0136659 0
M  V30 359 C 37.7845 4.26536 -1.37006 0
M  V30 360 C 39.5285 4.22017 0.458425 0
M  V30 361 C 37.4355 5.76782 -1.30675 0
M  V30 362 H 36.3655 0.753938 -0.00964879 0
M  V30 363 H 39.0165 1.69243 -0.709166 0
M  V30 364 H 37.3985 3.89301 0.725325 0
M  V30 365 H 38.5725 4.0877 -2.12705 0
M  V30 366 H 36.8875 3.76419 -1.78038 0
M  V30 367 H 39.4845 5.32124 0.524247 0
M  V30 368 H 39.8275 3.89437 1.4712 0
M  V30 369 H 40.3605 3.97159 -0.225818 0
M  V30 370 H 37.0995 6.13988 -2.29564 0
M  V30 371 H 36.6195 5.96875 -0.591622 0
M  V30 372 H 38.2985 6.39063 -1.01033 0
M  V30 373 N 38.4306 0.297415 1.54768 0
M  V30 374 C 39.3936 -0.567375 2.22066 0
M  V30 375 C 40.3936 -1.06409 1.20556 0
M  V30 376 O 41.5836 -0.960691 1.45315 0
M  V30 377 C 38.7156 -1.78517 2.90421 0
M  V30 378 H 39.9086 0.0205534 2.99893 0
M  V30 379 H 37.4616 0.0482163 1.56226 0
M  V30 380 H 38.1966 -2.41303 2.16664 0
M  V30 381 H 37.9816 -1.43669 3.64831 0
M  V30 382 H 39.4716 -2.39964 3.41771 0
M  V30 383 N 39.9087 -1.5758 0.0250728 0
M  V30 384 C 40.8567 -2.11125 -0.97617 0
M  V30 385 C 41.8507 -1.03689 -1.33959 0
M  V30 386 O 43.0567 -1.22128 -1.3223 0
M  V30 387 H 39.4317 -0.674468 -0.332561 0
M  V30 388 H 41.4027 -2.94194 -0.499223 0
M  V30 389 C 40.1517 -2.65017 -2.2508 0
M  V30 390 H 39.4747 -3.47333 -1.9799 0
M  V30 391 H 40.9147 -3.06133 -2.93357 0
M  V30 392 C 39.3737 -1.57574 -2.97779 0
M  V30 393 O 39.9037 -0.973203 -3.89733 0
M  V30 394 N 38.1097 -1.29716 -2.60043 0
M  V30 395 H 37.6567 -1.789 -1.85345 0
M  V30 396 H 37.6147 -0.58051 -3.08994 0
M  V30 397 N 41.3868 0.248026 -1.55636 0
M  V30 398 C 42.2968 1.32859 -1.93354 0
M  V30 399 C 43.3128 1.52719 -0.833838 0
M  V30 400 O 44.4888 1.66363 -1.13513 0
M  V30 401 C 41.5538 2.66337 -2.21958 0
M  V30 402 C 40.6148 2.55008 -3.45354 0
M  V30 403 C 39.8478 3.82121 -3.72584 0
M  V30 404 O 40.0708 4.83951 -3.01907 0
M  V30 405 O 39.0048 3.80822 -4.6611 0
M  V30 406 H 42.8308 1.03862 -2.85388 0
M  V30 407 H 40.4158 0.448686 -1.42503 0
M  V30 408 H 42.2978 3.45216 -2.4167 0
M  V30 409 H 40.9728 2.95068 -1.33103 0
M  V30 410 H 39.8798 1.7442 -3.30951 0
M  V30 411 H 41.2128 2.31222 -4.34508 0
M  V30 412 N 42.8649 1.48995 0.513639 0
M  V30 413 C 44.0949 1.61297 1.291 0
M  V30 414 C 44.5029 0.278656 1.87137 0
M  V30 415 O 43.8459 -0.744325 1.67945 0
M  V30 416 C 43.9079 2.61326 2.46879 0
M  V30 417 C 43.5719 4.05993 2.09807 0
M  V30 418 C 44.5689 4.93183 1.64519 0
M  V30 419 C 42.2539 4.51642 2.19829 0
M  V30 420 C 44.2479 6.24056 1.2974 0
M  V30 421 C 41.9349 5.82532 1.84662 0
M  V30 422 C 42.9329 6.68562 1.3969 0
M  V30 423 O 42.6209 7.97014 1.04992 0
M  V30 424 H 42.3529 0.546236 0.39825 0
M  V30 425 H 44.9069 1.95673 0.62459 0
M  V30 426 H 43.1369 2.22104 3.16554 0
M  V30 427 H 44.8259 2.6329 3.08923 0
M  V30 428 H 45.5919 4.59147 1.56233 0
M  V30 429 H 41.4709 3.84855 2.53786 0
M  V30 430 H 45.0149 6.91161 0.945659 0
M  V30 431 H 40.9119 6.16099 1.92594 0
M  V30 432 H 41.6799 8.09913 1.18249 0
M  V30 433 N 44.343 -0.763751 1.37857 0
M  V30 434 C 45.568 -1.55805 1.36893 0
M  V30 435 C 45.993 -1.88054 -0.0416135 0
M  V30 436 O 45.351 -1.49825 -1.02089 0
M  V30 437 C 45.399 -2.84012 2.22192 0
M  V30 438 O 44.503 -3.78732 1.63204 0
M  V30 439 H 43.844 -0.471638 0.46739 0
M  V30 440 H 46.374 -0.944657 1.81487 0
M  V30 441 H 46.384 -3.33037 2.35691 0
M  V30 442 H 45.059 -2.59869 3.24716 0
M  V30 443 H 43.636 -3.37402 1.58791 0
M  V30 444 N 45.8211 -1.22559 -0.990812 0
M  V30 445 C 47.0981 -0.959875 -1.70428 0
M  V30 446 C 47.4781 0.524455 -2.04481 0
M  V30 447 O 46.8261 1.49302 -1.72977 0
M  V30 448 C 47.0361 -1.85955 -2.95333 0
M  V30 449 C 48.3841 -2.11687 -3.68068 0
M  V30 450 O 49.4081 -1.8342 -3.05345 0
M  V30 451 O 48.2671 -2.59572 -4.80921 0
M  V30 452 H 45.3611 -0.361154 -0.743974 0
M  V30 453 H 47.9071 -1.33554 -1.04697 0
M  V30 454 H 46.6791 -2.86346 -2.66687 0
M  V30 455 H 46.3021 -1.4856 -3.68803 0
M  V30 456 N 47.2992 1.18797 -1.03562 0
M  V30 457 C 48.7152 1.40671 -0.753917 0
M  V30 458 C 48.9152 1.9043 0.658686 0
M  V30 459 O 47.9712 2.08538 1.42366 0
M  V30 460 C 49.2842 2.41192 -1.79574 0
M  V30 461 C 50.8322 2.54928 -1.81606 0
M  V30 462 C 51.3072 3.58709 -2.84766 0
M  V30 463 N 52.7982 3.66212 -2.83625 0
M  V30 464 C 53.5332 4.46225 -3.60098 0
M  V30 465 N 53.0292 5.29888 -4.46308 0
M  V30 466 N 54.8222 4.40939 -3.4861 0
M  V30 467 H 46.9732 0.848221 -1.94728 0
M  V30 468 H 49.2362 0.435081 -0.842264 0
M  V30 469 H 48.9422 2.11669 -2.80872 0
M  V30 470 H 48.8162 3.40467 -1.62365 0
M  V30 471 H 51.2032 2.83771 -0.809817 0
M  V30 472 H 51.2842 1.55784 -2.02891 0
M  V30 473 H 50.9282 3.30607 -3.85566 0
M  V30 474 H 50.8582 4.57519 -2.60737 0
M  V30 475 H 53.3492 3.06466 -2.21105 0
M  V30 476 H 53.6622 5.88078 -5.01382 0
M  V30 477 H 52.0072 5.29326 -4.50377 0
M  V30 478 H 55.1982 3.74624 -2.80668 0
M  V30 479 H 55.3712 5.03056 -4.08459 0
M  V30 480 N 48.7773 0.814389 1.34928 0
M  V30 481 C 50.0173 0.404165 2.00364 0
M  V30 482 C 50.3813 -1.01166 1.63185 0
M  V30 483 O 51.5823 -1.52431 2.21401 0
M  V30 484 C 49.8533 0.590718 3.52484 0
M  V30 485 S 51.4123 0.272075 4.37956 0
M  V30 486 H 48.2303 0.15311 0.694319 0
M  V30 487 H 50.8323 1.05834 1.64376 0
M  V30 488 H 49.5363 1.62099 3.77031 0
M  V30 489 H 49.0673 -0.0785013 3.93322 0
M  V30 490 H 51.0823 -0.917405 4.87645 0
M  V30 491 N 50.2554 -1.46986 0.568584 0
M  V30 492 C 51.4834 -2.0683 0.0539956 0
M  V30 493 C 51.8984 -1.41953 -1.24478 0
M  V30 494 O 51.2554 -0.519933 -1.74937 0
M  V30 495 C 51.3064 -3.61254 -0.133362 0
M  V30 496 O 51.0274 -4.237 1.11399 0
M  V30 497 C 52.5284 -4.37992 -0.683927 0
M  V30 498 H 49.7484 -0.669058 0.0510141 0
M  V30 499 H 52.2924 -1.88824 0.785234 0
M  V30 500 H 50.4474 -3.78735 -0.81477 0
M  V30 501 H 50.8614 -5.16388 0.91888 0
M  V30 502 H 52.3354 -5.46684 -0.764263 0
M  V30 503 H 52.8124 -4.05058 -1.69778 0
M  V30 504 H 53.4184 -4.25283 -0.0378494 0
M  V30 505 N 51.7335 -0.305618 -1.54608 0
M  V30 506 C 53.1445 0.186098 -1.8577 0
M  V30 507 C 53.4955 1.53058 -1.22751 0
M  V30 508 O 52.6205 2.09888 -0.526893 0
M  V30 509 C 53.2155 0.344449 -3.37044 0
M  V30 510 C 51.7745 0.780384 -3.68221 0
M  V30 511 C 50.9215 -0.108554 -2.77087 0
M  V30 512 H 53.8725 -0.526485 -1.49712 0
M  V30 513 H 53.8935 1.17828 -3.61796 0
M  V30 514 H 53.4055 -0.634235 -3.82883 0
M  V30 515 H 51.5065 1.76945 -3.27904 0
M  V30 516 H 51.6195 0.596572 -4.75371 0
M  V30 517 H 49.9835 0.412931 -2.5133 0
M  V30 518 H 50.7665 -1.08368 -3.25747 0
M  V30 519 N 53.2116 1.57565 -0.0334293 0
M  V30 520 C 54.1746 2.09393 0.932048 0
M  V30 521 C 55.1746 1.00986 1.25134 0
M  V30 522 O 56.3646 1.27129 1.19096 0
M  V30 523 C 53.4966 2.56338 2.2473 0
M  V30 524 H 54.6896 2.95984 0.483085 0
M  V30 525 H 52.2426 1.54819 0.21468 0
M  V30 526 H 52.9776 1.7309 2.74245 0
M  V30 527 H 52.7626 3.35542 2.02865 0
M  V30 528 H 54.2526 2.96646 2.93923 0
M  V30 529 N 54.6897 -0.239769 1.55765 0
M  V30 530 C 55.9297 -0.974076 1.79697 0
M  V30 531 C 56.2937 -1.82249 0.604088 0
M  V30 532 O 57.4947 -2.58913 0.722324 0
M  V30 533 C 55.7657 -1.80595 3.08416 0
M  V30 534 S 57.3247 -2.59838 3.53596 0
M  V30 535 H 54.1427 -0.327524 0.63107 0
M  V30 536 H 56.7447 -0.241277 1.94005 0
M  V30 537 H 55.4487 -1.17249 3.93295 0
M  V30 538 H 54.9797 -2.58137 2.96865 0
M  V30 539 H 56.9947 -3.82987 3.15492 0
M  V30 540 N 56.1678 -1.49265 -0.50573 0
M  V30 541 C 57.4168 -1.57761 -1.25675 0
M  V30 542 C 57.7298 -0.267371 -1.93764 0
M  V30 543 O 58.9358 -0.230827 -2.70517 0
M  V30 544 C 57.3918 -2.78332 -2.28165 0
M  V30 545 C 56.9998 -4.16096 -1.66037 0
M  V30 546 C 58.7438 -2.96155 -3.04125 0
M  V30 547 C 56.6508 -5.27895 -2.6661 0
M  V30 548 H 55.5808 -0.587391 -0.472745 0
M  V30 549 H 58.2318 -1.75644 -0.53118 0
M  V30 550 H 56.6138 -2.53934 -3.03865 0
M  V30 551 H 57.7878 -4.50612 -0.963622 0
M  V30 552 H 56.1028 -4.03591 -1.02484 0
M  V30 553 H 58.6998 -3.76849 -3.79327 0
M  V30 554 H 59.0428 -2.06534 -3.61455 0
M  V30 555 H 59.5758 -3.2057 -2.35541 0
M  V30 556 H 56.3148 -6.1956 -2.14068 0
M  V30 557 H 55.8348 -4.97839 -3.34539 0
M  V30 558 H 57.5138 -5.57031 -3.29129 0
M  V30 559 N 57.6459 0.756429 -1.3826 0
M  V30 560 C 58.8709 1.55077 -1.37717 0
M  V30 561 C 59.2959 1.88073 0.03164 0
M  V30 562 O 58.6539 1.50364 1.01293 0
M  V30 563 C 58.7019 2.8283 -2.23695 0
M  V30 564 O 57.8059 3.77862 -1.6521 0
M  V30 565 H 57.1469 0.469152 -0.469885 0
M  V30 566 H 59.6769 0.935019 -1.81985 0
M  V30 567 H 59.6869 3.31783 -2.37453 0
M  V30 568 H 58.3619 2.58144 -3.2609 0
M  V30 569 H 56.9389 3.36555 -1.60578 0
M  V30 570 N 59.124 1.23083 0.984299 0
M  V30 571 C 60.371 1.06057 1.72505 0
M  V30 572 C 60.699 -0.403105 1.90277 0
M  V30 573 O 59.954 -1.3149 1.44944 0
M  V30 574 C 60.253 1.72673 3.1292 0
M  V30 575 C 59.919 3.22586 3.15038 0
M  V30 576 C 58.581 3.63489 3.15324 0
M  V30 577 C 60.933 4.185 3.10657 0
M  V30 578 C 58.261 4.98772 3.08939 0
M  V30 579 C 60.613 5.53769 3.05814 0
M  V30 580 C 59.277 5.94041 3.04419 0
M  V30 581 H 58.547 0.388091 0.631242 0
M  V30 582 H 61.194 1.52963 1.15215 0
M  V30 583 H 59.499 1.18116 3.73572 0
M  V30 584 H 61.196 1.56982 3.68996 0
M  V30 585 H 57.786 2.90022 3.15571 0
M  V30 586 H 61.97 3.87911 3.09579 0
M  V30 587 H 57.226 5.29193 3.0621 0
M  V30 588 H 61.4 6.27808 3.0138 0
M  V30 589 H 59.027 6.98833 2.99227 0
M  V30 590 N 60.6021 -1.18246 1.0419 0
M  V30 591 C 61.8501 -1.87886 0.744543 0
M  V30 592 C 62.1711 -1.8082 -0.730006 0
M  V30 593 O 61.4411 -1.22736 -1.52685 0
M  V30 594 H 60.0211 -0.695556 0.272417 0
M  V30 595 H 62.6831 -1.43494 1.31892 0
M  V30 596 H 61.7791 -2.9389 1.05049 0
M  V30 597 N 62.0802 -0.821533 -1.34494 0
M  V30 598 C 63.4912 -0.467956 -1.8074 0
M  V30 599 C 63.8422 1.01151 -1.68116 0
M  V30 600 O 62.9672 1.78707 -1.22036 0
M  V30 601 C 63.5622 -0.842627 -3.28154 0
M  V30 602 C 62.1212 -0.541439 -3.72485 0
M  V30 603 C 61.2682 -1.06028 -2.56229 0
M  V30 604 H 64.2192 -1.01183 -1.22261 0
M  V30 605 H 64.2402 -0.145876 -3.8022 0
M  V30 606 H 63.7522 -1.91945 -3.37311 0
M  V30 607 H 61.8532 0.526034 -3.68868 0
M  V30 608 H 61.9662 -1.08453 -4.66663 0
M  V30 609 H 60.3302 -0.481892 -2.501 0
M  V30 610 H 61.1132 -2.14352 -2.68157 0
M  V30 611 N 63.5583 1.46682 -0.576371 0
M  V30 612 C 64.5053 2.30241 0.160499 0
M  V30 613 C 65.4753 1.40233 0.890162 0
M  V30 614 O 66.6603 1.69186 0.882084 0
M  V30 615 C 63.8003 3.24578 1.1723 0
M  V30 616 C 62.9133 4.29684 0.446736 0
M  V30 617 C 62.0483 5.11154 1.44551 0
M  V30 618 C 61.0873 6.08015 0.70599 0
M  V30 619 N 60.2243 6.82376 1.65251 0
M  V30 620 H 65.0643 2.92727 -0.558127 0
M  V30 621 H 62.6013 1.44272 -0.287056 0
M  V30 622 H 64.5593 3.77711 1.77172 0
M  V30 623 H 63.1893 2.63916 1.85872 0
M  V30 624 H 62.2413 3.79458 -0.267594 0
M  V30 625 H 63.5533 4.98626 -0.131686 0
M  V30 626 H 62.7073 5.68533 2.11791 0
M  V30 627 H 61.4463 4.42158 2.05786 0
M  V30 628 H 60.4513 5.49796 0.0197725 0
M  V30 629 H 61.6763 6.79028 0.09912 0
M  V30 630 H 59.6223 6.16094 2.25308 0
M  V30 631 H 59.5393 7.47556 1.12673 0
M  V30 632 H 60.8073 7.44316 2.31546 0
M  V30 633 N 65.0364 0.313813 1.54444 0
M  V30 634 C 65.9844 -0.572171 2.25453 0
M  V30 635 C 66.9784 -1.12657 1.2651 0
M  V30 636 O 68.1844 -1.07573 1.44319 0
M  V30 637 H 64.5594 -0.203146 0.724041 0
M  V30 638 H 66.5304 0.0491145 2.9836 0
M  V30 639 C 65.2794 -1.72626 3.0182 0
M  V30 640 H 64.6024 -1.30891 3.77767 0
M  V30 641 H 66.0424 -2.32199 3.54767 0
M  V30 642 C 64.5014 -2.63806 2.09542 0
M  V30 643 O 65.0314 -3.65256 1.67185 0
M  V30 644 N 63.2374 -2.31824 1.75232 0
M  V30 645 H 62.7844 -1.49368 2.09873 0
M  V30 646 H 62.7424 -2.93095 1.13767 0
M  V30 647 N 66.5145 -1.57545 0.0417849 0
M  V30 648 C 67.9305 -1.56467 -0.314704 0
M  V30 649 C 68.1305 -1.04859 -1.72066 0
M  V30 650 O 67.1865 -0.700983 -2.42575 0
M  V30 651 C 68.4995 -3.00317 -0.15174 0
M  V30 652 C 70.0475 -3.12201 -0.223553 0
M  V30 653 C 70.5225 -4.57913 -0.0892295 0
M  V30 654 N 72.0135 -4.6297 -0.145808 0
M  V30 655 C 72.7485 -5.73362 -0.0658459 0
M  V30 656 N 72.2445 -6.92769 0.0659282 0
M  V30 657 N 74.0375 -5.6197 -0.12075 0
M  V30 658 H 66.1885 -1.89416 0.961014 0
M  V30 659 H 68.4515 -0.871862 0.372237 0
M  V30 660 H 68.1575 -3.42073 0.817254 0
M  V30 661 H 68.0315 -3.65892 -0.916692 0
M  V30 662 H 70.4185 -2.70349 -1.18301 0
M  V30 663 H 70.4995 -2.49323 0.571994 0
M  V30 664 H 70.1435 -5.00448 0.866867 0
M  V30 665 H 70.0735 -5.18786 -0.903802 0
M  V30 666 H 72.5645 -3.7709 -0.247286 0
M  V30 667 H 72.8775 -7.72707 0.119905 0
M  V30 668 H 71.2225 -6.94927 0.100885 0
M  V30 669 H 74.4135 -4.67572 -0.222187 0
M  V30 670 H 74.5865 -6.47977 -0.0549735 0
M  V30 671 N 67.9926 0.231505 -1.5589 0
M  V30 672 C 69.2176 0.978689 -1.82856 0
M  V30 673 C 69.6426 1.77559 -0.620846 0
M  V30 674 O 69.0006 1.76119 0.430305 0
M  V30 675 C 69.0486 1.87997 -3.07716 0
M  V30 676 O 68.1526 2.97393 -2.85712 0
M  V30 677 H 67.4936 0.277663 -0.603158 0
M  V30 678 H 70.0236 0.24783 -2.03093 0
M  V30 679 H 70.0336 2.2917 -3.37558 0
M  V30 680 H 68.7086 1.29417 -3.95252 0
M  V30 681 H 67.2856 2.60238 -2.67078 0
M  V30 682 N 69.4707 1.49531 0.497807 0
M  V30 683 C 70.7197 1.58426 1.24837 0
M  V30 684 C 71.0327 0.277643 1.93619 0
M  V30 685 O 72.2387 0.24517 2.70391 0
M  V30 686 C 70.6947 2.79538 2.26686 0
M  V30 687 C 70.3027 4.16971 1.63828 0
M  V30 688 C 72.0467 2.97764 3.0255 0
M  V30 689 C 69.9537 5.29301 2.63807 0
M  V30 690 H 68.8837 0.58989 0.469623 0
M  V30 691 H 71.5347 1.75923 0.521857 0
M  V30 692 H 69.9167 2.55542 3.02514 0
M  V30 693 H 71.0907 4.51116 0.939711 0
M  V30 694 H 69.4057 4.04129 1.00342 0
M  V30 695 H 72.0027 3.78856 3.77323 0
M  V30 696 H 72.3457 2.08448 3.60354 0
M  V30 697 H 72.8787 3.21815 2.33838 0
M  V30 698 H 69.6177 6.20687 2.10779 0
M  V30 699 H 69.1377 4.99606 3.31894 0
M  V30 700 H 70.8167 5.58768 3.2617 0
M  V30 701 N 70.9488 -0.749086 1.3866 0
M  V30 702 C 72.1968 -1.50535 1.34847 0
M  V30 703 C 72.5178 -1.94909 -0.0595016 0
M  V30 704 O 71.7878 -1.67973 -1.00806 0
M  V30 705 H 70.3678 -0.558395 0.49619 0
M  V30 706 H 73.0298 -0.890165 1.73384 0
M  V30 707 H 72.1258 -2.39413 2.00219 0
M  V30 708 N 72.4269 -1.23603 -0.977757 0
M  V30 709 C 73.3899 -1.02069 -2.05218 0
M  V30 710 C 74.3899 0.0184305 -1.60789 0
M  V30 711 O 75.5799 -0.221569 -1.72785 0
M  V30 712 C 72.7119 -0.544926 -3.36517 0
M  V30 713 H 73.9049 -1.9742 -2.25755 0
M  V30 714 H 71.4579 -1.05684 -1.15155 0
M  V30 715 H 72.1929 0.412241 -3.21669 0
M  V30 716 H 71.9779 -1.2948 -3.70105 0
M  V30 717 H 73.4679 -0.414985 -4.15533 0
M  V30 718 N 73.905 1.17692 -1.04816 0
M  V30 719 C 74.868 2.19787 -0.650117 0
M  V30 720 C 75.868 1.58044 0.296427 0
M  V30 721 O 77.058 1.74012 0.0808097 0
M  V30 722 C 74.19 3.40869 0.0456987 0
M  V30 723 H 75.383 2.56516 -1.5537 0
M  V30 724 H 72.936 1.31708 -0.841594 0
M  V30 725 H 73.671 3.09681 0.962726 0
M  V30 726 H 73.456 3.86928 -0.634727 0
M  V30 727 H 74.946 4.16445 0.310432 0
M  V30 728 N 75.3831 0.828654 1.34056 0
M  V30 729 C 76.3461 0.259927 2.27721 0
M  V30 730 C 77.3461 -0.565478 1.50529 0
M  V30 731 O 78.5361 -0.38075 1.69988 0
M  V30 732 C 75.6681 -0.634944 3.34935 0
M  V30 733 H 76.8611 1.0863 2.79534 0
M  V30 734 H 74.4141 0.600951 1.44285 0
M  V30 735 H 75.1491 -1.48416 2.88346 0
M  V30 736 H 74.9341 -0.0444999 3.92075 0
M  V30 737 H 76.4241 -1.02648 4.04788 0
M  V30 738 N 76.8612 -1.46375 0.584142 0
M  V30 739 C 77.8082 -2.30323 -0.148286 0
M  V30 740 C 78.7782 -1.40703 -0.882713 0
M  V30 741 O 79.9632 -1.69651 -0.873099 0
M  V30 742 C 77.1032 -3.25196 -1.15507 0
M  V30 743 C 76.2162 -4.29915 -0.423943 0
M  V30 744 C 75.3512 -5.11914 -1.41838 0
M  V30 745 C 74.3902 -6.08381 -0.673736 0
M  V30 746 N 73.5272 -6.83242 -1.6163 0
M  V30 747 H 78.3672 -2.92427 0.573644 0
M  V30 748 H 75.9042 -1.44118 0.294703 0
M  V30 749 H 77.8622 -3.78646 -1.75166 0
M  V30 750 H 76.4922 -2.64898 -1.8447 0
M  V30 751 H 75.5442 -3.7931 0.287714 0
M  V30 752 H 76.8562 -4.98549 0.158128 0
M  V30 753 H 76.0102 -5.69648 -2.08773 0
M  V30 754 H 74.7492 -4.43243 -2.03438 0
M  V30 755 H 73.7542 -5.49799 0.00938483 0
M  V30 756 H 74.9792 -6.79071 -0.0631082 0
M  V30 757 H 72.9252 -6.1728 -2.22038 0
M  V30 758 H 72.8422 -7.48144 -1.08707 0
M  V30 759 H 74.1102 -7.45534 -2.27596 0
M  V30 760 N 78.3393 -0.321999 -1.54275 0
M  V30 761 C 79.5643 0.285791 -2.05422 0
M  V30 762 C 79.9893 1.45124 -1.19669 0
M  V30 763 O 79.3473 1.80132 -0.205441 0
M  V30 764 C 79.3953 0.69956 -3.53749 0
M  V30 765 O 78.4993 1.8021 -3.70942 0
M  V30 766 H 77.8403 0.0518962 -0.661969 0
M  V30 767 H 80.3703 -0.469954 -1.9913 0
M  V30 768 H 80.3803 0.982649 -3.9599 0
M  V30 769 H 79.0553 -0.152864 -4.15619 0
M  V30 770 H 77.6323 1.51794 -3.40607 0
M  V30 771 N 79.8174 1.5752 -0.0501392 0
M  V30 772 C 80.7494 2.08413 0.95376 0
M  V30 773 C 81.7624 1.01175 1.27544 0
M  V30 774 O 82.9514 1.28744 1.23641 0
M  V30 775 C 80.0514 2.51138 2.27559 0
M  V30 776 C 79.2244 3.817 2.13598 0
M  V30 777 C 78.2834 4.10749 3.28895 0
M  V30 778 O 77.3094 4.80685 3.04845 0
M  V30 779 N 78.5114 3.62579 4.5334 0
M  V30 780 H 81.2764 2.95165 0.519383 0
M  V30 781 H 78.8374 1.61327 0.136127 0
M  V30 782 H 80.8294 2.67648 3.03557 0
M  V30 783 H 79.3994 1.6964 2.62567 0
M  V30 784 H 78.6194 3.74782 1.22197 0
M  V30 785 H 79.9074 4.67201 2.01496 0
M  V30 786 H 79.3054 3.06039 4.75769 0
M  V30 787 H 77.8624 3.84329 5.26436 0
M  V30 788 N 81.2955 -0.223234 1.56011 0
M  V30 789 C 82.5415 -0.949279 1.79211 0
M  V30 790 C 82.8745 -1.84054 0.619494 0
M  V30 791 O 82.1495 -1.90726 -0.381317 0
M  V30 792 C 82.4325 -1.78965 3.12479 0
M  V30 793 C 82.2855 -0.924997 4.40186 0
M  V30 794 C 83.6045 -2.76774 3.42175 0
M  V30 795 H 80.7235 -0.343676 0.651963 0
M  V30 796 H 83.3655 -0.218253 1.88742 0
M  V30 797 H 81.5155 -2.41291 3.04485 0
M  V30 798 H 83.1875 -0.318615 4.60198 0
M  V30 799 H 81.4305 -0.230344 4.33188 0
M  V30 800 H 82.1015 -1.54735 5.29869 0
M  V30 801 H 84.5775 -2.24584 3.50287 0
M  V30 802 H 83.4535 -3.32678 4.36597 0
M  V30 803 H 83.7145 -3.54429 2.64258 0
M  V30 804 N 82.7736 -1.49793 -0.48987 0
M  V30 805 C 84.0226 -1.59085 -1.23995 0
M  V30 806 C 84.3356 -0.287907 -1.9347 0
M  V30 807 O 85.5416 -0.259506 -2.70257 0
M  V30 808 C 83.9976 -2.80736 -2.252 0
M  V30 809 C 83.6056 -4.17833 -1.61614 0
M  V30 810 C 85.3496 -2.99364 -3.00967 0
M  V30 811 C 83.2566 -5.30693 -2.60996 0
M  V30 812 H 82.1866 -0.592372 -0.466488 0
M  V30 813 H 84.8376 -1.76197 -0.51252 0
M  V30 814 H 83.2196 -2.57142 -3.01154 0
M  V30 815 H 84.3936 -4.51608 -0.915774 0
M  V30 816 H 82.7086 -4.04656 -0.981977 0
M  V30 817 H 85.3056 -3.80851 -3.75308 0
M  V30 818 H 85.6486 -2.10356 -3.59244 0
M  V30 819 H 86.1816 -3.2305 -2.32128 0
M  V30 820 H 82.9206 -6.21796 -2.07485 0
M  V30 821 H 82.4406 -5.01359 -3.2924 0
M  V30 822 H 84.1196 -5.6049 -3.23202 0
M  V30 823 N 84.2517 0.741722 -1.39055 0
M  V30 824 C 85.4767 1.53607 -1.39354 0
M  V30 825 C 85.9017 1.88096 0.0116905 0
M  V30 826 O 85.2597 1.5143 0.996924 0
M  V30 827 C 85.3077 2.80441 -2.26682 0
M  V30 828 O 84.4117 3.76088 -1.69208 0
M  V30 829 H 83.7527 0.464142 -0.474835 0
M  V30 830 H 86.2827 0.915665 -1.82967 0
M  V30 831 H 86.2927 3.29246 -2.40959 0
M  V30 832 H 84.9677 2.5467 -3.2881 0
M  V30 833 H 83.5447 3.34833 -1.64138 0
M  V30 834 N 85.7298 1.2412 0.971189 0
M  V30 835 C 86.6778 1.02812 2.08644 0
M  V30 836 C 87.6718 -0.0358403 1.69362 0
M  V30 837 O 88.8778 0.118429 1.7961 0
M  V30 838 H 85.2528 0.315428 0.682649 0
M  V30 839 H 87.2238 1.97397 2.23779 0
M  V30 840 C 85.9728 0.645874 3.41649 0
M  V30 841 H 85.2958 1.45632 3.72332 0
M  V30 842 H 86.7358 0.536366 4.20594 0
M  V30 843 C 85.1948 -0.646713 3.30635 0
M  V30 844 O 85.7248 -1.69338 3.64263 0
M  V30 845 N 83.9308 -0.626115 2.83775 0
M  V30 846 H 83.4778 0.225988 2.56607 0
M  V30 847 H 83.4358 -1.49117 2.76788 0
M  V30 848 N 87.2079 -1.17134 1.05439 0
M  V30 849 C 88.1709 -2.19439 0.661764 0
M  V30 850 C 89.1709 -1.58199 -0.288042 0
M  V30 851 O 90.3609 -1.74053 -0.0715803 0
M  V30 852 C 87.4929 -3.40889 -0.0276209 0
M  V30 853 H 88.6859 -2.55688 1.56728 0
M  V30 854 H 86.2389 -1.31259 0.848567 0
M  V30 855 H 86.9739 -3.10187 -0.94629 0
M  V30 856 H 86.7589 -3.86586 0.655238 0
M  V30 857 H 88.2489 -4.16603 -0.288342 0
M  V30 858 N 88.686 -0.835752 -1.33615 0
M  V30 859 C 89.633 -0.26473 -2.29277 0
M  V30 860 C 90.603 0.617712 -1.54187 0
M  V30 861 O 91.788 0.556641 -1.825 0
M  V30 862 C 88.928 0.556777 -3.40579 0
M  V30 863 C 88.041 -0.349339 -4.30585 0
M  V30 864 C 87.176 0.482969 -5.29 0
M  V30 865 C 86.215 -0.421732 -6.10645 0
M  V30 866 N 85.352 0.372262 -7.01112 0
M  V30 867 H 90.192 -1.08582 -2.77514 0
M  V30 868 H 87.729 -0.546927 -1.36554 0
M  V30 869 H 89.687 1.04852 -4.03809 0
M  V30 870 H 88.317 1.34286 -2.93542 0
M  V30 871 H 87.369 -0.959372 -3.68104 0
M  V30 872 H 88.681 -1.04445 -4.87742 0
M  V30 873 H 87.835 1.03866 -5.97743 0
M  V30 874 H 86.574 1.21153 -4.72412 0
M  V30 875 H 85.579 -0.989464 -5.40823 0
M  V30 876 H 86.804 -1.14861 -6.69316 0
M  V30 877 H 84.75 1.08426 -6.46977 0
M  V30 878 H 84.667 -0.264198 -7.55538 0
M  V30 879 H 85.935 0.910293 -7.74167 0
M  V30 880 N 90.1641 1.46063 -0.591896 0
M  V30 881 C 91.1121 2.32124 0.148739 0
M  V30 882 C 92.1061 1.45035 0.875286 0
M  V30 883 O 93.3121 1.61609 0.792632 0
M  V30 884 H 89.6871 0.749024 0.066832 0
M  V30 885 H 91.6581 2.92392 -0.595783 0
M  V30 886 C 90.4071 3.28373 1.1431 0
M  V30 887 H 89.7301 3.95371 0.59346 0
M  V30 888 H 91.1701 3.91352 1.63155 0
M  V30 889 C 89.6291 2.54393 2.20875 0
M  V30 890 O 90.1591 2.31373 3.28374 0
M  V30 891 N 88.3651 2.14797 1.95731 0
M  V30 892 H 87.9121 2.33719 1.08319 0
M  V30 893 H 87.8701 1.65619 2.67241 0
M  V30 894 N 91.6422 0.330177 1.54103 0
M  V30 895 C 92.8702 -0.272179 2.05102 0
M  V30 896 C 93.2852 -1.45267 1.20595 0
M  V30 897 O 92.6422 -1.8094 0.238144 0
M  V30 898 C 92.6932 -0.70023 3.54653 0
M  V30 899 O 92.4142 0.433301 4.35952 0
M  V30 900 C 93.9152 -1.3647 4.21771 0
M  V30 901 H 91.1352 -0.0549159 0.668749 0
M  V30 902 H 93.6792 0.478285 1.98828 0
M  V30 903 H 91.8342 -1.40066 3.61193 0
M  V30 904 H 92.2482 0.0947539 5.24414 0
M  V30 905 H 93.7222 -1.61509 5.27843 0
M  V30 906 H 94.1992 -2.31409 3.73292 0
M  V30 907 H 94.8052 -0.706675 4.19388 0
M  V30 908 N 93.1203 -1.57491 0.0584922 0
M  V30 909 C 94.3663 -1.93264 -0.614558 0
M  V30 910 C 94.6993 -0.937717 -1.7006 0
M  V30 911 O 93.9743 0.0351652 -1.94468 0
M  V30 912 C 94.2573 -3.3938 -1.20386 0
M  V30 913 C 94.1103 -4.49625 -0.125375 0
M  V30 914 C 95.4293 -3.86039 -2.11334 0
M  V30 915 H 92.5483 -0.702791 -0.221933 0
M  V30 916 H 95.1903 -1.8961 0.12175 0
M  V30 917 H 93.3403 -3.42626 -1.83139 0
M  V30 918 H 95.0123 -4.58506 0.506971 0
M  V30 919 H 93.2553 -4.30354 0.545672 0
M  V30 920 H 93.9263 -5.48967 -0.577861 0
M  V30 921 H 96.4023 -3.84716 -1.58534 0
M  V30 922 H 95.2783 -4.88914 -2.49507 0
M  V30 923 H 95.5393 -3.23215 -3.01636 0
M  V30 924 N 94.5984 0.214957 -1.56127 0
M  V30 925 C 95.5304 1.29004 -1.89448 0
M  V30 926 C 96.5434 1.42716 -0.783326 0
M  V30 927 O 97.7324 1.43496 -1.06166 0
M  V30 928 C 94.8324 2.66482 -2.09381 0
M  V30 929 C 94.0054 2.74633 -3.40434 0
M  V30 930 C 93.0644 3.9317 -3.49719 0
M  V30 931 O 92.0904 3.812 -4.227 0
M  V30 932 N 93.2924 5.07765 -2.81346 0
M  V30 933 H 96.0574 1.00743 -2.82261 0
M  V30 934 H 93.6184 0.40497 -1.56753 0
M  V30 935 H 95.6104 3.44173 -2.12901 0
M  V30 936 H 94.1804 2.87314 -1.23163 0
M  V30 937 H 93.4004 1.83368 -3.48955 0
M  V30 938 H 94.6884 2.77054 -4.26754 0
M  V30 939 H 94.0864 5.20386 -2.21843 0
M  V30 940 H 92.6434 5.83474 -2.90519 0
M  V30 941 N 96.0765 1.50051 0.48192 0
M  V30 942 C 97.3245 1.60181 1.23234 0
M  V30 943 C 97.6455 0.299176 1.92691 0
M  V30 944 O 96.9155 -0.682708 1.83619 0
M  V30 945 H 95.4955 0.590232 0.457859 0
M  V30 946 H 98.1575 1.86775 0.556881 0
M  V30 947 H 97.2535 2.40753 1.98607 0
M  V30 948 N 97.5546 -0.734337 1.39446 0
M  V30 949 C 98.8016 -1.49391 1.36706 0
M  V30 950 C 99.1296 -1.94465 -0.0367813 0
M  V30 951 O 98.3846 -1.67154 -1.01774 0
M  V30 952 C 98.6836 -2.74711 2.28623 0
M  V30 953 C 98.3496 -2.48501 3.76242 0
M  V30 954 C 97.0116 -2.41062 4.16464 0
M  V30 955 C 99.3636 -2.26098 4.69606 0
M  V30 956 C 96.6916 -2.09262 5.48112 0
M  V30 957 C 99.0436 -1.95814 6.01531 0
M  V30 958 C 97.7076 -1.86845 6.40816 0
M  V30 959 H 96.9776 -0.546661 0.500243 0
M  V30 960 H 99.6246 -0.842788 1.71957 0
M  V30 961 H 97.9296 -3.44569 1.86492 0
M  V30 962 H 99.6266 -3.32741 2.23796 0
M  V30 963 H 96.2166 -2.55169 3.44364 0
M  V30 964 H 100.401 -2.30812 4.39363 0
M  V30 965 H 95.6566 -2.00841 5.77471 0
M  V30 966 H 99.8306 -1.77488 6.73403 0
M  V30 967 H 97.4576 -1.6197 7.42745 0
M  V30 968 N 99.0327 -1.24633 -0.964593 0
M  V30 969 C 99.9797 -1.04144 -2.05968 0
M  V30 970 C 100.95 0.046262 -1.66036 0
M  V30 971 O 102.135 -0.108972 -1.90489 0
M  V30 972 C 99.2747 -0.65563 -3.38815 0
M  V30 973 C 98.3877 -1.81714 -3.91923 0
M  V30 974 C 97.5227 -1.37662 -5.13052 0
M  V30 975 C 96.5617 -2.50788 -5.58365 0
M  V30 976 N 95.6987 -2.07582 -6.70712 0
M  V30 977 H 100.539 -1.9787 -2.22827 0
M  V30 978 H 98.0757 -0.9855 -1.09208 0
M  V30 979 H 100.034 -0.412954 -4.15151 0
M  V30 980 H 98.6637 0.244627 -3.21872 0
M  V30 981 H 97.7157 -2.1734 -3.12198 0
M  V30 982 H 99.0277 -2.66705 -4.21509 0
M  V30 983 H 98.1817 -1.093 -5.96773 0
M  V30 984 H 96.9207 -0.497293 -4.85158 0
M  V30 985 H 95.9257 -2.79906 -4.73215 0
M  V30 986 H 97.1507 -3.39283 -5.88272 0
M  V30 987 H 95.0967 -1.22051 -6.44546 0
M  V30 988 H 95.0137 -2.86125 -6.99763 0
M  V30 989 H 96.2817 -1.82369 -7.57867 0
M  V30 990 N 100.511 1.16574 -1.06058 0
M  V30 991 C 101.927 1.3904 -0.783585 0
M  V30 992 C 102.127 1.91784 0.618145 0
M  V30 993 O 101.183 2.11511 1.37911 0
M  V30 994 C 102.496 2.37329 -1.84649 0
M  V30 995 C 104.044 2.51018 -1.86973 0
M  V30 996 C 104.519 3.52588 -2.92311 0
M  V30 997 N 106.01 3.60113 -2.91329 0
M  V30 998 C 106.745 4.38486 -3.69482 0
M  V30 999 N 106.241 5.20302 -4.57447 0
M  V30 1000 N 108.034 4.33446 -3.57885 0
M  V30 1001 H 100.185 0.806725 -1.96483 0
M  V30 1002 H 102.448 0.417117 -0.851303 0
M  V30 1003 H 102.154 2.05663 -2.85299 0
M  V30 1004 H 102.028 3.36946 -1.6955 0
M  V30 1005 H 104.415 2.81989 -0.869827 0
M  V30 1006 H 104.496 1.51445 -2.0615 0
M  V30 1007 H 104.14 3.22354 -3.92492 0
M  V30 1008 H 104.07 4.51886 -2.70383 0
M  V30 1009 H 106.561 3.01707 -2.27555 0
M  V30 1010 H 106.874 5.77311 -5.13743 0
M  V30 1011 H 105.219 5.19653 -4.61503 0
M  V30 1012 H 108.41 3.68586 -2.88551 0
M  V30 1013 H 108.583 4.94279 -4.19037 0
M  V30 1014 N 101.989 0.842826 1.3317 0
M  V30 1015 C 103.236 0.440447 1.97652 0
M  V30 1016 C 103.564 -1.00123 1.6675 0
M  V30 1017 O 102.819 -1.7155 0.941761 0
M  V30 1018 C 103.118 0.612607 3.52111 0
M  V30 1019 C 102.784 2.02297 4.02972 0
M  V30 1020 C 101.446 2.40874 4.16573 0
M  V30 1021 C 103.798 2.94402 4.30089 0
M  V30 1022 C 101.126 3.70852 4.54627 0
M  V30 1023 C 103.478 4.23865 4.69597 0
M  V30 1024 C 102.142 4.62392 4.81404 0
M  V30 1025 H 101.412 0.161171 0.72326 0
M  V30 1026 H 104.059 1.07061 1.58777 0
M  V30 1027 H 102.364 -0.100849 3.9167 0
M  V30 1028 H 104.061 0.2815 4.00011 0
M  V30 1029 H 100.651 1.71338 3.92863 0
M  V30 1030 H 104.835 2.65835 4.19101 0
M  V30 1031 H 100.091 4.00501 4.61962 0
M  V30 1032 H 104.265 4.95306 4.89536 0
M  V30 1033 H 101.892 5.63154 5.10648 0
M  V30 1034 N 103.467 -1.45747 0.599634 0
M  V30 1035 C 104.417 -2.27538 -0.145107 0
M  V30 1036 C 105.401 -1.3686 -0.846055 0
M  V30 1037 O 106.593 -1.6091 -0.737357 0
M  V30 1038 C 103.722 -3.23569 -1.14708 0
M  V30 1039 C 102.808 -4.21734 -0.447383 0
M  V30 1040 N 103.199 -5.03257 0.506535 0
M  V30 1041 C 101.497 -4.40536 -0.695966 0
M  V30 1042 C 102.198 -5.74426 0.917068 0
M  V30 1043 N 101.174 -5.42966 0.26253 0
M  V30 1044 H 104.976 -2.87965 0.587672 0
M  V30 1045 H 102.49 -1.56803 0.422697 0
M  V30 1046 H 104.487 -3.8089 -1.69495 0
M  V30 1047 H 103.147 -2.64702 -1.8805 0
M  V30 1048 H 104.158 -5.10319 0.882899 0
M  V30 1049 H 100.835 -3.92802 -1.41467 0
M  V30 1050 H 102.225 -6.4995 1.70338 0
M  V30 1051 N 104.945 -0.338344 -1.53925 0
M  V30 1052 C 106.193 0.259245 -2.0043 0
M  V30 1053 C 106.514 1.51484 -1.22791 0
M  V30 1054 O 105.784 1.93037 -0.33368 0
M  V30 1055 H 104.364 0.0987845 -0.740439 0
M  V30 1056 H 107.026 -0.458302 -1.89435 0
M  V30 1057 H 106.122 0.505334 -3.07982 0
M  V30 1058 N 106.423 1.57458 -0.0668435 0
M  V30 1059 C 107.839 1.56947 0.289772 0
M  V30 1060 C 108.039 1.07584 1.70376 0
M  V30 1061 O 107.095 0.739486 2.41429 0
M  V30 1062 C 108.408 3.0052 0.103943 0
M  V30 1063 C 109.956 3.12517 0.173857 0
M  V30 1064 C 110.431 4.57997 0.0163682 0
M  V30 1065 N 111.922 4.63144 0.0721352 0
M  V30 1066 C 112.657 5.73394 -0.0253794 0
M  V30 1067 N 112.153 6.92576 -0.176133 0
M  V30 1068 N 113.946 5.62091 0.0313305 0
M  V30 1069 H 106.097 1.87863 -0.991027 0
M  V30 1070 H 108.36 0.86583 -0.38606 0
M  V30 1071 H 108.066 3.40729 -0.871572 0
M  V30 1072 H 107.94 3.67304 0.858366 0
M  V30 1073 H 110.327 2.72197 1.13985 0
M  V30 1074 H 110.408 2.48381 -0.611586 0
M  V30 1075 H 110.052 4.99005 -0.946374 0
M  V30 1076 H 109.982 5.20158 0.821153 0
M  V30 1077 H 112.473 3.77436 0.187263 0
M  V30 1078 H 112.786 7.72418 -0.242821 0
M  V30 1079 H 111.131 6.94678 -0.211429 0
M  V30 1080 H 114.322 4.67867 0.147773 0
M  V30 1081 H 114.495 6.47982 -0.048121 0
M  V30 1082 N 107.901 -0.206675 1.56239 0
M  V30 1083 C 108.864 -1.23976 1.92776 0
M  V30 1084 C 109.864 -1.39041 0.807729 0
M  V30 1085 O 111.054 -1.37051 1.0753 0
M  V30 1086 C 108.186 -2.61112 2.19165 0
M  V30 1087 H 109.379 -0.927764 2.85189 0
M  V30 1088 H 106.932 -0.447718 1.4975 0
M  V30 1089 H 107.667 -2.97386 1.29352 0
M  V30 1090 H 107.452 -2.51552 3.00772 0
M  V30 1091 H 108.942 -3.35633 2.48476 0
M  V30 1092 N 109.379 -1.50304 -0.473955 0
M  V30 1093 C 110.626 -1.6115 -1.22625 0
M  V30 1094 C 110.954 -0.310517 -1.92005 0
M  V30 1095 O 110.209 0.703419 -1.82621 0
M  V30 1096 C 110.508 -2.73938 -2.29549 0
M  V30 1097 C 110.174 -4.14519 -1.7744 0
M  V30 1098 C 108.836 -4.5277 -1.62949 0
M  V30 1099 C 111.188 -5.02392 -1.3875 0
M  V30 1100 C 108.516 -5.76639 -1.08187 0
M  V30 1101 C 110.868 -6.26805 -0.854309 0
M  V30 1102 C 109.532 -6.63861 -0.696011 0
M  V30 1103 H 108.802 -0.589691 -0.448715 0
M  V30 1104 H 111.449 -1.84228 -0.522705 0
M  V30 1105 H 109.754 -2.44937 -3.05799 0
M  V30 1106 H 111.451 -2.79534 -2.87509 0
M  V30 1107 H 108.041 -3.8434 -1.89685 0
M  V30 1108 H 112.225 -4.73474 -1.4878 0
M  V30 1109 H 107.481 -6.04027 -0.946666 0
M  V30 1110 H 111.655 -6.94258 -0.545843 0
M  V30 1111 H 109.282 -7.59722 -0.26952 0
M  V30 1112 N 110.857 0.726932 -1.39834 0
M  V30 1113 C 112.082 1.52121 -1.40976 0
M  V30 1114 C 112.507 1.88098 -0.00826029 0
M  V30 1115 O 111.865 1.52479 0.980807 0
M  V30 1116 C 111.913 2.78021 -2.29644 0
M  V30 1117 O 111.017 3.74272 -1.73188 0
M  V30 1118 H 110.358 0.45908 -0.479731 0
M  V30 1119 H 112.888 0.896207 -1.83927 0
M  V30 1120 H 112.898 3.26671 -2.44438 0
M  V30 1121 H 111.573 2.51169 -3.31492 0
M  V30 1122 H 110.15 3.33073 -1.6768 0
M  V30 1123 N 112.336 1.25143 0.95797 0
M  V30 1124 C 113.613 1.00472 1.67823 0
M  V30 1125 C 113.993 -0.470056 2.058 0
M  V30 1126 O 113.341 -1.44663 1.76875 0
M  V30 1127 C 113.551 1.9372 2.90299 0
M  V30 1128 C 114.899 2.21371 3.62326 0
M  V30 1129 O 115.923 1.91451 3.00375 0
M  V30 1130 O 114.782 2.72231 4.7387 0
M  V30 1131 H 111.876 0.380752 0.734137 0
M  V30 1132 H 114.422 1.36283 1.01119 0
M  V30 1133 H 113.194 2.93316 2.59001 0
M  V30 1134 H 112.817 1.58286 3.64735 0
M  V30 1135 N 113.814 -1.1601 1.06675 0
M  V30 1136 C 115.225 -1.68235 0.809565 0
M  V30 1137 C 115.576 -1.8454 -0.666303 0
M  V30 1138 O 114.701 -1.54374 -1.5165 0
M  V30 1139 C 115.296 -3.05585 1.46299 0
M  V30 1140 C 113.855 -3.54915 1.25349 0
M  V30 1141 C 113.002 -2.30804 1.53703 0
M  V30 1142 H 115.953 -1.00318 1.22971 0
M  V30 1143 H 115.974 -3.70174 0.880431 0
M  V30 1144 H 115.486 -2.93686 2.53713 0
M  V30 1145 H 113.587 -3.72067 0.199261 0
M  V30 1146 H 113.7 -4.36774 1.9689 0
M  V30 1147 H 112.064 -2.36007 0.957739 0
M  V30 1148 H 112.847 -2.21499 2.62284 0
M  V30 1149 N 115.292 -0.849877 -1.32721 0
M  V30 1150 C 116.539 -0.450923 -1.97416 0
M  V30 1151 C 116.867 0.992376 -1.67279 0
M  V30 1152 O 116.122 1.71048 -0.950845 0
M  V30 1153 C 116.421 -0.631272 -3.51781 0
M  V30 1154 C 116.087 -2.04432 -4.01894 0
M  V30 1155 C 114.749 -2.4308 -4.1529 0
M  V30 1156 C 117.101 -2.96679 -4.28522 0
M  V30 1157 C 114.429 -3.73257 -4.52654 0
M  V30 1158 C 116.781 -4.26349 -4.67343 0
M  V30 1159 C 115.445 -4.64939 -4.78945 0
M  V30 1160 H 114.715 -0.165004 -0.722395 0
M  V30 1161 H 117.362 -1.07901 -1.58207 0
M  V30 1162 H 115.667 0.0800767 -3.91718 0
M  V30 1163 H 117.364 -0.302709 -3.99856 0
M  V30 1164 H 113.954 -1.73419 -3.91949 0
M  V30 1165 H 118.138 -2.68054 -4.17685 0
M  V30 1166 H 113.394 -4.02946 -4.59831 0
M  V30 1167 H 117.568 -4.97895 -4.86902 0
M  V30 1168 H 115.195 -5.65855 -5.07654 0
M  V30 1169 N 116.77 1.45427 -0.607355 0
M  V30 1170 C 118.016 2.0254 -0.102607 0
M  V30 1171 C 118.349 1.47478 1.26348 0
M  V30 1172 O 117.624 0.64939 1.83339 0
M  V30 1173 C 117.907 3.60044 -0.0634347 0
M  V30 1174 C 117.76 4.2544 -1.46017 0
M  V30 1175 C 119.079 4.35646 0.624514 0
M  V30 1176 H 116.198 0.73598 -0.0387607 0
M  V30 1177 H 118.84 1.73284 -0.779282 0
M  V30 1178 H 116.99 3.85101 0.512808 0
M  V30 1179 H 118.662 4.11569 -2.08347 0
M  V30 1180 H 116.905 3.83849 -2.02094 0
M  V30 1181 H 117.576 5.34342 -1.385 0
M  V30 1182 H 120.052 4.15882 0.134723 0
M  V30 1183 H 118.928 5.45376 0.621028 0
M  V30 1184 H 119.189 4.08501 1.69055 0
M  V30 1185 N 118.248 0.346503 1.53744 0
M  V30 1186 C 119.158 -0.517293 2.28826 0
M  V30 1187 C 120.174 -1.10935 1.3405 0
M  V30 1188 O 121.35 -1.1244 1.6709 0
M  V30 1189 C 118.415 -1.65098 3.04866 0
M  V30 1190 C 117.476 -1.0884 4.15274 0
M  V30 1191 C 116.709 -2.16806 4.87679 0
M  V30 1192 O 116.932 -3.3758 4.59778 0
M  V30 1193 O 115.866 -1.80934 5.74061 0
M  V30 1194 H 119.692 0.0931396 3.03557 0
M  V30 1195 H 117.277 0.111458 1.48984 0
M  V30 1196 H 119.159 -2.31053 3.5241 0
M  V30 1197 H 117.834 -2.24717 2.32989 0
M  V30 1198 H 116.741 -0.3933 3.72027 0
M  V30 1199 H 118.074 -0.537036 4.89261 0
M  V30 1200 N 119.726 -1.57421 0.075193 0
M  V30 1201 C 120.689 -2.11791 -0.876203 0
M  V30 1202 C 121.689 -1.04268 -1.22412 0
M  V30 1203 O 122.879 -1.30242 -1.15684 0
M  V30 1204 C 120.011 -2.62207 -2.17854 0
M  V30 1205 H 121.204 -2.9716 -0.40444 0
M  V30 1206 H 118.757 -1.55333 -0.173557 0
M  V30 1207 H 119.492 -1.803 -2.6956 0
M  V30 1208 H 119.277 -3.40802 -1.93897 0
M  V30 1209 H 120.767 -3.04335 -2.85955 0
M  V30 1210 N 121.204 0.198386 -1.56346 0
M  V30 1211 C 122.114 1.2664 -1.97483 0
M  V30 1212 C 123.13 1.49989 -0.882002 0
M  V30 1213 O 124.306 1.62668 -1.18748 0
M  V30 1214 C 121.371 2.59141 -2.30319 0
M  V30 1215 C 120.432 2.43892 -3.53292 0
M  V30 1216 C 119.665 3.70074 -3.84553 0
M  V30 1217 O 119.888 4.74101 -3.1715 0
M  V30 1218 O 118.822 3.658 -4.7799 0
M  V30 1219 H 122.648 0.947304 -2.88548 0
M  V30 1220 H 120.233 0.403123 -1.43859 0
M  V30 1221 H 122.115 3.37352 -2.5253 0
M  V30 1222 H 120.79 2.90684 -1.42423 0
M  V30 1223 H 119.697 1.63803 -3.36332 0
M  V30 1224 H 121.03 2.17282 -4.41644 0
M  V30 1225 N 122.682 1.50554 0.465978 0
M  V30 1226 C 123.629 1.6979 1.56333 0
M  V30 1227 C 124.599 0.539239 1.57103 0
M  V30 1228 O 125.784 0.770401 1.74555 0
M  V30 1229 C 122.924 1.80273 2.94271 0
M  V30 1230 C 122.037 3.07674 3.0325 0
M  V30 1231 C 121.172 3.08922 4.32135 0
M  V30 1232 C 120.211 4.30755 4.34875 0
M  V30 1233 N 119.348 4.29714 5.55239 0
M  V30 1234 H 124.188 2.63472 1.39235 0
M  V30 1235 H 121.725 1.30602 0.676873 0
M  V30 1236 H 123.683 1.84332 3.74269 0
M  V30 1237 H 122.313 0.900258 3.09992 0
M  V30 1238 H 121.365 3.13062 2.16094 0
M  V30 1239 H 122.677 3.97642 3.01135 0
M  V30 1240 H 121.831 3.11738 5.20485 0
M  V30 1241 H 120.57 2.16792 4.36866 0
M  V30 1242 H 119.575 4.28146 3.44922 0
M  V30 1243 H 120.8 5.24117 4.31831 0
M  V30 1244 H 118.746 3.4044 5.60746 0
M  V30 1245 H 118.663 5.13456 5.54886 0
M  V30 1246 H 119.931 4.36683 6.457 0
M  V30 1247 N 124.16 -0.719506 1.40217 0
M  V30 1248 C 125.385 -1.51371 1.4178 0
M  V30 1249 C 125.81 -1.88091 0.0182355 0
M  V30 1250 O 125.168 -1.52997 -0.972707 0
M  V30 1251 C 125.216 -2.768 2.31115 0
M  V30 1252 O 124.32 -3.73349 1.7517 0
M  V30 1253 H 123.661 -0.456529 0.482159 0
M  V30 1254 H 126.191 -0.88644 1.844 0
M  V30 1255 H 126.201 -3.25371 2.46167 0
M  V30 1256 H 124.876 -2.49407 3.3282 0
M  V30 1257 H 123.453 -3.32179 1.69444 0
M  V30 1258 N 125.638 -1.25649 -0.95132 0
M  V30 1259 C 126.586 -1.06118 -2.06982 0
M  V30 1260 C 127.58 0.00889169 -1.69398 0
M  V30 1261 O 128.786 -0.146988 -1.79399 0
M  V30 1262 H 125.161 -0.326248 -0.677544 0
M  V30 1263 H 127.132 -2.00932 -2.2061 0
M  V30 1264 C 125.881 -0.700145 -3.40578 0
M  V30 1265 H 125.204 -1.51537 -3.69968 0
M  V30 1266 H 126.644 -0.603211 -4.19687 0
M  V30 1267 C 125.103 0.59403 -3.31622 0
M  V30 1268 O 125.633 1.63522 -3.66911 0
M  V30 1269 N 123.839 0.58089 -2.84735 0
M  V30 1270 H 123.386 -0.266783 -2.56215 0
M  V30 1271 H 123.344 1.44695 -2.79125 0
M  V30 1272 N 127.117 1.15442 -1.07289 0
M  V30 1273 C 128.047 2.22312 -0.714107 0
M  V30 1274 C 129.028 1.67467 0.298155 0
M  V30 1275 O 130.213 1.93445 0.171048 0
M  V30 1276 C 127.343 3.47124 -0.110448 0
M  V30 1277 C 126.297 4.14926 -1.04979 0
M  V30 1278 C 125.623 5.33807 -0.308924 0
M  V30 1279 C 126.923 4.64762 -2.38314 0
M  V30 1280 H 128.617 2.5258 -1.6076 0
M  V30 1281 H 126.163 1.21404 -0.77441 0
M  V30 1282 H 128.116 4.21124 0.152482 0
M  V30 1283 H 126.84 3.16187 0.81812 0
M  V30 1284 H 125.499 3.42866 -1.29764 0
M  V30 1285 H 125.147 4.99126 0.623084 0
M  V30 1286 H 124.847 5.80113 -0.935036 0
M  V30 1287 H 126.371 6.10576 -0.0537771 0
M  V30 1288 H 127.785 5.30292 -2.1786 0
M  V30 1289 H 126.182 5.21728 -2.96514 0
M  V30 1290 H 127.252 3.80434 -3.00663 0
M  V30 1291 N 128.595 0.856903 1.32268 0
M  V30 1292 C 129.558 0.308171 2.27119 0
M  V30 1293 C 130.558 -0.533421 1.51695 0
M  V30 1294 O 131.748 -0.344607 1.70757 0
M  V30 1295 C 128.88 -0.563757 3.36206 0
M  V30 1296 H 130.073 1.14535 2.77167 0
M  V30 1297 H 127.626 0.631421 1.42978 0
M  V30 1298 H 128.361 -1.42266 2.91429 0
M  V30 1299 H 128.146 0.0386749 3.92081 0
M  V30 1300 H 129.636 -0.940386 4.06874 0
M  V30 1301 N 130.073 -1.45103 0.615059 0
M  V30 1302 C 131.303 -2.06254 0.119596 0
M  V30 1303 C 131.711 -1.4591 -1.20445 0
M  V30 1304 O 131.054 -0.570384 -1.7462 0
M  V30 1305 C 131.116 -3.59396 -0.0865591 0
M  V30 1306 C 130.78 -4.42116 1.15683 0
M  V30 1307 C 131.777 -4.7662 2.07676 0
M  V30 1308 C 129.462 -4.82749 1.38775 0
M  V30 1309 C 131.456 -5.50622 3.21082 0
M  V30 1310 C 129.143 -5.56504 2.52481 0
M  V30 1311 C 130.141 -5.90358 3.43463 0
M  V30 1312 O 129.829 -6.62615 4.55189 0
M  V30 1313 H 129.561 -0.672423 0.0694512 0
M  V30 1314 H 132.115 -1.87219 0.844885 0
M  V30 1315 H 130.345 -3.76859 -0.866823 0
M  V30 1316 H 132.034 -4.02365 -0.534555 0
M  V30 1317 H 132.8 -4.4578 1.91063 0
M  V30 1318 H 128.679 -4.55829 0.688545 0
M  V30 1319 H 132.223 -5.76965 3.92119 0
M  V30 1320 H 128.12 -5.86759 2.69043 0
M  V30 1321 H 128.888 -6.81071 4.53966 0
M  V30 1322 N 131.551 -0.354651 -1.53558 0
M  V30 1323 C 132.828 0.294281 -1.93374 0
M  V30 1324 C 133.208 1.67313 -1.28723 0
M  V30 1325 O 132.556 2.24179 -0.442247 0
M  V30 1326 C 132.766 0.355445 -3.47185 0
M  V30 1327 C 134.114 0.601007 -4.20325 0
M  V30 1328 O 135.138 0.437106 -3.53508 0
M  V30 1329 O 133.997 0.919322 -5.38712 0
M  V30 1330 H 131.091 0.174033 -0.808481 0
M  V30 1331 H 133.637 -0.406638 -1.64756 0
M  V30 1332 H 132.409 -0.611729 -3.86489 0
M  V30 1333 H 132.032 1.1027 -3.82003 0
M  V30 1334 N 133.029 1.57378 -0.0835403 0
M  V30 1335 C 134.278 1.93106 0.582498 0
M  V30 1336 C 134.591 0.96651 1.70053 0
M  V30 1337 O 135.797 1.21705 2.42693 0
M  V30 1338 C 134.253 3.43076 1.08751 0
M  V30 1339 C 133.861 4.48 -0.000146404 0
M  V30 1340 C 135.605 3.87785 1.72694 0
M  V30 1341 C 133.512 5.89113 0.519568 0
M  V30 1342 H 132.442 0.720775 0.221358 0
M  V30 1343 H 135.093 1.82821 -0.157675 0
M  V30 1344 H 133.475 3.48474 1.88101 0
M  V30 1345 H 134.649 4.54233 -0.775199 0
M  V30 1346 H 132.964 4.1283 -0.54406 0
M  V30 1347 H 135.561 4.90604 2.1263 0
M  V30 1348 H 135.904 3.25796 2.59158 0
M  V30 1349 H 136.437 3.8504 0.999457 0
M  V30 1350 H 133.176 6.54775 -0.308186 0
M  V30 1351 H 132.696 5.86376 1.26188 0
M  V30 1352 H 134.375 6.39346 0.992237 0
M  V30 1353 N 134.507 -0.190092 1.56449 0
M  V30 1354 C 135.753 -0.911052 1.81184 0
M  V30 1355 C 136.086 -1.82699 0.658396 0
M  V30 1356 O 135.361 -1.91491 -0.340775 0
M  V30 1357 C 135.644 -1.72297 3.16205 0
M  V30 1358 C 135.497 -0.831419 4.42049 0
M  V30 1359 C 136.816 -2.69454 3.47969 0
M  V30 1360 H 133.935 -0.32977 0.659106 0
M  V30 1361 H 136.577 -0.178169 1.89163 0
M  V30 1362 H 134.727 -2.34778 3.09534 0
M  V30 1363 H 136.399 -0.220929 4.60771 0
M  V30 1364 H 134.642 -0.138406 4.33579 0
M  V30 1365 H 135.313 -1.43461 5.33032 0
M  V30 1366 H 137.789 -2.17104 3.54972 0
M  V30 1367 H 136.665 -3.23342 4.43555 0
M  V30 1368 H 136.926 -3.48744 2.71717 0
M  V30 1369 N 135.985 -1.50799 -0.457987 0
M  V30 1370 C 136.917 -1.66786 -1.57211 0
M  V30 1371 C 137.93 -0.548962 -1.53265 0
M  V30 1372 O 139.119 -0.8226 -1.58416 0
M  V30 1373 C 136.219 -1.64834 -2.96113 0
M  V30 1374 C 135.392 -2.92971 -3.24787 0
M  V30 1375 C 134.451 -2.83485 -4.43309 0
M  V30 1376 O 133.477 -3.5744 -4.42973 0
M  V30 1377 N 134.679 -1.97929 -5.45714 0
M  V30 1378 H 137.444 -2.62889 -1.43909 0
M  V30 1379 H 135.005 -1.48427 -0.646617 0
M  V30 1380 H 136.997 -1.56084 -3.7339 0
M  V30 1381 H 135.567 -0.764118 -3.03117 0
M  V30 1382 H 134.787 -3.15749 -2.36 0
M  V30 1383 H 136.075 -3.77834 -3.40762 0
M  V30 1384 H 135.473 -1.37182 -5.48815 0
M  V30 1385 H 134.03 -1.95073 -6.21924 0
M  V30 1386 N 137.463 0.71206 -1.40597 0
M  V30 1387 C 138.393 1.83889 -1.43899 0
M  V30 1388 C 139.374 1.67442 -0.299504 0
M  V30 1389 O 140.559 1.87421 -0.508624 0
M  V30 1390 C 137.689 3.21877 -1.30431 0
M  V30 1391 C 136.643 3.53002 -2.42019 0
M  V30 1392 C 135.969 4.90172 -2.13626 0
M  V30 1393 C 137.269 3.53643 -3.84362 0
M  V30 1394 H 138.963 1.81383 -2.38203 0
M  V30 1395 H 136.509 0.871237 -1.14654 0
M  V30 1396 H 138.462 4.00404 -1.31357 0
M  V30 1397 H 137.186 3.24968 -0.326049 0
M  V30 1398 H 135.845 2.76818 -2.40349 0
M  V30 1399 H 135.493 4.89869 -1.14182 0
M  V30 1400 H 135.193 5.11962 -2.88389 0
M  V30 1401 H 136.717 5.71028 -2.1624 0
M  V30 1402 H 138.131 4.22203 -3.87837 0
M  V30 1403 H 136.528 3.86961 -4.58673 0
M  V30 1404 H 137.598 2.52954 -4.13693 0
M  V30 1405 N 138.941 1.26152 0.944643 0
M  V30 1406 C 140.352 1.10454 1.50522 0
M  V30 1407 C 140.703 -0.31635 1.93633 0
M  V30 1408 O 139.828 -1.20746 1.79581 0
M  V30 1409 C 140.423 1.99891 2.73549 0
M  V30 1410 C 138.982 1.88348 3.25886 0
M  V30 1411 C 138.129 1.93447 1.9868 0
M  V30 1412 H 141.08 1.39292 0.760489 0
M  V30 1413 H 141.101 1.54477 3.47732 0
M  V30 1414 H 140.613 3.03297 2.42141 0
M  V30 1415 H 138.714 0.878636 3.62092 0
M  V30 1416 H 138.827 2.73696 3.93227 0
M  V30 1417 H 137.191 1.37456 2.14425 0
M  V30 1418 H 137.974 2.98476 1.69607 0
M  V30 1419 N 140.419 -1.14872 1.07899 0
M  V30 1420 C 141.647 -1.89661 0.82683 0
M  V30 1421 C 142.062 -1.78312 -0.620519 0
M  V30 1422 O 141.419 -1.13888 -1.42604 0
M  V30 1423 C 141.47 -3.39817 1.23316 0
M  V30 1424 O 141.191 -3.50845 2.62372 0
M  V30 1425 C 142.692 -4.31615 1.0111 0
M  V30 1426 H 139.912 -0.60092 0.298557 0
M  V30 1427 H 142.456 -1.4551 1.43691 0
M  V30 1428 H 140.611 -3.8161 0.667286 0
M  V30 1429 H 141.025 -4.44076 2.79101 0
M  V30 1430 H 142.499 -5.35367 1.34486 0
M  V30 1431 H 142.976 -4.39169 -0.0522168 0
M  V30 1432 H 143.582 -3.95572 1.56215 0
M  V30 1433 N 141.898 -0.863906 -1.31812 0
M  V30 1434 C 143.146 -0.470904 -1.96537 0
M  V30 1435 C 143.467 0.978771 -1.68657 0
M  V30 1436 O 142.737 1.6853 -0.998717 0
M  V30 1437 H 141.317 -0.171148 -0.72713 0
M  V30 1438 H 143.979 -1.10236 -1.60729 0
M  V30 1439 H 143.075 -0.623616 -3.05806 0
M  V30 1440 N 143.376 1.44774 -0.622745 0
M  V30 1441 C 144.306 2.33382 0.0741861 0
M  V30 1442 C 145.287 1.47719 0.843387 0
M  V30 1443 O 146.472 1.76458 0.810934 0
M  V30 1444 C 143.602 3.30663 1.06204 0
M  V30 1445 C 142.556 4.26079 0.405037 0
M  V30 1446 C 141.882 5.13165 1.5022 0
M  V30 1447 C 143.182 5.1781 -0.683414 0
M  V30 1448 H 144.876 2.91905 -0.665713 0
M  V30 1449 H 142.422 1.40363 -0.321587 0
M  V30 1450 H 144.375 3.9153 1.55827 0
M  V30 1451 H 143.099 2.70331 1.83272 0
M  V30 1452 H 141.758 3.66532 -0.0704683 0
M  V30 1453 H 141.406 4.49191 2.26355 0
M  V30 1454 H 141.106 5.77812 1.06803 0
M  V30 1455 H 142.63 5.76902 2.00041 0
M  V30 1456 H 144.044 5.72661 -0.270631 0
M  V30 1457 H 142.441 5.91015 -1.04023 0
M  V30 1458 H 143.511 4.59326 -1.55395 0
M  V30 1459 N 144.854 0.36279 1.53368 0
M  V30 1460 C 146.082 -0.228613 2.05633 0
M  V30 1461 C 146.497 -1.42676 1.23649 0
M  V30 1462 O 145.854 -1.80394 0.27647 0
M  V30 1463 C 145.905 -0.624845 3.56059 0
M  V30 1464 O 145.626 0.525675 4.34935 0
M  V30 1465 C 147.127 -1.27493 4.24571 0
M  V30 1466 H 144.347 -0.0407183 0.669763 0
M  V30 1467 H 146.891 0.520352 1.97769 0
M  V30 1468 H 145.046 -1.32373 3.64083 0
M  V30 1469 H 145.46 0.205969 5.24095 0
M  V30 1470 H 146.934 -1.50277 5.31151 0
M  V30 1471 H 147.411 -2.23439 3.78116 0
M  V30 1472 H 148.017 -0.617558 4.20792 0
M  V30 1473 N 146.332 -1.57332 0.0918853 0
M  V30 1474 C 147.58 -1.93853 -0.571446 0
M  V30 1475 C 147.901 -0.974212 -1.6892 0
M  V30 1476 O 147.171 -0.0257254 -1.95883 0
M  V30 1477 H 145.751 -0.715666 -0.214082 0
M  V30 1478 H 148.413 -1.94287 0.154464 0
M  V30 1479 H 147.509 -2.96191 -0.983729 0
M  V30 1480 N 147.81 0.181792 -1.56548 0
M  V30 1481 C 149.059 0.898348 -1.8059 0
M  V30 1482 C 149.372 1.83862 -0.667379 0
M  V30 1483 O 150.578 2.59678 -0.792446 0
M  V30 1484 C 149.034 1.64791 -3.19956 0
M  V30 1485 C 148.642 0.751789 -4.41647 0
M  V30 1486 C 150.386 2.35331 -3.53298 0
M  V30 1487 C 148.293 1.50098 -5.72035 0
M  V30 1488 H 147.223 0.339194 -0.673397 0
M  V30 1489 H 149.874 0.151413 -1.82874 0
M  V30 1490 H 148.256 2.43921 -3.11959 0
M  V30 1491 H 149.43 -0.0018076 -4.608 0
M  V30 1492 H 147.745 0.156562 -4.16106 0
M  V30 1493 H 150.342 2.91958 -4.47956 0
M  V30 1494 H 150.685 3.10164 -2.77676 0
M  V30 1495 H 151.218 1.63154 -3.62803 0
M  V30 1496 H 147.957 0.795175 -6.50659 0
M  V30 1497 H 147.477 2.22817 -5.56878 0
M  V30 1498 H 149.156 2.05125 -6.13622 0
M  V30 1499 N 149.288 1.51039 0.449983 0
M  V30 1500 C 150.235 1.71439 1.54523 0
M  V30 1501 C 151.205 0.555871 1.56522 0
M  V30 1502 O 152.39 0.788871 1.73728 0
M  V30 1503 C 149.53 1.83384 2.92343 0
M  V30 1504 C 148.643 3.10873 2.9997 0
M  V30 1505 C 147.778 3.13488 4.28834 0
M  V30 1506 C 146.817 4.35343 4.30282 0
M  V30 1507 N 145.954 4.35579 5.5065 0
M  V30 1508 H 150.794 2.64934 1.36433 0
M  V30 1509 H 148.331 1.31312 0.662982 0
M  V30 1510 H 150.289 1.88291 3.72293 0
M  V30 1511 H 148.919 0.933086 3.0902 0
M  V30 1512 H 147.971 3.15336 2.12761 0
M  V30 1513 H 149.283 4.00814 2.96901 0
M  V30 1514 H 148.437 3.17241 5.17149 0
M  V30 1515 H 147.176 2.21414 4.34543 0
M  V30 1516 H 146.181 4.3178 3.40362 0
M  V30 1517 H 147.406 5.28668 4.26248 0
M  V30 1518 H 145.352 3.46369 5.57104 0
M  V30 1519 H 145.269 5.19313 5.49409 0
M  V30 1520 H 146.537 4.43507 6.41032 0
M  V30 1521 N 150.766 -0.704594 1.40972 0
M  V30 1522 C 152.012 -1.46675 1.40051 0
M  V30 1523 C 152.345 -1.94199 0.00641102 0
M  V30 1524 O 151.62 -1.68916 -0.964235 0
M  V30 1525 C 151.903 -2.68505 2.39952 0
M  V30 1526 C 151.756 -2.26805 3.88432 0
M  V30 1527 C 153.075 -3.70686 2.37233 0
M  V30 1528 H 150.194 -0.532015 0.510028 0
M  V30 1529 H 152.836 -0.803255 1.72185 0
M  V30 1530 H 150.986 -3.25114 2.1268 0
M  V30 1531 H 152.658 -1.75592 4.26574 0
M  V30 1532 H 150.901 -1.58685 4.03734 0
M  V30 1533 H 151.572 -3.14181 4.53866 0
M  V30 1534 H 154.048 -3.23731 2.61415 0
M  V30 1535 H 152.924 -4.53553 3.09162 0
M  V30 1536 H 153.185 -4.19754 1.38777 0
M  V30 1537 N 152.244 -1.26651 -0.937939 0
M  V30 1538 C 153.472 -1.15173 -1.7188 0
M  V30 1539 C 153.887 0.292668 -1.86518 0
M  V30 1540 O 153.244 1.20014 -1.37488 0
M  V30 1541 C 153.295 -1.81925 -3.12387 0
M  V30 1542 O 153.016 -3.2072 -2.98446 0
M  V30 1543 C 154.517 -1.76442 -4.06673 0
M  V30 1544 H 151.737 -0.400911 -0.538063 0
M  V30 1545 H 154.281 -1.67332 -1.1756 0
M  V30 1546 H 152.436 -1.33696 -3.63599 0
M  V30 1547 H 152.85 -3.53802 -3.872 0
M  V30 1548 H 154.324 -2.27781 -5.02812 0
M  V30 1549 H 154.801 -0.731608 -4.33064 0
M  V30 1550 H 155.407 -2.24238 -3.61382 0
M  V30 1551 N 153.722 1.14298 -1.08507 0
M  V30 1552 C 154.952 1.88945 -0.835663 0
M  V30 1553 C 155.36 1.78894 0.615928 0
M  V30 1554 O 154.703 1.1468 1.43506 0
M  V30 1555 C 154.765 3.39585 -1.17994 0
M  V30 1556 C 154.429 3.7342 -2.63451 0
M  V30 1557 C 155.426 3.73454 -3.61702 0
M  V30 1558 C 153.111 4.03368 -2.99332 0
M  V30 1559 C 155.105 4.02961 -4.93864 0
M  V30 1560 C 152.792 4.32538 -4.31687 0
M  V30 1561 C 153.79 4.32318 -5.28763 0
M  V30 1562 O 153.478 4.6078 -6.58739 0
M  V30 1563 H 153.21 0.605307 -0.300965 0
M  V30 1564 H 155.764 1.45673 -1.44806 0
M  V30 1565 H 153.994 3.83315 -0.51055 0
M  V30 1566 H 155.683 3.9554 -0.911182 0
M  V30 1567 H 156.449 3.50403 -3.35325 0
M  V30 1568 H 152.328 4.02692 -2.24411 0
M  V30 1569 H 155.872 4.02704 -5.69627 0
M  V30 1570 H 151.769 4.55059 -4.57812 0
M  V30 1571 H 152.537 4.78492 -6.64069 0
M  V30 1572 N 155.201 0.870884 1.31352 0
M  V30 1573 C 156.134 0.271983 2.26573 0
M  V30 1574 C 157.112 -0.599385 1.51149 0
M  V30 1575 O 158.296 -0.552605 1.80218 0
M  V30 1576 C 155.423 -0.614801 3.33073 0
M  V30 1577 C 154.469 0.185342 4.26097 0
M  V30 1578 S 155.302 1.56444 5.12138 0
M  V30 1579 C 156.458 0.683807 6.22153 0
M  V30 1580 H 156.691 1.07916 2.77023 0
M  V30 1581 H 154.224 0.669459 1.39132 0
M  V30 1582 H 156.182 -1.12074 3.94905 0
M  V30 1583 H 154.843 -1.39593 2.81376 0
M  V30 1584 H 154.036 -0.490771 5.01605 0
M  V30 1585 H 153.638 0.623415 3.68768 0
M  V30 1586 H 155.93 -0.10521 6.77418 0
M  V30 1587 H 156.873 1.41004 6.93919 0
M  V30 1588 H 157.281 0.250952 5.63942 0
M  V30 1589 N 156.679 -1.44442 0.630414 0
M  V30 1590 C 157.589 -2.34476 -0.0761693 0
M  V30 1591 C 158.605 -1.52576 -0.836449 0
M  V30 1592 O 159.781 -1.85307 -0.788874 0
M  V30 1593 C 156.846 -3.30545 -1.04599 0
M  V30 1594 C 155.907 -4.28352 -0.28516 0
M  V30 1595 C 155.14 -5.19831 -1.20878 0
M  V30 1596 O 155.363 -5.15223 -2.44747 0
M  V30 1597 O 154.297 -5.97892 -0.693491 0
M  V30 1598 H 158.123 -2.96345 0.664324 0
M  V30 1599 H 155.708 -1.44203 0.39061 0
M  V30 1600 H 157.59 -3.89681 -1.60396 0
M  V30 1601 H 156.265 -2.7121 -1.76711 0
M  V30 1602 H 155.172 -3.72764 0.315837 0
M  V30 1603 H 156.505 -4.90605 0.395924 0
M  V30 1604 N 158.157 -0.370918 -1.53173 0
M  V30 1605 C 159.067 0.480823 -2.2962 0
M  V30 1606 C 160.083 1.08789 -1.35798 0
M  V30 1607 O 161.259 1.09768 -1.68858 0
M  V30 1608 C 158.324 1.60227 -3.07454 0
M  V30 1609 C 157.385 1.0222 -4.16953 0
M  V30 1610 C 156.618 2.0902 -4.91066 0
M  V30 1611 O 156.841 3.30222 -4.65091 0
M  V30 1612 O 155.775 1.71778 -5.76867 0
M  V30 1613 H 159.601 -0.141421 -3.03371 0
M  V30 1614 H 157.186 -0.135146 -1.48787 0
M  V30 1615 H 159.068 2.25417 -3.56041 0
M  V30 1616 H 157.743 2.20982 -2.36535 0
M  V30 1617 H 156.65 0.334064 -3.72605 0
M  V30 1618 H 157.983 0.459131 -4.90054 0
M  V30 1619 N 159.635 1.57281 -0.100228 0
M  V30 1620 C 160.545 2.17833 0.870965 0
M  V30 1621 C 161.561 1.14921 1.30649 0
M  V30 1622 O 162.737 1.47313 1.37335 0
M  V30 1623 C 159.802 2.75085 2.1102 0
M  V30 1624 C 158.863 3.9297 1.72838 0
M  V30 1625 C 158.096 4.47482 2.90854 0
M  V30 1626 O 158.319 4.00922 4.05731 0
M  V30 1627 O 157.253 5.38433 2.69023 0
M  V30 1628 H 161.079 3.0124 0.38575 0
M  V30 1629 H 158.664 1.48881 0.124397 0
M  V30 1630 H 160.546 3.11656 2.83634 0
M  V30 1631 H 159.221 1.94721 2.58584 0
M  V30 1632 H 158.128 3.61201 0.973883 0
M  V30 1633 H 159.461 4.74713 1.30033 0
M  V30 1634 N 161.113 -0.173488 1.56642 0
M  V30 1635 C 162.529 -0.525174 1.50712 0
M  V30 1636 C 162.729 -1.8476 0.804107 0
M  V30 1637 O 161.785 -2.49869 0.363574 0
M  V30 1638 C 163.098 -0.559937 2.95441 0
M  V30 1639 C 164.646 -0.647288 3.06234 0
M  V30 1640 C 165.121 -0.712963 4.52417 0
M  V30 1641 N 166.612 -0.775911 4.56655 0
M  V30 1642 C 167.347 -0.847264 5.67106 0
M  V30 1643 N 166.843 -0.879585 6.87194 0
M  V30 1644 N 168.636 -0.886117 5.55071 0
M  V30 1645 H 160.787 0.693681 2.00753 0
M  V30 1646 H 163.05 0.249841 0.914485 0
M  V30 1647 H 162.756 0.343049 3.50023 0
M  V30 1648 H 162.63 -1.40718 3.49969 0
M  V30 1649 H 165.017 -1.5407 2.51687 0
M  V30 1650 H 165.098 0.226586 2.54794 0
M  V30 1651 H 164.742 0.176183 5.07594 0
M  V30 1652 H 164.672 -1.60295 5.0161 0
M  V30 1653 H 167.163 -0.759304 3.70193 0
M  V30 1654 H 167.476 -0.935144 7.67121 0
M  V30 1655 H 165.821 -0.847898 6.89808 0
M  V30 1656 H 169.012 -0.857853 4.60172 0
M  V30 1657 H 169.185 -0.938263 6.41171 0
M  V30 1658 N 162.591 -1.51276 -0.441967 0
M  V30 1659 C 163.539 -1.72823 -1.55676 0
M  V30 1660 C 164.533 -0.59445 -1.58627 0
M  V30 1661 O 165.739 -0.775715 -1.62427 0
M  V30 1662 H 162.114 -0.545983 -0.517113 0
M  V30 1663 H 164.085 -2.6628 -1.34675 0
M  V30 1664 C 162.834 -1.86619 -2.93375 0
M  V30 1665 H 162.157 -2.73264 -2.91834 0
M  V30 1666 H 163.597 -2.05709 -3.70756 0
M  V30 1667 C 162.056 -0.624842 -3.31055 0
M  V30 1668 O 162.586 0.222636 -4.01083 0
M  V30 1669 N 160.792 -0.470288 -2.86769 0
M  V30 1670 H 160.339 -1.161 -2.29953 0
M  V30 1671 H 160.297 0.359051 -3.12343 0
M  V30 1672 N 164.069 0.697108 -1.41344 0
M  V30 1673 C 165.316 1.45714 -1.40619 0
M  V30 1674 C 165.644 1.94494 -0.0147907 0
M  V30 1675 O 164.899 1.69794 0.973066 0
M  V30 1676 C 165.198 2.68553 -2.35826 0
M  V30 1677 C 164.864 2.38438 -3.82698 0
M  V30 1678 C 163.526 2.29936 -4.22709 0
M  V30 1679 C 165.878 2.13567 -4.75435 0
M  V30 1680 C 163.206 1.94656 -5.53467 0
M  V30 1681 C 165.558 1.79797 -6.06511 0
M  V30 1682 C 164.222 1.69789 -6.45545 0
M  V30 1683 H 163.492 0.533206 -0.51456 0
M  V30 1684 H 166.139 0.796901 -1.74131 0
M  V30 1685 H 164.444 3.39503 -1.95563 0
M  V30 1686 H 166.141 3.2669 -2.32539 0
M  V30 1687 H 162.731 2.4595 -3.51008 0
M  V30 1688 H 166.915 2.19082 -4.45328 0
M  V30 1689 H 162.171 1.8546 -5.82593 0
M  V30 1690 H 166.345 1.59572 -6.77872 0
M  V30 1691 H 163.972 1.4222 -7.46778 0
M  V30 1692 N 165.547 1.27147 0.931209 0
M  V30 1693 C 166.775 1.16082 1.71267 0
M  V30 1694 C 167.19 -0.282772 1.8667 0
M  V30 1695 O 166.547 -1.19283 1.38122 0
M  V30 1696 C 166.598 1.8358 3.11417 0
M  V30 1697 O 166.319 3.22299 2.96741 0
M  V30 1698 C 167.82 1.78597 4.05732 0
M  V30 1699 H 165.04 0.403758 0.535929 0
M  V30 1700 H 167.584 1.67953 1.16671 0
M  V30 1701 H 165.739 1.35623 3.62885 0
M  V30 1702 H 166.153 3.55851 3.85319 0
M  V30 1703 H 167.627 2.30444 5.01597 0
M  V30 1704 H 168.104 0.754564 4.3267 0
M  V30 1705 H 168.71 2.26152 3.60188 0
M  V30 1706 N 167.025 -1.13721 1.09112 0
M  V30 1707 C 168.253 -1.88773 0.846899 0
M  V30 1708 C 168.668 -1.7896 -0.601572 0
M  V30 1709 O 168.025 -1.15394 -1.41388 0
M  V30 1710 C 168.076 -3.3849 1.26913 0
M  V30 1711 O 167.797 -3.48043 2.66079 0
M  V30 1712 C 169.298 -4.30518 1.05682 0
M  V30 1713 H 166.518 -0.59772 0.304914 0
M  V30 1714 H 169.062 -1.43977 1.45227 0
M  V30 1715 H 167.217 -3.80881 0.707723 0
M  V30 1716 H 167.631 -4.4109 2.83795 0
M  V30 1717 H 169.105 -5.3391 1.40156 0
M  V30 1718 H 169.582 -4.392 -0.00563416 0
M  V30 1719 H 170.188 -3.93893 1.60402 0
M  V30 1720 N 168.503 -0.877838 -1.30888 0
M  V30 1721 C 169.413 -0.343096 -2.32078 0
M  V30 1722 C 170.429 0.551022 -1.65045 0
M  V30 1723 O 171.605 0.445854 -1.96403 0
M  V30 1724 C 168.67 0.439905 -3.43898 0
M  V30 1725 C 167.731 -0.483111 -4.26573 0
M  V30 1726 C 166.964 0.262616 -5.33053 0
M  V30 1727 O 167.187 1.48967 -5.50604 0
M  V30 1728 O 166.121 -0.383593 -6.00676 0
M  V30 1729 H 169.947 -1.18203 -2.79753 0
M  V30 1730 H 167.532 -0.64145 -1.34929 0
M  V30 1731 H 169.414 0.883504 -4.12034 0
M  V30 1732 H 168.089 1.25526 -2.98371 0
M  V30 1733 H 166.996 -0.975374 -3.61161 0
M  V30 1734 H 168.329 -1.26427 -4.75686 0
M  V30 1735 N 169.982 1.44106 -0.638065 0
M  V30 1736 C 170.914 2.28976 0.101205 0
M  V30 1737 C 171.927 1.4167 0.802088 0
M  V30 1738 O 173.116 1.65755 0.662375 0
M  V30 1739 C 170.216 3.18217 1.16581 0
M  V30 1740 C 169.389 4.33978 0.546066 0
M  V30 1741 C 168.448 5.04202 1.50554 0
M  V30 1742 O 167.474 5.59986 1.01999 0
M  V30 1743 N 168.676 5.06296 2.8398 0
M  V30 1744 H 171.441 2.93064 -0.627186 0
M  V30 1745 H 169.002 1.54629 -0.479731 0
M  V30 1746 H 170.994 3.62061 1.80815 0
M  V30 1747 H 169.564 2.55833 1.79634 0
M  V30 1748 H 168.784 3.93239 -0.275046 0
M  V30 1749 H 170.072 5.08675 0.112793 0
M  V30 1750 H 169.47 4.62319 3.26002 0
M  V30 1751 H 168.027 5.53907 3.43556 0
M  V30 1752 N 171.46 0.379036 1.52974 0
M  V30 1753 C 172.706 -0.206727 2.01744 0
M  V30 1754 C 173.039 -1.47314 1.26539 0
M  V30 1755 O 172.314 -1.91084 0.362903 0
M  V30 1756 C 172.597 -0.485066 3.56818 0
M  V30 1757 C 172.45 0.795919 4.42702 0
M  V30 1758 C 173.769 -1.28003 4.21074 0
M  V30 1759 H 170.888 -0.0736607 0.73331 0
M  V30 1760 H 173.53 0.506581 1.83122 0
M  V30 1761 H 171.68 -1.09272 3.72816 0
M  V30 1762 H 173.352 1.43307 4.38476 0
M  V30 1763 H 171.595 1.41344 4.10127 0
M  V30 1764 H 172.266 0.555947 5.49193 0
M  V30 1765 H 174.742 -0.765867 4.08991 0
M  V30 1766 H 173.618 -1.44352 5.29579 0
M  V30 1767 H 173.879 -2.29236 3.78026 0
M  V30 1768 N 172.938 -1.57226 0.108567 0
M  V30 1769 C 174.166 -1.99179 -0.559954 0
M  V30 1770 C 174.581 -0.988022 -1.60884 0
M  V30 1771 O 173.938 0.0205512 -1.82488 0
M  V30 1772 C 173.989 -3.41159 -1.19552 0
M  V30 1773 O 173.71 -4.37694 -0.188577 0
M  V30 1774 C 175.211 -3.98188 -1.94837 0
M  V30 1775 H 172.431 -0.654228 -0.149088 0
M  V30 1776 H 174.975 -2.03598 0.19183 0
M  V30 1777 H 173.13 -3.37711 -1.89815 0
M  V30 1778 H 173.544 -5.20469 -0.649014 0
M  V30 1779 H 175.018 -4.99644 -2.34648 0
M  V30 1780 H 175.495 -3.3675 -2.81951 0
M  V30 1781 H 176.101 -4.0515 -1.2936 0
M  V30 1782 N 174.416 0.165178 -1.56732 0
M  V30 1783 C 175.379 1.18822 -1.95995 0
M  V30 1784 C 176.379 1.3685 -0.84431 0
M  V30 1785 O 177.569 1.34152 -1.11126 0
M  V30 1786 C 174.701 2.5521 -2.26011 0
M  V30 1787 H 175.894 0.851825 -2.87548 0
M  V30 1788 H 173.447 0.407857 -1.50885 0
M  V30 1789 H 174.182 2.93852 -1.37191 0
M  V30 1790 H 173.967 2.43489 -3.07336 0
M  V30 1791 H 175.457 3.28927 -2.57288 0
M  V30 1792 N 175.894 1.51508 0.433938 0
M  V30 1793 C 176.827 1.67756 1.54704 0
M  V30 1794 C 177.805 0.525127 1.53887 0
M  V30 1795 O 178.989 0.749393 1.72963 0
M  V30 1796 C 176.116 1.69424 2.9328 0
M  V30 1797 C 175.162 2.90673 3.12108 0
M  V30 1798 S 175.995 4.51431 2.88046 0
M  V30 1799 C 177.151 4.55849 4.28897 0
M  V30 1800 H 177.384 2.61904 1.40689 0
M  V30 1801 H 174.917 1.41235 0.62386 0
M  V30 1802 H 176.875 1.7107 3.73156 0
M  V30 1803 H 175.536 0.764464 3.04655 0
M  V30 1804 H 174.729 2.88251 4.13434 0
M  V30 1805 H 174.331 2.86786 2.40062 0
M  V30 1806 H 176.623 4.31699 5.22152 0
M  V30 1807 H 177.566 5.57676 4.36351 0
M  V30 1808 H 177.974 3.85137 4.12711 0
M  V30 1809 N 177.372 -0.689602 1.41712 0
M  V30 1810 C 178.302 -1.81577 1.46806 0
M  V30 1811 C 179.283 -1.66945 0.326105 0
M  V30 1812 O 180.468 -1.86588 0.538377 0
M  V30 1813 C 177.598 -3.19762 1.35535 0
M  V30 1814 C 176.552 -3.49107 2.47605 0
M  V30 1815 C 175.878 -4.86711 2.21397 0
M  V30 1816 C 177.178 -3.47483 3.89939 0
M  V30 1817 H 178.872 -1.7757 2.41058 0
M  V30 1818 H 176.418 -0.852887 1.16025 0
M  V30 1819 H 178.371 -3.98263 1.3771 0
M  V30 1820 H 177.095 -3.24409 0.377708 0
M  V30 1821 H 175.754 -2.72959 2.44722 0
M  V30 1822 H 175.402 -4.8799 1.21961 0
M  V30 1823 H 175.102 -5.0731 2.96497 0
M  V30 1824 H 176.626 -5.67515 2.25297 0
M  V30 1825 H 178.04 -4.1598 3.94505 0
M  V30 1826 H 176.437 -3.79615 4.64771 0
M  V30 1827 H 177.507 -2.46341 4.17665 0
M  V30 1828 N 178.85 -1.27639 -0.924453 0
M  V30 1829 C 179.78 -1.13166 -2.04244 0
M  V30 1830 C 180.761 -0.032256 -1.70069 0
M  V30 1831 O 181.946 -0.207328 -1.9309 0
M  V30 1832 C 179.076 -0.781496 -3.38393 0
M  V30 1833 C 178.03 -1.83449 -3.86692 0
M  V30 1834 C 177.356 -1.33822 -5.17683 0
M  V30 1835 C 178.656 -3.23917 -4.09726 0
M  V30 1836 H 180.35 -2.06689 -2.1661 0
M  V30 1837 H 177.896 -0.995136 -1.04082 0
M  V30 1838 H 179.849 -0.667057 -4.16087 0
M  V30 1839 H 178.573 0.189439 -3.2605 0
M  V30 1840 H 177.232 -1.93789 -3.11193 0
M  V30 1841 H 176.88 -0.35665 -5.01734 0
M  V30 1842 H 176.58 -2.04224 -5.50968 0
M  V30 1843 H 178.104 -1.23679 -5.97943 0
M  V30 1844 H 179.518 -3.16559 -4.77978 0
M  V30 1845 H 177.915 -3.92059 -4.54324 0
M  V30 1846 H 178.985 -3.68729 -3.14908 0
M  V30 1847 N 180.328 1.1314 -1.09713 0
M  V30 1848 C 181.553 1.88862 -0.857081 0
M  V30 1849 C 181.978 1.78729 0.586304 0
M  V30 1850 O 181.336 1.13692 1.41222 0
M  V30 1851 C 181.384 3.36325 -1.30069 0
M  V30 1852 O 180.488 4.09815 -0.461007 0
M  V30 1853 H 179.829 0.587108 -0.310162 0
M  V30 1854 H 182.359 1.43129 -1.46203 0
M  V30 1855 H 182.369 3.87157 -1.28738 0
M  V30 1856 H 181.044 3.43017 -2.35185 0
M  V30 1857 H 179.621 3.68986 -0.538888 0
M  V30 1858 N 181.806 0.884767 1.30421 0
M  V30 1859 C 182.753 0.349642 2.28136 0
M  V30 1860 C 183.723 -0.560061 1.56373 0
M  V30 1861 O 184.908 -0.488524 1.8444 0
M  V30 1862 C 182.048 -0.42999 3.42411 0
M  V30 1863 C 181.161 0.508907 4.28992 0
M  V30 1864 C 180.296 -0.286301 5.30428 0
M  V30 1865 C 179.335 0.648079 6.08659 0
M  V30 1866 N 178.472 -0.111792 7.02011 0
M  V30 1867 H 183.312 1.18807 2.73293 0
M  V30 1868 H 180.849 0.597231 1.3443 0
M  V30 1869 H 182.807 -0.897923 4.07423 0
M  V30 1870 H 181.437 -1.23299 2.98324 0
M  V30 1871 H 180.489 1.09533 3.64289 0
M  V30 1872 H 181.801 1.22475 4.8353 0
M  V30 1873 H 180.955 -0.816098 6.01186 0
M  V30 1874 H 179.694 -1.03536 4.76583 0
M  V30 1875 H 178.699 1.18951 5.36778 0
M  V30 1876 H 179.924 1.39623 6.64592 0
M  V30 1877 H 177.87 -0.843395 6.50556 0
M  V30 1878 H 177.787 0.544429 7.54037 0
M  V30 1879 H 179.055 -0.622339 7.77012 0
M  V30 1880 N 183.284 -1.43765 0.645699 0
M  V30 1881 C 184.214 -2.33471 -0.0370477 0
M  V30 1882 C 185.195 -1.49042 -0.819779 0
M  V30 1883 O 186.38 -1.77726 -0.782758 0
M  V30 1884 C 183.51 -3.32311 -1.0093 0
M  V30 1885 C 182.464 -4.2667 -0.337201 0
M  V30 1886 C 181.79 -5.1549 -1.42037 0
M  V30 1887 C 183.09 -5.16657 0.765706 0
M  V30 1888 H 184.784 -2.90809 0.712069 0
M  V30 1889 H 182.33 -1.39834 0.343876 0
M  V30 1890 H 184.283 -3.9396 -1.49578 0
M  V30 1891 H 183.007 -2.73213 -1.78948 0
M  V30 1892 H 181.666 -3.66374 0.128771 0
M  V30 1893 H 181.314 -4.52735 -2.1918 0
M  V30 1894 H 181.014 -5.79438 -0.975966 0
M  V30 1895 H 182.538 -5.80012 -1.90838 0
M  V30 1896 H 183.952 -5.72158 0.361702 0
M  V30 1897 H 182.349 -5.89286 1.13413 0
M  V30 1898 H 183.419 -4.56796 1.62683 0
M  V30 1899 N 184.763 -0.387143 -1.52771 0
M  V30 1900 C 185.71 0.449048 -2.26389 0
M  V30 1901 C 186.68 1.05961 -1.27912 0
M  V30 1902 O 187.865 1.08804 -1.56737 0
M  V30 1903 C 185.005 1.57155 -3.0724 0
M  V30 1904 C 184.118 0.984066 -4.20643 0
M  V30 1905 C 183.253 2.07745 -4.88892 0
M  V30 1906 C 182.292 1.46574 -5.94292 0
M  V30 1907 N 181.429 2.49834 -6.56146 0
M  V30 1908 H 186.269 -0.185205 -2.97424 0
M  V30 1909 H 183.806 -0.103164 -1.46738 0
M  V30 1910 H 185.764 2.23309 -3.52405 0
M  V30 1911 H 184.394 2.17615 -2.38419 0
M  V30 1912 H 183.446 0.212193 -3.79808 0
M  V30 1913 H 184.758 0.497029 -4.96318 0
M  V30 1914 H 183.912 2.81673 -5.3735 0
M  V30 1915 H 182.651 2.59807 -4.12737 0
M  V30 1916 H 181.656 0.711696 -5.45174 0
M  V30 1917 H 182.881 0.953088 -6.72379 0
M  V30 1918 H 180.827 3.0107 -5.82832 0
M  V30 1919 H 180.744 2.05879 -7.27427 0
M  V30 1920 H 182.012 3.23399 -7.09249 0
M  V30 1921 N 186.241 1.57166 -0.116904 0
M  V30 1922 C 187.151 2.18745 0.847812 0
M  V30 1923 C 188.167 1.163 1.29423 0
M  V30 1924 O 189.343 1.48761 1.35765 0
M  V30 1925 C 186.408 2.77307 2.0809 0
M  V30 1926 C 185.469 3.94781 1.68661 0
M  V30 1927 C 184.702 4.50541 2.86091 0
M  V30 1928 O 184.925 4.05202 4.01456 0
M  V30 1929 O 183.859 5.41256 2.63298 0
M  V30 1930 H 187.685 3.01632 0.353778 0
M  V30 1931 H 185.27 1.49005 0.108599 0
M  V30 1932 H 187.152 3.14647 2.80313 0
M  V30 1933 H 185.827 1.97452 2.56504 0
M  V30 1934 H 184.734 3.62214 0.935518 0
M  V30 1935 H 186.067 4.76065 1.24991 0
M  V30 1936 N 187.719 -0.156864 1.56817 0
M  V30 1937 C 188.947 -0.886316 1.86955 0
M  V30 1938 C 189.362 -1.75185 0.703975 0
M  V30 1939 O 188.719 -1.79555 -0.326552 0
M  V30 1940 C 188.77 -1.75117 3.16253 0
M  V30 1941 O 188.491 -0.920537 4.2832 0
M  V30 1942 C 189.992 -2.58905 3.59837 0
M  V30 1943 H 187.212 -0.25678 0.619923 0
M  V30 1944 H 189.756 -0.152615 2.0393 0
M  V30 1945 H 187.911 -2.43805 3.01062 0
M  V30 1946 H 188.325 -1.51337 5.02192 0
M  V30 1947 H 189.799 -3.1518 4.53172 0
M  V30 1948 H 190.276 -3.34472 2.84649 0
M  V30 1949 H 190.882 -1.95526 3.7769 0
M  V30 1950 N 189.197 -1.51736 -0.425897 0
M  V30 1951 C 190.16 -1.73271 -1.50032 0
M  V30 1952 C 191.16 -0.602639 -1.4908 0
M  V30 1953 O 192.35 -0.87033 -1.509 0
M  V30 1954 C 189.482 -1.79969 -2.89523 0
M  V30 1955 H 190.675 -2.69172 -1.32237 0
M  V30 1956 H 188.228 -1.41899 -0.65532 0
M  V30 1957 H 188.963 -0.859241 -3.1271 0
M  V30 1958 H 188.748 -2.62109 -2.91619 0
M  V30 1959 H 190.238 -1.9843 -3.67444 0
M  V30 1960 N 190.675 0.682077 -1.42076 0
M  V30 1961 C 191.585 1.82535 -1.47371 0
M  V30 1962 C 192.601 1.7017 -0.363079 0
M  V30 1963 O 193.777 1.91848 -0.612875 0
M  V30 1964 C 190.842 3.18624 -1.36674 0
M  V30 1965 C 189.903 3.42999 -2.58167 0
M  V30 1966 C 189.136 4.72595 -2.4797 0
M  V30 1967 O 189.359 5.50006 -1.5116 0
M  V30 1968 O 188.293 4.98054 -3.37974 0
M  V30 1969 H 192.119 1.81023 -2.43853 0
M  V30 1970 H 189.704 0.836887 -1.2376 0
M  V30 1971 H 191.586 3.99847 -1.33043 0
M  V30 1972 H 190.261 3.20789 -0.433138 0
M  V30 1973 H 189.168 2.61653 -2.67373 0
M  V30 1974 H 190.501 3.45659 -3.50401 0
M  V30 1975 N 192.153 1.28127 0.917671 0
M  V30 1976 C 193.378 1.18007 1.70555 0
M  V30 1977 C 193.803 -0.258257 1.86319 0
M  V30 1978 O 193.161 -1.1869 1.37049 0
M  V30 1979 C 193.209 1.87948 3.07746 0
M  V30 1980 O 192.313 1.18427 3.9503 0
M  V30 1981 H 191.654 0.409867 0.522403 0
M  V30 1982 H 194.184 1.69379 1.1477 0
M  V30 1983 H 194.194 1.95701 3.58001 0
M  V30 1984 H 192.869 2.92573 2.95591 0
M  V30 1985 H 191.446 1.18811 3.53466 0
M  V30 1986 N 193.631 -1.12557 1.10312 0
M  V30 1987 C 194.877 -1.84311 0.846011 0
M  V30 1988 C 195.21 -1.83805 -0.626859 0
M  V30 1989 O 194.485 -1.28268 -1.46211 0
M  V30 1990 C 194.768 -3.32048 1.39341 0
M  V30 1991 C 194.621 -3.41016 2.93305 0
M  V30 1992 C 195.94 -4.27764 1.03468 0
M  V30 1993 H 193.059 -0.669192 0.30879 0
M  V30 1994 H 195.701 -1.32057 1.36605 0
M  V30 1995 H 193.851 -3.76678 0.951087 0
M  V30 1996 H 195.523 -3.05031 3.46055 0
M  V30 1997 H 193.766 -2.81603 3.29973 0
M  V30 1998 H 194.437 -4.44948 3.26689 0
M  V30 1999 H 196.913 -3.91253 1.41633 0
M  V30 2000 H 195.789 -5.29549 1.44463 0
M  V30 2001 H 196.05 -4.42064 -0.0560404 0
M  V30 2002 N 195.109 -0.891671 -1.2995 0
M  V30 2003 C 196.039 -0.379797 -2.30391 0
M  V30 2004 C 197.02 0.540919 -1.6127 0
M  V30 2005 O 198.205 0.453352 -1.88834 0
M  V30 2006 C 195.335 0.400654 -3.44981 0
M  V30 2007 C 194.289 -0.428905 -4.25846 0
M  V30 2008 C 193.615 0.478557 -5.32554 0
M  V30 2009 C 194.915 -1.67458 -4.94727 0
M  V30 2010 H 196.609 -1.21914 -2.73454 0
M  V30 2011 H 194.155 -0.587675 -1.31462 0
M  V30 2012 H 196.108 0.769434 -4.14316 0
M  V30 2013 H 194.832 1.27371 -3.0074 0
M  V30 2014 H 193.491 -0.779911 -3.58208 0
M  V30 2015 H 193.139 1.34951 -4.84559 0
M  V30 2016 H 192.839 -0.0727433 -5.87555 0
M  V30 2017 H 194.363 0.843705 -6.04743 0
M  V30 2018 H 195.777 -1.376 -5.56542 0
M  V30 2019 H 194.174 -2.16659 -5.59624 0
M  V30 2020 H 195.244 -2.41518 -4.20473 0
M  V30 2021 N 196.587 1.43421 -0.653314 0
M  V30 2022 C 197.534 2.30768 0.0382271 0
M  V30 2023 C 198.504 1.44755 0.814576 0
M  V30 2024 O 199.689 1.73624 0.791162 0
M  V30 2025 C 196.829 3.30336 0.998599 0
M  V30 2026 C 195.942 4.31448 0.218342 0
M  V30 2027 C 195.077 5.18098 1.17252 0
M  V30 2028 C 194.116 6.10902 0.382702 0
M  V30 2029 N 193.253 6.90176 1.28848 0
M  V30 2030 H 198.093 2.89357 -0.712511 0
M  V30 2031 H 195.63 1.42548 -0.363128 0
M  V30 2032 H 197.588 3.86572 1.56901 0
M  V30 2033 H 196.218 2.73397 1.71621 0
M  V30 2034 H 195.27 3.77506 -0.46836 0
M  V30 2035 H 196.582 4.97227 -0.395812 0
M  V30 2036 H 195.736 5.7896 1.81356 0
M  V30 2037 H 194.475 4.52444 1.82058 0
M  V30 2038 H 193.48 5.49128 -0.27169 0
M  V30 2039 H 194.705 6.78598 -0.260957 0
M  V30 2040 H 192.651 6.27171 1.92334 0
M  V30 2041 H 192.568 7.52478 0.728887 0
M  V30 2042 H 193.836 7.55543 1.91766 0
M  V30 2043 N 198.065 0.39524 1.52563 0
M  V30 2044 C 199.012 -0.437036 2.26624 0
M  V30 2045 C 199.982 -1.05281 1.28472 0
M  V30 2046 O 201.167 -1.07971 1.57311 0
M  V30 2047 C 198.307 -1.55524 3.08069 0
M  V30 2048 C 197.42 -0.961745 4.21158 0
M  V30 2049 C 196.555 -2.05149 4.89987 0
M  V30 2050 C 195.594 -1.4342 5.95061 0
M  V30 2051 N 194.731 -2.46351 6.57462 0
M  V30 2052 H 199.571 0.200976 2.97322 0
M  V30 2053 H 197.108 0.110944 1.46681 0
M  V30 2054 H 199.066 -2.21437 3.53584 0
M  V30 2055 H 197.696 -2.16348 2.3957 0
M  V30 2056 H 196.748 -0.192048 3.79915 0
M  V30 2057 H 198.06 -0.470701 4.96574 0
M  V30 2058 H 197.214 -2.78819 5.38837 0
M  V30 2059 H 195.953 -2.57615 4.14109 0
M  V30 2060 H 194.958 -0.682774 5.45544 0
M  V30 2061 H 196.183 -0.917416 6.72875 0
M  V30 2062 H 194.129 -2.97975 5.8442 0
M  V30 2063 H 194.046 -2.02019 7.28508 0
M  V30 2064 H 195.314 -3.19633 7.10954 0
M  V30 2065 N 199.544 -1.57102 0.125237 0
M  V30 2066 C 200.955 -1.82384 -0.399142 0
M  V30 2067 C 201.306 -1.04276 -1.66195 0
M  V30 2068 O 200.431 -0.281269 -2.14564 0
M  V30 2069 C 201.026 -3.30821 -0.730932 0
M  V30 2070 C 199.585 -3.56762 -1.19992 0
M  V30 2071 C 198.732 -2.7649 -0.211792 0
M  V30 2072 H 201.683 -1.54786 0.350277 0
M  V30 2073 H 201.704 -3.4579 -1.58775 0
M  V30 2074 H 201.216 -3.87643 0.188345 0
M  V30 2075 H 199.317 -3.05305 -2.13588 0
M  V30 2076 H 199.43 -4.65317 -1.14093 0
M  V30 2077 H 197.794 -2.4489 -0.700085 0
M  V30 2078 H 198.577 -3.36073 0.700691 0
M  V30 2079 N 201.022 0.148545 -1.56898 0
M  V30 2080 C 202.268 0.862694 -1.83536 0
M  V30 2081 C 202.601 1.80889 -0.706604 0
M  V30 2082 O 201.876 1.92328 0.289885 0
M  V30 2083 C 202.159 1.63853 -3.20662 0
M  V30 2084 C 202.012 0.713925 -4.44098 0
M  V30 2085 C 203.331 2.60133 -3.54991 0
M  V30 2086 H 200.45 0.312179 -0.667618 0
M  V30 2087 H 203.092 0.127953 -1.89569 0
M  V30 2088 H 201.242 2.26489 -3.1565 0
M  V30 2089 H 202.914 0.098686 -4.61194 0
M  V30 2090 H 201.157 0.0234019 -4.33794 0
M  V30 2091 H 201.828 1.29278 -5.36648 0
M  V30 2092 H 204.304 2.07616 -3.60603 0
M  V30 2093 H 203.18 3.11468 -4.51972 0
M  V30 2094 H 203.441 3.41417 -2.80868 0
M  V30 2095 N 202.5 1.5196 0.417844 0
M  V30 2096 C 203.746 1.65836 1.16732 0
M  V30 2097 C 204.079 0.382881 1.90388 0
M  V30 2098 O 203.354 -0.618368 1.84408 0
M  V30 2099 C 203.637 2.87466 2.16876 0
M  V30 2100 C 203.49 4.25041 1.47174 0
M  V30 2101 C 204.809 3.04613 3.17646 0
M  V30 2102 H 201.928 0.603515 0.423011 0
M  V30 2103 H 204.57 1.84494 0.454105 0
M  V30 2104 H 202.72 2.71689 2.777 0
M  V30 2105 H 204.392 4.52527 0.895376 0
M  V30 2106 H 202.635 4.26843 0.773806 0
M  V30 2107 H 203.306 5.06176 2.20204 0
M  V30 2108 H 205.782 3.1923 2.66892 0
M  V30 2109 H 204.658 3.91247 3.8499 0
M  V30 2110 H 204.919 2.17541 3.84874 0
M  V30 2111 N 203.978 -0.674533 1.42435 0
M  V30 2112 C 205.255 -1.4305 1.33402 0
M  V30 2113 C 205.635 -2.11081 -0.0284674 0
M  V30 2114 O 204.983 -2.03257 -1.04397 0
M  V30 2115 C 205.193 -2.43272 2.50239 0
M  V30 2116 C 206.541 -3.07907 2.92367 0
M  V30 2117 O 207.565 -2.53599 2.50132 0
M  V30 2118 O 206.424 -4.0632 3.65467 0
M  V30 2119 H 203.518 -0.638076 0.526106 0
M  V30 2120 H 206.064 -0.703235 1.54443 0
M  V30 2121 H 204.836 -1.91803 3.41068 0
M  V30 2122 H 204.459 -3.23479 2.31186 0
M  V30 2123 N 205.456 -1.28612 -0.910864 0
M  V30 2124 C 206.696 -1.1719 -1.67469 0
M  V30 2125 C 207.06 0.274441 -1.90028 0
M  V30 2126 O 208.261 0.511425 -2.6389 0
M  V30 2127 C 206.532 -1.95137 -2.99427 0
M  V30 2128 S 208.091 -2.00122 -3.90508 0
M  V30 2129 H 204.909 -0.41806 -0.575106 0
M  V30 2130 H 207.511 -1.6275 -1.08317 0
M  V30 2131 H 206.215 -2.99381 -2.80712 0
M  V30 2132 H 205.746 -1.50137 -3.63624 0
M  V30 2133 H 207.761 -1.10981 -4.8363 0
M  V30 2134 N 206.934 1.1197 -1.10907 0
M  V30 2135 C 208.18 1.8386 -0.855773 0
M  V30 2136 C 208.513 1.84134 0.617103 0
M  V30 2137 O 207.788 1.29041 1.45529 0
M  V30 2138 C 208.071 3.31305 -1.411 0
M  V30 2139 C 207.924 3.39456 -2.9511 0
M  V30 2140 C 209.243 4.2721 -1.05736 0
M  V30 2141 H 206.362 0.667545 -0.312334 0
M  V30 2142 H 209.004 1.31331 -1.37303 0
M  V30 2143 H 207.154 3.76169 -0.97105 0
M  V30 2144 H 208.826 3.03191 -3.47668 0
M  V30 2145 H 207.069 2.79849 -3.31462 0
M  V30 2146 H 207.74 4.43209 -3.29044 0
M  V30 2147 H 210.216 3.90497 -1.43706 0
M  V30 2148 H 209.092 5.28775 -1.47269 0
M  V30 2149 H 209.353 4.42088 0.0325958 0
M  V30 2150 N 208.412 0.89855 1.29475 0
M  V30 2151 C 209.658 0.524658 1.95896 0
M  V30 2152 C 209.991 -0.926468 1.70676 0
M  V30 2153 O 209.266 -1.65665 1.01908 0
M  V30 2154 C 209.549 0.81633 3.50725 0
M  V30 2155 C 209.402 2.31907 3.85408 0
M  V30 2156 C 210.721 0.302038 4.39062 0
M  V30 2157 H 207.84 0.19209 0.711527 0
M  V30 2158 H 210.482 1.12502 1.53112 0
M  V30 2159 H 208.632 0.305369 3.87298 0
M  V30 2160 H 210.304 2.89949 3.58786 0
M  V30 2161 H 208.547 2.78027 3.32992 0
M  V30 2162 H 209.218 2.47373 4.93468 0
M  V30 2163 H 211.694 0.739551 4.09475 0
M  V30 2164 H 210.57 0.535331 5.46283 0
M  V30 2165 H 210.831 -0.797216 4.34853 0
M  V30 2166 N 209.89 -1.43072 0.660911 0
M  V30 2167 C 211.115 -2.06584 0.183805 0
M  V30 2168 C 211.54 -1.49257 -1.14472 0
M  V30 2169 O 210.898 -0.605528 -1.70889 0
M  V30 2170 C 210.946 -3.60418 0.114434 0
M  V30 2171 O 210.05 -4.01981 -0.921137 0
M  V30 2172 H 209.391 -0.656669 0.0983994 0
M  V30 2173 H 211.921 -1.83447 0.906006 0
M  V30 2174 H 211.931 -4.07946 -0.0663394 0
M  V30 2175 H 210.606 -4.01519 1.08422 0
M  V30 2176 H 209.183 -3.66029 -0.71253 0
M  V30 2177 N 211.368 -0.403325 -1.52352 0
M  V30 2178 C 212.614 0.174605 -2.02047 0
M  V30 2179 C 212.947 1.45282 -1.28867 0
M  V30 2180 O 212.222 1.90483 -0.393257 0
M  V30 2181 C 212.505 0.428238 -3.57545 0
M  V30 2182 C 212.358 -0.866248 -4.4138 0
M  V30 2183 C 213.677 1.21287 -4.23057 0
M  V30 2184 H 210.796 0.0619851 -0.734389 0
M  V30 2185 H 213.438 -0.53565 -1.82293 0
M  V30 2186 H 211.588 1.03327 -3.74507 0
M  V30 2187 H 213.26 -1.50265 -4.3614 0
M  V30 2188 H 211.503 -1.47851 -4.07827 0
M  V30 2189 H 212.174 -0.643249 -5.48239 0
M  V30 2190 H 214.65 0.700703 -4.10158 0
M  V30 2191 H 213.526 1.35909 -5.31808 0
M  V30 2192 H 213.787 2.23193 -3.81625 0
M  V30 2193 N 212.846 1.57033 -0.133567 0
M  V30 2194 C 214.257 1.82593 0.389464 0
M  V30 2195 C 214.608 1.05156 1.6564 0
M  V30 2196 O 213.733 0.292644 2.14412 0
M  V30 2197 C 214.328 3.31204 0.713377 0
M  V30 2198 C 212.887 3.57393 1.18098 0
M  V30 2199 C 212.034 2.76598 0.197126 0
M  V30 2200 H 214.985 1.54598 -0.358481 0
M  V30 2201 H 215.006 3.46627 1.56939 0
M  V30 2202 H 214.518 3.87537 -0.2089 0
M  V30 2203 H 212.619 3.06433 2.11966 0
M  V30 2204 H 212.732 4.65915 1.11624 0
M  V30 2205 H 211.096 2.45257 0.687088 0
M  V30 2206 H 211.879 3.35697 -0.718504 0
M  V30 2207 N 214.325 -0.140222 1.56975 0
M  V30 2208 C 215.565 -0.857823 1.85528 0
M  V30 2209 C 215.929 -1.78039 0.718768 0
M  V30 2210 O 217.13 -2.53795 0.885521 0
M  V30 2211 C 215.401 -1.60615 3.19277 0
M  V30 2212 S 216.96 -2.36824 3.69405 0
M  V30 2213 H 213.778 -0.286727 0.650622 0
M  V30 2214 H 216.38 -0.117408 1.95147 0
M  V30 2215 H 215.084 -0.919994 3.99955 0
M  V30 2216 H 214.615 -2.38735 3.12681 0
M  V30 2217 H 216.63 -3.62148 3.3921 0
M  V30 2218 N 215.803 -1.52179 -0.40978 0
M  V30 2219 C 217.05 -1.66206 -1.15679 0
M  V30 2220 C 217.378 -0.391674 -1.90516 0
M  V30 2221 O 216.633 0.62533 -1.8544 0
M  V30 2222 C 216.932 -2.83428 -2.17723 0
M  V30 2223 C 216.598 -4.21672 -1.59699 0
M  V30 2224 C 215.26 -4.59274 -1.43599 0
M  V30 2225 C 217.612 -5.07825 -1.17317 0
M  V30 2226 C 214.94 -5.80709 -0.836328 0
M  V30 2227 C 217.292 -6.29864 -0.587691 0
M  V30 2228 C 215.956 -6.66216 -0.413818 0
M  V30 2229 H 215.226 -0.608192 -0.423301 0
M  V30 2230 H 217.873 -1.86279 -0.444097 0
M  V30 2231 H 216.178 -2.57687 -2.95135 0
M  V30 2232 H 217.875 -2.91477 -2.75394 0
M  V30 2233 H 214.465 -3.9204 -1.73213 0
M  V30 2234 H 218.649 -4.79359 -1.28565 0
M  V30 2235 H 213.905 -6.07498 -0.689626 0
M  V30 2236 H 218.079 -6.95948 -0.250894 0
M  V30 2237 H 215.706 -7.60182 0.0529471 0
M  V30 2238 N 217.281 0.66697 -1.42791 0
M  V30 2239 C 218.511 1.45294 -1.46878 0
M  V30 2240 C 218.919 1.89027 -0.0809861 0
M  V30 2241 O 218.262 1.59219 0.916246 0
M  V30 2242 C 218.324 2.72908 -2.34012 0
M  V30 2243 C 217.988 2.51203 -3.81767 0
M  V30 2244 C 218.985 2.15302 -4.73224 0
M  V30 2245 C 216.67 2.65954 -4.26115 0
M  V30 2246 C 218.664 1.94431 -6.07022 0
M  V30 2247 C 216.351 2.44699 -5.59969 0
M  V30 2248 C 217.349 2.08992 -6.5024 0
M  V30 2249 O 217.037 1.87948 -7.81621 0
M  V30 2250 H 216.769 0.453306 -0.501487 0
M  V30 2251 H 219.323 0.826232 -1.88049 0
M  V30 2252 H 217.553 3.38089 -1.87703 0
M  V30 2253 H 219.242 3.34816 -2.29462 0
M  V30 2254 H 220.008 2.03495 -4.40244 0
M  V30 2255 H 215.887 2.92724 -3.56137 0
M  V30 2256 H 219.431 1.66484 -6.77443 0
M  V30 2257 H 215.328 2.56105 -5.9252 0
M  V30 2258 H 216.096 2.02483 -7.93059 0
M  V30 2259 N 218.759 1.29093 0.90403 0
M  V30 2260 C 219.987 1.19689 1.68766 0
M  V30 2261 C 220.402 -0.243113 1.87228 0
M  V30 2262 O 219.759 -1.16326 1.40621 0
M  V30 2263 C 219.81 1.90144 3.07453 0
M  V30 2264 O 219.531 3.2852 2.89838 0
M  V30 2265 C 221.032 1.87162 4.01852 0
M  V30 2266 H 218.252 0.415035 0.527244 0
M  V30 2267 H 220.796 1.7039 1.13082 0
M  V30 2268 H 218.951 1.43289 3.59926 0
M  V30 2269 H 219.365 3.63944 3.77684 0
M  V30 2270 H 220.839 2.41032 4.96596 0
M  V30 2271 H 221.316 0.84617 4.30972 0
M  V30 2272 H 221.922 2.33741 3.5531 0
M  V30 2273 N 220.237 -1.11381 1.11499 0
M  V30 2274 C 221.514 -1.7955 0.775965 0
M  V30 2275 C 221.894 -1.97859 -0.73588 0
M  V30 2276 O 221.242 -1.56376 -1.66609 0
M  V30 2277 C 221.452 -3.13196 1.53977 0
M  V30 2278 C 222.8 -3.88227 1.71944 0
M  V30 2279 O 223.824 -3.22887 1.50407 0
M  V30 2280 O 222.683 -5.05477 2.07738 0
M  V30 2281 H 219.777 -0.777728 0.28119 0
M  V30 2282 H 222.323 -1.18118 1.21845 0
M  V30 2283 H 221.095 -2.95229 2.56818 0
M  V30 2284 H 220.718 -3.82342 1.09088 0
M  V30 2285 N 221.715 -0.905404 -1.28997 0
M  V30 2286 C 222.678 -0.392253 -2.25819 0
M  V30 2287 C 223.678 0.476753 -1.5357 0
M  V30 2288 O 224.868 0.280994 -1.71919 0
M  V30 2289 C 222 0.438588 -3.38067 0
M  V30 2290 H 223.193 -1.24743 -2.72725 0
M  V30 2291 H 220.746 -0.684051 -1.40536 0
M  V30 2292 H 221.481 1.31352 -2.96508 0
M  V30 2293 H 221.266 -0.184167 -3.91667 0
M  V30 2294 H 222.756 0.78873 -4.10084 0
M  V30 2295 N 223.193 1.4272 -0.668489 0
M  V30 2296 C 224.103 2.34596 0.0139753 0
M  V30 2297 C 225.119 1.5474 0.795703 0
M  V30 2298 O 226.295 1.87334 0.739466 0
M  V30 2299 C 223.36 3.33202 0.957982 0
M  V30 2300 C 222.421 4.28957 0.17149 0
M  V30 2301 C 221.654 5.22853 1.07053 0
M  V30 2302 O 221.877 5.21531 2.31001 0
M  V30 2303 O 220.811 5.9952 0.534727 0
M  V30 2304 H 224.637 2.9448 -0.742661 0
M  V30 2305 H 222.222 1.43117 -0.428705 0
M  V30 2306 H 224.104 3.93796 1.50008 0
M  V30 2307 H 222.779 2.758 1.69458 0
M  V30 2308 H 221.686 3.71796 -0.414558 0
M  V30 2309 H 223.019 4.89383 -0.52586 0
M  V30 2310 N 224.671 0.411399 1.52136 0
M  V30 2311 C 226.087 0.0623865 1.59478 0
M  V30 2312 C 226.287 -1.42554 1.4241 0
M  V30 2313 O 225.343 -2.19263 1.2522 0
M  V30 2314 C 226.656 0.559331 2.95452 0
M  V30 2315 C 228.204 0.517503 3.08692 0
M  V30 2316 C 228.679 0.990994 4.4715 0
M  V30 2317 N 230.17 0.947908 4.53397 0
M  V30 2318 C 230.905 1.28544 5.58806 0
M  V30 2319 N 230.401 1.69454 6.71757 0
M  V30 2320 N 232.194 1.20526 5.49026 0
M  V30 2321 H 224.345 1.37982 1.61477 0
M  V30 2322 H 226.608 0.566977 0.759764 0
M  V30 2323 H 226.314 1.59938 3.1323 0
M  V30 2324 H 226.188 -0.0298014 3.77188 0
M  V30 2325 H 228.575 -0.513505 2.90598 0
M  V30 2326 H 228.656 1.14272 2.28857 0
M  V30 2327 H 228.3 2.02034 4.65988 0
M  V30 2328 H 228.23 0.34257 5.25485 0
M  V30 2329 H 230.721 0.647157 3.72317 0
M  V30 2330 H 231.034 1.93513 7.48179 0
M  V30 2331 H 229.379 1.73359 6.73032 0
M  V30 2332 H 232.57 0.884505 4.59667 0
M  V30 2333 H 232.743 1.47161 6.31069 0
M  V30 2334 N 226.149 -1.5696 0.141893 0
M  V30 2335 C 227.565 -1.58151 -0.21456 0
M  V30 2336 C 227.765 -1.1559 -1.65049 0
M  V30 2337 O 226.821 -0.853832 -2.37626 0
M  V30 2338 C 228.134 -3.00674 0.0395576 0
M  V30 2339 C 229.682 -3.1299 -0.0245529 0
M  V30 2340 C 230.157 -4.57554 0.202167 0
M  V30 2341 N 231.648 -4.62961 0.148919 0
M  V30 2342 C 232.383 -5.7262 0.298924 0
M  V30 2343 N 231.879 -6.90947 0.50637 0
M  V30 2344 N 233.672 -5.61601 0.236886 0
M  V30 2345 H 225.823 -1.8292 1.07953 0
M  V30 2346 H 228.086 -0.846425 0.42693 0
M  V30 2347 H 227.792 -3.36183 1.03315 0
M  V30 2348 H 227.666 -3.70981 -0.682143 0
M  V30 2349 H 230.053 -2.77326 -1.00869 0
M  V30 2350 H 230.134 -2.4518 0.729396 0
M  V30 2351 H 229.778 -4.93922 1.18338 0
M  V30 2352 H 229.708 -5.23484 -0.572044 0
M  V30 2353 H 232.199 -3.77899 -0.00697015 0
M  V30 2354 H 232.512 -7.7038 0.611076 0
M  V30 2355 H 230.857 -6.92878 0.542628 0
M  V30 2356 H 234.048 -4.68039 0.0756209 0
M  V30 2357 H 234.221 -6.47015 0.357227 0
M  V30 2358 N 227.627 0.131896 -1.57047 0
M  V30 2359 C 228.852 0.860418 -1.8871 0
M  V30 2360 C 229.277 1.73251 -0.73251 0
M  V30 2361 O 228.635 1.785 0.317429 0
M  V30 2362 C 228.683 1.68047 -3.19049 0
M  V30 2363 O 227.787 2.7862 -3.04047 0
M  V30 2364 H 227.128 0.238743 -0.619595 0
M  V30 2365 H 229.658 0.118169 -2.04258 0
M  V30 2366 H 229.668 2.07238 -3.51449 0
M  V30 2367 H 228.343 1.04018 -4.02682 0
M  V30 2368 H 226.92 2.42726 -2.83088 0
M  V30 2369 N 229.106 1.52395 0.401703 0
M  V30 2370 C 230.352 1.67065 1.14966 0
M  V30 2371 C 230.685 0.403052 1.89971 0
M  V30 2372 O 229.96 -0.598774 1.85054 0
M  V30 2373 C 230.243 2.8975 2.13815 0
M  V30 2374 C 230.096 4.26578 1.42658 0
M  V30 2375 C 231.415 3.07965 3.14397 0
M  V30 2376 H 228.534 0.607968 0.416587 0
M  V30 2377 H 231.176 1.84965 0.434511 0
M  V30 2378 H 229.326 2.74619 2.74803 0
M  V30 2379 H 230.998 4.53451 0.847329 0
M  V30 2380 H 229.241 4.27639 0.72849 0
M  V30 2381 H 229.912 5.08483 2.14823 0
M  V30 2382 H 232.388 3.22043 2.63491 0
M  V30 2383 H 231.264 3.95308 3.80819 0
M  V30 2384 H 231.525 2.21611 3.82545 0
M  V30 2385 N 230.584 -0.659388 1.43143 0
M  V30 2386 C 231.517 -1.78425 1.42267 0
M  V30 2387 C 232.495 -1.60085 0.284894 0
M  V30 2388 O 233.679 -1.82351 0.477527 0
M  V30 2389 C 230.806 -3.15642 1.22833 0
M  V30 2390 C 229.852 -3.52698 2.39806 0
M  V30 2391 S 230.685 -3.53372 4.02353 0
M  V30 2392 C 231.841 -4.93256 3.85291 0
M  V30 2393 H 232.074 -1.78897 2.37452 0
M  V30 2394 H 229.607 -0.831469 1.301 0
M  V30 2395 H 231.565 -3.94838 1.12308 0
M  V30 2396 H 230.226 -3.12739 0.29207 0
M  V30 2397 H 229.419 -4.52475 2.21996 0
M  V30 2398 H 229.021 -2.80899 2.46925 0
M  V30 2399 H 231.313 -5.81751 3.47235 0
M  V30 2400 H 232.256 -5.16115 4.84799 0
M  V30 2401 H 232.664 -4.665 3.17865 0
M  V30 2402 N 232.062 -1.29571 -0.897171 0
M  V30 2403 C 233.339 -1.08365 -1.62839 0
M  V30 2404 C 233.719 0.371331 -2.07808 0
M  V30 2405 O 233.067 1.3606 -1.83576 0
M  V30 2406 C 233.277 -2.0735 -2.80726 0
M  V30 2407 C 234.625 -2.38406 -3.51351 0
M  V30 2408 O 235.649 -2.05564 -2.90898 0
M  V30 2409 O 234.508 -2.9453 -4.60341 0
M  V30 2410 H 231.602 -0.415345 -0.715134 0
M  V30 2411 H 234.148 -1.40952 -0.945018 0
M  V30 2412 H 232.92 -3.05339 -2.44711 0
M  V30 2413 H 232.543 -1.75507 -3.56767 0
M  V30 2414 N 233.54 1.10788 -1.12088 0
M  V30 2415 C 234.503 2.15207 -0.788577 0
M  V30 2416 C 235.503 1.59609 0.195317 0
M  V30 2417 O 236.693 1.74174 -0.0300193 0
M  V30 2418 C 233.825 3.4047 -0.171174 0
M  V30 2419 H 235.018 2.46116 -1.71368 0
M  V30 2420 H 232.571 1.26089 -0.923652 0
M  V30 2421 H 233.306 3.15176 0.763832 0
M  V30 2422 H 233.091 3.82109 -0.879514 0
M  V30 2423 H 234.581 4.17576 0.04496 0
M  V30 2424 N 235.018 0.912232 1.28515 0
M  V30 2425 C 236.246 0.560416 1.99166 0
M  V30 2426 C 236.661 -0.857927 1.68182 0
M  V30 2427 O 236.018 -1.56805 0.933733 0
M  V30 2428 C 236.069 0.758142 3.53461 0
M  V30 2429 O 235.79 2.12067 3.83352 0
M  V30 2430 C 237.291 0.412954 4.41372 0
M  V30 2431 H 234.511 0.213805 0.636026 0
M  V30 2432 H 237.055 1.22502 1.63749 0
M  V30 2433 H 235.21 0.140556 3.87145 0
M  V30 2434 H 235.624 2.15923 4.77993 0
M  V30 2435 H 237.098 0.60208 5.48707 0
M  V30 2436 H 237.575 -0.65073 4.34353 0
M  V30 2437 H 238.181 1.00802 4.13182 0
M  V30 2438 N 236.496 -1.42363 0.676048 0
M  V30 2439 C 237.428 -2.29164 -0.0404605 0
M  V30 2440 C 238.441 -1.43747 -0.764245 0
M  V30 2441 O 239.63 -1.67453 -0.618195 0
M  V30 2442 C 236.73 -3.21196 -1.08103 0
M  V30 2443 C 235.903 -4.35273 -0.430812 0
M  V30 2444 C 234.962 -5.08017 -1.37133 0
M  V30 2445 O 233.988 -5.62494 -0.87116 0
M  V30 2446 N 235.19 -5.13647 -2.70456 0
M  V30 2447 H 237.955 -2.91298 0.704667 0
M  V30 2448 H 235.516 -1.53303 0.520559 0
M  V30 2449 H 237.508 -3.66728 -1.71152 0
M  V30 2450 H 236.078 -2.60505 -1.72788 0
M  V30 2451 H 235.298 -3.92372 0.379209 0
M  V30 2452 H 236.586 -5.08795 0.0221132 0
M  V30 2453 H 235.984 -4.708 -3.1363 0
M  V30 2454 H 234.541 -5.62821 -3.28749 0
M  V30 2455 N 237.974 -0.419461 -1.51915 0
M  V30 2456 C 239.223 0.154346 -2.01109 0
M  V30 2457 C 239.536 1.45338 -1.30905 0
M  V30 2458 O 240.742 2.10906 -1.7097 0
M  V30 2459 C 239.198 0.325615 -3.58424 0
M  V30 2460 C 238.806 -0.961934 -4.37551 0
M  V30 2461 C 240.55 0.854155 -4.15818 0
M  V30 2462 C 238.457 -0.757287 -5.86531 0
M  V30 2463 H 237.387 0.0614563 -0.751491 0
M  V30 2464 H 240.038 -0.54649 -1.75173 0
M  V30 2465 H 238.42 1.08903 -3.80731 0
M  V30 2466 H 239.594 -1.7323 -4.26999 0
M  V30 2467 H 237.909 -1.41766 -3.91524 0
M  V30 2468 H 240.506 1.02346 -5.24814 0
M  V30 2469 H 240.849 1.83172 -3.73837 0
M  V30 2470 H 241.382 0.149528 -3.97519 0
M  V30 2471 H 238.121 -1.70671 -6.32892 0
M  V30 2472 H 237.641 -0.0264061 -5.99794 0
M  V30 2473 H 239.32 -0.403482 -6.45741 0
M  V30 2474 N 239.452 1.56882 -0.150215 0
M  V30 2475 C 240.415 2.1573 0.774157 0
M  V30 2476 C 241.415 1.0999 1.17298 0
M  V30 2477 O 242.605 1.35613 1.09338 0
M  V30 2478 C 239.737 2.72302 2.05096 0
M  V30 2479 H 240.93 2.98752 0.262201 0
M  V30 2480 H 238.483 1.55985 0.099248 0
M  V30 2481 H 239.218 1.92956 2.6065 0
M  V30 2482 H 239.003 3.49665 1.77416 0
M  V30 2483 H 240.493 3.17632 2.71109 0
M  V30 2484 N 240.93 -0.123565 1.57115 0
M  V30 2485 C 242.178 -0.83051 1.84247 0
M  V30 2486 C 242.499 -1.80629 0.73471 0
M  V30 2487 O 241.769 -1.94403 -0.241688 0
M  V30 2488 H 240.349 -0.309694 0.679778 0
M  V30 2489 H 243.011 -0.111976 1.94578 0
M  V30 2490 H 242.107 -1.37852 2.80006 0
M  V30 2491 N 242.408 -1.52605 -0.393616 0
M  V30 2492 C 243.338 -1.80022 -1.48709 0
M  V30 2493 C 244.319 -0.651995 -1.57108 0
M  V30 2494 O 245.504 -0.89913 -1.72132 0
M  V30 2495 C 242.634 -1.96492 -2.86371 0
M  V30 2496 C 241.588 -3.12161 -2.92813 0
M  V30 2497 C 240.914 -3.13877 -4.3288 0
M  V30 2498 C 242.214 -4.51322 -2.6288 0
M  V30 2499 H 243.908 -2.71589 -1.26015 0
M  V30 2500 H 241.454 -1.30684 -0.604778 0
M  V30 2501 H 243.407 -2.14255 -3.62867 0
M  V30 2502 H 242.131 -1.01611 -3.10391 0
M  V30 2503 H 240.79 -2.94173 -2.18764 0
M  V30 2504 H 240.438 -2.16687 -4.53933 0
M  V30 2505 H 240.138 -3.91576 -4.38112 0
M  V30 2506 H 241.662 -3.33789 -5.1129 0
M  V30 2507 H 243.076 -4.69435 -3.29096 0
M  V30 2508 H 241.473 -5.31053 -2.79468 0
M  V30 2509 H 242.543 -4.58353 -1.58242 0
M  V30 2510 N 243.887 0.651787 -1.4349 0
M  V30 2511 C 244.835 1.78586 -1.49029 0
M  V30 2512 C 245.829 1.65448 -0.363767 0
M  V30 2513 O 247.035 1.71777 -0.537821 0
M  V30 2514 H 243.41 0.589236 -0.467231 0
M  V30 2515 H 245.381 1.71035 -2.44519 0
M  V30 2516 C 244.13 3.16851 -1.43181 0
M  V30 2517 H 243.453 3.27598 -2.29171 0
M  V30 2518 H 244.893 3.96156 -1.51118 0
M  V30 2519 C 243.352 3.36568 -0.149616 0
M  V30 2520 O 243.882 3.93885 0.788509 0
M  V30 2521 N 242.088 2.90539 -0.0593484 0
M  V30 2522 H 241.635 2.4408 -0.823575 0
M  V30 2523 H 241.593 3.04108 0.797853 0
M  V30 2524 N 245.365 1.30045 0.890287 0
M  V30 2525 C 246.605 1.19839 1.65584 0
M  V30 2526 C 246.969 -0.244175 1.90441 0
M  V30 2527 O 248.17 -0.469378 2.6467 0
M  V30 2528 C 246.441 1.99876 2.96284 0
M  V30 2529 S 248 2.06309 3.87275 0
M  V30 2530 H 244.818 0.427157 0.568382 0
M  V30 2531 H 247.42 1.64453 1.05715 0
M  V30 2532 H 246.124 3.03809 2.75913 0
M  V30 2533 H 245.655 1.55903 3.61189 0
M  V30 2534 H 247.67 1.18661 4.81803 0
M  V30 2535 N 246.843 -1.10192 1.12674 0
M  V30 2536 C 247.773 -2.18652 0.819362 0
M  V30 2537 C 248.754 -1.68698 -0.217915 0
M  V30 2538 O 249.939 -1.94041 -0.0785581 0
M  V30 2539 C 247.069 -3.46202 0.27594 0
M  V30 2540 C 246.023 -4.09444 1.24656 0
M  V30 2541 C 245.349 -5.31725 0.563258 0
M  V30 2542 C 246.649 -4.52863 2.60217 0
M  V30 2543 H 248.343 -2.44622 1.72628 0
M  V30 2544 H 245.889 -1.17571 0.831451 0
M  V30 2545 H 247.842 -4.21372 0.0486149 0
M  V30 2546 H 246.566 -3.1973 -0.666331 0
M  V30 2547 H 245.225 -3.36284 1.45974 0
M  V30 2548 H 244.873 -5.0153 -0.384235 0
M  V30 2549 H 244.573 -5.74991 1.21075 0
M  V30 2550 H 246.097 -6.09624 0.34503 0
M  V30 2551 H 247.511 -5.19294 2.42913 0
M  V30 2552 H 245.908 -5.06986 3.21068 0
M  V30 2553 H 246.978 -3.65656 3.18471 0
M  V30 2554 N 248.321 -0.919034 -1.28029 0
M  V30 2555 C 249.737 -0.617972 -1.4715 0
M  V30 2556 C 249.937 0.835242 -1.83374 0
M  V30 2557 O 248.993 1.61388 -1.94191 0
M  V30 2558 C 250.306 -1.56041 -2.57044 0
M  V30 2559 C 251.854 -1.56769 -2.7091 0
M  V30 2560 C 252.329 -2.49688 -3.83953 0
M  V30 2561 N 253.82 -2.47845 -3.91314 0
M  V30 2562 C 254.555 -3.16437 -4.78179 0
M  V30 2563 N 254.051 -3.94376 -5.69596 0
M  V30 2564 N 255.844 -3.05498 -4.71834 0
M  V30 2565 H 247.995 -1.85866 -1.02798 0
M  V30 2566 H 250.258 -0.797506 -0.512531 0
M  V30 2567 H 249.964 -2.59671 -2.372 0
M  V30 2568 H 249.838 -1.29551 -3.54255 0
M  V30 2569 H 252.225 -0.538745 -2.90141 0
M  V30 2570 H 252.306 -1.87305 -1.74214 0
M  V30 2571 H 251.95 -3.52688 -3.65477 0
M  V30 2572 H 251.88 -2.16453 -4.80058 0
M  V30 2573 H 254.371 -1.91234 -3.25941 0
M  V30 2574 H 254.684 -4.43721 -6.32718 0
M  V30 2575 H 253.029 -3.98481 -5.69419 0
M  V30 2576 H 256.22 -2.44108 -3.99411 0
M  V30 2577 H 256.393 -3.59225 -5.39316 0
M  V30 2578 N 249.799 1.42003 -0.683588 0
M  V30 2579 C 250.729 2.33487 -0.024866 0
M  V30 2580 C 251.71 1.51163 0.779975 0
M  V30 2581 O 252.895 1.79739 0.735362 0
M  V30 2582 C 250.025 3.3487 0.920836 0
M  V30 2583 C 248.979 4.27414 0.223958 0
M  V30 2584 C 248.305 5.19074 1.2832 0
M  V30 2585 C 249.605 5.14445 -0.90242 0
M  V30 2586 H 251.299 2.88819 -0.788921 0
M  V30 2587 H 248.845 1.38873 -0.38083 0
M  V30 2588 H 250.798 3.97787 1.39081 0
M  V30 2589 H 249.522 2.77861 1.71642 0
M  V30 2590 H 248.181 3.65904 -0.225864 0
M  V30 2591 H 247.829 4.58387 2.071 0
M  V30 2592 H 247.529 5.81822 0.821995 0
M  V30 2593 H 249.053 5.84867 1.75392 0
M  V30 2594 H 250.467 5.70998 -0.513272 0
M  V30 2595 H 248.864 5.86072 -1.28997 0
M  V30 2596 H 249.934 4.52322 -1.74737 0
M  V30 2597 N 251.277 0.427512 1.51691 0
M  V30 2598 C 252.21 -0.433876 2.24037 0
M  V30 2599 C 253.188 -1.03287 1.25581 0
M  V30 2600 O 254.372 -1.07722 1.54688 0
M  V30 2601 C 251.499 -1.60385 2.98319 0
M  V30 2602 C 250.545 -1.12648 4.11355 0
M  V30 2603 S 251.378 -0.076543 5.35445 0
M  V30 2604 C 252.534 -1.25141 6.13262 0
M  V30 2605 H 252.767 0.180367 2.96752 0
M  V30 2606 H 250.3 0.211946 1.52938 0
M  V30 2607 H 252.258 -2.27462 3.41718 0
M  V30 2608 H 250.919 -2.18948 2.25213 0
M  V30 2609 H 250.112 -2.0011 4.62571 0
M  V30 2610 H 249.714 -0.534088 3.70167 0
M  V30 2611 H 252.006 -2.17162 6.41753 0
M  V30 2612 H 252.949 -0.779411 7.03797 0
M  V30 2613 H 253.357 -1.48553 5.44603 0
M  V30 2614 N 252.755 -1.56801 0.158532 0
M  V30 2615 C 253.703 -2.18638 -0.793729 0
M  V30 2616 C 254.697 -1.14669 -1.24689 0
M  V30 2617 O 255.903 -1.32895 -1.21403 0
M  V30 2618 H 252.278 -0.700226 -0.274204 0
M  V30 2619 H 254.249 -2.97367 -0.248095 0
M  V30 2620 C 252.998 -2.83139 -2.0181 0
M  V30 2621 H 252.321 -3.62863 -1.67841 0
M  V30 2622 H 253.761 -3.29894 -2.66357 0
M  V30 2623 C 252.22 -1.82244 -2.83353 0
M  V30 2624 O 252.75 -1.3 -3.80083 0
M  V30 2625 N 250.956 -1.51288 -2.48114 0
M  V30 2626 H 250.503 -1.93964 -1.69516 0
M  V30 2627 H 250.461 -0.840296 -3.02963 0
M  V30 2628 N 254.233 0.115231 -1.57178 0
M  V30 2629 C 255.143 1.15994 -2.03918 0
M  V30 2630 C 256.159 1.45103 -0.960268 0
M  V30 2631 O 257.335 1.56144 -1.27204 0
M  V30 2632 C 254.4 2.46568 -2.43732 0
M  V30 2633 C 253.461 2.24822 -3.65723 0
M  V30 2634 C 252.694 3.4917 -4.03629 0
M  V30 2635 O 252.917 4.56623 -3.41835 0
M  V30 2636 O 251.851 3.39949 -4.96708 0
M  V30 2637 H 255.677 0.793019 -2.93164 0
M  V30 2638 H 253.262 0.3263 -1.45793 0
M  V30 2639 H 255.144 3.23492 -2.70057 0
M  V30 2640 H 253.819 2.82726 -1.57631 0
M  V30 2641 H 252.726 1.45744 -3.44542 0
M  V30 2642 H 254.059 1.93566 -4.52541 0
M  V30 2643 N 255.711 1.52812 0.385517 0
M  V30 2644 C 256.939 1.71907 1.15133 0
M  V30 2645 C 257.354 0.439004 1.83625 0
M  V30 2646 O 256.711 -0.586765 1.7281 0
M  V30 2647 C 256.762 2.87099 2.19673 0
M  V30 2648 O 256.483 4.10151 1.53973 0
M  V30 2649 C 257.984 3.17902 3.08955 0
M  V30 2650 H 255.204 0.575479 0.345057 0
M  V30 2651 H 257.748 1.99476 0.45052 0
M  V30 2652 H 255.903 2.61982 2.85384 0
M  V30 2653 H 256.317 4.74514 2.23465 0
M  V30 2654 H 257.791 4.01959 3.7833 0
M  V30 2655 H 258.268 2.3243 3.72657 0
M  V30 2656 H 258.874 3.44871 2.48885 0
M  V30 2657 N 257.189 -0.644168 1.43834 0
M  V30 2658 C 258.417 -1.43147 1.49387 0
M  V30 2659 C 258.832 -1.88452 0.114583 0
M  V30 2660 O 258.189 -1.60047 -0.876989 0
M  V30 2661 C 258.24 -2.66046 2.44748 0
M  V30 2662 O 257.961 -2.22633 3.77314 0
M  V30 2663 C 259.462 -3.59311 2.59635 0
M  V30 2664 H 256.682 -0.439447 0.507077 0
M  V30 2665 H 259.226 -0.78895 1.88669 0
M  V30 2666 H 257.381 -3.26418 2.08638 0
M  V30 2667 H 257.795 -3.02216 4.28679 0
M  V30 2668 H 259.269 -4.42187 3.30416 0
M  V30 2669 H 259.746 -4.07259 1.64427 0
M  V30 2670 H 260.352 -3.04816 2.96593 0
M  V30 2671 N 258.668 -1.30515 -0.883378 0
M  V30 2672 C 259.631 -1.1701 -1.97082 0
M  V30 2673 C 260.631 -0.10089 -1.60483 0
M  V30 2674 O 261.821 -0.349127 -1.70666 0
M  V30 2675 C 258.953 -0.793045 -3.31547 0
M  V30 2676 H 260.146 -2.13622 -2.10489 0
M  V30 2677 H 257.699 -1.13935 -1.06998 0
M  V30 2678 H 258.434 0.172499 -3.23841 0
M  V30 2679 H 258.219 -1.56576 -3.5948 0
M  V30 2680 H 259.709 -0.722073 -4.1131 0
M  V30 2681 N 260.146 1.09593 -1.13257 0
M  V30 2682 C 261.392 1.82003 -0.89458 0
M  V30 2683 C 261.725 1.85402 0.577906 0
M  V30 2684 O 261 1.32099 1.42759 0
M  V30 2685 C 261.283 3.28237 -1.48096 0
M  V30 2686 C 261.136 3.3312 -3.02244 0
M  V30 2687 C 262.455 4.24871 -1.14774 0
M  V30 2688 H 259.574 0.66077 -0.326424 0
M  V30 2689 H 262.216 1.28389 -1.40058 0
M  V30 2690 H 260.366 3.74024 -1.05062 0
M  V30 2691 H 262.038 2.95748 -3.54021 0
M  V30 2692 H 260.281 2.72756 -3.37323 0
M  V30 2693 H 260.952 4.3613 -3.38371 0
M  V30 2694 H 263.428 3.87361 -1.51957 0
M  V30 2695 H 262.304 5.25532 -1.58452 0
M  V30 2696 H 262.565 4.42058 -0.0611849 0
M  V30 2697 N 261.624 0.925811 1.2754 0
M  V30 2698 C 262.587 0.428129 2.25166 0
M  V30 2699 C 263.587 -0.452261 1.54309 0
M  V30 2700 O 264.777 -0.253608 1.72344 0
M  V30 2701 C 261.909 -0.384749 3.38722 0
M  V30 2702 H 263.102 1.29066 2.70706 0
M  V30 2703 H 260.655 0.706323 1.3943 0
M  V30 2704 H 261.39 -1.26618 2.98561 0
M  V30 2705 H 261.175 0.246454 3.91325 0
M  V30 2706 H 262.665 -0.723389 4.11287 0
M  V30 2707 N 263.102 -1.41638 0.69111 0
M  V30 2708 C 264.032 -2.3347 0.037248 0
M  V30 2709 C 265.013 -1.51575 -0.771947 0
M  V30 2710 O 266.198 -1.80126 -0.72582 0
M  V30 2711 C 263.328 -3.35354 -0.903064 0
M  V30 2712 C 262.282 -4.27526 -0.201288 0
M  V30 2713 C 261.608 -5.19747 -1.25565 0
M  V30 2714 C 262.908 -5.13959 0.929689 0
M  V30 2715 H 264.602 -2.88397 0.804227 0
M  V30 2716 H 262.148 -1.38669 0.388189 0
M  V30 2717 H 264.101 -3.98519 -1.36969 0
M  V30 2718 H 262.825 -2.78767 -1.70166 0
M  V30 2719 H 261.484 -3.65779 0.245265 0
M  V30 2720 H 261.132 -4.59479 -2.04666 0
M  V30 2721 H 260.832 -5.8225 -0.791128 0
M  V30 2722 H 262.356 -5.85789 -1.72288 0
M  V30 2723 H 263.77 -5.70718 0.543546 0
M  V30 2724 H 262.167 -5.85379 1.32103 0
M  V30 2725 H 263.237 -4.51389 1.77133 0
M  V30 2726 N 264.58 -0.43555 -1.51462 0
M  V30 2727 C 265.543 0.365137 -2.26273 0
M  V30 2728 C 266.543 0.951227 -1.29647 0
M  V30 2729 O 267.733 0.825958 -1.53374 0
M  V30 2730 C 264.865 1.51645 -3.05314 0
M  V30 2731 H 266.058 -0.290474 -2.9849 0
M  V30 2732 H 263.611 -0.188676 -1.55157 0
M  V30 2733 H 264.346 2.20816 -2.3751 0
M  V30 2734 H 264.131 1.10238 -3.76284 0
M  V30 2735 H 265.621 2.08218 -3.61987 0
M  V30 2736 N 266.058 1.56714 -0.166846 0
M  V30 2737 C 267.288 2.00828 0.48494 0
M  V30 2738 C 267.696 1.04612 1.57648 0
M  V30 2739 O 267.039 0.0383201 1.8366 0
M  V30 2740 C 267.101 3.4137 1.12723 0
M  V30 2741 C 266.765 4.56654 0.177886 0
M  V30 2742 C 267.762 5.16402 -0.60207 0
M  V30 2743 C 265.447 5.02244 0.0750139 0
M  V30 2744 C 267.441 6.20167 -1.47215 0
M  V30 2745 C 265.128 6.05859 -0.798649 0
M  V30 2746 C 266.126 6.64691 -1.57082 0
M  V30 2747 O 265.814 7.66297 -2.42989 0
M  V30 2748 H 265.546 0.663587 0.128953 0
M  V30 2749 H 268.1 2.03692 -0.264365 0
M  V30 2750 H 266.33 3.35406 1.92457 0
M  V30 2751 H 268.019 3.69466 1.68076 0
M  V30 2752 H 268.785 4.82065 -0.53274 0
M  V30 2753 H 264.664 4.56167 0.665812 0
M  V30 2754 H 268.208 6.66016 -2.07531 0
M  V30 2755 H 264.105 6.39621 -0.869199 0
M  V30 2756 H 264.873 7.83601 -2.36455 0
M  V30 2757 N 267.536 -0.106894 1.57237 0
M  V30 2758 C 268.784 -0.810921 1.85117 0
M  V30 2759 C 269.105 -1.7984 0.753827 0
M  V30 2760 O 268.375 -1.94649 -0.221056 0
M  V30 2761 H 266.955 -0.302466 0.683025 0
M  V30 2762 H 269.617 -0.0913324 1.94686 0
M  V30 2763 H 268.713 -1.34875 2.81452 0
M  V30 2764 N 269.014 -1.53014 -0.377408 0
M  V30 2765 C 270.263 -1.67845 -1.11853 0
M  V30 2766 C 270.576 -0.430625 -1.90801 0
M  V30 2767 O 271.782 -0.459261 -2.67587 0
M  V30 2768 C 270.238 -2.96668 -2.03756 0
M  V30 2769 C 269.846 -4.28671 -1.30175 0
M  V30 2770 C 271.59 -3.20865 -2.77932 0
M  V30 2771 C 269.497 -5.48591 -2.20911 0
M  V30 2772 H 268.427 -0.625343 -0.421263 0
M  V30 2773 H 271.078 -1.79514 -0.380409 0
M  V30 2774 H 269.46 -2.78773 -2.8125 0
M  V30 2775 H 270.634 -4.57157 -0.578259 0
M  V30 2776 H 268.949 -4.10825 -0.679108 0
M  V30 2777 H 271.546 -4.07642 -3.46024 0
M  V30 2778 H 271.889 -2.36424 -3.4265 0
M  V30 2779 H 272.422 -3.39379 -2.07525 0
M  V30 2780 H 269.161 -6.35474 -1.6079 0
M  V30 2781 H 268.681 -5.244 -2.91144 0
M  V30 2782 H 270.36 -5.8292 -2.80736 0
M  V30 2783 N 270.492 0.636531 -1.44174 0
M  V30 2784 C 271.722 1.42146 -1.49927 0
M  V30 2785 C 272.13 1.88812 -0.121063 0
M  V30 2786 O 271.473 1.61126 0.882267 0
M  V30 2787 C 271.535 2.67883 -2.39748 0
M  V30 2788 C 271.199 2.43048 -3.8701 0
M  V30 2789 C 272.196 2.05216 -4.77684 0
M  V30 2790 C 269.881 2.56856 -4.3166 0
M  V30 2791 C 271.875 1.81512 -6.11009 0
M  V30 2792 C 269.562 2.32766 -5.65034 0
M  V30 2793 C 270.56 1.95152 -6.54526 0
M  V30 2794 O 270.248 1.71326 -7.85431 0
M  V30 2795 H 269.98 0.442567 -0.51099 0
M  V30 2796 H 272.534 0.786158 -1.8976 0
M  V30 2797 H 270.764 3.34032 -1.94832 0
M  V30 2798 H 272.453 3.29874 -2.36513 0
M  V30 2799 H 273.219 1.94111 -4.44462 0
M  V30 2800 H 269.098 2.85104 -3.62266 0
M  V30 2801 H 272.642 1.52077 -6.80822 0
M  V30 2802 H 268.539 2.43479 -5.97819 0
M  V30 2803 H 269.307 1.85616 -7.97176 0
M  V30 2804 N 271.97 1.30982 0.876444 0
M  V30 2805 C 272.917 1.18085 1.98304 0
M  V30 2806 C 273.887 0.0682263 1.6596 0
M  V30 2807 O 275.072 0.239937 1.89285 0
M  V30 2808 C 272.212 0.887475 3.33493 0
M  V30 2809 C 271.325 2.08281 3.78475 0
M  V30 2810 C 270.46 1.72678 5.0235 0
M  V30 2811 C 269.499 2.88657 5.39762 0
M  V30 2812 N 268.636 2.53292 6.54819 0
M  V30 2813 H 273.476 2.1275 2.08666 0
M  V30 2814 H 271.013 1.05839 1.02159 0
M  V30 2815 H 272.971 0.697961 4.1132 0
M  V30 2816 H 271.601 -0.022315 3.22792 0
M  V30 2817 H 270.653 2.3833 2.96484 0
M  V30 2818 H 271.965 2.95108 4.02135 0
M  V30 2819 H 271.119 1.50151 5.87826 0
M  V30 2820 H 269.858 0.830327 4.8058 0
M  V30 2821 H 268.863 3.1184 4.52809 0
M  V30 2822 H 270.088 3.79002 5.63502 0
M  V30 2823 H 268.034 1.66163 6.34607 0
M  V30 2824 H 267.951 3.3365 6.7839 0
M  V30 2825 H 269.219 2.34143 7.43503 0
M  V30 2826 N 273.449 -1.08991 1.13837 0
M  V30 2827 C 274.381 -2.15606 0.777612 0
M  V30 2828 C 275.394 -1.61533 -0.202739 0
M  V30 2829 O 276.583 -1.78491 0.0181055 0
M  V30 2830 C 273.683 -3.3864 0.132623 0
M  V30 2831 C 272.856 -4.22115 1.1462 0
M  V30 2832 C 271.915 -5.23564 0.526074 0
M  V30 2833 O 270.941 -5.56678 1.18735 0
M  V30 2834 N 272.143 -5.76266 -0.699866 0
M  V30 2835 H 274.908 -2.47159 1.69506 0
M  V30 2836 H 272.469 -1.24747 1.03198 0
M  V30 2837 H 274.461 -4.03626 -0.29459 0
M  V30 2838 H 273.031 -3.04938 -0.687849 0
M  V30 2839 H 272.251 -3.53199 1.75055 0
M  V30 2840 H 273.539 -4.74709 1.83109 0
M  V30 2841 H 272.937 -5.51585 -1.25581 0
M  V30 2842 H 271.494 -6.42963 -1.06968 0
M  V30 2843 N 274.927 -0.932562 -1.27047 0
M  V30 2844 C 276.204 -0.49377 -1.89265 0
M  V30 2845 C 276.584 1.02833 -1.8436 0
M  V30 2846 O 275.932 1.88461 -1.29209 0
M  V30 2847 C 276.142 -1.04536 -3.32976 0
M  V30 2848 C 277.49 -1.10879 -4.09867 0
M  V30 2849 O 278.514 -0.995327 -3.42011 0
M  V30 2850 O 277.373 -1.28417 -5.31198 0
M  V30 2851 H 274.467 -0.159596 -0.811454 0
M  V30 2852 H 277.013 -1.02457 -1.3528 0
M  V30 2853 H 275.785 -2.08913 -3.30864 0
M  V30 2854 H 275.408 -0.496494 -3.94488 0
M  V30 2855 N 276.405 1.4127 -0.698611 0
M  V30 2856 C 277.335 2.33447 -0.049629 0
M  V30 2857 C 278.316 1.51982 0.763898 0
M  V30 2858 O 279.501 1.80509 0.716257 0
M  V30 2859 C 276.631 3.35828 0.885267 0
M  V30 2860 C 275.585 4.27627 0.178613 0
M  V30 2861 C 274.911 5.20406 1.22807 0
M  V30 2862 C 276.211 5.13459 -0.956933 0
M  V30 2863 H 277.905 2.87966 -0.81951 0
M  V30 2864 H 275.451 1.38461 -0.395538 0
M  V30 2865 H 277.404 3.9924 1.34854 0
M  V30 2866 H 276.128 2.79666 1.68685 0
M  V30 2867 H 274.787 3.65643 -0.26466 0
M  V30 2868 H 274.435 4.60558 2.02226 0
M  V30 2869 H 274.135 5.82661 0.760239 0
M  V30 2870 H 275.659 5.86695 1.69179 0
M  V30 2871 H 277.073 5.70421 -0.573805 0
M  V30 2872 H 275.47 5.8467 -1.35205 0
M  V30 2873 H 276.54 4.50443 -1.79524 0
M  V30 2874 N 277.883 0.443576 1.51229 0
M  V30 2875 C 279.294 -0.0180867 1.86691 0
M  V30 2876 C 279.645 -1.41384 1.36033 0
M  V30 2877 O 278.77 -2.04291 0.713722 0
M  V30 2878 C 279.365 -0.039597 3.38777 0
M  V30 2879 C 277.924 -0.445692 3.73752 0
M  V30 2880 C 277.071 0.357584 2.74985 0
M  V30 2881 H 280.022 0.659138 1.44364 0
M  V30 2882 H 280.043 -0.847761 3.70936 0
M  V30 2883 H 279.555 0.976382 3.75617 0
M  V30 2884 H 277.656 -1.46704 3.42503 0
M  V30 2885 H 277.769 -0.166155 4.78812 0
M  V30 2886 H 276.133 -0.184973 2.54027 0
M  V30 2887 H 276.916 1.37256 3.14668 0
M  V30 2888 N 279.361 -1.56624 0.175154 0
M  V30 2889 C 280.324 -2.16934 -0.739738 0
M  V30 2890 C 281.324 -1.11842 -1.15533 0
M  V30 2891 O 282.514 -1.37335 -1.07167 0
M  V30 2892 C 279.646 -2.75531 -2.00738 0
M  V30 2893 H 280.839 -2.99131 -0.214639 0
M  V30 2894 H 278.392 -1.56123 -0.0744197 0
M  V30 2895 H 279.127 -1.97078 -2.57548 0
M  V30 2896 H 278.912 -3.52444 -1.71831 0
M  V30 2897 H 280.402 -3.21904 -2.66021 0
M  V30 2898 N 280.839 0.0985539 -1.57292 0
M  V30 2899 C 281.769 1.12064 -2.04851 0
M  V30 2900 C 282.75 1.41981 -0.936767 0
M  V30 2901 O 283.935 1.52071 -1.20781 0
M  V30 2902 C 281.065 2.44144 -2.47004 0
M  V30 2903 C 280.019 2.28643 -3.6181 0
M  V30 2904 C 279.345 3.65869 -3.89929 0
M  V30 2905 C 280.645 1.72986 -4.92822 0
M  V30 2906 H 282.339 0.724979 -2.9049 0
M  V30 2907 H 279.885 0.34729 -1.39749 0
M  V30 2908 H 281.838 3.15914 -2.78884 0
M  V30 2909 H 280.562 2.85639 -1.5836 0
M  V30 2910 H 279.221 1.59318 -3.30172 0
M  V30 2911 H 278.869 4.04885 -2.98458 0
M  V30 2912 H 278.569 3.56344 -4.67218 0
M  V30 2913 H 280.093 4.39112 -4.2428 0
M  V30 2914 H 281.507 2.34593 -5.23105 0
M  V30 2915 H 279.904 1.74229 -5.74251 0
M  V30 2916 H 280.974 0.689007 -4.7998 0
M  V30 2917 N 282.317 1.53212 0.369288 0
M  V30 2918 C 283.227 1.82342 1.47609 0
M  V30 2919 C 284.243 0.711532 1.58787 0
M  V30 2920 O 285.419 1.0012 1.74751 0
M  V30 2921 C 282.484 2.00393 2.8292 0
M  V30 2922 C 281.545 3.24297 2.81301 0
M  V30 2923 C 280.778 3.41478 4.10157 0
M  V30 2924 O 281.001 2.63033 5.06132 0
M  V30 2925 O 279.935 4.34817 4.16194 0
M  V30 2926 H 283.761 2.76366 1.25918 0
M  V30 2927 H 281.346 1.38547 0.559034 0
M  V30 2928 H 283.228 2.13859 3.63101 0
M  V30 2929 H 281.903 1.09559 3.04596 0
M  V30 2930 H 280.81 3.16257 1.99831 0
M  V30 2931 H 282.143 4.15041 2.64578 0
M  V30 2932 N 283.795 -0.628877 1.44509 0
M  V30 2933 C 284.705 -1.7694 1.54044 0
M  V30 2934 C 285.721 -1.68705 0.425987 0
M  V30 2935 O 286.897 -1.89442 0.683656 0
M  V30 2936 C 283.962 -3.13332 1.48405 0
M  V30 2937 C 283.023 -3.33181 2.70719 0
M  V30 2938 C 282.256 -4.63067 2.6534 0
M  V30 2939 O 282.479 -5.44017 1.71469 0
M  V30 2940 O 281.413 -4.85167 3.56226 0
M  V30 2941 H 285.239 -1.71848 2.50403 0
M  V30 2942 H 282.824 -0.790378 1.26781 0
M  V30 2943 H 284.706 -3.94634 1.47791 0
M  V30 2944 H 283.381 -3.1896 0.551898 0
M  V30 2945 H 282.288 -2.51549 2.769 0
M  V30 2946 H 283.621 -3.32416 3.62988 0
M  V30 2947 N 285.273 -1.31445 -0.869486 0
M  V30 2948 C 286.22 -1.19135 -1.97675 0
M  V30 2949 C 287.19 -0.0770266 -1.65921 0
M  V30 2950 O 288.375 -0.249972 -1.89155 0
M  V30 2951 C 285.515 -0.905149 -3.33018 0
M  V30 2952 C 284.628 -2.10285 -3.77365 0
M  V30 2953 C 283.763 -1.75339 -5.01427 0
M  V30 2954 C 282.802 -2.91515 -5.38224 0
M  V30 2955 N 281.939 -2.56762 -6.53466 0
M  V30 2956 H 286.779 -2.13853 -2.07535 0
M  V30 2957 H 284.316 -1.06379 -1.01597 0
M  V30 2958 H 286.274 -0.719765 -4.10944 0
M  V30 2959 H 284.904 0.00519624 -3.228 0
M  V30 2960 H 283.956 -2.39899 -2.95216 0
M  V30 2961 H 285.268 -2.97237 -4.00564 0
M  V30 2962 H 284.422 -1.53266 -5.87022 0
M  V30 2963 H 283.161 -0.855801 -4.80133 0
M  V30 2964 H 282.166 -3.14237 -4.51149 0
M  V30 2965 H 283.391 -3.81985 -5.61484 0
M  V30 2966 H 281.337 -1.69526 -6.33717 0
M  V30 2967 H 281.254 -3.37243 -6.76612 0
M  V30 2968 H 282.522 -2.38083 -7.42251 0
M  V30 2969 N 286.751 1.08385 -1.14413 0
M  V30 2970 C 288.162 1.62258 -0.923535 0
M  V30 2971 C 288.513 1.88691 0.537595 0
M  V30 2972 O 287.638 1.64454 1.40655 0
M  V30 2973 C 288.233 2.94781 -1.67002 0
M  V30 2974 C 286.792 3.45437 -1.495 0
M  V30 2975 C 285.939 2.19668 -1.69238 0
M  V30 2976 H 288.89 0.916086 -1.2959 0
M  V30 2977 H 288.911 3.63229 -1.13334 0
M  V30 2978 H 288.423 2.7551 -2.73342 0
M  V30 2979 H 286.524 3.6981 -0.455097 0
M  V30 2980 H 286.637 4.22173 -2.2651 0
M  V30 2981 H 285.001 2.28849 -1.11804 0
M  V30 2982 H 285.784 2.02905 -2.7692 0
M  V30 2983 N 288.23 0.939286 1.26551 0
M  V30 2984 C 289.646 0.641304 1.46149 0
M  V30 2985 C 289.846 -0.805964 1.84679 0
M  V30 2986 O 288.902 -1.58278 1.96734 0
M  V30 2987 C 290.215 1.6011 2.54529 0
M  V30 2988 C 291.763 1.6106 2.68382 0
M  V30 2989 C 292.238 2.55765 3.79932 0
M  V30 2990 N 293.729 2.5404 3.87322 0
M  V30 2991 C 294.464 3.24004 4.73085 0
M  V30 2992 N 293.96 4.03388 5.63249 0
M  V30 2993 N 295.753 3.12965 4.66914 0
M  V30 2994 H 287.904 1.87478 0.998285 0
M  V30 2995 H 290.167 0.805559 0.499779 0
M  V30 2996 H 289.873 2.63412 2.33039 0
M  V30 2997 H 289.747 1.35171 3.52149 0
M  V30 2998 H 292.134 0.584835 2.89247 0
M  V30 2999 H 292.215 1.90053 1.71212 0
M  V30 3000 H 291.859 3.58458 3.5982 0
M  V30 3001 H 291.789 2.24063 4.76554 0
M  V30 3002 H 294.28 1.96396 3.22858 0
M  V30 3003 H 294.593 4.5373 6.25579 0
M  V30 3004 H 292.938 4.07489 5.63008 0
M  V30 3005 H 296.129 2.50432 3.95476 0
M  V30 3006 H 296.302 3.67759 5.33533 0
M  V30 3007 N 289.708 -1.40897 0.706093 0
M  V30 3008 C 290.656 -2.32572 0.0361893 0
M  V30 3009 C 291.65 -1.51532 -0.757266 0
M  V30 3010 O 292.856 -1.67396 -0.661703 0
M  V30 3011 H 289.231 -0.751966 -0.00709935 0
M  V30 3012 H 291.202 -2.86733 0.826249 0
M  V30 3013 C 289.951 -3.36418 -0.87854 0
M  V30 3014 H 289.274 -3.98836 -0.277401 0
M  V30 3015 H 290.714 -4.0308 -1.3154 0
M  V30 3016 C 289.173 -2.71141 -1.99961 0
M  V30 3017 O 289.703 -2.56735 -3.0895 0
M  V30 3018 N 287.909 -2.29671 -1.78043 0
M  V30 3019 H 287.456 -2.41588 -0.894042 0
M  V30 3020 H 287.414 -1.86332 -2.53235 0
M  V30 3021 N 291.186 -0.45159 -1.50991 0
M  V30 3022 C 292.432 0.110237 -2.025 0
M  V30 3023 C 292.765 1.41109 -1.33424 0
M  V30 3024 O 292.04 1.89135 -0.453659 0
M  V30 3025 C 292.323 0.314271 -3.58726 0
M  V30 3026 C 292.176 -1.00623 -4.38401 0
M  V30 3027 C 293.495 1.07767 -4.26702 0
M  V30 3028 H 290.614 0.0385897 -0.735989 0
M  V30 3029 H 293.256 -0.593374 -1.80497 0
M  V30 3030 H 291.406 0.913601 -3.77605 0
M  V30 3031 H 293.078 -1.64064 -4.31139 0
M  V30 3032 H 291.321 -1.6075 -4.02917 0
M  V30 3033 H 291.992 -0.817341 -5.45915 0
M  V30 3034 H 294.468 0.56986 -4.12179 0
M  V30 3035 H 293.344 1.18921 -5.35863 0
M  V30 3036 H 293.605 2.10939 -3.88532 0
M  V30 3037 N 292.664 1.56529 -0.183458 0
M  V30 3038 C 293.91 1.97537 0.459036 0
M  V30 3039 C 294.243 1.06989 1.62071 0
M  V30 3040 O 293.518 0.11948 1.94133 0
M  V30 3041 C 293.801 3.47874 0.930368 0
M  V30 3042 C 293.654 4.492 -0.232317 0
M  V30 3043 C 294.973 4.01612 1.79989 0
M  V30 3044 H 292.092 0.718204 0.165383 0
M  V30 3045 H 294.734 1.88042 -0.272038 0
M  V30 3046 H 292.884 3.56095 1.55333 0
M  V30 3047 H 294.556 4.53027 -0.86972 0
M  V30 3048 H 292.799 4.24657 -0.885928 0
M  V30 3049 H 293.47 5.51823 0.139796 0
M  V30 3050 H 295.946 3.96097 1.27461 0
M  V30 3051 H 294.822 5.07195 2.09867 0
M  V30 3052 H 295.083 3.46163 2.74998 0
M  V30 3053 N 294.142 -0.090211 1.57342 0
M  V30 3054 C 295.389 -0.792807 1.86335 0
M  V30 3055 C 295.717 -1.78494 0.772662 0
M  V30 3056 O 294.972 -1.94305 -0.233258 0
M  V30 3057 C 295.271 -1.55222 3.21933 0
M  V30 3058 C 294.937 -0.701765 4.45406 0
M  V30 3059 C 293.599 -0.467334 4.78925 0
M  V30 3060 C 295.951 -0.11086 5.21082 0
M  V30 3061 C 293.279 0.367785 5.85546 0
M  V30 3062 C 295.631 0.711609 6.28585 0
M  V30 3063 C 294.295 0.956086 6.60617 0
M  V30 3064 H 293.565 -0.290109 0.681849 0
M  V30 3065 H 296.212 -0.0541332 1.91423 0
M  V30 3066 H 294.517 -2.3626 3.12551 0
M  V30 3067 H 296.214 -2.10032 3.41595 0
M  V30 3068 H 292.804 -0.894598 4.1916 0
M  V30 3069 H 296.988 -0.279129 4.95514 0
M  V30 3070 H 292.244 0.566128 6.08773 0
M  V30 3071 H 296.418 1.17632 6.86393 0
M  V30 3072 H 294.045 1.60499 7.43064 0
M  V30 3073 N 295.62 -1.53406 -0.361157 0
M  V30 3074 C 296.866 -1.70054 -1.10496 0
M  V30 3075 C 297.199 -0.453278 -1.88836 0
M  V30 3076 O 296.474 0.5495 -1.86576 0
M  V30 3077 C 296.757 -2.95317 -2.06058 0
M  V30 3078 C 296.61 -4.3021 -1.31298 0
M  V30 3079 C 297.929 -3.16193 -3.06121 0
M  V30 3080 H 295.048 -0.618799 -0.400321 0
M  V30 3081 H 297.69 -1.86052 -0.385318 0
M  V30 3082 H 295.84 -2.81809 -2.67425 0
M  V30 3083 H 297.512 -4.55538 -0.726807 0
M  V30 3084 H 295.755 -4.29421 -0.614853 0
M  V30 3085 H 296.426 -5.14 -2.01265 0
M  V30 3086 H 298.902 -3.28916 -2.5486 0
M  V30 3087 H 297.778 -4.05266 -3.70204 0
M  V30 3088 H 298.039 -2.31676 -3.76535 0
M  V30 3089 N 297.098 0.621204 -1.44841 0
M  V30 3090 C 298.375 1.38 -1.38619 0
M  V30 3091 C 298.755 2.11041 -0.0498935 0
M  V30 3092 O 298.103 2.06992 0.967816 0
M  V30 3093 C 298.313 2.33817 -2.59096 0
M  V30 3094 C 299.661 2.96844 -3.03593 0
M  V30 3095 O 300.685 2.44141 -2.59371 0
M  V30 3096 O 299.544 3.92476 -3.80296 0
M  V30 3097 H 296.638 0.61811 -0.549426 0
M  V30 3098 H 299.184 0.645429 -1.56947 0
M  V30 3099 H 297.956 1.79012 -3.47952 0
M  V30 3100 H 297.579 3.14676 -2.43032 0
M  V30 3101 N 298.576 1.31904 0.862503 0
M  V30 3102 C 299.509 1.14514 1.97388 0
M  V30 3103 C 300.487 0.0466493 1.62533 0
M  V30 3104 O 301.671 0.204484 1.87388 0
M  V30 3105 C 298.798 0.751347 3.30261 0
M  V30 3106 C 297.844 1.85395 3.84098 0
M  V30 3107 S 298.677 3.46081 4.08642 0
M  V30 3108 C 299.833 3.08655 5.44502 0
M  V30 3109 H 300.066 2.08597 2.11836 0
M  V30 3110 H 297.599 1.16475 1.01356 0
M  V30 3111 H 299.557 0.530901 4.07052 0
M  V30 3112 H 298.218 -0.170493 3.13637 0
M  V30 3113 H 297.411 1.53122 4.80177 0
M  V30 3114 H 297.013 2.02984 3.14123 0
M  V30 3115 H 299.305 2.58012 6.26447 0
M  V30 3116 H 300.248 4.03726 5.81731 0
M  V30 3117 H 300.656 2.45891 5.08132 0
M  V30 3118 N 300.054 -1.07777 1.14986 0
M  V30 3119 C 301.302 -1.79934 0.920235 0
M  V30 3120 C 301.623 -1.86955 -0.554336 0
M  V30 3121 O 300.893 -1.36731 -1.40291 0
M  V30 3122 H 299.473 -0.666424 0.337473 0
M  V30 3123 H 302.135 -1.3027 1.44968 0
M  V30 3124 H 301.231 -2.82539 1.32583 0
M  V30 3125 N 301.532 -0.945985 -1.26051 0
M  V30 3126 C 302.482 -0.430164 -2.23905 0
M  V30 3127 C 303.466 0.47579 -1.53704 0
M  V30 3128 O 304.658 0.310252 -1.7426 0
M  V30 3129 C 301.787 0.298957 -3.41996 0
M  V30 3130 C 300.873 -0.624566 -4.19476 0
M  V30 3131 N 301.264 -1.75245 -4.74471 0
M  V30 3132 C 299.562 -0.431082 -4.43912 0
M  V30 3133 C 300.263 -2.32834 -5.3307 0
M  V30 3134 N 299.239 -1.61583 -5.1903 0
M  V30 3135 H 303.041 -1.29107 -2.64024 0
M  V30 3136 H 300.555 -0.802428 -1.41191 0
M  V30 3137 H 302.552 0.685565 -4.11225 0
M  V30 3138 H 301.212 1.15657 -3.03403 0
M  V30 3139 H 302.223 -2.13449 -4.71868 0
M  V30 3140 H 298.9 0.384364 -4.15727 0
M  V30 3141 H 300.29 -3.27893 -5.86461 0
M  V30 3142 N 303.011 1.40521 -0.713556 0
M  V30 3143 C 304.236 2.05759 -0.26035 0
M  V30 3144 C 304.661 1.53403 1.08854 0
M  V30 3145 O 304.019 0.668535 1.68524 0
M  V30 3146 C 304.067 3.59745 -0.248122 0
M  V30 3147 O 303.171 4.05123 0.77131 0
M  V30 3148 H 302.512 0.652564 -0.122703 0
M  V30 3149 H 305.042 1.79958 -0.973467 0
M  V30 3150 H 305.052 4.07911 -0.0851129 0
M  V30 3151 H 303.727 3.97218 -1.2325 0
M  V30 3152 H 302.304 3.68422 0.57619 0
M  V30 3153 N 304.489 0.459591 1.5075 0
M  V30 3154 C 305.452 -0.329093 2.26825 0
M  V30 3155 C 306.452 -0.930481 1.31144 0
M  V30 3156 O 307.642 -0.801453 1.54669 0
M  V30 3157 C 304.774 -1.46768 3.07688 0
M  V30 3158 H 305.967 0.337924 2.9799 0
M  V30 3159 H 303.52 0.213336 1.54837 0
M  V30 3160 H 304.255 -2.17009 2.40993 0
M  V30 3161 H 304.04 -1.04238 3.77991 0
M  V30 3162 H 305.53 -2.02433 3.65254 0
M  V30 3163 N 305.967 -1.56429 0.191757 0
M  V30 3164 C 307.197 -2.01574 -0.452928 0
M  V30 3165 C 307.605 -1.07107 -1.55964 0
M  V30 3166 O 306.948 -0.067534 -1.83576 0
M  V30 3167 C 307.01 -3.43121 -1.07278 0
M  V30 3168 C 306.674 -4.56879 -0.105214 0
M  V30 3169 C 307.671 -5.15379 0.684149 0
M  V30 3170 C 305.356 -5.023 0.00489824 0
M  V30 3171 C 307.35 -6.17746 1.57062 0
M  V30 3172 C 305.037 -6.04511 0.894935 0
M  V30 3173 C 306.035 -6.62108 1.67637 0
M  V30 3174 O 305.723 -7.62335 2.55149 0
M  V30 3175 H 305.455 -0.665554 -0.118379 0
M  V30 3176 H 308.009 -2.03245 0.296737 0
M  V30 3177 H 306.239 -3.38425 -1.87097 0
M  V30 3178 H 307.928 -3.72093 -1.62177 0
M  V30 3179 H 308.694 -4.81157 0.609365 0
M  V30 3180 H 304.573 -4.57168 -0.593156 0
M  V30 3181 H 308.117 -6.6263 2.181 0
M  V30 3182 H 304.014 -6.38157 0.970847 0
M  V30 3183 H 304.782 -7.79741 2.48892 0
M  V30 3184 N 307.445 0.0818655 -1.57387 0
M  V30 3185 C 308.377 1.12484 -1.997 0
M  V30 3186 C 309.39 1.35564 -0.90146 0
M  V30 3187 O 310.579 1.33982 -1.17945 0
M  V30 3188 C 307.679 2.47778 -2.31213 0
M  V30 3189 C 306.852 2.44793 -3.62485 0
M  V30 3190 C 305.911 3.62117 -3.81782 0
M  V30 3191 O 304.937 3.44005 -4.53486 0
M  V30 3192 N 306.139 4.82094 -3.23367 0
M  V30 3193 H 308.904 0.764585 -2.89783 0
M  V30 3194 H 306.465 0.270664 -1.59621 0
M  V30 3195 H 308.457 3.24891 -2.41304 0
M  V30 3196 H 307.027 2.75843 -1.4707 0
M  V30 3197 H 306.247 1.53134 -3.6324 0
M  V30 3198 H 307.535 2.39889 -4.48699 0
M  V30 3199 H 306.933 4.99713 -2.65148 0
M  V30 3200 H 305.49 5.56753 -3.38923 0
M  V30 3201 N 308.923 1.53595 0.353017 0
M  V30 3202 C 310.169 1.70638 1.09593 0
M  V30 3203 C 310.502 0.463286 1.88593 0
M  V30 3204 O 309.777 -0.539597 1.86865 0
M  V30 3205 C 310.06 2.96406 2.04489 0
M  V30 3206 C 309.913 4.30901 1.29014 0
M  V30 3207 C 311.232 3.17812 3.0444 0
M  V30 3208 H 308.351 0.620913 0.397034 0
M  V30 3209 H 310.993 1.86254 0.375446 0
M  V30 3210 H 309.143 2.83223 2.65927 0
M  V30 3211 H 310.815 4.55917 0.702638 0
M  V30 3212 H 309.058 4.29741 0.592071 0
M  V30 3213 H 309.729 5.1506 1.98537 0
M  V30 3214 H 312.205 3.30263 2.53112 0
M  V30 3215 H 311.081 4.07223 3.6805 0
M  V30 3216 H 311.342 2.33669 3.75301 0
M  V30 3217 N 310.401 -0.613514 1.45168 0
M  V30 3218 C 311.626 -1.40437 1.52618 0
M  V30 3219 C 312.051 -1.87438 0.157707 0
M  V30 3220 O 311.409 -1.59791 -0.856537 0
M  V30 3221 C 311.457 -2.58894 2.51011 0
M  V30 3222 O 310.561 -3.59326 2.02382 0
M  V30 3223 H 309.902 -0.419506 0.514695 0
M  V30 3224 H 312.432 -0.747215 1.90467 0
M  V30 3225 H 312.442 -3.06214 2.69624 0
M  V30 3226 H 311.117 -2.24032 3.50403 0
M  V30 3227 H 309.694 -3.18695 1.93618 0
M  V30 3228 N 311.879 -1.3236 -0.855495 0
M  V30 3229 C 313.125 -1.23054 -1.612 0
M  V30 3230 C 313.458 0.207404 -1.93089 0
M  V30 3231 O 312.733 1.14432 -1.57275 0
M  V30 3232 C 313.016 -2.08937 -2.93287 0
M  V30 3233 C 312.869 -3.61105 -2.68185 0
M  V30 3234 C 314.188 -1.94986 -3.94549 0
M  V30 3235 H 311.307 -0.448364 -0.584926 0
M  V30 3236 H 313.949 -1.62297 -0.987917 0
M  V30 3237 H 312.099 -1.75599 -3.46551 0
M  V30 3238 H 313.771 -4.04652 -2.21483 0
M  V30 3239 H 312.014 -3.83813 -2.02164 0
M  V30 3240 H 312.685 -4.16522 -3.62234 0
M  V30 3241 H 315.161 -2.24189 -3.5054 0
M  V30 3242 H 314.037 -2.57356 -4.84829 0
M  V30 3243 H 314.298 -0.917263 -4.3248 0
M  V30 3244 N 313.357 1.07166 -1.15556 0
M  V30 3245 C 314.597 1.81391 -0.94216 0
M  V30 3246 C 314.961 1.84788 0.521272 0
M  V30 3247 O 316.162 2.54904 0.85307 0
M  V30 3248 C 314.433 3.22431 -1.54185 0
M  V30 3249 S 315.992 4.13379 -1.47183 0
M  V30 3250 H 312.81 0.624963 -0.339031 0
M  V30 3251 H 315.412 1.28725 -1.4714 0
M  V30 3252 H 314.116 3.17548 -2.59984 0
M  V30 3253 H 313.647 3.80172 -1.01156 0
M  V30 3254 H 315.662 4.94007 -0.466004 0
M  V30 3255 N 314.835 0.952656 1.25548 0
M  V30 3256 C 315.798 0.475794 2.24207 0
M  V30 3257 C 316.798 -0.419428 1.55234 0
M  V30 3258 O 317.988 -0.216994 1.72843 0
M  V30 3259 C 315.12 -0.312814 3.39462 0
M  V30 3260 H 316.313 1.34779 2.67908 0
M  V30 3261 H 313.866 0.735739 1.37901 0
M  V30 3262 H 314.601 -1.20257 3.01179 0
M  V30 3263 H 314.386 0.329404 3.90714 0
M  V30 3264 H 315.876 -0.635986 4.12729 0
M  V30 3265 N 316.313 -1.40141 0.720998 0
M  V30 3266 C 317.56 -2.00787 0.262842 0
M  V30 3267 C 317.888 -1.5718 -1.14563 0
M  V30 3268 O 317.143 -0.785391 -1.79249 0
M  V30 3269 C 317.442 -3.56165 0.296892 0
M  V30 3270 C 317.108 -4.19373 1.65641 0
M  V30 3271 C 315.77 -4.36352 2.02855 0
M  V30 3272 C 318.122 -4.54578 2.54968 0
M  V30 3273 C 315.45 -4.8582 3.28931 0
M  V30 3274 C 317.802 -5.05447 3.80402 0
M  V30 3275 C 316.466 -5.20635 4.17726 0
M  V30 3276 H 315.736 -0.734731 0.0961807 0
M  V30 3277 H 318.383 -1.67673 0.925093 0
M  V30 3278 H 316.688 -3.8922 -0.448932 0
M  V30 3279 H 318.385 -4.00929 -0.0755208 0
M  V30 3280 H 314.975 -4.06549 1.35704 0
M  V30 3281 H 319.159 -4.41091 2.27491 0
M  V30 3282 H 314.415 -4.95764 3.57811 0
M  V30 3283 H 318.589 -5.31663 4.49786 0
M  V30 3284 H 316.216 -5.58728 5.15487 0
M  V30 3285 N 317.792 -0.46758 -1.50504 0
M  V30 3286 C 318.74 0.342482 -2.30065 0
M  V30 3287 C 319.734 0.993596 -1.37201 0
M  V30 3288 O 320.94 0.925102 -1.54408 0
M  V30 3289 H 317.315 0.129283 -0.740803 0
M  V30 3290 H 319.286 -0.34899 -2.96352 0
M  V30 3291 C 318.035 1.4139 -3.17654 0
M  V30 3292 H 317.358 0.922264 -3.89017 0
M  V30 3293 H 318.798 1.95335 -3.76325 0
M  V30 3294 C 317.257 2.4139 -2.35016 0
M  V30 3295 O 317.787 3.46586 -2.03079 0
M  V30 3296 N 315.993 2.13021 -1.97662 0
M  V30 3297 H 315.54 1.27499 -2.23834 0
M  V30 3298 H 315.498 2.80164 -1.42673 0
M  V30 3299 N 319.27 1.56325 -0.20005 0
M  V30 3300 C 320.686 1.58839 0.155716 0
M  V30 3301 C 320.886 1.21636 1.60645 0
M  V30 3302 O 319.942 0.941437 2.34293 0
M  V30 3303 C 321.255 3.0032 -0.151124 0
M  V30 3304 C 322.803 3.12866 -0.0916284 0
M  V30 3305 C 323.278 4.56488 -0.371845 0
M  V30 3306 N 324.769 4.62089 -0.320641 0
M  V30 3307 C 325.504 5.71116 -0.511243 0
M  V30 3308 N 325 6.88592 -0.762461 0
M  V30 3309 N 326.793 5.60335 -0.445157 0
M  V30 3310 H 318.944 1.78788 -1.14668 0
M  V30 3311 H 321.207 0.829996 -0.458051 0
M  V30 3312 H 320.913 3.32117 -1.15721 0
M  V30 3313 H 320.787 3.73257 0.543986 0
M  V30 3314 H 323.174 2.80878 0.905065 0
M  V30 3315 H 323.255 2.42304 -0.81989 0
M  V30 3316 H 322.899 4.89189 -1.36588 0
M  V30 3317 H 322.829 5.25246 0.377362 0
M  V30 3318 H 325.32 3.77665 -0.13329 0
M  V30 3319 H 325.633 7.67581 -0.896576 0
M  V30 3320 H 323.978 6.90387 -0.799412 0
M  V30 3321 H 327.169 4.67436 -0.249278 0
M  V30 3322 H 327.342 6.45243 -0.597116 0
M  V30 3323 N 320.748 -0.0735177 1.57428 0
M  V30 3324 C 321.996 -0.771472 1.86796 0
M  V30 3325 C 322.317 -1.78201 0.791804 0
M  V30 3326 O 321.587 -1.95074 -0.179718 0
M  V30 3327 H 320.167 -0.28791 0.689287 0
M  V30 3328 H 322.829 -0.0500161 1.94836 0
M  V30 3329 H 321.925 -1.28874 2.8425 0
M  V30 3330 N 322.226 -1.5378 -0.344866 0
M  V30 3331 C 323.173 -1.81676 -1.42346 0
M  V30 3332 C 324.143 -0.662376 -1.52321 0
M  V30 3333 O 325.328 -0.906675 -1.67881 0
M  V30 3334 C 322.468 -2.03087 -2.79015 0
M  V30 3335 C 321.581 -3.30799 -2.77842 0
M  V30 3336 C 320.716 -3.42285 -4.0622 0
M  V30 3337 C 319.755 -4.6395 -3.9927 0
M  V30 3338 N 318.892 -4.72477 -5.19336 0
M  V30 3339 H 323.732 -2.73703 -1.17858 0
M  V30 3340 H 321.269 -1.35568 -0.570949 0
M  V30 3341 H 323.227 -2.1349 -3.58438 0
M  V30 3342 H 321.857 -1.14375 -3.01858 0
M  V30 3343 H 320.909 -3.29244 -1.90533 0
M  V30 3344 H 322.221 -4.20314 -2.68584 0
M  V30 3345 H 321.375 -3.52113 -4.94066 0
M  V30 3346 H 320.114 -2.50823 -4.18258 0
M  V30 3347 H 319.119 -4.54201 -3.09809 0
M  V30 3348 H 320.344 -5.56775 -3.88817 0
M  V30 3349 H 318.29 -3.83924 -5.3192 0
M  V30 3350 H 318.207 -5.55927 -5.12329 0
M  V30 3351 H 319.475 -4.86613 -6.08957 0
M  V30 3352 N 323.704 0.605807 -1.45491 0
M  V30 3353 C 324.634 1.72709 -1.57143 0
M  V30 3354 C 325.615 1.6476 -0.422884 0
M  V30 3355 O 326.8 1.83132 -0.646247 0
M  V30 3356 C 323.93 3.11316 -1.53948 0
M  V30 3357 C 322.884 3.34077 -2.67537 0
M  V30 3358 C 322.21 4.72975 -2.49397 0
M  V30 3359 C 323.51 3.24158 -4.09535 0
M  V30 3360 H 325.204 1.63214 -2.51001 0
M  V30 3361 H 322.75 0.78379 -1.208 0
M  V30 3362 H 324.703 3.89557 -1.60696 0
M  V30 3363 H 323.427 3.21655 -0.566205 0
M  V30 3364 H 322.086 2.58227 -2.6022 0
M  V30 3365 H 321.734 4.8005 -1.50205 0
M  V30 3366 H 321.434 4.8916 -3.25571 0
M  V30 3367 H 322.958 5.53414 -2.58002 0
M  V30 3368 H 324.372 3.92271 -4.18086 0
M  V30 3369 H 322.769 3.51872 -4.86113 0
M  V30 3370 H 323.839 2.2157 -4.31317 0
M  V30 3371 N 325.182 1.32811 0.848464 0
M  V30 3372 C 326.129 1.22265 1.95755 0
M  V30 3373 C 327.099 0.103413 1.65778 0
M  V30 3374 O 328.284 0.280033 1.88734 0
M  V30 3375 C 325.424 0.958014 3.31536 0
M  V30 3376 C 324.537 2.16262 3.73971 0
M  V30 3377 C 323.672 1.83295 4.98575 0
M  V30 3378 C 322.711 3.00041 5.33518 0
M  V30 3379 N 321.848 2.67125 6.49299 0
M  V30 3380 H 326.688 2.17128 2.04107 0
M  V30 3381 H 324.225 1.07982 0.998913 0
M  V30 3382 H 326.183 0.785052 4.09747 0
M  V30 3383 H 324.813 0.046159 3.22767 0
M  V30 3384 H 323.865 2.44565 2.91362 0
M  V30 3385 H 325.177 3.03572 3.95785 0
M  V30 3386 H 324.331 1.62586 5.84509 0
M  V30 3387 H 323.07 0.932078 4.7871 0
M  V30 3388 H 322.075 3.21374 4.46093 0
M  V30 3389 H 323.3 3.90869 5.55336 0
M  V30 3390 H 321.246 1.79586 6.3094 0
M  V30 3391 H 321.163 3.47965 6.71161 0
M  V30 3392 H 322.431 2.49861 7.3837 0
M  V30 3393 N 326.66 -1.06551 1.16123 0
M  V30 3394 C 327.906 -1.79567 0.94252 0
M  V30 3395 C 328.239 -1.86869 -0.528547 0
M  V30 3396 O 327.514 -1.35838 -1.39206 0
M  V30 3397 C 327.797 -3.24195 1.56747 0
M  V30 3398 C 327.65 -3.24989 3.10969 0
M  V30 3399 C 328.969 -4.21678 1.25998 0
M  V30 3400 H 326.088 -0.651883 0.343828 0
M  V30 3401 H 328.73 -1.2463 1.43413 0
M  V30 3402 H 326.88 -3.71107 1.14942 0
M  V30 3403 H 328.552 -2.86258 3.61737 0
M  V30 3404 H 326.795 -2.63716 3.44436 0
M  V30 3405 H 327.466 -4.27005 3.49815 0
M  V30 3406 H 329.942 -3.83196 1.62174 0
M  V30 3407 H 328.818 -5.21146 1.7233 0
M  V30 3408 H 329.079 -4.4174 0.178367 0
M  V30 3409 N 328.138 -0.959301 -1.25041 0
M  V30 3410 C 329.068 -0.501388 -2.28053 0
M  V30 3411 C 330.049 0.454673 -1.63911 0
M  V30 3412 O 331.234 0.352618 -1.90972 0
M  V30 3413 C 328.364 0.217224 -3.4662 0
M  V30 3414 C 327.318 -0.654034 -4.22973 0
M  V30 3415 C 326.644 0.195589 -5.34342 0
M  V30 3416 C 327.944 -1.93447 -4.85155 0
M  V30 3417 H 329.638 -1.36238 -2.66608 0
M  V30 3418 H 327.184 -0.656534 -1.28163 0
M  V30 3419 H 329.137 0.548732 -4.17812 0
M  V30 3420 H 327.861 1.1125 -3.07068 0
M  V30 3421 H 326.52 -0.968693 -3.5357 0
M  V30 3422 H 326.168 1.09076 -4.91031 0
M  V30 3423 H 325.868 -0.384091 -5.86343 0
M  V30 3424 H 327.392 0.521958 -6.08365 0
M  V30 3425 H 328.806 -1.66908 -5.48466 0
M  V30 3426 H 327.203 -2.46018 -5.47353 0
M  V30 3427 H 328.273 -2.63466 -4.07079 0
M  V30 3428 N 329.616 1.39756 -0.72842 0
M  V30 3429 C 330.579 2.29012 -0.0927297 0
M  V30 3430 C 331.579 1.45992 0.674025 0
M  V30 3431 O 332.769 1.66749 0.50402 0
M  V30 3432 C 329.901 3.29396 0.878137 0
M  V30 3433 H 331.094 2.86729 -0.879011 0
M  V30 3434 H 328.647 1.48293 -0.493847 0
M  V30 3435 H 329.382 2.76722 1.69101 0
M  V30 3436 H 329.167 3.907 0.331051 0
M  V30 3437 H 330.657 3.96199 1.3197 0
M  V30 3438 N 331.094 0.475555 1.50254 0
M  V30 3439 C 332.322 -0.0754493 2.06762 0
M  V30 3440 C 332.737 -1.33111 1.33891 0
M  V30 3441 O 332.094 -1.77846 0.40952 0
M  V30 3442 C 332.145 -0.359008 3.59713 0
M  V30 3443 O 331.866 0.846851 4.29837 0
M  V30 3444 C 333.367 -0.956484 4.32858 0
M  V30 3445 H 330.587 0.00907525 0.670939 0
M  V30 3446 H 333.131 0.665618 1.93364 0
M  V30 3447 H 331.286 -1.05001 3.72899 0
M  V30 3448 H 331.7 0.594162 5.21124 0
M  V30 3449 H 333.174 -1.10463 5.40834 0
M  V30 3450 H 333.651 -1.94775 3.93649 0
M  V30 3451 H 334.257 -0.303723 4.24214 0
M  V30 3452 N 332.573 -1.56217 0.208337 0
M  V30 3453 C 333.536 -2.18455 -0.693557 0
M  V30 3454 C 334.536 -1.14268 -1.13135 0
M  V30 3455 O 335.726 -1.39577 -1.0423 0
M  V30 3456 C 332.858 -2.79727 -1.94848 0
M  V30 3457 H 334.051 -2.99519 -0.15114 0
M  V30 3458 H 331.604 -1.56245 -0.041287 0
M  V30 3459 H 332.339 -2.02497 -2.53309 0
M  V30 3460 H 332.124 -3.56009 -1.64316 0
M  V30 3461 H 333.614 -3.27475 -2.59133 0
M  V30 3462 N 334.051 0.0651679 -1.57465 0
M  V30 3463 C 335.298 0.763063 -1.87573 0
M  V30 3464 C 335.626 1.77242 -0.800961 0
M  V30 3465 O 334.881 1.94651 0.202316 0
M  V30 3466 C 335.18 1.50081 -3.24362 0
M  V30 3467 C 334.846 0.630816 -4.46466 0
M  V30 3468 C 333.508 0.391082 -4.79608 0
M  V30 3469 C 335.86 0.0279465 -5.21193 0
M  V30 3470 C 333.188 -0.460894 -5.84887 0
M  V30 3471 C 335.54 -0.811522 -6.27373 0
M  V30 3472 C 334.204 -1.06106 -6.59013 0
M  V30 3473 H 333.474 0.279224 -0.686378 0
M  V30 3474 H 336.121 0.0236726 -1.91485 0
M  V30 3475 H 334.426 2.31258 -3.16271 0
M  V30 3476 H 336.123 2.04571 -3.44894 0
M  V30 3477 H 332.713 0.8278 -4.2053 0
M  V30 3478 H 336.897 0.200262 -4.95896 0
M  V30 3479 H 332.153 -0.662907 -6.07796 0
M  V30 3480 H 336.327 -1.28537 -6.84435 0
M  V30 3481 H 333.954 -1.723 -7.40417 0
M  V30 3482 N 335.529 1.53961 0.336706 0
M  V30 3483 C 336.806 1.62171 1.09361 0
M  V30 3484 C 337.186 0.447263 2.06307 0
M  V30 3485 O 336.534 -0.559802 2.21537 0
M  V30 3486 C 336.744 2.98565 1.80721 0
M  V30 3487 C 338.092 3.54157 2.34218 0
M  V30 3488 O 339.116 3.00784 1.90807 0
M  V30 3489 O 337.975 4.47528 3.13657 0
M  V30 3490 H 335.069 0.6562 0.503319 0
M  V30 3491 H 337.615 1.66307 0.33765 0
M  V30 3492 H 336.387 3.75482 1.10132 0
M  V30 3493 H 336.01 2.9805 2.63158 0
M  V30 3494 N 337.007 -0.598083 1.45811 0
M  V30 3495 C 338.235 -1.38322 1.53866 0
M  V30 3496 C 338.65 -1.87992 0.174479 0
M  V30 3497 O 338.007 -1.62756 -0.825627 0
M  V30 3498 C 338.058 -2.58125 2.53089 0
M  V30 3499 O 337.779 -2.10516 3.84206 0
M  V30 3500 C 339.28 -3.50869 2.70935 0
M  V30 3501 H 336.5 -0.423093 0.520801 0
M  V30 3502 H 339.044 -0.728527 1.91083 0
M  V30 3503 H 337.199 -3.19615 2.18917 0
M  V30 3504 H 337.613 -2.88425 4.38077 0
M  V30 3505 H 339.087 -4.31451 3.44317 0
M  V30 3506 H 339.564 -4.01822 1.77301 0
M  V30 3507 H 340.17 -2.95225 3.06141 0
M  V30 3508 N 338.485 -1.33259 -0.841409 0
M  V30 3509 C 339.713 -1.27605 -1.62864 0
M  V30 3510 C 340.128 0.153507 -1.88175 0
M  V30 3511 O 339.485 1.09485 -1.46011 0
M  V30 3512 C 339.536 -2.04596 -2.98031 0
M  V30 3513 O 339.257 -3.41975 -2.73834 0
M  V30 3514 C 340.758 -2.06122 -3.92465 0
M  V30 3515 H 337.978 -0.439718 -0.506842 0
M  V30 3516 H 340.522 -1.75591 -1.04824 0
M  V30 3517 H 338.677 -1.60299 -3.5268 0
M  V30 3518 H 339.091 -3.81549 -3.59889 0
M  V30 3519 H 340.565 -2.64451 -4.84531 0
M  V30 3520 H 341.042 -1.05083 -4.26444 0
M  V30 3521 H 341.648 -2.50427 -3.43753 0
M  V30 3522 N 339.963 1.05934 -1.16686 0
M  V30 3523 C 340.893 2.1546 -0.899949 0
M  V30 3524 C 341.874 1.69391 0.155154 0
M  V30 3525 O 343.059 1.94199 0.00648693 0
M  V30 3526 C 340.189 3.44939 -0.404241 0
M  V30 3527 C 339.143 4.04536 -1.39767 0
M  V30 3528 C 338.469 5.29268 -0.760216 0
M  V30 3529 C 339.769 4.42893 -2.76845 0
M  V30 3530 H 341.463 2.38046 -1.81588 0
M  V30 3531 H 339.009 1.14404 -0.874514 0
M  V30 3532 H 340.962 4.20901 -0.204971 0
M  V30 3533 H 339.686 3.21983 0.547206 0
M  V30 3534 H 338.345 3.30635 -1.58355 0
M  V30 3535 H 337.993 5.02611 0.197831 0
M  V30 3536 H 337.693 5.70101 -1.42332 0
M  V30 3537 H 339.217 6.07924 -0.57105 0
M  V30 3538 H 340.631 5.09921 -2.62019 0
M  V30 3539 H 339.028 4.94721 -3.39663 0
M  V30 3540 H 340.098 3.53584 -3.31823 0
M  V30 3541 N 341.441 0.965919 1.2453 0
M  V30 3542 C 342.689 0.625593 1.92174 0
M  V30 3543 C 343.01 -0.841652 1.75901 0
M  V30 3544 O 342.28 -1.60061 1.12948 0
M  V30 3545 H 340.86 0.228388 0.71123 0
M  V30 3546 H 343.522 1.2266 1.51461 0
M  V30 3547 H 342.618 0.864653 2.99884 0
M  V30 3548 N 342.919 -1.39368 0.735821 0
M  V30 3549 C 344.167 -2.00101 0.283562 0
M  V30 3550 C 344.488 -1.5868 -1.13338 0
M  V30 3551 O 343.758 -0.835423 -1.77193 0
M  V30 3552 H 342.338 -0.740024 0.101851 0
M  V30 3553 H 345 -1.70404 0.945962 0
M  V30 3554 H 344.096 -3.10323 0.332604 0
M  V30 3555 N 344.397 -0.483516 -1.5 0
M  V30 3556 C 345.813 -0.138404 -1.58999 0
M  V30 3557 C 346.013 1.35597 -1.4905 0
M  V30 3558 O 345.069 2.13039 -1.35539 0
M  V30 3559 C 346.382 -0.699658 -2.92447 0
M  V30 3560 C 347.93 -0.664195 -3.05872 0
M  V30 3561 C 348.405 -1.20321 -4.41913 0
M  V30 3562 N 349.896 -1.16315 -4.48358 0
M  V30 3563 C 350.631 -1.55058 -5.52037 0
M  V30 3564 N 350.127 -2.01311 -6.62907 0
M  V30 3565 N 351.92 -1.46584 -5.42651 0
M  V30 3566 H 344.071 -1.45529 -1.5471 0
M  V30 3567 H 346.334 -0.60258 -0.731848 0
M  V30 3568 H 346.04 -1.747 -3.05242 0
M  V30 3569 H 345.914 -0.150194 -3.76901 0
M  V30 3570 H 348.301 0.374272 -2.92717 0
M  V30 3571 H 348.382 -1.25061 -2.23144 0
M  V30 3572 H 348.026 -2.24037 -4.55818 0
M  V30 3573 H 347.956 -0.592896 -5.23252 0
M  V30 3574 H 350.447 -0.824058 -3.68806 0
M  V30 3575 H 350.76 -2.2899 -7.38095 0
M  V30 3576 H 349.105 -2.05273 -6.63994 0
M  V30 3577 H 352.296 -1.10281 -4.54924 0
M  V30 3578 H 352.469 -1.77103 -6.23329 0
M  V30 3579 N 345.875 1.56104 -0.216619 0
M  V30 3580 C 346.822 2.2007 0.695531 0
M  V30 3581 C 347.792 1.15471 1.19397 0
M  V30 3582 O 348.977 1.43807 1.25396 0
M  V30 3583 C 346.117 2.88073 1.90021 0
M  V30 3584 C 345.23 4.07253 1.44113 0
M  V30 3585 C 344.365 4.63052 2.603 0
M  V30 3586 C 343.404 5.74545 2.11103 0
M  V30 3587 N 342.541 6.24656 3.20545 0
M  V30 3588 H 347.381 2.97655 0.143327 0
M  V30 3589 H 344.918 1.46982 0.0589934 0
M  V30 3590 H 346.876 3.25681 2.60745 0
M  V30 3591 H 345.506 2.13015 2.42538 0
M  V30 3592 H 344.558 3.75164 0.628999 0
M  V30 3593 H 345.87 4.8783 1.04036 0
M  V30 3594 H 345.024 5.03078 3.39113 0
M  V30 3595 H 343.763 3.81628 3.03663 0
M  V30 3596 H 342.768 5.34027 1.3075 0
M  V30 3597 H 343.993 6.57801 1.68746 0
M  V30 3598 H 341.939 5.46148 3.63399 0
M  V30 3599 H 341.856 7.00343 2.84704 0
M  V30 3600 H 343.124 6.69338 3.99508 0
M  V30 3601 N 347.353 -0.0568162 1.57498 0
M  V30 3602 C 348.6 -0.753104 1.87975 0
M  V30 3603 C 348.928 -1.76815 0.81035 0
M  V30 3604 O 348.183 -1.94756 -0.19199 0
M  V30 3605 C 348.482 -1.48359 3.25153 0
M  V30 3606 C 348.148 -0.60713 4.46794 0
M  V30 3607 C 346.81 -0.365642 4.79809 0
M  V30 3608 C 349.162 -0.000305978 5.212 0
M  V30 3609 C 346.49 0.491905 5.84634 0
M  V30 3610 C 348.842 0.844781 6.26934 0
M  V30 3611 C 347.506 1.096 6.58441 0
M  V30 3612 H 346.776 -0.27558 0.687849 0
M  V30 3613 H 349.423 -0.0135173 1.91495 0
M  V30 3614 H 347.728 -2.29577 3.17492 0
M  V30 3615 H 349.425 -2.02739 3.45974 0
M  V30 3616 H 346.015 -0.805487 4.20963 0
M  V30 3617 H 350.199 -0.173961 4.95995 0
M  V30 3618 H 345.455 0.695131 6.07436 0
M  V30 3619 H 349.629 1.32165 6.83744 0
M  V30 3620 H 347.256 1.76224 7.39492 0
M  V30 3621 N 348.832 -1.54138 -0.328536 0
M  V30 3622 C 350.109 -1.62749 -1.08499 0
M  V30 3623 C 350.489 -0.458198 -2.06067 0
M  V30 3624 O 349.837 0.548046 -2.2183 0
M  V30 3625 C 350.047 -2.99519 -1.79135 0
M  V30 3626 C 351.395 -3.55394 -2.32337 0
M  V30 3627 O 352.419 -3.01792 -1.89209 0
M  V30 3628 O 351.278 -4.49186 -3.11279 0
M  V30 3629 H 348.372 -0.65886 -0.499832 0
M  V30 3630 H 350.918 -1.66484 -0.328826 0
M  V30 3631 H 349.69 -3.76061 -1.08139 0
M  V30 3632 H 349.313 -2.99441 -2.61574 0
M  V30 3633 N 350.31 0.590341 -1.46126 0
M  V30 3634 C 351.22 1.72793 -1.58681 0
M  V30 3635 C 352.236 1.67516 -0.470566 0
M  V30 3636 O 353.412 1.87562 -0.733642 0
M  V30 3637 C 350.477 3.09287 -1.5666 0
M  V30 3638 C 349.538 3.25886 -2.79458 0
M  V30 3639 C 348.771 4.55869 -2.77524 0
M  V30 3640 O 348.994 5.3928 -1.85832 0
M  V30 3641 O 347.928 4.75552 -3.68964 0
M  V30 3642 H 351.754 1.65149 -2.54872 0
M  V30 3643 H 349.339 0.756486 -1.28832 0
M  V30 3644 H 351.221 3.90577 -1.58202 0
M  V30 3645 H 349.896 3.17385 -0.636271 0
M  V30 3646 H 348.803 2.44119 -2.83472 0
M  V30 3647 H 350.136 3.22675 -3.71674 0
M  V30 3648 N 351.788 1.33704 0.83433 0
M  V30 3649 C 353.034 1.25603 1.59222 0
M  V30 3650 C 353.367 -0.176659 1.93395 0
M  V30 3651 O 352.642 -1.11915 1.59076 0
M  V30 3652 C 352.925 2.13576 2.89926 0
M  V30 3653 C 352.778 3.65326 2.62406 0
M  V30 3654 C 354.097 2.01238 3.91397 0
M  V30 3655 H 351.216 0.457613 0.577719 0
M  V30 3656 H 353.858 1.63848 0.961972 0
M  V30 3657 H 352.008 1.8109 3.43713 0
M  V30 3658 H 353.68 4.08124 2.15017 0
M  V30 3659 H 351.923 3.8698 1.96033 0
M  V30 3660 H 352.594 4.22232 3.55562 0
M  V30 3661 H 355.07 2.29738 3.46929 0
M  V30 3662 H 353.946 2.65036 4.80673 0
M  V30 3663 H 354.207 0.985951 4.30966 0
M  V30 3664 N 353.266 -1.05314 1.17247 0
M  V30 3665 C 354.196 -2.1498 0.911362 0
M  V30 3666 C 355.177 -1.69471 -0.146169 0
M  V30 3667 O 356.362 -1.942 0.003812 0
M  V30 3668 C 353.492 -3.4472 0.422528 0
M  V30 3669 C 352.446 -4.03789 1.4191 0
M  V30 3670 C 351.772 -5.28858 0.788274 0
M  V30 3671 C 353.072 -4.41418 2.7919 0
M  V30 3672 H 354.766 -2.3708 1.82848 0
M  V30 3673 H 352.312 -1.13938 0.880569 0
M  V30 3674 H 354.265 -4.20787 0.227289 0
M  V30 3675 H 352.989 -3.22269 -0.530123 0
M  V30 3676 H 351.648 -3.2979 1.60106 0
M  V30 3677 H 351.296 -5.02709 -0.171173 0
M  V30 3678 H 350.996 -5.69338 1.45353 0
M  V30 3679 H 352.52 -6.07612 0.603282 0
M  V30 3680 H 353.934 -5.08524 2.64719 0
M  V30 3681 H 352.331 -4.92913 3.42282 0
M  V30 3682 H 353.401 -3.51819 3.33693 0
M  V30 3683 N 354.744 -0.972509 -1.24016 0
M  V30 3684 C 355.99 -0.637978 -1.92504 0
M  V30 3685 C 356.323 0.825383 -1.75787 0
M  V30 3686 O 355.598 1.59442 -1.11393 0
M  V30 3687 C 355.881 -1.01942 -3.45369 0
M  V30 3688 C 355.734 -2.53983 -3.71231 0
M  V30 3689 C 357.053 -0.55751 -4.36555 0
M  V30 3690 H 354.172 -0.233248 -0.699117 0
M  V30 3691 H 356.814 -1.21238 -1.46292 0
M  V30 3692 H 354.964 -0.530656 -3.84859 0
M  V30 3693 H 356.636 -3.10374 -3.41271 0
M  V30 3694 H 354.879 -2.96968 -3.16216 0
M  V30 3695 H 355.55 -2.75723 -4.78206 0
M  V30 3696 H 358.026 -0.977029 -4.04467 0
M  V30 3697 H 356.902 -0.85292 -5.42233 0
M  V30 3698 H 357.163 0.542328 -4.38761 0
M  V30 3699 N 356.222 1.38976 -0.743202 0
M  V30 3700 C 357.17 2.32394 -0.0978389 0
M  V30 3701 C 358.164 1.53486 0.716824 0
M  V30 3702 O 359.37 1.69092 0.617088 0
M  V30 3703 H 355.745 0.75189 -0.0128402 0
M  V30 3704 H 357.716 2.84441 -0.901981 0
M  V30 3705 C 356.465 3.38629 0.789036 0
M  V30 3706 H 355.788 3.99432 0.171559 0
M  V30 3707 H 357.228 4.06426 1.20807 0
M  V30 3708 C 355.687 2.76347 1.92702 0
M  V30 3709 O 356.217 2.64836 3.02034 0
M  V30 3710 N 354.423 2.34311 1.71891 0
M  V30 3711 H 353.97 2.43873 0.829675 0
M  V30 3712 H 353.928 1.9298 2.48205 0
M  V30 3713 N 357.7 0.491464 1.49741 0
M  V30 3714 C 358.65 -0.311086 2.25868 0
M  V30 3715 C 359.634 -0.943857 1.30308 0
M  V30 3716 O 360.826 -0.853035 1.55088 0
M  V30 3717 C 357.955 -1.38059 3.14316 0
M  V30 3718 C 357.041 -0.754541 4.17334 0
M  V30 3719 N 357.432 0.137216 5.05614 0
M  V30 3720 C 355.73 -1.01621 4.34269 0
M  V30 3721 C 356.431 0.494614 5.79593 0
M  V30 3722 N 355.407 -0.135169 5.43432 0
M  V30 3723 H 359.209 0.37555 2.91491 0
M  V30 3724 H 356.723 0.306917 1.59473 0
M  V30 3725 H 358.72 -1.96891 3.67477 0
M  V30 3726 H 357.38 -2.06901 2.50244 0
M  V30 3727 H 358.391 0.50741 5.15408 0
M  V30 3728 H 355.068 -1.69808 3.81407 0
M  V30 3729 H 356.458 1.2236 6.60665 0
M  V30 3730 N 359.178 -1.55987 0.224894 0
M  V30 3731 C 360.425 -1.9839 -0.4059 0
M  V30 3732 C 360.753 -1.11261 -1.59535 0
M  V30 3733 O 360.008 -0.158314 -1.95059 0
M  V30 3734 C 360.307 -3.46394 -0.880106 0
M  V30 3735 C 359.973 -4.5046 0.19918 0
M  V30 3736 C 358.635 -4.7864 0.495661 0
M  V30 3737 C 360.987 -5.12855 0.928939 0
M  V30 3738 C 358.315 -5.66497 1.52636 0
M  V30 3739 C 360.667 -6.01828 1.949 0
M  V30 3740 C 359.331 -6.28351 2.25236 0
M  V30 3741 H 358.601 -0.725961 -0.148529 0
M  V30 3742 H 361.248 -1.88668 0.328113 0
M  V30 3743 H 359.553 -3.53337 -1.69294 0
M  V30 3744 H 361.25 -3.76577 -1.37808 0
M  V30 3745 H 357.84 -4.28579 -0.0420526 0
M  V30 3746 H 362.024 -4.9115 0.713129 0
M  V30 3747 H 357.28 -5.8531 1.76698 0
M  V30 3748 H 361.454 -6.49225 2.51951 0
M  V30 3749 H 359.081 -6.96226 3.05244 0
M  V30 3750 N 360.656 0.0484629 -1.57525 0
M  V30 3751 C 361.896 0.748196 -1.90214 0
M  V30 3752 C 362.26 1.73545 -0.821347 0
M  V30 3753 O 363.461 2.48201 -1.03198 0
M  V30 3754 C 361.732 1.41727 -3.28098 0
M  V30 3755 S 363.291 2.14884 -3.82584 0
M  V30 3756 H 360.109 0.248307 -0.666232 0
M  V30 3757 H 362.711 0.00343188 -1.955 0
M  V30 3758 H 361.415 0.685244 -4.04639 0
M  V30 3759 H 360.946 2.20099 -3.26068 0
M  V30 3760 H 362.961 3.41755 -3.59747 0
M  V30 3761 N 362.134 1.5431 0.320358 0
M  V30 3762 C 363.044 1.86946 1.41734 0
M  V30 3763 C 364.06 0.761689 1.56443 0
M  V30 3764 O 365.236 1.05629 1.71477 0
M  V30 3765 C 362.301 2.09293 2.76401 0
M  V30 3766 C 361.362 3.33082 2.70841 0
M  V30 3767 C 360.595 3.54353 3.99086 0
M  V30 3768 O 360.818 2.79002 4.97508 0
M  V30 3769 O 359.752 4.47838 4.0215 0
M  V30 3770 H 363.578 2.80232 1.17062 0
M  V30 3771 H 361.163 1.40255 0.514673 0
M  V30 3772 H 363.045 2.25303 3.56113 0
M  V30 3773 H 361.72 1.19194 3.00956 0
M  V30 3774 H 360.627 3.22454 1.89668 0
M  V30 3775 H 361.96 4.23249 2.5124 0
M  V30 3776 N 363.613 -0.582584 1.46437 0
M  V30 3777 C 364.523 -1.71949 1.59595 0
M  V30 3778 C 365.539 -1.67264 0.479443 0
M  V30 3779 O 366.715 -1.87171 0.743579 0
M  V30 3780 C 363.78 -3.08452 1.58298 0
M  V30 3781 C 362.841 -3.244 2.81182 0
M  V30 3782 C 362.074 -4.54391 2.79937 0
M  V30 3783 O 362.297 -5.38287 1.8869 0
M  V30 3784 O 361.231 -4.73588 3.71481 0
M  V30 3785 H 365.057 -1.63795 2.55744 0
M  V30 3786 H 362.642 -0.749643 1.29231 0
M  V30 3787 H 364.524 -3.89732 1.60271 0
M  V30 3788 H 363.199 -3.17043 0.653094 0
M  V30 3789 H 362.106 -2.42613 2.84763 0
M  V30 3790 H 363.439 -3.20699 3.7338 0
M  V30 3791 N 365.091 -1.34144 -0.827227 0
M  V30 3792 C 366.338 -1.26258 -1.58319 0
M  V30 3793 C 366.666 0.168595 -1.93768 0
M  V30 3794 O 365.921 1.12877 -1.59866 0
M  V30 3795 C 366.22 -2.09464 -2.89585 0
M  V30 3796 C 365.886 -3.58521 -2.73448 0
M  V30 3797 C 364.548 -3.99155 -2.68754 0
M  V30 3798 C 366.9 -4.53189 -2.57428 0
M  V30 3799 C 364.228 -5.32656 -2.45957 0
M  V30 3800 C 366.58 -5.86864 -2.36163 0
M  V30 3801 C 365.244 -6.26667 -2.29879 0
M  V30 3802 H 364.514 -0.462013 -0.579332 0
M  V30 3803 H 367.161 -1.65845 -0.95748 0
M  V30 3804 H 365.466 -1.62692 -3.56425 0
M  V30 3805 H 367.163 -2.00712 -3.47154 0
M  V30 3806 H 363.753 -3.26264 -2.77939 0
M  V30 3807 H 367.937 -4.22696 -2.60081 0
M  V30 3808 H 363.193 -5.62519 -2.39546 0
M  V30 3809 H 367.367 -6.59813 -2.22754 0
M  V30 3810 H 364.994 -7.30049 -2.11975 0
M  V30 3811 N 366.569 1.04691 -1.17803 0
M  V30 3812 C 367.817 1.7743 -0.967617 0
M  V30 3813 C 368.138 1.88359 0.504574 0
M  V30 3814 O 367.408 1.40402 1.36617 0
M  V30 3815 H 365.988 0.657242 -0.355024 0
M  V30 3816 H 368.65 1.2638 -1.48371 0
M  V30 3817 H 367.746 2.78924 -1.40027 0
M  V30 3818 N 368.047 0.979072 1.23499 0
M  V30 3819 C 368.994 0.517904 2.24914 0
M  V30 3820 C 369.964 -0.442525 1.60097 0
M  V30 3821 O 371.149 -0.350365 1.87556 0
M  V30 3822 C 368.289 -0.174813 3.44657 0
M  V30 3823 C 367.402 0.825721 4.24035 0
M  V30 3824 C 366.537 0.107946 5.3109 0
M  V30 3825 C 365.576 1.09778 6.02175 0
M  V30 3826 N 364.713 0.40925 7.00906 0
M  V30 3827 H 369.553 1.38751 2.63727 0
M  V30 3828 H 367.09 0.695303 1.2963 0
M  V30 3829 H 369.048 -0.593233 4.12961 0
M  V30 3830 H 367.678 -1.0083 3.06648 0
M  V30 3831 H 366.73 1.36253 3.55161 0
M  V30 3832 H 368.042 1.58005 4.73113 0
M  V30 3833 H 367.196 -0.367904 6.05583 0
M  V30 3834 H 365.935 -0.678994 4.8295 0
M  V30 3835 H 364.94 1.5844 5.26476 0
M  V30 3836 H 366.165 1.88536 6.52404 0
M  V30 3837 H 364.111 -0.358506 6.5502 0
M  V30 3838 H 364.028 1.10226 7.47921 0
M  V30 3839 H 365.296 -0.0442557 7.79487 0
M  V30 3840 N 369.525 -1.3858 0.750561 0
M  V30 3841 C 370.472 -2.30483 0.120835 0
M  V30 3842 C 371.442 -1.50022 -0.712923 0
M  V30 3843 O 372.627 -1.78662 -0.669676 0
M  V30 3844 C 369.767 -3.36431 -0.768666 0
M  V30 3845 C 368.88 -4.31927 0.0793922 0
M  V30 3846 C 368.015 -5.24944 -0.81283 0
M  V30 3847 C 367.054 -6.12088 0.0390447 0
M  V30 3848 N 366.191 -6.97412 -0.809969 0
M  V30 3849 H 371.031 -2.83761 0.91015 0
M  V30 3850 H 368.568 -1.39707 0.460463 0
M  V30 3851 H 370.526 -3.96462 -1.29898 0
M  V30 3852 H 369.156 -2.8457 -1.5238 0
M  V30 3853 H 368.208 -3.73382 0.727303 0
M  V30 3854 H 369.52 -4.93319 0.737401 0
M  V30 3855 H 368.674 -5.90078 -1.41042 0
M  V30 3856 H 367.413 -4.63911 -1.50458 0
M  V30 3857 H 366.418 -5.45952 0.649328 0
M  V30 3858 H 367.643 -6.75189 0.727809 0
M  V30 3859 H 365.589 -6.38931 -1.48672 0
M  V30 3860 H 365.506 -7.55712 -0.208789 0
M  V30 3861 H 366.774 -7.66959 -1.39263 0
M  V30 3862 N 371.003 -0.499398 -1.49478 0
M  V30 3863 C 372.233 0.0424839 -2.06556 0
M  V30 3864 C 372.641 1.31514 -1.36018 0
M  V30 3865 O 371.984 1.78555 -0.431718 0
M  V30 3866 C 372.046 0.368074 -3.57611 0
M  V30 3867 C 371.71 -0.806631 -4.49825 0
M  V30 3868 C 372.707 -1.69667 -4.91436 0
M  V30 3869 C 370.392 -1.00498 -4.92144 0
M  V30 3870 C 372.386 -2.76923 -5.74101 0
M  V30 3871 C 370.073 -2.08072 -5.74586 0
M  V30 3872 C 371.071 -2.96119 -6.15469 0
M  V30 3873 O 370.759 -4.01836 -6.96264 0
M  V30 3874 H 370.491 -0.0165165 -0.675798 0
M  V30 3875 H 373.045 -0.695497 -1.93267 0
M  V30 3876 H 371.275 1.15963 -3.68903 0
M  V30 3877 H 372.964 0.848381 -3.96935 0
M  V30 3878 H 373.73 -1.55524 -4.59388 0
M  V30 3879 H 369.609 -0.329036 -4.59824 0
M  V30 3880 H 373.153 -3.45676 -6.05932 0
M  V30 3881 H 369.05 -2.22211 -6.06047 0
M  V30 3882 H 369.818 -3.9917 -7.14567 0
M  V30 3883 N 372.481 1.55866 -0.233164 0
M  V30 3884 C 373.428 2.20796 0.67215 0
M  V30 3885 C 374.398 1.16731 1.18166 0
M  V30 3886 O 375.583 1.45129 1.23864 0
M  V30 3887 C 372.723 2.90072 1.86955 0
M  V30 3888 C 371.836 4.08759 1.39786 0
M  V30 3889 C 370.971 4.65787 2.55374 0
M  V30 3890 C 370.01 5.76752 2.04998 0
M  V30 3891 N 369.147 6.28021 3.13901 0
M  V30 3892 H 373.987 2.9779 0.111749 0
M  V30 3893 H 371.524 1.47036 0.0434007 0
M  V30 3894 H 373.482 3.28428 2.57276 0
M  V30 3895 H 372.112 2.15575 2.40265 0
M  V30 3896 H 371.164 3.7581 0.589173 0
M  V30 3897 H 372.476 4.88906 0.98856 0
M  V30 3898 H 371.63 5.06646 3.33758 0
M  V30 3899 H 370.369 3.84828 2.99598 0
M  V30 3900 H 369.374 5.35383 1.25079 0
M  V30 3901 H 370.599 6.59553 1.61759 0
M  V30 3902 H 368.545 5.49971 3.57586 0
M  V30 3903 H 368.462 7.03323 2.7726 0
M  V30 3904 H 369.73 6.73538 3.92386 0
M  V30 3905 N 373.959 -0.0401083 1.57549 0
M  V30 3906 C 374.889 -1.04384 2.08869 0
M  V30 3907 C 375.87 -1.38407 0.988817 0
M  V30 3908 O 377.055 -1.47483 1.26342 0
M  V30 3909 C 374.185 -2.34808 2.55895 0
M  V30 3910 C 373.139 -2.15057 3.70047 0
M  V30 3911 C 372.465 -3.51145 4.03239 0
M  V30 3912 C 373.765 -1.54576 4.98902 0
M  V30 3913 H 375.459 -0.616666 2.92981 0
M  V30 3914 H 373.005 -0.295184 1.40942 0
M  V30 3915 H 374.958 -3.05346 2.90417 0
M  V30 3916 H 373.682 -2.79565 1.68853 0
M  V30 3917 H 372.341 -1.46954 3.35857 0
M  V30 3918 H 371.989 -3.93529 3.13279 0
M  V30 3919 H 371.689 -3.38758 4.80122 0
M  V30 3920 H 373.213 -4.23062 4.40285 0
M  V30 3921 H 374.627 -2.15017 5.31451 0
M  V30 3922 H 373.024 -1.52796 5.80322 0
M  V30 3923 H 374.094 -0.51039 4.82206 0
M  V30 3924 N 375.437 -1.54477 -0.31217 0
M  V30 3925 C 376.714 -1.63891 -1.06767 0
M  V30 3926 C 377.094 -0.480028 -2.0557 0
M  V30 3927 O 376.442 0.524487 -2.22399 0
M  V30 3928 C 376.652 -3.01402 -1.75948 0
M  V30 3929 C 378 -3.57838 -2.28554 0
M  V30 3930 O 379.024 -3.03782 -1.85998 0
M  V30 3931 O 377.883 -4.52462 -3.06497 0
M  V30 3932 H 374.977 -0.664125 -0.492816 0
M  V30 3933 H 377.523 -1.66823 -0.311149 0
M  V30 3934 H 376.295 -3.77187 -1.04144 0
M  V30 3935 H 375.918 -3.02199 -2.58383 0
M  V30 3936 N 376.915 0.57481 -1.46744 0
M  V30 3937 C 378.164 1.32898 -1.51727 0
M  V30 3938 C 378.477 1.948 -0.176692 0
M  V30 3939 O 379.683 2.71299 -0.104385 0
M  V30 3940 C 378.139 2.40901 -2.67385 0
M  V30 3941 C 377.747 1.85266 -4.07898 0
M  V30 3942 C 379.491 3.17609 -2.81646 0
M  V30 3943 C 377.398 2.90945 -5.14883 0
M  V30 3944 H 376.328 0.499631 -0.564699 0
M  V30 3945 H 378.979 0.612536 -1.72975 0
M  V30 3946 H 377.361 3.15379 -2.39483 0
M  V30 3947 H 378.535 1.17278 -4.45626 0
M  V30 3948 H 376.85 1.21199 -3.98371 0
M  V30 3949 H 379.447 3.96493 -3.58744 0
M  V30 3950 H 379.79 3.70696 -1.89448 0
M  V30 3951 H 380.323 2.50239 -3.09233 0
M  V30 3952 H 377.062 2.42736 -6.089 0
M  V30 3953 H 376.582 3.57398 -4.81691 0
M  V30 3954 H 378.261 3.54755 -5.41071 0
M  V30 3955 N 378.394 1.34581 0.820102 0
M  V30 3956 C 379.341 1.2639 1.93117 0
M  V30 3957 C 380.311 0.138554 1.65521 0
M  V30 3958 O 381.496 0.320004 1.88097 0
M  V30 3959 C 378.636 1.02812 3.29429 0
M  V30 3960 C 377.749 2.24146 3.693 0
M  V30 3961 C 376.884 1.93829 4.94574 0
M  V30 3962 C 375.923 3.1129 5.27034 0
M  V30 3963 N 375.06 2.80838 6.43486 0
M  V30 3964 H 379.9 2.21408 1.99455 0
M  V30 3965 H 377.437 1.10077 0.975784 0
M  V30 3966 H 379.395 0.871788 4.0799 0
M  V30 3967 H 378.025 0.114612 3.22596 0
M  V30 3968 H 377.077 2.50691 2.86109 0
M  V30 3969 H 378.389 3.11899 3.89257 0
M  V30 3970 H 377.543 1.74948 5.80929 0
M  V30 3971 H 376.282 1.03341 4.76626 0
M  V30 3972 H 375.287 3.30764 4.39175 0
M  V30 3973 H 376.512 4.02561 5.4692 0
M  V30 3974 H 374.458 1.92929 6.26988 0
M  V30 3975 H 374.375 3.62123 6.63629 0
M  V30 3976 H 375.643 2.65467 7.32903 0
M  V30 3977 N 379.872 -1.04064 1.18357 0
M  V30 3978 C 381.097 -1.81454 1.00445 0
M  V30 3979 C 381.522 -1.82823 -0.442423 0
M  V30 3980 O 380.88 -1.24555 -1.31741 0
M  V30 3981 C 380.928 -3.24925 1.56384 0
M  V30 3982 O 380.032 -4.04856 0.785209 0
M  V30 3983 H 379.373 -0.560604 0.355835 0
M  V30 3984 H 381.903 -1.31059 1.57114 0
M  V30 3985 H 381.913 -3.75702 1.59097 0
M  V30 3986 H 380.588 -3.23244 2.61699 0
M  V30 3987 H 379.165 -3.63537 0.830399 0
M  V30 3988 N 381.35 -0.985608 -1.22978 0
M  V30 3989 C 382.297 -0.529825 -2.24636 0
M  V30 3990 C 383.267 0.434028 -1.60329 0
M  V30 3991 O 384.452 0.340414 -1.87739 0
M  V30 3992 C 381.592 0.156533 -3.44745 0
M  V30 3993 C 380.705 -0.848197 -4.23591 0
M  V30 3994 C 379.84 -0.136109 -5.31026 0
M  V30 3995 C 378.879 -1.1297 -6.01585 0
M  V30 3996 N 378.016 -0.446415 -7.00679 0
M  V30 3997 H 382.856 -1.40148 -2.62988 0
M  V30 3998 H 380.393 -0.702168 -1.29259 0
M  V30 3999 H 382.351 0.571324 -4.1327 0
M  V30 4000 H 380.981 0.992025 -3.07179 0
M  V30 4001 H 380.033 -1.38135 -3.54433 0
M  V30 4002 H 381.345 -1.60512 -4.72268 0
M  V30 4003 H 380.499 0.335784 -6.0577 0
M  V30 4004 H 379.238 0.653373 -4.83304 0
M  V30 4005 H 378.243 -1.6123 -5.25628 0
M  V30 4006 H 379.468 -1.91993 -6.51395 0
M  V30 4007 H 377.414 0.323763 -6.55201 0
M  V30 4008 H 377.331 -1.1419 -7.47326 0
M  V30 4009 H 378.599 0.00291697 -7.795 0
M  V30 4010 N 382.828 1.3818 -0.7579 0
M  V30 4011 C 384.077 1.99261 -0.312744 0
M  V30 4012 C 384.39 1.60846 1.11301 0
M  V30 4013 O 385.596 2.14929 1.65885 0
M  V30 4014 C 384.052 3.56294 -0.50821 0
M  V30 4015 C 383.66 4.03657 -1.94333 0
M  V30 4016 C 385.404 4.24313 -0.125982 0
M  V30 4017 C 383.311 5.53347 -2.08712 0
M  V30 4018 H 382.241 0.745456 -0.113185 0
M  V30 4019 H 384.892 1.57889 -0.935056 0
M  V30 4020 H 383.274 3.95575 0.183353 0
M  V30 4021 H 384.448 3.75655 -2.66871 0
M  V30 4022 H 382.763 3.48376 -2.28086 0
M  V30 4023 H 385.36 5.34279 -0.212125 0
M  V30 4024 H 385.703 4.05962 0.921964 0
M  V30 4025 H 386.236 3.90285 -0.769563 0
M  V30 4026 H 382.975 5.76607 -3.11777 0
M  V30 4027 H 382.495 5.83078 -1.4064 0
M  V30 4028 H 384.174 6.19111 -1.87912 0
M  V30 4029 N 384.306 0.507319 1.49211 0
M  V30 4030 C 385.722 0.163682 1.58758 0
M  V30 4031 C 385.922 -1.33208 1.51188 0
M  V30 4032 O 384.978 -2.10855 1.38911 0
M  V30 4033 C 386.291 0.746095 2.91297 0
M  V30 4034 C 387.839 0.712773 3.04776 0
M  V30 4035 C 388.314 1.27336 4.39943 0
M  V30 4036 N 389.805 1.23433 4.46451 0
M  V30 4037 C 390.54 1.63821 5.495 0
M  V30 4038 N 390.036 2.11832 6.5962 0
M  V30 4039 N 391.829 1.55198 5.4025 0
M  V30 4040 H 383.98 1.47972 1.52375 0
M  V30 4041 H 386.243 0.614147 0.722168 0
M  V30 4042 H 385.949 1.79534 3.02424 0
M  V30 4043 H 385.823 0.210137 3.76614 0
M  V30 4044 H 388.21 -0.327656 2.93275 0
M  V30 4045 H 388.291 1.28595 2.21127 0
M  V30 4046 H 387.935 2.3126 4.52196 0
M  V30 4047 H 387.865 0.676066 5.22242 0
M  V30 4048 H 390.356 0.882627 3.67448 0
M  V30 4049 H 390.669 2.40703 7.34358 0
M  V30 4050 H 389.014 2.1581 6.60644 0
M  V30 4051 H 392.205 1.17505 4.53112 0
M  V30 4052 H 392.378 1.86997 6.20432 0
M  V30 4053 N 385.784 -1.5574 0.241426 0
M  V30 4054 C 386.747 -2.19877 -0.647063 0
M  V30 4055 C 387.747 -1.16642 -1.10686 0
M  V30 4056 O 388.937 -1.41757 -1.01245 0
M  V30 4057 C 386.069 -2.83797 -1.88871 0
M  V30 4058 H 387.262 -2.99772 -0.087574 0
M  V30 4059 H 384.815 -1.56298 -0.00813574 0
M  V30 4060 H 385.55 -2.07824 -2.48957 0
M  V30 4061 H 385.335 -3.59414 -1.56728 0
M  V30 4062 H 386.825 -3.32898 -2.52129 0
M  V30 4063 N 387.262 0.0317525 -1.57568 0
M  V30 4064 C 388.192 1.03274 -2.0942 0
M  V30 4065 C 389.173 1.3788 -0.996143 0
M  V30 4066 O 390.358 1.46811 -1.27122 0
M  V30 4067 C 387.488 2.33448 -2.57137 0
M  V30 4068 C 386.442 2.13091 -3.71182 0
M  V30 4069 C 385.768 3.49001 -4.05095 0
M  V30 4070 C 387.068 1.51928 -4.99715 0
M  V30 4071 H 388.762 0.60112 -2.93303 0
M  V30 4072 H 386.308 0.287705 -1.41097 0
M  V30 4073 H 388.261 3.03802 -2.92032 0
M  V30 4074 H 386.985 2.78665 -1.70333 0
M  V30 4075 H 385.644 1.45171 -3.36632 0
M  V30 4076 H 385.292 3.91862 -3.15362 0
M  V30 4077 H 384.992 3.36207 -4.81911 0
M  V30 4078 H 386.516 4.20721 -4.42522 0
M  V30 4079 H 387.93 2.12196 -5.32584 0
M  V30 4080 H 386.327 1.49716 -5.81124 0
M  V30 4081 H 387.397 0.484811 -4.8247 0
M  V30 4082 N 388.74 1.54641 0.303973 0
M  V30 4083 C 389.67 1.88386 1.3796 0
M  V30 4084 C 390.651 0.742485 1.5304 0
M  V30 4085 O 391.836 0.997959 1.66597 0
M  V30 4086 C 388.966 2.12854 2.74427 0
M  V30 4087 C 387.92 3.28702 2.74115 0
M  V30 4088 C 387.246 3.38582 4.13844 0
M  V30 4089 C 388.546 4.65881 2.3612 0
M  V30 4090 H 390.24 2.78474 1.09966 0
M  V30 4091 H 387.786 1.33988 0.527556 0
M  V30 4092 H 389.739 2.35047 3.49758 0
M  V30 4093 H 388.463 1.19535 3.03939 0
M  V30 4094 H 387.122 3.06428 2.0124 0
M  V30 4095 H 386.77 2.42784 4.40528 0
M  V30 4096 H 386.47 4.16453 4.14537 0
M  V30 4097 H 387.994 3.63031 4.90959 0
M  V30 4098 H 389.408 4.87823 3.01167 0
M  V30 4099 H 387.805 5.46444 2.48031 0
M  V30 4100 H 388.875 4.66799 1.3125 0
M  V30 4101 N 390.218 -0.567019 1.47046 0
M  V30 4102 C 391.634 -0.891975 1.32348 0
M  V30 4103 C 391.834 -1.99154 0.306616 0
M  V30 4104 O 390.89 -2.50883 -0.28532 0
M  V30 4105 C 392.203 -1.29449 2.7141 0
M  V30 4106 C 393.751 -1.40646 2.79621 0
M  V30 4107 C 394.226 -1.84257 4.19301 0
M  V30 4108 N 395.717 -1.91424 4.21795 0
M  V30 4109 C 396.452 -2.26476 5.26779 0
M  V30 4110 N 395.948 -2.60211 6.42077 0
M  V30 4111 N 397.741 -2.27166 5.14152 0
M  V30 4112 H 389.892 0.159074 2.11803 0
M  V30 4113 H 392.155 0.00849752 0.947962 0
M  V30 4114 H 391.861 -0.560448 3.47206 0
M  V30 4115 H 391.735 -2.25273 3.02542 0
M  V30 4116 H 394.122 -2.13133 2.04104 0
M  V30 4117 H 394.203 -0.430339 2.52154 0
M  V30 4118 H 393.847 -1.12343 4.95319 0
M  V30 4119 H 393.777 -2.82855 4.44185 0
M  V30 4120 H 396.268 -1.6778 3.38612 0
M  V30 4121 H 396.581 -2.85956 7.17948 0
M  V30 4122 H 394.926 -2.57813 6.45413 0
M  V30 4123 H 398.117 -2.00244 4.23107 0
M  V30 4124 H 398.29 -2.54154 5.96079 0
M  V30 4125 N 391.696 -1.35014 -0.812953 0
M  V30 4126 C 392.626 -1.30069 -1.93919 0
M  V30 4127 C 393.607 -0.176275 -1.69184 0
M  V30 4128 O 394.792 -0.370227 -1.90638 0
M  V30 4129 C 391.922 -1.06547 -3.30552 0
M  V30 4130 C 390.876 -2.15561 -3.69753 0
M  V30 4131 C 390.202 -1.77214 -5.04479 0
M  V30 4132 C 391.502 -3.57476 -3.808 0
M  V30 4133 H 393.196 -2.24303 -1.98314 0
M  V30 4134 H 390.742 -1.07977 -0.952736 0
M  V30 4135 H 392.695 -1.01729 -4.08937 0
M  V30 4136 H 391.419 -0.0875719 -3.26483 0
M  V30 4137 H 390.078 -2.19466 -2.9365 0
M  V30 4138 H 389.726 -0.780589 -4.96906 0
M  V30 4139 H 389.426 -2.50184 -5.31678 0
M  V30 4140 H 390.95 -1.7391 -5.8531 0
M  V30 4141 H 392.364 -3.55929 -4.4943 0
M  V30 4142 H 390.761 -4.29152 -4.19462 0
M  V30 4143 H 391.831 -3.94091 -2.82525 0
M  V30 4144 N 393.175 1.03435 -1.18907 0
M  V30 4145 C 394.4 1.80919 -1.01406 0
M  V30 4146 C 394.825 1.83055 0.432721 0
M  V30 4147 O 394.183 1.25252 1.31079 0
M  V30 4148 C 394.231 3.24091 -1.58105 0
M  V30 4149 O 393.335 4.04434 -0.806669 0
M  V30 4150 H 392.676 0.558709 -0.358803 0
M  V30 4151 H 395.206 1.30223 -1.57807 0
M  V30 4152 H 395.216 3.74853 -1.61087 0
M  V30 4153 H 393.891 3.21851 -2.6341 0
M  V30 4154 H 392.468 3.63091 -0.849666 0
M  V30 4155 N 394.653 0.992116 1.22453 0
M  V30 4156 C 395.585 0.500024 2.23679 0
M  V30 4157 C 396.598 -0.404463 1.57696 0
M  V30 4158 O 397.787 -0.206722 1.77299 0
M  V30 4159 C 394.887 -0.294711 3.37616 0
M  V30 4160 C 394.06 0.605723 4.33186 0
M  V30 4161 C 393.119 -0.13717 5.26021 0
M  V30 4162 O 392.145 0.477164 5.67196 0
M  V30 4163 N 393.347 -1.4197 5.62872 0
M  V30 4164 H 396.112 1.37045 2.66531 0
M  V30 4165 H 393.673 0.866741 1.36745 0
M  V30 4166 H 395.665 -0.800329 3.96707 0
M  V30 4167 H 394.235 -1.06623 2.93854 0
M  V30 4168 H 393.455 1.29202 3.72425 0
M  V30 4169 H 394.743 1.21896 4.93983 0
M  V30 4170 H 394.141 -1.94015 5.31389 0
M  V30 4171 H 392.698 -1.87052 6.24383 0
M  V30 4172 N 396.131 -1.37776 0.765217 0
M  V30 4173 C 397.041 -2.34135 0.147666 0
M  V30 4174 C 398.057 -1.59854 -0.687215 0
M  V30 4175 O 399.233 -1.91983 -0.608659 0
M  V30 4176 C 396.298 -3.3901 -0.72617 0
M  V30 4177 C 395.359 -4.2912 0.124417 0
M  V30 4178 C 394.592 -5.28986 -0.707807 0
M  V30 4179 O 394.815 -5.36205 -1.94525 0
M  V30 4180 O 393.749 -6.01779 -0.12046 0
M  V30 4181 H 397.575 -2.88664 0.943758 0
M  V30 4182 H 395.16 -1.39824 0.526277 0
M  V30 4183 H 397.042 -4.03195 -1.22524 0
M  V30 4184 H 395.717 -2.86819 -1.50056 0
M  V30 4185 H 394.624 -3.68057 0.669696 0
M  V30 4186 H 395.957 -4.84598 0.861736 0
M  V30 4187 N 397.609 -0.515225 -1.4894 0
M  V30 4188 C 398.849 0.0223983 -2.04388 0
M  V30 4189 C 399.213 1.32961 -1.38511 0
M  V30 4190 O 400.414 1.95236 -1.8476 0
M  V30 4191 C 398.685 0.157056 -3.57055 0
M  V30 4192 S 400.244 0.646875 -4.34006 0
M  V30 4193 H 397.062 -0.00500662 -0.710982 0
M  V30 4194 H 399.664 -0.69243 -1.82827 0
M  V30 4195 H 398.368 -0.799412 -4.02539 0
M  V30 4196 H 397.899 0.896704 -3.83044 0
M  V30 4197 H 399.914 1.91381 -4.57808 0
M  V30 4198 N 399.087 1.5561 -0.249682 0
M  V30 4199 C 399.997 2.25143 0.659375 0
M  V30 4200 C 401.013 1.2685 1.19101 0
M  V30 4201 O 402.189 1.59732 1.22669 0
M  V30 4202 C 399.254 2.93945 1.8384 0
M  V30 4203 C 398.315 4.07655 1.34596 0
M  V30 4204 C 397.548 4.73167 2.46878 0
M  V30 4205 O 397.771 4.37768 3.65671 0
M  V30 4206 O 396.705 5.61623 2.16478 0
M  V30 4207 H 400.531 3.03545 0.0968698 0
M  V30 4208 H 398.116 1.49389 -0.018074 0
M  V30 4209 H 399.998 3.37271 2.52638 0
M  V30 4210 H 398.673 2.18481 2.38847 0
M  V30 4211 H 397.58 3.68839 0.625174 0
M  V30 4212 H 398.913 4.84946 0.841941 0
M  V30 4213 N 400.565 -0.0233959 1.57583 0
M  V30 4214 C 401.512 -1.02224 2.06927 0
M  V30 4215 C 402.482 -1.35575 0.959617 0
M  V30 4216 O 403.667 -1.45815 1.23055 0
M  V30 4217 C 400.807 -2.31636 2.5581 0
M  V30 4218 C 399.92 -2.04394 3.80588 0
M  V30 4219 C 399.055 -3.27717 4.18061 0
M  V30 4220 C 398.094 -2.96056 5.3574 0
M  V30 4221 N 397.231 -4.11847 5.68618 0
M  V30 4222 H 402.071 -0.594504 2.9201 0
M  V30 4223 H 399.608 -0.281921 1.44373 0
M  V30 4224 H 401.566 -3.07258 2.82221 0
M  V30 4225 H 400.196 -2.72122 1.73636 0
M  V30 4226 H 399.248 -1.19244 3.61227 0
M  V30 4227 H 400.56 -1.77042 4.66323 0
M  V30 4228 H 399.714 -4.11702 4.4563 0
M  V30 4229 H 398.453 -3.58188 3.30988 0
M  V30 4230 H 397.458 -2.10474 5.07918 0
M  V30 4231 H 398.683 -2.66857 6.24471 0
M  V30 4232 H 396.629 -4.42258 4.84504 0
M  V30 4233 H 396.546 -3.87938 6.48876 0
M  V30 4234 H 397.814 -4.96689 6.00766 0
M  V30 4235 N 402.043 -1.548 -0.295768 0
M  V30 4236 C 402.973 -1.89115 -1.36959 0
M  V30 4237 C 403.954 -0.75059 -1.52644 0
M  V30 4238 O 405.139 -1.00678 -1.66065 0
M  V30 4239 C 402.269 -2.14307 -2.73295 0
M  V30 4240 C 401.223 -3.30151 -2.72368 0
M  V30 4241 C 400.549 -3.40772 -4.12042 0
M  V30 4242 C 401.849 -4.67126 -2.33646 0
M  V30 4243 H 403.543 -2.79053 -1.08488 0
M  V30 4244 H 401.089 -1.34266 -0.520443 0
M  V30 4245 H 403.042 -2.36898 -3.48507 0
M  V30 4246 H 401.766 -1.21145 -3.03301 0
M  V30 4247 H 400.425 -3.0749 -1.99613 0
M  V30 4248 H 400.073 -2.45117 -4.39234 0
M  V30 4249 H 399.773 -4.18645 -4.12322 0
M  V30 4250 H 401.297 -3.6563 -4.89027 0
M  V30 4251 H 402.711 -4.89414 -2.98575 0
M  V30 4252 H 401.108 -5.47751 -2.45129 0
M  V30 4253 H 402.178 -4.67489 -1.28772 0
M  V30 4254 N 403.521 0.559213 -1.47345 0
M  V30 4255 C 404.468 1.66645 -1.59682 0
M  V30 4256 C 405.438 1.60168 -0.43994 0
M  V30 4257 O 406.623 1.79031 -0.659736 0
M  V30 4258 C 403.763 3.04969 -1.61518 0
M  V30 4259 C 402.876 3.21897 -2.88108 0
M  V30 4260 C 402.011 4.50608 -2.81294 0
M  V30 4261 C 401.05 4.60961 -4.02717 0
M  V30 4262 N 400.187 5.81024 -3.94151 0
M  V30 4263 H 405.027 1.55439 -2.54249 0
M  V30 4264 H 402.564 0.757219 -1.26113 0
M  V30 4265 H 404.522 3.85064 -1.60566 0
M  V30 4266 H 403.152 3.15015 -0.704645 0
M  V30 4267 H 402.204 2.35248 -2.98936 0
M  V30 4268 H 403.516 3.25412 -3.78032 0
M  V30 4269 H 402.67 5.3896 -2.7858 0
M  V30 4270 H 401.409 4.49568 -1.89049 0
M  V30 4271 H 400.414 3.71021 -4.05738 0
M  V30 4272 H 401.639 4.63761 -4.96087 0
M  V30 4273 H 399.585 5.80938 -3.04708 0
M  V30 4274 H 399.502 5.85909 -4.77752 0
M  V30 4275 H 400.77 6.71744 -3.9545 0
M  V30 4276 N 404.999 1.35443 0.805782 0
M  V30 4277 C 405.946 1.28431 1.91766 0
M  V30 4278 C 406.916 0.156102 1.65365 0
M  V30 4279 O 408.101 0.339936 1.87747 0
M  V30 4280 C 405.241 1.06301 3.2832 0
M  V30 4281 C 404.354 2.2805 3.66902 0
M  V30 4282 C 403.489 1.99064 4.92491 0
M  V30 4283 C 402.528 3.16863 5.23703 0
M  V30 4284 N 401.665 2.87647 6.40471 0
M  V30 4285 H 406.505 2.23511 1.97096 0
M  V30 4286 H 404.042 1.11105 0.964054 0
M  V30 4287 H 406 0.915012 4.07042 0
M  V30 4288 H 404.63 0.148822 3.22457 0
M  V30 4289 H 403.682 2.53711 2.83434 0
M  V30 4290 H 404.994 3.1601 3.85927 0
M  V30 4291 H 404.148 1.81099 5.7904 0
M  V30 4292 H 402.887 1.0839 4.75503 0
M  V30 4293 H 401.892 3.35404 4.35642 0
M  V30 4294 H 403.117 4.08339 5.4262 0
M  V30 4295 H 401.063 1.99568 6.24907 0
M  V30 4296 H 400.98 3.69141 6.59751 0
M  V30 4297 H 402.248 2.73226 7.30047 0
M  V30 4298 N 406.477 -1.02803 1.19454 0
M  V30 4299 C 407.407 -2.12999 0.956758 0
M  V30 4300 C 408.388 -1.69743 -0.110188 0
M  V30 4301 O 409.573 -1.94148 0.0450038 0
M  V30 4302 C 406.703 -3.43746 0.495553 0
M  V30 4303 C 405.657 -4.00688 1.50443 0
M  V30 4304 C 404.983 -5.27067 0.900275 0
M  V30 4305 C 406.283 -4.35397 2.8849 0
M  V30 4306 H 407.977 -2.33148 1.87836 0
M  V30 4307 H 405.523 -1.12045 0.904539 0
M  V30 4308 H 407.476 -4.2021 0.316493 0
M  V30 4309 H 406.2 -3.23321 -0.461646 0
M  V30 4310 H 404.859 -3.2632 1.67065 0
M  V30 4311 H 404.507 -5.02959 -0.064503 0
M  V30 4312 H 404.207 -5.66127 1.57397 0
M  V30 4313 H 405.731 -6.06196 0.73203 0
M  V30 4314 H 407.145 -5.02795 2.75446 0
M  V30 4315 H 405.542 -4.85541 3.52661 0
M  V30 4316 H 406.612 -3.44662 3.41081 0
M  V30 4317 N 407.956 -0.998596 -1.21925 0
M  V30 4318 C 408.889 -0.498517 -2.22688 0
M  V30 4319 C 409.867 0.444301 -1.56412 0
M  V30 4320 O 411.051 0.368518 -1.84863 0
M  V30 4321 C 408.178 0.276639 -3.37568 0
M  V30 4322 C 407.224 -0.61302 -4.22071 0
M  V30 4323 S 408.057 -2.07168 -4.93803 0
M  V30 4324 C 409.213 -1.30617 -6.12119 0
M  V30 4325 H 409.446 -1.35234 -2.64762 0
M  V30 4326 H 406.979 -0.806018 -1.31692 0
M  V30 4327 H 408.937 0.717817 -4.04175 0
M  V30 4328 H 407.598 1.10581 -2.93991 0
M  V30 4329 H 406.791 -0.0162909 -5.03997 0
M  V30 4330 H 406.393 -0.991202 -3.60626 0
M  V30 4331 H 408.685 -0.57675 -6.75041 0
M  V30 4332 H 409.628 -2.10091 -6.76215 0
M  V30 4333 H 410.036 -0.816957 -5.58557 0
M  V30 4334 N 409.434 1.37368 -0.772513 0
M  V30 4335 C 410.659 2.0447 -0.347386 0
M  V30 4336 C 411.084 1.57882 1.0225 0
M  V30 4337 O 410.442 0.73941 1.65537 0
M  V30 4338 C 410.49 3.58369 -0.400479 0
M  V30 4339 O 409.594 4.0803 0.598789 0
M  V30 4340 H 408.935 0.646773 -0.15027 0
M  V30 4341 H 411.465 1.75667 -1.04892 0
M  V30 4342 H 411.475 4.07183 -0.258045 0
M  V30 4343 H 410.15 3.91633 -1.39986 0
M  V30 4344 H 408.727 3.70534 0.419411 0
M  V30 4345 N 410.912 0.523116 1.48665 0
M  V30 4346 C 411.875 -0.232592 2.28017 0
M  V30 4347 C 412.875 -0.874021 1.34972 0
M  V30 4348 O 414.065 -0.735132 1.57929 0
M  V30 4349 C 411.197 -1.33586 3.13636 0
M  V30 4350 H 412.39 0.464008 2.96289 0
M  V30 4351 H 409.943 0.278816 1.53793 0
M  V30 4352 H 410.678 -2.06593 2.4998 0
M  V30 4353 H 410.463 -0.881125 3.82071 0
M  V30 4354 H 411.953 -1.86759 3.73511 0
M  V30 4355 N 412.39 -1.55475 0.257931 0
M  V30 4356 C 413.338 -2.23244 -0.653076 0
M  V30 4357 C 414.332 -1.22366 -1.17144 0
M  V30 4358 O 415.538 -1.40347 -1.12706 0
M  V30 4359 H 411.913 -0.716247 -0.229117 0
M  V30 4360 H 413.884 -2.98343 -0.0584788 0
M  V30 4361 C 412.633 -2.95401 -1.83395 0
M  V30 4362 H 411.956 -3.72802 -1.44424 0
M  V30 4363 H 413.396 -3.46165 -2.44838 0
M  V30 4364 C 411.855 -1.99895 -2.71189 0
M  V30 4365 O 412.385 -1.53909 -3.71046 0
M  V30 4366 N 410.591 -1.6676 -2.3799 0
M  V30 4367 H 410.138 -2.04352 -1.56837 0
M  V30 4368 H 410.096 -1.03127 -2.97005 0
M  V30 4369 N 413.868 0.0150385 -1.57593 0
M  V30 4370 C 414.831 0.995996 -2.06428 0
M  V30 4371 C 415.831 1.2818 -0.970903 0
M  V30 4372 O 417.021 1.22949 -1.23406 0
M  V30 4373 C 414.153 2.32506 -2.49307 0
M  V30 4374 H 415.346 0.573873 -2.94358 0
M  V30 4375 H 412.899 0.262186 -1.54085 0
M  V30 4376 H 413.634 2.79438 -1.64575 0
M  V30 4377 H 413.419 2.13087 -3.29145 0
M  V30 4378 H 414.909 3.02906 -2.87468 0
M  V30 4379 N 415.346 1.54954 0.287554 0
M  V30 4380 C 416.571 1.79209 1.04397 0
M  V30 4381 C 416.996 0.556431 1.79682 0
M  V30 4382 O 416.354 -0.493518 1.74454 0
M  V30 4383 C 416.402 3.00739 1.98969 0
M  V30 4384 O 415.506 2.74805 3.075 0
M  V30 4385 H 414.847 0.592755 0.299227 0
M  V30 4386 H 417.377 2.02068 0.320886 0
M  V30 4387 H 417.387 3.29077 2.4119 0
M  V30 4388 H 416.062 3.90329 1.43582 0
M  V30 4389 H 414.639 2.57523 2.69697 0
M  V30 4390 N 416.824 -0.551391 1.4764 0
M  V30 4391 C 418.101 -1.31229 1.45046 0
M  V30 4392 C 418.481 -2.10563 0.150527 0
M  V30 4393 O 417.829 -2.11374 -0.867956 0
M  V30 4394 C 418.039 -2.21189 2.69956 0
M  V30 4395 C 419.387 -2.82021 3.1741 0
M  V30 4396 O 420.411 -2.31488 2.70724 0
M  V30 4397 O 419.27 -3.73885 3.98588 0
M  V30 4398 H 416.364 -0.591193 0.578291 0
M  V30 4399 H 418.91 -0.569813 1.59847 0
M  V30 4400 H 417.682 -1.62207 3.56096 0
M  V30 4401 H 417.305 -3.02722 2.57769 0
M  V30 4402 N 418.302 -1.35869 -0.798587 0
M  V30 4403 C 419.232 -1.32118 -1.92528 0
M  V30 4404 C 420.213 -0.194209 -1.68988 0
M  V30 4405 O 421.398 -0.390426 -1.90235 0
M  V30 4406 C 418.528 -1.10047 -3.29404 0
M  V30 4407 C 417.482 -2.19471 -3.67446 0
M  V30 4408 C 416.808 -1.82555 -5.02571 0
M  V30 4409 C 418.108 -3.61495 -3.76987 0
M  V30 4410 H 419.802 -2.26394 -1.95924 0
M  V30 4411 H 417.348 -1.08981 -0.94123 0
M  V30 4412 H 419.301 -1.06061 -4.07835 0
M  V30 4413 H 418.025 -0.122195 -3.26371 0
M  V30 4414 H 416.684 -2.22568 -2.91306 0
M  V30 4415 H 416.332 -0.833249 -4.9605 0
M  V30 4416 H 416.032 -2.5581 -5.28995 0
M  V30 4417 H 417.556 -1.80108 -5.83432 0
M  V30 4418 H 418.97 -3.60676 -4.4563 0
M  V30 4419 H 417.367 -4.33577 -4.14887 0
M  V30 4420 H 418.437 -3.97065 -2.78329 0
M  V30 4421 N 419.78 1.02168 -1.19998 0
M  V30 4422 C 421.191 1.57135 -1.00825 0
M  V30 4423 C 421.542 1.91276 0.436818 0
M  V30 4424 O 420.667 1.71679 1.3174 0
M  V30 4425 C 421.262 2.85514 -1.82393 0
M  V30 4426 C 419.821 3.37027 -1.67601 0
M  V30 4427 C 418.968 2.10388 -1.80644 0
M  V30 4428 H 421.919 0.846106 -1.34264 0
M  V30 4429 H 421.94 3.56711 -1.32429 0
M  V30 4430 H 421.452 2.60634 -2.87561 0
M  V30 4431 H 419.553 3.66878 -0.650485 0
M  V30 4432 H 419.666 4.09572 -2.4857 0
M  V30 4433 H 418.03 2.22601 -1.23778 0
M  V30 4434 H 418.813 1.8794 -2.87286 0
M  V30 4435 N 421.258 1.00505 1.21394 0
M  V30 4436 C 422.188 0.585684 2.26035 0
M  V30 4437 C 423.169 -0.393525 1.65485 0
M  V30 4438 O 424.354 -0.281497 1.92149 0
M  V30 4439 C 421.484 -0.0884283 3.47187 0
M  V30 4440 C 420.438 0.810567 4.20254 0
M  V30 4441 C 419.764 0.00286382 5.347 0
M  V30 4442 C 421.064 2.1132 4.77641 0
M  V30 4443 H 422.758 1.46039 2.61368 0
M  V30 4444 H 420.304 0.703648 1.25638 0
M  V30 4445 H 422.257 -0.393286 4.19561 0
M  V30 4446 H 420.981 -0.997766 3.10986 0
M  V30 4447 H 419.64 1.09925 3.49731 0
M  V30 4448 H 419.288 -0.907765 4.94741 0
M  V30 4449 H 418.988 0.601444 5.84514 0
M  V30 4450 H 420.512 -0.295808 6.09883 0
M  V30 4451 H 421.926 1.87148 5.41893 0
M  V30 4452 H 420.323 2.66164 5.37845 0
M  V30 4453 H 421.393 2.78393 3.9702 0
M  V30 4454 N 422.737 -1.36956 0.779787 0
M  V30 4455 C 423.962 -2.04283 0.358224 0
M  V30 4456 C 424.387 -1.58422 -1.01411 0
M  V30 4457 O 423.745 -0.748179 -1.65142 0
M  V30 4458 C 423.793 -3.58152 0.419479 0
M  V30 4459 O 422.897 -4.08342 -0.577142 0
M  V30 4460 H 422.238 -0.645967 0.153698 0
M  V30 4461 H 424.768 -1.75108 1.05822 0
M  V30 4462 H 424.778 -4.07041 0.279636 0
M  V30 4463 H 423.453 -3.90886 1.42061 0
M  V30 4464 H 422.03 -3.70751 -0.399755 0
M  V30 4465 N 424.215 -0.530993 -1.48385 0
M  V30 4466 C 425.464 0.00474348 -2.01699 0
M  V30 4467 C 425.777 1.35227 -1.41325 0
M  V30 4468 O 426.983 1.97643 -1.86144 0
M  V30 4469 C 425.439 0.0588473 -3.59852 0
M  V30 4470 C 425.047 -1.28385 -4.2921 0
M  V30 4471 C 426.791 0.543358 -4.21008 0
M  V30 4472 C 424.698 -1.19028 -5.79298 0
M  V30 4473 H 423.628 0.00554317 -0.75398 0
M  V30 4474 H 426.279 -0.674924 -1.70637 0
M  V30 4475 H 424.661 0.803612 -3.8776 0
M  V30 4476 H 425.835 -2.04426 -4.12973 0
M  V30 4477 H 424.15 -1.70418 -3.7993 0
M  V30 4478 H 426.747 0.631351 -5.3096 0
M  V30 4479 H 427.09 1.54937 -3.86394 0
M  V30 4480 H 427.623 -0.145754 -3.97533 0
M  V30 4481 H 424.362 -2.17147 -6.18488 0
M  V30 4482 H 423.882 -0.471246 -5.97946 0
M  V30 4483 H 425.561 -0.881365 -6.40969 0
M  V30 4484 N 425.693 1.55336 -0.266172 0
M  V30 4485 C 426.603 2.2583 0.635458 0
M  V30 4486 C 427.619 1.28106 1.17749 0
M  V30 4487 O 428.795 1.61024 1.20968 0
M  V30 4488 C 425.86 2.95879 1.80712 0
M  V30 4489 C 424.921 4.09059 1.30265 0
M  V30 4490 C 424.154 4.75759 2.41846 0
M  V30 4491 O 424.377 4.41622 3.61007 0
M  V30 4492 O 423.311 5.63888 2.1051 0
M  V30 4493 H 427.137 3.03631 0.0646693 0
M  V30 4494 H 424.722 1.49361 -0.0339177 0
M  V30 4495 H 426.604 3.39932 2.49047 0
M  V30 4496 H 425.279 2.21002 2.36516 0
M  V30 4497 H 424.186 3.69482 0.586019 0
M  V30 4498 H 425.519 4.85811 0.790458 0
M  V30 4499 N 427.171 -0.0066808 1.57599 0
M  V30 4500 C 428.411 -0.697501 1.92131 0
M  V30 4501 C 428.775 -1.71306 0.867071 0
M  V30 4502 O 429.976 -2.45377 1.09743 0
M  V30 4503 C 428.247 -1.32978 3.3174 0
M  V30 4504 S 429.806 -2.04665 3.88146 0
M  V30 4505 H 426.624 -0.230555 0.672581 0
M  V30 4506 H 429.226 0.0484026 1.9544 0
M  V30 4507 H 427.93 -0.57772 4.06313 0
M  V30 4508 H 427.461 -2.11376 3.31789 0
M  V30 4509 H 429.476 -3.32097 3.68682 0
M  V30 4510 N 428.649 -1.55105 -0.279332 0
M  V30 4511 C 429.896 -1.75412 -1.01177 0
M  V30 4512 C 430.224 -0.551728 -1.86511 0
M  V30 4513 O 429.479 0.465919 -1.90073 0
M  V30 4514 C 429.778 -3.0086 -1.92919 0
M  V30 4515 C 429.444 -4.33689 -1.23387 0
M  V30 4516 C 428.106 -4.69792 -1.04159 0
M  V30 4517 C 430.458 -5.15941 -0.738562 0
M  V30 4518 C 427.786 -5.85707 -0.341166 0
M  V30 4519 C 430.138 -6.32579 -0.0517636 0
M  V30 4520 C 428.802 -6.67326 0.152292 0
M  V30 4521 H 428.072 -0.641879 -0.370233 0
M  V30 4522 H 430.719 -1.89373 -0.284627 0
M  V30 4523 H 429.024 -2.81773 -2.72234 0
M  V30 4524 H 430.721 -3.13768 -2.49701 0
M  V30 4525 H 427.311 -4.05309 -1.39364 0
M  V30 4526 H 431.495 -4.8853 -0.874764 0
M  V30 4527 H 426.751 -6.11157 -0.172287 0
M  V30 4528 H 430.925 -6.9557 0.339828 0
M  V30 4529 H 428.552 -7.56998 0.697014 0
M  V30 4530 N 430.127 0.543554 -1.4793 0
M  V30 4531 C 431.06 1.66556 -1.55995 0
M  V30 4532 C 432.038 1.57315 -0.411205 0
M  V30 4533 O 433.222 1.7798 -0.620922 0
M  V30 4534 C 430.349 3.04883 -1.47527 0
M  V30 4535 C 429.395 3.32526 -2.67074 0
M  V30 4536 S 430.228 3.20282 -4.29162 0
M  V30 4537 C 431.384 4.61079 -4.23269 0
M  V30 4538 H 431.617 1.59462 -2.50917 0
M  V30 4539 H 429.15 0.725456 -1.36296 0
M  V30 4540 H 431.108 3.84665 -1.43328 0
M  V30 4541 H 429.769 3.09429 -0.539665 0
M  V30 4542 H 428.962 4.33403 -2.5725 0
M  V30 4543 H 428.564 2.60389 -2.68466 0
M  V30 4544 H 430.856 5.52318 -3.92365 0
M  V30 4545 H 431.799 4.75959 -5.24279 0
M  V30 4546 H 432.207 4.39766 -3.5393 0
M  V30 4547 N 431.605 1.3629 0.791371 0
M  V30 4548 C 432.553 1.30514 1.92533 0
M  V30 4549 C 433.547 0.197285 1.68247 0
M  V30 4550 O 434.753 0.364176 1.76278 0
M  V30 4551 H 431.128 0.406263 0.632815 0
M  V30 4552 H 433.099 2.26282 1.94523 0
M  V30 4553 C 431.848 1.10933 3.29529 0
M  V30 4554 H 431.171 1.95427 3.48781 0
M  V30 4555 H 432.611 1.10937 4.0923 0
M  V30 4556 C 431.07 -0.186123 3.36385 0
M  V30 4557 O 431.6 -1.17664 3.84081 0
M  V30 4558 N 429.806 -0.230128 2.89687 0
M  V30 4559 H 429.353 0.576545 2.51065 0
M  V30 4560 H 429.311 -1.09658 2.94657 0
M  V30 4561 N 433.083 -1.0153 1.20538 0
M  V30 4562 C 434.36 -1.72327 0.925343 0
M  V30 4563 C 434.74 -2.03383 -0.565547 0
M  V30 4564 O 434.088 -1.69934 -1.52757 0
M  V30 4565 C 434.298 -2.9902 1.79967 0
M  V30 4566 C 435.646 -3.72258 2.04228 0
M  V30 4567 O 436.67 -3.08979 1.77231 0
M  V30 4568 O 435.529 -4.86053 2.4983 0
M  V30 4569 H 432.623 -0.751099 0.346092 0
M  V30 4570 H 435.169 -1.07366 1.31417 0
M  V30 4571 H 433.941 -2.72402 2.80915 0
M  V30 4572 H 433.564 -3.71721 1.41099 0
M  V30 4573 N 434.561 -1.01147 -1.20859 0
M  V30 4574 C 435.807 -0.698899 -1.90377 0
M  V30 4575 C 436.14 0.76904 -1.78324 0
M  V30 4576 O 435.415 1.55817 -1.16409 0
M  V30 4577 C 435.698 -1.12878 -3.41951 0
M  V30 4578 C 435.551 -2.65665 -3.62963 0
M  V30 4579 C 436.87 -0.696114 -4.3456 0
M  V30 4580 H 433.989 -0.255372 -0.691342 0
M  V30 4581 H 436.631 -1.25831 -1.42361 0
M  V30 4582 H 434.781 -0.652827 -3.82976 0
M  V30 4583 H 436.453 -3.21074 -3.31224 0
M  V30 4584 H 434.696 -3.06878 -3.06608 0
M  V30 4585 H 435.367 -2.90797 -4.69192 0
M  V30 4586 H 437.843 -1.10521 -4.01154 0
M  V30 4587 H 436.719 -1.025 -5.39245 0
M  V30 4588 H 436.98 0.402465 -4.40264 0
M  V30 4589 N 436.039 1.36541 -0.78704 0
M  V30 4590 C 437.316 1.9355 -0.282424 0
M  V30 4591 C 437.696 1.71919 1.22503 0
M  V30 4592 O 437.044 1.07677 2.01539 0
M  V30 4593 C 437.254 3.4246 -0.672462 0
M  V30 4594 C 438.602 4.19582 -0.650863 0
M  V30 4595 O 439.626 3.50889 -0.612789 0
M  V30 4596 O 438.485 5.42106 -0.691623 0
M  V30 4597 H 435.579 0.824091 -0.0693 0
M  V30 4598 H 438.125 1.45736 -0.869423 0
M  V30 4599 H 436.897 3.51851 -1.71221 0
M  V30 4600 H 436.52 3.97556 -0.0592211 0
M  V30 4601 N 437.518 0.538854 1.48102 0
M  V30 4602 C 438.764 0.00801365 2.02798 0
M  V30 4603 C 439.097 -1.3309 1.41424 0
M  V30 4604 O 438.372 -1.86169 0.563158 0
M  V30 4605 C 438.655 -0.104589 3.59948 0
M  V30 4606 C 438.508 1.26012 4.31788 0
M  V30 4607 C 439.827 -0.827055 4.32259 0
M  V30 4608 H 436.946 0.00438624 0.736987 0
M  V30 4609 H 439.588 0.6976 1.7673 0
M  V30 4610 H 437.738 -0.691893 3.82289 0
M  V30 4611 H 439.41 1.88922 4.2084 0
M  V30 4612 H 437.653 1.83968 3.92859 0
M  V30 4613 H 438.324 1.13424 5.40221 0
M  V30 4614 H 440.8 -0.328578 4.14801 0
M  V30 4615 H 439.676 -0.87476 5.41885 0
M  V30 4616 H 439.937 -1.87927 4.0017 0
M  V30 4617 N 438.996 -1.55193 0.274407 0
M  V30 4618 C 440.221 -2.04446 -0.348824 0
M  V30 4619 C 440.646 -1.15149 -1.48735 0
M  V30 4620 O 440.004 -0.149952 -1.80679 0
M  V30 4621 C 440.052 -3.51431 -0.808009 0
M  V30 4622 O 439.156 -3.65225 -1.91531 0
M  V30 4623 H 438.497 -0.66006 -0.0722276 0
M  V30 4624 H 441.027 -2.00481 0.408498 0
M  V30 4625 H 441.037 -3.92781 -1.10395 0
M  V30 4626 H 439.712 -4.15892 0.0249865 0
M  V30 4627 H 438.289 -3.35778 -1.62196 0
M  V30 4628 N 440.474 -0.00167713 -1.576 0
M  V30 4629 C 441.722 0.681471 -1.90264 0
M  V30 4630 C 442.043 1.7422 -0.875924 0
M  V30 4631 O 441.313 1.95709 0.0864412 0
M  V30 4632 H 439.893 0.254696 -0.702239 0
M  V30 4633 H 442.555 -0.0429996 -1.94853 0
M  V30 4634 H 441.651 1.15166 -2.90075 0
M  V30 4635 N 441.952 1.55251 0.271103 0
M  V30 4636 C 443.18 1.79974 1.02064 0
M  V30 4637 C 443.595 0.574003 1.79863 0
M  V30 4638 O 442.952 -0.456962 1.76686 0
M  V30 4639 C 443.003 3.02603 1.97772 0
M  V30 4640 O 442.724 4.20443 1.23124 0
M  V30 4641 C 444.225 3.39944 2.84522 0
M  V30 4642 H 441.445 0.599489 0.301419 0
M  V30 4643 H 443.989 2.02268 0.301313 0
M  V30 4644 H 442.144 2.8243 2.65165 0
M  V30 4645 H 442.558 4.89783 1.87651 0
M  V30 4646 H 444.032 4.28915 3.47471 0
M  V30 4647 H 444.509 2.59432 3.54389 0
M  V30 4648 H 445.115 3.62383 2.22618 0
M  V30 4649 N 443.43 -0.535701 1.48216 0
M  V30 4650 C 444.363 -1.65726 1.56876 0
M  V30 4651 C 445.341 -1.57094 0.419542 0
M  V30 4652 O 446.525 -1.77648 0.630352 0
M  V30 4653 C 443.652 -3.04096 1.49142 0
M  V30 4654 C 442.698 -3.31105 2.68834 0
M  V30 4655 S 443.531 -3.18001 4.30854 0
M  V30 4656 C 444.687 -4.58828 4.25709 0
M  V30 4657 H 444.92 -1.58129 2.51759 0
M  V30 4658 H 442.453 -0.718218 1.36678 0
M  V30 4659 H 444.411 -3.839 1.45366 0
M  V30 4660 H 443.072 -3.09139 0.556067 0
M  V30 4661 H 442.265 -4.32033 2.59545 0
M  V30 4662 H 441.867 -2.58961 2.69843 0
M  V30 4663 H 444.159 -5.5023 3.95289 0
M  V30 4664 H 445.102 -4.73172 5.26796 0
M  V30 4665 H 445.51 -4.37883 3.56257 0
M  V30 4666 N 444.908 -1.36708 -0.784132 0
M  V30 4667 C 445.856 -1.31533 -1.91838 0
M  V30 4668 C 446.85 -0.206205 -1.6814 0
M  V30 4669 O 448.056 -0.373519 -1.76082 0
M  V30 4670 H 444.431 -0.409613 -0.630651 0
M  V30 4671 H 446.402 -2.2731 -1.9332 0
M  V30 4672 C 445.151 -1.12679 -3.28936 0
M  V30 4673 H 444.474 -1.97274 -3.4774 0
M  V30 4674 H 445.914 -1.13106 -4.08636 0
M  V30 4675 C 444.373 0.168281 -3.36479 0
M  V30 4676 O 444.903 1.15625 -3.84699 0
M  V30 4677 N 443.109 0.214762 -2.89805 0
M  V30 4678 H 442.656 -0.589852 -2.50756 0
M  V30 4679 H 442.614 1.08094 -2.95234 0
M  V30 4680 N 446.386 1.0089 -1.21074 0
M  V30 4681 C 447.802 1.2695 -0.967257 0
M  V30 4682 C 448.002 1.9846 0.348673 0
M  V30 4683 O 447.058 2.28459 1.0753 0
M  V30 4684 C 448.371 2.09697 -2.15517 0
M  V30 4685 C 449.919 2.22937 -2.197 0
M  V30 4686 C 450.394 3.09064 -3.37999 0
M  V30 4687 N 451.885 3.16653 -3.38061 0
M  V30 4688 C 452.62 3.8354 -4.26245 0
M  V30 4689 N 452.116 4.52488 -5.2462 0
M  V30 4690 N 453.909 3.80141 -4.14064 0
M  V30 4691 H 446.06 0.529005 -2.05707 0
M  V30 4692 H 448.323 0.296148 -0.900556 0
M  V30 4693 H 448.029 1.64497 -3.10859 0
M  V30 4694 H 447.903 3.10444 -2.14253 0
M  V30 4695 H 450.29 2.67357 -1.24916 0
M  V30 4696 H 450.371 1.21673 -2.2501 0
M  V30 4697 H 450.015 2.65347 -4.33074 0
M  V30 4698 H 449.945 4.10433 -3.29928 0
M  V30 4699 H 452.436 2.67566 -2.66865 0
M  V30 4700 H 452.749 5.01219 -5.88217 0
M  V30 4701 H 451.094 4.51288 -5.28549 0
M  V30 4702 H 454.285 3.25427 -3.36474 0
M  V30 4703 H 454.458 4.31992 -4.82998 0
M  V30 4704 N 447.864 1.01787 1.20321 0
M  V30 4705 C 449.112 0.706538 1.89347 0
M  V30 4706 C 449.433 -0.766289 1.79313 0
M  V30 4707 O 448.703 -1.55126 1.19635 0
M  V30 4708 H 447.283 0.258348 0.700903 0
M  V30 4709 H 449.945 1.28974 1.46122 0
M  V30 4710 H 449.041 0.991066 2.95946 0
M  V30 4711 N 449.342 -1.36122 0.79427 0
M  V30 4712 C 450.289 -2.29982 0.194101 0
M  V30 4713 C 451.259 -1.52214 -0.664833 0
M  V30 4714 O 452.444 -1.80702 -0.612498 0
M  V30 4715 C 449.584 -3.38706 -0.661244 0
M  V30 4716 C 448.697 -4.31456 0.216766 0
M  V30 4717 C 447.832 -5.27265 -0.645411 0
M  V30 4718 C 446.871 -6.11653 0.233756 0
M  V30 4719 N 446.008 -6.99636 -0.587682 0
M  V30 4720 H 450.848 -2.80722 0.999965 0
M  V30 4721 H 448.385 -1.38172 0.504677 0
M  V30 4722 H 450.343 -4.00394 -1.17219 0
M  V30 4723 H 448.973 -2.89274 -1.43249 0
M  V30 4724 H 448.025 -3.7088 0.845724 0
M  V30 4725 H 449.337 -4.90724 0.893973 0
M  V30 4726 H 448.491 -5.94266 -1.22198 0
M  V30 4727 H 447.23 -4.68463 -1.35623 0
M  V30 4728 H 446.235 -5.4361 0.82269 0
M  V30 4729 H 447.46 -6.72531 0.942247 0
M  V30 4730 H 445.406 -6.43337 -1.2827 0
M  V30 4731 H 445.323 -7.55993 0.0317402 0
M  V30 4732 H 446.591 -7.71001 -1.14792 0
M  V30 4733 N 450.82 -0.546701 -1.47814 0
M  V30 4734 C 452.067 -0.0187407 -2.02491 0
M  V30 4735 C 452.395 1.32685 -1.42215 0
M  V30 4736 O 451.65 1.87413 -0.563454 0
M  V30 4737 C 451.949 0.134869 -3.57145 0
M  V30 4738 C 451.615 -1.13849 -4.3629 0
M  V30 4739 C 450.277 -1.48743 -4.57634 0
M  V30 4740 C 452.629 -1.98277 -4.82012 0
M  V30 4741 C 449.957 -2.67932 -5.21948 0
M  V30 4742 C 452.309 -3.16659 -5.4764 0
M  V30 4743 C 450.973 -3.51879 -5.67219 0
M  V30 4744 H 450.243 -0.0068577 -0.740968 0
M  V30 4745 H 452.89 -0.716097 -1.77607 0
M  V30 4746 H 451.195 0.915118 -3.80963 0
M  V30 4747 H 452.892 0.558556 -3.97091 0
M  V30 4748 H 449.482 -0.856767 -4.19949 0
M  V30 4749 H 453.666 -1.72628 -4.6531 0
M  V30 4750 H 448.922 -2.95401 -5.35302 0
M  V30 4751 H 453.096 -3.82374 -5.82033 0
M  V30 4752 H 450.723 -4.44331 -6.16825 0
M  V30 4753 N 452.299 1.55045 -0.282633 0
M  V30 4754 C 453.229 2.2579 0.595066 0
M  V30 4755 C 454.21 1.25074 1.15284 0
M  V30 4756 O 455.395 1.5381 1.18559 0
M  V30 4757 C 452.525 2.98472 1.77572 0
M  V30 4758 C 451.479 4.0618 1.34914 0
M  V30 4759 C 450.805 4.66477 2.6135 0
M  V30 4760 C 452.105 5.1996 0.493821 0
M  V30 4761 H 453.799 2.994 0.00505653 0
M  V30 4762 H 451.345 1.44 0.000992001 0
M  V30 4763 H 453.298 3.46677 2.39568 0
M  V30 4764 H 452.022 2.2241 2.39168 0
M  V30 4765 H 450.681 3.58797 0.752338 0
M  V30 4766 H 450.329 3.87074 3.2122 0
M  V30 4767 H 450.029 5.39207 2.33516 0
M  V30 4768 H 451.553 5.17435 3.24181 0
M  V30 4769 H 452.967 5.64172 1.01898 0
M  V30 4770 H 451.364 5.99299 0.310047 0
M  V30 4771 H 452.434 4.82462 -0.485593 0
M  V30 4772 N 453.777 0.010035 1.57597 0
M  V30 4773 C 454.687 -0.994226 2.12491 0
M  V30 4774 C 455.703 -1.37013 1.07254 0
M  V30 4775 O 456.879 -1.45542 1.3921 0
M  V30 4776 C 453.944 -2.2642 2.62555 0
M  V30 4777 C 453.005 -1.95049 3.82432 0
M  V30 4778 C 452.238 -3.15991 4.30099 0
M  V30 4779 O 452.461 -4.28015 3.7704 0
M  V30 4780 O 451.395 -2.99403 5.22151 0
M  V30 4781 H 455.221 -0.557549 2.98538 0
M  V30 4782 H 452.806 -0.209413 1.47925 0
M  V30 4783 H 454.688 -3.01009 2.9491 0
M  V30 4784 H 453.363 -2.69306 1.796 0
M  V30 4785 H 452.27 -1.17904 3.55034 0
M  V30 4786 H 453.603 -1.56992 4.66491 0
M  V30 4787 N 455.255 -1.55392 -0.262866 0
M  V30 4788 C 456.188 -1.8391 -1.35101 0
M  V30 4789 C 457.166 -0.692901 -1.47097 0
M  V30 4790 O 458.35 -0.936979 -1.63563 0
M  V30 4791 C 455.477 -2.00969 -2.72634 0
M  V30 4792 C 454.523 -3.23559 -2.7787 0
M  V30 4793 S 455.356 -4.80647 -2.3609 0
M  V30 4794 C 456.512 -5.00692 -3.75578 0
M  V30 4795 H 456.745 -2.75918 -1.1071 0
M  V30 4796 H 454.278 -1.47294 -0.463029 0
M  V30 4797 H 456.236 -2.11482 -3.51832 0
M  V30 4798 H 454.897 -1.09832 -2.94272 0
M  V30 4799 H 454.09 -3.32413 -3.78837 0
M  V30 4800 H 453.692 -3.11689 -2.06702 0
M  V30 4801 H 455.984 -4.87055 -4.70939 0
M  V30 4802 H 456.927 -6.02717 -3.71669 0
M  V30 4803 H 457.335 -4.28619 -3.6735 0
M  V30 4804 N 456.733 0.527833 -1.48498 0
M  V30 4805 C 457.973 1.29401 -1.58224 0
M  V30 4806 C 458.337 1.90348 -0.251327 0
M  V30 4807 O 459.538 2.67868 -0.223588 0
M  V30 4808 C 457.809 2.35266 -2.69044 0
M  V30 4809 S 459.368 3.2158 -2.98549 0
M  V30 4810 H 456.186 0.440138 -0.558391 0
M  V30 4811 H 458.788 0.601079 -1.8603 0
M  V30 4812 H 457.492 1.88975 -3.64303 0
M  V30 4813 H 457.023 3.09263 -2.43146 0
M  V30 4814 H 459.038 4.35391 -2.38011 0
M  V30 4815 N 458.211 1.37122 0.776871 0
M  V30 4816 C 459.159 1.32549 1.91138 0
M  V30 4817 C 460.153 0.215119 1.68029 0
M  V30 4818 O 461.359 0.382852 1.75881 0
M  V30 4819 H 457.734 0.412952 0.62847 0
M  V30 4820 H 459.705 2.28332 1.92112 0
M  V30 4821 C 458.454 1.14422 3.28333 0
M  V30 4822 H 457.777 1.99115 3.46689 0
M  V30 4823 H 459.217 1.15272 4.0803 0
M  V30 4824 C 457.676 -0.150434 3.36564 0
M  V30 4825 O 458.206 -1.13584 3.85307 0
M  V30 4826 N 456.412 -0.19939 2.89915 0
M  V30 4827 H 455.959 0.603142 2.5044 0
M  V30 4828 H 455.917 -1.06526 2.95803 0
M  V30 4829 N 459.689 -1.00246 1.21608 0
M  V30 4830 C 460.966 -1.71336 0.943568 0
M  V30 4831 C 461.346 -2.03972 -0.543943 0
M  V30 4832 O 460.694 -1.71545 -1.50946 0
M  V30 4833 C 460.904 -2.97094 1.83128 0
M  V30 4834 C 462.252 -3.70071 2.08165 0
M  V30 4835 O 463.276 -3.07081 1.80498 0
M  V30 4836 O 462.135 -4.83376 2.54971 0
M  V30 4837 H 459.229 -0.747386 0.354039 0
M  V30 4838 H 461.775 -1.05967 1.32549 0
M  V30 4839 H 460.547 -2.69407 2.83788 0
M  V30 4840 H 460.17 -3.70204 1.45034 0
M  V30 4841 N 461.167 -1.02423 -1.1978 0
M  V30 4842 C 462.097 -0.62157 -2.25075 0
M  V30 4843 C 463.078 0.367148 -1.6609 0
M  V30 4844 O 464.263 0.250892 -1.92573 0
M  V30 4845 C 461.393 0.0331826 -3.47284 0
M  V30 4846 C 460.347 -0.877323 -4.18912 0
M  V30 4847 C 459.673 -0.0879296 -5.34628 0
M  V30 4848 C 460.973 -2.18892 -4.74219 0
M  V30 4849 H 462.667 -1.50179 -2.59011 0
M  V30 4850 H 460.213 -0.723547 -1.24502 0
M  V30 4851 H 462.166 0.326488 -4.20133 0
M  V30 4852 H 460.89 0.948164 -3.12534 0
M  V30 4853 H 459.549 -1.15475 -3.47938 0
M  V30 4854 H 459.197 0.828941 -4.96123 0
M  V30 4855 H 458.897 -0.694359 -5.83483 0
M  V30 4856 H 460.421 0.198743 -6.10276 0
M  V30 4857 H 461.835 -1.95746 -5.38847 0
M  V30 4858 H 460.232 -2.74686 -5.33542 0
M  V30 4859 H 461.302 -2.84674 -3.92541 0
M  V30 4860 N 462.645 1.35699 -0.801477 0
M  V30 4861 C 463.575 2.32436 -0.222658 0
M  V30 4862 C 464.556 1.5723 0.649057 0
M  V30 4863 O 465.741 1.85324 0.580387 0
M  V30 4864 C 462.871 3.41469 0.633719 0
M  V30 4865 C 461.825 4.27774 -0.139083 0
M  V30 4866 C 461.151 5.28082 0.838666 0
M  V30 4867 C 462.451 5.04946 -1.33517 0
M  V30 4868 H 464.145 2.81094 -1.03086 0
M  V30 4869 H 461.691 1.35146 -0.497155 0
M  V30 4870 H 463.644 4.08143 1.04868 0
M  V30 4871 H 462.368 2.91408 1.47475 0
M  V30 4872 H 461.027 3.62673 -0.535156 0
M  V30 4873 H 460.675 4.7429 1.67506 0
M  V30 4874 H 460.375 5.86695 0.32594 0
M  V30 4875 H 461.899 5.97628 1.25194 0
M  V30 4876 H 463.313 5.64593 -0.995349 0
M  V30 4877 H 461.71 5.7303 -1.78202 0
M  V30 4878 H 462.78 4.35886 -2.12442 0
M  V30 4879 N 464.123 0.554532 1.47522 0
M  V30 4880 C 465.086 -0.184174 2.28459 0
M  V30 4881 C 466.086 -0.845195 1.36796 0
M  V30 4882 O 467.276 -0.701467 1.59452 0
M  V30 4883 C 464.408 -1.26903 3.16399 0
M  V30 4884 H 465.601 0.526751 2.95238 0
M  V30 4885 H 463.154 0.311375 1.53167 0
M  V30 4886 H 463.889 -2.01244 2.54306 0
M  V30 4887 H 463.674 -0.799883 3.83854 0
M  V30 4888 H 465.164 -1.78794 3.77389 0
M  V30 4889 N 465.601 -1.54893 0.290851 0
M  V30 4890 C 467.017 -1.59476 -0.0628432 0
M  V30 4891 C 467.217 -1.30795 -1.5328 0
M  V30 4892 O 466.273 -1.07644 -2.28406 0
M  V30 4893 C 467.586 -2.98928 0.325962 0
M  V30 4894 C 469.134 -3.11799 0.273882 0
M  V30 4895 C 469.609 -4.53544 0.637359 0
M  V30 4896 N 471.1 -4.59433 0.589507 0
M  V30 4897 C 471.835 -5.67164 0.84335 0
M  V30 4898 N 471.331 -6.82975 1.16263 0
M  V30 4899 N 473.124 -5.56786 0.771091 0
M  V30 4900 H 465.275 -1.71798 1.24896 0
M  V30 4901 H 467.538 -0.801879 0.505663 0
M  V30 4902 H 467.244 -3.24805 1.34887 0
M  V30 4903 H 467.118 -3.75793 -0.325441 0
M  V30 4904 H 469.505 -2.85677 -0.739765 0
M  V30 4905 H 469.586 -2.37112 0.959766 0
M  V30 4906 H 469.23 -4.80394 1.64877 0
M  V30 4907 H 469.16 -5.26553 -0.0704866 0
M  V30 4908 H 471.651 -3.76245 0.353252 0
M  V30 4909 H 471.964 -7.61048 1.34257 0
M  V30 4910 H 470.309 -6.84552 1.20057 0
M  V30 4911 H 473.5 -4.65187 0.521383 0
M  V30 4912 H 473.673 -6.40664 0.972295 0
M  V30 4913 N 467.08 -0.0183926 -1.57589 0
M  V30 4914 C 468.326 0.663543 -1.91638 0
M  V30 4915 C 468.659 1.72392 -0.894134 0
M  V30 4916 O 467.934 1.94316 0.0846449 0
M  V30 4917 C 468.217 1.28984 -3.36207 0
M  V30 4918 C 468.07 0.239761 -4.49161 0
M  V30 4919 C 469.389 2.2109 -3.80536 0
M  V30 4920 H 466.508 0.239746 -0.696915 0
M  V30 4921 H 469.15 -0.073456 -1.89858 0
M  V30 4922 H 467.3 1.91799 -3.37854 0
M  V30 4923 H 468.972 -0.390119 -4.59647 0
M  V30 4924 H 467.215 -0.435972 -4.31604 0
M  V30 4925 H 467.886 0.717383 -5.47319 0
M  V30 4926 H 470.362 1.68273 -3.80557 0
M  V30 4927 H 469.238 2.61869 -4.82406 0
M  V30 4928 H 469.499 3.09764 -3.15434 0
M  V30 4929 N 468.558 1.5553 0.254621 0
M  V30 4930 C 469.468 1.92789 1.33677 0
M  V30 4931 C 470.484 0.827356 1.53071 0
M  V30 4932 O 471.66 1.12807 1.66843 0
M  V30 4933 C 468.725 2.20827 2.67275 0
M  V30 4934 C 467.786 3.4427 2.5647 0
M  V30 4935 C 467.019 3.70961 3.83697 0
M  V30 4936 O 467.242 2.99852 4.85227 0
M  V30 4937 O 466.176 4.64491 3.82794 0
M  V30 4938 H 470.002 2.84945 1.05071 0
M  V30 4939 H 467.587 1.42312 0.454723 0
M  V30 4940 H 469.469 2.40204 3.46237 0
M  V30 4941 H 468.144 1.31851 2.9563 0
M  V30 4942 H 467.051 3.30209 1.75821 0
M  V30 4943 H 468.384 4.33524 2.33062 0
M  V30 4944 N 470.036 -0.519951 1.48776 0
M  V30 4945 C 471.447 -1.10177 1.50725 0
M  V30 4946 C 471.798 -1.94153 0.282678 0
M  V30 4947 O 470.923 -2.07645 -0.609298 0
M  V30 4948 C 471.518 -2.00482 2.73116 0
M  V30 4949 C 470.077 -2.53862 2.77905 0
M  V30 4950 C 469.224 -1.31047 2.44381 0
M  V30 4951 H 472.175 -0.30473 1.55747 0
M  V30 4952 H 472.196 -2.8491 2.52203 0
M  V30 4953 H 471.708 -1.39335 3.62225 0
M  V30 4954 H 469.809 -3.18702 1.93029 0
M  V30 4955 H 469.922 -2.9231 3.79594 0
M  V30 4956 H 468.286 -1.62953 1.95751 0
M  V30 4957 H 469.069 -0.71637 3.35743 0
M  V30 4958 N 471.514 -1.37532 -0.769588 0
M  V30 4959 C 472.925 -1.29382 -1.346 0
M  V30 4960 C 473.276 0.0576039 -1.96115 0
M  V30 4961 O 472.401 0.95947 -1.93967 0
M  V30 4962 C 472.996 -2.34298 -2.44724 0
M  V30 4963 C 471.555 -2.29776 -2.98128 0
M  V30 4964 C 470.702 -2.18013 -1.71364 0
M  V30 4965 H 473.653 -1.48123 -0.56968 0
M  V30 4966 H 473.674 -1.99089 -3.24259 0
M  V30 4967 H 473.186 -3.32645 -1.99922 0
M  V30 4968 H 471.287 -1.34959 -3.47299 0
M  V30 4969 H 471.4 -3.23276 -3.53595 0
M  V30 4970 H 469.764 -1.64595 -1.94372 0
M  V30 4971 H 470.547 -3.18278 -1.28662 0
M  V30 4972 N 472.992 0.995999 -1.22138 0
M  V30 4973 C 473.922 2.10387 -1.01289 0
M  V30 4974 C 474.903 1.69975 0.0651454 0
M  V30 4975 O 476.088 1.9396 -0.0964628 0
M  V30 4976 C 473.218 3.42312 -0.586517 0
M  V30 4977 C 472.172 3.96558 -1.61014 0
M  V30 4978 C 471.498 5.24494 -1.0397 0
M  V30 4979 C 472.798 4.27595 -2.99933 0
M  V30 4980 H 474.492 2.28086 -1.93951 0
M  V30 4981 H 472.038 1.09607 -0.933928 0
M  V30 4982 H 473.991 4.19223 -0.427793 0
M  V30 4983 H 472.715 3.24431 0.375761 0
M  V30 4984 H 471.374 3.21776 -1.75658 0
M  V30 4985 H 471.022 5.02953 -0.0688703 0
M  V30 4986 H 470.722 5.61755 -1.72352 0
M  V30 4987 H 472.246 6.04042 -0.892494 0
M  V30 4988 H 473.66 4.95315 -2.8868 0
M  V30 4989 H 472.057 4.76021 -3.6541 0
M  V30 4990 H 473.127 3.35498 -3.50099 0
M  V30 4991 N 474.47 1.03057 1.19235 0
M  V30 4992 C 475.886 0.747947 1.40989 0
M  V30 4993 C 476.086 -0.666752 1.90149 0
M  V30 4994 O 475.142 -1.43249 2.07933 0
M  V30 4995 C 476.455 1.7855 2.41951 0
M  V30 4996 C 478.003 1.80524 2.55695 0
M  V30 4997 C 478.478 2.83243 3.59913 0
M  V30 4998 N 479.969 2.8207 3.67411 0
M  V30 4999 C 480.704 3.58204 4.47747 0
M  V30 5000 N 480.2 4.44057 5.31775 0
M  V30 5001 N 481.993 3.46738 4.42413 0
M  V30 5002 H 474.144 1.94367 0.856468 0
M  V30 5003 H 476.407 0.840412 0.438647 0
M  V30 5004 H 476.113 2.79973 2.12857 0
M  V30 5005 H 475.987 1.6092 3.41152 0
M  V30 5006 H 478.374 0.79778 2.84112 0
M  V30 5007 H 478.455 2.02229 1.56643 0
M  V30 5008 H 478.099 3.84161 3.32239 0
M  V30 5009 H 478.029 2.58795 4.5862 0
M  V30 5010 H 480.52 2.19803 3.074 0
M  V30 5011 H 480.833 4.98884 5.90199 0
M  V30 5012 H 479.178 4.48129 5.3123 0
M  V30 5013 H 482.369 2.79077 3.75811 0
M  V30 5014 H 482.542 4.06322 5.04783 0
M  V30 5015 N 475.948 -1.35272 0.808662 0
M  V30 5016 C 477.173 -2.03477 0.401475 0
M  V30 5017 C 477.598 -1.60537 -0.980279 0
M  V30 5018 O 476.956 -0.78304 -1.63518 0
M  V30 5019 C 477.004 -3.57181 0.495354 0
M  V30 5020 O 476.108 -4.09474 -0.490397 0
M  V30 5021 H 475.449 -0.642561 0.167366 0
M  V30 5022 H 477.979 -1.72824 1.09512 0
M  V30 5023 H 477.989 -4.06356 0.365912 0
M  V30 5024 H 476.664 -3.87784 1.5032 0
M  V30 5025 H 475.241 -3.71516 -0.321023 0
M  V30 5026 N 477.426 -0.562348 -1.47226 0
M  V30 5027 C 478.672 -0.0402761 -2.0276 0
M  V30 5028 C 479.005 1.30823 -1.43523 0
M  V30 5029 O 478.28 1.85249 -0.592705 0
M  V30 5030 C 478.563 0.047311 -3.60069 0
M  V30 5031 C 478.416 -1.32865 -4.29729 0
M  V30 5032 C 479.735 0.758182 -4.3352 0
M  V30 5033 H 476.854 -0.0161105 -0.736824 0
M  V30 5034 H 479.496 -0.725628 -1.75598 0
M  V30 5035 H 477.646 0.630986 -3.83342 0
M  V30 5036 H 479.318 -1.95593 -4.17781 0
M  V30 5037 H 477.561 -1.90195 -3.89882 0
M  V30 5038 H 478.232 -1.22004 -5.38349 0
M  V30 5039 H 480.708 0.262546 -4.15271 0
M  V30 5040 H 479.584 0.78844 -5.43208 0
M  V30 5041 H 479.845 1.81537 -4.03109 0
M  V30 5042 N 478.904 1.54736 -0.299062 0
M  V30 5043 C 479.834 2.26409 0.571085 0
M  V30 5044 C 480.815 1.2629 1.13951 0
M  V30 5045 O 482 1.55059 1.16921 0
M  V30 5046 C 479.13 3.00338 1.74396 0
M  V30 5047 C 478.084 4.07588 1.30599 0
M  V30 5048 C 477.41 4.69222 2.56387 0
M  V30 5049 C 478.71 5.20455 0.438645 0
M  V30 5050 H 480.404 2.99388 -0.0266991 0
M  V30 5051 H 477.95 1.43993 -0.0142812 0
M  V30 5052 H 479.903 3.49198 2.35878 0
M  V30 5053 H 478.627 2.24934 2.36796 0
M  V30 5054 H 477.286 3.59575 0.71424 0
M  V30 5055 H 476.934 3.9046 3.17097 0
M  V30 5056 H 476.634 5.41653 2.27784 0
M  V30 5057 H 478.158 5.20844 3.18675 0
M  V30 5058 H 479.572 5.65221 0.959085 0
M  V30 5059 H 477.969 5.99594 0.246466 0
M  V30 5060 H 479.039 4.8192 -0.536738 0
M  V30 5061 N 480.382 0.0267497 1.57577 0
M  V30 5062 C 481.292 -0.971633 2.13533 0
M  V30 5063 C 482.308 -1.35868 1.08701 0
M  V30 5064 O 483.484 -1.44058 1.40746 0
M  V30 5065 C 480.549 -2.23622 2.64941 0
M  V30 5066 C 479.61 -1.90982 3.8448 0
M  V30 5067 C 478.843 -3.11411 4.33427 0
M  V30 5068 O 479.066 -4.23992 3.81558 0
M  V30 5069 O 478 -2.93848 5.25297 0
M  V30 5070 H 481.826 -0.525853 2.99113 0
M  V30 5071 H 479.411 -0.193712 1.48139 0
M  V30 5072 H 481.293 -2.97864 2.98086 0
M  V30 5073 H 479.968 -2.67386 1.82446 0
M  V30 5074 H 478.875 -1.14132 3.56265 0
M  V30 5075 H 480.208 -1.52036 4.6813 0
M  V30 5076 N 481.861 -1.55662 -0.24637 0
M  V30 5077 C 482.793 -1.86811 -1.32794 0
M  V30 5078 C 483.806 -0.754413 -1.44265 0
M  V30 5079 O 484.995 -1.03253 -1.45606 0
M  V30 5080 C 482.095 -2.0397 -2.70646 0
M  V30 5081 C 481.268 -3.34832 -2.81436 0
M  V30 5082 C 480.327 -3.41727 -4.00136 0
M  V30 5083 O 479.353 -4.14934 -3.89639 0
M  V30 5084 N 480.555 -2.71058 -5.1333 0
M  V30 5085 H 483.32 -2.80174 -1.06409 0
M  V30 5086 H 480.881 -1.55906 -0.43647 0
M  V30 5087 H 482.873 -2.05924 -3.48393 0
M  V30 5088 H 481.443 -1.1735 -2.89738 0
M  V30 5089 H 480.663 -3.4519 -1.90361 0
M  V30 5090 H 481.951 -4.21085 -2.85595 0
M  V30 5091 H 481.349 -2.11314 -5.2475 0
M  V30 5092 H 479.906 -2.78704 -5.89209 0
M  V30 5093 N 483.339 0.512053 -1.4905 0
M  V30 5094 C 484.567 1.29116 -1.61669 0
M  V30 5095 C 484.982 1.86655 -0.283787 0
M  V30 5096 O 484.339 1.67293 0.729331 0
M  V30 5097 C 484.39 2.4293 -2.67707 0
M  V30 5098 O 484.111 1.87758 -3.95826 0
M  V30 5099 C 485.612 3.34476 -2.90931 0
M  V30 5100 H 482.832 0.392009 -0.544583 0
M  V30 5101 H 485.376 0.615881 -1.95006 0
M  V30 5102 H 483.531 3.06308 -2.37179 0
M  V30 5103 H 483.945 2.62393 -4.54148 0
M  V30 5104 H 485.419 4.10642 -3.68886 0
M  V30 5105 H 485.896 3.90801 -2.00427 0
M  V30 5106 H 486.502 2.76874 -3.22832 0
M  V30 5107 N 484.817 1.37938 0.762283 0
M  V30 5108 C 485.764 1.34467 1.87583 0
M  V30 5109 C 486.734 0.208633 1.64785 0
M  V30 5110 O 487.919 0.399494 1.86571 0
M  V30 5111 C 485.059 1.16692 3.24772 0
M  V30 5112 C 484.172 2.39608 3.59461 0
M  V30 5113 C 483.307 2.14631 4.85908 0
M  V30 5114 C 482.346 3.33364 5.13357 0
M  V30 5115 N 481.483 3.07877 6.30996 0
M  V30 5116 H 486.323 2.29669 1.89885 0
M  V30 5117 H 483.86 1.14116 0.928219 0
M  V30 5118 H 485.818 1.04405 4.03925 0
M  V30 5119 H 484.448 0.251333 3.2182 0
M  V30 5120 H 483.5 2.626 2.75219 0
M  V30 5121 H 484.812 3.28128 3.75678 0
M  V30 5122 H 483.966 1.99429 5.72986 0
M  V30 5123 H 482.705 1.23463 4.71814 0
M  V30 5124 H 481.71 3.49094 4.24751 0
M  V30 5125 H 482.935 4.25395 5.29354 0
M  V30 5126 H 480.881 2.19348 6.18241 0
M  V30 5127 H 480.798 3.89944 6.47673 0
M  V30 5128 H 482.066 2.96313 7.20985 0
M  V30 5129 N 486.295 -0.989507 1.22664 0
M  V30 5130 C 487.225 -2.09847 1.02404 0
M  V30 5131 C 488.206 -1.70007 -0.0561303 0
M  V30 5132 O 489.391 -1.93906 0.106748 0
M  V30 5133 C 486.521 -3.41996 0.604663 0
M  V30 5134 C 485.475 -3.95699 1.63115 0
M  V30 5135 C 484.801 -5.23936 1.0675 0
M  V30 5136 C 486.101 -4.25999 3.02196 0
M  V30 5137 H 487.795 -2.27054 1.95158 0
M  V30 5138 H 485.341 -1.09111 0.939727 0
M  V30 5139 H 487.294 -4.1899 0.45002 0
M  V30 5140 H 486.018 -3.24626 -0.35855 0
M  V30 5141 H 484.677 -3.2084 1.77362 0
M  V30 5142 H 484.325 -5.02909 0.0955422 0
M  V30 5143 H 484.025 -5.60833 1.75328 0
M  V30 5144 H 485.549 -6.0356 0.924516 0
M  V30 5145 H 486.963 -4.93777 2.91303 0
M  V30 5146 H 485.36 -4.74076 3.67929 0
M  V30 5147 H 486.43 -3.33636 3.51873 0
M  V30 5148 N 487.773 -1.03688 -1.18687 0
M  V30 5149 C 488.72 -0.624624 -2.22187 0
M  V30 5150 C 489.69 0.365636 -1.62026 0
M  V30 5151 O 490.875 0.260481 -1.89014 0
M  V30 5152 C 488.015 0.0101738 -3.45099 0
M  V30 5153 C 487.128 -1.02709 -4.19613 0
M  V30 5154 C 486.263 -0.361213 -5.2997 0
M  V30 5155 C 485.302 -1.38384 -5.96252 0
M  V30 5156 N 484.439 -0.743196 -6.98155 0
M  V30 5157 H 489.279 -1.51176 -2.56807 0
M  V30 5158 H 486.816 -0.75636 -1.26165 0
M  V30 5159 H 488.774 0.395528 -4.15321 0
M  V30 5160 H 487.404 0.860848 -3.1111 0
M  V30 5161 H 486.456 -1.53043 -3.48256 0
M  V30 5162 H 487.768 -1.80398 -4.65036 0
M  V30 5163 H 486.922 0.0785537 -6.06649 0
M  V30 5164 H 485.661 0.447799 -4.8564 0
M  V30 5165 H 484.666 -1.83378 -5.18317 0
M  V30 5166 H 485.891 -2.19448 -6.42666 0
M  V30 5167 H 483.837 0.0455789 -6.55984 0
M  V30 5168 H 483.754 -1.45784 -7.41811 0
M  V30 5169 H 485.022 -0.327698 -7.78811 0
M  V30 5170 N 489.251 1.34841 -0.815825 0
M  V30 5171 C 490.198 2.29644 -0.230664 0
M  V30 5172 C 491.168 1.53253 0.640533 0
M  V30 5173 O 492.353 1.81653 0.583672 0
M  V30 5174 C 489.493 3.39715 0.607275 0
M  V30 5175 C 488.606 4.31056 -0.28538 0
M  V30 5176 C 487.741 5.28225 0.561446 0
M  V30 5177 C 486.78 6.11204 -0.331035 0
M  V30 5178 N 485.917 7.00483 0.476302 0
M  V30 5179 H 490.757 2.79095 -1.0445 0
M  V30 5180 H 488.294 1.37351 -0.526595 0
M  V30 5181 H 490.252 4.02208 1.10835 0
M  V30 5182 H 488.882 2.91517 1.38629 0
M  V30 5183 H 487.934 3.69487 -0.904621 0
M  V30 5184 H 489.246 4.89239 -0.97193 0
M  V30 5185 H 488.4 5.96135 1.12728 0
M  V30 5186 H 487.139 4.70562 1.28153 0
M  V30 5187 H 486.144 5.42232 -0.909069 0
M  V30 5188 H 487.369 6.70947 -1.04912 0
M  V30 5189 H 485.315 6.45296 1.18019 0
M  V30 5190 H 485.232 7.55847 -0.152008 0
M  V30 5191 H 486.5 7.7273 1.02512 0
M  V30 5192 N 490.729 0.570148 1.46925 0
M  V30 5193 C 491.639 -0.173061 2.33961 0
M  V30 5194 C 492.655 -0.898825 1.48987 0
M  V30 5195 O 493.831 -0.864825 1.81887 0
M  V30 5196 C 490.896 -1.18177 3.25937 0
M  V30 5197 C 489.957 -0.462041 4.26806 0
M  V30 5198 C 489.19 -1.4227 5.14388 0
M  V30 5199 O 489.413 -2.65842 5.04662 0
M  V30 5200 O 488.347 -0.940127 5.94513 0
M  V30 5201 H 492.173 0.541216 2.98839 0
M  V30 5202 H 489.758 0.330647 1.45695 0
M  V30 5203 H 491.64 -1.76372 3.82715 0
M  V30 5204 H 490.315 -1.87774 2.63671 0
M  V30 5205 H 489.222 0.161429 3.73752 0
M  V30 5206 H 490.555 0.192719 4.91823 0
M  V30 5207 N 492.207 -1.54576 0.307264 0
M  V30 5208 C 493.484 -1.92377 -0.353605 0
M  V30 5209 C 493.864 -1.23517 -1.71192 0
M  V30 5210 O 493.212 -0.373101 -2.25433 0
M  V30 5211 C 493.422 -3.45928 -0.462039 0
M  V30 5212 C 494.77 -4.18278 -0.729975 0
M  V30 5213 O 495.794 -3.51997 -0.545605 0
M  V30 5214 O 494.653 -5.3563 -1.08454 0
M  V30 5215 H 491.747 -0.802747 -0.198812 0
M  V30 5216 H 494.293 -1.65929 0.355783 0
M  V30 5217 H 493.065 -3.88187 0.492592 0
M  V30 5218 H 492.688 -3.78431 -1.21965 0
M  V30 5219 N 493.685 -0.035106 -1.57561 0
M  V30 5220 C 494.934 0.641604 -1.91223 0
M  V30 5221 C 495.247 1.72944 -0.913761 0
M  V30 5222 O 496.453 2.46321 -1.14185 0
M  V30 5223 C 494.909 1.19249 -3.3957 0
M  V30 5224 C 494.517 0.137616 -4.47789 0
M  V30 5225 C 496.261 1.84537 -3.82291 0
M  V30 5226 C 494.168 0.700478 -5.87237 0
M  V30 5227 H 493.098 0.243417 -0.713627 0
M  V30 5228 H 495.749 -0.101382 -1.8322 0
M  V30 5229 H 494.131 1.98728 -3.42525 0
M  V30 5230 H 495.305 -0.635153 -4.56402 0
M  V30 5231 H 493.62 -0.416855 -4.14308 0
M  V30 5232 H 496.217 2.27616 -4.83834 0
M  V30 5233 H 496.56 2.69054 -3.17672 0
M  V30 5234 H 497.093 1.11739 -3.81784 0
M  V30 5235 H 493.832 -0.106693 -6.55413 0
M  V30 5236 H 493.352 1.4416 -5.82218 0
M  V30 5237 H 495.031 1.18837 -6.35993 0
M  V30 5238 N 495.163 1.55791 0.238111 0
M  V30 5239 C 496.393 1.81834 0.980809 0
M  V30 5240 C 496.801 0.609741 1.79106 0
M  V30 5241 O 496.144 -0.431073 1.78571 0
M  V30 5242 C 496.206 3.01363 1.96011 0
M  V30 5243 C 495.87 4.37037 1.33597 0
M  V30 5244 C 496.867 5.14692 0.734063 0
M  V30 5245 C 494.552 4.83743 1.3527 0
M  V30 5246 C 496.546 6.37206 0.157208 0
M  V30 5247 C 494.233 6.06204 0.77199 0
M  V30 5248 C 495.231 6.82775 0.175282 0
M  V30 5249 O 494.919 8.02922 -0.396432 0
M  V30 5250 H 494.651 0.6088 0.293834 0
M  V30 5251 H 497.205 2.03702 0.263552 0
M  V30 5252 H 495.435 2.75273 2.71591 0
M  V30 5253 H 497.124 3.14422 2.56697 0
M  V30 5254 H 497.89 4.79722 0.713582 0
M  V30 5255 H 493.769 4.24129 1.80653 0
M  V30 5256 H 497.313 6.96915 -0.30917 0
M  V30 5257 H 493.21 6.4065 0.789828 0
M  V30 5258 H 493.978 8.17989 -0.289145 0
M  V30 5259 N 496.642 -0.504142 1.49319 0
M  V30 5260 C 497.605 -1.5883 1.65244 0
M  V30 5261 C 498.605 -1.52009 0.524386 0
M  V30 5262 O 499.795 -1.55218 0.79077 0
M  V30 5263 C 496.927 -2.98481 1.64687 0
M  V30 5264 H 498.12 -1.4604 2.61939 0
M  V30 5265 H 495.673 -0.728144 1.38303 0
M  V30 5266 H 496.408 -3.16751 0.695644 0
M  V30 5267 H 496.193 -3.0484 2.46607 0
M  V30 5268 H 497.683 -3.77256 1.79075 0
M  V30 5269 N 498.12 -1.38341 -0.754957 0
M  V30 5270 C 499.366 -1.34672 -1.51628 0
M  V30 5271 C 499.699 0.0636036 -1.94096 0
M  V30 5272 O 498.974 1.0245 -1.6533 0
M  V30 5273 C 499.257 -2.30116 -2.76981 0
M  V30 5274 C 499.11 -3.80003 -2.4066 0
M  V30 5275 C 500.429 -2.23715 -3.78998 0
M  V30 5276 H 497.548 -0.490517 -0.550056 0
M  V30 5277 H 500.19 -1.69178 -0.864807 0
M  V30 5278 H 498.34 -2.00821 -3.3257 0
M  V30 5279 H 500.012 -4.19966 -1.90856 0
M  V30 5280 H 498.255 -3.97751 -1.73137 0
M  V30 5281 H 498.926 -4.42244 -3.30339 0
M  V30 5282 H 501.402 -2.49574 -3.32945 0
M  V30 5283 H 500.278 -2.9261 -4.64403 0
M  V30 5284 H 500.539 -1.23554 -4.24484 0
M  V30 5285 N 499.598 0.982988 -1.23187 0
M  V30 5286 C 500.508 2.10907 -1.02739 0
M  V30 5287 C 501.524 1.73979 0.0273188 0
M  V30 5288 O 502.7 2.00702 -0.16757 0
M  V30 5289 C 499.765 3.41142 -0.618304 0
M  V30 5290 C 498.826 3.92112 -1.74777 0
M  V30 5291 C 498.059 5.16131 -1.3581 0
M  V30 5292 O 498.282 5.6989 -0.241201 0
M  V30 5293 O 497.216 5.61103 -2.17824 0
M  V30 5294 H 501.042 2.31046 -1.97108 0
M  V30 5295 H 498.627 1.09284 -1.01869 0
M  V30 5296 H 500.509 4.19488 -0.400982 0
M  V30 5297 H 499.184 3.2234 0.296421 0
M  V30 5298 H 498.091 3.14895 -2.0197 0
M  V30 5299 H 499.424 4.15364 -2.64071 0
M  V30 5300 N 501.076 1.04316 1.18135 0
M  V30 5301 C 502.325 0.74319 1.87509 0
M  V30 5302 C 502.638 -0.732136 1.81381 0
M  V30 5303 O 503.844 -1.14572 2.46141 0
M  V30 5304 C 502.3 1.27913 3.36402 0
M  V30 5305 C 501.908 2.78326 3.51053 0
M  V30 5306 C 503.652 1.0558 4.11161 0
M  V30 5307 C 501.559 3.25266 4.93919 0
M  V30 5308 H 500.489 0.274313 0.702331 0
M  V30 5309 H 503.14 1.25931 1.33467 0
M  V30 5310 H 501.522 0.690853 3.89927 0
M  V30 5311 H 502.696 3.42933 3.07788 0
M  V30 5312 H 501.011 2.991 2.89704 0
M  V30 5313 H 503.608 1.38161 5.16542 0
M  V30 5314 H 503.951 -0.00684729 4.16299 0
M  V30 5315 H 504.484 1.60882 3.63816 0
M  V30 5316 H 501.223 4.30922 4.9395 0
M  V30 5317 H 500.743 2.65396 5.3789 0
M  V30 5318 H 502.422 3.19433 5.62647 0
M  V30 5319 N 502.554 -1.34406 0.822964 0
M  V30 5320 C 503.8 -1.98578 0.411666 0
M  V30 5321 C 504.133 -1.65093 -1.02264 0
M  V30 5322 O 503.408 -0.92258 -1.71227 0
M  V30 5323 C 503.691 -3.54823 0.614235 0
M  V30 5324 C 503.544 -3.9805 2.09466 0
M  V30 5325 C 504.863 -4.40071 0.050221 0
M  V30 5326 H 501.982 -0.721355 0.151047 0
M  V30 5327 H 504.624 -1.59301 1.03554 0
M  V30 5328 H 502.774 -3.88411 0.0831774 0
M  V30 5329 H 504.446 -3.74795 2.68936 0
M  V30 5330 H 502.689 -3.4836 2.5851 0
M  V30 5331 H 503.36 -5.06819 2.18721 0
M  V30 5332 H 505.836 -4.13037 0.503953 0
M  V30 5333 H 504.712 -5.48452 0.221759 0
M  V30 5334 H 504.973 -4.29576 -1.04482 0
M  V30 5335 N 504.032 -0.577932 -1.46621 0
M  V30 5336 C 505.28 -0.061566 -2.02006 0
M  V30 5337 C 505.601 1.30117 -1.4524 0
M  V30 5338 O 504.871 1.85313 -0.63529 0
M  V30 5339 H 503.451 -0.0197692 -0.746738 0
M  V30 5340 H 506.113 -0.752631 -1.79782 0
M  V30 5341 H 505.209 0.0110238 -3.12098 0
M  V30 5342 N 505.51 1.54411 -0.315457 0
M  V30 5343 C 506.758 2.00023 0.288971 0
M  V30 5344 C 507.079 1.20529 1.5329 0
M  V30 5345 O 506.349 0.304986 1.93511 0
M  V30 5346 H 504.929 0.738891 0.109766 0
M  V30 5347 H 507.591 1.90094 -0.430129 0
M  V30 5348 H 506.687 3.07198 0.550999 0
M  V30 5349 N 506.988 0.0434614 1.5754 0
M  V30 5350 C 507.951 -0.918696 2.09982 0
M  V30 5351 C 508.951 -1.24488 1.01781 0
M  V30 5352 O 510.141 -1.18284 1.27885 0
M  V30 5353 C 507.273 -2.23093 2.57764 0
M  V30 5354 H 508.466 -0.464229 2.96285 0
M  V30 5355 H 506.019 -0.204818 1.54952 0
M  V30 5356 H 506.754 -2.73137 1.74832 0
M  V30 5357 H 506.539 -2.00724 3.36827 0
M  V30 5358 H 508.029 -2.92028 2.98512 0
M  V30 5359 N 508.466 -1.55915 -0.229846 0
M  V30 5360 C 509.694 -1.82617 -0.972562 0
M  V30 5361 C 510.109 -0.621488 -1.78278 0
M  V30 5362 O 509.466 0.409956 -1.77836 0
M  V30 5363 C 509.517 -3.0774 -1.89679 0
M  V30 5364 O 509.238 -4.23559 -1.11934 0
M  V30 5365 C 510.739 -3.47368 -2.75409 0
M  V30 5366 H 507.959 -0.60727 -0.285419 0
M  V30 5367 H 510.503 -2.02996 -0.247579 0
M  V30 5368 H 508.658 -2.89361 -2.57583 0
M  V30 5369 H 509.072 -4.94586 -1.74599 0
M  V30 5370 H 510.546 -4.37977 -3.35977 0
M  V30 5371 H 511.023 -2.68737 -3.47386 0
M  V30 5372 H 511.629 -3.68158 -2.12931 0
M  V30 5373 N 509.944 0.496216 -1.49584 0
M  V30 5374 C 511.36 0.827814 -1.36453 0
M  V30 5375 C 511.56 1.97464 -0.401285 0
M  V30 5376 O 510.616 2.51958 0.165296 0
M  V30 5377 C 511.929 1.16352 -2.77277 0
M  V30 5378 C 513.477 1.27145 -2.86013 0
M  V30 5379 C 513.952 1.64042 -4.27615 0
M  V30 5380 N 515.443 1.71082 -4.30448 0
M  V30 5381 C 516.178 2.01085 -5.36984 0
M  V30 5382 N 515.674 2.2928 -6.5376 0
M  V30 5383 N 517.467 2.02376 -5.24405 0
M  V30 5384 H 509.618 -0.259947 -2.10803 0
M  V30 5385 H 511.881 -0.0537163 -0.946477 0
M  V30 5386 H 511.587 0.394153 -3.49484 0
M  V30 5387 H 511.461 2.10582 -3.12946 0
M  V30 5388 H 513.848 2.03152 -2.1404 0
M  V30 5389 H 513.929 0.309542 -2.5392 0
M  V30 5390 H 513.573 0.88583 -5.00115 0
M  V30 5391 H 513.503 2.6134 -4.57175 0
M  V30 5392 H 515.994 1.51434 -3.46232 0
M  V30 5393 H 516.307 2.51376 -7.30774 0
M  V30 5394 H 514.652 2.26726 -6.56978 0
M  V30 5395 H 517.843 1.79829 -4.32179 0
M  V30 5396 H 518.016 2.25425 -6.07526 0
M  V30 5397 N 511.423 1.38739 0.74761 0
M  V30 5398 C 512.672 1.3459 1.50228 0
M  V30 5399 C 512.985 -0.0595592 1.95509 0
M  V30 5400 O 514.191 -0.22361 2.70578 0
M  V30 5401 C 512.647 2.36377 2.71393 0
M  V30 5402 C 512.255 3.82573 2.33113 0
M  V30 5403 C 513.999 2.41281 3.49262 0
M  V30 5404 C 511.906 4.76032 3.50924 0
M  V30 5405 H 510.836 0.500312 0.564096 0
M  V30 5406 H 513.487 1.64324 0.8167 0
M  V30 5407 H 511.869 1.99694 3.41962 0
M  V30 5408 H 513.043 4.28227 1.70171 0
M  V30 5409 H 511.358 3.80844 1.68365 0
M  V30 5410 H 513.955 3.08301 4.36869 0
M  V30 5411 H 514.298 1.43353 3.9084 0
M  V30 5412 H 514.831 2.76793 2.85711 0
M  V30 5413 H 511.57 5.75177 3.14408 0
M  V30 5414 H 511.09 4.35066 4.12889 0
M  V30 5415 H 512.769 4.94331 4.17427 0
M  V30 5416 N 512.901 -0.976442 1.23707 0
M  V30 5417 C 514.312 -1.53284 1.06587 0
M  V30 5418 C 514.663 -1.92765 -0.365526 0
M  V30 5419 O 513.788 -1.7645 -1.25277 0
M  V30 5420 C 514.383 -2.78548 1.92864 0
M  V30 5421 C 512.942 -3.30574 1.79994 0
M  V30 5422 C 512.089 -2.03538 1.88328 0
M  V30 5423 H 515.04 -0.795692 1.37311 0
M  V30 5424 H 515.061 -3.5155 1.45577 0
M  V30 5425 H 514.573 -2.49782 2.97037 0
M  V30 5426 H 512.674 -3.64211 0.786202 0
M  V30 5427 H 512.787 -4.00065 2.636 0
M  V30 5428 H 511.151 -2.17853 1.31954 0
M  V30 5429 H 511.934 -1.77149 2.94063 0
M  V30 5430 N 514.379 -1.04941 -1.1758 0
M  V30 5431 C 515.342 -0.652456 -2.19717 0
M  V30 5432 C 516.342 0.294745 -1.58076 0
M  V30 5433 O 517.532 0.0789579 -1.74021 0
M  V30 5434 C 514.664 0.0420712 -3.40874 0
M  V30 5435 H 515.857 -1.55642 -2.5635 0
M  V30 5436 H 513.41 -0.842995 -1.31618 0
M  V30 5437 H 514.145 0.95943 -3.09783 0
M  V30 5438 H 513.93 -0.638844 -3.86861 0
M  V30 5439 H 515.42 0.306 -4.16477 0
M  V30 5440 N 515.857 1.33968 -0.830081 0
M  V30 5441 C 517.103 1.98357 -0.422191 0
M  V30 5442 C 517.436 1.65633 1.01387 0
M  V30 5443 O 516.711 0.931648 1.70735 0
M  V30 5444 C 516.994 3.54492 -0.633043 0
M  V30 5445 C 516.847 3.96934 -2.11574 0
M  V30 5446 C 518.166 4.40039 -0.0735584 0
M  V30 5447 H 515.285 0.720544 -0.154871 0
M  V30 5448 H 517.927 1.58749 -1.04397 0
M  V30 5449 H 516.077 3.88361 -0.103775 0
M  V30 5450 H 517.749 3.73363 -2.7092 0
M  V30 5451 H 515.992 3.46984 -2.60354 0
M  V30 5452 H 516.663 5.05651 -2.21406 0
M  V30 5453 H 519.139 4.12764 -0.52585 0
M  V30 5454 H 518.015 5.48327 -0.250841 0
M  V30 5455 H 518.276 4.30124 1.02202 0
M  V30 5456 N 517.335 0.585699 1.46312 0
M  V30 5457 C 518.282 -0.145835 2.30339 0
M  V30 5458 C 519.252 -0.881215 1.40797 0
M  V30 5459 O 520.437 -0.871293 1.69744 0
M  V30 5460 C 517.577 -1.15161 3.25318 0
M  V30 5461 C 516.69 -0.419367 4.2996 0
M  V30 5462 C 515.825 -1.41293 5.12064 0
M  V30 5463 C 514.864 -0.667261 6.08452 0
M  V30 5464 N 514.001 -1.60903 6.83414 0
M  V30 5465 H 518.841 0.576755 2.92365 0
M  V30 5466 H 516.378 0.296237 1.44086 0
M  V30 5467 H 518.336 -1.74763 3.78832 0
M  V30 5468 H 516.966 -1.84188 2.65094 0
M  V30 5469 H 516.018 0.291751 3.7928 0
M  V30 5470 H 517.33 0.163433 4.98532 0
M  V30 5471 H 516.484 -2.08167 5.6987 0
M  V30 5472 H 515.223 -2.02966 4.43459 0
M  V30 5473 H 514.228 0.0152356 5.49798 0
M  V30 5474 H 515.453 -0.0558817 6.79077 0
M  V30 5475 H 513.399 -2.21381 6.17516 0
M  V30 5476 H 513.316 -1.07911 7.48259 0
M  V30 5477 H 514.584 -2.26802 7.45775 0
M  V30 5478 N 518.813 -1.54241 0.323641 0
M  V30 5479 C 519.723 -2.28033 -0.551205 0
M  V30 5480 C 520.739 -1.32388 -1.12913 0
M  V30 5481 O 521.915 -1.65403 -1.14908 0
M  V30 5482 C 518.98 -3.02382 -1.69606 0
M  V30 5483 C 518.041 -4.13612 -1.14993 0
M  V30 5484 C 517.274 -4.84407 -2.24022 0
M  V30 5485 O 517.497 -4.54716 -3.44368 0
M  V30 5486 O 516.431 -5.71312 -1.89436 0
M  V30 5487 H 520.257 -3.03662 0.048066 0
M  V30 5488 H 517.842 -1.49133 0.0893289 0
M  V30 5489 H 519.724 -3.48941 -2.36259 0
M  V30 5490 H 518.399 -2.29628 -2.28151 0
M  V30 5491 H 517.306 -3.71402 -0.448484 0
M  V30 5492 H 518.639 -4.8841 -0.609608 0
M  V30 5493 N 520.291 -0.0518155 -1.57515 0
M  V30 5494 C 521.238 0.922352 -2.11569 0
M  V30 5495 C 522.208 1.30842 -1.02321 0
M  V30 5496 O 523.393 1.39778 -1.29872 0
M  V30 5497 C 520.533 2.19167 -2.6657 0
M  V30 5498 C 519.646 1.86003 -3.89906 0
M  V30 5499 C 518.781 3.07398 -4.33221 0
M  V30 5500 C 517.82 2.70158 -5.49255 0
M  V30 5501 N 516.957 3.84248 -5.8762 0
M  V30 5502 H 521.797 0.454506 -2.94514 0
M  V30 5503 H 519.334 0.212718 -1.45554 0
M  V30 5504 H 521.292 2.93443 -2.96559 0
M  V30 5505 H 519.922 2.63528 -1.86421 0
M  V30 5506 H 518.974 1.01874 -3.66505 0
M  V30 5507 H 520.286 1.54592 -4.74239 0
M  V30 5508 H 519.44 3.89972 -4.64765 0
M  V30 5509 H 518.179 3.41988 -3.477 0
M  V30 5510 H 517.184 1.86001 -5.17382 0
M  V30 5511 H 518.409 2.36759 -6.36492 0
M  V30 5512 H 516.355 4.18638 -5.05053 0
M  V30 5513 H 516.272 3.56538 -6.66646 0
M  V30 5514 H 517.54 4.6746 -6.2378 0
M  V30 5515 N 521.769 1.56035 0.221574 0
M  V30 5516 C 523.018 1.78245 0.944016 0
M  V30 5517 C 523.331 0.620371 1.85501 0
M  V30 5518 O 524.537 0.726103 2.6161 0
M  V30 5519 C 522.993 3.15659 1.7288 0
M  V30 5520 C 522.601 4.39591 0.863942 0
M  V30 5521 C 524.345 3.47195 2.44246 0
M  V30 5522 C 522.252 5.6803 1.64607 0
M  V30 5523 H 521.182 0.664547 0.356222 0
M  V30 5524 H 523.833 1.8243 0.197904 0
M  V30 5525 H 522.215 3.0565 2.51781 0
M  V30 5526 H 523.389 4.60655 0.115464 0
M  V30 5527 H 521.704 4.15572 0.262407 0
M  V30 5528 H 524.301 4.40381 3.03263 0
M  V30 5529 H 524.644 2.69693 3.1713 0
M  V30 5530 H 525.177 3.58533 1.72334 0
M  V30 5531 H 521.916 6.48425 0.960507 0
M  V30 5532 H 521.436 5.51027 2.36917 0
M  V30 5533 H 523.115 6.08203 2.20675 0
M  V30 5534 N 523.247 -0.488276 1.49845 0
M  V30 5535 C 524.472 -1.26997 1.63971 0
M  V30 5536 C 524.897 -1.85427 0.315994 0
M  V30 5537 O 524.255 -1.66475 -0.718032 0
M  V30 5538 C 524.303 -2.36689 2.72049 0
M  V30 5539 O 523.407 -3.40882 2.32107 0
M  V30 5540 H 522.748 -0.374376 0.548396 0
M  V30 5541 H 525.278 -0.583104 1.96115 0
M  V30 5542 H 525.288 -2.82262 2.94605 0
M  V30 5543 H 523.963 -1.93529 3.68129 0
M  V30 5544 H 522.54 -3.01139 2.19931 0
M  V30 5545 N 524.725 -1.39134 -0.740242 0
M  V30 5546 C 525.672 -1.37434 -1.8542 0
M  V30 5547 C 526.642 -0.234822 -1.64432 0
M  V30 5548 O 527.827 -0.429125 -1.85912 0
M  V30 5549 C 524.967 -1.21844 -3.22875 0
M  V30 5550 C 524.08 -2.45296 -3.55603 0
M  V30 5551 C 523.215 -2.22334 -4.82432 0
M  V30 5552 C 522.254 -3.41488 -5.07988 0
M  V30 5553 N 521.391 -3.17877 -6.26018 0
M  V30 5554 H 526.231 -2.3266 -1.86207 0
M  V30 5555 H 523.768 -1.15578 -0.909946 0
M  V30 5556 H 525.726 -1.10818 -4.02213 0
M  V30 5557 H 524.356 -0.3025 -3.21379 0
M  V30 5558 H 523.408 -2.66945 -2.71006 0
M  V30 5559 H 524.72 -3.34063 -3.7041 0
M  V30 5560 H 523.874 -2.0852 -5.69741 0
M  V30 5561 H 522.613 -1.30954 -4.6979 0
M  V30 5562 H 521.618 -3.55807 -4.19144 0
M  V30 5563 H 522.843 -4.33763 -5.22519 0
M  V30 5564 H 520.789 -2.29156 -6.14673 0
M  V30 5565 H 520.706 -4.00198 -6.41387 0
M  V30 5566 H 521.974 -3.07746 -7.16179 0
M  V30 5567 N 526.204 0.969867 -1.24223 0
M  V30 5568 C 527.451 1.71256 -1.08063 0
M  V30 5569 C 527.779 1.90734 0.380872 0
M  V30 5570 O 527.034 1.46469 1.29789 0
M  V30 5571 C 527.333 3.10883 -1.76314 0
M  V30 5572 C 526.999 3.11252 -3.26241 0
M  V30 5573 C 525.661 3.1106 -3.67144 0
M  V30 5574 C 528.013 3.05751 -4.22097 0
M  V30 5575 C 525.341 3.03097 -5.02344 0
M  V30 5576 C 527.693 2.9933 -5.57301 0
M  V30 5577 C 526.357 2.97466 -5.97554 0
M  V30 5578 H 525.627 0.62667 -0.395431 0
M  V30 5579 H 528.274 1.13422 -1.54297 0
M  V30 5580 H 526.579 3.72168 -1.22468 0
M  V30 5581 H 528.276 3.67138 -1.61277 0
M  V30 5582 H 524.866 3.12165 -2.93685 0
M  V30 5583 H 529.05 3.05031 -3.91497 0
M  V30 5584 H 524.306 3.00013 -5.32731 0
M  V30 5585 H 528.48 2.94033 -6.31283 0
M  V30 5586 H 526.107 2.91051 -7.02277 0
M  V30 5587 N 527.682 1.05563 1.17022 0
M  V30 5588 C 528.929 0.767937 1.87374 0
M  V30 5589 C 529.257 -0.705224 1.81265 0
M  V30 5590 O 528.512 -1.5318 1.21796 0
M  V30 5591 C 528.811 1.19849 3.36706 0
M  V30 5592 C 528.477 2.6745 3.63017 0
M  V30 5593 C 527.139 3.0777 3.69907 0
M  V30 5594 C 529.491 3.62811 3.74189 0
M  V30 5595 C 526.819 4.42307 3.85463 0
M  V30 5596 C 529.171 4.97087 3.91264 0
M  V30 5597 C 527.835 5.37055 3.96394 0
M  V30 5598 H 527.105 0.281008 0.68565 0
M  V30 5599 H 529.752 1.32339 1.38415 0
M  V30 5600 H 528.057 0.562096 3.87747 0
M  V30 5601 H 529.754 0.953038 3.8951 0
M  V30 5602 H 526.344 2.35228 3.58282 0
M  V30 5603 H 530.528 3.32798 3.68183 0
M  V30 5604 H 525.784 4.72769 3.87684 0
M  V30 5605 H 529.958 5.70869 3.9885 0
M  V30 5606 H 527.585 6.41308 4.082 0
M  V30 5607 N 529.16 -1.33526 0.837174 0
M  V30 5608 C 530.408 -1.97446 0.431211 0
M  V30 5609 C 530.729 -1.6665 -1.01255 0
M  V30 5610 O 529.999 -0.964559 -1.70508 0
M  V30 5611 H 528.579 -0.73043 0.156463 0
M  V30 5612 H 531.241 -1.62918 1.06976 0
M  V30 5613 H 530.337 -3.07001 0.561877 0
M  V30 5614 N 530.638 -0.59345 -1.46 0
M  V30 5615 C 531.585 0.133618 -2.30413 0
M  V30 5616 C 532.555 0.873736 -1.41262 0
M  V30 5617 O 533.74 0.862279 -1.70204 0
M  V30 5618 C 530.88 1.13434 -3.25924 0
M  V30 5619 C 529.993 0.39656 -4.30176 0
M  V30 5620 C 529.128 1.38575 -5.12806 0
M  V30 5621 C 528.167 0.634984 -6.08797 0
M  V30 5622 N 527.304 1.57276 -6.84258 0
M  V30 5623 H 532.144 -0.592252 -2.92055 0
M  V30 5624 H 529.681 -0.303874 -1.43927 0
M  V30 5625 H 531.639 1.72752 -3.79753 0
M  V30 5626 H 530.269 1.82779 -2.66067 0
M  V30 5627 H 529.321 -0.311861 -3.79119 0
M  V30 5628 H 530.633 -0.189869 -4.98438 0
M  V30 5629 H 529.787 2.05141 -5.70966 0
M  V30 5630 H 528.526 2.00611 -4.44529 0
M  V30 5631 H 527.531 -0.0443925 -5.49782 0
M  V30 5632 H 528.756 0.0198678 -6.79097 0
M  V30 5633 H 526.702 2.18103 -6.18682 0
M  V30 5634 H 526.619 1.03941 -7.48821 0
M  V30 5635 H 527.887 2.22844 -7.46968 0
M  V30 5636 N 532.116 1.54067 -0.331816 0
M  V30 5637 C 533.026 2.28322 0.539104 0
M  V30 5638 C 534.042 1.32985 1.1221 0
M  V30 5639 O 535.218 1.6601 1.1403 0
M  V30 5640 C 532.283 3.03277 1.68 0
M  V30 5641 C 531.344 4.14216 1.12798 0
M  V30 5642 C 530.577 4.85588 2.2145 0
M  V30 5643 O 530.8 4.56536 3.41952 0
M  V30 5644 O 529.734 5.72309 1.86404 0
M  V30 5645 H 533.56 3.03632 -0.0641692 0
M  V30 5646 H 531.145 1.49083 -0.0972365 0
M  V30 5647 H 533.027 3.50189 2.34405 0
M  V30 5648 H 531.702 2.30834 2.2693 0
M  V30 5649 H 530.609 3.71635 0.428782 0
M  V30 5650 H 531.942 4.88727 0.583698 0
M  V30 5651 N 533.594 0.0601682 1.57485 0
M  V30 5652 C 534.524 -0.90889 2.15085 0
M  V30 5653 C 535.505 -1.31838 1.07484 0
M  V30 5654 O 536.69 -1.3915 1.35466 0
M  V30 5655 C 533.82 -2.18059 2.7031 0
M  V30 5656 C 532.774 -1.91088 3.82974 0
M  V30 5657 C 532.1 -3.24789 4.24754 0
M  V30 5658 C 533.4 -1.22535 5.07723 0
M  V30 5659 H 535.094 -0.429093 2.96309 0
M  V30 5660 H 532.64 -0.204952 1.42534 0
M  V30 5661 H 534.593 -2.86258 3.09248 0
M  V30 5662 H 533.317 -2.6826 1.8629 0
M  V30 5663 H 531.976 -1.25297 3.44523 0
M  V30 5664 H 531.624 -3.72809 3.37672 0
M  V30 5665 H 531.324 -3.07538 5.00694 0
M  V30 5666 H 532.848 -3.94205 4.66299 0
M  V30 5667 H 534.262 -1.80783 5.4405 0
M  V30 5668 H 532.659 -1.1558 5.88864 0
M  V30 5669 H 533.729 -0.202692 4.84476 0
M  V30 5670 N 535.072 -1.5615 -0.213296 0
M  V30 5671 C 536.297 -1.83986 -0.957282 0
M  V30 5672 C 536.722 -0.641526 -1.76822 0
M  V30 5673 O 536.08 0.409722 -1.7661 0
M  V30 5674 C 536.128 -3.09889 -1.84393 0
M  V30 5675 O 535.232 -2.89163 -2.94038 0
M  V30 5676 H 534.573 -0.606357 -0.270605 0
M  V30 5677 H 537.103 -2.03369 -0.224111 0
M  V30 5678 H 537.113 -3.40209 -2.25215 0
M  V30 5679 H 535.788 -3.96735 -1.24795 0
M  V30 5680 H 534.365 -2.70097 -2.57103 0
M  V30 5681 N 536.55 0.480323 -1.50102 0
M  V30 5682 C 537.778 1.25657 -1.64371 0
M  V30 5683 C 538.193 1.86011 -0.323316 0
M  V30 5684 O 537.55 1.68803 0.693682 0
M  V30 5685 C 537.601 2.37197 -2.728 0
M  V30 5686 O 537.322 1.7932 -3.9972 0
M  V30 5687 C 538.823 3.2823 -2.9796 0
M  V30 5688 H 536.043 0.380369 -0.552775 0
M  V30 5689 H 538.587 0.574379 -1.96268 0
M  V30 5690 H 536.742 3.01208 -2.43623 0
M  V30 5691 H 537.156 2.52701 -4.59611 0
M  V30 5692 H 538.63 4.02725 -3.77513 0
M  V30 5693 H 539.107 3.86462 -2.08671 0
M  V30 5694 H 539.713 2.69964 -3.28633 0
M  V30 5695 N 538.028 1.39524 0.732853 0
M  V30 5696 C 539.256 1.40143 1.52209 0
M  V30 5697 C 539.671 -0.00348836 1.888 0
M  V30 5698 O 539.028 -0.975357 1.5425 0
M  V30 5699 C 539.079 2.27632 2.8083 0
M  V30 5700 O 538.8 3.62654 2.45792 0
M  V30 5701 C 540.301 2.36658 3.74844 0
M  V30 5702 H 537.521 0.478604 0.470297 0
M  V30 5703 H 540.065 1.83366 0.905388 0
M  V30 5704 H 538.22 1.87818 3.38826 0
M  V30 5705 H 538.634 4.08941 3.28431 0
M  V30 5706 H 540.108 3.02118 4.61984 0
M  V30 5707 H 540.585 1.38638 4.16745 0
M  V30 5708 H 541.191 2.76951 3.22766 0
M  V30 5709 N 539.506 -0.963266 1.24736 0
M  V30 5710 C 540.436 -2.07628 1.06832 0
M  V30 5711 C 541.417 -1.70088 -0.0200566 0
M  V30 5712 O 542.602 -1.93636 0.147854 0
M  V30 5713 C 539.732 -3.40636 0.677069 0
M  V30 5714 C 538.686 -3.9215 1.71471 0
M  V30 5715 C 538.012 -5.21553 1.1784 0
M  V30 5716 C 539.312 -4.19493 3.11164 0
M  V30 5717 H 541.006 -2.22864 1.9993 0
M  V30 5718 H 538.552 -1.07093 0.96266 0
M  V30 5719 H 540.505 -4.17941 0.538792 0
M  V30 5720 H 539.229 -3.25313 -0.289612 0
M  V30 5721 H 537.888 -3.17005 1.84128 0
M  V30 5722 H 537.536 -5.02593 0.202195 0
M  V30 5723 H 537.236 -5.56988 1.87185 0
M  V30 5724 H 538.76 -6.01463 1.05233 0
M  V30 5725 H 540.174 -4.87487 3.01711 0
M  V30 5726 H 538.571 -4.66165 3.77902 0
M  V30 5727 H 539.641 -3.26097 3.58871 0
M  V30 5728 N 540.985 -1.06182 -1.16461 0
M  V30 5729 C 541.933 -0.665716 -2.2287 0
M  V30 5730 C 542.927 0.317822 -1.66392 0
M  V30 5731 O 544.133 0.182807 -1.79069 0
M  V30 5732 H 540.508 -0.197148 -0.725697 0
M  V30 5733 H 542.479 -1.57307 -2.53569 0
M  V30 5734 C 541.228 -0.0669803 -3.47635 0
M  V30 5735 H 540.551 -0.814899 -3.91407 0
M  V30 5736 H 541.991 0.172669 -4.23648 0
M  V30 5737 C 540.45 1.18913 -3.15216 0
M  V30 5738 O 540.98 2.27723 -3.30916 0
M  V30 5739 N 539.186 1.09066 -2.69357 0
M  V30 5740 H 538.733 0.20518 -2.56782 0
M  V30 5741 H 538.691 1.93195 -2.48039 0
M  V30 5742 N 542.463 1.3308 -0.844243 0
M  V30 5743 C 543.426 2.27403 -0.286485 0
M  V30 5744 C 544.426 1.51179 0.547872 0
M  V30 5745 O 545.616 1.70421 0.360886 0
M  V30 5746 C 542.748 3.35653 0.595813 0
M  V30 5747 H 543.941 2.78248 -1.11885 0
M  V30 5748 H 541.494 1.43574 -0.617749 0
M  V30 5749 H 542.229 2.90058 1.4504 0
M  V30 5750 H 542.014 3.921 -0.00125994 0
M  V30 5751 H 543.504 4.05958 0.979168 0
M  V30 5752 N 543.941 0.601185 1.45683 0
M  V30 5753 C 545.218 0.0261659 1.95582 0
M  V30 5754 C 545.598 -1.4399 1.5437 0
M  V30 5755 O 544.946 -2.13919 0.80318 0
M  V30 5756 C 545.156 0.217557 3.48321 0
M  V30 5757 C 546.504 0.0950076 4.24494 0
M  V30 5758 O 547.528 0.147345 3.55895 0
M  V30 5759 O 546.387 -0.025261 5.46494 0
M  V30 5760 H 543.481 -0.0393688 0.826062 0
M  V30 5761 H 546.027 0.670798 1.55879 0
M  V30 5762 H 544.799 1.23601 3.71266 0
M  V30 5763 H 544.422 -0.46264 3.94899 0
M  V30 5764 N 545.419 -1.53889 0.339982 0
M  V30 5765 C 546.329 -2.28604 -0.526988 0
M  V30 5766 C 547.345 -1.33578 -1.11503 0
M  V30 5767 O 548.521 -1.66612 -1.13148 0
M  V30 5768 C 545.586 -3.04164 -1.66389 0
M  V30 5769 C 544.647 -4.14809 -1.10599 0
M  V30 5770 C 543.88 -4.86756 -2.18871 0
M  V30 5771 O 544.103 -4.58343 -3.39526 0
M  V30 5772 O 543.037 -5.73289 -1.83366 0
M  V30 5773 H 546.863 -3.03594 0.0802707 0
M  V30 5774 H 544.448 -1.4903 0.105141 0
M  V30 5775 H 546.33 -3.51427 -2.32544 0
M  V30 5776 H 545.005 -2.32035 -2.25703 0
M  V30 5777 H 543.912 -3.71857 -0.409067 0
M  V30 5778 H 545.245 -4.89029 -0.557771 0
M  V30 5779 N 546.897 -0.0685191 -1.57451 0
M  V30 5780 C 547.86 0.885173 -2.11417 0
M  V30 5781 C 548.86 1.22853 -1.03748 0
M  V30 5782 O 550.05 1.16235 -1.2975 0
M  V30 5783 C 547.182 2.18964 -2.61281 0
M  V30 5784 H 548.375 0.417034 -2.96986 0
M  V30 5785 H 545.928 0.18014 -1.55258 0
M  V30 5786 H 546.663 2.70321 -1.79156 0
M  V30 5787 H 546.448 1.9534 -3.39977 0
M  V30 5788 H 547.938 2.87242 -3.0312 0
M  V30 5789 N 548.375 1.56261 0.205012 0
M  V30 5790 C 549.621 1.80306 0.9283 0
M  V30 5791 C 549.954 0.640932 1.83319 0
M  V30 5792 O 549.229 -0.359032 1.91158 0
M  V30 5793 C 549.512 3.14547 1.75306 0
M  V30 5794 C 549.365 4.41236 0.873562 0
M  V30 5795 C 550.684 3.45382 2.72762 0
M  V30 5796 H 547.803 0.655929 0.336044 0
M  V30 5797 H 550.445 1.88984 0.196211 0
M  V30 5798 H 548.595 3.0728 2.37721 0
M  V30 5799 H 550.267 4.60539 0.264887 0
M  V30 5800 H 548.51 4.33427 0.179773 0
M  V30 5801 H 549.181 5.31639 1.48541 0
M  V30 5802 H 551.657 3.52884 2.20481 0
M  V30 5803 H 550.533 4.40449 3.2756 0
M  V30 5804 H 550.794 2.68377 3.51321 0
M  V30 5805 N 549.853 -0.472356 1.50355 0
M  V30 5806 C 551.081 -1.24784 1.65035 0
M  V30 5807 C 551.496 -1.85837 0.333176 0
M  V30 5808 O 550.853 -1.69168 -0.68472 0
M  V30 5809 C 550.904 -2.35747 2.74054 0
M  V30 5810 O 550.625 -1.77197 4.00665 0
M  V30 5811 C 552.126 -3.26645 2.99696 0
M  V30 5812 H 549.346 -0.377432 0.554785 0
M  V30 5813 H 551.89 -0.563962 1.9657 0
M  V30 5814 H 550.045 -2.99912 2.45217 0
M  V30 5815 H 550.459 -2.5026 4.60945 0
M  V30 5816 H 551.933 -4.00718 3.79644 0
M  V30 5817 H 552.41 -3.8535 2.10718 0
M  V30 5818 H 553.016 -2.68218 3.3006 0
M  V30 5819 N 551.331 -1.39911 -0.725443 0
M  V30 5820 C 552.747 -1.21725 -1.03224 0
M  V30 5821 C 552.947 -0.0855224 -2.01318 0
M  V30 5822 O 552.003 0.55976 -2.46217 0
M  V30 5823 C 553.316 -2.55511 -1.58539 0
M  V30 5824 C 554.864 -2.62439 -1.70572 0
M  V30 5825 C 555.339 -3.9647 -2.29294 0
M  V30 5826 N 556.83 -3.98159 -2.36692 0
M  V30 5827 C 557.565 -4.98647 -2.83088 0
M  V30 5828 N 557.061 -6.0953 -3.2931 0
M  V30 5829 N 558.854 -4.8602 -2.82384 0
M  V30 5830 H 551.005 -2.12267 -0.075048 0
M  V30 5831 H 553.268 -0.943136 -0.0959066 0
M  V30 5832 H 552.974 -3.38926 -0.939249 0
M  V30 5833 H 552.848 -2.75905 -2.57208 0
M  V30 5834 H 555.235 -1.79401 -2.34306 0
M  V30 5835 H 555.316 -2.45885 -0.705297 0
M  V30 5836 H 554.96 -4.79942 -1.66186 0
M  V30 5837 H 554.89 -4.10349 -3.30032 0
M  V30 5838 H 557.381 -3.18085 -2.04035 0
M  V30 5839 H 557.694 -6.82106 -3.6325 0
M  V30 5840 H 556.039 -6.1311 -3.27294 0
M  V30 5841 H 559.23 -3.98493 -2.45603 0
M  V30 5842 H 559.403 -5.64478 -3.18226 0
M  V30 5843 N 552.809 0.956637 -1.25245 0
M  V30 5844 C 554.057 1.69764 -1.09657 0
M  V30 5845 C 554.378 1.91583 0.363464 0
M  V30 5846 O 553.648 1.50149 1.25825 0
M  V30 5847 H 552.228 0.629097 -0.402798 0
M  V30 5848 H 554.89 1.15026 -1.57337 0
M  V30 5849 H 553.986 2.67769 -1.60331 0
M  V30 5850 N 554.287 1.06798 1.15896 0
M  V30 5851 C 555.527 0.797041 1.8822 0
M  V30 5852 C 555.891 -0.664549 1.80133 0
M  V30 5853 O 557.092 -1.0503 2.47431 0
M  V30 5854 C 555.363 1.28431 3.33527 0
M  V30 5855 S 556.922 1.14319 4.23647 0
M  V30 5856 H 553.74 0.288988 0.649621 0
M  V30 5857 H 556.342 1.36594 1.39865 0
M  V30 5858 H 555.046 2.34286 3.36954 0
M  V30 5859 H 554.577 0.710371 3.86933 0
M  V30 5860 H 556.592 0.0772467 4.9614 0
M  V30 5861 N 555.766 -1.3263 0.851289 0
M  V30 5862 C 556.729 -2.27247 0.298541 0
M  V30 5863 C 557.729 -1.51467 -0.539847 0
M  V30 5864 O 558.919 -1.7061 -0.351843 0
M  V30 5865 C 556.051 -3.35964 -0.578004 0
M  V30 5866 H 557.244 -2.7765 1.13359 0
M  V30 5867 H 554.797 -1.43245 0.625354 0
M  V30 5868 H 555.532 -2.90823 -1.435 0
M  V30 5869 H 555.317 -3.92094 0.0220539 0
M  V30 5870 H 556.807 -4.06472 -0.957626 0
M  V30 5871 N 557.244 -0.608902 -1.45362 0
M  V30 5872 C 558.174 0.0964526 -2.33301 0
M  V30 5873 C 559.155 0.857444 -1.46908 0
M  V30 5874 O 560.34 0.827735 -1.75676 0
M  V30 5875 C 557.47 1.09354 -3.29635 0
M  V30 5876 C 556.424 0.445676 -4.25673 0
M  V30 5877 C 555.75 1.5511 -5.11708 0
M  V30 5878 C 557.05 -0.633972 -5.18438 0
M  V30 5879 H 558.744 -0.637829 -2.92527 0
M  V30 5880 H 556.29 -0.308178 -1.40664 0
M  V30 5881 H 558.243 1.59556 -3.90025 0
M  V30 5882 H 556.967 1.85843 -2.6857 0
M  V30 5883 H 555.626 -0.0354897 -3.66583 0
M  V30 5884 H 555.274 2.30631 -4.4701 0
M  V30 5885 H 554.974 1.12311 -5.76767 0
M  V30 5886 H 556.498 2.05537 -5.74967 0
M  V30 5887 H 557.912 -0.215974 -5.72893 0
M  V30 5888 H 556.309 -0.983789 -5.91981 0
M  V30 5889 H 557.379 -1.51005 -4.60788 0
M  V30 5890 N 558.722 1.53707 -0.348139 0
M  V30 5891 C 559.654 2.22725 0.540946 0
M  V30 5892 C 560.667 1.2354 1.06027 0
M  V30 5893 O 561.856 1.49867 0.96964 0
M  V30 5894 C 558.956 2.89756 1.75768 0
M  V30 5895 C 558.129 4.15297 1.37285 0
M  V30 5896 C 557.188 4.65697 2.44976 0
M  V30 5897 O 556.214 5.29798 2.08092 0
M  V30 5898 N 557.416 4.42017 3.763 0
M  V30 5899 H 560.181 2.99658 -0.0501592 0
M  V30 5900 H 557.742 1.60979 -0.17248 0
M  V30 5901 H 559.734 3.20388 2.47252 0
M  V30 5902 H 558.304 2.16382 2.25605 0
M  V30 5903 H 557.524 3.9116 0.488584 0
M  V30 5904 H 558.812 4.96948 1.09179 0
M  V30 5905 H 558.21 3.9076 4.09051 0
M  V30 5906 H 556.767 4.77242 4.4394 0
M  V30 5907 N 560.2 0.0768682 1.57412 0
M  V30 5908 C 561.44 -0.594676 1.95558 0
M  V30 5909 C 561.804 -1.66469 0.956658 0
M  V30 5910 O 563.005 -2.39215 1.22595 0
M  V30 5911 C 561.276 -1.15206 3.38323 0
M  V30 5912 S 562.835 -1.83803 3.9845 0
M  V30 5913 H 559.653 -0.194579 0.683857 0
M  V30 5914 H 562.255 0.151933 1.94909 0
M  V30 5915 H 560.959 -0.36153 4.08805 0
M  V30 5916 H 560.49 -1.93491 3.42527 0
M  V30 5917 H 562.505 -3.12087 3.85767 0
M  V30 5918 N 561.678 -1.56367 -0.196722 0
M  V30 5919 C 562.641 -1.93561 -1.22746 0
M  V30 5920 C 563.641 -0.816566 -1.38524 0
M  V30 5921 O 564.831 -1.084 -1.36363 0
M  V30 5922 C 561.963 -2.20823 -2.59712 0
M  V30 5923 H 563.156 -2.85774 -0.909586 0
M  V30 5924 H 560.709 -1.50032 -0.438174 0
M  V30 5925 H 561.444 -1.31243 -2.96557 0
M  V30 5926 H 561.229 -3.02368 -2.49632 0
M  V30 5927 H 562.719 -2.50608 -3.34044 0
M  V30 5928 N 563.156 0.464375 -1.50603 0
M  V30 5929 C 564.405 1.21277 -1.61167 0
M  V30 5930 C 564.718 1.92953 -0.320704 0
M  V30 5931 O 565.924 2.69778 -0.30534 0
M  V30 5932 C 564.38 2.20403 -2.84518 0
M  V30 5933 C 563.988 1.54499 -4.20516 0
M  V30 5934 C 565.732 2.95843 -3.0443 0
M  V30 5935 C 563.639 2.51951 -5.35047 0
M  V30 5936 H 562.569 0.456367 -0.600204 0
M  V30 5937 H 565.22 0.48254 -1.77042 0
M  V30 5938 H 563.602 2.96746 -2.62217 0
M  V30 5939 H 564.776 0.83899 -4.53098 0
M  V30 5940 H 563.091 0.913152 -4.06264 0
M  V30 5941 H 565.688 3.6879 -3.87167 0
M  V30 5942 H 566.031 3.55622 -2.16423 0
M  V30 5943 H 566.564 2.26611 -3.26944 0
M  V30 5944 H 563.303 1.96901 -6.25228 0
M  V30 5945 H 562.823 3.20683 -5.06875 0
M  V30 5946 H 564.502 3.13643 -5.65895 0
M  V30 5947 N 564.634 1.40294 0.718013 0
M  V30 5948 C 565.564 1.43118 1.84498 0
M  V30 5949 C 566.545 0.292403 1.67568 0
M  V30 5950 O 567.73 0.500675 1.87635 0
M  V30 5951 C 564.86 1.29065 3.22427 0
M  V30 5952 C 563.814 2.40521 3.54025 0
M  V30 5953 C 563.14 2.11546 4.91073 0
M  V30 5954 C 564.44 3.82859 3.55269 0
M  V30 5955 H 566.134 2.37432 1.82391 0
M  V30 5956 H 563.68 1.14283 0.87609 0
M  V30 5957 H 565.633 1.29658 4.00957 0
M  V30 5958 H 564.357 0.312271 3.25104 0
M  V30 5959 H 563.016 2.39173 2.77834 0
M  V30 5960 H 562.664 1.12104 4.90348 0
M  V30 5961 H 562.364 2.86216 5.1318 0
M  V30 5962 H 563.888 2.13817 5.71939 0
M  V30 5963 H 565.302 3.86044 4.23843 0
M  V30 5964 H 563.699 4.57029 3.88902 0
M  V30 5965 H 564.769 4.12617 2.54706 0
M  V30 5966 N 566.112 -0.949982 1.2575 0
M  V30 5967 C 567.337 -1.73503 1.13628 0
M  V30 5968 C 567.762 -1.85601 -0.30559 0
M  V30 5969 O 567.12 -1.33984 -1.22139 0
M  V30 5970 C 567.168 -3.1243 1.80055 0
M  V30 5971 O 566.272 -3.97916 1.08336 0
M  V30 5972 H 565.613 -0.532665 0.396439 0
M  V30 5973 H 568.143 -1.19043 1.66403 0
M  V30 5974 H 568.153 -3.62866 1.86527 0
M  V30 5975 H 566.828 -3.02941 2.84956 0
M  V30 5976 H 565.405 -3.56375 1.09777 0
M  V30 5977 N 567.59 -1.07411 -1.15328 0
M  V30 5978 C 569.001 -0.820261 -1.67716 0
M  V30 5979 C 569.352 0.654539 -1.8496 0
M  V30 5980 O 568.477 1.50664 -1.55337 0
M  V30 5981 C 569.072 -1.48242 -3.04647 0
M  V30 5982 C 567.631 -1.27606 -3.5411 0
M  V30 5983 C 566.778 -1.5517 -2.29821 0
M  V30 5984 H 569.729 -1.23608 -0.995332 0
M  V30 5985 H 569.75 -0.903984 -3.69606 0
M  V30 5986 H 569.262 -2.55578 -2.92064 0
M  V30 5987 H 567.363 -0.222948 -3.71932 0
M  V30 5988 H 567.476 -1.99667 -4.35511 0
M  V30 5989 H 565.84 -0.972747 -2.35393 0
M  V30 5990 H 566.623 -2.63689 -2.19824 0
M  V30 5991 N 569.068 1.32177 -0.85831 0
M  V30 5992 C 570.031 2.27086 -0.310588 0
M  V30 5993 C 571.031 1.51751 0.531806 0
M  V30 5994 O 572.221 1.70794 0.34279 0
M  V30 5995 C 569.353 3.36266 0.560179 0
M  V30 5996 H 570.546 2.77045 -1.1483 0
M  V30 5997 H 568.099 1.42911 -0.632942 0
M  V30 5998 H 568.834 2.9158 1.41956 0
M  V30 5999 H 568.619 3.92077 -0.0428473 0
M  V30 6000 H 570.109 4.06974 0.936056 0
M  V30 6001 N 570.547 0.616602 1.45037 0
M  V30 6002 C 571.794 0.115331 2.02171 0
M  V30 6003 C 572.122 -1.25748 1.48383 0
M  V30 6004 O 571.377 -1.84511 0.652229 0
M  V30 6005 C 571.676 0.0356829 3.57382 0
M  V30 6006 C 571.342 1.34535 4.30362 0
M  V30 6007 C 570.004 1.70408 4.50016 0
M  V30 6008 C 572.356 2.21049 4.72003 0
M  V30 6009 C 569.684 2.92529 5.0857 0
M  V30 6010 C 572.036 3.42427 5.31908 0
M  V30 6011 C 570.7 3.78541 5.49784 0
M  V30 6012 H 569.97 0.0422024 0.739797 0
M  V30 6013 H 572.617 0.80002 1.73988 0
M  V30 6014 H 570.922 -0.732314 3.84895 0
M  V30 6015 H 572.619 -0.368463 3.99304 0
M  V30 6016 H 569.209 1.05615 4.15383 0
M  V30 6017 H 573.393 1.94632 4.56544 0
M  V30 6018 H 568.649 3.20605 5.20598 0
M  V30 6019 H 572.823 4.09709 5.63127 0
M  V30 6020 H 570.45 4.73255 5.94923 0
M  V30 6021 N 572.025 -1.5352 0.356285 0
M  V30 6022 C 572.972 -2.25439 -0.494569 0
M  V30 6023 C 573.942 -1.25752 -1.08516 0
M  V30 6024 O 575.127 -1.54513 -1.1194 0
M  V30 6025 C 572.267 -3.04011 -1.63313 0
M  V30 6026 C 571.38 -4.18574 -1.06862 0
M  V30 6027 C 570.515 -4.84607 -2.17552 0
M  V30 6028 C 569.554 -5.91218 -1.58518 0
M  V30 6029 N 568.691 -6.50979 -2.63003 0
M  V30 6030 H 573.531 -2.97737 0.125244 0
M  V30 6031 H 571.068 -1.46916 0.0735789 0
M  V30 6032 H 573.026 -3.47834 -2.30363 0
M  V30 6033 H 571.656 -2.33986 -2.22374 0
M  V30 6034 H 570.708 -3.79303 -0.288672 0
M  V30 6035 H 572.02 -4.95215 -0.596924 0
M  V30 6036 H 571.174 -5.31566 -2.92442 0
M  V30 6037 H 569.913 -4.07418 -2.6807 0
M  V30 6038 H 568.918 -5.4363 -0.821391 0
M  V30 6039 H 570.143 -6.70322 -1.08836 0
M  V30 6040 H 568.089 -5.76648 -3.12751 0
M  V30 6041 H 568.006 -7.23131 -2.20493 0
M  V30 6042 H 569.274 -7.02589 -3.37623 0
M  V30 6043 N 573.503 -0.0852151 -1.57369 0
M  V30 6044 C 574.749 0.581666 -1.94279 0
M  V30 6045 C 575.082 1.68444 -0.966446 0
M  V30 6046 O 574.357 1.945 0.00215277 0
M  V30 6047 C 574.64 1.14609 -3.41375 0
M  V30 6048 C 574.493 0.0490414 -4.49773 0
M  V30 6049 C 575.812 2.04751 -3.8957 0
M  V30 6050 H 572.931 0.209972 -0.706456 0
M  V30 6051 H 575.573 -0.153915 -1.89376 0
M  V30 6052 H 573.723 1.77297 -3.45685 0
M  V30 6053 H 575.395 -0.584721 -4.57579 0
M  V30 6054 H 573.638 -0.618638 -4.29366 0
M  V30 6055 H 574.309 0.484601 -5.49869 0
M  V30 6056 H 576.785 1.51981 -3.87351 0
M  V30 6057 H 575.661 2.41173 -4.93079 0
M  V30 6058 H 575.922 2.96107 -3.28288 0
M  V30 6059 N 574.981 1.5647 0.188427 0
M  V30 6060 C 576.397 1.50204 0.539532 0
M  V30 6061 C 576.597 0.78644 1.85519 0
M  V30 6062 O 575.653 0.339714 2.50204 0
M  V30 6063 C 576.966 2.94893 0.588103 0
M  V30 6064 C 578.514 3.05602 0.67648 0
M  V30 6065 C 578.989 4.51716 0.756101 0
M  V30 6066 N 580.48 4.55894 0.819451 0
M  V30 6067 C 581.215 5.66272 0.90134 0
M  V30 6068 N 580.711 6.86323 0.945118 0
M  V30 6069 N 582.504 5.54201 0.939043 0
M  V30 6070 H 574.655 2.01406 -0.674493 0
M  V30 6071 H 576.918 0.916828 -0.241103 0
M  V30 6072 H 576.624 3.50334 -0.309633 0
M  V30 6073 H 576.498 3.4861 1.44051 0
M  V30 6074 H 578.885 2.50206 1.56465 0
M  V30 6075 H 578.966 2.54999 -0.202262 0
M  V30 6076 H 578.61 5.07739 -0.12774 0
M  V30 6077 H 578.54 5.00058 1.65074 0
M  V30 6078 H 581.031 3.69452 0.794594 0
M  V30 6079 H 581.344 7.66194 1.0083 0
M  V30 6080 H 579.689 6.88968 0.913683 0
M  V30 6081 H 582.88 4.59333 0.901725 0
M  V30 6082 H 583.053 6.40247 0.999402 0
M  V30 6083 N 576.459 -0.456382 1.50847 0
M  V30 6084 C 577.369 -1.57805 1.73594 0
M  V30 6085 C 578.385 -1.62599 0.619476 0
M  V30 6086 O 579.561 -1.80195 0.899532 0
M  V30 6087 C 576.626 -2.93926 1.8387 0
M  V30 6088 C 575.687 -2.99402 3.07663 0
M  V30 6089 C 574.92 -4.29031 3.1744 0
M  V30 6090 O 575.143 -5.20358 2.33631 0
M  V30 6091 O 574.077 -4.40401 4.10281 0
M  V30 6092 H 577.903 -1.41531 2.68705 0
M  V30 6093 H 575.488 -0.637422 1.3512 0
M  V30 6094 H 577.37 -3.74747 1.92725 0
M  V30 6095 H 576.045 -3.10368 0.91944 0
M  V30 6096 H 574.952 -2.17606 3.043 0
M  V30 6097 H 576.285 -2.87901 3.99216 0
M  V30 6098 N 577.937 -1.40673 -0.710563 0
M  V30 6099 C 579.184 -1.39222 -1.47049 0
M  V30 6100 C 579.512 0.0037691 -1.945 0
M  V30 6101 O 578.767 0.989224 -1.68857 0
M  V30 6102 C 579.066 -2.33253 -2.70791 0
M  V30 6103 C 578.732 -3.80406 -2.42079 0
M  V30 6104 C 577.394 -4.20496 -2.33959 0
M  V30 6105 C 579.746 -4.73375 -2.18094 0
M  V30 6106 C 577.074 -5.51584 -1.99929 0
M  V30 6107 C 579.426 -6.04768 -1.85576 0
M  V30 6108 C 578.09 -6.43895 -1.75941 0
M  V30 6109 H 577.36 -0.509449 -0.538092 0
M  V30 6110 H 580.007 -1.73363 -0.81348 0
M  V30 6111 H 578.312 -1.92314 -3.41354 0
M  V30 6112 H 580.009 -2.29412 -3.28894 0
M  V30 6113 H 576.599 -3.48645 -2.49288 0
M  V30 6114 H 580.783 -4.43217 -2.23321 0
M  V30 6115 H 576.039 -5.80797 -1.91011 0
M  V30 6116 H 580.213 -6.76318 -1.66033 0
M  V30 6117 H 577.84 -7.45387 -1.4934 0
M  V30 6118 N 579.415 0.9433 -1.26252 0
M  V30 6119 C 580.64 1.72898 -1.14547 0
M  V30 6120 C 581.065 1.85761 0.295743 0
M  V30 6121 O 580.423 1.3463 1.21427 0
M  V30 6122 C 580.471 3.11471 -1.8171 0
M  V30 6123 O 579.575 3.97336 -1.10445 0
M  V30 6124 H 578.916 0.530555 -0.399259 0
M  V30 6125 H 581.446 1.18159 -1.67032 0
M  V30 6126 H 581.456 3.61872 -1.88449 0
M  V30 6127 H 580.131 3.01425 -2.86558 0
M  V30 6128 H 578.708 3.55788 -1.11666 0
M  V30 6129 N 580.893 1.08022 1.14757 0
M  V30 6130 C 582.142 0.802468 1.8505 0
M  V30 6131 C 582.455 -0.674061 1.83619 0
M  V30 6132 O 583.661 -1.06683 2.49662 0
M  V30 6133 C 582.117 1.38551 3.32162 0
M  V30 6134 C 581.725 2.89354 3.42021 0
M  V30 6135 C 583.469 1.18608 4.07594 0
M  V30 6136 C 581.376 3.40815 4.83321 0
M  V30 6137 H 580.306 0.296518 0.693248 0
M  V30 6138 H 582.957 1.30114 1.29393 0
M  V30 6139 H 581.339 0.814556 3.87532 0
M  V30 6140 H 582.513 3.52552 2.96722 0
M  V30 6141 H 580.828 3.08165 2.80041 0
M  V30 6142 H 583.425 1.54525 5.11885 0
M  V30 6143 H 583.768 0.125599 4.1611 0
M  V30 6144 H 584.301 1.72375 3.58513 0
M  V30 6145 H 581.04 4.46418 4.79991 0
M  V30 6146 H 580.56 2.82374 5.29174 0
M  V30 6147 H 582.239 3.37171 5.522 0
M  V30 6148 N 582.371 -1.3172 0.865308 0
M  V30 6149 C 583.599 -2.01057 0.488251 0
M  V30 6150 C 584.014 -1.64979 -0.918 0
M  V30 6151 O 583.371 -0.876597 -1.60069 0
M  V30 6152 C 583.422 -3.55964 0.630224 0
M  V30 6153 O 583.143 -3.90749 1.98109 0
M  V30 6154 C 584.644 -4.42574 0.253567 0
M  V30 6155 H 581.864 -0.64332 0.190736 0
M  V30 6156 H 584.408 -1.68058 1.16519 0
M  V30 6157 H 582.563 -3.874 0.000895422 0
M  V30 6158 H 582.977 -4.85467 1.9855 0
M  V30 6159 H 584.451 -5.50521 0.403875 0
M  V30 6160 H 584.928 -4.31724 -0.806895 0
M  V30 6161 H 585.534 -4.16547 0.858404 0
M  V30 6162 N 583.85 -0.624285 -1.44708 0
M  V30 6163 C 585.127 -0.0572781 -1.95516 0
M  V30 6164 C 585.507 1.41516 -1.56641 0
M  V30 6165 O 584.855 2.12614 -0.837111 0
M  V30 6166 C 585.065 -0.272944 -3.47931 0
M  V30 6167 C 586.413 -0.162529 -4.24289 0
M  V30 6168 O 587.437 -0.203946 -3.55616 0
M  V30 6169 O 586.296 -0.0616847 -5.46465 0
M  V30 6170 H 583.389 0.0262219 -0.826584 0
M  V30 6171 H 585.936 -0.695512 -1.54793 0
M  V30 6172 H 584.707 -1.29492 -3.69253 0
M  V30 6173 H 584.331 0.399756 -3.95585 0
M  V30 6174 N 585.328 1.53329 -0.364422 0
M  V30 6175 C 586.574 2.01537 0.225969 0
M  V30 6176 C 586.907 1.25128 1.48515 0
M  V30 6177 O 586.182 0.344653 1.91422 0
M  V30 6178 C 586.465 3.56339 0.519092 0
M  V30 6179 C 586.318 4.43441 -0.753639 0
M  V30 6180 C 587.637 4.19833 1.32015 0
M  V30 6181 H 584.756 0.732573 0.0806548 0
M  V30 6182 H 587.398 1.83597 -0.489084 0
M  V30 6183 H 585.548 3.71756 1.12825 0
M  V30 6184 H 587.22 4.39823 -1.39116 0
M  V30 6185 H 585.463 4.11457 -1.37424 0
M  V30 6186 H 586.134 5.49699 -0.503517 0
M  V30 6187 H 588.61 4.08242 0.804859 0
M  V30 6188 H 587.486 5.28177 1.49399 0
M  V30 6189 H 587.747 3.75821 2.32832 0
M  V30 6190 N 586.806 0.0935595 1.57322 0
M  V30 6191 C 588.052 -0.571355 1.94585 0
M  V30 6192 C 588.385 -1.67929 0.975366 0
M  V30 6193 O 587.66 -1.94498 0.00816206 0
M  V30 6194 C 587.943 -1.12797 3.41978 0
M  V30 6195 C 587.796 -0.0251881 4.49793 0
M  V30 6196 C 589.115 -2.02682 3.90651 0
M  V30 6197 H 586.234 -0.206223 0.70756 0
M  V30 6198 H 588.876 0.163956 1.89291 0
M  V30 6199 H 587.026 -1.75461 3.4662 0
M  V30 6200 H 588.698 0.608979 4.57263 0
M  V30 6201 H 586.941 0.641399 4.29032 0
M  V30 6202 H 587.612 -0.455433 5.50118 0
M  V30 6203 H 590.088 -1.49925 3.88152 0
M  V30 6204 H 588.964 -2.38555 4.94351 0
M  V30 6205 H 589.225 -2.94362 3.29854 0
M  V30 6206 N 588.284 -1.56567 -0.180126 0
M  V30 6207 C 589.695 -1.7126 -0.743422 0
M  V30 6208 C 590.046 -0.70263 -1.83187 0
M  V30 6209 O 589.171 0.137856 -2.1596 0
M  V30 6210 C 589.766 -3.10512 -1.35528 0
M  V30 6211 C 588.325 -3.26919 -1.8655 0
M  V30 6212 C 587.472 -2.67213 -0.741099 0
M  V30 6213 H 590.423 -1.58636 0.0451543 0
M  V30 6214 H 590.444 -3.08673 -2.22489 0
M  V30 6215 H 589.956 -3.83997 -0.562862 0
M  V30 6216 H 588.057 -2.58376 -2.68464 0
M  V30 6217 H 588.17 -4.34574 -2.01699 0
M  V30 6218 H 586.534 -2.26788 -1.15927 0
M  V30 6219 H 587.317 -3.43277 0.0393291 0
M  V30 6220 N 589.762 0.448376 -1.51087 0
M  V30 6221 C 590.992 1.21965 -1.66757 0
M  V30 6222 C 591.4 1.85748 -0.359753 0
M  V30 6223 O 590.743 1.71022 0.670604 0
M  V30 6224 C 590.805 2.35284 -2.71812 0
M  V30 6225 C 590.469 1.91957 -4.1473 0
M  V30 6226 C 591.466 1.42921 -4.9987 0
M  V30 6227 C 589.151 1.99985 -4.60772 0
M  V30 6228 C 591.145 1.02485 -6.29107 0
M  V30 6229 C 588.832 1.5916 -5.90009 0
M  V30 6230 C 589.83 1.10491 -6.74004 0
M  V30 6231 O 589.518 0.702413 -8.00825 0
M  V30 6232 H 589.25 0.374125 -0.563034 0
M  V30 6233 H 591.804 0.538927 -1.98204 0
M  V30 6234 H 590.034 3.06599 -2.35657 0
M  V30 6235 H 591.723 2.97184 -2.76472 0
M  V30 6236 H 592.489 1.36123 -4.65506 0
M  V30 6237 H 588.368 2.36814 -3.95525 0
M  V30 6238 H 591.912 0.644271 -6.94619 0
M  V30 6239 H 587.809 1.65626 -6.2389 0
M  V30 6240 H 588.577 0.829248 -8.14288 0
M  V30 6241 N 591.24 1.41047 0.703093 0
M  V30 6242 C 592.651 1.35657 1.28274 0
M  V30 6243 C 593.002 0.0360309 1.96167 0
M  V30 6244 O 592.127 -0.865833 1.98324 0
M  V30 6245 C 592.722 2.45707 2.33267 0
M  V30 6246 C 591.281 2.43738 2.86825 0
M  V30 6247 C 590.428 2.25941 1.60767 0
M  V30 6248 H 593.379 1.50672 0.49836 0
M  V30 6249 H 593.4 2.14333 3.14391 0
M  V30 6250 H 592.912 3.41805 1.83824 0
M  V30 6251 H 591.013 1.51375 3.40465 0
M  V30 6252 H 591.126 3.39779 3.37768 0
M  V30 6253 H 589.49 1.73681 1.86298 0
M  V30 6254 H 590.273 3.24054 1.1333 0
M  V30 6255 N 592.718 -0.936591 1.26751 0
M  V30 6256 C 593.967 -1.67778 1.11953 0
M  V30 6257 C 594.28 -1.92694 -0.33589 0
M  V30 6258 O 595.486 -2.64682 -0.604618 0
M  V30 6259 C 593.942 -3.02138 1.95551 0
M  V30 6260 C 593.55 -2.84953 3.45696 0
M  V30 6261 C 595.294 -3.79917 1.89377 0
M  V30 6262 C 593.201 -4.14814 4.21525 0
M  V30 6263 H 592.131 -0.629275 0.415366 0
M  V30 6264 H 594.782 -1.04122 1.51099 0
M  V30 6265 H 593.164 -3.668 1.49243 0
M  V30 6266 H 594.338 -2.29112 3.99805 0
M  V30 6267 H 592.653 -2.20612 3.53156 0
M  V30 6268 H 595.25 -4.76134 2.43312 0
M  V30 6269 H 595.593 -4.07204 0.865464 0
M  V30 6270 H 596.126 -3.22037 2.33532 0
M  V30 6271 H 592.865 -3.92709 5.24843 0
M  V30 6272 H 592.385 -4.70352 3.72195 0
M  V30 6273 H 594.064 -4.83239 4.3022 0
M  V30 6274 N 594.196 -1.08629 -1.14182 0
M  V30 6275 C 595.421 -0.83902 -1.89671 0
M  V30 6276 C 595.846 0.603332 -1.78161 0
M  V30 6277 O 595.204 1.42301 -1.12339 0
M  V30 6278 C 595.252 -1.26854 -3.37551 0
M  V30 6279 O 594.356 -0.42188 -4.10236 0
M  V30 6280 H 593.697 -0.304545 -0.590041 0
M  V30 6281 H 596.227 -1.4483 -1.44518 0
M  V30 6282 H 596.237 -1.25038 -3.88368 0
M  V30 6283 H 594.912 -2.31901 -3.45246 0
M  V30 6284 H 593.489 -0.503654 -3.69483 0
M  V30 6285 N 595.674 1.31259 -0.872281 0
M  V30 6286 C 596.604 2.30929 -0.345554 0
M  V30 6287 C 597.585 1.60449 0.5648 0
M  V30 6288 O 598.77 1.8814 0.481335 0
M  V30 6289 C 595.9 3.44348 0.451823 0
M  V30 6290 C 594.854 4.26435 -0.365641 0
M  V30 6291 C 594.18 5.31785 0.557562 0
M  V30 6292 C 595.48 4.97159 -1.60095 0
M  V30 6293 H 597.174 2.75234 -1.17841 0
M  V30 6294 H 594.72 1.3232 -0.568094 0
M  V30 6295 H 596.673 4.13128 0.830854 0
M  V30 6296 H 595.397 2.98816 1.31821 0
M  V30 6297 H 594.056 3.59326 -0.726649 0
M  V30 6298 H 593.704 4.82502 1.4213 0
M  V30 6299 H 593.404 5.87598 0.0144878 0
M  V30 6300 H 594.928 6.03424 0.933387 0
M  V30 6301 H 596.342 5.58523 -1.29323 0
M  V30 6302 H 594.739 5.62779 -2.08327 0
M  V30 6303 H 595.809 4.24012 -2.35249 0
M  V30 6304 N 597.152 0.631951 1.44375 0
M  V30 6305 C 598.568 0.297642 1.568 0
M  V30 6306 C 598.768 -1.19916 1.61934 0
M  V30 6307 O 597.824 -1.98324 1.56281 0
M  V30 6308 C 599.137 0.990286 2.83926 0
M  V30 6309 C 600.685 0.968507 2.97639 0
M  V30 6310 C 601.16 1.64163 4.27568 0
M  V30 6311 N 602.651 1.60826 4.34384 0
M  V30 6312 C 603.386 2.09802 5.33639 0
M  V30 6313 N 602.882 2.66973 6.39294 0
M  V30 6314 N 604.675 2.00426 5.25153 0
M  V30 6315 H 596.826 1.60353 1.39286 0
M  V30 6316 H 599.089 0.673142 0.667521 0
M  V30 6317 H 598.795 2.04519 2.8612 0
M  V30 6318 H 598.669 0.528563 3.73478 0
M  V30 6319 H 601.056 -0.0779247 2.94997 0
M  V30 6320 H 601.137 1.46873 2.09433 0
M  V30 6321 H 600.781 2.68752 4.3097 0
M  V30 6322 H 600.711 1.11624 5.14634 0
M  V30 6323 H 603.202 1.19087 3.58646 0
M  V30 6324 H 603.515 3.02074 7.11316 0
M  V30 6325 H 601.86 2.71024 6.39977 0
M  V30 6326 H 605.051 1.55483 4.41523 0
M  V30 6327 H 605.224 2.38906 6.02352 0
M  V30 6328 N 598.631 -1.53133 0.372548 0
M  V30 6329 C 599.877 -2.02336 -0.207823 0
M  V30 6330 C 600.232 -1.25477 -1.45853 0
M  V30 6331 O 599.525 -0.341971 -1.88524 0
M  V30 6332 C 599.719 -3.53206 -0.545938 0
M  V30 6333 C 599.548 -4.44674 0.670454 0
M  V30 6334 C 598.318 -4.91217 1.18465 0
M  V30 6335 C 600.516 -4.90772 1.53777 0
M  V30 6336 N 598.498 -5.66711 2.36034 0
M  V30 6337 C 599.869 -5.64678 2.56004 0
M  V30 6338 C 601.924 -4.72836 1.55983 0
M  V30 6339 C 600.627 -6.22555 3.60303 0
M  V30 6340 C 602.653 -5.31583 2.59179 0
M  V30 6341 C 602.015 -6.05381 3.6013 0
M  V30 6342 H 598.114 -0.781048 -0.0385783 0
M  V30 6343 H 600.698 -1.87665 0.518664 0
M  V30 6344 H 598.869 -3.68024 -1.24149 0
M  V30 6345 H 600.601 -3.89123 -1.112 0
M  V30 6346 H 597.356 -4.67652 0.748205 0
M  V30 6347 H 597.78 -6.09117 2.95475 0
M  V30 6348 H 602.422 -4.15299 0.792877 0
M  V30 6349 H 600.14 -6.79183 4.37876 0
M  V30 6350 H 603.726 -5.19595 2.61749 0
M  V30 6351 H 602.606 -6.50028 4.38672 0
M  V30 6352 N 600.109 -0.101901 -1.5727 0
M  V30 6353 C 601.057 0.872034 -2.15635 0
M  V30 6354 C 602.051 1.28742 -1.10099 0
M  V30 6355 O 603.257 1.26116 -1.28432 0
M  V30 6356 H 599.632 0.299269 -0.689886 0
M  V30 6357 H 601.603 0.355137 -2.96279 0
M  V30 6358 C 600.352 2.11886 -2.7568 0
M  V30 6359 H 599.675 1.80813 -3.56576 0
M  V30 6360 H 601.115 2.78077 -3.20077 0
M  V30 6361 C 599.574 2.89739 -1.7191 0
M  V30 6362 O 600.104 3.84522 -1.16213 0
M  V30 6363 N 598.31 2.53407 -1.42245 0
M  V30 6364 H 597.857 1.76398 -1.87727 0
M  V30 6365 H 597.815 3.05795 -0.730529 0
M  V30 6366 N 601.587 1.56661 0.17182 0
M  V30 6367 C 602.812 1.86459 0.908165 0
M  V30 6368 C 603.237 0.688181 1.75059 0
M  V30 6369 O 602.595 -0.362753 1.77634 0
M  V30 6370 C 602.643 3.14669 1.76112 0
M  V30 6371 O 601.747 2.96858 2.86268 0
M  V30 6372 H 601.088 0.613318 0.254434 0
M  V30 6373 H 603.618 2.03892 0.170113 0
M  V30 6374 H 603.628 3.46061 2.16115 0
M  V30 6375 H 602.303 3.99905 1.14233 0
M  V30 6376 H 600.88 2.76819 2.49852 0
M  V30 6377 N 603.065 -0.440357 1.51323 0
M  V30 6378 C 604.476 -1.02032 1.56353 0
M  V30 6379 C 604.827 -1.92382 0.385197 0
M  V30 6380 O 603.952 -2.10583 -0.498373 0
M  V30 6381 C 604.547 -1.85723 2.83359 0
M  V30 6382 C 603.106 -2.38774 2.90971 0
M  V30 6383 C 602.253 -1.17908 2.50984 0
M  V30 6384 H 605.204 -0.221744 1.57143 0
M  V30 6385 H 605.225 -2.71141 2.66951 0
M  V30 6386 H 604.737 -1.19939 3.69102 0
M  V30 6387 H 602.838 -3.08021 2.09651 0
M  V30 6388 H 602.951 -2.71778 3.94555 0
M  V30 6389 H 601.315 -1.52347 2.04114 0
M  V30 6390 H 602.098 -0.537393 3.39068 0
M  V30 6391 N 604.543 -1.41418 -0.695603 0
M  V30 6392 C 605.506 -1.42988 -1.79129 0
M  V30 6393 C 606.506 -0.320514 -1.57573 0
M  V30 6394 O 607.696 -0.58039 -1.64247 0
M  V30 6395 C 604.828 -1.24122 -3.175 0
M  V30 6396 H 606.021 -2.40526 -1.7913 0
M  V30 6397 H 603.574 -1.2756 -0.903225 0
M  V30 6398 H 604.309 -0.274253 -3.23138 0
M  V30 6399 H 604.094 -2.045 -3.34547 0
M  V30 6400 H 605.584 -1.28056 -3.97481 0
M  V30 6401 N 606.021 0.929856 -1.27246 0
M  V30 6402 C 606.931 2.0636 -1.11592 0
M  V30 6403 C 607.947 1.73938 -0.046496 0
M  V30 6404 O 609.123 1.9981 -0.252544 0
M  V30 6405 C 606.188 3.38213 -0.762437 0
M  V30 6406 C 605.249 3.84346 -1.9125 0
M  V30 6407 C 604.482 5.09906 -1.57579 0
M  V30 6408 O 604.705 5.68354 -0.482694 0
M  V30 6409 O 603.639 5.51359 -2.41426 0
M  V30 6410 H 607.465 2.22478 -2.0673 0
M  V30 6411 H 605.05 1.04865 -1.06413 0
M  V30 6412 H 606.932 4.1741 -0.57854 0
M  V30 6413 H 605.607 3.23307 0.159439 0
M  V30 6414 H 604.514 3.06045 -2.15144 0
M  V30 6415 H 605.847 4.0379 -2.81451 0
M  V30 6416 N 607.499 1.09233 1.13605 0
M  V30 6417 C 608.409 0.741939 2.22559 0
M  V30 6418 C 609.425 -0.255236 1.72118 0
M  V30 6419 O 610.601 -0.0970747 2.01166 0
M  V30 6420 C 607.666 0.165595 3.46304 0
M  V30 6421 C 606.727 1.21846 4.11645 0
M  V30 6422 C 605.96 0.669526 5.29484 0
M  V30 6423 O 606.183 -0.508228 5.68131 0
M  V30 6424 O 605.117 1.42361 5.84822 0
M  V30 6425 H 608.943 1.65107 2.54899 0
M  V30 6426 H 606.528 0.866584 1.21699 0
M  V30 6427 H 608.41 -0.152592 4.21124 0
M  V30 6428 H 607.085 -0.716573 3.15669 0
M  V30 6429 H 605.992 1.58931 3.38662 0
M  V30 6430 H 607.325 2.07321 4.46407 0
M  V30 6431 N 608.977 -1.30795 0.87923 0
M  V30 6432 C 610.225 -1.95974 0.493809 0
M  V30 6433 C 610.546 -1.69787 -0.959021 0
M  V30 6434 O 609.816 -1.01832 -1.67353 0
M  V30 6435 H 608.396 -0.725083 0.179622 0
M  V30 6436 H 611.058 -1.59432 1.12105 0
M  V30 6437 H 610.154 -3.05058 0.659263 0
M  V30 6438 N 610.455 -0.639598 -1.44038 0
M  V30 6439 C 611.68 -0.153117 -2.06834 0
M  V30 6440 C 612.105 1.16676 -1.47541 0
M  V30 6441 O 611.463 1.71769 -0.580093 0
M  V30 6442 C 611.511 -0.0609169 -3.60549 0
M  V30 6443 O 610.615 0.98071 -4.00569 0
M  V30 6444 H 609.956 -0.0886402 -0.658057 0
M  V30 6445 H 612.486 -0.878674 -1.84771 0
M  V30 6446 H 612.496 0.126892 -4.07803 0
M  V30 6447 H 611.171 -1.0245 -4.03084 0
M  V30 6448 H 609.748 0.766789 -3.64931 0
M  V30 6449 N 611.933 1.52934 -0.380664 0
M  V30 6450 C 613.158 2.06363 0.207157 0
M  V30 6451 C 613.583 1.25122 1.4045 0
M  V30 6452 O 612.941 0.274062 1.79217 0
M  V30 6453 C 612.989 3.56162 0.563996 0
M  V30 6454 O 612.093 3.77552 1.65917 0
M  V30 6455 H 611.434 0.663468 0.0265859 0
M  V30 6456 H 613.964 1.9719 -0.545635 0
M  V30 6457 H 613.974 3.99453 0.830752 0
M  V30 6458 H 612.649 4.14732 -0.311427 0
M  V30 6459 H 611.226 3.46154 1.3868 0
M  V30 6460 N 613.412 0.11024 1.57214 0
M  V30 6461 C 614.689 -0.592956 1.86396 0
M  V30 6462 C 615.069 -1.85379 1.00985 0
M  V30 6463 O 614.417 -2.28337 0.0863592 0
M  V30 6464 C 614.627 -0.893816 3.3736 0
M  V30 6465 C 615.975 -1.25069 4.05762 0
M  V30 6466 O 616.999 -0.984356 3.42329 0
M  V30 6467 O 615.858 -1.75017 5.17718 0
M  V30 6468 H 612.952 -0.29828 0.771335 0
M  V30 6469 H 615.498 0.144083 1.69087 0
M  V30 6470 H 614.27 2.6031e-05 3.913 0
M  V30 6471 H 613.893 -1.68631 3.60068 0
M  V30 6472 N 614.89 -1.56749 -0.16351 0
M  V30 6473 C 616.13 -1.84234 -0.885271 0
M  V30 6474 C 616.494 -0.692259 -1.79086 0
M  V30 6475 O 617.695 -0.847747 -2.55082 0
M  V30 6476 C 615.966 -3.16857 -1.65337 0
M  V30 6477 S 617.525 -3.65848 -2.42282 0
M  V30 6478 H 614.343 -0.646293 -0.296354 0
M  V30 6479 H 616.945 -1.94951 -0.146365 0
M  V30 6480 H 615.649 -3.98546 -0.979266 0
M  V30 6481 H 615.18 -3.09102 -2.4335 0
M  V30 6482 H 617.195 -3.33796 -3.67143 0
M  V30 6483 N 616.368 0.432326 -1.51554 0
M  V30 6484 C 617.278 1.55023 -1.76082 0
M  V30 6485 C 618.294 1.61593 -0.645265 0
M  V30 6486 O 619.47 1.78742 -0.928086 0
M  V30 6487 C 616.535 2.90964 -1.88523 0
M  V30 6488 C 615.596 2.9447 -3.12388 0
M  V30 6489 C 614.829 4.23926 -3.24225 0
M  V30 6490 O 615.052 5.16576 -2.4188 0
M  V30 6491 O 613.986 4.33818 -4.17235 0
M  V30 6492 H 617.812 1.37238 -2.70923 0
M  V30 6493 H 615.397 0.615845 -1.36117 0
M  V30 6494 H 617.279 3.71633 -1.98662 0
M  V30 6495 H 615.954 3.08865 -0.9687 0
M  V30 6496 H 614.861 2.12737 -3.07723 0
M  V30 6497 H 616.194 2.81514 -4.03746 0
M  V30 6498 N 617.846 1.41785 0.688094 0
M  V30 6499 C 619.092 1.41753 1.4503 0
M  V30 6500 C 619.425 0.0290745 1.94178 0
M  V30 6501 O 618.7 -0.944456 1.7003 0
M  V30 6502 C 618.983 2.43069 2.65686 0
M  V30 6503 C 618.836 3.91053 2.22256 0
M  V30 6504 C 620.155 2.41543 3.67893 0
M  V30 6505 H 617.274 0.516202 0.526027 0
M  V30 6506 H 619.916 1.73111 0.783105 0
M  V30 6507 H 618.066 2.1646 3.2261 0
M  V30 6508 H 619.738 4.28594 1.70602 0
M  V30 6509 H 617.981 4.05559 1.53963 0
M  V30 6510 H 618.652 4.57501 3.08863 0
M  V30 6511 H 621.128 2.65175 3.20658 0
M  V30 6512 H 620.004 3.14434 4.49914 0
M  V30 6513 H 620.265 1.43666 4.18106 0
M  V30 6514 N 619.324 -0.923095 1.27737 0
M  V30 6515 C 620.571 -1.67127 1.14345 0
M  V30 6516 C 620.899 -1.92017 -0.30982 0
M  V30 6517 O 620.154 -1.51185 -1.24264 0
M  V30 6518 C 620.453 -3.04125 1.8773 0
M  V30 6519 C 620.119 -2.98929 3.37568 0
M  V30 6520 C 618.781 -2.9722 3.78436 0
M  V30 6521 C 621.133 -2.89875 4.33154 0
M  V30 6522 C 618.461 -2.84244 5.13247 0
M  V30 6523 C 620.813 -2.7844 5.68026 0
M  V30 6524 C 619.477 -2.75083 6.08182 0
M  V30 6525 H 618.747 -0.611562 0.418417 0
M  V30 6526 H 621.394 -1.07618 1.584 0
M  V30 6527 H 619.699 -3.67366 1.36196 0
M  V30 6528 H 621.396 -3.609 1.74792 0
M  V30 6529 H 617.986 -3.0105 3.05069 0
M  V30 6530 H 622.17 -2.9029 4.02548 0
M  V30 6531 H 617.426 -2.80034 5.43499 0
M  V30 6532 H 621.6 -2.70401 6.4176 0
M  V30 6533 H 619.227 -2.64786 7.12596 0
M  V30 6534 N 620.802 -1.09834 -1.13024 0
M  V30 6535 C 622.027 -0.85909 -1.88771 0
M  V30 6536 C 622.452 0.584402 -1.78791 0
M  V30 6537 O 621.81 1.41101 -1.13842 0
M  V30 6538 C 621.858 -1.30427 -3.36186 0
M  V30 6539 O 620.962 -0.465368 -4.09766 0
M  V30 6540 H 620.303 -0.310786 -0.586778 0
M  V30 6541 H 622.833 -1.46355 -1.42973 0
M  V30 6542 H 622.843 -1.2915 -3.8702 0
M  V30 6543 H 621.518 -2.3555 -3.42767 0
M  V30 6544 H 620.095 -0.542814 -3.68928 0
M  V30 6545 N 622.28 1.30327 -0.886154 0
M  V30 6546 C 623.227 2.28099 -0.352069 0
M  V30 6547 C 624.197 1.56433 0.558397 0
M  V30 6548 O 625.382 1.84492 0.486561 0
M  V30 6549 C 622.522 3.42456 0.426346 0
M  V30 6550 C 621.635 4.28938 -0.513472 0
M  V30 6551 C 620.77 5.30458 0.280657 0
M  V30 6552 C 619.809 6.0859 -0.654556 0
M  V30 6553 N 618.946 7.02022 0.104322 0
M  V30 6554 H 623.786 2.73166 -1.19097 0
M  V30 6555 H 621.323 1.34367 -0.598662 0
M  V30 6556 H 623.281 4.07518 0.893587 0
M  V30 6557 H 621.911 2.98455 1.22981 0
M  V30 6558 H 620.963 3.64173 -1.09921 0
M  V30 6559 H 622.275 4.83399 -1.2299 0
M  V30 6560 H 621.429 6.01273 0.8097 0
M  V30 6561 H 620.168 4.76693 1.03029 0
M  V30 6562 H 619.173 5.36651 -1.19522 0
M  V30 6563 H 620.398 6.64443 -1.4033 0
M  V30 6564 H 618.344 6.50645 0.836472 0
M  V30 6565 H 618.261 7.53979 -0.552453 0
M  V30 6566 H 619.529 7.77077 0.614069 0
M  V30 6567 N 623.758 0.647228 1.43697 0
M  V30 6568 C 624.706 -0.0600105 2.32523 0
M  V30 6569 C 625.7 -0.819277 1.48271 0
M  V30 6570 O 626.906 -0.730356 1.64517 0
M  V30 6571 H 623.281 -0.0381872 0.75103 0
M  V30 6572 H 625.252 0.706978 2.89904 0
M  V30 6573 C 624.001 -1.0169 3.32497 0
M  V30 6574 H 623.324 -0.442083 3.97348 0
M  V30 6575 H 624.764 -1.48095 3.97296 0
M  V30 6576 C 623.223 -2.11002 2.6264 0
M  V30 6577 O 623.753 -3.19302 2.4374 0
M  V30 6578 N 621.959 -1.87388 2.22113 0
M  V30 6579 H 621.506 -0.993174 2.37684 0
M  V30 6580 H 621.464 -2.60723 1.75701 0
M  V30 6581 N 625.236 -1.5273 0.388769 0
M  V30 6582 C 626.186 -2.23238 -0.463567 0
M  V30 6583 C 627.17 -1.23606 -1.03007 0
M  V30 6584 O 628.362 -1.48945 -0.956261 0
M  V30 6585 C 625.491 -3.04228 -1.5906 0
M  V30 6586 C 624.577 -4.11255 -1.03587 0
M  V30 6587 N 624.968 -5.0538 -0.206038 0
M  V30 6588 C 623.266 -4.26376 -1.30841 0
M  V30 6589 C 623.967 -5.81613 0.100359 0
M  V30 6590 N 622.943 -5.41264 -0.503447 0
M  V30 6591 H 626.745 -2.93367 0.176978 0
M  V30 6592 H 624.259 -1.61188 0.198046 0
M  V30 6593 H 626.256 -3.53277 -2.21362 0
M  V30 6594 H 624.916 -2.35634 -2.23398 0
M  V30 6595 H 625.927 -5.17663 0.156659 0
M  V30 6596 H 622.604 -3.69011 -1.95287 0
M  V30 6597 H 623.994 -6.67442 0.772676 0
M  V30 6598 N 626.714 -0.118576 -1.57153 0
M  V30 6599 C 627.677 0.817464 -2.14127 0
M  V30 6600 C 628.677 1.1949 -1.07604 0
M  V30 6601 O 629.867 1.12048 -1.33382 0
M  V30 6602 C 626.999 2.10541 -2.68115 0
M  V30 6603 H 628.192 0.322339 -2.98163 0
M  V30 6604 H 625.745 0.130655 -1.55753 0
M  V30 6605 H 626.48 2.64485 -1.87665 0
M  V30 6606 H 626.265 1.84425 -3.4602 0
M  V30 6607 H 627.755 2.77453 -3.12105 0
M  V30 6608 N 628.193 1.56834 0.155195 0
M  V30 6609 C 629.156 1.96748 1.17571 0
M  V30 6610 C 630.156 0.853006 1.3631 0
M  V30 6611 O 631.346 1.11978 1.33441 0
M  V30 6612 C 628.478 2.27631 2.53765 0
M  V30 6613 H 629.671 2.88085 0.833498 0
M  V30 6614 H 627.224 1.51141 0.398242 0
M  V30 6615 H 627.959 1.39059 2.92973 0
M  V30 6616 H 627.744 3.0888 2.41527 0
M  V30 6617 H 629.234 2.59377 3.27282 0
M  V30 6618 N 629.671 -0.424282 1.51781 0
M  V30 6619 C 631.082 -1.00368 1.57427 0
M  V30 6620 C 631.433 -1.91962 0.40558 0
M  V30 6621 O 630.558 -2.111 -0.47601 0
M  V30 6622 C 631.153 -1.82707 2.85313 0
M  V30 6623 C 629.712 -2.35675 2.93487 0
M  V30 6624 C 628.859 -1.1524 2.5222 0
M  V30 6625 H 631.81 -0.205064 1.5737 0
M  V30 6626 H 631.831 -2.68294 2.69812 0
M  V30 6627 H 631.343 -1.16017 3.70353 0
M  V30 6628 H 629.444 -3.05781 2.12906 0
M  V30 6629 H 629.557 -2.67578 3.97415 0
M  V30 6630 H 627.921 -1.50174 2.05718 0
M  V30 6631 H 628.704 -0.5014 3.39619 0
M  V30 6632 N 631.149 -1.42148 -0.680565 0
M  V30 6633 C 632.396 -1.4231 -1.44063 0
M  V30 6634 C 632.724 -0.037488 -1.94464 0
M  V30 6635 O 631.979 0.953184 -1.70918 0
M  V30 6636 C 632.278 -2.38945 -2.65782 0
M  V30 6637 C 631.944 -3.85455 -2.33956 0
M  V30 6638 C 630.606 -4.25364 -2.24987 0
M  V30 6639 C 632.958 -4.77895 -2.08004 0
M  V30 6640 C 630.286 -5.55701 -1.88184 0
M  V30 6641 C 632.638 -6.08568 -1.72706 0
M  V30 6642 C 631.302 -6.47482 -1.62244 0
M  V30 6643 H 630.572 -0.520748 -0.527164 0
M  V30 6644 H 633.219 -1.7505 -0.776524 0
M  V30 6645 H 631.524 -1.99511 -3.37198 0
M  V30 6646 H 633.221 -2.36336 -3.23954 0
M  V30 6647 H 629.811 -3.53855 -2.41836 0
M  V30 6648 H 633.995 -4.47854 -2.1387 0
M  V30 6649 H 629.251 -5.84718 -1.78648 0
M  V30 6650 H 633.425 -6.79688 -1.5165 0
M  V30 6651 H 631.052 -7.48387 -1.33496 0
M  V30 6652 N 632.627 0.916307 -1.28225 0
M  V30 6653 C 633.852 1.7043 -1.18188 0
M  V30 6654 C 634.277 1.86346 0.256274 0
M  V30 6655 O 633.635 1.37175 1.18544 0
M  V30 6656 C 633.683 3.07546 -1.88275 0
M  V30 6657 O 632.787 3.94904 -1.18848 0
M  V30 6658 H 632.128 0.521967 -0.410423 0
M  V30 6659 H 634.658 1.14589 -1.69501 0
M  V30 6660 H 634.668 3.57793 -1.96082 0
M  V30 6661 H 633.343 2.95279 -2.92887 0
M  V30 6662 H 631.92 3.53339 -1.19187 0
M  V30 6663 N 634.105 1.10431 1.1244 0
M  V30 6664 C 635.052 0.753103 2.18167 0
M  V30 6665 C 636.022 -0.270549 1.63882 0
M  V30 6666 O 637.207 -0.149837 1.90211 0
M  V30 6667 C 634.347 0.191046 3.44571 0
M  V30 6668 C 633.46 1.26999 4.12911 0
M  V30 6669 C 632.595 0.669586 5.26963 0
M  V30 6670 C 631.634 1.72912 5.87169 0
M  V30 6671 N 630.771 1.14898 6.92635 0
M  V30 6672 H 635.611 1.65892 2.47556 0
M  V30 6673 H 633.148 0.828631 1.21541 0
M  V30 6674 H 635.106 -0.152712 4.1692 0
M  V30 6675 H 633.736 -0.677997 3.15599 0
M  V30 6676 H 632.788 1.73087 3.3874 0
M  V30 6677 H 634.1 2.07204 4.53727 0
M  V30 6678 H 633.254 0.275274 6.06075 0
M  V30 6679 H 631.993 -0.163895 4.87425 0
M  V30 6680 H 630.998 2.13286 5.06744 0
M  V30 6681 H 632.223 2.56544 6.28778 0
M  V30 6682 H 630.169 0.336956 6.55134 0
M  V30 6683 H 630.086 1.88786 7.32049 0
M  V30 6684 H 631.354 0.78121 7.75576 0
M  V30 6685 N 635.583 -1.29855 0.893053 0
M  V30 6686 C 636.829 -1.96116 0.516349 0
M  V30 6687 C 637.162 -1.70281 -0.933695 0
M  V30 6688 O 636.437 -1.01205 -1.66096 0
M  V30 6689 C 636.72 -3.51068 0.801455 0
M  V30 6690 C 636.573 -3.86387 2.30272 0
M  V30 6691 C 637.892 -4.39186 0.283423 0
M  V30 6692 H 635.011 -0.712335 0.189072 0
M  V30 6693 H 637.653 -1.53587 1.11852 0
M  V30 6694 H 635.803 -3.87424 0.288949 0
M  V30 6695 H 637.475 -3.60012 2.88425 0
M  V30 6696 H 635.718 -3.34167 2.76613 0
M  V30 6697 H 636.389 -4.94512 2.45279 0
M  V30 6698 H 638.865 -4.09785 0.722187 0
M  V30 6699 H 637.741 -5.46505 0.512169 0
M  V30 6700 H 638.002 -4.34511 -0.815643 0
M  V30 6701 N 637.061 -0.65484 -1.43351 0
M  V30 6702 C 637.991 0.0221809 -2.33489 0
M  V30 6703 C 638.972 0.810272 -1.49561 0
M  V30 6704 O 640.157 0.771426 -1.78221 0
M  V30 6705 C 637.287 0.988117 -3.32947 0
M  V30 6706 C 636.241 0.310026 -4.26876 0
M  V30 6707 C 635.567 1.38752 -5.16384 0
M  V30 6708 C 636.867 -0.798589 -5.16159 0
M  V30 6709 H 638.561 -0.730571 -2.9035 0
M  V30 6710 H 636.107 -0.352773 -1.39612 0
M  V30 6711 H 638.06 1.47067 -3.94904 0
M  V30 6712 H 636.784 1.77205 -2.74346 0
M  V30 6713 H 635.443 -0.152097 -3.66284 0
M  V30 6714 H 635.091 2.16293 -4.54121 0
M  V30 6715 H 634.791 0.939051 -5.80048 0
M  V30 6716 H 636.315 1.87141 -5.81215 0
M  V30 6717 H 637.729 -0.398126 -5.71916 0
M  V30 6718 H 636.126 -1.17163 -5.88552 0
M  V30 6719 H 637.196 -1.65588 -4.55751 0
M  V30 6720 N 638.539 1.52521 -0.396863 0
M  V30 6721 C 639.767 2.06091 0.18275 0
M  V30 6722 C 640.182 1.26796 1.39886 0
M  V30 6723 O 639.539 0.316585 1.79733 0
M  V30 6724 C 639.59 3.57362 0.545377 0
M  V30 6725 O 639.311 4.33656 -0.622428 0
M  V30 6726 C 640.812 4.27305 1.18004 0
M  V30 6727 H 638.032 0.670504 0.025789 0
M  V30 6728 H 640.576 1.96561 -0.564276 0
M  V30 6729 H 638.731 3.66941 1.2423 0
M  V30 6730 H 639.145 5.23507 -0.322662 0
M  V30 6731 H 640.619 5.34366 1.38408 0
M  V30 6732 H 641.096 3.83 2.1496 0
M  V30 6733 H 641.702 4.22064 0.523671 0
M  V30 6734 N 640.017 0.126909 1.57088 0
M  V30 6735 C 641.264 -0.529168 1.95464 0
M  V30 6736 C 641.592 -1.6618 1.01067 0
M  V30 6737 O 640.847 -1.95667 0.0360254 0
M  V30 6738 C 641.146 -1.095 3.40212 0
M  V30 6739 C 640.812 -0.0829015 4.50824 0
M  V30 6740 C 639.474 0.195377 4.80803 0
M  V30 6741 C 641.826 0.606411 5.1766 0
M  V30 6742 C 639.154 1.16912 5.74933 0
M  V30 6743 C 641.506 1.56884 6.12838 0
M  V30 6744 C 640.17 1.85502 6.41206 0
M  V30 6745 H 639.44 -0.193636 0.715252 0
M  V30 6746 H 642.087 0.209489 1.90351 0
M  V30 6747 H 640.392 -1.91058 3.42059 0
M  V30 6748 H 642.089 -1.61087 3.67222 0
M  V30 6749 H 638.679 -0.309979 4.27478 0
M  V30 6750 H 642.863 0.404597 4.94648 0
M  V30 6751 H 638.119 1.3975 5.95214 0
M  V30 6752 H 642.293 2.10859 6.6371 0
M  V30 6753 H 639.92 2.61109 7.13951 0
M  V30 6754 N 641.495 -1.56914 -0.146875 0
M  V30 6755 C 642.725 -1.87243 -0.873126 0
M  V30 6756 C 643.133 -0.713127 -1.75246 0
M  V30 6757 O 642.476 0.326228 -1.8078 0
M  V30 6758 C 642.538 -3.12279 -1.78107 0
M  V30 6759 C 642.202 -4.44082 -1.07889 0
M  V30 6760 C 643.199 -5.18096 -0.432734 0
M  V30 6761 C 640.884 -4.90807 -1.06836 0
M  V30 6762 C 642.878 -6.37039 0.214569 0
M  V30 6763 C 640.565 -6.09674 -0.417243 0
M  V30 6764 C 641.563 -6.82636 0.223093 0
M  V30 6765 O 641.251 -7.99245 0.863884 0
M  V30 6766 H 640.983 -0.624896 -0.257839 0
M  V30 6767 H 643.537 -2.04892 -0.14434 0
M  V30 6768 H 641.767 -2.90639 -2.5508 0
M  V30 6769 H 643.456 -3.28854 -2.37929 0
M  V30 6770 H 644.222 -4.83066 -0.432677 0
M  V30 6771 H 640.101 -4.3394 -1.55618 0
M  V30 6772 H 643.645 -6.93927 0.714965 0
M  V30 6773 H 639.542 -6.44165 -0.414967 0
M  V30 6774 H 640.31 -8.14912 0.765564 0
M  V30 6775 N 642.974 0.416227 -1.52004 0
M  V30 6776 C 644.39 0.754319 -1.40649 0
M  V30 6777 C 644.59 1.95059 -0.505392 0
M  V30 6778 O 643.646 2.5248 0.0315057 0
M  V30 6779 C 644.959 1.0149 -2.83055 0
M  V30 6780 C 646.507 1.11805 -2.9235 0
M  V30 6781 C 646.982 1.41144 -4.35709 0
M  V30 6782 N 648.473 1.48024 -4.38911 0
M  V30 6783 C 649.208 1.72338 -5.46889 0
M  V30 6784 N 648.704 1.94303 -6.64995 0
M  V30 6785 N 650.497 1.74294 -5.34395 0
M  V30 6786 H 642.648 -0.371324 -2.09129 0
M  V30 6787 H 644.911 -0.103811 -0.942299 0
M  V30 6788 H 644.617 0.208345 -3.51082 0
M  V30 6789 H 644.491 1.93697 -3.23668 0
M  V30 6790 H 646.878 1.91521 -2.24508 0
M  V30 6791 H 646.959 0.17451 -2.55204 0
M  V30 6792 H 646.603 0.619484 -5.04108 0
M  V30 6793 H 646.533 2.36739 -4.70385 0
M  V30 6794 H 649.024 1.32868 -3.53772 0
M  V30 6795 H 649.337 2.12286 -7.43071 0
M  V30 6796 H 647.682 1.91582 -6.68073 0
M  V30 6797 H 650.873 1.56667 -4.41104 0
M  V30 6798 H 651.046 1.92904 -6.18621 0
M  V30 6799 N 644.452 1.42507 0.673017 0
M  V30 6800 C 645.399 1.46124 1.78651 0
M  V30 6801 C 646.369 0.313007 1.63124 0
M  V30 6802 O 647.554 0.517337 1.83653 0
M  V30 6803 C 644.694 1.3711 3.16694 0
M  V30 6804 C 643.807 2.61983 3.43495 0
M  V30 6805 C 642.942 2.45098 4.71275 0
M  V30 6806 C 641.981 3.65336 4.91117 0
M  V30 6807 N 641.118 3.47383 6.10139 0
M  V30 6808 H 645.958 2.4128 1.74895 0
M  V30 6809 H 643.495 1.19788 0.853766 0
M  V30 6810 H 645.453 1.29881 3.96468 0
M  V30 6811 H 644.083 0.45549 3.1957 0
M  V30 6812 H 643.135 2.79571 2.57961 0
M  V30 6813 H 644.447 3.51355 3.5405 0
M  V30 6814 H 643.601 2.35466 5.59143 0
M  V30 6815 H 642.34 1.53219 4.63007 0
M  V30 6816 H 641.345 3.754 4.0169 0
M  V30 6817 H 642.57 4.58199 5.01229 0
M  V30 6818 H 640.516 2.58222 6.0304 0
M  V30 6819 H 640.433 4.30344 6.21563 0
M  V30 6820 H 641.701 3.41565 7.00681 0
M  V30 6821 N 645.93 -0.909495 1.28709 0
M  V30 6822 C 646.84 -2.04558 1.14861 0
M  V30 6823 C 647.856 -1.73842 0.0741621 0
M  V30 6824 O 649.032 -1.99383 0.2843 0
M  V30 6825 C 646.097 -3.36957 0.816148 0
M  V30 6826 C 645.158 -3.81255 1.97341 0
M  V30 6827 C 644.391 -5.07335 1.65671 0
M  V30 6828 O 644.614 -5.67514 0.573053 0
M  V30 6829 O 643.548 -5.47449 2.50167 0
M  V30 6830 H 647.374 -2.19161 2.10243 0
M  V30 6831 H 644.959 -1.03159 1.08068 0
M  V30 6832 H 646.841 -4.16436 0.644873 0
M  V30 6833 H 645.516 -3.2352 -0.107983 0
M  V30 6834 H 644.423 -3.02584 2.19986 0
M  V30 6835 H 645.756 -3.99261 2.87839 0
M  V30 6836 N 647.408 -1.11026 -1.11852 0
M  V30 6837 C 648.819 -0.873203 -1.65021 0
M  V30 6838 C 649.17 0.595364 -1.86949 0
M  V30 6839 O 648.295 1.45645 -1.60051 0
M  V30 6840 C 648.89 -1.57859 -2.99777 0
M  V30 6841 C 647.449 -1.38807 -3.49871 0
M  V30 6842 C 646.596 -1.62403 -2.24768 0
M  V30 6843 H 649.547 -1.26712 -0.955503 0
M  V30 6844 H 649.568 -1.02111 -3.66543 0
M  V30 6845 H 649.08 -2.6474 -2.83786 0
M  V30 6846 H 647.181 -0.341163 -3.71035 0
M  V30 6847 H 647.294 -2.13421 -4.28938 0
M  V30 6848 H 645.658 -1.04714 -2.32179 0
M  V30 6849 H 646.441 -2.70549 -2.11324 0
M  V30 6850 N 648.886 1.2938 -0.899927 0
M  V30 6851 C 650.133 1.9555 -0.525963 0
M  V30 6852 C 650.461 1.70945 0.927789 0
M  V30 6853 O 649.716 1.01545 1.67293 0
M  V30 6854 C 650.015 3.49114 -0.765113 0
M  V30 6855 C 649.681 3.93796 -2.19626 0
M  V30 6856 C 648.343 4.05707 -2.58758 0
M  V30 6857 C 650.695 4.16883 -3.12823 0
M  V30 6858 C 648.023 4.38074 -3.90267 0
M  V30 6859 C 650.375 4.50725 -4.4388 0
M  V30 6860 C 649.039 4.60845 -4.82885 0
M  V30 6861 H 648.309 0.715569 -0.192463 0
M  V30 6862 H 650.956 1.53972 -1.13863 0
M  V30 6863 H 649.261 3.91738 -0.069531 0
M  V30 6864 H 650.958 3.98409 -0.455144 0
M  V30 6865 H 647.548 3.85042 -1.88256 0
M  V30 6866 H 651.732 4.07147 -2.83804 0
M  V30 6867 H 646.988 4.44112 -4.20207 0
M  V30 6868 H 651.162 4.67538 -5.16121 0
M  V30 6869 H 648.789 4.85681 -5.84823 0
M  V30 6870 N 650.364 0.662433 1.43002 0
M  V30 6871 C 651.592 0.187615 2.06048 0
M  V30 6872 C 652.007 -1.15039 1.49705 0
M  V30 6873 O 651.364 -1.71209 0.631956 0
M  V30 6874 C 651.415 0.100498 3.6136 0
M  V30 6875 O 651.136 1.38562 4.15611 0
M  V30 6876 C 652.637 -0.399298 4.41498 0
M  V30 6877 H 649.857 0.0941675 0.664359 0
M  V30 6878 H 652.401 0.905681 1.83351 0
M  V30 6879 H 650.556 -0.568181 3.83211 0
M  V30 6880 H 650.97 1.25084 5.09366 0
M  V30 6881 H 652.444 -0.409187 5.50481 0
M  V30 6882 H 652.921 -1.43232 4.15188 0
M  V30 6883 H 653.527 0.23721 4.24638 0
M  V30 6884 N 651.842 -1.52309 0.404946 0
M  V30 6885 C 652.772 -2.29805 -0.41376 0
M  V30 6886 C 653.753 -1.3384 -1.0498 0
M  V30 6887 O 654.938 -1.62745 -1.05961 0
M  V30 6888 C 652.068 -3.11639 -1.53292 0
M  V30 6889 C 651.022 -4.15616 -1.02211 0
M  V30 6890 C 650.348 -4.8577 -2.23455 0
M  V30 6891 C 651.648 -5.2224 -0.0790725 0
M  V30 6892 H 653.342 -2.98493 0.232878 0
M  V30 6893 H 650.888 -1.43552 0.113441 0
M  V30 6894 H 652.841 -3.64618 -2.11262 0
M  V30 6895 H 651.565 -2.40712 -2.20738 0
M  V30 6896 H 650.224 -3.63641 -0.46484 0
M  V30 6897 H 649.872 -4.11376 -2.89445 0
M  V30 6898 H 649.572 -5.56058 -1.89929 0
M  V30 6899 H 651.096 -5.4156 -2.82038 0
M  V30 6900 H 652.51 -5.70485 -0.567438 0
M  V30 6901 H 650.907 -5.99867 0.167167 0
M  V30 6902 H 651.977 -4.77078 0.867447 0
M  V30 6903 N 653.32 -0.135238 -1.57019 0
M  V30 6904 C 654.23 0.822226 -2.19719 0
M  V30 6905 C 655.246 1.28057 -1.17802 0
M  V30 6906 O 656.422 1.3402 -1.50335 0
M  V30 6907 C 653.487 2.0484 -2.79717 0
M  V30 6908 C 652.548 1.64042 -3.96723 0
M  V30 6909 C 651.781 2.80814 -4.53849 0
M  V30 6910 O 652.004 3.967 -4.0986 0
M  V30 6911 O 650.938 2.56963 -5.44292 0
M  V30 6912 H 654.764 0.318552 -3.02025 0
M  V30 6913 H 652.349 0.0912021 -1.49121 0
M  V30 6914 H 654.231 2.76622 -3.17897 0
M  V30 6915 H 652.906 2.54182 -2.00432 0
M  V30 6916 H 651.813 0.893182 -3.63281 0
M  V30 6917 H 653.146 1.19426 -4.77492 0
M  V30 6918 N 654.798 1.5699 0.138552 0
M  V30 6919 C 655.761 1.97984 1.15478 0
M  V30 6920 C 656.761 0.867416 1.35398 0
M  V30 6921 O 657.951 1.13387 1.32246 0
M  V30 6922 C 655.083 2.3031 2.51337 0
M  V30 6923 H 656.276 2.88953 0.802896 0
M  V30 6924 H 653.829 1.51555 0.382189 0
M  V30 6925 H 654.564 1.42159 2.91481 0
M  V30 6926 H 654.349 3.11425 2.38237 0
M  V30 6927 H 655.839 2.62834 3.24512 0
M  V30 6928 N 656.276 -0.40816 1.52223 0
M  V30 6929 C 657.506 -1.17501 1.69932 0
M  V30 6930 C 657.914 -1.84729 0.408874 0
M  V30 6931 O 657.257 -1.7274 -0.625025 0
M  V30 6932 C 657.319 -2.27994 2.77955 0
M  V30 6933 C 656.983 -1.80894 4.19674 0
M  V30 6934 C 657.98 -1.29618 5.03483 0
M  V30 6935 C 655.665 -1.87698 4.65913 0
M  V30 6936 C 657.659 -0.857695 6.31603 0
M  V30 6937 C 655.346 -1.43461 5.94022 0
M  V30 6938 C 656.344 -0.925822 6.76696 0
M  V30 6939 O 656.032 -0.489841 8.02406 0
M  V30 6940 H 655.764 -0.359065 0.572755 0
M  V30 6941 H 658.318 -0.486188 1.99563 0
M  V30 6942 H 656.548 -3.00243 2.43703 0
M  V30 6943 H 658.237 -2.89749 2.84254 0
M  V30 6944 H 659.003 -1.23733 4.68951 0
M  V30 6945 H 654.882 -2.26244 4.01665 0
M  V30 6946 H 658.426 -0.459879 6.96083 0
M  V30 6947 H 654.323 -1.49026 6.28062 0
M  V30 6948 H 655.091 -0.613062 8.16201 0
M  V30 6949 N 657.755 -1.42862 -0.66545 0
M  V30 6950 C 658.985 -1.47032 -1.45138 0
M  V30 6951 C 659.393 -0.0829977 -1.89018 0
M  V30 6952 O 658.736 0.914551 -1.59316 0
M  V30 6953 C 658.798 -2.34302 -2.72659 0
M  V30 6954 C 658.462 -3.82034 -2.50796 0
M  V30 6955 C 659.459 -4.73453 -2.14799 0
M  V30 6956 C 657.144 -4.26397 -2.655 0
M  V30 6957 C 659.138 -6.07228 -1.93785 0
M  V30 6958 C 656.825 -5.6023 -2.44103 0
M  V30 6959 C 657.823 -6.50462 -2.08299 0
M  V30 6960 O 657.511 -7.8182 -1.87116 0
M  V30 6961 H 657.243 -0.501969 -0.452772 0
M  V30 6962 H 659.797 -1.88137 -0.82423 0
M  V30 6963 H 658.027 -1.88063 -3.37889 0
M  V30 6964 H 659.716 -2.29818 -3.34572 0
M  V30 6965 H 660.482 -4.4046 -2.03026 0
M  V30 6966 H 656.361 -3.56448 -2.92345 0
M  V30 6967 H 659.905 -6.7762 -1.65763 0
M  V30 6968 H 655.802 -5.92793 -2.55475 0
M  V30 6969 H 656.57 -7.93274 -2.01639 0
M  V30 6970 N 659.233 0.902656 -1.29189 0
M  V30 6971 C 660.458 1.69167 -1.19989 0
M  V30 6972 C 660.883 1.86607 0.236495 0
M  V30 6973 O 660.241 1.38425 1.17082 0
M  V30 6974 C 660.289 3.05532 -1.91527 0
M  V30 6975 O 659.393 3.93621 -1.2303 0
M  V30 6976 H 658.734 0.517584 -0.415936 0
M  V30 6977 H 661.264 1.12785 -1.70706 0
M  V30 6978 H 661.274 3.55693 -1.99866 0
M  V30 6979 H 659.949 2.92156 -2.96003 0
M  V30 6980 H 658.526 3.52055 -1.22928 0
M  V30 6981 N 660.711 1.11618 1.11262 0
M  V30 6982 C 661.936 0.889013 1.8738 0
M  V30 6983 C 662.361 -0.555884 1.79698 0
M  V30 6984 O 661.719 -1.39272 1.16073 0
M  V30 6985 C 661.767 1.35759 3.34069 0
M  V30 6986 O 660.871 0.530499 4.08974 0
M  V30 6987 H 660.212 0.320082 0.581759 0
M  V30 6988 H 662.742 1.48611 1.40627 0
M  V30 6989 H 662.752 1.35291 3.84916 0
M  V30 6990 H 661.427 2.40973 3.38976 0
M  V30 6991 H 660.004 0.601439 3.68018 0
M  V30 6992 N 662.189 -1.289 0.906776 0
M  V30 6993 C 663.6 -1.77336 0.58384 0
M  V30 6994 C 663.951 -1.74304 -0.900697 0
M  V30 6995 O 663.076 -1.33335 -1.70443 0
M  V30 6996 C 663.671 -3.22019 1.05304 0
M  V30 6997 C 662.23 -3.68205 0.781148 0
M  V30 6998 C 661.377 -2.48837 1.22373 0
M  V30 6999 H 664.328 -1.15462 1.08877 0
M  V30 7000 H 664.349 -3.78481 0.391414 0
M  V30 7001 H 663.861 -3.24194 2.13353 0
M  V30 7002 H 661.962 -3.71497 -0.28643 0
M  V30 7003 H 662.075 -4.58675 1.384 0
M  V30 7004 H 660.439 -2.46461 0.642594 0
M  V30 7005 H 661.222 -2.53736 2.31242 0
M  V30 7006 N 663.667 -0.670007 -1.42649 0
M  V30 7007 C 664.599 0.0501746 -2.29145 0
M  V30 7008 C 665.612 0.770331 -1.43422 0
M  V30 7009 O 666.801 0.625288 -1.6719 0
M  V30 7010 C 663.901 1.09463 -3.20735 0
M  V30 7011 C 663.074 0.44926 -4.35087 0
M  V30 7012 C 662.133 1.39285 -5.07431 0
M  V30 7013 O 661.159 0.894997 -5.6212 0
M  V30 7014 N 662.361 2.72631 -5.12496 0
M  V30 7015 H 665.126 -0.692312 -2.91594 0
M  V30 7016 H 662.687 -0.514056 -1.53522 0
M  V30 7017 H 664.679 1.72705 -3.65999 0
M  V30 7018 H 663.249 1.73891 -2.59771 0
M  V30 7019 H 662.469 -0.362573 -3.92529 0
M  V30 7020 H 663.757 -0.000544776 -5.088 0
M  V30 7021 H 663.155 3.15623 -4.69467 0
M  V30 7022 H 661.712 3.31132 -5.61422 0
M  V30 7023 N 665.145 1.52092 -0.413018 0
M  V30 7024 C 666.422 1.94356 0.22024 0
M  V30 7025 C 666.802 1.35017 1.62277 0
M  V30 7026 O 666.15 0.527511 2.22328 0
M  V30 7027 C 666.36 3.48289 0.222638 0
M  V30 7028 C 667.708 4.22313 0.440098 0
M  V30 7029 O 668.732 3.54919 0.301826 0
M  V30 7030 O 667.591 5.41829 0.712984 0
M  V30 7031 H 664.685 0.814536 0.14304 0
M  V30 7032 H 667.231 1.63083 -0.469242 0
M  V30 7033 H 666.003 3.83872 -0.758836 0
M  V30 7034 H 665.626 3.85934 0.956057 0
M  V30 7035 N 666.623 0.143563 1.56945 0
M  V30 7036 C 667.553 -0.7936 2.196 0
M  V30 7037 C 668.534 -1.25955 1.14321 0
M  V30 7038 O 669.719 -1.31773 1.42651 0
M  V30 7039 C 666.849 -2.03424 2.81489 0
M  V30 7040 C 665.803 -1.70519 3.92565 0
M  V30 7041 C 665.129 -3.01817 4.41373 0
M  V30 7042 C 666.429 -0.95449 5.13504 0
M  V30 7043 H 668.123 -0.271423 2.98167 0
M  V30 7044 H 665.669 -0.12911 1.4342 0
M  V30 7045 H 667.622 -2.69463 3.23987 0
M  V30 7046 H 666.346 -2.58008 2.00248 0
M  V30 7047 H 665.005 -1.06859 3.5068 0
M  V30 7048 H 664.653 -3.54386 3.56959 0
M  V30 7049 H 664.353 -2.80565 5.16292 0
M  V30 7050 H 665.877 -3.68934 4.86539 0
M  V30 7051 H 667.291 -1.5169 5.52868 0
M  V30 7052 H 665.688 -0.842035 5.94163 0
M  V30 7053 H 666.758 0.0544033 4.84869 0
M  V30 7054 N 668.101 -1.57061 -0.130224 0
M  V30 7055 C 669.512 -1.73539 -0.68856 0
M  V30 7056 C 669.863 -0.760554 -1.80859 0
M  V30 7057 O 668.988 0.0690796 -2.1629 0
M  V30 7058 C 669.583 -3.14666 -1.25581 0
M  V30 7059 C 668.142 -3.32689 -1.76055 0
M  V30 7060 C 667.289 -2.69436 -0.655712 0
M  V30 7061 H 670.24 -1.58412 0.0956002 0
M  V30 7062 H 670.261 -3.15595 -2.12556 0
M  V30 7063 H 669.773 -3.85593 -0.440412 0
M  V30 7064 H 667.874 -2.66786 -2.60108 0
M  V30 7065 H 667.987 -4.4077 -1.87772 0
M  V30 7066 H 666.351 -2.30362 -1.08654 0
M  V30 7067 H 667.134 -3.42979 0.14852 0
M  V30 7068 N 669.579 0.400081 -1.52437 0
M  V30 7069 C 670.809 1.16598 -1.70553 0
M  V30 7070 C 671.217 1.8451 -0.418665 0
M  V30 7071 O 670.56 1.73069 0.615855 0
M  V30 7072 C 670.622 2.26517 -2.7916 0
M  V30 7073 C 670.286 1.78666 -4.20628 0
M  V30 7074 C 671.283 1.26946 -5.04163 0
M  V30 7075 C 668.968 1.85225 -4.66902 0
M  V30 7076 C 670.962 0.824187 -6.32049 0
M  V30 7077 C 668.649 1.40309 -5.94774 0
M  V30 7078 C 669.647 0.889922 -6.77178 0
M  V30 7079 O 669.335 0.447281 -8.02655 0
M  V30 7080 H 669.067 0.356023 -0.574651 0
M  V30 7081 H 671.621 0.475598 -1.99818 0
M  V30 7082 H 669.851 2.98946 -2.45292 0
M  V30 7083 H 671.54 2.88237 -2.85787 0
M  V30 7084 H 672.306 1.21244 -4.69601 0
M  V30 7085 H 668.185 2.24111 -4.02859 0
M  V30 7086 H 671.729 0.422958 -6.96317 0
M  V30 7087 H 667.626 1.45693 -6.28843 0
M  V30 7088 H 668.394 0.569768 -8.16514 0
M  V30 7089 N 671.057 1.43213 0.657864 0
M  V30 7090 C 672.468 1.39669 1.23893 0
M  V30 7091 C 672.819 0.0984217 1.95953 0
M  V30 7092 O 671.944 -0.8023 2.00978 0
M  V30 7093 C 672.539 2.53004 2.25332 0
M  V30 7094 C 671.098 2.5274 2.78926 0
M  V30 7095 C 670.245 2.30941 1.53497 0
M  V30 7096 H 673.196 1.52181 0.450172 0
M  V30 7097 H 673.217 2.24226 3.07413 0
M  V30 7098 H 672.729 3.4748 1.72856 0
M  V30 7099 H 670.83 1.6213 3.35477 0
M  V30 7100 H 670.943 3.50352 3.26787 0
M  V30 7101 H 669.307 1.7952 1.80678 0
M  V30 7102 H 670.09 3.27496 1.02963 0
M  V30 7103 N 672.536 -0.895792 1.29666 0
M  V30 7104 C 673.813 -1.62723 1.08538 0
M  V30 7105 C 674.193 -2.07848 -0.369119 0
M  V30 7106 O 673.541 -1.8372 -1.35864 0
M  V30 7107 C 673.751 -2.80505 2.07648 0
M  V30 7108 C 675.099 -3.51098 2.3878 0
M  V30 7109 O 676.123 -2.90679 2.05874 0
M  V30 7110 O 674.982 -4.60028 2.9502 0
M  V30 7111 H 672.076 -0.714692 0.416106 0
M  V30 7112 H 674.622 -0.943517 1.41053 0
M  V30 7113 H 673.394 -2.44386 3.05599 0
M  V30 7114 H 673.017 -3.5658 1.75887 0
M  V30 7115 N 674.014 -1.12206 -1.10668 0
M  V30 7116 C 675.425 -0.890657 -1.64086 0
M  V30 7117 C 675.776 0.575502 -1.8757 0
M  V30 7118 O 674.901 1.4394 -1.61587 0
M  V30 7119 C 675.496 -1.61029 -2.98085 0
M  V30 7120 C 674.055 -1.4251 -3.48379 0
M  V30 7121 C 673.202 -1.64778 -2.23033 0
M  V30 7122 H 676.153 -1.27718 -0.94201 0
M  V30 7123 H 676.174 -1.05993 -3.65439 0
M  V30 7124 H 675.686 -2.67735 -2.80962 0
M  V30 7125 H 673.787 -0.380497 -3.70652 0
M  V30 7126 H 673.9 -2.17959 -4.26651 0
M  V30 7127 H 672.264 -1.07171 -2.31055 0
M  V30 7128 H 673.047 -2.72776 -2.08443 0
M  V30 7129 N 675.492 1.28418 -0.913599 0
M  V30 7130 C 676.455 2.25564 -0.406624 0
M  V30 7131 C 677.455 1.5387 0.466965 0
M  V30 7132 O 678.645 1.72094 0.270042 0
M  V30 7133 C 675.777 3.38339 0.417053 0
M  V30 7134 H 676.97 2.71926 -1.26477 0
M  V30 7135 H 674.523 1.40098 -0.692986 0
M  V30 7136 H 675.258 2.97339 1.29461 0
M  V30 7137 H 675.043 3.91542 -0.209102 0
M  V30 7138 H 676.533 4.10578 0.762602 0
M  V30 7139 N 676.97 0.677563 1.42291 0
M  V30 7140 C 678.219 0.198173 2.00724 0
M  V30 7141 C 678.532 -1.20325 1.54211 0
M  V30 7142 O 679.738 -1.77916 2.05081 0
M  V30 7143 C 678.194 0.303432 3.58619 0
M  V30 7144 C 677.802 1.70909 4.14119 0
M  V30 7145 C 679.546 -0.117103 4.24338 0
M  V30 7146 C 677.453 1.76696 5.64387 0
M  V30 7147 H 676.383 0.070329 0.750713 0
M  V30 7148 H 679.034 0.843147 1.62982 0
M  V30 7149 H 677.416 -0.409482 3.93877 0
M  V30 7150 H 678.59 2.44931 3.90315 0
M  V30 7151 H 676.905 2.07771 3.6086 0
M  V30 7152 H 679.502 -0.0940471 5.34617 0
M  V30 7153 H 679.845 -1.15283 4.00019 0
M  V30 7154 H 680.378 0.5449 3.9405 0
M  V30 7155 H 677.117 2.7826 5.93508 0
M  V30 7156 H 676.637 1.07034 5.90173 0
M  V30 7157 H 678.316 1.52166 6.28852 0
M  V30 7158 N 678.448 -1.51871 0.421078 0
M  V30 7159 C 679.411 -2.25914 -0.386712 0
M  V30 7160 C 680.411 -1.28733 -0.963555 0
M  V30 7161 O 681.601 -1.52579 -0.840556 0
M  V30 7162 C 678.733 -3.03853 -1.54551 0
M  V30 7163 H 679.926 -2.98754 0.261978 0
M  V30 7164 H 677.479 -1.5533 0.173862 0
M  V30 7165 H 678.214 -2.35392 -2.23072 0
M  V30 7166 H 677.999 -3.75215 -1.13824 0
M  V30 7167 H 679.489 -3.59984 -2.11663 0
M  V30 7168 N 679.926 -0.151884 -1.56866 0
M  V30 7169 C 680.858 0.817008 -2.14144 0
M  V30 7170 C 681.871 1.20735 -1.0921 0
M  V30 7171 O 683.06 1.15058 -1.36469 0
M  V30 7172 C 680.16 2.10844 -2.65326 0
M  V30 7173 C 679.333 1.88471 -3.94712 0
M  V30 7174 C 678.392 3.01649 -4.31155 0
M  V30 7175 O 677.418 2.73127 -4.9939 0
M  V30 7176 N 678.62 4.28947 -3.91132 0
M  V30 7177 H 681.385 0.327448 -2.97906 0
M  V30 7178 H 678.946 0.0315313 -1.61869 0
M  V30 7179 H 680.938 2.85616 -2.86715 0
M  V30 7180 H 679.508 2.51049 -1.86262 0
M  V30 7181 H 678.728 0.977088 -3.81899 0
M  V30 7182 H 680.016 1.70866 -4.79252 0
M  V30 7183 H 679.414 4.54986 -3.36161 0
M  V30 7184 H 677.971 5.00484 -4.17563 0
M  V30 7185 N 681.404 1.57128 0.121893 0
M  V30 7186 C 682.651 1.847 0.830188 0
M  V30 7187 C 682.979 0.736543 1.80015 0
M  V30 7188 O 682.234 -0.272358 1.93796 0
M  V30 7189 C 682.533 3.1874 1.61677 0
M  V30 7190 C 682.199 4.43901 0.791361 0
M  V30 7191 C 680.861 4.77887 0.563731 0
M  V30 7192 C 683.213 5.20753 0.215823 0
M  V30 7193 C 680.541 5.86168 -0.249737 0
M  V30 7194 C 682.893 6.29891 -0.584821 0
M  V30 7195 C 681.557 6.6241 -0.822794 0
M  V30 7196 H 680.827 0.675866 0.303787 0
M  V30 7197 H 683.474 1.91276 0.0926894 0
M  V30 7198 H 681.779 3.07728 2.42509 0
M  V30 7199 H 683.476 3.37295 2.16872 0
M  V30 7200 H 680.066 4.17272 0.978867 0
M  V30 7201 H 684.25 4.94851 0.378907 0
M  V30 7202 H 679.506 6.0979 -0.44336 0
M  V30 7203 H 683.68 6.88624 -1.03779 0
M  V30 7204 H 681.307 7.46147 -1.45496 0
M  V30 7205 N 682.882 -0.391992 1.52647 0
M  V30 7206 C 684.107 -1.16312 1.71716 0
M  V30 7207 C 684.532 -1.83042 0.433279 0
M  V30 7208 O 683.89 -1.70705 -0.610707 0
M  V30 7209 C 683.938 -2.18908 2.86551 0
M  V30 7210 O 683.042 -3.2543 2.53316 0
M  V30 7211 H 682.383 -0.338743 0.571095 0
M  V30 7212 H 684.913 -0.457202 1.99426 0
M  V30 7213 H 684.923 -2.62954 3.1196 0
M  V30 7214 H 683.598 -1.69726 3.79692 0
M  V30 7215 H 682.175 -2.86543 2.38637 0
M  V30 7216 N 684.36 -1.4356 -0.65026 0
M  V30 7217 C 685.606 -1.45549 -1.41221 0
M  V30 7218 C 685.939 -0.0805472 -1.94033 0
M  V30 7219 O 685.214 0.899043 -1.72475 0
M  V30 7220 C 685.497 -2.50028 -2.59148 0
M  V30 7221 C 685.35 -3.96808 -2.1181 0
M  V30 7222 C 686.669 -2.51212 -3.61359 0
M  V30 7223 H 683.788 -0.529967 -0.512156 0
M  V30 7224 H 686.43 -1.75127 -0.736933 0
M  V30 7225 H 684.58 -2.24937 -3.16758 0
M  V30 7226 H 686.252 -4.32966 -1.59178 0
M  V30 7227 H 684.495 -4.09498 -1.43156 0
M  V30 7228 H 685.166 -4.6553 -2.96625 0
M  V30 7229 H 687.642 -2.73583 -3.13515 0
M  V30 7230 H 686.518 -3.26252 -4.41419 0
M  V30 7231 H 686.779 -1.54701 -4.1415 0
M  V30 7232 N 685.838 0.888903 -1.30139 0
M  V30 7233 C 686.77 1.99972 -1.11999 0
M  V30 7234 C 687.783 1.62673 -0.0643619 0
M  V30 7235 O 688.972 1.75788 -0.309983 0
M  V30 7236 C 686.072 3.31904 -0.685059 0
M  V30 7237 C 685.245 3.97665 -1.82158 0
M  V30 7238 C 684.304 5.07894 -1.37585 0
M  V30 7239 O 683.33 5.2974 -2.08241 0
M  V30 7240 N 684.532 5.7995 -0.252697 0
M  V30 7241 H 687.297 2.16085 -2.07671 0
M  V30 7242 H 684.858 1.06175 -1.22223 0
M  V30 7243 H 686.85 4.03005 -0.369964 0
M  V30 7244 H 685.42 3.12084 0.179507 0
M  V30 7245 H 684.64 3.19787 -2.305 0
M  V30 7246 H 685.928 4.3834 -2.58332 0
M  V30 7247 H 685.326 5.647 0.336141 0
M  V30 7248 H 683.883 6.518 0.00296813 0
M  V30 7249 N 687.317 1.12792 1.10072 0
M  V30 7250 C 688.264 0.79921 2.16521 0
M  V30 7251 C 689.234 -0.235726 1.64419 0
M  V30 7252 O 690.419 -0.109457 1.90486 0
M  V30 7253 C 687.559 0.264091 3.44088 0
M  V30 7254 C 686.672 1.35729 4.10124 0
M  V30 7255 C 685.807 0.781212 5.25424 0
M  V30 7256 C 684.846 1.85327 5.8337 0
M  V30 7257 N 683.983 1.29564 6.90042 0
M  V30 7258 H 688.823 1.71105 2.43981 0
M  V30 7259 H 686.36 0.854225 1.19756 0
M  V30 7260 H 688.318 -0.0642423 4.17151 0
M  V30 7261 H 686.948 -0.610901 3.16967 0
M  V30 7262 H 686 1.80234 3.34993 0
M  V30 7263 H 687.312 2.16782 4.4923 0
M  V30 7264 H 686.466 0.403769 6.05355 0
M  V30 7265 H 685.205 -0.0604686 4.87663 0
M  V30 7266 H 684.21 2.23986 5.02106 0
M  V30 7267 H 685.435 2.69824 6.23195 0
M  V30 7268 H 683.381 0.475844 6.54272 0
M  V30 7269 H 683.298 2.04271 7.2788 0
M  V30 7270 H 684.566 0.945545 7.73744 0
M  V30 7271 N 688.795 -1.27931 0.920396 0
M  V30 7272 C 690.041 -1.94977 0.557832 0
M  V30 7273 C 690.374 -1.72224 -0.897365 0
M  V30 7274 O 689.649 -1.04705 -1.63912 0
M  V30 7275 C 689.932 -3.49289 0.875741 0
M  V30 7276 C 689.785 -3.81416 2.38416 0
M  V30 7277 C 691.104 -4.38486 0.376517 0
M  V30 7278 H 688.223 -0.708164 0.20414 0
M  V30 7279 H 690.865 -1.5118 1.15085 0
M  V30 7280 H 689.015 -3.86724 0.371062 0
M  V30 7281 H 690.687 -3.53813 2.95997 0
M  V30 7282 H 688.93 -3.28225 2.83639 0
M  V30 7283 H 689.601 -4.89198 2.55713 0
M  V30 7284 H 692.077 -4.08161 0.808945 0
M  V30 7285 H 690.953 -5.45296 0.627976 0
M  V30 7286 H 691.214 -4.36143 -0.723293 0
M  V30 7287 N 690.273 -0.685099 -1.4193 0
M  V30 7288 C 691.501 -0.220372 -2.05723 0
M  V30 7289 C 691.916 1.12642 -1.51516 0
M  V30 7290 O 691.273 1.70182 -0.659114 0
M  V30 7291 C 691.324 -0.157974 -3.61155 0
M  V30 7292 O 691.045 -1.45156 -4.13354 0
M  V30 7293 C 692.546 0.329009 -4.42077 0
M  V30 7294 H 689.766 -0.104725 -0.662777 0
M  V30 7295 H 692.31 -0.934736 -1.81887 0
M  V30 7296 H 690.465 0.507144 -3.84066 0
M  V30 7297 H 690.879 -1.33172 -5.07312 0
M  V30 7298 H 692.353 0.321559 -5.51063 0
M  V30 7299 H 692.83 1.36608 -4.17414 0
M  V30 7300 H 693.436 -0.304737 -4.24207 0
M  V30 7301 N 691.751 1.51645 -0.429126 0
M  V30 7302 C 693.162 1.86665 0.0359003 0
M  V30 7303 C 693.513 1.34677 1.42676 0
M  V30 7304 O 692.638 0.694195 2.04963 0
M  V30 7305 C 693.233 3.38724 0.0719221 0
M  V30 7306 C 691.792 3.7331 0.481336 0
M  V30 7307 C 690.939 2.75313 -0.331329 0
M  V30 7308 H 693.89 1.44987 -0.645333 0
M  V30 7309 H 693.911 3.7011 0.883118 0
M  V30 7310 H 693.423 3.76532 -0.940495 0
M  V30 7311 H 691.524 3.41088 1.49966 0
M  V30 7312 H 691.637 4.78631 0.211837 0
M  V30 7313 H 690.001 2.53839 0.209204 0
M  V30 7314 H 690.784 3.15963 -1.34247 0
M  V30 7315 N 693.229 0.160201 1.56784 0
M  V30 7316 C 694.161 -0.80564 2.14574 0
M  V30 7317 C 695.174 -1.20154 1.09849 0
M  V30 7318 O 696.363 -1.14333 1.37078 0
M  V30 7319 C 693.463 -2.09434 2.6644 0
M  V30 7320 C 692.636 -1.86375 3.95706 0
M  V30 7321 C 691.695 -2.99358 4.32749 0
M  V30 7322 O 690.721 -2.70475 5.00831 0
M  V30 7323 N 691.923 -4.26867 3.93402 0
M  V30 7324 H 694.688 -0.311644 2.98075 0
M  V30 7325 H 692.249 -0.0229465 1.61884 0
M  V30 7326 H 694.241 -2.84091 2.88226 0
M  V30 7327 H 692.811 -2.50057 1.8759 0
M  V30 7328 H 692.031 -0.956821 3.82412 0
M  V30 7329 H 693.319 -1.68322 4.80151 0
M  V30 7330 H 692.717 -4.53197 3.38569 0
M  V30 7331 H 691.274 -4.98263 4.20211 0
M  V30 7332 N 694.707 -1.5719 -0.113559 0
M  V30 7333 C 695.932 -1.89702 -0.838336 0
M  V30 7334 C 696.357 -0.752679 -1.72384 0
M  V30 7335 O 695.715 0.296575 -1.78858 0
M  V30 7336 C 695.763 -3.20989 -1.64312 0
M  V30 7337 O 694.867 -3.07278 -2.75053 0
M  V30 7338 H 694.208 -0.622339 -0.231496 0
M  V30 7339 H 696.738 -2.04382 -0.0943228 0
M  V30 7340 H 696.748 -3.53843 -2.03123 0
M  V30 7341 H 695.423 -4.03869 -0.993119 0
M  V30 7342 H 694 -2.85901 -2.39406 0
M  V30 7343 N 696.185 0.383891 -1.52853 0
M  V30 7344 C 697.462 1.14296 -1.58732 0
M  V30 7345 C 697.842 2.07585 -0.383611 0
M  V30 7346 O 697.19 2.1971 0.627661 0
M  V30 7347 C 697.4 1.89816 -2.92867 0
M  V30 7348 C 698.748 2.44998 -3.46787 0
M  V30 7349 O 699.772 1.99966 -2.94774 0
M  V30 7350 O 698.631 3.2727 -4.37672 0
M  V30 7351 H 695.725 0.52326 -0.640413 0
M  V30 7352 H 698.271 0.388631 -1.6519 0
M  V30 7353 H 697.043 1.21626 -3.71918 0
M  V30 7354 H 696.666 2.72199 -2.89816 0
M  V30 7355 N 697.663 1.43903 0.642637 0
M  V30 7356 C 698.911 1.45791 1.39962 0
M  V30 7357 C 699.232 0.0873144 1.94804 0
M  V30 7358 O 698.502 -0.878825 1.75081 0
M  V30 7359 H 697.082 0.536797 0.519479 0
M  V30 7360 H 699.744 1.7959 0.757189 0
M  V30 7361 H 698.84 2.17665 2.2367 0
M  V30 7362 N 699.141 -0.881989 1.30609 0
M  V30 7363 C 700.366 -1.67236 1.22665 0
M  V30 7364 C 700.791 -1.8696 -0.206777 0
M  V30 7365 O 700.149 -1.4027 -1.14865 0
M  V30 7366 C 700.197 -3.02446 1.96363 0
M  V30 7367 O 699.301 -3.91614 1.29276 0
M  V30 7368 H 698.642 -0.510902 0.424117 0
M  V30 7369 H 701.172 -1.10055 1.72479 0
M  V30 7370 H 701.182 -3.52468 2.055 0
M  V30 7371 H 699.857 -2.8741 3.00613 0
M  V30 7372 H 698.434 -3.50055 1.28514 0
M  V30 7373 N 700.619 -1.13374 -1.09472 0
M  V30 7374 C 701.844 -0.918711 -1.85942 0
M  V30 7375 C 702.269 0.527225 -1.8056 0
M  V30 7376 O 701.627 1.37408 -1.18274 0
M  V30 7377 C 701.675 -1.41056 -3.31867 0
M  V30 7378 O 700.779 -0.595496 -4.08078 0
M  V30 7379 H 700.12 -0.329297 -0.576593 0
M  V30 7380 H 702.65 -1.50829 -1.38245 0
M  V30 7381 H 702.66 -1.41398 -3.82715 0
M  V30 7382 H 701.335 -2.46335 -3.35099 0
M  V30 7383 H 699.912 -0.659911 -3.67014 0
M  V30 7384 N 702.098 1.27442 -0.927168 0
M  V30 7385 C 703.323 1.99036 -0.583042 0
M  V30 7386 C 703.748 1.68711 0.83176 0
M  V30 7387 O 703.106 0.927081 1.55804 0
M  V30 7388 C 703.154 3.51271 -0.814925 0
M  V30 7389 O 702.258 4.12226 0.119742 0
M  V30 7390 H 701.599 0.624883 -0.224538 0
M  V30 7391 H 704.129 1.62263 -1.24628 0
M  V30 7392 H 704.139 4.01411 -0.730282 0
M  V30 7393 H 702.814 3.72676 -1.84623 0
M  V30 7394 H 701.391 3.72897 -0.0147688 0
M  V30 7395 N 703.576 0.692616 1.41565 0
M  V30 7396 C 704.523 0.0254264 2.30786 0
M  V30 7397 C 705.493 -0.774347 1.46946 0
M  V30 7398 O 706.678 -0.742981 1.7574 0
M  V30 7399 C 703.818 -0.907123 3.32964 0
M  V30 7400 C 702.931 -0.0992784 4.31886 0
M  V30 7401 C 702.066 -1.0292 5.21134 0
M  V30 7402 C 701.105 -0.214088 6.11725 0
M  V30 7403 N 700.242 -1.09766 6.93467 0
M  V30 7404 H 705.082 0.792036 2.87282 0
M  V30 7405 H 702.619 0.4023 1.41492 0
M  V30 7406 H 704.577 -1.46181 3.90752 0
M  V30 7407 H 703.207 -1.64016 2.78026 0
M  V30 7408 H 702.259 0.572287 3.76071 0
M  V30 7409 H 703.571 0.532782 4.95946 0
M  V30 7410 H 702.725 -1.65321 5.83741 0
M  V30 7411 H 701.464 -1.69512 4.57293 0
M  V30 7412 H 700.469 0.42302 5.4817 0
M  V30 7413 H 701.694 0.447995 6.77621 0
M  V30 7414 H 699.64 -1.74965 6.32237 0
M  V30 7415 H 699.557 -0.521099 7.54202 0
M  V30 7416 H 700.825 -1.70858 7.60544 0
M  V30 7417 N 705.054 -1.51416 0.437162 0
M  V30 7418 C 706.3 -2.02386 -0.129555 0
M  V30 7419 C 706.633 -1.32071 -1.42376 0
M  V30 7420 O 705.908 -0.43559 -1.8956 0
M  V30 7421 C 706.191 -3.5841 -0.348487 0
M  V30 7422 C 706.044 -4.39341 0.964352 0
M  V30 7423 C 707.363 -4.25654 -1.11834 0
M  V30 7424 H 704.482 -0.735587 -0.0456109 0
M  V30 7425 H 707.124 -1.81055 0.576124 0
M  V30 7426 H 705.274 -3.76716 -0.949592 0
M  V30 7427 H 706.946 -4.32685 1.59942 0
M  V30 7428 H 705.189 -4.04432 1.56898 0
M  V30 7429 H 705.86 -5.4667 0.765212 0
M  V30 7430 H 708.336 -4.11617 -0.609165 0
M  V30 7431 H 707.212 -5.34704 -1.24029 0
M  V30 7432 H 707.473 -3.86502 -2.14636 0
M  V30 7433 N 706.532 -0.168513 -1.56696 0
M  V30 7434 C 707.479 0.762875 -2.17828 0
M  V30 7435 C 708.449 1.22892 -1.11745 0
M  V30 7436 O 709.634 1.29759 -1.39883 0
M  V30 7437 C 706.774 1.9879 -2.82093 0
M  V30 7438 C 705.887 1.56568 -4.02629 0
M  V30 7439 C 705.022 2.74416 -4.54829 0
M  V30 7440 C 704.061 2.28671 -5.67782 0
M  V30 7441 N 703.198 3.39602 -6.14504 0
M  V30 7442 H 708.038 0.23479 -2.97074 0
M  V30 7443 H 705.575 0.104163 -1.46731 0
M  V30 7444 H 707.533 2.70636 -3.17509 0
M  V30 7445 H 706.163 2.48973 -2.05456 0
M  V30 7446 H 705.215 0.744067 -3.73052 0
M  V30 7447 H 706.527 1.18988 -4.844 0
M  V30 7448 H 705.681 3.54423 -4.92412 0
M  V30 7449 H 704.42 3.15254 -3.7211 0
M  V30 7450 H 703.425 1.4711 -5.29753 0
M  V30 7451 H 704.65 1.88894 -6.52301 0
M  V30 7452 H 702.596 3.80021 -5.34715 0
M  V30 7453 H 702.513 3.06105 -6.91257 0
M  V30 7454 H 703.781 4.19902 -6.56737 0
M  V30 7455 N 708.01 1.57248 0.105221 0
M  V30 7456 C 709.256 1.85845 0.811753 0
M  V30 7457 C 709.589 0.756219 1.78871 0
M  V30 7458 O 708.864 -0.236736 1.93054 0
M  V30 7459 C 709.147 3.25059 1.54947 0
M  V30 7460 C 709 4.45898 0.591185 0
M  V30 7461 C 710.319 3.6203 2.50245 0
M  V30 7462 H 707.438 0.675973 0.293649 0
M  V30 7463 H 710.08 1.89849 0.0756269 0
M  V30 7464 H 708.23 3.21776 2.17698 0
M  V30 7465 H 709.902 4.61291 -0.0285352 0
M  V30 7466 H 708.145 4.33693 -0.0962343 0
M  V30 7467 H 708.816 5.40009 1.1443 0
M  V30 7468 H 711.292 3.66192 1.97593 0
M  V30 7469 H 710.168 4.60389 2.98886 0
M  V30 7470 H 710.429 2.90176 3.33542 0
M  V30 7471 N 709.488 -0.375779 1.53054 0
M  V30 7472 C 710.435 -1.45978 1.78771 0
M  V30 7473 C 711.405 -1.53625 0.631552 0
M  V30 7474 O 712.59 -1.69674 0.872667 0
M  V30 7475 C 709.73 -2.8305 1.97425 0
M  V30 7476 C 708.843 -2.84451 3.25134 0
M  V30 7477 C 707.978 -4.13034 3.34031 0
M  V30 7478 C 707.017 -4.08536 4.55812 0
M  V30 7479 N 706.154 -5.2875 4.61918 0
M  V30 7480 H 710.994 -1.23349 2.71273 0
M  V30 7481 H 708.531 -0.598147 1.3439 0
M  V30 7482 H 710.489 -3.62666 2.06225 0
M  V30 7483 H 709.119 -3.04101 1.0827 0
M  V30 7484 H 708.171 -1.97127 3.25338 0
M  V30 7485 H 709.483 -2.76998 4.14818 0
M  V30 7486 H 708.637 -5.0106 3.42087 0
M  V30 7487 H 707.376 -4.23226 2.42345 0
M  V30 7488 H 706.381 -3.18897 4.47867 0
M  V30 7489 H 707.606 -3.99955 5.48828 0
M  V30 7490 H 705.552 -5.39547 3.73129 0
M  V30 7491 H 705.469 -5.23426 5.45492 0
M  V30 7492 H 706.737 -6.18637 4.74245 0
M  V30 7493 N 710.966 -1.44241 -0.634997 0
M  V30 7494 C 712.212 -1.47038 -1.39669 0
M  V30 7495 C 712.545 -0.101122 -1.93937 0
M  V30 7496 O 711.82 0.880699 -1.73418 0
M  V30 7497 C 712.103 -2.52763 -2.56482 0
M  V30 7498 C 711.956 -3.99032 -2.07589 0
M  V30 7499 C 713.275 -2.55031 -3.58674 0
M  V30 7500 H 710.394 -0.53537 -0.506506 0
M  V30 7501 H 713.036 -1.75898 -0.718317 0
M  V30 7502 H 711.186 -2.28284 -3.14354 0
M  V30 7503 H 712.858 -4.3463 -1.54577 0
M  V30 7504 H 711.101 -4.10994 -1.38804 0
M  V30 7505 H 711.772 -4.68649 -2.91671 0
M  V30 7506 H 714.248 -2.76893 -3.10595 0
M  V30 7507 H 713.124 -3.30916 -4.37934 0
M  V30 7508 H 713.385 -1.59085 -4.12486 0
M  V30 7509 N 712.444 0.87505 -1.31075 0
M  V30 7510 C 713.86 1.15997 -1.09622 0
M  V30 7511 C 714.06 2.01036 0.136611 0
M  V30 7512 O 713.116 2.38559 0.827397 0
M  V30 7513 C 714.429 1.85702 -2.36506 0
M  V30 7514 C 715.977 1.98425 -2.42067 0
M  V30 7515 C 716.452 2.71544 -3.68819 0
M  V30 7516 N 717.943 2.79084 -3.69684 0
M  V30 7517 C 718.678 3.36259 -4.64454 0
M  V30 7518 N 718.174 3.94406 -5.69575 0
M  V30 7519 N 719.967 3.34169 -4.51982 0
M  V30 7520 H 712.118 0.308258 -2.10151 0
M  V30 7521 H 714.381 0.199145 -0.926847 0
M  V30 7522 H 714.087 1.30663 -3.26527 0
M  V30 7523 H 713.961 2.86017 -2.45915 0
M  V30 7524 H 716.348 2.5263 -1.52518 0
M  V30 7525 H 716.429 0.971682 -2.36626 0
M  V30 7526 H 716.073 2.18008 -4.58732 0
M  V30 7527 H 716.003 3.73198 -3.71525 0
M  V30 7528 H 718.494 2.3781 -2.93691 0
M  V30 7529 H 718.807 4.36129 -6.37974 0
M  V30 7530 H 717.152 3.92797 -5.73355 0
M  V30 7531 H 720.343 2.87977 -3.69035 0
M  V30 7532 H 720.516 3.78431 -5.26017 0
M  V30 7533 N 713.922 1.13953 1.08869 0
M  V30 7534 C 715.168 0.906151 1.8143 0
M  V30 7535 C 715.501 -0.566089 1.85766 0
M  V30 7536 O 714.776 -1.41915 1.33006 0
M  V30 7537 C 715.059 1.50183 3.27287 0
M  V30 7538 C 714.912 3.04359 3.31189 0
M  V30 7539 C 716.231 1.17477 4.24131 0
M  V30 7540 H 713.35 0.330624 0.658678 0
M  V30 7541 H 715.992 1.40873 1.27495 0
M  V30 7542 H 714.142 1.07442 3.73348 0
M  V30 7543 H 715.814 3.55896 2.93488 0
M  V30 7544 H 714.057 3.39053 2.70602 0
M  V30 7545 H 714.728 3.41141 4.33966 0
M  V30 7546 H 717.204 1.5442 3.86385 0
M  V30 7547 H 716.08 1.61795 5.24513 0
M  V30 7548 H 716.341 0.0893312 4.4201 0
M  V30 7549 N 715.4 -1.26948 0.933913 0
M  V30 7550 C 716.348 -2.2862 0.428463 0
M  V30 7551 C 717.342 -1.62144 -0.490464 0
M  V30 7552 O 718.548 -1.76167 -0.36948 0
M  V30 7553 H 714.923 -0.742363 0.120003 0
M  V30 7554 H 716.894 -2.68659 1.29865 0
M  V30 7555 C 715.643 -3.46423 -0.29774 0
M  V30 7556 H 714.966 -3.97792 0.400183 0
M  V30 7557 H 716.406 -4.19505 -0.615736 0
M  V30 7558 C 714.865 -3.01017 -1.51295 0
M  V30 7559 O 715.395 -3.05226 -2.61151 0
M  V30 7560 N 713.601 -2.56442 -1.36696 0
M  V30 7561 H 713.148 -2.53217 -0.473178 0
M  V30 7562 H 713.106 -2.26424 -2.18127 0
M  V30 7563 N 716.879 -0.700114 -1.41195 0
M  V30 7564 C 718.125 -0.233351 -2.01453 0
M  V30 7565 C 718.458 1.16548 -1.55339 0
M  V30 7566 O 717.733 1.78756 -0.766575 0
M  V30 7567 C 718.016 -0.2961 -3.58881 0
M  V30 7568 C 717.869 -1.7322 -4.15108 0
M  V30 7569 C 719.188 0.341525 -4.38773 0
M  V30 7570 H 716.307 -0.0862667 -0.731934 0
M  V30 7571 H 718.949 -0.889693 -1.67882 0
M  V30 7572 H 717.099 0.262736 -3.87611 0
M  V30 7573 H 718.771 -2.34523 -3.97236 0
M  V30 7574 H 717.014 -2.2649 -3.69979 0
M  V30 7575 H 717.685 -1.7276 -5.24269 0
M  V30 7576 H 720.161 -0.134461 -4.15883 0
M  V30 7577 H 719.037 0.267098 -5.4825 0
M  V30 7578 H 719.298 1.42289 -4.18577 0
M  V30 7579 N 718.357 1.51182 -0.445186 0
M  V30 7580 C 719.307 2.24804 0.380394 0
M  V30 7581 C 720.291 1.27344 0.983482 0
M  V30 7582 O 721.483 1.52392 0.900322 0
M  V30 7583 C 718.612 3.09922 1.4766 0
M  V30 7584 C 717.698 4.14816 0.882517 0
M  V30 7585 N 718.089 5.05797 0.0183278 0
M  V30 7586 C 716.387 4.30938 1.14927 0
M  V30 7587 C 717.088 5.8084 -0.316152 0
M  V30 7588 N 716.064 5.42759 0.302214 0
M  V30 7589 H 719.866 2.92508 -0.285737 0
M  V30 7590 H 717.38 1.60342 -0.257733 0
M  V30 7591 H 719.377 3.61249 2.08098 0
M  V30 7592 H 718.037 2.43763 2.14498 0
M  V30 7593 H 719.048 5.16725 -0.348679 0
M  V30 7594 H 715.725 3.76005 1.81457 0
M  V30 7595 H 717.115 6.64115 -1.01986 0
M  V30 7596 N 719.835 0.176821 1.56605 0
M  V30 7597 C 721.083 -0.465793 1.96659 0
M  V30 7598 C 721.404 -1.63406 1.06412 0
M  V30 7599 O 720.674 -1.95457 0.131603 0
M  V30 7600 H 719.254 -0.175072 0.726195 0
M  V30 7601 H 721.916 0.25929 1.93168 0
M  V30 7602 H 721.012 -0.822138 3.01077 0
M  V30 7603 N 721.313 -1.57302 -0.09688 0
M  V30 7604 C 722.562 -1.85183 -0.799388 0
M  V30 7605 C 722.875 -0.765818 -1.79985 0
M  V30 7606 O 724.081 -0.931696 -2.55013 0
M  V30 7607 C 722.537 -3.28399 -1.47249 0
M  V30 7608 C 722.145 -4.45066 -0.511888 0
M  V30 7609 C 723.889 -3.65506 -2.15883 0
M  V30 7610 C 721.796 -5.79315 -1.18948 0
M  V30 7611 H 720.726 -0.690752 -0.302287 0
M  V30 7612 H 723.377 -1.83425 -0.0523104 0
M  V30 7613 H 721.759 -3.24692 -2.26697 0
M  V30 7614 H 722.933 -4.60116 0.250962 0
M  V30 7615 H 721.248 -4.16343 0.0686576 0
M  V30 7616 H 723.845 -4.63087 -2.67309 0
M  V30 7617 H 724.188 -2.94041 -2.94696 0
M  V30 7618 H 724.721 -3.71094 -1.43298 0
M  V30 7619 H 721.46 -6.54007 -0.442198 0
M  V30 7620 H 720.98 -5.68111 -1.9238 0
M  V30 7621 H 722.659 -6.23816 -1.71646 0
M  V30 7622 N 722.791 0.367657 -1.53252 0
M  V30 7623 C 724.038 1.11052 -1.69333 0
M  V30 7624 C 724.366 1.89363 -0.444064 0
M  V30 7625 O 723.621 1.87094 0.573953 0
M  V30 7626 C 723.92 2.09825 -2.89324 0
M  V30 7627 C 723.586 1.4801 -4.25915 0
M  V30 7628 C 722.248 1.30879 -4.6306 0
M  V30 7629 C 724.6 1.03268 -5.10867 0
M  V30 7630 C 721.928 0.675868 -5.82794 0
M  V30 7631 C 724.28 0.41377 -6.31245 0
M  V30 7632 C 722.944 0.229939 -6.67104 0
M  V30 7633 H 722.214 0.406367 -0.619634 0
M  V30 7634 H 724.861 0.392558 -1.87433 0
M  V30 7635 H 723.166 2.87917 -2.65728 0
M  V30 7636 H 724.863 2.67252 -2.98961 0
M  V30 7637 H 721.453 1.62336 -3.96667 0
M  V30 7638 H 725.637 1.15297 -4.82722 0
M  V30 7639 H 720.893 0.521833 -6.09169 0
M  V30 7640 H 725.067 0.0588768 -6.96375 0
M  V30 7641 H 722.694 -0.262562 -7.59746 0
M  V30 7642 N 724.269 1.44576 0.627338 0
M  V30 7643 C 725.494 1.51271 1.41887 0
M  V30 7644 C 725.919 0.139814 1.8758 0
M  V30 7645 O 725.277 -0.871746 1.58966 0
M  V30 7646 C 725.325 2.48529 2.61277 0
M  V30 7647 O 724.429 1.98944 3.61241 0
M  V30 7648 H 723.77 0.510668 0.424399 0
M  V30 7649 H 726.3 1.89746 0.765356 0
M  V30 7650 H 726.31 2.66689 3.08773 0
M  V30 7651 H 724.985 3.48249 2.27366 0
M  V30 7652 H 723.562 1.90568 3.20528 0
M  V30 7653 N 725.747 -0.868086 1.31537 0
M  V30 7654 C 726.993 -1.62367 1.2151 0
M  V30 7655 C 727.326 -1.92883 -0.225819 0
M  V30 7656 O 726.601 -1.56176 -1.15927 0
M  V30 7657 C 726.884 -2.95268 2.06129 0
M  V30 7658 C 726.737 -2.71619 3.58529 0
M  V30 7659 C 728.056 -3.96391 1.91212 0
M  V30 7660 H 725.175 -0.589178 0.442762 0
M  V30 7661 H 727.817 -1.00336 1.61347 0
M  V30 7662 H 725.967 -3.4821 1.72284 0
M  V30 7663 H 727.639 -2.25334 4.0252 0
M  V30 7664 H 725.882 -2.05817 3.81866 0
M  V30 7665 H 726.553 -3.66192 4.13047 0
M  V30 7666 H 729.029 -3.52663 2.20834 0
M  V30 7667 H 727.905 -4.87263 2.52718 0
M  V30 7668 H 728.166 -4.33335 0.875953 0
M  V30 7669 N 727.225 -1.14528 -1.08264 0
M  V30 7670 C 728.45 -0.938381 -1.84957 0
M  V30 7671 C 728.875 0.508044 -1.81109 0
M  V30 7672 O 728.233 1.36146 -1.19724 0
M  V30 7673 C 728.281 -1.44568 -3.30352 0
M  V30 7674 O 727.385 -0.638745 -4.07423 0
M  V30 7675 H 726.726 -0.335394 -0.573068 0
M  V30 7676 H 729.256 -1.52287 -1.36637 0
M  V30 7677 H 729.266 -1.45449 -3.81194 0
M  V30 7678 H 727.941 -2.49876 -3.32468 0
M  V30 7679 H 726.518 -0.698801 -3.66294 0
M  V30 7680 N 728.703 1.26451 -0.940633 0
M  V30 7681 C 729.928 1.98407 -0.60412 0
M  V30 7682 C 730.353 1.69584 0.81382 0
M  V30 7683 O 729.711 0.943553 1.54812 0
M  V30 7684 C 729.759 3.50387 -0.852136 0
M  V30 7685 O 728.863 4.1233 0.076013 0
M  V30 7686 H 728.204 0.622466 -0.231153 0
M  V30 7687 H 730.734 1.60932 -1.26342 0
M  V30 7688 H 730.744 4.00614 -0.772816 0
M  V30 7689 H 729.419 3.70696 -1.88566 0
M  V30 7690 H 727.996 3.7286 -0.0543187 0
M  V30 7691 N 730.181 0.707592 1.40822 0
M  V30 7692 C 731.144 0.0587224 2.29125 0
M  V30 7693 C 732.144 -0.695624 1.44975 0
M  V30 7694 O 733.334 -0.528718 1.65983 0
M  V30 7695 C 730.466 -0.926939 3.28056 0
M  V30 7696 H 731.659 0.836349 2.88002 0
M  V30 7697 H 729.212 0.471778 1.4901 0
M  V30 7698 H 729.947 -1.7319 2.74182 0
M  V30 7699 H 729.732 -0.389015 3.90165 0
M  V30 7700 H 731.222 -1.37837 3.94196 0
M  V30 7701 N 731.66 -1.50943 0.453197 0
M  V30 7702 C 732.885 -2.07116 -0.108463 0
M  V30 7703 C 733.31 -1.31681 -1.3432 0
M  V30 7704 O 732.668 -0.359256 -1.77705 0
M  V30 7705 C 732.716 -3.58447 -0.393424 0
M  V30 7706 O 731.82 -3.85038 -1.47714 0
M  V30 7707 H 731.161 -0.66398 0.0050993 0
M  V30 7708 H 733.691 -1.94362 0.639095 0
M  V30 7709 H 733.701 -4.02961 -0.639222 0
M  V30 7710 H 732.376 -4.12774 0.508946 0
M  V30 7711 H 730.953 -3.52376 -1.22006 0
M  V30 7712 N 733.138 -0.185124 -1.56509 0
M  V30 7713 C 734.068 0.735098 -2.21627 0
M  V30 7714 C 735.049 1.2288 -1.1762 0
M  V30 7715 O 736.234 1.27945 -1.46095 0
M  V30 7716 C 733.364 1.95889 -2.86783 0
M  V30 7717 C 732.318 1.6005 -3.96948 0
M  V30 7718 C 731.644 2.90009 -4.4922 0
M  V30 7719 C 732.944 0.818008 -5.15855 0
M  V30 7720 H 734.638 0.192274 -2.98782 0
M  V30 7721 H 732.184 0.0910393 -1.43712 0
M  V30 7722 H 734.137 2.60779 -3.31017 0
M  V30 7723 H 732.861 2.52608 -2.07018 0
M  V30 7724 H 731.52 0.975237 -3.5339 0
M  V30 7725 H 731.168 3.44797 -3.6623 0
M  V30 7726 H 730.868 2.66778 -5.23549 0
M  V30 7727 H 732.392 3.55904 -4.9615 0
M  V30 7728 H 733.806 1.36979 -5.56695 0
M  V30 7729 H 732.203 0.684207 -5.96187 0
M  V30 7730 H 733.273 -0.182939 -4.84555 0
M  V30 7731 N 734.616 1.57351 0.0885366 0
M  V30 7732 C 735.862 1.86696 0.791996 0
M  V30 7733 C 736.195 0.775148 1.78059 0
M  V30 7734 O 735.47 -0.216247 1.93294 0
M  V30 7735 C 735.753 3.26684 1.51491 0
M  V30 7736 C 735.606 4.465 0.543858 0
M  V30 7737 C 736.925 3.64664 2.46391 0
M  V30 7738 H 734.044 0.679049 0.286463 0
M  V30 7739 H 736.686 1.89919 0.0554866 0
M  V30 7740 H 734.836 3.24067 2.14273 0
M  V30 7741 H 736.508 4.61235 -0.0774597 0
M  V30 7742 H 734.751 4.33567 -0.142228 0
M  V30 7743 H 735.422 5.41192 1.08696 0
M  V30 7744 H 737.898 3.68267 1.93698 0
M  V30 7745 H 736.774 4.63534 2.93986 0
M  V30 7746 H 737.035 2.93698 3.30445 0
M  V30 7747 N 736.094 -0.359525 1.53444 0
M  V30 7748 C 737.004 -1.46445 1.83278 0
M  V30 7749 C 738.02 -1.5833 0.721629 0
M  V30 7750 O 739.196 -1.7411 1.01231 0
M  V30 7751 C 736.261 -2.81638 2.02191 0
M  V30 7752 C 735.322 -2.7923 3.26082 0
M  V30 7753 C 734.555 -4.07974 3.44082 0
M  V30 7754 O 734.778 -5.04447 2.66251 0
M  V30 7755 O 733.712 -4.13417 4.37458 0
M  V30 7756 H 737.538 -1.24156 2.77162 0
M  V30 7757 H 735.123 -0.550201 1.389 0
M  V30 7758 H 737.005 -3.61732 2.16167 0
M  V30 7759 H 735.68 -3.03892 1.11496 0
M  V30 7760 H 734.587 -1.97813 3.17523 0
M  V30 7761 H 735.92 -2.6193 4.16718 0
M  V30 7762 N 737.572 -1.44907 -0.619662 0
M  V30 7763 C 738.818 -1.48512 -1.38102 0
M  V30 7764 C 739.151 -0.121686 -1.93818 0
M  V30 7765 O 738.426 0.862256 -1.74343 0
M  V30 7766 C 738.709 -2.55469 -2.53787 0
M  V30 7767 C 738.562 -4.01212 -2.03345 0
M  V30 7768 C 739.881 -2.58821 -3.55949 0
M  V30 7769 H 737 -0.540712 -0.500799 0
M  V30 7770 H 739.642 -1.7665 -0.69962 0
M  V30 7771 H 737.792 -2.31606 -3.11915 0
M  V30 7772 H 739.464 -4.36245 -1.49959 0
M  V30 7773 H 737.707 -4.12443 -1.34438 0
M  V30 7774 H 738.378 -4.71717 -2.86683 0
M  V30 7775 H 740.854 -2.80172 -3.07641 0
M  V30 7776 H 739.73 -3.35542 -4.34399 0
M  V30 7777 H 739.991 -1.63451 -4.10775 0
M  V30 7778 N 739.05 0.861098 -1.31996 0
M  V30 7779 C 740 1.95703 -1.1698 0
M  V30 7780 C 740.984 1.60709 -0.0784201 0
M  V30 7781 O 742.176 1.74365 -0.304262 0
M  V30 7782 C 739.305 3.31606 -0.888388 0
M  V30 7783 C 738.391 3.7284 -2.02117 0
M  V30 7784 N 738.782 3.85957 -3.26911 0
M  V30 7785 C 737.08 4.02419 -1.92289 0
M  V30 7786 C 737.781 4.21333 -4.01065 0
M  V30 7787 N 736.757 4.32502 -3.29307 0
M  V30 7788 H 740.559 2.03968 -2.11599 0
M  V30 7789 H 738.073 1.05245 -1.23682 0
M  V30 7790 H 740.07 4.09881 -0.761782 0
M  V30 7791 H 738.73 3.24662 0.0494898 0
M  V30 7792 H 739.741 3.70449 -3.61923 0
M  V30 7793 H 736.418 4.03814 -1.06022 0
M  V30 7794 H 737.808 4.39005 -5.08649 0
M  V30 7795 N 740.528 1.15101 1.07655 0
M  V30 7796 C 741.475 0.844958 2.14777 0
M  V30 7797 C 742.445 -0.200798 1.64882 0
M  V30 7798 O 743.63 -0.0690278 1.90675 0
M  V30 7799 C 740.77 0.337018 3.4345 0
M  V30 7800 C 739.883 1.44398 4.07153 0
M  V30 7801 C 739.018 0.892487 5.23649 0
M  V30 7802 C 738.057 1.9766 5.79307 0
M  V30 7803 N 737.194 1.44171 6.87138 0
M  V30 7804 H 742.034 1.76242 2.40297 0
M  V30 7805 H 739.571 0.879435 1.17917 0
M  V30 7806 H 741.529 0.024256 4.17193 0
M  V30 7807 H 740.159 -0.543531 3.18191 0
M  V30 7808 H 739.211 1.87299 3.31094 0
M  V30 7809 H 740.523 2.26262 4.4453 0
M  V30 7810 H 739.677 0.532083 6.04362 0
M  V30 7811 H 738.416 0.0429854 4.87681 0
M  V30 7812 H 737.421 2.34586 4.97242 0
M  V30 7813 H 738.646 2.82982 6.17331 0
M  V30 7814 H 736.592 0.614518 6.53115 0
M  V30 7815 H 736.509 2.19665 7.23383 0
M  V30 7816 H 737.777 1.10945 7.71564 0
M  V30 7817 N 742.006 -1.2595 0.947325 0
M  V30 7818 C 743.231 -1.98083 0.614633 0
M  V30 7819 C 743.656 -1.70013 -0.804815 0
M  V30 7820 O 743.014 -0.95175 -1.54309 0
M  V30 7821 C 743.062 -3.4993 0.870706 0
M  V30 7822 O 742.166 -4.12364 -0.0541451 0
M  V30 7823 H 741.507 -0.621232 0.234451 0
M  V30 7824 H 744.037 -1.60259 1.27193 0
M  V30 7825 H 744.047 -4.00198 0.794051 0
M  V30 7826 H 742.722 -3.69691 1.90529 0
M  V30 7827 H 741.299 -3.72826 0.0740917 0
M  V30 7828 N 743.484 -0.715051 -1.40445 0
M  V30 7829 C 744.394 -0.0631624 -2.34515 0
M  V30 7830 C 745.41 0.744397 -1.57273 0
M  V30 7831 O 746.586 0.677475 -1.89663 0
M  V30 7832 C 743.651 0.847915 -3.36172 0
M  V30 7833 C 742.712 0.0303655 -4.29289 0
M  V30 7834 C 741.945 0.898051 -5.2609 0
M  V30 7835 O 742.168 2.13729 -5.28844 0
M  V30 7836 O 741.102 0.337328 -6.00954 0
M  V30 7837 H 744.928 -0.839078 -2.91879 0
M  V30 7838 H 742.513 -0.475527 -1.4163 0
M  V30 7839 H 744.395 1.3698 -3.98515 0
M  V30 7840 H 743.07 1.60299 -2.81222 0
M  V30 7841 H 741.977 -0.536573 -3.70232 0
M  V30 7842 H 743.31 -0.686474 -4.87389 0
M  V30 7843 N 744.962 1.50701 -0.461195 0
M  V30 7844 C 745.872 2.32069 0.343661 0
M  V30 7845 C 746.888 1.42016 1.00535 0
M  V30 7846 O 748.064 1.75077 0.995498 0
M  V30 7847 C 745.129 3.16424 1.41692 0
M  V30 7848 C 744.19 4.22286 0.772869 0
M  V30 7849 C 743.423 5.02609 1.79499 0
M  V30 7850 O 743.646 4.83874 3.0203 0
M  V30 7851 O 742.58 5.86047 1.3723 0
M  V30 7852 H 746.406 3.01996 -0.321268 0
M  V30 7853 H 743.991 1.47723 -0.223235 0
M  V30 7854 H 745.873 3.68795 2.03883 0
M  V30 7855 H 744.548 2.49236 2.0655 0
M  V30 7856 H 743.455 3.73931 0.112277 0
M  V30 7857 H 744.788 4.91915 0.167399 0
M  V30 7858 N 746.441 0.193421 1.56409 0
M  V30 7859 C 747.389 -0.744829 2.20352 0
M  V30 7860 C 748.383 -1.22104 1.17418 0
M  V30 7861 O 749.589 -1.18413 1.35567 0
M  V30 7862 H 745.964 -0.258538 0.70616 0
M  V30 7863 H 747.935 -0.181794 2.97846 0
M  V30 7864 C 746.684 -1.95453 2.87565 0
M  V30 7865 H 746.007 -1.59716 3.66512 0
M  V30 7866 H 747.447 -2.58942 3.35745 0
M  V30 7867 C 745.906 -2.79223 1.8851 0
M  V30 7868 O 746.436 -3.77093 1.38434 0
M  V30 7869 N 744.642 -2.44682 1.56777 0
M  V30 7870 H 744.189 -1.65153 1.97692 0
M  V30 7871 H 744.147 -3.01016 0.907573 0
M  V30 7872 N 747.919 -1.57396 -0.0801906 0
M  V30 7873 C 748.829 -2.06451 -1.11423 0
M  V30 7874 C 749.845 -0.992352 -1.42928 0
M  V30 7875 O 751.021 -1.30651 -1.53272 0
M  V30 7876 C 748.086 -2.49164 -2.41077 0
M  V30 7877 C 747.147 -3.70641 -2.16619 0
M  V30 7878 C 746.38 -4.11307 -3.40092 0
M  V30 7879 O 746.603 -3.51922 -4.48895 0
M  V30 7880 O 745.537 -5.04157 -3.288 0
M  V30 7881 H 749.363 -2.94857 -0.727519 0
M  V30 7882 H 746.948 -1.46484 -0.293743 0
M  V30 7883 H 748.83 -2.77196 -3.17396 0
M  V30 7884 H 747.505 -1.6389 -2.79145 0
M  V30 7885 H 746.412 -3.47703 -1.38033 0
M  V30 7886 H 747.745 -4.5674 -1.83437 0
M  V30 7887 N 749.397 0.351382 -1.53633 0
M  V30 7888 C 750.307 1.45471 -1.84052 0
M  V30 7889 C 751.323 1.57945 -0.730015 0
M  V30 7890 O 752.499 1.73571 -1.02153 0
M  V30 7891 C 749.564 2.80562 -2.03681 0
M  V30 7892 C 748.625 2.77497 -3.27558 0
M  V30 7893 C 747.858 4.06144 -3.46241 0
M  V30 7894 O 748.081 5.03028 -2.68922 0
M  V30 7895 O 747.015 4.11092 -4.39645 0
M  V30 7896 H 750.841 1.22684 -2.77817 0
M  V30 7897 H 748.426 0.542827 -1.3919 0
M  V30 7898 H 750.308 3.6058 -2.18082 0
M  V30 7899 H 748.983 3.03296 -1.13106 0
M  V30 7900 H 747.89 1.96126 -3.18568 0
M  V30 7901 H 749.223 2.59716 -4.18101 0
M  V30 7902 N 750.875 1.45233 0.611969 0
M  V30 7903 C 752.286 1.4354 1.19387 0
M  V30 7904 C 752.637 0.160713 1.95541 0
M  V30 7905 O 751.762 -0.737954 2.03429 0
M  V30 7906 C 752.357 2.60045 2.17169 0
M  V30 7907 C 750.916 2.61486 2.70744 0
M  V30 7908 C 750.063 2.35708 1.46072 0
M  V30 7909 H 753.014 1.53536 0.401529 0
M  V30 7910 H 753.035 2.33893 3.00124 0
M  V30 7911 H 752.547 3.52803 1.61714 0
M  V30 7912 H 750.648 1.72721 3.30149 0
M  V30 7913 H 750.761 3.60572 3.15476 0
M  V30 7914 H 749.125 1.85178 1.74875 0
M  V30 7915 H 749.908 3.30606 0.924922 0
M  V30 7916 N 752.353 -0.854086 1.3245 0
M  V30 7917 C 753.286 -1.96654 1.15768 0
M  V30 7918 C 754.264 -1.625 0.0569975 0
M  V30 7919 O 755.448 -1.87254 0.216412 0
M  V30 7920 C 752.575 -3.29776 0.772361 0
M  V30 7921 C 751.621 -3.82909 1.87837 0
M  V30 7922 S 752.454 -4.0643 3.48675 0
M  V30 7923 C 753.61 -5.42526 3.12116 0
M  V30 7924 H 753.843 -2.10504 2.09942 0
M  V30 7925 H 751.376 -1.00612 1.17118 0
M  V30 7926 H 753.334 -4.06706 0.556809 0
M  V30 7927 H 751.995 -3.13739 -0.150519 0
M  V30 7928 H 751.188 -4.79192 1.56177 0
M  V30 7929 H 750.79 -3.12825 2.0498 0
M  V30 7930 H 753.082 -6.24792 2.61996 0
M  V30 7931 H 754.025 -5.79148 4.07422 0
M  V30 7932 H 754.433 -5.06556 2.49121 0
M  V30 7933 N 753.831 -1.1567 -1.07043 0
M  V30 7934 C 754.741 -0.870435 -2.17855 0
M  V30 7935 C 755.757 0.154452 -1.73313 0
M  V30 7936 O 756.933 -0.0203759 -2.0139 0
M  V30 7937 C 753.998 -0.367219 -3.4475 0
M  V30 7938 C 753.059 -1.45639 -4.03841 0
M  V30 7939 C 752.292 -0.977092 -5.2468 0
M  V30 7940 O 752.515 0.176127 -5.70128 0
M  V30 7941 O 751.449 -1.76215 -5.75527 0
M  V30 7942 H 755.275 -1.79687 -2.44839 0
M  V30 7943 H 752.86 -0.936064 -1.1644 0
M  V30 7944 H 754.742 -0.0931947 -4.21297 0
M  V30 7945 H 753.417 0.53131 -3.1931 0
M  V30 7946 H 752.324 -1.78406 -3.28819 0
M  V30 7947 H 753.657 -2.32995 -4.3356 0
M  V30 7948 N 755.309 1.25446 -0.953992 0
M  V30 7949 C 756.537 1.97215 -0.625595 0
M  V30 7950 C 756.952 1.70911 0.802168 0
M  V30 7951 O 756.309 0.984782 1.5365 0
M  V30 7952 C 756.36 3.50777 -0.873943 0
M  V30 7953 O 756.081 3.76173 -2.24556 0
M  V30 7954 C 757.582 4.39776 -0.557845 0
M  V30 7955 H 754.802 0.628652 -0.2346 0
M  V30 7956 H 757.346 1.59632 -1.27819 0
M  V30 7957 H 755.501 3.86474 -0.267765 0
M  V30 7958 H 755.915 4.70636 -2.31522 0
M  V30 7959 H 757.389 5.46431 -0.782157 0
M  V30 7960 H 757.866 4.36257 0.507573 0
M  V30 7961 H 758.472 4.09644 -1.14332 0
M  V30 7962 N 756.787 0.722489 1.40064 0
M  V30 7963 C 758.064 0.191829 1.94657 0
M  V30 7964 C 758.444 -1.30389 1.66018 0
M  V30 7965 O 757.792 -2.06342 0.981588 0
M  V30 7966 C 758.002 0.511978 3.45224 0
M  V30 7967 C 759.35 0.454426 4.22161 0
M  V30 7968 O 760.374 0.448438 3.53366 0
M  V30 7969 O 759.233 0.437986 5.44742 0
M  V30 7970 H 756.327 0.0307821 0.826427 0
M  V30 7971 H 758.873 0.800493 1.49634 0
M  V30 7972 H 757.645 1.54622 3.59455 0
M  V30 7973 H 757.268 -0.126296 3.97399 0
M  V30 7974 N 758.265 -1.50454 0.469181 0
M  V30 7975 C 759.197 -2.26319 -0.362247 0
M  V30 7976 C 760.21 -1.31574 -0.958751 0
M  V30 7977 O 761.399 -1.57099 -0.847482 0
M  V30 7978 C 758.499 -3.02808 -1.52187 0
M  V30 7979 C 757.672 -4.24893 -1.03849 0
M  V30 7980 C 756.731 -4.83691 -2.07194 0
M  V30 7981 O 755.757 -5.44659 -1.65333 0
M  V30 7982 N 756.959 -4.70522 -3.39985 0
M  V30 7983 H 759.724 -2.98312 0.288124 0
M  V30 7984 H 757.285 -1.59099 0.299856 0
M  V30 7985 H 759.277 -3.39023 -2.21011 0
M  V30 7986 H 757.847 -2.33625 -2.07697 0
M  V30 7987 H 757.067 -3.93806 -0.176203 0
M  V30 7988 H 758.355 -5.04053 -0.693435 0
M  V30 7989 H 757.753 -4.2203 -3.76706 0
M  V30 7990 H 756.31 -5.11011 -4.04612 0
M  V30 7991 N 759.743 -0.201713 -1.56304 0
M  V30 7992 C 760.691 0.733133 -2.20744 0
M  V30 7993 C 761.685 1.2148 -1.18064 0
M  V30 7994 O 762.891 1.17692 -1.36193 0
M  V30 7995 H 759.266 0.254789 -0.707521 0
M  V30 7996 H 761.237 0.165996 -2.97938 0
M  V30 7997 C 759.986 1.93925 -2.88597 0
M  V30 7998 H 759.309 1.5777 -3.67353 0
M  V30 7999 H 760.749 2.57158 -3.37114 0
M  V30 8000 C 759.208 2.78219 -1.89989 0
M  V30 8001 O 759.738 3.76353 -1.40432 0
M  V30 8002 N 757.944 2.43847 -1.58072 0
M  V30 8003 H 757.491 1.64103 -1.98565 0
M  V30 8004 H 757.449 3.0053 -0.923524 0
M  V30 8005 N 761.222 1.57436 0.0718424 0
M  V30 8006 C 762.185 2.02703 1.06977 0
M  V30 8007 C 763.185 0.924062 1.31597 0
M  V30 8008 O 764.375 1.18894 1.27318 0
M  V30 8009 C 761.507 2.40763 2.41342 0
M  V30 8010 H 762.7 2.92098 0.679619 0
M  V30 8011 H 760.253 1.5304 0.317565 0
M  V30 8012 H 760.988 1.54394 2.8519 0
M  V30 8013 H 760.773 3.21249 2.24814 0
M  V30 8014 H 762.263 2.76361 3.13073 0
M  V30 8015 N 762.7 -0.34323 1.53817 0
M  V30 8016 C 763.647 -1.42153 1.81827 0
M  V30 8017 C 764.617 -1.52251 0.663996 0
M  V30 8018 O 765.802 -1.67784 0.908461 0
M  V30 8019 C 762.942 -2.78799 2.03384 0
M  V30 8020 C 762.055 -2.7749 3.31094 0
M  V30 8021 C 761.19 -4.05856 3.42717 0
M  V30 8022 C 760.229 -3.98776 4.64375 0
M  V30 8023 N 759.366 -5.18833 4.73029 0
M  V30 8024 H 764.206 -1.17567 2.73829 0
M  V30 8025 H 761.743 -0.569506 1.35628 0
M  V30 8026 H 763.701 -3.58211 2.13872 0
M  V30 8027 H 762.331 -3.01736 1.14696 0
M  V30 8028 H 761.383 -1.90182 3.29446 0
M  V30 8029 H 762.695 -2.68137 4.206 0
M  V30 8030 H 761.849 -4.93691 3.52638 0
M  V30 8031 H 760.588 -4.1799 2.51267 0
M  V30 8032 H 759.593 -3.09325 4.5453 0
M  V30 8033 H 760.818 -3.88224 5.57189 0
M  V30 8034 H 758.764 -5.31511 3.84489 0
M  V30 8035 H 758.681 -5.11737 5.56472 0
M  V30 8036 H 759.949 -6.08439 4.87261 0
M  V30 8037 N 764.178 -1.45556 -0.604258 0
M  V30 8038 C 765.088 -1.57025 -1.74299 0
M  V30 8039 C 766.104 -0.45456 -1.67958 0
M  V30 8040 O 767.28 -0.715711 -1.88254 0
M  V30 8041 C 764.345 -1.53702 -3.10768 0
M  V30 8042 C 763.406 -2.76335 -3.28538 0
M  V30 8043 C 762.639 -2.73161 -4.58496 0
M  V30 8044 O 762.862 -1.80678 -5.41028 0
M  V30 8045 O 761.796 -3.64409 -4.79051 0
M  V30 8046 H 765.622 -2.53284 -1.67573 0
M  V30 8047 H 763.207 -1.28104 -0.768745 0
M  V30 8048 H 765.089 -1.54468 -3.92068 0
M  V30 8049 H 763.764 -0.605957 -3.17978 0
M  V30 8050 H 762.671 -2.8113 -2.46813 0
M  V30 8051 H 764.004 -3.68578 -3.26207 0
M  V30 8052 N 765.656 0.84705 -1.32902 0
M  V30 8053 C 766.566 1.98845 -1.2449 0
M  V30 8054 C 767.582 1.7329 -0.15702 0
M  V30 8055 O 768.758 1.978 -0.379104 0
M  V30 8056 C 765.823 3.32679 -0.975985 0
M  V30 8057 C 764.884 3.71405 -2.15306 0
M  V30 8058 C 764.117 4.98853 -1.89688 0
M  V30 8059 O 764.34 5.64134 -0.843168 0
M  V30 8060 O 763.274 5.34889 -2.76002 0
M  V30 8061 H 767.1 2.0888 -2.2046 0
M  V30 8062 H 764.685 0.978852 -1.12867 0
M  V30 8063 H 766.567 4.12885 -0.842826 0
M  V30 8064 H 765.242 3.23667 -0.0464954 0
M  V30 8065 H 764.149 2.91743 -2.34172 0
M  V30 8066 H 765.482 3.85073 -3.06561 0
M  V30 8067 N 767.134 1.16236 1.06428 0
M  V30 8068 C 768.044 0.881976 2.1739 0
M  V30 8069 C 769.06 -0.145259 1.73393 0
M  V30 8070 O 770.236 0.0310558 2.01376 0
M  V30 8071 C 767.301 0.385496 3.4455 0
M  V30 8072 C 766.362 1.47779 4.03063 0
M  V30 8073 C 765.595 1.0049 5.24154 0
M  V30 8074 O 765.818 -0.145889 5.70213 0
M  V30 8075 O 764.752 1.79265 5.74585 0
M  V30 8076 H 768.578 1.80983 2.43883 0
M  V30 8077 H 766.163 0.942226 1.15942 0
M  V30 8078 H 768.045 0.115536 4.21242 0
M  V30 8079 H 766.72 -0.514369 3.19587 0
M  V30 8080 H 765.627 1.80147 3.27869 0
M  V30 8081 H 766.96 2.35291 4.32318 0
M  V30 8082 N 768.612 -1.24939 0.960631 0
M  V30 8083 C 769.559 -2.25658 0.484459 0
M  V30 8084 C 770.529 -1.59422 -0.466242 0
M  V30 8085 O 771.714 -1.87015 -0.378169 0
M  V30 8086 C 768.854 -3.44359 -0.225958 0
M  V30 8087 C 767.967 -4.25214 0.762682 0
M  V30 8088 C 767.102 -5.31192 0.0290931 0
M  V30 8089 C 766.141 -6.03739 1.00827 0
M  V30 8090 N 765.278 -7.01437 0.305155 0
M  V30 8091 H 770.118 -2.65758 1.34821 0
M  V30 8092 H 767.655 -1.30648 0.675983 0
M  V30 8093 H 769.613 -4.12035 -0.654472 0
M  V30 8094 H 768.243 -3.05118 -1.05371 0
M  V30 8095 H 767.295 -3.57144 1.30966 0
M  V30 8096 H 768.607 -4.75406 1.50964 0
M  V30 8097 H 767.761 -6.04971 -0.457763 0
M  V30 8098 H 766.5 -4.81889 -0.750614 0
M  V30 8099 H 765.505 -5.2877 1.50607 0
M  V30 8100 H 766.73 -6.55131 1.7883 0
M  V30 8101 H 764.676 -6.54415 -0.455704 0
M  V30 8102 H 764.593 -7.49475 0.991104 0
M  V30 8103 H 765.861 -7.79336 -0.159966 0
M  V30 8104 N 770.09 -0.729906 -1.39679 0
M  V30 8105 C 771.023 -0.0354454 -2.28172 0
M  V30 8106 C 772.001 0.752968 -1.44115 0
M  V30 8107 O 773.185 0.736599 -1.73512 0
M  V30 8108 C 770.312 0.957047 -3.24897 0
M  V30 8109 C 769.358 0.257734 -4.25721 0
M  V30 8110 S 770.191 -1.02466 -5.25605 0
M  V30 8111 C 771.347 -0.0346322 -6.2589 0
M  V30 8112 H 771.58 -0.785922 -2.86724 0
M  V30 8113 H 769.113 -0.521497 -1.45326 0
M  V30 8114 H 771.071 1.52441 -3.81146 0
M  V30 8115 H 769.732 1.68033 -2.65375 0
M  V30 8116 H 768.925 1.00854 -4.93806 0
M  V30 8117 H 768.527 -0.237454 -3.73245 0
M  V30 8118 H 770.819 0.807464 -6.72671 0
M  V30 8119 H 771.762 -0.682491 -7.04803 0
M  V30 8120 H 772.17 0.335492 -5.63502 0
M  V30 8121 N 771.568 1.50203 -0.477153 0
M  V30 8122 C 772.5 2.26508 0.350239 0
M  V30 8123 C 773.513 1.32081 0.95176 0
M  V30 8124 O 774.702 1.57546 0.839139 0
M  V30 8125 C 771.802 3.0361 1.50579 0
M  V30 8126 C 770.975 4.25438 1.01595 0
M  V30 8127 C 770.034 4.84783 2.04626 0
M  V30 8128 O 769.06 5.45528 1.62442 0
M  V30 8129 N 770.262 4.72318 3.37485 0
M  V30 8130 H 773.027 2.98155 -0.30394 0
M  V30 8131 H 770.588 1.58938 -0.308289 0
M  V30 8132 H 772.58 3.4019 2.1921 0
M  V30 8133 H 771.15 2.34724 2.06455 0
M  V30 8134 H 770.37 3.93894 0.155316 0
M  V30 8135 H 771.658 5.04413 0.666694 0
M  V30 8136 H 771.056 4.24022 3.74462 0
M  V30 8137 H 769.613 5.13149 4.01897 0
M  V30 8138 N 773.046 0.209999 1.56195 0
M  V30 8139 C 774.292 -0.425442 1.98287 0
M  V30 8140 C 774.625 -1.60232 1.09724 0
M  V30 8141 O 773.9 -1.93902 0.152414 0
M  V30 8142 C 774.183 -0.871189 3.49403 0
M  V30 8143 C 774.036 0.308527 4.48741 0
M  V30 8144 C 775.355 -1.73146 4.04609 0
M  V30 8145 H 772.474 -0.153169 0.720908 0
M  V30 8146 H 775.116 0.303916 1.87554 0
M  V30 8147 H 773.266 -1.49266 3.58681 0
M  V30 8148 H 774.938 0.946487 4.51486 0
M  V30 8149 H 773.181 0.957878 4.23092 0
M  V30 8150 H 773.852 -0.0461143 5.51981 0
M  V30 8151 H 776.328 -1.2072 3.98203 0
M  V30 8152 H 775.204 -2.01228 5.10684 0
M  V30 8153 H 775.465 -2.69083 3.5078 0
M  V30 8154 N 774.524 -1.57472 -0.0634922 0
M  V30 8155 C 775.801 -1.78736 -0.794538 0
M  V30 8156 C 776.181 -0.799645 -1.95369 0
M  V30 8157 O 775.529 0.165521 -2.279 0
M  V30 8158 C 775.739 -3.25471 -1.25975 0
M  V30 8159 C 777.087 -3.89528 -1.68976 0
M  V30 8160 O 778.111 -3.29412 -1.35521 0
M  V30 8161 O 776.97 -4.95305 -2.30944 0
M  V30 8162 H 774.064 -0.733813 -0.381376 0
M  V30 8163 H 776.61 -1.69646 -0.0429258 0
M  V30 8164 H 775.382 -3.88922 -0.430721 0
M  V30 8165 H 775.005 -3.39317 -2.07243 0
M  V30 8166 N 776.003 0.335068 -1.53997 0
M  V30 8167 C 776.935 1.4327 -1.78903 0
M  V30 8168 C 777.948 1.48347 -0.670598 0
M  V30 8169 O 779.137 1.51277 -0.947494 0
M  V30 8170 C 776.237 2.81878 -1.88144 0
M  V30 8171 C 775.41 3.00141 -3.18174 0
M  V30 8172 C 774.469 4.19041 -3.18263 0
M  V30 8173 O 773.495 4.12751 -3.9195 0
M  V30 8174 N 774.697 5.28004 -2.41231 0
M  V30 8175 H 777.462 1.22272 -2.73623 0
M  V30 8176 H 775.023 0.524996 -1.53152 0
M  V30 8177 H 777.015 3.59609 -1.85644 0
M  V30 8178 H 775.585 2.9598 -1.00572 0
M  V30 8179 H 774.805 2.09808 -3.33728 0
M  V30 8180 H 776.093 3.0923 -4.04047 0
M  V30 8181 H 775.491 5.35986 -1.8093 0
M  V30 8182 H 774.048 6.04196 -2.44521 0
M  V30 8183 N 777.481 1.45874 0.596531 0
M  V30 8184 C 778.391 1.57947 1.73464 0
M  V30 8185 C 779.407 0.463461 1.67714 0
M  V30 8186 O 780.583 0.725685 1.87872 0
M  V30 8187 C 777.648 1.55348 3.09948 0
M  V30 8188 C 776.709 2.78074 3.27068 0
M  V30 8189 C 775.942 2.75589 4.57041 0
M  V30 8190 O 776.165 1.83545 5.40063 0
M  V30 8191 O 775.099 3.66945 4.77111 0
M  V30 8192 H 778.925 2.54169 1.66228 0
M  V30 8193 H 776.51 1.2851 0.76194 0
M  V30 8194 H 778.392 1.56545 3.91244 0
M  V30 8195 H 777.067 0.622811 3.17652 0
M  V30 8196 H 775.974 2.82435 2.45319 0
M  V30 8197 H 777.307 3.70303 3.24248 0
M  V30 8198 N 778.959 -0.83999 1.33349 0
M  V30 8199 C 779.869 -1.98182 1.25543 0
M  V30 8200 C 780.885 -1.73204 0.166208 0
M  V30 8201 O 782.061 -1.97596 0.389589 0
M  V30 8202 C 779.126 -3.32157 0.993614 0
M  V30 8203 C 778.187 -3.70258 2.17273 0
M  V30 8204 C 777.42 -4.9784 1.92331 0
M  V30 8205 O 777.643 -5.63679 0.873074 0
M  V30 8206 O 776.577 -5.33418 2.78835 0
M  V30 8207 H 780.403 -2.07708 2.21565 0
M  V30 8208 H 777.988 -0.972852 1.13384 0
M  V30 8209 H 779.87 -4.12433 0.864711 0
M  V30 8210 H 778.545 -3.23637 0.0636596 0
M  V30 8211 H 777.452 -2.90497 2.35716 0
M  V30 8212 H 778.785 -3.83442 3.08598 0
M  V30 8213 N 780.437 -1.16799 -1.0581 0
M  V30 8214 C 781.848 -0.95945 -1.60161 0
M  V30 8215 C 782.199 0.49543 -1.89842 0
M  V30 8216 O 781.324 1.36957 -1.67546 0
M  V30 8217 C 781.919 -1.73527 -2.90987 0
M  V30 8218 C 780.478 -1.57158 -3.42021 0
M  V30 8219 C 779.625 -1.74089 -2.15843 0
M  V30 8220 H 782.576 -1.31598 -0.886992 0
M  V30 8221 H 782.597 -1.21397 -3.60615 0
M  V30 8222 H 782.109 -2.79411 -2.69353 0
M  V30 8223 H 780.21 -0.537361 -3.68705 0
M  V30 8224 H 780.323 -2.35858 -4.17022 0
M  V30 8225 H 778.687 -1.16874 -2.26302 0
M  V30 8226 H 779.47 -2.81371 -1.96686 0
M  V30 8227 N 781.915 1.24427 -0.967243 0
M  V30 8228 C 782.865 2.23143 -0.468106 0
M  V30 8229 C 783.849 1.5449 0.449633 0
M  V30 8230 O 785.041 1.74761 0.28063 0
M  V30 8231 C 782.17 3.42454 0.240867 0
M  V30 8232 C 781.256 4.18355 -0.695674 0
M  V30 8233 N 781.647 4.71428 -1.83273 0
M  V30 8234 C 779.945 4.43116 -0.506365 0
M  V30 8235 C 780.646 5.29041 -2.41849 0
M  V30 8236 N 779.622 5.16213 -1.70369 0
M  V30 8237 H 783.424 2.61795 -1.3357 0
M  V30 8238 H 780.938 1.39809 -0.826277 0
M  V30 8239 H 782.935 4.12329 0.615668 0
M  V30 8240 H 781.595 3.05323 1.10491 0
M  V30 8241 H 782.606 4.68177 -2.21428 0
M  V30 8242 H 779.283 4.16319 0.313747 0
M  V30 8243 H 780.673 5.80811 -3.37799 0
M  V30 8244 N 783.393 0.737304 1.3929 0
M  V30 8245 C 784.639 0.286681 2.00763 0
M  V30 8246 C 784.972 -1.12388 1.58375 0
M  V30 8247 O 784.247 -1.76661 0.813699 0
M  V30 8248 C 784.53 0.391147 3.57969 0
M  V30 8249 C 784.383 1.84165 4.1037 0
M  V30 8250 C 785.702 -0.225072 4.39524 0
M  V30 8251 H 782.821 0.105642 0.729389 0
M  V30 8252 H 785.463 0.933892 1.65464 0
M  V30 8253 H 783.613 -0.159875 3.88171 0
M  V30 8254 H 785.285 2.44972 3.90879 0
M  V30 8255 H 783.528 2.3622 3.63844 0
M  V30 8256 H 784.199 1.866 5.19504 0
M  V30 8257 H 786.675 0.244677 4.1538 0
M  V30 8258 H 785.551 -0.121646 5.48765 0
M  V30 8259 H 785.812 -1.31141 4.22202 0
M  V30 8260 N 784.871 -1.49948 0.485112 0
M  V30 8261 C 785.781 -2.32587 -0.306697 0
M  V30 8262 C 786.797 -1.43598 -0.982632 0
M  V30 8263 O 787.973 -1.76638 -0.967519 0
M  V30 8264 C 785.038 -3.18638 -1.3664 0
M  V30 8265 C 784.099 -4.23462 -0.705589 0
M  V30 8266 C 783.332 -5.05401 -1.7148 0
M  V30 8267 O 783.555 -4.88618 -2.94293 0
M  V30 8268 O 782.489 -5.88157 -1.27889 0
M  V30 8269 H 786.315 -3.01447 0.369272 0
M  V30 8270 H 783.9 -1.47349 0.246709 0
M  V30 8271 H 785.782 -3.71992 -1.9799 0
M  V30 8272 H 784.457 -2.52491 -2.02559 0
M  V30 8273 H 783.364 -3.74063 -0.0527733 0
M  V30 8274 H 784.697 -4.92119 -0.0891187 0
M  V30 8275 N 786.349 -0.21828 -1.56081 0
M  V30 8276 C 787.259 0.704602 -2.23769 0
M  V30 8277 C 788.275 1.21633 -1.24425 0
M  V30 8278 O 789.451 1.25862 -1.57228 0
M  V30 8279 C 786.516 1.89725 -2.90182 0
M  V30 8280 C 785.577 1.42782 -4.0486 0
M  V30 8281 C 784.81 2.56361 -4.68097 0
M  V30 8282 O 785.033 3.74417 -4.30312 0
M  V30 8283 O 783.967 2.2775 -5.57148 0
M  V30 8284 H 787.793 0.158007 -3.03289 0
M  V30 8285 H 785.378 0.0120279 -1.49395 0
M  V30 8286 H 787.26 2.59382 -3.32113 0
M  V30 8287 H 785.935 2.432 -2.13624 0
M  V30 8288 H 784.842 0.699359 -3.67505 0
M  V30 8289 H 786.175 0.939474 -4.83151 0
M  V30 8290 N 787.827 1.57504 0.0551401 0
M  V30 8291 C 788.759 2.0158 1.09078 0
M  V30 8292 C 789.772 0.92434 1.34014 0
M  V30 8293 O 790.961 1.20202 1.31961 0
M  V30 8294 C 788.061 2.35385 2.43818 0
M  V30 8295 C 787.234 3.66588 2.38605 0
M  V30 8296 C 786.293 3.87874 3.55585 0
M  V30 8297 O 785.319 4.59259 3.36258 0
M  V30 8298 N 786.521 3.31503 4.76536 0
M  V30 8299 H 789.286 2.91039 0.71529 0
M  V30 8300 H 786.847 1.60058 0.243532 0
M  V30 8301 H 788.839 2.46784 3.20749 0
M  V30 8302 H 787.409 1.51731 2.73307 0
M  V30 8303 H 786.629 3.65787 1.46947 0
M  V30 8304 H 787.917 4.52706 2.32239 0
M  V30 8305 H 787.315 2.73592 4.9514 0
M  V30 8306 H 785.872 3.48324 5.50921 0
M  V30 8307 N 789.305 -0.326896 1.54172 0
M  V30 8308 C 790.237 -1.42319 1.79661 0
M  V30 8309 C 791.25 -1.47989 0.678456 0
M  V30 8310 O 792.439 -1.50773 0.955503 0
M  V30 8311 C 789.539 -2.80876 1.89636 0
M  V30 8312 C 788.712 -2.98449 3.19761 0
M  V30 8313 C 787.771 -4.17347 3.2048 0
M  V30 8314 O 786.797 -4.10667 3.94134 0
M  V30 8315 N 787.999 -5.26717 2.44027 0
M  V30 8316 H 790.764 -1.20819 2.74268 0
M  V30 8317 H 788.325 -0.516866 1.53428 0
M  V30 8318 H 790.317 -3.58619 1.87549 0
M  V30 8319 H 788.887 -2.95442 1.02141 0
M  V30 8320 H 788.107 -2.08035 3.34836 0
M  V30 8321 H 789.395 -3.07083 4.05681 0
M  V30 8322 H 788.793 -5.35019 1.8377 0
M  V30 8323 H 787.35 -6.02891 2.47721 0
M  V30 8324 N 790.784 -1.46188 -0.588786 0
M  V30 8325 C 791.716 -1.52319 -1.71265 0
M  V30 8326 C 792.729 -0.412096 -1.57498 0
M  V30 8327 O 793.918 -0.680146 -1.65034 0
M  V30 8328 C 791.018 -1.38164 -3.09458 0
M  V30 8329 C 790.191 -2.63284 -3.49286 0
M  V30 8330 C 789.25 -2.43415 -4.66514 0
M  V30 8331 O 788.276 -3.17113 -4.72682 0
M  V30 8332 N 789.478 -1.49187 -5.61002 0
M  V30 8333 H 792.243 -2.49219 -1.66463 0
M  V30 8334 H 789.804 -1.42167 -0.774601 0
M  V30 8335 H 791.796 -1.22653 -3.85666 0
M  V30 8336 H 790.366 -0.494678 -3.08661 0
M  V30 8337 H 789.586 -2.93779 -2.62845 0
M  V30 8338 H 790.874 -3.46413 -3.7266 0
M  V30 8339 H 790.272 -0.884027 -5.5875 0
M  V30 8340 H 788.829 -1.39642 -6.36666 0
M  V30 8341 N 792.262 0.832906 -1.33792 0
M  V30 8342 C 793.194 1.95042 -1.2038 0
M  V30 8343 C 794.207 1.62253 -0.133299 0
M  V30 8344 O 795.396 1.74315 -0.384261 0
M  V30 8345 C 792.496 3.287 -0.825215 0
M  V30 8346 C 791.669 3.89581 -1.98861 0
M  V30 8347 C 790.728 5.01602 -1.59003 0
M  V30 8348 O 789.754 5.20431 -2.30522 0
M  V30 8349 N 790.956 5.78356 -0.498446 0
M  V30 8350 H 793.721 2.07083 -2.16649 0
M  V30 8351 H 791.282 1.00896 -1.26616 0
M  V30 8352 H 793.274 4.01074 -0.540559 0
M  V30 8353 H 791.844 3.12565 0.0469796 0
M  V30 8354 H 791.064 3.09723 -2.43856 0
M  V30 8355 H 792.352 4.26989 -2.76691 0
M  V30 8356 H 791.75 5.65618 0.0963297 0
M  V30 8357 H 790.307 6.51226 -0.273485 0
M  V30 8358 N 793.74 1.17359 1.05189 0
M  V30 8359 C 794.968 0.986529 1.81866 0
M  V30 8360 C 795.383 -0.46522 1.82979 0
M  V30 8361 O 794.74 -1.32305 1.25705 0
M  V30 8362 C 794.791 1.52021 3.27982 0
M  V30 8363 O 794.512 2.91511 3.27037 0
M  V30 8364 C 796.013 1.37774 4.21347 0
M  V30 8365 H 793.233 0.349021 0.573084 0
M  V30 8366 H 795.777 1.55648 1.32643 0
M  V30 8367 H 793.932 0.992287 3.74476 0
M  V30 8368 H 794.346 3.16178 4.18488 0
M  V30 8369 H 795.82 1.7993 5.21852 0
M  V30 8370 H 796.297 0.32483 4.37997 0
M  V30 8371 H 796.903 1.89583 3.80708 0
M  V30 8372 N 795.218 -1.23913 0.973828 0
M  V30 8373 C 796.629 -1.73992 0.677021 0
M  V30 8374 C 796.98 -1.78833 -0.807036 0
M  V30 8375 O 796.105 -1.42183 -1.63135 0
M  V30 8376 C 796.7 -3.15985 1.22226 0
M  V30 8377 C 795.259 -3.63547 0.975228 0
M  V30 8378 C 794.406 -2.42001 1.35392 0
M  V30 8379 H 797.357 -1.09529 1.14844 0
M  V30 8380 H 797.378 -3.75875 0.591489 0
M  V30 8381 H 796.89 -3.12429 2.30238 0
M  V30 8382 H 794.991 -3.72493 -0.0891047 0
M  V30 8383 H 795.104 -4.50693 1.62518 0
M  V30 8384 H 793.468 -2.42708 0.772334 0
M  V30 8385 H 794.251 -2.41122 2.44367 0
M  V30 8386 N 796.696 -0.74468 -1.38897 0
M  V30 8387 C 797.659 -0.11945 -2.28889 0
M  V30 8388 C 798.659 0.656942 -1.46768 0
M  V30 8389 O 799.849 0.484525 -1.67326 0
M  V30 8390 C 796.981 0.839635 -3.30398 0
M  V30 8391 H 798.174 -0.912414 -2.85683 0
M  V30 8392 H 795.727 -0.511119 -1.47707 0
M  V30 8393 H 796.462 1.6586 -2.78677 0
M  V30 8394 H 796.247 0.285432 -3.9106 0
M  V30 8395 H 797.737 1.27337 -3.97712 0
M  V30 8396 N 798.174 1.49689 -0.493057 0
M  V30 8397 C 799.084 2.32746 0.294358 0
M  V30 8398 C 800.1 1.44117 0.975003 0
M  V30 8399 O 801.276 1.77149 0.958138 0
M  V30 8400 C 798.341 3.19358 1.34949 0
M  V30 8401 C 797.402 4.2383 0.683122 0
M  V30 8402 C 796.635 5.06303 1.68798 0
M  V30 8403 O 796.858 4.90172 2.91698 0
M  V30 8404 O 795.792 5.88826 1.24768 0
M  V30 8405 H 799.618 3.01247 -0.385254 0
M  V30 8406 H 797.203 1.47216 -0.254519 0
M  V30 8407 H 799.085 3.73037 1.96014 0
M  V30 8408 H 797.76 2.53561 2.01217 0
M  V30 8409 H 796.667 3.74086 0.0329351 0
M  V30 8410 H 798 4.9216 0.0630192 0
M  V30 8411 N 799.652 0.226554 1.55963 0
M  V30 8412 C 800.6 -0.697922 2.21882 0
M  V30 8413 C 801.594 -1.19586 1.19981 0
M  V30 8414 O 802.8 -1.15511 1.38048 0
M  V30 8415 H 799.175 -0.243501 0.711485 0
M  V30 8416 H 801.146 -0.118576 2.98164 0
M  V30 8417 C 799.895 -1.89309 2.91646 0
M  V30 8418 H 799.218 -1.51906 3.69817 0
M  V30 8419 H 800.658 -2.51762 3.41162 0
M  V30 8420 C 799.117 -2.75162 1.94391 0
M  V30 8421 O 799.647 -3.74071 1.46402 0
M  V30 8422 N 797.853 -2.41302 1.61932 0
M  V30 8423 H 797.4 -1.60923 2.01151 0
M  V30 8424 H 797.358 -2.99023 0.971219 0
M  V30 8425 N 801.13 -1.57531 -0.0467866 0
M  V30 8426 C 802.077 -2.05387 -1.05285 0
M  V30 8427 C 803.047 -0.939385 -1.36985 0
M  V30 8428 O 804.232 -1.20877 -1.47626 0
M  V30 8429 C 801.372 -2.52343 -2.35408 0
M  V30 8430 C 800.485 -3.77512 -2.10022 0
M  V30 8431 C 799.62 -4.1315 -3.33887 0
M  V30 8432 C 798.659 -5.31286 -3.03976 0
M  V30 8433 N 797.796 -5.62441 -4.20243 0
M  V30 8434 H 802.636 -2.91095 -0.637788 0
M  V30 8435 H 800.173 -1.43939 -0.303322 0
M  V30 8436 H 802.131 -2.77628 -3.11413 0
M  V30 8437 H 800.761 -1.69577 -2.7467 0
M  V30 8438 H 799.813 -3.59417 -1.24594 0
M  V30 8439 H 801.125 -4.63644 -1.83945 0
M  V30 8440 H 800.279 -4.39469 -4.18273 0
M  V30 8441 H 799.018 -3.25634 -3.63062 0
M  V30 8442 H 798.023 -5.04738 -2.17991 0
M  V30 8443 H 799.248 -6.20441 -2.76098 0
M  V30 8444 H 797.194 -4.77885 -4.49402 0
M  V30 8445 H 797.111 -6.43046 -3.97528 0
M  V30 8446 H 798.379 -5.93327 -5.05553 0
M  V30 8447 N 802.608 0.318715 -1.54344 0
M  V30 8448 C 803.571 1.37545 -1.83342 0
M  V30 8449 C 804.571 1.445 -0.705444 0
M  V30 8450 O 805.761 1.44443 -0.973752 0
M  V30 8451 C 802.893 2.76225 -1.99781 0
M  V30 8452 H 804.086 1.13084 -2.77762 0
M  V30 8453 H 801.639 0.554457 -1.46135 0
M  V30 8454 H 802.374 3.05934 -1.07588 0
M  V30 8455 H 802.159 2.7257 -2.81865 0
M  V30 8456 H 803.649 3.52664 -2.23647 0
M  V30 8457 N 804.086 1.46499 0.581025 0
M  V30 8458 C 804.996 1.59778 1.71779 0
M  V30 8459 C 806.012 0.481223 1.67213 0
M  V30 8460 O 807.188 0.74557 1.87091 0
M  V30 8461 C 804.253 1.58626 3.08283 0
M  V30 8462 C 803.314 2.81527 3.241 0
M  V30 8463 C 802.547 2.80421 4.54092 0
M  V30 8464 O 802.77 1.89262 5.38085 0
M  V30 8465 O 801.704 3.71984 4.73193 0
M  V30 8466 H 805.53 2.55918 1.63523 0
M  V30 8467 H 803.115 1.29311 0.748267 0
M  V30 8468 H 804.997 1.60686 3.89561 0
M  V30 8469 H 803.672 0.656467 3.16973 0
M  V30 8470 H 802.579 2.85021 2.42309 0
M  V30 8471 H 803.912 3.73721 3.20302 0
M  V30 8472 N 805.565 -0.825799 1.34232 0
M  V30 8473 C 806.79 -1.61883 1.29648 0
M  V30 8474 C 807.215 -1.87669 -0.127295 0
M  V30 8475 O 806.573 -1.45016 -1.08813 0
M  V30 8476 C 806.621 -2.93846 2.09014 0
M  V30 8477 O 805.725 -3.85778 1.4577 0
M  V30 8478 H 805.066 -0.492454 0.445405 0
M  V30 8479 H 807.596 -1.02641 1.76992 0
M  V30 8480 H 807.606 -3.43435 2.20264 0
M  V30 8481 H 806.281 -2.74401 3.12533 0
M  V30 8482 H 804.858 -3.4429 1.43245 0
M  V30 8483 N 807.043 -1.17915 -1.04565 0
M  V30 8484 C 807.953 -0.916449 -2.15959 0
M  V30 8485 C 808.969 0.117655 -1.73602 0
M  V30 8486 O 810.145 -0.063089 -2.01301 0
M  V30 8487 C 807.21 -0.440262 -3.43893 0
M  V30 8488 C 806.271 -1.54172 -4.00661 0
M  V30 8489 C 805.504 -1.08816 -5.22489 0
M  V30 8490 O 805.727 0.0551547 -5.70373 0
M  V30 8491 O 804.661 -1.88383 -5.7166 0
M  V30 8492 H 808.487 -1.8484 -2.40972 0
M  V30 8493 H 806.072 -0.960552 -1.14428 0
M  V30 8494 H 807.954 -0.182537 -4.21004 0
M  V30 8495 H 806.629 0.46346 -3.20365 0
M  V30 8496 H 805.536 -1.85341 -3.24961 0
M  V30 8497 H 806.869 -2.42139 -4.2852 0
M  V30 8498 N 808.521 1.23394 -0.980386 0
M  V30 8499 C 809.431 2.28561 -0.528864 0
M  V30 8500 C 810.447 1.68946 0.416329 0
M  V30 8501 O 811.623 1.99355 0.286251 0
M  V30 8502 C 808.688 3.46323 0.16155 0
M  V30 8503 C 807.749 4.21297 -0.825044 0
M  V30 8504 C 806.982 5.33437 -0.167483 0
M  V30 8505 O 807.205 5.60812 1.04146 0
M  V30 8506 O 806.139 5.95637 -0.866047 0
M  V30 8507 H 809.965 2.69326 -1.40346 0
M  V30 8508 H 807.55 1.29325 -0.748019 0
M  V30 8509 H 809.432 4.17811 0.548841 0
M  V30 8510 H 808.107 3.0751 1.01092 0
M  V30 8511 H 807.014 3.52134 -1.26303 0
M  V30 8512 H 808.347 4.6396 -1.64322 0
M  V30 8513 N 809.999 0.752036 1.385 0
M  V30 8514 C 810.932 0.0717411 2.28087 0
M  V30 8515 C 811.91 -0.729945 1.45295 0
M  V30 8516 O 813.094 -0.708902 1.74662 0
M  V30 8517 C 810.221 -0.905237 3.26379 0
M  V30 8518 C 809.267 -0.189973 4.26077 0
M  V30 8519 S 810.1 1.10815 5.23909 0
M  V30 8520 C 811.256 0.134202 6.25756 0
M  V30 8521 H 811.489 0.831438 2.85437 0
M  V30 8522 H 809.022 0.544552 1.44478 0
M  V30 8523 H 810.98 -1.46358 3.83523 0
M  V30 8524 H 809.641 -1.63789 2.68015 0
M  V30 8525 H 808.834 -0.92985 4.95348 0
M  V30 8526 H 808.436 0.296804 3.7282 0
M  V30 8527 H 810.728 -0.700345 6.7387 0
M  V30 8528 H 811.671 0.794532 7.03628 0
M  V30 8529 H 812.079 -0.245801 5.63965 0
M  V30 8530 N 811.477 -1.49425 0.500989 0
M  V30 8531 C 812.387 -2.32899 -0.282011 0
M  V30 8532 C 813.403 -1.44632 -0.967346 0
M  V30 8533 O 814.579 -1.77654 -0.94873 0
M  V30 8534 C 811.644 -3.20069 -1.33253 0
M  V30 8535 C 810.705 -4.24186 -0.660636 0
M  V30 8536 C 809.938 -5.07191 -1.6611 0
M  V30 8537 O 810.161 -4.91712 -2.89094 0
M  V30 8538 O 809.095 -5.8948 -1.21643 0
M  V30 8539 H 812.921 -3.01038 0.401224 0
M  V30 8540 H 810.506 -1.47079 0.262323 0
M  V30 8541 H 812.388 -3.74071 -1.94033 0
M  V30 8542 H 811.063 -2.54625 -1.9987 0
M  V30 8543 H 809.97 -3.74098 -0.0130959 0
M  V30 8544 H 811.303 -4.92186 -0.0369179 0
M  V30 8545 N 812.955 -0.234822 -1.55841 0
M  V30 8546 C 814.183 0.397745 -2.03041 0
M  V30 8547 C 814.598 1.52405 -1.11437 0
M  V30 8548 O 813.955 1.82061 -0.126466 0
M  V30 8549 C 814.006 0.916919 -3.49678 0
M  V30 8550 O 813.727 -0.164493 -4.37791 0
M  V30 8551 C 815.228 1.62139 -4.12584 0
M  V30 8552 H 812.448 0.0959214 -0.664108 0
M  V30 8553 H 814.992 -0.355156 -2.01392 0
M  V30 8554 H 813.147 1.62004 -3.519 0
M  V30 8555 H 813.561 0.227794 -5.24005 0
M  V30 8556 H 815.035 1.93651 -5.16917 0
M  V30 8557 H 815.512 2.53918 -3.58361 0
M  V30 8558 H 816.118 0.963145 -4.14251 0
M  V30 8559 N 814.433 1.57553 0.0384317 0
M  V30 8560 C 815.658 1.93485 0.746872 0
M  V30 8561 C 816.083 0.834069 1.68597 0
M  V30 8562 O 815.441 -0.210902 1.80069 0
M  V30 8563 C 815.489 3.28463 1.4881 0
M  V30 8564 O 814.593 3.20051 2.60079 0
M  V30 8565 H 813.934 0.632675 0.201539 0
M  V30 8566 H 816.464 2.046 -0.00329815 0
M  V30 8567 H 816.474 3.63132 1.86009 0
M  V30 8568 H 815.149 4.08147 0.799297 0
M  V30 8569 H 813.726 2.96998 2.25492 0
M  V30 8570 N 815.911 -0.310526 1.54511 0
M  V30 8571 C 816.843 -1.40405 1.8116 0
M  V30 8572 C 817.856 -1.47261 0.694114 0
M  V30 8573 O 819.045 -1.49751 0.971441 0
M  V30 8574 C 816.145 -2.78849 1.92604 0
M  V30 8575 C 815.318 -2.95041 3.22908 0
M  V30 8576 C 814.377 -4.13925 3.24889 0
M  V30 8577 O 813.403 -4.06463 3.98467 0
M  V30 8578 N 814.605 -5.24099 2.496 0
M  V30 8579 H 817.37 -1.17903 2.75534 0
M  V30 8580 H 814.931 -0.500564 1.53967 0
M  V30 8581 H 816.923 -3.5661 1.91342 0
M  V30 8582 H 815.493 -2.94342 1.05268 0
M  V30 8583 H 814.713 -2.04472 3.37023 0
M  V30 8584 H 816.001 -3.02763 4.08916 0
M  V30 8585 H 815.399 -5.33039 1.89435 0
M  V30 8586 H 813.956 -6.0023 2.54102 0
M  V30 8587 N 817.389 -1.46805 -0.573248 0
M  V30 8588 C 818.352 -1.57655 -1.66366 0
M  V30 8589 C 819.352 -0.452905 -1.5429 0
M  V30 8590 O 820.542 -0.717502 -1.58737 0
M  V30 8591 C 817.674 -1.50584 -3.05839 0
M  V30 8592 H 818.867 -2.54842 -1.581 0
M  V30 8593 H 816.42 -1.34756 -0.791868 0
M  V30 8594 H 817.155 -0.547127 -3.19651 0
M  V30 8595 H 816.94 -2.32118 -3.16012 0
M  V30 8596 H 818.43 -1.61282 -3.85199 0
M  V30 8597 N 818.867 0.818669 -1.34668 0
M  V30 8598 C 820.115 1.57201 -1.27013 0
M  V30 8599 C 820.436 1.94354 0.158599 0
M  V30 8600 O 819.706 1.62626 1.09223 0
M  V30 8601 H 818.286 0.582919 -0.467135 0
M  V30 8602 H 820.948 0.977234 -1.6863 0
M  V30 8603 H 820.044 2.49291 -1.87778 0
M  V30 8604 N 820.346 1.18468 1.03938 0
M  V30 8605 C 821.571 1.00638 1.81347 0
M  V30 8606 C 821.996 -0.440477 1.8287 0
M  V30 8607 O 821.354 -1.31609 1.24695 0
M  V30 8608 C 821.402 1.5673 3.24759 0
M  V30 8609 O 820.506 0.789517 4.04772 0
M  V30 8610 H 819.847 0.356432 0.560225 0
M  V30 8611 H 822.377 1.57253 1.30891 0
M  V30 8612 H 822.387 1.59496 3.75533 0
M  V30 8613 H 821.062 2.62043 3.22965 0
M  V30 8614 H 819.639 0.834267 3.63448 0
M  V30 8615 N 821.824 -1.22873 0.986916 0
M  V30 8616 C 822.771 -2.2458 0.532215 0
M  V30 8617 C 823.741 -1.60375 -0.432322 0
M  V30 8618 O 824.926 -1.87775 -0.338416 0
M  V30 8619 C 822.066 -3.44761 -0.152864 0
M  V30 8620 C 821.179 -4.23501 0.852704 0
M  V30 8621 C 820.314 -5.31011 0.14176 0
M  V30 8622 C 819.353 -6.01464 1.1361 0
M  V30 8623 N 818.49 -7.00631 0.453871 0
M  V30 8624 H 823.33 -2.62838 1.40428 0
M  V30 8625 H 820.867 -1.29185 0.703543 0
M  V30 8626 H 822.825 -4.1333 -0.566926 0
M  V30 8627 H 821.455 -3.07284 -0.988756 0
M  V30 8628 H 820.507 -3.54286 1.38512 0
M  V30 8629 H 821.819 -4.72097 1.61014 0
M  V30 8630 H 820.973 -6.05805 -0.329337 0
M  V30 8631 H 819.712 -4.83373 -0.648229 0
M  V30 8632 H 818.717 -5.25456 1.61789 0
M  V30 8633 H 819.942 -6.5119 1.92686 0
M  V30 8634 H 817.888 -6.55235 -0.316791 0
M  V30 8635 H 817.805 -7.47204 1.14986 0
M  V30 8636 H 819.073 -7.795 0.00537823 0
M  V30 8637 N 823.302 -0.75937 -1.38099 0
M  V30 8638 C 824.579 -0.243371 -1.9408 0
M  V30 8639 C 824.959 1.25942 -1.69416 0
M  V30 8640 O 824.307 2.03667 -1.03595 0
M  V30 8641 C 824.517 -0.603328 -3.43745 0
M  V30 8642 C 825.865 -0.566195 -4.20808 0
M  V30 8643 O 826.889 -0.541969 -3.52053 0
M  V30 8644 O 825.748 -0.582261 -5.43389 0
M  V30 8645 H 822.842 -0.0526825 -0.82532 0
M  V30 8646 H 825.388 -0.839884 -1.47459 0
M  V30 8647 H 824.16 -1.64098 -3.55229 0
M  V30 8648 H 823.783 0.0208887 -3.97595 0
M  V30 8649 N 824.78 1.49157 -0.508906 0
M  V30 8650 C 825.727 2.2927 0.265288 0
M  V30 8651 C 826.697 1.3603 0.953162 0
M  V30 8652 O 827.882 1.64989 0.958291 0
M  V30 8653 C 825.022 3.18897 1.31904 0
M  V30 8654 C 824.135 4.27201 0.642144 0
M  V30 8655 C 823.27 5.04033 1.67701 0
M  V30 8656 C 822.309 6.04165 0.982422 0
M  V30 8657 N 821.446 6.74133 1.96186 0
M  V30 8658 H 826.286 2.94967 -0.424107 0
M  V30 8659 H 823.823 1.45431 -0.220991 0
M  V30 8660 H 825.781 3.69242 1.94206 0
M  V30 8661 H 824.411 2.55168 1.97709 0
M  V30 8662 H 823.463 3.80283 -0.0943395 0
M  V30 8663 H 824.775 4.98708 0.0957507 0
M  V30 8664 H 823.929 5.58287 2.37487 0
M  V30 8665 H 822.668 4.32317 2.25728 0
M  V30 8666 H 821.673 5.49135 0.270378 0
M  V30 8667 H 822.898 6.7787 0.408554 0
M  V30 8668 H 820.844 6.05183 2.53159 0
M  V30 8669 H 820.761 7.41643 1.46634 0
M  V30 8670 H 822.029 7.32987 2.65236 0
M  V30 8671 N 826.258 0.243083 1.55714 0
M  V30 8672 C 827.205 -0.658078 2.21219 0
M  V30 8673 C 828.175 -1.1742 1.17481 0
M  V30 8674 O 829.36 -1.22937 1.45915 0
M  V30 8675 C 826.5 -1.85104 2.91257 0
M  V30 8676 C 825.613 -1.3718 4.09641 0
M  V30 8677 C 824.748 -2.52403 4.67404 0
M  V30 8678 C 823.787 -2.01321 5.78045 0
M  V30 8679 N 822.924 -3.09896 6.30007 0
M  V30 8680 H 827.764 -0.0927854 2.97856 0
M  V30 8681 H 825.301 -0.0340375 1.47061 0
M  V30 8682 H 827.259 -2.55179 3.3006 0
M  V30 8683 H 825.889 -2.38887 2.17101 0
M  V30 8684 H 824.941 -0.565232 3.76177 0
M  V30 8685 H 826.253 -0.957409 4.89525 0
M  V30 8686 H 825.407 -3.30525 5.08761 0
M  V30 8687 H 824.146 -2.97142 3.86728 0
M  V30 8688 H 823.151 -1.21667 5.36169 0
M  V30 8689 H 824.376 -1.57556 6.6057 0
M  V30 8690 H 822.322 -3.54077 5.52237 0
M  V30 8691 H 822.239 -2.72776 7.05074 0
M  V30 8692 H 823.507 -3.8809 6.76023 0
M  V30 8693 N 827.736 -1.57571 -0.0300757 0
M  V30 8694 C 828.669 -2.01874 -1.06406 0
M  V30 8695 C 829.647 -0.902901 -1.35227 0
M  V30 8696 O 830.831 -1.16865 -1.47901 0
M  V30 8697 C 827.958 -2.39093 -2.39901 0
M  V30 8698 C 827.004 -3.61108 -2.26943 0
M  V30 8699 S 827.837 -5.10287 -1.62382 0
M  V30 8700 C 828.993 -5.50747 -2.97369 0
M  V30 8701 H 829.226 -2.89261 -0.686703 0
M  V30 8702 H 826.759 -1.52523 -0.240017 0
M  V30 8703 H 828.717 -2.61207 -3.16672 0
M  V30 8704 H 827.378 -1.52159 -2.74784 0
M  V30 8705 H 826.571 -3.84803 -3.25489 0
M  V30 8706 H 826.173 -3.3884 -1.58314 0
M  V30 8707 H 828.465 -5.51369 -3.93698 0
M  V30 8708 H 829.408 -6.51071 -2.78409 0
M  V30 8709 H 829.816 -4.7825 -2.99895 0
M  V30 8710 N 829.214 0.302327 -1.54673 0
M  V30 8711 C 830.491 1.05721 -1.64567 0
M  V30 8712 C 830.871 2.0526 -0.493108 0
M  V30 8713 O 830.219 2.22729 0.510315 0
M  V30 8714 C 830.429 1.74025 -3.02517 0
M  V30 8715 C 831.777 2.26271 -3.59286 0
M  V30 8716 O 832.801 1.8406 -3.0496 0
M  V30 8717 O 831.66 3.0361 -4.54404 0
M  V30 8718 H 828.754 0.488577 -0.667249 0
M  V30 8719 H 831.3 0.300521 -1.67018 0
M  V30 8720 H 830.072 1.0174 -3.77842 0
M  V30 8721 H 829.695 2.56454 -3.03838 0
M  V30 8722 N 830.692 1.47107 0.565454 0
M  V30 8723 C 831.624 1.55024 1.6882 0
M  V30 8724 C 832.637 0.4371 1.56822 0
M  V30 8725 O 833.826 0.706315 1.63931 0
M  V30 8726 C 830.926 1.43069 3.0722 0
M  V30 8727 C 830.099 2.68807 3.45053 0
M  V30 8728 C 829.158 2.50806 4.62583 0
M  V30 8729 O 828.184 3.24593 4.67577 0
M  V30 8730 N 829.386 1.58093 5.58558 0
M  V30 8731 H 832.151 2.51836 1.62477 0
M  V30 8732 H 829.712 1.43382 0.751885 0
M  V30 8733 H 831.704 1.28773 3.83666 0
M  V30 8734 H 830.274 0.543721 3.07835 0
M  V30 8735 H 829.494 2.97923 2.58138 0
M  V30 8736 H 830.782 3.52298 3.67101 0
M  V30 8737 H 830.18 0.972807 5.57273 0
M  V30 8738 H 828.737 1.49753 6.34364 0
M  V30 8739 N 832.17 -0.811516 1.35101 0
M  V30 8740 C 833.581 -1.38515 1.25182 0
M  V30 8741 C 833.932 -1.95846 -0.117883 0
M  V30 8742 O 833.057 -1.90925 -1.01866 0
M  V30 8743 C 833.652 -2.51813 2.26662 0
M  V30 8744 C 832.211 -3.05052 2.20499 0
M  V30 8745 C 831.358 -1.77987 2.12641 0
M  V30 8746 H 834.309 -0.614959 1.46301 0
M  V30 8747 H 834.33 -3.30228 1.89023 0
M  V30 8748 H 833.842 -2.10057 3.2634 0
M  V30 8749 H 831.943 -3.51285 1.24215 0
M  V30 8750 H 832.056 -3.63368 3.1225 0
M  V30 8751 H 830.42 -1.99342 1.5854 0
M  V30 8752 H 831.203 -1.38389 3.14171 0
M  V30 8753 N 833.648 -1.19017 -1.03309 0
M  V30 8754 C 835.059 -0.993206 -1.5809 0
M  V30 8755 C 835.41 0.45505 -1.9085 0
M  V30 8756 O 834.535 1.33372 -1.70414 0
M  V30 8757 C 835.13 -1.79661 -2.87241 0
M  V30 8758 C 833.689 -1.64377 -3.38611 0
M  V30 8759 C 832.836 -1.78628 -2.12102 0
M  V30 8760 H 835.787 -1.3345 -0.858879 0
M  V30 8761 H 835.808 -1.29019 -3.57958 0
M  V30 8762 H 835.32 -2.85061 -2.63366 0
M  V30 8763 H 833.421 -0.615447 -3.67482 0
M  V30 8764 H 833.534 -2.44651 -4.11926 0
M  V30 8765 H 831.898 -1.21648 -2.23772 0
M  V30 8766 H 832.681 -2.8548 -1.90673 0
M  V30 8767 N 835.127 1.22348 -0.993418 0
M  V30 8768 C 836.059 2.23626 -0.502404 0
M  V30 8769 C 837.072 1.57739 0.402784 0
M  V30 8770 O 838.261 1.77321 0.204835 0
M  V30 8771 C 835.361 3.37647 0.291118 0
M  V30 8772 C 834.534 4.33121 -0.610332 0
M  V30 8773 C 833.593 5.26035 0.131572 0
M  V30 8774 O 832.619 5.67145 -0.483199 0
M  V30 8775 N 833.821 5.63023 1.41371 0
M  V30 8776 H 836.586 2.66385 -1.37329 0
M  V30 8777 H 834.147 1.36653 -0.868196 0
M  V30 8778 H 836.139 3.96792 0.796107 0
M  V30 8779 H 834.709 2.93967 1.0631 0
M  V30 8780 H 833.929 3.72287 -1.29598 0
M  V30 8781 H 835.217 4.93853 -1.22422 0
M  V30 8782 H 834.615 5.31596 1.93449 0
M  V30 8783 H 833.172 6.24582 1.86388 0
M  V30 8784 N 836.605 0.766683 1.37694 0
M  V30 8785 C 837.568 0.155849 2.2867 0
M  V30 8786 C 838.568 -0.633509 1.47795 0
M  V30 8787 O 839.758 -0.457844 1.68076 0
M  V30 8788 C 836.89 -0.786965 3.31692 0
M  V30 8789 H 838.083 0.957748 2.84196 0
M  V30 8790 H 835.636 0.534554 1.46875 0
M  V30 8791 H 836.371 -1.61406 2.8128 0
M  V30 8792 H 836.156 -0.223182 3.91464 0
M  V30 8793 H 837.646 -1.20994 3.99688 0
M  V30 8794 N 838.083 -1.48885 0.516809 0
M  V30 8795 C 839.03 -2.29408 -0.253125 0
M  V30 8796 C 840 -1.36533 -0.945935 0
M  V30 8797 O 841.185 -1.65495 -0.949527 0
M  V30 8798 C 838.325 -3.19592 -1.30211 0
M  V30 8799 C 837.438 -4.27535 -0.61948 0
M  V30 8800 C 836.573 -5.04916 -1.65026 0
M  V30 8801 C 835.612 -6.04677 -0.950368 0
M  V30 8802 N 834.749 -6.75164 -1.92608 0
M  V30 8803 H 839.589 -2.94738 0.439744 0
M  V30 8804 H 837.126 -1.45311 0.2287 0
M  V30 8805 H 839.084 -3.70267 -1.92245 0
M  V30 8806 H 837.714 -2.56213 -1.96353 0
M  V30 8807 H 836.766 -3.80228 0.114505 0
M  V30 8808 H 838.078 -4.98752 -0.0693016 0
M  V30 8809 H 837.232 -5.59539 -2.34523 0
M  V30 8810 H 835.971 -4.33508 -2.23432 0
M  V30 8811 H 834.976 -5.4927 -0.241252 0
M  V30 8812 H 836.201 -6.78077 -0.372599 0
M  V30 8813 H 834.147 -6.06517 -2.49946 0
M  V30 8814 H 834.064 -7.4241 -1.42699 0
M  V30 8815 H 835.332 -7.34384 -2.61345 0
M  V30 8816 N 839.561 -0.251338 -1.55583 0
M  V30 8817 C 840.508 0.646337 -2.21565 0
M  V30 8818 C 841.478 1.16796 -1.18102 0
M  V30 8819 O 842.663 1.22162 -1.46564 0
M  V30 8820 C 839.803 1.83557 -2.92234 0
M  V30 8821 C 838.916 1.35006 -4.10363 0
M  V30 8822 C 838.051 2.4992 -4.68736 0
M  V30 8823 C 837.09 1.98253 -5.79105 0
M  V30 8824 N 836.227 3.06551 -6.31642 0
M  V30 8825 H 841.067 0.0769881 -2.97901 0
M  V30 8826 H 838.604 0.026238 -1.47077 0
M  V30 8827 H 840.562 2.53425 -3.31408 0
M  V30 8828 H 839.192 2.37733 -2.18364 0
M  V30 8829 H 838.244 0.545274 -3.76472 0
M  V30 8830 H 839.556 0.931435 -4.90026 0
M  V30 8831 H 838.71 3.27823 -5.10507 0
M  V30 8832 H 837.449 2.95086 -3.88298 0
M  V30 8833 H 836.454 1.18822 -5.36807 0
M  V30 8834 H 837.679 1.54051 -6.61396 0
M  V30 8835 H 835.625 3.51143 -5.54107 0
M  V30 8836 H 835.542 2.69033 -7.06511 0
M  V30 8837 H 836.81 3.84499 -6.78071 0
M  V30 8838 N 841.039 1.57585 0.0217189 0
M  V30 8839 C 842.002 2.06004 1.00474 0
M  V30 8840 C 843.002 0.965461 1.2859 0
M  V30 8841 O 844.192 1.22884 1.23471 0
M  V30 8842 C 841.324 2.48319 2.33561 0
M  V30 8843 H 842.517 2.94112 0.586346 0
M  V30 8844 H 840.07 1.53973 0.268716 0
M  V30 8845 H 840.805 1.63389 2.80133 0
M  V30 8846 H 840.59 3.28239 2.1448 0
M  V30 8847 H 842.08 2.86181 3.04122 0
M  V30 8848 N 842.517 -0.29412 1.54831 0
M  V30 8849 C 843.464 -1.36296 1.86258 0
M  V30 8850 C 844.434 -1.50061 0.712097 0
M  V30 8851 O 845.619 -1.64809 0.961381 0
M  V30 8852 C 842.759 -2.72187 2.12151 0
M  V30 8853 C 841.872 -2.66816 3.39755 0
M  V30 8854 C 841.007 -3.94747 3.55455 0
M  V30 8855 C 840.046 -3.838 4.76827 0
M  V30 8856 N 839.183 -5.03521 4.89296 0
M  V30 8857 H 844.023 -1.08796 2.7743 0
M  V30 8858 H 841.56 -0.526069 1.37371 0
M  V30 8859 H 843.518 -3.51225 2.25159 0
M  V30 8860 H 842.148 -2.97934 1.24237 0
M  V30 8861 H 841.2 -1.79605 3.3533 0
M  V30 8862 H 842.512 -2.5462 4.28917 0
M  V30 8863 H 841.666 -4.82223 3.68166 0
M  V30 8864 H 840.405 -4.09785 2.64438 0
M  V30 8865 H 839.41 -2.94708 4.64141 0
M  V30 8866 H 840.635 -3.70301 5.69258 0
M  V30 8867 H 838.581 -5.1901 4.01204 0
M  V30 8868 H 838.498 -4.93775 5.72471 0
M  V30 8869 H 839.766 -5.92629 5.06371 0
M  V30 8870 N 843.995 -1.47404 -0.557645 0
M  V30 8871 C 845.241 -1.54235 -1.31679 0
M  V30 8872 C 845.574 -0.203782 -1.93128 0
M  V30 8873 O 844.849 0.787536 -1.77843 0
M  V30 8874 C 845.132 -2.66003 -2.42723 0
M  V30 8875 C 844.985 -4.09475 -1.86145 0
M  V30 8876 C 846.304 -2.73685 -3.44652 0
M  V30 8877 H 843.423 -0.561466 -0.477415 0
M  V30 8878 H 846.065 -1.79459 -0.624067 0
M  V30 8879 H 844.215 -2.44627 -3.01811 0
M  V30 8880 H 845.887 -4.42213 -1.31321 0
M  V30 8881 H 844.13 -4.17774 -1.16823 0
M  V30 8882 H 844.801 -4.83451 -2.66418 0
M  V30 8883 H 847.277 -2.92968 -2.95481 0
M  V30 8884 H 846.153 -3.53665 -4.19777 0
M  V30 8885 H 846.414 -1.80726 -4.03473 0
M  V30 8886 N 845.473 0.80434 -1.35529 0
M  V30 8887 C 846.42 1.91629 -1.28635 0
M  V30 8888 C 847.39 1.65348 -0.157862 0
M  V30 8889 O 848.575 1.87711 -0.341934 0
M  V30 8890 C 845.715 3.28207 -1.0665 0
M  V30 8891 C 844.828 3.66659 -2.28441 0
M  V30 8892 C 843.963 4.92279 -1.99588 0
M  V30 8893 C 843.002 5.23365 -3.1742 0
M  V30 8894 N 842.139 6.40165 -2.88328 0
M  V30 8895 H 846.979 1.96858 -2.23721 0
M  V30 8896 H 844.516 0.962871 -1.11208 0
M  V30 8897 H 846.474 4.06945 -0.919343 0
M  V30 8898 H 845.104 3.22441 -0.152253 0
M  V30 8899 H 844.156 2.83164 -2.54013 0
M  V30 8900 H 845.468 3.8559 -3.1642 0
M  V30 8901 H 844.622 5.78847 -1.81715 0
M  V30 8902 H 843.361 4.75387 -1.08896 0
M  V30 8903 H 842.366 4.35285 -3.35867 0
M  V30 8904 H 843.591 5.42185 -4.08916 0
M  V30 8905 H 841.537 6.24694 -2.00233 0
M  V30 8906 H 841.454 6.59357 -3.69843 0
M  V30 8907 H 842.722 7.29755 -2.74002 0
M  V30 8908 N 846.951 1.19563 1.02676 0
M  V30 8909 C 848.179 1.02488 1.79732 0
M  V30 8910 C 848.594 -0.426302 1.83924 0
M  V30 8911 O 847.951 -1.29609 1.28483 0
M  V30 8912 C 848.002 1.58944 3.24683 0
M  V30 8913 O 847.723 2.98382 3.2078 0
M  V30 8914 C 849.224 1.46681 4.1833 0
M  V30 8915 H 846.444 0.361098 0.565552 0
M  V30 8916 H 848.988 1.58426 1.29311 0
M  V30 8917 H 847.143 1.0715 3.72287 0
M  V30 8918 H 847.557 3.24983 4.11687 0
M  V30 8919 H 849.031 1.90959 5.17918 0
M  V30 8920 H 849.508 0.417663 4.3721 0
M  V30 8921 H 850.114 1.97616 3.76601 0
M  V30 8922 N 848.429 -1.21819 0.999893 0
M  V30 8923 C 849.654 -1.95298 0.698094 0
M  V30 8924 C 850.079 -1.73273 -0.731982 0
M  V30 8925 O 849.437 -1.01634 -1.50134 0
M  V30 8926 C 849.485 -3.45922 1.01834 0
M  V30 8927 O 848.589 -4.12223 0.120801 0
M  V30 8928 H 847.93 -0.610729 0.260588 0
M  V30 8929 H 850.46 -1.5472 1.33876 0
M  V30 8930 H 850.47 -3.96471 0.963074 0
M  V30 8931 H 849.145 -3.61278 2.06037 0
M  V30 8932 H 847.722 -3.72177 0.232153 0
M  V30 8933 N 849.908 -0.773975 -1.37286 0
M  V30 8934 C 851.136 -0.350758 -2.03905 0
M  V30 8935 C 851.551 1.02779 -1.58373 0
M  V30 8936 O 850.908 1.65646 -0.766009 0
M  V30 8937 C 850.959 -0.387335 -3.59419 0
M  V30 8938 O 850.68 -1.7115 -4.03286 0
M  V30 8939 C 852.181 0.047198 -4.43275 0
M  V30 8940 H 849.401 -0.146663 -0.654775 0
M  V30 8941 H 851.945 -1.04852 -1.75574 0
M  V30 8942 H 850.1 0.261865 -3.86514 0
M  V30 8943 H 850.514 -1.65166 -4.97816 0
M  V30 8944 H 851.988 -0.0295474 -5.51992 0
M  V30 8945 H 852.465 1.09786 -4.25257 0
M  V30 8946 H 853.071 -0.573899 -4.2141 0
M  V30 8947 N 851.386 1.48609 -0.524698 0
M  V30 8948 C 852.632 2.02797 0.0113382 0
M  V30 8949 C 852.965 1.40147 1.34433 0
M  V30 8950 O 852.24 0.545368 1.86698 0
M  V30 8951 C 852.523 3.59832 0.138931 0
M  V30 8952 C 852.376 4.32971 -1.21886 0
M  V30 8953 C 853.695 4.3145 0.868265 0
M  V30 8954 H 850.814 0.736995 0.00264645 0
M  V30 8955 H 853.456 1.77388 -0.680704 0
M  V30 8956 H 851.606 3.81612 0.72834 0
M  V30 8957 H 853.278 4.22624 -1.84897 0
M  V30 8958 H 851.521 3.94597 -1.80211 0
M  V30 8959 H 852.192 5.41279 -1.08263 0
M  V30 8960 H 854.668 4.14468 0.368145 0
M  V30 8961 H 853.544 5.41025 0.926428 0
M  V30 8962 H 853.805 3.98358 1.91737 0
M  V30 8963 N 852.864 0.259585 1.55447 0
M  V30 8964 C 854.141 -0.412595 1.91199 0
M  V30 8965 C 854.521 -1.74909 1.18194 0
M  V30 8966 O 853.869 -2.26474 0.303603 0
M  V30 8967 C 854.079 -0.568195 3.44344 0
M  V30 8968 C 855.427 -0.858253 4.15836 0
M  V30 8969 O 856.451 -0.653588 3.50152 0
M  V30 8970 O 855.31 -1.24874 5.32042 0
M  V30 8971 H 852.404 -0.223403 0.796254 0
M  V30 8972 H 854.95 0.30459 1.66944 0
M  V30 8973 H 853.722 0.372989 3.89518 0
M  V30 8974 H 853.345 -1.33544 3.74502 0
M  V30 8975 N 854.342 -1.57594 -0.0133615 0
M  V30 8976 C 855.272 -2.10611 -1.00823 0
M  V30 8977 C 856.253 -1.01217 -1.36708 0
M  V30 8978 O 857.438 -1.28827 -1.45318 0
M  V30 8979 C 854.568 -2.59844 -2.30431 0
M  V30 8980 C 853.522 -3.73644 -2.08745 0
M  V30 8981 C 852.848 -4.09141 -3.4425 0
M  V30 8982 C 854.148 -5.01454 -1.46086 0
M  V30 8983 H 855.842 -2.93985 -0.566849 0
M  V30 8984 H 853.388 -1.41423 -0.271219 0
M  V30 8985 H 855.341 -2.95557 -3.00373 0
M  V30 8986 H 854.065 -1.73573 -2.76658 0
M  V30 8987 H 852.724 -3.38303 -1.41232 0
M  V30 8988 H 852.372 -3.19914 -3.88155 0
M  V30 8989 H 852.072 -4.85802 -3.3056 0
M  V30 8990 H 853.596 -4.47402 -4.15528 0
M  V30 8991 H 855.01 -5.35024 -2.05966 0
M  V30 8992 H 853.407 -5.82832 -1.42924 0
M  V30 8993 H 854.477 -4.83003 -0.428471 0
M  V30 8994 N 855.82 0.285905 -1.54985 0
M  V30 8995 C 857.231 0.857869 -1.65824 0
M  V30 8996 C 857.582 1.87531 -0.576763 0
M  V30 8997 O 856.707 2.14528 0.284016 0
M  V30 8998 C 857.302 1.56277 -3.00604 0
M  V30 8999 C 855.861 2.08294 -3.13513 0
M  V30 9000 C 855.008 0.920633 -2.61571 0
M  V30 9001 H 857.959 0.0625463 -1.58577 0
M  V30 9002 H 857.98 2.42912 -2.92872 0
M  V30 9003 H 857.492 0.822017 -3.79295 0
M  V30 9004 H 855.593 2.8537 -2.39572 0
M  V30 9005 H 855.706 2.3071 -4.19892 0
M  V30 9006 H 854.07 1.31043 -2.18403 0
M  V30 9007 H 854.853 0.193594 -3.42754 0
M  V30 9008 N 857.298 1.47698 0.54982 0
M  V30 9009 C 858.547 1.53961 1.30303 0
M  V30 9010 C 858.86 0.209731 1.94472 0
M  V30 9011 O 860.066 0.150418 2.71083 0
M  V30 9012 C 858.522 2.71436 2.36328 0
M  V30 9013 C 858.13 4.10983 1.78316 0
M  V30 9014 C 859.874 2.86996 3.12783 0
M  V30 9015 C 857.781 5.19747 2.82164 0
M  V30 9016 H 856.711 0.573098 0.489975 0
M  V30 9017 H 859.362 1.73989 0.583089 0
M  V30 9018 H 857.744 2.44801 3.11269 0
M  V30 9019 H 858.918 4.47552 1.09697 0
M  V30 9020 H 857.233 4.00371 1.1442 0
M  V30 9021 H 859.83 3.65422 3.90347 0
M  V30 9022 H 860.173 1.95712 3.67427 0
M  V30 9023 H 860.706 3.13436 2.44954 0
M  V30 9024 H 857.445 6.12932 2.32366 0
M  V30 9025 H 856.965 4.87688 3.49171 0
M  V30 9026 H 858.644 5.47014 3.4552 0
M  V30 9027 N 858.776 -0.797141 1.35954 0
M  V30 9028 C 859.686 -1.94088 1.31784 0
M  V30 9029 C 860.702 -1.72588 0.221227 0
M  V30 9030 O 861.878 -1.96256 0.452255 0
M  V30 9031 C 858.943 -3.28828 1.09878 0
M  V30 9032 C 858.004 -3.63158 2.28942 0
M  V30 9033 C 857.237 -4.91469 2.08072 0
M  V30 9034 O 857.46 -5.60616 1.05196 0
M  V30 9035 O 856.394 -5.24277 2.95664 0
M  V30 9036 H 860.22 -2.00554 2.28061 0
M  V30 9037 H 857.805 -0.936288 1.16422 0
M  V30 9038 H 859.687 -4.09473 0.995485 0
M  V30 9039 H 858.362 -3.23271 0.16659 0
M  V30 9040 H 857.269 -2.82851 2.44839 0
M  V30 9041 H 858.602 -3.7343 3.20641 0
M  V30 9042 N 860.254 -1.20106 -1.0204 0
M  V30 9043 C 861.202 -0.943231 -2.12617 0
M  V30 9044 C 862.196 0.104042 -1.6908 0
M  V30 9045 O 863.402 -0.0459732 -1.79941 0
M  V30 9046 H 859.777 -0.28767 -0.694802 0
M  V30 9047 H 861.748 -1.88221 -2.3155 0
M  V30 9048 C 860.497 -0.50771 -3.43973 0
M  V30 9049 H 859.82 -1.30514 -3.77897 0
M  V30 9050 H 861.26 -0.366486 -4.22413 0
M  V30 9051 C 859.719 0.77939 -3.27761 0
M  V30 9052 O 860.249 1.83876 -3.57145 0
M  V30 9053 N 858.455 0.739931 -2.81022 0
M  V30 9054 H 858.002 -0.122426 -2.57309 0
M  V30 9055 H 857.96 1.60147 -2.70556 0
M  V30 9056 N 861.732 1.21287 -1.00634 0
M  V30 9057 C 862.664 2.2308 -0.526094 0
M  V30 9058 C 863.677 1.58157 0.386031 0
M  V30 9059 O 864.866 1.77528 0.186016 0
M  V30 9060 C 861.966 3.37937 0.255289 0
M  V30 9061 C 861.139 4.32449 -0.656236 0
M  V30 9062 C 860.198 5.26145 0.0757714 0
M  V30 9063 O 859.224 5.66601 -0.543325 0
M  V30 9064 N 860.426 5.6449 1.35391 0
M  V30 9065 H 863.191 2.64913 -1.40147 0
M  V30 9066 H 860.752 1.35724 -0.882641 0
M  V30 9067 H 862.744 3.97614 0.753977 0
M  V30 9068 H 861.314 2.95078 1.03187 0
M  V30 9069 H 860.534 3.70892 -1.3354 0
M  V30 9070 H 861.822 4.92526 -1.27653 0
M  V30 9071 H 861.22 5.33617 1.878 0
M  V30 9072 H 859.777 6.26524 1.79753 0
M  V30 9073 N 863.21 0.781244 1.36873 0
M  V30 9074 C 864.14 0.188128 2.32741 0
M  V30 9075 C 865.121 -0.672326 1.56249 0
M  V30 9076 O 866.306 -0.607835 1.84442 0
M  V30 9077 C 863.436 -0.684341 3.40491 0
M  V30 9078 C 862.39 0.0755641 4.27933 0
M  V30 9079 C 861.716 -0.916968 5.26779 0
M  V30 9080 C 863.016 1.26006 5.06873 0
M  V30 9081 H 864.71 0.989016 2.82593 0
M  V30 9082 H 862.256 0.477038 1.35869 0
M  V30 9083 H 864.209 -1.10915 4.06541 0
M  V30 9084 H 862.933 -1.51785 2.89187 0
M  V30 9085 H 861.592 0.481258 3.63427 0
M  V30 9086 H 861.24 -1.74528 4.71751 0
M  V30 9087 H 860.94 -0.413 5.86147 0
M  V30 9088 H 862.464 -1.34052 5.95703 0
M  V30 9089 H 863.878 0.911425 5.66009 0
M  V30 9090 H 862.275 1.69676 5.75613 0
M  V30 9091 H 863.345 2.05948 4.38991 0
M  V30 9092 N 864.689 -1.48329 0.532571 0
M  V30 9093 C 865.619 -2.32485 -0.217511 0
M  V30 9094 C 866.6 -1.42255 -0.932598 0
M  V30 9095 O 867.785 -1.7114 -0.917873 0
M  V30 9096 C 864.915 -3.23509 -1.26329 0
M  V30 9097 C 863.869 -4.22784 -0.666191 0
M  V30 9098 C 863.195 -5.0296 -1.81482 0
M  V30 9099 C 864.495 -5.21031 0.363813 0
M  V30 9100 H 866.189 -2.95445 0.485014 0
M  V30 9101 H 863.735 -1.42075 0.234694 0
M  V30 9102 H 865.688 -3.81211 -1.79601 0
M  V30 9103 H 864.412 -2.58554 -1.99543 0
M  V30 9104 H 863.071 -3.66272 -0.15498 0
M  V30 9105 H 862.719 -4.34427 -2.5354 0
M  V30 9106 H 862.419 -5.70154 -1.4212 0
M  V30 9107 H 863.943 -5.63514 -2.35126 0
M  V30 9108 H 865.357 -5.73241 -0.0819079 0
M  V30 9109 H 863.754 -5.96292 0.674956 0
M  V30 9110 H 864.824 -4.6801 1.26865 0
M  V30 9111 N 866.167 -0.267825 -1.55308 0
M  V30 9112 C 867.413 0.34458 -2.0046 0
M  V30 9113 C 867.768 1.54028 -1.15296 0
M  V30 9114 O 867.061 1.90409 -0.213316 0
M  V30 9115 C 867.255 0.784247 -3.48689 0
M  V30 9116 C 867.084 -0.367304 -4.48197 0
M  V30 9117 C 865.854 -0.848746 -4.98121 0
M  V30 9118 C 868.052 -1.20136 -5.00072 0
M  V30 9119 N 866.034 -1.97052 -5.81415 0
M  V30 9120 C 867.405 -2.17115 -5.80742 0
M  V30 9121 C 869.46 -1.23553 -4.82327 0
M  V30 9122 C 868.163 -3.17248 -6.45559 0
M  V30 9123 C 870.189 -2.22527 -5.47938 0
M  V30 9124 C 869.551 -3.1824 -6.28413 0
M  V30 9125 H 865.65 0.091465 -0.776633 0
M  V30 9126 H 868.234 -0.390184 -1.9075 0
M  V30 9127 H 866.405 1.48825 -3.58756 0
M  V30 9128 H 868.137 1.37337 -3.80684 0
M  V30 9129 H 864.892 -0.429291 -4.7165 0
M  V30 9130 H 865.316 -2.53481 -6.27755 0
M  V30 9131 H 869.958 -0.50937 -4.1972 0
M  V30 9132 H 867.676 -3.90801 -7.07319 0
M  V30 9133 H 871.262 -2.25904 -5.36152 0
M  V30 9134 H 870.142 -3.93573 -6.78285 0
M  V30 9135 N 867.645 1.57599 0.00500368 0
M  V30 9136 C 868.577 2.04949 1.02609 0
M  V30 9137 C 869.59 0.966507 1.31006 0
M  V30 9138 O 870.779 1.2434 1.2807 0
M  V30 9139 C 867.879 2.43023 2.36206 0
M  V30 9140 C 867.052 3.73993 2.26821 0
M  V30 9141 C 866.111 3.9899 3.43065 0
M  V30 9142 O 865.137 4.69725 3.21477 0
M  V30 9143 N 866.339 3.46496 4.65748 0
M  V30 9144 H 869.104 2.93167 0.622336 0
M  V30 9145 H 866.665 1.60752 0.192488 0
M  V30 9146 H 868.657 2.56863 3.12735 0
M  V30 9147 H 867.227 1.60349 2.68341 0
M  V30 9148 H 866.447 3.70277 1.35235 0
M  V30 9149 H 867.735 4.59865 2.17719 0
M  V30 9150 H 867.133 2.89206 4.86186 0
M  V30 9151 H 865.69 3.65675 5.3956 0
M  V30 9152 N 869.123 -0.277682 1.55134 0
M  V30 9153 C 870.372 -1.00766 1.74726 0
M  V30 9154 C 870.685 -1.87617 0.553092 0
M  V30 9155 O 871.891 -2.64058 0.631318 0
M  V30 9156 C 870.347 -1.84147 3.09221 0
M  V30 9157 C 869.955 -1.02186 4.3619 0
M  V30 9158 C 871.699 -2.56604 3.38164 0
M  V30 9159 C 869.606 -1.84978 5.61727 0
M  V30 9160 H 868.536 -0.379948 0.651273 0
M  V30 9161 H 871.187 -0.263543 1.81598 0
M  V30 9162 H 869.569 -2.62637 2.96375 0
M  V30 9163 H 870.743 -0.281459 4.5994 0
M  V30 9164 H 869.058 -0.412054 4.14356 0
M  V30 9165 H 871.655 -3.18942 4.29162 0
M  V30 9166 H 871.998 -3.26647 2.58085 0
M  V30 9167 H 872.531 -1.85147 3.52087 0
M  V30 9168 H 869.27 -1.19365 6.4454 0
M  V30 9169 H 868.79 -2.56628 5.42128 0
M  V30 9170 H 870.469 -2.42458 5.99853 0
M  V30 9171 N 870.601 -1.47988 -0.541979 0
M  V30 9172 C 871.878 -1.45878 -1.30303 0
M  V30 9173 C 872.258 -0.163931 -2.10463 0
M  V30 9174 O 871.606 0.854479 -2.11922 0
M  V30 9175 C 871.816 -2.71359 -2.19466 0
M  V30 9176 C 873.164 -3.19199 -2.79995 0
M  V30 9177 O 874.188 -2.72193 -2.2976 0
M  V30 9178 O 873.047 -4.00961 -3.71339 0
M  V30 9179 H 870.141 -0.582043 -0.587498 0
M  V30 9180 H 872.687 -1.60207 -0.559623 0
M  V30 9181 H 871.459 -3.57122 -1.59936 0
M  V30 9182 H 871.082 -2.59692 -3.01075 0
M  V30 9183 N 872.079 0.78992 -1.36375 0
M  V30 9184 C 873.495 1.0879 -1.16777 0
M  V30 9185 C 873.695 2.01498 0.00848236 0
M  V30 9186 O 872.751 2.43338 0.674007 0
M  V30 9187 C 874.064 1.70285 -2.47837 0
M  V30 9188 C 875.612 1.82629 -2.54196 0
M  V30 9189 C 876.087 2.47539 -3.85342 0
M  V30 9190 N 877.578 2.55008 -3.86685 0
M  V30 9191 C 878.313 3.06041 -4.84898 0
M  V30 9192 N 877.809 3.57385 -5.93505 0
M  V30 9193 N 879.602 3.04748 -4.72319 0
M  V30 9194 H 871.753 0.173985 -2.11686 0
M  V30 9195 H 874.016 0.139798 -0.937636 0
M  V30 9196 H 873.722 1.09633 -3.34176 0
M  V30 9197 H 873.596 2.69799 -2.63607 0
M  V30 9198 H 875.983 2.42419 -1.68276 0
M  V30 9199 H 876.064 0.81923 -2.42327 0
M  V30 9200 H 875.708 1.88393 -4.71668 0
M  V30 9201 H 875.638 3.48815 -3.94507 0
M  V30 9202 H 878.129 2.18651 -3.08221 0
M  V30 9203 H 878.442 3.94674 -6.64419 0
M  V30 9204 H 876.787 3.55538 -5.97175 0
M  V30 9205 H 879.978 2.63925 -3.86602 0
M  V30 9206 H 880.151 3.44212 -5.49019 0
M  V30 9207 N 873.557 1.20646 1.01402 0
M  V30 9208 C 874.467 0.973385 2.13453 0
M  V30 9209 C 875.483 -0.0715865 1.73853 0
M  V30 9210 O 876.659 0.116438 2.01063 0
M  V30 9211 C 873.724 0.531285 3.42605 0
M  V30 9212 C 872.785 1.64741 3.96433 0
M  V30 9213 C 872.018 1.22631 5.1942 0
M  V30 9214 O 872.241 0.0960891 5.70319 0
M  V30 9215 O 871.175 2.03474 5.66465 0
M  V30 9216 H 875.001 1.91164 2.35987 0
M  V30 9217 H 872.586 0.990553 1.11841 0
M  V30 9218 H 874.468 0.294095 4.20373 0
M  V30 9219 H 873.143 -0.378358 3.21481 0
M  V30 9220 H 872.05 1.93891 3.19933 0
M  V30 9221 H 873.383 2.53415 4.2195 0
M  V30 9222 N 875.035 -1.20752 1.01276 0
M  V30 9223 C 875.968 -2.22091 0.524472 0
M  V30 9224 C 876.946 -1.5692 -0.426017 0
M  V30 9225 O 878.13 -1.8528 -0.346919 0
M  V30 9226 C 875.257 -3.37868 -0.237224 0
M  V30 9227 C 874.303 -4.21327 0.662236 0
M  V30 9228 S 875.136 -4.91352 2.12916 0
M  V30 9229 C 876.292 -6.10553 1.37752 0
M  V30 9230 H 876.525 -2.63166 1.38315 0
M  V30 9231 H 874.058 -1.30742 0.821332 0
M  V30 9232 H 876.016 -4.04985 -0.670599 0
M  V30 9233 H 874.677 -2.95261 -1.07143 0
M  V30 9234 H 873.87 -5.03944 0.0751085 0
M  V30 9235 H 873.472 -3.59445 1.03322 0
M  V30 9236 H 875.764 -6.74322 0.655491 0
M  V30 9237 H 876.707 -6.73717 2.17969 0
M  V30 9238 H 877.115 -5.57566 0.882088 0
M  V30 9239 N 876.513 -0.788492 -1.36457 0
M  V30 9240 C 877.443 -0.200468 -2.32638 0
M  V30 9241 C 878.424 0.664031 -1.56603 0
M  V30 9242 O 879.609 0.598045 -1.84762 0
M  V30 9243 C 876.739 0.666274 -3.40849 0
M  V30 9244 C 875.693 -0.0982574 -4.27887 0
M  V30 9245 C 875.019 0.889018 -5.27258 0
M  V30 9246 C 876.319 -1.28692 -5.06197 0
M  V30 9247 H 878.013 -1.00399 -2.82065 0
M  V30 9248 H 875.559 -0.484237 -1.35614 0
M  V30 9249 H 877.512 1.08757 -4.07124 0
M  V30 9250 H 876.236 1.50249 -2.89987 0
M  V30 9251 H 874.895 -0.500525 -3.63167 0
M  V30 9252 H 874.543 1.72024 -4.7267 0
M  V30 9253 H 874.243 0.381909 -5.86358 0
M  V30 9254 H 875.767 1.30891 -5.96406 0
M  V30 9255 H 877.181 -0.941429 -5.65517 0
M  V30 9256 H 875.578 -1.72726 -5.74705 0
M  V30 9257 H 876.648 -2.08273 -4.37893 0
M  V30 9258 N 877.991 1.48044 -0.54043 0
M  V30 9259 C 878.939 2.31461 0.229862 0
M  V30 9260 C 879.933 1.41884 0.925495 0
M  V30 9261 O 881.139 1.58736 0.848689 0
M  V30 9262 H 877.514 0.746227 0.0929975 0
M  V30 9263 H 879.485 2.94297 -0.493118 0
M  V30 9264 C 878.234 3.24172 1.25729 0
M  V30 9265 H 877.557 3.93052 0.731426 0
M  V30 9266 H 878.997 3.85404 1.76747 0
M  V30 9267 C 877.456 2.4651 2.2964 0
M  V30 9268 O 877.986 2.19742 3.36268 0
M  V30 9269 N 876.192 2.07817 2.03127 0
M  V30 9270 H 875.739 2.29786 1.1643 0
M  V30 9271 H 875.697 1.56168 2.72872 0
M  V30 9272 N 879.47 0.276058 1.55163 0
M  V30 9273 C 880.4 -0.604633 2.25536 0
M  V30 9274 C 881.381 -1.15813 1.24585 0
M  V30 9275 O 882.566 -1.1921 1.53306 0
M  V30 9276 C 879.696 -1.78836 2.97716 0
M  V30 9277 C 878.65 -1.36635 4.05604 0
M  V30 9278 C 877.976 -2.63325 4.65364 0
M  V30 9279 C 879.276 -0.515858 5.19746 0
M  V30 9280 H 880.97 -0.0177483 2.99395 0
M  V30 9281 H 878.516 -0.00709627 1.43998 0
M  V30 9282 H 880.469 -2.41036 3.45658 0
M  V30 9283 H 879.193 -2.40109 2.21394 0
M  V30 9284 H 877.852 -0.767541 3.58475 0
M  V30 9285 H 877.5 -3.22858 3.85709 0
M  V30 9286 H 877.2 -2.358 5.38212 0
M  V30 9287 H 878.724 -3.26372 5.16056 0
M  V30 9288 H 880.138 -1.04289 5.63735 0
M  V30 9289 H 878.535 -0.335449 5.99162 0
M  V30 9290 H 879.605 0.465137 4.82664 0
M  V30 9291 N 880.948 -1.576 0.00335426 0
M  V30 9292 C 882.178 -1.94713 -0.690682 0
M  V30 9293 C 882.586 -0.876915 -1.67651 0
M  V30 9294 O 881.929 0.152434 -1.83066 0
M  V30 9295 C 881.991 -3.27833 -1.47532 0
M  V30 9296 C 881.655 -4.52344 -0.650704 0
M  V30 9297 C 882.652 -5.19862 0.0630537 0
M  V30 9298 C 880.337 -4.98755 -0.595687 0
M  V30 9299 C 882.331 -6.32093 0.820779 0
M  V30 9300 C 880.018 -6.10875 0.165761 0
M  V30 9301 C 881.016 -6.77401 0.872724 0
M  V30 9302 O 880.704 -7.87372 1.62174 0
M  V30 9303 H 880.436 -0.646627 -0.197104 0
M  V30 9304 H 882.99 -2.05335 0.0516082 0
M  V30 9305 H 881.22 -3.13628 -2.26217 0
M  V30 9306 H 882.909 -3.50034 -2.05501 0
M  V30 9307 H 883.675 -4.84991 0.0297223 0
M  V30 9308 H 879.554 -4.46797 -1.13549 0
M  V30 9309 H 883.098 -6.83953 1.37312 0
M  V30 9310 H 878.995 -6.45187 0.200901 0
M  V30 9311 H 879.763 -8.03905 1.5388 0
M  V30 9312 N 882.426 0.269451 -1.5528 0
M  V30 9313 C 883.675 0.998381 -1.75258 0
M  V30 9314 C 883.988 1.87321 -0.563034 0
M  V30 9315 O 885.194 2.63719 -0.645313 0
M  V30 9316 C 883.65 1.82505 -3.10193 0
M  V30 9317 C 883.258 0.99871 -4.36726 0
M  V30 9318 C 885.002 2.54807 -3.3952 0
M  V30 9319 C 882.909 1.81997 -5.627 0
M  V30 9320 H 881.839 0.376488 -0.653278 0
M  V30 9321 H 884.49 0.253909 -1.81735 0
M  V30 9322 H 882.872 2.61061 -2.97763 0
M  V30 9323 H 884.046 0.257064 -4.60082 0
M  V30 9324 H 882.361 0.390074 -4.14569 0
M  V30 9325 H 884.958 3.16662 -4.30847 0
M  V30 9326 H 885.301 3.25273 -2.59813 0
M  V30 9327 H 885.834 1.83278 -3.53064 0
M  V30 9328 H 882.573 1.15945 -6.45164 0
M  V30 9329 H 882.093 2.53749 -5.43481 0
M  V30 9330 H 883.772 2.39274 -6.0113 0
M  V30 9331 N 883.904 1.48273 0.534124 0
M  V30 9332 C 884.814 1.65162 1.66609 0
M  V30 9333 C 885.83 0.534177 1.65598 0
M  V30 9334 O 887.006 0.804715 1.84625 0
M  V30 9335 C 884.071 1.68354 3.03081 0
M  V30 9336 C 883.132 2.91696 3.1498 0
M  V30 9337 C 882.365 2.94725 4.44941 0
M  V30 9338 O 882.588 2.06285 5.31792 0
M  V30 9339 O 881.522 3.8685 4.61119 0
M  V30 9340 H 885.348 2.60991 1.55298 0
M  V30 9341 H 882.933 1.31626 0.706749 0
M  V30 9342 H 884.815 1.72998 3.84252 0
M  V30 9343 H 883.49 0.756978 3.14725 0
M  V30 9344 H 882.397 2.92586 2.33119 0
M  V30 9345 H 883.73 3.83722 3.0825 0
M  V30 9346 N 885.382 -0.782676 1.36792 0
M  V30 9347 C 886.33 -1.91698 1.31737 0
M  V30 9348 C 887.324 -1.68118 0.207994 0
M  V30 9349 O 888.53 -1.76042 0.375393 0
M  V30 9350 H 884.905 -0.630215 0.410284 0
M  V30 9351 H 886.876 -1.93078 2.27516 0
M  V30 9352 C 885.625 -3.28816 1.13029 0
M  V30 9353 H 884.948 -3.4753 1.97643 0
M  V30 9354 H 886.388 -4.08515 1.13541 0
M  V30 9355 C 884.847 -3.36497 -0.1647 0
M  V30 9356 O 885.377 -3.84822 -1.15216 0
M  V30 9357 N 883.583 -2.89828 -0.211678 0
M  V30 9358 H 883.13 -2.50693 0.59252 0
M  V30 9359 H 883.088 -2.95349 -1.07779 0
M  V30 9360 N 886.86 -1.21182 -1.00761 0
M  V30 9361 C 887.77 -0.984691 -2.12934 0
M  V30 9362 C 888.786 0.0623657 -1.73888 0
M  V30 9363 O 889.962 -0.1271 -2.00999 0
M  V30 9364 C 887.027 -0.549447 -3.42319 0
M  V30 9365 C 886.088 -1.66841 -3.95553 0
M  V30 9366 C 885.321 -1.25384 -5.18763 0
M  V30 9367 O 885.544 -0.126333 -5.7026 0
M  V30 9368 O 884.478 -2.06475 -5.65377 0
M  V30 9369 H 888.304 -1.92413 -2.3497 0
M  V30 9370 H 885.889 -0.99647 -1.11314 0
M  V30 9371 H 887.771 -0.316384 -4.20211 0
M  V30 9372 H 886.446 0.361304 -3.21677 0
M  V30 9373 H 885.353 -1.95585 -3.189 0
M  V30 9374 H 886.686 -2.55649 -4.206 0
M  V30 9375 N 888.338 1.20213 -1.01915 0
M  V30 9376 C 889.586 1.89272 -0.708552 0
M  V30 9377 C 889.907 1.79394 0.76438 0
M  V30 9378 O 889.177 1.198 1.54999 0
M  V30 9379 H 887.757 0.700628 -0.259094 0
M  V30 9380 H 890.419 1.45985 -1.29129 0
M  V30 9381 H 889.515 2.95841 -0.994215 0
M  V30 9382 N 889.816 0.795718 1.36037 0
M  V30 9383 C 890.763 0.196548 2.29962 0
M  V30 9384 C 891.733 -0.663213 1.52285 0
M  V30 9385 O 892.918 -0.610574 1.80767 0
M  V30 9386 C 890.058 -0.657639 3.38776 0
M  V30 9387 C 889.171 0.221358 4.31433 0
M  V30 9388 C 888.306 -0.6398 5.27333 0
M  V30 9389 C 887.345 0.240265 6.11628 0
M  V30 9390 N 886.482 -0.580237 6.99698 0
M  V30 9391 H 891.322 1.00295 2.80615 0
M  V30 9392 H 888.859 0.506147 1.38118 0
M  V30 9393 H 890.817 -1.16793 4.00519 0
M  V30 9394 H 889.447 -1.42941 2.89426 0
M  V30 9395 H 888.499 0.84967 3.70789 0
M  V30 9396 H 889.811 0.899195 4.90628 0
M  V30 9397 H 888.965 -1.21566 5.94396 0
M  V30 9398 H 887.704 -1.35124 4.68607 0
M  V30 9399 H 886.709 0.828474 5.43522 0
M  V30 9400 H 887.934 0.949403 6.72431 0
M  V30 9401 H 885.88 -1.27585 6.43473 0
M  V30 9402 H 885.797 0.0397853 7.5599 0
M  V30 9403 H 887.065 -1.13972 7.71123 0
M  V30 9404 N 891.294 -1.47756 0.548274 0
M  V30 9405 C 892.227 -2.26804 -0.252059 0
M  V30 9406 C 893.205 -1.3349 -0.928389 0
M  V30 9407 O 894.389 -1.6286 -0.949156 0
M  V30 9408 C 891.516 -3.10266 -1.35841 0
M  V30 9409 C 890.562 -4.1909 -0.791578 0
M  V30 9410 S 891.395 -5.34323 0.354878 0
M  V30 9411 C 892.551 -6.21348 -0.753511 0
M  V30 9412 H 892.784 -2.94336 0.418744 0
M  V30 9413 H 890.317 -1.50735 0.334413 0
M  V30 9414 H 892.275 -3.58925 -1.99207 0
M  V30 9415 H 890.936 -2.42112 -2.00101 0
M  V30 9416 H 890.129 -4.77183 -1.62212 0
M  V30 9417 H 889.731 -3.73266 -0.234274 0
M  V30 9418 H 892.023 -6.57156 -1.6478 0
M  V30 9419 H 892.966 -7.07788 -0.210141 0
M  V30 9420 H 893.374 -5.54797 -1.04216 0
M  V30 9421 N 892.772 -0.284283 -1.55015 0
M  V30 9422 C 894.021 0.33055 -1.98973 0
M  V30 9423 C 894.334 1.56284 -1.17621 0
M  V30 9424 O 895.54 2.2512 -1.51767 0
M  V30 9425 C 893.996 0.639457 -3.54174 0
M  V30 9426 C 893.604 -0.573543 -4.44313 0
M  V30 9427 C 895.348 1.21641 -4.06699 0
M  V30 9428 C 893.255 -0.238715 -5.90918 0
M  V30 9429 H 892.185 0.127285 -0.743179 0
M  V30 9430 H 894.836 -0.390372 -1.793 0
M  V30 9431 H 893.218 1.41953 -3.69683 0
M  V30 9432 H 894.392 -1.3502 -4.40575 0
M  V30 9433 H 892.707 -1.06797 -4.02472 0
M  V30 9434 H 895.304 1.48088 -5.13784 0
M  V30 9435 H 895.647 2.15328 -3.56286 0
M  V30 9436 H 896.18 0.498422 -3.94665 0
M  V30 9437 H 892.919 -1.1437 -6.45445 0
M  V30 9438 H 892.439 0.500997 -5.97704 0
M  V30 9439 H 894.118 0.165774 -6.46788 0
M  V30 9440 N 894.251 1.57596 -0.0117121 0
M  V30 9441 C 895.184 2.04624 1.01016 0
M  V30 9442 C 896.162 0.938437 1.32786 0
M  V30 9443 O 897.346 1.20746 1.44751 0
M  V30 9444 C 894.473 2.45369 2.33477 0
M  V30 9445 C 893.519 3.66998 2.17289 0
M  V30 9446 S 894.352 5.14412 1.48795 0
M  V30 9447 C 895.508 5.58438 2.82662 0
M  V30 9448 H 895.741 2.9098 0.60977 0
M  V30 9449 H 893.274 1.53106 0.199494 0
M  V30 9450 H 895.232 2.69511 3.09635 0
M  V30 9451 H 893.893 1.59391 2.70653 0
M  V30 9452 H 893.086 3.93297 3.15172 0
M  V30 9453 H 892.688 3.42918 1.49275 0
M  V30 9454 H 894.98 5.61614 3.78941 0
M  V30 9455 H 895.923 6.58224 2.61049 0
M  V30 9456 H 896.331 4.86033 2.8711 0
M  V30 9457 N 895.729 -0.261212 1.5542 0
M  V30 9458 C 896.661 -1.34571 1.85535 0
M  V30 9459 C 897.674 -1.44979 0.740612 0
M  V30 9460 O 898.863 -1.46584 1.01859 0
M  V30 9461 C 895.963 -2.7258 2.01378 0
M  V30 9462 C 895.136 -2.84618 3.32131 0
M  V30 9463 C 894.195 -4.03379 3.37893 0
M  V30 9464 O 893.221 -3.93581 4.11197 0
M  V30 9465 N 894.423 -5.15893 2.66148 0
M  V30 9466 H 897.188 -1.09078 2.79145 0
M  V30 9467 H 894.749 -0.451327 1.55482 0
M  V30 9468 H 896.741 -3.50342 2.0259 0
M  V30 9469 H 895.311 -2.90844 1.14579 0
M  V30 9470 H 894.531 -1.93647 3.43358 0
M  V30 9471 H 895.819 -2.896 4.18341 0
M  V30 9472 H 895.217 -5.26743 2.06297 0
M  V30 9473 H 893.774 -5.91842 2.73069 0
M  V30 9474 N 897.207 -1.48554 -0.526253 0
M  V30 9475 C 898.484 -1.47252 -1.28748 0
M  V30 9476 C 898.864 -0.186245 -2.10277 0
M  V30 9477 O 898.212 0.831954 -2.12816 0
M  V30 9478 C 898.422 -2.73672 -2.16575 0
M  V30 9479 C 899.77 -3.22151 -2.76593 0
M  V30 9480 O 900.794 -2.74614 -2.2686 0
M  V30 9481 O 899.653 -4.04877 -3.67066 0
M  V30 9482 H 896.747 -0.588242 -0.581292 0
M  V30 9483 H 899.293 -1.60792 -0.5426 0
M  V30 9484 H 898.065 -3.58798 -1.56139 0
M  V30 9485 H 897.688 -2.6287 -2.98304 0
M  V30 9486 N 898.685 0.775411 -1.37205 0
M  V30 9487 C 899.632 1.88857 -1.32671 0
M  V30 9488 C 900.602 1.64976 -0.192899 0
M  V30 9489 O 901.787 1.86944 -0.381673 0
M  V30 9490 C 898.927 3.25871 -1.13588 0
M  V30 9491 C 898.04 3.61731 -2.36167 0
M  V30 9492 C 897.175 4.87934 -2.09985 0
M  V30 9493 C 896.214 5.16514 -3.2845 0
M  V30 9494 N 895.351 6.33905 -3.01842 0
M  V30 9495 H 900.191 1.92068 -2.27846 0
M  V30 9496 H 897.728 0.939066 -1.13225 0
M  V30 9497 H 899.686 4.04903 -1.00546 0
M  V30 9498 H 898.316 3.22045 -0.220613 0
M  V30 9499 H 897.368 2.77712 -2.59962 0
M  V30 9500 H 898.68 3.78792 -3.24528 0
M  V30 9501 H 897.834 5.74863 -1.93953 0
M  V30 9502 H 896.573 4.7297 -1.18956 0
M  V30 9503 H 895.578 4.28063 -3.45025 0
M  V30 9504 H 896.803 5.33389 -4.20325 0
M  V30 9505 H 894.749 6.20306 -2.13439 0
M  V30 9506 H 894.666 6.51364 -3.83746 0
M  V30 9507 H 895.934 7.23779 -2.8942 0
M  V30 9508 N 900.163 1.21714 1.00117 0
M  V30 9509 C 901.093 1.00397 2.10815 0
M  V30 9510 C 902.074 -0.0723502 1.69946 0
M  V30 9511 O 903.259 0.0882398 1.93999 0
M  V30 9512 C 900.389 0.572001 3.42557 0
M  V30 9513 C 899.343 1.59331 3.97237 0
M  V30 9514 C 898.669 1.01746 5.2493 0
M  V30 9515 C 899.969 2.98117 4.28863 0
M  V30 9516 H 901.663 1.92983 2.28906 0
M  V30 9517 H 899.209 0.929273 1.10002 0
M  V30 9518 H 901.162 0.410018 4.19401 0
M  V30 9519 H 899.886 -0.38951 3.24269 0
M  V30 9520 H 898.545 1.74293 3.22518 0
M  V30 9521 H 898.193 0.0475491 5.02978 0
M  V30 9522 H 897.893 1.69969 5.62481 0
M  V30 9523 H 899.417 0.866881 6.04415 0
M  V30 9524 H 900.831 2.86578 4.96534 0
M  V30 9525 H 899.228 3.63389 4.77565 0
M  V30 9526 H 900.298 3.48674 3.36979 0
M  V30 9527 N 901.641 -1.19671 1.02551 0
M  V30 9528 C 902.551 -2.26441 0.613329 0
M  V30 9529 C 903.567 -1.70375 -0.353339 0
M  V30 9530 O 904.743 -2.0028 -0.212064 0
M  V30 9531 C 901.808 -3.46684 -0.0329028 0
M  V30 9532 C 900.869 -4.17945 0.980837 0
M  V30 9533 C 900.102 -5.32448 0.36535 0
M  V30 9534 O 900.325 -5.64291 -0.832596 0
M  V30 9535 O 899.259 -5.92012 1.08652 0
M  V30 9536 H 903.085 -2.63932 1.50246 0
M  V30 9537 H 900.67 -1.2646 0.795502 0
M  V30 9538 H 902.552 -4.1956 -0.393395 0
M  V30 9539 H 901.227 -3.1105 -0.896089 0
M  V30 9540 H 900.134 -3.47204 1.39286 0
M  V30 9541 H 901.467 -4.57542 1.81428 0
M  V30 9542 N 903.119 -0.802921 -1.35613 0
M  V30 9543 C 904.066 -0.20874 -2.29854 0
M  V30 9544 C 905.036 0.655128 -1.52634 0
M  V30 9545 O 906.221 0.600979 -1.81088 0
M  V30 9546 C 903.361 0.639663 -3.3912 0
M  V30 9547 C 902.474 -0.244234 -4.31309 0
M  V30 9548 C 901.609 0.611825 -5.27665 0
M  V30 9549 C 900.648 -0.272698 -6.11492 0
M  V30 9550 N 899.785 0.543122 -6.99996 0
M  V30 9551 H 904.625 -1.01782 -2.80079 0
M  V30 9552 H 902.162 -0.513465 -1.37848 0
M  V30 9553 H 904.12 1.14668 -4.01132 0
M  V30 9554 H 902.75 1.41404 -2.9018 0
M  V30 9555 H 901.802 -0.869322 -3.70334 0
M  V30 9556 H 903.114 -0.925202 -4.90144 0
M  V30 9557 H 902.268 1.18412 -5.95032 0
M  V30 9558 H 901.007 1.32637 -4.69317 0
M  V30 9559 H 900.012 -0.857287 -5.43075 0
M  V30 9560 H 901.237 -0.985051 -6.71918 0
M  V30 9561 H 899.183 1.24171 -6.44141 0
M  V30 9562 H 899.1 -0.0798767 -7.55958 0
M  V30 9563 H 900.368 1.09881 -7.71717 0
M  V30 9564 N 904.597 1.47463 -0.556102 0
M  V30 9565 C 905.507 2.33785 0.195378 0
M  V30 9566 C 906.523 1.48123 0.913 0
M  V30 9567 O 907.699 1.81053 0.882141 0
M  V30 9568 C 904.764 3.24795 1.21282 0
M  V30 9569 C 903.825 4.26346 0.502747 0
M  V30 9570 C 903.058 5.13007 1.47172 0
M  V30 9571 O 903.281 5.02103 2.70646 0
M  V30 9572 O 902.215 5.93588 0.996814 0
M  V30 9573 H 906.041 2.99341 -0.512676 0
M  V30 9574 H 903.626 1.46004 -0.31673 0
M  V30 9575 H 905.508 3.81015 1.80016 0
M  V30 9576 H 904.183 2.61868 1.90282 0
M  V30 9577 H 903.09 3.73889 -0.125757 0
M  V30 9578 H 904.423 4.91984 -0.145779 0
M  V30 9579 N 906.075 0.2925 1.54862 0
M  V30 9580 C 907.491 -0.0611461 1.59483 0
M  V30 9581 C 907.691 -1.53141 1.30958 0
M  V30 9582 O 906.747 -2.28291 1.07887 0
M  V30 9583 C 908.06 0.329143 2.98893 0
M  V30 9584 C 909.608 0.2772 3.1177 0
M  V30 9585 C 910.083 0.642185 4.53475 0
M  V30 9586 N 911.574 0.594396 4.5937 0
M  V30 9587 C 912.309 0.849385 5.67074 0
M  V30 9588 N 911.805 1.1699 6.82851 0
M  V30 9589 N 913.598 0.777016 5.56704 0
M  V30 9590 H 905.749 1.25079 1.71665 0
M  V30 9591 H 908.012 0.506516 0.80134 0
M  V30 9592 H 907.718 1.35233 3.24661 0
M  V30 9593 H 907.592 -0.321442 3.75828 0
M  V30 9594 H 909.979 -0.736725 2.85756 0
M  V30 9595 H 910.06 0.962289 2.3701 0
M  V30 9596 H 909.704 1.65388 4.80218 0
M  V30 9597 H 909.634 -0.0648831 5.2656 0
M  V30 9598 H 912.125 0.357256 3.76208 0
M  V30 9599 H 912.438 1.35067 7.60905 0
M  V30 9600 H 910.783 1.20785 6.84424 0
M  V30 9601 H 913.974 0.526333 4.65132 0
M  V30 9602 H 914.147 0.979113 6.4056 0
M  V30 9603 N 907.553 -1.57587 0.0200696 0
M  V30 9604 C 908.501 -2.10814 -0.982868 0
M  V30 9605 C 909.495 -1.03263 -1.34287 0
M  V30 9606 O 910.701 -1.21708 -1.32617 0
M  V30 9607 H 907.076 -0.673409 -0.334701 0
M  V30 9608 H 909.047 -2.94034 -0.50856 0
M  V30 9609 C 907.796 -2.64301 -2.25921 0
M  V30 9610 H 907.119 -3.46703 -1.99091 0
M  V30 9611 H 908.559 -3.052 -2.94328 0
M  V30 9612 C 907.018 -1.56628 -2.98277 0
M  V30 9613 O 907.548 -0.960825 -3.9004 0
M  V30 9614 N 905.754 -1.28889 -2.60453 0
M  V30 9615 H 905.301 -1.7831 -1.85912 0
M  V30 9616 H 905.259 -0.570697 -3.09177 0
M  V30 9617 N 909.032 0.252966 -1.55557 0
M  V30 9618 C 910.309 1.00432 -1.67847 0
M  V30 9619 C 910.689 2.03587 -0.55816 0
M  V30 9620 O 910.037 2.24239 0.439197 0
M  V30 9621 C 910.247 1.64313 -3.079 0
M  V30 9622 C 911.595 2.14726 -3.66303 0
M  V30 9623 O 912.619 1.74264 -3.10661 0
M  V30 9624 O 911.478 2.89 -4.63833 0
M  V30 9625 H 908.572 0.467102 -0.682455 0
M  V30 9626 H 911.118 0.247233 -1.67889 0
M  V30 9627 H 909.89 0.896681 -3.80888 0
M  V30 9628 H 909.513 2.46657 -3.11843 0
M  V30 9629 N 910.51 1.48831 0.518367 0
M  V30 9630 C 911.473 1.63721 1.604 0
M  V30 9631 C 912.473 0.509857 1.52503 0
M  V30 9632 O 913.663 0.775922 1.55965 0
M  V30 9633 C 910.795 1.61831 3.00039 0
M  V30 9634 H 911.988 2.60534 1.48533 0
M  V30 9635 H 909.541 1.37602 0.741309 0
M  V30 9636 H 910.276 0.665387 3.17401 0
M  V30 9637 H 910.061 2.43686 3.0718 0
M  V30 9638 H 911.551 1.75467 3.78947 0
M  V30 9639 N 911.988 -0.768124 1.37614 0
M  V30 9640 C 912.935 -1.88151 1.33671 0
M  V30 9641 C 913.905 -1.64871 0.201645 0
M  V30 9642 O 915.09 -1.86739 0.391582 0
M  V30 9643 C 912.23 -3.25264 1.15314 0
M  V30 9644 C 911.343 -3.60473 2.38082 0
M  V30 9645 C 910.478 -4.86814 2.12569 0
M  V30 9646 C 909.517 -5.14765 3.31184 0
M  V30 9647 N 908.654 -6.32295 3.052 0
M  V30 9648 H 913.494 -1.90857 2.28862 0
M  V30 9649 H 911.031 -0.933048 1.13722 0
M  V30 9650 H 912.989 -4.04364 1.02691 0
M  V30 9651 H 911.619 -3.21924 0.237689 0
M  V30 9652 H 910.671 -2.7633 2.61431 0
M  V30 9653 H 911.983 -3.77065 3.26532 0
M  V30 9654 H 911.137 -5.73826 1.96999 0
M  V30 9655 H 909.876 -4.72333 1.21462 0
M  V30 9656 H 908.881 -4.26227 3.4729 0
M  V30 9657 H 910.106 -5.31153 4.23147 0
M  V30 9658 H 908.052 -6.19166 2.16726 0
M  V30 9659 H 907.969 -6.4932 3.87195 0
M  V30 9660 H 909.237 -7.22234 2.93254 0
M  V30 9661 N 913.466 -1.22244 -0.994698 0
M  V30 9662 C 914.414 -0.988118 -2.10568 0
M  V30 9663 C 915.408 0.0681541 -1.69263 0
M  V30 9664 O 916.614 -0.0841311 -1.79803 0
M  V30 9665 H 912.989 -0.302343 -0.688544 0
M  V30 9666 H 914.96 -1.93091 -2.27505 0
M  V30 9667 C 913.709 -0.580557 -3.42819 0
M  V30 9668 H 913.032 -1.385 -3.75044 0
M  V30 9669 H 914.472 -0.456004 -4.21541 0
M  V30 9670 C 912.931 0.709692 -3.2934 0
M  V30 9671 O 913.461 1.76259 -3.60965 0
M  V30 9672 N 911.667 0.680155 -2.82528 0
M  V30 9673 H 911.214 -0.176977 -2.56991 0
M  V30 9674 H 911.172 1.54372 -2.73892 0
M  V30 9675 N 914.944 1.19125 -1.03184 0
M  V30 9676 C 915.907 2.20662 -0.619766 0
M  V30 9677 C 916.907 1.57621 0.318179 0
M  V30 9678 O 918.097 1.73885 0.104783 0
M  V30 9679 C 915.229 3.40774 0.0926696 0
M  V30 9680 H 916.422 2.58633 -1.5182 0
M  V30 9681 H 913.975 1.32855 -0.823364 0
M  V30 9682 H 914.71 3.08324 1.00531 0
M  V30 9683 H 914.495 3.87766 -0.581344 0
M  V30 9684 H 915.985 4.15977 0.367792 0
M  V30 9685 N 916.422 0.810101 1.35185 0
M  V30 9686 C 917.668 0.392698 1.98962 0
M  V30 9687 C 918.001 -1.03835 1.64109 0
M  V30 9688 O 917.276 -1.721 0.9062 0
M  V30 9689 C 917.559 0.580349 3.55393 0
M  V30 9690 C 917.412 2.05658 4.00031 0
M  V30 9691 C 918.731 0.00822618 4.40099 0
M  V30 9692 H 915.85 0.144157 0.722764 0
M  V30 9693 H 918.492 1.02029 1.60281 0
M  V30 9694 H 916.642 0.0461106 3.88473 0
M  V30 9695 H 918.314 2.65348 3.77344 0
M  V30 9696 H 916.557 2.55174 3.50811 0
M  V30 9697 H 917.228 2.13875 5.08883 0
M  V30 9698 H 919.704 0.464517 4.13499 0
M  V30 9699 H 918.58 0.169414 5.48638 0
M  V30 9700 H 918.841 -1.08576 4.2856 0
M  V30 9701 N 917.9 -1.47166 0.563914 0
M  V30 9702 C 918.81 -2.33885 -0.182977 0
M  V30 9703 C 919.826 -1.48605 -0.905132 0
M  V30 9704 O 921.002 -1.81518 -0.872527 0
M  V30 9705 C 918.067 -3.25433 -1.19558 0
M  V30 9706 C 917.128 -4.26607 -0.480129 0
M  V30 9707 C 916.361 -5.1378 -1.44449 0
M  V30 9708 O 916.584 -5.03531 -2.67979 0
M  V30 9709 O 915.518 -5.94109 -0.965321 0
M  V30 9710 H 919.344 -2.99065 0.528544 0
M  V30 9711 H 916.929 -1.45834 0.324468 0
M  V30 9712 H 918.811 -3.81964 -1.77993 0
M  V30 9713 H 917.486 -2.62873 -1.8889 0
M  V30 9714 H 916.393 -3.73817 0.145583 0
M  V30 9715 H 917.726 -4.919 0.171868 0
M  V30 9716 N 919.378 -0.300708 -1.54705 0
M  V30 9717 C 920.288 0.584996 -2.27189 0
M  V30 9718 C 921.304 1.14866 -1.30697 0
M  V30 9719 O 922.48 1.17351 -1.63679 0
M  V30 9720 C 919.545 1.74076 -2.99831 0
M  V30 9721 C 918.606 1.2112 -4.1186 0
M  V30 9722 C 917.839 2.31188 -4.81028 0
M  V30 9723 O 918.062 3.5108 -4.49554 0
M  V30 9724 O 916.996 1.97897 -5.68437 0
M  V30 9725 H 920.822 -0.00298177 -3.037 0
M  V30 9726 H 918.407 -0.0671802 -1.49249 0
M  V30 9727 H 920.289 2.41413 -3.45395 0
M  V30 9728 H 918.964 2.31535 -2.26215 0
M  V30 9729 H 917.871 0.50357 -3.70695 0
M  V30 9730 H 919.204 0.682046 -4.87452 0
M  V30 9731 N 920.856 1.57574 -0.0284266 0
M  V30 9732 C 922.086 1.95787 0.659617 0
M  V30 9733 C 922.494 0.903475 1.66235 0
M  V30 9734 O 921.837 -0.12329 1.83286 0
M  V30 9735 C 921.899 3.30139 1.42298 0
M  V30 9736 C 921.563 4.53322 0.578658 0
M  V30 9737 C 922.56 5.19696 -0.145751 0
M  V30 9738 C 920.245 4.9964 0.516264 0
M  V30 9739 C 922.239 6.30708 -0.921235 0
M  V30 9740 C 919.926 6.10534 -0.262925 0
M  V30 9741 C 920.924 6.75927 -0.980382 0
M  V30 9742 O 920.612 7.84692 -1.7468 0
M  V30 9743 H 920.344 0.649681 0.186792 0
M  V30 9744 H 922.898 2.05227 -0.0842687 0
M  V30 9745 H 921.128 3.17188 2.21199 0
M  V30 9746 H 922.817 3.53259 1.99906 0
M  V30 9747 H 923.583 4.84882 -0.106876 0
M  V30 9748 H 919.462 4.48547 1.06427 0
M  V30 9749 H 923.006 6.81682 -1.48176 0
M  V30 9750 H 918.903 6.44786 -0.303519 0
M  V30 9751 H 919.671 8.01355 -1.6665 0
M  V30 9752 N 922.334 -0.244713 1.55689 0
M  V30 9753 C 923.58 -0.973886 1.77886 0
M  V30 9754 C 923.913 -1.8489 0.594071 0
M  V30 9755 O 923.188 -1.90182 -0.407564 0
M  V30 9756 C 923.471 -1.83255 3.09983 0
M  V30 9757 C 923.324 -0.985571 4.3887 0
M  V30 9758 C 924.643 -2.81464 3.38329 0
M  V30 9759 H 921.762 -0.352629 0.647165 0
M  V30 9760 H 924.404 -0.244243 1.88424 0
M  V30 9761 H 922.554 -2.45464 3.01131 0
M  V30 9762 H 924.226 -0.382005 4.59716 0
M  V30 9763 H 922.469 -0.29002 4.32829 0
M  V30 9764 H 923.14 -1.62022 5.27686 0
M  V30 9765 H 925.616 -2.2939 3.47159 0
M  V30 9766 H 924.492 -3.38663 4.31971 0
M  V30 9767 H 924.753 -3.58037 2.59349 0
M  V30 9768 N 923.813 -1.49104 -0.510467 0
M  V30 9769 C 925.043 -1.61571 -1.28757 0
M  V30 9770 C 925.451 -0.282638 -1.87077 0
M  V30 9771 O 924.794 0.740749 -1.68103 0
M  V30 9772 C 924.856 -2.61851 -2.46322 0
M  V30 9773 C 924.52 -4.06438 -2.08942 0
M  V30 9774 C 925.517 -4.93532 -1.63469 0
M  V30 9775 C 923.202 -4.52109 -2.18867 0
M  V30 9776 C 925.196 -6.24331 -1.28411 0
M  V30 9777 C 922.883 -5.82924 -1.83421 0
M  V30 9778 C 923.881 -6.68858 -1.38267 0
M  V30 9779 O 923.569 -7.97236 -1.03296 0
M  V30 9780 H 923.301 -0.547082 -0.397086 0
M  V30 9781 H 925.855 -1.95806 -0.620424 0
M  V30 9782 H 924.085 -2.22777 -3.16081 0
M  V30 9783 H 925.774 -2.63947 -3.08362 0
M  V30 9784 H 926.54 -4.59479 -1.55255 0
M  V30 9785 H 922.419 -3.85395 -2.52966 0
M  V30 9786 H 925.963 -6.9136 -0.930946 0
M  V30 9787 H 921.86 -6.16507 -1.91282 0
M  V30 9788 H 922.628 -8.10163 -1.16525 0
M  V30 9789 N 925.291 0.760815 -1.38019 0
M  V30 9790 C 926.201 1.90526 -1.36884 0
M  V30 9791 C 927.217 1.71941 -0.266908 0
M  V30 9792 O 928.393 1.94988 -0.50413 0
M  V30 9793 C 925.458 3.25799 -1.18558 0
M  V30 9794 C 924.519 3.56961 -2.3849 0
M  V30 9795 C 923.752 4.8578 -2.21029 0
M  V30 9796 O 923.975 5.57629 -1.20023 0
M  V30 9797 O 922.909 5.16254 -3.0946 0
M  V30 9798 H 926.735 1.94437 -2.33298 0
M  V30 9799 H 924.32 0.905091 -1.18863 0
M  V30 9800 H 926.202 4.0669 -1.1037 0
M  V30 9801 H 924.877 3.22716 -0.252241 0
M  V30 9802 H 923.784 2.7626 -2.52252 0
M  V30 9803 H 925.117 3.64798 -3.30429 0
M  V30 9804 N 926.769 1.22769 0.988202 0
M  V30 9805 C 927.702 0.945196 2.07705 0
M  V30 9806 C 928.68 -0.11363 1.62202 0
M  V30 9807 O 929.864 0.0189624 1.8849 0
M  V30 9808 C 926.991 0.422474 3.36055 0
M  V30 9809 C 926.037 1.4667 4.00487 0
M  V30 9810 S 926.87 3.04158 4.40736 0
M  V30 9811 C 928.026 2.53536 5.7225 0
M  V30 9812 H 928.259 1.86723 2.31348 0
M  V30 9813 H 925.792 1.05928 1.12333 0
M  V30 9814 H 927.75 0.12748 4.10302 0
M  V30 9815 H 926.411 -0.478515 3.10434 0
M  V30 9816 H 925.604 1.05093 4.92921 0
M  V30 9817 H 925.206 1.71064 3.32585 0
M  V30 9818 H 927.498 1.95069 6.4881 0
M  V30 9819 H 928.441 3.44479 6.1866 0
M  V30 9820 H 928.849 1.94658 5.29876 0
M  V30 9821 N 928.247 -1.18576 1.03814 0
M  V30 9822 C 929.663 -1.4051 0.756909 0
M  V30 9823 C 929.863 -1.9057 -0.654631 0
M  V30 9824 O 928.919 -2.0884 -1.41922 0
M  V30 9825 C 930.232 -2.4081 1.80087 0
M  V30 9826 C 931.78 -2.54541 1.82148 0
M  V30 9827 C 932.255 -3.58102 2.85529 0
M  V30 9828 N 933.746 -3.65607 2.84404 0
M  V30 9829 C 934.481 -4.45458 3.61047 0
M  V30 9830 N 933.977 -5.28937 4.47434 0
M  V30 9831 N 935.77 -4.40196 3.49548 0
M  V30 9832 H 927.921 -0.844075 1.94908 0
M  V30 9833 H 930.184 -0.433287 0.843188 0
M  V30 9834 H 929.89 -2.1107 2.81322 0
M  V30 9835 H 929.764 -3.4012 1.63089 0
M  V30 9836 H 932.151 -2.83598 0.815855 0
M  V30 9837 H 932.232 -1.55352 2.03223 0
M  V30 9838 H 931.876 -3.29786 3.86269 0
M  V30 9839 H 931.806 -4.56963 2.6171 0
M  V30 9840 H 934.297 -3.05994 2.21756 0
M  V30 9841 H 934.61 -5.8701 5.02632 0
M  V30 9842 H 932.955 -5.28366 4.51503 0
M  V30 9843 H 936.146 -3.74026 2.81464 0
M  V30 9844 H 936.319 -5.02186 4.09528 0
M  V30 9845 N 929.725 -0.817259 -1.34754 0
M  V30 9846 C 931.002 -0.325468 -1.92873 0
M  V30 9847 C 931.382 1.18643 -1.74606 0
M  V30 9848 O 930.73 1.9909 -1.1214 0
M  V30 9849 C 930.94 -0.74858 -3.40877 0
M  V30 9850 C 932.288 -0.744165 -4.18028 0
M  V30 9851 O 933.312 -0.690799 -3.49437 0
M  V30 9852 O 932.171 -0.812207 -5.40431 0
M  V30 9853 H 929.265 -0.0876397 -0.822343 0
M  V30 9854 H 931.811 -0.901671 -1.43764 0
M  V30 9855 H 930.583 -1.79017 -3.47949 0
M  V30 9856 H 930.206 -0.147764 -3.97325 0
M  V30 9857 N 931.203 1.46865 -0.571711 0
M  V30 9858 C 932.15 2.30189 0.167808 0
M  V30 9859 C 933.12 1.3995 0.89461 0
M  V30 9860 O 934.305 1.68905 0.887451 0
M  V30 9861 C 931.445 3.24205 1.1826 0
M  V30 9862 C 930.558 4.2954 0.460376 0
M  V30 9863 C 929.693 5.10693 1.46173 0
M  V30 9864 C 928.732 6.07788 0.725291 0
M  V30 9865 N 927.869 6.81847 1.67417 0
M  V30 9866 H 932.709 2.92902 -0.548831 0
M  V30 9867 H 930.246 1.44362 -0.282474 0
M  V30 9868 H 932.204 3.77147 1.7837 0
M  V30 9869 H 930.834 2.63324 1.86709 0
M  V30 9870 H 929.886 3.79541 -0.255546 0
M  V30 9871 H 931.198 4.98665 -0.115855 0
M  V30 9872 H 930.352 5.67857 2.13595 0
M  V30 9873 H 929.091 4.41502 2.07188 0
M  V30 9874 H 928.096 5.49787 0.037228 0
M  V30 9875 H 929.321 6.78993 0.120678 0
M  V30 9876 H 927.267 6.15376 2.27263 0
M  V30 9877 H 927.184 7.47195 1.15046 0
M  V30 9878 H 928.452 7.43577 2.33908 0
M  V30 9879 N 932.681 0.308908 1.54543 0
M  V30 9880 C 933.611 -0.556657 2.26768 0
M  V30 9881 C 934.592 -1.13145 1.27013 0
M  V30 9882 O 935.777 -1.15931 1.558 0
M  V30 9883 C 932.907 -1.72481 3.01443 0
M  V30 9884 C 931.861 -1.28001 4.08411 0
M  V30 9885 C 931.187 -2.53395 4.70845 0
M  V30 9886 C 932.487 -0.405497 5.20724 0
M  V30 9887 H 934.181 0.0457618 2.99365 0
M  V30 9888 H 931.727 0.0234495 1.43981 0
M  V30 9889 H 933.68 -2.3365 3.50693 0
M  V30 9890 H 932.404 -2.35359 2.26437 0
M  V30 9891 H 931.063 -0.69133 3.60022 0
M  V30 9892 H 930.711 -3.14604 3.92471 0
M  V30 9893 H 930.411 -2.2433 5.43093 0
M  V30 9894 H 931.935 -3.15352 5.22863 0
M  V30 9895 H 933.349 -0.923076 5.6582 0
M  V30 9896 H 931.746 -0.208282 5.99738 0
M  V30 9897 H 932.816 0.567412 4.81569 0
M  V30 9898 N 934.159 -1.57557 0.0367827 0
M  V30 9899 C 935.384 -1.96828 -0.653707 0
M  V30 9900 C 935.809 -0.913559 -1.64425 0
M  V30 9901 O 935.167 0.124749 -1.8087 0
M  V30 9902 C 935.215 -3.35189 -1.32969 0
M  V30 9903 O 934.319 -3.32095 -2.44513 0
M  V30 9904 H 933.66 -0.64157 -0.171124 0
M  V30 9905 H 936.19 -2.04351 0.100912 0
M  V30 9906 H 936.2 -3.71593 -1.68472 0
M  V30 9907 H 934.875 -4.11496 -0.603654 0
M  V30 9908 H 933.452 -3.07418 -2.11065 0
M  V30 9909 N 935.637 0.236453 -1.55816 0
M  V30 9910 C 936.885 0.96111 -1.77784 0
M  V30 9911 C 937.206 1.85454 -0.602648 0
M  V30 9912 O 936.476 1.92157 0.381137 0
M  V30 9913 H 935.056 0.35787 -0.655697 0
M  V30 9914 H 937.718 0.251888 -1.93265 0
M  V30 9915 H 936.814 1.5767 -2.69345 0
M  V30 9916 N 937.115 1.49373 0.502552 0
M  V30 9917 C 938.025 1.68659 1.63068 0
M  V30 9918 C 939.041 0.569182 1.64427 0
M  V30 9919 O 940.217 0.843695 1.82876 0
M  V30 9920 C 937.282 1.74745 2.99441 0
M  V30 9921 C 936.343 2.98311 3.08721 0
M  V30 9922 C 935.576 3.04097 4.38589 0
M  V30 9923 O 935.799 2.17519 5.27297 0
M  V30 9924 O 934.733 3.96544 4.52809 0
M  V30 9925 H 938.559 2.64226 1.49727 0
M  V30 9926 H 936.144 1.33096 0.67867 0
M  V30 9927 H 938.026 1.8111 3.80496 0
M  V30 9928 H 936.701 0.823565 3.13048 0
M  V30 9929 H 935.608 2.97465 2.2686 0
M  V30 9930 H 936.941 3.90174 3.00041 0
M  V30 9931 N 938.594 -0.753485 1.38421 0
M  V30 9932 C 939.824 -1.54049 1.37669 0
M  V30 9933 C 940.232 -1.89167 -0.0353656 0
M  V30 9934 O 939.575 -1.53285 -1.01239 0
M  V30 9935 C 939.637 -2.86777 2.16793 0
M  V30 9936 C 939.301 -2.74196 3.65603 0
M  V30 9937 C 940.298 -2.43985 4.59094 0
M  V30 9938 C 937.983 -2.91645 4.0896 0
M  V30 9939 C 939.977 -2.31379 5.93921 0
M  V30 9940 C 937.664 -2.78658 5.43868 0
M  V30 9941 C 938.662 -2.48568 6.36163 0
M  V30 9942 O 938.35 -2.3564 7.68589 0
M  V30 9943 H 938.082 -0.483276 0.472673 0
M  V30 9944 H 940.636 -0.940267 1.82615 0
M  V30 9945 H 938.866 -3.48988 1.66565 0
M  V30 9946 H 940.555 -3.48289 2.08446 0
M  V30 9947 H 941.321 -2.30172 4.26902 0
M  V30 9948 H 937.2 -3.14063 3.37469 0
M  V30 9949 H 940.744 -2.07813 6.65927 0
M  V30 9950 H 936.641 -2.92044 5.75656 0
M  V30 9951 H 937.409 -2.50851 7.79112 0
M  V30 9952 N 940.072 -1.23292 -0.981677 0
M  V30 9953 C 940.982 -1.02964 -2.10798 0
M  V30 9954 C 941.998 0.0254674 -1.73981 0
M  V30 9955 O 943.174 -0.169706 -2.00684 0
M  V30 9956 C 940.239 -0.621934 -3.41076 0
M  V30 9957 C 939.3 -1.75194 -3.91926 0
M  V30 9958 C 938.533 -1.36359 -5.15986 0
M  V30 9959 O 938.756 -0.247265 -5.69864 0
M  V30 9960 O 937.69 -2.18421 -5.60871 0
M  V30 9961 H 941.516 -1.97354 -2.30836 0
M  V30 9962 H 939.101 -1.01986 -1.09175 0
M  V30 9963 H 940.983 -0.405446 -4.19445 0
M  V30 9964 H 939.658 0.29299 -3.22371 0
M  V30 9965 H 938.565 -2.02305 -3.1468 0
M  V30 9966 H 939.898 -2.64513 -4.15083 0
M  V30 9967 N 941.55 1.18024 -1.04442 0
M  V30 9968 C 942.497 2.21785 -0.638759 0
M  V30 9969 C 943.467 1.62255 0.355312 0
M  V30 9970 O 944.652 1.89176 0.24844 0
M  V30 9971 C 941.792 3.45098 -0.0118002 0
M  V30 9972 C 940.905 4.1895 -1.05379 0
M  V30 9973 C 940.04 5.2973 -0.394951 0
M  V30 9974 C 939.079 5.95359 -1.42178 0
M  V30 9975 N 938.216 6.97668 -0.787635 0
M  V30 9976 H 943.056 2.55839 -1.52808 0
M  V30 9977 H 940.593 1.25681 -0.764378 0
M  V30 9978 H 942.551 4.15564 0.369075 0
M  V30 9979 H 941.181 3.11652 0.84102 0
M  V30 9980 H 940.233 3.47274 -1.55258 0
M  V30 9981 H 941.545 4.63877 -1.83355 0
M  V30 9982 H 940.699 6.06687 0.0399244 0
M  V30 9983 H 939.438 4.85915 0.416867 0
M  V30 9984 H 938.443 5.17139 -1.86675 0
M  V30 9985 H 939.668 6.41255 -2.23536 0
M  V30 9986 H 937.614 6.56 0.00380893 0
M  V30 9987 H 937.531 7.40867 -1.50505 0
M  V30 9988 H 938.799 7.78586 -0.377282 0
M  V30 9989 N 943.028 0.824394 1.34319 0
M  V30 9990 C 944.275 0.413167 1.9824 0
M  V30 9991 C 944.603 -1.02412 1.65354 0
M  V30 9992 O 943.858 -1.72831 0.91803 0
M  V30 9993 C 944.157 0.564024 3.52921 0
M  V30 9994 C 943.823 1.96725 4.05722 0
M  V30 9995 C 942.485 2.35111 4.19853 0
M  V30 9996 C 944.837 2.88447 4.34106 0
M  V30 9997 C 942.165 3.64551 4.59695 0
M  V30 9998 C 944.517 4.17353 4.75394 0
M  V30 9999 C 943.181 4.55714 4.8773 0
M  V30 10000 H 942.451 0.151188 0.725412 0
M  V30 10001 H 945.098 1.04863 1.60238 0
M  V30 10002 H 943.403 -0.154816 3.91494 0
M  V30 10003 H 945.1 0.226347 4.00361 0
M  V30 10004 H 941.69 1.65908 3.95187 0
M  V30 10005 H 945.874 2.60034 4.22725 0
M  V30 10006 H 941.13 3.94097 4.67437 0
M  V30 10007 H 945.304 4.88512 4.96315 0
M  V30 10008 H 942.931 5.56064 5.1836 0
M  V30 10009 N 944.506 -1.46559 0.579492 0
M  V30 10010 C 945.752 -2.02699 0.0639363 0
M  V30 10011 C 946.085 -1.4504 -1.29139 0
M  V30 10012 O 945.36 -0.614284 -1.84545 0
M  V30 10013 C 945.643 -3.601 -0.00528618 0
M  V30 10014 C 945.496 -4.28149 1.37871 0
M  V30 10015 C 946.815 -4.34375 -0.707537 0
M  V30 10016 H 943.934 -0.736586 0.0247085 0
M  V30 10017 H 946.576 -1.74739 0.746071 0
M  V30 10018 H 944.726 -3.84052 -0.586206 0
M  V30 10019 H 946.398 -4.1547 2.00455 0
M  V30 10020 H 944.641 -3.87636 1.94732 0
M  V30 10021 H 945.312 -5.36888 1.28278 0
M  V30 10022 H 947.788 -4.15549 -0.214064 0
M  V30 10023 H 946.664 -5.44091 -0.724992 0
M  V30 10024 H 946.925 -4.052 -1.7682 0
M  V30 10025 N 945.984 -0.3171 -1.54377 0
M  V30 10026 C 947.209 0.292311 -2.0533 0
M  V30 10027 C 947.634 1.45503 -1.19207 0
M  V30 10028 O 946.992 1.80197 -0.199721 0
M  V30 10029 C 947.04 0.710787 -3.53525 0
M  V30 10030 O 946.144 1.81387 -3.70368 0
M  V30 10031 H 945.485 0.0539976 -0.661801 0
M  V30 10032 H 948.015 -0.463629 -1.99278 0
M  V30 10033 H 948.025 0.995216 -3.95676 0
M  V30 10034 H 946.7 -0.139668 -4.15665 0
M  V30 10035 H 945.277 1.52875 -3.40123 0
M  V30 10036 N 947.462 1.57535 -0.0451378 0
M  V30 10037 C 948.372 2.14653 0.946646 0
M  V30 10038 C 949.388 1.10279 1.3459 0
M  V30 10039 O 950.564 1.42417 1.42405 0
M  V30 10040 C 947.629 2.67533 2.20515 0
M  V30 10041 C 946.69 3.86682 1.86481 0
M  V30 10042 C 945.923 4.37031 3.06332 0
M  V30 10043 O 946.146 3.86481 4.1951 0
M  V30 10044 O 945.08 5.28691 2.87697 0
M  V30 10045 H 948.906 2.99706 0.49091 0
M  V30 10046 H 946.491 1.48355 0.17641 0
M  V30 10047 H 948.373 3.01542 2.94365 0
M  V30 10048 H 947.048 1.85554 2.65238 0
M  V30 10049 H 945.955 3.57573 1.09966 0
M  V30 10050 H 947.288 4.69873 1.46562 0
M  V30 10051 N 948.94 -0.228186 1.55939 0
M  V30 10052 C 950.217 -0.977492 1.69424 0
M  V30 10053 C 950.597 -2.02674 0.590479 0
M  V30 10054 O 949.945 -2.2491 -0.403467 0
M  V30 10055 C 950.155 -1.59394 3.10475 0
M  V30 10056 C 951.503 -2.08871 3.69673 0
M  V30 10057 O 952.527 -1.693 3.13394 0
M  V30 10058 O 951.386 -2.81584 4.68372 0
M  V30 10059 H 948.48 -0.456185 0.6898 0
M  V30 10060 H 951.026 -0.220492 1.68261 0
M  V30 10061 H 949.798 -0.835971 3.82266 0
M  V30 10062 H 949.421 -2.41665 3.15727 0
M  V30 10063 N 950.418 -1.49637 -0.494624 0
M  V30 10064 C 951.695 -1.4995 -1.25596 0
M  V30 10065 C 952.075 -0.230805 -2.09834 0
M  V30 10066 O 951.423 0.786625 -2.14533 0
M  V30 10067 C 951.633 -2.78204 -2.10721 0
M  V30 10068 C 952.981 -3.27946 -2.69698 0
M  V30 10069 O 954.005 -2.79365 -2.20984 0
M  V30 10070 O 952.864 -4.12571 -3.58395 0
M  V30 10071 H 949.958 -0.60044 -0.568684 0
M  V30 10072 H 952.504 -1.61906 -0.508371 0
M  V30 10073 H 951.276 -3.62029 -1.48494 0
M  V30 10074 H 950.899 -2.69139 -2.92661 0
M  V30 10075 N 951.896 0.746133 -1.38819 0
M  V30 10076 C 953.312 1.0502 -1.20179 0
M  V30 10077 C 953.512 2.01423 -0.0556271 0
M  V30 10078 O 952.568 2.45359 0.59625 0
M  V30 10079 C 953.881 1.62315 -2.53129 0
M  V30 10080 C 955.429 1.74449 -2.59878 0
M  V30 10081 C 955.904 2.35155 -3.93022 0
M  V30 10082 N 957.395 2.42577 -3.94602 0
M  V30 10083 C 958.13 2.9046 -4.94389 0
M  V30 10084 N 957.626 3.38322 -6.04574 0
M  V30 10085 N 959.419 2.89568 -4.81775 0
M  V30 10086 H 951.57 0.106551 -2.12133 0
M  V30 10087 H 953.833 0.109897 -0.941609 0
M  V30 10088 H 953.539 0.98946 -3.37495 0
M  V30 10089 H 953.413 2.61276 -2.72057 0
M  V30 10090 H 955.8 2.36943 -1.75903 0
M  V30 10091 H 955.881 0.741721 -2.4481 0
M  V30 10092 H 955.525 1.73292 -4.77422 0
M  V30 10093 H 955.455 3.36088 -4.05404 0
M  V30 10094 H 957.946 2.08735 -3.15021 0
M  V30 10095 H 958.259 3.73336 -6.76639 0
M  V30 10096 H 956.604 3.3636 -6.08184 0
M  V30 10097 H 959.795 2.51492 -3.94803 0
M  V30 10098 H 959.968 3.26571 -5.59692 0
M  V30 10099 N 953.375 1.23811 0.975125 0
M  V30 10100 C 954.323 1.02149 2.0897 0
M  V30 10101 C 955.317 -0.0412172 1.6935 0
M  V30 10102 O 956.523 0.112726 1.79647 0
M  V30 10103 H 952.898 0.313259 0.683647 0
M  V30 10104 H 954.869 1.96686 2.24404 0
M  V30 10105 C 953.618 0.635023 3.41852 0
M  V30 10106 H 952.941 1.44449 3.72793 0
M  V30 10107 H 954.381 0.52301 4.20762 0
M  V30 10108 C 952.84 -0.657207 3.30428 0
M  V30 10109 O 953.37 -1.70494 3.63723 0
M  V30 10110 N 951.576 -0.635122 2.83575 0
M  V30 10111 H 951.123 0.21784 2.56677 0
M  V30 10112 H 951.081 -1.49995 2.76313 0
M  V30 10113 N 954.853 -1.17469 1.05066 0
M  V30 10114 C 956.078 -1.92162 0.780298 0
M  V30 10115 C 956.503 -1.76222 -0.657832 0
M  V30 10116 O 955.861 -1.0791 -1.45688 0
M  V30 10117 C 955.909 -3.41292 1.16414 0
M  V30 10118 O 955.013 -4.1134 0.295531 0
M  V30 10119 H 954.354 -0.599127 0.286257 0
M  V30 10120 H 956.884 -1.48903 1.40318 0
M  V30 10121 H 956.894 -3.92029 1.13036 0
M  V30 10122 H 955.569 -3.52214 2.21175 0
M  V30 10123 H 954.146 -3.70857 0.389797 0
M  V30 10124 N 956.331 -0.831506 -1.3388 0
M  V30 10125 C 957.578 -0.423674 -1.98018 0
M  V30 10126 C 957.906 1.01533 -1.65895 0
M  V30 10127 O 957.161 1.72342 -0.927183 0
M  V30 10128 C 957.46 -0.582733 -3.52617 0
M  V30 10129 C 957.126 -1.98874 -4.04673 0
M  V30 10130 C 955.788 -2.37334 -4.186 0
M  V30 10131 C 958.14 -2.90745 -4.3257 0
M  V30 10132 C 955.468 -3.66984 -4.57755 0
M  V30 10133 C 957.82 -4.19868 -4.73174 0
M  V30 10134 C 956.484 -4.58294 -4.85307 0
M  V30 10135 H 955.754 -0.155033 -0.7246 0
M  V30 10136 H 958.401 -1.05711 -1.59679 0
M  V30 10137 H 956.706 0.134052 -3.91571 0
M  V30 10138 H 958.403 -0.247576 -4.00235 0
M  V30 10139 H 954.993 -1.68001 -3.94301 0
M  V30 10140 H 959.177 -2.62272 -4.2134 0
M  V30 10141 H 954.433 -3.9657 -4.65341 0
M  V30 10142 H 958.607 -4.91138 -4.93717 0
M  V30 10143 H 956.234 -5.58805 -5.15404 0
M  V30 10144 N 957.809 1.4625 -0.587256 0
M  V30 10145 C 959.037 2.06744 -0.08033 0
M  V30 10146 C 959.452 1.43527 1.2266 0
M  V30 10147 O 958.809 0.542168 1.74261 0
M  V30 10148 C 958.86 3.61394 0.0873469 0
M  V30 10149 O 958.581 4.22247 -1.16785 0
M  V30 10150 C 960.082 4.38828 0.628095 0
M  V30 10151 H 957.302 0.668354 -0.0595301 0
M  V30 10152 H 959.846 1.87808 -0.809217 0
M  V30 10153 H 958.001 3.79742 0.766473 0
M  V30 10154 H 958.415 5.15176 -0.984565 0
M  V30 10155 H 959.889 5.47613 0.694583 0
M  V30 10156 H 960.366 4.07188 1.64606 0
M  V30 10157 H 960.972 4.25297 -0.0163115 0
M  V30 10158 N 959.287 0.325282 1.54207 0
M  V30 10159 C 960.217 -0.532574 2.27345 0
M  V30 10160 C 961.198 -1.11791 1.28206 0
M  V30 10161 O 962.383 -1.14272 1.57021 0
M  V30 10162 C 959.513 -1.69274 3.03255 0
M  V30 10163 C 958.467 -1.23662 4.09746 0
M  V30 10164 C 957.793 -2.48386 4.73506 0
M  V30 10165 C 959.093 -0.350244 5.21124 0
M  V30 10166 H 960.787 0.0775108 2.993 0
M  V30 10167 H 958.333 0.0387193 1.43948 0
M  V30 10168 H 960.286 -2.29917 3.53152 0
M  V30 10169 H 959.01 -2.32944 2.28921 0
M  V30 10170 H 957.669 -0.653106 3.60735 0
M  V30 10171 H 957.317 -3.10424 3.95786 0
M  V30 10172 H 957.017 -2.18558 5.45441 0
M  V30 10173 H 958.541 -3.09789 5.26178 0
M  V30 10174 H 959.955 -0.863011 5.66767 0
M  V30 10175 H 958.352 -0.14466 5.99926 0
M  V30 10176 H 959.422 0.618457 4.8094 0
M  V30 10177 N 960.765 -1.57509 0.0534917 0
M  V30 10178 C 961.712 -2.11667 -0.920101 0
M  V30 10179 C 962.682 -1.0246 -1.30733 0
M  V30 10180 O 963.867 -1.30021 -1.39639 0
M  V30 10181 C 961.007 -2.66803 -2.18883 0
M  V30 10182 C 960.12 -3.90104 -1.85588 0
M  V30 10183 C 959.255 -4.33547 -3.06937 0
M  V30 10184 C 958.294 -5.49542 -2.69573 0
M  V30 10185 N 957.431 -5.88029 -3.83623 0
M  V30 10186 H 962.271 -2.94562 -0.451371 0
M  V30 10187 H 959.808 -1.45576 -0.211168 0
M  V30 10188 H 961.766 -2.96871 -2.93127 0
M  V30 10189 H 960.396 -1.86702 -2.63329 0
M  V30 10190 H 959.448 -3.66613 -1.01484 0
M  V30 10191 H 960.76 -4.74404 -1.54087 0
M  V30 10192 H 959.914 -4.6518 -3.89477 0
M  V30 10193 H 958.653 -3.48064 -3.41618 0
M  V30 10194 H 957.658 -5.17579 -1.8545 0
M  V30 10195 H 958.883 -6.36743 -2.36082 0
M  V30 10196 H 956.829 -5.05498 -4.181 0
M  V30 10197 H 956.746 -6.67025 -3.55828 0
M  V30 10198 H 958.014 -6.24277 -4.66796 0
M  V30 10199 N 962.243 0.219913 -1.56058 0
M  V30 10200 C 963.173 1.27572 -1.9557 0
M  V30 10201 C 964.154 1.48801 -0.824148 0
M  V30 10202 O 965.339 1.60957 -1.08658 0
M  V30 10203 C 962.469 2.62517 -2.27381 0
M  V30 10204 C 961.423 2.55941 -3.43042 0
M  V30 10205 C 960.749 3.94931 -3.60463 0
M  V30 10206 C 962.049 2.10584 -4.77966 0
M  V30 10207 H 963.743 0.947482 -2.84013 0
M  V30 10208 H 961.289 0.454337 -1.36645 0
M  V30 10209 H 963.242 3.36538 -2.53615 0
M  V30 10210 H 961.966 2.97031 -1.35794 0
M  V30 10211 H 960.625 1.84377 -3.1686 0
M  V30 10212 H 960.273 4.26756 -2.66249 0
M  V30 10213 H 959.973 3.91413 -4.38258 0
M  V30 10214 H 961.497 4.70611 -3.89046 0
M  V30 10215 H 962.911 2.74349 -5.03394 0
M  V30 10216 H 961.308 2.18122 -5.59055 0
M  V30 10217 H 962.378 1.05818 -4.73213 0
M  V30 10218 N 963.721 1.49897 0.486681 0
M  V30 10219 C 964.631 1.70379 1.6127 0
M  V30 10220 C 965.647 0.58659 1.63814 0
M  V30 10221 O 966.823 0.863044 1.81971 0
M  V30 10222 C 963.888 1.77911 2.97571 0
M  V30 10223 C 962.949 3.01569 3.0554 0
M  V30 10224 C 962.182 3.08732 4.35339 0
M  V30 10225 O 962.405 2.23099 5.2496 0
M  V30 10226 O 961.339 4.01325 4.48578 0
M  V30 10227 H 965.165 2.65799 1.46916 0
M  V30 10228 H 962.75 1.33808 0.664516 0
M  V30 10229 H 964.632 1.85135 3.78554 0
M  V30 10230 H 963.307 0.856722 3.12157 0
M  V30 10231 H 962.214 2.99854 2.23693 0
M  V30 10232 H 963.547 3.93335 2.95886 0
M  V30 10233 N 965.199 -0.738761 1.39212 0
M  V30 10234 C 966.476 -1.48982 1.26742 0
M  V30 10235 C 966.856 -2.10732 -0.12466 0
M  V30 10236 O 966.204 -1.98287 -1.13554 0
M  V30 10237 C 966.414 -2.54427 2.38889 0
M  V30 10238 C 967.762 -3.20915 2.78027 0
M  V30 10239 O 968.786 -2.64738 2.38311 0
M  V30 10240 O 967.645 -4.22558 3.46565 0
M  V30 10241 H 964.739 -0.661395 0.496473 0
M  V30 10242 H 967.285 -0.772907 1.51077 0
M  V30 10243 H 966.057 -2.07151 3.3197 0
M  V30 10244 H 965.68 -3.33682 2.162 0
M  V30 10245 N 966.677 -1.24326 -0.968545 0
M  V30 10246 C 967.905 -1.10947 -1.74638 0
M  V30 10247 C 968.32 0.338064 -1.85749 0
M  V30 10248 O 967.677 1.23331 -1.3452 0
M  V30 10249 C 967.728 -1.74254 -3.1673 0
M  V30 10250 O 967.449 -3.13347 -3.06178 0
M  V30 10251 C 968.95 -1.66473 -4.10855 0
M  V30 10252 H 966.17 -0.38767 -0.547679 0
M  V30 10253 H 968.714 -1.64415 -1.21605 0
M  V30 10254 H 966.869 -1.2479 -3.66751 0
M  V30 10255 H 967.283 -3.44255 -3.95713 0
M  V30 10256 H 968.757 -2.15452 -5.08217 0
M  V30 10257 H 969.234 -0.625785 -4.34719 0
M  V30 10258 H 969.84 -2.15359 -3.66743 0
M  V30 10259 N 968.156 1.1691 -1.05688 0
M  V30 10260 C 969.066 2.24735 -0.67315 0
M  V30 10261 C 970.082 1.71252 0.308043 0
M  V30 10262 O 971.258 2.00772 0.158889 0
M  V30 10263 C 968.323 3.4665 -0.059026 0
M  V30 10264 C 967.384 4.15198 -1.0913 0
M  V30 10265 C 966.617 5.31292 -0.50639 0
M  V30 10266 O 966.84 5.663 0.682692 0
M  V30 10267 O 965.774 5.88923 -1.2431 0
M  V30 10268 H 969.6 2.59855 -1.57191 0
M  V30 10269 H 967.185 1.24306 -0.828751 0
M  V30 10270 H 969.067 4.20455 0.282018 0
M  V30 10271 H 967.742 3.13316 0.813304 0
M  V30 10272 H 966.649 3.43389 -1.48442 0
M  V30 10273 H 967.982 4.52571 -1.93495 0
M  V30 10274 N 969.634 0.838594 1.33437 0
M  V30 10275 C 970.582 0.260158 2.31141 0
M  V30 10276 C 971.576 -0.607706 1.58124 0
M  V30 10277 O 972.782 -0.497298 1.72994 0
M  V30 10278 H 969.157 0.0654031 0.74915 0
M  V30 10279 H 971.128 1.09874 2.77435 0
M  V30 10280 C 969.877 -0.550234 3.43319 0
M  V30 10281 H 969.2 0.108262 3.99653 0
M  V30 10282 H 970.64 -0.920815 4.1388 0
M  V30 10283 C 969.099 -1.729 2.89149 0
M  V30 10284 O 969.629 -2.82769 2.85315 0
M  V30 10285 N 967.835 -1.5508 2.45761 0
M  V30 10286 H 967.382 -0.657055 2.49079 0
M  V30 10287 H 967.34 -2.34099 2.0987 0
M  V30 10288 N 971.112 -1.45937 0.595003 0
M  V30 10289 C 972.358 -2.03184 0.0938125 0
M  V30 10290 C 972.713 -1.45675 -1.25684 0
M  V30 10291 O 972.006 -0.617122 -1.8139 0
M  V30 10292 C 972.2 -3.57396 -0.0173747 0
M  V30 10293 C 972.029 -4.29861 1.32096 0
M  V30 10294 C 970.799 -4.68285 1.89835 0
M  V30 10295 C 972.997 -4.6262 2.24693 0
M  V30 10296 N 970.979 -5.25554 3.17279 0
M  V30 10297 C 972.35 -5.20589 3.36729 0
M  V30 10298 C 974.405 -4.44555 2.24221 0
M  V30 10299 C 973.108 -5.62398 4.48443 0
M  V30 10300 C 975.134 -4.87388 3.34973 0
M  V30 10301 C 974.496 -5.45439 4.4573 0
M  V30 10302 H 970.595 -0.77816 0.0773994 0
M  V30 10303 H 973.179 -1.77926 0.790599 0
M  V30 10304 H 971.35 -3.82341 -0.683354 0
M  V30 10305 H 973.082 -4.01292 -0.524073 0
M  V30 10306 H 969.837 -4.51437 1.43185 0
M  V30 10307 H 970.261 -5.58699 3.8234 0
M  V30 10308 H 974.903 -3.98998 1.39857 0
M  V30 10309 H 972.621 -6.06927 5.3354 0
M  V30 10310 H 976.207 -4.75152 3.3574 0
M  V30 10311 H 975.087 -5.77975 5.30014 0
M  V30 10312 N 972.59 -0.333456 -1.54032 0
M  V30 10313 C 973.52 0.52051 -2.27625 0
M  V30 10314 C 974.501 1.1111 -1.28797 0
M  V30 10315 O 975.686 1.13438 -1.57625 0
M  V30 10316 C 972.816 1.67663 -3.04149 0
M  V30 10317 C 971.77 1.21487 -4.10396 0
M  V30 10318 C 971.096 2.45872 -4.74817 0
M  V30 10319 C 972.396 0.322603 -5.21303 0
M  V30 10320 H 974.09 -0.0933823 -2.99254 0
M  V30 10321 H 971.636 -0.0463526 -1.43925 0
M  V30 10322 H 973.589 2.28041 -3.54366 0
M  V30 10323 H 972.313 2.31727 -2.30153 0
M  V30 10324 H 970.972 0.633966 -3.61077 0
M  V30 10325 H 970.62 3.0832 -3.97426 0
M  V30 10326 H 970.32 2.15662 -5.46593 0
M  V30 10327 H 971.844 3.06994 -5.27814 0
M  V30 10328 H 973.258 0.832942 -5.67217 0
M  V30 10329 H 971.655 0.112843 -5.99994 0
M  V30 10330 H 972.725 -0.643954 -4.80605 0
M  V30 10331 N 974.068 1.57479 -0.061844 0
M  V30 10332 C 975.298 1.97142 0.61794 0
M  V30 10333 C 975.706 0.938533 1.64281 0
M  V30 10334 O 975.049 -0.084385 1.83506 0
M  V30 10335 C 975.111 3.33083 1.35263 0
M  V30 10336 C 974.775 4.54447 0.482372 0
M  V30 10337 C 975.772 5.1927 -0.255954 0
M  V30 10338 C 973.457 5.00623 0.410167 0
M  V30 10339 C 975.451 6.28612 -1.05481 0
M  V30 10340 C 973.138 6.09839 -0.392369 0
M  V30 10341 C 974.136 6.73696 -1.12354 0
M  V30 10342 O 973.824 7.80811 -1.91285 0
M  V30 10343 H 973.556 0.653497 0.172969 0
M  V30 10344 H 976.11 2.05002 -0.127781 0
M  V30 10345 H 974.34 3.21808 2.14421 0
M  V30 10346 H 976.029 3.5742 1.92368 0
M  V30 10347 H 976.795 4.84546 -0.209703 0
M  V30 10348 H 972.674 4.50704 0.968883 0
M  V30 10349 H 976.218 6.78385 -1.62602 0
M  V30 10350 H 972.115 6.43997 -0.44022 0
M  V30 10351 H 972.883 7.9764 -1.83611 0
M  V30 10352 N 975.546 -0.211634 1.56173 0
M  V30 10353 C 976.456 -1.2831 1.96402 0
M  V30 10354 C 977.472 -1.50731 0.869254 0
M  V30 10355 O 978.648 -1.63669 1.17365 0
M  V30 10356 C 975.713 -2.61084 2.28114 0
M  V30 10357 C 974.774 -2.46879 3.51211 0
M  V30 10358 C 974.007 -3.73321 3.81401 0
M  V30 10359 O 974.23 -4.76773 3.13119 0
M  V30 10360 O 973.164 -3.69839 4.74871 0
M  V30 10361 H 976.99 -0.971733 2.87734 0
M  V30 10362 H 974.575 -0.415305 1.43512 0
M  V30 10363 H 976.457 -3.39481 2.49661 0
M  V30 10364 H 975.132 -2.91881 1.39954 0
M  V30 10365 H 974.039 -1.66648 3.34932 0
M  V30 10366 H 975.372 -2.21018 4.39786 0
M  V30 10367 N 977.024 -1.50153 -0.478725 0
M  V30 10368 C 978.301 -1.51274 -1.23999 0
M  V30 10369 C 978.681 -0.253048 -2.09578 0
M  V30 10370 O 978.029 0.763827 -2.15355 0
M  V30 10371 C 978.239 -2.80423 -2.07759 0
M  V30 10372 C 979.587 -3.30788 -2.66204 0
M  V30 10373 O 980.611 -2.81693 -2.18008 0
M  V30 10374 O 979.47 -4.1635 -3.53999 0
M  V30 10375 H 976.564 -0.606438 -0.562283 0
M  V30 10376 H 979.11 -1.62436 -0.491171 0
M  V30 10377 H 977.882 -3.63584 -1.44645 0
M  V30 10378 H 977.505 -2.72228 -2.89789 0
M  V30 10379 N 978.502 0.731368 -1.39602 0
M  V30 10380 C 979.75 1.48805 -1.36753 0
M  V30 10381 C 980.071 1.94969 0.034676 0
M  V30 10382 O 979.341 1.69243 0.986591 0
M  V30 10383 H 977.921 0.55203 -0.503261 0
M  V30 10384 H 980.583 0.868013 -1.74504 0
M  V30 10385 H 979.679 2.36844 -2.03252 0
M  V30 10386 N 979.98 1.24838 0.961938 0
M  V30 10387 C 980.89 1.06304 2.09133 0
M  V30 10388 C 981.906 0.00221475 1.74 0
M  V30 10389 O 983.082 0.201611 2.00388 0
M  V30 10390 C 980.147 0.676117 3.40043 0
M  V30 10391 C 979.208 1.81407 3.89089 0
M  V30 10392 C 978.441 1.44551 5.13752 0
M  V30 10393 O 978.664 0.337894 5.69398 0
M  V30 10394 O 977.598 2.27316 5.57325 0
M  V30 10395 H 981.424 2.01001 2.27667 0
M  V30 10396 H 979.009 1.0371 1.07539 0
M  V30 10397 H 980.891 0.472124 4.18747 0
M  V30 10398 H 979.566 -0.241667 3.22797 0
M  V30 10399 H 978.473 2.07286 3.11421 0
M  V30 10400 H 979.806 2.71083 4.10822 0
M  V30 10401 N 981.458 -1.16348 1.06306 0
M  V30 10402 C 982.735 -1.829 0.69331 0
M  V30 10403 C 983.115 -1.94298 -0.82531 0
M  V30 10404 O 982.463 -1.48619 -1.73565 0
M  V30 10405 C 982.673 -3.1989 1.3954 0
M  V30 10406 C 984.021 -3.95662 1.54068 0
M  V30 10407 O 985.045 -3.29408 1.35532 0
M  V30 10408 O 983.904 -5.14422 1.84479 0
M  V30 10409 H 980.998 -0.789738 0.245445 0
M  V30 10410 H 983.544 -1.23549 1.16334 0
M  V30 10411 H 982.316 -3.06629 2.43093 0
M  V30 10412 H 981.939 -3.86918 0.915453 0
M  V30 10413 N 982.937 -0.845659 -1.3299 0
M  V30 10414 C 983.869 -0.241097 -2.27928 0
M  V30 10415 C 984.882 0.582048 -1.5204 0
M  V30 10416 O 986.071 0.408008 -1.73774 0
M  V30 10417 C 983.171 0.678652 -3.32035 0
M  V30 10418 C 982.344 -0.106652 -4.3727 0
M  V30 10419 C 981.403 0.737478 -5.21006 0
M  V30 10420 O 980.429 0.174231 -5.68933 0
M  V30 10421 N 981.631 2.05372 -5.42957 0
M  V30 10422 H 984.396 -1.05685 -2.80448 0
M  V30 10423 H 981.957 -0.704771 -1.45755 0
M  V30 10424 H 983.949 1.24849 -3.84961 0
M  V30 10425 H 982.519 1.3951 -2.79742 0
M  V30 10426 H 981.739 -0.857897 -3.84752 0
M  V30 10427 H 983.027 -0.646386 -5.04677 0
M  V30 10428 H 982.425 2.53478 -5.05733 0
M  V30 10429 H 980.982 2.5719 -5.98913 0
M  V30 10430 N 984.415 1.45619 -0.602734 0
M  V30 10431 C 985.826 1.85814 -0.181636 0
M  V30 10432 C 986.177 1.5037 1.26029 0
M  V30 10433 O 985.302 0.928068 1.95489 0
M  V30 10434 C 985.897 3.37258 -0.322866 0
M  V30 10435 C 984.456 3.76375 0.043504 0
M  V30 10436 C 983.603 2.69585 -0.649561 0
M  V30 10437 H 986.554 1.36489 -0.809721 0
M  V30 10438 H 986.575 3.77874 0.446279 0
M  V30 10439 H 986.087 3.63024 -1.37241 0
M  V30 10440 H 984.188 3.56226 1.09241 0
M  V30 10441 H 984.301 4.77843 -0.346765 0
M  V30 10442 H 982.665 2.54549 -0.087706 0
M  V30 10443 H 983.448 2.98188 -1.70115 0
M  V30 10444 N 985.893 0.34162 1.53853 0
M  V30 10445 C 986.84 -0.516058 2.24957 0
M  V30 10446 C 987.81 -1.09711 1.2471 0
M  V30 10447 O 988.995 -1.13409 1.53438 0
M  V30 10448 C 986.135 -1.66207 3.02439 0
M  V30 10449 C 985.248 -1.10851 4.17536 0
M  V30 10450 C 984.383 -2.22167 4.82509 0
M  V30 10451 C 983.422 -1.64152 5.89678 0
M  V30 10452 N 982.559 -2.69203 6.4844 0
M  V30 10453 H 987.399 0.0968275 2.97843 0
M  V30 10454 H 984.936 0.0595565 1.46979 0
M  V30 10455 H 986.894 -2.33672 3.4562 0
M  V30 10456 H 985.524 -2.24597 2.31853 0
M  V30 10457 H 984.576 -0.324853 3.7901 0
M  V30 10458 H 985.888 -0.644151 4.94623 0
M  V30 10459 H 985.042 -2.97501 5.28751 0
M  V30 10460 H 983.781 -2.71946 4.04842 0
M  V30 10461 H 982.786 -0.873228 5.42821 0
M  V30 10462 H 984.011 -1.15228 6.69253 0
M  V30 10463 H 981.957 -3.1824 5.73637 0
M  V30 10464 H 981.874 -2.27383 7.20994 0
M  V30 10465 H 983.142 -3.44312 6.99335 0
M  V30 10466 N 987.371 -1.57444 0.0701946 0
M  V30 10467 C 988.303 -2.09611 -0.927142 0
M  V30 10468 C 989.316 -1.02791 -1.26245 0
M  V30 10469 O 990.505 -1.30309 -1.21992 0
M  V30 10470 C 987.605 -2.54015 -2.24342 0
M  V30 10471 C 986.778 -3.84389 -2.08719 0
M  V30 10472 C 985.837 -4.14904 -3.23638 0
M  V30 10473 O 984.863 -4.84528 -2.98699 0
M  V30 10474 N 986.065 -3.68322 -4.48686 0
M  V30 10475 H 988.83 -2.95803 -0.481753 0
M  V30 10476 H 986.391 -1.61487 -0.115572 0
M  V30 10477 H 988.383 -2.71492 -3.00124 0
M  V30 10478 H 986.953 -1.72969 -2.60385 0
M  V30 10479 H 986.173 -3.76308 -1.17415 0
M  V30 10480 H 987.461 -4.69729 -1.9553 0
M  V30 10481 H 986.859 -3.12073 -4.71834 0
M  V30 10482 H 985.416 -3.91002 -5.21499 0
M  V30 10483 N 988.849 0.203349 -1.56283 0
M  V30 10484 C 990.095 0.926381 -1.80405 0
M  V30 10485 C 990.428 1.8325 -0.642883 0
M  V30 10486 O 989.703 1.91196 0.356998 0
M  V30 10487 C 989.986 1.74972 -3.14733 0
M  V30 10488 C 989.839 0.868866 -4.41328 0
M  V30 10489 C 991.158 2.72394 -3.45672 0
M  V30 10490 H 988.277 0.335346 -0.656286 0
M  V30 10491 H 990.919 0.1942 -1.89005 0
M  V30 10492 H 989.069 2.37394 -3.07533 0
M  V30 10493 H 990.741 0.259986 -4.60567 0
M  V30 10494 H 988.984 0.175161 -4.33446 0
M  V30 10495 H 989.655 1.47975 -5.31796 0
M  V30 10496 H 992.131 2.20105 -3.53119 0
M  V30 10497 H 991.007 3.27091 -4.40798 0
M  V30 10498 H 991.268 3.51035 -2.6875 0
M  V30 10499 N 990.327 1.50405 0.470755 0
M  V30 10500 C 991.557 1.64928 1.24428 0
M  V30 10501 C 991.965 0.332139 1.86262 0
M  V30 10502 O 991.308 -0.695919 1.70008 0
M  V30 10503 C 991.37 2.6829 2.39293 0
M  V30 10504 C 991.034 4.11835 1.98093 0
M  V30 10505 C 992.031 4.97693 1.50326 0
M  V30 10506 C 989.716 4.57753 2.06803 0
M  V30 10507 C 991.71 6.27516 1.11813 0
M  V30 10508 C 989.397 5.87582 1.67902 0
M  V30 10509 C 990.395 6.72289 1.20485 0
M  V30 10510 O 990.083 7.99694 0.821219 0
M  V30 10511 H 989.815 0.557418 0.382442 0
M  V30 10512 H 992.369 1.97382 0.568292 0
M  V30 10513 H 990.599 2.31079 3.10063 0
M  V30 10514 H 992.288 2.7203 3.01255 0
M  V30 10515 H 993.054 4.63434 1.43018 0
M  V30 10516 H 988.933 3.91966 2.42659 0
M  V30 10517 H 992.477 6.93586 0.747317 0
M  V30 10518 H 988.374 6.21362 1.74869 0
M  V30 10519 H 989.142 8.12968 0.950038 0
M  V30 10520 N 991.805 -0.723954 1.39988 0
M  V30 10521 C 993.051 -1.48591 1.38017 0
M  V30 10522 C 993.384 -1.94189 -0.0203522 0
M  V30 10523 O 992.659 -1.67572 -0.987422 0
M  V30 10524 C 992.942 -2.71786 2.36229 0
M  V30 10525 C 992.795 -2.32136 3.8527 0
M  V30 10526 C 994.114 -3.73921 2.32102 0
M  V30 10527 H 991.233 -0.538993 0.502648 0
M  V30 10528 H 993.875 -0.826908 1.71062 0
M  V30 10529 H 992.025 -3.28015 2.0818 0
M  V30 10530 H 993.697 -1.81454 4.24113 0
M  V30 10531 H 991.94 -1.64234 4.01509 0
M  V30 10532 H 992.611 -3.20406 4.49493 0
M  V30 10533 H 995.087 -3.27303 2.56928 0
M  V30 10534 H 993.963 -4.5777 3.02882 0
M  V30 10535 H 994.224 -4.21627 1.32979 0
M  V30 10536 N 993.283 -1.25346 -0.955304 0
M  V30 10537 C 994.56 -1.00829 -1.67609 0
M  V30 10538 C 994.94 0.465675 -2.059 0
M  V30 10539 O 994.288 1.44287 -1.77182 0
M  V30 10540 C 994.498 -1.94337 -2.89886 0
M  V30 10541 C 995.846 -2.22142 -3.61854 0
M  V30 10542 O 996.87 -1.9209 -2.99967 0
M  V30 10543 O 995.729 -2.73239 -4.73289 0
M  V30 10544 H 992.823 -0.382314 -0.733325 0
M  V30 10545 H 995.369 -1.36498 -1.00829 0
M  V30 10546 H 994.141 -2.93867 -2.58376 0
M  V30 10547 H 993.764 -1.59062 -3.64397 0
M  V30 10548 N 994.761 1.15782 -1.06922 0
M  V30 10549 C 995.708 2.2038 -0.685659 0
M  V30 10550 C 996.678 1.62972 0.320816 0
M  V30 10551 O 997.863 1.8966 0.208258 0
M  V30 10552 C 995.003 3.44995 -0.084998 0
M  V30 10553 C 994.116 4.16621 -1.14242 0
M  V30 10554 C 993.251 5.28773 -0.507226 0
M  V30 10555 C 992.29 5.92209 -1.54774 0
M  V30 10556 N 991.427 6.9584 -0.935443 0
M  V30 10557 H 996.267 2.5254 -1.58201 0
M  V30 10558 H 993.804 1.24031 -0.790864 0
M  V30 10559 H 995.762 4.16254 0.280845 0
M  V30 10560 H 994.392 3.13365 0.774725 0
M  V30 10561 H 993.444 3.43903 -1.62589 0
M  V30 10562 H 994.756 4.59884 -1.93154 0
M  V30 10563 H 993.91 6.06635 -0.0887719 0
M  V30 10564 H 992.649 4.8669 0.313704 0
M  V30 10565 H 991.654 5.13063 -1.97602 0
M  V30 10566 H 992.879 6.3637 -2.37088 0
M  V30 10567 H 990.825 6.5586 -0.135339 0
M  V30 10568 H 990.742 7.37508 -1.66186 0
M  V30 10569 H 992.01 7.77611 -0.542346 0
M  V30 10570 N 996.239 0.8527 1.3254 0
M  V30 10571 C 997.169 0.311234 2.31416 0
M  V30 10572 C 998.15 -0.588557 1.59593 0
M  V30 10573 O 999.335 -0.509211 1.87405 0
M  V30 10574 C 996.465 -0.502892 3.4364 0
M  V30 10575 C 995.419 0.302296 4.26931 0
M  V30 10576 C 994.745 -0.636445 5.30899 0
M  V30 10577 C 996.045 1.52697 4.99481 0
M  V30 10578 H 997.739 1.13742 2.76953 0
M  V30 10579 H 995.285 0.548389 1.33149 0
M  V30 10580 H 997.238 -0.892092 4.11849 0
M  V30 10581 H 995.962 -1.36242 2.96826 0
M  V30 10582 H 994.621 0.673226 3.60365 0
M  V30 10583 H 994.269 -1.49277 4.80339 0
M  V30 10584 H 993.969 -0.101716 5.87512 0
M  V30 10585 H 995.493 -1.02286 6.01972 0
M  V30 10586 H 996.907 1.21017 5.60382 0
M  V30 10587 H 995.304 1.9995 5.65809 0
M  V30 10588 H 996.374 2.28929 4.27457 0
M  V30 10589 N 997.718 -1.45297 0.610449 0
M  V30 10590 C 998.681 -2.28995 -0.0968194 0
M  V30 10591 C 999.681 -1.39923 -0.792353 0
M  V30 10592 O 1000.87 -1.62014 -0.64008 0
M  V30 10593 C 998.003 -3.21013 -1.14731 0
M  V30 10594 H 999.196 -2.93012 0.639082 0
M  V30 10595 H 996.749 -1.51867 0.369624 0
M  V30 10596 H 997.484 -2.61803 -1.91388 0
M  V30 10597 H 997.269 -3.86628 -0.652753 0
M  V30 10598 H 998.759 -3.8394 -1.64256 0
M  V30 10599 N 999.196 -0.349774 -1.5367 0
M  V30 10600 C 1000.11 0.512421 -2.28935 0
M  V30 10601 C 1001.12 1.1065 -1.34286 0
M  V30 10602 O 1002.3 1.12084 -1.67329 0
M  V30 10603 C 999.363 1.64449 -3.05217 0
M  V30 10604 C 998.424 1.07956 -4.15505 0
M  V30 10605 C 997.657 2.15768 -4.88139 0
M  V30 10606 O 997.88 3.366 -4.60496 0
M  V30 10607 O 996.814 1.79712 -5.74445 0
M  V30 10608 H 1000.64 -0.0996001 -3.03537 0
M  V30 10609 H 998.225 -0.114629 -1.4896 0
M  V30 10610 H 1000.11 2.30302 -3.52901 0
M  V30 10611 H 998.782 2.24221 -2.33467 0
M  V30 10612 H 997.689 0.385381 -3.7211 0
M  V30 10613 H 999.022 0.526621 -4.89375 0
M  V30 10614 N 1000.67 1.57404 -0.0785433 0
M  V30 10615 C 1001.6 2.16131 0.883726 0
M  V30 10616 C 1002.58 1.09015 1.30575 0
M  V30 10617 O 1003.77 1.3708 1.37559 0
M  V30 10618 C 1000.9 2.72836 2.1489 0
M  V30 10619 C 999.854 3.85178 1.86605 0
M  V30 10620 C 999.18 4.28516 3.1981 0
M  V30 10621 C 1000.48 5.09118 1.16601 0
M  V30 10622 H 1002.17 2.9679 0.394484 0
M  V30 10623 H 999.72 1.42763 0.188304 0
M  V30 10624 H 1001.67 3.12567 2.8263 0
M  V30 10625 H 1000.4 1.89408 2.66068 0
M  V30 10626 H 999.056 3.45962 1.21268 0
M  V30 10627 H 998.704 3.42 3.68843 0
M  V30 10628 H 998.404 5.04249 3.01674 0
M  V30 10629 H 999.928 4.70868 3.88737 0
M  V30 10630 H 1001.34 5.46123 1.74422 0
M  V30 10631 H 999.739 5.90173 1.087 0
M  V30 10632 H 1000.81 4.8468 0.146138 0
M  V30 10633 N 1002.15 -0.195058 1.56388 0
M  V30 10634 C 1003.1 -1.24175 1.94549 0
M  V30 10635 C 1004.07 -1.45229 0.806089 0
M  V30 10636 O 1005.25 -1.58362 1.06425 0
M  V30 10637 C 1002.39 -2.58145 2.29031 0
M  V30 10638 C 1001.51 -2.44669 3.56035 0
M  V30 10639 C 1000.64 -3.71342 3.7984 0
M  V30 10640 C 999.681 -3.52699 5.0027 0
M  V30 10641 N 998.818 -4.71385 5.20328 0
M  V30 10642 H 1003.66 -0.909319 2.83788 0
M  V30 10643 H 1001.19 -0.437641 1.40439 0
M  V30 10644 H 1003.15 -3.36195 2.4704 0
M  V30 10645 H 1001.78 -2.8943 1.42933 0
M  V30 10646 H 1000.83 -1.57916 3.46073 0
M  V30 10647 H 1002.15 -2.26827 4.44242 0
M  V30 10648 H 1001.3 -4.57832 3.98088 0
M  V30 10649 H 1000.04 -3.92138 2.89964 0
M  V30 10650 H 999.045 -2.64594 4.81944 0
M  V30 10651 H 1000.27 -3.33349 5.91655 0
M  V30 10652 H 998.216 -4.92444 4.33399 0
M  V30 10653 H 998.133 -4.56368 6.02714 0
M  V30 10654 H 999.401 -5.59226 5.43035 0
M  V30 10655 N 1003.63 -1.50653 -0.462772 0
M  V30 10656 C 1004.58 -1.70661 -1.58043 0
M  V30 10657 C 1005.57 -0.572533 -1.59432 0
M  V30 10658 O 1006.78 -0.753257 -1.63481 0
M  V30 10659 H 1003.15 -0.538805 -0.524588 0
M  V30 10660 H 1005.12 -2.64399 -1.38332 0
M  V30 10661 C 1003.87 -1.82558 -2.95919 0
M  V30 10662 H 1003.2 -2.69216 -2.95572 0
M  V30 10663 H 1004.64 -2.0058 -3.73556 0
M  V30 10664 C 1003.09 -0.57916 -3.31885 0
M  V30 10665 O 1003.62 0.277888 -4.00738 0
M  V30 10666 N 1001.83 -0.430723 -2.8739 0
M  V30 10667 H 1001.38 -1.1292 -2.31531 0
M  V30 10668 H 1001.34 0.402061 -3.11819 0
M  V30 10669 N 1005.11 0.71652 -1.4037 0
M  V30 10670 C 1006.04 1.84345 -1.43315 0
M  V30 10671 C 1007.02 1.67537 -0.294186 0
M  V30 10672 O 1008.2 1.87582 -0.502671 0
M  V30 10673 C 1005.33 3.2229 -1.29408 0
M  V30 10674 C 1004.29 3.53769 -2.40897 0
M  V30 10675 C 1003.61 4.90847 -2.12068 0
M  V30 10676 C 1004.91 3.54862 -3.83237 0
M  V30 10677 H 1006.61 1.82138 -2.37626 0
M  V30 10678 H 1004.15 0.874873 -1.14376 0
M  V30 10679 H 1006.11 4.00819 -1.30085 0
M  V30 10680 H 1004.83 3.2507 -0.31573 0
M  V30 10681 H 1003.49 2.77579 -2.39469 0
M  V30 10682 H 1003.14 4.90229 -1.12626 0
M  V30 10683 H 1002.84 5.12875 -2.86762 0
M  V30 10684 H 1004.36 5.71711 -2.14426 0
M  V30 10685 H 1005.78 4.23432 -3.86494 0
M  V30 10686 H 1004.17 3.88416 -4.57442 0
M  V30 10687 H 1005.24 2.54266 -4.12888 0
M  V30 10688 N 1006.59 1.25851 0.948643 0
M  V30 10689 C 1007.83 1.10735 1.69062 0
M  V30 10690 C 1008.16 -0.351257 1.9181 0
M  V30 10691 O 1007.43 -1.24867 1.50947 0
M  V30 10692 H 1006.01 0.406796 0.626519 0
M  V30 10693 H 1008.67 1.58066 1.14022 0
M  V30 10694 H 1007.76 1.62033 2.66743 0
M  V30 10695 N 1008.06 -1.15214 1.07534 0
M  V30 10696 C 1009 -2.19634 0.655261 0
M  V30 10697 C 1010.01 -1.60139 -0.293165 0
M  V30 10698 O 1011.2 -1.78311 -0.0821957 0
M  V30 10699 C 1008.3 -3.38851 -0.0578281 0
M  V30 10700 C 1007.47 -4.27888 0.90725 0
M  V30 10701 C 1006.53 -5.25692 0.231115 0
M  V30 10702 O 1005.56 -5.62469 0.872746 0
M  V30 10703 N 1006.76 -5.71424 -1.0225 0
M  V30 10704 H 1009.52 -2.56292 1.55353 0
M  V30 10705 H 1007.08 -1.30347 0.960271 0
M  V30 10706 H 1009.08 -4.01334 -0.520874 0
M  V30 10707 H 1007.65 -3.00593 -0.858071 0
M  V30 10708 H 1006.87 -3.62475 1.54937 0
M  V30 10709 H 1008.15 -4.84246 1.56151 0
M  V30 10710 H 1007.55 -5.43659 -1.56369 0
M  V30 10711 H 1006.11 -6.35938 -1.42919 0
M  V30 10712 N 1009.54 -0.859717 -1.32086 0
M  V30 10713 C 1010.95 -0.519529 -1.79326 0
M  V30 10714 C 1011.3 0.96295 -1.70944 0
M  V30 10715 O 1010.43 1.75139 -1.27104 0
M  V30 10716 C 1011.02 -0.936267 -3.25606 0
M  V30 10717 C 1009.58 -0.647899 -3.70782 0
M  V30 10718 C 1008.73 -1.13323 -2.53087 0
M  V30 10719 H 1011.68 -1.04643 -1.19312 0
M  V30 10720 H 1011.7 -0.254714 -3.79646 0
M  V30 10721 H 1011.21 -2.01527 -3.31675 0
M  V30 10722 H 1009.32 0.420172 -3.70223 0
M  V30 10723 H 1009.43 -1.21774 -4.63366 0
M  V30 10724 H 1007.79 -0.553325 -2.48617 0
M  V30 10725 H 1008.58 -2.21945 -2.61907 0
M  V30 10726 N 1011.02 1.44971 -0.618145 0
M  V30 10727 C 1012.27 2.01372 -0.115004 0
M  V30 10728 C 1012.58 1.49104 1.26599 0
M  V30 10729 O 1013.79 1.97549 1.86244 0
M  V30 10730 C 1012.24 3.59567 -0.154883 0
M  V30 10731 C 1011.85 4.20832 -1.53639 0
M  V30 10732 C 1013.6 4.23491 0.292468 0
M  V30 10733 C 1011.5 5.7121 -1.53208 0
M  V30 10734 H 1010.43 0.752979 -0.0392267 0
M  V30 10735 H 1013.08 1.66329 -0.775032 0
M  V30 10736 H 1011.47 3.91847 0.572001 0
M  V30 10737 H 1012.64 4.00109 -2.28582 0
M  V30 10738 H 1010.96 3.69143 -1.92672 0
M  V30 10739 H 1013.55 5.33771 0.315032 0
M  V30 10740 H 1013.9 3.9491 1.31725 0
M  V30 10741 H 1014.43 3.95967 -0.381493 0
M  V30 10742 H 1011.17 6.04506 -2.53481 0
M  V30 10743 H 1010.69 5.94094 -0.825387 0
M  V30 10744 H 1012.37 6.34606 -1.26032 0
M  V30 10745 N 1012.5 0.357919 1.53482 0
M  V30 10746 C 1013.45 -0.49217 2.25491 0
M  V30 10747 C 1014.42 -1.08382 1.25867 0
M  V30 10748 O 1015.6 -1.11775 1.54632 0
M  V30 10749 C 1012.74 -1.6299 3.04185 0
M  V30 10750 C 1011.85 -1.06416 4.18688 0
M  V30 10751 C 1010.99 -2.17037 4.84839 0
M  V30 10752 C 1010.03 -1.57889 5.91386 0
M  V30 10753 N 1009.16 -2.6231 6.51259 0
M  V30 10754 H 1014 0.128412 2.97723 0
M  V30 10755 H 1011.54 0.0751423 1.46908 0
M  V30 10756 H 1013.5 -2.29993 3.48079 0
M  V30 10757 H 1012.13 -2.22125 2.34223 0
M  V30 10758 H 1011.18 -0.284635 3.79334 0
M  V30 10759 H 1012.49 -0.591654 4.95279 0
M  V30 10760 H 1011.65 -2.91876 5.31877 0
M  V30 10761 H 1010.39 -2.67636 4.07703 0
M  V30 10762 H 1009.39 -0.815605 5.43717 0
M  V30 10763 H 1010.62 -1.08123 6.70437 0
M  V30 10764 H 1008.56 -3.12137 5.7698 0
M  V30 10765 H 1008.48 -2.19724 7.23365 0
M  V30 10766 H 1009.75 -3.36875 7.02948 0
M  V30 10767 N 1013.98 -1.5736 0.0868897 0
M  V30 10768 C 1015.23 -1.93229 -0.578387 0
M  V30 10769 C 1015.54 -0.970127 -1.69847 0
M  V30 10770 O 1016.74 -1.22222 -2.42434 0
M  V30 10771 C 1015.2 -3.43307 -1.0802 0
M  V30 10772 C 1014.81 -4.47999 0.00968135 0
M  V30 10773 C 1016.55 -3.88151 -1.71868 0
M  V30 10774 C 1014.46 -5.89223 -0.507029 0
M  V30 10775 H 1013.39 -0.721245 -0.219823 0
M  V30 10776 H 1016.04 -1.82787 0.161566 0
M  V30 10777 H 1014.42 -3.48873 -1.87359 0
M  V30 10778 H 1015.6 -4.54067 0.784865 0
M  V30 10779 H 1013.91 -4.12714 0.552845 0
M  V30 10780 H 1016.51 -4.91056 -2.11585 0
M  V30 10781 H 1016.85 -3.26347 -2.58464 0
M  V30 10782 H 1017.38 -3.85252 -0.991259 0
M  V30 10783 H 1014.12 -6.54708 0.322121 0
M  V30 10784 H 1013.64 -5.86643 -1.2494 0
M  V30 10785 H 1015.32 -6.39556 -0.978628 0
M  V30 10786 N 1015.45 0.186762 -1.56489 0
M  V30 10787 C 1016.87 0.537933 -1.50261 0
M  V30 10788 C 1017.07 1.85435 -0.788414 0
M  V30 10789 O 1016.13 2.50168 -0.342377 0
M  V30 10790 C 1017.44 0.584965 -2.94955 0
M  V30 10791 C 1018.99 0.673228 -3.05674 0
M  V30 10792 C 1019.46 0.751294 -4.51796 0
M  V30 10793 N 1020.95 0.814599 -4.55981 0
M  V30 10794 C 1021.69 0.895313 -5.66367 0
M  V30 10795 N 1021.18 0.937814 -6.86423 0
M  V30 10796 N 1022.98 0.933145 -5.543 0
M  V30 10797 H 1015.13 -0.676636 -2.01334 0
M  V30 10798 H 1017.39 -0.242079 -0.916571 0
M  V30 10799 H 1017.1 -0.313361 -3.50301 0
M  V30 10800 H 1016.97 1.4368 -3.48763 0
M  V30 10801 H 1019.36 1.56198 -2.50372 0
M  V30 10802 H 1019.44 -0.204976 -2.54977 0
M  V30 10803 H 1019.08 -0.133143 -5.07725 0
M  V30 10804 H 1019.01 1.64542 -5.00233 0
M  V30 10805 H 1021.5 0.790662 -3.69536 0
M  V30 10806 H 1021.82 1.00015 -7.66301 0
M  V30 10807 H 1020.16 0.906351 -6.89065 0
M  V30 10808 H 1023.35 0.896836 -4.59428 0
M  V30 10809 H 1023.53 0.992588 -6.40353 0
M  V30 10810 N 1016.93 1.50896 0.454776 0
M  V30 10811 C 1018.18 1.62699 1.20562 0
M  V30 10812 C 1018.51 0.334943 1.91594 0
M  V30 10813 O 1017.76 -0.680106 1.83502 0
M  V30 10814 C 1018.06 2.76839 2.26042 0
M  V30 10815 C 1017.73 4.16745 1.72147 0
M  V30 10816 C 1016.39 4.54809 1.5717 0
M  V30 10817 C 1018.74 5.04118 1.32341 0
M  V30 10818 C 1016.07 5.7797 1.00835 0
M  V30 10819 C 1018.42 6.27842 0.774419 0
M  V30 10820 C 1017.09 6.64694 0.611415 0
M  V30 10821 H 1016.36 0.595358 0.441169 0
M  V30 10822 H 1019 1.84879 0.499202 0
M  V30 10823 H 1017.31 2.48812 3.02655 0
M  V30 10824 H 1019 2.83173 2.83926 0
M  V30 10825 H 1015.59 3.86725 1.84775 0
M  V30 10826 H 1019.78 4.75331 1.42739 0
M  V30 10827 H 1015.03 6.05183 0.869669 0
M  V30 10828 H 1019.21 6.94896 0.457389 0
M  V30 10829 H 1016.84 7.60004 0.172751 0
M  V30 10830 N 1018.41 -0.709066 1.40748 0
M  V30 10831 C 1019.34 -1.83412 1.37451 0
M  V30 10832 C 1020.36 -1.60394 0.27884 0
M  V30 10833 O 1021.54 -1.70147 0.539642 0
M  V30 10834 C 1018.64 -3.19935 1.1178 0
M  V30 10835 C 1017.82 -3.70095 2.33128 0
M  V30 10836 C 1016.88 -4.85249 2.03518 0
M  V30 10837 O 1015.9 -4.97563 2.76442 0
M  V30 10838 N 1017.1 -5.7152 1.01714 0
M  V30 10839 H 1019.87 -1.86736 2.34414 0
M  V30 10840 H 1017.43 -0.890863 1.35186 0
M  V30 10841 H 1019.42 -3.94578 0.899464 0
M  V30 10842 H 1017.99 -3.11718 0.234624 0
M  V30 10843 H 1017.21 -2.8651 2.70751 0
M  V30 10844 H 1018.5 -4.00344 3.1401 0
M  V30 10845 H 1017.9 -5.64188 0.413307 0
M  V30 10846 H 1016.46 -6.46119 0.858696 0
M  V30 10847 N 1019.89 -1.26353 -0.941956 0
M  V30 10848 C 1020.8 -1.09618 -2.07415 0
M  V30 10849 C 1021.82 -0.0298963 -1.73974 0
M  V30 10850 O 1022.99 -0.233466 -2.00042 0
M  V30 10851 C 1020.06 -0.73013 -3.38925 0
M  V30 10852 C 1019.12 -1.87574 -3.86153 0
M  V30 10853 C 1018.35 -1.52706 -5.11387 0
M  V30 10854 O 1018.57 -0.428438 -5.68789 0
M  V30 10855 O 1017.51 -2.36154 -5.53638 0
M  V30 10856 H 1021.33 -2.04598 -2.2444 0
M  V30 10857 H 1018.92 -1.05407 -1.05876 0
M  V30 10858 H 1020.8 -0.538684 -4.17943 0
M  V30 10859 H 1019.48 0.190282 -3.2314 0
M  V30 10860 H 1018.38 -2.12214 -3.08084 0
M  V30 10861 H 1019.72 -2.77585 -4.06457 0
M  V30 10862 N 1021.37 1.14642 -1.08144 0
M  V30 10863 C 1022.59 1.90025 -0.830972 0
M  V30 10864 C 1023.02 1.77904 0.610879 0
M  V30 10865 O 1022.38 1.11735 1.42776 0
M  V30 10866 C 1022.42 3.38085 -1.25422 0
M  V30 10867 O 1021.53 4.10412 -0.404486 0
M  V30 10868 H 1020.87 0.591327 -0.302041 0
M  V30 10869 H 1023.4 1.4513 -1.44216 0
M  V30 10870 H 1023.41 3.88894 -1.23391 0
M  V30 10871 H 1022.08 3.46226 -2.30435 0
M  V30 10872 H 1020.66 3.69693 -0.487987 0
M  V30 10873 N 1022.85 0.866709 1.31628 0
M  V30 10874 C 1023.76 0.323408 2.3236 0
M  V30 10875 C 1024.77 -0.564995 1.64572 0
M  V30 10876 O 1025.95 -0.462489 1.96018 0
M  V30 10877 C 1023.01 -0.469045 3.43513 0
M  V30 10878 C 1022.07 0.446928 4.26967 0
M  V30 10879 C 1021.31 -0.307799 5.32812 0
M  V30 10880 O 1021.53 -1.5363 5.49321 0
M  V30 10881 O 1020.46 0.332653 6.0098 0
M  V30 10882 H 1024.29 1.15827 2.80745 0
M  V30 10883 H 1021.87 0.629987 1.35468 0
M  V30 10884 H 1023.76 -0.918405 4.1127 0
M  V30 10885 H 1022.43 -1.28051 2.97296 0
M  V30 10886 H 1021.34 0.944719 3.61975 0
M  V30 10887 H 1022.67 1.2239 4.76741 0
M  V30 10888 N 1024.32 -1.44642 0.625825 0
M  V30 10889 C 1025.23 -2.34451 -0.0836134 0
M  V30 10890 C 1026.25 -1.5231 -0.841289 0
M  V30 10891 O 1027.43 -1.85056 -0.794754 0
M  V30 10892 C 1024.49 -3.30211 -1.05648 0
M  V30 10893 C 1023.55 -4.28259 -0.298759 0
M  V30 10894 C 1022.78 -5.19444 -1.22528 0
M  V30 10895 O 1023.01 -5.14444 -2.46382 0
M  V30 10896 O 1021.94 -5.97668 -0.71247 0
M  V30 10897 H 1025.77 -2.96555 0.654912 0
M  V30 10898 H 1023.35 -1.44327 0.386029 0
M  V30 10899 H 1025.23 -3.8917 -1.61632 0
M  V30 10900 H 1023.91 -2.70648 -1.77571 0
M  V30 10901 H 1022.82 -3.72863 0.304001 0
M  V30 10902 H 1024.15 -4.90728 0.380345 0
M  V30 10903 N 1025.8 -0.366053 -1.5329 0
M  V30 10904 C 1027.22 -0.0150149 -1.59593 0
M  V30 10905 C 1027.42 1.46719 -1.38116 0
M  V30 10906 O 1026.47 2.22884 -1.18656 0
M  V30 10907 C 1027.79 -0.471374 -2.96982 0
M  V30 10908 C 1029.33 -0.425634 -3.10092 0
M  V30 10909 C 1029.81 -0.857812 -4.49895 0
M  V30 10910 N 1031.3 -0.81289 -4.56011 0
M  V30 10911 C 1032.04 -1.11898 -5.62376 0
M  V30 10912 N 1031.53 -1.49436 -6.76491 0
M  V30 10913 N 1033.32 -1.04174 -5.52362 0
M  V30 10914 H 1025.48 -1.33127 -1.65502 0
M  V30 10915 H 1027.74 -0.544172 -0.776261 0
M  V30 10916 H 1027.44 -1.50569 -3.1784 0
M  V30 10917 H 1027.32 0.141764 -3.76934 0
M  V30 10918 H 1029.71 0.599548 -2.88945 0
M  V30 10919 H 1029.79 -1.07427 -2.32149 0
M  V30 10920 H 1029.43 -1.88111 -4.7178 0
M  V30 10921 H 1029.36 -0.186419 -5.2627 0
M  V30 10922 H 1031.85 -0.536343 -3.74075 0
M  V30 10923 H 1032.16 -1.71217 -7.53594 0
M  V30 10924 H 1030.51 -1.53302 -6.77882 0
M  V30 10925 H 1033.7 -0.747654 -4.62091 0
M  V30 10926 H 1033.87 -1.28362 -6.35159 0
M  V30 10927 N 1027.28 1.57312 -0.0952337 0
M  V30 10928 C 1028.69 1.81589 0.433875 0
M  V30 10929 C 1029.04 1.01086 1.68155 0
M  V30 10930 O 1028.17 0.240272 2.15062 0
M  V30 10931 C 1028.76 3.29366 0.793931 0
M  V30 10932 C 1027.32 3.54407 1.26778 0
M  V30 10933 C 1026.47 2.76035 0.264518 0
M  V30 10934 H 1029.42 1.55426 -0.320675 0
M  V30 10935 H 1029.44 3.42697 1.65345 0
M  V30 10936 H 1028.95 3.87932 -0.114334 0
M  V30 10937 H 1027.05 3.01173 2.19376 0
M  V30 10938 H 1027.17 4.63055 1.22952 0
M  V30 10939 H 1025.53 2.43509 0.746691 0
M  V30 10940 H 1026.31 3.37349 -0.636429 0
M  V30 10941 N 1028.76 -0.17846 1.56586 0
M  V30 10942 C 1029.7 -1.22104 1.95855 0
M  V30 10943 C 1030.67 -1.44366 0.821447 0
M  V30 10944 O 1031.86 -1.57224 1.08098 0
M  V30 10945 C 1029 -2.55701 2.31757 0
M  V30 10946 C 1028.11 -2.40879 3.5861 0
M  V30 10947 C 1027.25 -3.67293 3.83757 0
M  V30 10948 C 1026.29 -3.47373 5.03982 0
M  V30 10949 N 1025.42 -4.65839 5.25298 0
M  V30 10950 H 1030.26 -0.879168 2.84736 0
M  V30 10951 H 1027.8 -0.422721 1.40895 0
M  V30 10952 H 1029.76 -3.33556 2.50592 0
M  V30 10953 H 1028.39 -2.87898 1.45995 0
M  V30 10954 H 1027.44 -1.54236 3.47729 0
M  V30 10955 H 1028.75 -2.22102 4.46623 0
M  V30 10956 H 1027.91 -4.53584 4.02922 0
M  V30 10957 H 1026.65 -3.89041 2.94107 0
M  V30 10958 H 1025.65 -2.59467 4.84723 0
M  V30 10959 H 1026.88 -3.27055 5.95157 0
M  V30 10960 H 1024.82 -4.8782 4.38598 0
M  V30 10961 H 1024.74 -4.4995 6.0752 0
M  V30 10962 H 1026.01 -5.53435 5.48936 0
M  V30 10963 N 1030.24 -1.51135 -0.446768 0
M  V30 10964 C 1031.17 -1.74709 -1.54916 0
M  V30 10965 C 1032.15 -0.596628 -1.59293 0
M  V30 10966 O 1033.33 -0.838356 -1.75172 0
M  V30 10967 C 1030.46 -1.86353 -2.9307 0
M  V30 10968 C 1029.42 -3.01725 -3.03556 0
M  V30 10969 C 1028.74 -2.9854 -4.43597 0
M  V30 10970 C 1030.04 -4.41848 -2.7851 0
M  V30 10971 H 1031.74 -2.67014 -1.3544 0
M  V30 10972 H 1029.28 -1.28489 -0.650131 0
M  V30 10973 H 1031.23 -2.01428 -3.70141 0
M  V30 10974 H 1029.96 -0.906887 -3.13756 0
M  V30 10975 H 1028.62 -2.86339 -2.28922 0
M  V30 10976 H 1028.27 -2.00673 -4.61237 0
M  V30 10977 H 1027.97 -3.76008 -4.51544 0
M  V30 10978 H 1029.49 -3.15696 -5.22655 0
M  V30 10979 H 1030.9 -4.57633 -3.45319 0
M  V30 10980 H 1029.3 -5.2095 -2.97877 0
M  V30 10981 H 1030.37 -4.52536 -1.74182 0
M  V30 10982 N 1031.71 0.701592 -1.41122 0
M  V30 10983 C 1032.96 1.4616 -1.40155 0
M  V30 10984 C 1033.29 1.94498 -0.00861553 0
M  V30 10985 O 1032.54 1.69484 0.978452 0
M  V30 10986 C 1032.84 2.693 -2.34973 0
M  V30 10987 C 1032.51 2.39652 -3.81939 0
M  V30 10988 C 1031.17 2.31277 -4.21977 0
M  V30 10989 C 1033.52 2.15076 -4.74755 0
M  V30 10990 C 1030.85 1.96413 -5.52846 0
M  V30 10991 C 1033.2 1.81722 -6.05937 0
M  V30 10992 C 1031.87 1.71838 -6.45002 0
M  V30 10993 H 1031.14 0.534837 -0.512865 0
M  V30 10994 H 1033.78 0.802425 -1.73878 0
M  V30 10995 H 1032.09 3.40123 -1.94484 0
M  V30 10996 H 1033.79 3.27427 -2.31501 0
M  V30 10997 H 1030.38 2.47063 -3.50226 0
M  V30 10998 H 1034.56 2.20495 -4.4463 0
M  V30 10999 H 1029.82 1.87308 -5.82001 0
M  V30 11000 H 1033.99 1.61723 -6.77362 0
M  V30 11001 H 1031.62 1.44591 -7.46323 0
M  V30 11002 N 1033.19 1.2685 0.935242 0
M  V30 11003 C 1034.1 1.10716 2.06831 0
M  V30 11004 C 1035.12 0.0391222 1.73956 0
M  V30 11005 O 1036.29 0.244071 1.99916 0
M  V30 11006 C 1033.36 0.748093 3.38533 0
M  V30 11007 C 1032.42 1.89619 3.85153 0
M  V30 11008 C 1031.65 1.55416 5.1057 0
M  V30 11009 O 1031.88 0.458596 5.68553 0
M  V30 11010 O 1030.81 2.39087 5.52378 0
M  V30 11011 H 1034.64 2.05785 2.23352 0
M  V30 11012 H 1032.22 1.05967 1.05315 0
M  V30 11013 H 1034.1 0.560841 4.17651 0
M  V30 11014 H 1032.78 -0.173142 3.23237 0
M  V30 11015 H 1031.68 2.13845 3.06954 0
M  V30 11016 H 1033.02 2.79737 4.04979 0
M  V30 11017 N 1034.67 -1.14067 1.0875 0
M  V30 11018 C 1035.58 -2.22871 0.732498 0
M  V30 11019 C 1036.6 -1.72008 -0.26253 0
M  V30 11020 O 1037.77 -2.01123 -0.105601 0
M  V30 11021 C 1034.84 -3.46371 0.150913 0
M  V30 11022 C 1033.9 -4.12158 1.201 0
M  V30 11023 C 1033.13 -5.29763 0.647075 0
M  V30 11024 O 1033.35 -5.67911 -0.532307 0
M  V30 11025 O 1032.29 -5.8542 1.3988 0
M  V30 11026 H 1036.11 -2.55596 1.64025 0
M  V30 11027 H 1033.7 -1.22065 0.861417 0
M  V30 11028 H 1035.58 -4.21055 -0.170442 0
M  V30 11029 H 1034.26 -3.15362 -0.729948 0
M  V30 11030 H 1033.16 -3.39332 1.57494 0
M  V30 11031 H 1034.5 -4.47282 2.05426 0
M  V30 11032 N 1036.15 -0.873678 -1.31166 0
M  V30 11033 C 1037.08 -0.348011 -2.30892 0
M  V30 11034 C 1038.06 0.563092 -1.60509 0
M  V30 11035 O 1039.24 0.479332 -1.88192 0
M  V30 11036 C 1036.37 0.448158 -3.44396 0
M  V30 11037 C 1035.33 -0.370179 -4.26396 0
M  V30 11038 C 1034.65 0.551903 -5.31844 0
M  V30 11039 C 1035.95 -1.60624 -4.96988 0
M  V30 11040 H 1037.65 -1.18134 -2.75109 0
M  V30 11041 H 1035.19 -0.569502 -1.3226 0
M  V30 11042 H 1037.15 0.826458 -4.13216 0
M  V30 11043 H 1035.87 1.31503 -2.98956 0
M  V30 11044 H 1034.53 -0.730472 -3.59249 0
M  V30 11045 H 1034.18 1.41616 -4.82653 0
M  V30 11046 H 1033.88 0.00823478 -5.87599 0
M  V30 11047 H 1035.4 0.926965 -6.03523 0
M  V30 11048 H 1036.82 -1.29917 -5.58386 0
M  V30 11049 H 1035.21 -2.08926 -5.62557 0
M  V30 11050 H 1036.28 -2.357 -4.23761 0
M  V30 11051 N 1037.63 1.44308 -0.633487 0
M  V30 11052 C 1038.87 2.01624 -0.138643 0
M  V30 11053 C 1039.2 1.50101 1.24477 0
M  V30 11054 O 1038.47 0.705575 1.82752 0
M  V30 11055 H 1037.05 0.745439 -0.0482636 0
M  V30 11056 H 1039.71 1.76777 -0.820719 0
M  V30 11057 H 1038.8 3.11913 -0.108136 0
M  V30 11058 N 1039.1 0.374177 1.53094 0
M  V30 11059 C 1040.05 -0.468226 2.26001 0
M  V30 11060 C 1041.02 -1.07041 1.27009 0
M  V30 11061 O 1042.21 -1.10129 1.55809 0
M  V30 11062 C 1039.35 -1.59754 3.05896 0
M  V30 11063 C 1038.46 -1.01969 4.19793 0
M  V30 11064 C 1037.59 -2.11882 4.87113 0
M  V30 11065 C 1036.63 -1.51607 5.93028 0
M  V30 11066 N 1035.77 -2.55388 6.54004 0
M  V30 11067 H 1040.61 0.159983 2.9757 0
M  V30 11068 H 1038.15 0.0907196 1.4682 0
M  V30 11069 H 1040.11 -2.26288 3.50499 0
M  V30 11070 H 1038.74 -2.19628 2.36565 0
M  V30 11071 H 1037.79 -0.244386 3.79614 0
M  V30 11072 H 1039.1 -0.539089 4.95878 0
M  V30 11073 H 1038.25 -2.86218 5.34943 0
M  V30 11074 H 1036.99 -2.63297 4.10519 0
M  V30 11075 H 1036 -0.757891 5.44551 0
M  V30 11076 H 1037.22 -1.01006 6.71546 0
M  V30 11077 H 1035.17 -3.06 5.80258 0
M  V30 11078 H 1035.09 -2.12039 7.25655 0
M  V30 11079 H 1036.35 -3.294 7.06481 0
M  V30 11080 N 1040.58 -1.57259 0.103575 0
M  V30 11081 C 1041.51 -2.1153 -0.882472 0
M  V30 11082 C 1042.53 -1.05446 -1.24036 0
M  V30 11083 O 1043.72 -1.32867 -1.192 0
M  V30 11084 C 1040.82 -2.58717 -2.18903 0
M  V30 11085 C 1039.99 -3.8873 -2.00519 0
M  V30 11086 C 1039.05 -4.21675 -3.14764 0
M  V30 11087 O 1038.07 -4.90755 -2.88355 0
M  V30 11088 N 1039.28 -3.77757 -4.40772 0
M  V30 11089 H 1042.04 -2.96758 -0.418901 0
M  V30 11090 H 1039.6 -1.61696 -0.0812921 0
M  V30 11091 H 1041.59 -2.77797 -2.94297 0
M  V30 11092 H 1040.16 -1.78454 -2.56657 0
M  V30 11093 H 1039.38 -3.78714 -1.09406 0
M  V30 11094 H 1040.67 -4.73771 -1.85522 0
M  V30 11095 H 1040.07 -3.22011 -4.65108 0
M  V30 11096 H 1038.63 -4.01975 -5.13088 0
M  V30 11097 N 1042.06 0.170153 -1.56679 0
M  V30 11098 C 1043.31 0.884902 -1.81252 0
M  V30 11099 C 1043.62 1.83361 -0.681024 0
M  V30 11100 O 1044.83 2.59082 -0.811722 0
M  V30 11101 C 1043.28 1.62408 -3.21172 0
M  V30 11102 C 1042.89 0.718947 -4.42194 0
M  V30 11103 C 1044.64 2.32699 -3.55037 0
M  V30 11104 C 1042.54 1.45843 -5.73135 0
M  V30 11105 H 1041.47 0.33418 -0.675899 0
M  V30 11106 H 1044.12 0.137818 -1.82982 0
M  V30 11107 H 1042.51 2.41596 -3.13763 0
M  V30 11108 H 1043.68 -0.0360521 -4.60786 0
M  V30 11109 H 1042 0.125634 -4.1621 0
M  V30 11110 H 1044.59 2.88621 -4.50114 0
M  V30 11111 H 1044.94 3.08092 -2.79974 0
M  V30 11112 H 1045.47 1.60453 -3.64005 0
M  V30 11113 H 1042.21 0.746799 -6.51232 0
M  V30 11114 H 1041.73 2.18672 -5.58518 0
M  V30 11115 H 1043.41 2.0056 -6.1513 0
M  V30 11116 N 1043.54 1.5137 0.438746 0
M  V30 11117 C 1044.47 1.68774 1.55074 0
M  V30 11118 C 1045.48 0.568436 1.52554 0
M  V30 11119 O 1046.67 0.842707 1.57355 0
M  V30 11120 C 1043.77 1.68592 2.9399 0
M  V30 11121 C 1042.95 2.97084 3.2103 0
M  V30 11122 C 1042 2.89108 4.39663 0
M  V30 11123 O 1041.03 3.63052 4.38385 0
M  V30 11124 N 1042.23 2.04863 5.4315 0
M  V30 11125 H 1045 2.647 1.40549 0
M  V30 11126 H 1042.56 1.49238 0.627663 0
M  V30 11127 H 1044.55 1.60826 3.71372 0
M  V30 11128 H 1043.12 0.802657 3.02119 0
M  V30 11129 H 1042.34 3.18729 2.3196 0
M  V30 11130 H 1043.63 3.82143 3.35923 0
M  V30 11131 H 1043.03 1.4416 5.47023 0
M  V30 11132 H 1041.58 2.02977 6.1939 0
M  V30 11133 N 1045.02 -0.694098 1.41492 0
M  V30 11134 C 1045.95 -1.81943 1.39389 0
M  V30 11135 C 1046.96 -1.6009 0.295836 0
M  V30 11136 O 1048.15 -1.69565 0.557658 0
M  V30 11137 C 1045.25 -3.18731 1.15167 0
M  V30 11138 C 1044.42 -3.67601 2.37041 0
M  V30 11139 C 1043.48 -4.83063 2.08654 0
M  V30 11140 O 1042.51 -4.94603 2.81704 0
M  V30 11141 N 1043.71 -5.70409 1.0777 0
M  V30 11142 H 1046.48 -1.84239 2.36381 0
M  V30 11143 H 1044.04 -0.876475 1.36123 0
M  V30 11144 H 1046.03 -3.93602 0.941264 0
M  V30 11145 H 1044.6 -3.11452 0.267673 0
M  V30 11146 H 1043.82 -2.83622 2.73774 0
M  V30 11147 H 1045.11 -3.96991 3.18239 0
M  V30 11148 H 1044.5 -5.63718 0.473123 0
M  V30 11149 H 1043.06 -6.45172 0.927177 0
M  V30 11150 N 1046.49 -1.27344 -0.928501 0
M  V30 11151 C 1047.72 -1.16278 -1.70772 0
M  V30 11152 C 1048.13 0.283131 -1.8707 0
M  V30 11153 O 1047.48 1.20466 -1.38685 0
M  V30 11154 C 1047.54 -1.77313 -3.1273 0
M  V30 11155 C 1047.2 -3.26488 -3.19773 0
M  V30 11156 C 1048.2 -4.23133 -3.02083 0
M  V30 11157 C 1045.88 -3.67182 -3.42757 0
M  V30 11158 C 1047.88 -5.5845 -3.07267 0
M  V30 11159 C 1045.56 -5.02629 -3.47574 0
M  V30 11160 C 1046.56 -5.98072 -3.29847 0
M  V30 11161 O 1046.25 -7.3105 -3.34397 0
M  V30 11162 H 1045.98 -0.405215 -0.541089 0
M  V30 11163 H 1048.54 -1.68707 -1.17163 0
M  V30 11164 H 1046.77 -1.19361 -3.67818 0
M  V30 11165 H 1048.46 -1.60972 -3.72616 0
M  V30 11166 H 1049.22 -3.93031 -2.84168 0
M  V30 11167 H 1045.1 -2.93369 -3.55606 0
M  V30 11168 H 1048.64 -6.32924 -2.93348 0
M  V30 11169 H 1044.54 -5.32387 -3.65013 0
M  V30 11170 H 1045.31 -7.39488 -3.50857 0
M  V30 11171 N 1047.97 1.13488 -1.09353 0
M  V30 11172 C 1048.91 2.17951 -0.67622 0
M  V30 11173 C 1049.88 1.59482 0.316906 0
M  V30 11174 O 1051.07 1.8723 0.218459 0
M  V30 11175 C 1048.19 3.387 0.00391024 0
M  V30 11176 C 1047.24 4.15764 -0.950906 0
M  V30 11177 S 1048.07 4.75517 -2.46259 0
M  V30 11178 C 1049.23 5.99613 -1.79485 0
M  V30 11179 H 1049.46 2.53012 -1.56115 0
M  V30 11180 H 1047 1.24773 -0.909447 0
M  V30 11181 H 1048.95 4.08643 0.39002 0
M  V30 11182 H 1047.61 3.01941 0.86548 0
M  V30 11183 H 1046.81 5.02229 -0.422086 0
M  V30 11184 H 1046.41 3.51473 -1.27838 0
M  V30 11185 H 1048.7 6.68204 -1.11846 0
M  V30 11186 H 1049.64 6.57102 -2.63862 0
M  V30 11187 H 1050.05 5.50165 -1.26409 0
M  V30 11188 N 1049.45 0.880621 1.30701 0
M  V30 11189 C 1050.4 0.342397 2.28246 0
M  V30 11190 C 1051.37 -0.565023 1.56194 0
M  V30 11191 O 1052.55 -0.494377 1.84284 0
M  V30 11192 C 1049.69 -0.440859 3.42272 0
M  V30 11193 C 1048.81 0.495284 4.29151 0
M  V30 11194 C 1047.94 -0.303141 5.30334 0
M  V30 11195 C 1046.98 0.628751 6.08862 0
M  V30 11196 N 1046.12 -0.13408 7.01972 0
M  V30 11197 H 1050.96 1.17938 2.73669 0
M  V30 11198 H 1048.49 0.59296 1.34619 0
M  V30 11199 H 1050.45 -0.910854 4.07135 0
M  V30 11200 H 1049.08 -1.24245 2.97931 0
M  V30 11201 H 1048.13 1.08376 3.64635 0
M  V30 11202 H 1049.45 1.2094 4.83916 0
M  V30 11203 H 1048.6 -0.835181 6.00924 0
M  V30 11204 H 1047.34 -1.05049 4.76252 0
M  V30 11205 H 1046.34 1.17246 5.37153 0
M  V30 11206 H 1047.57 1.37512 6.65032 0
M  V30 11207 H 1045.52 -0.864046 6.50285 0
M  V30 11208 H 1045.43 0.520486 7.54206 0
M  V30 11209 H 1046.7 -0.647005 7.7681 0
M  V30 11210 N 1050.93 -1.4397 0.641131 0
M  V30 11211 C 1052.18 -2.01163 0.147026 0
M  V30 11212 C 1052.49 -1.51099 -1.24211 0
M  V30 11213 O 1053.7 -2.00487 -1.83078 0
M  V30 11214 C 1052.15 -3.59275 0.212068 0
M  V30 11215 C 1051.76 -4.18334 1.60314 0
M  V30 11216 C 1053.51 -4.23903 -0.225057 0
M  V30 11217 C 1051.41 -5.68701 1.62276 0
M  V30 11218 H 1050.34 -0.75226 0.051201 0
M  V30 11219 H 1052.99 -1.65075 0.801396 0
M  V30 11220 H 1051.38 -3.92708 -0.509589 0
M  V30 11221 H 1052.55 -3.96422 2.34918 0
M  V30 11222 H 1050.86 -3.66031 1.9852 0
M  V30 11223 H 1053.46 -5.34205 -0.230074 0
M  V30 11224 H 1053.8 -3.96956 -1.25426 0
M  V30 11225 H 1054.34 -3.95309 0.44444 0
M  V30 11226 H 1051.08 -6.00397 2.63066 0
M  V30 11227 H 1050.6 -5.92705 0.919797 0
M  V30 11228 H 1052.28 -6.32521 1.36112 0
M  V30 11229 N 1052.41 -0.382291 -1.52893 0
M  V30 11230 C 1053.66 0.203342 -2.00672 0
M  V30 11231 C 1053.97 1.48487 -1.27322 0
M  V30 11232 O 1055.18 2.15013 -1.65776 0
M  V30 11233 C 1053.63 0.412922 -3.57523 0
M  V30 11234 C 1053.24 -0.854949 -4.39767 0
M  V30 11235 C 1054.98 0.955301 -4.13611 0
M  V30 11236 C 1052.89 -0.614033 -5.88204 0
M  V30 11237 H 1051.82 0.0797635 -0.749769 0
M  V30 11238 H 1054.47 -0.50361 -1.76454 0
M  V30 11239 H 1052.85 1.18155 -3.77962 0
M  V30 11240 H 1054.03 -1.62765 -4.31096 0
M  V30 11241 H 1052.34 -1.32176 -3.94865 0
M  V30 11242 H 1054.94 1.15114 -5.22162 0
M  V30 11243 H 1055.28 1.92233 -3.69259 0
M  V30 11244 H 1055.82 0.24642 -3.97036 0
M  V30 11245 H 1052.55 -1.55187 -6.36865 0
M  V30 11246 H 1052.07 0.119865 -5.9968 0
M  V30 11247 H 1053.75 -0.245895 -6.46533 0
M  V30 11248 N 1053.89 1.57202 -0.111913 0
M  V30 11249 C 1055.11 1.99723 0.559054 0
M  V30 11250 C 1055.54 0.990968 1.59879 0
M  V30 11251 O 1054.89 -0.038311 1.8126 0
M  V30 11252 C 1054.94 3.41151 1.16826 0
M  V30 11253 O 1054.05 3.43383 2.2839 0
M  V30 11254 H 1053.39 0.649004 0.140319 0
M  V30 11255 H 1055.92 2.03637 -0.198295 0
M  V30 11256 H 1055.93 3.79208 1.50551 0
M  V30 11257 H 1054.6 4.13907 0.406637 0
M  V30 11258 H 1053.18 3.17138 1.96158 0
M  V30 11259 N 1055.36 -0.161842 1.56767 0
M  V30 11260 C 1056.59 -0.896274 1.87034 0
M  V30 11261 C 1057.01 -1.74617 0.699314 0
M  V30 11262 O 1056.37 -1.77861 -0.351435 0
M  V30 11263 C 1056.42 -1.74105 3.15784 0
M  V30 11264 O 1055.52 -2.84372 2.98674 0
M  V30 11265 H 1054.86 -0.250523 0.614926 0
M  V30 11266 H 1057.39 -0.157127 2.03996 0
M  V30 11267 H 1057.4 -2.13907 3.4743 0
M  V30 11268 H 1056.08 -1.11684 4.00624 0
M  V30 11269 H 1054.66 -2.48084 2.78404 0
M  V30 11270 N 1056.84 -1.516 -0.430713 0
M  V30 11271 C 1058.09 -1.64596 -1.17959 0
M  V30 11272 C 1058.42 -0.365382 -1.91037 0
M  V30 11273 O 1057.67 0.650826 -1.84561 0
M  V30 11274 C 1057.97 -2.804 -2.21609 0
M  V30 11275 C 1057.64 -4.19431 -1.65495 0
M  V30 11276 C 1056.3 -4.57252 -1.49915 0
M  V30 11277 C 1058.65 -5.0616 -1.24304 0
M  V30 11278 C 1055.98 -5.79501 -0.916276 0
M  V30 11279 C 1058.33 -6.28995 -0.674437 0
M  V30 11280 C 1056.99 -6.65582 -0.505591 0
M  V30 11281 H 1056.26 -0.602301 -0.431642 0
M  V30 11282 H 1058.91 -1.8565 -0.469726 0
M  V30 11283 H 1057.22 -2.53595 -2.98658 0
M  V30 11284 H 1058.91 -2.87654 -2.79385 0
M  V30 11285 H 1055.5 -3.89615 -1.78599 0
M  V30 11286 H 1059.69 -4.77541 -1.35159 0
M  V30 11287 H 1054.94 -6.0649 -0.77328 0
M  V30 11288 H 1059.12 -6.95536 -0.346779 0
M  V30 11289 H 1056.74 -7.60182 -0.0518188 0
M  V30 11290 N 1058.32 0.686584 -1.41858 0
M  V30 11291 C 1059.27 1.80038 -1.44413 0
M  V30 11292 C 1060.24 1.63415 -0.297427 0
M  V30 11293 O 1061.42 1.84138 -0.499789 0
M  V30 11294 C 1058.56 3.17988 -1.34082 0
M  V30 11295 C 1057.67 3.45979 -2.58693 0
M  V30 11296 C 1056.81 4.73592 -2.4059 0
M  V30 11297 C 1055.85 4.94581 -3.60633 0
M  V30 11298 N 1054.99 6.13426 -3.41545 0
M  V30 11299 H 1059.83 1.77189 -2.396 0
M  V30 11300 H 1057.36 0.865158 -1.18968 0
M  V30 11301 H 1059.32 3.97689 -1.26092 0
M  V30 11302 H 1057.95 3.1999 -0.424975 0
M  V30 11303 H 1057 2.60617 -2.77097 0
M  V30 11304 H 1058.31 3.57386 -3.47961 0
M  V30 11305 H 1057.47 5.61364 -2.30119 0
M  V30 11306 H 1056.21 4.64448 -1.48794 0
M  V30 11307 H 1055.21 4.05254 -3.71549 0
M  V30 11308 H 1056.44 5.05578 -4.53395 0
M  V30 11309 H 1054.38 6.05477 -2.52456 0
M  V30 11310 H 1054.3 6.25641 -4.24393 0
M  V30 11311 H 1055.57 7.03908 -3.34864 0
M  V30 11312 N 1059.8 1.27835 0.921735 0
M  V30 11313 C 1060.75 1.1092 2.04449 0
M  V30 11314 C 1061.74 0.0306469 1.69372 0
M  V30 11315 O 1062.95 0.188818 1.79007 0
M  V30 11316 H 1059.32 0.341973 0.669745 0
M  V30 11317 H 1061.29 2.06026 2.1586 0
M  V30 11318 C 1060.04 0.779443 3.38851 0
M  V30 11319 H 1059.36 1.60131 3.66331 0
M  V30 11320 H 1060.8 0.700999 4.18165 0
M  V30 11321 C 1059.26 -0.51647 3.32918 0
M  V30 11322 O 1059.79 -1.54914 3.70627 0
M  V30 11323 N 1058 -0.514276 2.86013 0
M  V30 11324 H 1057.55 0.32651 2.55522 0
M  V30 11325 H 1057.5 -1.38141 2.82426 0
M  V30 11326 N 1061.28 -1.12907 1.09954 0
M  V30 11327 C 1062.22 -2.18485 0.743848 0
M  V30 11328 C 1063.19 -1.63766 -0.277494 0
M  V30 11329 O 1064.38 -1.90146 -0.157899 0
M  V30 11330 C 1061.52 -3.44649 0.176437 0
M  V30 11331 C 1060.63 -4.13445 1.25248 0
M  V30 11332 C 1059.77 -5.27242 0.647242 0
M  V30 11333 C 1058.8 -5.87897 1.70421 0
M  V30 11334 N 1057.94 -6.93116 1.1196 0
M  V30 11335 H 1062.78 -2.48257 1.64841 0
M  V30 11336 H 1060.32 -1.21891 0.823471 0
M  V30 11337 H 1062.28 -4.16852 -0.170384 0
M  V30 11338 H 1060.91 -3.15309 -0.69137 0
M  V30 11339 H 1059.96 -3.39471 1.7165 0
M  V30 11340 H 1061.27 -4.54601 2.05279 0
M  V30 11341 H 1060.42 -6.06186 0.249579 0
M  V30 11342 H 1059.16 -4.87351 -0.184556 0
M  V30 11343 H 1058.17 -5.07643 2.11136 0
M  V30 11344 H 1059.39 -6.2986 2.53877 0
M  V30 11345 H 1057.34 -6.55271 0.309181 0
M  V30 11346 H 1057.26 -7.32843 1.85681 0
M  V30 11347 H 1058.52 -7.759 0.748326 0
M  V30 11348 N 1062.75 -0.88754 -1.30232 0
M  V30 11349 C 1063.66 -0.360333 -2.31816 0
M  V30 11350 C 1064.68 0.538741 -1.6545 0
M  V30 11351 O 1065.86 0.431246 -1.96729 0
M  V30 11352 C 1062.92 0.414336 -3.44215 0
M  V30 11353 C 1061.98 -0.514799 -4.26202 0
M  V30 11354 C 1061.21 0.222994 -5.33234 0
M  V30 11355 O 1061.44 1.44871 -5.51696 0
M  V30 11356 O 1060.37 -0.428221 -6.00375 0
M  V30 11357 H 1064.2 -1.20279 -2.78867 0
M  V30 11358 H 1061.78 -0.651459 -1.34448 0
M  V30 11359 H 1063.66 0.852859 -4.12679 0
M  V30 11360 H 1062.34 1.23305 -2.99295 0
M  V30 11361 H 1061.25 -1.00219 -3.60426 0
M  V30 11362 H 1062.58 -1.29959 -4.74733 0
M  V30 11363 N 1064.23 1.43628 -0.648757 0
M  V30 11364 C 1065.51 1.95391 -0.0904551 0
M  V30 11365 C 1065.89 1.59021 1.38837 0
M  V30 11366 O 1065.24 0.873078 2.11163 0
M  V30 11367 C 1065.45 3.47418 -0.33196 0
M  V30 11368 C 1066.8 4.23952 -0.234521 0
M  V30 11369 O 1067.82 3.55218 -0.264276 0
M  V30 11370 O 1066.68 5.46282 -0.154428 0
M  V30 11371 H 1063.77 0.82691 0.0121884 0
M  V30 11372 H 1066.32 1.5359 -0.721685 0
M  V30 11373 H 1065.09 3.67001 -1.35741 0
M  V30 11374 H 1064.71 3.96207 0.332556 0
M  V30 11375 N 1065.71 0.390394 1.52688 0
M  V30 11376 C 1066.64 -0.479319 2.24132 0
M  V30 11377 C 1067.66 -1.0258 1.26416 0
M  V30 11378 O 1068.84 -0.927943 1.52484 0
M  V30 11379 C 1065.94 -1.67711 2.94493 0
M  V30 11380 C 1065.12 -1.2578 4.18925 0
M  V30 11381 C 1064.18 -2.3204 4.72275 0
M  V30 11382 O 1063.2 -1.93402 5.35336 0
M  V30 11383 N 1064.4 -3.63967 4.52226 0
M  V30 11384 H 1067.17 0.132777 2.99406 0
M  V30 11385 H 1064.73 0.216807 1.60442 0
M  V30 11386 H 1066.72 -2.38323 3.27084 0
M  V30 11387 H 1065.29 -2.19552 2.22521 0
M  V30 11388 H 1064.51 -0.380528 3.92359 0
M  V30 11389 H 1065.8 -0.954329 4.9977 0
M  V30 11390 H 1065.2 -3.98119 4.01892 0
M  V30 11391 H 1063.76 -4.30611 4.89303 0
M  V30 11392 N 1067.19 -1.57141 0.120249 0
M  V30 11393 C 1068.42 -1.993 -0.544346 0
M  V30 11394 C 1068.83 -0.998858 -1.60684 0
M  V30 11395 O 1068.17 0.0162197 -1.83693 0
M  V30 11396 C 1068.23 -3.37874 -1.22808 0
M  V30 11397 C 1067.9 -4.55924 -0.313374 0
M  V30 11398 C 1068.89 -5.17962 0.448501 0
M  V30 11399 C 1066.58 -5.018 -0.224082 0
M  V30 11400 C 1068.57 -6.24264 1.28739 0
M  V30 11401 C 1066.26 -6.07963 0.618437 0
M  V30 11402 C 1067.26 -6.69061 1.3728 0
M  V30 11403 O 1066.94 -7.73173 2.20133 0
M  V30 11404 H 1066.68 -0.659466 -0.148596 0
M  V30 11405 H 1069.23 -2.04387 0.203779 0
M  V30 11406 H 1067.46 -3.29545 -2.02329 0
M  V30 11407 H 1069.15 -3.64314 -1.7897 0
M  V30 11408 H 1069.92 -4.83434 0.389395 0
M  V30 11409 H 1065.79 -4.53989 -0.80094 0
M  V30 11410 H 1069.34 -6.71883 1.87667 0
M  V30 11411 H 1065.24 -6.4192 0.678932 0
M  V30 11412 H 1066 -7.90276 2.13088 0
M  V30 11413 N 1068.67 0.153526 -1.5685 0
M  V30 11414 C 1069.94 0.895545 -1.73895 0
M  V30 11415 C 1070.32 1.99625 -0.686504 0
M  V30 11416 O 1069.67 2.26579 0.2957 0
M  V30 11417 C 1069.88 1.44399 -3.17726 0
M  V30 11418 C 1071.23 1.90996 -3.79217 0
M  V30 11419 O 1072.25 1.54155 -3.21115 0
M  V30 11420 O 1071.11 2.58917 -4.81274 0
M  V30 11421 H 1068.21 0.422755 -0.710779 0
M  V30 11422 H 1070.75 0.139961 -1.69122 0
M  V30 11423 H 1069.52 0.652635 -3.85819 0
M  V30 11424 H 1069.15 2.26326 -3.26898 0
M  V30 11425 N 1070.14 1.51827 0.422667 0
M  V30 11426 C 1071.09 1.7058 1.51282 0
M  V30 11427 C 1072.08 0.5597 1.50851 0
M  V30 11428 O 1073.27 0.816223 1.57057 0
M  V30 11429 C 1070.4 1.84759 2.89342 0
M  V30 11430 C 1069.49 3.05199 2.94473 0
M  V30 11431 N 1069.88 4.28135 2.69322 0
M  V30 11432 C 1068.17 3.04755 3.25638 0
M  V30 11433 C 1068.88 5.09507 2.80674 0
M  V30 11434 N 1067.85 4.44464 3.12974 0
M  V30 11435 H 1071.65 2.63283 1.30611 0
M  V30 11436 H 1069.17 1.49674 0.630191 0
M  V30 11437 H 1071.16 1.96308 3.67789 0
M  V30 11438 H 1069.82 0.932478 3.11022 0
M  V30 11439 H 1070.84 4.56835 2.43972 0
M  V30 11440 H 1067.51 2.2293 3.52999 0
M  V30 11441 H 1068.9 6.17409 2.65058 0
M  V30 11442 N 1071.62 -0.679052 1.4222 0
M  V30 11443 C 1072.55 -1.80481 1.48152 0
M  V30 11444 C 1073.53 -1.66698 0.338502 0
M  V30 11445 O 1074.72 -1.86183 0.552228 0
M  V30 11446 C 1071.85 -3.18746 1.37908 0
M  V30 11447 C 1070.8 -3.47258 2.50192 0
M  V30 11448 C 1070.13 -4.85052 2.25008 0
M  V30 11449 C 1071.43 -3.44576 3.92511 0
M  V30 11450 H 1073.12 -1.75774 2.42371 0
M  V30 11451 H 1070.67 -0.844241 1.16656 0
M  V30 11452 H 1072.62 -3.97229 1.40666 0
M  V30 11453 H 1071.35 -3.24119 0.401806 0
M  V30 11454 H 1070 -2.71133 2.46744 0
M  V30 11455 H 1069.65 -4.8707 1.25584 0
M  V30 11456 H 1069.35 -5.05092 3.00259 0
M  V30 11457 H 1070.88 -5.65825 2.29508 0
M  V30 11458 H 1072.29 -4.13036 3.97585 0
M  V30 11459 H 1070.69 -3.76151 4.67579 0
M  V30 11460 H 1071.76 -2.4323 4.19484 0
M  V30 11461 N 1073.1 -1.28322 -0.914942 0
M  V30 11462 C 1074.38 -1.06111 -1.64316 0
M  V30 11463 C 1074.76 0.399934 -2.07277 0
M  V30 11464 O 1074.11 1.38577 -1.81683 0
M  V30 11465 C 1074.32 -2.03461 -2.83557 0
M  V30 11466 C 1075.66 -2.33541 -3.54604 0
M  V30 11467 O 1076.69 -2.01536 -2.93704 0
M  V30 11468 O 1075.55 -2.88158 -4.64357 0
M  V30 11469 H 1072.64 -0.405451 -0.72079 0
M  V30 11470 H 1075.19 -1.39636 -0.964352 0
M  V30 11471 H 1073.96 -3.01938 -2.48896 0
M  V30 11472 H 1073.58 -1.70574 -3.59152 0
M  V30 11473 N 1074.58 1.12322 -1.10551 0
M  V30 11474 C 1075.54 2.16273 -0.758844 0
M  V30 11475 C 1076.54 1.59325 0.217294 0
M  V30 11476 O 1077.73 1.74199 -0.00601346 0
M  V30 11477 C 1074.86 3.40674 -0.124238 0
M  V30 11478 H 1076.06 2.48454 -1.6796 0
M  V30 11479 H 1073.61 1.2735 -0.906188 0
M  V30 11480 H 1074.34 3.14094 0.807194 0
M  V30 11481 H 1074.13 3.83284 -0.826772 0
M  V30 11482 H 1075.62 4.17474 0.102502 0
M  V30 11483 N 1076.06 0.894434 1.2976 0
M  V30 11484 C 1077.02 0.373094 2.26143 0
M  V30 11485 C 1078.02 -0.489756 1.5316 0
M  V30 11486 O 1079.21 -0.29556 1.71674 0
M  V30 11487 C 1076.34 -0.467234 3.37683 0
M  V30 11488 H 1077.53 1.22427 2.73773 0
M  V30 11489 H 1075.09 0.672112 1.41111 0
M  V30 11490 H 1075.82 -1.33861 2.95384 0
M  V30 11491 H 1075.61 0.150954 3.91809 0
M  V30 11492 H 1077.1 -0.823469 4.094 0
M  V30 11493 N 1077.53 -1.43282 0.656365 0
M  V30 11494 C 1078.81 -1.9534 0.100816 0
M  V30 11495 C 1079.19 -1.59755 -1.37992 0
M  V30 11496 O 1078.54 -0.884264 -2.10697 0
M  V30 11497 C 1078.75 -3.47237 0.35038 0
M  V30 11498 C 1080.1 -4.23822 0.257001 0
M  V30 11499 O 1081.12 -3.55073 0.283111 0
M  V30 11500 O 1079.98 -5.46192 0.183397 0
M  V30 11501 H 1077.07 -0.826963 -0.00780287 0
M  V30 11502 H 1079.62 -1.53205 0.72982 0
M  V30 11503 H 1078.39 -3.66276 1.37685 0
M  V30 11504 H 1078.02 -3.96378 -0.311539 0
M  V30 11505 N 1079.01 -0.398486 -1.52479 0
M  V30 11506 C 1079.95 0.476551 -2.23169 0
M  V30 11507 C 1080.92 1.05665 -1.23587 0
M  V30 11508 O 1082.11 1.10654 -1.52604 0
M  V30 11509 C 1079.24 1.66048 -2.95204 0
M  V30 11510 C 1078.28 1.20478 -4.0913 0
M  V30 11511 S 1079.11 0.178711 -5.35202 0
M  V30 11512 C 1080.27 1.36821 -6.10762 0
M  V30 11513 H 1080.5 -0.123704 -2.97043 0
M  V30 11514 H 1078.04 -0.182722 -1.53315 0
M  V30 11515 H 1079.99 2.33942 -3.37315 0
M  V30 11516 H 1078.66 2.23206 -2.20993 0
M  V30 11517 H 1077.85 2.08901 -4.58668 0
M  V30 11518 H 1077.45 0.604632 -3.6908 0
M  V30 11519 H 1079.74 2.2937 -6.37492 0
M  V30 11520 H 1080.69 0.913579 -7.02182 0
M  V30 11521 H 1081.09 1.58919 -5.41669 0
M  V30 11522 N 1080.49 1.57075 -0.12858 0
M  V30 11523 C 1081.72 1.99876 0.534544 0
M  V30 11524 C 1082.13 1.00843 1.59612 0
M  V30 11525 O 1081.49 0.00268947 1.825 0
M  V30 11526 C 1081.54 3.42654 1.15198 0
M  V30 11527 O 1081.26 4.37899 0.132823 0
M  V30 11528 C 1082.76 4.00637 1.8975 0
M  V30 11529 H 1079.98 0.656073 0.140744 0
M  V30 11530 H 1082.53 2.03337 -0.217742 0
M  V30 11531 H 1080.68 3.40101 1.85499 0
M  V30 11532 H 1081.1 5.21253 0.582682 0
M  V30 11533 H 1082.57 5.02592 2.28266 0
M  V30 11534 H 1083.05 3.40313 2.7764 0
M  V30 11535 H 1083.65 4.06764 1.2419 0
M  V30 11536 N 1081.97 -0.145205 1.5693 0
M  V30 11537 C 1082.92 -1.17923 1.98401 0
M  V30 11538 C 1083.89 -1.42591 0.851885 0
M  V30 11539 O 1085.07 -1.54896 1.11409 0
M  V30 11540 C 1082.21 -2.50727 2.37128 0
M  V30 11541 C 1081.32 -2.33218 3.63639 0
M  V30 11542 C 1080.46 -3.5907 3.91462 0
M  V30 11543 C 1079.5 -3.36605 5.11237 0
M  V30 11544 N 1078.64 -4.54592 5.35061 0
M  V30 11545 H 1083.48 -0.818573 2.86537 0
M  V30 11546 H 1081.01 -0.392739 1.4176 0
M  V30 11547 H 1082.97 -3.28165 2.57611 0
M  V30 11548 H 1081.6 -2.84736 1.52069 0
M  V30 11549 H 1080.65 -1.46826 3.50922 0
M  V30 11550 H 1081.96 -2.12579 4.51234 0
M  V30 11551 H 1081.12 -4.44936 4.12453 0
M  V30 11552 H 1079.86 -3.82715 3.02293 0
M  V30 11553 H 1078.86 -2.49127 4.90118 0
M  V30 11554 H 1080.09 -3.14357 6.01961 0
M  V30 11555 H 1078.03 -4.78406 4.48847 0
M  V30 11556 H 1077.95 -4.36962 6.16928 0
M  V30 11557 H 1079.22 -5.41666 5.60551 0
M  V30 11558 N 1083.45 -1.52049 -0.414609 0
M  V30 11559 C 1084.69 -1.66084 -1.16379 0
M  V30 11560 C 1085.03 -0.386932 -1.90306 0
M  V30 11561 O 1084.3 0.614441 -1.8454 0
M  V30 11562 C 1084.58 -2.87927 -2.16264 0
M  V30 11563 C 1084.44 -4.25353 -1.46269 0
M  V30 11564 C 1085.76 -3.05289 -3.16996 0
M  V30 11565 H 1082.88 -0.604414 -0.421726 0
M  V30 11566 H 1085.52 -1.8459 -0.450177 0
M  V30 11567 H 1083.67 -2.7228 -2.77121 0
M  V30 11568 H 1085.34 -4.52717 -0.885743 0
M  V30 11569 H 1083.58 -4.27006 -0.76472 0
M  V30 11570 H 1084.25 -5.06644 -2.19126 0
M  V30 11571 H 1086.73 -3.19798 -2.66212 0
M  V30 11572 H 1085.61 -3.92065 -3.84156 0
M  V30 11573 H 1085.87 -2.1836 -3.84411 0
M  V30 11574 N 1084.93 0.6715 -1.42579 0
M  V30 11575 C 1085.84 1.81435 -1.48723 0
M  V30 11576 C 1086.85 1.69895 -0.375716 0
M  V30 11577 O 1088.03 1.91388 -0.627115 0
M  V30 11578 C 1085.09 3.17599 -1.39038 0
M  V30 11579 C 1084.15 3.41071 -2.60709 0
M  V30 11580 C 1083.39 4.7074 -2.51476 0
M  V30 11581 O 1083.61 5.48868 -1.55243 0
M  V30 11582 O 1082.54 4.95528 -3.41666 0
M  V30 11583 H 1086.37 1.79206 -2.45191 0
M  V30 11584 H 1083.95 0.827666 -1.24379 0
M  V30 11585 H 1085.84 3.98847 -1.3601 0
M  V30 11586 H 1084.51 3.20458 -0.456966 0
M  V30 11587 H 1083.42 2.59659 -2.69311 0
M  V30 11588 H 1084.75 3.43045 -3.5296 0
M  V30 11589 N 1086.4 1.28806 0.908124 0
M  V30 11590 C 1087.35 1.13215 2.01125 0
M  V30 11591 C 1088.32 0.0277357 1.66077 0
M  V30 11592 O 1089.51 0.193707 1.89814 0
M  V30 11593 C 1086.65 0.805887 3.35558 0
M  V30 11594 C 1085.76 1.9899 3.83441 0
M  V30 11595 C 1084.89 1.60376 5.06412 0
M  V30 11596 C 1083.93 2.75409 5.46641 0
M  V30 11597 N 1083.07 2.37249 6.60801 0
M  V30 11598 H 1087.91 2.07598 2.13792 0
M  V30 11599 H 1085.45 1.03316 1.0471 0
M  V30 11600 H 1087.4 0.597451 4.129 0
M  V30 11601 H 1086.03 -0.101023 3.22642 0
M  V30 11602 H 1085.09 2.31029 3.02208 0
M  V30 11603 H 1086.4 2.85214 4.09212 0
M  V30 11604 H 1085.55 1.35772 5.91313 0
M  V30 11605 H 1084.29 0.712888 4.82462 0
M  V30 11606 H 1083.3 3.00705 4.60279 0
M  V30 11607 H 1084.52 3.65148 5.72577 0
M  V30 11608 H 1082.47 1.50638 6.3847 0
M  V30 11609 H 1082.38 3.17008 6.86325 0
M  V30 11610 H 1083.65 2.15943 7.48992 0
M  V30 11611 N 1087.88 -1.11734 1.11145 0
M  V30 11612 C 1089.11 -1.87755 0.881062 0
M  V30 11613 C 1089.53 -1.79461 -0.563496 0
M  V30 11614 O 1088.89 -1.15481 -1.39763 0
M  V30 11615 C 1088.94 -3.34641 1.34342 0
M  V30 11616 O 1088.04 -4.09195 0.513157 0
M  V30 11617 H 1087.38 -0.583111 0.317613 0
M  V30 11618 H 1089.91 -1.41256 1.48013 0
M  V30 11619 H 1089.92 -3.85486 1.33658 0
M  V30 11620 H 1088.6 -3.39994 2.39534 0
M  V30 11621 H 1087.17 -3.68269 0.585833 0
M  V30 11622 N 1089.36 -0.901303 -1.29284 0
M  V30 11623 C 1090.59 -0.543511 -1.99634 0
M  V30 11624 C 1091 0.872154 -1.67448 0
M  V30 11625 O 1090.36 1.57591 -0.920406 0
M  V30 11626 C 1090.41 -0.728148 -3.54091 0
M  V30 11627 O 1090.13 -2.08809 -3.85137 0
M  V30 11628 C 1091.63 -0.375519 -4.41707 0
M  V30 11629 H 1088.85 -0.208405 -0.637815 0
M  V30 11630 H 1091.4 -1.21109 -1.64781 0
M  V30 11631 H 1089.55 -0.107728 -3.8725 0
M  V30 11632 H 1089.97 -2.11863 -4.79807 0
M  V30 11633 H 1091.44 -0.555538 -5.49197 0
M  V30 11634 H 1091.92 0.687532 -4.33785 0
M  V30 11635 H 1092.52 -0.972949 -4.14021 0
M  V30 11636 N 1090.84 1.42931 -0.663954 0
M  V30 11637 C 1091.79 2.32577 0.03287 0
M  V30 11638 C 1092.78 1.49217 0.801918 0
M  V30 11639 O 1093.99 1.65358 0.711106 0
M  V30 11640 H 1090.36 0.751424 0.0294198 0
M  V30 11641 H 1092.33 2.89059 -0.740763 0
M  V30 11642 C 1091.08 3.33661 0.978025 0
M  V30 11643 H 1090.4 3.97837 0.395681 0
M  V30 11644 H 1091.84 3.98997 1.43448 0
M  V30 11645 C 1090.3 2.65085 2.07922 0
M  V30 11646 O 1090.83 2.4745 3.16435 0
M  V30 11647 N 1089.04 2.24285 1.84783 0
M  V30 11648 H 1088.59 2.38827 0.965368 0
M  V30 11649 H 1088.54 1.78732 2.58655 0
M  V30 11650 N 1092.32 0.406567 1.52266 0
M  V30 11651 C 1093.23 -0.4271 2.30679 0
M  V30 11652 C 1094.24 -1.0559 1.383 0
M  V30 11653 O 1095.42 -1.05797 1.71374 0
M  V30 11654 C 1092.48 -1.53008 3.1111 0
M  V30 11655 C 1091.54 -0.924604 4.19225 0
M  V30 11656 C 1090.78 -1.97502 4.95811 0
M  V30 11657 O 1091 -3.19277 4.72671 0
M  V30 11658 O 1089.93 -1.58268 5.80719 0
M  V30 11659 H 1093.76 0.212187 3.02958 0
M  V30 11660 H 1091.34 0.169835 1.48432 0
M  V30 11661 H 1093.23 -2.17046 3.61205 0
M  V30 11662 H 1091.9 -2.15401 2.41628 0
M  V30 11663 H 1090.81 -0.247009 3.73284 0
M  V30 11664 H 1092.14 -0.34463 4.90992 0
M  V30 11665 N 1093.79 -1.57004 0.136909 0
M  V30 11666 C 1094.76 -2.15066 -0.792419 0
M  V30 11667 C 1095.76 -1.08991 -1.18226 0
M  V30 11668 O 1096.95 -1.34681 -1.10484 0
M  V30 11669 C 1094.08 -2.70554 -2.07397 0
M  V30 11670 H 1095.27 -2.98519 -0.28752 0
M  V30 11671 H 1092.83 -1.55895 -0.112469 0
M  V30 11672 H 1093.56 -1.90739 -2.62277 0
M  V30 11673 H 1093.35 -3.48149 -1.80374 0
M  V30 11674 H 1094.84 -3.15322 -2.73792 0
M  V30 11675 N 1095.27 0.136881 -1.57004 0
M  V30 11676 C 1096.21 1.19853 -1.94192 0
M  V30 11677 C 1097.18 1.4104 -0.809103 0
M  V30 11678 O 1098.37 1.55487 -1.06565 0
M  V30 11679 C 1095.49 2.55565 -2.22271 0
M  V30 11680 C 1094.54 2.50913 -3.44884 0
M  V30 11681 S 1095.37 1.96619 -4.98098 0
M  V30 11682 C 1096.53 3.34039 -5.2931 0
M  V30 11683 H 1096.76 0.881316 -2.83937 0
M  V30 11684 H 1094.3 0.342915 -1.50544 0
M  V30 11685 H 1096.25 3.33659 -2.39127 0
M  V30 11686 H 1094.91 2.84472 -1.33172 0
M  V30 11687 H 1094.11 3.50839 -3.6184 0
M  V30 11688 H 1093.71 1.80932 -3.27322 0
M  V30 11689 H 1096 4.30189 -5.23397 0
M  V30 11690 H 1096.94 3.21927 -6.30689 0
M  V30 11691 H 1097.35 3.31642 -4.56808 0
M  V30 11692 N 1096.75 1.52266 0.40654 0
M  V30 11693 C 1097.66 1.78688 1.52012 0
M  V30 11694 C 1098.68 0.6726 1.60475 0
M  V30 11695 O 1099.85 0.95829 1.77141 0
M  V30 11696 C 1096.92 1.93434 2.87722 0
M  V30 11697 C 1095.98 3.17341 2.89125 0
M  V30 11698 C 1095.21 3.31374 4.18362 0
M  V30 11699 O 1095.43 2.50613 5.12396 0
M  V30 11700 O 1094.37 4.24539 4.26674 0
M  V30 11701 H 1098.19 2.73213 1.3262 0
M  V30 11702 H 1095.78 1.37142 0.592653 0
M  V30 11703 H 1097.66 2.04941 3.68208 0
M  V30 11704 H 1096.34 1.02099 3.07177 0
M  V30 11705 H 1095.24 3.1129 2.07483 0
M  V30 11706 H 1096.58 4.08466 2.7462 0
M  V30 11707 N 1098.23 -0.663929 1.42933 0
M  V30 11708 C 1099.47 -1.42446 1.45192 0
M  V30 11709 C 1099.83 -1.92269 0.0710678 0
M  V30 11710 O 1099.12 -1.68688 -0.908565 0
M  V30 11711 C 1099.32 -2.62976 2.4203 0
M  V30 11712 C 1099.15 -2.24948 3.89395 0
M  V30 11713 C 1097.92 -2.13786 4.57847 0
M  V30 11714 C 1100.11 -1.85907 4.79524 0
M  V30 11715 N 1098.1 -1.68976 5.90187 0
M  V30 11716 C 1099.47 -1.52099 6.01054 0
M  V30 11717 C 1101.52 -1.72995 4.6688 0
M  V30 11718 C 1100.22 -1.06673 7.11346 0
M  V30 11719 C 1102.25 -1.28975 5.77165 0
M  V30 11720 C 1101.61 -0.960968 6.97814 0
M  V30 11721 H 1097.71 -0.517312 0.58644 0
M  V30 11722 H 1100.3 -0.765097 1.79037 0
M  V30 11723 H 1098.47 -3.26586 2.10229 0
M  V30 11724 H 1100.2 -3.29624 2.34798 0
M  V30 11725 H 1096.95 -2.33203 4.12206 0
M  V30 11726 H 1097.38 -1.48964 6.60408 0
M  V30 11727 H 1102.02 -1.97057 3.7407 0
M  V30 11728 H 1099.74 -0.813591 8.03994 0
M  V30 11729 H 1103.32 -1.19489 5.69398 0
M  V30 11730 H 1102.2 -0.625522 7.81701 0
M  V30 11731 N 1099.71 -1.29285 -0.901281 0
M  V30 11732 C 1100.64 -1.08603 -2.007 0
M  V30 11733 C 1101.62 0.00162233 -1.626 0
M  V30 11734 O 1102.8 -0.148764 -1.87912 0
M  V30 11735 C 1099.93 -0.652972 -3.32346 0
M  V30 11736 C 1098.97 -1.73911 -3.89432 0
M  V30 11737 S 1099.81 -3.33797 -4.18736 0
M  V30 11738 C 1100.96 -2.92355 -5.53425 0
M  V30 11739 H 1101.2 -2.02216 -2.17936 0
M  V30 11740 H 1098.73 -1.13414 -1.04769 0
M  V30 11741 H 1100.69 -0.409825 -4.08449 0
M  V30 11742 H 1099.35 0.263527 -3.12993 0
M  V30 11743 H 1098.54 -1.388 -4.84511 0
M  V30 11744 H 1098.14 -1.93569 -3.20011 0
M  V30 11745 H 1100.44 -2.39301 -6.33831 0
M  V30 11746 H 1101.38 -3.86278 -5.9346 0
M  V30 11747 H 1101.79 -2.30697 -5.15208 0
M  V30 11748 N 1101.18 1.11143 -1.11736 0
M  V30 11749 C 1102.13 2.19358 -0.773626 0
M  V30 11750 C 1103.13 1.67744 0.236288 0
M  V30 11751 O 1104.33 1.79748 0.09525 0
M  V30 11752 H 1100.71 0.715218 -0.232309 0
M  V30 11753 H 1102.68 2.45594 -1.69487 0
M  V30 11754 C 1101.43 3.46895 -0.236457 0
M  V30 11755 H 1100.75 3.86967 -1.00483 0
M  V30 11756 H 1102.19 4.23986 -0.034168 0
M  V30 11757 C 1100.65 3.20641 1.03397 0
M  V30 11758 O 1101.18 3.41629 2.11312 0
M  V30 11759 N 1099.39 2.74356 0.957986 0
M  V30 11760 H 1098.93 2.57477 0.0796924 0
M  V30 11761 H 1098.89 2.57166 1.80867 0
M  V30 11762 N 1102.66 0.908147 1.28804 0
M  V30 11763 C 1103.61 0.382315 2.29437 0
M  V30 11764 C 1104.6 -0.523033 1.61123 0
M  V30 11765 O 1105.81 -0.404898 1.75387 0
M  V30 11766 H 1102.19 0.105022 0.74463 0
M  V30 11767 H 1104.16 1.24425 2.71221 0
M  V30 11768 C 1102.91 -0.367475 3.45753 0
M  V30 11769 H 1102.23 0.319957 3.98518 0
M  V30 11770 H 1103.67 -0.700131 4.1818 0
M  V30 11771 C 1102.13 -1.57329 2.97908 0
M  V30 11772 O 1102.66 -2.67248 2.99902 0
M  V30 11773 N 1100.86 -1.41835 2.53636 0
M  V30 11774 H 1100.41 -0.524099 2.52212 0
M  V30 11775 H 1100.37 -2.22645 2.21984 0
M  V30 11776 N 1104.14 -1.42577 0.671525 0
M  V30 11777 C 1105.09 -2.30798 -0.00883676 0
M  V30 11778 C 1106.06 -1.4578 -0.796076 0
M  V30 11779 O 1107.24 -1.74617 -0.768987 0
M  V30 11780 C 1104.38 -3.31581 -0.956452 0
M  V30 11781 C 1103.5 -4.31691 -0.163381 0
M  V30 11782 C 1102.63 -5.19549 -1.10645 0
M  V30 11783 C 1101.67 -6.1134 -0.304876 0
M  V30 11784 N 1100.81 -6.91761 -1.20048 0
M  V30 11785 H 1105.65 -2.88426 0.749301 0
M  V30 11786 H 1103.18 -1.42074 0.381251 0
M  V30 11787 H 1105.14 -3.88539 -1.51966 0
M  V30 11788 H 1103.77 -2.75561 -1.68126 0
M  V30 11789 H 1102.82 -3.76879 0.516396 0
M  V30 11790 H 1104.14 -4.96683 0.459099 0
M  V30 11791 H 1103.29 -5.81223 -1.73969 0
M  V30 11792 H 1102.03 -4.54726 -1.76282 0
M  V30 11793 H 1101.03 -5.48738 0.341597 0
M  V30 11794 H 1102.26 -6.78211 0.347352 0
M  V30 11795 H 1100.2 -6.2957 -1.84331 0
M  V30 11796 H 1100.12 -7.53345 -0.633003 0
M  V30 11797 H 1101.39 -7.57924 -1.82129 0
M  V30 11798 N 1105.62 -0.414636 -1.52048 0
M  V30 11799 C 1106.55 0.399119 -2.30064 0
M  V30 11800 C 1107.53 1.04126 -1.34506 0
M  V30 11801 O 1108.71 1.04923 -1.63416 0
M  V30 11802 C 1105.84 1.51305 -3.12608 0
M  V30 11803 C 1104.8 0.995621 -4.16259 0
M  V30 11804 C 1104.12 2.20357 -4.87183 0
M  V30 11805 C 1105.42 0.0458178 -5.2228 0
M  V30 11806 H 1107.12 -0.251879 -2.98339 0
M  V30 11807 H 1104.66 -0.122579 -1.43477 0
M  V30 11808 H 1106.62 2.08936 -3.65956 0
M  V30 11809 H 1105.34 2.19201 -2.42113 0
M  V30 11810 H 1104 0.441676 -3.6393 0
M  V30 11811 H 1103.65 2.8682 -4.13211 0
M  V30 11812 H 1103.35 1.86385 -5.57256 0
M  V30 11813 H 1104.87 2.78584 -5.43345 0
M  V30 11814 H 1106.29 0.531102 -5.70835 0
M  V30 11815 H 1104.68 -0.20536 -5.99749 0
M  V30 11816 H 1105.75 -0.897807 -4.76516 0
M  V30 11817 N 1107.1 1.56929 -0.145233 0
M  V30 11818 C 1108.04 2.17958 0.812237 0
M  V30 11819 C 1109.04 1.13608 1.25657 0
M  V30 11820 O 1110.24 1.31861 1.22526 0
M  V30 11821 H 1106.62 0.697876 0.28013 0
M  V30 11822 H 1108.59 2.97146 0.273297 0
M  V30 11823 C 1107.34 2.81418 2.04203 0
M  V30 11824 H 1106.66 3.61427 1.70911 0
M  V30 11825 H 1108.1 3.27624 2.69144 0
M  V30 11826 C 1106.56 1.79835 2.84888 0
M  V30 11827 O 1107.09 1.26773 3.81171 0
M  V30 11828 N 1105.3 1.49179 2.49387 0
M  V30 11829 H 1104.84 1.9252 1.71154 0
M  V30 11830 H 1104.8 0.81458 3.03664 0
M  V30 11831 N 1108.58 -0.128553 1.57075 0
M  V30 11832 C 1109.51 -1.15953 2.02675 0
M  V30 11833 C 1110.49 -1.43743 0.909501 0
M  V30 11834 O 1111.67 -1.54348 1.17857 0
M  V30 11835 C 1108.8 -2.48813 2.423 0
M  V30 11836 C 1107.76 -2.35506 3.57381 0
M  V30 11837 C 1107.08 -3.73243 3.82875 0
M  V30 11838 C 1108.38 -1.82359 4.89431 0
M  V30 11839 H 1110.08 -0.780283 2.89054 0
M  V30 11840 H 1107.62 -0.373896 1.39061 0
M  V30 11841 H 1109.57 -3.21179 2.72804 0
M  V30 11842 H 1108.3 -2.88609 1.52881 0
M  V30 11843 H 1106.96 -1.6559 3.27071 0
M  V30 11844 H 1106.61 -4.10507 2.90677 0
M  V30 11845 H 1106.31 -3.65195 4.60333 0
M  V30 11846 H 1107.83 -4.47128 4.15823 0
M  V30 11847 H 1109.24 -2.44533 5.18533 0
M  V30 11848 H 1107.64 -1.85156 5.70822 0
M  V30 11849 H 1108.71 -0.780478 4.78578 0
M  V30 11850 N 1110.05 -1.5248 -0.398459 0
M  V30 11851 C 1110.99 -1.72826 -1.50545 0
M  V30 11852 C 1112 -0.608683 -1.50993 0
M  V30 11853 O 1113.19 -0.88413 -1.55066 0
M  V30 11854 C 1110.29 -1.76327 -2.89417 0
M  V30 11855 C 1109.46 -3.05491 -3.1304 0
M  V30 11856 C 1108.52 -3.00663 -4.31843 0
M  V30 11857 O 1107.55 -3.74548 -4.28605 0
M  V30 11858 N 1108.75 -2.19191 -5.37527 0
M  V30 11859 H 1111.51 -2.68333 -1.33482 0
M  V30 11860 H 1109.07 -1.5085 -0.587875 0
M  V30 11861 H 1111.07 -1.70616 -3.66977 0
M  V30 11862 H 1109.64 -0.882476 -2.99885 0
M  V30 11863 H 1108.86 -3.24767 -2.23428 0
M  V30 11864 H 1110.14 -3.90915 -3.25673 0
M  V30 11865 H 1109.54 -1.58613 -5.43009 0
M  V30 11866 H 1108.1 -2.19328 -6.1379 0
M  V30 11867 N 1111.53 0.65634 -1.43283 0
M  V30 11868 C 1112.48 1.79058 -1.48462 0
M  V30 11869 C 1113.47 1.65563 -0.358512 0
M  V30 11870 O 1114.68 1.71947 -0.532365 0
M  V30 11871 H 1111.05 0.590716 -0.465358 0
M  V30 11872 H 1113.03 1.7181 -2.43975 0
M  V30 11873 C 1111.77 3.17304 -1.42175 0
M  V30 11874 H 1111.1 3.28324 -2.2813 0
M  V30 11875 H 1112.54 3.96633 -1.4986 0
M  V30 11876 C 1111 3.36613 -0.138929 0
M  V30 11877 O 1111.53 3.93633 0.80101 0
M  V30 11878 N 1109.73 2.90557 -0.0501237 0
M  V30 11879 H 1109.28 2.4434 -0.815821 0
M  V30 11880 H 1109.24 3.03853 0.807504 0
M  V30 11881 N 1113.01 1.29761 0.894412 0
M  V30 11882 C 1113.96 1.15341 1.99912 0
M  V30 11883 C 1114.93 0.0453488 1.66038 0
M  V30 11884 O 1116.11 0.213829 1.89598 0
M  V30 11885 C 1113.25 0.841432 3.34685 0
M  V30 11886 C 1112.36 2.03046 3.81309 0
M  V30 11887 C 1111.5 1.65739 5.04682 0
M  V30 11888 C 1110.54 2.81191 5.43689 0
M  V30 11889 N 1109.68 2.44244 6.58247 0
M  V30 11890 H 1114.52 2.09854 2.11578 0
M  V30 11891 H 1112.05 1.04421 1.03608 0
M  V30 11892 H 1114.01 0.641211 4.12243 0
M  V30 11893 H 1112.64 -0.066797 3.22731 0
M  V30 11894 H 1111.69 2.34222 2.9974 0
M  V30 11895 H 1113 2.89538 4.06164 0
M  V30 11896 H 1112.16 1.42036 5.8984 0
M  V30 11897 H 1110.9 0.764019 4.81678 0
M  V30 11898 H 1109.9 3.0557 4.57064 0
M  V30 11899 H 1111.13 3.712 5.68672 0
M  V30 11900 H 1109.07 1.57402 6.36837 0
M  V30 11901 H 1108.99 3.24269 6.82924 0
M  V30 11902 H 1110.26 2.23875 7.46659 0
M  V30 11903 N 1114.49 -1.10549 1.12324 0
M  V30 11904 C 1115.42 -2.16657 0.747826 0
M  V30 11905 C 1116.43 -1.61238 -0.224981 0
M  V30 11906 O 1117.62 -1.78499 -0.00649408 0
M  V30 11907 C 1114.72 -3.38791 0.0859421 0
M  V30 11908 C 1113.89 -4.23655 1.08792 0
M  V30 11909 C 1112.95 -5.24239 0.453871 0
M  V30 11910 O 1111.98 -5.58262 1.11052 0
M  V30 11911 N 1113.18 -5.75246 -0.779215 0
M  V30 11912 H 1115.95 -2.49472 1.66084 0
M  V30 11913 H 1113.51 -1.26157 1.01469 0
M  V30 11914 H 1115.5 -4.03182 -0.350186 0
M  V30 11915 H 1114.07 -3.03961 -0.729807 0
M  V30 11916 H 1113.29 -3.55578 1.70171 0
M  V30 11917 H 1114.58 -4.77187 1.76549 0
M  V30 11918 H 1113.98 -5.49802 -1.3317 0
M  V30 11919 H 1112.53 -6.41428 -1.15818 0
M  V30 11920 N 1115.97 -0.914965 -1.28321 0
M  V30 11921 C 1117.19 -0.564023 -1.99583 0
M  V30 11922 C 1117.62 0.847821 -1.6791 0
M  V30 11923 O 1116.97 1.56682 -0.912171 0
M  V30 11924 C 1117.02 -0.781368 -3.52033 0
M  V30 11925 O 1116.13 0.159072 -4.12093 0
M  V30 11926 H 1115.47 -0.218565 -0.626997 0
M  V30 11927 H 1118 -1.23074 -1.63444 0
M  V30 11928 H 1118.01 -0.691946 -4.0209 0
M  V30 11929 H 1116.68 -1.81059 -3.7442 0
M  V30 11930 H 1115.26 0.0208145 -3.72894 0
M  V30 11931 N 1117.44 1.42219 -0.679077 0
M  V30 11932 C 1118.37 2.33493 -0.0174528 0
M  V30 11933 C 1119.35 1.50915 0.78477 0
M  V30 11934 O 1120.54 1.79504 0.741065 0
M  V30 11935 C 1117.67 3.34576 0.931463 0
M  V30 11936 C 1116.62 4.2734 0.237527 0
M  V30 11937 C 1115.95 5.18664 1.29967 0
M  V30 11938 C 1117.25 5.14729 -0.886082 0
M  V30 11939 H 1118.94 2.89068 -0.779748 0
M  V30 11940 H 1116.49 1.38993 -0.376419 0
M  V30 11941 H 1118.44 3.97343 1.40343 0
M  V30 11942 H 1117.17 2.77315 1.72523 0
M  V30 11943 H 1115.83 3.65973 -0.214245 0
M  V30 11944 H 1115.47 4.57727 2.08554 0
M  V30 11945 H 1115.17 5.81558 0.840463 0
M  V30 11946 H 1116.7 5.84308 1.77249 0
M  V30 11947 H 1118.11 5.71158 -0.495141 0
M  V30 11948 H 1116.51 5.86478 -1.27135 0
M  V30 11949 H 1117.58 4.52874 -1.733 0
M  V30 11950 N 1118.92 0.422693 1.51826 0
M  V30 11951 C 1120.15 -0.147744 2.06372 0
M  V30 11952 C 1120.56 -1.37714 1.29152 0
M  V30 11953 O 1119.92 -1.7917 0.347046 0
M  V30 11954 C 1119.97 -0.484642 3.58237 0
M  V30 11955 O 1119.69 0.695944 4.32537 0
M  V30 11956 C 1121.19 -1.10734 4.29247 0
M  V30 11957 H 1118.41 -0.0144047 0.670845 0
M  V30 11958 H 1120.96 0.597558 1.95575 0
M  V30 11959 H 1119.11 -1.17984 3.68997 0
M  V30 11960 H 1119.53 0.411471 5.22884 0
M  V30 11961 H 1121 -1.29318 5.36639 0
M  V30 11962 H 1121.48 -2.08429 3.86593 0
M  V30 11963 H 1122.08 -0.451958 4.22892 0
M  V30 11964 N 1120.4 -1.5685 0.153553 0
M  V30 11965 C 1121.33 -2.12888 -0.821829 0
M  V30 11966 C 1122.31 -1.05418 -1.23798 0
M  V30 11967 O 1123.49 -1.33288 -1.33292 0
M  V30 11968 C 1120.62 -2.65394 -2.10438 0
M  V30 11969 C 1119.67 -3.85071 -1.83364 0
M  V30 11970 S 1120.5 -5.2572 -1.01877 0
M  V30 11971 C 1121.66 -5.81619 -2.31236 0
M  V30 11972 H 1121.89 -2.95288 -0.345314 0
M  V30 11973 H 1119.42 -1.5428 -0.0608377 0
M  V30 11974 H 1121.38 -2.96294 -2.84113 0
M  V30 11975 H 1120.04 -1.83112 -2.55204 0
M  V30 11976 H 1119.23 -4.20076 -2.78482 0
M  V30 11977 H 1118.84 -3.54965 -1.17794 0
M  V30 11978 H 1121.13 -5.9345 -3.26838 0
M  V30 11979 H 1122.07 -6.79054 -2.00727 0
M  V30 11980 H 1122.48 -5.09909 -2.42184 0
M  V30 11981 N 1121.88 0.120221 -1.57141 0
M  V30 11982 C 1123.15 0.858458 -1.75755 0
M  V30 11983 C 1123.53 1.98124 -0.728693 0
M  V30 11984 O 1122.88 2.27155 0.247573 0
M  V30 11985 C 1123.09 1.37627 -3.20718 0
M  V30 11986 C 1124.44 1.82909 -3.83183 0
M  V30 11987 O 1125.46 1.47309 -3.24312 0
M  V30 11988 O 1124.32 2.4865 -4.86657 0
M  V30 11989 H 1121.42 0.407583 -0.719587 0
M  V30 11990 H 1123.96 0.104057 -1.69381 0
M  V30 11991 H 1122.74 0.570651 -3.87117 0
M  V30 11992 H 1122.36 2.19341 -3.31625 0
M  V30 11993 N 1123.36 1.52689 0.390367 0
M  V30 11994 C 1124.77 1.59623 0.968366 0
M  V30 11995 C 1125.12 0.44824 1.91011 0
M  V30 11996 O 1124.24 -0.428868 2.12108 0
M  V30 11997 C 1124.84 2.89312 1.76306 0
M  V30 11998 C 1123.4 2.98664 2.29079 0
M  V30 11999 C 1122.54 2.54725 1.09593 0
M  V30 12000 H 1125.5 1.57787 0.169959 0
M  V30 12001 H 1125.52 2.75721 2.62217 0
M  V30 12002 H 1125.03 3.72846 1.07738 0
M  V30 12003 H 1123.13 2.19665 3.00962 0
M  V30 12004 H 1123.24 4.03277 2.58659 0
M  V30 12005 H 1121.61 2.09012 1.45554 0
M  V30 12006 H 1122.39 3.40651 0.425625 0
M  V30 12007 N 1124.83 -0.648732 1.43629 0
M  V30 12008 C 1126.08 -1.41066 1.45699 0
M  V30 12009 C 1126.41 -1.94024 0.082612 0
M  V30 12010 O 1125.69 -1.7257 -0.897207 0
M  V30 12011 C 1125.97 -2.58882 2.50304 0
M  V30 12012 C 1125.82 -2.11387 3.97033 0
M  V30 12013 C 1127.14 -3.61092 2.51597 0
M  V30 12014 H 1124.26 -0.511591 0.530512 0
M  V30 12015 H 1126.9 -0.735069 1.75205 0
M  V30 12016 H 1125.05 -3.16518 2.25274 0
M  V30 12017 H 1126.73 -1.58718 4.33136 0
M  V30 12018 H 1124.97 -1.4272 4.0965 0
M  V30 12019 H 1125.64 -2.96129 4.65845 0
M  V30 12020 H 1128.12 -3.13223 2.73917 0
M  V30 12021 H 1126.99 -4.41071 3.26722 0
M  V30 12022 H 1127.25 -4.13985 1.55141 0
M  V30 12023 N 1126.31 -1.30234 -0.887518 0
M  V30 12024 C 1127.56 -1.19086 -1.64153 0
M  V30 12025 C 1127.89 0.254428 -1.92526 0
M  V30 12026 O 1127.17 1.18233 -1.54438 0
M  V30 12027 C 1127.45 -2.01723 -2.98295 0
M  V30 12028 C 1127.3 -3.54458 -2.76911 0
M  V30 12029 C 1128.62 -1.85307 -3.99186 0
M  V30 12030 H 1125.74 -0.433967 -0.595686 0
M  V30 12031 H 1128.38 -1.59839 -1.0272 0
M  V30 12032 H 1126.53 -1.67096 -3.5073 0
M  V30 12033 H 1128.2 -3.99131 -2.31284 0
M  V30 12034 H 1126.45 -3.78768 -2.11464 0
M  V30 12035 H 1127.12 -4.07565 -3.72283 0
M  V30 12036 H 1129.59 -2.15575 -3.55903 0
M  V30 12037 H 1128.47 -2.45456 -4.90961 0
M  V30 12038 H 1128.73 -0.811528 -4.34588 0
M  V30 12039 N 1127.79 1.09952 -1.12909 0
M  V30 12040 C 1128.74 2.16436 -0.801514 0
M  V30 12041 C 1129.71 1.64444 0.233976 0
M  V30 12042 O 1130.89 1.90497 0.10743 0
M  V30 12043 C 1128.03 3.4406 -0.267753 0
M  V30 12044 C 1127.15 4.09979 -1.36165 0
M  V30 12045 C 1126.28 5.25341 -0.786803 0
M  V30 12046 C 1125.32 5.83172 -1.85948 0
M  V30 12047 N 1124.46 6.89904 -1.30298 0
M  V30 12048 H 1129.3 2.43799 -1.71365 0
M  V30 12049 H 1126.83 1.19665 -0.855499 0
M  V30 12050 H 1128.79 4.17157 0.0598031 0
M  V30 12051 H 1127.42 3.17031 0.607528 0
M  V30 12052 H 1126.47 3.34801 -1.8059 0
M  V30 12053 H 1127.79 4.48999 -2.17259 0
M  V30 12054 H 1126.94 6.05312 -0.410211 0
M  V30 12055 H 1125.68 4.87669 0.055279 0
M  V30 12056 H 1124.68 5.01867 -2.24521 0
M  V30 12057 H 1125.91 6.22907 -2.70487 0
M  V30 12058 H 1123.85 6.54221 -0.482806 0
M  V30 12059 H 1123.77 7.27662 -2.05046 0
M  V30 12060 H 1125.04 7.73643 -0.953779 0
M  V30 12061 N 1129.27 0.921757 1.27833 0
M  V30 12062 C 1130.49 0.574599 1.99281 0
M  V30 12063 C 1130.92 -0.838905 1.68357 0
M  V30 12064 O 1130.28 -1.56196 0.920468 0
M  V30 12065 C 1130.32 0.800027 3.51613 0
M  V30 12066 O 1129.43 -0.137215 4.12172 0
M  V30 12067 H 1128.77 0.221887 0.625829 0
M  V30 12068 H 1131.3 1.23939 1.62789 0
M  V30 12069 H 1131.31 0.71326 4.01717 0
M  V30 12070 H 1129.98 1.83042 3.73455 0
M  V30 12071 H 1128.56 -0.00103872 3.729 0
M  V30 12072 N 1130.75 -1.41857 0.686609 0
M  V30 12073 C 1131.69 -2.30795 0.015643 0
M  V30 12074 C 1132.66 -1.46616 -0.780569 0
M  V30 12075 O 1133.85 -1.75423 -0.750424 0
M  V30 12076 C 1130.99 -3.32577 -0.921229 0
M  V30 12077 C 1130.1 -4.3184 -0.117585 0
M  V30 12078 C 1129.24 -5.20693 -1.05128 0
M  V30 12079 C 1128.28 -6.11629 -0.240018 0
M  V30 12080 N 1127.41 -6.92995 -1.12704 0
M  V30 12081 H 1132.25 -2.87615 0.77985 0
M  V30 12082 H 1129.79 -1.41661 0.396298 0
M  V30 12083 H 1131.75 -3.90129 -1.47836 0
M  V30 12084 H 1130.38 -2.77328 -1.65193 0
M  V30 12085 H 1129.43 -3.7631 0.55634 0
M  V30 12086 H 1130.74 -4.96168 0.511753 0
M  V30 12087 H 1129.9 -5.83035 -1.67795 0
M  V30 12088 H 1128.63 -4.5657 -1.71449 0
M  V30 12089 H 1127.64 -5.48345 0.399779 0
M  V30 12090 H 1128.86 -6.77805 0.419266 0
M  V30 12091 H 1126.81 -6.31489 -1.77644 0
M  V30 12092 H 1126.73 -7.53974 -0.553065 0
M  V30 12093 H 1128 -7.59813 -1.7408 0
M  V30 12094 N 1132.22 -0.430739 -1.51599 0
M  V30 12095 C 1133.13 0.390347 -2.3133 0
M  V30 12096 C 1134.15 1.03376 -1.39962 0
M  V30 12097 O 1135.33 1.03057 -1.73035 0
M  V30 12098 C 1132.39 1.48039 -3.13505 0
M  V30 12099 C 1131.45 0.857792 -4.20643 0
M  V30 12100 C 1130.69 1.89589 -4.9889 0
M  V30 12101 O 1130.91 3.11717 -4.77691 0
M  V30 12102 O 1129.84 1.49009 -5.83164 0
M  V30 12103 H 1133.67 -0.260358 -3.02582 0
M  V30 12104 H 1131.25 -0.193428 -1.48143 0
M  V30 12105 H 1133.14 2.11272 -3.64612 0
M  V30 12106 H 1131.81 2.1153 -2.45024 0
M  V30 12107 H 1130.72 0.187592 -3.73629 0
M  V30 12108 H 1132.05 0.266474 -4.91478 0
M  V30 12109 N 1133.7 1.56767 -0.161869 0
M  V30 12110 C 1134.95 1.95769 0.485536 0
M  V30 12111 C 1135.26 1.05006 1.65025 0
M  V30 12112 O 1136.47 1.33649 2.36326 0
M  V30 12113 C 1134.93 3.4807 0.915176 0
M  V30 12114 C 1134.53 4.47443 -0.223416 0
M  V30 12115 C 1136.28 3.95909 1.53153 0
M  V30 12116 C 1134.19 5.90971 0.225325 0
M  V30 12117 H 1133.12 0.730911 0.185161 0
M  V30 12118 H 1135.77 1.81808 -0.248592 0
M  V30 12119 H 1134.15 3.57415 1.705 0
M  V30 12120 H 1135.32 4.49805 -1.00061 0
M  V30 12121 H 1133.64 4.09606 -0.749127 0
M  V30 12122 H 1136.23 5.00592 1.87915 0
M  V30 12123 H 1136.58 3.38307 2.42599 0
M  V30 12124 H 1137.11 3.89542 0.806322 0
M  V30 12125 H 1133.85 6.52426 -0.634124 0
M  V30 12126 H 1133.37 5.91936 0.96808 0
M  V30 12127 H 1135.05 6.43497 0.672373 0
M  V30 12128 N 1135.18 -0.111886 1.57202 0
M  V30 12129 C 1136.09 -1.1556 2.04165 0
M  V30 12130 C 1137.11 -1.44898 0.963354 0
M  V30 12131 O 1138.28 -1.55873 1.27536 0
M  V30 12132 C 1135.35 -2.46048 2.44256 0
M  V30 12133 C 1134.41 -2.24043 3.66201 0
M  V30 12134 C 1133.64 -3.4831 4.04371 0
M  V30 12135 O 1133.86 -4.55895 3.42806 0
M  V30 12136 O 1132.8 -3.38891 4.9743 0
M  V30 12137 H 1136.62 -0.786778 2.93332 0
M  V30 12138 H 1134.21 -0.323196 1.45862 0
M  V30 12139 H 1136.09 -3.22916 2.70745 0
M  V30 12140 H 1134.77 -2.8239 1.58233 0
M  V30 12141 H 1133.67 -1.4501 3.44852 0
M  V30 12142 H 1135.01 -1.92602 4.52952 0
M  V30 12143 N 1136.66 -1.52894 -0.382264 0
M  V30 12144 C 1137.62 -1.77497 -1.45008 0
M  V30 12145 C 1138.62 -0.64509 -1.47293 0
M  V30 12146 O 1139.81 -0.913192 -1.48346 0
M  V30 12147 C 1136.94 -1.88188 -2.8425 0
M  V30 12148 H 1138.14 -2.72849 -1.24473 0
M  V30 12149 H 1135.69 -1.43717 -0.61441 0
M  V30 12150 H 1136.42 -0.948451 -3.10121 0
M  V30 12151 H 1136.21 -2.70353 -2.83992 0
M  V30 12152 H 1137.7 -2.08873 -3.6161 0
M  V30 12153 N 1138.14 0.641106 -1.43971 0
M  V30 12154 C 1139.08 1.75352 -1.50068 0
M  V30 12155 C 1140.05 1.62386 -0.349266 0
M  V30 12156 O 1141.24 1.82455 -0.558118 0
M  V30 12157 C 1138.38 3.13561 -1.4413 0
M  V30 12158 C 1137.49 3.37574 -2.6957 0
M  V30 12159 C 1136.63 4.65698 -2.55535 0
M  V30 12160 C 1135.67 4.82857 -3.76186 0
M  V30 12161 N 1134.8 6.02249 -3.60888 0
M  V30 12162 H 1139.64 1.69477 -2.45116 0
M  V30 12163 H 1137.18 0.826871 -1.2166 0
M  V30 12164 H 1139.14 3.93476 -1.38681 0
M  V30 12165 H 1137.77 3.18476 -0.526563 0
M  V30 12166 H 1136.82 2.5167 -2.85248 0
M  V30 12167 H 1138.13 3.46135 -3.59154 0
M  V30 12168 H 1137.29 5.53759 -2.47862 0
M  V30 12169 H 1136.03 4.59479 -1.63495 0
M  V30 12170 H 1135.03 3.93229 -3.84254 0
M  V30 12171 H 1136.26 4.90898 -4.6925 0
M  V30 12172 H 1134.2 5.97138 -2.71591 0
M  V30 12173 H 1134.12 6.11822 -4.44083 0
M  V30 12174 H 1135.39 6.92898 -3.57088 0
M  V30 12175 N 1139.62 1.30703 0.880598 0
M  V30 12176 C 1140.86 1.19142 1.62752 0
M  V30 12177 C 1141.18 -0.251795 1.93973 0
M  V30 12178 O 1142.38 -0.488971 2.67061 0
M  V30 12179 C 1140.84 2.08503 2.93351 0
M  V30 12180 C 1140.45 3.57758 2.69653 0
M  V30 12181 C 1142.19 2.05715 3.71324 0
M  V30 12182 C 1140.1 4.39161 3.96096 0
M  V30 12183 H 1139.03 0.442332 0.610622 0
M  V30 12184 H 1141.68 1.55483 0.974547 0
M  V30 12185 H 1140.06 1.65049 3.59965 0
M  V30 12186 H 1141.24 4.09388 2.11513 0
M  V30 12187 H 1139.55 3.62414 2.0505 0
M  V30 12188 H 1142.15 2.63783 4.65105 0
M  V30 12189 H 1142.49 1.04168 4.03057 0
M  V30 12190 H 1143.02 2.47313 3.11579 0
M  V30 12191 H 1139.76 5.4142 3.69519 0
M  V30 12192 H 1139.28 3.92293 4.53725 0
M  V30 12193 H 1140.96 4.50823 4.64077 0
M  V30 12194 N 1141.09 -1.09351 1.1349 0
M  V30 12195 C 1142.04 -2.16008 0.812981 0
M  V30 12196 C 1143.01 -1.64566 -0.225252 0
M  V30 12197 O 1144.2 -1.90552 -0.0973261 0
M  V30 12198 C 1141.34 -3.43913 0.285996 0
M  V30 12199 C 1140.45 -4.09251 1.38338 0
M  V30 12200 C 1139.58 -5.24916 0.814652 0
M  V30 12201 C 1138.62 -5.82178 1.89038 0
M  V30 12202 N 1137.76 -6.89203 1.33955 0
M  V30 12203 H 1142.6 -2.42887 1.72655 0
M  V30 12204 H 1140.14 -1.19209 0.861833 0
M  V30 12205 H 1142.09 -4.17183 -0.0376794 0
M  V30 12206 H 1140.72 -3.17349 -0.590707 0
M  V30 12207 H 1139.78 -3.33838 1.82363 0
M  V30 12208 H 1141.09 -4.4784 2.19638 0
M  V30 12209 H 1140.24 -6.05086 0.442306 0
M  V30 12210 H 1138.98 -4.87691 -0.029416 0
M  V30 12211 H 1137.99 -5.00669 2.27179 0
M  V30 12212 H 1139.21 -6.21464 2.73787 0
M  V30 12213 H 1137.16 -6.53956 0.517494 0
M  V30 12214 H 1137.07 -7.26565 2.08902 0
M  V30 12215 H 1138.34 -7.73126 0.994793 0
M  V30 12216 N 1142.57 -0.928524 -1.27343 0
M  V30 12217 C 1143.48 -0.433901 -2.30553 0
M  V30 12218 C 1144.5 0.485832 -1.6708 0
M  V30 12219 O 1145.67 0.36844 -1.98001 0
M  V30 12220 C 1142.74 0.304617 -3.45359 0
M  V30 12221 C 1141.8 -0.650131 -4.24349 0
M  V30 12222 C 1141.03 0.0532372 -5.33673 0
M  V30 12223 O 1141.26 1.27246 -5.56026 0
M  V30 12224 O 1140.19 -0.619009 -5.98709 0
M  V30 12225 H 1144.02 -1.2909 -2.74899 0
M  V30 12226 H 1141.6 -0.693903 -1.32308 0
M  V30 12227 H 1143.48 0.721137 -4.15184 0
M  V30 12228 H 1142.16 1.13721 -3.03066 0
M  V30 12229 H 1141.06 -1.11635 -3.57055 0
M  V30 12230 H 1142.4 -1.44996 -4.70358 0
M  V30 12231 N 1144.05 1.41491 -0.694123 0
M  V30 12232 C 1144.98 2.33462 -0.0422169 0
M  V30 12233 C 1145.96 1.51739 0.76872 0
M  V30 12234 O 1147.15 1.8028 0.721985 0
M  V30 12235 C 1144.28 3.35545 0.895925 0
M  V30 12236 C 1143.23 4.27568 0.192188 0
M  V30 12237 C 1142.56 5.20014 1.24459 0
M  V30 12238 C 1143.86 5.1376 -0.940626 0
M  V30 12239 H 1145.55 2.88225 -0.810363 0
M  V30 12240 H 1143.1 1.38586 -0.39114 0
M  V30 12241 H 1145.05 3.9881 1.36121 0
M  V30 12242 H 1143.77 2.79129 1.69572 0
M  V30 12243 H 1142.43 3.65726 -0.25305 0
M  V30 12244 H 1142.08 4.59913 2.03687 0
M  V30 12245 H 1141.78 5.82417 0.778734 0
M  V30 12246 H 1143.3 5.86155 1.71041 0
M  V30 12247 H 1144.72 5.70601 -0.555692 0
M  V30 12248 H 1143.11 5.85097 -1.33349 0
M  V30 12249 H 1144.18 4.51011 -1.78093 0
M  V30 12250 N 1145.53 0.438773 1.51369 0
M  V30 12251 C 1146.76 -0.125847 2.06517 0
M  V30 12252 C 1147.17 -1.36336 1.30606 0
M  V30 12253 O 1146.53 -1.78792 0.36603 0
M  V30 12254 C 1146.58 -0.446619 3.5873 0
M  V30 12255 O 1146.3 0.741781 4.31775 0
M  V30 12256 C 1147.8 -1.06175 4.30397 0
M  V30 12257 H 1145.02 -0.00728868 0.67096 0
M  V30 12258 H 1147.56 0.618267 1.9493 0
M  V30 12259 H 1145.72 -1.14064 3.70227 0
M  V30 12260 H 1146.13 0.466907 5.22418 0
M  V30 12261 H 1147.61 -1.23619 5.3798 0
M  V30 12262 H 1148.08 -2.04317 3.88782 0
M  V30 12263 H 1148.69 -0.40708 4.23347 0
M  V30 12264 N 1147.01 -1.56678 0.170181 0
M  V30 12265 C 1148.23 -2.0166 -0.484543 0
M  V30 12266 C 1148.66 -1.04962 -1.56091 0
M  V30 12267 O 1148.01 -0.0289887 -1.81277 0
M  V30 12268 C 1148.06 -3.45252 -1.04084 0
M  V30 12269 O 1147.17 -3.51623 -2.15488 0
M  V30 12270 H 1146.51 -0.653765 -0.116135 0
M  V30 12271 H 1149.04 -2.02761 0.273737 0
M  V30 12272 H 1149.05 -3.84534 -1.36373 0
M  V30 12273 H 1147.72 -4.15131 -0.252738 0
M  V30 12274 H 1146.3 -3.242 -1.84252 0
M  V30 12275 N 1148.48 0.103547 -1.57259 0
M  V30 12276 C 1149.71 0.82235 -1.89855 0
M  V30 12277 C 1150.13 1.72694 -0.76303 0
M  V30 12278 O 1149.48 1.8056 0.265421 0
M  V30 12279 C 1149.53 1.64282 -3.22015 0
M  V30 12280 O 1149.26 0.774628 -4.31197 0
M  V30 12281 C 1150.76 2.46543 -3.68418 0
M  V30 12282 H 1147.98 0.235591 -0.628282 0
M  V30 12283 H 1150.52 0.0833106 -2.0433 0
M  V30 12284 H 1148.68 2.33446 -3.09163 0
M  V30 12285 H 1149.09 1.34205 -5.0704 0
M  V30 12286 H 1150.56 2.99618 -4.63609 0
M  V30 12287 H 1151.04 3.24618 -2.95838 0
M  V30 12288 H 1151.65 1.82594 -3.84109 0
M  V30 12289 N 1149.96 1.53094 0.37415 0
M  V30 12290 C 1151.2 1.70558 1.12647 0
M  V30 12291 C 1151.57 0.443515 1.86807 0
M  V30 12292 O 1152.77 0.49472 2.64208 0
M  V30 12293 C 1151.04 2.91565 2.06699 0
M  V30 12294 S 1152.6 3.29692 2.89567 0
M  V30 12295 H 1149.41 0.600238 0.381097 0
M  V30 12296 H 1152.02 1.91177 0.408865 0
M  V30 12297 H 1150.72 3.81625 1.50965 0
M  V30 12298 H 1150.25 2.73323 2.82945 0
M  V30 12299 H 1152.27 2.81036 4.08942 0
M  V30 12300 N 1151.44 -0.633461 1.44309 0
M  V30 12301 C 1152.66 -1.42527 1.50668 0
M  V30 12302 C 1153.09 -1.87637 0.131861 0
M  V30 12303 O 1152.45 -1.58595 -0.878477 0
M  V30 12304 C 1152.5 -2.62328 2.47419 0
M  V30 12305 O 1151.6 -3.62081 1.97411 0
M  V30 12306 H 1150.94 -0.426559 0.508864 0
M  V30 12307 H 1153.47 -0.773392 1.8942 0
M  V30 12308 H 1153.48 -3.09901 2.65378 0
M  V30 12309 H 1152.16 -2.2884 3.47283 0
M  V30 12310 H 1150.73 -3.21333 1.89208 0
M  V30 12311 N 1152.92 -1.31168 -0.873655 0
M  V30 12312 C 1154.33 -1.18584 -1.44203 0
M  V30 12313 C 1154.68 0.209114 -1.95082 0
M  V30 12314 O 1153.81 1.10662 -1.85965 0
M  V30 12315 C 1154.4 -2.14668 -2.62112 0
M  V30 12316 C 1152.96 -2.06029 -3.15006 0
M  V30 12317 C 1152.11 -2.04106 -1.87712 0
M  V30 12318 H 1155.06 -1.43273 -0.682536 0
M  V30 12319 H 1155.08 -1.73413 -3.38686 0
M  V30 12320 H 1154.59 -3.16186 -2.25051 0
M  V30 12321 H 1152.69 -1.07693 -3.56697 0
M  V30 12322 H 1152.8 -2.9496 -3.77539 0
M  V30 12323 H 1151.17 -1.49069 -2.0652 0
M  V30 12324 H 1151.95 -3.07373 -1.52894 0
M  V30 12325 N 1154.4 1.08748 -1.14068 0
M  V30 12326 C 1155.65 1.8044 -0.901352 0
M  V30 12327 C 1155.96 1.86995 0.573791 0
M  V30 12328 O 1157.16 2.55065 0.930275 0
M  V30 12329 C 1155.62 3.24185 -1.56308 0
M  V30 12330 C 1155.23 3.25875 -3.07424 0
M  V30 12331 C 1156.97 4.00584 -1.40473 0
M  V30 12332 C 1154.88 4.64186 -3.66449 0
M  V30 12333 H 1153.81 0.676201 -0.333569 0
M  V30 12334 H 1156.46 1.22169 -1.3692 0
M  V30 12335 H 1154.84 3.82561 -1.0229 0
M  V30 12336 H 1156.02 2.77225 -3.6808 0
M  V30 12337 H 1154.33 2.62969 -3.22856 0
M  V30 12338 H 1156.93 5.02781 -1.81976 0
M  V30 12339 H 1157.27 4.14823 -0.350408 0
M  V30 12340 H 1157.8 3.48668 -1.91508 0
M  V30 12341 H 1154.54 4.5515 -4.71719 0
M  V30 12342 H 1154.06 5.13132 -3.10574 0
M  V30 12343 H 1155.74 5.33161 -3.66536 0
M  V30 12344 N 1155.87 0.935264 1.26849 0
M  V30 12345 C 1157.12 0.575467 1.93317 0
M  V30 12346 C 1157.44 -0.88876 1.74242 0
M  V30 12347 O 1158.64 -1.35767 2.35116 0
M  V30 12348 C 1157.1 0.978433 3.46345 0
M  V30 12349 C 1156.71 2.46386 3.74163 0
M  V30 12350 C 1158.45 0.690249 4.18851 0
M  V30 12351 C 1156.36 2.80584 5.20602 0
M  V30 12352 H 1155.29 0.211506 0.723727 0
M  V30 12353 H 1157.94 1.1371 1.44022 0
M  V30 12354 H 1156.32 0.345379 3.94491 0
M  V30 12355 H 1157.49 3.14547 3.36745 0
M  V30 12356 H 1155.81 2.72473 3.14877 0
M  V30 12357 H 1158.41 0.922151 5.26688 0
M  V30 12358 H 1158.75 -0.372805 4.14627 0
M  V30 12359 H 1159.28 1.28275 3.76551 0
M  V30 12360 H 1156.02 3.85828 5.29921 0
M  V30 12361 H 1155.54 2.1708 5.59139 0
M  V30 12362 H 1157.22 2.68732 5.88551 0
M  V30 12363 N 1157.35 -1.41121 0.701616 0
M  V30 12364 C 1158.58 -2.05973 0.242896 0
M  V30 12365 C 1159 -1.52474 -1.10151 0
M  V30 12366 O 1158.36 -0.654224 -1.69085 0
M  V30 12367 C 1158.41 -3.59943 0.217614 0
M  V30 12368 O 1157.51 -4.04454 -0.805629 0
M  V30 12369 H 1156.85 -0.653581 0.117166 0
M  V30 12370 H 1159.38 -1.80777 0.958175 0
M  V30 12371 H 1159.39 -4.07969 0.0505267 0
M  V30 12372 H 1158.07 -3.98249 1.19877 0
M  V30 12373 H 1156.65 -3.6792 -0.607404 0
M  V30 12374 N 1158.83 -0.446794 -1.51134 0
M  V30 12375 C 1159.78 0.359865 -2.27977 0
M  V30 12376 C 1160.75 1.0086 -1.31972 0
M  V30 12377 O 1161.93 1.02569 -1.60886 0
M  V30 12378 C 1159.07 1.44978 -3.1317 0
M  V30 12379 C 1158.19 0.818243 -4.2418 0
M  V30 12380 C 1157.32 1.884 -4.96668 0
M  V30 12381 C 1156.36 1.2314 -5.99586 0
M  V30 12382 N 1155.5 2.23894 -6.65444 0
M  V30 12383 H 1160.34 -0.301775 -2.96468 0
M  V30 12384 H 1157.87 -0.160666 -1.4622 0
M  V30 12385 H 1159.83 2.09308 -3.60896 0
M  V30 12386 H 1158.46 2.08092 -2.46775 0
M  V30 12387 H 1157.51 0.0629889 -3.80348 0
M  V30 12388 H 1158.83 0.301885 -4.97886 0
M  V30 12389 H 1157.98 2.6037 -5.4799 0
M  V30 12390 H 1156.72 2.43411 -4.22614 0
M  V30 12391 H 1155.72 0.497215 -5.47547 0
M  V30 12392 H 1156.95 0.688505 -6.75601 0
M  V30 12393 H 1154.89 2.77967 -5.94197 0
M  V30 12394 H 1154.81 1.77176 -7.34945 0
M  V30 12395 H 1156.08 2.95318 -7.21393 0
M  V30 12396 N 1160.31 1.56586 -0.178487 0
M  V30 12397 C 1161.72 1.83633 0.337009 0
M  V30 12398 C 1162.07 1.09857 1.6256 0
M  V30 12399 O 1161.2 0.353933 2.13486 0
M  V30 12400 C 1161.79 3.33112 0.618225 0
M  V30 12401 C 1160.35 3.60629 1.07814 0
M  V30 12402 C 1159.5 2.7705 0.117825 0
M  V30 12403 H 1162.45 1.53508 -0.402612 0
M  V30 12404 H 1162.47 3.5098 1.46947 0
M  V30 12405 H 1161.98 3.8678 -0.319808 0
M  V30 12406 H 1160.08 3.12378 2.03103 0
M  V30 12407 H 1160.19 4.68921 0.982339 0
M  V30 12408 H 1158.56 2.47125 0.616563 0
M  V30 12409 H 1159.34 3.33501 -0.814356 0
M  V30 12410 N 1161.79 -0.095206 1.57312 0
M  V30 12411 C 1162.73 -1.11551 2.02052 0
M  V30 12412 C 1163.7 -1.39808 0.896818 0
M  V30 12413 O 1164.89 -1.51273 1.1628 0
M  V30 12414 C 1162.03 -2.43056 2.44985 0
M  V30 12415 C 1161.14 -2.21531 3.70875 0
M  V30 12416 C 1160.28 -3.46434 4.02687 0
M  V30 12417 C 1159.32 -3.2017 5.21687 0
M  V30 12418 N 1158.45 -4.37339 5.49253 0
M  V30 12419 H 1163.29 -0.727 2.88996 0
M  V30 12420 H 1160.83 -0.347441 1.42938 0
M  V30 12421 H 1162.79 -3.19803 2.67921 0
M  V30 12422 H 1161.42 -2.79754 1.61051 0
M  V30 12423 H 1160.47 -1.35587 3.55416 0
M  V30 12424 H 1161.78 -1.98116 4.57768 0
M  V30 12425 H 1160.94 -4.31589 4.26399 0
M  V30 12426 H 1159.67 -3.72904 3.14315 0
M  V30 12427 H 1158.68 -2.33409 4.97796 0
M  V30 12428 H 1159.9 -2.95047 6.11657 0
M  V30 12429 H 1157.85 -4.63885 4.6384 0
M  V30 12430 H 1157.77 -4.17114 6.30517 0
M  V30 12431 H 1159.04 -5.23559 5.775 0
M  V30 12432 N 1163.26 -1.53291 -0.366026 0
M  V30 12433 C 1164.68 -1.61144 -0.942849 0
M  V30 12434 C 1165.03 -0.478571 -1.90274 0
M  V30 12435 O 1164.15 0.395069 -2.12763 0
M  V30 12436 C 1164.75 -2.92081 -1.71681 0
M  V30 12437 C 1163.31 -3.0227 -2.24298 0
M  V30 12438 C 1162.45 -2.56436 -1.05526 0
M  V30 12439 H 1165.4 -1.58038 -0.144835 0
M  V30 12440 H 1165.42 -2.79858 -2.57798 0
M  V30 12441 H 1164.94 -3.74513 -1.01793 0
M  V30 12442 H 1163.04 -2.24425 -2.97429 0
M  V30 12443 H 1163.15 -4.07341 -2.5221 0
M  V30 12444 H 1161.51 -2.11301 -1.42211 0
M  V30 12445 H 1162.3 -3.41285 -0.371376 0
M  V30 12446 N 1164.74 0.6258 -1.44643 0
M  V30 12447 C 1165.69 1.73751 -1.51919 0
M  V30 12448 C 1166.66 1.62007 -0.36647 0
M  V30 12449 O 1167.84 1.81852 -0.577439 0
M  V30 12450 C 1164.98 3.12015 -1.47448 0
M  V30 12451 C 1164.1 3.34696 -2.73135 0
M  V30 12452 C 1163.23 4.62962 -2.6046 0
M  V30 12453 C 1162.27 4.7884 -3.81286 0
M  V30 12454 N 1161.41 5.98388 -3.67255 0
M  V30 12455 H 1166.25 1.66867 -2.46899 0
M  V30 12456 H 1163.79 0.813921 -1.22531 0
M  V30 12457 H 1165.74 3.91983 -1.42846 0
M  V30 12458 H 1164.37 3.179 -0.560312 0
M  V30 12459 H 1163.43 2.4863 -2.87901 0
M  V30 12460 H 1164.74 3.42306 -3.62806 0
M  V30 12461 H 1163.89 5.51099 -2.53722 0
M  V30 12462 H 1162.63 4.57719 -1.68359 0
M  V30 12463 H 1161.64 3.89131 -3.88403 0
M  V30 12464 H 1162.86 4.85893 -4.74431 0
M  V30 12465 H 1160.81 5.94224 -2.77909 0
M  V30 12466 H 1160.72 6.07078 -4.50547 0
M  V30 12467 H 1161.99 6.89072 -3.64417 0
M  V30 12468 N 1166.22 1.31629 0.866686 0
M  V30 12469 C 1167.47 1.21683 1.62238 0
M  V30 12470 C 1167.8 -0.223767 1.92907 0
M  V30 12471 O 1167.07 -1.15761 1.563 0
M  V30 12472 C 1167.36 2.06443 2.95048 0
M  V30 12473 C 1167.21 3.58818 2.71237 0
M  V30 12474 C 1168.53 1.91634 3.96187 0
M  V30 12475 H 1165.65 0.443389 0.588707 0
M  V30 12476 H 1168.29 1.61453 1.00164 0
M  V30 12477 H 1166.44 1.72654 3.48027 0
M  V30 12478 H 1168.11 4.0276 2.24905 0
M  V30 12479 H 1166.36 3.82085 2.05411 0
M  V30 12480 H 1167.03 4.13436 3.65752 0
M  V30 12481 H 1169.5 2.21209 3.52428 0
M  V30 12482 H 1168.38 2.53236 4.86993 0
M  V30 12483 H 1168.64 0.880564 4.33242 0
M  V30 12484 N 1167.7 -1.08142 1.14644 0
M  V30 12485 C 1168.61 -2.18675 0.849607 0
M  V30 12486 C 1169.63 -1.73158 -0.170983 0
M  V30 12487 O 1170.8 -2.014 0.0011579 0
M  V30 12488 C 1167.87 -3.45084 0.334305 0
M  V30 12489 C 1166.93 -4.05213 1.41779 0
M  V30 12490 C 1166.16 -5.25588 0.926981 0
M  V30 12491 O 1166.38 -5.69934 -0.230522 0
M  V30 12492 O 1165.32 -5.77183 1.70715 0
M  V30 12493 H 1169.14 -2.46542 1.77343 0
M  V30 12494 H 1166.73 -1.17328 0.924911 0
M  V30 12495 H 1168.61 -4.21367 0.0529893 0
M  V30 12496 H 1167.29 -3.18788 -0.561755 0
M  V30 12497 H 1166.19 -3.30507 1.7526 0
M  V30 12498 H 1167.53 -4.35764 2.28847 0
M  V30 12499 N 1169.18 -0.941978 -1.26351 0
M  V30 12500 C 1170.59 -0.632522 -1.75659 0
M  V30 12501 C 1170.94 0.852287 -1.76722 0
M  V30 12502 O 1170.06 1.66701 -1.37985 0
M  V30 12503 C 1170.66 -1.14145 -3.18993 0
M  V30 12504 C 1169.22 -0.882391 -3.65911 0
M  V30 12505 C 1168.37 -1.29189 -2.45368 0
M  V30 12506 H 1171.32 -1.12019 -1.12416 0
M  V30 12507 H 1171.34 -0.495639 -3.77258 0
M  V30 12508 H 1170.85 -2.22213 -3.18187 0
M  V30 12509 H 1168.95 0.183873 -3.72146 0
M  V30 12510 H 1169.06 -1.50996 -4.54683 0
M  V30 12511 H 1167.43 -0.710316 -2.44595 0
M  V30 12512 H 1168.21 -2.38152 -2.47262 0
M  V30 12513 N 1170.66 1.40747 -0.709091 0
M  V30 12514 C 1172.07 1.83955 -0.318968 0
M  V30 12515 C 1172.42 1.59304 1.14527 0
M  V30 12516 O 1171.54 1.07052 1.88066 0
M  V30 12517 C 1172.14 3.33934 -0.572147 0
M  V30 12518 C 1170.7 3.75661 -0.235802 0
M  V30 12519 C 1169.84 2.64024 -0.847743 0
M  V30 12520 H 1172.79 1.30107 -0.908734 0
M  V30 12521 H 1172.82 3.80143 0.164752 0
M  V30 12522 H 1172.33 3.51844 -1.63791 0
M  V30 12523 H 1170.43 3.63348 0.825164 0
M  V30 12524 H 1170.54 4.73955 -0.700263 0
M  V30 12525 H 1168.91 2.53197 -0.276283 0
M  V30 12526 H 1169.69 2.84748 -1.91765 0
M  V30 12527 N 1172.13 0.454803 1.50895 0
M  V30 12528 C 1173.08 -0.347769 2.28165 0
M  V30 12529 C 1174.05 -1.00158 1.32505 0
M  V30 12530 O 1175.24 -1.01715 1.61427 0
M  V30 12531 C 1172.38 -1.43315 3.13934 0
M  V30 12532 C 1171.49 -0.795736 4.24608 0
M  V30 12533 C 1170.62 -1.85763 4.9766 0
M  V30 12534 C 1169.66 -1.19959 6.0023 0
M  V30 12535 N 1168.8 -2.20361 6.66622 0
M  V30 12536 H 1173.64 0.317493 2.96304 0
M  V30 12537 H 1171.18 0.168418 1.46133 0
M  V30 12538 H 1173.13 -2.07391 3.62001 0
M  V30 12539 H 1171.76 -2.0678 2.47875 0
M  V30 12540 H 1170.82 -0.0428173 3.80376 0
M  V30 12541 H 1172.13 -0.275477 4.98039 0
M  V30 12542 H 1171.28 -2.5746 5.49363 0
M  V30 12543 H 1170.02 -2.41166 4.23899 0
M  V30 12544 H 1169.03 -0.46817 5.47803 0
M  V30 12545 H 1170.25 -0.652666 6.75956 0
M  V30 12546 H 1168.2 -2.74812 5.95663 0
M  V30 12547 H 1168.11 -1.73275 7.35875 0
M  V30 12548 H 1169.38 -2.91488 7.22949 0
M  V30 12549 N 1173.61 -1.56489 0.186789 0
M  V30 12550 C 1174.52 -2.22304 -0.749543 0
M  V30 12551 C 1175.54 -1.21949 -1.24115 0
M  V30 12552 O 1176.71 -1.5466 -1.29005 0
M  V30 12553 C 1173.78 -2.863 -1.95533 0
M  V30 12554 C 1172.84 -4.01901 -1.5091 0
M  V30 12555 C 1172.07 -4.62837 -2.6574 0
M  V30 12556 O 1172.3 -4.22681 -3.8301 0
M  V30 12557 O 1171.23 -5.52446 -2.38929 0
M  V30 12558 H 1175.06 -3.02909 -0.21908 0
M  V30 12559 H 1172.64 -1.49341 -0.0421249 0
M  V30 12560 H 1174.52 -3.2682 -2.6602 0
M  V30 12561 H 1173.2 -2.08681 -2.47455 0
M  V30 12562 H 1172.1 -3.66021 -0.773261 0
M  V30 12563 H 1173.44 -4.8116 -1.03663 0
M  V30 12564 N 1175.09 0.086862 -1.5736 0
M  V30 12565 C 1176 1.12297 -2.05977 0
M  V30 12566 C 1177.02 1.43347 -0.986284 0
M  V30 12567 O 1178.19 1.53825 -1.3 0
M  V30 12568 C 1175.26 2.42131 -2.4814 0
M  V30 12569 C 1174.32 2.18189 -3.69719 0
M  V30 12570 C 1173.55 3.41833 -4.09861 0
M  V30 12571 O 1173.77 4.50383 -3.50016 0
M  V30 12572 O 1172.71 3.30934 -5.02759 0
M  V30 12573 H 1176.53 0.740012 -2.94546 0
M  V30 12574 H 1174.12 0.29995 -1.46358 0
M  V30 12575 H 1176 3.18568 -2.75848 0
M  V30 12576 H 1174.68 2.79837 -1.62705 0
M  V30 12577 H 1173.58 1.39506 -3.47115 0
M  V30 12578 H 1174.92 1.85372 -4.55959 0
M  V30 12579 N 1176.57 1.53483 0.357892 0
M  V30 12580 C 1177.5 1.76757 1.4591 0
M  V30 12581 C 1178.51 0.648502 1.49326 0
M  V30 12582 O 1179.7 0.924932 1.52667 0
M  V30 12583 C 1176.8 1.83938 2.8464 0
M  V30 12584 C 1175.97 3.13683 3.04831 0
M  V30 12585 C 1175.03 3.12007 4.23719 0
M  V30 12586 O 1174.06 3.8578 4.18524 0
M  V30 12587 N 1175.26 2.33366 5.31527 0
M  V30 12588 H 1178.03 2.71778 1.2632 0
M  V30 12589 H 1175.59 1.52355 0.547673 0
M  V30 12590 H 1177.58 1.80285 3.62325 0
M  V30 12591 H 1176.15 0.961675 2.9744 0
M  V30 12592 H 1175.37 3.30576 2.14739 0
M  V30 12593 H 1176.66 3.99412 3.15194 0
M  V30 12594 H 1176.06 1.72954 5.38613 0
M  V30 12595 H 1174.61 2.35524 6.07759 0
M  V30 12596 N 1178.05 -0.61812 1.44973 0
M  V30 12597 C 1178.99 -1.72942 1.52838 0
M  V30 12598 C 1179.96 -1.6181 0.375056 0
M  V30 12599 O 1181.15 -1.81544 0.587075 0
M  V30 12600 C 1178.29 -3.11228 1.49101 0
M  V30 12601 C 1177.4 -3.33243 2.74906 0
M  V30 12602 C 1176.54 -4.61574 2.62912 0
M  V30 12603 C 1175.57 -4.76811 3.8382 0
M  V30 12604 N 1174.71 -5.96432 3.70424 0
M  V30 12605 H 1179.55 -1.65556 2.47781 0
M  V30 12606 H 1177.09 -0.807411 1.2296 0
M  V30 12607 H 1179.05 -3.9122 1.44923 0
M  V30 12608 H 1177.68 -3.17598 0.577163 0
M  V30 12609 H 1176.73 -2.471 2.89216 0
M  V30 12610 H 1178.04 -3.40377 3.64616 0
M  V30 12611 H 1177.19 -5.49746 2.56641 0
M  V30 12612 H 1175.93 -4.5682 1.70784 0
M  V30 12613 H 1174.94 -3.87066 3.90461 0
M  V30 12614 H 1176.16 -4.83371 4.77001 0
M  V30 12615 H 1174.11 -5.92742 2.81057 0
M  V30 12616 H 1174.03 -6.0468 4.5376 0
M  V30 12617 H 1175.29 -6.8713 3.68067 0
M  V30 12618 N 1179.52 -1.32087 -0.859693 0
M  V30 12619 C 1180.47 -1.20549 -1.98924 0
M  V30 12620 C 1181.47 -0.111422 -1.69033 0
M  V30 12621 O 1182.67 -0.27401 -1.77902 0
M  V30 12622 H 1179.05 -0.373538 -0.652667 0
M  V30 12623 H 1181.02 -2.16091 -2.05785 0
M  V30 12624 C 1179.77 -0.940226 -3.34746 0
M  V30 12625 H 1179.09 -1.77427 -3.58273 0
M  V30 12626 H 1180.53 -0.899712 -4.14344 0
M  V30 12627 C 1178.99 0.357042 -3.35003 0
M  V30 12628 O 1179.52 1.37054 -3.77596 0
M  V30 12629 N 1177.72 0.37723 -2.88141 0
M  V30 12630 H 1177.27 -0.448051 -2.53674 0
M  V30 12631 H 1177.23 1.24509 -2.88695 0
M  V30 12632 N 1181 1.07532 -1.15215 0
M  V30 12633 C 1181.96 2.1286 -0.84989 0
M  V30 12634 C 1182.96 1.60103 0.149524 0
M  V30 12635 O 1184.15 1.74017 -0.0798918 0
M  V30 12636 C 1181.29 3.3984 -0.268617 0
M  V30 12637 H 1182.48 2.41106 -1.78347 0
M  V30 12638 H 1180.03 1.23392 -0.959386 0
M  V30 12639 H 1180.77 3.17235 0.67325 0
M  V30 12640 H 1180.55 3.79433 -0.988592 0
M  V30 12641 H 1182.04 4.17533 -0.0746554 0
M  V30 12642 N 1182.48 0.948665 1.2585 0
M  V30 12643 C 1183.39 0.470525 2.29833 0
M  V30 12644 C 1184.41 -0.45919 1.67832 0
M  V30 12645 O 1185.58 -0.336893 1.98562 0
M  V30 12646 C 1182.65 -0.249635 3.458 0
M  V30 12647 C 1181.71 0.717559 4.23261 0
M  V30 12648 C 1180.94 0.0316724 5.33691 0
M  V30 12649 O 1181.16 -1.18384 5.5798 0
M  V30 12650 O 1180.1 0.71418 5.97648 0
M  V30 12651 H 1183.92 1.33447 2.72811 0
M  V30 12652 H 1181.51 0.714864 1.31187 0
M  V30 12653 H 1183.39 -0.654993 4.16279 0
M  V30 12654 H 1182.07 -1.08885 3.04837 0
M  V30 12655 H 1180.97 1.17301 3.55234 0
M  V30 12656 H 1182.31 1.52461 4.67992 0
M  V30 12657 N 1183.96 -1.40369 0.716545 0
M  V30 12658 C 1184.89 -2.29186 0.0251905 0
M  V30 12659 C 1185.9 -1.45877 -0.722761 0
M  V30 12660 O 1187.09 -1.69155 -0.569982 0
M  V30 12661 C 1184.19 -3.24161 -0.988589 0
M  V30 12662 C 1183.37 -4.36329 -0.30597 0
M  V30 12663 C 1182.42 -5.11736 -1.22527 0
M  V30 12664 O 1181.45 -5.64758 -0.7097 0
M  V30 12665 N 1182.65 -5.21183 -2.55634 0
M  V30 12666 H 1185.42 -2.8916 0.787808 0
M  V30 12667 H 1182.98 -1.51749 0.564253 0
M  V30 12668 H 1184.97 -3.71479 -1.60578 0
M  V30 12669 H 1183.54 -2.65347 -1.65256 0
M  V30 12670 H 1182.76 -3.91125 0.491432 0
M  V30 12671 H 1184.05 -5.08523 0.167827 0
M  V30 12672 H 1183.45 -4.7959 -3.00017 0
M  V30 12673 H 1182 -5.72005 -3.12495 0
M  V30 12674 N 1185.44 -0.462799 -1.50652 0
M  V30 12675 C 1186.38 0.349784 -2.29955 0
M  V30 12676 C 1187.38 0.997947 -1.36885 0
M  V30 12677 O 1188.58 0.93 -1.54114 0
M  V30 12678 H 1184.96 0.131635 -0.740389 0
M  V30 12679 H 1186.93 -0.33958 -2.96461 0
M  V30 12680 C 1185.68 1.42398 -3.17204 0
M  V30 12681 H 1185 0.934611 -3.88722 0
M  V30 12682 H 1186.44 1.96528 -3.75703 0
M  V30 12683 C 1184.9 2.42135 -2.34248 0
M  V30 12684 O 1185.43 3.47229 -2.01978 0
M  V30 12685 N 1183.64 2.13647 -1.96985 0
M  V30 12686 H 1183.18 1.28209 -2.23428 0
M  V30 12687 H 1183.14 2.80615 -1.41783 0
M  V30 12688 N 1186.91 1.56388 -0.195085 0
M  V30 12689 C 1188.16 1.97189 0.44281 0
M  V30 12690 C 1188.48 1.08312 1.62153 0
M  V30 12691 O 1187.75 0.154404 1.95291 0
M  V30 12692 H 1186.33 0.728188 0.166585 0
M  V30 12693 H 1189 1.92852 -0.281815 0
M  V30 12694 H 1188.09 3.02016 0.786945 0
M  V30 12695 N 1188.39 -0.0785156 1.57404 0
M  V30 12696 C 1189.8 -0.631132 1.75709 0
M  V30 12697 C 1190.15 -1.78261 0.819605 0
M  V30 12698 O 1189.28 -2.164 0.00206912 0
M  V30 12699 C 1189.87 -1.15168 3.18625 0
M  V30 12700 C 1188.43 -1.65021 3.38297 0
M  V30 12701 C 1187.58 -0.566773 2.71446 0
M  V30 12702 H 1190.53 0.147631 1.58012 0
M  V30 12703 H 1190.55 -2.02065 3.22413 0
M  V30 12704 H 1190.06 -0.313399 3.86833 0
M  V30 12705 H 1188.17 -2.51196 2.75194 0
M  V30 12706 H 1188.28 -1.73179 4.46706 0
M  V30 12707 H 1186.64 -1.01021 2.33809 0
M  V30 12708 H 1187.43 0.261204 3.42305 0
M  V30 12709 N 1189.87 -1.5367 -0.349747 0
M  V30 12710 C 1191.12 -1.7087 -1.0923 0
M  V30 12711 C 1191.45 -0.467299 -1.88494 0
M  V30 12712 O 1190.72 0.535619 -1.8698 0
M  V30 12713 C 1191.01 -2.9684 -2.03858 0
M  V30 12714 C 1190.86 -4.31174 -1.28097 0
M  V30 12715 C 1192.18 -3.18459 -3.03763 0
M  V30 12716 H 1189.3 -0.621757 -0.395711 0
M  V30 12717 H 1191.94 -1.86333 -0.371481 0
M  V30 12718 H 1190.09 -2.83788 -2.65323 0
M  V30 12719 H 1191.76 -4.56066 -0.692933 0
M  V30 12720 H 1190.01 -4.29866 -0.582924 0
M  V30 12721 H 1190.68 -5.15482 -1.9744 0
M  V30 12722 H 1193.15 -3.30801 -2.52409 0
M  V30 12723 H 1192.03 -4.08006 -3.67182 0
M  V30 12724 H 1192.29 -2.34467 -3.74803 0
M  V30 12725 N 1191.35 0.610423 -1.45298 0
M  V30 12726 C 1192.63 1.36966 -1.39641 0
M  V30 12727 C 1193.01 2.10998 -0.0655757 0
M  V30 12728 O 1192.35 2.07705 0.952407 0
M  V30 12729 C 1192.56 2.31885 -2.60826 0
M  V30 12730 C 1193.91 2.9458 -3.05791 0
M  V30 12731 O 1194.94 2.42207 -2.61179 0
M  V30 12732 O 1193.79 3.89639 -3.83202 0
M  V30 12733 H 1190.89 0.61401 -0.554004 0
M  V30 12734 H 1193.43 0.633748 -1.57422 0
M  V30 12735 H 1192.21 1.76421 -3.49272 0
M  V30 12736 H 1191.83 3.12861 -2.45364 0
M  V30 12737 N 1192.83 1.32541 0.852676 0
M  V30 12738 C 1194.07 1.22971 1.60383 0
M  V30 12739 C 1194.4 -0.208009 1.93887 0
M  V30 12740 O 1193.67 -1.13326 1.59794 0
M  V30 12741 H 1192.25 0.452149 0.594618 0
M  V30 12742 H 1194.91 1.66089 1.01983 0
M  V30 12743 H 1194 1.81373 2.53989 0
M  V30 12744 N 1194.3 -1.0692 1.15784 0
M  V30 12745 C 1195.24 -2.14168 0.816375 0
M  V30 12746 C 1196.25 -1.61872 -0.17357 0
M  V30 12747 O 1197.44 -1.78429 0.0502973 0
M  V30 12748 C 1194.54 -3.38346 0.193682 0
M  V30 12749 C 1193.71 -4.19979 1.22215 0
M  V30 12750 C 1192.77 -5.2253 0.620424 0
M  V30 12751 O 1191.8 -5.54446 1.28757 0
M  V30 12752 N 1193 -5.77434 -0.595811 0
M  V30 12753 H 1195.76 -2.44062 1.73937 0
M  V30 12754 H 1193.32 -1.22865 1.05431 0
M  V30 12755 H 1195.32 -4.04092 -0.22174 0
M  V30 12756 H 1193.89 -3.06129 -0.632735 0
M  V30 12757 H 1193.11 -3.49984 1.81397 0
M  V30 12758 H 1194.39 -4.71329 1.91641 0
M  V30 12759 H 1193.79 -5.5376 -1.15611 0
M  V30 12760 H 1192.35 -6.44788 -0.953529 0
M  V30 12761 N 1195.78 -0.955326 -1.25345 0
M  V30 12762 C 1197.03 -0.609278 -1.92697 0
M  V30 12763 C 1197.35 0.856535 -1.75181 0
M  V30 12764 O 1196.62 1.61013 -1.11587 0
M  V30 12765 H 1195.2 -0.22235 -0.713141 0
M  V30 12766 H 1197.86 -1.21372 -1.52496 0
M  V30 12767 H 1196.96 -0.839198 -3.00606 0
M  V30 12768 N 1197.26 1.39987 -0.723979 0
M  V30 12769 C 1198.54 1.94637 -0.1939 0
M  V30 12770 C 1198.92 1.66156 1.30212 0
M  V30 12771 O 1198.27 0.983783 2.06238 0
M  V30 12772 C 1198.48 3.4517 -0.515652 0
M  V30 12773 C 1199.82 4.22113 -0.458919 0
M  V30 12774 O 1200.85 3.53318 -0.452198 0
M  V30 12775 O 1199.71 5.44695 -0.443783 0
M  V30 12776 H 1196.8 0.826394 -0.0316615 0
M  V30 12777 H 1199.35 1.49548 -0.802085 0
M  V30 12778 H 1198.12 3.5929 -1.55004 0
M  V30 12779 H 1197.74 3.97413 0.122067 0
M  V30 12780 N 1198.74 0.470782 1.50404 0
M  V30 12781 C 1199.69 -0.337584 2.30137 0
M  V30 12782 C 1200.68 -0.990673 1.37412 0
M  V30 12783 O 1201.89 -0.921813 1.54605 0
M  V30 12784 H 1198.26 -0.127707 0.741077 0
M  V30 12785 H 1200.23 0.355297 2.96277 0
M  V30 12786 C 1198.98 -1.40714 3.17954 0
M  V30 12787 H 1198.31 -0.913982 3.89213 0
M  V30 12788 H 1199.75 -1.94533 3.7674 0
M  V30 12789 C 1198.2 -2.40889 2.35529 0
M  V30 12790 O 1198.73 -3.46153 2.03816 0
M  V30 12791 N 1196.94 -2.126 1.98115 0
M  V30 12792 H 1196.49 -1.27023 2.24105 0
M  V30 12793 H 1196.45 -2.7986 1.43269 0
M  V30 12794 N 1200.22 -1.56282 0.203376 0
M  V30 12795 C 1201.63 -1.84146 -0.307752 0
M  V30 12796 C 1201.98 -1.12429 -1.60792 0
M  V30 12797 O 1201.1 -0.387852 -2.12896 0
M  V30 12798 C 1201.7 -3.34053 -0.565152 0
M  V30 12799 C 1200.26 -3.62298 -1.02063 0
M  V30 12800 C 1199.41 -2.77202 -0.0737343 0
M  V30 12801 H 1202.36 -1.52848 0.426983 0
M  V30 12802 H 1202.38 -3.53273 -1.41345 0
M  V30 12803 H 1201.89 -3.86222 0.381301 0
M  V30 12804 H 1199.99 -3.1557 -1.98107 0
M  V30 12805 H 1200.1 -4.70424 -0.907614 0
M  V30 12806 H 1198.47 -2.48074 -0.577169 0
M  V30 12807 H 1199.25 -3.32164 0.86731 0
M  V30 12808 N 1201.7 0.070167 -1.57444 0
M  V30 12809 C 1202.94 0.767495 -1.8696 0
M  V30 12810 C 1203.26 1.78032 -0.795595 0
M  V30 12811 O 1202.53 1.95112 0.175566 0
M  V30 12812 H 1201.11 0.286443 -0.689898 0
M  V30 12813 H 1203.78 0.0458692 -1.94846 0
M  V30 12814 H 1202.87 1.28269 -2.84523 0
M  V30 12815 N 1203.17 1.53854 0.341593 0
M  V30 12816 C 1204.58 1.62623 0.917093 0
M  V30 12817 C 1204.94 0.508781 1.89488 0
M  V30 12818 O 1204.06 -0.361171 2.13365 0
M  V30 12819 C 1204.66 2.94775 1.67012 0
M  V30 12820 C 1203.21 3.058 2.19461 0
M  V30 12821 C 1202.36 2.58082 1.01433 0
M  V30 12822 H 1205.31 1.58248 0.119674 0
M  V30 12823 H 1205.33 2.83924 2.53313 0
M  V30 12824 H 1204.85 3.76085 0.958221 0
M  V30 12825 H 1202.95 2.29128 2.93821 0
M  V30 12826 H 1203.06 4.11302 2.45698 0
M  V30 12827 H 1201.42 2.13537 1.38831 0
M  V30 12828 H 1202.21 3.41833 0.317033 0
M  V30 12829 N 1204.65 -0.602709 1.4562 0
M  V30 12830 C 1205.58 -1.7271 1.50678 0
M  V30 12831 C 1206.6 -1.57884 0.397048 0
M  V30 12832 O 1207.79 -1.65676 0.664367 0
M  V30 12833 C 1204.89 -3.10762 1.35204 0
M  V30 12834 C 1204.06 -3.51782 2.59939 0
M  V30 12835 C 1203.12 -4.68816 2.38952 0
M  V30 12836 O 1202.14 -4.75686 3.12588 0
M  V30 12837 N 1203.35 -5.624 1.43827 0
M  V30 12838 H 1206.11 -1.68833 2.47619 0
M  V30 12839 H 1203.67 -0.788131 1.41422 0
M  V30 12840 H 1205.66 -3.86819 1.18967 0
M  V30 12841 H 1204.23 -3.09119 0.465203 0
M  V30 12842 H 1203.45 -2.65637 2.91257 0
M  V30 12843 H 1204.74 -3.75948 3.42842 0
M  V30 12844 H 1204.14 -5.59568 0.830669 0
M  V30 12845 H 1202.7 -6.37969 1.33561 0
M  V30 12846 N 1206.13 -1.32992 -0.845635 0
M  V30 12847 C 1207.09 -1.22607 -1.9365 0
M  V30 12848 C 1208.09 -0.146812 -1.60128 0
M  V30 12849 O 1209.28 -0.397863 -1.69596 0
M  V30 12850 C 1206.41 -0.887677 -3.2914 0
M  V30 12851 H 1207.61 -2.19563 -2.04285 0
M  V30 12852 H 1205.16 -1.16952 -1.03691 0
M  V30 12853 H 1205.9 0.0796777 -3.24202 0
M  V30 12854 H 1205.68 -1.66808 -3.54849 0
M  V30 12855 H 1207.17 -0.83958 -4.09073 0
M  V30 12856 N 1207.61 1.06304 -1.1635 0
M  V30 12857 C 1208.57 2.11947 -0.872419 0
M  V30 12858 C 1209.57 1.60253 0.132534 0
M  V30 12859 O 1210.76 1.73922 -0.0983441 0
M  V30 12860 C 1207.89 3.39536 -0.304646 0
M  V30 12861 H 1209.09 2.39201 -1.80894 0
M  V30 12862 H 1206.64 1.22367 -0.972419 0
M  V30 12863 H 1207.37 3.17931 0.639565 0
M  V30 12864 H 1207.16 3.78363 -1.02878 0
M  V30 12865 H 1208.65 4.17431 -0.118936 0
M  V30 12866 N 1209.09 0.96196 1.24836 0
M  V30 12867 C 1210 0.494876 2.29321 0
M  V30 12868 C 1211.01 -0.441363 1.68309 0
M  V30 12869 O 1212.19 -0.315814 1.98908 0
M  V30 12870 C 1209.25 -0.212944 3.46045 0
M  V30 12871 C 1208.31 0.762411 4.22476 0
M  V30 12872 C 1207.55 0.0882756 5.33627 0
M  V30 12873 O 1207.77 -1.12459 5.59204 0
M  V30 12874 O 1206.7 0.777529 5.96857 0
M  V30 12875 H 1210.53 1.36333 2.7138 0
M  V30 12876 H 1208.11 0.728738 1.30421 0
M  V30 12877 H 1210 -0.610805 4.1695 0
M  V30 12878 H 1208.67 -1.05645 3.05975 0
M  V30 12879 H 1207.58 1.21062 3.5397 0
M  V30 12880 H 1208.91 1.57416 4.66349 0
M  V30 12881 N 1210.56 -1.39601 0.731392 0
M  V30 12882 C 1211.5 -2.29147 0.0494974 0
M  V30 12883 C 1212.51 -1.46635 -0.707248 0
M  V30 12884 O 1213.7 -1.6975 -0.552008 0
M  V30 12885 C 1210.8 -3.25191 -0.954152 0
M  V30 12886 C 1209.97 -4.36629 -0.259674 0
M  V30 12887 C 1209.03 -5.13007 -1.17092 0
M  V30 12888 O 1208.06 -5.65479 -0.64976 0
M  V30 12889 N 1209.26 -5.23865 -2.50092 0
M  V30 12890 H 1212.02 -2.88308 0.818433 0
M  V30 12891 H 1209.58 -1.51142 0.580316 0
M  V30 12892 H 1211.58 -3.73161 -1.56629 0
M  V30 12893 H 1210.15 -2.67085 -1.62432 0
M  V30 12894 H 1209.37 -3.90582 0.532888 0
M  V30 12895 H 1210.65 -5.08317 0.221753 0
M  V30 12896 H 1210.05 -4.82745 -2.94913 0
M  V30 12897 H 1208.61 -5.75288 -3.0641 0
M  V30 12898 N 1212.04 -0.478751 -1.50152 0
M  V30 12899 C 1213.29 0.0734397 -2.01967 0
M  V30 12900 C 1213.61 1.39523 -1.36229 0
M  V30 12901 O 1212.88 1.89141 -0.510149 0
M  V30 12902 H 1211.46 0.0301305 -0.746392 0
M  V30 12903 H 1214.12 -0.630921 -1.84406 0
M  V30 12904 H 1213.22 0.21937 -3.11328 0
M  V30 12905 N 1213.52 1.56172 -0.211661 0
M  V30 12906 C 1214.75 2.02428 0.427843 0
M  V30 12907 C 1215.16 1.09162 1.54043 0
M  V30 12908 O 1214.52 0.0994249 1.82229 0
M  V30 12909 C 1214.57 3.48279 0.968728 0
M  V30 12910 O 1214.29 4.37987 -0.0994841 0
M  V30 12911 C 1215.79 4.10132 1.68246 0
M  V30 12912 H 1213.01 0.662611 0.10577 0
M  V30 12913 H 1215.56 2.01897 -0.32522 0
M  V30 12914 H 1213.71 3.49456 1.6721 0
M  V30 12915 H 1214.13 5.23609 0.305558 0
M  V30 12916 H 1215.6 5.13985 2.01304 0
M  V30 12917 H 1216.08 3.54552 2.5921 0
M  V30 12918 H 1216.68 4.12775 1.02453 0
M  V30 12919 N 1215 -0.0618163 1.57479 0
M  V30 12920 C 1216.28 -0.792636 1.7882 0
M  V30 12921 C 1216.66 -1.95283 0.801724 0
M  V30 12922 O 1216 -2.27917 -0.163095 0
M  V30 12923 C 1216.21 -1.25629 3.25605 0
M  V30 12924 C 1217.56 -1.68561 3.89708 0
M  V30 12925 O 1218.59 -1.35171 3.29556 0
M  V30 12926 O 1217.44 -2.30417 4.95551 0
M  V30 12927 H 1214.54 -0.380595 0.734218 0
M  V30 12928 H 1217.08 -0.0411205 1.6965 0
M  V30 12929 H 1215.86 -0.426582 3.88968 0
M  V30 12930 H 1215.48 -2.06882 3.39537 0
M  V30 12931 N 1216.48 -1.54033 -0.333429 0
M  V30 12932 C 1217.7 -1.75716 -1.09232 0
M  V30 12933 C 1218.12 -0.501076 -1.82029 0
M  V30 12934 O 1217.48 0.527772 -1.74702 0
M  V30 12935 C 1217.53 -2.9439 -2.09802 0
M  V30 12936 O 1217.25 -4.15141 -1.39963 0
M  V30 12937 C 1218.75 -3.28206 -2.97987 0
M  V30 12938 H 1215.97 -0.586859 -0.325326 0
M  V30 12939 H 1218.51 -2.0089 -0.382555 0
M  V30 12940 H 1216.67 -2.71518 -2.76327 0
M  V30 12941 H 1217.08 -4.81826 -2.0723 0
M  V30 12942 H 1218.56 -4.14568 -3.64469 0
M  V30 12943 H 1219.03 -2.44944 -3.64553 0
M  V30 12944 H 1219.64 -3.5312 -2.37036 0
M  V30 12945 N 1217.95 0.594978 -1.45938 0
M  V30 12946 C 1218.92 1.68688 -1.55168 0
M  V30 12947 C 1219.92 1.54945 -0.429951 0
M  V30 12948 O 1221.11 1.59785 -0.693859 0
M  V30 12949 C 1218.24 3.0804 -1.46027 0
M  V30 12950 H 1219.43 1.61866 -2.52467 0
M  V30 12951 H 1216.99 0.811785 -1.33565 0
M  V30 12952 H 1217.72 3.20428 -0.499614 0
M  V30 12953 H 1217.51 3.19423 -2.27401 0
M  V30 12954 H 1219 3.8755 -1.55546 0
M  V30 12955 N 1219.43 1.33438 0.838571 0
M  V30 12956 C 1220.68 1.25097 1.5962 0
M  V30 12957 C 1221.01 -0.182798 1.93338 0
M  V30 12958 O 1220.29 -1.1242 1.5872 0
M  V30 12959 C 1220.57 2.12655 2.90603 0
M  V30 12960 C 1220.42 3.64491 2.63565 0
M  V30 12961 C 1221.74 1.99994 3.92033 0
M  V30 12962 H 1218.86 0.455776 0.579169 0
M  V30 12963 H 1221.5 1.63542 0.967169 0
M  V30 12964 H 1219.65 1.79998 3.44286 0
M  V30 12965 H 1221.32 4.0744 2.16312 0
M  V30 12966 H 1219.57 3.86356 1.9726 0
M  V30 12967 H 1220.24 4.21101 3.569 0
M  V30 12968 H 1222.71 2.28635 3.47657 0
M  V30 12969 H 1221.59 2.63509 4.81512 0
M  V30 12970 H 1221.85 0.972263 4.31277 0
M  V30 12971 N 1220.91 -1.05686 1.16912 0
M  V30 12972 C 1222.32 -1.60059 0.961153 0
M  V30 12973 C 1222.67 -1.89894 -0.493409 0
M  V30 12974 O 1221.8 -1.67692 -1.36778 0
M  V30 12975 C 1222.39 -2.90803 1.73837 0
M  V30 12976 C 1220.95 -3.41854 1.57522 0
M  V30 12977 C 1220.1 -2.15658 1.74319 0
M  V30 12978 H 1223.05 -0.885592 1.31693 0
M  V30 12979 H 1223.07 -3.60485 1.21781 0
M  V30 12980 H 1222.58 -2.69056 2.79697 0
M  V30 12981 H 1220.68 -3.68647 0.541284 0
M  V30 12982 H 1220.8 -4.16771 2.36302 0
M  V30 12983 H 1219.16 -2.26177 1.17115 0
M  V30 12984 H 1219.94 -1.96386 2.8158 0
M  V30 12985 N 1222.39 -0.968567 -1.24324 0
M  V30 12986 C 1223.61 -0.648166 -1.97012 0
M  V30 12987 C 1224.04 0.775842 -1.71354 0
M  V30 12988 O 1223.4 1.52672 -0.977804 0
M  V30 12989 C 1223.44 -0.929974 -3.48402 0
M  V30 12990 O 1222.55 -0.015854 -4.12397 0
M  V30 12991 H 1221.89 -0.244961 -0.617163 0
M  V30 12992 H 1224.42 -1.29895 -1.58077 0
M  V30 12993 H 1224.43 -0.861863 -3.98793 0
M  V30 12994 H 1223.1 -1.96776 -3.66404 0
M  V30 12995 H 1221.68 -0.137361 -3.72647 0
M  V30 12996 N 1223.87 1.39211 -0.738786 0
M  V30 12997 C 1225.14 1.9442 -0.214533 0
M  V30 12998 C 1225.52 1.67528 1.28443 0
M  V30 12999 O 1224.87 1.0056 2.05183 0
M  V30 13000 C 1225.08 3.44603 -0.552232 0
M  V30 13001 C 1226.43 4.21602 -0.503663 0
M  V30 13002 O 1227.45 3.52819 -0.489647 0
M  V30 13003 O 1226.31 5.44194 -0.50153 0
M  V30 13004 H 1223.41 0.826011 -0.0404247 0
M  V30 13005 H 1225.95 1.48689 -0.817902 0
M  V30 13006 H 1224.72 3.57626 -1.58806 0
M  V30 13007 H 1224.35 3.9752 0.0799096 0
M  V30 13008 N 1225.34 0.486708 1.49896 0
M  V30 13009 C 1226.57 -0.0622999 2.07306 0
M  V30 13010 C 1226.99 -1.31353 1.3464 0
M  V30 13011 O 1226.35 -1.76861 0.398752 0
M  V30 13012 C 1226.4 -0.313481 3.59235 0
M  V30 13013 O 1225.5 -1.39101 3.88233 0
M  V30 13014 H 1224.85 0.0198885 0.663702 0
M  V30 13015 H 1227.38 0.682232 1.92891 0
M  V30 13016 H 1227.39 -0.549302 4.04285 0
M  V30 13017 H 1226.06 0.600767 4.11538 0
M  V30 13018 H 1224.64 -1.14127 3.55006 0
M  V30 13019 N 1226.82 -1.56058 0.219941 0
M  V30 13020 C 1228.1 -1.90087 -0.46112 0
M  V30 13021 C 1228.48 -1.13705 -1.77861 0
M  V30 13022 O 1227.83 -0.245868 -2.27173 0
M  V30 13023 C 1228.04 -3.42786 -0.655644 0
M  V30 13024 C 1229.39 -4.13517 -0.963803 0
M  V30 13025 O 1230.41 -3.48376 -0.742488 0
M  V30 13026 O 1229.27 -5.28692 -1.38374 0
M  V30 13027 H 1226.36 -0.790311 -0.243595 0
M  V30 13028 H 1228.91 -1.67665 0.262005 0
M  V30 13029 H 1227.68 -3.90341 0.273738 0
M  V30 13030 H 1227.3 -3.70982 -1.43032 0
M  V30 13031 N 1228.3 0.053464 -1.57509 0
M  V30 13032 C 1229.25 1.06155 -2.04939 0
M  V30 13033 C 1230.22 1.37382 -0.93357 0
M  V30 13034 O 1231.4 1.48137 -1.2025 0
M  V30 13035 C 1228.54 2.36476 -2.51343 0
M  V30 13036 C 1227.66 2.1162 -3.76618 0
M  V30 13037 C 1226.79 3.35636 -4.11731 0
M  V30 13038 C 1225.83 3.06226 -5.29993 0
M  V30 13039 N 1224.97 4.22623 -5.60655 0
M  V30 13040 H 1229.81 0.650122 -2.90822 0
M  V30 13041 H 1227.34 0.309421 -1.43809 0
M  V30 13042 H 1229.3 3.12588 -2.76306 0
M  V30 13043 H 1227.93 2.75386 -1.68411 0
M  V30 13044 H 1226.98 1.26116 -3.58886 0
M  V30 13045 H 1228.3 1.85909 -4.6286 0
M  V30 13046 H 1227.45 4.20132 -4.37692 0
M  V30 13047 H 1226.19 3.64439 -3.24092 0
M  V30 13048 H 1225.19 2.20128 -5.03809 0
M  V30 13049 H 1226.42 2.78726 -6.19265 0
M  V30 13050 H 1224.37 4.51424 -4.75976 0
M  V30 13051 H 1224.28 4.0025 -6.41355 0
M  V30 13052 H 1225.55 5.08063 -5.91178 0
M  V30 13053 N 1229.78 1.54207 0.325255 0
M  V30 13054 C 1230.73 1.83474 1.40021 0
M  V30 13055 C 1231.7 0.681719 1.51466 0
M  V30 13056 O 1232.88 0.92798 1.66713 0
M  V30 13057 C 1230.02 2.06624 2.76407 0
M  V30 13058 C 1229.13 3.3431 2.73607 0
M  V30 13059 C 1228.27 3.4743 4.01828 0
M  V30 13060 C 1227.31 4.68997 3.93329 0
M  V30 13061 N 1226.45 4.79052 5.13277 0
M  V30 13062 H 1231.29 2.75182 1.14363 0
M  V30 13063 H 1228.82 1.36284 0.553639 0
M  V30 13064 H 1230.78 2.18037 3.5569 0
M  V30 13065 H 1229.41 1.18209 3.00377 0
M  V30 13066 H 1228.46 3.31643 1.86324 0
M  V30 13067 H 1229.77 4.237 2.6321 0
M  V30 13068 H 1228.93 3.58376 4.89542 0
M  V30 13069 H 1227.67 2.56128 4.1503 0
M  V30 13070 H 1226.67 4.58109 3.04 0
M  V30 13071 H 1227.9 5.61681 3.81695 0
M  V30 13072 H 1225.84 3.90666 5.26988 0
M  V30 13073 H 1225.76 5.62406 5.05208 0
M  V30 13074 H 1227.03 4.94328 6.02711 0
M  V30 13075 N 1231.26 -0.58723 1.46251 0
M  V30 13076 C 1232.19 -1.70694 1.5933 0
M  V30 13077 C 1233.17 -1.64208 0.443831 0
M  V30 13078 O 1234.35 -1.82294 0.669516 0
M  V30 13079 C 1231.48 -3.0933 1.579 0
M  V30 13080 C 1230.44 -3.30643 2.7177 0
M  V30 13081 C 1229.76 -4.69761 2.554 0
M  V30 13082 C 1231.06 -3.18916 4.1363 0
M  V30 13083 H 1232.76 -1.60004 2.53059 0
M  V30 13084 H 1230.3 -0.768343 1.21789 0
M  V30 13085 H 1232.26 -3.87479 1.65644 0
M  V30 13086 H 1230.98 -3.20907 0.60712 0
M  V30 13087 H 1229.64 -2.54892 2.63488 0
M  V30 13088 H 1229.29 -4.78098 1.56306 0
M  V30 13089 H 1228.99 -4.84974 3.31774 0
M  V30 13090 H 1230.51 -5.50084 2.65028 0
M  V30 13091 H 1231.93 -3.86915 4.23048 0
M  V30 13092 H 1230.32 -3.45653 4.90555 0
M  V30 13093 H 1231.39 -2.1606 4.34104 0
M  V30 13094 N 1232.74 -1.33881 -0.831482 0
M  V30 13095 C 1234.15 -1.23112 -1.40358 0
M  V30 13096 C 1234.5 0.146944 -1.95649 0
M  V30 13097 O 1233.62 1.04689 -1.89391 0
M  V30 13098 C 1234.22 -2.22899 -2.5515 0
M  V30 13099 C 1232.78 -2.15946 -3.08292 0
M  V30 13100 C 1231.92 -2.09975 -1.81124 0
M  V30 13101 H 1234.87 -1.45372 -0.63661 0
M  V30 13102 H 1234.9 -1.841 -3.32997 0
M  V30 13103 H 1234.41 -3.23186 -2.14878 0
M  V30 13104 H 1232.51 -1.18987 -3.53091 0
M  V30 13105 H 1232.62 -3.06822 -3.67964 0
M  V30 13106 H 1230.99 -1.55564 -2.01673 0
M  V30 13107 H 1231.77 -3.12082 -1.43037 0
M  V30 13108 N 1234.21 1.05064 -1.1747 0
M  V30 13109 C 1235.12 2.16346 -0.907286 0
M  V30 13110 C 1236.14 1.7355 0.125013 0
M  V30 13111 O 1237.32 2.01326 -0.0545551 0
M  V30 13112 C 1234.38 3.44077 -0.425681 0
M  V30 13113 C 1233.44 4.01311 -1.52473 0
M  V30 13114 C 1232.67 5.22946 -1.06601 0
M  V30 13115 O 1232.9 5.70345 0.0793329 0
M  V30 13116 O 1231.83 5.72454 -1.85958 0
M  V30 13117 H 1235.66 2.41754 -1.83817 0
M  V30 13118 H 1233.24 1.14834 -0.955693 0
M  V30 13119 H 1235.12 4.21078 -0.164689 0
M  V30 13120 H 1233.8 3.20166 0.477037 0
M  V30 13121 H 1232.71 3.25744 -1.83961 0
M  V30 13122 H 1234.04 4.29543 -2.4032 0
M  V30 13123 N 1235.69 0.975146 1.23809 0
M  V30 13124 C 1236.62 0.45593 2.23599 0
M  V30 13125 C 1237.6 -0.474069 1.55536 0
M  V30 13126 O 1238.79 -0.40373 1.84126 0
M  V30 13127 C 1235.91 -0.341008 3.36979 0
M  V30 13128 C 1234.96 0.532362 4.23164 0
M  V30 13129 S 1235.79 1.97706 4.97667 0
M  V30 13130 C 1236.95 1.18912 6.145 0
M  V30 13131 H 1237.18 1.30157 2.67295 0
M  V30 13132 H 1234.71 0.78074 1.33206 0
M  V30 13133 H 1236.67 -0.794817 4.02732 0
M  V30 13134 H 1235.33 -1.16171 2.91827 0
M  V30 13135 H 1234.53 -0.0798928 5.03937 0
M  V30 13136 H 1234.13 0.922202 3.62452 0
M  V30 13137 H 1236.42 0.447823 6.76018 0
M  V30 13138 H 1237.36 1.97148 6.80102 0
M  V30 13139 H 1237.77 0.710216 5.60014 0
M  V30 13140 N 1237.17 -1.38817 0.746158 0
M  V30 13141 C 1238.45 -1.94303 0.224841 0
M  V30 13142 C 1238.83 -1.68207 -1.27552 0
M  V30 13143 O 1238.17 -1.01647 -2.04646 0
M  V30 13144 C 1238.38 -3.44306 0.5705 0
M  V30 13145 C 1239.73 -4.21329 0.526015 0
M  V30 13146 O 1240.76 -3.52554 0.508351 0
M  V30 13147 O 1239.62 -5.4392 0.530383 0
M  V30 13148 H 1236.71 -0.825785 0.0448047 0
M  V30 13149 H 1239.26 -1.48253 0.825775 0
M  V30 13150 H 1238.03 -3.56779 1.60701 0
M  V30 13151 H 1237.65 -3.97556 -0.0588271 0
M  V30 13152 N 1238.65 -0.49465 -1.49636 0
M  V30 13153 C 1239.9 0.0539277 -2.01628 0
M  V30 13154 C 1240.21 1.38634 -1.37986 0
M  V30 13155 O 1241.42 2.02123 -1.81269 0
M  V30 13156 C 1239.87 0.146582 -3.59601 0
M  V30 13157 C 1239.48 -1.1788 -4.32213 0
M  V30 13158 C 1241.22 0.645862 -4.19558 0
M  V30 13159 C 1239.13 -1.04866 -5.82028 0
M  V30 13160 H 1238.06 0.0239278 -0.75362 0
M  V30 13161 H 1240.71 -0.633112 -1.72232 0
M  V30 13162 H 1239.09 0.897931 -3.85685 0
M  V30 13163 H 1240.27 -1.94295 -4.17835 0
M  V30 13164 H 1238.58 -1.61102 -3.83973 0
M  V30 13165 H 1241.18 0.76064 -5.29262 0
M  V30 13166 H 1241.52 1.64313 -3.82501 0
M  V30 13167 H 1242.06 -0.04877 -3.9777 0
M  V30 13168 H 1238.79 -2.02 -6.23599 0
M  V30 13169 H 1238.31 -0.325293 -5.98917 0
M  V30 13170 H 1239.99 -0.724799 -6.42927 0
M  V30 13171 N 1240.13 1.55939 -0.228214 0
M  V30 13172 C 1241.4 1.90329 0.451033 0
M  V30 13173 C 1241.78 1.14646 1.77255 0
M  V30 13174 O 1241.13 0.257912 2.2704 0
M  V30 13175 C 1241.34 3.43129 0.637456 0
M  V30 13176 C 1242.69 4.14022 0.94186 0
M  V30 13177 O 1243.71 3.48764 0.724002 0
M  V30 13178 O 1242.57 5.29418 1.35568 0
M  V30 13179 H 1239.67 0.791591 0.2394 0
M  V30 13180 H 1242.21 1.67524 -0.270893 0
M  V30 13181 H 1240.98 3.90191 -0.294435 0
M  V30 13182 H 1240.61 3.71735 1.41062 0
M  V30 13183 O 1241.64 0.0921872 1.61237 0
M  V30 13184 H 1242.33 -0.510845 1.86842 0
M  V30 END ATOM
M  V30 BEGIN BOND
M  V30 END BOND
M  V30 END CTAB
M  END
$$$$
