drugbank_target|P15153 Ras-related C3 botulinum toxin substrate 2 (DB00514)
 OpenBabel12092121003D

  0  0  0     0  0            999 V3000
M  V30 BEGIN CTAB
M  V30 COUNTS 3038 3070 0 0 0
M  V30 BEGIN ATOM
M  V30 1 H -0.908 1.98254 -0.117106 0
M  V30 2 N 0 1.576 0 0
M  V30 3 C 0.933 2.03868 1.02534 0
M  V30 4 C 1.911 0.928543 1.3348 0
M  V30 5 O 3.095 1.19667 1.45644 0
M  V30 6 C 0.222 2.43627 2.35294 0
M  V30 7 C -0.732 3.65373 2.2001 0
M  V30 8 S 0.101 5.13292 1.52614 0
M  V30 9 C 1.257 5.56322 2.86805 0
M  V30 10 H 1.49 2.90518 0.631377 0
M  V30 11 H -0.977 1.52953 0.210867 0
M  V30 12 H 0.981 2.67203 3.11629 0
M  V30 13 H -0.358 1.57376 2.7183 0
M  V30 14 H -1.165 3.90944 3.18086 0
M  V30 15 H -1.563 3.418 1.51819 0
M  V30 16 H 0.729 5.58782 3.83104 0
M  V30 17 H 1.672 6.56266 2.65933 0
M  V30 18 H 2.08 4.83886 2.90714 0
M  V30 19 N 1.4781 -0.272755 1.55222 0
M  V30 20 C 2.4101 -1.35946 1.8453 0
M  V30 21 C 3.4231 -1.45525 0.729818 0
M  V30 22 O 4.6121 -1.47337 1.00767 0
M  V30 23 C 1.7121 -2.74069 1.99347 0
M  V30 24 C 0.8851 -2.87079 3.30007 0
M  V30 25 C -0.0559 -4.05879 3.34886 0
M  V30 26 O -1.0299 -3.96626 4.08261 0
M  V30 27 N 0.1721 -5.17857 2.62307 0
M  V30 28 H 2.9371 -1.11149 2.78327 0
M  V30 29 H 0.4981 -0.462869 1.55142 0
M  V30 30 H 2.4901 -3.51838 1.99981 0
M  V30 31 H 1.0601 -2.91688 1.12415 0
M  V30 32 H 0.2801 -1.96193 3.41909 0
M  V30 33 H 1.5681 -2.92701 4.16177 0
M  V30 34 H 0.9661 -5.28261 2.02377 0
M  V30 35 H -0.4769 -5.93855 2.68663 0
M  V30 36 N 2.9562 -1.48159 -0.537278 0
M  V30 37 C 3.9192 -1.61665 -1.62472 0
M  V30 38 C 4.9192 -0.490395 -1.5314 0
M  V30 39 O 6.1092 -0.755998 -1.5694 0
M  V30 40 C 3.2412 -1.57997 -3.02076 0
M  V30 41 H 4.4342 -2.58621 -1.51839 0
M  V30 42 H 1.9872 -1.36647 -0.758771 0
M  V30 43 H 2.7222 -0.624913 -3.18222 0
M  V30 44 H 2.5072 -2.39755 -3.10258 0
M  V30 45 H 3.9972 -1.70627 -3.81151 0
M  V30 46 N 4.4343 0.785586 -1.36625 0
M  V30 47 C 5.6833 1.53883 -1.30396 0
M  V30 48 C 5.9963 1.95271 0.113452 0
M  V30 49 O 7.2023 2.69858 0.298142 0
M  V30 50 C 5.6583 2.77808 -2.28802 0
M  V30 51 C 5.2663 2.43574 -3.75999 0
M  V30 52 C 7.0103 3.55783 -2.31558 0
M  V30 53 C 4.9173 3.63919 -4.66173 0
M  V30 54 H 3.8473 0.577678 -0.484566 0
M  V30 55 H 6.4983 0.861705 -1.62009 0
M  V30 56 H 4.8803 3.47339 -1.90188 0
M  V30 57 H 6.0543 1.81916 -4.23371 0
M  V30 58 H 4.3693 1.78803 -3.76056 0
M  V30 59 H 6.9663 4.45205 -2.96137 0
M  V30 60 H 7.3093 3.94644 -1.3252 0
M  V30 61 H 7.8423 2.93235 -2.68809 0
M  V30 62 H 4.5813 3.3015 -5.66287 0
M  V30 63 H 4.1013 4.2473 -4.23515 0
M  V30 64 H 5.7803 4.30901 -4.82632 0
M  V30 65 N 5.9124 1.20967 1.01018 0
M  V30 66 C 6.8594 0.964281 2.09691 0
M  V30 67 C 7.8294 -0.107853 1.65749 0
M  V30 68 O 9.0144 0.0381987 1.90762 0
M  V30 69 C 6.1544 0.52943 3.41015 0
M  V30 70 C 5.2674 1.67043 3.98398 0
M  V30 71 C 4.4024 1.18525 5.17808 0
M  V30 72 C 3.4414 2.29892 5.67288 0
M  V30 73 N 2.5784 1.82546 6.77954 0
M  V30 74 H 7.4184 1.89463 2.30017 0
M  V30 75 H 4.9554 0.944289 1.1279 0
M  V30 76 H 6.9134 0.258588 4.16398 0
M  V30 77 H 5.5434 -0.363919 3.20742 0
M  V30 78 H 4.5954 2.05603 3.20049 0
M  V30 79 H 5.9074 2.50877 4.31117 0
M  V30 80 H 5.0614 0.870762 6.00419 0
M  V30 81 H 3.8004 0.316887 4.86669 0
M  V30 82 H 2.8054 2.6215 4.83278 0
M  V30 83 H 4.0304 3.17216 6.00459 0
M  V30 84 H 1.9764 0.980454 6.48632 0
M  V30 85 H 1.8934 2.59956 7.09901 0
M  V30 86 H 3.1614 1.54115 7.64113 0
M  V30 87 N 7.3905 -1.2043 1.01659 0
M  V30 88 C 8.6305 -1.91507 0.714456 0
M  V30 89 C 8.9945 -1.77073 -0.742237 0
M  V30 90 O 10.1955 -2.42631 -1.15688 0
M  V30 91 C 8.4665 -3.38795 1.13809 0
M  V30 92 S 10.0255 -4.28216 0.957925 0
M  V30 93 H 6.8435 -0.661571 0.260471 0
M  V30 94 H 9.4455 -1.45671 1.30384 0
M  V30 95 H 8.1495 -3.46822 2.19415 0
M  V30 96 H 7.6805 -3.89656 0.541474 0
M  V30 97 H 9.6955 -4.96007 -0.138531 0
M  V30 98 N 8.8686 -0.792821 -1.36206 0
M  V30 99 C 10.1146 -0.36733 -1.99446 0
M  V30 100 C 10.4476 1.05917 -1.62774 0
M  V30 101 O 9.7226 1.7324 -0.88421 0
M  V30 102 C 10.0056 -0.535044 -3.56103 0
M  V30 103 C 9.8586 -2.00548 -4.02617 0
M  V30 104 C 11.1776 0.0478191 -4.40074 0
M  V30 105 H 8.2966 -0.134941 -0.724541 0
M  V30 106 H 10.9386 -0.999794 -1.61568 0
M  V30 107 H 9.0886 0.00336329 -3.885 0
M  V30 108 H 10.7606 -2.60521 -3.80692 0
M  V30 109 H 9.0036 -2.50686 -3.54032 0
M  V30 110 H 9.6746 -2.07377 -5.11565 0
M  V30 111 H 12.1506 -0.411822 -4.14057 0
M  V30 112 H 11.0266 -0.0995336 -5.4881 0
M  V30 113 H 11.2876 1.14025 -4.27142 0
M  V30 114 N 10.3467 1.47872 -0.545128 0
M  V30 115 C 11.5927 2.02793 -0.0166104 0
M  V30 116 C 11.9257 1.41987 1.32489 0
M  V30 117 O 11.2007 0.571045 1.85928 0
M  V30 118 C 11.4837 3.59989 0.0893294 0
M  V30 119 C 11.3367 4.3125 -1.27841 0
M  V30 120 C 12.6557 4.32606 0.808724 0
M  V30 121 H 9.7747 0.736962 -0.00751035 0
M  V30 122 H 12.4167 1.76433 -0.705085 0
M  V30 123 H 10.5667 3.82579 0.675681 0
M  V30 124 H 12.2387 4.20035 -1.90704 0
M  V30 125 H 10.4817 3.92076 -1.85632 0
M  V30 126 H 11.1527 5.39736 -1.15713 0
M  V30 127 H 13.6287 4.14936 0.310992 0
M  V30 128 H 12.5047 5.42251 0.851782 0
M  V30 129 H 12.7657 4.00963 1.86229 0
M  V30 130 N 11.8248 0.280983 1.55075 0
M  V30 131 C 13.0708 -0.33461 2.00021 0
M  V30 132 C 13.4038 -1.55063 1.16915 0
M  V30 133 O 12.6788 -1.93006 0.240646 0
M  V30 134 C 12.9618 -0.711007 3.53011 0
M  V30 135 C 12.8148 0.512766 4.46868 0
M  V30 136 C 14.1338 -1.54522 4.12081 0
M  V30 137 H 11.2528 -0.120147 0.727141 0
M  V30 138 H 13.8948 0.389097 1.85973 0
M  V30 139 H 12.0448 -1.32761 3.65112 0
M  V30 140 H 13.7168 1.15131 4.46702 0
M  V30 141 H 11.9598 1.14975 4.18286 0
M  V30 142 H 12.6308 0.205556 5.51617 0
M  V30 143 H 15.1068 -1.02442 4.03293 0
M  V30 144 H 13.9828 -1.77739 5.19327 0
M  V30 145 H 14.2438 -2.52813 3.62682 0
M  V30 146 N 13.3029 -1.57598 0.00835791 0
M  V30 147 C 14.5509 -1.90551 -0.6734 0
M  V30 148 C 14.8719 -0.883301 -1.73847 0
M  V30 149 O 14.1419 0.0781442 -1.95744 0
M  V30 150 H 12.7219 -0.703312 -0.251717 0
M  V30 151 H 15.3839 -1.94833 0.0512592 0
M  V30 152 H 14.4799 -2.9056 -1.13935 0
M  V30 153 N 14.781 0.264519 -1.55364 0
M  V30 154 C 16.058 1.01677 -1.67096 0
M  V30 155 C 16.438 2.03996 -0.543015 0
M  V30 156 O 15.786 2.23907 0.45585 0
M  V30 157 C 15.996 1.66596 -3.0667 0
M  V30 158 C 17.344 2.17442 -3.64697 0
M  V30 159 O 18.368 1.76568 -3.09358 0
M  V30 160 O 17.227 2.92439 -4.61673 0
M  V30 161 H 14.321 0.472161 -0.678965 0
M  V30 162 H 16.867 0.259703 -1.67701 0
M  V30 163 H 15.639 0.924962 -3.80211 0
M  V30 164 H 15.262 2.48968 -3.10001 0
M  V30 165 N 16.2591 1.48442 0.529413 0
M  V30 166 C 17.5071 1.56179 1.28267 0
M  V30 167 C 17.8281 0.237721 1.93546 0
M  V30 168 O 17.0981 -0.740779 1.81354 0
M  V30 169 H 15.6781 0.575367 0.476405 0
M  V30 170 H 18.3401 1.84909 0.61602 0
M  V30 171 H 17.4361 2.34312 2.06165 0
M  V30 172 N 17.7372 -0.778329 1.37039 0
M  V30 173 C 18.7002 -1.87301 1.32102 0
M  V30 174 C 19.7002 -1.59198 0.226405 0
M  V30 175 O 20.8902 -1.67403 0.481861 0
M  V30 176 C 18.0222 -3.24309 1.05055 0
M  V30 177 H 19.2152 -1.93093 2.29467 0
M  V30 178 H 16.7682 -0.977358 1.21973 0
M  V30 179 H 17.5032 -3.24196 0.0819373 0
M  V30 180 H 17.2882 -3.46098 1.84279 0
M  V30 181 H 18.7782 -4.04382 1.04234 0
M  V30 182 N 19.2153 -1.21501 -1.00376 0
M  V30 183 C 20.4613 -1.03452 -1.74429 0
M  V30 184 C 20.7943 0.430764 -1.89362 0
M  V30 185 O 20.0693 1.31962 -1.42886 0
M  V30 186 C 20.3523 -1.73375 -3.15615 0
M  V30 187 C 20.2053 -3.27431 -3.08397 0
M  V30 188 C 21.5243 -1.47732 -4.14564 0
M  V30 189 H 18.6433 -0.377226 -0.633143 0
M  V30 190 H 21.2853 -1.49693 -1.17013 0
M  V30 191 H 19.4353 -1.34064 -3.64636 0
M  V30 192 H 21.1073 -3.76119 -2.67081 0
M  V30 193 H 19.3503 -3.5767 -2.45468 0
M  V30 194 H 20.0213 -3.71524 -4.08258 0
M  V30 195 H 22.4973 -1.8186 -3.74254 0
M  V30 196 H 21.3733 -1.99169 -5.11491 0
M  V30 197 H 21.6343 -0.407589 -4.40217 0
M  V30 198 N 20.6934 1.19889 -1.02296 0
M  V30 199 C 21.9414 1.89046 -0.714558 0
M  V30 200 C 22.2624 1.79636 0.758681 0
M  V30 201 O 21.5324 1.20292 1.54618 0
M  V30 202 H 20.1124 0.699802 -0.261317 0
M  V30 203 H 22.7744 1.45574 -1.29592 0
M  V30 204 H 21.8704 2.95524 -1.0036 0
M  V30 205 N 22.1715 0.800033 1.35784 0
M  V30 206 C 23.1185 0.203848 2.29898 0
M  V30 207 C 24.0885 -0.658375 1.52495 0
M  V30 208 O 25.2735 -0.604832 1.8096 0
M  V30 209 C 22.4135 -0.64688 3.38983 0
M  V30 210 C 21.5265 0.235054 4.3136 0
M  V30 211 C 20.6615 -0.623054 5.27533 0
M  V30 212 C 19.7005 0.259682 6.11549 0
M  V30 213 N 18.8375 -0.558019 6.99879 0
M  V30 214 H 23.6775 1.01186 2.80295 0
M  V30 215 H 21.2145 0.51053 1.37957 0
M  V30 216 H 23.1725 -1.15521 4.00887 0
M  V30 217 H 21.8025 -1.42021 2.89879 0
M  V30 218 H 20.8545 0.861438 3.70518 0
M  V30 219 H 22.1665 0.914768 4.9034 0
M  V30 220 H 21.3205 -1.19678 5.94779 0
M  V30 221 H 20.0595 -1.33636 4.69034 0
M  V30 222 H 19.0645 0.845726 5.43256 0
M  V30 223 H 20.2895 0.970748 6.72126 0
M  V30 224 H 18.2355 -1.25542 6.43875 0
M  V30 225 H 18.1525 0.0637872 7.55973 0
M  V30 226 H 19.4205 -1.11523 7.71481 0
M  V30 227 N 23.6496 -1.47581 0.552962 0
M  V30 228 C 24.8776 -2.06875 0.0320556 0
M  V30 229 C 25.2926 -1.40625 -1.25976 0
M  V30 230 O 24.6496 -0.501349 -1.75479 0
M  V30 231 C 24.7006 -3.61092 -0.17167 0
M  V30 232 O 24.4216 -4.24858 1.06899 0
M  V30 233 C 25.9226 -4.37242 -0.730344 0
M  V30 234 H 23.1426 -0.669561 0.043915 0
M  V30 235 H 25.6866 -1.89646 0.765163 0
M  V30 236 H 23.8416 -3.7785 -0.854894 0
M  V30 237 H 24.2556 -5.17334 0.864059 0
M  V30 238 H 25.7296 -5.45842 -0.822203 0
M  V30 239 H 26.2066 -4.03235 -1.74064 0
M  V30 240 H 26.8126 -4.25219 -0.0829543 0
M  V30 241 N 25.1277 -0.289203 -1.54924 0
M  V30 242 C 26.3677 0.324536 -2.01807 0
M  V30 243 C 26.7317 1.5199 -1.17316 0
M  V30 244 O 27.9327 2.20422 -1.53843 0
M  V30 245 C 26.2037 0.683578 -3.50802 0
M  V30 246 S 27.7627 1.28185 -4.19659 0
M  V30 247 H 24.5807 0.100236 -0.703899 0
M  V30 248 H 27.1827 -0.414325 -1.91059 0
M  V30 249 H 25.8867 -0.195073 -4.09936 0
M  V30 250 H 25.4177 1.45354 -3.65562 0
M  V30 251 H 27.4327 2.57006 -4.24456 0
M  V30 252 N 26.6058 1.57591 -0.0167156 0
M  V30 253 C 27.5358 2.12496 0.967858 0
M  V30 254 C 28.5168 1.03807 1.34752 0
M  V30 255 O 29.7018 1.31577 1.42833 0
M  V30 256 C 26.8318 2.64194 2.25431 0
M  V30 257 C 25.7858 3.77559 2.01576 0
M  V30 258 C 25.1118 4.15636 3.36379 0
M  V30 259 C 26.4118 5.04151 1.36489 0
M  V30 260 H 28.1058 2.95013 0.510643 0
M  V30 261 H 25.6518 1.41915 0.244181 0
M  V30 262 H 27.6048 3.01236 2.94678 0
M  V30 263 H 26.3288 1.78821 2.73296 0
M  V30 264 H 24.9878 3.40937 1.34751 0
M  V30 265 H 24.6358 3.27263 3.81979 0
M  V30 266 H 24.3358 4.92022 3.21229 0
M  V30 267 H 25.8598 4.5525 4.06915 0
M  V30 268 H 27.2738 5.38857 1.95718 0
M  V30 269 H 25.6708 5.85453 1.31776 0
M  V30 270 H 26.7408 4.83733 0.336219 0
M  V30 271 N 28.0839 -0.256276 1.55502 0
M  V30 272 C 29.0139 -1.32102 1.92539 0
M  V30 273 C 29.9949 -1.50684 0.789194 0
M  V30 274 O 31.1799 -1.63449 1.04872 0
M  V30 275 C 28.3099 -2.67752 2.21192 0
M  V30 276 C 27.2639 -2.63878 3.36975 0
M  V30 277 C 26.5899 -4.03236 3.51147 0
M  V30 278 C 27.8899 -2.21682 4.72921 0
M  V30 279 H 29.5839 -1.01351 2.81724 0
M  V30 280 H 27.1299 -0.486105 1.35547 0
M  V30 281 H 29.0829 -3.42365 2.45691 0
M  V30 282 H 27.8069 -3.0012 1.28824 0
M  V30 283 H 26.4659 -1.91722 3.12471 0
M  V30 284 H 26.1139 -4.32854 2.56216 0
M  V30 285 H 25.8139 -4.01535 4.29003 0
M  V30 286 H 27.3379 -4.79563 3.77957 0
M  V30 287 H 28.7519 -2.86023 4.96854 0
M  V30 288 H 27.1489 -2.3111 5.53812 0
M  V30 289 H 28.2189 -1.16833 4.70615 0
M  V30 290 N 29.562 -1.4872 -0.521534 0
M  V30 291 C 30.811 -1.56419 -1.27341 0
M  V30 292 C 31.124 -0.246805 -1.94037 0
M  V30 293 O 32.33 -0.202122 -2.70747 0
M  V30 294 C 30.786 -2.75896 -2.31105 0
M  V30 295 C 30.394 -4.14311 -1.70441 0
M  V30 296 C 32.138 -2.92913 -3.07249 0
M  V30 297 C 30.045 -5.25038 -2.72194 0
M  V30 298 H 28.975 -0.582344 -0.478949 0
M  V30 299 H 31.626 -1.75071 -0.549779 0
M  V30 300 H 30.008 -2.50697 -3.06541 0
M  V30 301 H 31.182 -4.49564 -1.01136 0
M  V30 302 H 29.497 -4.02482 -1.06759 0
M  V30 303 H 32.094 -3.72805 -3.83302 0
M  V30 304 H 32.437 -2.02689 -3.63625 0
M  V30 305 H 32.97 -3.18054 -2.38928 0
M  V30 306 H 29.709 -6.17255 -2.20627 0
M  V30 307 H 29.229 -4.94263 -3.39801 0
M  V30 308 H 30.908 -5.53508 -3.35019 0
M  V30 309 N 31.0401 0.771051 -1.3745 0
M  V30 310 C 32.2651 1.56529 -1.36065 0
M  V30 311 C 32.6901 1.88029 0.0515859 0
M  V30 312 O 32.0481 1.49282 1.02882 0
M  V30 313 C 32.0961 2.85187 -2.20683 0
M  V30 314 O 31.2001 3.79593 -1.61193 0
M  V30 315 H 30.5411 0.47411 -0.464883 0
M  V30 316 H 33.0711 0.954269 -1.80983 0
M  V30 317 H 33.0811 3.34283 -2.33921 0
M  V30 318 H 31.7561 2.61588 -3.23334 0
M  V30 319 H 30.3331 3.38239 -1.56999 0
M  V30 320 N 32.5182 1.22032 0.997298 0
M  V30 321 C 33.7482 1.06686 1.76923 0
M  V30 322 C 34.1562 -0.385838 1.85224 0
M  V30 323 O 33.4992 -1.27929 1.31833 0
M  V30 324 C 33.5612 1.59802 3.22031 0
M  V30 325 C 33.2252 3.08362 3.37286 0
M  V30 326 C 34.2222 4.05835 3.24952 0
M  V30 327 C 31.9072 3.47727 3.6248 0
M  V30 328 C 33.9012 5.4066 3.37588 0
M  V30 329 C 31.5882 4.82701 3.74757 0
M  V30 330 C 32.5862 5.78977 3.62319 0
M  V30 331 O 32.2742 7.11502 3.74193 0
M  V30 332 H 32.0062 0.374767 0.562606 0
M  V30 333 H 34.5602 1.61991 1.26286 0
M  V30 334 H 32.7902 0.989003 3.73839 0
M  V30 335 H 34.4792 1.40184 3.80924 0
M  V30 336 H 35.2452 3.76766 3.05405 0
M  V30 337 H 31.1242 2.73317 3.7124 0
M  V30 338 H 34.6682 6.15788 3.27796 0
M  V30 339 H 30.5652 5.11453 3.9381 0
M  V30 340 H 31.3332 7.19019 3.91093 0
M  V30 341 N 33.9963 -1.19345 1.0293 0
M  V30 342 C 35.2243 -1.92997 0.745644 0
M  V30 343 C 35.6393 -1.75519 -0.695589 0
M  V30 344 O 34.9963 -1.07737 -1.47306 0
M  V30 345 C 35.0473 -3.44741 1.08792 0
M  V30 346 O 34.7683 -3.61658 2.47256 0
M  V30 347 C 36.2693 -4.35515 0.827129 0
M  V30 348 H 33.4893 -0.613042 0.272801 0
M  V30 349 H 36.0333 -1.51473 1.3739 0
M  V30 350 H 34.1883 -3.84097 0.504832 0
M  V30 351 H 34.6023 -4.55514 2.60015 0
M  V30 352 H 36.0763 -5.40589 1.11658 0
M  V30 353 H 36.5533 -4.38552 -0.238436 0
M  V30 354 H 37.1593 -4.01841 1.39297 0
M  V30 355 N 35.4744 -0.807222 -1.35358 0
M  V30 356 C 36.7024 -0.400377 -2.02989 0
M  V30 357 C 37.1174 0.988859 -1.60832 0
M  V30 358 O 36.4744 1.63729 -0.806175 0
M  V30 359 C 36.5254 -0.474867 -3.58368 0
M  V30 360 O 36.2464 -1.80933 -3.98992 0
M  V30 361 C 37.7474 -0.0609112 -4.43258 0
M  V30 362 H 34.9674 -0.162587 -0.651004 0
M  V30 363 H 37.5114 -1.09102 -1.72965 0
M  V30 364 H 35.6664 0.167534 -3.87038 0
M  V30 365 H 36.0804 -1.77256 -4.9364 0
M  V30 366 H 37.5544 -0.164145 -5.51756 0
M  V30 367 H 38.0314 0.993831 -4.27808 0
M  V30 368 H 38.6374 -0.676492 -4.19885 0
M  V30 369 N 36.9525 1.47285 -0.560781 0
M  V30 370 C 37.9005 2.31756 0.197942 0
M  V30 371 C 38.8945 1.43146 0.905854 0
M  V30 372 O 40.1005 1.59891 0.826733 0
M  V30 373 H 36.4755 0.747438 0.0827049 0
M  V30 374 H 38.4465 2.9359 -0.533629 0
M  V30 375 C 37.1955 3.25874 1.21249 0
M  V30 376 H 36.5185 3.94023 0.67719 0
M  V30 377 H 37.9585 3.87803 1.71419 0
M  V30 378 C 36.4175 2.49651 2.26221 0
M  V30 379 O 36.9475 2.24355 3.33208 0
M  V30 380 N 35.1535 2.10597 2.00243 0
M  V30 381 H 34.7005 2.31369 1.13252 0
M  V30 382 H 34.6585 1.59913 2.70694 0
M  V30 383 N 38.4306 0.297415 1.54768 0
M  V30 384 C 39.3936 -0.567375 2.22066 0
M  V30 385 C 40.3936 -1.06409 1.20556 0
M  V30 386 O 41.5836 -0.960691 1.45315 0
M  V30 387 C 38.7156 -1.78517 2.90421 0
M  V30 388 H 39.9086 0.0205534 2.99893 0
M  V30 389 H 37.4616 0.0482163 1.56226 0
M  V30 390 H 38.1966 -2.41303 2.16664 0
M  V30 391 H 37.9816 -1.43669 3.64831 0
M  V30 392 H 39.4716 -2.39964 3.41771 0
M  V30 393 N 39.9087 -1.5758 0.0250728 0
M  V30 394 C 41.1557 -1.91633 -0.654444 0
M  V30 395 C 41.4837 -0.901103 -1.72367 0
M  V30 396 O 40.7387 0.0905647 -1.9549 0
M  V30 397 C 41.0377 -3.32421 -1.31268 0
M  V30 398 C 40.7037 -4.49344 -0.374223 0
M  V30 399 C 39.3657 -4.8106 -0.115911 0
M  V30 400 C 41.7177 -5.20498 0.270432 0
M  V30 401 C 39.0457 -5.8129 0.79493 0
M  V30 402 C 41.3977 -6.21699 1.1693 0
M  V30 403 C 40.0617 -6.51859 1.43655 0
M  V30 404 H 39.3317 -0.701236 -0.239478 0
M  V30 405 H 41.9787 -1.91307 0.0859734 0
M  V30 406 H 40.2837 -3.28989 -2.12775 0
M  V30 407 H 41.9807 -3.56038 -1.84494 0
M  V30 408 H 38.5707 -4.24579 -0.58573 0
M  V30 409 H 42.7547 -4.96229 0.0839194 0
M  V30 410 H 38.0107 -6.03005 1.00973 0
M  V30 411 H 42.1847 -6.75955 1.67504 0
M  V30 412 H 39.8117 -7.2934 2.144 0
M  V30 413 N 41.3868 0.248026 -1.55636 0
M  V30 414 C 42.7978 0.817177 -1.67866 0
M  V30 415 C 43.1488 1.86069 -0.622322 0
M  V30 416 O 42.2738 2.15157 0.231618 0
M  V30 417 C 42.8688 1.489 -3.04326 0
M  V30 418 C 41.4278 2.00587 -3.185 0
M  V30 419 C 40.5748 0.856573 -2.63739 0
M  V30 420 H 43.5258 0.0238579 -1.58682 0
M  V30 421 H 43.5468 2.35698 -2.98708 0
M  V30 422 H 43.0588 0.729279 -3.81186 0
M  V30 423 H 41.1598 2.79443 -2.4646 0
M  V30 424 H 41.2728 2.20402 -4.25393 0
M  V30 425 H 39.6368 1.25678 -2.21534 0
M  V30 426 H 40.4198 0.109953 -3.43124 0
M  V30 427 N 42.8649 1.48995 0.513639 0
M  V30 428 C 44.1129 1.57531 1.26604 0
M  V30 429 C 44.4339 0.258236 1.93283 0
M  V30 430 O 43.7039 -0.721502 1.8213 0
M  V30 431 H 42.2839 0.580387 0.470276 0
M  V30 432 H 44.9459 1.85552 0.596373 0
M  V30 433 H 44.0419 2.36486 2.03669 0
M  V30 434 N 44.343 -0.763751 1.37857 0
M  V30 435 C 45.253 -1.90817 1.36478 0
M  V30 436 C 46.269 -1.71997 0.263248 0
M  V30 437 O 47.445 -1.95095 0.499979 0
M  V30 438 C 44.51 -3.2605 1.17864 0
M  V30 439 C 43.571 -3.57467 2.3773 0
M  V30 440 C 42.804 -4.86249 2.19995 0
M  V30 441 O 43.027 -5.57884 1.18836 0
M  V30 442 O 41.961 -5.16911 3.08361 0
M  V30 443 H 45.787 -1.94933 2.32884 0
M  V30 444 H 43.372 -0.907619 1.1867 0
M  V30 445 H 45.254 -4.06924 1.09504 0
M  V30 446 H 43.929 -3.22769 0.245372 0
M  V30 447 H 42.836 -2.76796 2.51664 0
M  V30 448 H 44.169 -3.655 3.29652 0
M  V30 449 N 45.8211 -1.22559 -0.990812 0
M  V30 450 C 47.0511 -1.07623 -1.76355 0
M  V30 451 C 47.4591 0.37601 -1.85426 0
M  V30 452 O 46.8021 1.27228 -1.32509 0
M  V30 453 C 46.8641 -1.61507 -3.21179 0
M  V30 454 C 46.5281 -3.10146 -3.35646 0
M  V30 455 C 47.5251 -4.07553 -3.22796 0
M  V30 456 C 45.2101 -3.49644 -3.60631 0
M  V30 457 C 47.2041 -5.42442 -3.34716 0
M  V30 458 C 44.8911 -4.84682 -3.72192 0
M  V30 459 C 45.8891 -5.8089 -3.59243 0
M  V30 460 O 45.5771 -7.13476 -3.70415 0
M  V30 461 H 45.3091 -0.377745 -0.560611 0
M  V30 462 H 47.8631 -1.62658 -1.25425 0
M  V30 463 H 46.0931 -1.00881 -3.73309 0
M  V30 464 H 47.7821 -1.42202 -3.80175 0
M  V30 465 H 48.5481 -3.78381 -3.03403 0
M  V30 466 H 44.4271 -2.75282 -3.69785 0
M  V30 467 H 47.9711 -6.17518 -3.24526 0
M  V30 468 H 43.8681 -5.13534 -3.91092 0
M  V30 469 H 44.6361 -7.21083 -3.87275 0
M  V30 470 N 47.2992 1.18797 -1.03562 0
M  V30 471 C 48.5482 1.87978 -0.731235 0
M  V30 472 C 48.8612 1.80911 0.743671 0
M  V30 473 O 50.0672 2.45407 1.16137 0
M  V30 474 C 48.5232 3.3721 -1.25768 0
M  V30 475 C 48.1312 3.52818 -2.76085 0
M  V30 476 C 49.8752 4.11825 -1.0296 0
M  V30 477 C 47.7822 4.9598 -3.22114 0
M  V30 478 H 46.7122 0.704063 -0.269835 0
M  V30 479 H 49.3632 1.34266 -1.25079 0
M  V30 480 H 47.7452 3.90359 -0.666011 0
M  V30 481 H 48.9192 3.09965 -3.40966 0
M  V30 482 H 47.2342 2.91602 -2.97249 0
M  V30 483 H 49.8312 5.17411 -1.34869 0
M  V30 484 H 50.1742 4.16287 0.0333546 0
M  V30 485 H 50.7072 3.64833 -1.58562 0
M  V30 486 H 47.4462 4.96684 -4.27768 0
M  V30 487 H 46.9662 5.39569 -2.61965 0
M  V30 488 H 48.6452 5.6467 -3.15844 0
M  V30 489 N 48.7773 0.814389 1.34928 0
M  V30 490 C 50.1883 0.458364 1.80986 0
M  V30 491 C 50.5393 -1.02042 1.67577 0
M  V30 492 O 49.6643 -1.79352 1.21086 0
M  V30 493 C 50.2593 0.825212 3.28597 0
M  V30 494 C 48.8183 0.521677 3.72767 0
M  V30 495 C 47.9653 1.04668 2.56788 0
M  V30 496 H 50.9163 1.00533 1.22795 0
M  V30 497 H 50.9373 0.12571 3.80292 0
M  V30 498 H 50.4493 1.90154 3.38324 0
M  V30 499 H 48.5503 -0.545589 3.68584 0
M  V30 500 H 48.6633 1.05977 4.67232 0
M  V30 501 H 47.0273 0.468622 2.50352 0
M  V30 502 H 47.8103 2.12927 2.6929 0
M  V30 503 N 50.2554 -1.46986 0.568584 0
M  V30 504 C 51.4834 -2.0683 0.0539956 0
M  V30 505 C 51.8984 -1.41953 -1.24478 0
M  V30 506 O 51.2554 -0.519933 -1.74937 0
M  V30 507 C 51.3064 -3.61254 -0.133362 0
M  V30 508 O 51.0274 -4.237 1.11399 0
M  V30 509 C 52.5284 -4.37992 -0.683927 0
M  V30 510 H 49.7484 -0.669058 0.0510141 0
M  V30 511 H 52.2924 -1.88824 0.785234 0
M  V30 512 H 50.4474 -3.78735 -0.81477 0
M  V30 513 H 50.8614 -5.16388 0.91888 0
M  V30 514 H 52.3354 -5.46684 -0.764263 0
M  V30 515 H 52.8124 -4.05058 -1.69778 0
M  V30 516 H 53.4184 -4.25283 -0.0378494 0
M  V30 517 N 51.7335 -0.305618 -1.54608 0
M  V30 518 C 52.9795 0.302746 -2.00528 0
M  V30 519 C 53.3125 1.53184 -1.19367 0
M  V30 520 O 52.5875 1.92598 -0.271321 0
M  V30 521 C 52.8705 0.654756 -3.54097 0
M  V30 522 C 52.7235 -0.583793 -4.45995 0
M  V30 523 C 54.0425 1.47947 -4.14487 0
M  V30 524 H 51.1615 0.108564 -0.72896 0
M  V30 525 H 53.8035 -0.418634 -1.85331 0
M  V30 526 H 51.9535 1.26935 -3.67178 0
M  V30 527 H 53.6255 -1.22224 -4.44814 0
M  V30 528 H 51.8685 -1.21615 -4.16404 0
M  V30 529 H 52.5395 -0.293287 -5.5122 0
M  V30 530 H 55.0155 0.96013 -4.04871 0
M  V30 531 H 53.8915 1.69454 -5.22088 0
M  V30 532 H 54.1525 2.47011 -3.66658 0
M  V30 533 N 53.2116 1.57565 -0.0334293 0
M  V30 534 C 54.4586 1.91978 0.644272 0
M  V30 535 C 54.7866 0.910231 1.71887 0
M  V30 536 O 54.0416 -0.0801961 1.95536 0
M  V30 537 C 54.3406 3.33112 1.29504 0
M  V30 538 C 54.0066 4.49537 0.350388 0
M  V30 539 C 52.6686 4.81115 0.0903974 0
M  V30 540 C 55.0206 5.20347 -0.298032 0
M  V30 541 C 52.3486 5.8086 -0.825746 0
M  V30 542 C 54.7006 6.2107 -1.20226 0
M  V30 543 C 53.3646 6.51088 -1.4711 0
M  V30 544 H 52.6346 0.702496 0.235756 0
M  V30 545 H 55.2816 1.91259 -0.0961176 0
M  V30 546 H 53.5866 3.30113 2.11028 0
M  V30 547 H 55.2836 3.57011 1.82603 0
M  V30 548 H 51.8736 4.24883 0.563205 0
M  V30 549 H 56.0576 4.96178 -0.110234 0
M  V30 550 H 51.3136 6.02461 -1.04169 0
M  V30 551 H 55.4876 6.75057 -1.71086 0
M  V30 552 H 53.1146 7.28193 -2.18264 0
M  V30 553 N 54.6897 -0.239769 1.55765 0
M  V30 554 C 55.9667 -0.990056 1.68693 0
M  V30 555 C 56.3467 -2.03107 0.5754 0
M  V30 556 O 55.6947 -2.24604 -0.42017 0
M  V30 557 C 55.9047 -1.61696 3.09282 0
M  V30 558 C 57.2527 -2.11613 3.6811 0
M  V30 559 O 58.2767 -1.71624 3.12127 0
M  V30 560 O 57.1357 -2.85057 4.66267 0
M  V30 561 H 54.2297 -0.461299 0.686391 0
M  V30 562 H 56.7757 -0.232991 1.68093 0
M  V30 563 H 55.5477 -0.864357 3.81634 0
M  V30 564 H 55.1707 -2.44005 3.13923 0
M  V30 565 N 56.1678 -1.49265 -0.50573 0
M  V30 566 C 57.1158 -1.66065 -1.62866 0
M  V30 567 C 58.1098 -0.526636 -1.61006 0
M  V30 568 O 59.3158 -0.706126 -1.65571 0
M  V30 569 H 55.6908 -0.52356 -0.539805 0
M  V30 570 H 57.6618 -2.60329 -1.45848 0
M  V30 571 C 56.4108 -1.74008 -3.01026 0
M  V30 572 H 55.7338 -2.6064 -3.03161 0
M  V30 573 H 57.1738 -1.89798 -3.79147 0
M  V30 574 C 55.6328 -0.483868 -3.33407 0
M  V30 575 O 56.1628 0.392548 -3.99777 0
M  V30 576 N 54.3688 -0.348236 -2.88506 0
M  V30 577 H 53.9158 -1.06242 -2.34671 0
M  V30 578 H 53.8738 0.491204 -3.10539 0
M  V30 579 N 57.6459 0.756429 -1.3826 0
M  V30 580 C 58.8759 1.54341 -1.3734 0
M  V30 581 C 59.2839 1.89159 0.0393917 0
M  V30 582 O 58.6269 1.5307 1.01565 0
M  V30 583 C 58.6889 2.87238 -2.16182 0
M  V30 584 C 58.3529 2.74973 -3.65019 0
M  V30 585 C 59.3499 2.44962 -4.58574 0
M  V30 586 C 57.0349 2.92515 -4.08338 0
M  V30 587 C 59.0289 2.32642 -5.93428 0
M  V30 588 C 56.7159 2.79815 -5.43274 0
M  V30 589 C 57.7139 2.49921 -6.35632 0
M  V30 590 O 57.4019 2.37275 -7.68086 0
M  V30 591 H 57.1339 0.484281 -0.471643 0
M  V30 592 H 59.6879 0.944152 -1.82414 0
M  V30 593 H 57.9179 3.49342 -1.65822 0
M  V30 594 H 59.6069 3.48731 -2.07705 0
M  V30 595 H 60.3729 2.31081 -4.26412 0
M  V30 596 H 56.2519 3.14781 -3.368 0
M  V30 597 H 59.7959 2.0923 -6.65484 0
M  V30 598 H 55.6929 2.93269 -5.75034 0
M  V30 599 H 56.4609 2.52509 -7.78577 0
M  V30 600 N 59.124 1.23083 0.984299 0
M  V30 601 C 60.349 1.088 1.76571 0
M  V30 602 C 60.774 -0.356657 1.84688 0
M  V30 603 O 60.132 -1.25788 1.30565 0
M  V30 604 C 60.18 1.71371 3.17277 0
M  V30 605 O 59.284 0.973213 4.00752 0
M  V30 606 H 58.625 0.381599 0.543395 0
M  V30 607 H 61.155 1.63057 1.23587 0
M  V30 608 H 61.165 1.76449 3.67872 0
M  V30 609 H 59.84 2.76493 3.10684 0
M  V30 610 H 58.417 0.999078 3.59267 0
M  V30 611 N 60.6021 -1.18246 1.0419 0
M  V30 612 C 61.5651 -2.20128 0.638452 0
M  V30 613 C 62.5651 -1.57885 -0.304805 0
M  V30 614 O 63.7551 -1.73967 -0.0900369 0
M  V30 615 C 60.8871 -3.4084 -0.0637751 0
M  V30 616 H 62.0801 -2.57336 1.54007 0
M  V30 617 H 59.6331 -1.32152 0.834598 0
M  V30 618 H 60.3681 -3.09166 -0.979136 0
M  V30 619 H 60.1531 -3.8726 0.614198 0
M  V30 620 H 61.6431 -4.16274 -0.332512 0
M  V30 621 N 62.0802 -0.821533 -1.34494 0
M  V30 622 C 63.0282 -0.230702 -2.31453 0
M  V30 623 C 64.0222 0.627793 -1.57338 0
M  V30 624 O 65.2282 0.519288 -1.72347 0
M  V30 625 H 61.6032 -0.0558577 -0.749923 0
M  V30 626 H 63.5742 -1.06332 -2.78812 0
M  V30 627 C 62.3232 0.59391 -3.4259 0
M  V30 628 H 61.6462 -0.0573588 -3.99759 0
M  V30 629 H 63.0862 0.973446 -4.12674 0
M  V30 630 C 61.5452 1.76568 -2.86924 0
M  V30 631 O 62.0752 2.8638 -2.81691 0
M  V30 632 N 60.2812 1.58198 -2.43766 0
M  V30 633 H 59.8282 0.68872 -2.48222 0
M  V30 634 H 59.7862 2.36752 -2.06871 0
M  V30 635 N 63.5583 1.46682 -0.576371 0
M  V30 636 C 64.8043 2.02712 -0.0596221 0
M  V30 637 C 65.1373 1.44765 1.29448 0
M  V30 638 O 64.4123 0.610355 1.84675 0
M  V30 639 C 64.6953 3.60098 0.0129503 0
M  V30 640 C 64.5483 4.28441 -1.3696 0
M  V30 641 C 65.8673 4.34224 0.71678 0
M  V30 642 H 62.9863 0.736637 -0.0231407 0
M  V30 643 H 65.6283 1.74898 -0.742351 0
M  V30 644 H 63.7783 3.83926 0.594378 0
M  V30 645 H 65.4503 4.15896 -1.9957 0
M  V30 646 H 63.6933 3.8805 -1.93907 0
M  V30 647 H 64.3643 5.3716 -1.27135 0
M  V30 648 H 66.8403 4.15503 0.222908 0
M  V30 649 H 65.7163 5.43936 0.73657 0
M  V30 650 H 65.9773 4.04823 1.77682 0
M  V30 651 N 65.0364 0.313813 1.54444 0
M  V30 652 C 65.9694 -0.598866 2.20202 0
M  V30 653 C 66.9474 -1.12318 1.17573 0
M  V30 654 O 68.1314 -1.18899 1.46271 0
M  V30 655 C 65.2584 -1.82071 2.85601 0
M  V30 656 C 64.3044 -1.42851 4.01865 0
M  V30 657 S 65.1374 -0.473512 5.33402 0
M  V30 658 C 66.2934 -1.70286 6.0229 0
M  V30 659 H 66.5264 -0.0402532 2.97273 0
M  V30 660 H 64.0594 0.0979165 1.54089 0
M  V30 661 H 66.0174 -2.52184 3.23904 0
M  V30 662 H 64.6784 -2.3505 2.08351 0
M  V30 663 H 63.8714 -2.33871 4.46453 0
M  V30 664 H 63.4734 -0.807198 3.65185 0
M  V30 665 H 65.7654 -2.64168 6.23876 0
M  V30 666 H 66.7084 -1.29932 6.96077 0
M  V30 667 H 67.1164 -1.88541 5.32083 0
M  V30 668 N 66.5145 -1.57545 0.0417849 0
M  V30 669 C 67.7605 -1.92601 -0.635021 0
M  V30 670 C 68.0935 -0.919627 -1.71045 0
M  V30 671 O 67.3685 0.0557892 -1.9442 0
M  V30 672 C 67.6515 -3.38085 -1.23979 0
M  V30 673 C 67.5045 -4.49467 -0.173057 0
M  V30 674 C 68.8235 -3.83776 -2.15416 0
M  V30 675 H 65.9425 -0.700397 -0.229374 0
M  V30 676 H 68.5845 -1.89728 0.101633 0
M  V30 677 H 66.7345 -3.40664 -1.86762 0
M  V30 678 H 68.4065 -4.59018 0.458312 0
M  V30 679 H 66.6495 -4.30909 0.499996 0
M  V30 680 H 67.3205 -5.48323 -0.636054 0
M  V30 681 H 69.7965 -3.83013 -1.62605 0
M  V30 682 H 68.6725 -4.8624 -2.54679 0
M  V30 683 H 68.9335 -3.19998 -3.05047 0
M  V30 684 N 67.9926 0.231505 -1.5589 0
M  V30 685 C 69.2696 0.981096 -1.69215 0
M  V30 686 C 69.6496 2.02799 -0.586164 0
M  V30 687 O 68.9976 2.24823 0.408253 0
M  V30 688 C 69.2076 1.60054 -3.10135 0
M  V30 689 C 70.5556 2.09658 -3.69227 0
M  V30 690 O 71.5796 1.69967 -3.13033 0
M  V30 691 O 70.4386 2.8258 -4.67772 0
M  V30 692 H 67.5326 0.457653 -0.688827 0
M  V30 693 H 70.0786 0.224073 -1.68214 0
M  V30 694 H 68.8506 0.844105 -3.82087 0
M  V30 695 H 68.4736 2.42336 -3.15212 0
M  V30 696 N 69.4707 1.49531 0.497807 0
M  V30 697 C 70.6957 1.63159 1.28039 0
M  V30 698 C 71.1207 0.30418 1.85624 0
M  V30 699 O 70.4787 -0.728618 1.66015 0
M  V30 700 C 70.5267 2.70537 2.38416 0
M  V30 701 O 69.6307 2.29931 3.42353 0
M  V30 702 H 68.9717 0.546001 0.377861 0
M  V30 703 H 71.5017 1.9574 0.59558 0
M  V30 704 H 71.5117 2.92802 2.84132 0
M  V30 705 H 70.1867 3.6689 1.95869 0
M  V30 706 H 68.7637 2.18009 3.02533 0
M  V30 707 N 70.9488 -0.749086 1.3866 0
M  V30 708 C 71.8958 -1.86291 1.36251 0
M  V30 709 C 72.8658 -1.64578 0.224347 0
M  V30 710 O 74.0508 -1.86181 0.417279 0
M  V30 711 C 71.1908 -3.23644 1.19786 0
M  V30 712 C 70.3038 -3.57158 2.43027 0
M  V30 713 C 69.4388 -4.83838 2.19258 0
M  V30 714 C 68.4778 -5.10152 3.38247 0
M  V30 715 N 67.6148 -6.28029 3.13884 0
M  V30 716 H 72.4548 -1.87685 2.3147 0
M  V30 717 H 69.9918 -0.917287 1.14997 0
M  V30 718 H 71.9498 -4.0291 1.08254 0
M  V30 719 H 70.5798 -3.21566 0.282031 0
M  V30 720 H 69.6318 -2.72701 2.65214 0
M  V30 721 H 70.9438 -3.7253 3.31697 0
M  V30 722 H 70.0978 -5.71057 2.04888 0
M  V30 723 H 68.8368 -4.70614 1.2796 0
M  V30 724 H 67.8418 -4.21401 3.53131 0
M  V30 725 H 69.0668 -5.25271 4.30427 0
M  V30 726 H 67.0128 -6.1612 2.25238 0
M  V30 727 H 66.9298 -6.43922 3.96106 0
M  V30 728 H 68.1978 -7.18124 3.03179 0
M  V30 729 N 72.4269 -1.23603 -0.977757 0
M  V30 730 C 73.8379 -1.06424 -1.53398 0
M  V30 731 C 74.1889 0.367578 -1.92726 0
M  V30 732 O 73.3139 1.25465 -1.76316 0
M  V30 733 C 73.9089 -1.92568 -2.78753 0
M  V30 734 C 72.4679 -1.79642 -3.30765 0
M  V30 735 C 71.6149 -1.88111 -2.03739 0
M  V30 736 H 74.5659 -1.37227 -0.797152 0
M  V30 737 H 74.5869 -1.45203 -3.51705 0
M  V30 738 H 74.0989 -2.96771 -2.50098 0
M  V30 739 H 72.1999 -0.782325 -3.64294 0
M  V30 740 H 72.3129 -2.63174 -4.00345 0
M  V30 741 H 70.6769 -1.31723 -2.17994 0
M  V30 742 H 71.4599 -2.93875 -1.77461 0
M  V30 743 N 73.905 1.17692 -1.04816 0
M  V30 744 C 75.151 1.88137 -0.75711 0
M  V30 745 C 75.484 1.80604 0.713841 0
M  V30 746 O 74.759 1.21146 1.52164 0
M  V30 747 C 75.042 3.38318 -1.2334 0
M  V30 748 C 74.895 3.54622 -2.76701 0
M  V30 749 C 76.214 4.32214 -0.829415 0
M  V30 750 H 73.333 0.683163 -0.27651 0
M  V30 751 H 75.975 1.38424 -1.30149 0
M  V30 752 H 74.125 3.80787 -0.770286 0
M  V30 753 H 75.797 3.21194 -3.31107 0
M  V30 754 H 74.04 2.97026 -3.16161 0
M  V30 755 H 74.711 4.60028 -3.05088 0
M  V30 756 H 77.187 3.97565 -1.22805 0
M  V30 757 H 76.063 5.35838 -1.19033 0
M  V30 758 H 76.324 4.41294 0.266891 0
M  V30 759 N 75.3831 0.828654 1.34056 0
M  V30 760 C 76.3311 0.242973 2.31327 0
M  V30 761 C 77.3251 -0.61944 1.57668 0
M  V30 762 O 78.5311 -0.51014 1.7262 0
M  V30 763 H 74.9061 0.059834 0.749616 0
M  V30 764 H 76.8771 1.07809 2.78244 0
M  V30 765 C 75.6261 -0.575733 3.429 0
M  V30 766 H 74.9491 0.0785582 3.99723 0
M  V30 767 H 76.3891 -0.951547 4.13185 0
M  V30 768 C 74.8481 -1.75044 2.87856 0
M  V30 769 O 75.3781 -2.84882 2.83205 0
M  V30 770 N 73.5841 -1.56903 2.44602 0
M  V30 771 H 73.1311 -0.675547 2.48584 0
M  V30 772 H 73.0891 -2.35652 2.08124 0
M  V30 773 N 76.8612 -1.46375 0.584142 0
M  V30 774 C 77.7912 -2.33103 -0.136037 0
M  V30 775 C 78.7722 -1.45431 -0.882255 0
M  V30 776 O 79.9572 -1.74246 -0.857434 0
M  V30 777 C 77.0872 -3.27731 -1.14933 0
M  V30 778 C 76.0412 -4.24855 -0.517862 0
M  V30 779 C 75.3672 -5.09001 -1.63773 0
M  V30 780 C 76.6672 -5.19439 0.545886 0
M  V30 781 H 78.3612 -2.93568 0.588086 0
M  V30 782 H 75.9072 -1.41166 0.284259 0
M  V30 783 H 77.8602 -3.87261 -1.66153 0
M  V30 784 H 76.5842 -2.65377 -1.90375 0
M  V30 785 H 75.2432 -3.6659 -0.0267361 0
M  V30 786 H 74.8912 -4.43031 -2.38185 0
M  V30 787 H 74.5912 -5.74777 -1.22085 0
M  V30 788 H 76.1152 -5.71396 -2.15266 0
M  V30 789 H 77.5292 -5.73177 0.118704 0
M  V30 790 H 75.9262 -5.93566 0.88317 0
M  V30 791 H 76.9962 -4.63285 1.43162 0
M  V30 792 N 78.3393 -0.321999 -1.54275 0
M  V30 793 C 79.5873 0.280489 -2.00144 0
M  V30 794 C 79.9083 1.52777 -1.21178 0
M  V30 795 O 79.1783 1.9338 -0.313187 0
M  V30 796 H 77.7583 0.106632 -0.73935 0
M  V30 797 H 80.4203 -0.438184 -1.8991 0
M  V30 798 H 79.5163 0.537972 -3.07428 0
M  V30 799 N 79.8174 1.5752 -0.0501392 0
M  V30 800 C 80.7474 2.14502 0.922566 0
M  V30 801 C 81.7284 1.06642 1.3252 0
M  V30 802 O 82.9134 1.34577 1.4001 0
M  V30 803 C 80.0434 2.68916 2.19776 0
M  V30 804 C 78.9974 3.8175 1.93523 0
M  V30 805 C 78.3234 4.22677 3.27487 0
M  V30 806 C 79.6234 5.06932 1.25765 0
M  V30 807 H 81.3174 2.9603 0.447952 0
M  V30 808 H 78.8634 1.42401 0.214024 0
M  V30 809 H 80.8164 3.07419 2.88222 0
M  V30 810 H 79.5404 1.84578 2.69441 0
M  V30 811 H 78.1994 3.43718 1.27489 0
M  V30 812 H 77.8474 3.35291 3.74952 0
M  V30 813 H 77.5474 4.98725 3.1072 0
M  V30 814 H 79.0714 4.63779 3.97166 0
M  V30 815 H 80.4854 5.42888 1.84244 0
M  V30 816 H 78.8824 5.88116 1.19328 0
M  V30 817 H 79.9524 4.84337 0.233536 0
M  V30 818 N 81.2955 -0.223234 1.56011 0
M  V30 819 C 82.5415 -0.944891 1.8012 0
M  V30 820 C 82.8965 -1.82039 0.622862 0
M  V30 821 O 82.1895 -1.8773 -0.383143 0
M  V30 822 C 82.3835 -1.81948 3.0762 0
M  V30 823 C 82.2125 -1.03014 4.37742 0
M  V30 824 C 80.9825 -0.72574 5.00061 0
M  V30 825 C 83.1805 -0.396256 5.12771 0
M  V30 826 N 81.1625 0.0851816 6.13841 0
M  V30 827 C 82.5335 0.278137 6.19376 0
M  V30 828 C 84.5885 -0.309117 4.9694 0
M  V30 829 C 83.2915 1.03133 7.11868 0
M  V30 830 C 85.3175 0.430607 5.8983 0
M  V30 831 C 84.6795 1.09355 6.9586 0
M  V30 832 H 80.7785 -0.326081 0.710771 0
M  V30 833 H 83.3625 -0.215914 1.93499 0
M  V30 834 H 81.5335 -2.52029 2.95527 0
M  V30 835 H 83.2655 -2.47848 3.19927 0
M  V30 836 H 80.0205 -1.04335 4.61964 0
M  V30 837 H 80.4445 0.479428 6.753 0
M  V30 838 H 85.0865 -0.807313 4.15021 0
M  V30 839 H 82.8045 1.54105 7.9327 0
M  V30 840 H 86.3905 0.499012 5.79656 0
M  V30 841 H 85.2705 1.65679 7.66499 0
M  V30 842 N 82.7736 -1.49793 -0.48987 0
M  V30 843 C 84.0506 -1.50348 -1.25119 0
M  V30 844 C 84.4306 -0.237466 -2.0976 0
M  V30 845 O 83.7786 0.77981 -2.14782 0
M  V30 846 C 83.9886 -2.78872 -2.09837 0
M  V30 847 C 85.3366 -3.288 -2.68655 0
M  V30 848 O 86.3606 -2.80065 -2.20096 0
M  V30 849 O 85.2196 -4.13707 -3.57083 0
M  V30 850 H 82.3136 -0.602242 -0.566775 0
M  V30 851 H 84.8596 -1.62067 -0.503229 0
M  V30 852 H 83.6316 -3.62499 -1.47343 0
M  V30 853 H 83.2546 -2.70066 -2.91805 0
M  V30 854 N 84.2517 0.741722 -1.39055 0
M  V30 855 C 85.4797 1.53098 -1.39171 0
M  V30 856 C 85.8947 1.88794 0.0155099 0
M  V30 857 O 85.2517 1.53626 0.985159 0
M  V30 858 C 85.3027 2.82274 -2.2584 0
M  V30 859 O 85.0237 2.48097 -3.61081 0
M  V30 860 C 86.5247 3.76343 -2.34266 0
M  V30 861 H 83.7447 0.473335 -0.4756 0
M  V30 862 H 86.2887 0.917045 -1.82785 0
M  V30 863 H 84.4437 3.40015 -1.85656 0
M  V30 864 H 84.8577 3.31029 -4.06842 0
M  V30 865 H 86.3317 4.63898 -2.9917 0
M  V30 866 H 86.8087 4.17619 -1.35982 0
M  V30 867 H 87.4147 3.24523 -2.74891 0
M  V30 868 N 85.7298 1.2412 0.971189 0
M  V30 869 C 86.6928 1.03156 2.04674 0
M  V30 870 C 87.6928 -0.00990322 1.60797 0
M  V30 871 O 88.8828 0.230729 1.72665 0
M  V30 872 C 86.0148 0.562765 3.36223 0
M  V30 873 H 87.2078 1.98614 2.24705 0
M  V30 874 H 84.7608 1.06293 1.14593 0
M  V30 875 H 85.4958 -0.395176 3.21883 0
M  V30 876 H 85.2808 1.31441 3.69413 0
M  V30 877 H 86.7708 0.437015 4.15307 0
M  V30 878 N 87.2079 -1.17134 1.05439 0
M  V30 879 C 88.4559 -1.87085 0.764429 0
M  V30 880 C 88.7769 -1.81584 -0.710787 0
M  V30 881 O 88.0469 -1.24349 -1.51374 0
M  V30 882 H 86.6269 -0.692627 0.279779 0
M  V30 883 H 89.2889 -1.42087 1.33406 0
M  V30 884 H 88.3849 -2.92759 1.0816 0
M  V30 885 N 88.686 -0.835752 -1.33615 0
M  V30 886 C 89.618 -0.224151 -2.28101 0
M  V30 887 C 90.631 0.593331 -1.51603 0
M  V30 888 O 91.82 0.420911 -1.73466 0
M  V30 889 C 88.92 0.703309 -3.31522 0
M  V30 890 C 88.093 -0.0741528 -4.37337 0
M  V30 891 C 87.152 0.776176 -5.20444 0
M  V30 892 O 86.178 0.216506 -5.68788 0
M  V30 893 N 87.38 2.09401 -5.41416 0
M  V30 894 H 90.145 -1.03598 -2.81225 0
M  V30 895 H 87.706 -0.69392 -1.46275 0
M  V30 896 H 89.698 1.27707 -3.84022 0
M  V30 897 H 88.268 1.41585 -2.78698 0
M  V30 898 H 87.488 -0.82928 -3.85378 0
M  V30 899 H 88.776 -0.608863 -5.05144 0
M  V30 900 H 88.174 2.57229 -5.03835 0
M  V30 901 H 86.731 2.61633 -5.96985 0
M  V30 902 N 90.1641 1.46063 -0.591896 0
M  V30 903 C 91.0741 2.34192 0.13831 0
M  V30 904 C 92.0901 1.50305 0.876608 0
M  V30 905 O 93.2661 1.8315 0.837728 0
M  V30 906 C 90.3311 3.27656 1.13326 0
M  V30 907 C 89.3921 4.27445 0.39863 0
M  V30 908 C 88.6251 5.16443 1.34618 0
M  V30 909 O 88.8481 5.08553 2.58321 0
M  V30 910 O 87.7821 5.95843 0.851768 0
M  V30 911 H 91.6081 2.98002 -0.58552 0
M  V30 912 H 89.1931 1.45188 -0.352239 0
M  V30 913 H 91.0751 3.85291 1.70671 0
M  V30 914 H 89.7501 2.6643 1.83839 0
M  V30 915 H 88.6571 3.73471 -0.216895 0
M  V30 916 H 89.9901 4.91482 -0.265709 0
M  V30 917 N 91.6422 0.330177 1.54103 0
M  V30 918 C 92.9192 -0.325007 1.92881 0
M  V30 919 C 93.2992 -1.6934 1.26045 0
M  V30 920 O 92.6472 -2.24855 0.406526 0
M  V30 921 C 92.8572 -0.410634 3.46576 0
M  V30 922 C 94.2052 -0.667801 4.19316 0
M  V30 923 O 95.2292 -0.49329 3.52768 0
M  V30 924 O 94.0882 -1.00491 5.37181 0
M  V30 925 H 91.1822 -0.186873 0.80561 0
M  V30 926 H 93.7282 0.380376 1.65382 0
M  V30 927 H 92.5002 0.550164 3.87413 0
M  V30 928 H 92.1232 -1.16333 3.802 0
M  V30 929 N 93.1203 -1.57491 0.0584922 0
M  V30 930 C 94.3503 -1.9701 -0.622134 0
M  V30 931 C 94.7583 -0.935034 -1.6448 0
M  V30 932 O 94.1013 0.0882904 -1.83488 0
M  V30 933 C 94.1633 -3.32794 -1.35972 0
M  V30 934 C 93.8273 -4.54343 -0.492043 0
M  V30 935 C 94.8243 -5.19323 0.244901 0
M  V30 936 C 92.5093 -5.00534 -0.420821 0
M  V30 937 C 94.5033 -6.28835 1.04143 0
M  V30 938 C 92.1903 -6.09921 0.379389 0
M  V30 939 C 93.1883 -6.73933 1.10919 0
M  V30 940 O 92.8763 -7.81216 1.89623 0
M  V30 941 H 92.6083 -0.653127 -0.174359 0
M  V30 942 H 95.1623 -2.05029 0.123418 0
M  V30 943 H 93.3923 -3.21351 -2.15105 0
M  V30 944 H 95.0813 -3.5701 -1.93129 0
M  V30 945 H 95.8473 -4.8459 0.19939 0
M  V30 946 H 91.7263 -4.50496 -0.978474 0
M  V30 947 H 95.2703 -6.7873 1.61157 0
M  V30 948 H 91.1673 -6.44089 0.426512 0
M  V30 949 H 91.9353 -7.98029 1.81913 0
M  V30 950 N 94.5984 0.214957 -1.56127 0
M  V30 951 C 95.8754 0.963093 -1.70247 0
M  V30 952 C 96.2554 2.02166 -0.60764 0
M  V30 953 O 95.6034 2.25244 0.384385 0
M  V30 954 C 95.8134 1.56756 -3.11815 0
M  V30 955 C 97.1614 2.0573 -3.7143 0
M  V30 956 O 98.1854 1.66637 -3.14818 0
M  V30 957 O 97.0444 2.77603 -4.70743 0
M  V30 958 H 94.1384 0.450321 -0.693643 0
M  V30 959 H 96.6844 0.206219 -1.68442 0
M  V30 960 H 95.4564 0.803533 -3.82961 0
M  V30 961 H 95.0794 2.3898 -3.17765 0
M  V30 962 N 96.0765 1.50051 0.48192 0
M  V30 963 C 97.4925 1.37237 0.814756 0
M  V30 964 C 97.6925 0.420109 1.97072 0
M  V30 965 O 96.7485 -0.141246 2.52105 0
M  V30 966 C 98.0615 2.78375 1.13701 0
M  V30 967 C 99.6095 2.87213 1.2441 0
M  V30 968 C 100.084 4.29161 1.59954 0
M  V30 969 N 101.575 4.32061 1.66967 0
M  V30 970 C 102.31 5.38879 1.95952 0
M  V30 971 N 101.806 6.55918 2.23031 0
M  V30 972 N 103.599 5.26312 1.97363 0
M  V30 973 H 95.7505 2.10546 -0.28005 0
M  V30 974 H 98.0135 0.945921 -0.0627454 0
M  V30 975 H 97.7195 3.49845 0.360787 0
M  V30 976 H 97.5935 3.14941 2.07586 0
M  V30 977 H 99.9805 2.15969 2.01101 0
M  V30 978 H 100.061 2.54204 0.285299 0
M  V30 979 H 99.7055 5.00938 0.838067 0
M  V30 980 H 99.6355 4.59648 2.56966 0
M  V30 981 H 102.126 3.47661 1.48123 0
M  V30 982 H 102.439 7.33139 2.44391 0
M  V30 983 H 100.784 6.59112 2.20447 0
M  V30 984 H 103.975 4.33876 1.75697 0
M  V30 985 H 104.148 6.09649 2.19618 0
M  V30 986 N 97.5546 -0.734337 1.39446 0
M  V30 987 C 98.4846 -1.86155 1.40955 0
M  V30 988 C 99.4656 -1.67898 0.272827 0
M  V30 989 O 100.651 -1.88207 0.478743 0
M  V30 990 C 97.7806 -3.23912 1.25294 0
M  V30 991 C 96.7346 -3.56808 2.36373 0
M  V30 992 C 96.0606 -4.93508 2.058 0
M  V30 993 C 97.3606 -3.59713 3.78687 0
M  V30 994 H 99.0546 -1.8515 2.35287 0
M  V30 995 H 96.6006 -0.889367 1.13253 0
M  V30 996 H 98.5536 -4.02443 1.2497 0
M  V30 997 H 97.2776 -3.25446 0.274308 0
M  V30 998 H 95.9366 -2.80606 2.35914 0
M  V30 999 H 95.5846 -4.91623 1.06374 0
M  V30 1000 H 95.2846 -5.16486 2.80208 0
M  V30 1001 H 96.8086 -5.74396 2.07128 0
M  V30 1002 H 98.2226 -4.2832 3.81071 0
M  V30 1003 H 96.6196 -3.94209 4.52459 0
M  V30 1004 H 97.6896 -2.59504 4.09617 0
M  V30 1005 N 99.0327 -1.24633 -0.964593 0
M  V30 1006 C 100.449 -1.01239 -1.2338 0
M  V30 1007 C 100.649 0.2769 -1.99588 0
M  V30 1008 O 99.7047 0.992241 -2.32187 0
M  V30 1009 C 101.018 -2.22937 -2.01791 0
M  V30 1010 C 102.566 -2.27594 -2.14872 0
M  V30 1011 C 103.041 -3.48921 -2.96678 0
M  V30 1012 N 104.532 -3.49257 -3.04259 0
M  V30 1013 C 105.267 -4.39795 -3.67924 0
M  V30 1014 N 104.763 -5.40591 -4.33281 0
M  V30 1015 N 106.556 -4.275 -3.64966 0
M  V30 1016 H 98.7067 -2.0748 -0.454502 0
M  V30 1017 H 100.97 -0.910647 -0.26349 0
M  V30 1018 H 100.676 -3.16587 -1.53184 0
M  V30 1019 H 100.55 -2.25306 -3.02518 0
M  V30 1020 H 102.937 -1.34473 -2.6268 0
M  V30 1021 H 103.018 -2.2925 -1.13482 0
M  V30 1022 H 102.662 -4.42359 -2.49562 0
M  V30 1023 H 102.592 -3.4451 -3.98272 0
M  V30 1024 H 105.083 -2.76337 -2.57771 0
M  V30 1025 H 105.396 -6.05904 -4.79687 0
M  V30 1026 H 103.741 -5.44475 -4.3194 0
M  V30 1027 H 106.932 -3.47987 -3.13086 0
M  V30 1028 H 107.105 -4.98258 -4.14298 0
M  V30 1029 N 100.511 1.16574 -1.06058 0
M  V30 1030 C 101.922 1.68662 -0.800632 0
M  V30 1031 C 102.273 1.84184 0.67608 0
M  V30 1032 O 101.398 1.53568 1.52466 0
M  V30 1033 C 101.993 3.06356 -1.44676 0
M  V30 1034 C 100.552 3.55575 -1.23465 0
M  V30 1035 C 99.6988 2.31616 -1.52477 0
M  V30 1036 H 102.65 1.00969 -1.22438 0
M  V30 1037 H 102.671 3.70636 -0.860788 0
M  V30 1038 H 102.183 2.95027 -2.52152 0
M  V30 1039 H 100.284 3.72167 -0.179527 0
M  V30 1040 H 100.397 4.37812 -1.94571 0
M  V30 1041 H 98.7608 2.36512 -0.945209 0
M  V30 1042 H 99.5438 2.22887 -2.61106 0
M  V30 1043 N 101.989 0.842826 1.3317 0
M  V30 1044 C 102.919 0.294028 2.31641 0
M  V30 1045 C 103.9 -0.600401 1.59151 0
M  V30 1046 O 105.085 -0.523124 1.87022 0
M  V30 1047 C 102.215 -0.528416 3.43257 0
M  V30 1048 C 101.169 0.27056 4.27144 0
M  V30 1049 C 100.495 -0.675881 5.30411 0
M  V30 1050 C 101.795 1.48981 5.00602 0
M  V30 1051 H 103.489 1.11681 2.77791 0
M  V30 1052 H 101.035 0.538478 1.33553 0
M  V30 1053 H 102.988 -0.922674 4.11175 0
M  V30 1054 H 101.712 -1.38445 2.95805 0
M  V30 1055 H 100.371 0.646427 3.60856 0
M  V30 1056 H 100.019 -1.52842 4.79216 0
M  V30 1057 H 99.7189 -0.145374 5.8742 0
M  V30 1058 H 101.243 -1.06757 6.01195 0
M  V30 1059 H 102.657 1.16849 5.61266 0
M  V30 1060 H 101.054 1.95739 5.6728 0
M  V30 1061 H 102.124 2.25746 4.29147 0
M  V30 1062 N 103.467 -1.45747 0.599634 0
M  V30 1063 C 104.692 -2.07178 0.0960198 0
M  V30 1064 C 105.117 -1.44268 -1.207 0
M  V30 1065 O 104.475 -0.532503 -1.73303 0
M  V30 1066 C 104.523 -3.60579 -0.0385348 0
M  V30 1067 O 103.627 -3.97713 -1.0908 0
M  V30 1068 H 102.968 -0.660251 0.0704593 0
M  V30 1069 H 105.498 -1.87124 0.827385 0
M  V30 1070 H 105.508 -4.07298 -0.239304 0
M  V30 1071 H 104.183 -4.05756 0.912947 0
M  V30 1072 H 102.76 -3.62678 -0.867135 0
M  V30 1073 N 104.945 -0.338344 -1.53925 0
M  V30 1074 C 106.175 0.260919 -2.04946 0
M  V30 1075 C 106.583 1.45174 -1.2133 0
M  V30 1076 O 105.926 1.82122 -0.240262 0
M  V30 1077 C 105.988 0.744596 -3.51704 0
M  V30 1078 C 105.652 -0.325883 -4.55837 0
M  V30 1079 C 106.649 -1.16687 -5.06636 0
M  V30 1080 C 104.334 -0.478317 -5.00017 0
M  V30 1081 C 106.328 -2.14588 -6.00192 0
M  V30 1082 C 104.015 -1.46073 -5.93385 0
M  V30 1083 C 105.013 -2.29297 -6.4336 0
M  V30 1084 O 104.701 -3.25867 -7.34892 0
M  V30 1085 H 104.433 0.0551207 -0.673749 0
M  V30 1086 H 106.987 -0.486984 -1.99544 0
M  V30 1087 H 105.217 1.54366 -3.54553 0
M  V30 1088 H 106.906 1.26383 -3.85723 0
M  V30 1089 H 107.672 -1.06016 -4.73271 0
M  V30 1090 H 103.551 0.159613 -4.60724 0
M  V30 1091 H 107.095 -2.79585 -6.39123 0
M  V30 1092 H 102.992 -1.56802 -6.26166 0
M  V30 1093 H 103.76 -3.21278 -7.5281 0
M  V30 1094 N 106.423 1.57458 -0.0668435 0
M  V30 1095 C 107.834 1.80776 0.466558 0
M  V30 1096 C 108.185 0.980361 1.69951 0
M  V30 1097 O 107.31 0.201441 2.1546 0
M  V30 1098 C 107.905 3.27881 0.85321 0
M  V30 1099 C 106.464 3.52062 1.3315 0
M  V30 1100 C 105.611 2.75513 0.314264 0
M  V30 1101 H 108.562 1.5598 -0.292588 0
M  V30 1102 H 108.583 3.39659 1.715 0
M  V30 1103 H 108.095 3.88075 -0.0443439 0
M  V30 1104 H 106.196 2.97167 2.24772 0
M  V30 1105 H 106.309 4.60762 1.31285 0
M  V30 1106 H 104.673 2.42123 0.790492 0
M  V30 1107 H 105.456 3.38442 -0.575477 0
M  V30 1108 N 107.901 -0.206675 1.56239 0
M  V30 1109 C 108.833 -1.27997 1.9013 0
M  V30 1110 C 109.846 -1.42299 0.790883 0
M  V30 1111 O 111.035 -1.42931 1.06925 0
M  V30 1112 C 108.135 -2.65368 2.10792 0
M  V30 1113 C 107.308 -2.72824 3.41886 0
M  V30 1114 C 106.367 -3.9131 3.51799 0
M  V30 1115 O 105.393 -3.78953 4.24716 0
M  V30 1116 N 106.595 -5.06265 2.84035 0
M  V30 1117 H 109.36 -0.992444 2.82791 0
M  V30 1118 H 106.921 -0.396652 1.56966 0
M  V30 1119 H 108.913 -3.43039 2.14724 0
M  V30 1120 H 107.483 -2.86657 1.24685 0
M  V30 1121 H 106.703 -1.81515 3.49923 0
M  V30 1122 H 107.991 -2.74786 4.28217 0
M  V30 1123 H 107.389 -5.19203 2.246 0
M  V30 1124 H 105.946 -5.81925 2.93609 0
M  V30 1125 N 109.379 -1.50304 -0.473955 0
M  V30 1126 C 110.607 -1.64902 -1.24959 0
M  V30 1127 C 111.022 -0.331198 -1.85872 0
M  V30 1128 O 110.379 0.68652 -1.69095 0
M  V30 1129 C 110.43 -2.73803 -2.36038 0
M  V30 1130 O 110.151 -4.00477 -1.77624 0
M  V30 1131 C 111.652 -2.99349 -3.26964 0
M  V30 1132 H 108.872 -0.554383 -0.378022 0
M  V30 1133 H 111.416 -1.9651 -0.566054 0
M  V30 1134 H 109.571 -2.44898 -3.00173 0
M  V30 1135 H 109.985 -4.60678 -2.5075 0
M  V30 1136 H 111.459 -3.79217 -4.01121 0
M  V30 1137 H 111.936 -2.10307 -3.85574 0
M  V30 1138 H 112.542 -3.29774 -2.68569 0
M  V30 1139 N 110.857 0.726932 -1.39834 0
M  V30 1140 C 112.134 1.47902 -1.28001 0
M  V30 1141 C 112.514 2.1083 0.106789 0
M  V30 1142 O 111.862 1.99242 1.11869 0
M  V30 1143 C 112.072 2.52392 -2.41038 0
M  V30 1144 C 113.42 3.18546 -2.80737 0
M  V30 1145 O 114.444 2.62708 -2.40547 0
M  V30 1146 O 113.303 4.19604 -3.50135 0
M  V30 1147 H 110.397 0.657163 -0.502062 0
M  V30 1148 H 112.943 0.760071 -1.51727 0
M  V30 1149 H 111.715 2.04329 -3.33715 0
M  V30 1150 H 111.338 3.31837 -2.19021 0
M  V30 1151 N 112.336 1.25143 0.95797 0
M  V30 1152 C 113.582 1.09855 1.70469 0
M  V30 1153 C 113.915 -0.360187 1.90831 0
M  V30 1154 O 113.19 -1.26568 1.47685 0
M  V30 1155 C 113.473 1.8497 3.08963 0
M  V30 1156 C 113.326 3.38652 2.96032 0
M  V30 1157 C 114.645 1.63016 4.08795 0
M  V30 1158 H 111.764 0.400465 0.618706 0
M  V30 1159 H 114.406 1.53933 1.11376 0
M  V30 1160 H 112.556 1.47505 3.59409 0
M  V30 1161 H 114.228 3.85772 2.52938 0
M  V30 1162 H 112.471 3.66534 2.32025 0
M  V30 1163 H 113.142 3.8642 3.94187 0
M  V30 1164 H 115.618 1.95625 3.67247 0
M  V30 1165 H 114.494 2.18015 5.03747 0
M  V30 1166 H 114.755 0.570692 4.38401 0
M  V30 1167 N 113.814 -1.1601 1.06675 0
M  V30 1168 C 115.061 -1.86633 0.785781 0
M  V30 1169 C 115.389 -1.81929 -0.687896 0
M  V30 1170 O 114.644 -1.23253 -1.52011 0
M  V30 1171 C 114.943 -3.35547 1.23057 0
M  V30 1172 C 114.609 -3.60448 2.70902 0
M  V30 1173 C 113.271 -3.66954 3.11285 0
M  V30 1174 C 115.623 -3.7071 3.66365 0
M  V30 1175 C 112.951 -3.81225 4.45965 0
M  V30 1176 C 115.303 -3.86503 5.00797 0
M  V30 1177 C 113.967 -3.91252 5.40813 0
M  V30 1178 H 113.237 -0.682937 0.287538 0
M  V30 1179 H 115.884 -1.37146 1.33654 0
M  V30 1180 H 114.189 -3.87193 0.59907 0
M  V30 1181 H 115.886 -3.88583 0.990163 0
M  V30 1182 H 112.476 -3.56021 2.38636 0
M  V30 1183 H 116.66 -3.64991 3.36296 0
M  V30 1184 H 111.916 -3.83155 4.76447 0
M  V30 1185 H 116.09 -3.93385 5.74649 0
M  V30 1186 H 113.717 -4.02062 6.45174 0
M  V30 1187 N 115.292 -0.849877 -1.32721 0
M  V30 1188 C 116.222 -0.306308 -2.31482 0
M  V30 1189 C 117.203 0.591952 -1.59468 0
M  V30 1190 O 118.388 0.513199 -1.87296 0
M  V30 1191 C 115.518 0.510204 -3.43532 0
M  V30 1192 C 114.472 -0.293209 -4.26994 0
M  V30 1193 C 113.798 0.647743 -5.30762 0
M  V30 1194 C 115.098 -1.51634 -4.99804 0
M  V30 1195 H 116.792 -1.13153 -2.77195 0
M  V30 1196 H 114.338 -0.545553 -1.33266 0
M  V30 1197 H 116.291 0.900856 -4.11658 0
M  V30 1198 H 115.015 1.36874 -2.96535 0
M  V30 1199 H 113.674 -0.665555 -3.60508 0
M  V30 1200 H 113.322 1.50299 -4.8002 0
M  V30 1201 H 113.022 0.11422 -5.87489 0
M  V30 1202 H 114.546 1.03567 -6.01753 0
M  V30 1203 H 115.96 -1.19824 -5.60638 0
M  V30 1204 H 114.357 -1.98745 -5.66234 0
M  V30 1205 H 115.427 -2.28018 -4.27943 0
M  V30 1206 N 116.77 1.45427 -0.607355 0
M  V30 1207 C 118.019 2.01452 -0.100036 0
M  V30 1208 C 118.332 1.48159 1.27704 0
M  V30 1209 O 119.538 1.96159 1.87707 0
M  V30 1210 C 117.994 3.59672 -0.128158 0
M  V30 1211 C 117.602 4.21962 -1.50507 0
M  V30 1212 C 119.346 4.23262 0.323932 0
M  V30 1213 C 117.253 5.72333 -1.48959 0
M  V30 1214 H 116.183 0.75325 -0.0336299 0
M  V30 1215 H 118.834 1.66901 -0.76265 0
M  V30 1216 H 117.216 3.91411 0.601105 0
M  V30 1217 H 118.39 4.01796 -2.25602 0
M  V30 1218 H 116.705 3.70565 -1.89923 0
M  V30 1219 H 119.302 5.33522 0.354691 0
M  V30 1220 H 119.645 3.93921 1.34656 0
M  V30 1221 H 120.178 3.96239 -0.352056 0
M  V30 1222 H 116.917 6.06373 -2.48981 0
M  V30 1223 H 116.437 5.94691 -0.781214 0
M  V30 1224 H 118.116 6.35525 -1.21313 0
M  V30 1225 N 118.248 0.346503 1.53744 0
M  V30 1226 C 119.488 -0.249413 2.02873 0
M  V30 1227 C 119.852 -1.47532 1.22876 0
M  V30 1228 O 121.053 -2.1456 1.61918 0
M  V30 1229 C 119.324 -0.552909 3.53097 0
M  V30 1230 S 120.883 -1.12521 4.24128 0
M  V30 1231 H 117.701 -0.074042 0.707134 0
M  V30 1232 H 120.303 0.48495 1.8939 0
M  V30 1233 H 119.007 0.347083 4.0893 0
M  V30 1234 H 118.538 -1.31686 3.70705 0
M  V30 1235 H 120.553 -2.41075 4.33702 0
M  V30 1236 N 119.726 -1.57421 0.075193 0
M  V30 1237 C 120.973 -1.93618 -0.593146 0
M  V30 1238 C 121.301 -0.955484 -1.69413 0
M  V30 1239 O 120.556 0.0283251 -1.9568 0
M  V30 1240 C 120.855 -3.36428 -1.20626 0
M  V30 1241 C 120.521 -4.50307 -0.231078 0
M  V30 1242 C 119.183 -4.81186 0.0371936 0
M  V30 1243 C 121.535 -5.19374 0.435888 0
M  V30 1244 C 118.863 -5.78466 0.979461 0
M  V30 1245 C 121.215 -6.17665 1.3665 0
M  V30 1246 C 119.879 -6.46958 1.6432 0
M  V30 1247 H 119.149 -0.708499 -0.217047 0
M  V30 1248 H 121.796 -1.90937 0.146793 0
M  V30 1249 H 120.101 -3.35592 -2.02201 0
M  V30 1250 H 121.798 -3.61727 -1.73073 0
M  V30 1251 H 118.388 -4.26227 -0.450357 0
M  V30 1252 H 122.572 -4.95711 0.241748 0
M  V30 1253 H 117.828 -5.99487 1.20106 0
M  V30 1254 H 122.002 -6.70284 1.88924 0
M  V30 1255 H 119.629 -7.2215 2.37494 0
M  V30 1256 N 121.204 0.198386 -1.56346 0
M  V30 1257 C 122.429 0.939682 -1.84891 0
M  V30 1258 C 122.854 1.76202 -0.658369 0
M  V30 1259 O 122.212 1.76993 0.392851 0
M  V30 1260 C 122.26 1.81428 -3.11635 0
M  V30 1261 O 121.364 2.91265 -2.91956 0
M  V30 1262 H 120.705 0.264807 -0.608912 0
M  V30 1263 H 123.235 0.204695 -2.03573 0
M  V30 1264 H 123.245 2.21958 -3.42343 0
M  V30 1265 H 121.92 1.21004 -3.97908 0
M  V30 1266 H 120.497 2.54514 -2.72538 0
M  V30 1267 N 122.682 1.50554 0.465978 0
M  V30 1268 C 123.612 1.72722 1.57128 0
M  V30 1269 C 124.593 0.576294 1.6004 0
M  V30 1270 O 125.778 0.81598 1.76225 0
M  V30 1271 C 122.908 1.82605 2.95419 0
M  V30 1272 C 121.862 2.97835 3.07373 0
M  V30 1273 C 121.188 2.92867 4.47363 0
M  V30 1274 C 122.488 4.38265 2.84114 0
M  V30 1275 H 124.182 2.65267 1.38829 0
M  V30 1276 H 121.728 1.2765 0.666441 0
M  V30 1277 H 123.681 1.96698 3.72677 0
M  V30 1278 H 122.405 0.866858 3.14886 0
M  V30 1279 H 121.064 2.83401 2.3255 0
M  V30 1280 H 120.712 1.94783 4.63755 0
M  V30 1281 H 120.412 3.70227 4.56296 0
M  V30 1282 H 121.936 3.09015 5.26633 0
M  V30 1283 H 123.35 4.53198 3.51118 0
M  V30 1284 H 121.747 5.17115 3.04487 0
M  V30 1285 H 122.817 4.50281 1.7993 0
M  V30 1286 N 124.16 -0.719506 1.40217 0
M  V30 1287 C 125.406 -1.48152 1.38488 0
M  V30 1288 C 125.739 -1.94195 -0.0141867 0
M  V30 1289 O 125.014 -1.67884 -0.982096 0
M  V30 1290 C 125.297 -2.71035 2.37091 0
M  V30 1291 C 125.15 -2.30912 3.86005 0
M  V30 1292 C 126.469 -3.73182 2.33288 0
M  V30 1293 H 123.588 -0.537395 0.504357 0
M  V30 1294 H 126.23 -0.821472 1.71324 0
M  V30 1295 H 124.38 -3.27352 2.0922 0
M  V30 1296 H 126.052 -1.80107 4.24687 0
M  V30 1297 H 124.295 -1.62958 4.02029 0
M  V30 1298 H 124.966 -3.18978 4.50508 0
M  V30 1299 H 127.442 -3.26485 2.57966 0
M  V30 1300 H 126.318 -4.56806 3.04334 0
M  V30 1301 H 126.579 -4.21202 1.34317 0
M  V30 1302 N 125.638 -1.25649 -0.95132 0
M  V30 1303 C 126.863 -1.13443 -1.73624 0
M  V30 1304 C 127.288 0.307565 -1.85568 0
M  V30 1305 O 126.646 1.22282 -1.33854 0
M  V30 1306 C 126.694 -1.79723 -3.12621 0
M  V30 1307 O 125.798 -1.07912 -3.98031 0
M  V30 1308 H 125.139 -0.395872 -0.533086 0
M  V30 1309 H 127.669 -1.66276 -1.1922 0
M  V30 1310 H 127.679 -1.86141 -3.63064 0
M  V30 1311 H 126.354 -2.84633 -3.03244 0
M  V30 1312 H 124.931 -1.09398 -3.56492 0
M  V30 1313 N 127.117 1.15442 -1.07289 0
M  V30 1314 C 128.528 1.67803 -0.818475 0
M  V30 1315 C 128.879 1.8489 0.656507 0
M  V30 1316 O 128.004 1.55176 1.50829 0
M  V30 1317 C 128.599 3.04805 -1.47917 0
M  V30 1318 C 127.158 3.54245 -1.27229 0
M  V30 1319 C 126.305 2.29986 -1.54925 0
M  V30 1320 H 129.256 0.996646 -1.23502 0
M  V30 1321 H 129.277 3.69702 -0.90005 0
M  V30 1322 H 128.789 2.92336 -2.55267 0
M  V30 1323 H 126.89 3.71956 -0.21899 0
M  V30 1324 H 127.003 4.35723 -1.99203 0
M  V30 1325 H 125.367 2.35496 -0.970242 0
M  V30 1326 H 126.15 2.20105 -2.63455 0
M  V30 1327 N 128.595 0.856903 1.32268 0
M  V30 1328 C 129.558 0.308171 2.27119 0
M  V30 1329 C 130.558 -0.533421 1.51695 0
M  V30 1330 O 131.748 -0.344607 1.70757 0
M  V30 1331 C 128.88 -0.563757 3.36206 0
M  V30 1332 H 130.073 1.14535 2.77167 0
M  V30 1333 H 127.626 0.631421 1.42978 0
M  V30 1334 H 128.361 -1.42266 2.91429 0
M  V30 1335 H 128.146 0.0386749 3.92081 0
M  V30 1336 H 129.636 -0.940386 4.06874 0
M  V30 1337 N 130.073 -1.45103 0.615059 0
M  V30 1338 C 131.298 -2.07064 0.117988 0
M  V30 1339 C 131.723 -1.4554 -1.19163 0
M  V30 1340 O 131.081 -0.550855 -1.72729 0
M  V30 1341 C 131.129 -3.606 -0.000288387 0
M  V30 1342 O 130.233 -3.98847 -1.04856 0
M  V30 1343 H 129.574 -0.659467 0.0774581 0
M  V30 1344 H 132.104 -1.86236 0.847186 0
M  V30 1345 H 132.114 -4.07529 -0.196091 0
M  V30 1346 H 130.789 -4.04765 0.955932 0
M  V30 1347 H 129.366 -3.63577 -0.828619 0
M  V30 1348 N 131.551 -0.354651 -1.53558 0
M  V30 1349 C 132.781 0.239167 -2.05211 0
M  V30 1350 C 133.189 1.43879 -1.22863 0
M  V30 1351 O 132.532 1.81857 -0.259565 0
M  V30 1352 C 132.594 0.707251 -3.52474 0
M  V30 1353 C 132.258 -0.374212 -4.55465 0
M  V30 1354 C 133.255 -1.22054 -5.0537 0
M  V30 1355 C 130.94 -0.531323 -4.99482 0
M  V30 1356 C 132.934 -2.20942 -5.97882 0
M  V30 1357 C 130.621 -1.52358 -5.91802 0
M  V30 1358 C 131.619 -2.36108 -6.40892 0
M  V30 1359 O 131.307 -3.33643 -7.31394 0
M  V30 1360 H 131.039 0.0479716 -0.674296 0
M  V30 1361 H 133.593 -0.508121 -1.99016 0
M  V30 1362 H 131.823 1.50596 -3.56171 0
M  V30 1363 H 133.512 1.22285 -3.87042 0
M  V30 1364 H 134.278 -1.1103 -4.7212 0
M  V30 1365 H 130.157 0.110738 -4.60867 0
M  V30 1366 H 133.701 -2.86348 -6.36121 0
M  V30 1367 H 129.598 -1.63434 -6.24467 0
M  V30 1368 H 130.366 -3.29244 -7.4936 0
M  V30 1369 N 133.029 1.57378 -0.0835403 0
M  V30 1370 C 133.939 2.16897 0.894021 0
M  V30 1371 C 134.955 1.13528 1.31861 0
M  V30 1372 O 136.131 1.45848 1.3889 0
M  V30 1373 C 133.196 2.72831 2.13925 0
M  V30 1374 C 132.257 3.91115 1.76997 0
M  V30 1375 C 131.49 4.44371 2.95584 0
M  V30 1376 O 131.713 3.96596 4.09961 0
M  V30 1377 O 130.647 5.35549 2.74719 0
M  V30 1378 H 134.473 3.00814 0.417679 0
M  V30 1379 H 132.058 1.48741 0.140181 0
M  V30 1380 H 133.94 3.0863 2.86924 0
M  V30 1381 H 132.615 1.91967 2.60635 0
M  V30 1382 H 131.522 3.60148 1.01214 0
M  V30 1383 H 132.855 4.73307 1.3506 0
M  V30 1384 N 134.507 -0.190092 1.56449 0
M  V30 1385 C 135.455 -1.25501 1.95837 0
M  V30 1386 C 136.449 -1.4685 0.844485 0
M  V30 1387 O 137.655 -1.47651 1.02952 0
M  V30 1388 H 134.03 -0.421447 0.622805 0
M  V30 1389 H 136.001 -0.895821 2.84636 0
M  V30 1390 C 134.75 -2.59124 2.31841 0
M  V30 1391 H 134.073 -2.43514 3.17082 0
M  V30 1392 H 135.513 -3.32371 2.6326 0
M  V30 1393 C 133.972 -3.16488 1.15486 0
M  V30 1394 O 134.502 -3.99365 0.432535 0
M  V30 1395 N 132.708 -2.75305 0.930349 0
M  V30 1396 H 132.255 -2.08013 1.51948 0
M  V30 1397 H 132.213 -3.14024 0.153634 0
M  V30 1398 N 135.985 -1.50799 -0.457987 0
M  V30 1399 C 137.231 -1.62683 -1.21088 0
M  V30 1400 C 137.564 -0.332268 -1.91336 0
M  V30 1401 O 136.839 0.667043 -1.82704 0
M  V30 1402 C 137.122 -2.81615 -2.24422 0
M  V30 1403 C 136.975 -4.20989 -1.58392 0
M  V30 1404 C 138.294 -2.96085 -3.2561 0
M  V30 1405 H 135.413 -0.592087 -0.438864 0
M  V30 1406 H 138.055 -1.83225 -0.50286 0
M  V30 1407 H 136.205 -2.64231 -2.84806 0
M  V30 1408 H 137.877 -4.49994 -1.01504 0
M  V30 1409 H 136.12 -4.24641 -0.886704 0
M  V30 1410 H 136.791 -5.0016 -2.33547 0
M  V30 1411 H 139.267 -3.12042 -2.75262 0
M  V30 1412 H 138.143 -3.80902 -3.95228 0
M  V30 1413 H 138.404 -2.0726 -3.90507 0
M  V30 1414 N 137.463 0.71206 -1.40597 0
M  V30 1415 C 138.879 1.02058 -1.22704 0
M  V30 1416 C 139.079 2.01228 -0.104729 0
M  V30 1417 O 138.135 2.4674 0.53624 0
M  V30 1418 C 139.448 1.56094 -2.57012 0
M  V30 1419 C 140.996 1.6806 -2.64054 0
M  V30 1420 C 141.471 2.25501 -3.9864 0
M  V30 1421 N 142.962 2.32882 -4.004 0
M  V30 1422 C 143.697 2.78317 -5.01325 0
M  V30 1423 N 143.193 3.23478 -6.12645 0
M  V30 1424 N 144.986 2.77733 -4.88693 0
M  V30 1425 H 137.137 0.0547896 -2.12329 0
M  V30 1426 H 139.4 0.0869027 -0.944008 0
M  V30 1427 H 139.106 0.906865 -3.39807 0
M  V30 1428 H 138.98 2.54564 -2.78347 0
M  V30 1429 H 141.367 2.32583 -1.81629 0
M  V30 1430 H 141.448 0.681802 -2.46546 0
M  V30 1431 H 141.092 1.61598 -4.81506 0
M  V30 1432 H 141.022 3.26102 -4.13479 0
M  V30 1433 H 143.513 2.00991 -3.20017 0
M  V30 1434 H 143.826 3.56725 -6.85542 0
M  V30 1435 H 142.171 3.21429 -6.16205 0
M  V30 1436 H 145.362 2.4179 -4.00818 0
M  V30 1437 H 145.535 3.12826 -5.67489 0
M  V30 1438 N 138.941 1.26152 0.944643 0
M  V30 1439 C 139.904 1.07474 2.0244 0
M  V30 1440 C 140.904 0.0242064 1.60782 0
M  V30 1441 O 142.094 0.267302 1.72137 0
M  V30 1442 C 139.226 0.633956 3.34953 0
M  V30 1443 H 140.419 2.03336 2.20442 0
M  V30 1444 H 137.972 1.087 1.12312 0
M  V30 1445 H 138.707 -0.326811 3.22649 0
M  V30 1446 H 138.492 1.39247 3.66542 0
M  V30 1447 H 139.982 0.52501 4.14287 0
M  V30 1448 N 140.419 -1.14872 1.07899 0
M  V30 1449 C 141.366 -2.19791 0.704319 0
M  V30 1450 C 142.336 -1.63238 -0.306987 0
M  V30 1451 O 143.521 -1.8983 -0.192171 0
M  V30 1452 C 140.661 -3.44911 0.114244 0
M  V30 1453 C 139.774 -4.15637 1.1777 0
M  V30 1454 C 138.909 -5.28324 0.552037 0
M  V30 1455 C 137.948 -5.90875 1.59789 0
M  V30 1456 N 137.085 -6.95022 0.994404 0
M  V30 1457 H 141.925 -2.5119 1.60336 0
M  V30 1458 H 139.462 -1.23356 0.801352 0
M  V30 1459 H 141.42 -4.16477 -0.245544 0
M  V30 1460 H 140.05 -3.14011 -0.74813 0
M  V30 1461 H 139.102 -3.42512 1.65499 0
M  V30 1462 H 140.414 -4.5823 1.97046 0
M  V30 1463 H 139.568 -6.06538 0.1402 0
M  V30 1464 H 138.307 -4.86939 -0.272431 0
M  V30 1465 H 137.312 -5.11369 2.01945 0
M  V30 1466 H 138.537 -6.34337 2.42474 0
M  V30 1467 H 136.483 -6.55722 0.190939 0
M  V30 1468 H 136.4 -7.36073 1.72432 0
M  V30 1469 H 137.668 -7.77123 0.608253 0
M  V30 1470 N 141.898 -0.863906 -1.31812 0
M  V30 1471 C 143.144 -0.481841 -1.9761 0
M  V30 1472 C 143.499 0.954048 -1.6708 0
M  V30 1473 O 142.792 1.66182 -0.953624 0
M  V30 1474 C 142.986 -0.668547 -3.51091 0
M  V30 1475 C 142.815 -2.12103 -3.96538 0
M  V30 1476 C 141.585 -2.76141 -4.23171 0
M  V30 1477 C 143.783 -3.09265 -4.10925 0
M  V30 1478 N 141.765 -4.12205 -4.54929 0
M  V30 1479 C 143.136 -4.30341 -4.46326 0
M  V30 1480 C 145.191 -3.05337 -3.93286 0
M  V30 1481 C 143.894 -5.48 -4.65928 0
M  V30 1482 C 145.92 -4.22248 -4.14078 0
M  V30 1483 C 145.282 -5.42085 -4.49804 0
M  V30 1484 H 141.381 -0.225238 -0.74886 0
M  V30 1485 H 143.965 -1.11723 -1.59455 0
M  V30 1486 H 142.136 -0.0627898 -3.88349 0
M  V30 1487 H 143.868 -0.255467 -4.03893 0
M  V30 1488 H 140.623 -2.27125 -4.15585 0
M  V30 1489 H 141.047 -4.82416 -4.74978 0
M  V30 1490 H 145.689 -2.138 -3.64759 0
M  V30 1491 H 143.407 -6.40059 -4.93305 0
M  V30 1492 H 146.993 -4.20654 -4.01922 0
M  V30 1493 H 145.873 -6.31044 -4.65567 0
M  V30 1494 N 143.376 1.44774 -0.622745 0
M  V30 1495 C 144.623 2.02121 -0.1239 0
M  V30 1496 C 144.951 1.48915 1.25118 0
M  V30 1497 O 144.206 0.660045 1.84233 0
M  V30 1498 C 144.505 3.57364 -0.0508323 0
M  V30 1499 C 144.171 4.29787 -1.36358 0
M  V30 1500 C 142.833 4.4929 -1.72314 0
M  V30 1501 C 145.185 4.71062 -2.23048 0
M  V30 1502 C 142.513 5.07325 -2.94682 0
M  V30 1503 C 144.865 5.30452 -3.44679 0
M  V30 1504 C 143.529 5.48175 -3.80868 0
M  V30 1505 H 142.799 0.739612 -0.0453381 0
M  V30 1506 H 145.446 1.73648 -0.807389 0
M  V30 1507 H 143.751 3.85202 0.715991 0
M  V30 1508 H 145.448 3.99456 0.351533 0
M  V30 1509 H 142.038 4.14932 -1.07375 0
M  V30 1510 H 146.222 4.55715 -1.96565 0
M  V30 1511 H 141.478 5.19235 -3.22809 0
M  V30 1512 H 145.652 5.61385 -4.12092 0
M  V30 1513 H 143.279 5.92912 -4.75773 0
M  V30 1514 N 144.854 0.36279 1.53368 0
M  V30 1515 C 146.265 -0.117022 1.86333 0
M  V30 1516 C 146.616 -1.48397 1.28347 0
M  V30 1517 O 145.741 -2.07787 0.604428 0
M  V30 1518 C 146.336 -0.21912 3.38091 0
M  V30 1519 C 144.895 -0.643184 3.70864 0
M  V30 1520 C 144.042 0.211318 2.76494 0
M  V30 1521 H 146.993 0.581687 1.47655 0
M  V30 1522 H 147.014 -1.04319 3.6592 0
M  V30 1523 H 146.526 0.775902 3.80265 0
M  V30 1524 H 144.627 -1.64654 3.34245 0
M  V30 1525 H 144.74 -0.41973 4.77258 0
M  V30 1526 H 143.104 -0.319367 2.5269 0
M  V30 1527 H 143.887 1.20383 3.21501 0
M  V30 1528 N 146.332 -1.57332 0.0918853 0
M  V30 1529 C 147.242 -2.17368 -0.882505 0
M  V30 1530 C 148.258 -1.14226 -1.31257 0
M  V30 1531 O 149.434 -1.46582 -1.38115 0
M  V30 1532 C 146.499 -2.73962 -2.12476 0
M  V30 1533 C 145.56 -3.92048 -1.7492 0
M  V30 1534 C 144.793 -4.45933 -2.93223 0
M  V30 1535 O 145.016 -3.98764 -4.07852 0
M  V30 1536 O 143.95 -5.36999 -2.71875 0
M  V30 1537 H 147.776 -3.01031 -0.40172 0
M  V30 1538 H 145.361 -1.48813 -0.132291 0
M  V30 1539 H 147.243 -3.10147 -2.85283 0
M  V30 1540 H 145.918 -1.93347 -2.59613 0
M  V30 1541 H 144.825 -3.6068 -0.993025 0
M  V30 1542 H 146.158 -4.74017 -1.32548 0
M  V30 1543 N 147.81 0.181792 -1.56548 0
M  V30 1544 C 149.056 0.901431 -1.81665 0
M  V30 1545 C 149.389 1.82347 -0.668075 0
M  V30 1546 O 148.664 1.91669 0.330615 0
M  V30 1547 C 148.947 1.70618 -3.17115 0
M  V30 1548 C 148.8 0.807964 -4.42484 0
M  V30 1549 C 150.119 2.67605 -3.49393 0
M  V30 1550 H 147.238 0.32627 -0.660846 0
M  V30 1551 H 149.88 0.168134 -1.89255 0
M  V30 1552 H 148.03 2.33133 -3.10775 0
M  V30 1553 H 149.702 0.19649 -4.60881 0
M  V30 1554 H 147.945 0.115411 -4.33646 0
M  V30 1555 H 148.616 1.40632 -5.33785 0
M  V30 1556 H 151.092 2.15218 -3.56118 0
M  V30 1557 H 149.968 3.20985 -4.45264 0
M  V30 1558 H 150.229 3.47298 -2.73563 0
M  V30 1559 N 149.288 1.51039 0.449983 0
M  V30 1560 C 150.704 1.38934 0.785462 0
M  V30 1561 C 150.904 0.461817 1.96136 0
M  V30 1562 O 149.96 -0.0877389 2.52348 0
M  V30 1563 C 151.273 2.80724 1.0777 0
M  V30 1564 C 152.821 2.89787 1.1829 0
M  V30 1565 C 153.296 4.32457 1.50815 0
M  V30 1566 N 154.787 4.35505 1.57764 0
M  V30 1567 C 155.522 5.42914 1.84477 0
M  V30 1568 N 155.018 6.60502 2.09068 0
M  V30 1569 N 156.811 5.3038 1.86155 0
M  V30 1570 H 148.962 2.09904 -0.324647 0
M  V30 1571 H 151.225 0.944378 -0.0827957 0
M  V30 1572 H 150.931 3.50531 0.286498 0
M  V30 1573 H 150.805 3.19273 2.00859 0
M  V30 1574 H 153.192 2.20186 1.96474 0
M  V30 1575 H 153.273 2.54752 0.231314 0
M  V30 1576 H 152.917 5.02603 0.731622 0
M  V30 1577 H 152.847 4.64995 2.47158 0
M  V30 1578 H 155.338 3.50724 1.40715 0
M  V30 1579 H 155.651 7.38158 2.28785 0
M  V30 1580 H 153.996 6.63639 2.06416 0
M  V30 1581 H 157.187 4.37505 1.66454 0
M  V30 1582 H 157.36 6.1417 2.06637 0
M  V30 1583 N 150.766 -0.704594 1.40972 0
M  V30 1584 C 151.716 -1.81051 1.38581 0
M  V30 1585 C 152.7 -1.58759 0.261585 0
M  V30 1586 O 153.892 -1.69745 0.501556 0
M  V30 1587 C 151.021 -3.19279 1.26157 0
M  V30 1588 C 150.107 -3.47296 2.43405 0
M  V30 1589 N 150.498 -3.46064 3.68881 0
M  V30 1590 C 148.796 -3.77804 2.37023 0
M  V30 1591 C 149.497 -3.72733 4.46592 0
M  V30 1592 N 148.473 -3.9203 3.76581 0
M  V30 1593 H 152.275 -1.78448 2.33525 0
M  V30 1594 H 149.789 -0.904198 1.349 0
M  V30 1595 H 151.786 -3.98488 1.22526 0
M  V30 1596 H 150.446 -3.231 0.321902 0
M  V30 1597 H 151.457 -3.26656 4.01891 0
M  V30 1598 H 148.134 -3.8905 1.51481 0
M  V30 1599 H 149.524 -3.77993 5.55492 0
M  V30 1600 N 152.244 -1.26651 -0.937939 0
M  V30 1601 C 153.194 -1.05156 -2.02302 0
M  V30 1602 C 154.178 0.0171233 -1.60891 0
M  V30 1603 O 155.37 -0.200213 -1.75864 0
M  V30 1604 C 152.499 -0.689962 -3.36295 0
M  V30 1605 C 151.585 -1.79626 -3.84181 0
M  V30 1606 N 151.976 -3.03422 -4.04684 0
M  V30 1607 C 150.274 -1.6806 -4.13124 0
M  V30 1608 C 150.975 -3.75345 -4.444 0
M  V30 1609 N 149.951 -3.03051 -4.51288 0
M  V30 1610 H 153.753 -1.99117 -2.1617 0
M  V30 1611 H 151.267 -1.17216 -1.12402 0
M  V30 1612 H 153.264 -0.517112 -4.13681 0
M  V30 1613 H 151.924 0.242139 -3.23796 0
M  V30 1614 H 152.935 -3.39293 -3.91281 0
M  V30 1615 H 149.612 -0.818629 -4.09396 0
M  V30 1616 H 151.002 -4.81691 -4.68427 0
M  V30 1617 N 153.722 1.14298 -1.08507 0
M  V30 1618 C 154.962 1.87016 -0.824894 0
M  V30 1619 C 155.326 1.81099 0.637735 0
M  V30 1620 O 156.527 2.48963 1.01345 0
M  V30 1621 C 154.798 3.31584 -1.33368 0
M  V30 1622 S 156.357 4.21903 -1.20596 0
M  V30 1623 H 153.175 0.645259 -0.2986 0
M  V30 1624 H 155.777 1.37822 -1.38656 0
M  V30 1625 H 154.481 3.33439 -2.39262 0
M  V30 1626 H 154.012 3.85836 -0.767734 0
M  V30 1627 H 156.027 4.95971 -0.150891 0
M  V30 1628 N 155.201 0.870884 1.31352 0
M  V30 1629 C 156.612 0.534714 1.78879 0
M  V30 1630 C 156.963 -0.948423 1.71754 0
M  V30 1631 O 156.088 -1.74055 1.28584 0
M  V30 1632 C 156.683 0.963839 3.24801 0
M  V30 1633 C 155.242 0.679311 3.70219 0
M  V30 1634 C 154.389 1.15465 2.52117 0
M  V30 1635 H 157.34 1.05651 1.18421 0
M  V30 1636 H 157.361 0.286892 3.79417 0
M  V30 1637 H 156.873 2.04332 3.29955 0
M  V30 1638 H 154.974 -0.388769 3.70566 0
M  V30 1639 H 155.087 1.25698 4.62317 0
M  V30 1640 H 153.451 0.574383 2.48139 0
M  V30 1641 H 154.234 2.24157 2.60016 0
M  V30 1642 N 156.679 -1.44442 0.630414 0
M  V30 1643 C 157.904 -2.06927 0.139944 0
M  V30 1644 C 158.329 -1.46795 -1.17613 0
M  V30 1645 O 157.687 -0.569144 -1.72135 0
M  V30 1646 C 157.735 -3.6058 0.0379581 0
M  V30 1647 O 156.839 -3.99937 -1.0062 0
M  V30 1648 H 156.18 -0.658608 0.0844483 0
M  V30 1649 H 158.71 -1.85327 0.866891 0
M  V30 1650 H 158.72 -4.07714 -0.152856 0
M  V30 1651 H 157.395 -4.03728 0.998809 0
M  V30 1652 H 155.972 -3.64436 -0.79001 0
M  V30 1653 N 158.157 -0.370918 -1.53173 0
M  V30 1654 C 159.385 0.217704 -2.05751 0
M  V30 1655 C 159.8 1.42018 -1.24404 0
M  V30 1656 O 159.157 1.80245 -0.286033 0
M  V30 1657 C 159.208 0.605954 -3.56385 0
M  V30 1658 O 158.929 -0.548734 -4.3465 0
M  V30 1659 C 160.43 1.2524 -4.25241 0
M  V30 1660 H 157.65 0.0371659 -0.66997 0
M  V30 1661 H 160.194 -0.530832 -1.9749 0
M  V30 1662 H 158.349 1.3044 -3.6478 0
M  V30 1663 H 158.763 -0.23376 -5.23979 0
M  V30 1664 H 160.237 1.47458 -5.3194 0
M  V30 1665 H 160.714 2.2143 -3.79296 0
M  V30 1666 H 161.32 0.595233 -4.21114 0
M  V30 1667 N 159.635 1.57281 -0.100228 0
M  V30 1668 C 161.046 1.81725 0.428107 0
M  V30 1669 C 161.397 1.01619 1.67833 0
M  V30 1670 O 160.522 0.247098 2.14985 0
M  V30 1671 C 161.117 3.29617 0.78347 0
M  V30 1672 C 159.676 3.54808 1.25653 0
M  V30 1673 C 158.823 2.76118 0.255752 0
M  V30 1674 H 161.774 1.55324 -0.325608 0
M  V30 1675 H 161.795 3.4322 1.64256 0
M  V30 1676 H 161.307 3.87893 -0.12665 0
M  V30 1677 H 159.408 3.01868 2.18418 0
M  V30 1678 H 159.521 4.63443 1.21482 0
M  V30 1679 H 157.885 2.43745 0.738956 0
M  V30 1680 H 158.668 3.37145 -0.647136 0
M  V30 1681 N 161.113 -0.173488 1.56642 0
M  V30 1682 C 162.362 -0.888758 1.81063 0
M  V30 1683 C 162.675 -1.83506 0.67712 0
M  V30 1684 O 163.881 -2.59254 0.806206 0
M  V30 1685 C 162.337 -1.63091 3.20826 0
M  V30 1686 C 161.945 -0.728357 4.4204 0
M  V30 1687 C 163.689 -2.33454 3.54541 0
M  V30 1688 C 161.596 -1.47062 5.72823 0
M  V30 1689 H 160.526 -0.335618 0.675186 0
M  V30 1690 H 163.177 -0.141712 1.82952 0
M  V30 1691 H 161.559 -2.42263 3.13248 0
M  V30 1692 H 162.733 0.0262449 4.60793 0
M  V30 1693 H 161.048 -0.134492 4.16183 0
M  V30 1694 H 163.645 -2.89578 4.49498 0
M  V30 1695 H 163.988 -3.08687 2.79317 0
M  V30 1696 H 164.521 -1.61227 3.63663 0
M  V30 1697 H 161.26 -0.760658 6.51072 0
M  V30 1698 H 160.78 -2.1986 5.58052 0
M  V30 1699 H 162.459 -2.01868 6.14702 0
M  V30 1700 N 162.591 -1.51276 -0.441967 0
M  V30 1701 C 163.84 -1.6295 -1.18871 0
M  V30 1702 C 164.153 -0.349312 -1.92456 0
M  V30 1703 O 165.359 -0.345355 -2.69295 0
M  V30 1704 C 163.815 -2.87759 -2.16155 0
M  V30 1705 C 163.423 -4.22764 -1.48239 0
M  V30 1706 C 165.167 -3.08788 -2.91291 0
M  V30 1707 C 163.074 -5.38728 -2.4398 0
M  V30 1708 H 162.004 -0.606913 -0.447406 0
M  V30 1709 H 164.655 -1.77739 -0.456205 0
M  V30 1710 H 163.037 -2.66593 -2.92821 0
M  V30 1711 H 164.211 -4.54293 -0.771635 0
M  V30 1712 H 162.526 -4.07575 -0.852741 0
M  V30 1713 H 165.123 -3.92599 -3.63002 0
M  V30 1714 H 165.466 -2.21679 -3.5237 0
M  V30 1715 H 165.999 -3.30272 -2.21733 0
M  V30 1716 H 162.738 -6.28082 -1.87598 0
M  V30 1717 H 162.258 -5.1158 -3.13123 0
M  V30 1718 H 163.937 -5.70489 -3.05207 0
M  V30 1719 N 164.069 0.697108 -1.41344 0
M  V30 1720 C 164.999 1.82353 -1.45841 0
M  V30 1721 C 165.98 1.67115 -0.317247 0
M  V30 1722 O 167.165 1.86871 -0.528474 0
M  V30 1723 C 164.295 3.20476 -1.33838 0
M  V30 1724 C 163.249 3.50415 -2.4575 0
M  V30 1725 C 162.575 4.87878 -2.18813 0
M  V30 1726 C 163.875 3.49546 -3.88091 0
M  V30 1727 H 165.569 1.78846 -2.40113 0
M  V30 1728 H 163.115 0.859028 -1.15571 0
M  V30 1729 H 165.068 3.98988 -1.35596 0
M  V30 1730 H 163.792 3.24604 -0.360498 0
M  V30 1731 H 162.451 2.74253 -2.43271 0
M  V30 1732 H 162.099 4.8863 -1.19371 0
M  V30 1733 H 161.799 5.08875 -2.93803 0
M  V30 1734 H 163.323 5.68702 -2.22284 0
M  V30 1735 H 164.737 4.18066 -3.92293 0
M  V30 1736 H 163.134 3.82075 -4.62751 0
M  V30 1737 H 164.204 2.48552 -4.16353 0
M  V30 1738 N 165.547 1.27147 0.931209 0
M  V30 1739 C 166.793 1.13446 1.68101 0
M  V30 1740 C 167.126 -0.319628 1.91552 0
M  V30 1741 O 166.401 -1.23407 1.50336 0
M  V30 1742 C 166.684 1.91482 3.0497 0
M  V30 1743 C 166.537 3.44855 2.88782 0
M  V30 1744 C 167.856 1.71651 4.05246 0
M  V30 1745 H 164.975 0.413498 0.610072 0
M  V30 1746 H 167.617 1.56261 1.08086 0
M  V30 1747 H 165.767 1.55095 3.56199 0
M  V30 1748 H 167.439 3.9105 2.44698 0
M  V30 1749 H 165.682 3.71373 2.24198 0
M  V30 1750 H 166.353 3.94694 3.85902 0
M  V30 1751 H 168.829 2.0337 3.63015 0
M  V30 1752 H 167.705 2.28651 4.99009 0
M  V30 1753 H 167.966 0.663555 4.37092 0
M  V30 1754 N 167.025 -1.13721 1.09112 0
M  V30 1755 C 168.273 -1.84559 0.823562 0
M  V30 1756 C 168.594 -1.83754 -0.652658 0
M  V30 1757 O 167.864 -1.29102 -1.47342 0
M  V30 1758 H 166.444 -0.683376 0.301673 0
M  V30 1759 H 169.106 -1.37771 1.37859 0
M  V30 1760 H 168.202 -2.8917 1.17419 0
M  V30 1761 N 168.503 -0.877838 -1.30888 0
M  V30 1762 C 169.731 -0.507414 -2.00581 0
M  V30 1763 C 170.146 0.902216 -1.65848 0
M  V30 1764 O 169.503 1.59225 -0.891831 0
M  V30 1765 C 169.554 -0.664162 -3.55347 0
M  V30 1766 O 169.275 -2.01829 -3.8884 0
M  V30 1767 C 170.776 -0.295787 -4.42312 0
M  V30 1768 H 167.996 -0.196866 -0.641471 0
M  V30 1769 H 170.54 -1.18117 -1.66939 0
M  V30 1770 H 168.695 -0.0378619 -3.87381 0
M  V30 1771 H 169.109 -2.03174 -4.8355 0
M  V30 1772 H 170.583 -0.456388 -5.5011 0
M  V30 1773 H 171.06 0.765663 -4.32475 0
M  V30 1774 H 171.666 -0.898113 -4.15709 0
M  V30 1775 N 169.982 1.44106 -0.638065 0
M  V30 1776 C 170.929 2.30715 0.062701 0
M  V30 1777 C 171.899 1.43882 0.829883 0
M  V30 1778 O 173.084 1.72775 0.809532 0
M  V30 1779 C 170.224 3.29258 1.03358 0
M  V30 1780 C 169.337 4.31192 0.26409 0
M  V30 1781 C 168.472 5.16825 1.22741 0
M  V30 1782 C 167.511 6.10462 0.447475 0
M  V30 1783 N 166.648 6.8877 1.36161 0
M  V30 1784 H 171.488 2.90096 -0.681781 0
M  V30 1785 H 169.025 1.42925 -0.347988 0
M  V30 1786 H 170.983 3.84886 1.60992 0
M  V30 1787 H 169.613 2.71562 1.74511 0
M  V30 1788 H 168.665 3.77981 -0.428295 0
M  V30 1789 H 169.977 4.97619 -0.343052 0
M  V30 1790 H 169.131 5.77004 1.87487 0
M  V30 1791 H 167.87 4.50488 1.86847 0
M  V30 1792 H 166.875 5.49386 -0.213433 0
M  V30 1793 H 168.1 6.78837 -0.188968 0
M  V30 1794 H 166.046 6.25096 1.98975 0
M  V30 1795 H 165.963 7.51663 0.808656 0
M  V30 1796 H 167.231 7.53467 1.99769 0
M  V30 1797 N 171.46 0.379036 1.52974 0
M  V30 1798 C 172.39 -0.452706 2.29069 0
M  V30 1799 C 173.371 -1.07237 1.32039 0
M  V30 1800 O 174.556 -1.08708 1.60923 0
M  V30 1801 C 171.686 -1.5856 3.08992 0
M  V30 1802 C 170.64 -1.0925 4.13822 0
M  V30 1803 C 169.966 -2.31668 4.81907 0
M  V30 1804 C 171.266 -0.167702 5.22031 0
M  V30 1805 H 172.96 0.182181 2.98845 0
M  V30 1806 H 170.506 0.0890592 1.43724 0
M  V30 1807 H 172.459 -2.1742 3.6098 0
M  V30 1808 H 171.183 -2.24792 2.36931 0
M  V30 1809 H 169.842 -0.526494 3.628 0
M  V30 1810 H 169.49 -2.96386 4.06404 0
M  V30 1811 H 169.19 -1.9934 5.52754 0
M  V30 1812 H 170.714 -2.91189 5.36695 0
M  V30 1813 H 172.128 -0.664186 5.6944 0
M  V30 1814 H 170.525 0.0653265 6.00064 0
M  V30 1815 H 171.595 0.786347 4.78482 0
M  V30 1816 N 172.938 -1.57226 0.108567 0
M  V30 1817 C 174.215 -1.86333 -0.594939 0
M  V30 1818 C 174.595 -1.00788 -1.85486 0
M  V30 1819 O 173.943 -0.0839293 -2.28346 0
M  V30 1820 C 174.153 -3.37265 -0.897405 0
M  V30 1821 C 175.501 -4.05629 -1.25501 0
M  V30 1822 O 176.525 -3.42224 -0.987998 0
M  V30 1823 O 175.384 -5.17531 -1.75567 0
M  V30 1824 H 172.478 -0.771018 -0.2991 0
M  V30 1825 H 175.024 -1.69102 0.142283 0
M  V30 1826 H 173.796 -3.913 -0.00413806 0
M  V30 1827 H 173.419 -3.59889 -1.69014 0
M  V30 1828 N 174.416 0.165178 -1.56732 0
M  V30 1829 C 175.346 1.20651 -1.99914 0
M  V30 1830 C 176.327 1.45827 -0.875705 0
M  V30 1831 O 177.512 1.57057 -1.14223 0
M  V30 1832 C 174.642 2.54401 -2.36427 0
M  V30 1833 C 173.596 2.43782 -3.51787 0
M  V30 1834 C 172.922 3.82078 -3.7406 0
M  V30 1835 C 174.222 1.93732 -4.85041 0
M  V30 1836 H 175.916 0.847534 -2.87154 0
M  V30 1837 H 173.462 0.40625 -1.38151 0
M  V30 1838 H 175.415 3.27458 -2.65234 0
M  V30 1839 H 174.139 2.92098 -1.46103 0
M  V30 1840 H 172.798 1.73178 -3.23117 0
M  V30 1841 H 172.446 4.17179 -2.81017 0
M  V30 1842 H 172.146 3.7584 -4.51684 0
M  V30 1843 H 173.67 4.56712 -4.05274 0
M  V30 1844 H 175.084 2.56569 -5.12684 0
M  V30 1845 H 173.481 1.98428 -5.66345 0
M  V30 1846 H 174.551 0.891962 -4.76626 0
M  V30 1847 N 175.894 1.51508 0.433938 0
M  V30 1848 C 177.31 1.39759 0.770682 0
M  V30 1849 C 177.51 0.482594 1.95636 0
M  V30 1850 O 176.566 -0.0609691 2.52426 0
M  V30 1851 C 177.879 2.81851 1.04787 0
M  V30 1852 C 179.427 2.91025 1.1521 0
M  V30 1853 C 179.902 4.34032 1.46219 0
M  V30 1854 N 181.393 4.37154 1.53136 0
M  V30 1855 C 182.128 5.4484 1.78709 0
M  V30 1856 N 181.624 6.62682 2.02051 0
M  V30 1857 N 183.417 5.32324 1.80519 0
M  V30 1858 H 175.568 2.09548 -0.346892 0
M  V30 1859 H 177.831 0.943446 -0.0928074 0
M  V30 1860 H 177.537 3.50815 0.249304 0
M  V30 1861 H 177.411 3.21386 1.97461 0
M  V30 1862 H 179.798 2.22257 1.94128 0
M  V30 1863 H 179.879 2.54983 0.204281 0
M  V30 1864 H 179.523 5.03351 0.678274 0
M  V30 1865 H 179.453 4.6759 2.42212 0
M  V30 1866 H 181.944 3.52197 1.36987 0
M  V30 1867 H 182.257 7.40543 2.20943 0
M  V30 1868 H 180.602 6.65791 1.99366 0
M  V30 1869 H 183.793 4.39246 1.61805 0
M  V30 1870 H 183.966 6.16328 2.00111 0
M  V30 1871 N 177.372 -0.689602 1.41712 0
M  V30 1872 C 178.649 -1.44457 1.31877 0
M  V30 1873 C 179.029 -2.11039 -0.0508537 0
M  V30 1874 O 178.377 -2.02138 -1.06547 0
M  V30 1875 C 178.587 -2.45913 2.47645 0
M  V30 1876 C 179.935 -3.10991 2.89084 0
M  V30 1877 O 180.959 -2.56238 2.47428 0
M  V30 1878 O 179.818 -4.10174 3.61137 0
M  V30 1879 H 176.912 -0.64362 0.519309 0
M  V30 1880 H 179.458 -0.719576 1.53689 0
M  V30 1881 H 178.23 -1.95409 3.39015 0
M  V30 1882 H 177.853 -3.25913 2.27742 0
M  V30 1883 N 178.85 -1.27639 -0.924453 0
M  V30 1884 C 180.127 -1.04887 -1.651 0
M  V30 1885 C 180.507 0.415327 -2.06974 0
M  V30 1886 O 179.855 1.39923 -1.80648 0
M  V30 1887 C 180.065 -2.01348 -2.85061 0
M  V30 1888 C 181.413 -2.30899 -3.56329 0
M  V30 1889 O 182.437 -1.99348 -2.95193 0
M  V30 1890 O 181.296 -2.84699 -4.66485 0
M  V30 1891 H 178.39 -0.400083 -0.723784 0
M  V30 1892 H 180.936 -1.38916 -0.974703 0
M  V30 1893 H 179.708 -3.0008 -2.51133 0
M  V30 1894 H 179.331 -1.679 -3.6041 0
M  V30 1895 N 180.328 1.1314 -1.09713 0
M  V30 1896 C 181.275 2.18642 -0.739196 0
M  V30 1897 C 182.245 1.63706 0.280978 0
M  V30 1898 O 183.43 1.90111 0.161946 0
M  V30 1899 C 180.57 3.44685 -0.169102 0
M  V30 1900 C 179.683 4.13711 -1.24367 0
M  V30 1901 C 178.818 5.27379 -0.636019 0
M  V30 1902 C 177.857 5.88259 -1.69169 0
M  V30 1903 N 176.994 6.93352 -1.10485 0
M  V30 1904 H 181.834 2.48607 -1.64312 0
M  V30 1905 H 179.371 1.22066 -0.820875 0
M  V30 1906 H 181.329 4.16815 0.179256 0
M  V30 1907 H 179.959 3.15161 0.698079 0
M  V30 1908 H 179.011 3.39835 -1.70927 0
M  V30 1909 H 180.323 4.55037 -2.04311 0
M  V30 1910 H 179.477 6.06238 -0.236677 0
M  V30 1911 H 178.216 4.8731 0.194928 0
M  V30 1912 H 177.221 5.08092 -2.10055 0
M  V30 1913 H 178.446 6.30399 -2.52536 0
M  V30 1914 H 176.392 6.55335 -0.295234 0
M  V30 1915 H 176.309 7.33236 -1.84121 0
M  V30 1916 H 177.577 7.76057 -0.73181 0
M  V30 1917 N 181.806 0.884767 1.30421 0
M  V30 1918 C 183.083 0.423185 1.90967 0
M  V30 1919 C 183.463 -1.09605 1.80416 0
M  V30 1920 O 182.811 -1.93126 1.22125 0
M  V30 1921 C 183.021 0.921056 3.36627 0
M  V30 1922 C 184.369 0.955903 4.137 0
M  V30 1923 O 185.393 0.867706 3.4547 0
M  V30 1924 O 184.252 1.08614 5.35598 0
M  V30 1925 H 181.346 0.129369 0.816819 0
M  V30 1926 H 183.892 0.973653 1.3899 0
M  V30 1927 H 182.664 1.96489 3.3839 0
M  V30 1928 H 182.287 0.349741 3.96059 0
M  V30 1929 N 183.284 -1.43765 0.645699 0
M  V30 1930 C 184.512 -2.06253 0.163556 0
M  V30 1931 C 184.927 -1.48352 -1.16778 0
M  V30 1932 O 184.284 -0.611932 -1.71935 0
M  V30 1933 C 184.335 -3.61453 0.0583186 0
M  V30 1934 O 184.056 -4.172 1.33702 0
M  V30 1935 C 185.557 -4.41002 -0.450795 0
M  V30 1936 H 182.777 -0.665413 0.0864077 0
M  V30 1937 H 185.321 -1.84396 0.884222 0
M  V30 1938 H 183.476 -3.82522 -0.612865 0
M  V30 1939 H 183.89 -5.10791 1.19131 0
M  V30 1940 H 185.364 -5.49966 -0.473403 0
M  V30 1941 H 185.841 -4.13488 -1.48068 0
M  V30 1942 H 186.447 -4.24886 0.187637 0
M  V30 1943 N 184.763 -0.387143 -1.52771 0
M  V30 1944 C 186.012 0.19697 -2.00736 0
M  V30 1945 C 186.325 1.48082 -1.27793 0
M  V30 1946 O 187.531 2.14485 -1.66458 0
M  V30 1947 C 185.987 0.401568 -3.57653 0
M  V30 1948 C 185.595 -0.868907 -4.39493 0
M  V30 1949 C 187.339 0.942164 -4.13912 0
M  V30 1950 C 185.246 -0.632705 -5.88006 0
M  V30 1951 H 184.176 0.0773827 -0.750019 0
M  V30 1952 H 186.827 -0.50921 -1.76293 0
M  V30 1953 H 185.209 1.16954 -3.78335 0
M  V30 1954 H 186.383 -1.64133 -4.30577 0
M  V30 1955 H 184.698 -1.33429 -3.94443 0
M  V30 1956 H 187.295 1.13455 -5.22525 0
M  V30 1957 H 187.638 1.9106 -3.69867 0
M  V30 1958 H 188.171 0.233814 -3.97112 0
M  V30 1959 H 184.91 -1.57208 -6.36369 0
M  V30 1960 H 184.43 0.100825 -5.99715 0
M  V30 1961 H 186.109 -0.26642 -6.46451 0
M  V30 1962 N 186.241 1.57166 -0.116904 0
M  V30 1963 C 187.151 2.18745 0.847812 0
M  V30 1964 C 188.167 1.163 1.29423 0
M  V30 1965 O 189.343 1.48761 1.35765 0
M  V30 1966 C 186.408 2.77307 2.0809 0
M  V30 1967 C 185.469 3.94781 1.68661 0
M  V30 1968 C 184.702 4.50541 2.86091 0
M  V30 1969 O 184.925 4.05202 4.01456 0
M  V30 1970 O 183.859 5.41256 2.63298 0
M  V30 1971 H 187.685 3.01632 0.353778 0
M  V30 1972 H 185.27 1.49005 0.108599 0
M  V30 1973 H 187.152 3.14647 2.80313 0
M  V30 1974 H 185.827 1.97452 2.56504 0
M  V30 1975 H 184.734 3.62214 0.935518 0
M  V30 1976 H 186.067 4.76065 1.24991 0
M  V30 1977 N 187.719 -0.156864 1.56817 0
M  V30 1978 C 188.666 -1.19394 1.97519 0
M  V30 1979 C 189.636 -1.4322 0.841265 0
M  V30 1980 O 190.821 -1.55719 1.10255 0
M  V30 1981 C 187.961 -2.52483 2.35258 0
M  V30 1982 C 187.074 -2.35914 3.61896 0
M  V30 1983 C 186.209 -3.61969 3.88782 0
M  V30 1984 C 185.248 -3.40395 5.08722 0
M  V30 1985 N 184.385 -4.58556 5.31668 0
M  V30 1986 H 189.225 -0.839845 2.85921 0
M  V30 1987 H 186.762 -0.403264 1.41464 0
M  V30 1988 H 188.72 -3.30071 2.55165 0
M  V30 1989 H 187.35 -2.85859 1.49949 0
M  V30 1990 H 186.402 -1.49429 3.49821 0
M  V30 1991 H 187.714 -2.15926 4.49641 0
M  V30 1992 H 186.868 -4.47989 4.09135 0
M  V30 1993 H 185.607 -3.84951 2.9944 0
M  V30 1994 H 184.612 -2.52763 4.88253 0
M  V30 1995 H 185.837 -3.18822 5.99608 0
M  V30 1996 H 183.783 -4.81729 4.45279 0
M  V30 1997 H 183.7 -4.41535 6.13664 0
M  V30 1998 H 184.968 -5.45817 5.5651 0
M  V30 1999 N 189.197 -1.51736 -0.425897 0
M  V30 2000 C 190.127 -1.76827 -1.52494 0
M  V30 2001 C 191.108 -0.618524 -1.58456 0
M  V30 2002 O 192.293 -0.862416 -1.74 0
M  V30 2003 C 189.423 -1.90374 -2.90474 0
M  V30 2004 C 188.377 -3.0588 -2.99369 0
M  V30 2005 C 187.703 -3.04625 -4.3944 0
M  V30 2006 C 189.003 -4.45644 -2.72394 0
M  V30 2007 H 190.697 -2.68855 -1.31748 0
M  V30 2008 H 188.243 -1.29372 -0.632362 0
M  V30 2009 H 190.196 -2.0651 -3.6733 0
M  V30 2010 H 188.92 -0.95004 -3.12477 0
M  V30 2011 H 187.579 -2.89467 -2.24954 0
M  V30 2012 H 187.227 -2.0701 -4.58428 0
M  V30 2013 H 186.927 -3.82195 -4.46319 0
M  V30 2014 H 188.451 -3.22869 -5.18255 0
M  V30 2015 H 189.865 -4.62348 -3.38979 0
M  V30 2016 H 188.262 -5.25006 -2.9067 0
M  V30 2017 H 189.332 -4.54893 -1.67929 0
M  V30 2018 N 190.675 0.682077 -1.42076 0
M  V30 2019 C 191.622 1.79578 -1.44984 0
M  V30 2020 C 192.592 1.6332 -0.302614 0
M  V30 2021 O 193.777 1.83978 -0.505633 0
M  V30 2022 C 190.917 3.1756 -1.35091 0
M  V30 2023 C 190.03 3.45156 -2.59791 0
M  V30 2024 C 189.165 4.72826 -2.42093 0
M  V30 2025 C 188.204 4.93433 -3.62202 0
M  V30 2026 N 187.341 6.12338 -3.43491 0
M  V30 2027 H 192.181 1.76427 -2.40161 0
M  V30 2028 H 189.718 0.861376 -1.19242 0
M  V30 2029 H 191.676 3.97287 -1.27354 0
M  V30 2030 H 190.306 3.19854 -0.435133 0
M  V30 2031 H 189.358 2.59736 -2.77923 0
M  V30 2032 H 190.67 3.5628 -3.49094 0
M  V30 2033 H 189.824 5.60631 -2.319 0
M  V30 2034 H 188.563 4.63973 -1.50268 0
M  V30 2035 H 187.568 4.04073 -3.72834 0
M  V30 2036 H 188.793 5.04136 -4.54998 0
M  V30 2037 H 186.739 6.04672 -2.54377 0
M  V30 2038 H 186.656 6.2429 -4.26377 0
M  V30 2039 H 187.924 7.02841 -3.37097 0
M  V30 2040 N 192.153 1.28127 0.917671 0
M  V30 2041 C 193.063 1.13556 2.05286 0
M  V30 2042 C 194.079 0.0630914 1.73886 0
M  V30 2043 O 195.255 0.271598 1.9956 0
M  V30 2044 C 192.32 0.794676 3.3747 0
M  V30 2045 C 191.381 1.94909 3.82504 0
M  V30 2046 C 190.614 1.62437 5.0838 0
M  V30 2047 O 190.837 0.536905 5.67867 0
M  V30 2048 O 189.771 2.46677 5.4903 0
M  V30 2049 H 193.597 2.08844 2.20495 0
M  V30 2050 H 191.182 1.07409 1.03845 0
M  V30 2051 H 193.064 0.618344 4.16839 0
M  V30 2052 H 191.739 -0.128581 3.23445 0
M  V30 2053 H 190.646 2.18055 3.03978 0
M  V30 2054 H 191.979 2.85291 4.01086 0
M  V30 2055 N 193.631 -1.12557 1.10312 0
M  V30 2056 C 194.578 -2.18247 0.750781 0
M  V30 2057 C 195.548 -1.63853 -0.272293 0
M  V30 2058 O 196.733 -1.90195 -0.151862 0
M  V30 2059 C 193.873 -3.44591 0.187379 0
M  V30 2060 C 192.986 -4.13046 1.2656 0
M  V30 2061 C 192.121 -5.27034 0.663978 0
M  V30 2062 C 191.16 -5.87353 1.72287 0
M  V30 2063 N 190.297 -6.92757 1.1416 0
M  V30 2064 H 195.137 -2.47732 1.65628 0
M  V30 2065 H 192.674 -1.21629 0.827337 0
M  V30 2066 H 194.632 -4.16904 -0.157148 0
M  V30 2067 H 193.262 -3.15527 -0.681355 0
M  V30 2068 H 192.314 -3.38924 1.72727 0
M  V30 2069 H 193.626 -4.53947 2.06721 0
M  V30 2070 H 192.78 -6.06104 0.268824 0
M  V30 2071 H 191.519 -4.87407 -0.169082 0
M  V30 2072 H 190.524 -5.06971 2.12746 0
M  V30 2073 H 191.749 -6.29051 2.55875 0
M  V30 2074 H 189.695 -6.5517 0.329984 0
M  V30 2075 H 189.612 -7.3225 1.88007 0
M  V30 2076 H 190.88 -7.75658 0.772956 0
M  V30 2077 N 195.109 -0.891671 -1.2995 0
M  V30 2078 C 196.056 -0.361736 -2.27948 0
M  V30 2079 C 197.026 0.551761 -1.56668 0
M  V30 2080 O 198.211 0.478736 -1.84696 0
M  V30 2081 C 195.351 0.411825 -3.42634 0
M  V30 2082 C 194.464 -0.531651 -4.28716 0
M  V30 2083 C 193.599 0.258167 -5.30572 0
M  V30 2084 C 192.638 -0.680349 -6.08307 0
M  V30 2085 N 191.775 0.0745613 -7.0206 0
M  V30 2086 H 196.615 -1.20254 -2.72659 0
M  V30 2087 H 194.152 -0.604352 -1.34112 0
M  V30 2088 H 196.11 0.876304 -4.07893 0
M  V30 2089 H 194.74 1.21715 -2.98974 0
M  V30 2090 H 193.792 -1.11463 -3.63703 0
M  V30 2091 H 195.104 -1.25038 -4.82874 0
M  V30 2092 H 194.258 0.784204 -6.0161 0
M  V30 2093 H 192.997 1.01008 -4.77126 0
M  V30 2094 H 192.002 -1.21796 -5.3614 0
M  V30 2095 H 193.227 -1.43145 -6.63842 0
M  V30 2096 H 191.173 0.808883 -6.50994 0
M  V30 2097 H 191.09 -0.584409 -7.53738 0
M  V30 2098 H 192.358 0.581123 -7.77331 0
M  V30 2099 N 196.587 1.43421 -0.653314 0
M  V30 2100 C 197.517 2.33487 0.0246656 0
M  V30 2101 C 198.498 1.49475 0.811863 0
M  V30 2102 O 199.683 1.78139 0.773322 0
M  V30 2103 C 196.813 3.32841 0.99166 0
M  V30 2104 C 195.767 4.26842 0.314568 0
M  V30 2105 C 195.093 5.16236 1.39302 0
M  V30 2106 C 196.393 5.16243 -0.793095 0
M  V30 2107 H 198.087 2.90427 -0.727481 0
M  V30 2108 H 195.633 1.39649 -0.351287 0
M  V30 2109 H 197.586 3.94747 1.47487 0
M  V30 2110 H 196.31 2.74158 1.77497 0
M  V30 2111 H 194.969 3.663 -0.148199 0
M  V30 2112 H 194.617 4.53891 2.16776 0
M  V30 2113 H 194.317 5.79948 0.945223 0
M  V30 2114 H 195.841 5.81015 1.87759 0
M  V30 2115 H 197.255 5.71958 -0.392039 0
M  V30 2116 H 195.652 5.88676 -1.16536 0
M  V30 2117 H 196.722 4.55927 -1.65103 0
M  V30 2118 N 198.065 0.39524 1.52563 0
M  V30 2119 C 199.028 -0.425001 2.25225 0
M  V30 2120 C 200.028 -0.985266 1.27079 0
M  V30 2121 O 201.218 -0.866332 1.5113 0
M  V30 2122 C 198.35 -1.59686 3.01186 0
M  V30 2123 H 199.543 0.211233 2.99155 0
M  V30 2124 H 197.096 0.147472 1.55603 0
M  V30 2125 H 197.831 -2.27035 2.31572 0
M  V30 2126 H 197.616 -1.20176 3.73229 0
M  V30 2127 H 199.106 -2.17743 3.5634 0
M  V30 2128 N 199.544 -1.57102 0.125237 0
M  V30 2129 C 200.955 -1.82384 -0.399142 0
M  V30 2130 C 201.306 -1.04276 -1.66195 0
M  V30 2131 O 200.431 -0.281269 -2.14564 0
M  V30 2132 C 201.026 -3.30821 -0.730932 0
M  V30 2133 C 199.585 -3.56762 -1.19992 0
M  V30 2134 C 198.732 -2.7649 -0.211792 0
M  V30 2135 H 201.683 -1.54786 0.350277 0
M  V30 2136 H 201.704 -3.4579 -1.58775 0
M  V30 2137 H 201.216 -3.87643 0.188345 0
M  V30 2138 H 199.317 -3.05305 -2.13588 0
M  V30 2139 H 199.43 -4.65317 -1.14093 0
M  V30 2140 H 197.794 -2.4489 -0.700085 0
M  V30 2141 H 198.577 -3.36073 0.700691 0
M  V30 2142 N 201.022 0.148545 -1.56898 0
M  V30 2143 C 202.271 0.85984 -1.82454 0
M  V30 2144 C 202.584 1.82406 -0.706229 0
M  V30 2145 O 203.79 2.57938 -0.847349 0
M  V30 2146 C 202.246 1.57967 -3.2338 0
M  V30 2147 C 201.854 0.65794 -4.43142 0
M  V30 2148 C 203.598 2.27784 -3.58211 0
M  V30 2149 C 201.505 1.3793 -5.75091 0
M  V30 2150 H 200.435 0.324834 -0.68044 0
M  V30 2151 H 203.086 0.112588 -1.83154 0
M  V30 2152 H 201.468 2.37249 -3.17063 0
M  V30 2153 H 202.642 -0.0995497 -4.60692 0
M  V30 2154 H 200.957 0.0682643 -4.16344 0
M  V30 2155 H 203.554 2.8239 -4.54048 0
M  V30 2156 H 203.897 3.04204 -2.84193 0
M  V30 2157 H 204.43 1.55421 -3.66182 0
M  V30 2158 H 201.169 0.656982 -6.52199 0
M  V30 2159 H 200.689 2.10954 -5.61479 0
M  V30 2160 H 202.368 1.92063 -6.17835 0
M  V30 2161 N 202.5 1.5196 0.417844 0
M  V30 2162 C 203.728 1.69426 1.18753 0
M  V30 2163 C 204.143 0.399955 1.84515 0
M  V30 2164 O 203.5 -0.623288 1.71527 0
M  V30 2165 C 203.551 2.82375 2.25714 0
M  V30 2166 O 203.272 4.06793 1.62638 0
M  V30 2167 C 204.773 3.11277 3.15628 0
M  V30 2168 H 201.993 0.568031 0.357186 0
M  V30 2169 H 204.537 1.98475 0.49273 0
M  V30 2170 H 202.692 2.5587 2.90877 0
M  V30 2171 H 203.106 4.69667 2.3348 0
M  V30 2172 H 204.58 3.93843 3.86771 0
M  V30 2173 H 205.057 2.24473 3.77503 0
M  V30 2174 H 205.663 3.39515 2.56144 0
M  V30 2175 N 203.978 -0.674533 1.42435 0
M  V30 2176 C 205.208 -1.46071 1.46105 0
M  V30 2177 C 205.616 -1.89067 0.0709605 0
M  V30 2178 O 204.959 -1.58731 -0.924677 0
M  V30 2179 C 205.021 -2.74145 2.32561 0
M  V30 2180 C 204.685 -2.53224 3.8043 0
M  V30 2181 C 205.682 -2.17809 4.72075 0
M  V30 2182 C 203.367 -2.6821 4.24698 0
M  V30 2183 C 205.361 -1.97648 6.05982 0
M  V30 2184 C 203.048 -2.47665 5.58664 0
M  V30 2185 C 204.046 -2.12437 6.49122 0
M  V30 2186 O 203.734 -1.9209 7.80613 0
M  V30 2187 H 203.466 -0.455959 0.499076 0
M  V30 2188 H 206.02 -0.836193 1.87609 0
M  V30 2189 H 204.25 -3.3908 1.85908 0
M  V30 2190 H 205.939 -3.36028 2.27683 0
M  V30 2191 H 206.705 -2.05826 4.39159 0
M  V30 2192 H 202.584 -2.94609 3.54579 0
M  V30 2193 H 206.128 -1.70075 6.7655 0
M  V30 2194 H 202.025 -2.59244 5.91154 0
M  V30 2195 H 202.793 -2.06686 7.91974 0
M  V30 2196 N 205.456 -1.28612 -0.910864 0
M  V30 2197 C 206.867 -1.14406 -1.47541 0
M  V30 2198 C 207.218 0.264901 -1.94403 0
M  V30 2199 O 206.343 1.15942 -1.82719 0
M  V30 2200 C 206.938 -2.07073 -2.68153 0
M  V30 2201 C 205.497 -1.96923 -3.20778 0
M  V30 2202 C 204.644 -1.98646 -1.93481 0
M  V30 2203 H 207.595 -1.41259 -0.723291 0
M  V30 2204 H 207.616 -1.63642 -3.43514 0
M  V30 2205 H 207.128 -3.09611 -2.34015 0
M  V30 2206 H 205.229 -0.97433 -3.59635 0
M  V30 2207 H 205.342 -2.84026 -3.85832 0
M  V30 2208 H 203.706 -1.43093 -2.10705 0
M  V30 2209 H 204.489 -3.02868 -1.61634 0
M  V30 2210 N 206.934 1.1197 -1.10907 0
M  V30 2211 C 207.866 2.17592 -0.720175 0
M  V30 2212 C 208.879 1.60938 0.245495 0
M  V30 2213 O 210.068 1.78476 0.0292245 0
M  V30 2214 C 207.168 3.38873 -0.0427917 0
M  V30 2215 C 206.341 4.25006 -1.03388 0
M  V30 2216 C 205.4 5.24774 -0.387075 0
M  V30 2217 O 204.426 5.59631 -1.03934 0
M  V30 2218 N 205.628 5.74208 0.852407 0
M  V30 2219 H 208.393 2.51567 -1.62893 0
M  V30 2220 H 205.954 1.27439 -0.998543 0
M  V30 2221 H 207.946 4.02703 0.401501 0
M  V30 2222 H 206.516 3.03007 0.768456 0
M  V30 2223 H 205.736 3.57716 -1.65629 0
M  V30 2224 H 207.024 4.79397 -1.70458 0
M  V30 2225 H 206.422 5.48062 1.40161 0
M  V30 2226 H 204.979 6.39901 1.23977 0
M  V30 2227 N 208.412 0.89855 1.29475 0
M  V30 2228 C 209.66 0.522847 1.9522 0
M  V30 2229 C 209.981 -0.93371 1.71192 0
M  V30 2230 O 209.251 -1.65823 1.04305 0
M  V30 2231 H 207.831 0.190366 0.722336 0
M  V30 2232 H 210.493 1.14459 1.5775 0
M  V30 2233 H 209.589 0.704476 3.04045 0
M  V30 2234 N 209.89 -1.43072 0.660911 0
M  V30 2235 C 210.82 -2.33497 -0.0122829 0
M  V30 2236 C 211.801 -1.49903 -0.803925 0
M  V30 2237 O 212.986 -1.78546 -0.763864 0
M  V30 2238 C 210.116 -3.33363 -0.973994 0
M  V30 2239 C 209.07 -4.27003 -0.291928 0
M  V30 2240 C 208.396 -5.16967 -1.36562 0
M  V30 2241 C 209.696 -5.15816 0.820462 0
M  V30 2242 H 211.39 -2.90038 0.742873 0
M  V30 2243 H 208.936 -1.39461 0.358688 0
M  V30 2244 H 210.889 -3.95524 -1.45392 0
M  V30 2245 H 209.613 -2.75095 -1.7604 0
M  V30 2246 H 208.272 -3.66217 0.167623 0
M  V30 2247 H 207.92 -4.55034 -2.14366 0
M  V30 2248 H 207.62 -5.80441 -0.914454 0
M  V30 2249 H 209.144 -5.82003 -1.84675 0
M  V30 2250 H 210.558 -5.71742 0.422366 0
M  V30 2251 H 208.955 -5.8805 1.19656 0
M  V30 2252 H 210.025 -4.55045 1.67518 0
M  V30 2253 N 211.368 -0.403325 -1.52352 0
M  V30 2254 C 212.331 0.413051 -2.25447 0
M  V30 2255 C 213.331 0.978513 -1.276 0
M  V30 2256 O 214.521 0.858305 -1.51587 0
M  V30 2257 C 211.653 1.58087 -3.02029 0
M  V30 2258 H 212.846 -0.227094 -2.99039 0
M  V30 2259 H 210.399 -0.155722 -1.55522 0
M  V30 2260 H 211.134 2.25804 -2.32772 0
M  V30 2261 H 210.919 1.18195 -3.73861 0
M  V30 2262 H 212.409 2.1585 -3.57489 0
M  V30 2263 N 212.846 1.57033 -0.133567 0
M  V30 2264 C 213.776 2.1909 0.807567 0
M  V30 2265 C 214.757 1.13517 1.26681 0
M  V30 2266 O 215.942 1.41809 1.32679 0
M  V30 2267 C 213.072 2.80188 2.05212 0
M  V30 2268 C 212.026 3.91471 1.73015 0
M  V30 2269 C 211.352 4.39443 3.04622 0
M  V30 2270 C 212.652 5.12886 0.987168 0
M  V30 2271 H 214.346 2.97988 0.290403 0
M  V30 2272 H 211.892 1.43335 0.138239 0
M  V30 2273 H 213.845 3.22264 2.71521 0
M  V30 2274 H 212.569 1.98601 2.59278 0
M  V30 2275 H 211.228 3.49993 1.0909 0
M  V30 2276 H 210.876 3.54695 3.56651 0
M  V30 2277 H 210.576 5.14495 2.83847 0
M  V30 2278 H 212.1 4.8418 3.72024 0
M  V30 2279 H 213.514 5.51891 1.55208 0
M  V30 2280 H 211.911 5.93615 0.87985 0
M  V30 2281 H 212.981 4.84894 -0.0235286 0
M  V30 2282 N 214.325 -0.140222 1.56975 0
M  V30 2283 C 215.288 -1.15689 1.97861 0
M  V30 2284 C 216.288 -1.3549 0.865974 0
M  V30 2285 O 217.478 -1.32367 1.13246 0
M  V30 2286 C 214.61 -2.51582 2.30042 0
M  V30 2287 H 215.803 -0.805971 2.88867 0
M  V30 2288 H 213.356 -0.383801 1.51515 0
M  V30 2289 H 214.091 -2.91632 1.41849 0
M  V30 2290 H 213.876 -2.38569 3.11171 0
M  V30 2291 H 215.366 -3.24792 2.62488 0
M  V30 2292 N 215.803 -1.52179 -0.40978 0
M  V30 2293 C 216.75 -1.75475 -1.49924 0
M  V30 2294 C 217.72 -0.597175 -1.54994 0
M  V30 2295 O 218.905 -0.834655 -1.71575 0
M  V30 2296 C 216.045 -1.9107 -2.87378 0
M  V30 2297 C 215.158 -3.18717 -2.91622 0
M  V30 2298 C 214.293 -3.24747 -4.20372 0
M  V30 2299 C 213.332 -4.46598 -4.18588 0
M  V30 2300 N 212.469 -4.50025 -5.38908 0
M  V30 2301 H 217.309 -2.68458 -1.29361 0
M  V30 2302 H 214.846 -1.33024 -0.627934 0
M  V30 2303 H 216.804 -1.98096 -3.6717 0
M  V30 2304 H 215.434 -1.01469 -3.06437 0
M  V30 2305 H 214.486 -3.20866 -2.04326 0
M  V30 2306 H 215.798 -4.08544 -2.86169 0
M  V30 2307 H 214.952 -3.30841 -5.08556 0
M  V30 2308 H 213.691 -2.32857 -4.28519 0
M  V30 2309 H 212.696 -4.40652 -3.28794 0
M  V30 2310 H 213.921 -5.39783 -4.12081 0
M  V30 2311 H 211.867 -3.61017 -5.47725 0
M  V30 2312 H 211.784 -5.33697 -5.35447 0
M  V30 2313 H 213.052 -4.60347 -6.29048 0
M  V30 2314 N 217.281 0.66697 -1.42791 0
M  V30 2315 C 218.191 1.80962 -1.49299 0
M  V30 2316 C 219.207 1.69775 -0.381108 0
M  V30 2317 O 220.383 1.91188 -0.633188 0
M  V30 2318 C 217.448 3.17156 -1.40045 0
M  V30 2319 C 216.509 3.40242 -2.6179 0
M  V30 2320 C 215.742 4.69939 -2.52969 0
M  V30 2321 O 215.965 5.48372 -1.56985 0
M  V30 2322 O 214.899 4.94441 -3.43237 0
M  V30 2323 H 218.725 1.78427 -2.45759 0
M  V30 2324 H 216.31 0.823713 -1.24641 0
M  V30 2325 H 218.192 3.98413 -1.37276 0
M  V30 2326 H 216.867 3.20312 -0.467138 0
M  V30 2327 H 215.774 2.58802 -2.70134 0
M  V30 2328 H 217.107 3.41923 -3.54047 0
M  V30 2329 N 218.759 1.29093 0.90403 0
M  V30 2330 C 220.008 1.16187 1.64874 0
M  V30 2331 C 220.321 -0.286742 1.93487 0
M  V30 2332 O 221.527 -0.537062 2.66135 0
M  V30 2333 C 219.983 2.03177 2.97064 0
M  V30 2334 C 219.591 3.52836 2.76062 0
M  V30 2335 C 221.335 1.98984 3.74974 0
M  V30 2336 C 219.242 4.31945 4.03952 0
M  V30 2337 H 218.172 0.431246 0.618501 0
M  V30 2338 H 220.823 1.53699 1.00243 0
M  V30 2339 H 219.205 1.5853 3.62883 0
M  V30 2340 H 220.379 4.05507 2.18863 0
M  V30 2341 H 218.694 3.58656 2.11553 0
M  V30 2342 H 221.291 2.55351 4.69787 0
M  V30 2343 H 221.634 0.968815 4.0487 0
M  V30 2344 H 222.167 2.41652 3.15989 0
M  V30 2345 H 218.906 5.34667 3.79225 0
M  V30 2346 H 218.426 3.84045 4.60727 0
M  V30 2347 H 220.105 4.42379 4.72133 0
M  V30 2348 N 220.237 -1.11381 1.11499 0
M  V30 2349 C 221.514 -1.7955 0.775965 0
M  V30 2350 C 221.894 -1.97859 -0.73588 0
M  V30 2351 O 221.242 -1.56376 -1.66609 0
M  V30 2352 C 221.452 -3.13196 1.53977 0
M  V30 2353 C 222.8 -3.88227 1.71944 0
M  V30 2354 O 223.824 -3.22887 1.50407 0
M  V30 2355 O 222.683 -5.05477 2.07738 0
M  V30 2356 H 219.777 -0.777728 0.28119 0
M  V30 2357 H 222.323 -1.18118 1.21845 0
M  V30 2358 H 221.095 -2.95229 2.56818 0
M  V30 2359 H 220.718 -3.82342 1.09088 0
M  V30 2360 N 221.715 -0.905404 -1.28997 0
M  V30 2361 C 222.94 -0.549175 -1.99997 0
M  V30 2362 C 223.365 0.860276 -1.67275 0
M  V30 2363 O 222.723 1.57355 -0.900502 0
M  V30 2364 C 222.771 -0.755185 -3.52604 0
M  V30 2365 O 221.875 0.189692 -4.11964 0
M  V30 2366 H 221.216 -0.213899 -0.628604 0
M  V30 2367 H 223.746 -1.21856 -1.64354 0
M  V30 2368 H 223.756 -0.662045 -4.02593 0
M  V30 2369 H 222.431 -1.78271 -3.75755 0
M  V30 2370 H 221.008 0.0485257 -3.72868 0
M  V30 2371 N 223.193 1.4272 -0.668489 0
M  V30 2372 C 224.439 2.01923 -0.188419 0
M  V30 2373 C 224.772 1.52704 1.19979 0
M  V30 2374 O 224.047 0.726566 1.8042 0
M  V30 2375 C 224.33 3.59451 -0.216085 0
M  V30 2376 C 224.183 4.18864 -1.6393 0
M  V30 2377 C 225.502 4.37903 0.439179 0
M  V30 2378 H 222.621 0.733674 -0.0699412 0
M  V30 2379 H 225.263 1.69822 -0.852076 0
M  V30 2380 H 223.413 3.86929 0.349012 0
M  V30 2381 H 225.085 4.02362 -2.25616 0
M  V30 2382 H 223.328 3.74933 -2.18193 0
M  V30 2383 H 223.999 5.27987 -1.61039 0
M  V30 2384 H 226.475 4.16079 -0.0417878 0
M  V30 2385 H 225.351 5.47519 0.389157 0
M  V30 2386 H 225.612 4.15303 1.51577 0
M  V30 2387 N 224.671 0.411399 1.52136 0
M  V30 2388 C 225.618 -0.412975 2.27075 0
M  V30 2389 C 226.588 -1.03912 1.29582 0
M  V30 2390 O 227.773 -1.06296 1.58448 0
M  V30 2391 C 224.913 -1.52247 3.09701 0
M  V30 2392 C 224.026 -0.917021 4.22155 0
M  V30 2393 C 223.161 -1.9994 4.92135 0
M  V30 2394 C 222.2 -1.37101 5.96548 0
M  V30 2395 N 221.337 -2.39364 6.60038 0
M  V30 2396 H 226.177 0.232499 2.97092 0
M  V30 2397 H 223.714 0.126496 1.46555 0
M  V30 2398 H 225.672 -2.17674 3.55913 0
M  V30 2399 H 224.302 -2.13794 2.41851 0
M  V30 2400 H 223.354 -0.151742 3.80097 0
M  V30 2401 H 224.666 -0.418006 4.97045 0
M  V30 2402 H 223.82 -2.73088 5.41763 0
M  V30 2403 H 222.559 -2.53208 4.16818 0
M  V30 2404 H 221.564 -0.624873 5.46237 0
M  V30 2405 H 222.789 -0.845998 6.7381 0
M  V30 2406 H 220.735 -2.91759 5.87548 0
M  V30 2407 H 220.652 -1.9428 7.3061 0
M  V30 2408 H 221.92 -3.12074 7.14304 0
M  V30 2409 N 226.149 -1.5696 0.141893 0
M  V30 2410 C 227.379 -2.00031 -0.516828 0
M  V30 2411 C 227.787 -1.02091 -1.59293 0
M  V30 2412 O 227.13 -0.00909657 -1.83698 0
M  V30 2413 C 227.192 -3.39534 -1.1814 0
M  V30 2414 C 226.856 -4.56313 -0.250513 0
M  V30 2415 C 227.853 -5.17295 0.519839 0
M  V30 2416 C 225.538 -5.02061 -0.154907 0
M  V30 2417 C 227.532 -6.2243 1.3733 0
M  V30 2418 C 225.219 -6.07053 0.702161 0
M  V30 2419 C 226.217 -6.67106 1.46487 0
M  V30 2420 O 225.905 -7.70066 2.30767 0
M  V30 2421 H 225.637 -0.661451 -0.139493 0
M  V30 2422 H 228.191 -2.04086 0.231926 0
M  V30 2423 H 226.421 -3.32302 -1.97769 0
M  V30 2424 H 228.11 -3.66745 -1.73933 0
M  V30 2425 H 228.876 -4.82852 0.45598 0
M  V30 2426 H 224.755 -4.5505 -0.7383 0
M  V30 2427 H 228.299 -6.69233 1.96909 0
M  V30 2428 H 224.196 -6.40923 0.76733 0
M  V30 2429 H 224.964 -7.87264 2.23959 0
M  V30 2430 N 227.627 0.131896 -1.57047 0
M  V30 2431 C 228.557 1.16384 -2.02428 0
M  V30 2432 C 229.538 1.43936 -0.90644 0
M  V30 2433 O 230.723 1.54599 -1.17528 0
M  V30 2434 C 227.853 2.49328 -2.4177 0
M  V30 2435 C 226.807 2.36266 -3.56879 0
M  V30 2436 C 226.133 3.74057 -3.8208 0
M  V30 2437 C 227.433 1.834 -4.89042 0
M  V30 2438 H 229.127 0.786433 -2.88887 0
M  V30 2439 H 226.673 0.376855 -1.38981 0
M  V30 2440 H 228.626 3.21759 -2.7212 0
M  V30 2441 H 227.35 2.88934 -1.52266 0
M  V30 2442 H 226.009 1.66286 -3.26718 0
M  V30 2443 H 225.657 4.11125 -2.89803 0
M  V30 2444 H 225.357 3.66174 -4.59554 0
M  V30 2445 H 226.881 4.48012 -4.1487 0
M  V30 2446 H 228.295 2.45636 -5.18011 0
M  V30 2447 H 226.692 1.8637 -5.70426 0
M  V30 2448 H 227.762 0.790662 -4.7841 0
M  V30 2449 N 229.106 1.52395 0.401703 0
M  V30 2450 C 230.016 1.7917 1.51444 0
M  V30 2451 C 231.032 0.677691 1.6026 0
M  V30 2452 O 232.208 0.963909 1.76835 0
M  V30 2453 C 229.273 1.94347 2.87107 0
M  V30 2454 C 228.334 3.18257 2.88116 0
M  V30 2455 C 227.567 3.32701 4.17308 0
M  V30 2456 O 227.79 2.52238 5.11598 0
M  V30 2457 O 226.724 4.25891 4.25324 0
M  V30 2458 H 230.55 2.73633 1.31752 0
M  V30 2459 H 228.135 1.3733 0.588296 0
M  V30 2460 H 230.017 2.06109 3.67555 0
M  V30 2461 H 228.692 1.03073 3.06851 0
M  V30 2462 H 227.599 3.11947 2.06494 0
M  V30 2463 H 228.932 4.09336 2.73322 0
M  V30 2464 N 230.584 -0.659388 1.43143 0
M  V30 2465 C 231.824 -1.43121 1.45931 0
M  V30 2466 C 232.188 -1.91838 0.0789298 0
M  V30 2467 O 233.389 -2.68794 -0.018491 0
M  V30 2468 C 231.66 -2.58534 2.46769 0
M  V30 2469 S 233.219 -3.47154 2.68384 0
M  V30 2470 H 230.037 -0.488624 0.516496 0
M  V30 2471 H 232.639 -0.766128 1.79863 0
M  V30 2472 H 231.343 -2.21007 3.45809 0
M  V30 2473 H 230.874 -3.29898 2.14315 0
M  V30 2474 H 232.889 -4.55051 1.97845 0
M  V30 2475 N 232.062 -1.29571 -0.897171 0
M  V30 2476 C 233.287 -1.20705 -1.68656 0
M  V30 2477 C 233.712 0.228582 -1.86706 0
M  V30 2478 O 233.07 1.16494 -1.3892 0
M  V30 2479 C 233.118 -1.9282 -3.04717 0
M  V30 2480 O 232.222 -1.24697 -3.93096 0
M  V30 2481 H 231.563 -0.418126 -0.515816 0
M  V30 2482 H 234.093 -1.71183 -1.12061 0
M  V30 2483 H 234.103 -2.01372 -3.54843 0
M  V30 2484 H 232.778 -2.97239 -2.90899 0
M  V30 2485 H 231.355 -1.2442 -3.51531 0
M  V30 2486 N 233.54 1.10788 -1.12088 0
M  V30 2487 C 234.503 2.15207 -0.788577 0
M  V30 2488 C 235.503 1.59609 0.195317 0
M  V30 2489 O 236.693 1.74174 -0.0300193 0
M  V30 2490 C 233.825 3.4047 -0.171174 0
M  V30 2491 H 235.018 2.46116 -1.71368 0
M  V30 2492 H 232.571 1.26089 -0.923652 0
M  V30 2493 H 233.306 3.15176 0.763832 0
M  V30 2494 H 233.091 3.82109 -0.879514 0
M  V30 2495 H 234.581 4.17576 0.04496 0
M  V30 2496 N 235.018 0.912232 1.28515 0
M  V30 2497 C 235.948 0.416403 2.29757 0
M  V30 2498 C 236.929 -0.515194 1.6211 0
M  V30 2499 O 238.114 -0.423253 1.89532 0
M  V30 2500 C 235.244 -0.34572 3.45575 0
M  V30 2501 C 234.198 0.496599 4.25109 0
M  V30 2502 C 233.524 -0.393771 5.33248 0
M  V30 2503 C 234.824 1.75307 4.92001 0
M  V30 2504 H 236.518 1.26249 2.7148 0
M  V30 2505 H 234.064 0.608515 1.30511 0
M  V30 2506 H 236.017 -0.703422 4.15488 0
M  V30 2507 H 234.741 -1.2257 3.02728 0
M  V30 2508 H 233.4 0.8368 3.56922 0
M  V30 2509 H 233.048 -1.27225 4.86644 0
M  V30 2510 H 232.748 0.166209 5.87365 0
M  V30 2511 H 234.272 -0.747389 6.06009 0
M  V30 2512 H 235.686 1.46437 5.54283 0
M  V30 2513 H 234.083 2.25534 5.56106 0
M  V30 2514 H 235.153 2.48176 4.16577 0
M  V30 2515 N 236.496 -1.42363 0.676048 0
M  V30 2516 C 237.724 -2.05859 0.207268 0
M  V30 2517 C 238.139 -1.50796 -1.13605 0
M  V30 2518 O 237.496 -0.648265 -1.70598 0
M  V30 2519 C 237.547 -3.61248 0.134975 0
M  V30 2520 O 237.268 -4.1427 1.42521 0
M  V30 2521 C 238.769 -4.41859 -0.357151 0
M  V30 2522 H 235.989 -0.663431 0.100503 0
M  V30 2523 H 238.533 -1.82479 0.923136 0
M  V30 2524 H 236.688 -3.83735 -0.531588 0
M  V30 2525 H 237.102 -5.0815 1.29939 0
M  V30 2526 H 238.576 -5.50847 -0.356641 0
M  V30 2527 H 239.053 -4.16536 -1.39264 0
M  V30 2528 H 239.659 -4.24392 0.27772 0
M  V30 2529 N 237.974 -0.419461 -1.51915 0
M  V30 2530 C 238.906 0.43646 -2.25006 0
M  V30 2531 C 239.919 1.00149 -1.28351 0
M  V30 2532 O 241.108 0.898674 -1.54227 0
M  V30 2533 C 238.208 1.6206 -2.9764 0
M  V30 2534 C 237.381 1.17763 -4.21249 0
M  V30 2535 C 236.44 2.22985 -4.76617 0
M  V30 2536 O 235.466 1.83151 -5.38929 0
M  V30 2537 N 236.668 3.55271 -4.59089 0
M  V30 2538 H 239.433 -0.18989 -2.99098 0
M  V30 2539 H 236.994 -0.247386 -1.59999 0
M  V30 2540 H 238.986 2.32038 -3.31573 0
M  V30 2541 H 237.556 2.15266 -2.2667 0
M  V30 2542 H 236.776 0.305582 -3.93014 0
M  V30 2543 H 238.064 0.858781 -5.015 0
M  V30 2544 H 237.462 3.90377 -4.09417 0
M  V30 2545 H 236.019 4.21195 -4.97432 0
M  V30 2546 N 239.452 1.56882 -0.150215 0
M  V30 2547 C 240.868 1.58263 0.20617 0
M  V30 2548 C 241.068 1.16464 1.64434 0
M  V30 2549 O 240.124 0.866422 2.3717 0
M  V30 2550 C 241.437 3.00649 -0.0555025 0
M  V30 2551 C 242.985 3.12999 0.00795388 0
M  V30 2552 C 243.46 4.5744 -0.226429 0
M  V30 2553 N 244.951 4.62875 -0.173469 0
M  V30 2554 C 245.686 5.72454 -0.329288 0
M  V30 2555 N 245.182 6.90669 -0.543005 0
M  V30 2556 N 246.975 5.61467 -0.266666 0
M  V30 2557 H 239.126 1.82345 -1.08922 0
M  V30 2558 H 241.389 0.844149 -0.431413 0
M  V30 2559 H 241.095 3.3563 -1.05096 0
M  V30 2560 H 240.969 3.71337 0.66246 0
M  V30 2561 H 243.356 2.77857 0.993966 0
M  V30 2562 H 243.437 2.4479 -0.742388 0
M  V30 2563 H 243.081 4.93287 -1.20956 0
M  V30 2564 H 243.011 5.2378 0.544274 0
M  V30 2565 H 245.502 3.77898 -0.0130709 0
M  V30 2566 H 245.815 7.70045 -0.651922 0
M  V30 2567 H 244.16 6.92581 -0.579366 0
M  V30 2568 H 247.351 4.67992 -0.100441 0
M  V30 2569 H 247.524 6.46816 -0.391535 0
M  V30 2570 N 240.93 -0.123565 1.57115 0
M  V30 2571 C 242.178 -0.83051 1.84247 0
M  V30 2572 C 242.499 -1.80629 0.73471 0
M  V30 2573 O 241.769 -1.94403 -0.241688 0
M  V30 2574 H 240.349 -0.309694 0.679778 0
M  V30 2575 H 243.011 -0.111976 1.94578 0
M  V30 2576 H 242.107 -1.37852 2.80006 0
M  V30 2577 N 242.408 -1.52605 -0.393616 0
M  V30 2578 C 243.338 -1.80022 -1.48709 0
M  V30 2579 C 244.319 -0.651995 -1.57108 0
M  V30 2580 O 245.504 -0.89913 -1.72132 0
M  V30 2581 C 242.634 -1.96492 -2.86371 0
M  V30 2582 C 241.588 -3.12161 -2.92813 0
M  V30 2583 C 240.914 -3.13877 -4.3288 0
M  V30 2584 C 242.214 -4.51322 -2.6288 0
M  V30 2585 H 243.908 -2.71589 -1.26015 0
M  V30 2586 H 241.454 -1.30684 -0.604778 0
M  V30 2587 H 243.407 -2.14255 -3.62867 0
M  V30 2588 H 242.131 -1.01611 -3.10391 0
M  V30 2589 H 240.79 -2.94173 -2.18764 0
M  V30 2590 H 240.438 -2.16687 -4.53933 0
M  V30 2591 H 240.138 -3.91576 -4.38112 0
M  V30 2592 H 241.662 -3.33789 -5.1129 0
M  V30 2593 H 243.076 -4.69435 -3.29096 0
M  V30 2594 H 241.473 -5.31053 -2.79468 0
M  V30 2595 H 242.543 -4.58353 -1.58242 0
M  V30 2596 N 243.887 0.651787 -1.4349 0
M  V30 2597 C 244.834 1.76462 -1.4876 0
M  V30 2598 C 245.804 1.62641 -0.337189 0
M  V30 2599 O 246.989 1.82864 -0.544544 0
M  V30 2600 C 244.129 3.14623 -1.41796 0
M  V30 2601 C 243.242 3.39568 -2.67053 0
M  V30 2602 C 242.377 4.67585 -2.52068 0
M  V30 2603 C 241.416 4.85639 -3.72587 0
M  V30 2604 N 240.553 6.04915 -3.56402 0
M  V30 2605 H 245.393 1.71293 -2.43849 0
M  V30 2606 H 242.93 0.835889 -1.21043 0
M  V30 2607 H 244.888 3.94496 -1.35753 0
M  V30 2608 H 243.518 3.18859 -0.50288 0
M  V30 2609 H 242.57 2.53783 -2.8337 0
M  V30 2610 H 243.882 3.48795 -3.56572 0
M  V30 2611 H 243.036 5.55586 -2.4374 0
M  V30 2612 H 241.775 4.60681 -1.60075 0
M  V30 2613 H 240.78 3.96073 -3.81321 0
M  V30 2614 H 242.005 4.94372 -4.65589 0
M  V30 2615 H 239.951 5.9914 -2.67146 0
M  V30 2616 H 239.868 6.15106 -4.39524 0
M  V30 2617 H 241.136 6.95533 -3.51929 0
M  V30 2618 N 245.365 1.30045 0.890287 0
M  V30 2619 C 246.593 1.21472 1.67487 0
M  V30 2620 C 247.008 -0.223241 1.87476 0
M  V30 2621 O 246.365 -1.14828 1.41847 0
M  V30 2622 C 246.416 1.93394 3.05419 0
M  V30 2623 O 246.137 3.31576 2.86337 0
M  V30 2624 C 247.638 1.91414 3.99844 0
M  V30 2625 H 244.858 0.420604 0.522813 0
M  V30 2626 H 247.402 1.7158 1.11268 0
M  V30 2627 H 245.557 1.47099 3.58386 0
M  V30 2628 H 245.971 3.67929 3.73802 0
M  V30 2629 H 247.445 2.46285 4.94012 0
M  V30 2630 H 247.922 0.891833 4.3005 0
M  V30 2631 H 248.528 2.37496 3.52811 0
M  V30 2632 N 246.843 -1.10192 1.12674 0
M  V30 2633 C 248.089 -1.82475 0.884915 0
M  V30 2634 C 248.422 -1.85093 -0.58773 0
M  V30 2635 O 247.697 -1.3134 -1.43457 0
M  V30 2636 C 247.98 -3.29018 1.46353 0
M  V30 2637 C 247.833 -3.34718 3.00473 0
M  V30 2638 C 249.152 -4.25473 1.12519 0
M  V30 2639 H 246.271 -0.662492 0.322915 0
M  V30 2640 H 248.913 -1.2913 1.39375 0
M  V30 2641 H 247.063 -3.74576 1.03077 0
M  V30 2642 H 248.735 -2.97622 3.52447 0
M  V30 2643 H 246.978 -2.74541 3.35872 0
M  V30 2644 H 247.649 -4.37918 3.36053 0
M  V30 2645 H 250.125 -3.88161 1.499 0
M  V30 2646 H 249.001 -5.26365 1.55663 0
M  V30 2647 H 249.262 -4.42084 0.0377407 0
M  V30 2648 N 248.321 -0.919034 -1.28029 0
M  V30 2649 C 249.568 -0.554934 -1.94748 0
M  V30 2650 C 249.896 0.90231 -1.72304 0
M  V30 2651 O 249.151 1.65767 -1.04018 0
M  V30 2652 C 249.45 -0.816855 -3.4794 0
M  V30 2653 C 249.116 -2.25448 -3.90492 0
M  V30 2654 C 247.778 -2.64752 -4.01821 0
M  V30 2655 C 250.13 -3.18977 -4.12193 0
M  V30 2656 C 247.458 -3.96727 -4.32232 0
M  V30 2657 C 249.81 -4.50523 -4.44086 0
M  V30 2658 C 248.474 -4.89673 -4.53626 0
M  V30 2659 H 247.744 -0.203065 -0.712633 0
M  V30 2660 H 250.391 -1.16136 -1.52265 0
M  V30 2661 H 248.696 -0.127677 -3.91592 0
M  V30 2662 H 250.393 -0.514238 -3.97689 0
M  V30 2663 H 246.983 -1.93952 -3.82205 0
M  V30 2664 H 251.167 -2.89817 -4.02889 0
M  V30 2665 H 246.423 -4.26754 -4.37825 0
M  V30 2666 H 250.597 -5.23005 -4.59825 0
M  V30 2667 H 248.224 -5.91969 -4.76946 0
M  V30 2668 N 249.799 1.42003 -0.683588 0
M  V30 2669 C 251.076 1.95112 -0.138075 0
M  V30 2670 C 251.456 1.62359 1.34918 0
M  V30 2671 O 250.804 0.924311 2.08971 0
M  V30 2672 C 251.014 3.46505 -0.416581 0
M  V30 2673 C 252.362 4.23254 -0.337834 0
M  V30 2674 O 253.386 3.54468 -0.35082 0
M  V30 2675 O 252.245 5.45743 -0.287596 0
M  V30 2676 H 249.339 0.826961 -0.00797996 0
M  V30 2677 H 251.885 1.51784 -0.758924 0
M  V30 2678 H 250.657 3.63582 -1.4465 0
M  V30 2679 H 250.28 3.969 0.235839 0
M  V30 2680 N 251.277 0.427512 1.51691 0
M  V30 2681 C 252.187 -0.39527 2.31246 0
M  V30 2682 C 253.203 -1.03674 1.39742 0
M  V30 2683 O 254.379 -1.03425 1.72816 0
M  V30 2684 C 251.444 -1.48706 3.13189 0
M  V30 2685 C 250.505 -0.866743 4.20459 0
M  V30 2686 C 249.738 -1.90651 4.98486 0
M  V30 2687 O 249.961 -3.12733 4.77026 0
M  V30 2688 O 248.895 -1.5025 5.82845 0
M  V30 2689 H 252.721 0.253918 3.02637 0
M  V30 2690 H 250.306 0.190274 1.48183 0
M  V30 2691 H 252.188 -2.12047 3.64162 0
M  V30 2692 H 250.863 -2.12051 2.44573 0
M  V30 2693 H 249.77 -0.195544 3.73589 0
M  V30 2694 H 251.103 -0.276934 4.9142 0
M  V30 2695 N 252.755 -1.56801 0.158532 0
M  V30 2696 C 253.718 -2.16138 -0.762705 0
M  V30 2697 C 254.718 -1.1061 -1.16713 0
M  V30 2698 O 255.908 -1.36191 -1.08617 0
M  V30 2699 C 253.04 -2.73386 -2.03649 0
M  V30 2700 H 254.233 -2.98886 -0.246354 0
M  V30 2701 H 251.786 -1.56035 -0.0909744 0
M  V30 2702 H 252.521 -1.94335 -2.59623 0
M  V30 2703 H 252.306 -3.50601 -1.75559 0
M  V30 2704 H 253.796 -3.19065 -2.6942 0
M  V30 2705 N 254.233 0.115231 -1.57178 0
M  V30 2706 C 255.482 0.820945 -1.84237 0
M  V30 2707 C 255.795 1.80866 -0.744761 0
M  V30 2708 O 257.001 2.56083 -0.901871 0
M  V30 2709 C 255.457 1.51072 -3.26658 0
M  V30 2710 C 255.065 0.563795 -4.44438 0
M  V30 2711 C 256.809 2.20134 -3.62962 0
M  V30 2712 C 254.716 1.25701 -5.77887 0
M  V30 2713 H 253.646 0.310328 -0.687177 0
M  V30 2714 H 256.297 0.0737134 -1.83352 0
M  V30 2715 H 254.679 2.30471 -3.22024 0
M  V30 2716 H 255.853 -0.197247 -4.60378 0
M  V30 2717 H 254.168 -0.0200638 -4.16395 0
M  V30 2718 H 256.765 2.72696 -4.59936 0
M  V30 2719 H 257.108 2.98107 -2.90582 0
M  V30 2720 H 257.641 1.47619 -3.69396 0
M  V30 2721 H 254.38 0.518493 -6.53446 0
M  V30 2722 H 253.9 1.98997 -5.65827 0
M  V30 2723 H 255.579 1.78915 -6.2177 0
M  V30 2724 N 255.711 1.52812 0.385517 0
M  V30 2725 C 257.127 1.4214 0.725829 0
M  V30 2726 C 257.327 0.544589 1.94001 0
M  V30 2727 O 256.383 0.0193693 2.52493 0
M  V30 2728 C 257.696 2.85042 0.957668 0
M  V30 2729 C 259.244 2.94543 1.05892 0
M  V30 2730 C 259.719 4.38464 1.32337 0
M  V30 2731 N 261.21 4.41804 1.39151 0
M  V30 2732 C 261.945 5.5025 1.61285 0
M  V30 2733 N 261.441 6.68775 1.80866 0
M  V30 2734 N 263.234 5.37798 1.63492 0
M  V30 2735 H 255.385 2.08338 -0.413383 0
M  V30 2736 H 257.648 0.940016 -0.122775 0
M  V30 2737 H 257.354 3.51431 0.137568 0
M  V30 2738 H 257.228 3.27505 1.87137 0
M  V30 2739 H 259.615 2.28321 1.86959 0
M  V30 2740 H 259.696 2.55504 0.123057 0
M  V30 2741 H 259.34 5.05254 0.517793 0
M  V30 2742 H 259.27 4.75059 2.27214 0
M  V30 2743 H 261.761 3.56377 1.25713 0
M  V30 2744 H 262.074 7.47197 1.97271 0
M  V30 2745 H 260.419 6.71797 1.78083 0
M  V30 2746 H 263.61 4.44171 1.47749 0
M  V30 2747 H 263.783 6.22382 1.80402 0
M  V30 2748 N 257.189 -0.644168 1.43834 0
M  V30 2749 C 258.152 -1.73857 1.49353 0
M  V30 2750 C 259.152 -1.56315 0.377112 0
M  V30 2751 O 260.342 -1.62048 0.639226 0
M  V30 2752 C 257.474 -3.12819 1.35488 0
M  V30 2753 H 258.667 -1.70342 2.46827 0
M  V30 2754 H 256.22 -0.856652 1.30733 0
M  V30 2755 H 256.955 -3.2194 0.390569 0
M  V30 2756 H 256.74 -3.26958 2.16428 0
M  V30 2757 H 258.23 -3.92606 1.42302 0
M  V30 2758 N 258.668 -1.30515 -0.883378 0
M  V30 2759 C 259.914 -1.19607 -1.63774 0
M  V30 2760 C 260.247 0.248314 -1.92606 0
M  V30 2761 O 259.522 1.17742 -1.54813 0
M  V30 2762 C 259.805 -2.02669 -2.97653 0
M  V30 2763 C 259.658 -3.55335 -2.75784 0
M  V30 2764 C 260.977 -1.86573 -3.98596 0
M  V30 2765 H 258.096 -0.435856 -0.594305 0
M  V30 2766 H 260.738 -1.60165 -1.02212 0
M  V30 2767 H 258.888 -1.68208 -3.50197 0
M  V30 2768 H 260.56 -3.99863 -2.30016 0
M  V30 2769 H 258.803 -3.79438 -2.1026 0
M  V30 2770 H 259.474 -4.08745 -3.70988 0
M  V30 2771 H 261.95 -2.16703 -3.55217 0
M  V30 2772 H 260.826 -2.47014 -4.90179 0
M  V30 2773 H 261.087 -0.825321 -4.34328 0
M  V30 2774 N 260.146 1.09593 -1.13257 0
M  V30 2775 C 261.076 2.18214 -0.830946 0
M  V30 2776 C 262.057 1.68812 0.208966 0
M  V30 2777 O 263.242 1.9408 0.0682666 0
M  V30 2778 C 260.372 3.46051 -0.294296 0
M  V30 2779 C 259.326 4.08778 -1.26826 0
M  V30 2780 C 258.652 5.31419 -0.591449 0
M  V30 2781 C 259.952 4.51476 -2.62615 0
M  V30 2782 H 261.646 2.43703 -1.73923 0
M  V30 2783 H 259.192 1.17128 -0.837675 0
M  V30 2784 H 261.145 4.2134 -0.0709606 0
M  V30 2785 H 259.869 3.20079 0.649366 0
M  V30 2786 H 258.528 3.35505 -1.47756 0
M  V30 2787 H 258.176 5.01727 0.357633 0
M  V30 2788 H 257.876 5.74341 -1.24123 0
M  V30 2789 H 259.4 6.09433 -0.377355 0
M  V30 2790 H 260.814 5.17999 -2.45663 0
M  V30 2791 H 259.211 5.05277 -3.23752 0
M  V30 2792 H 260.281 3.63962 -3.20406 0
M  V30 2793 N 261.624 0.925811 1.2754 0
M  V30 2794 C 262.864 0.572521 1.96218 0
M  V30 2795 C 263.228 -0.869719 1.71172 0
M  V30 2796 O 264.429 -1.33119 2.33523 0
M  V30 2797 C 262.7 0.887325 3.4621 0
M  V30 2798 S 264.259 0.642266 4.34074 0
M  V30 2799 H 261.077 0.211403 0.678845 0
M  V30 2800 H 263.679 1.19384 1.54815 0
M  V30 2801 H 262.383 1.93469 3.61936 0
M  V30 2802 H 261.914 0.255123 3.92572 0
M  V30 2803 H 263.929 -0.500822 4.93666 0
M  V30 2804 N 263.102 -1.41638 0.69111 0
M  V30 2805 C 264.513 -1.84346 0.295517 0
M  V30 2806 C 264.864 -1.57833 -1.16547 0
M  V30 2807 O 263.989 -1.04648 -1.89414 0
M  V30 2808 C 264.584 -3.34636 0.529575 0
M  V30 2809 C 263.143 -3.7593 0.187944 0
M  V30 2810 C 262.29 -2.65082 0.814052 0
M  V30 2811 H 265.241 -1.31253 0.892092 0
M  V30 2812 H 265.262 -3.79903 -0.213148 0
M  V30 2813 H 264.774 -3.53901 1.59297 0
M  V30 2814 H 262.875 -3.62268 -0.871367 0
M  V30 2815 H 262.988 -4.74808 0.63985 0
M  V30 2816 H 261.352 -2.53528 0.244017 0
M  V30 2817 H 262.135 -2.87167 1.88123 0
M  V30 2818 N 264.58 -0.43555 -1.51462 0
M  V30 2819 C 265.512 0.41257 -2.25456 0
M  V30 2820 C 266.525 0.987822 -1.29406 0
M  V30 2821 O 267.714 0.882266 -1.55172 0
M  V30 2822 C 264.814 1.58894 -2.99342 0
M  V30 2823 C 263.987 1.13288 -4.22474 0
M  V30 2824 C 263.046 2.17917 -4.78956 0
M  V30 2825 O 262.072 1.77425 -5.40841 0
M  V30 2826 N 263.274 3.50382 -4.62832 0
M  V30 2827 H 266.039 -0.221603 -2.9888 0
M  V30 2828 H 263.6 -0.264342 -1.59727 0
M  V30 2829 H 265.592 2.28508 -3.34015 0
M  V30 2830 H 264.162 2.12849 -2.28941 0
M  V30 2831 H 263.382 0.263881 -3.93316 0
M  V30 2832 H 264.67 0.805542 -5.02383 0
M  V30 2833 H 264.068 3.86013 -4.13534 0
M  V30 2834 H 262.625 4.15895 -5.01871 0
M  V30 2835 N 266.058 1.56714 -0.166846 0
M  V30 2836 C 267.469 1.83378 0.350646 0
M  V30 2837 C 267.82 1.08646 1.63372 0
M  V30 2838 O 266.945 0.338058 2.13743 0
M  V30 2839 C 267.54 3.32643 0.642963 0
M  V30 2840 C 266.099 3.59818 1.10491 0
M  V30 2841 C 265.246 2.76954 0.138411 0
M  V30 2842 H 268.197 1.53803 -0.391193 0
M  V30 2843 H 268.218 3.49878 1.49551 0
M  V30 2844 H 267.73 3.87007 -0.291055 0
M  V30 2845 H 265.831 3.1086 2.05418 0
M  V30 2846 H 265.944 4.68178 1.01716 0
M  V30 2847 H 264.308 2.4666 0.634911 0
M  V30 2848 H 265.091 3.34097 -0.789549 0
M  V30 2849 N 267.536 -0.106894 1.57237 0
M  V30 2850 C 268.764 -0.826389 1.8968 0
M  V30 2851 C 269.179 -1.72856 0.759353 0
M  V30 2852 O 268.536 -1.80503 -0.269263 0
M  V30 2853 C 268.587 -1.64967 3.21665 0
M  V30 2854 O 268.308 -0.783804 4.31031 0
M  V30 2855 C 269.809 -2.47326 3.67892 0
M  V30 2856 H 267.029 -0.236927 0.627779 0
M  V30 2857 H 269.573 -0.0876593 2.04312 0
M  V30 2858 H 267.728 -2.34103 3.08666 0
M  V30 2859 H 268.142 -1.35284 5.06753 0
M  V30 2860 H 269.616 -3.00604 4.6297 0
M  V30 2861 H 270.093 -3.25247 2.95146 0
M  V30 2862 H 270.699 -1.83411 3.83719 0
M  V30 2863 N 269.014 -1.53014 -0.377408 0
M  V30 2864 C 270.43 -1.42523 -0.718281 0
M  V30 2865 C 270.63 -0.55487 -1.9371 0
M  V30 2866 O 269.686 -0.0327593 -2.52479 0
M  V30 2867 C 270.999 -2.85546 -0.942539 0
M  V30 2868 C 272.547 -2.95101 -1.04329 0
M  V30 2869 C 273.022 -4.3916 -1.3001 0
M  V30 2870 N 274.513 -4.42536 -1.36806 0
M  V30 2871 C 275.248 -5.51097 -1.58364 0
M  V30 2872 N 274.744 -6.69724 -1.77317 0
M  V30 2873 N 276.537 -5.38657 -1.60638 0
M  V30 2874 H 268.688 -2.08116 0.424426 0
M  V30 2875 H 270.951 -0.939352 0.127759 0
M  V30 2876 H 270.657 -3.51499 -0.118929 0
M  V30 2877 H 270.531 -3.28493 -1.85397 0
M  V30 2878 H 272.918 -2.29309 -1.85745 0
M  V30 2879 H 272.999 -2.55566 -0.109505 0
M  V30 2880 H 272.643 -5.05521 -0.490991 0
M  V30 2881 H 272.573 -4.76258 -2.24691 0
M  V30 2882 H 275.064 -3.57039 -1.23821 0
M  V30 2883 H 275.377 -7.48233 -1.93306 0
M  V30 2884 H 273.722 -6.72732 -1.74518 0
M  V30 2885 H 276.913 -4.44948 -1.45391 0
M  V30 2886 H 277.086 -6.2333 -1.77098 0
M  V30 2887 N 270.492 0.636531 -1.44174 0
M  V30 2888 C 271.424 1.7618 -1.46606 0
M  V30 2889 C 272.437 1.58768 -0.360091 0
M  V30 2890 O 273.626 1.67181 -0.625518 0
M  V30 2891 C 270.726 3.13833 -1.27915 0
M  V30 2892 C 269.899 3.57753 -2.51658 0
M  V30 2893 C 268.958 4.74265 -2.27945 0
M  V30 2894 O 267.984 4.82852 -3.01401 0
M  V30 2895 N 269.186 5.65604 -1.30662 0
M  V30 2896 H 271.951 1.74567 -2.43612 0
M  V30 2897 H 269.512 0.820924 -1.39544 0
M  V30 2898 H 271.504 3.8949 -1.09907 0
M  V30 2899 H 270.074 3.10121 -0.39293 0
M  V30 2900 H 269.294 2.72362 -2.84978 0
M  V30 2901 H 270.582 3.83847 -3.33974 0
M  V30 2902 H 269.98 5.61354 -0.699844 0
M  V30 2903 H 268.537 6.40913 -1.18634 0
M  V30 2904 N 271.97 1.30982 0.876444 0
M  V30 2905 C 272.902 1.13902 1.98894 0
M  V30 2906 C 273.915 0.0798815 1.62604 0
M  V30 2907 O 275.104 0.326743 1.75484 0
M  V30 2908 C 272.204 0.716699 3.31235 0
M  V30 2909 C 271.377 1.85945 3.95908 0
M  V30 2910 C 270.436 1.42426 5.06558 0
M  V30 2911 O 269.462 2.13287 5.27729 0
M  V30 2912 N 270.664 0.308025 5.79682 0
M  V30 2913 H 273.429 2.09724 2.14094 0
M  V30 2914 H 270.99 1.2323 1.05004 0
M  V30 2915 H 272.982 0.408403 4.02634 0
M  V30 2916 H 271.552 -0.149719 3.12241 0
M  V30 2917 H 270.772 2.33541 3.17573 0
M  V30 2918 H 272.06 2.62503 4.35855 0
M  V30 2919 H 271.458 -0.282241 5.64995 0
M  V30 2920 H 270.015 0.0592282 6.51773 0
M  V30 2921 N 273.449 -1.08991 1.13837 0
M  V30 2922 C 274.396 -2.15748 0.819835 0
M  V30 2923 C 275.366 -1.64636 -0.220026 0
M  V30 2924 O 276.551 -1.90582 -0.0912757 0
M  V30 2925 C 273.691 -3.4382 0.296913 0
M  V30 2926 C 272.804 -4.0881 1.39636 0
M  V30 2927 C 271.939 -5.24655 0.831314 0
M  V30 2928 C 270.978 -5.81575 1.90886 0
M  V30 2929 N 270.115 -6.88774 1.36142 0
M  V30 2930 H 274.955 -2.42338 1.73426 0
M  V30 2931 H 272.492 -1.18935 0.865613 0
M  V30 2932 H 274.45 -4.17193 -0.0244339 0
M  V30 2933 H 273.08 -3.17535 -0.580628 0
M  V30 2934 H 272.132 -3.33258 1.83422 0
M  V30 2935 H 273.444 -4.47141 2.21058 0
M  V30 2936 H 272.598 -6.04942 0.461515 0
M  V30 2937 H 271.337 -4.87698 -0.013932 0
M  V30 2938 H 270.342 -4.99946 2.28767 0
M  V30 2939 H 271.567 -6.20592 2.75758 0
M  V30 2940 H 269.513 -6.53788 0.538254 0
M  V30 2941 H 269.43 -7.25898 2.11208 0
M  V30 2942 H 270.698 -7.72806 1.01933 0
M  V30 2943 N 274.927 -0.932562 -1.27047 0
M  V30 2944 C 276.343 -0.633544 -1.46487 0
M  V30 2945 C 276.543 0.815746 -1.84249 0
M  V30 2946 O 275.599 1.59319 -1.95892 0
M  V30 2947 C 276.912 -1.58758 -2.55375 0
M  V30 2948 C 278.46 -1.59634 -2.69232 0
M  V30 2949 C 278.935 -2.53747 -3.81283 0
M  V30 2950 N 280.426 -2.51982 -3.88664 0
M  V30 2951 C 281.161 -3.21491 -4.74796 0
M  V30 2952 N 280.657 -4.00395 -5.65381 0
M  V30 2953 N 282.45 -3.10485 -4.68568 0
M  V30 2954 H 274.601 -1.86946 -1.00821 0
M  V30 2955 H 276.864 -0.802897 -0.504044 0
M  V30 2956 H 276.57 -2.62172 -2.34432 0
M  V30 2957 H 276.444 -1.33301 -3.52861 0
M  V30 2958 H 278.831 -0.569488 -2.89553 0
M  V30 2959 H 278.912 -1.89142 -1.72218 0
M  V30 2960 H 278.556 -3.56545 -3.61715 0
M  V30 2961 H 278.486 -2.21532 -4.77735 0
M  V30 2962 H 280.977 -1.94681 -3.23895 0
M  V30 2963 H 281.29 -4.50406 -6.27976 0
M  V30 2964 H 279.635 -4.04498 -5.65161 0
M  V30 2965 H 282.826 -2.48331 -3.96799 0
M  V30 2966 H 282.999 -3.64925 -5.35475 0
M  V30 2967 N 276.405 1.4127 -0.698611 0
M  V30 2968 C 277.368 2.29158 -0.044132 0
M  V30 2969 C 278.368 1.44529 0.704841 0
M  V30 2970 O 279.558 1.65643 0.539276 0
M  V30 2971 C 276.69 3.27459 0.947809 0
M  V30 2972 H 277.883 2.88529 -0.817994 0
M  V30 2973 H 275.436 1.49307 -0.46228 0
M  V30 2974 H 276.171 2.73073 1.74933 0
M  V30 2975 H 275.956 3.8991 0.41385 0
M  V30 2976 H 277.446 3.93311 1.40344 0
M  V30 2977 N 277.883 0.443576 1.51229 0
M  V30 2978 C 279.123 -0.119889 2.04048 0
M  V30 2979 C 279.487 -1.39418 1.32009 0
M  V30 2980 O 280.688 -2.03829 1.75235 0
M  V30 2981 C 278.959 -0.327233 3.55899 0
M  V30 2982 S 280.518 -0.853208 4.30425 0
M  V30 2983 H 277.336 -0.028921 0.710412 0
M  V30 2984 H 279.938 0.604413 1.85922 0
M  V30 2985 H 278.642 0.606445 4.05895 0
M  V30 2986 H 278.173 -1.07844 3.7833 0
M  V30 2987 H 280.188 -2.13005 4.48155 0
M  V30 2988 N 279.361 -1.56624 0.175154 0
M  V30 2989 C 280.586 -2.01813 -0.478137 0
M  V30 2990 C 281.011 -1.05457 -1.55757 0
M  V30 2991 O 280.369 -0.0347439 -1.81267 0
M  V30 2992 C 280.417 -3.45581 -1.02987 0
M  V30 2993 O 279.521 -3.52305 -2.14371 0
M  V30 2994 H 278.862 -0.65413 -0.114059 0
M  V30 2995 H 281.392 -2.02673 0.280173 0
M  V30 2996 H 281.402 -3.84965 -1.35151 0
M  V30 2997 H 280.077 -4.1521 -0.239556 0
M  V30 2998 H 278.654 -3.24783 -1.83222 0
M  V30 2999 N 280.839 0.0985539 -1.57292 0
M  V30 3000 C 281.769 1.12064 -2.04851 0
M  V30 3001 C 282.75 1.41981 -0.936767 0
M  V30 3002 O 283.935 1.52071 -1.20781 0
M  V30 3003 C 281.065 2.44144 -2.47004 0
M  V30 3004 C 280.019 2.28643 -3.6181 0
M  V30 3005 C 279.345 3.65869 -3.89929 0
M  V30 3006 C 280.645 1.72986 -4.92822 0
M  V30 3007 H 282.339 0.724979 -2.9049 0
M  V30 3008 H 279.885 0.34729 -1.39749 0
M  V30 3009 H 281.838 3.15914 -2.78884 0
M  V30 3010 H 280.562 2.85639 -1.5836 0
M  V30 3011 H 279.221 1.59318 -3.30172 0
M  V30 3012 H 278.869 4.04885 -2.98458 0
M  V30 3013 H 278.569 3.56344 -4.67218 0
M  V30 3014 H 280.093 4.39112 -4.2428 0
M  V30 3015 H 281.507 2.34593 -5.23105 0
M  V30 3016 H 279.904 1.74229 -5.74251 0
M  V30 3017 H 280.974 0.689007 -4.7998 0
M  V30 3018 N 282.317 1.53212 0.369288 0
M  V30 3019 C 283.247 1.82365 1.45826 0
M  V30 3020 C 284.228 0.676907 1.56051 0
M  V30 3021 O 285.413 0.926401 1.70679 0
M  V30 3022 C 282.543 2.01023 2.83208 0
M  V30 3023 C 281.497 3.1678 2.8781 0
M  V30 3024 C 280.823 3.20724 4.27832 0
M  V30 3025 C 282.123 4.55447 2.55667 0
M  V30 3026 H 283.817 2.73559 1.21678 0
M  V30 3027 H 281.363 1.3163 0.583911 0
M  V30 3028 H 283.316 2.20001 3.59413 0
M  V30 3029 H 282.04 1.06536 3.08736 0
M  V30 3030 H 280.699 2.97616 2.14056 0
M  V30 3031 H 280.347 2.23882 4.50429 0
M  V30 3032 H 280.047 3.98496 4.31827 0
M  V30 3033 H 281.571 3.41881 5.05915 0
M  V30 3034 H 282.985 4.74611 3.21586 0
M  V30 3035 H 281.382 5.35432 2.70984 0
M  V30 3036 H 282.452 4.60812 1.5093 0
M  V30 3037 O 283.834 -0.515259 1.5306 0
M  V30 3038 H 284.525 -1.17028 1.54351 0
M  V30 END ATOM
M  V30 BEGIN BOND
M  V30 END BOND
M  V30 END CTAB
M  END
$$$$
