drugbank_target|P49841 Glycogen synthase kinase-3 beta (DB01356; DB01772; DB01793; DB01950; DB02010; DB02052; DB03444; DB04014; DB04395; DB07014; DB07058; DB07149; DB07584; DB07585; DB07676; DB07812; DB07859; DB07947; DB08073; DB12010; DB12129; DB14507; DB14508; DB14509)
 OpenBabel12092119473D

  0  0  0     0  0            999 V3000
M  V30 BEGIN CTAB
M  V30 COUNTS 6586 6663 0 0 0
M  V30 BEGIN ATOM
M  V30 1 H -0.908 1.98254 -0.117106 0
M  V30 2 N 0 1.576 0 0
M  V30 3 C 0.933 2.03868 1.02534 0
M  V30 4 C 1.911 0.928543 1.3348 0
M  V30 5 O 3.095 1.19667 1.45644 0
M  V30 6 C 0.222 2.43627 2.35294 0
M  V30 7 C -0.732 3.65373 2.2001 0
M  V30 8 S 0.101 5.13292 1.52614 0
M  V30 9 C 1.257 5.56322 2.86805 0
M  V30 10 H 1.49 2.90518 0.631377 0
M  V30 11 H -0.977 1.52953 0.210867 0
M  V30 12 H 0.981 2.67203 3.11629 0
M  V30 13 H -0.358 1.57376 2.7183 0
M  V30 14 H -1.165 3.90944 3.18086 0
M  V30 15 H -1.563 3.418 1.51819 0
M  V30 16 H 0.729 5.58782 3.83104 0
M  V30 17 H 1.672 6.56266 2.65933 0
M  V30 18 H 2.08 4.83886 2.90714 0
M  V30 19 N 1.4781 -0.272755 1.55222 0
M  V30 20 C 2.7031 -1.02683 1.80197 0
M  V30 21 C 3.1281 -1.79142 0.573551 0
M  V30 22 O 2.4861 -1.74917 -0.476849 0
M  V30 23 C 2.5341 -1.9609 3.02624 0
M  V30 24 O 1.6381 -3.04863 2.77727 0
M  V30 25 H 0.9791 -0.293557 0.595584 0
M  V30 26 H 3.5091 -0.30159 2.02365 0
M  V30 27 H 3.5191 -2.38039 3.31363 0
M  V30 28 H 2.1941 -1.39851 3.91682 0
M  V30 29 H 0.7711 -2.67228 2.60084 0
M  V30 30 N 2.9562 -1.48159 -0.537278 0
M  V30 31 C 4.2042 -1.55497 -1.29094 0
M  V30 32 C 4.5252 -0.227454 -1.93669 0
M  V30 33 O 3.7952 0.750386 -1.80959 0
M  V30 34 H 2.3752 -0.572832 -0.47945 0
M  V30 35 H 5.0372 -1.84579 -0.625818 0
M  V30 36 H 4.1332 -2.33216 -2.07405 0
M  V30 37 N 4.4343 0.785586 -1.36625 0
M  V30 38 C 5.8503 1.08419 -1.17122 0
M  V30 39 C 6.0503 2.015 0.00208491 0
M  V30 40 O 5.1063 2.43551 0.666278 0
M  V30 41 C 6.4193 1.69498 -2.48377 0
M  V30 42 C 7.9673 1.81821 -2.54775 0
M  V30 43 C 8.4423 2.46315 -3.86126 0
M  V30 44 N 9.9333 2.53779 -3.87492 0
M  V30 45 C 10.6683 3.045 -4.85868 0
M  V30 46 N 10.1643 3.55499 -5.94637 0
M  V30 47 N 11.9573 3.03247 -4.73284 0
M  V30 48 H 4.1083 0.167264 -2.1174 0
M  V30 49 H 6.3713 0.13682 -0.938075 0
M  V30 50 H 6.0773 1.08571 -3.34522 0
M  V30 51 H 5.9513 2.6896 -2.64462 0
M  V30 52 H 8.3383 2.41884 -1.69045 0
M  V30 53 H 8.4193 0.811532 -2.42586 0
M  V30 54 H 8.0633 1.86895 -4.72263 0
M  V30 55 H 7.9933 3.47561 -3.95612 0
M  V30 56 H 10.4843 2.17672 -3.08913 0
M  V30 57 H 10.7973 3.92562 -6.65669 0
M  V30 58 H 9.1423 3.5364 -5.98301 0
M  V30 59 H 12.3333 2.62696 -3.87438 0
M  V30 60 H 12.5063 3.42467 -5.50109 0
M  V30 61 N 5.9124 1.20967 1.01018 0
M  V30 62 C 7.3234 1.02319 1.56165 0
M  V30 63 C 7.6744 -0.418546 1.91684 0
M  V30 64 O 6.7994 -1.30096 1.72928 0
M  V30 65 C 7.3944 1.85109 2.8376 0
M  V30 66 C 5.9534 1.70809 3.35412 0
M  V30 67 C 5.1004 1.82643 2.08655 0
M  V30 68 H 8.0514 1.35065 0.833255 0
M  V30 69 H 8.0724 1.35827 3.55431 0
M  V30 70 H 7.5844 2.90035 2.57878 0
M  V30 71 H 5.6854 0.685464 3.66241 0
M  V30 72 H 5.7984 2.52467 4.07182 0
M  V30 73 H 4.1624 1.25896 2.21409 0
M  V30 74 H 4.9454 2.89066 1.85191 0
M  V30 75 N 7.3905 -1.2043 1.01659 0
M  V30 76 C 8.8065 -1.41852 0.731442 0
M  V30 77 C 9.0065 -1.89358 -0.688898 0
M  V30 78 O 8.0625 -2.06247 -1.45666 0
M  V30 79 C 9.3755 -2.44019 1.75714 0
M  V30 80 C 10.9235 -2.57785 1.77527 0
M  V30 81 C 11.3985 -3.63194 2.79023 0
M  V30 82 N 12.8895 -3.70678 2.77763 0
M  V30 83 C 13.6245 -4.51897 3.52954 0
M  V30 84 N 13.1205 -5.36921 4.37821 0
M  V30 85 N 14.9135 -4.4643 3.41551 0
M  V30 86 H 7.0645 -0.879093 1.93354 0
M  V30 87 H 9.3275 -0.448425 0.835236 0
M  V30 88 H 9.0335 -2.1611 2.77469 0
M  V30 89 H 8.9075 -3.43007 1.56927 0
M  V30 90 H 11.2945 -2.85023 0.764569 0
M  V30 91 H 11.3755 -1.58992 2.00387 0
M  V30 92 H 11.0195 -3.36699 3.80258 0
M  V30 93 H 10.9495 -4.61609 2.53425 0
M  V30 94 H 13.4405 -3.09944 2.16201 0
M  V30 95 H 13.7535 -5.95981 4.91962 0
M  V30 96 H 12.0985 -5.36424 4.41899 0
M  V30 97 H 15.2895 -3.79042 2.74672 0
M  V30 98 H 15.4625 -5.09491 4.00404 0
M  V30 99 N 8.8686 -0.792821 -1.36206 0
M  V30 100 C 10.0966 -0.378825 -2.03402 0
M  V30 101 C 10.5116 1.00586 -1.59774 0
M  V30 102 O 9.8686 1.64574 -0.788764 0
M  V30 103 C 9.9196 -0.43683 -3.58851 0
M  V30 104 O 9.6406 -1.76691 -4.00889 0
M  V30 105 C 11.1416 -0.0138943 -4.43298 0
M  V30 106 H 8.3616 -0.155673 -0.652692 0
M  V30 107 H 10.9056 -1.07261 -1.74113 0
M  V30 108 H 9.0606 0.208575 -3.86838 0
M  V30 109 H 9.4746 -1.72011 -4.95492 0
M  V30 110 H 10.9486 -0.105615 -5.51899 0
M  V30 111 H 11.4256 1.03915 -4.2673 0
M  V30 112 H 12.0316 -0.63192 -4.20579 0
M  V30 113 N 10.3467 1.47872 -0.545128 0
M  V30 114 C 11.5747 2.06889 -0.021084 0
M  V30 115 C 11.9897 1.39955 1.2672 0
M  V30 116 O 11.3467 0.492036 1.75742 0
M  V30 117 C 11.3977 3.60996 0.190817 0
M  V30 118 O 11.1187 4.25419 -1.04644 0
M  V30 119 C 12.6197 4.36849 0.753521 0
M  V30 120 H 9.8397 0.669785 -0.0403635 0
M  V30 121 H 12.3837 1.90049 -0.755095 0
M  V30 122 H 10.5387 3.77391 0.87492 0
M  V30 123 H 10.9527 5.17785 -0.836611 0
M  V30 124 H 12.4267 5.45399 0.851139 0
M  V30 125 H 12.9037 4.02306 1.762 0
M  V30 126 H 13.5097 4.25169 0.105503 0
M  V30 127 N 11.8248 0.280983 1.55075 0
M  V30 128 C 13.0498 -0.340154 2.04592 0
M  V30 129 C 13.4748 -1.48246 1.15779 0
M  V30 130 O 12.8328 -1.80614 0.15761 0
M  V30 131 C 12.8808 -0.793104 3.5177 0
M  V30 132 O 11.9848 -1.89981 3.66034 0
M  V30 133 H 11.3258 -0.0694289 0.66036 0
M  V30 134 H 13.8558 0.416993 2.00306 0
M  V30 135 H 13.8658 -1.08729 3.93245 0
M  V30 136 H 12.5408 0.0426163 4.15878 0
M  V30 137 H 11.1178 -1.60771 3.36463 0
M  V30 138 N 13.3029 -1.57598 0.00835791 0
M  V30 139 C 14.5499 -1.90928 -0.674732 0
M  V30 140 C 14.8779 -0.88277 -1.73313 0
M  V30 141 O 14.1329 0.111294 -1.95383 0
M  V30 142 C 14.4319 -3.3101 -1.34787 0
M  V30 143 C 14.0979 -4.48922 -0.421861 0
M  V30 144 C 12.7599 -4.8091 -0.166927 0
M  V30 145 C 15.1119 -5.20755 0.215211 0
M  V30 146 C 12.4399 -5.821 0.733232 0
M  V30 147 C 14.7919 -6.22905 1.1033 0
M  V30 148 C 13.4559 -6.53346 1.36733 0
M  V30 149 H 12.7259 -0.698656 -0.246902 0
M  V30 150 H 15.3729 -1.91387 0.0656779 0
M  V30 151 H 13.6779 -3.26714 -2.16253 0
M  V30 152 H 15.3749 -3.54061 -1.8826 0
M  V30 153 H 11.9649 -4.23934 -0.630729 0
M  V30 154 H 16.1489 -4.9629 0.0312829 0
M  V30 155 H 11.4049 -6.04042 0.945712 0
M  V30 156 H 15.5789 -6.77694 1.60325 0
M  V30 157 H 13.2059 -7.31573 2.06652 0
M  V30 158 N 14.781 0.264519 -1.55364 0
M  V30 159 C 15.744 1.31046 -1.88042 0
M  V30 160 C 16.744 1.41943 -0.755569 0
M  V30 161 O 17.934 1.40947 -1.02369 0
M  V30 162 C 15.066 2.69067 -2.09323 0
M  V30 163 H 16.259 1.03297 -2.81549 0
M  V30 164 H 13.812 0.502989 -1.47986 0
M  V30 165 H 14.547 3.01982 -1.18226 0
M  V30 166 H 14.332 2.62542 -2.91229 0
M  V30 167 H 15.822 3.44623 -2.35848 0
M  V30 168 N 16.2591 1.48442 0.529413 0
M  V30 169 C 17.1691 1.6569 1.66084 0
M  V30 170 C 18.1851 0.539432 1.65427 0
M  V30 171 O 19.3611 0.810572 1.84368 0
M  V30 172 C 16.4261 1.69315 3.02545 0
M  V30 173 C 15.4871 2.92694 3.14052 0
M  V30 174 C 14.7201 2.96137 4.44003 0
M  V30 175 O 14.9431 2.07973 5.31134 0
M  V30 176 O 13.8771 3.88312 4.59888 0
M  V30 177 H 17.7031 2.61483 1.54469 0
M  V30 178 H 15.2881 1.3185 0.702567 0
M  V30 179 H 17.1701 1.74217 3.83701 0
M  V30 180 H 15.8451 0.766966 3.14483 0
M  V30 181 H 14.7521 2.93324 2.32189 0
M  V30 182 H 16.0851 3.84699 3.0703 0
M  V30 183 N 17.7372 -0.778329 1.37039 0
M  V30 184 C 18.9622 -1.57248 1.35233 0
M  V30 185 C 19.3872 -1.87999 -0.0615568 0
M  V30 186 O 18.7452 -1.48734 -1.03672 0
M  V30 187 C 18.7932 -2.86353 2.19167 0
M  V30 188 O 17.8972 -3.80442 1.59178 0
M  V30 189 H 17.2382 -0.476569 0.462362 0
M  V30 190 H 19.7682 -0.963853 1.80474 0
M  V30 191 H 19.7782 -3.35519 2.32145 0
M  V30 192 H 18.4532 -2.63299 3.21942 0
M  V30 193 H 17.0302 -3.39067 1.55203 0
M  V30 194 N 19.2153 -1.21501 -1.00376 0
M  V30 195 C 20.4553 -1.04444 -1.75701 0
M  V30 196 C 20.8193 0.414644 -1.87469 0
M  V30 197 O 22.0203 0.705763 -2.59369 0
M  V30 198 C 20.2913 -1.72389 -3.13077 0
M  V30 199 S 21.8503 -1.70604 -4.04277 0
M  V30 200 H 18.6683 -0.374249 -0.604532 0
M  V30 201 H 21.2703 -1.54267 -1.20091 0
M  V30 202 H 19.9743 -2.77734 -3.02146 0
M  V30 203 H 19.5053 -1.22751 -3.73759 0
M  V30 204 H 21.5203 -0.748012 -4.9053 0
M  V30 205 N 20.6934 1.19889 -1.02296 0
M  V30 206 C 21.6404 2.22901 -0.598651 0
M  V30 207 C 22.6104 1.61588 0.384521 0
M  V30 208 O 23.7954 1.88697 0.282522 0
M  V30 209 C 20.9354 3.45063 0.0504476 0
M  V30 210 C 20.0484 4.20783 -0.978053 0
M  V30 211 C 19.1834 5.30356 -0.299338 0
M  V30 212 C 18.2224 5.97826 -1.31416 0
M  V30 213 N 17.3594 6.98975 -0.661667 0
M  V30 214 H 22.1994 2.58554 -1.48169 0
M  V30 215 H 19.7364 1.27039 -0.741584 0
M  V30 216 H 21.6944 4.14831 0.443971 0
M  V30 217 H 20.3244 3.10084 0.897097 0
M  V30 218 H 19.3764 3.50018 -1.48969 0
M  V30 219 H 20.6884 4.67109 -1.74958 0
M  V30 220 H 19.8424 6.06516 0.149347 0
M  V30 221 H 18.5814 4.85084 0.504445 0
M  V30 222 H 17.5864 5.20422 -1.77317 0
M  V30 223 H 18.8114 6.45183 -2.11933 0
M  V30 224 H 16.7574 6.55886 0.122132 0
M  V30 225 H 16.6744 7.43461 -1.37117 0
M  V30 226 H 17.9424 7.7914 -0.236785 0
M  V30 227 N 22.1715 0.800033 1.35784 0
M  V30 228 C 23.5825 0.439142 1.81462 0
M  V30 229 C 23.9335 -1.03813 1.66485 0
M  V30 230 O 23.0585 -1.80626 1.19177 0
M  V30 231 C 23.6535 0.790314 3.29453 0
M  V30 232 C 22.2125 0.482111 3.733 0
M  V30 233 C 21.3595 1.01938 2.57883 0
M  V30 234 H 24.3105 0.992254 1.23855 0
M  V30 235 H 24.3315 0.0853677 3.80404 0
M  V30 236 H 23.8435 1.86554 3.40322 0
M  V30 237 H 21.9445 -0.584652 3.67984 0
M  V30 238 H 22.0575 1.01015 4.6833 0
M  V30 239 H 20.4215 0.442043 2.50835 0
M  V30 240 H 21.2045 2.10059 2.71533 0
M  V30 241 N 23.6496 -1.47581 0.552962 0
M  V30 242 C 24.8956 -2.02782 0.0273648 0
M  V30 243 C 25.2286 -1.42687 -1.31734 0
M  V30 244 O 24.5036 -0.580897 -1.85623 0
M  V30 245 C 24.7866 -3.60031 -0.0702371 0
M  V30 246 C 24.6396 -4.30566 1.30126 0
M  V30 247 C 25.9586 -4.33028 -0.785771 0
M  V30 248 H 23.0776 -0.736912 0.0114185 0
M  V30 249 H 25.7196 -1.76056 0.714432 0
M  V30 250 H 23.8696 -3.82932 -0.655382 0
M  V30 251 H 25.5416 -4.19018 1.92929 0
M  V30 252 H 23.7846 -3.91086 1.87709 0
M  V30 253 H 24.4556 -5.39114 1.18573 0
M  V30 254 H 26.9316 -4.15095 -0.288982 0
M  V30 255 H 25.8076 -5.42695 -0.823013 0
M  V30 256 H 26.0686 -4.01945 -1.841 0
M  V30 257 N 25.1277 -0.289203 -1.54924 0
M  V30 258 C 26.0597 0.625583 -2.20497 0
M  V30 259 C 27.0727 1.10667 -1.19402 0
M  V30 260 O 28.2617 1.02615 -1.46056 0
M  V30 261 C 25.3617 1.86702 -2.82835 0
M  V30 262 C 24.5347 1.5304 -4.09753 0
M  V30 263 C 23.5937 2.62576 -4.56005 0
M  V30 264 O 22.6197 2.28167 -5.21468 0
M  V30 265 N 23.8217 3.92901 -4.27328 0
M  V30 266 H 26.5867 0.0642801 -2.99631 0
M  V30 267 H 24.1477 -0.110896 -1.6152 0
M  V30 268 H 26.1397 2.59304 -3.10715 0
M  V30 269 H 24.7097 2.33702 -2.07611 0
M  V30 270 H 23.9297 0.637564 -3.8901 0
M  V30 271 H 25.2177 1.28072 -4.92418 0
M  V30 272 H 24.6157 4.23671 -3.74859 0
M  V30 273 H 23.1727 4.61837 -4.59946 0
M  V30 274 N 26.6058 1.57591 -0.0167156 0
M  V30 275 C 27.5378 2.06343 0.997753 0
M  V30 276 C 28.5508 0.984469 1.29661 0
M  V30 277 O 29.7398 1.26093 1.26344 0
M  V30 278 C 26.8398 2.46255 2.32834 0
M  V30 279 C 26.0128 3.77083 2.21646 0
M  V30 280 C 25.0718 4.0368 3.37534 0
M  V30 281 O 24.0978 4.7411 3.14973 0
M  V30 282 N 25.2998 3.52881 4.60929 0
M  V30 283 H 28.0648 2.93997 0.581875 0
M  V30 284 H 25.6258 1.61002 0.170316 0
M  V30 285 H 27.6178 2.61149 3.09166 0
M  V30 286 H 26.1878 1.64032 2.66106 0
M  V30 287 H 25.4078 3.72106 1.30119 0
M  V30 288 H 26.6958 4.62822 2.11361 0
M  V30 289 H 26.0938 2.95878 4.82154 0
M  V30 290 H 24.6508 3.73076 5.34469 0
M  V30 291 N 28.0839 -0.256276 1.55502 0
M  V30 292 C 29.4949 -0.826068 1.67431 0
M  V30 293 C 29.8459 -1.86396 0.612446 0
M  V30 294 O 28.9709 -2.15031 -0.243025 0
M  V30 295 C 29.5659 -1.50512 3.03532 0
M  V30 296 C 28.1249 -2.02273 3.17431 0
M  V30 297 C 27.2719 -0.870548 2.63281 0
M  V30 298 H 30.2229 -0.0322728 1.58667 0
M  V30 299 H 30.2439 -2.37279 2.97454 0
M  V30 300 H 29.7559 -0.749484 3.80794 0
M  V30 301 H 27.8569 -2.80746 2.44974 0
M  V30 302 H 27.9699 -2.22655 4.24219 0
M  V30 303 H 26.3339 -1.26851 2.20864 0
M  V30 304 H 27.1169 -0.128149 3.43061 0
M  V30 305 N 29.562 -1.4872 -0.521534 0
M  V30 306 C 30.787 -1.61101 -1.30618 0
M  V30 307 C 31.212 -0.274611 -1.86085 0
M  V30 308 O 30.57 0.754937 -1.64834 0
M  V30 309 C 30.618 -2.66709 -2.4269 0
M  V30 310 O 29.722 -2.24456 -3.45967 0
M  V30 311 H 29.063 -0.539921 -0.386499 0
M  V30 312 H 31.593 -1.94767 -0.626645 0
M  V30 313 H 31.603 -2.88245 -2.88754 0
M  V30 314 H 30.278 -3.63727 -2.01682 0
M  V30 315 H 28.855 -2.13168 -3.05964 0
M  V30 316 N 31.0401 0.771051 -1.3745 0
M  V30 317 C 32.0031 1.86598 -1.33093 0
M  V30 318 C 33.0031 1.59076 -0.234845 0
M  V30 319 O 34.1931 1.67145 -0.490732 0
M  V30 320 C 31.3251 3.23747 -1.06773 0
M  V30 321 H 32.5181 1.91873 -2.30488 0
M  V30 322 H 30.0711 0.970876 -1.2249 0
M  V30 323 H 30.8061 3.24148 -0.099129 0
M  V30 324 H 30.5911 3.45115 -1.86112 0
M  V30 325 H 32.0811 4.03824 -1.06377 0
M  V30 326 N 32.5182 1.22032 0.997298 0
M  V30 327 C 33.7652 1.04222 1.73621 0
M  V30 328 C 34.0932 -0.423264 1.89839 0
M  V30 329 O 33.3482 -1.3302 1.43542 0
M  V30 330 C 33.6472 1.69345 3.14733 0
M  V30 331 C 33.3132 3.19226 3.18442 0
M  V30 332 C 31.9752 3.60124 3.19161 0
M  V30 333 C 34.3272 4.15181 3.15078 0
M  V30 334 C 31.6552 4.95467 3.14212 0
M  V30 335 C 34.0072 5.50495 3.1167 0
M  V30 336 C 32.6712 5.90779 3.10703 0
M  V30 337 H 31.9412 0.381374 0.635323 0
M  V30 338 H 34.5882 1.51732 1.16831 0
M  V30 339 H 32.8932 1.14147 3.74803 0
M  V30 340 H 34.5902 1.53059 3.7064 0
M  V30 341 H 31.1802 2.86659 3.18629 0
M  V30 342 H 35.3642 3.84605 3.13676 0
M  V30 343 H 30.6202 5.25916 3.11805 0
M  V30 344 H 34.7942 6.24576 3.08022 0
M  V30 345 H 32.4212 6.9562 3.06622 0
M  V30 346 N 33.9963 -1.19345 1.0293 0
M  V30 347 C 35.2443 -1.88665 0.724574 0
M  V30 348 C 35.5653 -1.80036 -0.749144 0
M  V30 349 O 34.8353 -1.2111 -1.53978 0
M  V30 350 H 33.4153 -0.698406 0.265025 0
M  V30 351 H 36.0773 -1.44885 1.30362 0
M  V30 352 H 35.1733 -2.94987 1.01926 0
M  V30 353 N 35.4744 -0.807222 -1.35358 0
M  V30 354 C 36.6994 -0.399309 -2.0352 0
M  V30 355 C 37.1244 0.981986 -1.60433 0
M  V30 356 O 36.4824 1.63601 -0.781299 0
M  V30 357 C 36.5304 -0.491552 -3.57234 0
M  V30 358 O 35.6344 0.494754 -4.09421 0
M  V30 359 H 34.9754 -0.166682 -0.642739 0
M  V30 360 H 37.5054 -1.09328 -1.72941 0
M  V30 361 H 37.5154 -0.361588 -4.06395 0
M  V30 362 H 36.1904 -1.49907 -3.87944 0
M  V30 363 H 34.7674 0.324977 -3.71481 0
M  V30 364 N 36.9525 1.47285 -0.560781 0
M  V30 365 C 37.8855 2.27009 0.232821 0
M  V30 366 C 38.8635 1.34273 0.917039 0
M  V30 367 O 40.0475 1.63659 0.935315 0
M  V30 368 C 37.1745 3.11406 1.33206 0
M  V30 369 C 36.2205 4.19746 0.756019 0
M  V30 370 S 37.0535 5.34003 -0.400165 0
M  V30 371 C 38.2095 6.21964 0.700805 0
M  V30 372 H 38.4425 2.93971 -0.443683 0
M  V30 373 H 35.9755 1.50446 -0.347181 0
M  V30 374 H 37.9335 3.60601 1.96156 0
M  V30 375 H 36.5945 2.438 1.98041 0
M  V30 376 H 35.7875 4.78541 1.5816 0
M  V30 377 H 35.3895 3.73451 0.202619 0
M  V30 378 H 37.6815 6.58529 1.59202 0
M  V30 379 H 38.6245 7.07941 0.150126 0
M  V30 380 H 39.0325 5.5566 0.995083 0
M  V30 381 N 38.4306 0.297415 1.54768 0
M  V30 382 C 39.3776 -0.580276 2.23386 0
M  V30 383 C 40.3476 -1.13238 1.21517 0
M  V30 384 O 41.5326 -1.17757 1.50126 0
M  V30 385 C 38.6726 -1.74801 2.97555 0
M  V30 386 C 37.7856 -1.22764 4.1419 0
M  V30 387 C 36.9206 -2.35895 4.75949 0
M  V30 388 C 35.9596 -1.80974 5.84735 0
M  V30 389 N 35.0966 -2.87664 6.40464 0
M  V30 390 H 39.9366 0.0114833 2.97998 0
M  V30 391 H 37.4736 0.0174361 1.4709 0
M  V30 392 H 39.4316 -2.43475 3.38786 0
M  V30 393 H 38.0616 -2.31145 2.25326 0
M  V30 394 H 37.1136 -0.433271 3.77924 0
M  V30 395 H 38.4256 -0.785551 4.92575 0
M  V30 396 H 37.5796 -3.12523 5.20014 0
M  V30 397 H 36.3186 -2.83429 3.96887 0
M  V30 398 H 35.3236 -1.02834 5.40097 0
M  V30 399 H 36.5486 -1.34348 6.65678 0
M  V30 400 H 34.4946 -3.34538 5.64287 0
M  V30 401 H 34.4116 -2.4794 7.14186 0
M  V30 402 H 35.6796 -3.642 6.89187 0
M  V30 403 N 39.9087 -1.5758 0.0250728 0
M  V30 404 C 41.1547 -1.91917 -0.655413 0
M  V30 405 C 41.4877 -0.901433 -1.72011 0
M  V30 406 O 40.7627 0.0764069 -1.9435 0
M  V30 407 C 41.0457 -3.36751 -1.27558 0
M  V30 408 C 40.8987 -4.49258 -0.220719 0
M  V30 409 C 42.2177 -3.81469 -2.19475 0
M  V30 410 H 39.3367 -0.697925 -0.23679 0
M  V30 411 H 41.9787 -1.89825 0.0815036 0
M  V30 412 H 40.1287 -3.38664 -1.90365 0
M  V30 413 H 41.8007 -4.59478 0.409601 0
M  V30 414 H 40.0437 -4.31415 0.454264 0
M  V30 415 H 40.7147 -5.47618 -0.694175 0
M  V30 416 H 43.1907 -3.81266 -1.66659 0
M  V30 417 H 42.0667 -4.83512 -2.59822 0
M  V30 418 H 42.3277 -3.16744 -3.08424 0
M  V30 419 N 41.3868 0.248026 -1.55636 0
M  V30 420 C 42.6118 0.998028 -1.81808 0
M  V30 421 C 43.0368 1.78207 -0.601979 0
M  V30 422 O 42.3948 1.75653 0.448961 0
M  V30 423 C 42.4428 1.9125 -3.05705 0
M  V30 424 O 41.5468 3.00406 -2.82542 0
M  V30 425 H 40.8878 0.284045 -0.600179 0
M  V30 426 H 43.4178 0.269357 -2.02819 0
M  V30 427 H 43.4278 2.32737 -3.35108 0
M  V30 428 H 42.1028 1.33602 -3.93857 0
M  V30 429 H 40.6798 2.63056 -2.64303 0
M  V30 430 N 42.8649 1.48995 0.513639 0
M  V30 431 C 44.2809 1.35478 0.843682 0
M  V30 432 C 44.4809 0.378213 1.97919 0
M  V30 433 O 43.5369 -0.194689 2.51748 0
M  V30 434 C 44.8499 2.75901 1.1958 0
M  V30 435 C 46.3979 2.84509 1.30474 0
M  V30 436 C 46.8729 4.25671 1.69021 0
M  V30 437 N 48.3639 4.28422 1.76094 0
M  V30 438 C 49.0989 5.34601 2.07338 0
M  V30 439 N 48.5949 6.5104 2.36894 0
M  V30 440 N 50.3879 5.22007 2.08483 0
M  V30 441 H 42.5389 2.11092 -0.235328 0
M  V30 442 H 44.8019 0.947039 -0.0426669 0
M  V30 443 H 44.5079 3.49001 0.434913 0
M  V30 444 H 44.3819 3.10467 2.1422 0
M  V30 445 H 46.7689 2.11655 2.05637 0
M  V30 446 H 46.8499 2.53542 0.339155 0
M  V30 447 H 46.4939 4.99048 0.944135 0
M  V30 448 H 46.4239 4.54094 2.66658 0
M  V30 449 H 48.9149 3.44441 1.55464 0
M  V30 450 H 49.2279 7.2779 2.59887 0
M  V30 451 H 47.5729 6.54287 2.34378 0
M  V30 452 H 50.7639 4.30051 1.84861 0
M  V30 453 H 50.9369 6.04854 2.325 0
M  V30 454 N 44.343 -0.763751 1.37857 0
M  V30 455 C 45.62 -1.51244 1.24035 0
M  V30 456 C 46 -2.10472 -0.162649 0
M  V30 457 O 45.348 -1.96206 -1.17112 0
M  V30 458 C 45.558 -2.58694 2.34261 0
M  V30 459 C 46.906 -3.25878 2.72193 0
M  V30 460 O 47.93 -2.68993 2.33497 0
M  V30 461 O 46.789 -4.2874 3.38887 0
M  V30 462 H 43.883 -0.670243 0.484462 0
M  V30 463 H 46.429 -0.800031 1.49658 0
M  V30 464 H 45.201 -2.13105 3.2818 0
M  V30 465 H 44.824 -3.37527 2.10146 0
M  V30 466 N 45.8211 -1.22559 -0.990812 0
M  V30 467 C 46.7681 -0.997519 -2.0813 0
M  V30 468 C 47.7381 0.0814702 -1.659 0
M  V30 469 O 48.9231 -0.0685424 -1.90677 0
M  V30 470 C 46.0631 -0.583615 -3.40129 0
M  V30 471 C 45.1761 -1.7336 -3.9569 0
M  V30 472 C 44.3111 -1.26748 -5.15857 0
M  V30 473 C 43.3501 -2.38888 -5.63559 0
M  V30 474 N 42.4871 -1.93308 -6.74964 0
M  V30 475 H 47.3271 -1.93099 -2.26973 0
M  V30 476 H 44.8641 -0.962114 -1.11273 0
M  V30 477 H 46.8221 -0.324801 -4.15934 0
M  V30 478 H 45.4521 0.312845 -3.2128 0
M  V30 479 H 44.5041 -2.10669 -3.16738 0
M  V30 480 H 45.8161 -2.57704 -4.27071 0
M  V30 481 H 44.9701 -0.966173 -5.98957 0
M  V30 482 H 43.7091 -0.394272 -4.86104 0
M  V30 483 H 42.7141 -2.69805 -4.79046 0
M  V30 484 H 43.9391 -3.26728 -5.95336 0
M  V30 485 H 41.8851 -1.08352 -6.4699 0
M  V30 486 H 41.8021 -2.71217 -7.05675 0
M  V30 487 H 43.0701 -1.66252 -7.61564 0
M  V30 488 N 47.2992 1.18797 -1.03562 0
M  V30 489 C 48.5762 1.84469 -0.650434 0
M  V30 490 C 48.9562 1.92319 0.870433 0
M  V30 491 O 48.3042 1.44528 1.76986 0
M  V30 492 C 48.5142 3.2306 -1.32036 0
M  V30 493 C 49.8622 3.9915 -1.44792 0
M  V30 494 O 50.8862 3.32481 -1.27806 0
M  V30 495 O 49.7452 5.18587 -1.72423 0
M  V30 496 H 46.8392 0.795251 -0.226946 0
M  V30 497 H 49.3852 1.26231 -1.13419 0
M  V30 498 H 48.1572 3.1222 -2.3587 0
M  V30 499 H 47.7802 3.88949 -0.8249 0
M  V30 500 N 48.7773 0.814389 1.34928 0
M  V30 501 C 50.0253 0.397636 1.9815 0
M  V30 502 C 50.3463 -1.04069 1.64908 0
M  V30 503 O 49.6163 -1.72121 0.93548 0
M  V30 504 H 48.1963 0.144043 0.732981 0
M  V30 505 H 50.8583 1.04195 1.6471 0
M  V30 506 H 49.9543 0.509688 3.0791 0
M  V30 507 N 50.2554 -1.46986 0.568584 0
M  V30 508 C 51.4804 -2.07335 0.0520528 0
M  V30 509 C 51.9054 -1.41675 -1.23733 0
M  V30 510 O 51.2634 -0.495623 -1.74394 0
M  V30 511 C 51.3114 -3.60417 -0.11501 0
M  V30 512 O 50.4154 -3.95309 -1.17492 0
M  V30 513 H 49.7564 -0.661597 0.0564385 0
M  V30 514 H 52.2864 -1.88837 0.787507 0
M  V30 515 H 52.2964 -4.06698 -0.325644 0
M  V30 516 H 50.9714 -4.07601 0.826675 0
M  V30 517 H 49.5484 -3.60757 -0.943869 0
M  V30 518 N 51.7335 -0.305618 -1.54608 0
M  V30 519 C 52.6805 0.568421 -2.23691 0
M  V30 520 C 53.6505 1.12592 -1.22116 0
M  V30 521 O 54.8355 1.16959 -1.50749 0
M  V30 522 C 51.9755 1.7322 -2.98477 0
M  V30 523 C 51.0885 1.20566 -4.14835 0
M  V30 524 C 50.2235 2.33368 -4.77193 0
M  V30 525 C 49.2625 1.7787 -5.85686 0
M  V30 526 N 48.3995 2.84263 -6.4198 0
M  V30 527 H 53.2395 -0.0272867 -2.97988 0
M  V30 528 H 50.7765 -0.0252363 -1.47078 0
M  V30 529 H 52.7345 2.41675 -3.40072 0
M  V30 530 H 51.3645 2.29947 -2.26548 0
M  V30 531 H 50.4165 0.413223 -3.78149 0
M  V30 532 H 51.7285 0.759417 -4.92985 0
M  V30 533 H 50.8825 3.09761 -5.21664 0
M  V30 534 H 49.6215 2.8132 -3.98385 0
M  V30 535 H 48.6265 0.99968 -5.40635 0
M  V30 536 H 49.8515 1.30816 -6.66381 0
M  V30 537 H 47.7975 3.31541 -5.66053 0
M  V30 538 H 47.7145 2.44149 -7.15491 0
M  V30 539 H 48.9825 3.6054 -6.91109 0
M  V30 540 N 53.2116 1.57565 -0.0334293 0
M  V30 541 C 54.4576 1.92262 0.645226 0
M  V30 542 C 54.7906 0.910543 1.71531 0
M  V30 543 O 54.0656 -0.066099 1.94388 0
M  V30 544 C 54.3486 3.37422 1.2577 0
M  V30 545 C 54.2016 4.49369 0.196891 0
M  V30 546 C 55.5206 3.82628 2.17449 0
M  V30 547 H 52.6396 0.699171 0.233085 0
M  V30 548 H 55.2816 1.89779 -0.0915694 0
M  V30 549 H 53.4316 3.39669 1.88566 0
M  V30 550 H 55.1036 4.59254 -0.433962 0
M  V30 551 H 53.3466 4.31168 -0.477137 0
M  V30 552 H 54.0176 5.47978 0.665124 0
M  V30 553 H 56.4936 3.82145 1.64634 0
M  V30 554 H 55.3696 4.84883 2.57254 0
M  V30 555 H 55.6306 3.18376 3.0674 0
M  V30 556 N 54.6897 -0.239769 1.55765 0
M  V30 557 C 55.9177 -0.98417 1.81994 0
M  V30 558 C 56.3327 -1.7867 0.610124 0
M  V30 559 O 55.6897 -1.77571 -0.421271 0
M  V30 560 C 55.7407 -1.91635 3.06526 0
M  V30 561 O 55.4617 -1.14629 4.22838 0
M  V30 562 C 56.9627 -2.77616 3.45607 0
M  V30 563 H 54.1827 -0.28928 0.605441 0
M  V30 564 H 56.7267 -0.260499 2.02834 0
M  V30 565 H 54.8817 -2.5942 2.87715 0
M  V30 566 H 55.2957 -1.77745 4.93464 0
M  V30 567 H 56.7697 -3.38759 4.35828 0
M  V30 568 H 57.2467 -3.4909 2.6652 0
M  V30 569 H 57.8527 -2.15271 3.66795 0
M  V30 570 N 56.1678 -1.49265 -0.50573 0
M  V30 571 C 57.3958 -1.62215 -1.28429 0
M  V30 572 C 57.8108 -0.291697 -1.86533 0
M  V30 573 O 57.1678 0.722233 -1.67601 0
M  V30 574 C 57.2188 -2.68735 -2.41793 0
M  V30 575 O 56.9398 -3.96619 -1.86078 0
M  V30 576 C 58.4408 -2.92346 -3.3324 0
M  V30 577 H 55.6608 -0.546239 -0.389697 0
M  V30 578 H 58.2048 -1.95265 -0.607609 0
M  V30 579 H 56.3598 -2.38476 -3.053 0
M  V30 580 H 56.7738 -4.55256 -2.60465 0
M  V30 581 H 58.2478 -3.70623 -4.09075 0
M  V30 582 H 58.7248 -2.02081 -3.89948 0
M  V30 583 H 59.3308 -3.24003 -2.75503 0
M  V30 584 N 57.6459 0.756429 -1.3826 0
M  V30 585 C 58.8919 1.51772 -1.34511 0
M  V30 586 C 59.2249 1.94089 0.0656691 0
M  V30 587 O 58.4999 1.65221 1.02626 0
M  V30 588 C 58.7829 2.77226 -2.29821 0
M  V30 589 C 58.6359 2.41065 -3.79747 0
M  V30 590 C 59.9549 3.79236 -2.23312 0
M  V30 591 H 57.0739 0.550578 -0.489931 0
M  V30 592 H 59.7159 0.866607 -1.69086 0
M  V30 593 H 57.8659 3.32784 -2.00467 0
M  V30 594 H 59.5379 1.91303 -4.19763 0
M  V30 595 H 57.7809 1.7356 -3.97567 0
M  V30 596 H 58.4519 3.3081 -4.41892 0
M  V30 597 H 60.9279 3.3321 -2.49219 0
M  V30 598 H 59.8039 4.64714 -2.92116 0
M  V30 599 H 60.0649 4.24615 -1.23102 0
M  V30 600 N 59.124 1.23083 0.984299 0
M  V30 601 C 60.37 1.06214 1.72761 0
M  V30 602 C 60.703 -0.400584 1.90024 0
M  V30 603 O 59.978 -1.29672 1.44967 0
M  V30 604 C 60.261 1.78375 3.12817 0
M  V30 605 C 60.114 3.32296 3.03149 0
M  V30 606 C 61.433 1.54309 4.12161 0
M  V30 607 H 58.552 0.387251 0.627061 0
M  V30 608 H 61.194 1.51536 1.14616 0
M  V30 609 H 59.344 1.39848 3.62457 0
M  V30 610 H 61.016 3.8032 2.61064 0
M  V30 611 H 59.259 3.6153 2.39747 0
M  V30 612 H 59.93 3.77972 4.02295 0
M  V30 613 H 62.406 1.87791 3.71314 0
M  V30 614 H 61.282 2.07281 5.08258 0
M  V30 615 H 61.543 0.477572 4.39513 0
M  V30 616 N 60.6021 -1.18246 1.0419 0
M  V30 617 C 61.5651 -2.20128 0.638452 0
M  V30 618 C 62.5651 -1.57885 -0.304805 0
M  V30 619 O 63.7551 -1.73967 -0.0900369 0
M  V30 620 C 60.8871 -3.4084 -0.0637751 0
M  V30 621 H 62.0801 -2.57336 1.54007 0
M  V30 622 H 59.6331 -1.32152 0.834598 0
M  V30 623 H 60.3681 -3.09166 -0.979136 0
M  V30 624 H 60.1531 -3.8726 0.614198 0
M  V30 625 H 61.6431 -4.16274 -0.332512 0
M  V30 626 N 62.0802 -0.821533 -1.34494 0
M  V30 627 C 63.3082 -0.421884 -2.02553 0
M  V30 628 C 63.7232 0.971745 -1.61872 0
M  V30 629 O 63.0802 1.62864 -0.823496 0
M  V30 630 C 63.1312 -0.51285 -3.57844 0
M  V30 631 O 62.8522 -1.85155 -3.97051 0
M  V30 632 C 64.3532 -0.107921 -4.43169 0
M  V30 633 H 61.5732 -0.169482 -0.649243 0
M  V30 634 H 64.1172 -1.1093 -1.71798 0
M  V30 635 H 62.2722 0.126474 -3.87193 0
M  V30 636 H 62.6862 -1.82482 -4.91732 0
M  V30 637 H 64.1602 -0.222657 -5.51551 0
M  V30 638 H 64.6372 0.948401 -4.28838 0
M  V30 639 H 65.2432 -0.720989 -4.19144 0
M  V30 640 N 63.5583 1.46682 -0.576371 0
M  V30 641 C 64.9693 1.86112 -0.148091 0
M  V30 642 C 65.3203 1.48073 1.2872 0
M  V30 643 O 64.4453 0.892656 1.97131 0
M  V30 644 C 65.0403 3.37786 -0.261982 0
M  V30 645 C 63.5993 3.76235 0.111384 0
M  V30 646 C 62.7463 2.70713 -0.60083 0
M  V30 647 H 65.6973 1.37927 -0.78497 0
M  V30 648 H 65.7183 3.77007 0.514364 0
M  V30 649 H 65.2303 3.6544 -1.30671 0
M  V30 650 H 63.3313 3.54198 1.15649 0
M  V30 651 H 63.4443 4.78391 -0.26052 0
M  V30 652 H 61.8083 2.54666 -0.0417783 0
M  V30 653 H 62.5913 3.01208 -1.64708 0
M  V30 654 N 65.0364 0.313813 1.54444 0
M  V30 655 C 66.2844 -0.291099 1.99993 0
M  V30 656 C 66.6054 -1.53418 1.20366 0
M  V30 657 O 65.8754 -1.93544 0.302927 0
M  V30 658 H 64.4554 -0.110552 0.738774 0
M  V30 659 H 67.1174 0.428106 1.9014 0
M  V30 660 H 66.2134 -0.554268 3.07139 0
M  V30 661 N 66.5145 -1.57545 0.0417849 0
M  V30 662 C 67.4465 -2.07904 -0.964799 0
M  V30 663 C 68.4595 -1.00497 -1.28079 0
M  V30 664 O 69.6485 -1.28087 -1.24322 0
M  V30 665 C 66.7485 -2.49928 -2.28887 0
M  V30 666 C 65.9215 -3.80562 -2.15619 0
M  V30 667 C 64.9805 -4.08999 -3.31069 0
M  V30 668 O 64.0065 -4.79061 -3.0739 0
M  V30 669 N 65.2085 -3.6017 -4.55256 0
M  V30 670 H 67.9735 -2.94886 -0.535029 0
M  V30 671 H 65.5345 -1.61252 -0.144681 0
M  V30 672 H 67.5265 -2.66034 -3.04972 0
M  V30 673 H 66.0965 -1.68245 -2.63463 0
M  V30 674 H 65.3165 -3.74129 -1.24183 0
M  V30 675 H 66.6045 -4.66126 -2.03971 0
M  V30 676 H 66.0025 -3.03512 -4.77386 0
M  V30 677 H 64.5595 -3.81532 -5.28466 0
M  V30 678 N 67.9926 0.231505 -1.5589 0
M  V30 679 C 69.2406 0.955461 -1.78088 0
M  V30 680 C 69.5616 1.85262 -0.608533 0
M  V30 681 O 68.8316 1.92277 0.375035 0
M  V30 682 H 67.4116 0.355787 -0.656829 0
M  V30 683 H 70.0736 0.245751 -1.93344 0
M  V30 684 H 69.1696 1.56814 -2.69844 0
M  V30 685 N 69.4707 1.49531 0.497807 0
M  V30 686 C 70.8817 1.52344 1.07927 0
M  V30 687 C 71.2327 0.311469 1.93712 0
M  V30 688 O 70.3577 -0.578405 2.08527 0
M  V30 689 C 70.9527 2.76062 1.96405 0
M  V30 690 C 69.5117 2.81643 2.49709 0
M  V30 691 C 68.6587 2.46299 1.27404 0
M  V30 692 H 71.6097 1.56182 0.281576 0
M  V30 693 H 71.6307 2.56405 2.81135 0
M  V30 694 H 71.1427 3.64254 1.33943 0
M  V30 695 H 69.2437 1.97739 3.15801 0
M  V30 696 H 69.3567 3.83891 2.86643 0
M  V30 697 H 67.7207 1.98148 1.60029 0
M  V30 698 H 68.5037 3.36769 0.66645 0
M  V30 699 N 70.9488 -0.749086 1.3866 0
M  V30 700 C 72.2258 -1.4992 1.25632 0
M  V30 701 C 72.6058 -2.10633 -0.140317 0
M  V30 702 O 71.9538 -1.97437 -1.15025 0
M  V30 703 C 72.1638 -2.56195 2.36992 0
M  V30 704 C 73.5118 -3.22972 2.75634 0
M  V30 705 O 74.5358 -2.66502 2.36337 0
M  V30 706 O 73.3948 -4.25122 3.43415 0
M  V30 707 H 70.4888 -0.665067 0.491544 0
M  V30 708 H 73.0348 -0.784113 1.50498 0
M  V30 709 H 71.8068 -2.09612 3.30422 0
M  V30 710 H 71.4298 -3.35279 2.13714 0
M  V30 711 N 72.4269 -1.23603 -0.977757 0
M  V30 712 C 73.8429 -0.999251 -1.24447 0
M  V30 713 C 74.0429 0.298053 -1.99283 0
M  V30 714 O 73.0989 1.01681 -2.31122 0
M  V30 715 C 74.4119 -2.20784 -2.04144 0
M  V30 716 C 75.9599 -2.25303 -2.17273 0
M  V30 717 C 76.4349 -3.45755 -3.00362 0
M  V30 718 N 77.9259 -3.4601 -3.07947 0
M  V30 719 C 78.6609 -4.35868 -3.72568 0
M  V30 720 N 78.1569 -5.35966 -4.38991 0
M  V30 721 N 79.9499 -4.23605 -3.6948 0
M  V30 722 H 72.1009 -2.06986 -0.476483 0
M  V30 723 H 74.3639 -0.907801 -0.273134 0
M  V30 724 H 74.0699 -3.14945 -1.56533 0
M  V30 725 H 73.9439 -2.22085 -3.04891 0
M  V30 726 H 76.3309 -1.3168 -2.64092 0
M  V30 727 H 76.4119 -2.28033 -1.15907 0
M  V30 728 H 76.0559 -4.39687 -2.5424 0
M  V30 729 H 75.9859 -3.40266 -4.01904 0
M  V30 730 H 78.4769 -2.73588 -2.60688 0
M  V30 731 H 78.7899 -6.00783 -4.86086 0
M  V30 732 H 77.1349 -5.39863 -4.37691 0
M  V30 733 H 80.3259 -3.44647 -3.16759 0
M  V30 734 H 80.4989 -4.93836 -4.1956 0
M  V30 735 N 73.905 1.17692 -1.04816 0
M  V30 736 C 75.316 1.69501 -0.782698 0
M  V30 737 C 75.667 1.83456 0.695577 0
M  V30 738 O 74.792 1.51942 1.54086 0
M  V30 739 C 75.387 3.07874 -1.41419 0
M  V30 740 C 73.946 3.56864 -1.19686 0
M  V30 741 C 73.093 2.3322 -1.50012 0
M  V30 742 H 76.044 1.02262 -1.2136 0
M  V30 743 H 76.065 3.71528 -0.821428 0
M  V30 744 H 75.577 2.97685 -2.49009 0
M  V30 745 H 73.678 3.72337 -0.140043 0
M  V30 746 H 73.791 4.39851 -1.89916 0
M  V30 747 H 72.155 2.37501 -0.920071 0
M  V30 748 H 72.938 2.25644 -2.58727 0
M  V30 749 N 75.3831 0.828654 1.34056 0
M  V30 750 C 76.3151 0.212052 2.28217 0
M  V30 751 C 77.3281 -0.601362 1.51286 0
M  V30 752 O 78.5171 -0.430104 1.73241 0
M  V30 753 C 75.6171 -0.72088 3.31144 0
M  V30 754 C 74.7901 0.0509587 4.3737 0
M  V30 755 C 73.8491 -0.803766 5.20025 0
M  V30 756 O 72.8751 -0.246667 5.68665 0
M  V30 757 N 74.0771 -2.1227 5.40298 0
M  V30 758 H 76.8421 1.02105 2.81771 0
M  V30 759 H 74.4031 0.686153 1.46641 0
M  V30 760 H 76.3951 -1.29742 3.8334 0
M  V30 761 H 74.9651 -1.43061 2.77943 0
M  V30 762 H 74.1851 0.808831 3.85813 0
M  V30 763 H 75.4731 0.582065 5.0546 0
M  V30 764 H 74.8711 -2.59898 5.02464 0
M  V30 765 H 73.4281 -2.64796 5.95589 0
M  V30 766 N 76.8612 -1.46375 0.584142 0
M  V30 767 C 77.7712 -2.34115 -0.150728 0
M  V30 768 C 78.7872 -1.49838 -0.884567 0
M  V30 769 O 79.9632 -1.82704 -0.847429 0
M  V30 770 C 77.0282 -3.2705 -1.15062 0
M  V30 771 C 76.0892 -4.27228 -0.421293 0
M  V30 772 C 75.3222 -5.15722 -1.37355 0
M  V30 773 O 75.5452 -5.07176 -2.61014 0
M  V30 774 O 74.4792 -5.95383 -0.883355 0
M  V30 775 H 78.3052 -2.98309 0.569708 0
M  V30 776 H 75.8902 -1.45373 0.344535 0
M  V30 777 H 77.7722 -3.84381 -1.72712 0
M  V30 778 H 76.4472 -2.65451 -1.8525 0
M  V30 779 H 75.3542 -3.7358 0.197085 0
M  V30 780 H 76.6872 -4.91616 0.239641 0
M  V30 781 N 78.3393 -0.321999 -1.54275 0
M  V30 782 C 79.5853 0.281461 -2.00837 0
M  V30 783 C 79.9183 1.51909 -1.20985 0
M  V30 784 O 79.1933 1.923 -0.291733 0
M  V30 785 C 79.4763 0.617162 -3.54772 0
M  V30 786 C 79.3293 -0.631064 -4.45351 0
M  V30 787 C 80.6483 1.43542 -4.16033 0
M  V30 788 H 77.7673 0.100826 -0.730071 0
M  V30 789 H 80.4093 -0.438268 -1.84876 0
M  V30 790 H 78.5593 1.23034 -3.68504 0
M  V30 791 H 80.2313 -1.26934 -4.43492 0
M  V30 792 H 78.4743 -1.26025 -4.15091 0
M  V30 793 H 79.1453 -0.351735 -5.50878 0
M  V30 794 H 81.6213 0.917134 -4.05867 0
M  V30 795 H 80.4973 1.63907 -5.23856 0
M  V30 796 H 80.7583 2.43108 -3.69257 0
M  V30 797 N 79.8174 1.5752 -0.0501392 0
M  V30 798 C 81.0424 1.97376 0.636997 0
M  V30 799 C 81.4674 0.927466 1.63645 0
M  V30 800 O 80.8254 -0.10941 1.8097 0
M  V30 801 C 80.8734 3.36304 1.30123 0
M  V30 802 O 79.9774 3.34156 2.41689 0
M  V30 803 H 79.3184 0.642998 0.165679 0
M  V30 804 H 81.8484 2.04258 -0.118233 0
M  V30 805 H 81.8584 3.73008 1.65315 0
M  V30 806 H 80.5334 4.11993 0.568746 0
M  V30 807 H 79.1104 3.09196 2.08451 0
M  V30 808 N 81.2955 -0.223234 1.56011 0
M  V30 809 C 82.5255 -0.963413 1.82762 0
M  V30 810 C 82.9335 -1.78516 0.626804 0
M  V30 811 O 82.2765 -1.78974 -0.414014 0
M  V30 812 C 82.3385 -1.93126 3.0322 0
M  V30 813 C 82.0025 -1.2942 4.38291 0
M  V30 814 C 82.9995 -0.684916 5.15369 0
M  V30 815 C 80.6845 -1.30647 4.85012 0
M  V30 816 C 82.6785 -0.0963971 6.37327 0
M  V30 817 C 80.3655 -0.71411 6.06913 0
M  V30 818 C 81.3635 -0.110123 6.82911 0
M  V30 819 O 81.0515 0.47303 8.02507 0
M  V30 820 H 80.7835 -0.288011 0.611576 0
M  V30 821 H 83.3375 -0.244103 2.03944 0
M  V30 822 H 81.5675 -2.68952 2.77852 0
M  V30 823 H 83.2565 -2.53685 3.16857 0
M  V30 824 H 84.0225 -0.667774 4.80381 0
M  V30 825 H 79.9015 -1.76598 4.25833 0
M  V30 826 H 83.4455 0.375657 6.96588 0
M  V30 827 H 79.3425 -0.728659 6.41374 0
M  V30 828 H 80.1105 0.367186 8.17676 0
M  V30 829 N 82.7736 -1.49793 -0.48987 0
M  V30 830 C 84.0016 -1.63568 -1.26701 0
M  V30 831 C 84.4166 -0.311465 -1.86213 0
M  V30 832 O 83.7736 0.704416 -1.68357 0
M  V30 833 C 83.8246 -2.71284 -2.38929 0
M  V30 834 O 83.5456 -3.9857 -1.81861 0
M  V30 835 C 85.0466 -2.95864 -3.3012 0
M  V30 836 H 82.2666 -0.550342 -0.383881 0
M  V30 837 H 84.8106 -1.95898 -0.586864 0
M  V30 838 H 82.9656 -2.417 -3.02753 0
M  V30 839 H 83.3796 -4.57993 -2.55622 0
M  V30 840 H 84.8536 -3.74941 -4.05121 0
M  V30 841 H 85.3306 -2.06206 -3.87783 0
M  V30 842 H 85.9366 -3.26907 -2.72051 0
M  V30 843 N 84.2517 0.741722 -1.39055 0
M  V30 844 C 85.5287 1.49252 -1.26425 0
M  V30 845 C 85.9087 2.10705 0.129144 0
M  V30 846 O 85.2567 1.98045 1.13976 0
M  V30 847 C 85.4667 2.54934 -2.38347 0
M  V30 848 C 86.8147 3.21506 -2.77343 0
M  V30 849 O 87.8387 2.65245 -2.37747 0
M  V30 850 O 86.6977 4.23294 -3.45665 0
M  V30 851 H 83.7917 0.662451 -0.495064 0
M  V30 852 H 86.3377 0.776121 -1.50912 0
M  V30 853 H 85.1097 2.07857 -3.31529 0
M  V30 854 H 84.7327 3.34141 -2.15489 0
M  V30 855 N 85.7298 1.2412 0.971189 0
M  V30 856 C 86.9578 1.10575 1.74874 0
M  V30 857 C 87.3728 -0.342017 1.85676 0
M  V30 858 O 86.7298 -1.23617 1.34258 0
M  V30 859 C 86.7808 1.73579 3.171 0
M  V30 860 O 86.5018 3.12695 3.06844 0
M  V30 861 C 88.0028 1.65598 4.11208 0
M  V30 862 H 85.2228 0.386504 0.548503 0
M  V30 863 H 87.7668 1.64156 1.21955 0
M  V30 864 H 85.9218 1.24009 3.67016 0
M  V30 865 H 86.3358 3.43412 3.96445 0
M  V30 866 H 87.8098 2.1437 5.08674 0
M  V30 867 H 88.2868 0.616532 4.34851 0
M  V30 868 H 88.8928 2.14578 3.67201 0
M  V30 869 N 87.2079 -1.17134 1.05439 0
M  V30 870 C 88.1549 -2.21235 0.657539 0
M  V30 871 C 89.1249 -1.62551 -0.341543 0
M  V30 872 O 90.3099 -1.89379 -0.232393 0
M  V30 873 C 87.4499 -3.45076 0.0410575 0
M  V30 874 C 86.5629 -4.18042 1.08927 0
M  V30 875 C 85.6979 -5.29376 0.439848 0
M  V30 876 C 84.7369 -5.94132 1.4722 0
M  V30 877 N 83.8739 -6.96975 0.846756 0
M  V30 878 H 88.7139 -2.54534 1.54972 0
M  V30 879 H 86.2509 -1.25028 0.775006 0
M  V30 880 H 88.2089 -4.15862 -0.33383 0
M  V30 881 H 86.8389 -3.12353 -0.814568 0
M  V30 882 H 85.8909 -3.45945 1.58196 0
M  V30 883 H 87.2029 -4.62306 1.87282 0
M  V30 884 H 86.3569 -6.06699 0.0115125 0
M  V30 885 H 85.0959 -4.86251 -0.375656 0
M  V30 886 H 84.1009 -5.15538 1.91052 0
M  V30 887 H 85.3259 -6.39337 2.28965 0
M  V30 888 H 83.2719 -6.5598 0.0518075 0
M  V30 889 H 83.1889 -7.39565 1.5678 0
M  V30 890 H 84.4569 -7.78239 0.443277 0
M  V30 891 N 88.686 -0.835752 -1.33615 0
M  V30 892 C 89.932 -0.430596 -1.98176 0
M  V30 893 C 90.265 1.00684 -1.66061 0
M  V30 894 O 89.54 1.70339 -0.938877 0
M  V30 895 C 89.823 -0.648065 -3.5422 0
M  V30 896 C 89.676 -2.13255 -3.96033 0
M  V30 897 C 90.995 -0.0922113 -4.40003 0
M  V30 898 H 88.114 -0.157924 -0.719881 0
M  V30 899 H 90.756 -1.05069 -1.58305 0
M  V30 900 H 88.906 -0.120237 -3.88314 0
M  V30 901 H 90.578 -2.725 -3.72211 0
M  V30 902 H 88.821 -2.61823 -3.45878 0
M  V30 903 H 89.492 -2.23547 -5.04708 0
M  V30 904 H 91.968 -0.543343 -4.12537 0
M  V30 905 H 90.844 -0.274083 -5.48215 0
M  V30 906 H 91.105 1.00378 -4.30554 0
M  V30 907 N 90.1641 1.46063 -0.591896 0
M  V30 908 C 91.4131 2.01547 -0.0786637 0
M  V30 909 C 91.7261 1.46796 1.29268 0
M  V30 910 O 92.9321 1.94157 1.89777 0
M  V30 911 C 91.3881 3.59787 -0.0900024 0
M  V30 912 C 90.9961 4.23534 -1.46023 0
M  V30 913 C 92.7401 4.22895 0.368806 0
M  V30 914 C 90.6471 5.73881 -1.4288 0
M  V30 915 H 89.5771 0.753564 -0.0256388 0
M  V30 916 H 92.2281 1.677 -0.744905 0
M  V30 917 H 90.6101 3.90752 0.642586 0
M  V30 918 H 91.7841 4.04167 -2.21328 0
M  V30 919 H 90.0991 3.72558 -1.85982 0
M  V30 920 H 92.6961 5.33116 0.411258 0
M  V30 921 H 93.0391 3.9247 1.38827 0
M  V30 922 H 93.5721 3.9659 -0.31001 0
M  V30 923 H 90.3111 6.0898 -2.42536 0
M  V30 924 H 89.8311 5.95486 -0.718095 0
M  V30 925 H 91.5101 6.36776 -1.14565 0
M  V30 926 N 91.6422 0.330177 1.54103 0
M  V30 927 C 92.8902 -0.269871 2.0029 0
M  V30 928 C 93.2112 -1.52133 1.21986 0
M  V30 929 O 92.4812 -1.93212 0.323438 0
M  V30 930 H 91.0612 -0.10271 0.739905 0
M  V30 931 H 93.7232 0.448249 1.89675 0
M  V30 932 H 92.8192 -0.52166 3.07709 0
M  V30 933 N 93.1203 -1.57491 0.0584922 0
M  V30 934 C 94.0683 -2.13148 -0.931168 0
M  V30 935 C 95.0623 -1.06507 -1.31729 0
M  V30 936 O 96.2683 -1.24906 -1.29609 0
M  V30 937 H 92.6433 -0.68137 -0.31818 0
M  V30 938 H 94.6143 -2.95187 -0.436707 0
M  V30 939 C 93.3633 -2.69732 -2.19408 0
M  V30 940 H 92.6863 -3.51454 -1.90578 0
M  V30 941 H 94.1263 -3.12287 -2.86798 0
M  V30 942 C 92.5853 -1.63855 -2.94369 0
M  V30 943 O 93.1153 -1.05565 -3.87581 0
M  V30 944 N 91.3213 -1.35202 -2.57233 0
M  V30 945 H 90.8683 -1.82791 -1.81508 0
M  V30 946 H 90.8263 -0.645922 -3.07693 0
M  V30 947 N 94.5984 0.214957 -1.56127 0
M  V30 948 C 95.8464 0.936518 -1.79091 0
M  V30 949 C 96.1674 1.84606 -0.628148 0
M  V30 950 O 95.4374 1.92664 0.35462 0
M  V30 951 H 94.0174 0.3488 -0.660566 0
M  V30 952 H 96.6794 0.22523 -1.93594 0
M  V30 953 H 95.7754 1.53943 -2.71492 0
M  V30 954 N 96.0765 1.50051 0.48192 0
M  V30 955 C 97.3015 1.64508 1.26301 0
M  V30 956 C 97.7265 0.323851 1.85291 0
M  V30 957 O 97.0845 -0.710969 1.66778 0
M  V30 958 C 97.1325 2.7305 2.35533 0
M  V30 959 O 96.2365 2.3355 3.39895 0
M  V30 960 H 95.5775 0.549978 0.372048 0
M  V30 961 H 98.1075 1.9636 0.574786 0
M  V30 962 H 98.1175 2.95799 2.8101 0
M  V30 963 H 96.7925 3.68946 1.91967 0
M  V30 964 H 95.3695 2.21205 3.00204 0
M  V30 965 N 97.5546 -0.734337 1.39446 0
M  V30 966 C 98.8016 -1.49391 1.36706 0
M  V30 967 C 99.1296 -1.94465 -0.0367813 0
M  V30 968 O 98.3846 -1.67154 -1.01774 0
M  V30 969 C 98.6836 -2.74711 2.28623 0
M  V30 970 C 98.3496 -2.48501 3.76242 0
M  V30 971 C 97.0116 -2.41062 4.16464 0
M  V30 972 C 99.3636 -2.26098 4.69606 0
M  V30 973 C 96.6916 -2.09262 5.48112 0
M  V30 974 C 99.0436 -1.95814 6.01531 0
M  V30 975 C 97.7076 -1.86845 6.40816 0
M  V30 976 H 96.9776 -0.546661 0.500243 0
M  V30 977 H 99.6246 -0.842788 1.71957 0
M  V30 978 H 97.9296 -3.44569 1.86492 0
M  V30 979 H 99.6266 -3.32741 2.23796 0
M  V30 980 H 96.2166 -2.55169 3.44364 0
M  V30 981 H 100.401 -2.30812 4.39363 0
M  V30 982 H 95.6566 -2.00841 5.77471 0
M  V30 983 H 99.8306 -1.77488 6.73403 0
M  V30 984 H 97.4576 -1.6197 7.42745 0
M  V30 985 N 99.0327 -1.24633 -0.964593 0
M  V30 986 C 100.281 -1.08573 -1.70459 0
M  V30 987 C 100.602 0.375655 -1.91347 0
M  V30 988 O 99.8717 1.26779 -1.49345 0
M  V30 989 H 98.4517 -0.398784 -0.631649 0
M  V30 990 H 101.114 -1.56601 -1.16026 0
M  V30 991 H 100.21 -1.58623 -2.68785 0
M  V30 992 N 100.511 1.16574 -1.06058 0
M  V30 993 C 101.757 1.87324 -0.777022 0
M  V30 994 C 102.09 1.81351 0.694645 0
M  V30 995 O 101.365 1.22753 1.50871 0
M  V30 996 C 101.648 3.36991 -1.26922 0
M  V30 997 C 101.501 3.51667 -2.80447 0
M  V30 998 C 102.82 4.3131 -0.87521 0
M  V30 999 H 99.9388 0.680191 -0.28374 0
M  V30 1000 H 102.581 1.37036 -1.3161 0
M  V30 1001 H 100.731 3.79949 -0.81063 0
M  V30 1002 H 102.403 3.17664 -3.34495 0
M  V30 1003 H 100.646 2.93656 -3.19294 0
M  V30 1004 H 101.317 4.56766 -3.0995 0
M  V30 1005 H 103.793 3.9624 -1.27014 0
M  V30 1006 H 102.669 5.34545 -1.2471 0
M  V30 1007 H 102.93 4.41552 0.220071 0
M  V30 1008 N 101.989 0.842826 1.3317 0
M  V30 1009 C 103.235 0.441099 1.97945 0
M  V30 1010 C 103.568 -0.998024 1.66593 0
M  V30 1011 O 102.843 -1.69839 0.947898 0
M  V30 1012 C 103.126 0.666841 3.53872 0
M  V30 1013 C 102.979 2.15352 3.94897 0
M  V30 1014 C 104.298 0.115544 4.39948 0
M  V30 1015 H 101.417 0.161739 0.719034 0
M  V30 1016 H 104.059 1.05907 1.57746 0
M  V30 1017 H 102.209 0.140828 3.88245 0
M  V30 1018 H 103.881 2.7447 3.70761 0
M  V30 1019 H 102.124 2.63653 3.44484 0
M  V30 1020 H 102.795 2.26221 5.03516 0
M  V30 1021 H 105.271 0.565213 4.12243 0
M  V30 1022 H 104.147 0.303152 5.48062 0
M  V30 1023 H 104.408 -0.980935 4.3108 0
M  V30 1024 N 103.467 -1.45747 0.599634 0
M  V30 1025 C 104.697 -2.06369 0.0977132 0
M  V30 1026 C 105.105 -1.44624 -1.21985 0
M  V30 1027 O 104.448 -0.551831 -1.75216 0
M  V30 1028 C 104.51 -3.59284 -0.124673 0
M  V30 1029 C 104.174 -4.43318 1.10987 0
M  V30 1030 C 105.171 -4.78796 2.02609 0
M  V30 1031 C 102.856 -4.84194 1.33647 0
M  V30 1032 C 104.85 -5.53997 3.15224 0
M  V30 1033 C 102.537 -5.5915 2.46565 0
M  V30 1034 C 103.535 -5.93968 3.37182 0
M  V30 1035 O 103.223 -6.67405 4.48136 0
M  V30 1036 H 102.955 -0.673122 0.0623153 0
M  V30 1037 H 105.509 -1.88104 0.824981 0
M  V30 1038 H 103.739 -3.75919 -0.906745 0
M  V30 1039 H 105.428 -4.01775 -0.577201 0
M  V30 1040 H 106.194 -4.47781 1.86325 0
M  V30 1041 H 102.073 -4.56534 0.64016 0
M  V30 1042 H 105.617 -5.81091 3.85978 0
M  V30 1043 H 101.514 -5.89579 2.62805 0
M  V30 1044 H 102.282 -6.85847 4.46717 0
M  V30 1045 N 104.945 -0.338344 -1.53925 0
M  V30 1046 C 105.877 0.555117 -2.22376 0
M  V30 1047 C 106.89 1.06812 -1.22862 0
M  V30 1048 O 108.079 0.979163 -1.49247 0
M  V30 1049 C 105.179 1.77609 -2.88631 0
M  V30 1050 C 104.352 1.39927 -4.14414 0
M  V30 1051 C 103.411 2.47936 -4.64127 0
M  V30 1052 O 102.437 2.11461 -5.28463 0
M  V30 1053 N 103.639 3.79107 -4.39612 0
M  V30 1054 H 106.404 -0.0310778 -2.99684 0
M  V30 1055 H 103.965 -0.162226 -1.61085 0
M  V30 1056 H 105.957 2.49287 -3.18807 0
M  V30 1057 H 104.527 2.26978 -2.14941 0
M  V30 1058 H 103.747 0.513481 -3.90841 0
M  V30 1059 H 105.035 1.12341 -4.96243 0
M  V30 1060 H 104.433 4.11531 -3.88148 0
M  V30 1061 H 102.99 4.4697 -4.74406 0
M  V30 1062 N 106.423 1.57458 -0.0668435 0
M  V30 1063 C 107.386 2.11323 0.887422 0
M  V30 1064 C 108.386 1.03618 1.22964 0
M  V30 1065 O 109.576 1.29626 1.16373 0
M  V30 1066 C 106.708 2.61048 2.19242 0
M  V30 1067 H 107.901 2.96942 0.420194 0
M  V30 1068 H 105.454 1.55239 0.181793 0
M  V30 1069 H 106.189 1.78868 2.70512 0
M  V30 1070 H 105.974 3.39769 1.95702 0
M  V30 1071 H 107.464 3.02814 2.87565 0
M  V30 1072 N 107.901 -0.206675 1.56239 0
M  V30 1073 C 108.848 -1.25617 1.93621 0
M  V30 1074 C 109.818 -1.45824 0.795274 0
M  V30 1075 O 111.003 -1.59148 1.05245 0
M  V30 1076 C 108.143 -2.59839 2.27107 0
M  V30 1077 C 107.256 -2.47308 3.54207 0
M  V30 1078 C 106.391 -3.74155 3.7707 0
M  V30 1079 C 105.43 -3.56407 4.97635 0
M  V30 1080 N 104.567 -4.75238 5.1681 0
M  V30 1081 H 109.407 -0.930383 2.83104 0
M  V30 1082 H 106.944 -0.448065 1.4011 0
M  V30 1083 H 108.902 -3.38021 2.44535 0
M  V30 1084 H 107.532 -2.90485 1.40778 0
M  V30 1085 H 106.584 -1.60483 3.4489 0
M  V30 1086 H 107.896 -2.30122 4.42544 0
M  V30 1087 H 107.05 -4.60778 3.94675 0
M  V30 1088 H 105.789 -3.94282 2.87042 0
M  V30 1089 H 104.794 -2.68168 4.79964 0
M  V30 1090 H 106.019 -3.37736 5.89161 0
M  V30 1091 H 103.965 -4.95651 4.29728 0
M  V30 1092 H 103.882 -4.60835 5.99306 0
M  V30 1093 H 105.15 -5.63246 5.38864 0
M  V30 1094 N 109.379 -1.50304 -0.473955 0
M  V30 1095 C 110.309 -1.71886 -1.58042 0
M  V30 1096 C 111.29 -0.567799 -1.60344 0
M  V30 1097 O 112.475 -0.806623 -1.76656 0
M  V30 1098 C 109.605 -1.81036 -2.96384 0
M  V30 1099 C 108.559 -2.962 -3.08949 0
M  V30 1100 C 107.885 -2.9049 -4.48909 0
M  V30 1101 C 109.185 -4.36752 -2.86434 0
M  V30 1102 H 110.879 -2.64527 -1.40234 0
M  V30 1103 H 108.425 -1.27295 -0.673201 0
M  V30 1104 H 110.378 -1.94719 -3.73714 0
M  V30 1105 H 109.102 -0.850147 -3.15341 0
M  V30 1106 H 107.761 -2.82164 -2.3405 0
M  V30 1107 H 107.409 -1.92321 -4.64781 0
M  V30 1108 H 107.109 -3.67802 -4.58253 0
M  V30 1109 H 108.633 -3.06218 -5.28264 0
M  V30 1110 H 110.047 -4.5133 -3.53517 0
M  V30 1111 H 108.444 -5.15493 -3.07225 0
M  V30 1112 H 109.514 -4.49321 -1.82316 0
M  V30 1113 N 110.857 0.726932 -1.39834 0
M  V30 1114 C 112.097 1.4992 -1.38936 0
M  V30 1115 C 112.461 1.91996 0.0126883 0
M  V30 1116 O 113.662 2.68399 0.146715 0
M  V30 1117 C 111.933 2.70013 -2.34153 0
M  V30 1118 S 113.492 3.59563 -2.51515 0
M  V30 1119 H 110.31 0.51271 -0.492595 0
M  V30 1120 H 112.912 0.85107 -1.76003 0
M  V30 1121 H 111.616 2.37254 -3.34871 0
M  V30 1122 H 111.147 3.39748 -1.98331 0
M  V30 1123 H 113.162 4.63973 -1.75909 0
M  V30 1124 N 112.336 1.25143 0.95797 0
M  V30 1125 C 113.613 1.00472 1.67823 0
M  V30 1126 C 113.993 -0.470056 2.058 0
M  V30 1127 O 113.341 -1.44663 1.76875 0
M  V30 1128 C 113.551 1.9372 2.90299 0
M  V30 1129 C 114.899 2.21371 3.62326 0
M  V30 1130 O 115.923 1.91451 3.00375 0
M  V30 1131 O 114.782 2.72231 4.7387 0
M  V30 1132 H 111.876 0.380752 0.734137 0
M  V30 1133 H 114.422 1.36283 1.01119 0
M  V30 1134 H 113.194 2.93316 2.59001 0
M  V30 1135 H 112.817 1.58286 3.64735 0
M  V30 1136 N 113.814 -1.1601 1.06675 0
M  V30 1137 C 115.039 -1.91068 0.806706 0
M  V30 1138 C 115.464 -1.77112 -0.633485 0
M  V30 1139 O 114.822 -1.09908 -1.44187 0
M  V30 1140 C 114.87 -3.39655 1.21106 0
M  V30 1141 O 113.974 -4.10893 0.352189 0
M  V30 1142 H 113.315 -0.595125 0.294486 0
M  V30 1143 H 115.845 -1.46955 1.42356 0
M  V30 1144 H 115.855 -3.90434 1.18428 0
M  V30 1145 H 114.53 -3.49132 2.26008 0
M  V30 1146 H 113.107 -3.70285 0.440868 0
M  V30 1147 N 115.292 -0.849877 -1.32721 0
M  V30 1148 C 116.54 -0.450032 -1.97026 0
M  V30 1149 C 116.861 0.996604 -1.67609 0
M  V30 1150 O 116.131 1.6958 -0.980786 0
M  V30 1151 H 114.711 -0.163426 -0.728904 0
M  V30 1152 H 117.373 -1.08526 -1.6189 0
M  V30 1153 H 116.469 -0.591146 -3.0645 0
M  V30 1154 N 116.77 1.45427 -0.607355 0
M  V30 1155 C 117.68 2.34325 0.113463 0
M  V30 1156 C 118.696 1.51226 0.860617 0
M  V30 1157 O 119.872 1.84029 0.818255 0
M  V30 1158 C 116.937 3.28839 1.09844 0
M  V30 1159 C 115.998 4.27844 0.353271 0
M  V30 1160 C 115.231 5.17842 1.29133 0
M  V30 1161 O 115.454 5.11264 2.52913 0
M  V30 1162 O 114.388 5.96713 0.788523 0
M  V30 1163 H 118.214 2.97364 -0.617094 0
M  V30 1164 H 115.799 1.44807 -0.367619 0
M  V30 1165 H 117.681 3.8708 1.66575 0
M  V30 1166 H 116.356 2.68365 1.81003 0
M  V30 1167 H 115.263 3.7322 -0.256494 0
M  V30 1168 H 116.596 4.91173 -0.317822 0
M  V30 1169 N 118.248 0.346503 1.53744 0
M  V30 1170 C 119.178 -0.501193 2.28058 0
M  V30 1171 C 120.159 -1.10014 1.29734 0
M  V30 1172 O 121.344 -1.12097 1.58581 0
M  V30 1173 C 118.474 -1.65078 3.05559 0
M  V30 1174 C 117.428 -1.18003 4.11411 0
M  V30 1175 C 116.754 -2.41837 4.76884 0
M  V30 1176 C 118.054 -0.278394 5.21558 0
M  V30 1177 H 119.748 0.11875 2.99164 0
M  V30 1178 H 117.294 0.0585531 1.43881 0
M  V30 1179 H 119.247 -2.25028 3.56287 0
M  V30 1180 H 117.971 -2.29767 2.32109 0
M  V30 1181 H 116.63 -0.603331 3.61601 0
M  V30 1182 H 116.278 -3.0494 4.00026 0
M  V30 1183 H 115.978 -2.1102 5.48402 0
M  V30 1184 H 117.502 -3.02508 5.30397 0
M  V30 1185 H 118.916 -0.784823 5.67903 0
M  V30 1186 H 117.313 -0.0619707 6.00068 0
M  V30 1187 H 118.383 0.684677 4.80042 0
M  V30 1188 N 119.726 -1.57421 0.075193 0
M  V30 1189 C 120.972 -1.93905 -0.594025 0
M  V30 1190 C 121.305 -0.955701 -1.69056 0
M  V30 1191 O 120.58 0.0145373 -1.94495 0
M  V30 1192 C 120.863 -3.40638 -1.1678 0
M  V30 1193 C 120.716 -4.49733 -0.0776792 0
M  V30 1194 C 122.035 -3.88259 -2.07228 0
M  V30 1195 H 119.154 -0.705105 -0.214466 0
M  V30 1196 H 121.796 -1.8947 0.141854 0
M  V30 1197 H 119.946 -3.44549 -1.79494 0
M  V30 1198 H 121.618 -4.57942 0.555573 0
M  V30 1199 H 119.861 -4.29751 0.591286 0
M  V30 1200 H 120.532 -5.49549 -0.519603 0
M  V30 1201 H 123.008 -3.86376 -1.54445 0
M  V30 1202 H 121.884 -4.91533 -2.44308 0
M  V30 1203 H 122.145 -3.26396 -2.98191 0
M  V30 1204 N 121.204 0.198386 -1.56346 0
M  V30 1205 C 122.167 1.22952 -1.93431 0
M  V30 1206 C 123.167 1.38611 -0.815092 0
M  V30 1207 O 124.357 1.36479 -1.08255 0
M  V30 1208 C 121.489 2.59946 -2.20546 0
M  V30 1209 H 122.682 0.912626 -2.85677 0
M  V30 1210 H 120.235 0.43977 -1.49986 0
M  V30 1211 H 120.97 2.96696 -1.30927 0
M  V30 1212 H 120.755 2.49953 -3.02102 0
M  V30 1213 H 122.245 3.3431 -2.50253 0
M  V30 1214 N 122.682 1.50554 0.465978 0
M  V30 1215 C 123.931 1.61038 1.21448 0
M  V30 1216 C 124.244 0.31865 1.92987 0
M  V30 1217 O 125.45 0.302469 2.6981 0
M  V30 1218 C 123.906 2.84283 2.20706 0
M  V30 1219 C 123.514 4.20352 1.54946 0
M  V30 1220 C 125.258 3.04115 2.96166 0
M  V30 1221 C 123.165 5.34778 2.5252 0
M  V30 1222 H 122.095 0.599718 0.457005 0
M  V30 1223 H 124.746 1.7699 0.484424 0
M  V30 1224 H 123.128 2.61901 2.97025 0
M  V30 1225 H 124.302 4.53008 0.843811 0
M  V30 1226 H 122.617 4.06167 0.917475 0
M  V30 1227 H 125.214 3.86774 3.69202 0
M  V30 1228 H 125.557 2.16045 3.55852 0
M  V30 1229 H 126.09 3.26702 2.26959 0
M  V30 1230 H 122.829 6.25018 1.97566 0
M  V30 1231 H 122.349 5.06534 3.21222 0
M  V30 1232 H 124.028 5.65561 3.14245 0
M  V30 1233 N 124.16 -0.719506 1.40217 0
M  V30 1234 C 125.107 -1.83359 1.40172 0
M  V30 1235 C 126.077 -1.64065 0.259206 0
M  V30 1236 O 127.262 -1.85254 0.456677 0
M  V30 1237 C 124.402 -3.2103 1.26624 0
M  V30 1238 C 123.515 -3.51923 2.50548 0
M  V30 1239 C 122.65 -4.79079 2.29471 0
M  V30 1240 C 121.689 -5.02863 3.48992 0
M  V30 1241 N 120.826 -6.2123 3.27135 0
M  V30 1242 H 125.666 -1.82733 2.35399 0
M  V30 1243 H 123.203 -0.892688 1.16917 0
M  V30 1244 H 125.161 -4.00524 1.16776 0
M  V30 1245 H 123.791 -3.20895 0.350176 0
M  V30 1246 H 122.843 -2.67014 2.70939 0
M  V30 1247 H 124.155 -3.6541 3.39525 0
M  V30 1248 H 123.309 -5.66582 2.16955 0
M  V30 1249 H 122.048 -4.67794 1.37913 0
M  V30 1250 H 121.053 -4.13816 3.6199 0
M  V30 1251 H 122.278 -5.16023 4.41472 0
M  V30 1252 H 120.224 -6.11204 2.38256 0
M  V30 1253 H 120.141 -6.35375 4.09675 0
M  V30 1254 H 121.409 -7.11532 3.18344 0
M  V30 1255 N 125.638 -1.25649 -0.95132 0
M  V30 1256 C 126.585 -1.06323 -2.04851 0
M  V30 1257 C 127.555 0.0286491 -1.66075 0
M  V30 1258 O 128.74 -0.12917 -1.90362 0
M  V30 1259 C 125.88 -0.691529 -3.381 0
M  V30 1260 C 124.993 -1.85861 -3.89974 0
M  V30 1261 C 124.128 -1.43096 -5.11563 0
M  V30 1262 C 123.167 -2.56696 -5.55674 0
M  V30 1263 N 122.304 -2.14684 -6.68472 0
M  V30 1264 H 127.144 -2.00222 -2.20715 0
M  V30 1265 H 124.681 -0.997027 -1.08156 0
M  V30 1266 H 126.639 -0.456963 -4.1469 0
M  V30 1267 H 125.269 0.210474 -3.22113 0
M  V30 1268 H 124.321 -2.20639 -3.09875 0
M  V30 1269 H 125.633 -2.71161 -4.18657 0
M  V30 1270 H 124.787 -1.15624 -5.9558 0
M  V30 1271 H 123.526 -0.548722 -4.84603 0
M  V30 1272 H 122.531 -2.84909 -4.7022 0
M  V30 1273 H 123.756 -3.45503 -5.8464 0
M  V30 1274 H 121.702 -1.28881 -6.43215 0
M  V30 1275 H 121.619 -2.9353 -6.96689 0
M  V30 1276 H 122.887 -1.90397 -7.5589 0
M  V30 1277 N 127.117 1.15442 -1.07289 0
M  V30 1278 C 128.363 1.86489 -0.796846 0
M  V30 1279 C 128.696 1.82078 0.675371 0
M  V30 1280 O 127.971 1.24346 1.4956 0
M  V30 1281 C 128.254 3.35626 -1.30489 0
M  V30 1282 C 128.107 3.48673 -2.84161 0
M  V30 1283 C 129.426 4.30357 -0.920907 0
M  V30 1284 H 126.545 0.677144 -0.290939 0
M  V30 1285 H 129.187 1.35633 -1.33056 0
M  V30 1286 H 127.337 3.79068 -0.850883 0
M  V30 1287 H 129.009 3.14099 -3.37846 0
M  V30 1288 H 127.252 2.90253 -3.22391 0
M  V30 1289 H 127.923 4.53453 -3.14777 0
M  V30 1290 H 130.399 3.94871 -1.3121 0
M  V30 1291 H 129.275 5.33193 -1.30372 0
M  V30 1292 H 129.536 4.4176 0.173226 0
M  V30 1293 N 128.595 0.856903 1.32268 0
M  V30 1294 C 129.525 0.31858 2.31316 0
M  V30 1295 C 130.506 -0.583487 1.59779 0
M  V30 1296 O 131.691 -0.503259 1.87566 0
M  V30 1297 C 128.821 -0.491979 3.43798 0
M  V30 1298 C 127.775 0.315849 4.26833 0
M  V30 1299 C 127.101 -0.619586 5.31098 0
M  V30 1300 C 128.401 1.54282 4.98993 0
M  V30 1301 H 130.095 1.14621 2.76591 0
M  V30 1302 H 127.641 0.552613 1.32974 0
M  V30 1303 H 129.594 -0.879012 4.1213 0
M  V30 1304 H 128.318 -1.35299 2.97257 0
M  V30 1305 H 126.977 0.684664 3.6015 0
M  V30 1306 H 126.625 -1.47751 4.8081 0
M  V30 1307 H 126.325 -0.0830621 5.87541 0
M  V30 1308 H 127.849 -1.00375 6.02293 0
M  V30 1309 H 129.263 1.22796 5.59995 0
M  V30 1310 H 127.66 2.01745 5.65172 0
M  V30 1311 H 128.73 2.30285 4.26728 0
M  V30 1312 N 130.073 -1.45103 0.615059 0
M  V30 1313 C 131.005 -2.28786 -0.13762 0
M  V30 1314 C 132.018 -1.40376 -0.824525 0
M  V30 1315 O 133.207 -1.64681 -0.688662 0
M  V30 1316 C 130.307 -3.16322 -1.21628 0
M  V30 1317 C 129.48 -4.33054 -0.615039 0
M  V30 1318 C 128.539 -5.01743 -1.58556 0
M  V30 1319 O 127.565 -5.58293 -1.10895 0
M  V30 1320 N 128.767 -5.01714 -2.91998 0
M  V30 1321 H 131.532 -2.94025 0.580483 0
M  V30 1322 H 129.093 -1.55373 0.45507 0
M  V30 1323 H 131.085 -3.59139 -1.86552 0
M  V30 1324 H 129.655 -2.52943 -1.83681 0
M  V30 1325 H 128.875 -3.93627 0.21245 0
M  V30 1326 H 130.163 -5.08431 -0.193704 0
M  V30 1327 H 129.561 -4.57075 -3.33316 0
M  V30 1328 H 128.118 -5.48371 -3.52325 0
M  V30 1329 N 131.551 -0.354651 -1.53558 0
M  V30 1330 C 132.828 0.294281 -1.93374 0
M  V30 1331 C 133.208 1.67313 -1.28723 0
M  V30 1332 O 132.556 2.24179 -0.442247 0
M  V30 1333 C 132.766 0.355445 -3.47185 0
M  V30 1334 C 134.114 0.601007 -4.20325 0
M  V30 1335 O 135.138 0.437106 -3.53508 0
M  V30 1336 O 133.997 0.919322 -5.38712 0
M  V30 1337 H 131.091 0.174033 -0.808481 0
M  V30 1338 H 133.637 -0.406638 -1.64756 0
M  V30 1339 H 132.409 -0.611729 -3.86489 0
M  V30 1340 H 132.032 1.1027 -3.82003 0
M  V30 1341 N 133.029 1.57378 -0.0835403 0
M  V30 1342 C 133.976 2.13384 0.879539 0
M  V30 1343 C 134.946 1.04936 1.28754 0
M  V30 1344 O 136.131 1.32662 1.37133 0
M  V30 1345 C 133.271 2.70932 2.13752 0
M  V30 1346 C 132.384 3.93575 1.7811 0
M  V30 1347 C 131.519 4.39326 2.98607 0
M  V30 1348 C 130.558 5.54587 2.59037 0
M  V30 1349 N 129.695 5.95243 3.72331 0
M  V30 1350 H 134.535 2.9537 0.395076 0
M  V30 1351 H 132.072 1.45953 0.183349 0
M  V30 1352 H 134.03 3.02411 2.87408 0
M  V30 1353 H 132.66 1.91693 2.59718 0
M  V30 1354 H 131.712 3.68483 0.94469 0
M  V30 1355 H 133.024 4.77258 1.45005 0
M  V30 1356 H 132.178 4.72528 3.80529 0
M  V30 1357 H 130.917 3.5452 3.34913 0
M  V30 1358 H 129.922 5.21024 1.75539 0
M  V30 1359 H 131.147 6.41133 2.23887 0
M  V30 1360 H 129.093 5.13385 4.08378 0
M  V30 1361 H 129.01 6.73694 3.43034 0
M  V30 1362 H 130.278 6.33072 4.54797 0
M  V30 1363 N 134.507 -0.190092 1.56449 0
M  V30 1364 C 135.923 -0.54113 1.50146 0
M  V30 1365 C 136.123 -1.85603 0.784465 0
M  V30 1366 O 135.179 -2.5024 0.337051 0
M  V30 1367 C 136.492 -0.591241 2.9483 0
M  V30 1368 C 138.04 -0.679732 3.0553 0
M  V30 1369 C 138.515 -0.760908 4.51635 0
M  V30 1370 N 140.006 -0.824302 4.55806 0
M  V30 1371 C 140.741 -0.907365 5.66175 0
M  V30 1372 N 140.237 -0.952422 6.86222 0
M  V30 1373 N 142.03 -0.94494 5.541 0
M  V30 1374 H 134.181 0.67235 2.01478 0
M  V30 1375 H 136.444 0.240127 0.917084 0
M  V30 1376 H 136.15 0.305905 3.50367 0
M  V30 1377 H 136.024 -1.44422 3.48457 0
M  V30 1378 H 138.411 -1.56731 2.50039 0
M  V30 1379 H 138.492 0.199549 2.5502 0
M  V30 1380 H 138.136 0.122336 5.07753 0
M  V30 1381 H 138.066 -1.65606 4.99882 0
M  V30 1382 H 140.557 -0.798526 3.69367 0
M  V30 1383 H 140.87 -1.01645 7.66086 0
M  V30 1384 H 139.215 -0.921014 6.8887 0
M  V30 1385 H 142.406 -0.906612 4.59236 0
M  V30 1386 H 142.579 -1.00622 6.4014 0
M  V30 1387 N 135.985 -1.50799 -0.457987 0
M  V30 1388 C 137.232 -1.62442 -1.20908 0
M  V30 1389 C 137.56 -0.330865 -1.91665 0
M  V30 1390 O 136.815 0.68401 -1.83357 0
M  V30 1391 C 137.114 -2.76358 -2.2663 0
M  V30 1392 C 136.78 -4.16378 -1.73033 0
M  V30 1393 C 135.442 -4.54473 -1.58138 0
M  V30 1394 C 137.794 -5.03836 -1.33413 0
M  V30 1395 C 135.122 -5.77754 -1.02065 0
M  V30 1396 C 137.474 -6.27676 -0.78778 0
M  V30 1397 C 136.138 -6.64562 -0.625561 0
M  V30 1398 H 135.408 -0.594417 -0.442435 0
M  V30 1399 H 138.055 -1.84772 -0.503136 0
M  V30 1400 H 136.36 -2.48167 -3.03184 0
M  V30 1401 H 138.057 -2.82568 -2.84528 0
M  V30 1402 H 134.647 -3.86331 -1.85598 0
M  V30 1403 H 138.831 -4.75026 -1.4375 0
M  V30 1404 H 134.087 -6.04997 -0.882547 0
M  V30 1405 H 138.261 -6.94797 -0.472177 0
M  V30 1406 H 135.888 -7.59965 -0.188926 0
M  V30 1407 N 137.463 0.71206 -1.40597 0
M  V30 1408 C 138.41 1.82613 -1.41142 0
M  V30 1409 C 139.38 1.63925 -0.267903 0
M  V30 1410 O 140.565 1.85009 -0.466495 0
M  V30 1411 C 137.705 3.20354 -1.28324 0
M  V30 1412 C 136.818 3.50589 -2.52411 0
M  V30 1413 C 135.953 4.77855 -2.32009 0
M  V30 1414 C 134.992 5.01005 -3.51654 0
M  V30 1415 N 134.129 6.19487 -3.30425 0
M  V30 1416 H 138.969 1.81482 -2.36365 0
M  V30 1417 H 136.506 0.886475 -1.17388 0
M  V30 1418 H 138.464 3.99899 -1.18899 0
M  V30 1419 H 137.094 3.20705 -0.367189 0
M  V30 1420 H 136.146 2.65573 -2.72351 0
M  V30 1421 H 137.458 3.63604 -3.41458 0
M  V30 1422 H 136.612 5.65424 -2.19956 0
M  V30 1423 H 135.351 4.67056 -1.40392 0
M  V30 1424 H 134.356 4.1189 -3.64179 0
M  V30 1425 H 135.581 5.13674 -4.44202 0
M  V30 1426 H 133.527 6.09932 -2.41494 0
M  V30 1427 H 133.444 6.33194 -4.13039 0
M  V30 1428 H 134.712 7.09834 -3.22113 0
M  V30 1429 N 138.941 1.26152 0.944643 0
M  V30 1430 C 139.889 1.07215 2.06417 0
M  V30 1431 C 140.883 9.2007e-05 1.694 0
M  V30 1432 O 142.089 0.1565 1.79318 0
M  V30 1433 H 138.464 0.329837 0.675805 0
M  V30 1434 H 140.435 2.02099 2.19541 0
M  V30 1435 C 139.184 0.718197 3.40202 0
M  V30 1436 H 138.507 1.53497 3.69159 0
M  V30 1437 H 139.947 0.625459 4.19361 0
M  V30 1438 C 138.406 -0.576435 3.31932 0
M  V30 1439 O 138.936 -1.61574 3.67773 0
M  V30 1440 N 137.142 -0.565781 2.85039 0
M  V30 1441 H 136.689 0.280367 2.5607 0
M  V30 1442 H 136.647 -1.43213 2.79888 0
M  V30 1443 N 140.419 -1.14872 1.07899 0
M  V30 1444 C 141.835 -1.37776 0.805606 0
M  V30 1445 C 142.035 -1.92743 -0.587555 0
M  V30 1446 O 141.091 -2.13678 -1.34528 0
M  V30 1447 C 142.404 -2.34361 1.88402 0
M  V30 1448 C 143.952 -2.48012 1.90942 0
M  V30 1449 C 144.427 -3.47893 2.97883 0
M  V30 1450 N 145.918 -3.55433 2.97021 0
M  V30 1451 C 146.653 -4.32553 3.76412 0
M  V30 1452 N 146.149 -5.12959 4.65666 0
M  V30 1453 N 147.942 -4.27697 3.64735 0
M  V30 1454 H 140.093 -0.775365 1.97742 0
M  V30 1455 H 142.356 -0.403521 0.857831 0
M  V30 1456 H 142.062 -2.01098 2.88535 0
M  V30 1457 H 141.936 -3.34206 1.74889 0
M  V30 1458 H 144.323 -2.8057 0.914579 0
M  V30 1459 H 144.404 -1.48147 2.08534 0
M  V30 1460 H 144.048 -3.16069 3.97571 0
M  V30 1461 H 143.978 -4.47527 2.77538 0
M  V30 1462 H 146.469 -2.98048 2.32326 0
M  V30 1463 H 146.782 -5.69065 5.22862 0
M  V30 1464 H 145.127 -5.12245 4.69712 0
M  V30 1465 H 148.318 -3.63949 2.94378 0
M  V30 1466 H 148.491 -4.8755 4.26848 0
M  V30 1467 N 141.898 -0.863906 -1.31812 0
M  V30 1468 C 142.808 -0.318461 -2.32428 0
M  V30 1469 C 143.824 0.568496 -1.64451 0
M  V30 1470 O 145 0.46666 -1.95919 0
M  V30 1471 C 142.065 0.476355 -3.43412 0
M  V30 1472 C 141.126 -0.43784 -4.27061 0
M  V30 1473 C 140.359 0.319138 -5.32745 0
M  V30 1474 O 140.582 1.54799 -5.48993 0
M  V30 1475 O 139.516 -0.319861 -6.01049 0
M  V30 1476 H 143.342 -1.15229 -2.80991 0
M  V30 1477 H 140.927 -0.627103 -1.35602 0
M  V30 1478 H 142.809 0.927156 -4.11074 0
M  V30 1479 H 141.484 1.28683 -2.97022 0
M  V30 1480 H 140.391 -0.937013 -3.62175 0
M  V30 1481 H 141.724 -1.21375 -4.77 0
M  V30 1482 N 143.376 1.44774 -0.622745 0
M  V30 1483 C 144.306 2.33382 0.0741861 0
M  V30 1484 C 145.287 1.47719 0.843387 0
M  V30 1485 O 146.472 1.76458 0.810934 0
M  V30 1486 C 143.602 3.30663 1.06204 0
M  V30 1487 C 142.556 4.26079 0.405037 0
M  V30 1488 C 141.882 5.13165 1.5022 0
M  V30 1489 C 143.182 5.1781 -0.683414 0
M  V30 1490 H 144.876 2.91905 -0.665713 0
M  V30 1491 H 142.422 1.40363 -0.321587 0
M  V30 1492 H 144.375 3.9153 1.55827 0
M  V30 1493 H 143.099 2.70331 1.83272 0
M  V30 1494 H 141.758 3.66532 -0.0704683 0
M  V30 1495 H 141.406 4.49191 2.26355 0
M  V30 1496 H 141.106 5.77812 1.06803 0
M  V30 1497 H 142.63 5.76902 2.00041 0
M  V30 1498 H 144.044 5.72661 -0.270631 0
M  V30 1499 H 142.441 5.91015 -1.04023 0
M  V30 1500 H 143.511 4.59326 -1.55395 0
M  V30 1501 N 144.854 0.36279 1.53368 0
M  V30 1502 C 145.786 -0.519668 2.23231 0
M  V30 1503 C 146.799 -1.04844 1.24546 0
M  V30 1504 O 147.988 -0.955296 1.50786 0
M  V30 1505 C 145.088 -1.72995 2.9142 0
M  V30 1506 C 144.261 -1.33316 4.16588 0
M  V30 1507 C 143.32 -2.40521 4.68013 0
M  V30 1508 O 142.346 -2.03027 5.3176 0
M  V30 1509 N 143.548 -3.72065 4.45587 0
M  V30 1510 H 146.313 0.078751 2.99597 0
M  V30 1511 H 143.874 0.187833 1.60807 0
M  V30 1512 H 145.866 -2.44184 3.22733 0
M  V30 1513 H 144.436 -2.2353 2.18525 0
M  V30 1514 H 143.656 -0.451236 3.91609 0
M  V30 1515 H 144.944 -1.04432 4.97967 0
M  V30 1516 H 144.342 -4.05304 3.94646 0
M  V30 1517 H 142.899 -4.39366 4.81457 0
M  V30 1518 N 146.332 -1.57332 0.0918853 0
M  V30 1519 C 147.581 -1.93412 -0.572249 0
M  V30 1520 C 147.894 -0.975515 -1.69538 0
M  V30 1521 O 149.1 -1.22991 -2.42045 0
M  V30 1522 C 147.556 -3.43648 -1.0693 0
M  V30 1523 C 147.164 -4.47994 0.0239049 0
M  V30 1524 C 148.908 -3.88695 -1.70635 0
M  V30 1525 C 146.815 -5.89381 -0.488319 0
M  V30 1526 H 145.745 -0.721939 -0.217532 0
M  V30 1527 H 148.396 -1.82735 0.167369 0
M  V30 1528 H 146.778 -3.49466 -1.8625 0
M  V30 1529 H 147.952 -4.53815 0.799277 0
M  V30 1530 H 146.267 -4.12536 0.565946 0
M  V30 1531 H 148.864 -4.91725 -2.10025 0
M  V30 1532 H 149.207 -3.27166 -2.57426 0
M  V30 1533 H 149.74 -3.85564 -0.979023 0
M  V30 1534 H 146.479 -6.54602 0.342906 0
M  V30 1535 H 145.999 -5.87037 -1.23077 0
M  V30 1536 H 147.678 -6.39863 -0.958317 0
M  V30 1537 N 147.81 0.181792 -1.56548 0
M  V30 1538 C 148.743 1.25366 -1.90679 0
M  V30 1539 C 149.721 1.43299 -0.768376 0
M  V30 1540 O 150.905 1.58475 -1.02068 0
M  V30 1541 C 148.032 2.61826 -2.1486 0
M  V30 1542 C 147.078 2.60688 -3.37556 0
M  V30 1543 S 147.911 2.10804 -4.92262 0
M  V30 1544 C 149.067 3.49062 -5.19525 0
M  V30 1545 H 149.3 0.962277 -2.81296 0
M  V30 1546 H 146.833 0.385892 -1.495 0
M  V30 1547 H 148.791 3.40371 -2.29473 0
M  V30 1548 H 147.452 2.88169 -1.24969 0
M  V30 1549 H 146.645 3.61058 -3.51643 0
M  V30 1550 H 146.247 1.90232 -3.22006 0
M  V30 1551 H 148.539 4.45003 -5.10861 0
M  V30 1552 H 149.482 3.39859 -6.2121 0
M  V30 1553 H 149.89 3.4459 -4.47122 0
M  V30 1554 N 149.288 1.51039 0.449983 0
M  V30 1555 C 150.704 1.38934 0.785462 0
M  V30 1556 C 150.904 0.461817 1.96136 0
M  V30 1557 O 149.96 -0.0877389 2.52348 0
M  V30 1558 C 151.273 2.80724 1.0777 0
M  V30 1559 C 152.821 2.89787 1.1829 0
M  V30 1560 C 153.296 4.32457 1.50815 0
M  V30 1561 N 154.787 4.35505 1.57764 0
M  V30 1562 C 155.522 5.42914 1.84477 0
M  V30 1563 N 155.018 6.60502 2.09068 0
M  V30 1564 N 156.811 5.3038 1.86155 0
M  V30 1565 H 148.962 2.09904 -0.324647 0
M  V30 1566 H 151.225 0.944378 -0.0827957 0
M  V30 1567 H 150.931 3.50531 0.286498 0
M  V30 1568 H 150.805 3.19273 2.00859 0
M  V30 1569 H 153.192 2.20186 1.96474 0
M  V30 1570 H 153.273 2.54752 0.231314 0
M  V30 1571 H 152.917 5.02603 0.731622 0
M  V30 1572 H 152.847 4.64995 2.47158 0
M  V30 1573 H 155.338 3.50724 1.40715 0
M  V30 1574 H 155.651 7.38158 2.28785 0
M  V30 1575 H 153.996 6.63639 2.06416 0
M  V30 1576 H 157.187 4.37505 1.66454 0
M  V30 1577 H 157.36 6.1417 2.06637 0
M  V30 1578 N 150.766 -0.704594 1.40972 0
M  V30 1579 C 151.713 -1.81862 1.42109 0
M  V30 1580 C 152.683 -1.63781 0.276593 0
M  V30 1581 O 153.868 -1.84759 0.4763 0
M  V30 1582 C 151.008 -3.19669 1.30022 0
M  V30 1583 C 150.121 -3.49246 2.54267 0
M  V30 1584 C 149.256 -4.76618 2.3454 0
M  V30 1585 C 148.295 -4.99133 3.54306 0
M  V30 1586 N 147.432 -6.17726 3.33706 0
M  V30 1587 H 152.272 -1.80226 2.37324 0
M  V30 1588 H 149.809 -0.880238 1.17857 0
M  V30 1589 H 151.767 -3.99263 1.21018 0
M  V30 1590 H 150.397 -3.20506 0.384192 0
M  V30 1591 H 149.449 -2.64125 2.73756 0
M  V30 1592 H 150.761 -3.61788 3.43381 0
M  V30 1593 H 149.915 -5.64249 2.22952 0
M  V30 1594 H 148.654 -4.66305 1.42867 0
M  V30 1595 H 147.659 -4.09953 3.66359 0
M  V30 1596 H 148.884 -5.11311 4.4692 0
M  V30 1597 H 146.83 -6.08642 2.44725 0
M  V30 1598 H 146.747 -6.30995 4.16391 0
M  V30 1599 H 148.015 -7.08115 3.25873 0
M  V30 1600 N 152.244 -1.26651 -0.937939 0
M  V30 1601 C 153.174 -1.10993 -2.05433 0
M  V30 1602 C 154.155 -0.0142161 -1.70094 0
M  V30 1603 O 155.34 -0.186837 -1.93299 0
M  V30 1604 C 152.47 -0.745561 -3.39203 0
M  V30 1605 C 151.424 -1.79337 -3.88616 0
M  V30 1606 C 150.75 -1.28324 -5.19073 0
M  V30 1607 C 152.05 -3.19553 -4.13138 0
M  V30 1608 H 153.744 -2.0438 -2.1879 0
M  V30 1609 H 151.29 -0.984041 -1.05131 0
M  V30 1610 H 153.243 -0.622888 -4.16771 0
M  V30 1611 H 151.967 0.22401 -3.25831 0
M  V30 1612 H 150.626 -1.90477 -3.13231 0
M  V30 1613 H 150.274 -0.303414 -5.02084 0
M  V30 1614 H 149.974 -1.98369 -5.53103 0
M  V30 1615 H 151.498 -1.1733 -5.99221 0
M  V30 1616 H 152.912 -3.11471 -4.81309 0
M  V30 1617 H 151.309 -3.87218 -4.58457 0
M  V30 1618 H 152.379 -3.65368 -3.18801 0
M  V30 1619 N 153.722 1.14298 -1.08507 0
M  V30 1620 C 154.999 1.81544 -0.728088 0
M  V30 1621 C 155.379 1.95838 0.78808 0
M  V30 1622 O 154.727 1.51904 1.70697 0
M  V30 1623 C 154.937 3.17169 -1.45619 0
M  V30 1624 C 156.285 3.9265 -1.61591 0
M  V30 1625 O 157.309 3.26762 -1.41793 0
M  V30 1626 O 156.168 5.10807 -1.94263 0
M  V30 1627 H 153.262 0.78491 -0.260471 0
M  V30 1628 H 155.808 1.21307 -1.18671 0
M  V30 1629 H 154.58 3.01934 -2.489 0
M  V30 1630 H 154.203 3.851 -0.989124 0
M  V30 1631 N 155.201 0.870884 1.31352 0
M  V30 1632 C 156.151 0.298889 2.26032 0
M  V30 1633 C 157.135 -0.564595 1.50669 0
M  V30 1634 O 158.327 -0.411323 1.72154 0
M  V30 1635 C 155.456 -0.497842 3.39671 0
M  V30 1636 C 154.542 0.378937 4.22404 0
M  V30 1637 N 154.933 1.47284 4.83881 0
M  V30 1638 C 153.231 0.171535 4.4567 0
M  V30 1639 C 153.932 2.01359 5.45738 0
M  V30 1640 N 152.908 1.31047 5.27568 0
M  V30 1641 H 156.71 1.13494 2.71102 0
M  V30 1642 H 154.224 0.718745 1.45629 0
M  V30 1643 H 156.221 -0.924155 4.06528 0
M  V30 1644 H 154.881 -1.33149 2.96144 0
M  V30 1645 H 155.892 1.85575 4.8351 0
M  V30 1646 H 152.569 -0.626091 4.12779 0
M  V30 1647 H 153.959 2.93143 6.0458 0
M  V30 1648 N 156.679 -1.44442 0.630414 0
M  V30 1649 C 157.919 -2.03934 0.137919 0
M  V30 1650 C 158.283 -1.48509 -1.21692 0
M  V30 1651 O 159.484 -1.99499 -1.80149 0
M  V30 1652 C 157.755 -3.57187 0.123373 0
M  V30 1653 S 159.314 -4.37741 -0.304604 0
M  V30 1654 H 156.132 -0.708401 0.0607353 0
M  V30 1655 H 158.734 -1.76835 0.833643 0
M  V30 1656 H 157.438 -3.95032 1.11256 0
M  V30 1657 H 156.969 -3.88895 -0.59362 0
M  V30 1658 H 158.984 -4.71403 -1.54897 0
M  V30 1659 N 158.157 -0.370918 -1.53173 0
M  V30 1660 C 159.105 0.488101 -2.27421 0
M  V30 1661 C 160.099 1.07884 -1.30604 0
M  V30 1662 O 161.305 1.02143 -1.48212 0
M  V30 1663 H 157.68 0.176134 -0.731082 0
M  V30 1664 H 159.651 -0.159815 -2.97972 0
M  V30 1665 C 158.4 1.61306 -3.08019 0
M  V30 1666 H 157.723 1.1678 -3.82364 0
M  V30 1667 H 159.163 2.18872 -3.63141 0
M  V30 1668 C 157.622 2.55848 -2.19188 0
M  V30 1669 O 158.152 3.58799 -1.80626 0
M  V30 1670 N 156.358 2.2516 -1.83715 0
M  V30 1671 H 155.905 1.41476 -2.15273 0
M  V30 1672 H 155.863 2.8867 -1.24567 0
M  V30 1673 N 159.635 1.57281 -0.100228 0
M  V30 1674 C 160.884 1.93713 0.561984 0
M  V30 1675 C 161.197 0.984492 1.69018 0
M  V30 1676 O 162.403 1.24273 2.41389 0
M  V30 1677 C 160.859 3.4421 1.05106 0
M  V30 1678 C 160.467 4.47975 -0.0476628 0
M  V30 1679 C 162.211 3.89595 1.68571 0
M  V30 1680 C 160.118 5.89631 0.457055 0
M  V30 1681 H 159.048 0.723082 0.2137 0
M  V30 1682 H 161.699 1.82644 -0.177057 0
M  V30 1683 H 160.081 3.50449 1.84395 0
M  V30 1684 H 161.255 4.53385 -0.823333 0
M  V30 1685 H 159.57 4.1223 -0.587816 0
M  V30 1686 H 162.167 4.92832 2.07414 0
M  V30 1687 H 162.51 3.28526 2.55688 0
M  V30 1688 H 163.043 3.86078 0.958562 0
M  V30 1689 H 159.782 6.54411 -0.377616 0
M  V30 1690 H 159.302 5.87681 1.19962 0
M  V30 1691 H 160.981 6.40363 0.92437 0
M  V30 1692 N 161.113 -0.173488 1.56642 0
M  V30 1693 C 162.359 -0.891784 1.8214 0
M  V30 1694 C 162.692 -1.8199 0.677736 0
M  V30 1695 O 161.967 -1.91842 -0.320446 0
M  V30 1696 C 162.25 -1.68933 3.18015 0
M  V30 1697 C 162.103 -0.784487 4.42906 0
M  V30 1698 C 163.422 -2.65748 3.50808 0
M  V30 1699 H 160.541 -0.322761 0.662567 0
M  V30 1700 H 163.183 -0.158095 1.89341 0
M  V30 1701 H 161.333 -2.31482 3.12007 0
M  V30 1702 H 163.005 -0.172046 4.60979 0
M  V30 1703 H 161.248 -0.0924117 4.33702 0
M  V30 1704 H 161.919 -1.37799 5.34524 0
M  V30 1705 H 164.395 -2.13327 3.57255 0
M  V30 1706 H 163.271 -3.18619 4.4696 0
M  V30 1707 H 163.532 -3.45842 2.75401 0
M  V30 1708 N 162.591 -1.51276 -0.441967 0
M  V30 1709 C 164.007 -1.39349 -0.778083 0
M  V30 1710 C 164.207 -0.472212 -1.95889 0
M  V30 1711 O 163.263 0.0743551 -2.5239 0
M  V30 1712 C 164.576 -2.81292 -1.0628 0
M  V30 1713 C 166.124 -2.9041 -1.16751 0
M  V30 1714 C 166.599 -4.33251 -1.48519 0
M  V30 1715 N 168.09 -4.36336 -1.55453 0
M  V30 1716 C 168.825 -5.43885 -1.81596 0
M  V30 1717 N 168.321 -6.61601 -2.05562 0
M  V30 1718 N 170.114 -5.3136 -1.8334 0
M  V30 1719 H 162.265 -2.09729 0.335774 0
M  V30 1720 H 164.528 -0.943925 0.0878028 0
M  V30 1721 H 164.234 -3.50678 -0.267905 0
M  V30 1722 H 164.108 -3.20334 -1.99163 0
M  V30 1723 H 166.495 -2.21225 -1.95304 0
M  V30 1724 H 166.576 -2.54871 -0.217801 0
M  V30 1725 H 166.22 -5.02984 -0.704958 0
M  V30 1726 H 166.15 -4.66299 -2.44689 0
M  V30 1727 H 168.641 -3.51466 -1.38853 0
M  V30 1728 H 168.954 -7.39361 -2.24867 0
M  V30 1729 H 167.299 -6.64725 -2.02894 0
M  V30 1730 H 170.49 -4.38382 -1.64132 0
M  V30 1731 H 170.663 -6.15258 -2.03377 0
M  V30 1732 N 164.069 0.697108 -1.41344 0
M  V30 1733 C 164.999 1.82353 -1.45841 0
M  V30 1734 C 165.98 1.67115 -0.317247 0
M  V30 1735 O 167.165 1.86871 -0.528474 0
M  V30 1736 C 164.295 3.20476 -1.33838 0
M  V30 1737 C 163.249 3.50415 -2.4575 0
M  V30 1738 C 162.575 4.87878 -2.18813 0
M  V30 1739 C 163.875 3.49546 -3.88091 0
M  V30 1740 H 165.569 1.78846 -2.40113 0
M  V30 1741 H 163.115 0.859028 -1.15571 0
M  V30 1742 H 165.068 3.98988 -1.35596 0
M  V30 1743 H 163.792 3.24604 -0.360498 0
M  V30 1744 H 162.451 2.74253 -2.43271 0
M  V30 1745 H 162.099 4.8863 -1.19371 0
M  V30 1746 H 161.799 5.08875 -2.93803 0
M  V30 1747 H 163.323 5.68702 -2.22284 0
M  V30 1748 H 164.737 4.18066 -3.92293 0
M  V30 1749 H 163.134 3.82075 -4.62751 0
M  V30 1750 H 164.204 2.48552 -4.16353 0
M  V30 1751 N 165.547 1.27147 0.931209 0
M  V30 1752 C 166.963 1.04475 1.20653 0
M  V30 1753 C 167.163 -0.223885 2.00252 0
M  V30 1754 O 166.219 -0.930332 2.34736 0
M  V30 1755 C 167.532 2.28209 1.95809 0
M  V30 1756 C 169.08 2.33211 2.08762 0
M  V30 1757 C 169.555 3.56665 2.87323 0
M  V30 1758 N 171.046 3.57201 2.94892 0
M  V30 1759 C 171.781 4.49395 3.56134 0
M  V30 1760 N 171.277 5.51889 4.18796 0
M  V30 1761 N 173.07 4.37026 3.53504 0
M  V30 1762 H 165.221 2.08612 0.399333 0
M  V30 1763 H 167.484 0.917312 0.239253 0
M  V30 1764 H 167.19 3.20538 1.44736 0
M  V30 1765 H 167.064 2.33247 2.96438 0
M  V30 1766 H 169.451 1.41391 2.59023 0
M  V30 1767 H 169.532 2.32178 1.07364 0
M  V30 1768 H 169.176 4.4882 2.37746 0
M  V30 1769 H 169.106 3.54948 3.88998 0
M  V30 1770 H 171.597 2.83074 2.50354 0
M  V30 1771 H 171.91 6.18409 4.63454 0
M  V30 1772 H 170.255 5.55735 4.17353 0
M  V30 1773 H 173.446 3.56166 3.03749 0
M  V30 1774 H 173.619 5.09067 4.00942 0
M  V30 1775 N 167.025 -1.13721 1.09112 0
M  V30 1776 C 168.255 -1.88499 0.845671 0
M  V30 1777 C 168.663 -1.79218 -0.606432 0
M  V30 1778 O 168.006 -1.1544 -1.42896 0
M  V30 1779 C 168.068 -3.38954 1.19793 0
M  V30 1780 C 167.732 -3.72018 2.65428 0
M  V30 1781 C 168.729 -3.7153 3.63677 0
M  V30 1782 C 166.414 -4.01775 3.01467 0
M  V30 1783 C 168.408 -4.00336 4.95994 0
M  V30 1784 C 166.095 -4.30243 4.33975 0
M  V30 1785 C 167.093 -4.29508 5.31048 0
M  V30 1786 O 166.781 -4.5728 6.61173 0
M  V30 1787 H 166.513 -0.603702 0.304171 0
M  V30 1788 H 169.067 -1.44903 1.45576 0
M  V30 1789 H 167.297 -3.83039 0.530871 0
M  V30 1790 H 168.986 -3.95052 0.932146 0
M  V30 1791 H 169.752 -3.4862 3.37179 0
M  V30 1792 H 165.631 -4.01496 2.26544 0
M  V30 1793 H 169.175 -3.99678 5.71755 0
M  V30 1794 H 165.072 -4.52625 4.60219 0
M  V30 1795 H 165.84 -4.74964 6.66597 0
M  V30 1796 N 168.503 -0.877838 -1.30888 0
M  V30 1797 C 169.75 -0.492696 -1.96415 0
M  V30 1798 C 170.078 0.956671 -1.69346 0
M  V30 1799 O 169.333 1.68993 -0.986913 0
M  V30 1800 C 169.632 -0.705748 -3.50363 0
M  V30 1801 C 169.298 -2.1291 -3.97467 0
M  V30 1802 C 167.96 -2.51834 -4.1004 0
M  V30 1803 C 170.312 -3.05702 -4.22132 0
M  V30 1804 C 167.64 -3.82775 -4.44635 0
M  V30 1805 C 169.992 -4.36166 -4.58194 0
M  V30 1806 C 168.656 -4.74993 -4.68975 0
M  V30 1807 H 167.926 -0.18029 -0.718733 0
M  V30 1808 H 170.573 -1.11233 -1.55883 0
M  V30 1809 H 168.878 -0.00303058 -3.918 0
M  V30 1810 H 170.575 -0.387456 -3.99124 0
M  V30 1811 H 167.165 -1.81694 -3.88182 0
M  V30 1812 H 171.349 -2.76853 -4.11906 0
M  V30 1813 H 166.605 -4.12609 -4.51181 0
M  V30 1814 H 170.779 -5.08111 -4.76231 0
M  V30 1815 H 168.406 -5.76495 -4.95537 0
M  V30 1816 N 169.982 1.44106 -0.638065 0
M  V30 1817 C 171.229 2.01978 -0.14533 0
M  V30 1818 C 171.557 1.50234 1.23532 0
M  V30 1819 O 170.812 0.679548 1.83523 0
M  V30 1820 C 171.111 3.5729 -0.0887327 0
M  V30 1821 C 170.777 4.28317 -1.40909 0
M  V30 1822 C 169.439 4.47437 -1.77069 0
M  V30 1823 C 171.791 4.6867 -2.28031 0
M  V30 1824 C 169.119 5.04171 -3.00047 0
M  V30 1825 C 171.471 5.26766 -3.50286 0
M  V30 1826 C 170.135 5.44104 -3.86661 0
M  V30 1827 H 169.405 0.739089 -0.0531801 0
M  V30 1828 H 172.052 1.72781 -0.825761 0
M  V30 1829 H 170.357 3.8594 0.675095 0
M  V30 1830 H 172.054 3.99807 0.309145 0
M  V30 1831 H 168.644 4.1377 -1.1177 0
M  V30 1832 H 172.828 4.53604 -2.01388 0
M  V30 1833 H 168.084 5.15782 -3.28298 0
M  V30 1834 H 172.258 5.56983 -4.18023 0
M  V30 1835 H 169.885 5.87832 -4.82034 0
M  V30 1836 N 171.46 0.379036 1.52974 0
M  V30 1837 C 172.69 -0.20649 2.05566 0
M  V30 1838 C 173.098 -1.41906 1.25137 0
M  V30 1839 O 172.441 -1.81421 0.288464 0
M  V30 1840 C 172.503 -0.651086 3.53555 0
M  V30 1841 C 172.167 0.446626 4.54812 0
M  V30 1842 C 173.164 1.30079 5.03364 0
M  V30 1843 C 170.849 0.610719 4.98573 0
M  V30 1844 C 172.843 2.30426 5.94292 0
M  V30 1845 C 170.53 1.61754 5.89304 0
M  V30 1846 C 171.528 2.46274 6.37054 0
M  V30 1847 O 171.216 3.45237 7.25994 0
M  V30 1848 H 170.948 -0.0372381 0.674974 0
M  V30 1849 H 173.502 0.539718 1.98182 0
M  V30 1850 H 171.732 -1.44911 3.58522 0
M  V30 1851 H 173.421 -1.16112 3.88938 0
M  V30 1852 H 174.187 1.18527 4.70294 0
M  V30 1853 H 170.066 -0.0374044 4.60985 0
M  V30 1854 H 173.61 2.96432 6.31485 0
M  V30 1855 H 169.507 1.73348 6.21788 0
M  V30 1856 H 170.275 3.41124 7.44027 0
M  V30 1857 N 172.938 -1.57226 0.108567 0
M  V30 1858 C 174.163 -1.99604 -0.563303 0
M  V30 1859 C 174.588 -0.987563 -1.6009 0
M  V30 1860 O 173.946 0.0421687 -1.81251 0
M  V30 1861 C 173.994 -3.40902 -1.17552 0
M  V30 1862 O 173.098 -3.42896 -2.2912 0
M  V30 1863 H 172.439 -0.648704 -0.1417 0
M  V30 1864 H 174.969 -2.03679 0.193961 0
M  V30 1865 H 174.979 -3.78886 -1.51357 0
M  V30 1866 H 173.654 -4.1382 -0.415445 0
M  V30 1867 H 172.231 -3.1672 -1.96832 0
M  V30 1868 N 174.416 0.165178 -1.56732 0
M  V30 1869 C 175.641 0.900253 -1.86843 0
M  V30 1870 C 176.066 1.74766 -0.695596 0
M  V30 1871 O 175.424 1.77786 0.35522 0
M  V30 1872 C 175.472 1.74777 -3.15413 0
M  V30 1873 O 174.576 2.85007 -2.98068 0
M  V30 1874 H 173.917 0.251832 -0.614391 0
M  V30 1875 H 176.447 0.161468 -2.03962 0
M  V30 1876 H 176.457 2.14646 -3.46974 0
M  V30 1877 H 175.132 1.12537 -4.00385 0
M  V30 1878 H 173.709 2.48676 -2.77875 0
M  V30 1879 N 175.894 1.51508 0.433938 0
M  V30 1880 C 177.142 1.6402 1.18075 0
M  V30 1881 C 177.463 0.360328 1.91642 0
M  V30 1882 O 176.733 -0.623945 1.85698 0
M  V30 1883 H 175.313 0.6045 0.43885 0
M  V30 1884 H 177.975 1.88452 0.497178 0
M  V30 1885 H 177.071 2.46949 1.90847 0
M  V30 1886 N 177.372 -0.689602 1.41712 0
M  V30 1887 C 178.282 -1.83314 1.46401 0
M  V30 1888 C 179.298 -1.7036 0.35405 0
M  V30 1889 O 180.474 -1.92171 0.602692 0
M  V30 1890 C 177.539 -3.19344 1.34982 0
M  V30 1891 C 176.6 -3.44363 2.56344 0
M  V30 1892 C 175.833 -4.73904 2.45461 0
M  V30 1893 O 176.056 -5.508 1.48241 0
M  V30 1894 O 174.99 -4.99839 3.35328 0
M  V30 1895 H 178.816 -1.82314 2.42889 0
M  V30 1896 H 176.401 -0.843438 1.23315 0
M  V30 1897 H 178.283 -4.00547 1.3092 0
M  V30 1898 H 176.958 -3.21014 0.41612 0
M  V30 1899 H 175.865 -2.63067 2.65982 0
M  V30 1900 H 177.198 -3.47512 3.48563 0
M  V30 1901 N 178.85 -1.27639 -0.924453 0
M  V30 1902 C 179.797 -1.10644 -2.0255 0
M  V30 1903 C 180.767 -0.00658438 -1.66099 0
M  V30 1904 O 181.952 -0.16952 -1.90045 0
M  V30 1905 C 179.092 -0.76309 -3.36557 0
M  V30 1906 C 178.205 -1.94091 -3.85944 0
M  V30 1907 C 177.34 -1.53914 -5.08413 0
M  V30 1908 C 176.379 -2.68425 -5.50104 0
M  V30 1909 N 175.516 -2.28815 -6.63768 0
M  V30 1910 H 180.356 -2.04858 -2.16419 0
M  V30 1911 H 177.893 -1.01974 -1.06017 0
M  V30 1912 H 179.851 -0.544822 -4.13627 0
M  V30 1913 H 178.481 0.142102 -3.22487 0
M  V30 1914 H 177.533 -2.27162 -3.05125 0
M  V30 1915 H 178.845 -2.7998 -4.12811 0
M  V30 1916 H 177.999 -1.28231 -5.92994 0
M  V30 1917 H 176.738 -0.651391 -4.8333 0
M  V30 1918 H 175.743 -2.94819 -4.64071 0
M  V30 1919 H 176.968 -3.57826 -5.7718 0
M  V30 1920 H 174.914 -1.42495 -6.40337 0
M  V30 1921 H 174.831 -3.08242 -6.90306 0
M  V30 1922 H 176.099 -2.06387 -7.51681 0
M  V30 1923 N 180.328 1.1314 -1.09713 0
M  V30 1924 C 181.275 2.18642 -0.739196 0
M  V30 1925 C 182.245 1.63706 0.280978 0
M  V30 1926 O 183.43 1.90111 0.161946 0
M  V30 1927 C 180.57 3.44685 -0.169102 0
M  V30 1928 C 179.683 4.13711 -1.24367 0
M  V30 1929 C 178.818 5.27379 -0.636019 0
M  V30 1930 C 177.857 5.88259 -1.69169 0
M  V30 1931 N 176.994 6.93352 -1.10485 0
M  V30 1932 H 181.834 2.48607 -1.64312 0
M  V30 1933 H 179.371 1.22066 -0.820875 0
M  V30 1934 H 181.329 4.16815 0.179256 0
M  V30 1935 H 179.959 3.15161 0.698079 0
M  V30 1936 H 179.011 3.39835 -1.70927 0
M  V30 1937 H 180.323 4.55037 -2.04311 0
M  V30 1938 H 179.477 6.06238 -0.236677 0
M  V30 1939 H 178.216 4.8731 0.194928 0
M  V30 1940 H 177.221 5.08092 -2.10055 0
M  V30 1941 H 178.446 6.30399 -2.52536 0
M  V30 1942 H 176.392 6.55335 -0.295234 0
M  V30 1943 H 176.309 7.33236 -1.84121 0
M  V30 1944 H 177.577 7.76057 -0.73181 0
M  V30 1945 N 181.806 0.884767 1.30421 0
M  V30 1946 C 183.083 0.423185 1.90967 0
M  V30 1947 C 183.463 -1.09605 1.80416 0
M  V30 1948 O 182.811 -1.93126 1.22125 0
M  V30 1949 C 183.021 0.921056 3.36627 0
M  V30 1950 C 184.369 0.955903 4.137 0
M  V30 1951 O 185.393 0.867706 3.4547 0
M  V30 1952 O 184.252 1.08614 5.35598 0
M  V30 1953 H 181.346 0.129369 0.816819 0
M  V30 1954 H 183.892 0.973653 1.3899 0
M  V30 1955 H 182.664 1.96489 3.3839 0
M  V30 1956 H 182.287 0.349741 3.96059 0
M  V30 1957 N 183.284 -1.43765 0.645699 0
M  V30 1958 C 184.194 -2.34544 -0.0512957 0
M  V30 1959 C 185.21 -1.53455 -0.82022 0
M  V30 1960 O 186.386 -1.86133 -0.769176 0
M  V30 1961 C 183.451 -3.31636 -1.01087 0
M  V30 1962 C 182.512 -4.2863 -0.239712 0
M  V30 1963 C 181.745 -5.21084 -1.15358 0
M  V30 1964 O 181.968 -5.1779 -2.39269 0
M  V30 1965 O 180.902 -5.98593 -0.630038 0
M  V30 1966 H 184.728 -2.95624 0.695718 0
M  V30 1967 H 182.313 -1.43781 0.405882 0
M  V30 1968 H 184.195 -3.9136 -1.56254 0
M  V30 1969 H 182.87 -2.73069 -1.73824 0
M  V30 1970 H 181.777 -3.72408 0.355356 0
M  V30 1971 H 183.11 -4.90157 0.447936 0
M  V30 1972 N 184.763 -0.387143 -1.52771 0
M  V30 1973 C 186.009 0.196025 -2.0185 0
M  V30 1974 C 186.342 1.46641 -1.27319 0
M  V30 1975 O 185.617 1.90889 -0.373032 0
M  V30 1976 C 185.9 0.466136 -3.5707 0
M  V30 1977 C 185.753 -0.819385 -4.42274 0
M  V30 1978 C 187.072 1.25768 -4.21747 0
M  V30 1979 H 184.191 0.0697708 -0.73369 0
M  V30 1980 H 186.833 -0.516286 -1.82851 0
M  V30 1981 H 184.983 1.07293 -3.7339 0
M  V30 1982 H 186.655 -1.4563 -4.37709 0
M  V30 1983 H 184.898 -1.43517 -4.09372 0
M  V30 1984 H 185.569 -0.585065 -5.48891 0
M  V30 1985 H 188.045 0.744167 -4.09391 0
M  V30 1986 H 186.921 1.41541 -5.30337 0
M  V30 1987 H 187.182 2.27228 -3.79236 0
M  V30 1988 N 186.241 1.57166 -0.116904 0
M  V30 1989 C 187.471 1.99184 0.548586 0
M  V30 1990 C 187.879 0.995436 1.60897 0
M  V30 1991 O 187.222 -0.0201293 1.83689 0
M  V30 1992 C 187.284 3.37611 1.23526 0
M  V30 1993 C 186.948 4.55857 0.323077 0
M  V30 1994 C 187.945 5.18056 -0.437476 0
M  V30 1995 C 185.63 5.01751 0.234761 0
M  V30 1996 C 187.624 6.24536 -1.2741 0
M  V30 1997 C 185.311 6.08093 -0.605496 0
M  V30 1998 C 186.309 6.69352 -1.35856 0
M  V30 1999 O 185.997 7.7364 -2.18487 0
M  V30 2000 H 185.729 0.659148 0.149999 0
M  V30 2001 H 188.283 2.0443 -0.199428 0
M  V30 2002 H 186.513 3.29113 2.0303 0
M  V30 2003 H 188.202 3.63932 1.79745 0
M  V30 2004 H 188.968 4.83516 -0.379105 0
M  V30 2005 H 184.847 4.53817 0.810601 0
M  V30 2006 H 188.391 6.72281 -1.86237 0
M  V30 2007 H 184.288 6.42063 -0.665268 0
M  V30 2008 H 185.056 7.90727 -2.11406 0
M  V30 2009 N 187.719 -0.156864 1.56817 0
M  V30 2010 C 188.649 -1.19589 2.00551 0
M  V30 2011 C 189.63 -1.4536 0.883426 0
M  V30 2012 O 190.815 -1.56449 1.15054 0
M  V30 2013 C 187.945 -2.53143 2.37773 0
M  V30 2014 C 186.899 -2.41913 3.53075 0
M  V30 2015 C 186.225 -3.80088 3.76081 0
M  V30 2016 C 187.525 -1.91157 4.86062 0
M  V30 2017 H 189.219 -0.832293 2.87599 0
M  V30 2018 H 186.765 -0.398918 1.38364 0
M  V30 2019 H 188.718 -3.26047 2.66967 0
M  V30 2020 H 187.442 -2.91319 1.4765 0
M  V30 2021 H 186.101 -1.71462 3.24031 0
M  V30 2022 H 185.749 -4.15683 2.83225 0
M  V30 2023 H 185.449 -3.73439 4.53671 0
M  V30 2024 H 186.973 -4.54556 4.0769 0
M  V30 2025 H 188.387 -2.53846 5.14038 0
M  V30 2026 H 186.784 -1.95422 5.67389 0
M  V30 2027 H 187.854 -0.866673 4.77092 0
M  V30 2028 N 189.197 -1.51736 -0.425897 0
M  V30 2029 C 190.145 -1.74464 -1.53834 0
M  V30 2030 C 191.139 -0.611241 -1.57988 0
M  V30 2031 O 192.345 -0.792899 -1.61596 0
M  V30 2032 H 188.72 -0.551437 -0.511293 0
M  V30 2033 H 190.691 -2.67694 -1.31843 0
M  V30 2034 C 189.44 -1.8972 -2.91379 0
M  V30 2035 H 188.763 -2.76344 -2.88919 0
M  V30 2036 H 190.203 -2.09629 -3.68553 0
M  V30 2037 C 188.662 -0.65992 -3.30374 0
M  V30 2038 O 189.192 0.180083 -4.01296 0
M  V30 2039 N 187.398 -0.500677 -2.86254 0
M  V30 2040 H 186.945 -1.18532 -2.28709 0
M  V30 2041 H 186.903 0.325903 -3.12706 0
M  V30 2042 N 190.675 0.682077 -1.42076 0
M  V30 2043 C 191.605 1.80796 -1.47767 0
M  V30 2044 C 192.586 1.6677 -0.334954 0
M  V30 2045 O 193.771 1.863 -0.548264 0
M  V30 2046 C 190.901 3.19038 -1.37229 0
M  V30 2047 C 189.855 3.47789 -2.49453 0
M  V30 2048 C 189.181 4.8553 -2.23975 0
M  V30 2049 C 190.481 3.45411 -3.91776 0
M  V30 2050 H 192.175 1.7629 -2.41997 0
M  V30 2051 H 189.721 0.846721 -1.16476 0
M  V30 2052 H 191.674 3.97528 -1.39821 0
M  V30 2053 H 190.398 3.24204 -0.394907 0
M  V30 2054 H 189.057 2.71657 -2.46166 0
M  V30 2055 H 188.705 4.87337 -1.24547 0
M  V30 2056 H 188.405 5.0573 -2.99184 0
M  V30 2057 H 189.929 5.66312 -2.28304 0
M  V30 2058 H 191.343 4.13882 -3.96705 0
M  V30 2059 H 189.74 3.77145 -4.66778 0
M  V30 2060 H 190.81 2.44122 -4.18966 0
M  V30 2061 N 192.153 1.28127 0.917671 0
M  V30 2062 C 193.399 1.15223 1.66888 0
M  V30 2063 C 193.732 -0.299293 1.9188 0
M  V30 2064 O 193.007 -1.21805 1.51637 0
M  V30 2065 C 193.29 1.94706 3.02922 0
M  V30 2066 C 193.143 3.47898 2.85109 0
M  V30 2067 C 194.462 1.75939 4.03402 0
M  V30 2068 H 191.581 0.419946 0.605652 0
M  V30 2069 H 194.223 1.57398 1.06423 0
M  V30 2070 H 192.373 1.58864 3.54534 0
M  V30 2071 H 194.045 3.93624 2.40537 0
M  V30 2072 H 192.288 3.7373 2.20246 0
M  V30 2073 H 192.959 3.98765 3.81694 0
M  V30 2074 H 195.435 2.07209 3.60837 0
M  V30 2075 H 194.311 2.33931 4.96556 0
M  V30 2076 H 194.572 0.709877 4.36364 0
M  V30 2077 N 193.631 -1.12557 1.10312 0
M  V30 2078 C 194.561 -2.20341 0.772798 0
M  V30 2079 C 195.542 -1.68198 -0.25365 0
M  V30 2080 O 196.727 -1.93831 -0.119699 0
M  V30 2081 C 193.857 -3.46709 0.202443 0
M  V30 2082 C 192.811 -4.11996 1.15943 0
M  V30 2083 C 192.137 -5.328 0.450345 0
M  V30 2084 C 193.437 -4.5828 2.50552 0
M  V30 2085 H 195.131 -2.48229 1.674 0
M  V30 2086 H 192.677 -1.19308 0.806326 0
M  V30 2087 H 194.63 -4.2138 -0.0407752 0
M  V30 2088 H 193.354 -3.18245 -0.734001 0
M  V30 2089 H 192.013 -3.39305 1.38808 0
M  V30 2090 H 191.661 -5.00602 -0.490531 0
M  V30 2091 H 191.361 -5.7743 1.08851 0
M  V30 2092 H 192.885 -6.10219 0.215642 0
M  V30 2093 H 194.299 -5.2433 2.31843 0
M  V30 2094 H 192.696 -5.13683 3.10242 0
M  V30 2095 H 193.766 -3.72329 3.10643 0
M  V30 2096 N 195.109 -0.891671 -1.2995 0
M  V30 2097 C 196.386 -0.433307 -1.9074 0
M  V30 2098 C 196.766 1.08646 -1.80995 0
M  V30 2099 O 196.114 1.92476 -1.23147 0
M  V30 2100 C 196.324 -0.938895 -3.36134 0
M  V30 2101 C 197.672 -0.977829 -4.13187 0
M  V30 2102 O 198.696 -0.886015 -3.45005 0
M  V30 2103 O 197.555 -1.11453 -5.35015 0
M  V30 2104 H 194.649 -0.133699 -0.816121 0
M  V30 2105 H 197.195 -0.981011 -1.38471 0
M  V30 2106 H 195.967 -1.98281 -3.37343 0
M  V30 2107 H 195.59 -0.37074 -3.95868 0
M  V30 2108 N 196.587 1.43421 -0.653314 0
M  V30 2109 C 197.817 2.05864 -0.174238 0
M  V30 2110 C 198.225 1.49052 1.16534 0
M  V30 2111 O 197.568 0.616481 1.73047 0
M  V30 2112 C 197.63 3.59499 -0.00875873 0
M  V30 2113 C 197.294 4.38893 -1.27364 0
M  V30 2114 C 198.291 4.70947 -2.20239 0
M  V30 2115 C 195.976 4.789 -1.51525 0
M  V30 2116 C 197.97 5.41916 -3.35568 0
M  V30 2117 C 195.657 5.49614 -2.67147 0
M  V30 2118 C 196.655 5.81044 -3.58994 0
M  V30 2119 O 196.343 6.50313 -4.72597 0
M  V30 2120 H 196.075 0.670345 -0.0872549 0
M  V30 2121 H 198.629 1.84913 -0.894226 0
M  V30 2122 H 196.859 3.79025 0.7666 0
M  V30 2123 H 198.548 4.0364 0.427687 0
M  V30 2124 H 199.314 4.40558 -2.02815 0
M  V30 2125 H 195.193 4.53843 -0.809158 0
M  V30 2126 H 198.737 5.66365 -4.07279 0
M  V30 2127 H 194.634 5.79419 -2.84505 0
M  V30 2128 H 195.402 6.68795 -4.71864 0
M  V30 2129 N 198.065 0.39524 1.52563 0
M  V30 2130 C 199.311 -0.185318 2.01952 0
M  V30 2131 C 199.644 -1.45964 1.28095 0
M  V30 2132 O 198.919 -1.90689 0.38315 0
M  V30 2133 C 199.202 -0.447193 3.57312 0
M  V30 2134 C 199.055 0.842828 4.41833 0
M  V30 2135 C 200.374 -1.23529 4.22408 0
M  V30 2136 H 197.493 -0.0658788 0.73405 0
M  V30 2137 H 200.135 0.525975 1.82575 0
M  V30 2138 H 198.285 -1.05312 3.73954 0
M  V30 2139 H 199.957 1.4795 4.36931 0
M  V30 2140 H 198.2 1.45686 4.08605 0
M  V30 2141 H 198.871 0.614165 5.48573 0
M  V30 2142 H 201.347 -0.722445 4.0978 0
M  V30 2143 H 200.223 -1.38727 5.3108 0
M  V30 2144 H 200.484 -2.25213 3.80436 0
M  V30 2145 N 199.544 -1.57102 0.125237 0
M  V30 2146 C 200.955 -1.82384 -0.399142 0
M  V30 2147 C 201.306 -1.04276 -1.66195 0
M  V30 2148 O 200.431 -0.281269 -2.14564 0
M  V30 2149 C 201.026 -3.30821 -0.730932 0
M  V30 2150 C 199.585 -3.56762 -1.19992 0
M  V30 2151 C 198.732 -2.7649 -0.211792 0
M  V30 2152 H 201.683 -1.54786 0.350277 0
M  V30 2153 H 201.704 -3.4579 -1.58775 0
M  V30 2154 H 201.216 -3.87643 0.188345 0
M  V30 2155 H 199.317 -3.05305 -2.13588 0
M  V30 2156 H 199.43 -4.65317 -1.14093 0
M  V30 2157 H 197.794 -2.4489 -0.700085 0
M  V30 2158 H 198.577 -3.36073 0.700691 0
M  V30 2159 N 201.022 0.148545 -1.56898 0
M  V30 2160 C 201.932 1.20293 -2.01412 0
M  V30 2161 C 202.948 1.47107 -0.929273 0
M  V30 2162 O 204.124 1.58807 -1.23863 0
M  V30 2163 C 201.189 2.51682 -2.38447 0
M  V30 2164 C 200.25 2.32529 -3.60872 0
M  V30 2165 C 199.483 3.57653 -3.96132 0
M  V30 2166 O 199.706 4.63771 -3.32073 0
M  V30 2167 O 198.64 3.50408 -4.89385 0
M  V30 2168 H 202.466 0.855025 -2.91416 0
M  V30 2169 H 200.051 0.357151 -1.45068 0
M  V30 2170 H 201.933 3.29147 -2.63135 0
M  V30 2171 H 200.608 2.86006 -1.51599 0
M  V30 2172 H 199.515 1.53019 -3.41373 0
M  V30 2173 H 200.848 2.03121 -4.48333 0
M  V30 2174 N 202.5 1.5196 0.417844 0
M  V30 2175 C 203.728 1.69426 1.18753 0
M  V30 2176 C 204.143 0.399955 1.84515 0
M  V30 2177 O 203.5 -0.623288 1.71527 0
M  V30 2178 C 203.551 2.82375 2.25714 0
M  V30 2179 O 203.272 4.06793 1.62638 0
M  V30 2180 C 204.773 3.11277 3.15628 0
M  V30 2181 H 201.993 0.568031 0.357186 0
M  V30 2182 H 204.537 1.98475 0.49273 0
M  V30 2183 H 202.692 2.5587 2.90877 0
M  V30 2184 H 203.106 4.69667 2.3348 0
M  V30 2185 H 204.58 3.93843 3.86771 0
M  V30 2186 H 205.057 2.24473 3.77503 0
M  V30 2187 H 205.663 3.39515 2.56144 0
M  V30 2188 N 203.978 -0.674533 1.42435 0
M  V30 2189 C 205.224 -1.43671 1.43131 0
M  V30 2190 C 205.557 -1.94142 0.0476021 0
M  V30 2191 O 204.832 -1.70924 -0.928188 0
M  V30 2192 C 205.115 -2.63355 2.45594 0
M  V30 2193 C 204.968 -2.18514 3.93156 0
M  V30 2194 C 206.287 -3.65571 2.45043 0
M  V30 2195 H 203.406 -0.521077 0.521198 0
M  V30 2196 H 206.048 -0.766551 1.7385 0
M  V30 2197 H 204.198 -3.2053 2.19528 0
M  V30 2198 H 205.87 -1.66504 4.30202 0
M  V30 2199 H 204.113 -1.50086 4.07009 0
M  V30 2200 H 204.784 -3.04484 4.60428 0
M  V30 2201 H 207.26 -3.18113 2.68223 0
M  V30 2202 H 206.136 -4.46893 3.18713 0
M  V30 2203 H 206.397 -4.16716 1.47649 0
M  V30 2204 N 205.456 -1.28612 -0.910864 0
M  V30 2205 C 206.686 -1.1862 -1.69153 0
M  V30 2206 C 207.094 0.257324 -1.87442 0
M  V30 2207 O 206.437 1.18543 -1.40332 0
M  V30 2208 C 206.499 -1.81606 -3.10257 0
M  V30 2209 C 206.163 -3.30864 -3.15243 0
M  V30 2210 C 207.16 -4.27256 -2.96223 0
M  V30 2211 C 204.845 -3.71871 -3.37664 0
M  V30 2212 C 206.839 -5.62631 -2.99541 0
M  V30 2213 C 204.526 -5.07371 -3.40614 0
M  V30 2214 C 205.524 -6.02561 -3.21573 0
M  V30 2215 O 205.212 -7.35589 -3.2429 0
M  V30 2216 H 204.944 -0.412633 -0.535453 0
M  V30 2217 H 207.498 -1.70306 -1.14827 0
M  V30 2218 H 205.728 -1.24418 -3.66138 0
M  V30 2219 H 207.417 -1.66092 -3.70362 0
M  V30 2220 H 208.183 -3.9691 -2.78725 0
M  V30 2221 H 204.062 -2.98241 -3.5153 0
M  V30 2222 H 207.606 -6.36907 -2.84597 0
M  V30 2223 H 203.503 -5.37366 -3.57642 0
M  V30 2224 H 204.271 -7.44252 -3.40633 0
M  V30 2225 N 206.934 1.1197 -1.10907 0
M  V30 2226 C 208.35 1.35591 -0.841852 0
M  V30 2227 C 208.55 1.94233 0.536246 0
M  V30 2228 O 207.606 2.1717 1.28816 0
M  V30 2229 C 208.919 2.29284 -1.94549 0
M  V30 2230 C 210.467 2.42862 -1.97451 0
M  V30 2231 C 210.942 3.39873 -3.07002 0
M  V30 2232 N 212.433 3.47433 -3.06341 0
M  V30 2233 C 213.168 4.22421 -3.87748 0
M  V30 2234 N 212.664 5.00432 -4.79103 0
M  V30 2235 N 214.457 4.17876 -3.75946 0
M  V30 2236 H 206.608 0.722664 -1.99728 0
M  V30 2237 H 208.871 0.380635 -0.868229 0
M  V30 2238 H 208.577 1.93378 -2.93765 0
M  V30 2239 H 208.451 3.29452 -1.83688 0
M  V30 2240 H 210.838 2.78046 -0.988645 0
M  V30 2241 H 210.919 1.42566 -2.12388 0
M  V30 2242 H 210.563 3.05417 -4.05811 0
M  V30 2243 H 210.493 4.40011 -2.89306 0
M  V30 2244 H 212.984 2.91784 -2.40147 0
M  V30 2245 H 213.297 5.55002 -5.37766 0
M  V30 2246 H 211.642 4.99612 -4.83128 0
M  V30 2247 H 214.833 3.56016 -3.03924 0
M  V30 2248 H 215.006 4.76061 -4.39624 0
M  V30 2249 N 208.412 0.89855 1.29475 0
M  V30 2250 C 209.658 0.524658 1.95896 0
M  V30 2251 C 209.991 -0.926468 1.70676 0
M  V30 2252 O 209.266 -1.65665 1.01908 0
M  V30 2253 C 209.549 0.81633 3.50725 0
M  V30 2254 C 209.402 2.31907 3.85408 0
M  V30 2255 C 210.721 0.302038 4.39062 0
M  V30 2256 H 207.84 0.19209 0.711527 0
M  V30 2257 H 210.482 1.12502 1.53112 0
M  V30 2258 H 208.632 0.305369 3.87298 0
M  V30 2259 H 210.304 2.89949 3.58786 0
M  V30 2260 H 208.547 2.78027 3.32992 0
M  V30 2261 H 209.218 2.47373 4.93468 0
M  V30 2262 H 211.694 0.739551 4.09475 0
M  V30 2263 H 210.57 0.535331 5.46283 0
M  V30 2264 H 210.831 -0.797216 4.34853 0
M  V30 2265 N 209.89 -1.43072 0.660911 0
M  V30 2266 C 210.853 -2.29194 -0.0166406 0
M  V30 2267 C 211.853 -1.42609 -0.742912 0
M  V30 2268 O 213.043 -1.64155 -0.583004 0
M  V30 2269 C 210.175 -3.24831 -1.0343 0
M  V30 2270 H 211.368 -2.90596 0.741208 0
M  V30 2271 H 208.921 -1.5048 0.422532 0
M  V30 2272 H 209.656 -2.68339 -1.82111 0
M  V30 2273 H 209.441 -3.88676 -0.517082 0
M  V30 2274 H 210.931 -3.89451 -1.50723 0
M  V30 2275 N 211.368 -0.403325 -1.52352 0
M  V30 2276 C 212.784 -0.0539281 -1.59509 0
M  V30 2277 C 212.984 1.43307 -1.41652 0
M  V30 2278 O 212.04 2.19924 -1.24056 0
M  V30 2279 C 213.353 -0.543654 -2.95745 0
M  V30 2280 C 214.901 -0.501125 -3.08962 0
M  V30 2281 C 215.376 -0.967267 -4.47669 0
M  V30 2282 N 216.867 -0.923849 -4.53893 0
M  V30 2283 C 217.602 -1.25578 -5.5948 0
M  V30 2284 N 217.098 -1.65889 -6.72646 0
M  V30 2285 N 218.891 -1.17613 -5.49658 0
M  V30 2286 H 211.042 -1.37123 -1.62206 0
M  V30 2287 H 213.305 -0.56294 -0.76276 0
M  V30 2288 H 213.011 -1.58275 -3.14073 0
M  V30 2289 H 212.885 0.0498042 -3.77167 0
M  V30 2290 H 215.272 0.528909 -2.90321 0
M  V30 2291 H 215.353 -1.13056 -2.2946 0
M  V30 2292 H 214.997 -1.9956 -4.67053 0
M  V30 2293 H 214.927 -0.314698 -5.25659 0
M  V30 2294 H 217.418 -0.627403 -3.72655 0
M  V30 2295 H 217.731 -1.89543 -7.49195 0
M  V30 2296 H 216.076 -1.69787 -6.73942 0
M  V30 2297 H 219.267 -0.860115 -4.6013 0
M  V30 2298 H 219.44 -1.43812 -6.3184 0
M  V30 2299 N 212.846 1.57033 -0.133567 0
M  V30 2300 C 213.796 2.12641 0.822671 0
M  V30 2301 C 214.78 1.05081 1.21847 0
M  V30 2302 O 215.972 1.31287 1.18713 0
M  V30 2303 C 213.101 2.74094 2.06706 0
M  V30 2304 C 212.187 3.88757 1.69497 0
M  V30 2305 N 212.578 4.95194 1.03037 0
M  V30 2306 C 210.876 3.99213 1.98859 0
M  V30 2307 C 211.577 5.75414 0.852873 0
M  V30 2308 N 210.553 5.25726 1.3825 0
M  V30 2309 H 214.355 2.92308 0.305537 0
M  V30 2310 H 211.869 1.62256 0.0684276 0
M  V30 2311 H 213.866 3.12285 2.76195 0
M  V30 2312 H 212.526 1.95896 2.5895 0
M  V30 2313 H 213.537 5.13247 0.692669 0
M  V30 2314 H 210.214 3.32075 2.53047 0
M  V30 2315 H 211.604 6.71089 0.330091 0
M  V30 2316 N 214.325 -0.140222 1.56975 0
M  V30 2317 C 215.555 -0.865181 1.87612 0
M  V30 2318 C 215.963 -1.74942 0.72055 0
M  V30 2319 O 215.306 -1.80917 -0.318561 0
M  V30 2320 C 215.368 -1.76782 3.13031 0
M  V30 2321 C 215.032 -1.06005 4.44536 0
M  V30 2322 C 216.029 -0.410768 5.18275 0
M  V30 2323 C 213.714 -1.04754 4.91255 0
M  V30 2324 C 215.708 0.241572 6.36942 0
M  V30 2325 C 213.395 -0.391394 6.09845 0
M  V30 2326 C 214.393 0.252029 6.82535 0
M  V30 2327 O 214.081 0.897757 7.98871 0
M  V30 2328 H 213.813 -0.255188 0.625983 0
M  V30 2329 H 216.367 -0.135653 2.04952 0
M  V30 2330 H 214.597 -2.53846 2.91718 0
M  V30 2331 H 216.286 -2.36533 3.29859 0
M  V30 2332 H 217.052 -0.412195 4.83245 0
M  V30 2333 H 212.931 -1.53777 4.34596 0
M  V30 2334 H 216.475 0.744375 6.93617 0
M  V30 2335 H 212.372 -0.387656 6.44335 0
M  V30 2336 H 213.14 0.800102 8.1458 0
M  V30 2337 N 215.803 -1.52179 -0.40978 0
M  V30 2338 C 217.028 -1.70347 -1.18308 0
M  V30 2339 C 217.453 -0.411887 -1.83535 0
M  V30 2340 O 216.811 0.630587 -1.6998 0
M  V30 2341 C 216.859 -2.83977 -2.22238 0
M  V30 2342 O 215.963 -2.495 -3.28365 0
M  V30 2343 H 215.304 -0.567103 -0.345384 0
M  V30 2344 H 217.834 -1.98879 -0.480445 0
M  V30 2345 H 217.844 -3.0887 -2.66577 0
M  V30 2346 H 216.519 -3.77685 -1.74146 0
M  V30 2347 H 215.096 -2.35277 -2.89308 0
M  V30 2348 N 217.281 0.66697 -1.42791 0
M  V30 2349 C 218.697 0.981027 -1.25889 0
M  V30 2350 C 218.897 2.00793 -0.168695 0
M  V30 2351 O 217.953 2.48321 0.45747 0
M  V30 2352 C 219.266 1.47838 -2.61848 0
M  V30 2353 C 220.814 1.59575 -2.69267 0
M  V30 2354 C 221.289 2.12704 -4.05612 0
M  V30 2355 N 222.78 2.20026 -4.07606 0
M  V30 2356 C 223.515 2.62227 -5.09926 0
M  V30 2357 N 223.011 3.03824 -6.22626 0
M  V30 2358 N 224.804 2.62045 -4.97281 0
M  V30 2359 H 216.955 -0.0127891 -2.12396 0
M  V30 2360 H 219.218 0.0568258 -0.946295 0
M  V30 2361 H 218.924 0.798299 -3.4252 0
M  V30 2362 H 218.798 2.45579 -2.86305 0
M  V30 2363 H 221.185 2.26687 -1.88936 0
M  V30 2364 H 221.266 0.60302 -2.48591 0
M  V30 2365 H 220.91 1.46198 -4.86404 0
M  V30 2366 H 220.84 3.12782 -4.23645 0
M  V30 2367 H 223.331 1.90708 -3.2625 0
M  V30 2368 H 223.644 3.34734 -6.96544 0
M  V30 2369 H 221.989 3.01662 -6.26119 0
M  V30 2370 H 225.18 2.28916 -4.08308 0
M  V30 2371 H 225.353 2.94613 -5.77154 0
M  V30 2372 N 218.759 1.29093 0.90403 0
M  V30 2373 C 219.722 1.1386 1.98919 0
M  V30 2374 C 220.722 0.0753457 1.60623 0
M  V30 2375 O 221.912 0.321931 1.71199 0
M  V30 2376 C 219.044 0.740198 3.32767 0
M  V30 2377 H 220.237 2.10246 2.13861 0
M  V30 2378 H 217.79 1.12218 1.08797 0
M  V30 2379 H 218.525 -0.223997 3.23525 0
M  V30 2380 H 218.31 1.50838 3.61926 0
M  V30 2381 H 219.8 0.656546 4.12407 0
M  V30 2382 N 220.237 -1.11381 1.11499 0
M  V30 2383 C 221.184 -2.17439 0.773887 0
M  V30 2384 C 222.154 -1.64132 -0.254899 0
M  V30 2385 O 223.339 -1.90345 -0.13168 0
M  V30 2386 C 220.479 -3.44373 0.223917 0
M  V30 2387 C 219.592 -4.1168 1.30934 0
M  V30 2388 C 218.727 -5.263 0.71984 0
M  V30 2389 C 217.766 -5.85493 1.78507 0
M  V30 2390 N 216.903 -6.91507 1.21502 0
M  V30 2391 H 221.743 -2.45962 1.68246 0
M  V30 2392 H 219.28 -1.20744 0.840191 0
M  V30 2393 H 221.238 -4.17047 -0.112921 0
M  V30 2394 H 219.868 -3.16232 -0.647851 0
M  V30 2395 H 218.92 -3.37073 1.76312 0
M  V30 2396 H 220.232 -4.51729 2.11524 0
M  V30 2397 H 219.386 -6.05785 0.333094 0
M  V30 2398 H 218.125 -4.87559 -0.117377 0
M  V30 2399 H 217.13 -5.04686 2.18111 0
M  V30 2400 H 218.355 -6.26301 2.62533 0
M  V30 2401 H 216.301 -6.54783 0.399455 0
M  V30 2402 H 216.218 -7.30214 1.95763 0
M  V30 2403 H 217.486 -7.74795 0.855181 0
M  V30 2404 N 221.715 -0.905404 -1.28997 0
M  V30 2405 C 222.647 -0.344748 -2.26592 0
M  V30 2406 C 223.66 0.512135 -1.54535 0
M  V30 2407 O 224.849 0.328368 -1.75454 0
M  V30 2408 C 221.949 0.526587 -3.34784 0
M  V30 2409 C 221.122 -0.305871 -4.36329 0
M  V30 2410 C 220.181 0.499209 -5.23827 0
M  V30 2411 O 219.207 -0.0853004 -5.69136 0
M  V30 2412 N 220.409 1.80408 -5.51755 0
M  V30 2413 H 223.174 -1.18359 -2.75338 0
M  V30 2414 H 220.735 -0.770481 -1.42391 0
M  V30 2415 H 222.727 1.07171 -3.90252 0
M  V30 2416 H 221.297 1.26613 -2.85811 0
M  V30 2417 H 220.517 -1.0324 -3.80441 0
M  V30 2418 H 221.805 -0.875773 -5.01206 0
M  V30 2419 H 221.203 2.3016 -5.16762 0
M  V30 2420 H 219.76 2.29621 -6.10014 0
M  V30 2421 N 223.193 1.4272 -0.668489 0
M  V30 2422 C 224.421 2.05966 -0.196348 0
M  V30 2423 C 224.836 1.50191 1.14403 0
M  V30 2424 O 224.193 0.639208 1.7094 0
M  V30 2425 C 224.244 3.61314 -0.115815 0
M  V30 2426 O 223.965 4.1502 -1.40322 0
M  V30 2427 C 225.466 4.41663 0.380579 0
M  V30 2428 H 222.686 0.663954 -0.0969829 0
M  V30 2429 H 225.23 1.82966 -0.913446 0
M  V30 2430 H 223.385 3.83448 0.551931 0
M  V30 2431 H 223.799 5.08832 -1.27243 0
M  V30 2432 H 225.273 5.5065 0.385848 0
M  V30 2433 H 225.75 4.15792 1.41471 0
M  V30 2434 H 226.356 4.24534 -0.255209 0
M  V30 2435 N 224.671 0.411399 1.52136 0
M  V30 2436 C 225.601 -0.404015 2.29978 0
M  V30 2437 C 226.582 -1.04412 1.34284 0
M  V30 2438 O 227.767 -1.0527 1.63192 0
M  V30 2439 C 224.897 -1.5197 3.12286 0
M  V30 2440 C 223.851 -1.00448 4.16046 0
M  V30 2441 C 223.177 -2.21393 4.86712 0
M  V30 2442 C 224.477 -0.0569336 5.22269 0
M  V30 2443 H 226.171 0.245529 2.98392 0
M  V30 2444 H 223.717 0.119525 1.43503 0
M  V30 2445 H 225.67 -2.09715 3.6551 0
M  V30 2446 H 224.394 -2.19716 2.41646 0
M  V30 2447 H 223.053 -0.449421 3.63835 0
M  V30 2448 H 222.701 -2.87699 4.12599 0
M  V30 2449 H 222.401 -1.87571 5.56858 0
M  V30 2450 H 223.925 -2.7974 5.4275 0
M  V30 2451 H 225.339 -0.54325 5.7072 0
M  V30 2452 H 223.736 0.192594 5.99791 0
M  V30 2453 H 224.806 0.887663 4.76706 0
M  V30 2454 N 226.149 -1.5696 0.141893 0
M  V30 2455 C 227.56 -1.82797 -0.379776 0
M  V30 2456 C 227.911 -1.06033 -1.6508 0
M  V30 2457 O 227.036 -0.304011 -2.14254 0
M  V30 2458 C 227.631 -3.31578 -0.695802 0
M  V30 2459 C 226.19 -3.58014 -1.16201 0
M  V30 2460 C 225.337 -2.76699 -0.182455 0
M  V30 2461 H 228.288 -1.54406 0.366675 0
M  V30 2462 H 228.309 -3.47454 -1.55099 0
M  V30 2463 H 227.821 -3.87421 0.229449 0
M  V30 2464 H 225.922 -3.07553 -2.10338 0
M  V30 2465 H 226.035 -4.66501 -1.09151 0
M  V30 2466 H 224.399 -2.45618 -0.674072 0
M  V30 2467 H 225.182 -3.35311 0.736297 0
M  V30 2468 N 227.627 0.131896 -1.57047 0
M  V30 2469 C 228.873 0.843179 -1.84441 0
M  V30 2470 C 229.206 1.80129 -0.725749 0
M  V30 2471 O 228.481 1.92624 0.269469 0
M  V30 2472 C 228.764 1.60442 -3.22382 0
M  V30 2473 C 228.617 0.666782 -4.4483 0
M  V30 2474 C 229.936 2.56354 -3.5773 0
M  V30 2475 H 227.055 0.305081 -0.670891 0
M  V30 2476 H 229.697 0.107839 -1.89694 0
M  V30 2477 H 227.847 2.23128 -3.18035 0
M  V30 2478 H 229.519 0.0497646 -4.61273 0
M  V30 2479 H 227.762 -0.022609 -4.33794 0
M  V30 2480 H 228.433 1.23579 -5.37989 0
M  V30 2481 H 230.909 2.0378 -3.62785 0
M  V30 2482 H 229.785 3.06657 -4.5525 0
M  V30 2483 H 230.046 3.38419 -2.84473 0
M  V30 2484 N 229.106 1.52395 0.401703 0
M  V30 2485 C 230.355 1.66044 1.14509 0
M  V30 2486 C 230.668 0.400216 1.91462 0
M  V30 2487 O 231.874 0.416632 2.68284 0
M  V30 2488 C 230.33 2.93388 2.0845 0
M  V30 2489 C 229.938 4.26545 1.36978 0
M  V30 2490 C 231.682 3.16402 2.83001 0
M  V30 2491 C 229.589 5.45007 2.29611 0
M  V30 2492 H 228.519 0.618562 0.431158 0
M  V30 2493 H 231.17 1.78886 0.40892 0
M  V30 2494 H 229.552 2.74263 2.8565 0
M  V30 2495 H 230.726 4.56179 0.650916 0
M  V30 2496 H 229.041 4.09692 0.74438 0
M  V30 2497 H 231.638 4.02085 3.52465 0
M  V30 2498 H 231.981 2.30943 3.46368 0
M  V30 2499 H 232.514 3.36034 2.12898 0
M  V30 2500 H 229.253 6.32835 1.70879 0
M  V30 2501 H 228.773 5.19702 2.9945 0
M  V30 2502 H 230.452 5.7838 2.89974 0
M  V30 2503 N 230.584 -0.659388 1.43143 0
M  V30 2504 C 231.814 -1.44513 1.47646 0
M  V30 2505 C 232.222 -1.88981 0.0910095 0
M  V30 2506 O 231.565 -1.59702 -0.907789 0
M  V30 2507 C 231.627 -2.71663 2.35456 0
M  V30 2508 C 231.291 -2.49175 3.83094 0
M  V30 2509 C 232.288 -2.1279 4.74359 0
M  V30 2510 C 229.973 -2.63691 4.27519 0
M  V30 2511 C 231.967 -1.9121 6.08044 0
M  V30 2512 C 229.654 -2.41726 5.61259 0
M  V30 2513 C 230.652 -2.0554 6.51339 0
M  V30 2514 O 230.34 -1.838 7.82606 0
M  V30 2515 H 230.072 -0.45064 0.503884 0
M  V30 2516 H 232.626 -0.816248 1.88485 0
M  V30 2517 H 230.856 -3.37089 1.89493 0
M  V30 2518 H 232.545 -3.33595 2.31235 0
M  V30 2519 H 233.311 -2.01157 4.41317 0
M  V30 2520 H 229.19 -2.90832 3.57684 0
M  V30 2521 H 232.734 -1.62889 6.78316 0
M  V30 2522 H 228.631 -2.52959 5.9387 0
M  V30 2523 H 229.399 -1.98275 7.94122 0
M  V30 2524 N 232.062 -1.29571 -0.897171 0
M  V30 2525 C 233.308 -1.17863 -1.65034 0
M  V30 2526 C 233.641 0.268729 -1.92332 0
M  V30 2527 O 232.916 1.19378 -1.53555 0
M  V30 2528 C 233.199 -1.995 -2.99786 0
M  V30 2529 C 233.052 -3.5239 -2.79538 0
M  V30 2530 C 234.371 -1.82335 -4.00552 0
M  V30 2531 H 231.49 -0.429528 -0.598895 0
M  V30 2532 H 234.132 -1.59072 -1.03905 0
M  V30 2533 H 232.282 -1.64485 -3.51962 0
M  V30 2534 H 233.954 -3.97401 -2.34244 0
M  V30 2535 H 232.197 -3.77187 -2.14273 0
M  V30 2536 H 232.868 -4.04787 -3.75302 0
M  V30 2537 H 235.344 -2.12924 -3.57495 0
M  V30 2538 H 234.22 -2.41801 -4.92771 0
M  V30 2539 H 234.481 -0.779209 -4.35179 0
M  V30 2540 N 233.54 1.10788 -1.12088 0
M  V30 2541 C 234.487 2.17025 -0.785407 0
M  V30 2542 C 235.457 1.64265 0.246191 0
M  V30 2543 O 236.642 1.90412 0.121584 0
M  V30 2544 C 233.782 3.44249 -0.242177 0
M  V30 2545 C 232.895 4.1098 -1.33115 0
M  V30 2546 C 232.03 5.25911 -0.747741 0
M  V30 2547 C 231.069 5.84538 -1.81609 0
M  V30 2548 N 230.206 6.90853 -1.25167 0
M  V30 2549 H 235.046 2.45066 -1.69548 0
M  V30 2550 H 232.583 1.20297 -0.846582 0
M  V30 2551 H 234.541 4.17101 0.0908026 0
M  V30 2552 H 233.171 3.16571 0.631072 0
M  V30 2553 H 232.223 3.36133 -1.78097 0
M  V30 2554 H 233.535 4.50601 -2.13917 0
M  V30 2555 H 232.689 6.056 -0.365216 0
M  V30 2556 H 231.428 4.87614 0.0915188 0
M  V30 2557 H 230.433 5.03522 -2.20785 0
M  V30 2558 H 231.658 6.249 -2.6585 0
M  V30 2559 H 229.604 6.54562 -0.434174 0
M  V30 2560 H 229.521 7.29166 -1.99633 0
M  V30 2561 H 230.789 7.7433 -0.896259 0
M  V30 2562 N 235.018 0.912232 1.28515 0
M  V30 2563 C 235.948 0.416403 2.29757 0
M  V30 2564 C 236.929 -0.515194 1.6211 0
M  V30 2565 O 238.114 -0.423253 1.89532 0
M  V30 2566 C 235.244 -0.34572 3.45575 0
M  V30 2567 C 234.198 0.496599 4.25109 0
M  V30 2568 C 233.524 -0.393771 5.33248 0
M  V30 2569 C 234.824 1.75307 4.92001 0
M  V30 2570 H 236.518 1.26249 2.7148 0
M  V30 2571 H 234.064 0.608515 1.30511 0
M  V30 2572 H 236.017 -0.703422 4.15488 0
M  V30 2573 H 234.741 -1.2257 3.02728 0
M  V30 2574 H 233.4 0.8368 3.56922 0
M  V30 2575 H 233.048 -1.27225 4.86644 0
M  V30 2576 H 232.748 0.166209 5.87365 0
M  V30 2577 H 234.272 -0.747389 6.06009 0
M  V30 2578 H 235.686 1.46437 5.54283 0
M  V30 2579 H 234.083 2.25534 5.56106 0
M  V30 2580 H 235.153 2.48176 4.16577 0
M  V30 2581 N 236.496 -1.42363 0.676048 0
M  V30 2582 C 237.726 -2.05561 0.206967 0
M  V30 2583 C 238.134 -1.50887 -1.14148 0
M  V30 2584 O 237.477 -0.643933 -1.72044 0
M  V30 2585 C 237.539 -3.5944 0.0659508 0
M  V30 2586 C 237.203 -4.36812 1.34331 0
M  V30 2587 C 238.2 -4.67383 2.27704 0
M  V30 2588 C 235.885 -4.76429 1.59125 0
M  V30 2589 C 237.879 -5.36509 3.44147 0
M  V30 2590 C 235.566 -5.45294 2.75857 0
M  V30 2591 C 236.564 -5.75259 3.68193 0
M  V30 2592 O 236.252 -6.42712 4.82883 0
M  V30 2593 H 235.984 -0.668872 0.0979084 0
M  V30 2594 H 238.538 -1.83467 0.923531 0
M  V30 2595 H 236.768 -3.80197 -0.706204 0
M  V30 2596 H 238.457 -4.0427 -0.363418 0
M  V30 2597 H 239.223 -4.37275 2.09799 0
M  V30 2598 H 235.102 -4.52498 0.881258 0
M  V30 2599 H 238.646 -5.59814 4.16238 0
M  V30 2600 H 234.543 -5.7482 2.93688 0
M  V30 2601 H 235.311 -6.61204 4.82444 0
M  V30 2602 N 237.974 -0.419461 -1.51915 0
M  V30 2603 C 238.907 0.445751 -2.23804 0
M  V30 2604 C 239.885 1.03951 -1.25031 0
M  V30 2605 O 241.069 1.08541 -1.54114 0
M  V30 2606 C 238.196 1.61964 -2.97465 0
M  V30 2607 C 237.242 1.14828 -4.10751 0
M  V30 2608 S 238.075 0.104938 -5.35397 0
M  V30 2609 C 239.231 1.28391 -6.1259 0
M  V30 2610 H 239.464 -0.164627 -2.96844 0
M  V30 2611 H 236.997 -0.203833 -1.53049 0
M  V30 2612 H 238.955 2.29271 -3.40507 0
M  V30 2613 H 237.616 2.20139 -2.24048 0
M  V30 2614 H 236.809 2.02561 -4.61503 0
M  V30 2615 H 236.411 0.553712 -3.69878 0
M  V30 2616 H 238.703 2.20563 -6.40592 0
M  V30 2617 H 239.646 0.816724 -7.03374 0
M  V30 2618 H 240.054 1.51439 -5.43807 0
M  V30 2619 N 239.452 1.56882 -0.150215 0
M  V30 2620 C 240.682 2.00302 0.506213 0
M  V30 2621 C 241.09 1.02934 1.58749 0
M  V30 2622 O 240.433 0.0188384 1.8369 0
M  V30 2623 C 240.495 3.40156 1.16337 0
M  V30 2624 C 240.159 4.56439 0.226311 0
M  V30 2625 C 241.156 5.17012 -0.547265 0
M  V30 2626 C 238.841 5.02136 0.128279 0
M  V30 2627 C 240.835 6.21693 -1.40629 0
M  V30 2628 C 238.522 6.06672 -0.734345 0
M  V30 2629 C 239.52 6.6632 -1.50023 0
M  V30 2630 O 239.208 7.68831 -2.34848 0
M  V30 2631 H 238.94 0.662182 0.135984 0
M  V30 2632 H 241.494 2.03961 -0.242746 0
M  V30 2633 H 239.724 3.33346 1.96004 0
M  V30 2634 H 241.413 3.67663 1.71985 0
M  V30 2635 H 242.179 4.82603 -0.48158 0
M  V30 2636 H 238.058 4.55435 0.714157 0
M  V30 2637 H 241.602 6.68179 -2.00455 0
M  V30 2638 H 237.499 6.40507 -0.801309 0
M  V30 2639 H 238.267 7.86065 -2.28131 0
M  V30 2640 N 240.93 -0.123565 1.57115 0
M  V30 2641 C 241.862 -1.17739 1.96648 0
M  V30 2642 C 242.875 -1.37906 0.865201 0
M  V30 2643 O 244.064 -1.37062 1.14351 0
M  V30 2644 C 241.164 -2.53821 2.24562 0
M  V30 2645 C 240.337 -2.54317 3.55867 0
M  V30 2646 C 239.396 -3.72112 3.72047 0
M  V30 2647 O 238.422 -3.55907 4.44206 0
M  V30 2648 N 239.624 -4.90498 3.10471 0
M  V30 2649 H 242.389 -0.841147 2.87654 0
M  V30 2650 H 239.95 -0.31289 1.58848 0
M  V30 2651 H 241.942 -3.31175 2.32606 0
M  V30 2652 H 240.512 -2.79645 1.39705 0
M  V30 2653 H 239.732 -1.62711 3.59053 0
M  V30 2654 H 241.02 -2.51701 4.42181 0
M  V30 2655 H 240.418 -5.06567 2.51806 0
M  V30 2656 H 238.975 -5.65544 3.24043 0
M  V30 2657 N 242.408 -1.52605 -0.393616 0
M  V30 2658 C 243.338 -1.80022 -1.48709 0
M  V30 2659 C 244.319 -0.651995 -1.57108 0
M  V30 2660 O 245.504 -0.89913 -1.72132 0
M  V30 2661 C 242.634 -1.96492 -2.86371 0
M  V30 2662 C 241.588 -3.12161 -2.92813 0
M  V30 2663 C 240.914 -3.13877 -4.3288 0
M  V30 2664 C 242.214 -4.51322 -2.6288 0
M  V30 2665 H 243.908 -2.71589 -1.26015 0
M  V30 2666 H 241.454 -1.30684 -0.604778 0
M  V30 2667 H 243.407 -2.14255 -3.62867 0
M  V30 2668 H 242.131 -1.01611 -3.10391 0
M  V30 2669 H 240.79 -2.94173 -2.18764 0
M  V30 2670 H 240.438 -2.16687 -4.53933 0
M  V30 2671 H 240.138 -3.91576 -4.38112 0
M  V30 2672 H 241.662 -3.33789 -5.1129 0
M  V30 2673 H 243.076 -4.69435 -3.29096 0
M  V30 2674 H 241.473 -5.31053 -2.79468 0
M  V30 2675 H 242.543 -4.58353 -1.58242 0
M  V30 2676 N 243.887 0.651787 -1.4349 0
M  V30 2677 C 245.134 1.41167 -1.45183 0
M  V30 2678 C 245.462 1.94349 -0.0766601 0
M  V30 2679 O 244.717 1.72804 0.918555 0
M  V30 2680 C 245.016 2.60914 -2.44251 0
M  V30 2681 C 244.682 2.26142 -3.9009 0
M  V30 2682 C 243.344 2.16371 -4.2981 0
M  V30 2683 C 245.696 1.98334 -4.81989 0
M  V30 2684 C 243.024 1.7695 -5.5938 0
M  V30 2685 C 245.376 1.6041 -6.11924 0
M  V30 2686 C 244.04 1.49166 -6.5062 0
M  V30 2687 H 243.31 0.516566 -0.531263 0
M  V30 2688 H 245.957 0.741099 -1.76579 0
M  V30 2689 H 244.262 3.3311 -2.06265 0
M  V30 2690 H 245.959 3.19127 -2.42815 0
M  V30 2691 H 242.549 2.34658 -3.58655 0
M  V30 2692 H 246.733 2.04803 -4.52072 0
M  V30 2693 H 241.989 1.66831 -5.88198 0
M  V30 2694 H 246.163 1.37925 -6.82605 0
M  V30 2695 H 243.79 1.1839 -7.50925 0
M  V30 2696 N 245.365 1.30045 0.890287 0
M  V30 2697 C 246.781 1.08261 1.17268 0
M  V30 2698 C 246.981 -0.160063 2.00863 0
M  V30 2699 O 246.037 -0.855181 2.37577 0
M  V30 2700 C 247.35 2.34323 1.8845 0
M  V30 2701 C 248.898 2.39735 2.01237 0
M  V30 2702 C 249.373 3.65625 2.7583 0
M  V30 2703 N 250.864 3.66402 2.83379 0
M  V30 2704 C 251.599 4.60498 3.41657 0
M  V30 2705 N 251.095 5.64933 4.01026 0
M  V30 2706 N 252.888 4.48051 3.39421 0
M  V30 2707 H 245.039 2.09777 0.332762 0
M  V30 2708 H 247.302 0.92446 0.209948 0
M  V30 2709 H 247.008 3.2498 1.34465 0
M  V30 2710 H 246.882 2.4256 2.88867 0
M  V30 2711 H 249.269 1.4956 2.54393 0
M  V30 2712 H 249.35 2.35476 0.999232 0
M  V30 2713 H 248.994 4.56156 2.23347 0
M  V30 2714 H 248.924 3.67144 3.77509 0
M  V30 2715 H 251.415 2.90896 2.41222 0
M  V30 2716 H 251.728 6.32841 4.43545 0
M  V30 2717 H 250.073 5.68732 3.99461 0
M  V30 2718 H 253.264 3.65649 2.92264 0
M  V30 2719 H 253.437 5.21565 3.84544 0
M  V30 2720 N 246.843 -1.10192 1.12674 0
M  V30 2721 C 248.068 -1.86523 0.906853 0
M  V30 2722 C 248.493 -1.80221 -0.538711 0
M  V30 2723 O 247.851 -1.17396 -1.38158 0
M  V30 2724 C 247.899 -3.32758 1.3894 0
M  V30 2725 O 247.003 -4.08449 0.5695 0
M  V30 2726 H 246.344 -0.578678 0.325619 0
M  V30 2727 H 248.874 -1.39203 1.49946 0
M  V30 2728 H 248.884 -3.83608 1.38958 0
M  V30 2729 H 247.559 -3.36661 2.44197 0
M  V30 2730 H 246.136 -3.67427 0.636528 0
M  V30 2731 N 248.321 -0.919034 -1.28029 0
M  V30 2732 C 249.251 -0.428581 -2.29533 0
M  V30 2733 C 250.232 0.50659 -1.62381 0
M  V30 2734 O 251.417 0.413195 -1.89753 0
M  V30 2735 C 248.547 0.327388 -3.45753 0
M  V30 2736 C 247.501 -0.519137 -4.2484 0
M  V30 2737 C 246.827 0.365486 -5.33449 0
M  V30 2738 C 248.127 -1.77914 -4.91064 0
M  V30 2739 H 249.821 -1.27687 -2.70807 0
M  V30 2740 H 247.367 -0.615428 -1.30186 0
M  V30 2741 H 249.32 0.681378 -4.15855 0
M  V30 2742 H 248.044 1.20963 -3.03374 0
M  V30 2743 H 246.703 -0.855717 -3.56473 0
M  V30 2744 H 246.351 1.24642 -4.87312 0
M  V30 2745 H 246.051 -0.197356 -5.87268 0
M  V30 2746 H 247.575 0.715241 -6.06396 0
M  V30 2747 H 248.989 -1.49374 -5.53498 0
M  V30 2748 H 247.386 -2.2848 -5.54903 0
M  V30 2749 H 248.456 -2.50382 -4.15255 0
M  V30 2750 N 249.799 1.42003 -0.683588 0
M  V30 2751 C 250.762 2.29191 -0.0198243 0
M  V30 2752 C 251.762 1.43773 0.72013 0
M  V30 2753 O 252.952 1.65061 0.556815 0
M  V30 2754 C 250.084 3.26435 0.982487 0
M  V30 2755 H 251.277 2.8938 -0.787345 0
M  V30 2756 H 248.83 1.49789 -0.446418 0
M  V30 2757 H 249.565 2.71203 1.77819 0
M  V30 2758 H 249.35 3.89449 0.455182 0
M  V30 2759 H 250.84 3.918 1.44508 0
M  V30 2760 N 251.277 0.427512 1.51691 0
M  V30 2761 C 252.507 -0.140986 2.06118 0
M  V30 2762 C 252.915 -1.37854 1.29588 0
M  V30 2763 O 252.258 -1.80411 0.346036 0
M  V30 2764 C 252.32 -0.538276 3.55447 0
M  V30 2765 C 251.984 0.591095 4.53161 0
M  V30 2766 C 252.981 1.46027 4.98971 0
M  V30 2767 C 250.666 0.769028 4.96378 0
M  V30 2768 C 252.66 2.49216 5.8666 0
M  V30 2769 C 250.347 1.80421 5.83859 0
M  V30 2770 C 251.345 2.66417 6.28897 0
M  V30 2771 O 251.033 3.68159 7.14643 0
M  V30 2772 H 250.765 -0.0157455 0.675817 0
M  V30 2773 H 253.319 0.602495 1.96365 0
M  V30 2774 H 251.549 -1.33432 3.6295 0
M  V30 2775 H 253.238 -1.0368 3.92435 0
M  V30 2776 H 254.004 1.33429 4.66285 0
M  V30 2777 H 249.883 0.109273 4.6087 0
M  V30 2778 H 253.427 3.16372 6.21735 0
M  V30 2779 H 249.324 1.93042 6.15959 0
M  V30 2780 H 250.092 3.64622 7.32798 0
M  V30 2781 N 252.755 -1.56801 0.158532 0
M  V30 2782 C 254.004 -1.95665 -0.489702 0
M  V30 2783 C 254.317 -1.04654 -1.65248 0
M  V30 2784 O 255.523 -1.33146 -2.3661 0
M  V30 2785 C 253.979 -3.47874 -0.922582 0
M  V30 2786 C 253.587 -4.47489 0.213893 0
M  V30 2787 C 255.331 -3.95583 -1.53996 0
M  V30 2788 C 253.238 -5.90921 -0.237903 0
M  V30 2789 H 252.168 -0.730516 -0.186716 0
M  V30 2790 H 254.819 -1.81861 0.244722 0
M  V30 2791 H 253.201 -3.57051 -1.71261 0
M  V30 2792 H 254.375 -4.50017 0.991036 0
M  V30 2793 H 252.69 -4.09764 0.740407 0
M  V30 2794 H 255.287 -5.0019 -1.8898 0
M  V30 2795 H 255.63 -3.37789 -2.43319 0
M  V30 2796 H 256.163 -3.8937 -0.814611 0
M  V30 2797 H 252.902 -6.52559 0.620236 0
M  V30 2798 H 252.422 -5.91729 -0.980676 0
M  V30 2799 H 254.101 -6.43352 -0.686067 0
M  V30 2800 N 254.233 0.115231 -1.57178 0
M  V30 2801 C 255.183 1.14707 -1.97044 0
M  V30 2802 C 256.167 1.36866 -0.845957 0
M  V30 2803 O 257.359 1.37895 -1.10968 0
M  V30 2804 C 254.488 2.47266 -2.38148 0
M  V30 2805 C 253.574 2.28566 -3.57237 0
M  V30 2806 N 253.965 1.79685 -4.72807 0
M  V30 2807 C 252.263 2.59208 -3.62943 0
M  V30 2808 C 252.964 1.74781 -5.54821 0
M  V30 2809 N 251.94 2.19264 -4.97417 0
M  V30 2810 H 255.742 0.761754 -2.83857 0
M  V30 2811 H 253.256 0.322928 -1.59157 0
M  V30 2812 H 255.253 3.219 -2.64927 0
M  V30 2813 H 253.913 2.86552 -1.52702 0
M  V30 2814 H 254.924 1.49177 -4.9595 0
M  V30 2815 H 251.601 3.02154 -2.88113 0
M  V30 2816 H 252.991 1.38212 -6.57531 0
M  V30 2817 N 255.711 1.52812 0.385517 0
M  V30 2818 C 256.936 1.72207 1.15583 0
M  V30 2819 C 257.361 0.441034 1.82857 0
M  V30 2820 O 256.719 -0.603465 1.70962 0
M  V30 2821 C 256.767 2.87476 2.17692 0
M  V30 2822 O 255.871 2.54693 3.24354 0
M  V30 2823 H 255.212 0.572526 0.336319 0
M  V30 2824 H 257.742 1.99618 0.448744 0
M  V30 2825 H 257.752 3.13072 2.6163 0
M  V30 2826 H 256.427 3.80408 1.68115 0
M  V30 2827 H 255.004 2.3985 2.85529 0
M  V30 2828 N 257.189 -0.644168 1.43834 0
M  V30 2829 C 258.436 -1.40395 1.4593 0
M  V30 2830 C 258.764 -1.94305 0.0869658 0
M  V30 2831 O 258.019 -1.73288 -0.909378 0
M  V30 2832 C 258.318 -2.59615 2.45631 0
M  V30 2833 C 257.984 -2.2407 3.91284 0
M  V30 2834 C 256.646 -2.14089 4.30952 0
M  V30 2835 C 258.998 -1.95775 4.83034 0
M  V30 2836 C 256.326 -1.73981 5.6031 0
M  V30 2837 C 258.678 -1.57163 6.12766 0
M  V30 2838 C 257.342 -1.45713 6.51402 0
M  V30 2839 H 256.612 -0.513741 0.533995 0
M  V30 2840 H 259.259 -0.731724 1.76969 0
M  V30 2841 H 257.564 -3.32011 2.08028 0
M  V30 2842 H 259.261 -3.17834 2.44504 0
M  V30 2843 H 255.851 -2.32753 3.59895 0
M  V30 2844 H 260.035 -2.02403 4.53152 0
M  V30 2845 H 255.291 -1.63709 5.89075 0
M  V30 2846 H 259.465 -1.34303 6.83327 0
M  V30 2847 H 257.092 -1.14406 7.51542 0
M  V30 2848 N 258.668 -1.30515 -0.883378 0
M  V30 2849 C 259.916 -1.19194 -1.63209 0
M  V30 2850 C 260.237 0.253205 -1.93349 0
M  V30 2851 O 259.507 1.17025 -1.57105 0
M  V30 2852 H 258.087 -0.438148 -0.605009 0
M  V30 2853 H 260.749 -1.63663 -1.05832 0
M  V30 2854 H 259.845 -1.75396 -2.58153 0
M  V30 2855 N 260.146 1.09593 -1.13257 0
M  V30 2856 C 261.395 1.81105 -0.887917 0
M  V30 2857 C 261.708 1.86563 0.587672 0
M  V30 2858 O 262.914 2.54367 0.949204 0
M  V30 2859 C 261.37 3.25338 -1.53895 0
M  V30 2860 C 260.978 3.28151 -3.04994 0
M  V30 2861 C 262.722 4.01617 -1.37492 0
M  V30 2862 C 260.629 4.66897 -3.6299 0
M  V30 2863 H 259.559 0.678661 -0.328534 0
M  V30 2864 H 262.21 1.23183 -1.36008 0
M  V30 2865 H 260.592 3.8331 -0.994446 0
M  V30 2866 H 261.766 2.79953 -3.66009 0
M  V30 2867 H 260.081 2.65361 -3.20893 0
M  V30 2868 H 262.678 5.04119 -1.78235 0
M  V30 2869 H 263.021 4.15072 -0.31957 0
M  V30 2870 H 263.554 3.50082 -1.88912 0
M  V30 2871 H 260.293 4.58643 -4.68323 0
M  V30 2872 H 259.813 5.15426 -3.06752 0
M  V30 2873 H 261.492 5.3587 -3.62563 0
M  V30 2874 N 261.624 0.925811 1.2754 0
M  V30 2875 C 262.864 0.572521 1.96218 0
M  V30 2876 C 263.228 -0.869719 1.71172 0
M  V30 2877 O 264.429 -1.33119 2.33523 0
M  V30 2878 C 262.7 0.887325 3.4621 0
M  V30 2879 S 264.259 0.642266 4.34074 0
M  V30 2880 H 261.077 0.211403 0.678845 0
M  V30 2881 H 263.679 1.19384 1.54815 0
M  V30 2882 H 262.383 1.93469 3.61936 0
M  V30 2883 H 261.914 0.255123 3.92572 0
M  V30 2884 H 263.929 -0.500822 4.93666 0
M  V30 2885 N 263.102 -1.41638 0.69111 0
M  V30 2886 C 264.052 -2.28 -0.000107832 0
M  V30 2887 C 265.036 -1.41964 -0.757304 0
M  V30 2888 O 266.228 -1.65274 -0.633532 0
M  V30 2889 C 263.357 -3.30209 -0.938983 0
M  V30 2890 C 262.443 -4.23725 -0.17827 0
M  V30 2891 N 262.834 -4.99017 0.825563 0
M  V30 2892 C 261.132 -4.44071 -0.414392 0
M  V30 2893 C 261.833 -5.67431 1.28052 0
M  V30 2894 N 260.809 -5.40197 0.607304 0
M  V30 2895 H 264.611 -2.83644 0.769617 0
M  V30 2896 H 262.125 -1.53797 0.521562 0
M  V30 2897 H 264.122 -3.90898 -1.44929 0
M  V30 2898 H 262.782 -2.76126 -1.70836 0
M  V30 2899 H 263.793 -5.03671 1.20566 0
M  V30 2900 H 260.47 -4.01004 -1.162 0
M  V30 2901 H 261.86 -6.37801 2.11327 0
M  V30 2902 N 264.58 -0.43555 -1.51462 0
M  V30 2903 C 265.996 -0.0877501 -1.59359 0
M  V30 2904 C 266.196 1.4027 -1.4466 0
M  V30 2905 O 265.252 2.17243 -1.28693 0
M  V30 2906 C 266.565 -0.606264 -2.94525 0
M  V30 2907 C 268.113 -0.566548 -3.0783 0
M  V30 2908 C 268.588 -1.06201 -4.45517 0
M  V30 2909 N 270.079 -1.01992 -4.51832 0
M  V30 2910 C 270.814 -1.37417 -5.5669 0
M  V30 2911 N 270.31 -1.80119 -6.68976 0
M  V30 2912 N 272.103 -1.29245 -5.47039 0
M  V30 2913 H 264.254 -1.40533 -1.59261 0
M  V30 2914 H 266.517 -0.578992 -0.750648 0
M  V30 2915 H 266.223 -1.64901 -3.10645 0
M  V30 2916 H 266.097 -0.0302097 -3.77188 0
M  V30 2917 H 268.484 0.467208 -2.91378 0
M  V30 2918 H 268.565 -1.17898 -2.2701 0
M  V30 2919 H 268.209 -2.09422 -4.62715 0
M  V30 2920 H 268.139 -0.426127 -5.24873 0
M  V30 2921 H 270.63 -0.706308 -3.71241 0
M  V30 2922 H 270.943 -2.05392 -7.45006 0
M  V30 2923 H 269.288 -1.84044 -6.70189 0
M  V30 2924 H 272.479 -0.957522 -4.58202 0
M  V30 2925 H 272.652 -1.57182 -6.28648 0
M  V30 2926 N 266.058 1.56714 -0.166846 0
M  V30 2927 C 267.335 1.88412 0.525373 0
M  V30 2928 C 267.715 1.07602 1.81618 0
M  V30 2929 O 267.063 0.168621 2.27877 0
M  V30 2930 C 267.273 3.40363 0.771613 0
M  V30 2931 C 268.621 4.10007 1.1036 0
M  V30 2932 O 269.645 3.45655 0.860304 0
M  V30 2933 O 268.504 5.2369 1.56239 0
M  V30 2934 H 265.598 0.781587 0.270278 0
M  V30 2935 H 268.144 1.68458 -0.204946 0
M  V30 2936 H 266.916 3.91046 -0.141093 0
M  V30 2937 H 266.539 3.65914 1.55541 0
M  V30 2938 N 267.536 -0.106894 1.57237 0
M  V30 2939 C 268.785 -0.811163 1.8467 0
M  V30 2940 C 269.098 -1.80469 0.754342 0
M  V30 2941 O 270.304 -2.55601 0.915439 0
M  V30 2942 C 268.76 -1.49337 3.27454 0
M  V30 2943 C 268.368 -0.540217 4.44731 0
M  V30 2944 C 270.112 -2.18206 3.64124 0
M  V30 2945 C 268.019 -1.22634 5.78545 0
M  V30 2946 H 266.949 -0.306679 0.688813 0
M  V30 2947 H 269.6 -0.0639887 1.83388 0
M  V30 2948 H 267.982 -2.2876 3.23241 0
M  V30 2949 H 269.156 0.221659 4.60267 0
M  V30 2950 H 267.471 0.042146 4.16379 0
M  V30 2951 H 270.068 -2.70253 4.61376 0
M  V30 2952 H 270.411 -2.96562 2.92158 0
M  V30 2953 H 270.944 -1.45658 3.70174 0
M  V30 2954 H 267.683 -0.483832 6.53712 0
M  V30 2955 H 267.203 -1.95993 5.66874 0
M  V30 2956 H 268.882 -1.75615 6.2271 0
M  V30 2957 N 269.014 -1.53014 -0.377408 0
M  V30 2958 C 269.961 -1.78616 -1.46168 0
M  V30 2959 C 270.931 -0.629917 -1.53692 0
M  V30 2960 O 272.116 -0.870861 -1.69766 0
M  V30 2961 C 269.256 -1.97123 -2.8326 0
M  V30 2962 C 268.369 -3.24831 -2.84796 0
M  V30 2963 C 267.504 -3.33591 -4.13389 0
M  V30 2964 C 266.543 -4.55377 -4.09021 0
M  V30 2965 N 265.68 -4.61355 -5.29241 0
M  V30 2966 H 270.52 -2.71142 -1.23637 0
M  V30 2967 H 268.057 -1.34326 -0.599577 0
M  V30 2968 H 270.015 -2.05839 -3.62886 0
M  V30 2969 H 268.645 -1.07946 -3.04216 0
M  V30 2970 H 267.697 -3.25128 -1.97474 0
M  V30 2971 H 269.009 -4.14523 -2.77439 0
M  V30 2972 H 268.163 -3.41554 -5.01424 0
M  V30 2973 H 266.902 -2.41894 -4.23484 0
M  V30 2974 H 265.907 -4.47527 -3.19373 0
M  V30 2975 H 267.132 -5.48402 -4.00539 0
M  V30 2976 H 265.078 -3.72554 -5.39944 0
M  V30 2977 H 264.995 -5.44935 -5.24006 0
M  V30 2978 H 266.263 -4.73586 -6.19141 0
M  V30 2979 N 270.492 0.636531 -1.44174 0
M  V30 2980 C 271.903 1.21806 -1.41493 0
M  V30 2981 C 272.254 1.95785 -0.1275 0
M  V30 2982 O 271.379 2.02147 0.772376 0
M  V30 2983 C 271.974 2.21551 -2.56321 0
M  V30 2984 C 270.533 2.75143 -2.56853 0
M  V30 2985 C 269.68 1.50052 -2.33195 0
M  V30 2986 H 272.631 0.427531 -1.52833 0
M  V30 2987 H 272.652 3.0405 -2.28765 0
M  V30 2988 H 272.164 1.67679 -3.50008 0
M  V30 2989 H 270.265 3.33033 -1.67093 0
M  V30 2990 H 270.378 3.2155 -3.55165 0
M  V30 2991 H 268.742 1.77993 -1.82183 0
M  V30 2992 H 269.525 0.980903 -3.28988 0
M  V30 2993 N 271.97 1.30982 0.876444 0
M  V30 2994 C 272.902 1.13902 1.98894 0
M  V30 2995 C 273.915 0.0798815 1.62604 0
M  V30 2996 O 275.104 0.326743 1.75484 0
M  V30 2997 C 272.204 0.716699 3.31235 0
M  V30 2998 C 271.377 1.85945 3.95908 0
M  V30 2999 C 270.436 1.42426 5.06558 0
M  V30 3000 O 269.462 2.13287 5.27729 0
M  V30 3001 N 270.664 0.308025 5.79682 0
M  V30 3002 H 273.429 2.09724 2.14094 0
M  V30 3003 H 270.99 1.2323 1.05004 0
M  V30 3004 H 272.982 0.408403 4.02634 0
M  V30 3005 H 271.552 -0.149719 3.12241 0
M  V30 3006 H 270.772 2.33541 3.17573 0
M  V30 3007 H 272.06 2.62503 4.35855 0
M  V30 3008 H 271.458 -0.282241 5.64995 0
M  V30 3009 H 270.015 0.0592282 6.51773 0
M  V30 3010 N 273.449 -1.08991 1.13837 0
M  V30 3011 C 274.397 -2.17841 0.815347 0
M  V30 3012 C 275.391 -1.68164 -0.204233 0
M  V30 3013 O 276.597 -1.79897 -0.0609304 0
M  V30 3014 H 272.972 -0.710654 0.245915 0
M  V30 3015 H 274.943 -2.42315 1.74143 0
M  V30 3016 C 273.692 -3.46381 0.302614 0
M  V30 3017 H 273.015 -3.84979 1.0785 0
M  V30 3018 H 274.455 -4.23844 0.115074 0
M  V30 3019 C 272.914 -3.22556 -0.972591 0
M  V30 3020 O 273.444 -3.45599 -2.04754 0
M  V30 3021 N 271.65 -2.76134 -0.905455 0
M  V30 3022 H 271.197 -2.57582 -0.0305421 0
M  V30 3023 H 271.155 -2.60571 -1.75926 0
M  V30 3024 N 274.927 -0.932562 -1.27047 0
M  V30 3025 C 275.857 -0.452902 -2.29066 0
M  V30 3026 C 276.838 0.489338 -1.62909 0
M  V30 3027 O 278.023 0.393046 -1.90181 0
M  V30 3028 C 275.153 0.290698 -3.46081 0
M  V30 3029 C 274.107 -0.564168 -4.24265 0
M  V30 3030 C 273.433 0.308886 -5.33807 0
M  V30 3031 C 274.733 -1.83112 -4.89149 0
M  V30 3032 H 276.427 -1.30552 -2.69437 0
M  V30 3033 H 273.973 -0.629201 -1.29526 0
M  V30 3034 H 275.926 0.637233 -4.16554 0
M  V30 3035 H 274.65 1.17738 -3.0464 0
M  V30 3036 H 273.309 -0.893477 -3.55545 0
M  V30 3037 H 272.957 1.19467 -4.88607 0
M  V30 3038 H 272.657 -0.259633 -5.87026 0
M  V30 3039 H 274.181 0.650884 -6.07121 0
M  V30 3040 H 275.595 -1.55236 -5.51883 0
M  V30 3041 H 273.992 -2.34353 -5.52448 0
M  V30 3042 H 275.062 -2.54772 -4.12576 0
M  V30 3043 N 276.405 1.4127 -0.698611 0
M  V30 3044 C 277.335 2.33447 -0.049629 0
M  V30 3045 C 278.316 1.51982 0.763898 0
M  V30 3046 O 279.501 1.80509 0.716257 0
M  V30 3047 C 276.631 3.35828 0.885267 0
M  V30 3048 C 275.585 4.27627 0.178613 0
M  V30 3049 C 274.911 5.20406 1.22807 0
M  V30 3050 C 276.211 5.13459 -0.956933 0
M  V30 3051 H 277.905 2.87966 -0.81951 0
M  V30 3052 H 275.451 1.38461 -0.395538 0
M  V30 3053 H 277.404 3.9924 1.34854 0
M  V30 3054 H 276.128 2.79666 1.68685 0
M  V30 3055 H 274.787 3.65643 -0.26466 0
M  V30 3056 H 274.435 4.60558 2.02226 0
M  V30 3057 H 274.135 5.82661 0.760239 0
M  V30 3058 H 275.659 5.86695 1.69179 0
M  V30 3059 H 277.073 5.70421 -0.573805 0
M  V30 3060 H 275.47 5.8467 -1.35205 0
M  V30 3061 H 276.54 4.50443 -1.79524 0
M  V30 3062 N 277.883 0.443576 1.51229 0
M  V30 3063 C 278.813 -0.355142 2.30783 0
M  V30 3064 C 279.794 -1.0154 1.36468 0
M  V30 3065 O 280.979 -1.01785 1.65389 0
M  V30 3066 C 278.109 -1.45312 3.15439 0
M  V30 3067 C 277.063 -0.916002 4.18083 0
M  V30 3068 C 276.389 -2.1102 4.91299 0
M  V30 3069 C 277.689 0.0538602 5.22272 0
M  V30 3070 H 279.383 0.308767 2.97804 0
M  V30 3071 H 276.929 0.149937 1.43217 0
M  V30 3072 H 278.882 -2.01914 3.69876 0
M  V30 3073 H 277.606 -2.14541 2.46252 0
M  V30 3074 H 276.265 -0.372145 3.64706 0
M  V30 3075 H 275.913 -2.78882 4.18609 0
M  V30 3076 H 275.613 -1.75717 5.60712 0
M  V30 3077 H 277.137 -2.68164 5.48562 0
M  V30 3078 H 278.551 -0.422069 5.71744 0
M  V30 3079 H 276.948 0.319776 5.99247 0
M  V30 3080 H 278.018 0.98858 4.74716 0
M  V30 3081 N 279.361 -1.56624 0.175154 0
M  V30 3082 C 280.638 -1.88688 -0.515373 0
M  V30 3083 C 281.018 -1.08564 -1.81044 0
M  V30 3084 O 280.366 -0.180703 -2.27784 0
M  V30 3085 C 280.576 -3.40768 -0.753552 0
M  V30 3086 C 281.924 -4.10587 -1.08184 0
M  V30 3087 O 282.948 -3.46106 -0.841961 0
M  V30 3088 O 281.807 -5.24512 -1.53459 0
M  V30 3089 H 278.901 -0.78301 -0.26613 0
M  V30 3090 H 281.447 -1.68347 0.213877 0
M  V30 3091 H 280.219 -3.90965 0.161829 0
M  V30 3092 H 279.842 -3.66733 -1.53598 0
M  V30 3093 N 280.839 0.0985539 -1.57292 0
M  V30 3094 C 282.25 0.653457 -1.74891 0
M  V30 3095 C 282.601 1.7929 -0.796838 0
M  V30 3096 O 281.726 2.16385 0.0254886 0
M  V30 3097 C 282.321 1.19216 -3.17133 0
M  V30 3098 C 280.88 1.69316 -3.36168 0
M  V30 3099 C 280.027 0.601294 -2.70702 0
M  V30 3100 H 282.978 -0.127497 -1.58187 0
M  V30 3101 H 282.999 2.06154 -3.19814 0
M  V30 3102 H 282.511 0.362635 -3.86402 0
M  V30 3103 H 280.612 2.5468 -2.71972 0
M  V30 3104 H 280.725 1.78853 -4.44464 0
M  V30 3105 H 279.089 1.0399 -2.32504 0
M  V30 3106 H 279.872 -0.217592 -3.4261 0
M  V30 3107 N 282.317 1.53212 0.369288 0
M  V30 3108 C 283.594 1.59815 1.12776 0
M  V30 3109 C 283.974 0.403402 2.0721 0
M  V30 3110 O 283.322 -0.606667 2.20299 0
M  V30 3111 C 283.532 2.94664 1.87013 0
M  V30 3112 C 284.88 3.49109 2.41677 0
M  V30 3113 O 285.904 2.96669 1.97144 0
M  V30 3114 O 284.763 4.40775 3.23079 0
M  V30 3115 H 281.857 0.645376 0.517125 0
M  V30 3116 H 284.403 1.65553 0.37285 0
M  V30 3117 H 283.175 3.73061 1.18071 0
M  V30 3118 H 282.798 2.92401 2.69421 0
M  V30 3119 N 283.795 -0.628877 1.44509 0
M  V30 3120 C 285.023 -1.41554 1.50897 0
M  V30 3121 C 285.438 -1.8832 0.134564 0
M  V30 3122 O 284.795 -1.60969 -0.859965 0
M  V30 3123 C 284.846 -2.63435 2.47556 0
M  V30 3124 O 284.567 -2.18619 3.79654 0
M  V30 3125 C 286.068 -3.56537 2.63431 0
M  V30 3126 H 283.288 -0.434044 0.511709 0
M  V30 3127 H 285.832 -0.768895 1.89495 0
M  V30 3128 H 283.987 -3.24187 2.12089 0
M  V30 3129 H 284.401 -2.97652 4.31861 0
M  V30 3130 H 285.875 -4.38657 3.35088 0
M  V30 3131 H 286.352 -4.05493 1.68738 0
M  V30 3132 H 286.958 -3.01653 2.9981 0
M  V30 3133 N 285.273 -1.31445 -0.869486 0
M  V30 3134 C 286.236 -1.19094 -1.9583 0
M  V30 3135 C 287.236 -0.117906 -1.60367 0
M  V30 3136 O 288.426 -0.367208 -1.70286 0
M  V30 3137 C 285.558 -0.828165 -3.30688 0
M  V30 3138 H 286.751 -2.15842 -2.08212 0
M  V30 3139 H 284.304 -1.15063 -1.05784 0
M  V30 3140 H 285.039 0.138142 -3.24006 0
M  V30 3141 H 284.824 -1.6038 -3.578 0
M  V30 3142 H 286.314 -0.765658 -4.10521 0
M  V30 3143 N 286.751 1.08385 -1.14413 0
M  V30 3144 C 287.997 1.81044 -0.913834 0
M  V30 3145 C 288.33 1.86004 0.558209 0
M  V30 3146 O 287.605 1.33606 1.4135 0
M  V30 3147 C 287.888 3.26648 -1.51569 0
M  V30 3148 C 287.741 3.29895 -3.0576 0
M  V30 3149 C 289.06 4.23629 -1.19273 0
M  V30 3150 H 286.179 0.65727 -0.333414 0
M  V30 3151 H 288.821 1.26896 -1.41412 0
M  V30 3152 H 286.971 3.72889 -1.09023 0
M  V30 3153 H 288.643 2.91977 -3.57137 0
M  V30 3154 H 286.886 2.69163 -3.40197 0
M  V30 3155 H 287.557 4.32516 -3.42977 0
M  V30 3156 H 290.033 3.85727 -1.56057 0
M  V30 3157 H 288.909 5.23822 -1.64017 0
M  V30 3158 H 289.17 4.41968 -0.108068 0
M  V30 3159 N 288.23 0.939286 1.26551 0
M  V30 3160 C 289.16 0.465044 2.28822 0
M  V30 3161 C 290.141 -0.480692 1.63167 0
M  V30 3162 O 291.326 -0.382955 1.90387 0
M  V30 3163 C 288.456 -0.27234 3.46231 0
M  V30 3164 C 287.41 0.58666 4.2396 0
M  V30 3165 C 286.736 -0.280573 5.33963 0
M  V30 3166 C 288.036 1.85704 4.88171 0
M  V30 3167 H 289.73 1.31979 2.68741 0
M  V30 3168 H 287.276 0.636061 1.29191 0
M  V30 3169 H 289.229 -0.615133 4.16886 0
M  V30 3170 H 287.953 -1.16121 3.0526 0
M  V30 3171 H 286.612 0.91232 3.55067 0
M  V30 3172 H 286.26 -1.16874 4.89234 0
M  V30 3173 H 285.96 0.29076 5.8688 0
M  V30 3174 H 287.484 -0.618678 6.07458 0
M  V30 3175 H 288.898 1.58161 5.51052 0
M  V30 3176 H 287.295 2.37279 5.51197 0
M  V30 3177 H 288.365 2.56957 4.11219 0
M  V30 3178 N 289.708 -1.40897 0.706093 0
M  V30 3179 C 290.655 -2.30751 0.0474474 0
M  V30 3180 C 291.625 -1.47678 -0.76029 0
M  V30 3181 O 292.81 -1.76441 -0.726177 0
M  V30 3182 C 289.95 -3.33815 -0.875309 0
M  V30 3183 C 289.063 -4.31961 -0.0580623 0
M  V30 3184 C 288.198 -5.22093 -0.979425 0
M  V30 3185 C 287.237 -6.11902 -0.155706 0
M  V30 3186 N 286.374 -6.94482 -1.03144 0
M  V30 3187 H 291.214 -2.86513 0.819413 0
M  V30 3188 H 288.751 -1.41102 0.415783 0
M  V30 3189 H 290.709 -3.92129 -1.42446 0
M  V30 3190 H 289.339 -2.79579 -1.61356 0
M  V30 3191 H 288.391 -3.75507 0.608147 0
M  V30 3192 H 289.703 -4.95415 0.580082 0
M  V30 3193 H 288.857 -5.85292 -1.59744 0
M  V30 3194 H 287.596 -4.5889 -1.65141 0
M  V30 3195 H 286.601 -5.47742 0.475309 0
M  V30 3196 H 287.826 -6.77162 0.512635 0
M  V30 3197 H 285.772 -6.33877 -1.68924 0
M  V30 3198 H 285.689 -7.54665 -0.449108 0
M  V30 3199 H 286.957 -7.6214 -1.63593 0
M  V30 3200 N 291.186 -0.45159 -1.50991 0
M  V30 3201 C 292.116 0.342898 -2.30969 0
M  V30 3202 C 293.097 1.00815 -1.37005 0
M  V30 3203 O 294.282 1.00907 -1.65926 0
M  V30 3204 C 291.412 1.43637 -3.16205 0
M  V30 3205 C 290.366 0.893818 -4.18563 0
M  V30 3206 C 289.692 2.08411 -4.92411 0
M  V30 3207 C 290.992 -0.0815568 -5.22236 0
M  V30 3208 H 292.686 -0.324556 -2.97636 0
M  V30 3209 H 290.232 -0.157531 -1.43136 0
M  V30 3210 H 292.185 1.9995 -3.70942 0
M  V30 3211 H 290.909 2.13232 -2.47386 0
M  V30 3212 H 289.568 0.352798 -3.64898 0
M  V30 3213 H 289.216 2.76658 -4.20082 0
M  V30 3214 H 288.916 1.72741 -5.61636 0
M  V30 3215 H 290.44 2.65251 -5.49976 0
M  V30 3216 H 291.854 0.391742 -5.7196 0
M  V30 3217 H 290.251 -0.351551 -5.99069 0
M  V30 3218 H 291.321 -1.01374 -4.74185 0
M  V30 3219 N 292.664 1.56529 -0.183458 0
M  V30 3220 C 293.904 1.99141 0.460667 0
M  V30 3221 C 294.268 1.06736 1.59597 0
M  V30 3222 O 295.469 1.38538 2.30349 0
M  V30 3223 C 293.74 3.45358 0.919939 0
M  V30 3224 S 295.299 4.09999 1.56354 0
M  V30 3225 H 292.117 0.695479 0.147748 0
M  V30 3226 H 294.719 1.93429 -0.283782 0
M  V30 3227 H 293.423 4.10315 0.0834208 0
M  V30 3228 H 292.954 3.54862 1.69814 0
M  V30 3229 H 294.969 4.06046 2.85203 0
M  V30 3230 N 294.142 -0.090211 1.57342 0
M  V30 3231 C 295.419 -0.824761 1.77361 0
M  V30 3232 C 295.799 -1.96698 0.76637 0
M  V30 3233 O 295.147 -2.27586 -0.204179 0
M  V30 3234 C 295.357 -1.31481 3.23286 0
M  V30 3235 C 296.705 -1.75563 3.86604 0
M  V30 3236 O 297.729 -1.41093 3.27065 0
M  V30 3237 O 296.588 -2.39317 4.91314 0
M  V30 3238 H 293.682 -0.393776 0.727234 0
M  V30 3239 H 296.228 -0.0717138 1.69548 0
M  V30 3240 H 295 -0.496671 3.88135 0
M  V30 3241 H 294.623 -2.12973 3.35751 0
M  V30 3242 N 295.62 -1.53406 -0.361157 0
M  V30 3243 C 296.867 -1.69802 -1.10333 0
M  V30 3244 C 297.195 -0.452087 -1.89173 0
M  V30 3245 O 296.45 0.566017 -1.87336 0
M  V30 3246 C 296.749 -2.90211 -2.08596 0
M  V30 3247 C 296.415 -4.26539 -1.46203 0
M  V30 3248 C 295.077 -4.6361 -1.28915 0
M  V30 3249 C 297.429 -5.113 -1.01101 0
M  V30 3250 C 294.757 -5.83075 -0.651157 0
M  V30 3251 C 297.109 -6.31415 -0.387007 0
M  V30 3252 C 295.773 -6.67195 -0.201657 0
M  V30 3253 H 295.043 -0.621351 -0.403737 0
M  V30 3254 H 297.69 -1.87598 -0.384609 0
M  V30 3255 H 295.995 -2.66946 -2.86788 0
M  V30 3256 H 297.692 -3.00091 -2.65982 0
M  V30 3257 H 294.282 -3.97352 -1.60653 0
M  V30 3258 H 298.466 -4.83206 -1.13249 0
M  V30 3259 H 293.722 -6.09385 -0.496006 0
M  V30 3260 H 297.896 -6.96394 -0.0293563 0
M  V30 3261 H 295.523 -7.59628 0.294766 0
M  V30 3262 N 297.098 0.621204 -1.44841 0
M  V30 3263 C 298.346 1.37783 -1.47852 0
M  V30 3264 C 298.667 1.94653 -0.116224 0
M  V30 3265 O 297.937 1.76367 0.852737 0
M  V30 3266 H 296.517 0.511453 -0.544449 0
M  V30 3267 H 299.179 0.730446 -1.80694 0
M  V30 3268 H 298.275 2.20414 -2.20961 0
M  V30 3269 N 298.576 1.31904 0.862503 0
M  V30 3270 C 299.801 1.25135 1.65397 0
M  V30 3271 C 300.226 -0.179 1.87246 0
M  V30 3272 O 299.584 -1.1277 1.4196 0
M  V30 3273 C 299.632 2.00832 2.99498 0
M  V30 3274 O 298.736 1.35075 3.89652 0
M  V30 3275 H 298.077 0.431655 0.504549 0
M  V30 3276 H 300.607 1.74094 1.07483 0
M  V30 3277 H 300.617 2.10709 3.49379 0
M  V30 3278 H 299.292 3.04847 2.82916 0
M  V30 3279 H 297.869 1.33696 3.48109 0
M  V30 3280 N 300.054 -1.07777 1.14986 0
M  V30 3281 C 301.017 -2.13041 0.845358 0
M  V30 3282 C 302.017 -1.60071 -0.152931 0
M  V30 3283 O 303.207 -1.74033 0.0761879 0
M  V30 3284 C 300.339 -3.39896 0.261383 0
M  V30 3285 H 301.532 -2.41485 1.77834 0
M  V30 3286 H 299.085 -1.23595 0.956757 0
M  V30 3287 H 299.82 -3.17091 -0.68 0
M  V30 3288 H 299.605 -3.79642 0.980514 0
M  V30 3289 H 301.095 -4.17548 0.0657687 0
M  V30 3290 N 301.532 -0.945985 -1.26051 0
M  V30 3291 C 302.479 -0.45809 -2.26208 0
M  V30 3292 C 303.449 0.484816 -1.58867 0
M  V30 3293 O 304.634 0.399969 -1.86561 0
M  V30 3294 C 301.774 0.266131 -3.44072 0
M  V30 3295 C 300.887 -0.713005 -4.26075 0
M  V30 3296 C 300.022 0.0329013 -5.3119 0
M  V30 3297 C 299.061 -0.93774 -6.04874 0
M  V30 3298 N 298.198 -0.223274 -7.01745 0
M  V30 3299 H 303.038 -1.3171 -2.67313 0
M  V30 3300 H 300.575 -0.66069 -1.31428 0
M  V30 3301 H 302.533 0.702514 -4.11243 0
M  V30 3302 H 301.163 1.08925 -3.03867 0
M  V30 3303 H 300.215 -1.26789 -3.58648 0
M  V30 3304 H 301.527 -1.45406 -4.77136 0
M  V30 3305 H 300.681 0.528335 -6.04395 0
M  V30 3306 H 299.42 0.806801 -4.8098 0
M  V30 3307 H 298.425 -1.44425 -5.30492 0
M  V30 3308 H 299.65 -1.71172 -6.57173 0
M  V30 3309 H 297.596 0.532046 -6.53839 0
M  V30 3310 H 297.513 -0.90357 -7.50581 0
M  V30 3311 H 298.781 0.250907 -7.79096 0
M  V30 3312 N 303.011 1.40521 -0.713556 0
M  V30 3313 C 303.943 2.29191 -0.0203126 0
M  V30 3314 C 304.956 1.45723 0.725864 0
M  V30 3315 O 306.145 1.69033 0.573581 0
M  V30 3316 C 303.245 3.2395 0.995486 0
M  V30 3317 C 302.418 4.36262 0.315256 0
M  V30 3318 C 301.477 5.11474 1.23616 0
M  V30 3319 O 300.503 5.64606 0.721719 0
M  V30 3320 N 301.705 5.20638 2.56743 0
M  V30 3321 H 304.47 2.89327 -0.781652 0
M  V30 3322 H 302.031 1.51869 -0.561022 0
M  V30 3323 H 304.023 3.71137 1.61368 0
M  V30 3324 H 302.593 2.64995 1.6582 0
M  V30 3325 H 301.813 3.91228 -0.483106 0
M  V30 3326 H 303.101 5.08558 -0.157004 0
M  V30 3327 H 302.499 4.7895 3.01037 0
M  V30 3328 H 301.056 5.71339 3.13712 0
M  V30 3329 N 304.489 0.459591 1.5075 0
M  V30 3330 C 305.419 -0.330644 2.31147 0
M  V30 3331 C 306.4 -1.00087 1.37538 0
M  V30 3332 O 307.585 -1.00025 1.66459 0
M  V30 3333 C 304.715 -1.41958 3.16962 0
M  V30 3334 C 303.669 -0.871608 4.19031 0
M  V30 3335 C 302.995 -2.05797 4.9351 0
M  V30 3336 C 304.295 0.109251 5.22186 0
M  V30 3337 H 305.989 0.340336 2.97459 0
M  V30 3338 H 303.535 0.165119 1.4305 0
M  V30 3339 H 305.488 -1.9798 3.71997 0
M  V30 3340 H 304.212 -2.11917 2.48513 0
M  V30 3341 H 302.871 -0.333442 3.6508 0
M  V30 3342 H 302.519 -2.74427 4.21544 0
M  V30 3343 H 302.219 -1.6976 5.62544 0
M  V30 3344 H 303.743 -2.62331 5.51375 0
M  V30 3345 H 305.157 -0.361405 5.7216 0
M  V30 3346 H 303.554 0.383316 5.98875 0
M  V30 3347 H 304.624 1.03887 4.73641 0
M  V30 3348 N 305.967 -1.56429 0.191757 0
M  V30 3349 C 307.213 -1.97777 -0.448554 0
M  V30 3350 C 307.546 -1.07847 -1.61501 0
M  V30 3351 O 306.821 -0.129774 -1.94067 0
M  V30 3352 C 307.104 -3.48362 -0.911906 0
M  V30 3353 C 306.957 -4.4907 0.256136 0
M  V30 3354 C 308.276 -4.02561 -1.77857 0
M  V30 3355 H 305.395 -0.719071 -0.161572 0
M  V30 3356 H 308.037 -1.87896 0.282007 0
M  V30 3357 H 306.187 -3.56914 -1.53442 0
M  V30 3358 H 307.859 -4.5256 0.893733 0
M  V30 3359 H 306.102 -4.24181 0.908436 0
M  V30 3360 H 306.773 -5.51889 -0.11053 0
M  V30 3361 H 309.249 -3.96767 -1.25359 0
M  V30 3362 H 308.125 -5.08301 -2.07174 0
M  V30 3363 H 308.386 -3.47616 -2.73158 0
M  V30 3364 N 307.445 0.0818655 -1.57387 0
M  V30 3365 C 308.861 0.436412 -1.53517 0
M  V30 3366 C 309.061 1.79758 -0.910459 0
M  V30 3367 O 308.117 2.47324 -0.508636 0
M  V30 3368 C 309.43 0.386734 -2.98203 0
M  V30 3369 C 310.978 0.467644 -3.09487 0
M  V30 3370 C 311.453 0.447978 -4.55804 0
M  V30 3371 N 312.944 0.508348 -4.60402 0
M  V30 3372 C 313.679 0.515184 -5.71081 0
M  V30 3373 N 313.175 0.477435 -6.91153 0
M  V30 3374 N 314.968 0.560988 -5.59294 0
M  V30 3375 H 307.119 -0.809546 -1.96367 0
M  V30 3376 H 309.382 -0.302733 -0.898363 0
M  V30 3377 H 309.088 -0.546539 -3.47427 0
M  V30 3378 H 308.962 1.20075 -3.57578 0
M  V30 3379 H 311.349 1.39134 -2.60242 0
M  V30 3380 H 311.43 -0.374753 -2.5304 0
M  V30 3381 H 311.074 -0.471826 -5.05704 0
M  V30 3382 H 311.004 1.30777 -5.10103 0
M  V30 3383 H 313.495 0.54218 -3.7399 0
M  V30 3384 H 313.808 0.486299 -7.71268 0
M  V30 3385 H 312.153 0.444278 -6.93579 0
M  V30 3386 H 315.344 0.5881 -4.64391 0
M  V30 3387 H 315.517 0.562846 -6.45551 0
M  V30 3388 N 308.923 1.53595 0.353017 0
M  V30 3389 C 310.171 1.70049 1.09215 0
M  V30 3390 C 310.492 0.461406 1.89463 0
M  V30 3391 O 309.762 -0.524633 1.88744 0
M  V30 3392 H 308.342 0.626912 0.40619 0
M  V30 3393 H 311.004 1.90822 0.396585 0
M  V30 3394 H 310.1 2.56718 1.77488 0
M  V30 3395 N 310.401 -0.613514 1.45168 0
M  V30 3396 C 311.311 -1.75296 1.55912 0
M  V30 3397 C 312.327 -1.68244 0.443856 0
M  V30 3398 O 313.503 -1.88706 0.70371 0
M  V30 3399 C 310.568 -3.1174 1.5172 0
M  V30 3400 C 309.629 -3.30291 2.74238 0
M  V30 3401 C 308.862 -4.60226 2.70236 0
M  V30 3402 O 309.085 -5.42168 1.77229 0
M  V30 3403 O 308.019 -4.81361 3.61352 0
M  V30 3404 H 311.845 -1.69183 2.52212 0
M  V30 3405 H 309.43 -0.776886 1.27612 0
M  V30 3406 H 311.312 -3.93044 1.51968 0
M  V30 3407 H 309.987 -3.18357 0.585697 0
M  V30 3408 H 308.894 -2.48598 2.79553 0
M  V30 3409 H 310.227 -3.28547 3.66494 0
M  V30 3410 N 311.879 -1.3236 -0.855495 0
M  V30 3411 C 313.29 -1.2056 -1.42556 0
M  V30 3412 C 313.641 0.182209 -1.95352 0
M  V30 3413 O 312.766 1.08088 -1.87472 0
M  V30 3414 C 313.361 -2.1826 -2.59129 0
M  V30 3415 C 311.92 -2.10351 -3.12137 0
M  V30 3416 C 311.067 -2.06674 -1.84882 0
M  V30 3417 H 314.018 -1.442 -0.662727 0
M  V30 3418 H 314.039 -1.78064 -3.36264 0
M  V30 3419 H 313.551 -3.19257 -2.20673 0
M  V30 3420 H 311.652 -1.12599 -3.55179 0
M  V30 3421 H 311.765 -3.00135 -3.73438 0
M  V30 3422 H 310.129 -1.51901 -2.04446 0
M  V30 3423 H 310.912 -3.09451 -1.48643 0
M  V30 3424 N 313.357 1.07166 -1.15556 0
M  V30 3425 C 314.305 2.16517 -0.8499 0
M  V30 3426 C 315.299 1.68468 0.177454 0
M  V30 3427 O 316.505 1.79971 0.0323026 0
M  V30 3428 H 312.88 0.706652 -0.25719 0
M  V30 3429 H 314.851 2.39514 -1.77976 0
M  V30 3430 C 313.6 3.45855 -0.357682 0
M  V30 3431 H 312.923 3.83214 -1.13961 0
M  V30 3432 H 314.363 4.23607 -0.182489 0
M  V30 3433 C 312.822 3.24062 0.921152 0
M  V30 3434 O 313.352 3.48813 1.9923 0
M  V30 3435 N 311.558 2.77539 0.86141 0
M  V30 3436 H 311.105 2.57598 -0.0104408 0
M  V30 3437 H 311.063 2.63337 1.71758 0
M  V30 3438 N 314.835 0.952656 1.25548 0
M  V30 3439 C 316.081 0.607272 1.93494 0
M  V30 3440 C 316.414 -0.853245 1.74452 0
M  V30 3441 O 315.689 -1.61194 1.08843 0
M  V30 3442 C 315.972 0.96435 3.46947 0
M  V30 3443 C 315.825 2.48045 3.75225 0
M  V30 3444 C 317.144 0.487987 4.37386 0
M  V30 3445 H 314.263 0.222096 0.702739 0
M  V30 3446 H 316.905 1.18895 1.48203 0
M  V30 3447 H 315.055 0.469361 3.85654 0
M  V30 3448 H 316.727 3.04905 3.46166 0
M  V30 3449 H 314.97 2.919 3.209 0
M  V30 3450 H 315.641 2.6808 4.82532 0
M  V30 3451 H 318.117 0.912558 4.0597 0
M  V30 3452 H 316.993 0.766547 5.43521 0
M  V30 3453 H 317.254 -0.612063 4.37843 0
M  V30 3454 N 316.313 -1.40141 0.720998 0
M  V30 3455 C 317.538 -2.05618 0.271258 0
M  V30 3456 C 317.963 -1.53978 -1.08039 0
M  V30 3457 O 317.321 -0.677463 -1.68167 0
M  V30 3458 C 317.369 -3.59609 0.267197 0
M  V30 3459 O 316.473 -4.05526 -0.749814 0
M  V30 3460 H 315.814 -0.651904 0.126162 0
M  V30 3461 H 318.344 -1.79439 0.982997 0
M  V30 3462 H 318.354 -4.0786 0.106744 0
M  V30 3463 H 317.029 -3.96559 1.25354 0
M  V30 3464 H 315.606 -3.68722 -0.556644 0
M  V30 3465 N 317.792 -0.46758 -1.50504 0
M  V30 3466 C 319.022 0.086288 -2.0642 0
M  V30 3467 C 319.43 1.34369 -1.33197 0
M  V30 3468 O 318.773 1.79431 -0.393747 0
M  V30 3469 C 318.835 0.443846 -3.5675 0
M  V30 3470 C 318.499 -0.711035 -4.51435 0
M  V30 3471 C 319.496 -1.59205 -4.94924 0
M  V30 3472 C 317.181 -0.900363 -4.94165 0
M  V30 3473 C 319.175 -2.64683 -5.79846 0
M  V30 3474 C 316.862 -1.95837 -5.7887 0
M  V30 3475 C 317.86 -2.82997 -6.21612 0
M  V30 3476 O 317.548 -3.86977 -7.0463 0
M  V30 3477 H 317.28 -0.00217814 -0.675996 0
M  V30 3478 H 319.834 -0.654346 -1.94698 0
M  V30 3479 H 318.064 1.23762 -3.6636 0
M  V30 3480 H 319.753 0.932386 -3.95046 0
M  V30 3481 H 320.519 -1.45745 -4.62583 0
M  V30 3482 H 316.398 -0.231427 -4.60419 0
M  V30 3483 H 319.942 -3.32745 -6.13128 0
M  V30 3484 H 315.839 -2.09305 -6.10624 0
M  V30 3485 H 316.607 -3.83923 -7.22873 0
M  V30 3486 N 319.27 1.56325 -0.20005 0
M  V30 3487 C 320.519 1.96895 0.437652 0
M  V30 3488 C 320.832 1.08999 1.62415 0
M  V30 3489 O 322.038 1.39372 2.32997 0
M  V30 3490 C 320.494 3.50198 0.830025 0
M  V30 3491 C 320.102 4.46765 -0.332461 0
M  V30 3492 C 321.846 3.99526 1.43453 0
M  V30 3493 C 319.753 5.91344 0.0811468 0
M  V30 3494 H 318.683 0.735209 0.167282 0
M  V30 3495 H 321.334 1.81148 -0.292853 0
M  V30 3496 H 319.716 3.61467 1.61734 0
M  V30 3497 H 320.89 4.47231 -1.11 0
M  V30 3498 H 319.205 4.07657 -0.848789 0
M  V30 3499 H 321.802 5.05025 1.75652 0
M  V30 3500 H 322.145 3.44122 2.34277 0
M  V30 3501 H 322.678 3.91393 0.71109 0
M  V30 3502 H 319.417 6.50685 -0.793033 0
M  V30 3503 H 318.937 5.94121 0.823445 0
M  V30 3504 H 320.616 6.44945 0.515252 0
M  V30 3505 N 320.748 -0.0735177 1.57428 0
M  V30 3506 C 321.988 -0.778363 1.89 0
M  V30 3507 C 322.352 -1.7483 0.793634 0
M  V30 3508 O 323.553 -2.49811 0.992367 0
M  V30 3509 C 321.824 -1.46929 3.25802 0
M  V30 3510 S 323.383 -2.20943 3.79117 0
M  V30 3511 H 320.201 -0.258874 0.662197 0
M  V30 3512 H 322.803 -0.0345338 1.95469 0
M  V30 3513 H 321.507 -0.749532 4.03497 0
M  V30 3514 H 321.038 -2.25258 3.22525 0
M  V30 3515 H 323.053 -3.47435 3.54265 0
M  V30 3516 N 322.226 -1.5378 -0.344866 0
M  V30 3517 C 323.451 -1.75211 -1.10977 0
M  V30 3518 C 323.876 -0.48936 -1.81623 0
M  V30 3519 O 323.234 0.557925 -1.72502 0
M  V30 3520 C 323.282 -2.93147 -2.09993 0
M  V30 3521 O 322.386 -2.63203 -3.17487 0
M  V30 3522 H 321.727 -0.581241 -0.321021 0
M  V30 3523 H 324.257 -2.00738 -0.395661 0
M  V30 3524 H 324.267 -3.19898 -2.53237 0
M  V30 3525 H 322.942 -3.84731 -1.5797 0
M  V30 3526 H 321.519 -2.47336 -2.79069 0
M  V30 3527 N 323.704 0.605807 -1.45491 0
M  V30 3528 C 325.12 0.926751 -1.29936 0
M  V30 3529 C 325.32 1.99896 -0.253706 0
M  V30 3530 O 324.376 2.50038 0.351737 0
M  V30 3531 C 325.689 1.36599 -2.67883 0
M  V30 3532 C 327.237 1.4801 -2.75793 0
M  V30 3533 C 327.712 1.95309 -4.14268 0
M  V30 3534 N 329.203 2.0254 -4.16571 0
M  V30 3535 C 329.938 2.40363 -5.20589 0
M  V30 3536 N 329.434 2.77143 -6.34952 0
M  V30 3537 N 331.227 2.40718 -5.07948 0
M  V30 3538 H 323.378 -0.102862 -2.12151 0
M  V30 3539 H 325.641 0.016639 -0.947854 0
M  V30 3540 H 325.347 0.652306 -3.45598 0
M  V30 3541 H 325.221 2.33215 -2.96463 0
M  V30 3542 H 327.608 2.1847 -1.98381 0
M  V30 3543 H 327.689 0.497041 -2.50925 0
M  V30 3544 H 327.333 1.25436 -4.92167 0
M  V30 3545 H 327.263 2.94532 -4.3653 0
M  V30 3546 H 329.754 1.76699 -3.34045 0
M  V30 3547 H 330.067 3.0489 -7.10114 0
M  V30 3548 H 328.412 2.74834 -6.3835 0
M  V30 3549 H 331.603 2.11392 -4.1765 0
M  V30 3550 H 331.776 2.69869 -5.89131 0
M  V30 3551 N 325.182 1.32811 0.848464 0
M  V30 3552 C 326.412 1.26556 1.63301 0
M  V30 3553 C 326.82 -0.1676 1.88456 0
M  V30 3554 O 326.163 -1.11713 1.45828 0
M  V30 3555 C 326.225 1.96202 3.01239 0
M  V30 3556 C 325.889 3.45528 2.99098 0
M  V30 3557 C 326.886 4.40903 2.75501 0
M  V30 3558 C 324.571 3.87558 3.19537 0
M  V30 3559 C 326.565 5.76282 2.72356 0
M  V30 3560 C 324.252 5.23044 3.16019 0
M  V30 3561 C 325.25 6.17217 2.92458 0
M  V30 3562 O 324.938 7.50223 2.88825 0
M  V30 3563 H 324.67 0.43771 0.515156 0
M  V30 3564 H 327.224 1.7559 1.0657 0
M  V30 3565 H 325.454 1.41746 3.59785 0
M  V30 3566 H 327.143 1.83573 3.62016 0
M  V30 3567 H 327.909 4.09756 2.5947 0
M  V30 3568 H 323.788 3.14674 3.369 0
M  V30 3569 H 327.332 6.4976 2.53886 0
M  V30 3570 H 323.229 5.53818 3.31596 0
M  V30 3571 H 323.997 7.59657 3.04735 0
M  V30 3572 N 326.66 -1.06551 1.16123 0
M  V30 3573 C 327.89 -1.8274 0.963838 0
M  V30 3574 C 328.298 -1.82712 -0.491228 0
M  V30 3575 O 327.641 -1.24294 -1.35265 0
M  V30 3576 C 327.703 -3.3065 1.41106 0
M  V30 3577 C 327.367 -3.54384 2.88549 0
M  V30 3578 C 328.364 -3.4765 3.86569 0
M  V30 3579 C 326.049 -3.81789 3.26408 0
M  V30 3580 C 328.043 -3.67982 5.2045 0
M  V30 3581 C 325.73 -4.01772 4.60459 0
M  V30 3582 C 326.728 -3.94866 5.57288 0
M  V30 3583 O 326.416 -4.14306 6.88916 0
M  V30 3584 H 326.148 -0.583136 0.341948 0
M  V30 3585 H 328.702 -1.35351 1.54497 0
M  V30 3586 H 326.932 -3.78887 0.773394 0
M  V30 3587 H 328.621 -3.88324 1.1815 0
M  V30 3588 H 329.387 -3.2647 3.58667 0
M  V30 3589 H 325.266 -3.86276 2.51619 0
M  V30 3590 H 328.81 -3.62507 5.96015 0
M  V30 3591 H 324.707 -4.2244 4.88072 0
M  V30 3592 H 325.475 -4.31609 6.95454 0
M  V30 3593 N 328.138 -0.959301 -1.25041 0
M  V30 3594 C 329.554 -0.664474 -1.4511 0
M  V30 3595 C 329.754 0.776481 -1.85938 0
M  V30 3596 O 328.81 1.55128 -1.99227 0
M  V30 3597 C 330.123 -1.64139 -2.5195 0
M  V30 3598 C 331.671 -1.65309 -2.65786 0
M  V30 3599 C 332.146 -2.61777 -3.75815 0
M  V30 3600 N 333.637 -2.60169 -3.83231 0
M  V30 3601 C 334.372 -3.31489 -4.6787 0
M  V30 3602 N 333.868 -4.12298 -5.56761 0
M  V30 3603 N 335.661 -3.20354 -4.61876 0
M  V30 3604 H 327.812 -1.89043 -0.968332 0
M  V30 3605 H 330.075 -0.813408 -0.4869 0
M  V30 3606 H 329.781 -2.67086 -2.28819 0
M  V30 3607 H 329.655 -1.40756 -3.49954 0
M  V30 3608 H 332.042 -0.630778 -2.8828 0
M  V30 3609 H 332.123 -1.92753 -1.68167 0
M  V30 3610 H 331.767 -3.64137 -3.54071 0
M  V30 3611 H 331.697 -2.31616 -4.72929 0
M  V30 3612 H 334.188 -2.01507 -3.19692 0
M  V30 3613 H 334.501 -4.63625 -6.18281 0
M  V30 3614 H 332.846 -4.16395 -5.56454 0
M  V30 3615 H 336.037 -2.56692 -3.91442 0
M  V30 3616 H 336.21 -3.76201 -5.27614 0
M  V30 3617 N 329.616 1.39756 -0.72842 0
M  V30 3618 C 330.579 2.29012 -0.0927297 0
M  V30 3619 C 331.579 1.45992 0.674025 0
M  V30 3620 O 332.769 1.66749 0.50402 0
M  V30 3621 C 329.901 3.29396 0.878137 0
M  V30 3622 H 331.094 2.86729 -0.879011 0
M  V30 3623 H 328.647 1.48293 -0.493847 0
M  V30 3624 H 329.382 2.76722 1.69101 0
M  V30 3625 H 329.167 3.907 0.331051 0
M  V30 3626 H 330.657 3.96199 1.3197 0
M  V30 3627 N 331.094 0.475555 1.50254 0
M  V30 3628 C 332.505 0.0215174 1.86688 0
M  V30 3629 C 332.856 -1.38467 1.39001 0
M  V30 3630 O 331.981 -2.02732 0.756894 0
M  V30 3631 C 332.576 0.0322715 3.38785 0
M  V30 3632 C 331.135 -0.366314 3.74613 0
M  V30 3633 C 330.282 0.415832 2.74164 0
M  V30 3634 H 333.233 0.689612 1.42934 0
M  V30 3635 H 333.254 -0.76889 3.7265 0
M  V30 3636 H 332.766 1.05584 3.73462 0
M  V30 3637 H 330.867 -1.39406 3.45538 0
M  V30 3638 H 330.98 -0.064555 4.79057 0
M  V30 3639 H 329.344 -0.131048 2.54363 0
M  V30 3640 H 330.127 1.43899 3.11686 0
M  V30 3641 N 332.573 -1.56217 0.208337 0
M  V30 3642 C 333.483 -2.23316 -0.718836 0
M  V30 3643 C 334.499 -1.23648 -1.22422 0
M  V30 3644 O 335.675 -1.56423 -1.26861 0
M  V30 3645 C 332.74 -2.88968 -1.91568 0
M  V30 3646 C 331.801 -4.03943 -1.45357 0
M  V30 3647 C 331.034 -4.66455 -2.59337 0
M  V30 3648 O 331.257 -4.27919 -3.77149 0
M  V30 3649 O 330.191 -5.55686 -2.31293 0
M  V30 3650 H 334.017 -3.03182 -0.177315 0
M  V30 3651 H 331.602 -1.49384 -0.0215402 0
M  V30 3652 H 333.484 -3.30455 -2.61491 0
M  V30 3653 H 332.159 -2.12071 -2.44556 0
M  V30 3654 H 331.066 -3.67052 -0.722746 0
M  V30 3655 H 332.399 -4.82543 -0.970219 0
M  V30 3656 N 334.051 0.0651679 -1.57465 0
M  V30 3657 C 334.981 1.07693 -2.07182 0
M  V30 3658 C 335.962 1.39962 -0.966673 0
M  V30 3659 O 337.147 1.49475 -1.2398 0
M  V30 3660 C 334.277 2.3885 -2.52127 0
M  V30 3661 C 333.231 2.20917 -3.66579 0
M  V30 3662 C 332.557 3.57515 -3.97601 0
M  V30 3663 C 333.857 1.62493 -4.9638 0
M  V30 3664 H 335.551 0.663199 -2.91962 0
M  V30 3665 H 333.097 0.317569 -1.40455 0
M  V30 3666 H 335.05 3.09928 -2.85522 0
M  V30 3667 H 333.774 2.82215 -1.64384 0
M  V30 3668 H 332.433 1.52279 -3.33477 0
M  V30 3669 H 332.081 3.98463 -3.06979 0
M  V30 3670 H 331.781 3.46353 -4.74672 0
M  V30 3671 H 333.305 4.30013 -4.33499 0
M  V30 3672 H 334.719 2.23445 -5.27963 0
M  V30 3673 H 333.116 1.62009 -5.77818 0
M  V30 3674 H 334.186 0.587041 -4.81333 0
M  V30 3675 N 335.529 1.53961 0.336706 0
M  V30 3676 C 336.778 1.70751 1.07363 0
M  V30 3677 C 337.091 0.481061 1.89592 0
M  V30 3678 O 338.297 0.530046 2.66276 0
M  V30 3679 C 336.753 3.01965 1.95818 0
M  V30 3680 C 336.361 4.31971 1.18764 0
M  V30 3681 C 338.105 3.28121 2.69327 0
M  V30 3682 C 336.012 5.54255 2.06289 0
M  V30 3683 H 334.942 0.636292 0.404535 0
M  V30 3684 H 337.593 1.80459 0.332681 0
M  V30 3685 H 335.975 2.86132 2.7376 0
M  V30 3686 H 337.149 4.5853 0.456849 0
M  V30 3687 H 335.464 4.12481 0.569946 0
M  V30 3688 H 338.061 4.16673 3.35094 0
M  V30 3689 H 338.404 2.45426 3.36261 0
M  V30 3690 H 338.937 3.44762 1.98454 0
M  V30 3691 H 335.676 6.39513 1.43885 0
M  V30 3692 H 335.196 5.31935 2.77138 0
M  V30 3693 H 336.875 5.90159 2.65182 0
M  V30 3694 N 337.007 -0.598083 1.45811 0
M  V30 3695 C 338.254 -1.35681 1.50323 0
M  V30 3696 C 338.582 -1.9393 0.148739 0
M  V30 3697 O 337.837 -1.76094 -0.853787 0
M  V30 3698 C 338.136 -2.51669 2.53766 0
M  V30 3699 C 337.802 -2.11508 3.98215 0
M  V30 3700 C 336.464 -2.0027 4.37545 0
M  V30 3701 C 338.816 -1.80308 4.89018 0
M  V30 3702 C 336.144 -1.56067 5.65562 0
M  V30 3703 C 338.496 -1.37589 6.17456 0
M  V30 3704 C 337.16 -1.24916 6.55708 0
M  V30 3705 H 336.43 -0.496492 0.550069 0
M  V30 3706 H 339.077 -0.675052 1.79207 0
M  V30 3707 H 337.382 -3.25225 2.18486 0
M  V30 3708 H 339.079 -3.09895 2.54492 0
M  V30 3709 H 335.669 -2.21185 3.67117 0
M  V30 3710 H 339.853 -1.87884 4.59362 0
M  V30 3711 H 335.109 -1.44886 5.93985 0
M  V30 3712 H 339.283 -1.12495 6.87254 0
M  V30 3713 H 336.91 -0.904386 7.54801 0
M  V30 3714 N 338.485 -1.33259 -0.841409 0
M  V30 3715 C 339.733 -1.24326 -1.59334 0
M  V30 3716 C 340.054 0.191564 -1.94057 0
M  V30 3717 O 339.324 1.11967 -1.60749 0
M  V30 3718 H 337.904 -0.457174 -0.590763 0
M  V30 3719 H 340.566 -1.66947 -1.00571 0
M  V30 3720 H 339.662 -1.8352 -2.52442 0
M  V30 3721 N 339.963 1.05934 -1.16686 0
M  V30 3722 C 340.926 2.11669 -0.879144 0
M  V30 3723 C 341.926 1.60294 0.127445 0
M  V30 3724 O 343.116 1.7389 -0.103865 0
M  V30 3725 C 340.248 3.39438 -0.315425 0
M  V30 3726 H 341.441 2.38626 -1.81653 0
M  V30 3727 H 338.994 1.22058 -0.976299 0
M  V30 3728 H 339.729 3.18132 0.629468 0
M  V30 3729 H 339.514 3.78034 -1.04079 0
M  V30 3730 H 341.004 4.17391 -0.132189 0
M  V30 3731 N 341.441 0.965919 1.2453 0
M  V30 3732 C 342.669 0.644385 1.96609 0
M  V30 3733 C 343.084 -0.785823 1.71669 0
M  V30 3734 O 342.441 -1.52703 0.999399 0
M  V30 3735 C 342.492 0.907375 3.49927 0
M  V30 3736 O 342.213 2.28136 3.74013 0
M  V30 3737 C 343.714 0.599784 4.39224 0
M  V30 3738 H 340.934 0.240588 0.626385 0
M  V30 3739 H 343.478 1.29337 1.58405 0
M  V30 3740 H 341.633 0.304631 3.862 0
M  V30 3741 H 342.047 2.36002 4.68405 0
M  V30 3742 H 343.521 0.834263 5.45659 0
M  V30 3743 H 343.998 -0.465921 4.36722 0
M  V30 3744 H 344.604 1.18235 4.08535 0
M  V30 3745 N 342.919 -1.39368 0.735821 0
M  V30 3746 C 344.196 -1.94465 0.210395 0
M  V30 3747 C 344.576 -1.67254 -1.28799 0
M  V30 3748 O 343.924 -1.00123 -2.05396 0
M  V30 3749 C 344.134 -3.4472 0.544897 0
M  V30 3750 C 345.482 -4.21708 0.494689 0
M  V30 3751 O 346.506 -3.52922 0.482136 0
M  V30 3752 O 345.365 -5.44299 0.489947 0
M  V30 3753 H 342.459 -0.826096 0.0386666 0
M  V30 3754 H 345.005 -1.48863 0.814735 0
M  V30 3755 H 343.777 -3.57963 1.58045 0
M  V30 3756 H 343.4 -3.97502 -0.08837 0
M  V30 3757 N 344.397 -0.483516 -1.5 0
M  V30 3758 C 345.627 0.0643896 -2.065 0
M  V30 3759 C 346.035 1.32949 -1.34615 0
M  V30 3760 O 345.378 1.79003 -0.412756 0
M  V30 3761 C 345.44 0.405983 -3.572 0
M  V30 3762 C 345.104 -0.758875 -4.50655 0
M  V30 3763 C 346.101 -1.64445 -4.93208 0
M  V30 3764 C 343.786 -0.952725 -4.93182 0
M  V30 3765 C 345.78 -2.70818 -5.77006 0
M  V30 3766 C 343.467 -2.01966 -5.76761 0
M  V30 3767 C 344.465 -2.89574 -6.18576 0
M  V30 3768 O 344.153 -3.94429 -7.00486 0
M  V30 3769 H 343.885 -0.00934786 -0.675935 0
M  V30 3770 H 346.439 -0.674959 -1.93993 0
M  V30 3771 H 344.669 1.19869 -3.67652 0
M  V30 3772 H 346.358 0.890433 -3.96013 0
M  V30 3773 H 347.124 -1.50643 -4.61012 0
M  V30 3774 H 343.003 -0.280247 -4.60147 0
M  V30 3775 H 346.547 -3.3923 -6.09565 0
M  V30 3776 H 342.444 -2.1577 -6.0837 0
M  V30 3777 H 343.212 -3.91568 -7.1876 0
M  V30 3778 N 345.875 1.56104 -0.216619 0
M  V30 3779 C 347.103 2.02563 0.421413 0
M  V30 3780 C 347.518 1.0965 1.53695 0
M  V30 3781 O 346.875 0.10521 1.82196 0
M  V30 3782 C 346.926 3.48584 0.957665 0
M  V30 3783 O 346.647 4.37953 -0.113389 0
M  V30 3784 C 348.148 4.10664 1.66943 0
M  V30 3785 H 345.368 0.662944 0.103665 0
M  V30 3786 H 347.912 2.01793 -0.331629 0
M  V30 3787 H 346.067 3.49985 1.661 0
M  V30 3788 H 346.481 5.23704 0.288932 0
M  V30 3789 H 347.955 5.14622 1.99671 0
M  V30 3790 H 348.432 3.55373 2.58083 0
M  V30 3791 H 349.038 4.13098 1.01142 0
M  V30 3792 N 347.353 -0.0568162 1.57498 0
M  V30 3793 C 348.578 -0.769402 1.92601 0
M  V30 3794 C 349.003 -1.69559 0.814336 0
M  V30 3795 O 348.361 -1.79811 -0.231903 0
M  V30 3796 C 348.409 -1.52634 3.26704 0
M  V30 3797 O 347.513 -2.63797 3.16994 0
M  V30 3798 H 346.854 -0.208909 0.63028 0
M  V30 3799 H 349.384 -0.0205798 2.0459 0
M  V30 3800 H 349.394 -1.90234 3.60936 0
M  V30 3801 H 348.069 -0.846875 4.07186 0
M  V30 3802 H 346.646 -2.28943 2.94346 0
M  V30 3803 N 348.832 -1.54138 -0.328536 0
M  V30 3804 C 350.057 -1.76378 -1.09112 0
M  V30 3805 C 350.482 -0.508596 -1.81094 0
M  V30 3806 O 349.84 0.539598 -1.73084 0
M  V30 3807 C 349.888 -2.95358 -2.06872 0
M  V30 3808 O 348.992 -2.66556 -3.14677 0
M  V30 3809 H 348.333 -0.584614 -0.314838 0
M  V30 3810 H 350.863 -2.01146 -0.374348 0
M  V30 3811 H 350.873 -3.22566 -2.4983 0
M  V30 3812 H 349.548 -3.86385 -1.5388 0
M  V30 3813 H 348.125 -2.50282 -2.7643 0
M  V30 3814 N 350.31 0.590341 -1.46126 0
M  V30 3815 C 351.559 1.34499 -1.50309 0
M  V30 3816 C 351.872 1.94977 -0.156021 0
M  V30 3817 O 353.078 2.71395 -0.0756037 0
M  V30 3818 C 351.534 2.43723 -2.64815 0
M  V30 3819 C 351.142 1.89582 -4.0591 0
M  V30 3820 C 352.886 3.20579 -2.78262 0
M  V30 3821 C 350.793 2.9639 -5.11769 0
M  V30 3822 H 349.723 0.505593 -0.559368 0
M  V30 3823 H 352.374 0.630848 -1.72315 0
M  V30 3824 H 350.756 3.17902 -2.36124 0
M  V30 3825 H 351.93 1.21997 -4.44357 0
M  V30 3826 H 350.245 1.25418 -3.97063 0
M  V30 3827 H 352.842 4.00276 -3.54519 0
M  V30 3828 H 353.185 3.72684 -1.85505 0
M  V30 3829 H 353.718 2.53505 -3.06562 0
M  V30 3830 H 350.457 2.49181 -6.06291 0
M  V30 3831 H 349.977 3.62487 -4.77873 0
M  V30 3832 H 351.656 3.60474 -5.37278 0
M  V30 3833 N 351.788 1.33704 0.83433 0
M  V30 3834 C 353.065 1.16011 1.57483 0
M  V30 3835 C 353.445 -0.27176 2.09343 0
M  V30 3836 O 352.793 -1.27146 1.89858 0
M  V30 3837 C 353.003 2.20507 2.70514 0
M  V30 3838 C 354.351 2.54898 3.39577 0
M  V30 3839 O 355.375 2.19209 2.80759 0
M  V30 3840 O 354.234 3.16158 4.45765 0
M  V30 3841 H 351.328 0.448992 0.694503 0
M  V30 3842 H 353.874 1.453 0.876691 0
M  V30 3843 H 352.646 3.16667 2.29865 0
M  V30 3844 H 352.269 1.92329 3.47987 0
M  V30 3845 N 353.266 -1.05314 1.17247 0
M  V30 3846 C 354.512 -1.78557 0.961513 0
M  V30 3847 C 354.845 -1.87419 -0.508697 0
M  V30 3848 O 354.12 -1.37307 -1.37757 0
M  V30 3849 C 354.403 -3.22514 1.60176 0
M  V30 3850 C 354.256 -3.21673 3.14399 0
M  V30 3851 C 355.575 -4.20318 1.30463 0
M  V30 3852 H 352.694 -0.6482 0.350723 0
M  V30 3853 H 355.336 -1.23102 1.44727 0
M  V30 3854 H 353.486 -3.69867 1.18871 0
M  V30 3855 H 355.158 -2.82405 3.64753 0
M  V30 3856 H 353.401 -2.60048 3.47214 0
M  V30 3857 H 354.072 -4.23271 3.54324 0
M  V30 3858 H 356.548 -3.81454 1.66229 0
M  V30 3859 H 355.424 -5.19289 1.77848 0
M  V30 3860 H 355.685 -4.41526 0.22521 0
M  V30 3861 N 354.744 -0.972509 -1.24016 0
M  V30 3862 C 355.99 -0.647583 -1.92816 0
M  V30 3863 C 356.345 0.809015 -1.74564 0
M  V30 3864 O 355.638 1.57502 -1.09103 0
M  V30 3865 C 355.832 -0.963694 -3.44162 0
M  V30 3866 C 355.661 -2.44947 -3.77135 0
M  V30 3867 C 354.431 -3.11012 -3.98246 0
M  V30 3868 C 356.629 -3.42978 -3.83237 0
M  V30 3869 N 354.611 -4.49277 -4.18358 0
M  V30 3870 C 355.982 -4.66619 -4.08248 0
M  V30 3871 C 358.037 -3.37569 -3.65994 0
M  V30 3872 C 356.74 -5.85516 -4.17808 0
M  V30 3873 C 358.766 -4.55822 -3.76802 0
M  V30 3874 C 358.128 -5.78256 -4.02243 0
M  V30 3875 H 354.227 -0.287894 -0.727077 0
M  V30 3876 H 356.811 -1.24835 -1.49413 0
M  V30 3877 H 354.982 -0.391692 -3.8642 0
M  V30 3878 H 356.714 -0.596849 -4.00275 0
M  V30 3879 H 353.469 -2.61529 -3.94841 0
M  V30 3880 H 353.893 -5.20935 -4.32384 0
M  V30 3881 H 358.535 -2.43945 -3.45327 0
M  V30 3882 H 356.253 -6.79564 -4.37285 0
M  V30 3883 H 359.839 -4.53204 -3.64825 0
M  V30 3884 H 358.719 -6.68231 -4.10411 0
M  V30 3885 N 356.222 1.38976 -0.743202 0
M  V30 3886 C 357.447 2.05161 -0.303936 0
M  V30 3887 C 357.872 1.55677 1.05576 0
M  V30 3888 O 357.23 0.704131 1.67068 0
M  V30 3889 C 357.278 3.59138 -0.324373 0
M  V30 3890 O 356.382 4.06668 0.685204 0
M  V30 3891 H 355.723 0.649815 -0.136518 0
M  V30 3892 H 358.253 1.77852 -1.01142 0
M  V30 3893 H 358.263 4.07639 -0.171618 0
M  V30 3894 H 356.938 3.94515 -1.31647 0
M  V30 3895 H 355.515 3.69561 0.497913 0
M  V30 3896 N 357.7 0.491464 1.49741 0
M  V30 3897 C 358.663 -0.280906 2.27472 0
M  V30 3898 C 359.663 -0.902454 1.33088 0
M  V30 3899 O 360.853 -0.768465 1.56334 0
M  V30 3900 C 357.985 -1.40209 3.10732 0
M  V30 3901 H 359.178 0.401056 2.97206 0
M  V30 3902 H 356.731 0.246131 1.5435 0
M  V30 3903 H 357.466 -2.11849 2.45541 0
M  V30 3904 H 357.251 -0.961969 3.80117 0
M  V30 3905 H 358.741 -1.9464 3.69466 0
M  V30 3906 N 359.178 -1.55987 0.224894 0
M  V30 3907 C 360.426 -1.97998 -0.405099 0
M  V30 3908 C 360.747 -1.11387 -1.60056 0
M  V30 3909 O 360.017 -0.191645 -1.9496 0
M  V30 3910 H 358.597 -0.731235 -0.152658 0
M  V30 3911 H 361.259 -1.92279 0.318567 0
M  V30 3912 H 360.355 -3.03463 -0.729167 0
M  V30 3913 N 360.656 0.0484629 -1.57525 0
M  V30 3914 C 361.896 0.748196 -1.90214 0
M  V30 3915 C 362.26 1.73545 -0.821347 0
M  V30 3916 O 363.461 2.48201 -1.03198 0
M  V30 3917 C 361.732 1.41727 -3.28098 0
M  V30 3918 S 363.291 2.14884 -3.82584 0
M  V30 3919 H 360.109 0.248307 -0.666232 0
M  V30 3920 H 362.711 0.00343188 -1.955 0
M  V30 3921 H 361.415 0.685244 -4.04639 0
M  V30 3922 H 360.946 2.20099 -3.26068 0
M  V30 3923 H 362.961 3.41755 -3.59747 0
M  V30 3924 N 362.134 1.5431 0.320358 0
M  V30 3925 C 363.38 1.72924 1.05949 0
M  V30 3926 C 363.713 0.503185 1.87568 0
M  V30 3927 O 362.988 -0.499839 1.87968 0
M  V30 3928 C 363.271 3.00676 1.98156 0
M  V30 3929 C 363.124 4.3354 1.19845 0
M  V30 3930 C 364.443 3.24198 2.9763 0
M  V30 3931 H 361.562 0.629195 0.383774 0
M  V30 3932 H 364.204 1.87008 0.335854 0
M  V30 3933 H 362.354 2.888 2.59859 0
M  V30 3934 H 364.026 4.57305 0.605773 0
M  V30 3935 H 362.269 4.309 0.500784 0
M  V30 3936 H 362.94 5.19156 1.87567 0
M  V30 3937 H 365.416 3.35557 2.4605 0
M  V30 3938 H 364.292 4.14938 3.59329 0
M  V30 3939 H 364.553 2.41577 3.7026 0
M  V30 3940 N 363.613 -0.582584 1.46437 0
M  V30 3941 C 364.543 -1.70187 1.59871 0
M  V30 3942 C 365.524 -1.64066 0.449042 0
M  V30 3943 O 366.709 -1.82081 0.6753 0
M  V30 3944 C 363.839 -3.08827 1.58881 0
M  V30 3945 C 362.793 -3.29779 2.72819 0
M  V30 3946 C 362.119 -4.68947 2.5689 0
M  V30 3947 C 363.419 -3.17601 4.1464 0
M  V30 3948 H 365.113 -1.592 2.53566 0
M  V30 3949 H 362.659 -0.764472 1.22032 0
M  V30 3950 H 364.612 -3.86951 1.66873 0
M  V30 3951 H 363.336 -3.20713 0.617306 0
M  V30 3952 H 361.995 -2.54054 2.64296 0
M  V30 3953 H 361.643 -4.77599 1.57823 0
M  V30 3954 H 361.343 -4.83919 3.33312 0
M  V30 3955 H 362.867 -5.4924 2.66773 0
M  V30 3956 H 364.281 -3.8557 4.24274 0
M  V30 3957 H 362.678 -3.44094 4.9165 0
M  V30 3958 H 363.748 -2.14681 4.34788 0
M  V30 3959 N 365.091 -1.34144 -0.827227 0
M  V30 3960 C 366.054 -1.25264 -1.91942 0
M  V30 3961 C 367.054 -0.168866 -1.59911 0
M  V30 3962 O 368.244 -0.421198 -1.69031 0
M  V30 3963 C 365.376 -0.932952 -3.27885 0
M  V30 3964 H 366.569 -2.22357 -2.0124 0
M  V30 3965 H 364.122 -1.1837 -1.0207 0
M  V30 3966 H 364.857 0.0349917 -3.24281 0
M  V30 3967 H 364.642 -1.71682 -3.52516 0
M  V30 3968 H 366.132 -0.895874 -4.07877 0
M  V30 3969 N 366.569 1.04691 -1.17803 0
M  V30 3970 C 367.479 2.16057 -0.914151 0
M  V30 3971 C 368.495 1.73589 0.119503 0
M  V30 3972 O 369.671 2.01308 -0.0609468 0
M  V30 3973 C 366.736 3.4394 -0.436603 0
M  V30 3974 C 365.797 4.00825 -1.53746 0
M  V30 3975 C 365.03 5.22604 -1.0826 0
M  V30 3976 O 365.253 5.70367 0.0612244 0
M  V30 3977 O 364.187 5.7186 -1.87775 0
M  V30 3978 H 368.013 2.41169 -1.84584 0
M  V30 3979 H 365.598 1.1453 -0.959334 0
M  V30 3980 H 367.48 4.21024 -0.178057 0
M  V30 3981 H 366.155 3.20316 0.466869 0
M  V30 3982 H 365.062 3.25158 -1.84995 0
M  V30 3983 H 366.395 4.28778 -2.41683 0
M  V30 3984 N 368.047 0.979072 1.23499 0
M  V30 3985 C 368.977 0.537606 2.27227 0
M  V30 3986 C 369.958 -0.428539 1.64613 0
M  V30 3987 O 371.143 -0.322191 1.91509 0
M  V30 3988 C 368.273 -0.162052 3.46922 0
M  V30 3989 C 367.227 0.721242 4.21879 0
M  V30 3990 C 366.553 -0.110555 5.34586 0
M  V30 3991 C 367.853 2.01141 4.82016 0
M  V30 3992 H 369.547 1.40462 2.64406 0
M  V30 3993 H 367.093 0.67684 1.27102 0
M  V30 3994 H 369.046 -0.482192 4.18632 0
M  V30 3995 H 367.77 -1.06351 3.08799 0
M  V30 3996 H 366.429 1.02482 3.51984 0
M  V30 3997 H 366.077 -1.0125 4.92704 0
M  V30 3998 H 365.777 0.477325 5.85658 0
M  V30 3999 H 367.301 -0.425107 6.09118 0
M  V30 4000 H 368.715 1.75612 5.45741 0
M  V30 4001 H 367.112 2.54695 5.43369 0
M  V30 4002 H 368.182 2.69909 4.02836 0
M  V30 4003 N 369.525 -1.3858 0.750561 0
M  V30 4004 C 370.455 -2.33102 0.136237 0
M  V30 4005 C 371.436 -1.54713 -0.706965 0
M  V30 4006 O 372.621 -1.83043 -0.648769 0
M  V30 4007 C 369.751 -3.38882 -0.760017 0
M  V30 4008 C 368.705 -4.27995 -0.0197785 0
M  V30 4009 C 368.031 -5.24605 -1.03408 0
M  V30 4010 C 369.331 -5.09554 1.14684 0
M  V30 4011 H 371.025 -2.84726 0.925822 0
M  V30 4012 H 368.571 -1.36898 0.446654 0
M  V30 4013 H 370.524 -4.0397 -1.19943 0
M  V30 4014 H 369.248 -2.85734 -1.58189 0
M  V30 4015 H 367.907 -3.64409 0.400184 0
M  V30 4016 H 367.555 -4.67746 -1.84994 0
M  V30 4017 H 367.255 -5.85081 -0.543464 0
M  V30 4018 H 368.779 -5.9257 -1.47288 0
M  V30 4019 H 370.193 -5.67899 0.785118 0
M  V30 4020 H 368.59 -5.7925 1.56812 0
M  V30 4021 H 369.66 -4.4347 1.96118 0
M  V30 4022 N 371.003 -0.499398 -1.49478 0
M  V30 4023 C 371.933 0.269244 -2.31943 0
M  V30 4024 C 372.914 0.964054 -1.40143 0
M  V30 4025 O 374.099 0.955767 -1.69052 0
M  V30 4026 C 371.229 1.33504 -3.20615 0
M  V30 4027 C 370.183 0.760202 -4.21195 0
M  V30 4028 C 369.509 1.9264 -4.98792 0
M  V30 4029 C 370.809 -0.247661 -5.21712 0
M  V30 4030 H 372.503 -0.419082 -2.96452 0
M  V30 4031 H 370.049 -0.202988 -1.42562 0
M  V30 4032 H 372.002 1.88048 -3.77115 0
M  V30 4033 H 370.726 2.05253 -2.54045 0
M  V30 4034 H 369.385 0.23653 -3.65836 0
M  V30 4035 H 369.033 2.63154 -4.28671 0
M  V30 4036 H 368.733 1.54785 -5.66847 0
M  V30 4037 H 370.257 2.4762 -5.58137 0
M  V30 4038 H 371.671 0.209579 -5.72917 0
M  V30 4039 H 370.068 -0.541962 -5.97648 0
M  V30 4040 H 371.138 -1.16409 -4.7072 0
M  V30 4041 N 372.481 1.55866 -0.233164 0
M  V30 4042 C 373.729 1.9821 0.394593 0
M  V30 4043 C 374.05 1.12234 1.59463 0
M  V30 4044 O 373.32 0.201981 1.94856 0
M  V30 4045 H 371.9 0.732034 0.148778 0
M  V30 4046 H 374.562 1.92107 -0.32876 0
M  V30 4047 H 373.658 3.03845 0.713063 0
M  V30 4048 N 373.959 -0.0401083 1.57549 0
M  V30 4049 C 374.891 -1.07149 2.02612 0
M  V30 4050 C 375.904 -1.33126 0.937085 0
M  V30 4051 O 377.093 -1.30808 1.21456 0
M  V30 4052 C 374.193 -2.41561 2.37701 0
M  V30 4053 C 373.366 -2.35096 3.68848 0
M  V30 4054 C 372.425 -3.51867 3.91249 0
M  V30 4055 O 371.451 -3.3186 4.62447 0
M  V30 4056 N 372.653 -4.73351 3.36035 0
M  V30 4057 H 375.418 -0.687485 2.91708 0
M  V30 4058 H 372.979 -0.228248 1.60283 0
M  V30 4059 H 374.971 -3.18379 2.49833 0
M  V30 4060 H 373.541 -2.71846 1.54332 0
M  V30 4061 H 372.761 -1.4345 3.67173 0
M  V30 4062 H 374.049 -2.27908 4.54901 0
M  V30 4063 H 373.447 -4.92507 2.78304 0
M  V30 4064 H 372.004 -5.47572 3.53565 0
M  V30 4065 N 375.437 -1.54477 -0.31217 0
M  V30 4066 C 376.848 -1.64344 -0.885891 0
M  V30 4067 C 377.199 -0.54485 -1.88483 0
M  V30 4068 O 376.324 0.320387 -2.14015 0
M  V30 4069 C 376.919 -2.97908 -1.61357 0
M  V30 4070 C 375.478 -3.09933 -2.13585 0
M  V30 4071 C 374.625 -2.59971 -0.964897 0
M  V30 4072 H 377.576 -1.58448 -0.0894528 0
M  V30 4073 H 377.597 -2.88706 -2.47848 0
M  V30 4074 H 377.109 -3.77845 -0.886277 0
M  V30 4075 H 375.21 -2.34694 -2.89395 0
M  V30 4076 H 375.323 -4.15916 -2.37804 0
M  V30 4077 H 373.687 -2.16147 -1.34731 0
M  V30 4078 H 374.47 -3.42376 -0.251742 0
M  V30 4079 N 376.915 0.57481 -1.46744 0
M  V30 4080 C 378.164 1.32898 -1.51727 0
M  V30 4081 C 378.477 1.948 -0.176692 0
M  V30 4082 O 379.683 2.71299 -0.104385 0
M  V30 4083 C 378.139 2.40901 -2.67385 0
M  V30 4084 C 377.747 1.85266 -4.07898 0
M  V30 4085 C 379.491 3.17609 -2.81646 0
M  V30 4086 C 377.398 2.90945 -5.14883 0
M  V30 4087 H 376.328 0.499631 -0.564699 0
M  V30 4088 H 378.979 0.612536 -1.72975 0
M  V30 4089 H 377.361 3.15379 -2.39483 0
M  V30 4090 H 378.535 1.17278 -4.45626 0
M  V30 4091 H 376.85 1.21199 -3.98371 0
M  V30 4092 H 379.447 3.96493 -3.58744 0
M  V30 4093 H 379.79 3.70696 -1.89448 0
M  V30 4094 H 380.323 2.50239 -3.09233 0
M  V30 4095 H 377.062 2.42736 -6.089 0
M  V30 4096 H 376.582 3.57398 -4.81691 0
M  V30 4097 H 378.261 3.54755 -5.41071 0
M  V30 4098 N 378.394 1.34581 0.820102 0
M  V30 4099 C 379.641 1.27096 1.57648 0
M  V30 4100 C 379.969 -0.158317 1.93855 0
M  V30 4101 O 379.224 -1.12028 1.60463 0
M  V30 4102 C 379.523 2.10997 2.8847 0
M  V30 4103 C 379.189 3.59966 2.71543 0
M  V30 4104 C 377.851 4.00575 2.66634 0
M  V30 4105 C 380.203 4.54548 2.55021 0
M  V30 4106 C 377.531 5.33953 2.43128 0
M  V30 4107 C 379.883 5.88109 2.33047 0
M  V30 4108 C 378.547 6.27878 2.26552 0
M  V30 4109 H 377.817 0.465078 0.576874 0
M  V30 4110 H 380.464 1.6635 0.948671 0
M  V30 4111 H 378.769 1.6458 3.55557 0
M  V30 4112 H 380.466 2.0255 3.46084 0
M  V30 4113 H 377.056 3.27733 2.76205 0
M  V30 4114 H 381.24 4.24069 2.57835 0
M  V30 4115 H 376.496 5.63781 2.3656 0
M  V30 4116 H 380.67 6.60985 2.19251 0
M  V30 4117 H 378.297 7.31162 2.081 0
M  V30 4118 N 379.872 -1.04064 1.18357 0
M  V30 4119 C 381.283 -1.58719 0.98312 0
M  V30 4120 C 381.634 -1.90556 -0.467193 0
M  V30 4121 O 380.759 -1.69561 -1.34454 0
M  V30 4122 C 381.354 -2.88379 1.77828 0
M  V30 4123 C 379.913 -3.3965 1.62218 0
M  V30 4124 C 379.06 -2.13235 1.77274 0
M  V30 4125 H 382.011 -0.867359 1.32901 0
M  V30 4126 H 382.032 -3.58773 1.26737 0
M  V30 4127 H 381.544 -2.65176 2.83379 0
M  V30 4128 H 379.645 -3.67866 0.592036 0
M  V30 4129 H 379.758 -4.13475 2.42023 0
M  V30 4130 H 378.122 -2.24542 1.20221 0
M  V30 4131 H 378.905 -1.92487 2.8426 0
M  V30 4132 N 381.35 -0.985608 -1.22978 0
M  V30 4133 C 382.598 -0.656087 -1.91154 0
M  V30 4134 C 382.919 0.813561 -1.77218 0
M  V30 4135 O 382.189 1.58244 -1.1548 0
M  V30 4136 H 380.769 -0.239674 -0.707506 0
M  V30 4137 H 383.431 -1.25054 -1.49491 0
M  V30 4138 H 382.527 -0.912253 -2.9847 0
M  V30 4139 N 382.828 1.3818 -0.7579 0
M  V30 4140 C 384.105 1.94106 -0.241306 0
M  V30 4141 C 384.485 1.69282 1.26122 0
M  V30 4142 O 383.833 1.03378 2.03777 0
M  V30 4143 C 384.043 3.43809 -0.59967 0
M  V30 4144 C 385.391 4.20868 -0.561717 0
M  V30 4145 O 386.415 3.5211 -0.538222 0
M  V30 4146 O 385.274 5.43451 -0.576478 0
M  V30 4147 H 382.368 0.825376 -0.0518042 0
M  V30 4148 H 384.914 1.47548 -0.838315 0
M  V30 4149 H 383.686 3.55403 -1.6372 0
M  V30 4150 H 383.309 3.97592 0.0251197 0
M  V30 4151 N 384.306 0.507319 1.49211 0
M  V30 4152 C 385.531 -0.033725 2.07373 0
M  V30 4153 C 385.956 -1.29485 1.36437 0
M  V30 4154 O 385.314 -1.76294 0.423087 0
M  V30 4155 C 385.362 -0.263945 3.59633 0
M  V30 4156 O 384.466 -1.33737 3.90113 0
M  V30 4157 H 383.807 0.0290331 0.663365 0
M  V30 4158 H 386.337 0.708749 1.91932 0
M  V30 4159 H 386.347 -0.493536 4.05004 0
M  V30 4160 H 385.022 0.657424 4.10671 0
M  V30 4161 H 383.599 -1.09224 3.56545 0
M  V30 4162 N 385.784 -1.5574 0.241426 0
M  V30 4163 C 387.032 -1.98417 -0.384075 0
M  V30 4164 C 387.353 -1.13078 -1.58866 0
M  V30 4165 O 386.623 -0.212312 -1.94746 0
M  V30 4166 H 385.203 -0.732813 -0.144894 0
M  V30 4167 H 387.865 -1.9193 0.338943 0
M  V30 4168 H 386.961 -3.04219 -0.696939 0
M  V30 4169 N 387.262 0.0317525 -1.57568 0
M  V30 4170 C 388.508 0.724175 -1.8943 0
M  V30 4171 C 388.841 1.75149 -0.838836 0
M  V30 4172 O 388.116 1.93948 0.146422 0
M  V30 4173 C 388.399 1.39615 -3.31933 0
M  V30 4174 C 388.252 0.382537 -4.4817 0
M  V30 4175 C 389.571 2.33084 -3.73309 0
M  V30 4176 H 386.69 0.261797 -0.688935 0
M  V30 4177 H 389.332 -0.013017 -1.89996 0
M  V30 4178 H 387.482 2.02451 -3.31581 0
M  V30 4179 H 389.154 -0.243689 -4.60656 0
M  V30 4180 H 387.397 -0.29844 -4.32772 0
M  V30 4181 H 388.068 0.891145 -5.44759 0
M  V30 4182 H 390.544 1.80295 -3.7501 0
M  V30 4183 H 389.42 2.77084 -4.73831 0
M  V30 4184 H 389.681 3.19643 -3.05419 0
M  V30 4185 N 388.74 1.54641 0.303973 0
M  V30 4186 C 390.017 1.64455 1.05896 0
M  V30 4187 C 390.397 0.490923 2.05312 0
M  V30 4188 O 389.745 -0.512685 2.22674 0
M  V30 4189 C 389.955 3.02331 1.74347 0
M  V30 4190 C 391.303 3.59045 2.26653 0
M  V30 4191 O 392.327 3.04764 1.84384 0
M  V30 4192 O 391.186 4.54081 3.04093 0
M  V30 4193 H 388.28 0.666729 0.489287 0
M  V30 4194 H 390.826 1.66986 0.302298 0
M  V30 4195 H 389.598 3.77734 1.02142 0
M  V30 4196 H 389.221 3.03565 2.56777 0
M  V30 4197 N 390.218 -0.567019 1.47046 0
M  V30 4198 C 391.15 -1.68985 1.54844 0
M  V30 4199 C 392.163 -1.56869 0.435431 0
M  V30 4200 O 393.352 -1.64006 0.70457 0
M  V30 4201 C 390.452 -3.07373 1.42742 0
M  V30 4202 C 389.625 -3.45339 2.6844 0
M  V30 4203 C 388.684 -4.62849 2.50314 0
M  V30 4204 O 387.71 -4.67922 3.24095 0
M  V30 4205 N 388.912 -5.58726 1.57499 0
M  V30 4206 H 391.677 -1.62745 2.51663 0
M  V30 4207 H 389.238 -0.753411 1.43302 0
M  V30 4208 H 391.23 -3.83803 1.28365 0
M  V30 4209 H 389.8 -3.07893 0.540445 0
M  V30 4210 H 389.02 -2.58455 2.97648 0
M  V30 4211 H 390.308 -3.67476 3.51907 0
M  V30 4212 H 389.706 -5.57376 0.966876 0
M  V30 4213 H 388.263 -6.34523 1.49078 0
M  V30 4214 N 391.696 -1.35014 -0.812953 0
M  V30 4215 C 392.626 -1.30069 -1.93919 0
M  V30 4216 C 393.607 -0.176275 -1.69184 0
M  V30 4217 O 394.792 -0.370227 -1.90638 0
M  V30 4218 C 391.922 -1.06547 -3.30552 0
M  V30 4219 C 390.876 -2.15561 -3.69753 0
M  V30 4220 C 390.202 -1.77214 -5.04479 0
M  V30 4221 C 391.502 -3.57476 -3.808 0
M  V30 4222 H 393.196 -2.24303 -1.98314 0
M  V30 4223 H 390.742 -1.07977 -0.952736 0
M  V30 4224 H 392.695 -1.01729 -4.08937 0
M  V30 4225 H 391.419 -0.0875719 -3.26483 0
M  V30 4226 H 390.078 -2.19466 -2.9365 0
M  V30 4227 H 389.726 -0.780589 -4.96906 0
M  V30 4228 H 389.426 -2.50184 -5.31678 0
M  V30 4229 H 390.95 -1.7391 -5.8531 0
M  V30 4230 H 392.364 -3.55929 -4.4943 0
M  V30 4231 H 390.761 -4.29152 -4.19462 0
M  V30 4232 H 391.831 -3.94091 -2.82525 0
M  V30 4233 N 393.175 1.03435 -1.18907 0
M  V30 4234 C 394.421 1.77005 -0.989798 0
M  V30 4235 C 394.754 1.88205 0.478816 0
M  V30 4236 O 394.029 1.39481 1.35556 0
M  V30 4237 C 394.312 3.19925 -1.65287 0
M  V30 4238 C 394.165 3.1663 -3.19477 0
M  V30 4239 C 395.484 4.18189 -1.37134 0
M  V30 4240 H 392.603 0.642538 -0.360991 0
M  V30 4241 H 395.245 1.20784 -1.46667 0
M  V30 4242 H 393.395 3.67929 -1.24741 0
M  V30 4243 H 395.067 2.76567 -3.692 0
M  V30 4244 H 393.31 2.54491 -3.51307 0
M  V30 4245 H 393.981 4.1758 -3.61013 0
M  V30 4246 H 396.457 3.78761 -1.72276 0
M  V30 4247 H 395.333 5.16394 -1.86087 0
M  V30 4248 H 395.594 4.41112 -0.295424 0
M  V30 4249 N 394.653 0.992116 1.22453 0
M  V30 4250 C 395.563 0.55065 2.28046 0
M  V30 4251 C 396.579 -0.400189 1.69335 0
M  V30 4252 O 397.755 -0.267215 1.99619 0
M  V30 4253 C 394.82 -0.128496 3.46462 0
M  V30 4254 C 393.881 0.865208 4.20491 0
M  V30 4255 C 393.114 0.218377 5.33253 0
M  V30 4256 O 393.337 -0.987894 5.6178 0
M  V30 4257 O 392.271 0.922845 5.94783 0
M  V30 4258 H 396.097 1.4291 2.67975 0
M  V30 4259 H 393.682 0.760326 1.28606 0
M  V30 4260 H 395.564 -0.508947 4.18315 0
M  V30 4261 H 394.239 -0.981526 3.0846 0
M  V30 4262 H 393.146 1.29658 3.50913 0
M  V30 4263 H 394.479 1.68741 4.62371 0
M  V30 4264 N 396.131 -1.37776 0.765217 0
M  V30 4265 C 397.38 -1.99092 0.323307 0
M  V30 4266 C 397.693 -1.61434 -1.10446 0
M  V30 4267 O 398.899 -2.15805 -1.64743 0
M  V30 4268 C 397.355 -3.56019 0.527098 0
M  V30 4269 C 396.963 -4.0262 1.96471 0
M  V30 4270 C 398.707 -4.2424 0.148483 0
M  V30 4271 C 396.614 -5.52233 2.11644 0
M  V30 4272 H 395.544 -0.744846 0.117137 0
M  V30 4273 H 398.195 -1.57391 0.943417 0
M  V30 4274 H 396.577 -3.95667 -0.162372 0
M  V30 4275 H 397.751 -3.74234 2.68859 0
M  V30 4276 H 396.066 -3.47161 2.29931 0
M  V30 4277 H 398.663 -5.34159 0.240456 0
M  V30 4278 H 399.006 -4.06446 -0.900422 0
M  V30 4279 H 399.539 -3.89872 0.79025 0
M  V30 4280 H 396.278 -5.74945 3.1483 0
M  V30 4281 H 395.798 -5.82324 1.4373 0
M  V30 4282 H 397.477 -6.18106 1.91193 0
M  V30 4283 N 397.609 -0.515225 -1.4894 0
M  V30 4284 C 398.858 0.0261361 -2.01683 0
M  V30 4285 C 399.171 1.36719 -1.39883 0
M  V30 4286 O 400.377 1.99606 -1.84037 0
M  V30 4287 C 398.833 0.0970111 -3.59769 0
M  V30 4288 C 398.441 -1.23825 -4.30548 0
M  V30 4289 C 400.185 0.587981 -4.20408 0
M  V30 4290 C 398.092 -1.12877 -5.80528 0
M  V30 4291 H 397.022 0.0135398 -0.753878 0
M  V30 4292 H 399.673 -0.656787 -1.71343 0
M  V30 4293 H 398.055 0.844694 -3.86886 0
M  V30 4294 H 399.229 -2.00034 -4.15118 0
M  V30 4295 H 397.544 -1.66379 -3.81716 0
M  V30 4296 H 400.141 0.68763 -5.3026 0
M  V30 4297 H 400.484 1.59026 -3.84729 0
M  V30 4298 H 401.017 -0.103582 -3.97665 0
M  V30 4299 H 397.756 -2.10575 -6.20756 0
M  V30 4300 H 397.276 -0.407799 -5.98412 0
M  V30 4301 H 398.955 -0.813332 -6.41868 0
M  V30 4302 N 399.087 1.5561 -0.249682 0
M  V30 4303 C 400.034 2.21496 0.648694 0
M  V30 4304 C 401.004 1.17977 1.16921 0
M  V30 4305 O 402.189 1.46434 1.22318 0
M  V30 4306 C 399.329 2.92039 1.83868 0
M  V30 4307 C 398.442 4.10219 1.35442 0
M  V30 4308 C 397.577 4.6847 2.50419 0
M  V30 4309 C 396.616 5.78893 1.98869 0
M  V30 4310 N 395.753 6.31315 3.07223 0
M  V30 4311 H 400.593 2.97892 0.0801582 0
M  V30 4312 H 398.13 1.47074 0.0278031 0
M  V30 4313 H 400.088 3.31138 2.53778 0
M  V30 4314 H 398.718 2.18111 2.37965 0
M  V30 4315 H 397.77 3.76413 0.54928 0
M  V30 4316 H 399.082 4.89927 0.936649 0
M  V30 4317 H 398.236 5.10158 3.28366 0
M  V30 4318 H 396.975 3.87984 2.95499 0
M  V30 4319 H 395.98 5.3668 1.19393 0
M  V30 4320 H 397.205 6.61232 1.54755 0
M  V30 4321 H 395.151 5.53733 3.51732 0
M  V30 4322 H 395.068 7.06224 2.69784 0
M  V30 4323 H 396.336 6.77662 3.8522 0
M  V30 4324 N 400.565 -0.0233959 1.57583 0
M  V30 4325 C 401.811 -0.714119 1.89811 0
M  V30 4326 C 402.144 -1.74702 0.848113 0
M  V30 4327 O 401.419 -1.94023 -0.136135 0
M  V30 4328 C 401.702 -1.37853 3.32669 0
M  V30 4329 C 401.555 -0.358764 4.48367 0
M  V30 4330 C 402.874 -2.31101 3.7454 0
M  V30 4331 H 399.993 -0.25814 0.690314 0
M  V30 4332 H 402.635 0.0230927 1.89986 0
M  V30 4333 H 400.785 -2.00689 3.3265 0
M  V30 4334 H 402.457 0.268115 4.6052 0
M  V30 4335 H 400.7 0.321387 4.32608 0
M  V30 4336 H 401.371 -0.862242 5.45224 0
M  V30 4337 H 403.847 -1.78304 3.75961 0
M  V30 4338 H 402.723 -2.74567 4.75294 0
M  V30 4339 H 402.984 -3.18018 3.0711 0
M  V30 4340 N 402.043 -1.548 -0.295768 0
M  V30 4341 C 402.973 -1.89115 -1.36959 0
M  V30 4342 C 403.954 -0.75059 -1.52644 0
M  V30 4343 O 405.139 -1.00678 -1.66065 0
M  V30 4344 C 402.269 -2.14307 -2.73295 0
M  V30 4345 C 401.223 -3.30151 -2.72368 0
M  V30 4346 C 400.549 -3.40772 -4.12042 0
M  V30 4347 C 401.849 -4.67126 -2.33646 0
M  V30 4348 H 403.543 -2.79053 -1.08488 0
M  V30 4349 H 401.089 -1.34266 -0.520443 0
M  V30 4350 H 403.042 -2.36898 -3.48507 0
M  V30 4351 H 401.766 -1.21145 -3.03301 0
M  V30 4352 H 400.425 -3.0749 -1.99613 0
M  V30 4353 H 400.073 -2.45117 -4.39234 0
M  V30 4354 H 399.773 -4.18645 -4.12322 0
M  V30 4355 H 401.297 -3.6563 -4.89027 0
M  V30 4356 H 402.711 -4.89414 -2.98575 0
M  V30 4357 H 401.108 -5.47751 -2.45129 0
M  V30 4358 H 402.178 -4.67489 -1.28772 0
M  V30 4359 N 403.521 0.559213 -1.47345 0
M  V30 4360 C 404.769 1.31388 -1.53563 0
M  V30 4361 C 405.09 1.93985 -0.198678 0
M  V30 4362 O 404.36 1.79825 0.777167 0
M  V30 4363 H 402.94 0.487901 -0.565652 0
M  V30 4364 H 405.602 0.65315 -1.8363 0
M  V30 4365 H 404.698 2.10844 -2.30111 0
M  V30 4366 N 404.999 1.35443 0.805782 0
M  V30 4367 C 406.227 1.31878 1.59423 0
M  V30 4368 C 406.642 -0.103562 1.88516 0
M  V30 4369 O 405.999 -1.05575 1.48863 0
M  V30 4370 C 406.05 2.12426 2.92502 0
M  V30 4371 O 405.771 3.49115 2.6467 0
M  V30 4372 C 407.272 2.16455 3.86862 0
M  V30 4373 H 404.492 0.453002 0.495005 0
M  V30 4374 H 407.036 1.78309 1.00131 0
M  V30 4375 H 405.191 1.69593 3.48306 0
M  V30 4376 H 405.605 3.90957 3.49647 0
M  V30 4377 H 407.079 2.77204 4.77349 0
M  V30 4378 H 407.556 1.16352 4.23508 0
M  V30 4379 H 408.162 2.59453 3.36993 0
M  V30 4380 N 406.477 -1.02803 1.19454 0
M  V30 4381 C 407.888 -1.57667 0.999899 0
M  V30 4382 C 408.239 -1.91041 -0.446956 0
M  V30 4383 O 407.364 -1.70978 -1.32648 0
M  V30 4384 C 407.959 -2.86477 1.80877 0
M  V30 4385 C 406.518 -3.37911 1.65811 0
M  V30 4386 C 405.665 -2.11343 1.79526 0
M  V30 4387 H 408.616 -0.853214 1.33813 0
M  V30 4388 H 408.637 -3.57408 1.30536 0
M  V30 4389 H 408.149 -2.62155 2.86175 0
M  V30 4390 H 406.25 -3.67218 0.63102 0
M  V30 4391 H 406.363 -4.10885 2.46395 0
M  V30 4392 H 404.727 -2.23254 1.22596 0
M  V30 4393 H 405.51 -1.89461 2.86285 0
M  V30 4394 N 407.956 -0.998596 -1.21925 0
M  V30 4395 C 409.184 -0.696286 -1.94832 0
M  V30 4396 C 409.599 0.740032 -1.73692 0
M  V30 4397 O 408.956 1.5 -1.03953 0
M  V30 4398 C 409.007 -0.999833 -3.47398 0
M  V30 4399 O 408.728 -2.37972 -3.67833 0
M  V30 4400 C 410.229 -0.716025 -4.37479 0
M  V30 4401 H 407.449 -0.257111 -0.619786 0
M  V30 4402 H 409.993 -1.33491 -1.54921 0
M  V30 4403 H 408.148 -0.406918 -3.85257 0
M  V30 4404 H 408.562 -2.48338 -4.61983 0
M  V30 4405 H 410.036 -0.978642 -5.43256 0
M  V30 4406 H 410.513 0.349968 -4.37803 0
M  V30 4407 H 411.119 -1.29025 -4.05256 0
M  V30 4408 N 409.434 1.37368 -0.772513 0
M  V30 4409 C 410.85 1.53059 -0.452231 0
M  V30 4410 C 411.05 1.73065 1.03203 0
M  V30 4411 O 410.106 1.75245 1.81784 0
M  V30 4412 C 411.419 2.72659 -1.26797 0
M  V30 4413 C 412.967 2.86521 -1.25995 0
M  V30 4414 C 413.442 4.09105 -2.05905 0
M  V30 4415 N 414.933 4.16219 -2.03263 0
M  V30 4416 C 415.668 5.10107 -2.61875 0
M  V30 4417 N 415.164 6.09547 -3.29278 0
M  V30 4418 N 416.957 5.02596 -2.51701 0
M  V30 4419 H 409.108 1.22634 -1.7342 0
M  V30 4420 H 411.371 0.597206 -0.736239 0
M  V30 4421 H 411.077 2.64343 -2.31982 0
M  V30 4422 H 410.951 3.66363 -0.897672 0
M  V30 4423 H 413.338 2.94308 -0.216081 0
M  V30 4424 H 413.419 1.93774 -1.66989 0
M  V30 4425 H 413.063 4.0208 -3.10313 0
M  V30 4426 H 412.993 5.00968 -1.62292 0
M  V30 4427 H 415.484 3.45012 -1.54192 0
M  V30 4428 H 415.797 6.77718 -3.71374 0
M  V30 4429 H 414.142 6.09824 -3.33377 0
M  V30 4430 H 417.333 4.23855 -1.98657 0
M  V30 4431 H 417.506 5.75582 -2.97673 0
M  V30 4432 N 410.912 0.523116 1.48665 0
M  V30 4433 C 411.822 -0.247406 2.33292 0
M  V30 4434 C 412.838 -0.945769 1.46052 0
M  V30 4435 O 414.014 -0.922253 1.79043 0
M  V30 4436 C 411.079 -1.28487 3.22012 0
M  V30 4437 C 410.14 -0.597592 4.2512 0
M  V30 4438 C 409.373 -1.58563 5.09601 0
M  V30 4439 O 409.596 -2.81763 4.95949 0
M  V30 4440 O 408.53 -1.12879 5.91221 0
M  V30 4441 H 412.356 0.445869 3.00409 0
M  V30 4442 H 409.941 0.284128 1.46673 0
M  V30 4443 H 411.823 -1.88459 3.7691 0
M  V30 4444 H 410.498 -1.96068 2.57564 0
M  V30 4445 H 409.405 0.0424407 3.74076 0
M  V30 4446 H 410.738 0.0361517 4.92187 0
M  V30 4447 N 412.39 -1.55475 0.257931 0
M  V30 4448 C 413.322 -2.19192 -0.669881 0
M  V30 4449 C 414.335 -1.17148 -1.1305 0
M  V30 4450 O 415.524 -1.43959 -1.05537 0
M  V30 4451 C 412.624 -2.79016 -1.92363 0
M  V30 4452 C 411.797 -4.06586 -1.61265 0
M  V30 4453 C 410.856 -4.50622 -2.7171 0
M  V30 4454 O 409.882 -5.16765 -2.38627 0
M  V30 4455 N 411.084 -4.19325 -4.01431 0
M  V30 4456 H 413.849 -2.99441 -0.124635 0
M  V30 4457 H 411.41 -1.6171 0.0783311 0
M  V30 4458 H 413.402 -3.05427 -2.65511 0
M  V30 4459 H 411.972 -2.0286 -2.37837 0
M  V30 4460 H 411.192 -3.87646 -0.715811 0
M  V30 4461 H 412.48 -4.89737 -1.37967 0
M  V30 4462 H 411.878 -3.66247 -4.31138 0
M  V30 4463 H 410.435 -4.50547 -4.7101 0
M  V30 4464 N 413.868 0.0150385 -1.57593 0
M  V30 4465 C 415.117 0.702115 -1.89085 0
M  V30 4466 C 415.43 1.75764 -0.858277 0
M  V30 4467 O 416.636 2.49829 -1.0629 0
M  V30 4468 C 415.092 1.29992 -3.35604 0
M  V30 4469 C 414.7 0.280007 -4.47124 0
M  V30 4470 C 416.444 1.96606 -3.76227 0
M  V30 4471 C 414.351 0.886949 -5.84711 0
M  V30 4472 H 413.281 0.265997 -0.705522 0
M  V30 4473 H 415.932 -0.0430408 -1.8345 0
M  V30 4474 H 414.314 2.09525 -3.36029 0
M  V30 4475 H 415.488 -0.489631 -4.58191 0
M  V30 4476 H 413.803 -0.284835 -4.15425 0
M  V30 4477 H 416.4 2.42893 -4.76347 0
M  V30 4478 H 416.743 2.79024 -3.08952 0
M  V30 4479 H 417.276 1.23828 -3.78036 0
M  V30 4480 H 414.015 0.101876 -6.55421 0
M  V30 4481 H 413.535 1.6261 -5.77337 0
M  V30 4482 H 415.214 1.39011 -6.3189 0
M  V30 4483 N 415.346 1.54954 0.287554 0
M  V30 4484 C 416.762 1.46469 0.633964 0
M  V30 4485 C 416.962 0.666865 1.90145 0
M  V30 4486 O 416.018 0.179906 2.51858 0
M  V30 4487 C 417.331 2.90556 0.774454 0
M  V30 4488 C 418.879 3.00681 0.869462 0
M  V30 4489 C 419.354 4.45993 1.04184 0
M  V30 4490 N 420.845 4.4976 1.10772 0
M  V30 4491 C 421.58 5.59393 1.25964 0
M  V30 4492 N 421.076 6.78923 1.37968 0
M  V30 4493 N 422.869 5.47107 1.28959 0
M  V30 4494 H 415.02 2.05288 -0.545041 0
M  V30 4495 H 417.283 0.930305 -0.182308 0
M  V30 4496 H 416.989 3.51594 -0.086207 0
M  V30 4497 H 416.863 3.38743 1.6593 0
M  V30 4498 H 419.25 2.39749 1.7206 0
M  V30 4499 H 419.331 2.55769 -0.0396831 0
M  V30 4500 H 418.975 5.07524 0.195422 0
M  V30 4501 H 418.905 4.88548 1.96542 0
M  V30 4502 H 421.396 3.63651 1.02794 0
M  V30 4503 H 421.709 7.58231 1.49353 0
M  V30 4504 H 420.054 6.81763 1.34999 0
M  V30 4505 H 423.245 4.52668 1.19202 0
M  V30 4506 H 423.418 6.32595 1.40455 0
M  V30 4507 N 416.824 -0.551391 1.4764 0
M  V30 4508 C 417.734 -1.68525 1.63207 0
M  V30 4509 C 418.75 -1.6621 0.514815 0
M  V30 4510 O 419.926 -1.85551 0.783113 0
M  V30 4511 C 416.991 -3.05025 1.64805 0
M  V30 4512 C 416.052 -3.18362 2.88 0
M  V30 4513 C 415.285 -4.4835 2.89513 0
M  V30 4514 O 415.508 -5.34163 2.00065 0
M  V30 4515 O 414.442 -4.65602 3.81443 0
M  V30 4516 H 418.268 -1.58333 2.59161 0
M  V30 4517 H 415.853 -0.722063 1.30792 0
M  V30 4518 H 417.735 -3.86245 1.68502 0
M  V30 4519 H 416.41 -3.15587 0.720197 0
M  V30 4520 H 415.317 -2.36518 2.89845 0
M  V30 4521 H 416.65 -3.12707 3.80099 0
M  V30 4522 N 418.302 -1.35869 -0.798587 0
M  V30 4523 C 419.235 -1.23801 -1.91699 0
M  V30 4524 C 420.213 -0.124143 -1.62125 0
M  V30 4525 O 421.397 -0.293656 -1.86199 0
M  V30 4526 C 418.524 -0.908063 -3.263 0
M  V30 4527 C 417.57 -2.0351 -3.74815 0
M  V30 4528 S 418.403 -3.65183 -3.91665 0
M  V30 4529 C 419.559 -3.34283 -5.29156 0
M  V30 4530 H 419.792 -2.18466 -2.01643 0
M  V30 4531 H 417.325 -1.21178 -0.956833 0
M  V30 4532 H 419.283 -0.724506 -4.04056 0
M  V30 4533 H 417.944 0.0206584 -3.14093 0
M  V30 4534 H 417.137 -1.75858 -4.72324 0
M  V30 4535 H 416.739 -2.1774 -3.04081 0
M  V30 4536 H 419.031 -2.87607 -6.13424 0
M  V30 4537 H 419.974 -4.31022 -5.61806 0
M  V30 4538 H 420.382 -2.69854 -4.95822 0
M  V30 4539 N 419.78 1.02168 -1.19998 0
M  V30 4540 C 420.728 2.12717 -0.940967 0
M  V30 4541 C 421.722 1.69069 0.105841 0
M  V30 4542 O 422.928 1.79946 -0.0440583 0
M  V30 4543 H 419.303 0.695108 -0.28693 0
M  V30 4544 H 421.274 2.3175 -1.87975 0
M  V30 4545 C 420.023 3.44027 -0.504049 0
M  V30 4546 H 419.346 3.78036 -1.30112 0
M  V30 4547 H 420.786 4.22452 -0.361991 0
M  V30 4548 C 419.245 3.27678 0.782878 0
M  V30 4549 O 419.775 3.56949 1.84256 0
M  V30 4550 N 417.981 2.80943 0.742921 0
M  V30 4551 H 417.528 2.57322 -0.119687 0
M  V30 4552 H 417.486 2.70385 1.60435 0
M  V30 4553 N 421.258 1.00505 1.21394 0
M  V30 4554 C 422.669 0.721082 1.72213 0
M  V30 4555 C 423.02 -0.761263 1.80829 0
M  V30 4556 O 422.145 -1.59464 1.46288 0
M  V30 4557 C 422.74 1.30228 3.12772 0
M  V30 4558 C 421.299 1.06743 3.60947 0
M  V30 4559 C 420.446 1.41507 2.38477 0
M  V30 4560 H 423.397 1.17594 1.06571 0
M  V30 4561 H 423.418 0.686955 3.74247 0
M  V30 4562 H 422.93 2.38115 3.06468 0
M  V30 4563 H 421.031 0.00572162 3.726 0
M  V30 4564 H 421.144 1.73936 4.46411 0
M  V30 4565 H 419.508 0.833852 2.40664 0
M  V30 4566 H 420.291 2.50424 2.34824 0
M  V30 4567 N 422.737 -1.36956 0.779787 0
M  V30 4568 C 423.685 -2.32053 0.15942 0
M  V30 4569 C 424.679 -1.55333 -0.675878 0
M  V30 4570 O 425.885 -1.70668 -0.57204 0
M  V30 4571 H 422.26 -0.751286 0.0327707 0
M  V30 4572 H 424.231 -2.8195 0.977078 0
M  V30 4573 C 422.98 -3.40602 -0.698977 0
M  V30 4574 H 422.303 -3.99746 -0.0655966 0
M  V30 4575 H 423.743 -4.09486 -1.09989 0
M  V30 4576 C 422.202 -2.81359 -1.85307 0
M  V30 4577 O 422.732 -2.72751 -2.94906 0
M  V30 4578 N 420.938 -2.38786 -1.65619 0
M  V30 4579 H 420.485 -2.45987 -0.764725 0
M  V30 4580 H 420.443 -1.99493 -2.43002 0
M  V30 4581 N 424.215 -0.530993 -1.48385 0
M  V30 4582 C 425.445 -0.00133928 -2.066 0
M  V30 4583 C 425.853 1.28599 -1.38777 0
M  V30 4584 O 425.196 1.77599 -0.469495 0
M  V30 4585 C 425.258 0.292137 -3.58311 0
M  V30 4586 C 424.922 -0.901864 -4.48013 0
M  V30 4587 C 425.919 -1.80053 -4.87726 0
M  V30 4588 C 423.604 -1.10915 -4.89901 0
M  V30 4589 C 425.598 -2.89038 -5.68098 0
M  V30 4590 C 423.285 -2.20213 -5.70043 0
M  V30 4591 C 424.283 -3.09107 -6.0905 0
M  V30 4592 O 423.971 -4.16514 -6.87583 0
M  V30 4593 H 423.703 -0.0308475 -0.675296 0
M  V30 4594 H 426.257 -0.736335 -1.91748 0
M  V30 4595 H 424.487 1.08112 -3.7128 0
M  V30 4596 H 426.176 0.763994 -3.98645 0
M  V30 4597 H 426.942 -1.65234 -4.55986 0
M  V30 4598 H 422.821 -0.426498 -4.59023 0
M  V30 4599 H 426.365 -3.58451 -5.98464 0
M  V30 4600 H 422.262 -2.35016 -6.01197 0
M  V30 4601 H 423.03 -4.14237 -7.05939 0
M  V30 4602 N 425.693 1.55336 -0.266172 0
M  V30 4603 C 426.921 2.03801 0.356756 0
M  V30 4604 C 427.336 1.14485 1.50129 0
M  V30 4605 O 426.693 0.163121 1.8177 0
M  V30 4606 C 426.744 3.51455 0.846281 0
M  V30 4607 O 426.465 4.37371 -0.252663 0
M  V30 4608 C 427.966 4.15767 1.53794 0
M  V30 4609 H 425.186 0.665906 0.0825218 0
M  V30 4610 H 427.73 2.00636 -0.39566 0
M  V30 4611 H 425.885 3.55092 1.54881 0
M  V30 4612 H 426.299 5.24358 0.122173 0
M  V30 4613 H 427.773 5.20714 1.83198 0
M  V30 4614 H 428.25 3.63404 2.46646 0
M  V30 4615 H 428.856 4.16107 0.879488 0
M  V30 4616 N 427.171 -0.0066808 1.57599 0
M  V30 4617 C 428.081 -1.01671 2.11424 0
M  V30 4618 C 429.097 -1.38143 1.05795 0
M  V30 4619 O 430.273 -1.47011 1.37658 0
M  V30 4620 C 427.338 -2.29192 2.60139 0
M  V30 4621 C 426.399 -1.99094 3.80342 0
M  V30 4622 C 425.632 -3.20535 4.26724 0
M  V30 4623 O 425.855 -4.3199 3.72479 0
M  V30 4624 O 424.789 -3.04924 5.18946 0
M  V30 4625 H 428.615 -0.589181 2.9793 0
M  V30 4626 H 426.2 -0.225091 1.47695 0
M  V30 4627 H 428.082 -3.0412 2.917 0
M  V30 4628 H 426.757 -2.71195 1.76733 0
M  V30 4629 H 425.664 -1.21663 3.53764 0
M  V30 4630 H 426.997 -1.61931 4.648 0
M  V30 4631 N 428.649 -1.55105 -0.279332 0
M  V30 4632 C 429.896 -1.75412 -1.01177 0
M  V30 4633 C 430.224 -0.551728 -1.86511 0
M  V30 4634 O 429.479 0.465919 -1.90073 0
M  V30 4635 C 429.778 -3.0086 -1.92919 0
M  V30 4636 C 429.444 -4.33689 -1.23387 0
M  V30 4637 C 428.106 -4.69792 -1.04159 0
M  V30 4638 C 430.458 -5.15941 -0.738562 0
M  V30 4639 C 427.786 -5.85707 -0.341166 0
M  V30 4640 C 430.138 -6.32579 -0.0517636 0
M  V30 4641 C 428.802 -6.67326 0.152292 0
M  V30 4642 H 428.072 -0.641879 -0.370233 0
M  V30 4643 H 430.719 -1.89373 -0.284627 0
M  V30 4644 H 429.024 -2.81773 -2.72234 0
M  V30 4645 H 430.721 -3.13768 -2.49701 0
M  V30 4646 H 427.311 -4.05309 -1.39364 0
M  V30 4647 H 431.495 -4.8853 -0.874764 0
M  V30 4648 H 426.751 -6.11157 -0.172287 0
M  V30 4649 H 430.925 -6.9557 0.339828 0
M  V30 4650 H 428.552 -7.56998 0.697014 0
M  V30 4651 N 430.127 0.543554 -1.4793 0
M  V30 4652 C 431.074 1.64942 -1.6144 0
M  V30 4653 C 432.044 1.59692 -0.456903 0
M  V30 4654 O 433.229 1.78321 -0.678688 0
M  V30 4655 C 430.369 3.03238 -1.64744 0
M  V30 4656 C 429.482 3.18823 -2.91506 0
M  V30 4657 C 428.617 4.47599 -2.86057 0
M  V30 4658 C 427.656 4.56664 -4.07584 0
M  V30 4659 N 426.793 5.76811 -4.00292 0
M  V30 4660 H 431.633 1.52733 -2.55884 0
M  V30 4661 H 429.17 0.7438 -1.2691 0
M  V30 4662 H 431.128 3.83339 -1.64641 0
M  V30 4663 H 429.758 3.1425 -0.738017 0
M  V30 4664 H 428.81 2.32064 -3.01414 0
M  V30 4665 H 430.122 3.21384 -3.81463 0
M  V30 4666 H 429.276 5.35975 -2.84281 0
M  V30 4667 H 428.015 4.47538 -1.93807 0
M  V30 4668 H 427.02 3.66697 -4.09651 0
M  V30 4669 H 428.245 4.58474 -5.00978 0
M  V30 4670 H 426.191 5.77673 -3.10853 0
M  V30 4671 H 426.108 5.80808 -4.8394 0
M  V30 4672 H 427.376 6.67512 -4.02553 0
M  V30 4673 N 431.605 1.3629 0.791371 0
M  V30 4674 C 432.852 1.30412 1.54916 0
M  V30 4675 C 433.18 -0.117162 1.94147 0
M  V30 4676 O 432.435 -1.08599 1.62803 0
M  V30 4677 C 432.734 2.17068 2.8393 0
M  V30 4678 C 432.4 3.65645 2.63846 0
M  V30 4679 C 431.062 4.0614 2.58077 0
M  V30 4680 C 433.414 4.59855 2.45322 0
M  V30 4681 C 430.742 5.3899 2.31748 0
M  V30 4682 C 433.094 5.9292 2.2052 0
M  V30 4683 C 431.758 6.32542 2.13183 0
M  V30 4684 H 431.028 0.47721 0.566879 0
M  V30 4685 H 433.675 1.68325 0.913172 0
M  V30 4686 H 431.98 1.72085 3.51986 0
M  V30 4687 H 433.677 2.09846 3.4171 0
M  V30 4688 H 430.267 3.33518 2.69191 0
M  V30 4689 H 434.451 4.29443 2.48782 0
M  V30 4690 H 429.707 5.68672 2.24548 0
M  V30 4691 H 433.881 6.65487 2.05182 0
M  V30 4692 H 431.508 7.35412 1.92544 0
M  V30 4693 N 433.083 -1.0153 1.20538 0
M  V30 4694 C 434.494 -1.56598 1.01657 0
M  V30 4695 C 434.845 -1.91505 -0.426668 0
M  V30 4696 O 433.97 -1.72375 -1.30827 0
M  V30 4697 C 434.565 -2.84542 1.83905 0
M  V30 4698 C 433.124 -3.36133 1.69386 0
M  V30 4699 C 432.271 -2.09427 1.81757 0
M  V30 4700 H 435.222 -0.838974 1.34711 0
M  V30 4701 H 435.243 -3.56004 1.34319 0
M  V30 4702 H 434.755 -2.59105 2.8894 0
M  V30 4703 H 432.856 -3.66528 0.669933 0
M  V30 4704 H 432.969 -4.08248 2.50739 0
M  V30 4705 H 431.333 -2.21941 1.24957 0
M  V30 4706 H 432.116 -1.86414 2.88279 0
M  V30 4707 N 434.561 -1.01147 -1.20859 0
M  V30 4708 C 435.493 -0.535546 -2.22855 0
M  V30 4709 C 436.506 0.379323 -1.58319 0
M  V30 4710 O 437.695 0.178489 -1.77605 0
M  V30 4711 C 434.795 0.240962 -3.38042 0
M  V30 4712 C 433.968 -0.674562 -4.32167 0
M  V30 4713 C 433.027 0.053467 -5.26173 0
M  V30 4714 O 432.053 -0.567339 -5.66366 0
M  V30 4715 N 433.255 1.32997 -5.65059 0
M  V30 4716 H 436.02 -1.41268 -2.64317 0
M  V30 4717 H 433.581 -0.888386 -1.35349 0
M  V30 4718 H 435.573 0.737115 -3.97931 0
M  V30 4719 H 434.143 1.01935 -2.95513 0
M  V30 4720 H 433.363 -1.35111 -3.70322 0
M  V30 4721 H 434.651 -1.2974 -4.91981 0
M  V30 4722 H 434.049 1.85536 -5.34409 0
M  V30 4723 H 432.606 1.77095 -6.2728 0
M  V30 4724 N 436.039 1.36541 -0.78704 0
M  V30 4725 C 437.288 1.98552 -0.35494 0
M  V30 4726 C 437.601 1.63171 1.07864 0
M  V30 4727 O 438.807 2.18399 1.61289 0
M  V30 4728 C 437.263 3.55136 -0.583671 0
M  V30 4729 C 436.871 3.99444 -2.02851 0
M  V30 4730 C 438.615 4.2395 -0.215957 0
M  V30 4731 C 436.522 5.48796 -2.20403 0
M  V30 4732 H 435.452 0.742888 -0.128972 0
M  V30 4733 H 438.103 1.5587 -0.968337 0
M  V30 4734 H 436.485 3.95875 0.0994046 0
M  V30 4735 H 437.659 3.6991 -2.74779 0
M  V30 4736 H 435.974 3.43459 -2.35425 0
M  V30 4737 H 438.571 5.33709 -0.325405 0
M  V30 4738 H 438.914 4.07827 0.835646 0
M  V30 4739 H 439.447 3.88565 -0.852175 0
M  V30 4740 H 436.186 5.69864 -3.23937 0
M  V30 4741 H 435.706 5.79964 -1.52977 0
M  V30 4742 H 437.385 6.14986 -2.01002 0
M  V30 4743 N 437.518 0.538854 1.48102 0
M  V30 4744 C 438.465 -0.219042 2.29758 0
M  V30 4745 C 439.435 -0.925562 1.37922 0
M  V30 4746 O 440.62 -0.924855 1.66886 0
M  V30 4747 C 437.76 -1.25452 3.2149 0
M  V30 4748 C 436.873 -0.555943 4.28408 0
M  V30 4749 C 436.008 -1.57512 5.0731 0
M  V30 4750 C 435.047 -0.860498 6.06021 0
M  V30 4751 N 434.184 -1.82564 6.77949 0
M  V30 4752 H 439.024 0.483449 2.94052 0
M  V30 4753 H 436.561 0.250247 1.44956 0
M  V30 4754 H 438.519 -1.86727 3.7308 0
M  V30 4755 H 437.149 -1.92528 2.591 0
M  V30 4756 H 436.201 0.170938 3.80016 0
M  V30 4757 H 437.513 0.00474616 4.988 0
M  V30 4758 H 436.667 -2.26191 5.62959 0
M  V30 4759 H 435.406 -2.16972 4.36778 0
M  V30 4760 H 434.411 -0.159686 5.49568 0
M  V30 4761 H 435.636 -0.271897 6.78555 0
M  V30 4762 H 433.582 -2.40915 6.10161 0
M  V30 4763 H 433.499 -1.31662 7.44447 0
M  V30 4764 H 434.767 -2.50414 7.38182 0
M  V30 4765 N 438.996 -1.55193 0.274407 0
M  V30 4766 C 439.959 -2.212 -0.600279 0
M  V30 4767 C 440.959 -1.18963 -1.08187 0
M  V30 4768 O 442.149 -1.43873 -0.982158 0
M  V30 4769 C 439.281 -2.87739 -1.82809 0
M  V30 4770 H 440.474 -2.9989 -0.0239682 0
M  V30 4771 H 438.027 -1.5628 0.0250192 0
M  V30 4772 H 438.762 -2.13058 -2.44493 0
M  V30 4773 H 438.547 -3.62658 -1.49069 0
M  V30 4774 H 440.037 -3.38171 -2.45011 0
M  V30 4775 N 440.474 -0.00167713 -1.576 0
M  V30 4776 C 441.424 0.997744 -2.0501 0
M  V30 4777 C 442.408 1.30214 -0.94515 0
M  V30 4778 O 443.6 1.29284 -1.20891 0
M  V30 4779 C 440.729 2.2892 -2.55833 0
M  V30 4780 C 439.815 2.01437 -3.73208 0
M  V30 4781 N 440.206 1.44119 -4.84833 0
M  V30 4782 C 438.504 2.31571 -3.8117 0
M  V30 4783 C 439.205 1.33145 -5.66257 0
M  V30 4784 N 438.181 1.81763 -5.12312 0
M  V30 4785 H 441.983 0.549098 -2.88725 0
M  V30 4786 H 439.497 0.20398 -1.61114 0
M  V30 4787 H 441.494 3.01361 -2.88075 0
M  V30 4788 H 440.154 2.74436 -1.73537 0
M  V30 4789 H 441.165 1.11978 -5.0565 0
M  V30 4790 H 437.842 2.7995 -3.09732 0
M  V30 4791 H 439.232 0.890567 -6.65972 0
M  V30 4792 N 441.952 1.55251 0.271103 0
M  V30 4793 C 443.363 1.66635 0.842007 0
M  V30 4794 C 443.714 0.594631 1.86972 0
M  V30 4795 O 442.839 -0.263532 2.14789 0
M  V30 4796 C 443.434 3.02082 1.53401 0
M  V30 4797 C 441.993 3.15487 2.05293 0
M  V30 4798 C 441.14 2.62438 0.895631 0
M  V30 4799 H 444.091 1.58629 0.0474117 0
M  V30 4800 H 444.112 2.95176 2.40107 0
M  V30 4801 H 443.624 3.80062 0.785786 0
M  V30 4802 H 441.725 2.42284 2.83071 0
M  V30 4803 H 441.838 4.22075 2.26693 0
M  V30 4804 H 440.202 2.19644 1.28953 0
M  V30 4805 H 440.985 3.42923 0.160878 0
M  V30 4806 N 443.43 -0.535701 1.48216 0
M  V30 4807 C 444.676 -1.2913 1.57153 0
M  V30 4808 C 445.031 -1.90899 0.239823 0
M  V30 4809 O 444.324 -1.76022 -0.756748 0
M  V30 4810 C 444.518 -2.4068 2.64212 0
M  V30 4811 C 444.347 -1.89844 4.07663 0
M  V30 4812 C 443.117 -1.72708 4.74869 0
M  V30 4813 C 445.315 -1.43031 4.94011 0
M  V30 4814 N 443.297 -1.16437 6.02757 0
M  V30 4815 C 444.668 -0.986691 6.12098 0
M  V30 4816 C 446.723 -1.3128 4.80281 0
M  V30 4817 C 445.426 -0.437231 7.1797 0
M  V30 4818 C 447.452 -0.777346 5.86269 0
M  V30 4819 C 446.814 -0.343774 7.03561 0
M  V30 4820 H 442.913 -0.463753 0.629648 0
M  V30 4821 H 445.497 -0.604736 1.8507 0
M  V30 4822 H 443.668 -3.06839 2.38126 0
M  V30 4823 H 445.4 -3.07706 2.62867 0
M  V30 4824 H 442.155 -1.96061 4.31111 0
M  V30 4825 H 442.579 -0.903281 6.70947 0
M  V30 4826 H 447.221 -1.63408 3.89946 0
M  V30 4827 H 444.939 -0.103621 8.08034 0
M  V30 4828 H 448.525 -0.689688 5.77698 0
M  V30 4829 H 447.405 0.0641219 7.84174 0
M  V30 4830 N 444.908 -1.36708 -0.784132 0
M  V30 4831 C 446.136 -1.34398 -1.57305 0
M  V30 4832 C 446.551 0.0735577 -1.88657 0
M  V30 4833 O 445.908 1.03193 -1.50524 0
M  V30 4834 C 445.959 -2.17053 -2.89085 0
M  V30 4835 O 445.68 -3.53281 -2.59083 0
M  V30 4836 C 447.181 -2.22583 -3.83369 0
M  V30 4837 H 444.401 -0.460819 -0.487736 0
M  V30 4838 H 446.945 -1.79879 -0.972819 0
M  V30 4839 H 445.1 -1.75113 -3.45564 0
M  V30 4840 H 445.514 -3.9647 -3.43383 0
M  V30 4841 H 446.988 -2.84763 -4.72878 0
M  V30 4842 H 447.465 -1.23075 -4.21603 0
M  V30 4843 H 448.071 -2.64781 -3.32823 0
M  V30 4844 N 446.386 1.0089 -1.21074 0
M  V30 4845 C 447.333 2.09588 -0.966512 0
M  V30 4846 C 448.303 1.65761 0.106089 0
M  V30 4847 O 449.488 1.90758 -0.0402287 0
M  V30 4848 C 446.628 3.40958 -0.533058 0
M  V30 4849 C 445.741 3.9822 -1.67467 0
M  V30 4850 C 444.876 5.17682 -1.19076 0
M  V30 4851 C 443.915 5.67043 -2.30496 0
M  V30 4852 N 443.052 6.77759 -1.83267 0
M  V30 4853 H 447.892 2.29815 -1.89708 0
M  V30 4854 H 445.429 1.12689 -0.945489 0
M  V30 4855 H 447.387 4.1637 -0.263019 0
M  V30 4856 H 446.017 3.20781 0.360505 0
M  V30 4857 H 445.069 3.1983 -2.05944 0
M  V30 4858 H 446.381 4.3085 -2.51336 0
M  V30 4859 H 445.535 6.00326 -0.877151 0
M  V30 4860 H 444.274 4.86635 -0.322066 0
M  V30 4861 H 443.279 4.82999 -2.62664 0
M  V30 4862 H 444.504 6.00121 -3.17855 0
M  V30 4863 H 442.45 6.48527 -0.987356 0
M  V30 4864 H 442.367 7.09624 -2.60711 0
M  V30 4865 H 443.635 7.63949 -1.54928 0
M  V30 4866 N 447.864 1.01787 1.20321 0
M  V30 4867 C 449.11 0.708985 1.90003 0
M  V30 4868 C 449.443 -0.759572 1.78729 0
M  V30 4869 O 448.718 -1.55198 1.17234 0
M  V30 4870 C 449.001 1.1469 3.41348 0
M  V30 4871 C 448.854 2.67586 3.61549 0
M  V30 4872 C 450.173 0.71915 4.34185 0
M  V30 4873 H 447.292 0.259034 0.689978 0
M  V30 4874 H 449.934 1.26584 1.41692 0
M  V30 4875 H 448.084 0.673128 3.82624 0
M  V30 4876 H 449.756 3.22826 3.29517 0
M  V30 4877 H 447.999 3.085 3.04976 0
M  V30 4878 H 448.67 2.93281 4.67643 0
M  V30 4879 H 451.146 1.12647 4.00562 0
M  V30 4880 H 450.022 1.05358 5.38694 0
M  V30 4881 H 450.283 -0.379111 4.40472 0
M  V30 4882 N 449.342 -1.36122 0.79427 0
M  V30 4883 C 450.589 -1.99111 0.368905 0
M  V30 4884 C 450.917 -1.63032 -1.0607 0
M  V30 4885 O 450.172 -0.879303 -1.74833 0
M  V30 4886 C 450.471 -3.5409 0.48527 0
M  V30 4887 C 450.137 -4.10003 1.87638 0
M  V30 4888 C 448.799 -4.24986 2.257 0
M  V30 4889 C 451.151 -4.40423 2.78706 0
M  V30 4890 C 448.479 -4.67701 3.54221 0
M  V30 4891 C 450.831 -4.84573 4.0666 0
M  V30 4892 C 449.495 -4.97761 4.44737 0
M  V30 4893 H 448.765 -0.7286 0.134992 0
M  V30 4894 H 451.412 -1.62534 1.01267 0
M  V30 4895 H 449.717 -3.91052 -0.241984 0
M  V30 4896 H 451.414 -4.00766 0.137109 0
M  V30 4897 H 448.004 -3.98784 1.57064 0
M  V30 4898 H 452.188 -4.28412 2.50553 0
M  V30 4899 H 447.444 -4.761 3.83587 0
M  V30 4900 H 451.618 -5.07074 4.77336 0
M  V30 4901 H 449.245 -5.30618 5.44379 0
M  V30 4902 N 450.82 -0.546701 -1.47814 0
M  V30 4903 C 452.236 -0.205717 -1.58269 0
M  V30 4904 C 452.436 1.29153 -1.54667 0
M  V30 4905 O 451.492 2.07098 -1.44453 0
M  V30 4906 C 452.805 -0.823065 -2.89216 0
M  V30 4907 C 454.353 -0.793328 -3.02779 0
M  V30 4908 C 454.828 -1.38955 -4.36412 0
M  V30 4909 N 456.319 -1.35227 -4.43021 0
M  V30 4910 C 457.054 -1.78333 -5.44963 0
M  V30 4911 N 456.55 -2.29246 -6.53772 0
M  V30 4912 N 458.343 -1.69467 -5.35945 0
M  V30 4913 H 450.494 -1.5196 -1.48398 0
M  V30 4914 H 452.757 -0.633078 -0.705632 0
M  V30 4915 H 452.463 -1.8749 -2.97558 0
M  V30 4916 H 452.337 -0.309915 -3.75925 0
M  V30 4917 H 454.724 0.249784 -2.94041 0
M  V30 4918 H 454.805 -1.34412 -2.17639 0
M  V30 4919 H 454.449 -2.43168 -4.45906 0
M  V30 4920 H 454.379 -0.814291 -5.20266 0
M  V30 4921 H 456.87 -0.979739 -3.64979 0
M  V30 4922 H 457.183 -2.60089 -7.27718 0
M  V30 4923 H 455.528 -2.3325 -6.5469 0
M  V30 4924 H 458.719 -1.29477 -4.49837 0
M  V30 4925 H 458.892 -2.03381 -6.15256 0
M  V30 4926 N 452.299 1.55045 -0.282633 0
M  V30 4927 C 453.71 1.85473 0.213655 0
M  V30 4928 C 454.061 1.20465 1.54863 0
M  V30 4929 O 453.186 0.495676 2.10647 0
M  V30 4930 C 453.781 3.36496 0.394445 0
M  V30 4931 C 452.34 3.67022 0.834961 0
M  V30 4932 C 451.487 2.77218 -0.0674081 0
M  V30 4933 H 454.438 1.50478 -0.504202 0
M  V30 4934 H 454.459 3.60007 1.23186 0
M  V30 4935 H 453.971 3.83782 -0.577326 0
M  V30 4936 H 452.072 3.25241 1.81794 0
M  V30 4937 H 452.185 4.74433 0.667075 0
M  V30 4938 H 450.549 2.5069 0.450196 0
M  V30 4939 H 451.332 3.2732 -1.0352 0
M  V30 4940 N 453.777 0.010035 1.57597 0
M  V30 4941 C 455.193 -0.346164 1.55801 0
M  V30 4942 C 455.393 -1.74144 1.01371 0
M  V30 4943 O 454.449 -2.43938 0.651968 0
M  V30 4944 C 455.762 -0.212216 2.9995 0
M  V30 4945 C 457.31 -0.286409 3.11687 0
M  V30 4946 C 457.785 -0.18147 4.5764 0
M  V30 4947 N 459.276 -0.239056 4.62583 0
M  V30 4948 C 460.011 -0.181351 5.73113 0
M  V30 4949 N 459.507 -0.073661 6.92761 0
M  V30 4950 N 461.3 -0.233949 5.61613 0
M  V30 4951 H 453.451 0.922657 1.91313 0
M  V30 4952 H 455.714 0.354595 0.879185 0
M  V30 4953 H 455.42 0.748169 3.4365 0
M  V30 4954 H 455.294 -0.990224 3.6397 0
M  V30 4955 H 457.681 -1.23724 2.67911 0
M  V30 4956 H 457.762 0.521645 2.50425 0
M  V30 4957 H 457.406 0.765863 5.02093 0
M  V30 4958 H 457.336 -1.00814 5.1686 0
M  V30 4959 H 459.827 -0.32321 3.76515 0
M  V30 4960 H 460.14 -0.0358003 7.72792 0
M  V30 4961 H 458.485 -0.0391461 6.94989 0
M  V30 4962 H 461.676 -0.316347 4.6703 0
M  V30 4963 H 461.849 -0.185514 6.47734 0
M  V30 4964 N 455.255 -1.55392 -0.262866 0
M  V30 4965 C 456.483 -1.80513 -1.01108 0
M  V30 4966 C 456.898 -0.583533 -1.79556 0
M  V30 4967 O 456.255 0.447585 -1.76926 0
M  V30 4968 C 456.306 -3.03648 -1.96164 0
M  V30 4969 O 456.027 -4.2109 -1.20893 0
M  V30 4970 C 457.528 -3.41448 -2.82715 0
M  V30 4971 H 454.748 -0.601079 -0.298236 0
M  V30 4972 H 457.292 -2.02425 -0.290582 0
M  V30 4973 H 455.447 -2.83832 -2.63663 0
M  V30 4974 H 455.861 -4.90771 -1.85051 0
M  V30 4975 H 457.335 -4.30751 -3.45192 0
M  V30 4976 H 457.812 -2.61308 -3.53008 0
M  V30 4977 H 458.418 -3.63559 -2.20693 0
M  V30 4978 N 456.733 0.527833 -1.48498 0
M  V30 4979 C 458.144 1.10975 -1.50138 0
M  V30 4980 C 458.495 1.943 -0.272378 0
M  V30 4981 O 457.62 2.07319 0.620301 0
M  V30 4982 C 458.215 2.01927 -2.72049 0
M  V30 4983 C 456.774 2.55332 -2.76554 0
M  V30 4984 C 455.921 1.32341 -2.43683 0
M  V30 4985 H 458.872 0.312986 -1.55583 0
M  V30 4986 H 458.893 2.86244 -2.50689 0
M  V30 4987 H 458.405 1.41254 -3.61481 0
M  V30 4988 H 456.506 3.19721 -1.91336 0
M  V30 4989 H 456.619 2.94319 -3.78038 0
M  V30 4990 H 454.983 1.63989 -1.94884 0
M  V30 4991 H 455.766 0.734165 -3.35358 0
M  V30 4992 N 458.211 1.37122 0.776871 0
M  V30 4993 C 459.622 1.28667 1.35284 0
M  V30 4994 C 459.973 -0.0680035 1.96082 0
M  V30 4995 O 459.098 -0.969743 1.93455 0
M  V30 4996 C 459.693 2.32997 2.45963 0
M  V30 4997 C 458.252 2.28191 2.99342 0
M  V30 4998 C 457.399 2.17101 1.72517 0
M  V30 4999 H 460.35 1.47819 0.577527 0
M  V30 5000 H 460.371 1.97366 3.2531 0
M  V30 5001 H 459.883 3.3158 2.01684 0
M  V30 5002 H 457.984 1.33115 3.4801 0
M  V30 5003 H 458.097 3.21397 3.55304 0
M  V30 5004 H 456.461 1.63562 1.95242 0
M  V30 5005 H 457.244 3.17591 1.30348 0
M  V30 5006 N 459.689 -1.00246 1.21608 0
M  V30 5007 C 460.599 -2.12515 0.993709 0
M  V30 5008 C 461.615 -1.73913 -0.0549939 0
M  V30 5009 O 462.791 -2.00943 0.135619 0
M  V30 5010 C 459.856 -3.42083 0.563953 0
M  V30 5011 C 458.917 -3.94843 1.68516 0
M  V30 5012 C 458.15 -5.18226 1.27582 0
M  V30 5013 O 458.373 -5.70201 0.150506 0
M  V30 5014 O 457.307 -5.64497 2.0887 0
M  V30 5015 H 461.133 -2.34152 1.93407 0
M  V30 5016 H 458.718 -1.10891 1.00118 0
M  V30 5017 H 460.6 -4.20073 0.334194 0
M  V30 5018 H 459.275 -3.21828 -0.347665 0
M  V30 5019 H 458.182 -3.18068 1.96935 0
M  V30 5020 H 459.515 -4.19512 2.5743 0
M  V30 5021 N 461.167 -1.02423 -1.1978 0
M  V30 5022 C 462.13 -0.605703 -2.21052 0
M  V30 5023 C 463.13 0.328209 -1.57415 0
M  V30 5024 O 464.32 0.115853 -1.73814 0
M  V30 5025 C 461.452 0.114366 -3.40708 0
M  V30 5026 H 462.645 -1.5017 -2.59594 0
M  V30 5027 H 460.198 -0.814888 -1.33376 0
M  V30 5028 H 460.933 1.02492 -3.07678 0
M  V30 5029 H 460.718 -0.556641 -3.88129 0
M  V30 5030 H 462.208 0.394272 -4.15735 0
M  V30 5031 N 462.645 1.35699 -0.801477 0
M  V30 5032 C 463.894 1.98165 -0.375979 0
M  V30 5033 C 464.207 1.64306 1.06127 0
M  V30 5034 O 465.413 2.20097 1.58964 0
M  V30 5035 C 463.869 3.54497 -0.621305 0
M  V30 5036 C 463.477 3.9727 -2.07076 0
M  V30 5037 C 465.221 4.23697 -0.26091 0
M  V30 5038 C 463.128 5.46427 -2.26211 0
M  V30 5039 H 462.058 0.741478 -0.136844 0
M  V30 5040 H 464.709 1.54834 -0.984814 0
M  V30 5041 H 463.091 3.95958 0.0574112 0
M  V30 5042 H 464.265 3.66974 -2.78687 0
M  V30 5043 H 462.58 3.40943 -2.39054 0
M  V30 5044 H 465.177 5.33334 -0.381994 0
M  V30 5045 H 465.52 4.0869 0.792344 0
M  V30 5046 H 466.053 3.87639 -0.893339 0
M  V30 5047 H 462.792 5.66396 -3.29963 0
M  V30 5048 H 462.312 5.78309 -1.59119 0
M  V30 5049 H 463.991 6.12819 -2.07513 0
M  V30 5050 N 464.123 0.554532 1.47522 0
M  V30 5051 C 465.086 -0.184174 2.28459 0
M  V30 5052 C 466.086 -0.845195 1.36796 0
M  V30 5053 O 467.276 -0.701467 1.59452 0
M  V30 5054 C 464.408 -1.26903 3.16399 0
M  V30 5055 H 465.601 0.526751 2.95238 0
M  V30 5056 H 463.154 0.311375 1.53167 0
M  V30 5057 H 463.889 -2.01244 2.54306 0
M  V30 5058 H 463.674 -0.799883 3.83854 0
M  V30 5059 H 465.164 -1.78794 3.77389 0
M  V30 5060 N 465.601 -1.54893 0.290851 0
M  V30 5061 C 466.531 -2.26103 -0.583084 0
M  V30 5062 C 467.512 -1.25684 -1.14619 0
M  V30 5063 O 468.697 -1.54436 -1.17741 0
M  V30 5064 C 465.827 -2.99409 -1.75987 0
M  V30 5065 C 464.781 -4.0689 -1.32758 0
M  V30 5066 C 464.107 -4.67856 -2.58872 0
M  V30 5067 C 465.407 -5.20215 -0.46624 0
M  V30 5068 H 467.101 -2.99398 0.0108214 0
M  V30 5069 H 464.647 -1.43998 0.00664468 0
M  V30 5070 H 466.6 -3.47943 -2.37727 0
M  V30 5071 H 465.324 -2.23675 -2.37985 0
M  V30 5072 H 463.983 -3.59191 -0.733299 0
M  V30 5073 H 463.631 -3.88772 -3.19163 0
M  V30 5074 H 463.331 -5.40438 -2.30653 0
M  V30 5075 H 464.855 -5.19147 -3.21433 0
M  V30 5076 H 466.269 -5.64704 -0.989047 0
M  V30 5077 H 464.666 -5.99455 -0.27826 0
M  V30 5078 H 465.736 -4.82198 0.511173 0
M  V30 5079 N 467.08 -0.0183926 -1.57589 0
M  V30 5080 C 468.32 0.666846 -1.93216 0
M  V30 5081 C 468.684 1.69905 -0.894215 0
M  V30 5082 O 469.885 2.436 -1.13633 0
M  V30 5083 C 468.156 1.27684 -3.33814 0
M  V30 5084 S 469.715 1.98464 -3.91353 0
M  V30 5085 H 466.533 0.219826 -0.676164 0
M  V30 5086 H 469.135 -0.0794893 -1.95338 0
M  V30 5087 H 467.839 0.513006 -4.07181 0
M  V30 5088 H 467.37 2.06071 -3.3511 0
M  V30 5089 H 469.385 3.26189 -3.73918 0
M  V30 5090 N 468.558 1.5553 0.254621 0
M  V30 5091 C 469.783 1.81383 1.00573 0
M  V30 5092 C 470.208 0.594419 1.78461 0
M  V30 5093 O 469.566 -0.456403 1.75461 0
M  V30 5094 C 469.614 3.04892 1.92545 0
M  V30 5095 O 468.718 2.81266 3.01601 0
M  V30 5096 H 468.059 0.598969 0.286587 0
M  V30 5097 H 470.589 2.02703 0.277952 0
M  V30 5098 H 470.599 3.34119 2.34155 0
M  V30 5099 H 469.274 3.93287 1.3527 0
M  V30 5100 H 467.851 2.63185 2.64174 0
M  V30 5101 N 470.036 -0.519951 1.48776 0
M  V30 5102 C 471.452 -0.849418 1.35119 0
M  V30 5103 C 471.652 -1.98077 0.36982 0
M  V30 5104 O 470.708 -2.51664 -0.205359 0
M  V30 5105 C 472.021 -1.20748 2.75391 0
M  V30 5106 C 473.569 -1.31679 2.83954 0
M  V30 5107 C 474.044 -1.70824 4.24951 0
M  V30 5108 N 475.535 -1.77908 4.27672 0
M  V30 5109 C 476.27 -2.09603 5.33717 0
M  V30 5110 N 475.766 -2.39652 6.5003 0
M  V30 5111 N 477.559 -2.10694 5.21119 0
M  V30 5112 H 469.71 0.226377 2.1119 0
M  V30 5113 H 471.973 0.0386519 0.947212 0
M  V30 5114 H 471.679 -0.449703 3.48813 0
M  V30 5115 H 471.553 -2.15534 3.09556 0
M  V30 5116 H 473.94 -2.06532 2.10781 0
M  V30 5117 H 474.021 -0.3499 2.53396 0
M  V30 5118 H 473.665 -0.965282 4.98643 0
M  V30 5119 H 473.595 -2.6858 4.52959 0
M  V30 5120 H 476.086 -1.56923 3.43779 0
M  V30 5121 H 476.399 -2.6297 7.26682 0
M  V30 5122 H 474.744 -2.37149 6.53288 0
M  V30 5123 H 477.935 -1.86682 4.29264 0
M  V30 5124 H 478.108 -2.35062 6.03863 0
M  V30 5125 N 471.514 -1.37532 -0.769588 0
M  V30 5126 C 472.444 -1.36172 -1.89682 0
M  V30 5127 C 473.425 -0.23001 -1.68538 0
M  V30 5128 O 474.61 -0.43069 -1.89364 0
M  V30 5129 C 471.74 -1.1701 -3.26995 0
M  V30 5130 C 470.694 -2.27216 -3.62708 0
M  V30 5131 C 470.02 -1.93174 -4.98586 0
M  V30 5132 C 471.32 -3.6941 -3.69234 0
M  V30 5133 H 473.014 -2.30499 -1.91078 0
M  V30 5134 H 470.56 -1.10953 -0.917902 0
M  V30 5135 H 472.513 -1.14688 -4.05493 0
M  V30 5136 H 471.237 -0.191395 -3.26039 0
M  V30 5137 H 469.896 -2.28697 -2.86519 0
M  V30 5138 H 469.544 -0.938281 -4.94171 0
M  V30 5139 H 469.244 -2.66973 -5.23449 0
M  V30 5140 H 470.768 -1.92443 -5.79481 0
M  V30 5141 H 472.182 -3.70047 -4.37879 0
M  V30 5142 H 470.579 -4.4228 -4.05597 0
M  V30 5143 H 471.649 -4.0288 -2.69844 0
M  V30 5144 N 472.992 0.995999 -1.22138 0
M  V30 5145 C 473.922 2.10387 -1.01289 0
M  V30 5146 C 474.903 1.69975 0.0651454 0
M  V30 5147 O 476.088 1.9396 -0.0964628 0
M  V30 5148 C 473.218 3.42312 -0.586517 0
M  V30 5149 C 472.172 3.96558 -1.61014 0
M  V30 5150 C 471.498 5.24494 -1.0397 0
M  V30 5151 C 472.798 4.27595 -2.99933 0
M  V30 5152 H 474.492 2.28086 -1.93951 0
M  V30 5153 H 472.038 1.09607 -0.933928 0
M  V30 5154 H 473.991 4.19223 -0.427793 0
M  V30 5155 H 472.715 3.24431 0.375761 0
M  V30 5156 H 471.374 3.21776 -1.75658 0
M  V30 5157 H 471.022 5.02953 -0.0688703 0
M  V30 5158 H 470.722 5.61755 -1.72352 0
M  V30 5159 H 472.246 6.04042 -0.892494 0
M  V30 5160 H 473.66 4.95315 -2.8868 0
M  V30 5161 H 472.057 4.76021 -3.6541 0
M  V30 5162 H 473.127 3.35498 -3.50099 0
M  V30 5163 N 474.47 1.03057 1.19235 0
M  V30 5164 C 475.38 0.622922 2.26179 0
M  V30 5165 C 476.396 -0.346113 1.70523 0
M  V30 5166 O 477.572 -0.203572 2.00369 0
M  V30 5167 C 474.637 -0.0182063 3.46695 0
M  V30 5168 C 473.698 0.998546 4.17526 0
M  V30 5169 C 472.931 0.387917 5.32288 0
M  V30 5170 O 473.154 -0.808668 5.64639 0
M  V30 5171 O 472.088 1.1116 5.91546 0
M  V30 5172 H 475.914 1.51363 2.63292 0
M  V30 5173 H 473.499 0.800856 1.26122 0
M  V30 5174 H 475.381 -0.375606 4.19723 0
M  V30 5175 H 474.056 -0.882895 3.11427 0
M  V30 5176 H 472.963 1.40756 3.4661 0
M  V30 5177 H 474.296 1.83366 4.56769 0
M  V30 5178 N 475.948 -1.35272 0.808662 0
M  V30 5179 C 477.178 -2.02652 0.401953 0
M  V30 5180 C 477.586 -1.6108 -0.992462 0
M  V30 5181 O 476.929 -0.804984 -1.65123 0
M  V30 5182 C 476.991 -3.57174 0.408246 0
M  V30 5183 C 476.655 -4.22019 1.75353 0
M  V30 5184 C 477.652 -4.43552 2.71215 0
M  V30 5185 C 475.337 -4.59093 2.03811 0
M  V30 5186 C 477.331 -5.01264 3.93717 0
M  V30 5187 C 475.018 -5.16519 3.26576 0
M  V30 5188 C 476.016 -5.37546 4.21347 0
M  V30 5189 O 475.704 -5.93761 5.41944 0
M  V30 5190 H 475.436 -0.656495 0.161216 0
M  V30 5191 H 477.99 -1.73829 1.0942 0
M  V30 5192 H 476.22 -3.85197 -0.340608 0
M  V30 5193 H 477.909 -4.05893 0.0235623 0
M  V30 5194 H 478.675 -4.15288 2.50522 0
M  V30 5195 H 474.554 -4.42039 1.30854 0
M  V30 5196 H 478.098 -5.17592 4.67701 0
M  V30 5197 H 473.995 -5.4421 3.47139 0
M  V30 5198 H 474.763 -6.1221 5.43269 0
M  V30 5199 N 477.426 -0.562348 -1.47226 0
M  V30 5200 C 478.654 -0.0452275 -2.06851 0
M  V30 5201 C 479.069 1.25078 -1.41424 0
M  V30 5202 O 478.426 1.75156 -0.512513 0
M  V30 5203 C 478.477 0.148674 -3.61194 0
M  V30 5204 O 478.198 -1.09602 -4.24169 0
M  V30 5205 C 479.699 0.702488 -4.37699 0
M  V30 5206 H 476.919 -0.0481775 -0.669268 0
M  V30 5207 H 479.463 -0.777223 -1.89155 0
M  V30 5208 H 477.618 0.830817 -3.78386 0
M  V30 5209 H 478.032 -0.896982 -5.16773 0
M  V30 5210 H 479.506 0.78743 -5.46355 0
M  V30 5211 H 479.983 1.71493 -4.04335 0
M  V30 5212 H 480.589 0.0558772 -4.25263 0
M  V30 5213 N 478.904 1.54736 -0.299062 0
M  V30 5214 C 480.315 1.8569 0.193971 0
M  V30 5215 C 480.666 1.22101 1.53577 0
M  V30 5216 O 479.791 0.51799 2.10109 0
M  V30 5217 C 480.386 3.36895 0.358733 0
M  V30 5218 C 478.945 3.67887 0.795986 0
M  V30 5219 C 478.092 2.77131 -0.096807 0
M  V30 5220 H 481.043 1.49934 -0.520134 0
M  V30 5221 H 481.064 3.61294 1.19361 0
M  V30 5222 H 480.576 3.83148 -0.617998 0
M  V30 5223 H 478.677 3.27151 1.78334 0
M  V30 5224 H 478.79 4.75114 0.616718 0
M  V30 5225 H 477.154 2.51153 0.423581 0
M  V30 5226 H 477.937 3.26204 -1.06986 0
M  V30 5227 N 480.382 0.0267497 1.57577 0
M  V30 5228 C 481.61 -0.662661 1.96001 0
M  V30 5229 C 482.025 -1.65799 0.903117 0
M  V30 5230 O 481.382 -1.82135 -0.115317 0
M  V30 5231 C 481.433 -1.37112 3.34488 0
M  V30 5232 O 481.154 -0.415683 4.36123 0
M  V30 5233 C 482.655 -2.15257 3.8753 0
M  V30 5234 H 479.875 -0.18287 0.6456 0
M  V30 5235 H 482.419 0.0858116 2.0432 0
M  V30 5236 H 480.574 -2.07101 3.27395 0
M  V30 5237 H 480.988 -0.918496 5.16395 0
M  V30 5238 H 482.462 -2.60285 4.86781 0
M  V30 5239 H 482.939 -2.99063 3.21649 0
M  V30 5240 H 483.545 -1.50231 3.97883 0
M  V30 5241 N 481.861 -1.55662 -0.24637 0
M  V30 5242 C 482.824 -1.89558 -1.28842 0
M  V30 5243 C 483.824 -0.772082 -1.41052 0
M  V30 5244 O 485.014 -1.04007 -1.39743 0
M  V30 5245 C 482.146 -2.12449 -2.66605 0
M  V30 5246 H 483.339 -2.82735 -1.00004 0
M  V30 5247 H 480.892 -1.48562 -0.485684 0
M  V30 5248 H 481.627 -1.21742 -3.00582 0
M  V30 5249 H 481.412 -2.94273 -2.59125 0
M  V30 5250 H 482.902 -2.39854 -3.41847 0
M  V30 5251 N 483.339 0.512053 -1.4905 0
M  V30 5252 C 484.755 0.84224 -1.35567 0
M  V30 5253 C 484.955 1.97878 -0.380319 0
M  V30 5254 O 484.011 2.51769 0.19201 0
M  V30 5255 C 485.324 1.19286 -2.76028 0
M  V30 5256 C 486.872 1.30171 -2.84648 0
M  V30 5257 C 487.347 1.68568 -4.25851 0
M  V30 5258 N 488.838 1.75638 -4.28609 0
M  V30 5259 C 489.573 2.06769 -5.34821 0
M  V30 5260 N 489.069 2.36201 -6.51292 0
M  V30 5261 N 490.862 2.07927 -5.22229 0
M  V30 5262 H 483.013 -0.237574 -2.11067 0
M  V30 5263 H 485.276 -0.0436747 -0.946993 0
M  V30 5264 H 484.982 0.431199 -3.49047 0
M  V30 5265 H 484.856 2.13889 -3.10695 0
M  V30 5266 H 487.243 2.05411 -2.11873 0
M  V30 5267 H 487.324 0.336457 -2.53578 0
M  V30 5268 H 486.968 0.938824 -4.99148 0
M  V30 5269 H 486.898 2.66174 -4.54377 0
M  V30 5270 H 489.389 1.55097 -3.44606 0
M  V30 5271 H 489.702 2.59112 -7.28066 0
M  V30 5272 H 488.047 2.33681 -6.54536 0
M  V30 5273 H 491.238 1.84403 -4.30248 0
M  V30 5274 H 491.411 2.31856 -6.05101 0
M  V30 5275 N 484.817 1.37938 0.762283 0
M  V30 5276 C 485.747 1.37176 1.88958 0
M  V30 5277 C 486.728 0.238945 1.68413 0
M  V30 5278 O 487.913 0.440726 1.89133 0
M  V30 5279 C 485.043 1.18742 3.2637 0
M  V30 5280 C 483.997 2.29136 3.61498 0
M  V30 5281 C 483.323 1.95816 4.97554 0
M  V30 5282 C 484.623 3.71363 3.6727 0
M  V30 5283 H 486.317 2.31509 1.89853 0
M  V30 5284 H 483.863 1.11438 0.912005 0
M  V30 5285 H 485.816 1.16837 4.04879 0
M  V30 5286 H 484.54 0.208683 3.25933 0
M  V30 5287 H 483.199 2.30213 2.85303 0
M  V30 5288 H 482.847 0.964475 4.93667 0
M  V30 5289 H 482.547 2.69745 5.22026 0
M  V30 5290 H 484.071 1.95513 5.78452 0
M  V30 5291 H 485.485 3.72364 4.35911 0
M  V30 5292 H 483.882 4.44425 4.03245 0
M  V30 5293 H 484.952 4.04305 2.67704 0
M  V30 5294 N 486.295 -0.989507 1.22664 0
M  V30 5295 C 487.523 -1.76496 1.07967 0
M  V30 5296 C 487.938 -1.85148 -0.369543 0
M  V30 5297 O 487.295 -1.32408 -1.25596 0
M  V30 5298 C 487.346 -3.19642 1.68853 0
M  V30 5299 O 487.067 -3.11453 3.08105 0
M  V30 5300 C 488.568 -4.13621 1.59475 0
M  V30 5301 H 485.788 -0.55418 0.378319 0
M  V30 5302 H 488.332 -1.24378 1.62328 0
M  V30 5303 H 486.487 -3.68816 1.18547 0
M  V30 5304 H 486.901 -4.01499 3.37489 0
M  V30 5305 H 488.375 -5.11801 2.06795 0
M  V30 5306 H 488.852 -4.35718 0.55191 0
M  V30 5307 H 489.458 -3.70346 2.09103 0
M  V30 5308 N 487.773 -1.03688 -1.18687 0
M  V30 5309 C 489.184 -0.766488 -1.70241 0
M  V30 5310 C 489.535 0.713052 -1.82784 0
M  V30 5311 O 488.66 1.55529 -1.50465 0
M  V30 5312 C 489.255 -1.38475 -3.09209 0
M  V30 5313 C 487.814 -1.16276 -3.5799 0
M  V30 5314 C 486.961 -1.4778 -2.34641 0
M  V30 5315 H 489.912 -1.20378 -1.03415 0
M  V30 5316 H 489.933 -0.785939 -3.72295 0
M  V30 5317 H 489.445 -2.46157 -3.00048 0
M  V30 5318 H 487.546 -0.104508 -3.72453 0
M  V30 5319 H 487.659 -1.8571 -4.41643 0
M  V30 5320 H 486.023 -0.897366 -2.38368 0
M  V30 5321 H 486.806 -2.56562 -2.28102 0
M  V30 5322 N 489.251 1.34841 -0.815825 0
M  V30 5323 C 490.181 2.32187 -0.247298 0
M  V30 5324 C 491.162 1.5791 0.632344 0
M  V30 5325 O 492.347 1.8593 0.560698 0
M  V30 5326 C 489.477 3.42122 0.597466 0
M  V30 5327 C 488.431 4.27602 -0.184446 0
M  V30 5328 C 487.757 5.28942 0.782609 0
M  V30 5329 C 489.057 5.03502 -1.38865 0
M  V30 5330 H 490.751 2.79985 -1.06061 0
M  V30 5331 H 488.297 1.34611 -0.511461 0
M  V30 5332 H 490.25 4.09232 1.00533 0
M  V30 5333 H 488.974 2.92956 1.44376 0
M  V30 5334 H 487.633 3.62085 -0.573592 0
M  V30 5335 H 487.281 4.7604 1.62466 0
M  V30 5336 H 486.981 5.87008 0.263695 0
M  V30 5337 H 488.505 5.98922 1.18848 0
M  V30 5338 H 489.919 5.63506 -1.05518 0
M  V30 5339 H 488.316 5.71108 -1.8427 0
M  V30 5340 H 489.386 4.33608 -2.17054 0
M  V30 5341 N 490.729 0.570148 1.46925 0
M  V30 5342 C 491.639 -0.173061 2.33961 0
M  V30 5343 C 492.655 -0.898825 1.48987 0
M  V30 5344 O 493.831 -0.864825 1.81887 0
M  V30 5345 C 490.896 -1.18177 3.25937 0
M  V30 5346 C 489.957 -0.462041 4.26806 0
M  V30 5347 C 489.19 -1.4227 5.14388 0
M  V30 5348 O 489.413 -2.65842 5.04662 0
M  V30 5349 O 488.347 -0.940127 5.94513 0
M  V30 5350 H 492.173 0.541216 2.98839 0
M  V30 5351 H 489.758 0.330647 1.45695 0
M  V30 5352 H 491.64 -1.76372 3.82715 0
M  V30 5353 H 490.315 -1.87774 2.63671 0
M  V30 5354 H 489.222 0.161429 3.73752 0
M  V30 5355 H 490.555 0.192719 4.91823 0
M  V30 5356 N 492.207 -1.54576 0.307264 0
M  V30 5357 C 493.17 -2.22423 -0.553224 0
M  V30 5358 C 494.17 -1.21231 -1.05639 0
M  V30 5359 O 495.36 -1.45923 -0.951419 0
M  V30 5360 C 492.492 -2.91552 -1.76664 0
M  V30 5361 H 493.685 -2.99874 0.0396484 0
M  V30 5362 H 491.238 -1.56192 0.0581629 0
M  V30 5363 H 491.973 -2.18196 -2.39918 0
M  V30 5364 H 491.758 -3.65738 -1.41343 0
M  V30 5365 H 493.248 -3.43292 -2.37783 0
M  V30 5366 N 493.685 -0.035106 -1.57561 0
M  V30 5367 C 494.925 0.646316 -1.93913 0
M  V30 5368 C 495.289 1.68947 -0.912185 0
M  V30 5369 O 496.49 2.42381 -1.1621 0
M  V30 5370 C 494.761 1.24136 -3.35149 0
M  V30 5371 S 496.32 1.94302 -3.93436 0
M  V30 5372 H 493.138 0.212642 -0.678457 0
M  V30 5373 H 495.74 -0.100203 -1.95243 0
M  V30 5374 H 494.444 0.46979 -4.07702 0
M  V30 5375 H 493.975 2.02505 -3.37276 0
M  V30 5376 H 495.99 3.22205 -3.77357 0
M  V30 5377 N 495.163 1.55791 0.238111 0
M  V30 5378 C 496.126 1.90239 1.27835 0
M  V30 5379 C 497.126 0.779552 1.4064 0
M  V30 5380 O 498.316 1.04747 1.3919 0
M  V30 5381 C 495.448 2.13859 2.65475 0
M  V30 5382 H 496.641 2.83262 0.985034 0
M  V30 5383 H 494.194 1.48818 0.477799 0
M  V30 5384 H 494.929 1.23334 2.99932 0
M  V30 5385 H 494.714 2.95643 2.57561 0
M  V30 5386 H 496.204 2.41664 3.40571 0
M  V30 5387 N 496.642 -0.504142 1.49319 0
M  V30 5388 C 497.592 -1.60284 1.62151 0
M  V30 5389 C 498.576 -1.53657 0.477315 0
M  V30 5390 O 499.768 -1.6124 0.730108 0
M  V30 5391 C 496.897 -2.98909 1.68844 0
M  V30 5392 C 495.983 -3.10544 2.8883 0
M  V30 5393 N 496.374 -2.92078 4.12946 0
M  V30 5394 C 494.672 -3.4164 2.86702 0
M  V30 5395 C 495.373 -3.07812 4.93585 0
M  V30 5396 N 494.349 -3.36549 4.26891 0
M  V30 5397 H 498.151 -1.44656 2.55835 0
M  V30 5398 H 495.665 -0.710198 1.46048 0
M  V30 5399 H 497.662 -3.77865 1.76134 0
M  V30 5400 H 496.322 -3.15609 0.762943 0
M  V30 5401 H 497.333 -2.68316 4.42975 0
M  V30 5402 H 494.01 -3.64537 2.03517 0
M  V30 5403 H 495.4 -2.98054 6.02174 0
M  V30 5404 N 498.12 -1.38341 -0.754957 0
M  V30 5405 C 499.345 -1.37882 -1.5493 0
M  V30 5406 C 499.77 0.0296385 -1.88077 0
M  V30 5407 O 499.128 1.01133 -1.50472 0
M  V30 5408 C 499.176 -2.23996 -2.82592 0
M  V30 5409 O 498.28 -1.65612 -3.77686 0
M  V30 5410 H 497.621 -0.470384 -0.468652 0
M  V30 5411 H 500.151 -1.82084 -0.933082 0
M  V30 5412 H 500.161 -2.37806 -3.3153 0
M  V30 5413 H 498.836 -3.26365 -2.57796 0
M  V30 5414 H 497.413 -1.60936 -3.36384 0
M  V30 5415 N 499.598 0.982988 -1.23187 0
M  V30 5416 C 500.845 1.72392 -1.06241 0
M  V30 5417 C 501.173 1.9032 0.40108 0
M  V30 5418 O 500.428 1.45084 1.31336 0
M  V30 5419 C 500.727 3.12736 -1.73006 0
M  V30 5420 C 500.393 3.14695 -3.22921 0
M  V30 5421 C 499.055 3.14937 -3.63824 0
M  V30 5422 C 501.407 3.10211 -4.1883 0
M  V30 5423 C 498.735 3.08408 -4.99101 0
M  V30 5424 C 501.087 3.05224 -5.54095 0
M  V30 5425 C 499.751 3.03787 -5.94365 0
M  V30 5426 H 499.021 0.630829 -0.388762 0
M  V30 5427 H 501.668 1.15053 -1.53085 0
M  V30 5428 H 499.973 3.73446 -1.18514 0
M  V30 5429 H 501.67 3.68828 -1.57374 0
M  V30 5430 H 498.26 3.15262 -2.90358 0
M  V30 5431 H 502.444 3.09166 -3.8824 0
M  V30 5432 H 497.7 3.05646 -5.29519 0
M  V30 5433 H 501.874 3.00712 -6.28128 0
M  V30 5434 H 499.501 2.98483 -6.99151 0
M  V30 5435 N 501.076 1.04316 1.18135 0
M  V30 5436 C 502.323 0.74802 1.88178 0
M  V30 5437 C 502.651 -0.72441 1.80506 0
M  V30 5438 O 501.906 -1.54463 1.20165 0
M  V30 5439 C 502.205 1.16271 3.37958 0
M  V30 5440 C 501.871 2.63585 3.65833 0
M  V30 5441 C 500.533 3.03829 3.73151 0
M  V30 5442 C 502.885 3.58822 3.78016 0
M  V30 5443 C 500.213 4.38194 3.90132 0
M  V30 5444 C 502.565 4.92909 3.96514 0
M  V30 5445 C 501.229 5.3282 4.02068 0
M  V30 5446 H 500.499 0.27372 0.688592 0
M  V30 5447 H 503.146 1.30863 1.39811 0
M  V30 5448 H 501.451 0.520938 3.88321 0
M  V30 5449 H 503.148 0.911672 3.90499 0
M  V30 5450 H 499.738 2.31414 3.60757 0
M  V30 5451 H 503.922 3.28875 3.71692 0
M  V30 5452 H 499.178 4.68631 3.92677 0
M  V30 5453 H 503.352 5.66606 4.04883 0
M  V30 5454 H 500.979 6.36943 4.14979 0
M  V30 5455 N 502.554 -1.34406 0.822964 0
M  V30 5456 C 503.831 -1.92733 0.333641 0
M  V30 5457 C 504.211 -1.75107 -1.17901 0
M  V30 5458 O 503.559 -1.12983 -1.98613 0
M  V30 5459 C 503.769 -3.40557 0.763023 0
M  V30 5460 C 505.117 -4.17709 0.761879 0
M  V30 5461 O 506.141 -3.49141 0.705606 0
M  V30 5462 O 505 -5.40082 0.835109 0
M  V30 5463 H 502.094 -0.821964 0.0911249 0
M  V30 5464 H 504.64 -1.4338 0.907757 0
M  V30 5465 H 503.412 -3.47187 1.8049 0
M  V30 5466 H 503.035 -3.97259 0.164605 0
M  V30 5467 N 504.032 -0.577932 -1.46621 0
M  V30 5468 C 504.942 0.160651 -2.34049 0
M  V30 5469 C 505.958 0.890911 -1.49462 0
M  V30 5470 O 507.134 0.855166 -1.82343 0
M  V30 5471 C 504.199 1.16447 -3.26559 0
M  V30 5472 C 503.26 0.4394 -4.27045 0
M  V30 5473 C 502.493 1.3954 -5.15135 0
M  V30 5474 O 502.716 2.63162 -5.06065 0
M  V30 5475 O 501.65 0.908585 -5.95003 0
M  V30 5476 H 505.476 -0.557057 -2.98547 0
M  V30 5477 H 503.061 -0.338369 -1.45518 0
M  V30 5478 H 504.943 1.7434 -3.83645 0
M  V30 5479 H 503.618 1.86373 -2.64663 0
M  V30 5480 H 502.525 -0.181247 -3.73661 0
M  V30 5481 H 503.858 -0.218799 -4.91713 0
M  V30 5482 N 505.51 1.54411 -0.315457 0
M  V30 5483 C 506.44 2.27002 0.547039 0
M  V30 5484 C 507.421 1.27492 1.12605 0
M  V30 5485 O 508.606 1.5629 1.15269 0
M  V30 5486 C 505.736 3.02171 1.71201 0
M  V30 5487 C 504.69 4.0895 1.26268 0
M  V30 5488 C 504.016 4.71915 2.51396 0
M  V30 5489 C 505.316 5.20891 0.383419 0
M  V30 5490 H 507.01 2.99343 -0.0584517 0
M  V30 5491 H 504.556 1.4397 -0.0295527 0
M  V30 5492 H 506.509 3.51681 2.32161 0
M  V30 5493 H 505.233 2.27433 2.34397 0
M  V30 5494 H 503.892 3.60312 0.676062 0
M  V30 5495 H 503.54 3.93801 3.12937 0
M  V30 5496 H 503.24 5.44039 2.22026 0
M  V30 5497 H 504.764 5.24195 3.13133 0
M  V30 5498 H 506.178 5.66206 0.899082 0
M  V30 5499 H 504.575 5.99821 0.182857 0
M  V30 5500 H 505.645 4.81324 -0.587821 0
M  V30 5501 N 506.988 0.0434614 1.5754 0
M  V30 5502 C 508.404 -0.313039 1.565 0
M  V30 5503 C 508.604 -1.71954 1.05043 0
M  V30 5504 O 507.66 -2.425 0.703564 0
M  V30 5505 C 508.973 -0.148544 3.00333 0
M  V30 5506 C 510.521 -0.220231 3.12224 0
M  V30 5507 C 510.996 -0.0843565 4.57922 0
M  V30 5508 N 512.487 -0.140881 4.62986 0
M  V30 5509 C 513.222 -0.0597443 5.73369 0
M  V30 5510 N 512.718 0.0733004 6.92761 0
M  V30 5511 N 514.511 -0.11477 5.61983 0
M  V30 5512 H 506.662 0.96303 1.89313 0
M  V30 5513 H 508.925 0.373164 0.871466 0
M  V30 5514 H 508.631 0.820894 3.41986 0
M  V30 5515 H 508.505 -0.912798 3.65989 0
M  V30 5516 H 510.892 -1.18014 2.70475 0
M  V30 5517 H 510.973 0.574646 2.49262 0
M  V30 5518 H 510.617 0.872192 5.00355 0
M  V30 5519 H 510.547 -0.898281 5.18882 0
M  V30 5520 H 513.038 -0.243273 3.77116 0
M  V30 5521 H 513.351 0.128128 7.72694 0
M  V30 5522 H 511.696 0.10828 6.94916 0
M  V30 5523 H 514.887 -0.217212 4.67596 0
M  V30 5524 H 515.06 -0.0480779 6.47982 0
M  V30 5525 N 508.466 -1.55915 -0.229846 0
M  V30 5526 C 509.743 -1.6932 -0.979295 0
M  V30 5527 C 510.123 -0.588321 -2.02736 0
M  V30 5528 O 509.471 0.40586 -2.24867 0
M  V30 5529 C 509.681 -3.10305 -1.59724 0
M  V30 5530 C 511.029 -3.6945 -2.09264 0
M  V30 5531 O 512.053 -3.13214 -1.69633 0
M  V30 5532 O 510.912 -4.68072 -2.82082 0
M  V30 5533 H 508.006 -0.689314 -0.456919 0
M  V30 5534 H 510.552 -1.68238 -0.222283 0
M  V30 5535 H 509.324 -3.82177 -0.840039 0
M  V30 5536 H 508.947 -3.1547 -2.42001 0
M  V30 5537 N 509.944 0.496216 -1.49584 0
M  V30 5538 C 511.355 1.07765 -1.52459 0
M  V30 5539 C 511.706 1.93679 -0.31353 0
M  V30 5540 O 510.831 2.08588 0.576186 0
M  V30 5541 C 511.426 1.96111 -2.76271 0
M  V30 5542 C 509.985 2.49409 -2.81908 0
M  V30 5543 C 509.132 1.27142 -2.46435 0
M  V30 5544 H 512.083 0.279914 -1.56212 0
M  V30 5545 H 512.104 2.80862 -2.56704 0
M  V30 5546 H 511.616 1.33555 -3.64396 0
M  V30 5547 H 509.717 3.1559 -1.98074 0
M  V30 5548 H 509.83 2.86234 -3.84196 0
M  V30 5549 H 508.194 1.59818 -1.98319 0
M  V30 5550 H 508.977 0.662866 -3.3684 0
M  V30 5551 N 511.423 1.38739 0.74761 0
M  V30 5552 C 512.371 1.36573 1.88283 0
M  V30 5553 C 513.365 0.250712 1.67534 0
M  V30 5554 O 514.571 0.420073 1.7503 0
M  V30 5555 H 510.946 0.42619 0.619569 0
M  V30 5556 H 512.917 2.32356 1.87226 0
M  V30 5557 C 511.666 1.21361 3.25832 0
M  V30 5558 H 510.989 2.06424 3.42388 0
M  V30 5559 H 512.429 1.23901 4.05493 0
M  V30 5560 C 510.888 -0.0790099 3.36807 0
M  V30 5561 O 511.418 -1.05385 3.8763 0
M  V30 5562 N 509.624 -0.13785 2.90273 0
M  V30 5563 H 509.171 0.656128 2.49104 0
M  V30 5564 H 509.129 -1.00228 2.97996 0
M  V30 5565 N 512.901 -0.976442 1.23707 0
M  V30 5566 C 514.147 -1.72081 1.07312 0
M  V30 5567 C 514.48 -1.90275 -0.388476 0
M  V30 5568 O 513.755 -1.4579 -1.28746 0
M  V30 5569 C 514.038 -3.11675 1.80363 0
M  V30 5570 C 513.891 -3.01027 3.3422 0
M  V30 5571 C 515.21 -4.1117 1.5693 0
M  V30 5572 H 512.329 -0.624583 0.391236 0
M  V30 5573 H 514.971 -1.13649 1.52263 0
M  V30 5574 H 513.121 -3.61559 1.42153 0
M  V30 5575 H 514.793 -2.58637 3.81975 0
M  V30 5576 H 513.036 -2.3744 3.63049 0
M  V30 5577 H 513.707 -3.9988 3.80525 0
M  V30 5578 H 516.183 -3.7011 1.90151 0
M  V30 5579 H 515.059 -5.06928 2.10513 0
M  V30 5580 H 515.32 -4.392 0.505548 0
M  V30 5581 N 514.379 -1.04941 -1.1758 0
M  V30 5582 C 515.326 -0.648155 -2.21512 0
M  V30 5583 C 516.296 0.348431 -1.62404 0
M  V30 5584 O 517.481 0.240419 -1.89279 0
M  V30 5585 C 514.621 -0.0264291 -3.4509 0
M  V30 5586 C 513.734 -1.07154 -4.185 0
M  V30 5587 C 512.869 -0.417403 -5.29558 0
M  V30 5588 C 511.908 -1.447 -5.94751 0
M  V30 5589 N 511.045 -0.817203 -6.97328 0
M  V30 5590 H 515.885 -1.53891 -2.55189 0
M  V30 5591 H 513.422 -0.769699 -1.25356 0
M  V30 5592 H 515.38 0.351456 -4.15717 0
M  V30 5593 H 514.01 0.827802 -3.12005 0
M  V30 5594 H 513.062 -1.56728 -3.46613 0
M  V30 5595 H 514.374 -1.8532 -4.63096 0
M  V30 5596 H 513.528 0.0142061 -6.06698 0
M  V30 5597 H 512.267 0.396265 -4.86087 0
M  V30 5598 H 511.272 -1.88865 -5.16343 0
M  V30 5599 H 512.497 -2.26252 -6.40302 0
M  V30 5600 H 510.443 -0.0239995 -6.55996 0
M  V30 5601 H 510.36 -1.53644 -7.40223 0
M  V30 5602 H 511.628 -0.410283 -7.7842 0
M  V30 5603 N 515.857 1.33968 -0.830081 0
M  V30 5604 C 516.787 2.31911 -0.271911 0
M  V30 5605 C 517.768 1.58571 0.61556 0
M  V30 5606 O 518.953 1.86514 0.540946 0
M  V30 5607 C 516.083 3.42737 0.561146 0
M  V30 5608 C 515.037 4.27383 -0.229789 0
M  V30 5609 C 514.363 5.29742 0.726463 0
M  V30 5610 C 515.663 5.02 -1.44197 0
M  V30 5611 H 517.357 2.78844 -1.09025 0
M  V30 5612 H 514.903 1.34061 -0.52571 0
M  V30 5613 H 516.856 4.10276 0.961867 0
M  V30 5614 H 515.58 2.94471 1.41261 0
M  V30 5615 H 514.239 3.61456 -0.611964 0
M  V30 5616 H 513.887 4.77736 1.57408 0
M  V30 5617 H 513.587 5.87255 0.20142 0
M  V30 5618 H 515.111 6.00149 1.12489 0
M  V30 5619 H 516.525 5.62355 -1.11488 0
M  V30 5620 H 514.922 5.69122 -1.90317 0
M  V30 5621 H 515.992 4.31281 -2.2164 0
M  V30 5622 N 517.335 0.585699 1.46312 0
M  V30 5623 C 518.746 0.159938 1.86014 0
M  V30 5624 C 519.097 -1.27775 1.48889 0
M  V30 5625 O 518.222 -1.96559 0.90519 0
M  V30 5626 C 518.817 0.283485 3.37612 0
M  V30 5627 C 517.376 -0.0874256 3.76298 0
M  V30 5628 C 516.523 0.618055 2.70325 0
M  V30 5629 H 519.474 0.793737 1.37425 0
M  V30 5630 H 519.495 -0.490348 3.77327 0
M  V30 5631 H 519.007 1.32995 3.64601 0
M  V30 5632 H 517.108 -1.13391 3.54927 0
M  V30 5633 H 517.221 0.290975 4.78216 0
M  V30 5634 H 515.585 0.057993 2.54634 0
M  V30 5635 H 516.368 1.66623 3.00153 0
M  V30 5636 N 518.813 -1.54241 0.323641 0
M  V30 5637 C 519.761 -2.25813 -0.557804 0
M  V30 5638 C 520.755 -1.27225 -1.11849 0
M  V30 5639 O 521.961 -1.45001 -1.06652 0
M  V30 5640 H 518.336 -0.72532 -0.198532 0
M  V30 5641 H 520.307 -2.98322 0.0681112 0
M  V30 5642 C 519.056 -3.02913 -1.70701 0
M  V30 5643 H 518.379 -3.78593 -1.28482 0
M  V30 5644 H 519.819 -3.56238 -2.29935 0
M  V30 5645 C 518.278 -2.11217 -2.62467 0
M  V30 5646 O 518.808 -1.69508 -3.64184 0
M  V30 5647 N 517.014 -1.76704 -2.30703 0
M  V30 5648 H 516.561 -2.1082 -1.48029 0
M  V30 5649 H 516.519 -1.15631 -2.92364 0
M  V30 5650 N 520.291 -0.0518155 -1.57515 0
M  V30 5651 C 521.539 0.620595 -1.92336 0
M  V30 5652 C 521.86 1.71345 -0.930907 0
M  V30 5653 O 521.13 1.95885 0.0241341 0
M  V30 5654 H 519.71 0.232226 -0.709986 0
M  V30 5655 H 522.372 -0.104969 -1.94617 0
M  V30 5656 H 521.468 1.05879 -2.93592 0
M  V30 5657 N 521.769 1.56035 0.221574 0
M  V30 5658 C 523.185 1.49026 0.571271 0
M  V30 5659 C 523.385 0.746912 1.87146 0
M  V30 5660 O 522.441 0.286566 2.50869 0
M  V30 5661 C 523.754 2.93579 0.650522 0
M  V30 5662 C 525.302 3.04099 0.741151 0
M  V30 5663 C 525.777 4.5001 0.851747 0
M  V30 5664 N 527.268 4.54053 0.915968 0
M  V30 5665 C 528.003 5.64232 1.02125 0
M  V30 5666 N 527.499 6.84164 1.09049 0
M  V30 5667 N 529.292 5.52084 1.05639 0
M  V30 5668 H 521.443 2.02791 -0.63162 0
M  V30 5669 H 523.706 0.921736 -0.221602 0
M  V30 5670 H 523.412 3.50912 -0.235253 0
M  V30 5671 H 523.286 3.45476 1.51413 0
M  V30 5672 H 525.673 2.4683 1.61737 0
M  V30 5673 H 525.754 2.55371 -0.148128 0
M  V30 5674 H 525.398 5.07896 -0.0200117 0
M  V30 5675 H 525.328 4.96444 1.75644 0
M  V30 5676 H 527.819 3.67683 0.872782 0
M  V30 5677 H 528.132 7.63883 1.1706 0
M  V30 5678 H 526.477 6.86875 1.05962 0
M  V30 5679 H 529.668 4.57317 0.998953 0
M  V30 5680 H 529.841 6.37983 1.13498 0
M  V30 5681 N 523.247 -0.488276 1.49845 0
M  V30 5682 C 524.524 -1.24959 1.50481 0
M  V30 5683 C 524.904 -2.09735 0.239698 0
M  V30 5684 O 524.252 -2.14865 -0.777524 0
M  V30 5685 C 524.462 -2.0954 2.79095 0
M  V30 5686 C 525.81 -2.68305 3.29086 0
M  V30 5687 O 526.834 -2.19797 2.80299 0
M  V30 5688 O 525.693 -3.56643 4.14087 0
M  V30 5689 H 522.787 -0.566133 0.602845 0
M  V30 5690 H 525.333 -0.501504 1.6212 0
M  V30 5691 H 524.105 -1.46958 3.62656 0
M  V30 5692 H 523.728 -2.91517 2.70377 0
M  V30 5693 N 524.725 -1.39134 -0.740242 0
M  V30 5694 C 525.953 -1.39334 -1.5295 0
M  V30 5695 C 526.368 0.0135008 -1.88795 0
M  V30 5696 O 525.725 0.983524 -1.5373 0
M  V30 5697 C 525.776 -2.2614 -2.82034 0
M  V30 5698 O 525.497 -3.61345 -2.47712 0
M  V30 5699 C 526.998 -2.34666 -3.76094 0
M  V30 5700 H 524.218 -0.476103 -0.472828 0
M  V30 5701 H 526.762 -1.82883 -0.9151 0
M  V30 5702 H 524.917 -1.86018 -3.39818 0
M  V30 5703 H 525.331 -4.07194 -3.30595 0
M  V30 5704 H 526.805 -2.99663 -4.63579 0
M  V30 5705 H 527.282 -1.36426 -4.17474 0
M  V30 5706 H 527.888 -2.75236 -3.2423 0
M  V30 5707 N 526.204 0.969867 -1.24223 0
M  V30 5708 C 527.615 1.52717 -1.07399 0
M  V30 5709 C 527.966 1.92956 0.355298 0
M  V30 5710 O 527.091 1.77112 1.2434 0
M  V30 5711 C 527.686 2.77521 -1.94339 0
M  V30 5712 C 526.245 3.29615 -1.81744 0
M  V30 5713 C 525.392 2.02537 -1.89405 0
M  V30 5714 H 528.343 0.788399 -1.37732 0
M  V30 5715 H 528.364 3.50773 -1.47439 0
M  V30 5716 H 527.876 2.48203 -2.98357 0
M  V30 5717 H 525.977 3.63789 -0.805505 0
M  V30 5718 H 526.09 3.98661 -2.65718 0
M  V30 5719 H 524.454 2.17151 -1.33108 0
M  V30 5720 H 525.237 1.75587 -2.94999 0
M  V30 5721 N 527.682 1.05563 1.17022 0
M  V30 5722 C 528.645 0.664098 2.19368 0
M  V30 5723 C 529.645 -0.286358 1.5823 0
M  V30 5724 O 530.835 -0.069728 1.7406 0
M  V30 5725 C 527.967 -0.0239932 3.40892 0
M  V30 5726 H 529.16 1.57 2.55521 0
M  V30 5727 H 526.713 0.849964 1.31169 0
M  V30 5728 H 527.448 -0.942988 3.10287 0
M  V30 5729 H 527.233 0.659351 3.86516 0
M  V30 5730 H 528.723 -0.283909 4.16634 0
M  V30 5731 N 529.16 -1.33526 0.837174 0
M  V30 5732 C 530.09 -2.31764 0.284206 0
M  V30 5733 C 531.071 -1.58896 -0.607142 0
M  V30 5734 O 532.256 -1.86798 -0.531047 0
M  V30 5735 C 529.386 -3.43029 -0.542962 0
M  V30 5736 C 528.34 -4.27255 0.252451 0
M  V30 5737 C 527.666 -5.3012 -0.69836 0
M  V30 5738 C 528.966 -5.01229 1.46858 0
M  V30 5739 H 530.66 -2.78262 1.10502 0
M  V30 5740 H 528.206 -1.3378 0.532812 0
M  V30 5741 H 530.159 -4.1078 -0.940096 0
M  V30 5742 H 528.883 -2.95216 -1.39697 0
M  V30 5743 H 527.542 -3.61127 0.631124 0
M  V30 5744 H 527.19 -4.78564 -1.54872 0
M  V30 5745 H 526.89 -5.87353 -0.170274 0
M  V30 5746 H 528.414 -6.00737 -1.09305 0
M  V30 5747 H 529.828 -5.61756 1.14469 0
M  V30 5748 H 528.225 -5.68104 1.93333 0
M  V30 5749 H 529.295 -4.301 2.23924 0
M  V30 5750 N 530.638 -0.59345 -1.46 0
M  V30 5751 C 531.885 -0.0831523 -2.02329 0
M  V30 5752 C 532.213 1.28093 -1.46364 0
M  V30 5753 O 531.468 1.85526 -0.622793 0
M  V30 5754 C 531.767 0.021178 -3.57394 0
M  V30 5755 C 531.433 -1.27671 -4.32448 0
M  V30 5756 C 530.095 -1.63227 -4.5267 0
M  V30 5757 C 532.447 -2.13511 -4.7546 0
M  V30 5758 C 529.775 -2.84401 -5.1316 0
M  V30 5759 C 532.127 -3.33922 -5.37289 0
M  V30 5760 C 530.791 -3.69747 -5.55737 0
M  V30 5761 H 530.061 -0.0304276 -0.740375 0
M  V30 5762 H 532.708 -0.772239 -1.75239 0
M  V30 5763 H 531.013 0.793454 -3.83682 0
M  V30 5764 H 532.71 0.431942 -3.98667 0
M  V30 5765 H 529.3 -0.989937 -4.17011 0
M  V30 5766 H 533.484 -1.87344 -4.59582 0
M  V30 5767 H 528.74 -3.12282 -5.25633 0
M  V30 5768 H 532.914 -4.00698 -5.69574 0
M  V30 5769 H 530.541 -4.6373 -6.02377 0
M  V30 5770 N 532.116 1.54067 -0.331816 0
M  V30 5771 C 533.064 2.26105 0.54582 0
M  V30 5772 C 534.058 1.27816 1.11173 0
M  V30 5773 O 535.264 1.45565 1.05882 0
M  V30 5774 H 531.639 0.726363 0.194683 0
M  V30 5775 H 533.61 2.98282 -0.083931 0
M  V30 5776 C 532.359 3.03814 1.69092 0
M  V30 5777 H 531.682 3.79269 1.26473 0
M  V30 5778 H 533.122 3.57453 2.28043 0
M  V30 5779 C 531.581 2.12606 2.61343 0
M  V30 5780 O 532.111 1.71437 3.6328 0
M  V30 5781 N 530.317 1.77925 2.29763 0
M  V30 5782 H 529.864 2.11602 1.46909 0
M  V30 5783 H 529.822 1.1718 2.91747 0
M  V30 5784 N 533.594 0.0601682 1.57485 0
M  V30 5785 C 534.841 -0.611594 1.93043 0
M  V30 5786 C 535.169 -1.70317 0.939274 0
M  V30 5787 O 534.424 -1.95644 -0.046996 0
M  V30 5788 C 534.723 -1.23831 3.35262 0
M  V30 5789 C 534.389 -0.274037 4.50066 0
M  V30 5790 C 533.051 -0.00872394 4.81199 0
M  V30 5791 C 535.403 0.386308 5.19766 0
M  V30 5792 C 532.731 0.924218 5.79375 0
M  V30 5793 C 535.083 1.3075 6.1894 0
M  V30 5794 C 533.747 1.58139 6.48497 0
M  V30 5795 H 533.017 -0.223798 0.706396 0
M  V30 5796 H 535.664 0.128566 1.91068 0
M  V30 5797 H 533.969 -2.05394 3.33647 0
M  V30 5798 H 535.666 -1.76517 3.60059 0
M  V30 5799 H 532.256 -0.491008 4.25778 0
M  V30 5800 H 536.44 0.194436 4.95919 0
M  V30 5801 H 531.696 1.1438 6.00606 0
M  V30 5802 H 535.87 1.82519 6.72056 0
M  V30 5803 H 533.497 2.30593 7.24383 0
M  V30 5804 N 535.072 -1.5615 -0.213296 0
M  V30 5805 C 536.3 -1.83638 -0.953139 0
M  V30 5806 C 536.715 -0.640362 -1.77609 0
M  V30 5807 O 536.072 0.391071 -1.78261 0
M  V30 5808 C 536.123 -3.09735 -1.86405 0
M  V30 5809 O 535.844 -4.24723 -1.07435 0
M  V30 5810 C 537.345 -3.5027 -2.71709 0
M  V30 5811 H 534.565 -0.610263 -0.278962 0
M  V30 5812 H 537.109 -2.03247 -0.226035 0
M  V30 5813 H 535.264 -2.92077 -2.545 0
M  V30 5814 H 535.678 -4.9641 -1.69343 0
M  V30 5815 H 537.152 -4.41515 -3.31313 0
M  V30 5816 H 537.629 -2.72406 -3.44516 0
M  V30 5817 H 538.235 -3.70396 -2.09015 0
M  V30 5818 N 536.55 0.480323 -1.50102 0
M  V30 5819 C 537.778 1.25657 -1.64371 0
M  V30 5820 C 538.193 1.86011 -0.323316 0
M  V30 5821 O 537.55 1.68803 0.693682 0
M  V30 5822 C 537.601 2.37197 -2.728 0
M  V30 5823 O 537.322 1.7932 -3.9972 0
M  V30 5824 C 538.823 3.2823 -2.9796 0
M  V30 5825 H 536.043 0.380369 -0.552775 0
M  V30 5826 H 538.587 0.574379 -1.96268 0
M  V30 5827 H 536.742 3.01208 -2.43623 0
M  V30 5828 H 537.156 2.52701 -4.59611 0
M  V30 5829 H 538.63 4.02725 -3.77513 0
M  V30 5830 H 539.107 3.86462 -2.08671 0
M  V30 5831 H 539.713 2.69964 -3.28633 0
M  V30 5832 N 538.028 1.39524 0.732853 0
M  V30 5833 C 538.96 1.34318 1.85718 0
M  V30 5834 C 539.973 0.251576 1.60844 0
M  V30 5835 O 541.162 0.510685 1.71039 0
M  V30 5836 C 538.262 1.06334 3.21786 0
M  V30 5837 C 537.435 2.26813 3.73998 0
M  V30 5838 C 536.494 1.95253 4.88634 0
M  V30 5839 O 535.52 2.67957 5.02183 0
M  V30 5840 N 536.722 0.919984 5.73164 0
M  V30 5841 H 539.487 2.3121 1.90688 0
M  V30 5842 H 537.048 1.33654 0.91368 0
M  V30 5843 H 539.04 0.832363 3.96048 0
M  V30 5844 H 537.61 0.181682 3.12072 0
M  V30 5845 H 536.83 2.65849 2.91064 0
M  V30 5846 H 538.118 3.0717 4.05616 0
M  V30 5847 H 537.516 0.317487 5.64808 0
M  V30 5848 H 536.073 0.748905 6.47483 0
M  V30 5849 N 539.506 -0.963266 1.24736 0
M  V30 5850 C 540.416 -2.09246 1.06082 0
M  V30 5851 C 541.432 -1.74 0.000363101 0
M  V30 5852 O 542.608 -2.0041 0.199479 0
M  V30 5853 C 539.673 -3.40115 0.672498 0
M  V30 5854 C 538.734 -3.89282 1.80993 0
M  V30 5855 C 537.967 -5.13905 1.44004 0
M  V30 5856 O 538.19 -5.69434 0.331835 0
M  V30 5857 O 537.124 -5.57566 2.26723 0
M  V30 5858 H 540.95 -2.27881 2.00759 0
M  V30 5859 H 538.535 -1.07649 1.03595 0
M  V30 5860 H 540.417 -4.18797 0.467668 0
M  V30 5861 H 539.092 -3.22771 -0.245102 0
M  V30 5862 H 537.999 -3.11642 2.06955 0
M  V30 5863 H 539.332 -4.1111 2.70646 0
M  V30 5864 N 540.985 -1.06182 -1.16461 0
M  V30 5865 C 541.915 -0.692861 -2.22984 0
M  V30 5866 C 542.896 0.314122 -1.67174 0
M  V30 5867 O 544.081 0.189499 -1.93273 0
M  V30 5868 C 541.211 -0.07732 -3.47214 0
M  V30 5869 C 540.165 -1.01015 -4.15909 0
M  V30 5870 C 539.491 -0.257973 -5.34077 0
M  V30 5871 C 540.791 -2.33868 -4.67015 0
M  V30 5872 H 542.485 -1.58343 -2.54102 0
M  V30 5873 H 540.031 -0.76279 -1.22137 0
M  V30 5874 H 541.984 0.19266 -4.20959 0
M  V30 5875 H 540.708 0.848254 -3.15392 0
M  V30 5876 H 539.367 -1.26486 -3.44088 0
M  V30 5877 H 539.015 0.670684 -4.98509 0
M  V30 5878 H 538.715 -0.879638 -5.80979 0
M  V30 5879 H 540.239 0.00448788 -6.106 0
M  V30 5880 H 541.653 -2.1279 -5.32347 0
M  V30 5881 H 540.05 -2.91522 -5.24533 0
M  V30 5882 H 541.12 -2.97019 -3.83286 0
M  V30 5883 N 542.463 1.3308 -0.844243 0
M  V30 5884 C 543.688 2.02341 -0.455282 0
M  V30 5885 C 544.113 1.6308 0.93737 0
M  V30 5886 O 543.471 0.826118 1.61385 0
M  V30 5887 C 543.519 3.55743 -0.58988 0
M  V30 5888 O 542.623 4.1063 0.38166 0
M  V30 5889 H 541.964 0.637898 -0.184343 0
M  V30 5890 H 544.494 1.6986 -1.14056 0
M  V30 5891 H 544.504 4.05243 -0.473522 0
M  V30 5892 H 543.179 3.83662 -1.60549 0
M  V30 5893 H 541.756 3.72236 0.22241 0
M  V30 5894 N 543.941 0.601185 1.45683 0
M  V30 5895 C 545.166 0.0982245 2.07167 0
M  V30 5896 C 545.591 -1.20546 1.44396 0
M  V30 5897 O 544.949 -1.73247 0.534347 0
M  V30 5898 C 544.997 -0.0346976 3.60583 0
M  V30 5899 O 544.101 -1.08657 3.97828 0
M  V30 5900 H 543.442 0.0711618 0.660176 0
M  V30 5901 H 545.972 0.829376 1.87036 0
M  V30 5902 H 545.982 -0.234969 4.07323 0
M  V30 5903 H 544.657 0.917265 4.05659 0
M  V30 5904 H 543.234 -0.863275 3.6277 0
M  V30 5905 N 545.419 -1.53889 0.339982 0
M  V30 5906 C 546.367 -2.26391 -0.533822 0
M  V30 5907 C 547.361 -1.28404 -1.10493 0
M  V30 5908 O 548.567 -1.46124 -1.05108 0
M  V30 5909 H 544.942 -0.727385 -0.190828 0
M  V30 5910 H 546.913 -2.98233 0.0997484 0
M  V30 5911 C 545.662 -3.04707 -1.67479 0
M  V30 5912 H 544.985 -3.79934 -1.2446 0
M  V30 5913 H 546.425 -3.58657 -2.26144 0
M  V30 5914 C 544.884 -2.13989 -2.60212 0
M  V30 5915 O 545.414 -1.73361 -3.62366 0
M  V30 5916 N 543.62 -1.79141 -2.28816 0
M  V30 5917 H 543.167 -2.12378 -1.45785 0
M  V30 5918 H 543.125 -1.18725 -2.91121 0
M  V30 5919 N 546.897 -0.0685191 -1.57451 0
M  V30 5920 C 548.308 0.464634 -1.80826 0
M  V30 5921 C 548.659 1.69847 -0.982169 0
M  V30 5922 O 547.784 2.15439 -0.203734 0
M  V30 5923 C 548.379 0.849721 -3.27971 0
M  V30 5924 C 546.938 1.32776 -3.52204 0
M  V30 5925 C 546.085 0.311332 -2.75547 0
M  V30 5926 H 549.036 -0.294248 -1.55948 0
M  V30 5927 H 549.057 1.71138 -3.39841 0
M  V30 5928 H 548.569 -0.0484736 -3.8807 0
M  V30 5929 H 546.67 2.24456 -2.97406 0
M  V30 5930 H 546.783 1.30794 -4.60901 0
M  V30 5931 H 545.147 0.787915 -2.42206 0
M  V30 5932 H 545.93 -0.579078 -3.38381 0
M  V30 5933 N 548.375 1.56261 0.205012 0
M  V30 5934 C 549.786 1.70056 0.770574 0
M  V30 5935 C 550.137 0.673398 1.84282 0
M  V30 5936 O 549.262 -0.172196 2.15714 0
M  V30 5937 C 549.857 3.08316 1.40451 0
M  V30 5938 C 548.416 3.2391 1.91727 0
M  V30 5939 C 547.563 2.66001 0.783516 0
M  V30 5940 H 550.514 1.58688 -0.019911 0
M  V30 5941 H 550.535 3.05094 2.27371 0
M  V30 5942 H 550.047 3.83053 0.623882 0
M  V30 5943 H 548.148 2.54072 2.7254 0
M  V30 5944 H 548.261 4.3131 2.08588 0
M  V30 5945 H 546.625 2.24915 1.19521 0
M  V30 5946 H 547.408 3.43297 0.0152883 0
M  V30 5947 N 549.853 -0.472356 1.50355 0
M  V30 5948 C 550.783 -1.57859 1.72055 0
M  V30 5949 C 551.764 -1.60283 0.569505 0
M  V30 5950 O 552.949 -1.7657 0.808503 0
M  V30 5951 C 550.079 -2.96191 1.81351 0
M  V30 5952 C 549.033 -3.08633 2.96529 0
M  V30 5953 C 548.359 -4.486 2.90968 0
M  V30 5954 C 549.659 -2.85969 4.37057 0
M  V30 5955 H 551.353 -1.39953 2.64676 0
M  V30 5956 H 548.899 -0.671846 1.27367 0
M  V30 5957 H 550.852 -3.73507 1.95117 0
M  V30 5958 H 549.576 -3.15251 0.853502 0
M  V30 5959 H 548.235 -2.33749 2.82413 0
M  V30 5960 H 547.883 -4.64577 1.92815 0
M  V30 5961 H 547.583 -4.57861 3.68289 0
M  V30 5962 H 549.107 -5.27938 3.0678 0
M  V30 5963 H 550.521 -3.53036 4.51706 0
M  V30 5964 H 548.918 -3.06677 5.15819 0
M  V30 5965 H 549.988 -1.81838 4.49514 0
M  V30 5966 N 551.331 -1.39911 -0.725443 0
M  V30 5967 C 552.294 -1.39156 -1.82121 0
M  V30 5968 C 553.294 -0.287018 -1.58218 0
M  V30 5969 O 554.484 -0.545421 -1.65441 0
M  V30 5970 C 551.616 -1.1736 -3.20062 0
M  V30 5971 H 552.809 -2.36672 -1.84191 0
M  V30 5972 H 550.362 -1.25615 -0.930079 0
M  V30 5973 H 551.097 -0.205648 -3.23647 0
M  V30 5974 H 550.882 -1.97358 -3.3881 0
M  V30 5975 H 552.372 -1.19596 -4.00108 0
M  V30 5976 N 552.809 0.956637 -1.25245 0
M  V30 5977 C 554.037 1.73571 -1.12608 0
M  V30 5978 C 554.452 1.86063 0.320324 0
M  V30 5979 O 553.809 1.35691 1.22042 0
M  V30 5980 C 553.86 3.15053 -1.77268 0
M  V30 5981 O 553.581 3.03174 -3.16255 0
M  V30 5982 C 555.082 4.09248 -1.70386 0
M  V30 5983 H 552.302 0.543955 -0.392879 0
M  V30 5984 H 554.846 1.20031 -1.65568 0
M  V30 5985 H 553.001 3.65543 -1.28284 0
M  V30 5986 H 553.415 3.9241 -3.48015 0
M  V30 5987 H 554.889 5.06138 -2.20291 0
M  V30 5988 H 555.366 4.34102 -0.667239 0
M  V30 5989 H 555.972 3.64672 -2.18849 0
M  V30 5990 N 554.287 1.06798 1.15896 0
M  V30 5991 C 555.536 0.782796 1.8589 0
M  V30 5992 C 555.849 -0.693498 1.82893 0
M  V30 5993 O 557.055 -1.09325 2.48516 0
M  V30 5994 C 555.511 1.3502 3.33613 0
M  V30 5995 C 555.119 2.8571 3.45071 0
M  V30 5996 C 556.863 1.14278 4.08829 0
M  V30 5997 C 554.77 3.35669 4.86909 0
M  V30 5998 H 553.7 0.289149 0.696354 0
M  V30 5999 H 556.351 1.28734 1.30766 0
M  V30 6000 H 554.733 0.773407 3.88374 0
M  V30 6001 H 555.907 3.49385 3.00445 0
M  V30 6002 H 554.222 3.05178 2.83294 0
M  V30 6003 H 556.819 1.49087 5.13495 0
M  V30 6004 H 557.162 0.0814575 4.1622 0
M  V30 6005 H 557.695 1.68563 3.60321 0
M  V30 6006 H 554.434 4.41302 4.84698 0
M  V30 6007 H 553.954 2.76745 5.32139 0
M  V30 6008 H 555.633 3.31296 5.55745 0
M  V30 6009 N 555.766 -1.3263 0.851289 0
M  V30 6010 C 556.696 -2.31449 0.308771 0
M  V30 6011 C 557.677 -1.59531 -0.590255 0
M  V30 6012 O 558.862 -1.87351 -0.511205 0
M  V30 6013 C 555.992 -3.43586 -0.506548 0
M  V30 6014 C 554.946 -4.26963 0.297753 0
M  V30 6015 C 554.272 -5.30831 -0.642094 0
M  V30 6016 C 555.572 -4.99643 1.52166 0
M  V30 6017 H 557.266 -2.77074 1.13447 0
M  V30 6018 H 554.812 -1.33207 0.546971 0
M  V30 6019 H 556.765 -4.11754 -0.896474 0
M  V30 6020 H 555.489 -2.96681 -1.36558 0
M  V30 6021 H 554.148 -3.60437 0.669391 0
M  V30 6022 H 553.796 -4.8018 -1.49788 0
M  V30 6023 H 553.496 -5.87501 -0.107968 0
M  V30 6024 H 555.02 -6.01862 -1.02927 0
M  V30 6025 H 556.434 -5.6051 1.20421 0
M  V30 6026 H 554.831 -5.66022 1.99347 0
M  V30 6027 H 555.901 -4.27701 2.28474 0
M  V30 6028 N 557.244 -0.608902 -1.45362 0
M  V30 6029 C 558.493 -0.10218 -2.01441 0
M  V30 6030 C 558.806 1.27546 -1.48295 0
M  V30 6031 O 560.012 1.87498 -1.96359 0
M  V30 6032 C 558.468 -0.131985 -3.59658 0
M  V30 6033 C 558.076 -1.50956 -4.21801 0
M  V30 6034 C 559.82 0.319427 -4.23296 0
M  V30 6035 C 557.727 -1.49568 -5.72174 0
M  V30 6036 H 556.657 -0.0344314 -0.753213 0
M  V30 6037 H 559.308 -0.764426 -1.6682 0
M  V30 6038 H 557.69 0.596939 -3.91475 0
M  V30 6039 H 558.864 -2.26029 -4.01556 0
M  V30 6040 H 557.179 -1.90318 -3.70362 0
M  V30 6041 H 559.776 0.349013 -5.3356 0
M  V30 6042 H 560.119 1.34237 -3.94064 0
M  V30 6043 H 560.652 -0.356273 -3.96201 0
M  V30 6044 H 557.391 -2.49626 -6.06108 0
M  V30 6045 H 556.911 -0.787542 -5.94607 0
M  V30 6046 H 558.59 -1.21989 -6.35396 0
M  V30 6047 N 558.722 1.53707 -0.348139 0
M  V30 6048 C 560.133 1.86213 0.134797 0
M  V30 6049 C 560.484 1.26925 1.49614 0
M  V30 6050 O 559.609 0.584573 2.08355 0
M  V30 6051 C 560.204 3.37866 0.251371 0
M  V30 6052 C 558.763 3.70233 0.678543 0
M  V30 6053 C 557.91 2.76683 -0.184925 0
M  V30 6054 H 560.861 1.48204 -0.567571 0
M  V30 6055 H 560.882 3.64908 1.07806 0
M  V30 6056 H 560.394 3.80988 -0.739581 0
M  V30 6057 H 558.495 3.32659 1.67835 0
M  V30 6058 H 558.608 4.76836 0.465251 0
M  V30 6059 H 556.972 2.52374 0.343465 0
M  V30 6060 H 557.755 3.22635 -1.1731 0
M  V30 6061 N 560.2 0.0768682 1.57412 0
M  V30 6062 C 561.611 -0.455037 1.8107 0
M  V30 6063 C 561.962 -1.69323 0.991162 0
M  V30 6064 O 561.087 -2.15328 0.215156 0
M  V30 6065 C 561.682 -0.832316 3.28417 0
M  V30 6066 C 560.241 -1.30906 3.52903 0
M  V30 6067 C 559.388 -0.296714 2.75708 0
M  V30 6068 H 562.339 0.302514 1.5579 0
M  V30 6069 H 562.36 -1.69333 3.40744 0
M  V30 6070 H 561.872 0.0690532 3.88039 0
M  V30 6071 H 559.973 -2.22875 2.98592 0
M  V30 6072 H 560.086 -1.28348 4.61588 0
M  V30 6073 H 558.45 -0.775059 2.42621 0
M  V30 6074 H 559.233 0.597015 3.38069 0
M  V30 6075 N 561.678 -1.56367 -0.196722 0
M  V30 6076 C 562.628 -1.9082 -1.24787 0
M  V30 6077 C 563.612 -0.773719 -1.41076 0
M  V30 6078 O 564.804 -1.03655 -1.43474 0
M  V30 6079 C 561.933 -2.24982 -2.59303 0
M  V30 6080 C 561.019 -3.44882 -2.46814 0
M  V30 6081 N 561.41 -4.62835 -2.04003 0
M  V30 6082 C 559.708 -3.48988 -2.77711 0
M  V30 6083 C 560.409 -5.44993 -2.03366 0
M  V30 6084 N 559.385 -4.85356 -2.44807 0
M  V30 6085 H 563.187 -2.79516 -0.908175 0
M  V30 6086 H 560.701 -1.57265 -0.405166 0
M  V30 6087 H 562.698 -2.47848 -3.35227 0
M  V30 6088 H 561.358 -1.37611 -2.94098 0
M  V30 6089 H 562.369 -4.87532 -1.74738 0
M  V30 6090 H 559.046 -2.72029 -3.16712 0
M  V30 6091 H 560.436 -6.49464 -1.72181 0
M  V30 6092 N 563.156 0.464375 -1.50603 0
M  V30 6093 C 564.119 1.54393 -1.69397 0
M  V30 6094 C 565.119 1.50566 -0.564504 0
M  V30 6095 O 566.309 1.53066 -0.831645 0
M  V30 6096 C 563.441 2.9401 -1.72543 0
M  V30 6097 H 564.634 1.39044 -2.65719 0
M  V30 6098 H 562.187 0.69122 -1.40185 0
M  V30 6099 H 562.922 3.14795 -0.77938 0
M  V30 6100 H 562.707 2.98195 -2.54602 0
M  V30 6101 H 564.197 3.72375 -1.89015 0
M  V30 6102 N 564.634 1.40294 0.718013 0
M  V30 6103 C 566.05 1.2227 1.02577 0
M  V30 6104 C 566.25 0.0961976 2.0127 0
M  V30 6105 O 565.306 -0.546695 2.46511 0
M  V30 6106 C 566.619 2.56348 1.57182 0
M  V30 6107 C 568.167 2.6334 1.69178 0
M  V30 6108 C 568.642 3.9768 2.27188 0
M  V30 6109 N 570.133 3.99409 2.34578 0
M  V30 6110 C 570.868 5.00141 2.8044 0
M  V30 6111 N 570.364 6.11268 3.26073 0
M  V30 6112 N 572.157 4.87511 2.79802 0
M  V30 6113 H 564.308 2.12304 0.0637899 0
M  V30 6114 H 566.571 0.943632 0.0909036 0
M  V30 6115 H 566.277 3.3942 0.921262 0
M  V30 6116 H 566.151 2.77266 2.55741 0
M  V30 6117 H 568.538 1.80641 2.33351 0
M  V30 6118 H 568.619 2.46255 0.692247 0
M  V30 6119 H 568.263 4.80817 1.63638 0
M  V30 6120 H 568.193 4.12093 3.27852 0
M  V30 6121 H 570.684 3.19162 2.02346 0
M  V30 6122 H 570.997 6.84023 3.59628 0
M  V30 6123 H 569.342 6.14837 3.24038 0
M  V30 6124 H 572.533 3.9979 2.43487 0
M  V30 6125 H 572.706 5.66158 3.15228 0
M  V30 6126 N 566.112 -0.949982 1.2575 0
M  V30 6127 C 567.361 -1.68956 1.10168 0
M  V30 6128 C 567.674 -1.92327 -0.356309 0
M  V30 6129 O 568.88 -2.64026 -0.632657 0
M  V30 6130 C 567.336 -3.04196 1.92336 0
M  V30 6131 C 566.944 -2.88603 3.42655 0
M  V30 6132 C 568.688 -3.81904 1.85336 0
M  V30 6133 C 566.595 -4.19262 4.17101 0
M  V30 6134 H 565.525 -0.633645 0.408668 0
M  V30 6135 H 568.176 -1.05719 1.49986 0
M  V30 6136 H 566.558 -3.68363 1.45344 0
M  V30 6137 H 567.732 -2.3334 3.97353 0
M  V30 6138 H 566.047 -2.24345 3.50796 0
M  V30 6139 H 568.644 -4.78688 2.38248 0
M  V30 6140 H 568.987 -4.08099 0.822226 0
M  V30 6141 H 569.52 -3.24495 2.30104 0
M  V30 6142 H 566.259 -3.98254 5.20648 0
M  V30 6143 H 565.779 -4.74273 3.67186 0
M  V30 6144 H 567.458 -4.87775 4.25071 0
M  V30 6145 N 567.59 -1.07411 -1.15328 0
M  V30 6146 C 568.522 -0.652924 -2.19703 0
M  V30 6147 C 569.535 0.294869 -1.60107 0
M  V30 6148 O 570.724 0.0840932 -1.78302 0
M  V30 6149 C 567.824 0.061434 -3.38844 0
M  V30 6150 C 566.997 -0.902696 -4.27984 0
M  V30 6151 C 566.056 -0.225521 -5.25717 0
M  V30 6152 O 565.082 -0.86676 -5.62562 0
M  V30 6153 N 566.284 1.02858 -5.71315 0
M  V30 6154 H 569.049 -1.55081 -2.56457 0
M  V30 6155 H 566.61 -0.958883 -1.30449 0
M  V30 6156 H 568.602 0.525145 -4.01278 0
M  V30 6157 H 567.172 0.861269 -3.00501 0
M  V30 6158 H 566.392 -1.54551 -3.6264 0
M  V30 6159 H 567.68 -1.55636 -4.84412 0
M  V30 6160 H 567.078 1.56948 -5.43492 0
M  V30 6161 H 565.635 1.43596 -6.35786 0
M  V30 6162 N 569.068 1.32177 -0.85831 0
M  V30 6163 C 570.031 2.27086 -0.310588 0
M  V30 6164 C 571.031 1.51751 0.531806 0
M  V30 6165 O 572.221 1.70794 0.34279 0
M  V30 6166 C 569.353 3.36266 0.560179 0
M  V30 6167 H 570.546 2.77045 -1.1483 0
M  V30 6168 H 568.099 1.42911 -0.632942 0
M  V30 6169 H 568.834 2.9158 1.41956 0
M  V30 6170 H 568.619 3.92077 -0.0428473 0
M  V30 6171 H 570.109 4.06974 0.936056 0
M  V30 6172 N 570.547 0.616602 1.45037 0
M  V30 6173 C 571.51 -0.0871112 2.29034 0
M  V30 6174 C 572.51 -0.786414 1.40258 0
M  V30 6175 O 573.7 -0.633207 1.62284 0
M  V30 6176 C 570.832 -1.13369 3.21497 0
M  V30 6177 H 572.025 0.651497 2.92738 0
M  V30 6178 H 569.578 0.376058 1.51709 0
M  V30 6179 H 570.313 -1.90277 2.62612 0
M  V30 6180 H 570.098 -0.636358 3.86902 0
M  V30 6181 H 571.588 -1.62627 3.84633 0
M  V30 6182 N 572.025 -1.5352 0.356285 0
M  V30 6183 C 572.988 -2.24071 -0.482182 0
M  V30 6184 C 573.988 -1.24531 -1.01729 0
M  V30 6185 O 575.178 -1.48876 -0.904513 0
M  V30 6186 C 572.31 -2.97025 -1.67299 0
M  V30 6187 H 573.503 -2.99596 0.135031 0
M  V30 6188 H 571.056 -1.55928 0.107825 0
M  V30 6189 H 571.791 -2.25719 -2.32855 0
M  V30 6190 H 571.576 -3.7005 -1.29636 0
M  V30 6191 H 573.066 -3.50683 -2.26741 0
M  V30 6192 N 573.503 -0.0852151 -1.57369 0
M  V30 6193 C 574.728 0.592872 -1.98746 0
M  V30 6194 C 575.153 1.61538 -0.963689 0
M  V30 6195 O 574.511 1.81168 0.069071 0
M  V30 6196 C 574.559 1.22599 -3.39119 0
M  V30 6197 O 573.663 2.34185 -3.39457 0
M  V30 6198 H 573.004 0.151314 -0.646529 0
M  V30 6199 H 575.534 -0.163703 -2.03944 0
M  V30 6200 H 575.544 1.56965 -3.76598 0
M  V30 6201 H 574.219 0.476831 -4.13158 0
M  V30 6202 H 572.796 2.01512 -3.13763 0
M  V30 6203 N 574.981 1.5647 0.188427 0
M  V30 6204 C 576.209 1.85131 0.923803 0
M  V30 6205 C 576.624 0.668537 1.76567 0
M  V30 6206 O 575.981 -0.362662 1.7886 0
M  V30 6207 C 576.032 3.12661 1.81453 0
M  V30 6208 O 575.753 4.26378 1.00665 0
M  V30 6209 C 577.254 3.54548 2.66103 0
M  V30 6210 H 574.474 0.614624 0.269218 0
M  V30 6211 H 577.018 2.03581 0.193671 0
M  V30 6212 H 575.173 2.96088 2.49821 0
M  V30 6213 H 575.587 4.99041 1.61425 0
M  V30 6214 H 577.061 4.4673 3.24247 0
M  V30 6215 H 577.538 2.77853 3.40139 0
M  V30 6216 H 578.144 3.73674 2.03096 0
M  V30 6217 N 576.459 -0.456382 1.50847 0
M  V30 6218 C 577.87 -1.03685 1.55262 0
M  V30 6219 C 578.221 -1.92779 0.364771 0
M  V30 6220 O 577.346 -2.10043 -0.52068 0
M  V30 6221 C 577.941 -1.88718 2.81374 0
M  V30 6222 C 576.5 -2.41847 2.88422 0
M  V30 6223 C 575.647 -1.20564 2.49719 0
M  V30 6224 H 578.598 -0.238399 1.56899 0
M  V30 6225 H 578.619 -2.73957 2.6406 0
M  V30 6226 H 578.131 -1.23847 3.67809 0
M  V30 6227 H 576.232 -3.10228 2.06372 0
M  V30 6228 H 576.345 -2.75947 3.9165 0
M  V30 6229 H 574.709 -1.54504 2.02486 0
M  V30 6230 H 575.492 -0.573326 3.38479 0
M  V30 6231 N 577.937 -1.40673 -0.710563 0
M  V30 6232 C 579.165 -1.42547 -1.4996 0
M  V30 6233 C 579.58 -0.0265485 -1.88781 0
M  V30 6234 O 578.937 0.950694 -1.55782 0
M  V30 6235 C 578.988 -2.32071 -2.77173 0
M  V30 6236 O 578.709 -3.66518 -2.39992 0
M  V30 6237 C 580.21 -2.42591 -3.71032 0
M  V30 6238 H 577.43 -0.486025 -0.462623 0
M  V30 6239 H 579.974 -1.84783 -0.876102 0
M  V30 6240 H 578.129 -1.93184 -3.35795 0
M  V30 6241 H 578.543 -4.14115 -3.21884 0
M  V30 6242 H 580.017 -3.09429 -4.57119 0
M  V30 6243 H 580.494 -1.4525 -4.14486 0
M  V30 6244 H 581.1 -2.82051 -3.18319 0
M  V30 6245 N 579.415 0.9433 -1.26252 0
M  V30 6246 C 580.363 2.06302 -1.07434 0
M  V30 6247 C 581.357 1.694 -0.00189471 0
M  V30 6248 O 582.563 1.79302 -0.158408 0
M  V30 6249 H 578.938 0.675453 -0.330556 0
M  V30 6250 H 580.909 2.19326 -2.02333 0
M  V30 6251 C 579.658 3.40125 -0.721817 0
M  V30 6252 H 578.981 3.68996 -1.5389 0
M  V30 6253 H 580.421 4.19295 -0.629922 0
M  V30 6254 C 578.88 3.31993 0.572902 0
M  V30 6255 O 579.41 3.67945 1.61182 0
M  V30 6256 N 577.616 2.85099 0.562748 0
M  V30 6257 H 577.163 2.5604 -0.283092 0
M  V30 6258 H 577.121 2.80041 1.42915 0
M  V30 6259 N 580.893 1.08022 1.14757 0
M  V30 6260 C 581.856 0.71048 2.1791 0
M  V30 6261 C 582.856 -0.252731 1.58801 0
M  V30 6262 O 584.046 -0.0327915 1.74169 0
M  V30 6263 C 581.178 0.0483203 3.40866 0
M  V30 6264 H 582.371 1.62384 2.52134 0
M  V30 6265 H 579.924 0.877595 1.29337 0
M  V30 6266 H 580.659 -0.876959 3.12218 0
M  V30 6267 H 580.444 0.741189 3.85031 0
M  V30 6268 H 581.934 -0.195471 4.17142 0
M  V30 6269 N 582.371 -1.3172 0.865308 0
M  V30 6270 C 583.599 -2.01057 0.488251 0
M  V30 6271 C 584.014 -1.64979 -0.918 0
M  V30 6272 O 583.371 -0.876597 -1.60069 0
M  V30 6273 C 583.422 -3.55964 0.630224 0
M  V30 6274 O 583.143 -3.90749 1.98109 0
M  V30 6275 C 584.644 -4.42574 0.253567 0
M  V30 6276 H 581.864 -0.64332 0.190736 0
M  V30 6277 H 584.408 -1.68058 1.16519 0
M  V30 6278 H 582.563 -3.874 0.000895422 0
M  V30 6279 H 582.977 -4.85467 1.9855 0
M  V30 6280 H 584.451 -5.50521 0.403875 0
M  V30 6281 H 584.928 -4.31724 -0.806895 0
M  V30 6282 H 585.534 -4.16547 0.858404 0
M  V30 6283 N 583.85 -0.624285 -1.44708 0
M  V30 6284 C 584.812 0.0749638 -2.29077 0
M  V30 6285 C 585.812 0.778965 -1.40673 0
M  V30 6286 O 587.003 0.624591 -1.62618 0
M  V30 6287 C 584.135 1.11663 -3.22094 0
M  V30 6288 H 585.327 -0.667013 -2.92388 0
M  V30 6289 H 582.88 -0.384098 -1.51507 0
M  V30 6290 H 583.615 1.88881 -2.63618 0
M  V30 6291 H 583.401 0.61583 -3.87234 0
M  V30 6292 H 584.891 1.60585 -3.8549 0
M  V30 6293 N 585.328 1.53329 -0.364422 0
M  V30 6294 C 586.291 2.24323 0.470292 0
M  V30 6295 C 587.291 1.25068 1.01067 0
M  V30 6296 O 588.481 1.49354 0.896605 0
M  V30 6297 C 585.613 2.97908 1.65722 0
M  V30 6298 H 586.806 2.9952 -0.150917 0
M  V30 6299 H 584.359 1.55868 -0.116092 0
M  V30 6300 H 585.094 2.2695 2.31655 0
M  V30 6301 H 584.879 3.70732 1.27671 0
M  V30 6302 H 586.369 3.5188 2.24878 0
M  V30 6303 N 586.806 0.0935595 1.57322 0
M  V30 6304 C 588.031 -0.582324 1.99057 0
M  V30 6305 C 588.456 -1.61025 0.972242 0
M  V30 6306 O 587.814 -1.81202 -0.0594622 0
M  V30 6307 C 587.862 -1.20799 3.39765 0
M  V30 6308 O 586.966 -2.32382 3.40694 0
M  V30 6309 H 586.307 -0.147884 0.647323 0
M  V30 6310 H 588.837 0.174516 2.03854 0
M  V30 6311 H 588.847 -1.54966 3.77425 0
M  V30 6312 H 587.522 -0.454914 4.13405 0
M  V30 6313 H 586.099 -1.99845 3.14827 0
M  V30 6314 N 588.284 -1.56567 -0.180126 0
M  V30 6315 C 589.561 -1.7235 -0.924931 0
M  V30 6316 C 589.941 -0.652523 -2.00762 0
M  V30 6317 O 589.289 0.334115 -2.26044 0
M  V30 6318 C 589.499 -3.1523 -1.49771 0
M  V30 6319 C 590.847 -3.75921 -1.97405 0
M  V30 6320 O 591.871 -3.18452 -1.59583 0
M  V30 6321 O 590.73 -4.7681 -2.67048 0
M  V30 6322 H 587.824 -0.703502 -0.434758 0
M  V30 6323 H 590.37 -1.6886 -0.168647 0
M  V30 6324 H 589.142 -3.84656 -0.718027 0
M  V30 6325 H 588.765 -3.23009 -2.31842 0
M  V30 6326 N 589.762 0.448376 -1.51087 0
M  V30 6327 C 590.725 1.52588 -1.71025 0
M  V30 6328 C 591.725 1.49958 -0.580442 0
M  V30 6329 O 592.915 1.52176 -0.847833 0
M  V30 6330 C 590.047 2.92163 -1.75652 0
M  V30 6331 H 591.24 1.36218 -2.67179 0
M  V30 6332 H 588.793 0.676313 -1.4091 0
M  V30 6333 H 589.528 3.13951 -0.812724 0
M  V30 6334 H 589.313 2.95478 -2.57751 0
M  V30 6335 H 590.803 3.70349 -1.92953 0
M  V30 6336 N 591.24 1.41047 0.703093 0
M  V30 6337 C 592.188 1.42494 1.83843 0
M  V30 6338 C 593.182 0.303885 1.66652 0
M  V30 6339 O 594.388 0.475544 1.73605 0
M  V30 6340 H 590.763 0.445685 0.605697 0
M  V30 6341 H 592.734 2.38194 1.79739 0
M  V30 6342 C 591.483 1.31666 3.21807 0
M  V30 6343 H 590.806 2.17212 3.35647 0
M  V30 6344 H 592.246 1.36738 4.01346 0
M  V30 6345 C 590.705 0.0281828 3.36888 0
M  V30 6346 O 591.235 -0.929995 3.90786 0
M  V30 6347 N 589.441 -0.0454322 2.90564 0
M  V30 6348 H 588.988 0.735046 2.4689 0
M  V30 6349 H 588.946 -0.906968 3.01034 0
M  V30 6350 N 592.718 -0.936591 1.26751 0
M  V30 6351 C 593.946 -1.71758 1.15355 0
M  V30 6352 C 594.361 -1.86549 -0.290683 0
M  V30 6353 O 593.718 -1.37616 -1.19868 0
M  V30 6354 C 593.769 -3.12193 1.82258 0
M  V30 6355 O 593.49 -2.98105 3.21038 0
M  V30 6356 C 594.991 -4.06485 1.76875 0
M  V30 6357 H 592.211 -0.537636 0.401483 0
M  V30 6358 H 594.755 -1.17382 1.67457 0
M  V30 6359 H 592.91 -3.63456 1.34083 0
M  V30 6360 H 593.324 -3.86824 3.54214 0
M  V30 6361 H 594.798 -5.02569 2.28316 0
M  V30 6362 H 595.275 -4.32986 0.736216 0
M  V30 6363 H 595.881 -3.61144 2.24623 0
M  V30 6364 N 594.196 -1.08629 -1.14182 0
M  V30 6365 C 595.444 -0.815731 -1.84906 0
M  V30 6366 C 595.765 0.660441 -1.83475 0
M  V30 6367 O 595.035 1.47888 -1.28476 0
M  V30 6368 H 593.615 -0.298773 -0.684648 0
M  V30 6369 H 596.277 -1.37274 -1.38354 0
M  V30 6370 H 595.373 -1.16193 -2.89665 0
M  V30 6371 N 595.674 1.31259 -0.872281 0
M  V30 6372 C 596.951 1.91362 -0.404943 0
M  V30 6373 C 597.331 1.79362 1.11321 0
M  V30 6374 O 596.679 1.20277 1.94283 0
M  V30 6375 C 596.889 3.3749 -0.888893 0
M  V30 6376 C 598.237 4.14593 -0.916384 0
M  V30 6377 O 599.261 3.46282 -0.834701 0
M  V30 6378 O 598.12 5.3661 -1.03498 0
M  V30 6379 H 595.214 0.818016 -0.121569 0
M  V30 6380 H 597.76 1.39912 -0.960346 0
M  V30 6381 H 596.532 3.40249 -1.93251 0
M  V30 6382 H 596.155 3.96375 -0.311932 0
M  V30 6383 N 597.152 0.631951 1.44375 0
M  V30 6384 C 598.568 0.297642 1.568 0
M  V30 6385 C 598.768 -1.19916 1.61934 0
M  V30 6386 O 597.824 -1.98324 1.56281 0
M  V30 6387 C 599.137 0.990286 2.83926 0
M  V30 6388 C 600.685 0.968507 2.97639 0
M  V30 6389 C 601.16 1.64163 4.27568 0
M  V30 6390 N 602.651 1.60826 4.34384 0
M  V30 6391 C 603.386 2.09802 5.33639 0
M  V30 6392 N 602.882 2.66973 6.39294 0
M  V30 6393 N 604.675 2.00426 5.25153 0
M  V30 6394 H 596.826 1.60353 1.39286 0
M  V30 6395 H 599.089 0.673142 0.667521 0
M  V30 6396 H 598.795 2.04519 2.8612 0
M  V30 6397 H 598.669 0.528563 3.73478 0
M  V30 6398 H 601.056 -0.0779247 2.94997 0
M  V30 6399 H 601.137 1.46873 2.09433 0
M  V30 6400 H 600.781 2.68752 4.3097 0
M  V30 6401 H 600.711 1.11624 5.14634 0
M  V30 6402 H 603.202 1.19087 3.58646 0
M  V30 6403 H 603.515 3.02074 7.11316 0
M  V30 6404 H 601.86 2.71024 6.39977 0
M  V30 6405 H 605.051 1.55483 4.41523 0
M  V30 6406 H 605.224 2.38906 6.02352 0
M  V30 6407 N 598.631 -1.53133 0.372548 0
M  V30 6408 C 599.879 -2.00958 -0.214534 0
M  V30 6409 C 600.2 -1.26135 -1.48711 0
M  V30 6410 O 599.47 -0.376597 -1.92246 0
M  V30 6411 H 598.05 -0.742456 -0.0822664 0
M  V30 6412 H 600.712 -1.88367 0.500385 0
M  V30 6413 H 599.808 -3.09031 -0.436605 0
M  V30 6414 N 600.109 -0.101901 -1.5727 0
M  V30 6415 C 601.041 0.884723 -2.11436 0
M  V30 6416 C 602.054 1.24149 -1.05314 0
M  V30 6417 O 603.243 1.19341 -1.3274 0
M  V30 6418 C 600.343 2.19179 -2.58484 0
M  V30 6419 C 599.516 2.00933 -3.88516 0
M  V30 6420 C 598.575 3.15213 -4.2134 0
M  V30 6421 O 597.601 2.88877 -4.90448 0
M  V30 6422 N 598.803 4.41174 -3.77288 0
M  V30 6423 H 601.568 0.422058 -2.96713 0
M  V30 6424 H 599.129 0.0830128 -1.61687 0
M  V30 6425 H 601.121 2.94593 -2.77484 0
M  V30 6426 H 599.691 2.56847 -1.7818 0
M  V30 6427 H 598.911 1.09809 -3.78597 0
M  V30 6428 H 600.199 1.86026 -4.73573 0
M  V30 6429 H 599.597 4.6545 -3.21516 0
M  V30 6430 H 598.154 5.13515 -4.01429 0
M  V30 6431 N 601.587 1.56661 0.17182 0
M  V30 6432 C 602.815 1.861 0.904115 0
M  V30 6433 C 603.23 0.687227 1.75848 0
M  V30 6434 O 602.587 -0.343671 1.79235 0
M  V30 6435 C 602.638 3.14568 1.78127 0
M  V30 6436 O 602.359 4.27422 0.961366 0
M  V30 6437 C 603.86 3.5735 2.62327 0
M  V30 6438 H 601.08 0.617445 0.262684 0
M  V30 6439 H 603.624 2.03775 0.172068 0
M  V30 6440 H 601.779 2.98721 2.46666 0
M  V30 6441 H 602.193 5.00725 1.56123 0
M  V30 6442 H 603.667 4.50144 3.1949 0
M  V30 6443 H 604.144 2.81445 3.37173 0
M  V30 6444 H 604.75 3.75807 1.99121 0
M  V30 6445 N 603.065 -0.440357 1.51323 0
M  V30 6446 C 604.013 -1.55492 1.72988 0
M  V30 6447 C 605.007 -1.58564 0.596138 0
M  V30 6448 O 606.213 -1.62345 0.777443 0
M  V30 6449 H 602.588 -0.516532 0.546533 0
M  V30 6450 H 604.559 -1.34392 2.66423 0
M  V30 6451 C 603.308 -2.93176 1.86931 0
M  V30 6452 H 602.631 -2.91543 2.73574 0
M  V30 6453 H 604.071 -3.70537 2.06103 0
M  V30 6454 C 602.53 -3.30988 0.628365 0
M  V30 6455 O 603.06 -4.01106 -0.218367 0
M  V30 6456 N 601.266 -2.86719 0.473339 0
M  V30 6457 H 600.813 -2.2983 1.16345 0
M  V30 6458 H 600.771 -3.12381 -0.355727 0
M  V30 6459 N 604.543 -1.41418 -0.695603 0
M  V30 6460 C 605.491 -1.43467 -1.83084 0
M  V30 6461 C 606.485 -0.312719 -1.66489 0
M  V30 6462 O 607.691 -0.484744 -1.7335 0
M  V30 6463 H 604.066 -0.448891 -0.603325 0
M  V30 6464 H 606.037 -2.39144 -1.78473 0
M  V30 6465 C 604.786 -1.3337 -3.21104 0
M  V30 6466 H 604.109 -2.18989 -3.3449 0
M  V30 6467 H 605.549 -1.38865 -4.00615 0
M  V30 6468 C 604.008 -0.0460484 -3.36869 0
M  V30 6469 O 604.538 0.909258 -3.91274 0
M  V30 6470 N 602.744 0.0300222 -2.90584 0
M  V30 6471 H 602.291 -0.748129 -2.46497 0
M  V30 6472 H 602.249 0.890991 -3.01511 0
M  V30 6473 N 606.021 0.929856 -1.27246 0
M  V30 6474 C 606.984 2.01172 -1.09829 0
M  V30 6475 C 607.984 1.60743 -0.0429687 0
M  V30 6476 O 609.174 1.71813 -0.287373 0
M  V30 6477 C 606.306 3.34191 -0.673003 0
M  V30 6478 H 607.499 2.18054 -2.05895 0
M  V30 6479 H 605.052 1.11036 -1.10003 0
M  V30 6480 H 605.787 3.23009 0.289134 0
M  V30 6481 H 605.572 3.64892 -1.43515 0
M  V30 6482 H 607.062 4.13646 -0.573323 0
M  V30 6483 N 607.499 1.09233 1.13605 0
M  V30 6484 C 608.462 0.733553 2.17144 0
M  V30 6485 C 609.462 -0.235873 1.59061 0
M  V30 6486 O 610.652 -0.0143167 1.74194 0
M  V30 6487 C 607.784 0.084471 3.40795 0
M  V30 6488 H 608.977 1.65049 2.50397 0
M  V30 6489 H 606.53 0.891264 1.28399 0
M  V30 6490 H 607.265 -0.843795 3.1313 0
M  V30 6491 H 607.05 0.781985 3.84223 0
M  V30 6492 H 608.54 -0.151216 4.17326 0
M  V30 6493 N 608.977 -1.30795 0.87923 0
M  V30 6494 C 610.202 -2.01063 0.508769 0
M  V30 6495 C 610.627 -1.65508 -0.893803 0
M  V30 6496 O 609.985 -0.868616 -1.59138 0
M  V30 6497 C 610.033 -3.54054 0.683991 0
M  V30 6498 O 609.137 -4.11498 -0.272654 0
M  V30 6499 H 608.478 -0.632786 0.201191 0
M  V30 6500 H 611.008 -1.66776 1.18519 0
M  V30 6501 H 611.018 -4.03845 0.580798 0
M  V30 6502 H 609.693 -3.79271 1.70665 0
M  V30 6503 H 608.27 -3.72695 -0.12364 0
M  V30 6504 N 610.455 -0.639598 -1.44038 0
M  V30 6505 C 611.418 0.0506628 -2.29144 0
M  V30 6506 C 612.418 0.764001 -1.41491 0
M  V30 6507 O 613.608 0.607309 -1.63271 0
M  V30 6508 C 610.74 1.0824 -3.2326 0
M  V30 6509 H 611.933 -0.697987 -2.91664 0
M  V30 6510 H 609.486 -0.400146 -1.51091 0
M  V30 6511 H 610.221 1.86075 -2.65606 0
M  V30 6512 H 610.006 0.574725 -3.87865 0
M  V30 6513 H 611.496 1.56487 -3.87171 0
M  V30 6514 N 611.933 1.52934 -0.380664 0
M  V30 6515 C 613.158 2.06363 0.207157 0
M  V30 6516 C 613.583 1.25122 1.4045 0
M  V30 6517 O 612.941 0.274062 1.79217 0
M  V30 6518 C 612.989 3.56162 0.563996 0
M  V30 6519 O 612.093 3.77552 1.65917 0
M  V30 6520 H 611.434 0.663468 0.0265859 0
M  V30 6521 H 613.964 1.9719 -0.545635 0
M  V30 6522 H 613.974 3.99453 0.830752 0
M  V30 6523 H 612.649 4.14732 -0.311427 0
M  V30 6524 H 611.226 3.46154 1.3868 0
M  V30 6525 N 613.412 0.11024 1.57214 0
M  V30 6526 C 614.375 -0.828808 2.1369 0
M  V30 6527 C 615.375 -1.20059 1.06969 0
M  V30 6528 O 616.565 -1.12754 1.32786 0
M  V30 6529 C 613.697 -2.11959 2.66994 0
M  V30 6530 H 614.89 -0.338146 2.97988 0
M  V30 6531 H 612.443 -0.138913 1.55681 0
M  V30 6532 H 613.178 -2.65476 1.8626 0
M  V30 6533 H 612.963 -1.86258 3.45037 0
M  V30 6534 H 614.453 -2.79105 3.10629 0
M  V30 6535 N 614.89 -1.56749 -0.16351 0
M  V30 6536 C 616.115 -1.86938 -0.898264 0
M  V30 6537 C 616.54 -0.697456 -1.74692 0
M  V30 6538 O 615.898 0.353327 -1.77824 0
M  V30 6539 C 615.946 -3.15599 -1.74441 0
M  V30 6540 O 615.05 -2.98371 -2.8469 0
M  V30 6541 H 614.391 -0.614659 -0.251178 0
M  V30 6542 H 616.921 -2.03979 -0.159298 0
M  V30 6543 H 616.931 -3.47202 -2.14277 0
M  V30 6544 H 615.606 -4.00505 -1.1211 0
M  V30 6545 H 614.183 -2.7814 -2.4838 0
M  V30 6546 N 616.368 0.432326 -1.51554 0
M  V30 6547 C 617.316 1.54572 -1.73811 0
M  V30 6548 C 618.31 1.58246 -0.604539 0
M  V30 6549 O 619.516 1.6193 -0.786041 0
M  V30 6550 H 615.891 0.513626 -0.549265 0
M  V30 6551 H 617.862 1.32977 -2.67132 0
M  V30 6552 C 616.611 2.92181 -1.88483 0
M  V30 6553 H 615.934 2.90088 -2.75116 0
M  V30 6554 H 617.374 3.69439 -2.08065 0
M  V30 6555 C 615.833 3.3065 -0.645909 0
M  V30 6556 O 616.363 4.01216 0.197093 0
M  V30 6557 N 614.569 2.86464 -0.488538 0
M  V30 6558 H 614.116 2.29209 -1.17562 0
M  V30 6559 H 614.074 3.12565 0.339156 0
M  V30 6560 N 617.846 1.41785 0.688094 0
M  V30 6561 C 619.071 1.45117 1.48175 0
M  V30 6562 C 619.496 0.060129 1.88004 0
M  V30 6563 O 618.854 -0.938385 1.55126 0
M  V30 6564 C 618.902 2.37224 2.71583 0
M  V30 6565 O 618.006 1.83443 3.69354 0
M  V30 6566 H 617.347 0.492208 0.445676 0
M  V30 6567 H 619.877 1.86329 0.845145 0
M  V30 6568 H 619.887 2.53353 3.19806 0
M  V30 6569 H 618.562 3.38293 2.41931 0
M  V30 6570 H 617.139 1.76802 3.28322 0
M  V30 6571 N 619.324 -0.923095 1.27737 0
M  V30 6572 C 620.552 -1.70525 1.17171 0
M  V30 6573 C 620.967 -1.86847 -0.270881 0
M  V30 6574 O 620.324 -1.38879 -1.18401 0
M  V30 6575 C 620.375 -3.10242 1.85559 0
M  V30 6576 O 620.096 -2.94683 3.24182 0
M  V30 6577 C 621.597 -4.04586 1.81176 0
M  V30 6578 H 618.817 -0.533347 0.407163 0
M  V30 6579 H 621.361 -1.15599 1.68692 0
M  V30 6580 H 619.516 -3.62014 1.3793 0
M  V30 6581 H 619.93 -3.83045 3.58297 0
M  V30 6582 H 621.404 -5.00119 2.33633 0
M  V30 6583 H 621.881 -4.3218 0.782099 0
M  V30 6584 H 622.487 -3.58741 2.2844 0
M  V30 6585 O 620.841 -1.22056 -1.05757 0
M  V30 6586 H 621.532 -0.983935 -1.66848 0
M  V30 END ATOM
M  V30 BEGIN BOND
M  V30 END BOND
M  V30 END CTAB
M  END
$$$$
