drugbank_target|P04234 T-cell surface glycoprotein CD3 delta chain (DB00075; DB09052)
 OpenBabel12092120323D

  0  0  0     0  0            999 V3000
M  V30 BEGIN CTAB
M  V30 COUNTS 2656 2678 0 0 0
M  V30 BEGIN ATOM
M  V30 1 H -0.908 1.98254 -0.117106 0
M  V30 2 N 0 1.576 0 0
M  V30 3 C 0.933 2.03868 1.02534 0
M  V30 4 C 1.911 0.928543 1.3348 0
M  V30 5 O 3.095 1.19667 1.45644 0
M  V30 6 C 0.222 2.43627 2.35294 0
M  V30 7 C -0.732 3.65373 2.2001 0
M  V30 8 S 0.101 5.13292 1.52614 0
M  V30 9 C 1.257 5.56322 2.86805 0
M  V30 10 H 1.49 2.90518 0.631377 0
M  V30 11 H -0.977 1.52953 0.210867 0
M  V30 12 H 0.981 2.67203 3.11629 0
M  V30 13 H -0.358 1.57376 2.7183 0
M  V30 14 H -1.165 3.90944 3.18086 0
M  V30 15 H -1.563 3.418 1.51819 0
M  V30 16 H 0.729 5.58782 3.83104 0
M  V30 17 H 1.672 6.56266 2.65933 0
M  V30 18 H 2.08 4.83886 2.90714 0
M  V30 19 N 1.4781 -0.272755 1.55222 0
M  V30 20 C 2.3881 -1.35918 1.91216 0
M  V30 21 C 3.4041 -1.54026 0.809436 0
M  V30 22 O 4.5801 -1.68148 1.10852 0
M  V30 23 C 1.6451 -2.69834 2.17693 0
M  V30 24 C 0.7061 -2.6047 3.41253 0
M  V30 25 C -0.0609 -3.88 3.66458 0
M  V30 26 O 0.1621 -4.88693 2.94169 0
M  V30 27 O -0.9039 -3.88189 4.59992 0
M  V30 28 H 2.9221 -1.0839 2.83699 0
M  V30 29 H 0.5071 -0.471301 1.41771 0
M  V30 30 H 2.3891 -3.49017 2.36147 0
M  V30 31 H 1.0641 -2.97148 1.28392 0
M  V30 32 H -0.0289 -1.79663 3.28134 0
M  V30 33 H 1.3041 -2.38106 4.30774 0
M  V30 34 N 2.9562 -1.48159 -0.537278 0
M  V30 35 C 3.9062 -1.5854 -1.63857 0
M  V30 36 C 4.8902 -0.442969 -1.54682 0
M  V30 37 O 6.0822 -0.69401 -1.62827 0
M  V30 38 C 3.2112 -1.62144 -3.02596 0
M  V30 39 C 2.2972 -2.81841 -3.16901 0
M  V30 40 N 2.6882 -4.06337 -3.01204 0
M  V30 41 C 0.9862 -2.79021 -3.47942 0
M  V30 42 C 1.6872 -4.86606 -3.18731 0
M  V30 43 N 0.6632 -4.19288 -3.45974 0
M  V30 44 H 4.4652 -2.5255 -1.50319 0
M  V30 45 H 1.9792 -1.4443 -0.742555 0
M  V30 46 H 3.9762 -1.67674 -3.81695 0
M  V30 47 H 2.6362 -0.69245 -3.17231 0
M  V30 48 H 3.6472 -4.36888 -2.78117 0
M  V30 49 H 0.3242 -1.95347 -3.6898 0
M  V30 50 H 1.7142 -5.95385 -3.11394 0
M  V30 51 N 4.4343 0.785586 -1.36625 0
M  V30 52 C 5.6593 1.57963 -1.34397 0
M  V30 53 C 6.0843 1.87964 0.071526 0
M  V30 54 O 5.4423 1.48182 1.0446 0
M  V30 55 C 5.4903 2.87511 -2.17646 0
M  V30 56 O 4.5943 3.81281 -1.57158 0
M  V30 57 H 3.9353 0.479014 -0.459828 0
M  V30 58 H 6.4653 0.973411 -1.79961 0
M  V30 59 H 6.4753 3.36745 -2.30362 0
M  V30 60 H 5.1503 2.65002 -3.20541 0
M  V30 61 H 3.7273 3.39885 -1.53403 0
M  V30 62 N 5.9124 1.20967 1.01018 0
M  V30 63 C 7.1404 1.04956 1.78303 0
M  V30 64 C 7.5554 -0.400915 1.84494 0
M  V30 65 O 6.9124 -1.27826 1.30257 0
M  V30 66 C 6.9634 1.63403 3.22462 0
M  V30 67 O 6.6844 3.02775 3.16637 0
M  V30 68 C 8.1854 1.52432 4.16268 0
M  V30 69 H 5.4054 0.368858 0.560522 0
M  V30 70 H 7.9494 1.60193 1.27116 0
M  V30 71 H 6.1044 1.1227 3.70775 0
M  V30 72 H 6.5184 3.30626 4.07169 0
M  V30 73 H 7.9924 1.98078 5.15237 0
M  V30 74 H 8.4694 0.477875 4.36592 0
M  V30 75 H 9.0754 2.02787 3.73841 0
M  V30 76 N 7.3905 -1.2043 1.01659 0
M  V30 77 C 8.6375 -1.89797 0.705917 0
M  V30 78 C 8.9655 -1.78848 -0.764439 0
M  V30 79 O 8.2205 -1.16694 -1.57102 0
M  V30 80 C 8.5195 -3.40464 1.08714 0
M  V30 81 C 8.1855 -3.71614 2.5537 0
M  V30 82 C 6.8475 -3.79826 2.95441 0
M  V30 83 C 9.1995 -3.85915 3.50313 0
M  V30 84 C 6.5275 -3.99797 4.29394 0
M  V30 85 C 8.8795 -4.07396 4.83954 0
M  V30 86 C 7.5435 -4.13837 5.23732 0
M  V30 87 H 6.8135 -0.694518 0.258313 0
M  V30 88 H 9.4605 -1.42691 1.27717 0
M  V30 89 H 7.7655 -3.89385 0.434309 0
M  V30 90 H 9.4625 -3.92433 0.824461 0
M  V30 91 H 6.0525 -3.65822 2.23321 0
M  V30 92 H 10.2365 -3.78926 3.20513 0
M  V30 93 H 5.4925 -4.03018 4.59768 0
M  V30 94 H 9.6665 -4.17404 5.57447 0
M  V30 95 H 7.2935 -4.29064 6.27541 0
M  V30 96 N 8.8686 -0.792821 -1.36206 0
M  V30 97 C 9.7986 -0.207853 -2.32573 0
M  V30 98 C 10.7796 0.659055 -1.56813 0
M  V30 99 O 11.9646 0.592176 -1.84951 0
M  V30 100 C 9.0946 0.655449 -3.41059 0
M  V30 101 C 8.0486 -0.111842 -4.27854 0
M  V30 102 C 7.3746 0.872274 -5.27537 0
M  V30 103 C 8.6746 -1.30299 -5.05786 0
M  V30 104 H 10.3686 -1.01294 -2.81744 0
M  V30 105 H 7.9146 -0.48854 -1.3546 0
M  V30 106 H 9.8676 1.07464 -4.07467 0
M  V30 107 H 8.5916 1.49328 -2.90463 0
M  V30 108 H 7.2506 -0.512053 -3.63006 0
M  V30 109 H 6.8986 1.70523 -4.73214 0
M  V30 110 H 6.5986 0.363291 -5.86476 0
M  V30 111 H 8.1226 1.28996 -5.96818 0
M  V30 112 H 9.5366 -0.959379 -5.65216 0
M  V30 113 H 7.9336 -1.7455 -5.74154 0
M  V30 114 H 9.0036 -2.09663 -4.37229 0
M  V30 115 N 10.3467 1.47872 -0.545128 0
M  V30 116 C 11.5717 2.07391 -0.0190611 0
M  V30 117 C 11.9967 1.39688 1.25971 0
M  V30 118 O 11.3547 0.467816 1.7516 0
M  V30 119 C 11.4027 3.60188 0.172335 0
M  V30 120 O 10.5067 3.9339 1.23766 0
M  V30 121 H 9.8477 0.662411 -0.0459059 0
M  V30 122 H 12.3777 1.90066 -0.757365 0
M  V30 123 H 12.3877 4.06129 0.390305 0
M  V30 124 H 11.0627 4.08865 -0.761725 0
M  V30 125 H 9.6397 3.5921 1.00114 0
M  V30 126 N 11.8248 0.280983 1.55075 0
M  V30 127 C 13.0728 -0.333455 1.9933 0
M  V30 128 C 13.3938 -1.55937 1.17085 0
M  V30 129 O 12.6638 -1.94143 0.261805 0
M  V30 130 H 11.2438 -0.126197 0.736263 0
M  V30 131 H 13.9058 0.387678 1.91005 0
M  V30 132 H 13.0018 -0.619292 3.05894 0
M  V30 133 N 13.3029 -1.57598 0.00835791 0
M  V30 134 C 14.2329 -2.1198 -0.979113 0
M  V30 135 C 15.2139 -1.03091 -1.35301 0
M  V30 136 O 16.3989 -1.30818 -1.43528 0
M  V30 137 C 13.5289 -2.62995 -2.26828 0
M  V30 138 C 12.4829 -3.76485 -2.03576 0
M  V30 139 C 11.8089 -4.13846 -3.38579 0
M  V30 140 C 13.1089 -5.0342 -1.39161 0
M  V30 141 H 14.8029 -2.94738 -0.526281 0
M  V30 142 H 12.3489 -1.41783 -0.251704 0
M  V30 143 H 14.3019 -2.99669 -2.96271 0
M  V30 144 H 13.0259 -1.7737 -2.7424 0
M  V30 145 H 11.6849 -3.40217 -1.36557 0
M  V30 146 H 11.3329 -3.25232 -3.83709 0
M  V30 147 H 11.0329 -4.90312 -3.23834 0
M  V30 148 H 12.5569 -4.53086 -4.09323 0
M  V30 149 H 13.9709 -5.37812 -1.98573 0
M  V30 150 H 12.3679 -5.84746 -1.34878 0
M  V30 151 H 13.4379 -4.83548 -0.361868 0
M  V30 152 N 14.781 0.264519 -1.55364 0
M  V30 153 C 16.027 0.99646 -1.76631 0
M  V30 154 C 16.36 1.85632 -0.570478 0
M  V30 155 O 15.635 1.89647 0.43175 0
M  V30 156 C 15.918 1.87187 -3.07625 0
M  V30 157 C 15.771 1.04138 -4.37579 0
M  V30 158 C 17.09 2.85749 -3.34717 0
M  V30 159 H 14.209 0.360841 -0.642622 0
M  V30 160 H 16.851 0.268218 -1.88097 0
M  V30 161 H 15.001 2.49279 -2.9798 0
M  V30 162 H 16.673 0.440517 -4.59192 0
M  V30 163 H 14.916 0.345115 -4.32425 0
M  V30 164 H 15.587 1.68729 -5.2558 0
M  V30 165 H 18.063 2.33793 -3.4421 0
M  V30 166 H 16.939 3.44136 -4.27623 0
M  V30 167 H 17.2 3.61311 -2.54768 0
M  V30 168 N 16.2591 1.48442 0.529413 0
M  V30 169 C 17.1891 1.65902 1.64313 0
M  V30 170 C 18.1701 0.507897 1.6234 0
M  V30 171 O 19.3551 0.740503 1.79528 0
M  V30 172 C 16.4851 1.69911 3.02898 0
M  V30 173 C 15.4391 2.8453 3.19729 0
M  V30 174 C 14.7651 2.73629 4.59381 0
M  V30 175 C 16.0651 4.25821 3.02447 0
M  V30 176 H 17.7591 2.5914 1.49955 0
M  V30 177 H 15.3051 1.24709 0.719982 0
M  V30 178 H 17.2581 1.80715 3.80684 0
M  V30 179 H 15.9821 0.732524 3.18279 0
M  V30 180 H 14.6411 2.73283 2.44361 0
M  V30 181 H 14.2891 1.74938 4.71599 0
M  V30 182 H 13.9891 3.50541 4.71588 0
M  V30 183 H 15.5131 2.86401 5.39265 0
M  V30 184 H 16.9271 4.37898 3.70024 0
M  V30 185 H 15.3241 5.03735 3.26146 0
M  V30 186 H 16.3941 4.42244 1.98867 0
M  V30 187 N 17.7372 -0.778329 1.37039 0
M  V30 188 C 18.7002 -1.87301 1.32102 0
M  V30 189 C 19.7002 -1.59198 0.226405 0
M  V30 190 O 20.8902 -1.67403 0.481861 0
M  V30 191 C 18.0222 -3.24309 1.05055 0
M  V30 192 H 19.2152 -1.93093 2.29467 0
M  V30 193 H 16.7682 -0.977358 1.21973 0
M  V30 194 H 17.5032 -3.24196 0.0819373 0
M  V30 195 H 17.2882 -3.46098 1.84279 0
M  V30 196 H 18.7782 -4.04382 1.04234 0
M  V30 197 N 19.2153 -1.21501 -1.00376 0
M  V30 198 C 20.4433 -1.059 -1.77744 0
M  V30 199 C 20.8583 0.391125 -1.84704 0
M  V30 200 O 20.2153 1.27133 -1.30933 0
M  V30 201 C 20.2663 -1.65111 -3.21591 0
M  V30 202 O 19.9873 -3.0445 -3.15027 0
M  V30 203 C 21.4883 -1.54637 -4.15454 0
M  V30 204 H 18.7083 -0.371825 -0.558558 0
M  V30 205 H 21.2523 -1.60865 -1.26264 0
M  V30 206 H 19.4073 -1.14235 -3.70175 0
M  V30 207 H 19.8213 -3.3278 -4.0541 0
M  V30 208 H 21.2953 -2.00808 -5.14179 0
M  V30 209 H 21.7723 -0.501022 -4.36333 0
M  V30 210 H 22.3783 -2.04767 -3.72761 0
M  V30 211 N 20.6934 1.19889 -1.02296 0
M  V30 212 C 21.6234 2.25141 -0.619174 0
M  V30 213 C 22.6044 1.66051 0.368915 0
M  V30 214 O 23.7894 1.92546 0.252941 0
M  V30 215 C 20.9194 3.4728 0.0368783 0
M  V30 216 C 19.8734 4.19005 -0.872865 0
M  V30 217 C 19.1994 5.34637 -0.0822402 0
M  V30 218 C 20.4994 4.74452 -2.18387 0
M  V30 219 H 22.1934 2.59171 -1.49903 0
M  V30 220 H 19.7394 1.24579 -0.722222 0
M  V30 221 H 21.6924 4.20098 0.330958 0
M  V30 222 H 20.4164 3.12433 0.95149 0
M  V30 223 H 19.0754 3.48061 -1.15105 0
M  V30 224 H 18.7234 4.96034 0.83422 0
M  V30 225 H 18.4234 5.83557 -0.688149 0
M  V30 226 H 19.9474 6.10255 0.205238 0
M  V30 227 H 21.3614 5.39055 -1.95172 0
M  V30 228 H 19.7584 5.33834 -2.74119 0
M  V30 229 H 20.8284 3.92844 -2.84257 0
M  V30 230 N 22.1715 0.800033 1.35784 0
M  V30 231 C 23.1015 0.220184 2.3246 0
M  V30 232 C 24.0825 -0.65073 1.57161 0
M  V30 233 O 25.2675 -0.582359 1.85263 0
M  V30 234 C 22.3975 -0.637353 3.41402 0
M  V30 235 C 21.3515 0.134531 4.27789 0
M  V30 236 C 20.6775 -0.844285 5.27992 0
M  V30 237 C 21.9775 1.32979 5.05088 0
M  V30 238 H 23.6715 1.02787 2.81203 0
M  V30 239 H 21.2175 0.495717 1.35199 0
M  V30 240 H 23.1705 -1.05302 4.08031 0
M  V30 241 H 21.8945 -1.47785 2.91251 0
M  V30 242 H 20.5535 0.531296 3.6273 0
M  V30 243 H 20.2015 -1.68011 4.74111 0
M  V30 244 H 19.9015 -0.332184 5.8666 0
M  V30 245 H 21.4255 -1.2583 5.97494 0
M  V30 246 H 22.8395 0.98934 5.64699 0
M  V30 247 H 21.2365 1.77593 5.7322 0
M  V30 248 H 22.3065 2.11978 4.36111 0
M  V30 249 N 23.6496 -1.47581 0.552962 0
M  V30 250 C 24.8746 -2.07378 0.0300593 0
M  V30 251 C 25.2996 -1.40355 -1.25229 0
M  V30 252 O 24.6576 -0.477099 -1.7491 0
M  V30 253 C 24.7056 -3.60274 -0.153231 0
M  V30 254 O 23.8096 -3.94041 -1.21678 0
M  V30 255 H 23.1506 -0.662158 0.0494182 0
M  V30 256 H 25.6806 -1.89662 0.767434 0
M  V30 257 H 25.6906 -4.0633 -0.368761 0
M  V30 258 H 24.3656 -4.08455 0.783397 0
M  V30 259 H 22.9426 -3.59735 -0.982079 0
M  V30 260 N 25.1277 -0.289203 -1.54924 0
M  V30 261 C 26.0597 0.625583 -2.20497 0
M  V30 262 C 27.0727 1.10667 -1.19402 0
M  V30 263 O 28.2617 1.02615 -1.46056 0
M  V30 264 C 25.3617 1.86702 -2.82835 0
M  V30 265 C 24.5347 1.5304 -4.09753 0
M  V30 266 C 23.5937 2.62576 -4.56005 0
M  V30 267 O 22.6197 2.28167 -5.21468 0
M  V30 268 N 23.8217 3.92901 -4.27328 0
M  V30 269 H 26.5867 0.0642801 -2.99631 0
M  V30 270 H 24.1477 -0.110896 -1.6152 0
M  V30 271 H 26.1397 2.59304 -3.10715 0
M  V30 272 H 24.7097 2.33702 -2.07611 0
M  V30 273 H 23.9297 0.637564 -3.8901 0
M  V30 274 H 25.2177 1.28072 -4.92418 0
M  V30 275 H 24.6157 4.23671 -3.74859 0
M  V30 276 H 23.1727 4.61837 -4.59946 0
M  V30 277 N 26.6058 1.57591 -0.0167156 0
M  V30 278 C 27.8518 1.91567 0.665582 0
M  V30 279 C 28.1848 0.892298 1.72487 0
M  V30 280 O 27.4598 -0.0867127 1.94307 0
M  V30 281 C 27.7428 3.36069 1.29342 0
M  V30 282 C 27.5958 4.49135 0.244541 0
M  V30 283 C 28.9148 3.803 2.21495 0
M  V30 284 H 26.0338 0.69666 0.240488 0
M  V30 285 H 28.6758 1.89866 -0.0714356 0
M  V30 286 H 26.8258 3.3765 1.92158 0
M  V30 287 H 28.4978 4.59689 -0.385228 0
M  V30 288 H 26.7408 4.3165 -0.431379 0
M  V30 289 H 27.4118 5.47242 0.723207 0
M  V30 290 H 29.8878 3.80377 1.68678 0
M  V30 291 H 28.7638 4.82127 2.62382 0
M  V30 292 H 29.0248 3.15104 3.101 0
M  V30 293 N 28.0839 -0.256276 1.55502 0
M  V30 294 C 29.3089 -1.00766 1.81276 0
M  V30 295 C 29.7339 -1.78524 0.59252 0
M  V30 296 O 29.0919 -1.75413 -0.45827 0
M  V30 297 C 29.1399 -1.92869 3.04687 0
M  V30 298 O 28.2439 -3.019 2.80945 0
M  V30 299 H 27.5849 -0.287224 0.598664 0
M  V30 300 H 30.1149 -0.280109 2.02674 0
M  V30 301 H 30.1249 -2.34511 3.33869 0
M  V30 302 H 28.7999 -1.35689 3.93143 0
M  V30 303 H 27.3769 -2.64454 2.62904 0
M  V30 304 N 29.562 -1.4872 -0.521534 0
M  V30 305 C 30.973 -1.50607 -1.10337 0
M  V30 306 C 31.324 -0.280612 -1.94183 0
M  V30 307 O 30.449 0.611507 -2.0758 0
M  V30 308 C 31.044 -2.72903 -2.00772 0
M  V30 309 C 29.603 -2.77634 -2.54158 0
M  V30 310 C 28.75 -2.44241 -1.31307 0
M  V30 311 H 31.701 -1.55714 -0.306388 0
M  V30 312 H 31.722 -2.519 -2.85178 0
M  V30 313 H 31.234 -3.62077 -1.39721 0
M  V30 314 H 29.335 -1.92689 -3.18907 0
M  V30 315 H 29.448 -3.79283 -2.92714 0
M  V30 316 H 27.812 -1.95577 -1.63161 0
M  V30 317 H 28.595 -3.35666 -0.719943 0
M  V30 318 N 31.0401 0.771051 -1.3745 0
M  V30 319 C 32.2871 1.52963 -1.32697 0
M  V30 320 C 32.6151 1.94299 0.0883274 0
M  V30 321 O 31.8701 1.64397 1.0617 0
M  V30 322 C 32.1691 2.80676 -2.2126 0
M  V30 323 C 31.8351 2.58389 -3.69521 0
M  V30 324 C 30.4971 2.52019 -4.09927 0
M  V30 325 C 32.8491 2.38469 -4.63446 0
M  V30 326 C 30.1771 2.23721 -5.42371 0
M  V30 327 C 32.5291 2.11694 -5.96128 0
M  V30 328 C 31.1931 2.03769 -6.35637 0
M  V30 329 H 30.4631 0.559732 -0.485573 0
M  V30 330 H 33.1101 0.888083 -1.69662 0
M  V30 331 H 31.4151 3.49392 -1.77291 0
M  V30 332 H 33.1121 3.38557 -2.14895 0
M  V30 333 H 29.7021 2.6421 -3.37478 0
M  V30 334 H 33.8861 2.4238 -4.33089 0
M  V30 335 H 29.1421 2.16081 -5.71943 0
M  V30 336 H 33.3161 1.9528 -6.6846 0
M  V30 337 H 30.9431 1.81606 -7.38189 0
M  V30 338 N 32.5182 1.22032 0.997298 0
M  V30 339 C 33.4652 0.986467 2.08656 0
M  V30 340 C 34.4352 -0.0902671 1.65855 0
M  V30 341 O 35.6202 0.0584294 1.90711 0
M  V30 342 C 32.7602 0.565569 3.40434 0
M  V30 343 C 31.8732 1.71259 3.96604 0
M  V30 344 C 31.0082 1.24011 5.16522 0
M  V30 345 C 30.0472 2.35896 5.64818 0
M  V30 346 N 29.1842 1.89726 6.7598 0
M  V30 347 H 34.0242 1.91892 2.27994 0
M  V30 348 H 31.5612 0.956199 1.11782 0
M  V30 349 H 33.5192 0.302738 4.161 0
M  V30 350 H 32.1492 -0.329879 3.2111 0
M  V30 351 H 31.2012 2.08986 3.17851 0
M  V30 352 H 32.5132 2.55436 4.28432 0
M  V30 353 H 31.6672 0.934395 5.99461 0
M  V30 354 H 30.4062 0.368487 4.86306 0
M  V30 355 H 29.4112 2.67261 4.8047 0
M  V30 356 H 30.6362 3.23567 5.97061 0
M  V30 357 H 28.5822 1.0492 6.47555 0
M  V30 358 H 28.4992 2.67471 7.07103 0
M  V30 359 H 29.7672 1.62211 7.62435 0
M  V30 360 N 33.9963 -1.19345 1.0293 0
M  V30 361 C 35.2453 -1.88363 0.721256 0
M  V30 362 C 35.5583 -1.80514 -0.753254 0
M  V30 363 O 36.7643 -2.44788 -1.17436 0
M  V30 364 C 35.2203 -3.37872 1.23978 0
M  V30 365 C 34.8283 -3.54278 2.74211 0
M  V30 366 C 36.5723 -4.12365 1.00775 0
M  V30 367 C 34.4793 -4.97682 3.19479 0
M  V30 368 H 33.4093 -0.705484 0.266098 0
M  V30 369 H 36.0603 -1.34928 1.24365 0
M  V30 370 H 34.4423 -3.90707 0.6453 0
M  V30 371 H 35.6163 -3.11769 3.39318 0
M  V30 372 H 33.9313 -2.93174 2.95699 0
M  V30 373 H 36.5283 -5.18119 1.32123 0
M  V30 374 H 36.8713 -4.16263 -0.0554308 0
M  V30 375 H 37.4043 -3.65668 1.56625 0
M  V30 376 H 34.1433 -4.98945 4.25128 0
M  V30 377 H 33.6633 -5.4095 2.591 0
M  V30 378 H 35.3423 -5.66337 3.12845 0
M  V30 379 N 35.4744 -0.807222 -1.35358 0
M  V30 380 C 36.8854 -0.44876 -1.81226 0
M  V30 381 C 37.2364 1.02929 -1.67033 0
M  V30 382 O 36.3614 1.79991 -1.20133 0
M  V30 383 C 36.9564 -0.807774 -3.2903 0
M  V30 384 C 35.5154 -0.501901 -3.73039 0
M  V30 385 C 34.6624 -1.03304 -2.57339 0
M  V30 386 H 37.6134 -0.998808 -1.23327 0
M  V30 387 H 37.6344 -0.10554 -3.80354 0
M  V30 388 H 37.1464 -1.88357 -3.39328 0
M  V30 389 H 35.2474 0.565128 -3.68289 0
M  V30 390 H 35.3604 -1.03497 -4.67787 0
M  V30 391 H 33.7244 -0.455339 -2.50597 0
M  V30 392 H 34.5074 -2.11496 -2.70415 0
M  V30 393 N 36.9525 1.47285 -0.560781 0
M  V30 394 C 38.2015 2.01668 -0.035895 0
M  V30 395 C 38.5145 1.44021 1.32353 0
M  V30 396 O 39.7205 1.90088 1.93853 0
M  V30 397 C 38.1765 3.59897 -0.0136659 0
M  V30 398 C 37.7845 4.26536 -1.37006 0
M  V30 399 C 39.5285 4.22017 0.458425 0
M  V30 400 C 37.4355 5.76782 -1.30675 0
M  V30 401 H 36.3655 0.753938 -0.00964879 0
M  V30 402 H 39.0165 1.69243 -0.709166 0
M  V30 403 H 37.3985 3.89301 0.725325 0
M  V30 404 H 38.5725 4.0877 -2.12705 0
M  V30 405 H 36.8875 3.76419 -1.78038 0
M  V30 406 H 39.4845 5.32124 0.524247 0
M  V30 407 H 39.8275 3.89437 1.4712 0
M  V30 408 H 40.3605 3.97159 -0.225818 0
M  V30 409 H 37.0995 6.13988 -2.29564 0
M  V30 410 H 36.6195 5.96875 -0.591622 0
M  V30 411 H 38.2985 6.39063 -1.01033 0
M  V30 412 N 38.4306 0.297415 1.54768 0
M  V30 413 C 39.3406 -0.58983 2.27064 0
M  V30 414 C 40.3566 -1.15144 1.30453 0
M  V30 415 O 41.5326 -1.17699 1.63428 0
M  V30 416 C 38.5976 -1.74714 2.9946 0
M  V30 417 C 37.6586 -1.21997 4.11601 0
M  V30 418 C 36.8916 -2.32212 4.80535 0
M  V30 419 O 37.1146 -3.52036 4.48806 0
M  V30 420 O 36.0486 -1.99106 5.68014 0
M  V30 421 H 39.8746 -0.00348199 3.037 0
M  V30 422 H 37.4596 0.0640035 1.49263 0
M  V30 423 H 39.3416 -2.42147 3.44881 0
M  V30 424 H 38.0166 -2.32016 2.25722 0
M  V30 425 H 36.9236 -0.511458 3.70587 0
M  V30 426 H 38.2566 -0.692419 4.87305 0
M  V30 427 N 39.9087 -1.5758 0.0250728 0
M  V30 428 C 40.8187 -2.1343 -0.973905 0
M  V30 429 C 41.8347 -1.08556 -1.35984 0
M  V30 430 O 43.0107 -1.40592 -1.44207 0
M  V30 431 C 40.0757 -2.64703 -2.23904 0
M  V30 432 C 39.1367 -3.84276 -1.91391 0
M  V30 433 C 38.3697 -4.33095 -3.11873 0
M  V30 434 O 38.5927 -3.81107 -4.24398 0
M  V30 435 O 37.5267 -5.24984 -2.94406 0
M  V30 436 H 41.3527 -2.99057 -0.529036 0
M  V30 437 H 38.9377 -1.48118 -0.195288 0
M  V30 438 H 40.8197 -2.97769 -2.98181 0
M  V30 439 H 39.4947 -1.82161 -2.6758 0
M  V30 440 H 38.4017 -3.56143 -1.14511 0
M  V30 441 H 39.7347 -4.67968 -1.52534 0
M  V30 442 N 41.3868 0.248026 -1.55636 0
M  V30 443 C 42.3168 1.31079 -1.93237 0
M  V30 444 C 43.2978 1.50264 -0.797174 0
M  V30 445 O 44.4828 1.62891 -1.05737 0
M  V30 446 C 41.6128 2.66575 -2.22609 0
M  V30 447 C 40.5668 2.62087 -3.3837 0
M  V30 448 C 39.8928 4.01369 -3.53281 0
M  V30 449 C 41.1928 2.19171 -4.7409 0
M  V30 450 H 42.8868 0.998556 -2.82257 0
M  V30 451 H 40.4328 0.47891 -1.35803 0
M  V30 452 H 42.3858 3.41057 -2.47503 0
M  V30 453 H 41.1098 2.99432 -1.30414 0
M  V30 454 H 39.7688 1.90063 -3.13483 0
M  V30 455 H 39.4168 4.31489 -2.58508 0
M  V30 456 H 39.1168 3.99254 -4.31127 0
M  V30 457 H 40.6408 4.77552 -3.80495 0
M  V30 458 H 42.0548 2.83384 -4.98363 0
M  V30 459 H 40.4518 2.2817 -5.5503 0
M  V30 460 H 41.5218 1.14336 -4.71227 0
M  V30 461 N 42.8649 1.48995 0.513639 0
M  V30 462 C 43.7749 1.67443 1.64317 0
M  V30 463 C 44.7909 0.556947 1.64846 0
M  V30 464 O 45.9669 0.830082 1.83498 0
M  V30 465 C 43.0319 1.72515 3.00732 0
M  V30 466 C 42.0929 2.96009 3.1093 0
M  V30 467 C 41.3259 3.00829 4.40837 0
M  V30 468 O 41.5489 2.13594 5.28898 0
M  V30 469 O 40.4829 3.93168 4.55744 0
M  V30 470 H 44.3089 2.63106 1.51687 0
M  V30 471 H 41.8939 1.32588 0.688543 0
M  V30 472 H 43.7759 1.78277 3.81831 0
M  V30 473 H 42.4509 0.800278 3.13651 0
M  V30 474 H 41.3579 2.9577 2.29065 0
M  V30 475 H 42.6909 3.87934 3.02933 0
M  V30 476 N 44.343 -0.763751 1.37857 0
M  V30 477 C 45.62 -1.51244 1.24035 0
M  V30 478 C 46 -2.10472 -0.162649 0
M  V30 479 O 45.348 -1.96206 -1.17112 0
M  V30 480 C 45.558 -2.58694 2.34261 0
M  V30 481 C 46.906 -3.25878 2.72193 0
M  V30 482 O 47.93 -2.68993 2.33497 0
M  V30 483 O 46.789 -4.2874 3.38887 0
M  V30 484 H 43.883 -0.670243 0.484462 0
M  V30 485 H 46.429 -0.800031 1.49658 0
M  V30 486 H 45.201 -2.13105 3.2818 0
M  V30 487 H 44.824 -3.37527 2.10146 0
M  V30 488 N 45.8211 -1.22559 -0.990812 0
M  V30 489 C 47.2371 -0.985996 -1.255 0
M  V30 490 C 47.4371 0.319173 -1.98956 0
M  V30 491 O 46.4931 1.04127 -2.3003 0
M  V30 492 C 47.8061 -2.18607 -2.06474 0
M  V30 493 C 49.3541 -2.22985 -2.19651 0
M  V30 494 C 49.8291 -3.4255 -3.04012 0
M  V30 495 N 51.3201 -3.42725 -3.11599 0
M  V30 496 C 52.0551 -4.31892 -3.7717 0
M  V30 497 N 51.5511 -5.31279 -4.44651 0
M  V30 498 N 53.3441 -4.19662 -3.73952 0
M  V30 499 H 45.4951 -2.06469 -0.49841 0
M  V30 500 H 47.7581 -0.904853 -0.282747 0
M  V30 501 H 47.4641 -3.13267 -1.59865 0
M  V30 502 H 47.3381 -2.18838 -3.07229 0
M  V30 503 H 49.7251 -1.28871 -2.65474 0
M  V30 504 H 49.8061 -2.26791 -1.18319 0
M  V30 505 H 49.4501 -4.36965 -2.58889 0
M  V30 506 H 49.3801 -3.35984 -4.0549 0
M  V30 507 H 51.8711 -2.70807 -2.63575 0
M  V30 508 H 52.1841 -5.95593 -4.92431 0
M  V30 509 H 50.5291 -5.3519 -4.43392 0
M  V30 510 H 53.7201 -3.41268 -3.20396 0
M  V30 511 H 53.8931 -4.89358 -4.24774 0
M  V30 512 N 47.2992 1.18797 -1.03562 0
M  V30 513 C 48.5452 1.8893 -0.737113 0
M  V30 514 C 48.8782 1.79837 0.732956 0
M  V30 515 O 48.1532 1.19525 1.5344 0
M  V30 516 C 48.4362 3.39607 -1.19745 0
M  V30 517 C 48.2892 3.57537 -2.72924 0
M  V30 518 C 49.6082 4.33069 -0.783526 0
M  V30 519 H 46.7272 0.686057 -0.269249 0
M  V30 520 H 49.3692 1.39797 -1.28673 0
M  V30 521 H 47.5192 3.81583 -0.729855 0
M  V30 522 H 49.1912 3.24688 -3.27682 0
M  V30 523 H 47.4342 3.00363 -3.12993 0
M  V30 524 H 48.1052 4.63238 -3.00191 0
M  V30 525 H 50.5812 3.98846 -1.18581 0
M  V30 526 H 49.4572 5.3707 -1.13343 0
M  V30 527 H 49.7182 4.40986 0.313681 0
M  V30 528 N 48.7773 0.814389 1.34928 0
M  V30 529 C 50.0243 0.398423 1.98542 0
M  V30 530 C 50.3523 -1.03638 1.64589 0
M  V30 531 O 49.6073 -1.73509 0.90516 0
M  V30 532 C 49.9063 0.537781 3.53331 0
M  V30 533 C 49.5723 1.93704 4.07172 0
M  V30 534 C 48.2343 2.31984 4.21589 0
M  V30 535 C 50.5863 2.85213 4.36237 0
M  V30 536 C 47.9143 3.61125 4.62391 0
M  V30 537 C 50.2663 4.13809 4.78482 0
M  V30 538 C 48.9303 4.52077 4.91104 0
M  V30 539 H 48.2003 0.145793 0.726516 0
M  V30 540 H 50.8473 1.03669 1.61012 0
M  V30 541 H 49.1523 -0.183906 3.91368 0
M  V30 542 H 50.8493 0.196588 4.00518 0
M  V30 543 H 47.4393 1.62966 3.96409 0
M  V30 544 H 51.6233 2.56885 4.24645 0
M  V30 545 H 46.8793 3.90612 4.70353 0
M  V30 546 H 51.0533 4.84811 4.99932 0
M  V30 547 H 48.6803 5.52196 5.22478 0
M  V30 548 N 50.2554 -1.46986 0.568584 0
M  V30 549 C 51.5014 -2.02741 0.0488709 0
M  V30 550 C 51.8344 -1.44077 -1.30214 0
M  V30 551 O 51.1094 -0.600552 -1.84996 0
M  V30 552 C 51.3924 -3.60086 -0.032047 0
M  V30 553 C 51.2454 -4.29162 1.34686 0
M  V30 554 C 52.5644 -4.33838 -0.739798 0
M  V30 555 H 49.6834 -0.736749 0.0192338 0
M  V30 556 H 52.3254 -1.75289 0.733065 0
M  V30 557 H 50.4754 -3.83606 -0.61473 0
M  V30 558 H 52.1474 -4.16948 1.97362 0
M  V30 559 H 50.3904 -3.89073 1.91846 0
M  V30 560 H 51.0614 -5.37826 1.24285 0
M  V30 561 H 53.5374 -4.15378 -0.244939 0
M  V30 562 H 52.4134 -5.43537 -0.765406 0
M  V30 563 H 52.6744 -4.03875 -1.79827 0
M  V30 564 N 51.7335 -0.305618 -1.54608 0
M  V30 565 C 52.6815 0.584119 -2.25146 0
M  V30 566 C 53.6755 1.13326 -1.25911 0
M  V30 567 O 54.8815 1.08337 -1.43747 0
M  V30 568 H 51.2565 0.206983 -0.722954 0
M  V30 569 H 53.2275 -0.033291 -2.98381 0
M  V30 570 C 51.9765 1.74225 -3.009 0
M  V30 571 H 51.2995 1.32892 -3.77067 0
M  V30 572 H 52.7395 2.34077 -3.53531 0
M  V30 573 C 51.1985 2.64914 -2.0814 0
M  V30 574 O 51.7285 3.66137 -1.65246 0
M  V30 575 N 49.9345 2.3275 -1.74 0
M  V30 576 H 49.4815 1.50479 -2.09078 0
M  V30 577 H 49.4395 2.93694 -1.12211 0
M  V30 578 N 53.2116 1.57565 -0.0334293 0
M  V30 579 C 54.4516 1.93844 0.648379 0
M  V30 580 C 54.8156 0.910387 1.69044 0
M  V30 581 O 56.0166 1.15952 2.42505 0
M  V30 582 C 54.2876 3.35017 1.24492 0
M  V30 583 S 55.8466 3.93229 1.94721 0
M  V30 584 H 52.6646 0.678231 0.213364 0
M  V30 585 H 55.2666 1.95254 -0.0981253 0
M  V30 586 H 53.9706 4.07652 0.474128 0
M  V30 587 H 53.5016 3.37061 2.02864 0
M  V30 588 H 55.5166 3.77014 3.22606 0
M  V30 589 N 54.6897 -0.239769 1.55765 0
M  V30 590 C 55.6377 -1.31668 1.91745 0
M  V30 591 C 56.6317 -1.49462 0.797338 0
M  V30 592 O 57.8377 -1.50852 0.982021 0
M  V30 593 H 54.2127 -0.441048 0.609082 0
M  V30 594 H 56.1837 -0.985923 2.81642 0
M  V30 595 C 54.9327 -2.66368 2.2348 0
M  V30 596 H 54.2557 -2.53478 3.09175 0
M  V30 597 H 55.6957 -3.40578 2.52553 0
M  V30 598 C 54.1547 -3.20002 1.05359 0
M  V30 599 O 54.6847 -4.00538 0.305261 0
M  V30 600 N 52.8907 -2.78126 0.842292 0
M  V30 601 H 52.4377 -2.12742 1.45253 0
M  V30 602 H 52.3957 -3.14354 0.053652 0
M  V30 603 N 56.1678 -1.49265 -0.50573 0
M  V30 604 C 57.3958 -1.62215 -1.28429 0
M  V30 605 C 57.8108 -0.291697 -1.86533 0
M  V30 606 O 57.1678 0.722233 -1.67601 0
M  V30 607 C 57.2188 -2.68735 -2.41793 0
M  V30 608 O 56.9398 -3.96619 -1.86078 0
M  V30 609 C 58.4408 -2.92346 -3.3324 0
M  V30 610 H 55.6608 -0.546239 -0.389697 0
M  V30 611 H 58.2048 -1.95265 -0.607609 0
M  V30 612 H 56.3598 -2.38476 -3.053 0
M  V30 613 H 56.7738 -4.55256 -2.60465 0
M  V30 614 H 58.2478 -3.70623 -4.09075 0
M  V30 615 H 58.7248 -2.02081 -3.89948 0
M  V30 616 H 59.3308 -3.24003 -2.75503 0
M  V30 617 N 57.6459 0.756429 -1.3826 0
M  V30 618 C 58.8709 1.55077 -1.37717 0
M  V30 619 C 59.2959 1.88073 0.03164 0
M  V30 620 O 58.6539 1.50364 1.01293 0
M  V30 621 C 58.7019 2.8283 -2.23695 0
M  V30 622 O 57.8059 3.77862 -1.6521 0
M  V30 623 H 57.1469 0.469152 -0.469885 0
M  V30 624 H 59.6769 0.935019 -1.81985 0
M  V30 625 H 59.6869 3.31783 -2.37453 0
M  V30 626 H 58.3619 2.58144 -3.2609 0
M  V30 627 H 56.9389 3.36555 -1.60578 0
M  V30 628 N 59.124 1.23083 0.984299 0
M  V30 629 C 60.373 1.05466 1.71929 0
M  V30 630 C 60.686 -0.409211 1.91272 0
M  V30 631 O 61.892 -0.705226 2.62181 0
M  V30 632 C 60.348 1.83874 3.09384 0
M  V30 633 C 59.956 3.34566 2.97943 0
M  V30 634 C 61.7 1.74734 3.8687 0
M  V30 635 C 59.607 4.05381 4.30605 0
M  V30 636 H 58.537 0.391039 0.644674 0
M  V30 637 H 61.188 1.47013 1.09815 0
M  V30 638 H 59.57 1.35131 3.72231 0
M  V30 639 H 60.744 3.90767 2.44209 0
M  V30 640 H 59.059 3.44476 2.33934 0
M  V30 641 H 61.656 2.24957 4.85076 0
M  V30 642 H 61.999 0.709372 4.10212 0
M  V30 643 H 62.532 2.21067 3.30717 0
M  V30 644 H 59.271 5.09467 4.1246 0
M  V30 645 H 58.791 3.53967 4.84218 0
M  V30 646 H 60.47 4.11458 4.99311 0
M  V30 647 N 60.6021 -1.18246 1.0419 0
M  V30 648 C 61.8301 -1.92195 0.766072 0
M  V30 649 C 62.2451 -1.76247 -0.676933 0
M  V30 650 O 61.6021 -1.09293 -1.46155 0
M  V30 651 C 61.6531 -3.43568 1.12442 0
M  V30 652 O 61.3741 -3.59015 2.51078 0
M  V30 653 C 62.8751 -4.34613 0.873275 0
M  V30 654 H 60.0951 -0.610114 0.279288 0
M  V30 655 H 62.6391 -1.50007 1.38989 0
M  V30 656 H 60.7941 -3.8354 0.545542 0
M  V30 657 H 61.2081 -4.5273 2.64831 0
M  V30 658 H 62.6821 -5.39374 1.17385 0
M  V30 659 H 63.1591 -4.38781 -0.191909 0
M  V30 660 H 63.7651 -4.00341 1.43551 0
M  V30 661 N 62.0802 -0.821533 -1.34494 0
M  V30 662 C 63.3262 -0.418729 -1.99043 0
M  V30 663 C 63.6812 1.00672 -1.6396 0
M  V30 664 O 62.9742 1.69132 -0.900271 0
M  V30 665 C 63.1682 -0.556512 -3.53041 0
M  V30 666 C 62.9972 -1.9938 -4.03085 0
M  V30 667 C 61.7672 -2.62539 -4.31742 0
M  V30 668 C 63.9652 -2.96035 -4.20556 0
M  V30 669 N 61.9472 -3.97523 -4.67813 0
M  V30 670 C 63.3182 -4.15924 -4.59791 0
M  V30 671 C 65.3732 -2.9267 -4.02801 0
M  V30 672 C 64.0762 -5.32899 -4.83126 0
M  V30 673 C 66.1022 -4.08861 -4.27302 0
M  V30 674 C 65.4642 -5.275 -4.66822 0
M  V30 675 H 61.5632 -0.201299 -0.755647 0
M  V30 676 H 64.1472 -1.06594 -1.62929 0
M  V30 677 H 62.3182 0.0607924 -3.88352 0
M  V30 678 H 64.0502 -0.126842 -4.04501 0
M  V30 679 H 60.8052 -2.13789 -4.22601 0
M  V30 680 H 61.2292 -4.67061 -4.90085 0
M  V30 681 H 65.8712 -2.02088 -3.71376 0
M  V30 682 H 63.5892 -6.24041 -5.13418 0
M  V30 683 H 67.1752 -4.07654 -4.15101 0
M  V30 684 H 66.0552 -6.15913 -4.85408 0
M  V30 685 N 63.5583 1.46682 -0.576371 0
M  V30 686 C 64.8043 2.02712 -0.0596221 0
M  V30 687 C 65.1373 1.44765 1.29448 0
M  V30 688 O 64.4123 0.610355 1.84675 0
M  V30 689 C 64.6953 3.60098 0.0129503 0
M  V30 690 C 64.5483 4.28441 -1.3696 0
M  V30 691 C 65.8673 4.34224 0.71678 0
M  V30 692 H 62.9863 0.736637 -0.0231407 0
M  V30 693 H 65.6283 1.74898 -0.742351 0
M  V30 694 H 63.7783 3.83926 0.594378 0
M  V30 695 H 65.4503 4.15896 -1.9957 0
M  V30 696 H 63.6933 3.8805 -1.93907 0
M  V30 697 H 64.3643 5.3716 -1.27135 0
M  V30 698 H 66.8403 4.15503 0.222908 0
M  V30 699 H 65.7163 5.43936 0.73657 0
M  V30 700 H 65.9773 4.04823 1.77682 0
M  V30 701 N 65.0364 0.313813 1.54444 0
M  V30 702 C 65.9464 -0.565714 2.27677 0
M  V30 703 C 66.9624 -1.13754 1.31666 0
M  V30 704 O 68.1384 -1.15959 1.64668 0
M  V30 705 C 65.2034 -1.71528 3.01296 0
M  V30 706 C 64.2644 -1.17624 4.12872 0
M  V30 707 C 63.4974 -2.27102 4.8297 0
M  V30 708 O 63.7204 -3.47256 4.52514 0
M  V30 709 O 62.6544 -1.9307 5.70094 0
M  V30 710 H 66.4804 0.0287296 3.03686 0
M  V30 711 H 64.0654 0.0798312 1.49187 0
M  V30 712 H 65.9474 -2.38476 3.4743 0
M  V30 713 H 64.6224 -2.29608 2.2817 0
M  V30 714 H 63.5294 -0.472124 3.71109 0
M  V30 715 H 64.8624 -0.640695 4.88012 0
M  V30 716 N 66.5145 -1.57545 0.0417849 0
M  V30 717 C 67.7625 -1.91937 -0.632829 0
M  V30 718 C 68.0835 -0.919978 -1.71934 0
M  V30 719 O 67.3535 0.0366064 -1.95866 0
M  V30 720 H 65.9335 -0.708493 -0.236742 0
M  V30 721 H 68.5955 -1.9468 0.0925745 0
M  V30 722 H 67.6915 -2.92912 -1.07746 0
M  V30 723 N 67.9926 0.231505 -1.5589 0
M  V30 724 C 69.2206 0.974505 -1.82513 0
M  V30 725 C 69.6356 1.78344 -0.619591 0
M  V30 726 O 68.9926 1.77792 0.411848 0
M  V30 727 C 69.0436 1.90007 -3.07538 0
M  V30 728 O 68.7646 1.12385 -4.2344 0
M  V30 729 C 70.2656 2.75779 -3.47075 0
M  V30 730 H 67.4856 0.286065 -0.606966 0
M  V30 731 H 70.0296 0.249739 -2.02969 0
M  V30 732 H 68.1846 2.57891 -2.89086 0
M  V30 733 H 68.5986 1.75125 -4.944 0
M  V30 734 H 70.0726 3.36443 -4.37619 0
M  V30 735 H 70.5496 3.47672 -2.68367 0
M  V30 736 H 71.1556 2.13323 -3.67931 0
M  V30 737 N 69.4707 1.49531 0.497807 0
M  V30 738 C 70.7167 1.59415 1.25358 0
M  V30 739 C 71.0497 0.281422 1.9215 0
M  V30 740 O 70.3247 -0.715249 1.80871 0
M  V30 741 C 70.6077 2.75566 2.3181 0
M  V30 742 C 70.4607 4.16642 1.69498 0
M  V30 743 C 71.7797 2.87347 3.33346 0
M  V30 744 H 68.8987 0.580244 0.454408 0
M  V30 745 H 71.5407 1.81827 0.551262 0
M  V30 746 H 69.6907 2.56587 2.91711 0
M  V30 747 H 71.3627 4.47145 1.13399 0
M  V30 748 H 69.6057 4.22141 0.998978 0
M  V30 749 H 70.2767 4.93792 2.46725 0
M  V30 750 H 72.7527 3.04634 2.83438 0
M  V30 751 H 71.6287 3.70289 4.05188 0
M  V30 752 H 71.8897 1.96834 3.95865 0
M  V30 753 N 70.9488 -0.749086 1.3866 0
M  V30 754 C 72.1968 -1.50535 1.34847 0
M  V30 755 C 72.5178 -1.94909 -0.0595016 0
M  V30 756 O 71.7878 -1.67973 -1.00806 0
M  V30 757 H 70.3678 -0.558395 0.49619 0
M  V30 758 H 73.0298 -0.890165 1.73384 0
M  V30 759 H 72.1258 -2.39413 2.00219 0
M  V30 760 N 72.4269 -1.23603 -0.977757 0
M  V30 761 C 73.6549 -1.09646 -1.75458 0
M  V30 762 C 74.0699 0.351859 -1.85492 0
M  V30 763 O 73.4269 1.24327 -1.336 0
M  V30 764 C 73.4779 -1.71895 -3.18016 0
M  V30 765 O 73.1989 -3.11063 -3.08498 0
M  V30 766 C 74.6999 -1.63415 -4.12081 0
M  V30 767 H 71.9199 -0.38359 -0.550545 0
M  V30 768 H 74.4639 -1.63507 -1.22824 0
M  V30 769 H 72.6189 -1.22061 -3.67668 0
M  V30 770 H 73.0329 -3.41305 -3.9826 0
M  V30 771 H 74.5069 -2.11669 -5.09804 0
M  V30 772 H 74.9839 -0.593462 -4.35172 0
M  V30 773 H 75.5899 -2.12628 -3.68334 0
M  V30 774 N 73.905 1.17692 -1.04816 0
M  V30 775 C 74.835 2.23777 -0.666791 0
M  V30 776 C 75.816 1.66796 0.33361 0
M  V30 777 O 77.001 1.93039 0.212042 0
M  V30 778 C 74.131 3.47281 -0.0367933 0
M  V30 779 C 73.085 4.17059 -0.961546 0
M  V30 780 C 72.411 5.34342 -0.195626 0
M  V30 781 C 73.711 4.69713 -2.28402 0
M  V30 782 H 75.405 2.55933 -1.55367 0
M  V30 783 H 72.951 1.23019 -0.748484 0
M  V30 784 H 74.904 4.20706 0.241775 0
M  V30 785 H 73.628 3.14381 0.885004 0
M  V30 786 H 72.287 3.45541 -1.22462 0
M  V30 787 H 71.935 4.97692 0.728816 0
M  V30 788 H 71.635 5.81966 -0.811775 0
M  V30 789 H 73.159 6.10553 0.0757473 0
M  V30 790 H 74.573 5.34794 -2.06563 0
M  V30 791 H 72.97 5.279 -2.8538 0
M  V30 792 H 74.04 3.86726 -2.92525 0
M  V30 793 N 75.3831 0.828654 1.34056 0
M  V30 794 C 76.3131 0.269443 2.3194 0
M  V30 795 C 77.2941 -0.617247 1.58506 0
M  V30 796 O 78.4791 -0.542931 1.86456 0
M  V30 797 C 75.6091 -0.564793 3.42677 0
M  V30 798 C 74.5631 0.225241 4.27407 0
M  V30 799 C 73.8891 -0.7321 5.29664 0
M  V30 800 C 75.1891 1.43663 5.02154 0
M  V30 801 H 76.8831 1.08728 2.7896 0
M  V30 802 H 74.4291 0.524283 1.34117 0
M  V30 803 H 76.3821 -0.966233 4.10173 0
M  V30 804 H 75.1061 -1.41574 2.9432 0
M  V30 805 H 73.7651 0.608117 3.61521 0
M  V30 806 H 73.4131 -1.57916 4.77568 0
M  V30 807 H 73.1131 -0.20767 5.87233 0
M  V30 808 H 74.6371 -1.13128 6.00029 0
M  V30 809 H 76.0511 1.1089 5.62473 0
M  V30 810 H 74.4481 1.89711 5.69324 0
M  V30 811 H 75.5181 2.21181 4.31517 0
M  V30 812 N 76.8612 -1.46375 0.584142 0
M  V30 813 C 78.0862 -2.07268 0.0740405 0
M  V30 814 C 78.5112 -1.42979 -1.22223 0
M  V30 815 O 77.8692 -0.514092 -1.73859 0
M  V30 816 C 77.9172 -3.60518 -0.0767769 0
M  V30 817 O 77.0212 -3.96533 -1.13292 0
M  V30 818 H 76.3622 -0.660961 0.0634524 0
M  V30 819 H 78.8922 -1.87991 0.807492 0
M  V30 820 H 78.9022 -4.07021 -0.282489 0
M  V30 821 H 77.5772 -4.06702 0.86986 0
M  V30 822 H 76.1542 -3.61738 -0.905553 0
M  V30 823 N 78.3393 -0.321999 -1.54275 0
M  V30 824 C 79.6163 0.335232 -1.92706 0
M  V30 825 C 79.9963 1.70006 -1.25145 0
M  V30 826 O 79.3443 2.25067 -0.394596 0
M  V30 827 C 79.5543 0.429008 -3.46353 0
M  V30 828 C 80.9023 0.690029 -4.18956 0
M  V30 829 O 81.9263 0.511992 -3.52501 0
M  V30 830 O 80.7853 1.03338 -5.36641 0
M  V30 831 H 77.8793 0.191143 -0.804608 0
M  V30 832 H 80.4253 -0.3716 -1.65581 0
M  V30 833 H 79.1973 -0.529611 -3.87699 0
M  V30 834 H 78.8203 1.18348 -3.79578 0
M  V30 835 N 79.8174 1.5752 -0.0501392 0
M  V30 836 C 81.0664 1.91827 0.623328 0
M  V30 837 C 81.3794 0.930222 1.72065 0
M  V30 838 O 82.5854 1.1653 2.4522 0
M  V30 839 C 81.0414 3.40692 1.16003 0
M  V30 840 C 80.6494 4.479 0.0948811 0
M  V30 841 C 82.3934 3.84034 1.80881 0
M  V30 842 C 80.3004 5.87879 0.644411 0
M  V30 843 H 79.2304 0.715918 0.236596 0
M  V30 844 H 81.8814 1.83115 -0.118861 0
M  V30 845 H 80.2634 3.44405 1.9545 0
M  V30 846 H 81.4374 4.55775 -0.678675 0
M  V30 847 H 79.7524 4.13892 -0.45637 0
M  V30 848 H 82.3494 4.85984 2.22988 0
M  V30 849 H 82.6924 3.20225 2.6601 0
M  V30 850 H 83.2254 3.82833 1.0809 0
M  V30 851 H 79.9644 6.55282 -0.169229 0
M  V30 852 H 79.4844 5.83567 1.38598 0
M  V30 853 H 81.1634 6.37098 1.12763 0
M  V30 854 N 81.2955 -0.223234 1.56011 0
M  V30 855 C 82.5235 -0.964812 1.83027 0
M  V30 856 C 82.9385 -1.78013 0.62904 0
M  V30 857 O 82.2955 -1.78008 -0.402414 0
M  V30 858 C 82.3465 -1.88373 3.08542 0
M  V30 859 O 82.0675 -1.10137 4.2403 0
M  V30 860 C 83.5685 -2.73934 3.48533 0
M  V30 861 H 80.7885 -0.282842 0.608475 0
M  V30 862 H 83.3325 -0.238971 2.03099 0
M  V30 863 H 81.4875 -2.56354 2.9045 0
M  V30 864 H 81.9015 -1.72501 4.95322 0
M  V30 865 H 83.3755 -3.34117 4.39397 0
M  V30 866 H 83.8525 -3.46244 2.70207 0
M  V30 867 H 84.4585 -2.11369 3.69057 0
M  V30 868 N 82.7736 -1.49793 -0.48987 0
M  V30 869 C 84.1896 -1.36803 -0.822022 0
M  V30 870 C 84.3896 -0.409652 -1.97292 0
M  V30 871 O 83.4456 0.154614 -2.52026 0
M  V30 872 C 84.7586 -2.77768 -1.15175 0
M  V30 873 C 86.3066 -2.86549 -1.25931 0
M  V30 874 C 86.7816 -4.28306 -1.62228 0
M  V30 875 N 88.2726 -4.31169 -1.69256 0
M  V30 876 C 89.0076 -5.37832 -1.98807 0
M  V30 877 N 88.5036 -6.54726 -2.26507 0
M  V30 878 N 90.2966 -5.25258 -2.00152 0
M  V30 879 H 82.4476 -2.10691 0.268881 0
M  V30 880 H 84.7106 -0.946241 0.057728 0
M  V30 881 H 84.4166 -3.49648 -0.379335 0
M  V30 882 H 84.2906 -3.13836 -2.09253 0
M  V30 883 H 86.6776 -2.14899 -2.02243 0
M  V30 884 H 86.7586 -2.54049 -0.298776 0
M  V30 885 H 86.4026 -5.00486 -0.864622 0
M  V30 886 H 86.3326 -4.58279 -2.594 0
M  V30 887 H 88.8236 -3.4687 -1.49965 0
M  V30 888 H 89.1366 -7.31833 -2.48276 0
M  V30 889 H 87.4816 -6.57933 -2.23939 0
M  V30 890 H 90.6726 -4.32938 -1.77996 0
M  V30 891 H 90.8456 -6.08476 -2.22848 0
M  V30 892 N 84.2517 0.741722 -1.39055 0
M  V30 893 C 85.1817 1.869 -1.39966 0
M  V30 894 C 86.1627 1.6804 -0.26392 0
M  V30 895 O 87.3477 1.88458 -0.468755 0
M  V30 896 C 84.4777 3.24572 -1.23574 0
M  V30 897 C 83.4317 3.58056 -2.34477 0
M  V30 898 C 82.7577 4.94593 -2.0318 0
M  V30 899 C 84.0577 3.61716 -3.76774 0
M  V30 900 H 85.7517 1.86395 -2.34302 0
M  V30 901 H 83.2977 0.895361 -1.1278 0
M  V30 902 H 85.2507 4.031 -1.22834 0
M  V30 903 H 83.9747 3.25587 -0.257045 0
M  V30 904 H 82.6337 2.81854 -2.34423 0
M  V30 905 H 82.2817 4.92181 -1.03765 0
M  V30 906 H 81.9817 5.17964 -2.77465 0
M  V30 907 H 83.5057 5.75486 -2.04079 0
M  V30 908 H 84.9197 4.30335 -3.78794 0
M  V30 909 H 83.3167 3.96603 -4.50362 0
M  V30 910 H 84.3867 2.61672 -4.08235 0
M  V30 911 N 85.7298 1.2412 0.971189 0
M  V30 912 C 87.0068 0.986867 1.6888 0
M  V30 913 C 87.3868 -0.491857 2.0529 0
M  V30 914 O 86.7348 -1.46531 1.75331 0
M  V30 915 C 86.9448 1.9063 2.92338 0
M  V30 916 C 88.2928 2.17515 3.64654 0
M  V30 917 O 89.3168 1.88254 3.02388 0
M  V30 918 O 88.1758 2.6719 4.7673 0
M  V30 919 H 85.2698 0.372944 0.738134 0
M  V30 920 H 87.8158 1.35203 1.02559 0
M  V30 921 H 86.5878 2.90552 2.62097 0
M  V30 922 H 86.2108 1.54408 3.66393 0
M  V30 923 N 87.2079 -1.17134 1.05439 0
M  V30 924 C 88.1379 -2.2342 0.678649 0
M  V30 925 C 89.1189 -1.66971 -0.32476 0
M  V30 926 O 90.3039 -1.93149 -0.201802 0
M  V30 927 C 87.4339 -3.47256 0.0552099 0
M  V30 928 C 86.3879 -4.16543 0.98365 0
M  V30 929 C 85.7139 -5.34231 0.223961 0
M  V30 930 C 87.0139 -4.68495 2.3089 0
M  V30 931 H 88.7079 -2.55105 1.56722 0
M  V30 932 H 86.2539 -1.2262 0.754998 0
M  V30 933 H 88.2069 -4.20828 -0.21946 0
M  V30 934 H 86.9309 -3.14846 -0.868319 0
M  V30 935 H 85.5899 -3.44887 1.24293 0
M  V30 936 H 85.2379 -4.98071 -0.702412 0
M  V30 937 H 84.9379 -5.81527 0.842627 0
M  V30 938 H 86.4619 -6.10585 -0.0433671 0
M  V30 939 H 87.8759 -5.33691 2.09396 0
M  V30 940 H 86.2729 -5.26379 2.88176 0
M  V30 941 H 87.3429 -3.85169 2.94572 0
M  V30 942 N 88.686 -0.835752 -1.33615 0
M  V30 943 C 89.934 -0.429109 -1.97492 0
M  V30 944 C 90.255 1.01433 -1.66543 0
M  V30 945 O 89.525 1.70611 -0.962744 0
M  V30 946 H 88.105 -0.155686 -0.730596 0
M  V30 947 H 90.767 -1.06802 -1.63031 0
M  V30 948 H 89.863 -0.55861 -3.0706 0
M  V30 949 N 90.1641 1.46063 -0.591896 0
M  V30 950 C 91.1111 2.30399 0.136069 0
M  V30 951 C 92.0811 1.41169 0.875238 0
M  V30 952 O 93.2661 1.70112 0.86409 0
M  V30 953 C 90.4061 3.25804 1.13781 0
M  V30 954 C 89.5191 4.30134 0.401137 0
M  V30 955 C 88.6541 5.12659 1.39121 0
M  V30 956 C 87.6931 6.0873 0.641462 0
M  V30 957 N 86.8301 6.8409 1.58004 0
M  V30 958 H 91.6701 2.92118 -0.589144 0
M  V30 959 H 89.2071 1.43959 -0.302342 0
M  V30 960 H 91.1651 3.79569 1.73156 0
M  V30 961 H 89.7951 2.65872 1.83062 0
M  V30 962 H 88.8471 3.79152 -0.307826 0
M  V30 963 H 90.1591 4.98458 -0.184565 0
M  V30 964 H 89.3131 5.70747 2.05749 0
M  V30 965 H 88.0521 4.44316 2.01084 0
M  V30 966 H 87.0571 5.49786 -0.0385419 0
M  V30 967 H 88.2821 6.79095 0.0270945 0
M  V30 968 H 86.2281 6.18449 2.18761 0
M  V30 969 H 86.1451 7.48709 1.04738 0
M  V30 970 H 87.4131 7.4673 2.23639 0
M  V30 971 N 91.6422 0.330177 1.54103 0
M  V30 972 C 93.0582 -0.0222371 1.59585 0
M  V30 973 C 93.2582 -1.49902 1.34654 0
M  V30 974 O 92.3142 -2.25592 1.13421 0
M  V30 975 C 93.6272 0.401932 2.98002 0
M  V30 976 C 95.1752 0.353145 3.11001 0
M  V30 977 C 95.6502 0.752576 4.51775 0
M  V30 978 N 97.1412 0.706239 4.57784 0
M  V30 979 C 97.8762 0.987417 5.64834 0
M  V30 980 N 97.3722 1.33607 6.79795 0
M  V30 981 N 99.1652 0.91254 5.54643 0
M  V30 982 H 91.3162 1.29228 1.68564 0
M  V30 983 H 93.5792 0.525906 0.78875 0
M  V30 984 H 93.2852 1.4311 3.21267 0
M  V30 985 H 93.1592 -0.229699 3.765 0
M  V30 986 H 95.5462 -0.666822 2.87467 0
M  V30 987 H 95.6272 1.0198 2.34593 0
M  V30 988 H 95.2712 1.77049 4.76042 0
M  V30 989 H 95.2012 0.0635409 5.26562 0
M  V30 990 H 97.6922 0.44889 3.75224 0
M  V30 991 H 98.0052 1.53582 7.57385 0
M  V30 992 H 96.3502 1.37439 6.81275 0
M  V30 993 H 99.5412 0.639601 4.6371 0
M  V30 994 H 99.7142 1.13503 6.37982 0
M  V30 995 N 93.1203 -1.57491 0.0584922 0
M  V30 996 C 94.3693 -1.92155 -0.613146 0
M  V30 997 C 94.6823 -0.939334 -1.71569 0
M  V30 998 O 95.8883 -1.17829 -2.44599 0
M  V30 999 C 94.3443 -3.41303 -1.14195 0
M  V30 1000 C 93.9523 -4.47944 -0.0711265 0
M  V30 1001 C 95.6963 -3.84988 -1.78841 0
M  V30 1002 C 93.6033 -5.88212 -0.613225 0
M  V30 1003 H 92.5333 -0.717162 -0.232796 0
M  V30 1004 H 95.1843 -1.83049 0.12857 0
M  V30 1005 H 93.5663 -3.45437 -1.93621 0
M  V30 1006 H 94.7403 -4.55408 0.702836 0
M  V30 1007 H 93.0553 -4.13644 0.478313 0
M  V30 1008 H 95.6523 -4.87159 -2.20408 0
M  V30 1009 H 95.9953 -3.21632 -2.64308 0
M  V30 1010 H 96.5283 -3.83401 -1.06059 0
M  V30 1011 H 93.2673 -6.55183 0.203978 0
M  V30 1012 H 92.7873 -5.84294 -1.35501 0
M  V30 1013 H 94.4663 -6.37687 -1.09383 0
M  V30 1014 N 94.5984 0.214957 -1.56127 0
M  V30 1015 C 95.5284 1.2695 -1.95974 0
M  V30 1016 C 96.5094 1.48539 -0.828868 0
M  V30 1017 O 97.6944 1.60611 -1.09168 0
M  V30 1018 C 94.8244 2.61794 -2.28214 0
M  V30 1019 C 93.7784 2.54851 -3.43853 0
M  V30 1020 C 93.1044 3.93785 -3.61715 0
M  V30 1021 C 94.4044 2.09065 -4.78632 0
M  V30 1022 H 96.0984 0.93846 -2.84312 0
M  V30 1023 H 93.6444 0.449996 -1.36788 0
M  V30 1024 H 95.5974 3.35731 -2.54682 0
M  V30 1025 H 94.3214 2.96599 -1.36736 0
M  V30 1026 H 92.9804 1.8337 -3.17444 0
M  V30 1027 H 92.6284 4.25908 -2.67602 0
M  V30 1028 H 92.3284 3.90019 -4.39498 0
M  V30 1029 H 93.8524 4.69374 -3.90539 0
M  V30 1030 H 95.2664 2.7275 -5.04262 0
M  V30 1031 H 93.6634 2.16346 -5.59745 0
M  V30 1032 H 94.7334 1.04315 -4.73547 0
M  V30 1033 N 96.0765 1.50051 0.48192 0
M  V30 1034 C 97.3535 1.51009 1.2432 0
M  V30 1035 C 97.7335 0.248587 2.09631 0
M  V30 1036 O 97.0815 -0.768409 2.15192 0
M  V30 1037 C 97.2915 2.79981 2.08355 0
M  V30 1038 C 98.6395 3.3022 2.66908 0
M  V30 1039 O 99.6635 2.81228 2.18607 0
M  V30 1040 O 98.5225 4.15595 3.54884 0
M  V30 1041 H 95.6165 0.605239 0.563573 0
M  V30 1042 H 98.1625 1.62332 0.494627 0
M  V30 1043 H 96.9345 3.63275 1.45419 0
M  V30 1044 H 96.5575 2.7161 2.90368 0
M  V30 1045 N 97.5546 -0.734337 1.39446 0
M  V30 1046 C 98.9656 -1.31264 1.32766 0
M  V30 1047 C 99.3166 -1.96198 -0.00767497 0
M  V30 1048 O 98.4416 -1.96346 -0.909796 0
M  V30 1049 C 99.0366 -2.38682 2.4045 0
M  V30 1050 C 97.5956 -2.92184 2.37288 0
M  V30 1051 C 96.7426 -1.6576 2.22304 0
M  V30 1052 H 99.6936 -0.531799 1.49525 0
M  V30 1053 H 99.7146 -3.19087 2.07276 0
M  V30 1054 H 99.2266 -1.91392 3.37625 0
M  V30 1055 H 97.3276 -3.43752 1.43754 0
M  V30 1056 H 97.4406 -3.45253 3.3217 0
M  V30 1057 H 95.8046 -1.9012 1.69489 0
M  V30 1058 H 96.5876 -1.20521 3.21449 0
M  V30 1059 N 99.0327 -1.24633 -0.964593 0
M  V30 1060 C 100.449 -1.01239 -1.2338 0
M  V30 1061 C 100.649 0.2769 -1.99588 0
M  V30 1062 O 99.7047 0.992241 -2.32187 0
M  V30 1063 C 101.018 -2.22937 -2.01791 0
M  V30 1064 C 102.566 -2.27594 -2.14872 0
M  V30 1065 C 103.041 -3.48921 -2.96678 0
M  V30 1066 N 104.532 -3.49257 -3.04259 0
M  V30 1067 C 105.267 -4.39795 -3.67924 0
M  V30 1068 N 104.763 -5.40591 -4.33281 0
M  V30 1069 N 106.556 -4.275 -3.64966 0
M  V30 1070 H 98.7067 -2.0748 -0.454502 0
M  V30 1071 H 100.97 -0.910647 -0.26349 0
M  V30 1072 H 100.676 -3.16587 -1.53184 0
M  V30 1073 H 100.55 -2.25306 -3.02518 0
M  V30 1074 H 102.937 -1.34473 -2.6268 0
M  V30 1075 H 103.018 -2.2925 -1.13482 0
M  V30 1076 H 102.662 -4.42359 -2.49562 0
M  V30 1077 H 102.592 -3.4451 -3.98272 0
M  V30 1078 H 105.083 -2.76337 -2.57771 0
M  V30 1079 H 105.396 -6.05904 -4.79687 0
M  V30 1080 H 103.741 -5.44475 -4.3194 0
M  V30 1081 H 106.932 -3.47987 -3.13086 0
M  V30 1082 H 107.105 -4.98258 -4.14298 0
M  V30 1083 N 100.511 1.16574 -1.06058 0
M  V30 1084 C 101.759 1.86677 -0.77434 0
M  V30 1085 C 102.08 1.81959 0.701147 0
M  V30 1086 O 101.35 1.2515 1.50713 0
M  V30 1087 H 99.9298 0.691134 -0.283449 0
M  V30 1088 H 102.592 1.41378 -1.34158 0
M  V30 1089 H 101.688 2.92181 -1.09711 0
M  V30 1090 N 101.989 0.842826 1.3317 0
M  V30 1091 C 103.238 0.436738 1.96915 0
M  V30 1092 C 103.551 -1.01025 1.67491 0
M  V30 1093 O 104.757 -1.5212 2.24881 0
M  V30 1094 C 103.213 0.730021 3.52418 0
M  V30 1095 C 102.821 2.19195 3.90714 0
M  V30 1096 C 104.565 0.391076 4.22695 0
M  V30 1097 C 102.472 2.42907 5.39212 0
M  V30 1098 H 101.402 0.15958 0.736919 0
M  V30 1099 H 104.053 1.03196 1.51733 0
M  V30 1100 H 102.435 0.0643755 3.95948 0
M  V30 1101 H 103.609 2.8984 3.58231 0
M  V30 1102 H 101.924 2.49425 3.33431 0
M  V30 1103 H 104.521 0.545817 5.31907 0
M  V30 1104 H 104.864 -0.666294 4.10933 0
M  V30 1105 H 105.397 1.01212 3.84709 0
M  V30 1106 H 102.136 3.47224 5.55982 0
M  V30 1107 H 101.656 1.76827 5.73142 0
M  V30 1108 H 103.335 2.2626 6.06148 0
M  V30 1109 N 103.467 -1.45747 0.599634 0
M  V30 1110 C 104.697 -2.06369 0.0977132 0
M  V30 1111 C 105.105 -1.44624 -1.21985 0
M  V30 1112 O 104.448 -0.551831 -1.75216 0
M  V30 1113 C 104.51 -3.59284 -0.124673 0
M  V30 1114 C 104.174 -4.43318 1.10987 0
M  V30 1115 C 105.171 -4.78796 2.02609 0
M  V30 1116 C 102.856 -4.84194 1.33647 0
M  V30 1117 C 104.85 -5.53997 3.15224 0
M  V30 1118 C 102.537 -5.5915 2.46565 0
M  V30 1119 C 103.535 -5.93968 3.37182 0
M  V30 1120 O 103.223 -6.67405 4.48136 0
M  V30 1121 H 102.955 -0.673122 0.0623153 0
M  V30 1122 H 105.509 -1.88104 0.824981 0
M  V30 1123 H 103.739 -3.75919 -0.906745 0
M  V30 1124 H 105.428 -4.01775 -0.577201 0
M  V30 1125 H 106.194 -4.47781 1.86325 0
M  V30 1126 H 102.073 -4.56534 0.64016 0
M  V30 1127 H 105.617 -5.81091 3.85978 0
M  V30 1128 H 101.514 -5.89579 2.62805 0
M  V30 1129 H 102.282 -6.85847 4.46717 0
M  V30 1130 N 104.945 -0.338344 -1.53925 0
M  V30 1131 C 106.361 0.0137736 -1.59594 0
M  V30 1132 C 106.561 1.49186 -1.35447 0
M  V30 1133 O 105.617 2.24987 -1.14616 0
M  V30 1134 C 106.93 -0.41773 -2.97784 0
M  V30 1135 C 108.478 -0.369633 -3.1081 0
M  V30 1136 C 108.953 -0.776524 -4.51369 0
M  V30 1137 N 110.444 -0.730506 -4.57403 0
M  V30 1138 C 111.179 -1.01736 -5.64303 0
M  V30 1139 N 110.675 -1.3721 -6.79077 0
M  V30 1140 N 112.468 -0.941942 -5.54151 0
M  V30 1141 H 104.619 -1.3012 -1.67876 0
M  V30 1142 H 106.882 -0.530082 -0.78595 0
M  V30 1143 H 106.588 -1.44811 -3.20504 0
M  V30 1144 H 106.462 0.209729 -3.76616 0
M  V30 1145 H 108.849 0.651568 -2.87817 0
M  V30 1146 H 108.93 -1.03223 -2.34049 0
M  V30 1147 H 108.574 -1.79571 -4.75096 0
M  V30 1148 H 108.504 -0.0914649 -5.26521 0
M  V30 1149 H 110.995 -0.468783 -3.74981 0
M  V30 1150 H 111.308 -1.57597 -7.5656 0
M  V30 1151 H 109.653 -1.4105 -6.80536 0
M  V30 1152 H 112.844 -0.664184 -4.63364 0
M  V30 1153 H 113.017 -1.16884 -6.37371 0
M  V30 1154 N 106.423 1.57458 -0.0668435 0
M  V30 1155 C 107.663 1.95175 0.607116 0
M  V30 1156 C 108.027 0.946039 1.67075 0
M  V30 1157 O 109.228 1.2107 2.39991 0
M  V30 1158 C 107.499 3.37582 1.17358 0
M  V30 1159 S 109.058 3.97271 1.86336 0
M  V30 1160 H 105.876 0.682604 0.19893 0
M  V30 1161 H 108.478 1.95002 -0.139519 0
M  V30 1162 H 107.182 4.08566 0.387553 0
M  V30 1163 H 106.713 3.41288 1.95669 0
M  V30 1164 H 108.728 3.83772 3.14537 0
M  V30 1165 N 107.901 -0.206675 1.56239 0
M  V30 1166 C 108.849 -1.27571 1.94495 0
M  V30 1167 C 109.843 -1.47737 0.828862 0
M  V30 1168 O 111.049 -1.48735 1.0138 0
M  V30 1169 H 107.424 -0.428029 0.6183 0
M  V30 1170 H 109.395 -0.925961 2.8367 0
M  V30 1171 C 108.144 -2.61568 2.29079 0
M  V30 1172 H 107.467 -2.46863 3.14482 0
M  V30 1173 H 108.907 -3.35144 2.5972 0
M  V30 1174 C 107.366 -3.17695 1.12123 0
M  V30 1175 O 107.896 -3.99801 0.390153 0
M  V30 1176 N 106.102 -2.76276 0.901097 0
M  V30 1177 H 105.649 -2.09613 1.49733 0
M  V30 1178 H 105.607 -3.1417 0.120319 0
M  V30 1179 N 109.379 -1.50304 -0.473955 0
M  V30 1180 C 110.627 -1.60832 -1.22382 0
M  V30 1181 C 110.948 -0.30939 -1.9253 0
M  V30 1182 O 110.218 0.67296 -1.83978 0
M  V30 1183 H 108.798 -0.592652 -0.454723 0
M  V30 1184 H 111.46 -1.87068 -0.546968 0
M  V30 1185 H 110.556 -2.41803 -1.97327 0
M  V30 1186 N 110.857 0.726932 -1.39834 0
M  V30 1187 C 112.085 1.51613 -1.40787 0
M  V30 1188 C 112.5 1.88799 -0.00451505 0
M  V30 1189 O 111.857 1.54662 0.968809 0
M  V30 1190 C 111.908 2.79863 -2.28821 0
M  V30 1191 O 111.629 2.44253 -3.63692 0
M  V30 1192 C 113.13 3.73837 -2.38245 0
M  V30 1193 H 110.35 0.468264 -0.480593 0
M  V30 1194 H 112.894 0.897607 -1.83748 0
M  V30 1195 H 111.049 3.38027 -1.89252 0
M  V30 1196 H 111.463 3.26695 -4.1033 0
M  V30 1197 H 112.937 4.60699 -3.04073 0
M  V30 1198 H 113.414 4.16153 -1.40403 0
M  V30 1199 H 114.02 3.21589 -2.78317 0
M  V30 1200 N 112.336 1.25143 0.95797 0
M  V30 1201 C 113.613 1.00472 1.67823 0
M  V30 1202 C 113.993 -0.470056 2.058 0
M  V30 1203 O 113.341 -1.44663 1.76875 0
M  V30 1204 C 113.551 1.9372 2.90299 0
M  V30 1205 C 114.899 2.21371 3.62326 0
M  V30 1206 O 115.923 1.91451 3.00375 0
M  V30 1207 O 114.782 2.72231 4.7387 0
M  V30 1208 H 111.876 0.380752 0.734137 0
M  V30 1209 H 114.422 1.36283 1.01119 0
M  V30 1210 H 113.194 2.93316 2.59001 0
M  V30 1211 H 112.817 1.58286 3.64735 0
M  V30 1212 N 113.814 -1.1601 1.06675 0
M  V30 1213 C 115.063 -1.85973 0.780818 0
M  V30 1214 C 115.376 -1.82819 -0.695444 0
M  V30 1215 O 116.582 -2.484 -1.09589 0
M  V30 1216 C 115.038 -3.33757 1.34665 0
M  V30 1217 C 114.646 -3.45374 2.85343 0
M  V30 1218 C 116.39 -4.0895 1.13843 0
M  V30 1219 C 114.297 -4.87266 3.35151 0
M  V30 1220 H 113.227 -0.696661 0.288407 0
M  V30 1221 H 115.878 -1.30903 1.28595 0
M  V30 1222 H 114.26 -3.88456 0.769274 0
M  V30 1223 H 115.434 -3.00816 3.49065 0
M  V30 1224 H 113.749 -2.83619 3.04876 0
M  V30 1225 H 116.346 -5.13654 1.4854 0
M  V30 1226 H 116.689 -4.16229 0.0770282 0
M  V30 1227 H 117.222 -3.605 1.68179 0
M  V30 1228 H 113.961 -4.85168 4.40786 0
M  V30 1229 H 113.481 -5.32433 2.76179 0
M  V30 1230 H 115.16 -5.56097 3.30704 0
M  V30 1231 N 115.292 -0.849877 -1.32721 0
M  V30 1232 C 116.522 -0.46408 -2.0132 0
M  V30 1233 C 116.93 0.94246 -1.64056 0
M  V30 1234 O 116.273 1.6257 -0.855379 0
M  V30 1235 C 116.335 -0.517887 -3.5575 0
M  V30 1236 C 115.999 -1.88248 -4.16427 0
M  V30 1237 C 116.996 -2.84726 -4.35002 0
M  V30 1238 C 114.681 -2.17832 -4.52609 0
M  V30 1239 C 116.675 -4.08945 -4.8892 0
M  V30 1240 C 114.362 -3.42304 -5.06232 0
M  V30 1241 C 115.36 -4.37677 -5.24335 0
M  V30 1242 O 115.048 -5.59946 -5.76815 0
M  V30 1243 H 114.78 -0.181327 -0.651227 0
M  V30 1244 H 117.334 -1.14713 -1.70382 0
M  V30 1245 H 115.564 0.221997 -3.86062 0
M  V30 1246 H 117.253 -0.148366 -4.05629 0
M  V30 1247 H 118.019 -2.63174 -4.07388 0
M  V30 1248 H 113.898 -1.44385 -4.37806 0
M  V30 1249 H 117.442 -4.83396 -5.02966 0
M  V30 1250 H 113.339 -3.63709 -5.33278 0
M  V30 1251 H 114.107 -5.61838 -5.95214 0
M  V30 1252 N 116.77 1.45427 -0.607355 0
M  V30 1253 C 117.717 2.3053 0.111625 0
M  V30 1254 C 118.687 1.4209 0.860216 0
M  V30 1255 O 119.872 1.71019 0.845998 0
M  V30 1256 C 117.012 3.26992 1.10319 0
M  V30 1257 C 116.125 4.30535 0.355493 0
M  V30 1258 C 115.26 5.14105 1.33676 0
M  V30 1259 C 114.299 6.09376 0.576862 0
M  V30 1260 N 113.436 6.85727 1.5074 0
M  V30 1261 H 118.276 2.91477 -0.620093 0
M  V30 1262 H 115.813 1.43631 -0.317594 0
M  V30 1263 H 117.771 3.81385 1.6912 0
M  V30 1264 H 116.401 2.67799 1.80232 0
M  V30 1265 H 115.453 3.78805 -0.348023 0
M  V30 1266 H 116.765 4.98235 -0.237423 0
M  V30 1267 H 115.919 5.72897 1.99684 0
M  V30 1268 H 114.658 4.46423 1.9636 0
M  V30 1269 H 113.663 5.49715 -0.0968519 0
M  V30 1270 H 114.888 6.79085 -0.0449341 0
M  V30 1271 H 112.834 6.20735 2.12189 0
M  V30 1272 H 112.751 7.49778 0.967913 0
M  V30 1273 H 114.019 7.4906 2.15706 0
M  V30 1274 N 118.248 0.346503 1.53744 0
M  V30 1275 C 119.525 -0.304532 1.93215 0
M  V30 1276 C 119.905 -1.67993 1.27834 0
M  V30 1277 O 119.253 -2.24411 0.430352 0
M  V30 1278 C 119.463 -0.373852 3.46992 0
M  V30 1279 C 120.811 -0.62329 4.2 0
M  V30 1280 O 121.835 -0.455847 3.53271 0
M  V30 1281 O 120.694 -0.947879 5.38217 0
M  V30 1282 H 117.788 -0.178318 0.807547 0
M  V30 1283 H 120.334 0.397895 1.64969 0
M  V30 1284 H 119.106 0.591224 3.86808 0
M  V30 1285 H 118.729 -1.12294 3.81413 0
M  V30 1286 N 119.726 -1.57421 0.075193 0
M  V30 1287 C 120.673 -2.12915 -0.890843 0
M  V30 1288 C 121.643 -1.04252 -1.29309 0
M  V30 1289 O 122.828 -1.31933 -1.37834 0
M  V30 1290 C 119.968 -2.69795 -2.15186 0
M  V30 1291 C 119.081 -3.92624 -1.80194 0
M  V30 1292 C 118.216 -4.37736 -3.00933 0
M  V30 1293 C 117.255 -5.53205 -2.61974 0
M  V30 1294 N 116.392 -5.9326 -3.75483 0
M  V30 1295 H 121.232 -2.95156 -0.410735 0
M  V30 1296 H 118.769 -1.45854 -0.191086 0
M  V30 1297 H 120.727 -3.00883 -2.89008 0
M  V30 1298 H 119.357 -1.90313 -2.60731 0
M  V30 1299 H 118.409 -3.67977 -0.964218 0
M  V30 1300 H 119.721 -4.76482 -1.47534 0
M  V30 1301 H 118.875 -4.70503 -3.8303 0
M  V30 1302 H 117.614 -3.52739 -3.36789 0
M  V30 1303 H 116.619 -5.20086 -1.783 0
M  V30 1304 H 117.844 -6.39936 -2.27284 0
M  V30 1305 H 115.79 -5.11212 -4.11094 0
M  V30 1306 H 115.707 -6.71865 -3.46602 0
M  V30 1307 H 116.975 -6.30651 -4.58148 0
M  V30 1308 N 121.204 0.198386 -1.56346 0
M  V30 1309 C 122.114 1.2664 -1.97483 0
M  V30 1310 C 123.13 1.49989 -0.882002 0
M  V30 1311 O 124.306 1.62668 -1.18748 0
M  V30 1312 C 121.371 2.59141 -2.30319 0
M  V30 1313 C 120.432 2.43892 -3.53292 0
M  V30 1314 C 119.665 3.70074 -3.84553 0
M  V30 1315 O 119.888 4.74101 -3.1715 0
M  V30 1316 O 118.822 3.658 -4.7799 0
M  V30 1317 H 122.648 0.947304 -2.88548 0
M  V30 1318 H 120.233 0.403123 -1.43859 0
M  V30 1319 H 122.115 3.37352 -2.5253 0
M  V30 1320 H 120.79 2.90684 -1.42423 0
M  V30 1321 H 119.697 1.63803 -3.36332 0
M  V30 1322 H 121.03 2.17282 -4.41644 0
M  V30 1323 N 122.682 1.50554 0.465978 0
M  V30 1324 C 123.907 1.65838 1.24549 0
M  V30 1325 C 124.332 0.343486 1.84937 0
M  V30 1326 O 123.69 -0.69324 1.67523 0
M  V30 1327 C 123.738 2.75533 2.32624 0
M  V30 1328 O 122.842 2.37142 3.37398 0
M  V30 1329 H 122.183 0.553893 0.366194 0
M  V30 1330 H 124.713 1.96959 0.553927 0
M  V30 1331 H 124.723 2.98763 2.77857 0
M  V30 1332 H 123.398 3.70962 1.88043 0
M  V30 1333 H 121.975 2.24377 2.97841 0
M  V30 1334 N 124.16 -0.719506 1.40217 0
M  V30 1335 C 125.388 -1.50864 1.41589 0
M  V30 1336 C 125.803 -1.88794 0.0145275 0
M  V30 1337 O 125.16 -1.55174 -0.960594 0
M  V30 1338 C 125.211 -2.78646 2.30302 0
M  V30 1339 O 124.932 -2.42321 3.64983 0
M  V30 1340 C 126.433 -3.72569 2.40224 0
M  V30 1341 H 123.653 -0.465709 0.48307 0
M  V30 1342 H 126.197 -0.88785 1.84221 0
M  V30 1343 H 124.352 -3.37019 1.91042 0
M  V30 1344 H 124.766 -3.24514 4.12057 0
M  V30 1345 H 126.24 -4.5908 3.06512 0
M  V30 1346 H 126.717 -4.15403 1.42608 0
M  V30 1347 H 127.323 -3.20109 2.80019 0
M  V30 1348 N 125.638 -1.25649 -0.95132 0
M  V30 1349 C 126.884 -1.10757 -1.69884 0
M  V30 1350 C 127.217 0.350061 -1.91019 0
M  V30 1351 O 126.492 1.25783 -1.48354 0
M  V30 1352 C 126.775 -1.86606 -3.07978 0
M  V30 1353 C 126.628 -3.40217 -2.94232 0
M  V30 1354 C 127.947 -1.65182 -4.07925 0
M  V30 1355 H 125.066 -0.40374 -0.616574 0
M  V30 1356 H 127.708 -1.54521 -1.10558 0
M  V30 1357 H 125.858 -1.49409 -3.58621 0
M  V30 1358 H 127.53 -3.87108 -2.50889 0
M  V30 1359 H 125.773 -3.67759 -2.30078 0
M  V30 1360 H 126.444 -3.88505 -3.92133 0
M  V30 1361 H 128.92 -1.9757 -3.66204 0
M  V30 1362 H 127.796 -2.20683 -5.02583 0
M  V30 1363 H 128.057 -0.593933 -4.38092 0
M  V30 1364 N 127.117 1.15442 -1.07289 0
M  V30 1365 C 128.049 2.19773 -0.650585 0
M  V30 1366 C 129.062 1.60076 0.296572 0
M  V30 1367 O 130.251 1.78293 0.0859905 0
M  V30 1368 C 127.351 3.38838 0.0650398 0
M  V30 1369 C 126.524 4.2808 -0.898141 0
M  V30 1370 C 125.583 5.2574 -0.219926 0
M  V30 1371 O 124.609 5.62654 -0.860773 0
M  V30 1372 N 125.811 5.71205 1.03466 0
M  V30 1373 H 128.576 2.56622 -1.54808 0
M  V30 1374 H 126.137 1.30551 -0.957494 0
M  V30 1375 H 128.129 4.01222 0.529415 0
M  V30 1376 H 126.699 3.00409 0.864466 0
M  V30 1377 H 125.919 3.62804 -1.54165 0
M  V30 1378 H 127.207 4.84577 -1.5512 0
M  V30 1379 H 126.605 5.43325 1.57526 0
M  V30 1380 H 125.162 6.35633 1.44272 0
M  V30 1381 N 128.595 0.856903 1.32268 0
M  V30 1382 C 129.841 0.462069 1.97466 0
M  V30 1383 C 130.174 -0.980298 1.67642 0
M  V30 1384 O 129.449 -1.68824 0.965858 0
M  V30 1385 C 129.732 0.704336 3.53145 0
M  V30 1386 C 129.585 2.19529 3.9259 0
M  V30 1387 C 130.904 0.1622 4.39801 0
M  V30 1388 H 128.023 0.169357 0.717278 0
M  V30 1389 H 130.665 1.07574 1.56614 0
M  V30 1390 H 128.815 0.181999 3.88073 0
M  V30 1391 H 130.487 2.78387 3.67829 0
M  V30 1392 H 128.73 2.67292 3.41668 0
M  V30 1393 H 129.401 2.31549 5.01088 0
M  V30 1394 H 131.877 0.608905 4.11621 0
M  V30 1395 H 130.753 0.361265 5.4771 0
M  V30 1396 H 131.014 -0.935158 4.32096 0
M  V30 1397 N 130.073 -1.45103 0.615059 0
M  V30 1398 C 131.023 -2.27679 -0.120966 0
M  V30 1399 C 132.007 -1.3775 -0.831491 0
M  V30 1400 O 133.199 -1.61683 -0.720249 0
M  V30 1401 C 130.328 -3.24767 -1.1127 0
M  V30 1402 C 129.414 -4.22184 -0.402627 0
M  V30 1403 N 129.805 -5.02692 0.559884 0
M  V30 1404 C 128.103 -4.4125 -0.649202 0
M  V30 1405 C 128.804 -5.73421 0.977942 0
M  V30 1406 N 127.78 -5.42657 0.320104 0
M  V30 1407 H 131.582 -2.87325 0.618181 0
M  V30 1408 H 129.096 -1.56345 0.439304 0
M  V30 1409 H 131.093 -3.82666 -1.65446 0
M  V30 1410 H 129.753 -2.66682 -1.85232 0
M  V30 1411 H 130.764 -5.09354 0.936976 0
M  V30 1412 H 127.441 -3.9428 -1.37293 0
M  V30 1413 H 128.831 -6.48107 1.77222 0
M  V30 1414 N 131.551 -0.354651 -1.53558 0
M  V30 1415 C 132.781 0.239167 -2.05211 0
M  V30 1416 C 133.189 1.43879 -1.22863 0
M  V30 1417 O 132.532 1.81857 -0.259565 0
M  V30 1418 C 132.594 0.707251 -3.52474 0
M  V30 1419 C 132.258 -0.374212 -4.55465 0
M  V30 1420 C 133.255 -1.22054 -5.0537 0
M  V30 1421 C 130.94 -0.531323 -4.99482 0
M  V30 1422 C 132.934 -2.20942 -5.97882 0
M  V30 1423 C 130.621 -1.52358 -5.91802 0
M  V30 1424 C 131.619 -2.36108 -6.40892 0
M  V30 1425 O 131.307 -3.33643 -7.31394 0
M  V30 1426 H 131.039 0.0479716 -0.674296 0
M  V30 1427 H 133.593 -0.508121 -1.99016 0
M  V30 1428 H 131.823 1.50596 -3.56171 0
M  V30 1429 H 133.512 1.22285 -3.87042 0
M  V30 1430 H 134.278 -1.1103 -4.7212 0
M  V30 1431 H 130.157 0.110738 -4.60867 0
M  V30 1432 H 133.701 -2.86348 -6.36121 0
M  V30 1433 H 129.598 -1.63434 -6.24467 0
M  V30 1434 H 130.366 -3.29244 -7.4936 0
M  V30 1435 N 133.029 1.57378 -0.0835403 0
M  V30 1436 C 134.445 1.57246 0.273109 0
M  V30 1437 C 134.645 1.09385 1.69225 0
M  V30 1438 O 133.701 0.765051 2.40631 0
M  V30 1439 C 135.014 3.00614 0.0720628 0
M  V30 1440 C 136.562 3.12684 0.1407 0
M  V30 1441 C 137.037 4.57989 -0.0322094 0
M  V30 1442 N 138.528 4.63194 0.0230085 0
M  V30 1443 C 139.263 5.73335 -0.0861941 0
M  V30 1444 N 138.759 6.9235 -0.24958 0
M  V30 1445 N 140.552 5.62093 -0.0282886 0
M  V30 1446 H 132.703 1.86801 -1.0109 0
M  V30 1447 H 134.966 0.861687 -0.395222 0
M  V30 1448 H 134.672 3.39786 -0.907662 0
M  V30 1449 H 134.546 3.68193 0.81936 0
M  V30 1450 H 136.933 2.73391 1.11092 0
M  V30 1451 H 137.014 2.47719 -0.637896 0
M  V30 1452 H 136.658 4.97973 -0.999247 0
M  V30 1453 H 136.588 5.21 0.765937 0
M  V30 1454 H 139.079 3.77613 0.14722 0
M  V30 1455 H 139.392 7.72117 -0.324733 0
M  V30 1456 H 137.737 6.94415 -0.285097 0
M  V30 1457 H 140.928 4.67997 0.0981408 0
M  V30 1458 H 141.101 6.47895 -0.116845 0
M  V30 1459 N 134.507 -0.190092 1.56449 0
M  V30 1460 C 135.44 -1.26375 1.90012 0
M  V30 1461 C 136.418 -1.43705 0.760765 0
M  V30 1462 O 137.602 -1.59014 1.01226 0
M  V30 1463 C 134.729 -2.62962 2.13468 0
M  V30 1464 C 133.775 -2.62474 3.36169 0
M  V30 1465 S 134.608 -2.13412 4.91137 0
M  V30 1466 C 135.764 -3.51812 5.17667 0
M  V30 1467 H 135.997 -0.977181 2.80782 0
M  V30 1468 H 133.53 -0.393814 1.49293 0
M  V30 1469 H 135.488 -3.41583 2.27664 0
M  V30 1470 H 134.149 -2.88828 1.23439 0
M  V30 1471 H 133.342 -3.62918 3.49723 0
M  V30 1472 H 132.944 -1.91937 3.20992 0
M  V30 1473 H 135.236 -4.47706 5.08494 0
M  V30 1474 H 136.179 -3.43148 6.19399 0
M  V30 1475 H 136.587 -3.46956 4.45288 0
M  V30 1476 N 135.985 -1.50799 -0.457987 0
M  V30 1477 C 137.225 -1.64088 -1.21879 0
M  V30 1478 C 137.589 -0.339848 -1.88968 0
M  V30 1479 O 138.79 -0.348301 -2.66534 0
M  V30 1480 C 137.061 -2.79726 -2.2246 0
M  V30 1481 S 138.62 -3.13225 -3.07303 0
M  V30 1482 H 135.438 -0.578314 -0.41361 0
M  V30 1483 H 138.04 -1.88632 -0.513645 0
M  V30 1484 H 136.744 -3.72722 -1.71775 0
M  V30 1485 H 136.275 -2.57308 -2.97584 0
M  V30 1486 H 138.29 -2.58062 -4.23814 0
M  V30 1487 N 137.463 0.71206 -1.40597 0
M  V30 1488 C 138.395 1.83704 -1.37061 0
M  V30 1489 C 139.408 1.60453 -0.275426 0
M  V30 1490 O 140.597 1.70262 -0.53602 0
M  V30 1491 C 137.697 3.20172 -1.11099 0
M  V30 1492 C 136.87 3.7059 -2.3234 0
M  V30 1493 C 135.929 4.85681 -2.02485 0
M  V30 1494 O 134.955 4.9815 -2.75382 0
M  V30 1495 N 136.157 5.71735 -1.00497 0
M  V30 1496 H 138.922 1.87235 -2.34016 0
M  V30 1497 H 136.483 0.893739 -1.34996 0
M  V30 1498 H 138.475 3.94768 -0.891064 0
M  V30 1499 H 137.045 3.11767 -0.227989 0
M  V30 1500 H 136.265 2.87085 -2.7014 0
M  V30 1501 H 137.553 4.01011 -3.13157 0
M  V30 1502 H 136.951 5.64275 -0.401298 0
M  V30 1503 H 135.508 6.463 -0.844942 0
M  V30 1504 N 138.941 1.26152 0.944643 0
M  V30 1505 C 140.166 1.14363 1.7302 0
M  V30 1506 C 140.591 -0.29772 1.85729 0
M  V30 1507 O 139.949 -1.2157 1.34501 0
M  V30 1508 C 139.997 1.81378 3.11664 0
M  V30 1509 O 139.101 1.10022 3.97453 0
M  V30 1510 H 138.442 0.398694 0.53098 0
M  V30 1511 H 140.972 1.66906 1.18337 0
M  V30 1512 H 140.982 1.88064 3.62072 0
M  V30 1513 H 139.657 2.86237 3.0173 0
M  V30 1514 H 138.234 1.11287 3.55907 0
M  V30 1515 N 140.419 -1.14872 1.07899 0
M  V30 1516 C 141.659 -1.8745 0.814965 0
M  V30 1517 C 142.023 -1.80758 -0.64733 0
M  V30 1518 O 143.224 -2.48422 -1.02664 0
M  V30 1519 C 141.495 -3.32286 1.31607 0
M  V30 1520 S 143.054 -4.22537 1.18357 0
M  V30 1521 H 139.872 -0.646833 0.295174 0
M  V30 1522 H 142.474 -1.38555 1.37923 0
M  V30 1523 H 141.178 -3.34703 2.37491 0
M  V30 1524 H 140.709 -3.86238 0.747261 0
M  V30 1525 H 142.724 -4.96044 0.124586 0
M  V30 1526 N 141.898 -0.863906 -1.31812 0
M  V30 1527 C 143.144 -0.472535 -1.97218 0
M  V30 1528 C 143.477 0.971394 -1.68159 0
M  V30 1529 O 142.752 1.68309 -0.974798 0
M  V30 1530 C 143.035 -0.723054 -3.52766 0
M  V30 1531 C 142.888 -2.21608 -3.91421 0
M  V30 1532 C 144.207 -0.185522 -4.39709 0
M  V30 1533 H 141.326 -0.173158 -0.71637 0
M  V30 1534 H 143.968 -1.08403 -1.56041 0
M  V30 1535 H 142.118 -0.202577 -3.87971 0
M  V30 1536 H 143.79 -2.80334 -3.66347 0
M  V30 1537 H 142.033 -2.691 -3.40246 0
M  V30 1538 H 142.704 -2.34203 -4.99853 0
M  V30 1539 H 145.18 -0.630726 -4.11292 0
M  V30 1540 H 144.056 -0.390306 -5.47511 0
M  V30 1541 H 144.317 0.912229 -4.32586 0
M  V30 1542 N 143.376 1.44774 -0.622745 0
M  V30 1543 C 144.286 2.34433 0.0886031 0
M  V30 1544 C 145.302 1.52131 0.844529 0
M  V30 1545 O 146.478 1.84886 0.798691 0
M  V30 1546 C 143.543 3.29986 1.0635 0
M  V30 1547 C 142.604 4.28195 0.307873 0
M  V30 1548 C 141.837 5.19183 1.23633 0
M  V30 1549 O 142.06 5.13918 2.47476 0
M  V30 1550 O 140.994 5.97515 0.725189 0
M  V30 1551 H 144.82 2.96693 -0.648599 0
M  V30 1552 H 142.405 1.44408 -0.382957 0
M  V30 1553 H 144.287 3.88825 1.6246 0
M  V30 1554 H 142.962 2.70269 1.78146 0
M  V30 1555 H 141.869 3.72927 -0.296064 0
M  V30 1556 H 143.202 4.90808 -0.3699 0
M  V30 1557 N 144.854 0.36279 1.53368 0
M  V30 1558 C 145.784 -0.476976 2.28576 0
M  V30 1559 C 146.765 -1.08631 1.30894 0
M  V30 1560 O 147.95 -1.10409 1.59761 0
M  V30 1561 C 145.08 -1.61828 3.07293 0
M  V30 1562 C 144.034 -1.13633 4.1264 0
M  V30 1563 C 143.36 -2.36766 4.79423 0
M  V30 1564 C 144.66 -0.223061 5.21823 0
M  V30 1565 H 146.354 0.150474 2.99022 0
M  V30 1566 H 143.9 0.0738103 1.43811 0
M  V30 1567 H 145.853 -2.21237 3.58653 0
M  V30 1568 H 144.577 -2.27292 2.34533 0
M  V30 1569 H 143.236 -0.564945 3.62221 0
M  V30 1570 H 142.884 -3.0068 4.03238 0
M  V30 1571 H 142.584 -2.05192 5.50609 0
M  V30 1572 H 144.108 -2.96865 5.33576 0
M  V30 1573 H 145.522 -0.724545 5.68703 0
M  V30 1574 H 143.919 0.001678 6.001 0
M  V30 1575 H 144.989 0.735553 4.79289 0
M  V30 1576 N 146.332 -1.57332 0.0918853 0
M  V30 1577 C 147.609 -1.85691 -0.614668 0
M  V30 1578 C 147.989 -0.988146 -1.86545 0
M  V30 1579 O 147.337 -0.0597055 -2.28422 0
M  V30 1580 C 147.547 -3.36294 -0.933126 0
M  V30 1581 C 148.895 -4.04275 -1.29796 0
M  V30 1582 O 149.919 -3.41157 -1.02424 0
M  V30 1583 O 148.778 -5.1564 -1.81047 0
M  V30 1584 H 145.872 -0.767802 -0.307261 0
M  V30 1585 H 148.418 -1.69244 0.12434 0
M  V30 1586 H 147.19 -3.91273 -0.0456404 0
M  V30 1587 H 146.813 -3.58076 -1.72822 0
M  V30 1588 N 147.81 0.181792 -1.56548 0
M  V30 1589 C 149.221 0.745244 -1.71181 0
M  V30 1590 C 149.572 1.83262 -0.70068 0
M  V30 1591 O 148.697 2.15946 0.140154 0
M  V30 1592 C 149.292 1.35859 -3.10367 0
M  V30 1593 C 147.851 1.86898 -3.2672 0
M  V30 1594 C 146.998 0.743942 -2.67134 0
M  V30 1595 H 149.949 -0.0434661 -1.5864 0
M  V30 1596 H 149.97 2.22817 -3.08436 0
M  V30 1597 H 149.482 0.566948 -3.83937 0
M  V30 1598 H 147.583 2.68738 -2.5809 0
M  V30 1599 H 147.696 2.02162 -4.34359 0
M  V30 1600 H 146.06 1.16169 -2.26665 0
M  V30 1601 H 146.843 -0.035676 -3.43281 0
M  V30 1602 N 149.288 1.51039 0.449983 0
M  V30 1603 C 150.251 1.70863 1.5277 0
M  V30 1604 C 151.251 0.578846 1.5002 0
M  V30 1605 O 152.441 0.846213 1.52266 0
M  V30 1606 C 149.573 1.75341 2.9235 0
M  V30 1607 H 150.766 2.67034 1.36502 0
M  V30 1608 H 148.319 1.40838 0.677812 0
M  V30 1609 H 149.054 0.809383 3.14037 0
M  V30 1610 H 148.839 2.57436 2.95752 0
M  V30 1611 H 150.329 1.92559 3.70555 0
M  V30 1612 N 150.766 -0.704594 1.40972 0
M  V30 1613 C 151.994 -1.49354 1.43182 0
M  V30 1614 C 152.409 -1.88768 0.0345508 0
M  V30 1615 O 151.766 -1.56184 -0.944081 0
M  V30 1616 C 151.817 -2.76187 2.33244 0
M  V30 1617 O 151.538 -2.38436 3.67532 0
M  V30 1618 C 153.039 -3.7 2.44162 0
M  V30 1619 H 150.259 -0.460559 0.487982 0
M  V30 1620 H 152.803 -0.868261 1.85153 0
M  V30 1621 H 150.958 -3.34974 1.94606 0
M  V30 1622 H 151.372 -3.20126 4.15475 0
M  V30 1623 H 152.846 -4.55803 3.11364 0
M  V30 1624 H 153.323 -4.13867 1.47006 0
M  V30 1625 H 153.929 -3.17121 2.83398 0
M  V30 1626 N 152.244 -1.26651 -0.937939 0
M  V30 1627 C 153.49 -1.12553 -1.687 0
M  V30 1628 C 153.823 0.329782 -1.91379 0
M  V30 1629 O 153.098 1.24202 -1.4968 0
M  V30 1630 C 153.381 -1.89862 -3.05981 0
M  V30 1631 C 153.234 -3.43318 -2.90607 0
M  V30 1632 C 154.553 -1.69499 -4.0615 0
M  V30 1633 H 151.672 -0.410257 -0.612257 0
M  V30 1634 H 154.314 -1.55685 -1.08913 0
M  V30 1635 H 152.464 -1.53204 -3.57017 0
M  V30 1636 H 154.136 -3.89747 -2.46769 0
M  V30 1637 H 152.379 -3.70179 -2.26164 0
M  V30 1638 H 153.05 -3.92642 -3.8799 0
M  V30 1639 H 155.526 -2.01442 -3.64088 0
M  V30 1640 H 154.402 -2.26002 -5.00214 0
M  V30 1641 H 154.663 -0.640365 -4.37438 0
M  V30 1642 N 153.722 1.14298 -1.08507 0
M  V30 1643 C 154.685 2.17607 -0.719711 0
M  V30 1644 C 155.685 1.58907 0.245997 0
M  V30 1645 O 156.875 1.74181 0.0254081 0
M  V30 1646 C 154.007 3.40842 -0.0627695 0
M  V30 1647 H 155.2 2.51443 -1.63452 0
M  V30 1648 H 152.753 1.28963 -0.88307 0
M  V30 1649 H 153.488 3.12587 0.863716 0
M  V30 1650 H 153.273 3.84713 -0.757504 0
M  V30 1651 H 154.763 4.17221 0.177786 0
M  V30 1652 N 155.201 0.870884 1.31352 0
M  V30 1653 C 156.449 0.48132 1.96285 0
M  V30 1654 C 156.77 -0.969813 1.69173 0
M  V30 1655 O 156.04 -1.67998 1.00764 0
M  V30 1656 H 154.62 0.175002 0.726212 0
M  V30 1657 H 157.282 1.11087 1.60143 0
M  V30 1658 H 156.378 0.639825 3.05471 0
M  V30 1659 N 156.679 -1.44442 0.630414 0
M  V30 1660 C 157.928 -2.01267 0.132073 0
M  V30 1661 C 158.241 -1.50172 -1.25331 0
M  V30 1662 O 159.447 -1.9912 -1.84562 0
M  V30 1663 C 157.903 -3.59422 0.185362 0
M  V30 1664 C 157.511 -4.19514 1.57201 0
M  V30 1665 C 159.255 -4.23724 -0.256553 0
M  V30 1666 C 157.162 -5.69891 1.58045 0
M  V30 1667 H 156.092 -0.752619 0.0456092 0
M  V30 1668 H 158.743 -1.65666 0.789106 0
M  V30 1669 H 157.125 -3.92318 -0.538759 0
M  V30 1670 H 158.299 -3.98156 2.31966 0
M  V30 1671 H 156.614 -3.67496 1.95795 0
M  V30 1672 H 159.211 -5.34019 -0.269767 0
M  V30 1673 H 159.554 -3.96013 -1.28372 0
M  V30 1674 H 160.087 -3.95629 0.41505 0
M  V30 1675 H 156.826 -6.02336 2.58597 0
M  V30 1676 H 156.346 -5.93373 0.875725 0
M  V30 1677 H 158.025 -6.33515 1.31408 0
M  V30 1678 N 158.157 -0.370918 -1.53173 0
M  V30 1679 C 159.406 0.218249 -2.00516 0
M  V30 1680 C 159.719 1.49429 -1.26215 0
M  V30 1681 O 160.925 2.16239 -1.64174 0
M  V30 1682 C 159.381 0.43948 -3.57207 0
M  V30 1683 C 158.989 -0.822244 -4.4039 0
M  V30 1684 C 160.733 0.986012 -4.1289 0
M  V30 1685 C 158.64 -0.570304 -5.88644 0
M  V30 1686 H 157.57 0.0853333 -0.749156 0
M  V30 1687 H 160.221 -0.490483 -1.76823 0
M  V30 1688 H 158.603 1.20961 -3.77074 0
M  V30 1689 H 159.777 -1.59557 -4.32294 0
M  V30 1690 H 158.092 -1.29238 -3.95836 0
M  V30 1691 H 160.689 1.18991 -5.21292 0
M  V30 1692 H 161.032 1.94972 -3.6782 0
M  V30 1693 H 161.565 0.27592 -3.96842 0
M  V30 1694 H 158.304 -1.50449 -6.38001 0
M  V30 1695 H 157.824 0.164427 -5.99575 0
M  V30 1696 H 159.503 -0.19784 -6.46697 0
M  V30 1697 N 159.635 1.57281 -0.100228 0
M  V30 1698 C 160.881 1.94826 0.563101 0
M  V30 1699 C 161.214 0.982475 1.67514 0
M  V30 1700 O 160.489 0.0164069 1.94493 0
M  V30 1701 C 160.772 3.42453 1.11346 0
M  V30 1702 C 160.625 4.498 0.00612081 0
M  V30 1703 C 161.944 3.91506 2.01024 0
M  V30 1704 H 159.063 0.708428 0.203221 0
M  V30 1705 H 161.705 1.8922 -0.171979 0
M  V30 1706 H 159.855 3.47361 1.7399 0
M  V30 1707 H 161.527 4.57 -0.628357 0
M  V30 1708 H 159.77 4.28756 -0.659581 0
M  V30 1709 H 160.441 5.50306 0.432109 0
M  V30 1710 H 162.917 3.88784 1.48278 0
M  V30 1711 H 161.793 4.95358 2.36457 0
M  V30 1712 H 162.054 3.31099 2.92961 0
M  V30 1713 N 161.113 -0.173488 1.56642 0
M  V30 1714 C 162.341 -0.906095 1.86004 0
M  V30 1715 C 162.756 -1.75921 0.685355 0
M  V30 1716 O 162.113 -1.79198 -0.345578 0
M  V30 1717 C 162.164 -1.78462 3.14378 0
M  V30 1718 O 161.885 -0.965914 4.27319 0
M  V30 1719 C 163.386 -2.62707 3.57071 0
M  V30 1720 H 160.606 -0.263341 0.617165 0
M  V30 1721 H 163.15 -0.174236 2.03756 0
M  V30 1722 H 161.305 -2.46984 2.98459 0
M  V30 1723 H 161.719 -1.56655 5.00559 0
M  V30 1724 H 163.193 -3.19969 4.49804 0
M  V30 1725 H 163.67 -3.37472 2.81086 0
M  V30 1726 H 164.276 -1.99521 3.75595 0
M  V30 1727 N 162.591 -1.51276 -0.441967 0
M  V30 1728 C 163.868 -1.54252 -1.20273 0
M  V30 1729 C 164.248 -0.30408 -2.08898 0
M  V30 1730 O 163.596 0.711084 -2.17154 0
M  V30 1731 C 163.806 -2.85406 -2.00859 0
M  V30 1732 C 165.154 -3.37181 -2.58059 0
M  V30 1733 O 166.178 -2.86925 -2.11074 0
M  V30 1734 O 165.037 -4.24858 -3.43741 0
M  V30 1735 H 162.131 -0.619969 -0.547328 0
M  V30 1736 H 164.677 -1.63586 -0.451413 0
M  V30 1737 H 163.449 -3.67003 -1.35736 0
M  V30 1738 H 163.072 -2.79213 -2.83065 0
M  V30 1739 N 164.069 0.697108 -1.41344 0
M  V30 1740 C 165.315 1.4593 -1.40827 0
M  V30 1741 C 165.648 1.94193 -0.0167098 0
M  V30 1742 O 164.923 1.69425 0.955263 0
M  V30 1743 C 165.206 2.67229 -2.41373 0
M  V30 1744 C 165.059 2.24741 -3.8963 0
M  V30 1745 C 166.378 3.69423 -2.39196 0
M  V30 1746 H 163.497 0.529303 -0.512842 0
M  V30 1747 H 166.139 0.794112 -1.72609 0
M  V30 1748 H 164.289 3.23982 -2.14401 0
M  V30 1749 H 165.961 1.73327 -4.27499 0
M  V30 1750 H 164.204 1.56542 -4.0457 0
M  V30 1751 H 164.875 3.1177 -4.55525 0
M  V30 1752 H 167.351 3.2234 -2.63128 0
M  V30 1753 H 166.227 4.51907 -3.11563 0
M  V30 1754 H 166.488 4.19012 -1.41001 0
M  V30 1755 N 165.547 1.27147 0.931209 0
M  V30 1756 C 166.796 1.12664 1.67302 0
M  V30 1757 C 167.109 -0.327718 1.92835 0
M  V30 1758 O 168.315 -0.593392 2.64936 0
M  V30 1759 C 166.771 1.9683 3.01307 0
M  V30 1760 C 166.379 3.46901 2.83485 0
M  V30 1761 C 168.123 1.90985 3.79111 0
M  V30 1762 C 166.03 4.23279 4.13024 0
M  V30 1763 H 164.96 0.41803 0.627509 0
M  V30 1764 H 167.611 1.51539 1.03481 0
M  V30 1765 H 165.993 1.50797 3.66164 0
M  V30 1766 H 167.167 4.00773 2.27415 0
M  V30 1767 H 165.482 3.54088 2.19113 0
M  V30 1768 H 168.079 2.45328 4.75098 0
M  V30 1769 H 168.422 0.882718 4.06834 0
M  V30 1770 H 168.955 2.34895 3.21044 0
M  V30 1771 H 165.694 5.26503 3.90481 0
M  V30 1772 H 165.214 3.74186 4.6877 0
M  V30 1773 H 166.893 4.32265 4.81411 0
M  V30 1774 N 167.025 -1.13721 1.09112 0
M  V30 1775 C 167.988 -2.17222 0.731241 0
M  V30 1776 C 168.988 -1.59035 -0.237566 0
M  V30 1777 O 170.178 -1.74192 -0.0161704 0
M  V30 1778 C 167.31 -3.40804 0.0808443 0
M  V30 1779 H 168.503 -2.50573 1.64783 0
M  V30 1780 H 166.056 -1.28493 0.889897 0
M  V30 1781 H 166.791 -3.1304 -0.847127 0
M  V30 1782 H 166.576 -3.84306 0.777896 0
M  V30 1783 H 168.066 -4.1731 -0.155657 0
M  V30 1784 N 168.503 -0.877838 -1.30888 0
M  V30 1785 C 169.731 -0.507414 -2.00581 0
M  V30 1786 C 170.146 0.902216 -1.65848 0
M  V30 1787 O 169.503 1.59225 -0.891831 0
M  V30 1788 C 169.554 -0.664162 -3.55347 0
M  V30 1789 O 169.275 -2.01829 -3.8884 0
M  V30 1790 C 170.776 -0.295787 -4.42312 0
M  V30 1791 H 167.996 -0.196866 -0.641471 0
M  V30 1792 H 170.54 -1.18117 -1.66939 0
M  V30 1793 H 168.695 -0.0378619 -3.87381 0
M  V30 1794 H 169.109 -2.03174 -4.8355 0
M  V30 1795 H 170.583 -0.456388 -5.5011 0
M  V30 1796 H 171.06 0.765663 -4.32475 0
M  V30 1797 H 171.666 -0.898113 -4.15709 0
M  V30 1798 N 169.982 1.44106 -0.638065 0
M  V30 1799 C 170.912 2.33448 0.0494287 0
M  V30 1800 C 171.893 1.48606 0.827672 0
M  V30 1801 O 173.078 1.77308 0.792173 0
M  V30 1802 C 170.208 3.31771 1.02691 0
M  V30 1803 C 169.162 4.26485 0.359823 0
M  V30 1804 C 168.488 5.14729 1.44769 0
M  V30 1805 C 169.788 5.17056 -0.738296 0
M  V30 1806 H 171.482 2.91183 -0.696636 0
M  V30 1807 H 169.028 1.40014 -0.336456 0
M  V30 1808 H 170.981 3.93161 1.51666 0
M  V30 1809 H 169.705 2.7226 1.80395 0
M  V30 1810 H 168.364 3.66437 -0.10934 0
M  V30 1811 H 168.012 4.51566 2.21578 0
M  V30 1812 H 167.712 5.78913 1.00668 0
M  V30 1813 H 169.236 5.78991 1.93911 0
M  V30 1814 H 170.65 5.72342 -0.331354 0
M  V30 1815 H 169.047 5.89879 -1.10286 0
M  V30 1816 H 170.117 4.57652 -1.60258 0
M  V30 1817 N 171.46 0.379036 1.52974 0
M  V30 1818 C 172.39 -0.452706 2.29069 0
M  V30 1819 C 173.371 -1.07237 1.32039 0
M  V30 1820 O 174.556 -1.08708 1.60923 0
M  V30 1821 C 171.686 -1.5856 3.08992 0
M  V30 1822 C 170.64 -1.0925 4.13822 0
M  V30 1823 C 169.966 -2.31668 4.81907 0
M  V30 1824 C 171.266 -0.167702 5.22031 0
M  V30 1825 H 172.96 0.182181 2.98845 0
M  V30 1826 H 170.506 0.0890592 1.43724 0
M  V30 1827 H 172.459 -2.1742 3.6098 0
M  V30 1828 H 171.183 -2.24792 2.36931 0
M  V30 1829 H 169.842 -0.526494 3.628 0
M  V30 1830 H 169.49 -2.96386 4.06404 0
M  V30 1831 H 169.19 -1.9934 5.52754 0
M  V30 1832 H 170.714 -2.91189 5.36695 0
M  V30 1833 H 172.128 -0.664186 5.6944 0
M  V30 1834 H 170.525 0.0653265 6.00064 0
M  V30 1835 H 171.595 0.786347 4.78482 0
M  V30 1836 N 172.938 -1.57226 0.108567 0
M  V30 1837 C 173.868 -2.17778 -0.84232 0
M  V30 1838 C 174.849 -1.11487 -1.2847 0
M  V30 1839 O 176.034 -1.39681 -1.34918 0
M  V30 1840 C 173.164 -2.76888 -2.09644 0
M  V30 1841 C 172.118 -3.88669 -1.79221 0
M  V30 1842 C 171.444 -4.34541 -3.11574 0
M  V30 1843 C 172.744 -5.11251 -1.06864 0
M  V30 1844 H 174.438 -2.97489 -0.337774 0
M  V30 1845 H 171.984 -1.43097 -0.161025 0
M  V30 1846 H 173.937 -3.17904 -2.76614 0
M  V30 1847 H 172.661 -1.94451 -2.62405 0
M  V30 1848 H 171.32 -3.48213 -1.14644 0
M  V30 1849 H 170.968 -3.48977 -3.62249 0
M  V30 1850 H 170.668 -5.09914 -2.91996 0
M  V30 1851 H 172.192 -4.782 -3.7968 0
M  V30 1852 H 173.606 -5.49352 -1.63968 0
M  V30 1853 H 172.003 -5.9214 -0.974178 0
M  V30 1854 H 173.073 -4.8487 -0.0536168 0
M  V30 1855 N 174.416 0.165178 -1.56732 0
M  V30 1856 C 175.379 1.18822 -1.95995 0
M  V30 1857 C 176.379 1.3685 -0.84431 0
M  V30 1858 O 177.569 1.34152 -1.11126 0
M  V30 1859 C 174.701 2.5521 -2.26011 0
M  V30 1860 H 175.894 0.851825 -2.87548 0
M  V30 1861 H 173.447 0.407857 -1.50885 0
M  V30 1862 H 174.182 2.93852 -1.37191 0
M  V30 1863 H 173.967 2.43489 -3.07336 0
M  V30 1864 H 175.457 3.28927 -2.57288 0
M  V30 1865 N 175.894 1.51508 0.433938 0
M  V30 1866 C 176.824 1.76016 1.53429 0
M  V30 1867 C 177.805 0.610112 1.58782 0
M  V30 1868 O 178.99 0.853177 1.74455 0
M  V30 1869 C 176.12 1.88831 2.9148 0
M  V30 1870 C 175.074 3.04288 3.00987 0
M  V30 1871 C 174.4 3.0229 4.4105 0
M  V30 1872 C 175.7 4.44193 2.74754 0
M  V30 1873 H 177.394 2.68152 1.33171 0
M  V30 1874 H 174.94 1.29035 0.639214 0
M  V30 1875 H 176.893 2.04559 3.6842 0
M  V30 1876 H 175.617 0.933455 3.12976 0
M  V30 1877 H 174.276 2.8827 2.26486 0
M  V30 1878 H 173.924 2.04576 4.59519 0
M  V30 1879 H 173.624 3.79822 4.4834 0
M  V30 1880 H 175.148 3.20116 5.1996 0
M  V30 1881 H 176.562 4.60544 3.41426 0
M  V30 1882 H 174.959 5.23457 2.9345 0
M  V30 1883 H 176.029 4.53996 1.70339 0
M  V30 1884 N 177.372 -0.689602 1.41712 0
M  V30 1885 C 178.62 -1.4468 1.4111 0
M  V30 1886 C 178.941 -1.94986 0.0232196 0
M  V30 1887 O 178.211 -1.72097 -0.935913 0
M  V30 1888 H 176.791 -0.536847 0.519427 0
M  V30 1889 H 179.453 -0.815825 1.77004 0
M  V30 1890 H 178.549 -2.30706 2.10193 0
M  V30 1891 N 178.85 -1.27639 -0.924453 0
M  V30 1892 C 180.096 -1.14336 -1.67497 0
M  V30 1893 C 180.429 0.309465 -1.91718 0
M  V30 1894 O 179.704 1.22608 -1.50989 0
M  V30 1895 C 179.987 -1.93096 -3.0395 0
M  V30 1896 C 179.84 -3.46381 -2.8695 0
M  V30 1897 C 181.159 -1.73798 -4.0433 0
M  V30 1898 H 178.278 -0.416728 -0.607871 0
M  V30 1899 H 180.92 -1.56832 -1.07256 0
M  V30 1900 H 179.07 -1.56982 -3.55372 0
M  V30 1901 H 180.742 -3.92343 -2.42621 0
M  V30 1902 H 178.985 -3.72557 -2.22225 0
M  V30 1903 H 179.656 -3.96735 -3.83804 0
M  V30 1904 H 182.132 -2.05293 -3.61931 0
M  V30 1905 H 181.008 -2.31294 -4.97789 0
M  V30 1906 H 181.269 -0.686725 -4.36734 0
M  V30 1907 N 180.328 1.1314 -1.09713 0
M  V30 1908 C 181.575 1.84484 -0.834987 0
M  V30 1909 C 181.903 1.83689 0.639418 0
M  V30 1910 O 181.158 1.2724 1.4869 0
M  V30 1911 C 181.457 3.32167 -1.3191 0
M  V30 1912 C 181.123 3.53139 -2.80363 0
M  V30 1913 C 179.785 3.58571 -3.20905 0
M  V30 1914 C 182.137 3.60866 -3.76065 0
M  V30 1915 C 179.465 3.69267 -4.55916 0
M  V30 1916 C 181.817 3.73089 -5.10869 0
M  V30 1917 C 180.481 3.76775 -5.50996 0
M  V30 1918 H 179.751 0.675073 -0.305544 0
M  V30 1919 H 182.398 1.33554 -1.37243 0
M  V30 1920 H 180.703 3.85469 -0.701517 0
M  V30 1921 H 182.4 3.85821 -1.09284 0
M  V30 1922 H 178.99 3.49569 -2.47991 0
M  V30 1923 H 183.174 3.55946 -3.45855 0
M  V30 1924 H 178.43 3.70388 -4.86438 0
M  V30 1925 H 182.604 3.78011 -5.84877 0
M  V30 1926 H 180.231 3.84815 -6.55608 0
M  V30 1927 N 181.806 0.884767 1.30421 0
M  V30 1928 C 183.046 0.509806 1.9794 0
M  V30 1929 C 183.41 -0.923736 1.68319 0
M  V30 1930 O 184.611 -1.40481 2.29169 0
M  V30 1931 C 182.882 0.776732 3.48858 0
M  V30 1932 S 184.441 0.503843 4.35898 0
M  V30 1933 H 181.259 0.189699 0.685227 0
M  V30 1934 H 183.861 1.14399 1.58535 0
M  V30 1935 H 182.565 1.81857 3.67908 0
M  V30 1936 H 182.096 0.1301 3.93185 0
M  V30 1937 H 184.111 -0.657625 4.91823 0
M  V30 1938 N 183.284 -1.43765 0.645699 0
M  V30 1939 C 184.531 -2.01898 0.15604 0
M  V30 1940 C 184.859 -1.50887 -1.22733 0
M  V30 1941 O 184.114 -0.689271 -1.8316 0
M  V30 1942 C 184.413 -3.57238 0.107679 0
M  V30 1943 C 184.079 -4.27564 1.43178 0
M  V30 1944 C 182.741 -4.46492 1.7944 0
M  V30 1945 C 185.093 -4.67454 2.30513 0
M  V30 1946 C 182.421 -5.02573 3.02716 0
M  V30 1947 C 184.773 -5.24901 3.53074 0
M  V30 1948 C 183.437 -5.42046 3.89541 0
M  V30 1949 H 182.707 -0.738797 0.057099 0
M  V30 1950 H 185.354 -1.72341 0.834912 0
M  V30 1951 H 183.659 -3.86293 -0.654618 0
M  V30 1952 H 185.356 -3.99965 -0.287938 0
M  V30 1953 H 181.946 -4.13171 1.13963 0
M  V30 1954 H 186.13 -4.5253 2.0379 0
M  V30 1955 H 181.386 -5.14033 3.31028 0
M  V30 1956 H 185.56 -5.54758 4.20971 0
M  V30 1957 H 183.187 -5.85268 4.85145 0
M  V30 1958 N 184.763 -0.387143 -1.52771 0
M  V30 1959 C 185.726 0.436939 -2.24997 0
M  V30 1960 C 186.726 0.991991 -1.26555 0
M  V30 1961 O 187.916 0.874335 -1.50669 0
M  V30 1962 C 185.048 1.61281 -3.00335 0
M  V30 1963 H 186.241 -0.195365 -2.99263 0
M  V30 1964 H 183.794 -0.139218 -1.55679 0
M  V30 1965 H 184.529 2.2826 -2.30364 0
M  V30 1966 H 184.314 1.22154 -3.72587 0
M  V30 1967 H 185.804 2.19629 -3.5518 0
M  V30 1968 N 186.241 1.57166 -0.116904 0
M  V30 1969 C 187.489 1.94737 0.540533 0
M  V30 1970 C 187.81 1.00096 1.67349 0
M  V30 1971 O 187.08 0.0568854 1.95817 0
M  V30 1972 H 185.66 0.718981 0.202669 0
M  V30 1973 H 188.322 1.94017 -0.185353 0
M  V30 1974 H 187.418 2.97719 0.936483 0
M  V30 1975 N 187.719 -0.156864 1.56817 0
M  V30 1976 C 188.669 -1.19891 1.93934 0
M  V30 1977 C 189.653 -1.39061 0.809372 0
M  V30 1978 O 190.845 -1.40789 1.07273 0
M  V30 1979 C 187.974 -2.53493 2.31508 0
M  V30 1980 C 187.06 -2.37957 3.51052 0
M  V30 1981 N 187.451 -1.92158 4.67877 0
M  V30 1982 C 185.749 -2.68739 3.55943 0
M  V30 1983 C 186.45 -1.8943 5.49992 0
M  V30 1984 N 185.426 -2.32375 4.91429 0
M  V30 1985 H 189.228 -0.836746 2.81737 0
M  V30 1986 H 186.742 -0.365012 1.58245 0
M  V30 1987 H 188.739 -3.28811 2.56299 0
M  V30 1988 H 187.399 -2.905 1.45051 0
M  V30 1989 H 188.41 -1.62274 4.91821 0
M  V30 1990 H 185.087 -3.09687 2.80001 0
M  V30 1991 H 186.477 -1.55596 6.53636 0
M  V30 1992 N 189.197 -1.51736 -0.425897 0
M  V30 1993 C 190.107 -1.76738 -1.54275 0
M  V30 1994 C 191.123 -0.65211 -1.61318 0
M  V30 1995 O 192.299 -0.935654 -1.78346 0
M  V30 1996 C 189.364 -1.89755 -2.90162 0
M  V30 1997 C 188.425 -3.13633 -2.93143 0
M  V30 1998 C 187.658 -3.2602 -4.22548 0
M  V30 1999 O 187.881 -2.44067 -5.15546 0
M  V30 2000 O 186.815 -4.19071 -4.32046 0
M  V30 2001 H 190.641 -2.71502 -1.36089 0
M  V30 2002 H 188.226 -1.36376 -0.610069 0
M  V30 2003 H 190.108 -2.00236 -3.70788 0
M  V30 2004 H 188.783 -0.981785 -3.08452 0
M  V30 2005 H 187.69 -3.08622 -2.11431 0
M  V30 2006 H 189.023 -4.04936 -2.798 0
M  V30 2007 N 190.675 0.682077 -1.42076 0
M  V30 2008 C 191.903 1.47057 -1.4554 0
M  V30 2009 C 192.318 1.8869 -0.0645779 0
M  V30 2010 O 191.675 1.57666 0.919115 0
M  V30 2011 C 191.726 2.72442 -2.37609 0
M  V30 2012 O 191.447 2.32559 -3.71279 0
M  V30 2013 C 192.948 3.66069 -2.50017 0
M  V30 2014 H 190.168 0.452737 -0.495248 0
M  V30 2015 H 192.712 0.838695 -1.8651 0
M  V30 2016 H 190.867 3.31835 -1.9991 0
M  V30 2017 H 191.281 3.13475 -4.20516 0
M  V30 2018 H 192.755 4.50792 -3.18576 0
M  V30 2019 H 193.232 4.11476 -1.53572 0
M  V30 2020 H 193.838 3.12572 -2.88407 0
M  V30 2021 N 192.153 1.28127 0.917671 0
M  V30 2022 C 193.401 1.14825 1.66312 0
M  V30 2023 C 193.722 -0.304379 1.9261 0
M  V30 2024 O 192.992 -1.21149 1.53947 0
M  V30 2025 H 191.572 0.421953 0.616413 0
M  V30 2026 H 194.234 1.608 1.10134 0
M  V30 2027 H 193.33 1.68489 2.62712 0
M  V30 2028 N 193.631 -1.12557 1.10312 0
M  V30 2029 C 195.047 -1.36036 0.834649 0
M  V30 2030 C 195.247 -1.93946 -0.546539 0
M  V30 2031 O 194.303 -2.16484 -1.29966 0
M  V30 2032 C 195.616 -2.30312 1.9333 0
M  V30 2033 C 197.164 -2.43906 1.9616 0
M  V30 2034 C 197.639 -3.41496 3.05195 0
M  V30 2035 N 199.13 -3.49053 3.04494 0
M  V30 2036 C 199.865 -4.24471 3.85502 0
M  V30 2037 N 199.361 -5.02966 4.76442 0
M  V30 2038 N 201.154 -4.19864 3.73725 0
M  V30 2039 H 193.305 -0.733246 1.99342 0
M  V30 2040 H 195.568 -0.385234 0.866198 0
M  V30 2041 H 195.274 -1.94933 2.92735 0
M  V30 2042 H 195.148 -3.30421 1.81939 0
M  V30 2043 H 197.535 -2.78567 0.973886 0
M  V30 2044 H 197.616 -1.4369 2.11629 0
M  V30 2045 H 197.26 -3.07565 4.04186 0
M  V30 2046 H 197.19 -4.41539 2.86968 0
M  V30 2047 H 199.681 -2.93053 2.38596 0
M  V30 2048 H 199.994 -5.57846 5.34815 0
M  V30 2049 H 198.339 -5.02167 4.80472 0
M  V30 2050 H 201.53 -3.57623 3.02032 0
M  V30 2051 H 201.703 -4.78386 4.37093 0
M  V30 2052 N 195.109 -0.891671 -1.2995 0
M  V30 2053 C 196.039 -0.379797 -2.30391 0
M  V30 2054 C 197.02 0.540919 -1.6127 0
M  V30 2055 O 198.205 0.453352 -1.88834 0
M  V30 2056 C 195.335 0.400654 -3.44981 0
M  V30 2057 C 194.289 -0.428905 -4.25846 0
M  V30 2058 C 193.615 0.478557 -5.32554 0
M  V30 2059 C 194.915 -1.67458 -4.94727 0
M  V30 2060 H 196.609 -1.21914 -2.73454 0
M  V30 2061 H 194.155 -0.587675 -1.31462 0
M  V30 2062 H 196.108 0.769434 -4.14316 0
M  V30 2063 H 194.832 1.27371 -3.0074 0
M  V30 2064 H 193.491 -0.779911 -3.58208 0
M  V30 2065 H 193.139 1.34951 -4.84559 0
M  V30 2066 H 192.839 -0.0727433 -5.87555 0
M  V30 2067 H 194.363 0.843705 -6.04743 0
M  V30 2068 H 195.777 -1.376 -5.56542 0
M  V30 2069 H 194.174 -2.16659 -5.59624 0
M  V30 2070 H 195.244 -2.41518 -4.20473 0
M  V30 2071 N 196.587 1.43421 -0.653314 0
M  V30 2072 C 197.812 2.06678 -0.172846 0
M  V30 2073 C 198.237 1.48648 1.15262 0
M  V30 2074 O 197.595 0.596457 1.71208 0
M  V30 2075 C 197.643 3.60474 -0.0953184 0
M  V30 2076 O 196.747 4.01487 0.942442 0
M  V30 2077 H 196.088 0.657181 -0.0949155 0
M  V30 2078 H 198.618 1.83925 -0.896265 0
M  V30 2079 H 198.628 4.07905 0.0879728 0
M  V30 2080 H 197.303 4.02088 -1.06291 0
M  V30 2081 H 195.88 3.65646 0.731932 0
M  V30 2082 N 198.065 0.39524 1.52563 0
M  V30 2083 C 199.313 -0.184678 2.01254 0
M  V30 2084 C 199.634 -1.46822 1.28329 0
M  V30 2085 O 198.904 -1.91666 0.405094 0
M  V30 2086 H 197.484 -0.0712355 0.743596 0
M  V30 2087 H 200.146 0.528293 1.87603 0
M  V30 2088 H 199.242 -0.390681 3.09645 0
M  V30 2089 N 199.544 -1.57102 0.125237 0
M  V30 2090 C 200.507 -2.14471 -0.80838 0
M  V30 2091 C 201.507 -1.0811 -1.19033 0
M  V30 2092 O 202.697 -1.33856 -1.11482 0
M  V30 2093 C 199.829 -2.69005 -2.09402 0
M  V30 2094 H 201.022 -2.98297 -0.309696 0
M  V30 2095 H 198.575 -1.55807 -0.124051 0
M  V30 2096 H 199.31 -1.88785 -2.63687 0
M  V30 2097 H 199.095 -3.46799 -1.82957 0
M  V30 2098 H 200.585 -3.13278 -2.76128 0
M  V30 2099 N 201.022 0.148545 -1.56898 0
M  V30 2100 C 201.985 1.16736 -1.97244 0
M  V30 2101 C 202.985 1.35947 -0.858777 0
M  V30 2102 O 204.175 1.32966 -1.12542 0
M  V30 2103 C 201.307 2.52798 -2.28705 0
M  V30 2104 H 202.5 0.821279 -2.88435 0
M  V30 2105 H 200.053 0.391831 -1.51309 0
M  V30 2106 H 200.788 2.92381 -1.403 0
M  V30 2107 H 200.573 2.40216 -3.09901 0
M  V30 2108 H 202.063 3.26179 -2.60762 0
M  V30 2109 N 202.5 1.5196 0.417844 0
M  V30 2110 C 203.777 1.56146 1.17803 0
M  V30 2111 C 204.157 0.337275 2.08388 0
M  V30 2112 O 203.505 -0.676447 2.18258 0
M  V30 2113 C 203.715 2.88566 1.96293 0
M  V30 2114 C 205.063 3.41244 2.52662 0
M  V30 2115 O 206.087 2.90247 2.06483 0
M  V30 2116 O 204.946 4.30273 3.36938 0
M  V30 2117 H 202.04 0.628598 0.537395 0
M  V30 2118 H 204.586 1.64283 0.425331 0
M  V30 2119 H 203.358 3.69116 1.2988 0
M  V30 2120 H 202.981 2.83681 2.78587 0
M  V30 2121 N 203.978 -0.674533 1.42435 0
M  V30 2122 C 205.206 -1.46283 1.46317 0
M  V30 2123 C 205.621 -1.88653 0.0745836 0
M  V30 2124 O 204.978 -1.58151 -0.91074 0
M  V30 2125 C 205.029 -2.71178 2.3905 0
M  V30 2126 O 204.75 -2.30586 3.72507 0
M  V30 2127 C 206.251 -3.64738 2.51955 0
M  V30 2128 H 203.471 -0.450104 0.497642 0
M  V30 2129 H 206.015 -0.828792 1.86953 0
M  V30 2130 H 204.17 -3.3077 2.01667 0
M  V30 2131 H 204.584 -3.11241 4.22172 0
M  V30 2132 H 206.058 -4.49096 3.20962 0
M  V30 2133 H 206.535 -4.10656 1.55752 0
M  V30 2134 H 207.141 -3.11038 2.90061 0
M  V30 2135 N 205.456 -1.28612 -0.910864 0
M  V30 2136 C 206.388 -1.08589 -2.01844 0
M  V30 2137 C 207.401 -0.0367419 -1.62759 0
M  V30 2138 O 208.59 -0.280101 -1.76289 0
M  V30 2139 C 205.69 -0.628626 -3.33019 0
M  V30 2140 C 204.863 -1.75382 -4.00699 0
M  V30 2141 C 203.922 -1.28945 -5.10156 0
M  V30 2142 O 202.948 -1.9922 -5.33198 0
M  V30 2143 N 204.15 -0.154224 -5.80295 0
M  V30 2144 H 206.915 -2.03973 -2.19579 0
M  V30 2145 H 204.476 -1.20403 -1.08234 0
M  V30 2146 H 206.468 -0.301508 -4.03575 0
M  V30 2147 H 205.038 0.232451 -3.11735 0
M  V30 2148 H 204.258 -2.25039 -3.23653 0
M  V30 2149 H 205.546 -2.50854 -4.42662 0
M  V30 2150 H 204.944 0.43194 -5.64049 0
M  V30 2151 H 203.501 0.113599 -6.51701 0
M  V30 2152 N 206.934 1.1197 -1.10907 0
M  V30 2153 C 207.897 2.16031 -0.765707 0
M  V30 2154 C 208.897 1.59393 0.212235 0
M  V30 2155 O 210.087 1.74196 -0.0115441 0
M  V30 2156 C 207.219 3.40632 -0.135053 0
M  V30 2157 H 208.412 2.47919 -1.68748 0
M  V30 2158 H 205.965 1.27061 -0.910226 0
M  V30 2159 H 206.7 3.14348 0.797218 0
M  V30 2160 H 206.485 3.8302 -0.838937 0
M  V30 2161 H 207.975 4.17505 0.0892469 0
M  V30 2162 N 208.412 0.89855 1.29475 0
M  V30 2163 C 209.342 0.39201 2.30186 0
M  V30 2164 C 210.323 -0.532359 1.61555 0
M  V30 2165 O 211.508 -0.443331 1.89072 0
M  V30 2166 C 208.638 -0.382353 3.45189 0
M  V30 2167 C 207.592 0.451483 4.25612 0
M  V30 2168 C 206.918 -0.450307 5.328 0
M  V30 2169 C 208.218 1.70079 4.93832 0
M  V30 2170 H 209.912 1.23362 2.72804 0
M  V30 2171 H 207.458 0.594638 1.31149 0
M  V30 2172 H 209.411 -0.747451 4.14718 0
M  V30 2173 H 208.135 -1.25774 3.01411 0
M  V30 2174 H 206.794 0.798897 3.57789 0
M  V30 2175 H 206.442 -1.32379 4.85268 0
M  V30 2176 H 206.142 0.103902 5.87508 0
M  V30 2177 H 207.666 -0.811623 6.05182 0
M  V30 2178 H 209.08 1.40549 5.55805 0
M  V30 2179 H 207.477 2.19623 5.58467 0
M  V30 2180 H 208.547 2.43744 4.19186 0
M  V30 2181 N 209.89 -1.43072 0.660911 0
M  V30 2182 C 210.82 -2.33497 -0.0122829 0
M  V30 2183 C 211.801 -1.49903 -0.803925 0
M  V30 2184 O 212.986 -1.78546 -0.763864 0
M  V30 2185 C 210.116 -3.33363 -0.973994 0
M  V30 2186 C 209.07 -4.27003 -0.291928 0
M  V30 2187 C 208.396 -5.16967 -1.36562 0
M  V30 2188 C 209.696 -5.15816 0.820462 0
M  V30 2189 H 211.39 -2.90038 0.742873 0
M  V30 2190 H 208.936 -1.39461 0.358688 0
M  V30 2191 H 210.889 -3.95524 -1.45392 0
M  V30 2192 H 209.613 -2.75095 -1.7604 0
M  V30 2193 H 208.272 -3.66217 0.167623 0
M  V30 2194 H 207.92 -4.55034 -2.14366 0
M  V30 2195 H 207.62 -5.80441 -0.914454 0
M  V30 2196 H 209.144 -5.82003 -1.84675 0
M  V30 2197 H 210.558 -5.71742 0.422366 0
M  V30 2198 H 208.955 -5.8805 1.19656 0
M  V30 2199 H 210.025 -4.55045 1.67518 0
M  V30 2200 N 211.368 -0.403325 -1.52352 0
M  V30 2201 C 212.784 -0.0539281 -1.59509 0
M  V30 2202 C 212.984 1.43307 -1.41652 0
M  V30 2203 O 212.04 2.19924 -1.24056 0
M  V30 2204 C 213.353 -0.543654 -2.95745 0
M  V30 2205 C 214.901 -0.501125 -3.08962 0
M  V30 2206 C 215.376 -0.967267 -4.47669 0
M  V30 2207 N 216.867 -0.923849 -4.53893 0
M  V30 2208 C 217.602 -1.25578 -5.5948 0
M  V30 2209 N 217.098 -1.65889 -6.72646 0
M  V30 2210 N 218.891 -1.17613 -5.49658 0
M  V30 2211 H 211.042 -1.37123 -1.62206 0
M  V30 2212 H 213.305 -0.56294 -0.76276 0
M  V30 2213 H 213.011 -1.58275 -3.14073 0
M  V30 2214 H 212.885 0.0498042 -3.77167 0
M  V30 2215 H 215.272 0.528909 -2.90321 0
M  V30 2216 H 215.353 -1.13056 -2.2946 0
M  V30 2217 H 214.997 -1.9956 -4.67053 0
M  V30 2218 H 214.927 -0.314698 -5.25659 0
M  V30 2219 H 217.418 -0.627403 -3.72655 0
M  V30 2220 H 217.731 -1.89543 -7.49195 0
M  V30 2221 H 216.076 -1.69787 -6.73942 0
M  V30 2222 H 219.267 -0.860115 -4.6013 0
M  V30 2223 H 219.44 -1.43812 -6.3184 0
M  V30 2224 N 212.846 1.57033 -0.133567 0
M  V30 2225 C 213.794 2.17348 0.828412 0
M  V30 2226 C 214.788 1.12671 1.26498 0
M  V30 2227 O 215.994 1.30947 1.23502 0
M  V30 2228 H 212.369 0.695775 0.285309 0
M  V30 2229 H 214.34 2.96935 0.295372 0
M  V30 2230 C 213.089 2.79893 2.06289 0
M  V30 2231 H 212.412 3.60147 1.73592 0
M  V30 2232 H 213.852 3.25615 2.71572 0
M  V30 2233 C 212.311 1.77713 2.86216 0
M  V30 2234 O 212.841 1.23937 3.82103 0
M  V30 2235 N 211.047 1.47321 2.50489 0
M  V30 2236 H 210.594 1.91243 1.7258 0
M  V30 2237 H 210.552 0.79199 3.04261 0
M  V30 2238 N 214.325 -0.140222 1.56975 0
M  V30 2239 C 215.602 -0.880769 1.74648 0
M  V30 2240 C 215.982 -1.99036 0.703404 0
M  V30 2241 O 215.33 -2.26821 -0.27648 0
M  V30 2242 C 215.54 -1.417 3.18939 0
M  V30 2243 C 216.888 -1.87774 3.80823 0
M  V30 2244 O 217.912 -1.51427 3.2241 0
M  V30 2245 O 216.771 -2.54827 4.83452 0
M  V30 2246 H 213.865 -0.416713 0.714338 0
M  V30 2247 H 216.411 -0.125618 1.69234 0
M  V30 2248 H 215.183 -0.619902 3.86359 0
M  V30 2249 H 214.806 -2.23546 3.28805 0
M  V30 2250 N 215.803 -1.52179 -0.40978 0
M  V30 2251 C 216.735 -1.71703 -1.51825 0
M  V30 2252 C 217.748 -0.597445 -1.51441 0
M  V30 2253 O 218.937 -0.872582 -1.55719 0
M  V30 2254 C 216.037 -1.74171 -2.90719 0
M  V30 2255 C 215.21 -3.03156 -3.15302 0
M  V30 2256 C 214.269 -2.97445 -4.34065 0
M  V30 2257 O 213.295 -3.71352 -4.31377 0
M  V30 2258 N 214.497 -2.15191 -5.39141 0
M  V30 2259 H 217.262 -2.67334 -1.35472 0
M  V30 2260 H 214.823 -1.50409 -0.599069 0
M  V30 2261 H 216.815 -1.67884 -3.68235 0
M  V30 2262 H 215.385 -0.860166 -3.00533 0
M  V30 2263 H 214.605 -3.23097 -2.25836 0
M  V30 2264 H 215.893 -3.88484 -3.28569 0
M  V30 2265 H 215.291 -1.54573 -5.44173 0
M  V30 2266 H 213.848 -2.1476 -6.15403 0
M  V30 2267 N 217.281 0.66697 -1.42791 0
M  V30 2268 C 218.527 1.4291 -1.43891 0
M  V30 2269 C 218.86 1.94114 -0.0578972 0
M  V30 2270 O 218.135 1.71414 0.91911 0
M  V30 2271 C 218.418 2.62049 -2.46987 0
M  V30 2272 C 218.271 2.16426 -3.94309 0
M  V30 2273 C 219.59 3.64266 -2.46978 0
M  V30 2274 H 216.709 0.518306 -0.523954 0
M  V30 2275 H 219.351 0.757321 -1.74255 0
M  V30 2276 H 217.501 3.19361 -2.21225 0
M  V30 2277 H 219.173 1.64221 -4.31079 0
M  V30 2278 H 217.416 1.47925 -4.078 0
M  V30 2279 H 218.087 3.02038 -4.62036 0
M  V30 2280 H 220.563 3.16686 -2.69906 0
M  V30 2281 H 219.439 4.45196 -3.21079 0
M  V30 2282 H 219.7 4.15927 -1.49857 0
M  V30 2283 N 218.759 1.29093 0.90403 0
M  V30 2284 C 219.989 1.19516 1.68522 0
M  V30 2285 C 220.397 -0.24738 1.87576 0
M  V30 2286 O 219.74 -1.17798 1.40959 0
M  V30 2287 C 219.802 1.83249 3.0929 0
M  V30 2288 C 219.466 3.32531 3.13484 0
M  V30 2289 C 220.463 4.28821 2.93953 0
M  V30 2290 C 218.148 3.73656 3.35688 0
M  V30 2291 C 220.142 5.64212 2.96553 0
M  V30 2292 C 217.829 5.0917 3.37919 0
M  V30 2293 C 218.827 6.04258 3.18373 0
M  V30 2294 O 218.515 7.37298 3.20385 0
M  V30 2295 H 218.247 0.415467 0.533257 0
M  V30 2296 H 220.801 1.70912 1.13922 0
M  V30 2297 H 219.031 1.26358 3.65473 0
M  V30 2298 H 220.72 1.68054 3.69476 0
M  V30 2299 H 221.486 3.98382 2.76616 0
M  V30 2300 H 217.365 3.00101 3.49943 0
M  V30 2301 H 220.909 6.38407 2.81216 0
M  V30 2302 H 216.806 5.39256 3.54787 0
M  V30 2303 H 217.574 7.46048 3.36681 0
M  V30 2304 N 220.237 -1.11381 1.11499 0
M  V30 2305 C 221.169 -2.17207 0.731704 0
M  V30 2306 C 222.182 -1.61066 -0.236957 0
M  V30 2307 O 223.371 -1.78489 -0.0197591 0
M  V30 2308 C 220.471 -3.38846 0.0607624 0
M  V30 2309 C 219.644 -4.24451 1.0564 0
M  V30 2310 C 218.703 -5.24562 0.4149 0
M  V30 2311 O 217.729 -5.59071 1.069 0
M  V30 2312 N 218.931 -5.74651 -0.821943 0
M  V30 2313 H 221.696 -2.50699 1.64225 0
M  V30 2314 H 219.257 -1.26908 1.00529 0
M  V30 2315 H 221.249 -4.02911 -0.380139 0
M  V30 2316 H 219.819 -3.03411 -0.752376 0
M  V30 2317 H 219.039 -3.56833 1.67524 0
M  V30 2318 H 220.327 -4.78486 1.72998 0
M  V30 2319 H 219.725 -5.48797 -1.37252 0
M  V30 2320 H 218.282 -6.40549 -1.20582 0
M  V30 2321 N 221.715 -0.905404 -1.28997 0
M  V30 2322 C 223.126 -0.581953 -1.77398 0
M  V30 2323 C 223.477 0.902552 -1.74208 0
M  V30 2324 O 222.602 1.70584 -1.33154 0
M  V30 2325 C 223.197 -1.04961 -3.22131 0
M  V30 2326 C 221.756 -0.777229 -3.68288 0
M  V30 2327 C 220.903 -1.22109 -2.48967 0
M  V30 2328 H 223.854 -1.08754 -1.15578 0
M  V30 2329 H 223.875 -0.387387 -3.78523 0
M  V30 2330 H 223.387 -2.13008 -3.24421 0
M  V30 2331 H 221.488 0.290383 -3.71467 0
M  V30 2332 H 221.601 -1.37911 -4.58822 0
M  V30 2333 H 219.965 -0.639971 -2.46529 0
M  V30 2334 H 220.748 -2.30972 -2.53982 0
M  V30 2335 N 223.193 1.4272 -0.668489 0
M  V30 2336 C 224.123 2.335 -0.000100175 0
M  V30 2337 C 225.104 1.50328 0.795964 0
M  V30 2338 O 226.289 1.78949 0.754385 0
M  V30 2339 C 223.419 3.33874 0.956302 0
M  V30 2340 C 222.373 4.27152 0.269278 0
M  V30 2341 C 221.699 5.17684 1.33818 0
M  V30 2342 C 222.999 5.15373 -0.847805 0
M  V30 2343 H 224.693 2.89639 -0.758244 0
M  V30 2344 H 222.239 1.39269 -0.366079 0
M  V30 2345 H 224.192 3.9629 1.43292 0
M  V30 2346 H 222.916 2.76025 1.74579 0
M  V30 2347 H 221.575 3.66123 -0.187042 0
M  V30 2348 H 221.223 4.56165 2.1195 0
M  V30 2349 H 220.923 5.80918 0.883659 0
M  V30 2350 H 222.447 5.82974 1.81586 0
M  V30 2351 H 223.861 5.7151 -0.452681 0
M  V30 2352 H 222.258 5.87407 -1.22773 0
M  V30 2353 H 223.328 4.5415 -1.69929 0
M  V30 2354 N 224.671 0.411399 1.52136 0
M  V30 2355 C 226.087 0.0623865 1.59478 0
M  V30 2356 C 226.287 -1.42554 1.4241 0
M  V30 2357 O 225.343 -2.19263 1.2522 0
M  V30 2358 C 226.656 0.559331 2.95452 0
M  V30 2359 C 228.204 0.517503 3.08692 0
M  V30 2360 C 228.679 0.990994 4.4715 0
M  V30 2361 N 230.17 0.947908 4.53397 0
M  V30 2362 C 230.905 1.28544 5.58806 0
M  V30 2363 N 230.401 1.69454 6.71757 0
M  V30 2364 N 232.194 1.20526 5.49026 0
M  V30 2365 H 224.345 1.37982 1.61477 0
M  V30 2366 H 226.608 0.566977 0.759764 0
M  V30 2367 H 226.314 1.59938 3.1323 0
M  V30 2368 H 226.188 -0.0298014 3.77188 0
M  V30 2369 H 228.575 -0.513505 2.90598 0
M  V30 2370 H 228.656 1.14272 2.28857 0
M  V30 2371 H 228.3 2.02034 4.65988 0
M  V30 2372 H 228.23 0.34257 5.25485 0
M  V30 2373 H 230.721 0.647157 3.72317 0
M  V30 2374 H 231.034 1.93513 7.48179 0
M  V30 2375 H 229.379 1.73359 6.73032 0
M  V30 2376 H 232.57 0.884505 4.59667 0
M  V30 2377 H 232.743 1.47161 6.31069 0
M  V30 2378 N 226.149 -1.5696 0.141893 0
M  V30 2379 C 227.426 -1.87553 -0.555281 0
M  V30 2380 C 227.806 -1.04699 -1.83306 0
M  V30 2381 O 227.154 -0.132346 -2.28116 0
M  V30 2382 C 227.364 -3.39093 -0.825664 0
M  V30 2383 C 228.712 -4.08199 -1.16869 0
M  V30 2384 O 229.736 -3.44242 -0.915185 0
M  V30 2385 O 228.595 -5.21139 -1.6455 0
M  V30 2386 H 225.689 -0.777188 -0.282679 0
M  V30 2387 H 228.235 -1.68763 0.17812 0
M  V30 2388 H 227.007 -3.91221 0.0788633 0
M  V30 2389 H 226.63 -3.63393 -1.61343 0
M  V30 2390 N 227.627 0.131896 -1.57047 0
M  V30 2391 C 229.043 0.485031 -1.52051 0
M  V30 2392 C 229.243 1.82563 -0.85281 0
M  V30 2393 O 228.299 2.48817 -0.429694 0
M  V30 2394 C 229.612 0.481409 -2.96821 0
M  V30 2395 C 231.16 0.565868 -3.07842 0
M  V30 2396 C 231.635 0.592762 -4.54148 0
M  V30 2397 N 233.126 0.654564 -4.58552 0
M  V30 2398 C 233.861 0.696608 -5.69153 0
M  V30 2399 N 233.357 0.697078 -6.89284 0
M  V30 2400 N 235.15 0.738639 -5.57226 0
M  V30 2401 H 227.301 -0.746664 -1.98843 0
M  V30 2402 H 229.564 -0.273999 -0.90754 0
M  V30 2403 H 229.27 -0.435731 -3.4899 0
M  V30 2404 H 229.144 1.3139 -3.53577 0
M  V30 2405 H 231.531 1.47343 -2.55684 0
M  V30 2406 H 231.612 -0.29406 -2.54104 0
M  V30 2407 H 231.256 -0.310701 -5.06949 0
M  V30 2408 H 231.186 1.46939 -5.05684 0
M  V30 2409 H 233.677 0.660887 -3.72076 0
M  V30 2410 H 233.99 0.731426 -7.69331 0
M  V30 2411 H 232.335 0.66471 -6.91814 0
M  V30 2412 H 235.526 0.735545 -4.62285 0
M  V30 2413 H 235.699 0.767938 -6.43434 0
M  V30 2414 N 229.106 1.52395 0.401703 0
M  V30 2415 C 230.383 1.57387 1.16141 0
M  V30 2416 C 230.763 0.359359 2.08019 0
M  V30 2417 O 230.111 -0.65326 2.18963 0
M  V30 2418 C 230.321 2.90631 1.93221 0
M  V30 2419 C 231.669 3.43904 2.49028 0
M  V30 2420 O 232.693 2.92421 2.03393 0
M  V30 2421 O 231.552 4.33823 3.32356 0
M  V30 2422 H 228.646 0.634262 0.530698 0
M  V30 2423 H 231.192 1.64725 0.407883 0
M  V30 2424 H 229.964 3.70473 1.25958 0
M  V30 2425 H 229.587 2.8662 2.75563 0
M  V30 2426 N 230.584 -0.659388 1.43143 0
M  V30 2427 C 231.861 -1.41627 1.34912 0
M  V30 2428 C 232.241 -2.11099 -0.00607785 0
M  V30 2429 O 231.589 -2.04353 -1.02236 0
M  V30 2430 C 231.799 -2.40604 2.52805 0
M  V30 2431 C 233.147 -3.04789 2.95616 0
M  V30 2432 O 234.171 -2.50932 2.52807 0
M  V30 2433 O 233.03 -4.02421 3.69756 0
M  V30 2434 H 230.124 -0.63246 0.532844 0
M  V30 2435 H 232.67 -0.686814 1.5518 0
M  V30 2436 H 231.442 -1.88174 3.43083 0
M  V30 2437 H 231.065 -3.21009 2.34604 0
M  V30 2438 N 232.062 -1.29571 -0.897171 0
M  V30 2439 C 233.025 -1.14913 -1.98312 0
M  V30 2440 C 234.025 -0.0838629 -1.60581 0
M  V30 2441 O 235.215 -0.331006 -1.71026 0
M  V30 2442 C 232.347 -0.757835 -3.3237 0
M  V30 2443 H 233.54 -2.11377 -2.12743 0
M  V30 2444 H 231.093 -1.12793 -1.08201 0
M  V30 2445 H 231.828 0.206837 -3.2364 0
M  V30 2446 H 231.613 -1.52755 -3.61121 0
M  V30 2447 H 233.103 -0.678408 -4.12053 0
M  V30 2448 N 233.54 1.10788 -1.12088 0
M  V30 2449 C 234.472 2.16816 -0.743213 0
M  V30 2450 C 235.485 1.6119 0.228412 0
M  V30 2451 O 236.674 1.78497 0.0102931 0
M  V30 2452 C 233.774 3.38809 -0.0787313 0
M  V30 2453 C 232.947 4.23885 -1.0789 0
M  V30 2454 C 232.006 5.24334 -0.442713 0
M  V30 2455 O 231.032 5.58497 -1.09864 0
M  V30 2456 N 232.234 5.75079 0.791457 0
M  V30 2457 H 234.999 2.49825 -1.65552 0
M  V30 2458 H 232.56 1.26373 -1.012 0
M  V30 2459 H 234.552 4.03107 0.358766 0
M  V30 2460 H 233.122 3.03805 0.736275 0
M  V30 2461 H 232.342 3.55939 -1.69414 0
M  V30 2462 H 233.63 4.77562 -1.75533 0
M  V30 2463 H 233.028 5.49517 1.3434 0
M  V30 2464 H 231.585 6.4118 1.17183 0
M  V30 2465 N 235.018 0.912232 1.28515 0
M  V30 2466 C 236.248 0.559604 1.98877 0
M  V30 2467 C 236.656 -0.863113 1.68366 0
M  V30 2468 O 235.999 -1.58304 0.931969 0
M  V30 2469 C 236.061 0.68703 3.52874 0
M  V30 2470 C 235.725 2.07901 4.06972 0
M  V30 2471 C 236.722 3.05157 4.20922 0
M  V30 2472 C 234.407 2.39178 4.417 0
M  V30 2473 C 236.401 4.31806 4.68852 0
M  V30 2474 C 234.088 3.66068 4.89324 0
M  V30 2475 C 235.086 4.62195 5.02856 0
M  V30 2476 O 234.774 5.86829 5.49442 0
M  V30 2477 H 234.506 0.212191 0.641834 0
M  V30 2478 H 237.06 1.22712 1.64715 0
M  V30 2479 H 235.29 -0.0375486 3.86682 0
M  V30 2480 H 236.979 0.341727 4.04459 0
M  V30 2481 H 237.745 2.82311 3.94367 0
M  V30 2482 H 233.624 1.65109 4.30418 0
M  V30 2483 H 237.168 5.06842 4.79329 0
M  V30 2484 H 233.065 3.88739 5.15318 0
M  V30 2485 H 233.833 5.89597 5.6773 0
M  V30 2486 N 236.496 -1.42363 0.676048 0
M  V30 2487 C 237.721 -2.06377 0.205705 0
M  V30 2488 C 238.146 -1.50463 -1.12883 0
M  V30 2489 O 237.504 -0.623619 -1.70237 0
M  V30 2490 C 237.552 -3.60277 0.152655 0
M  V30 2491 O 236.656 -4.02935 -0.87845 0
M  V30 2492 H 235.997 -0.655588 0.105359 0
M  V30 2493 H 238.527 -1.82475 0.925412 0
M  V30 2494 H 238.537 -4.07993 -0.0230675 0
M  V30 2495 H 237.212 -4.00346 1.12675 0
M  V30 2496 H 235.789 -3.66764 -0.673668 0
M  V30 2497 N 237.974 -0.419461 -1.51915 0
M  V30 2498 C 238.924 0.418496 -2.24126 0
M  V30 2499 C 239.908 1.00495 -1.25656 0
M  V30 2500 O 241.1 0.926058 -1.50842 0
M  V30 2501 C 238.229 1.52899 -3.07371 0
M  V30 2502 C 237.315 0.952797 -4.13258 0
M  V30 2503 N 237.706 0.104175 -5.05693 0
M  V30 2504 C 236.004 1.22224 -4.28926 0
M  V30 2505 C 236.705 -0.21752 -5.81293 0
M  V30 2506 N 235.681 0.394293 -5.42168 0
M  V30 2507 H 239.483 -0.236048 -2.92951 0
M  V30 2508 H 236.997 -0.230481 -1.60756 0
M  V30 2509 H 238.994 2.14199 -3.57665 0
M  V30 2510 H 237.654 2.18605 -2.40088 0
M  V30 2511 H 238.665 -0.260924 -5.17242 0
M  V30 2512 H 235.342 1.87812 -3.72871 0
M  V30 2513 H 236.732 -0.906992 -6.6575 0
M  V30 2514 N 239.452 1.56882 -0.150215 0
M  V30 2515 C 240.382 2.19935 0.784284 0
M  V30 2516 C 241.363 1.14854 1.25469 0
M  V30 2517 O 242.548 1.43209 1.31168 0
M  V30 2518 C 239.678 2.82349 2.02229 0
M  V30 2519 C 238.632 3.93285 1.68853 0
M  V30 2520 C 237.958 4.42649 2.99944 0
M  V30 2521 C 239.258 5.13904 0.932714 0
M  V30 2522 H 240.952 2.9828 0.258781 0
M  V30 2523 H 238.498 1.43473 0.123029 0
M  V30 2524 H 240.451 3.25126 2.68088 0
M  V30 2525 H 239.175 2.0134 2.57157 0
M  V30 2526 H 237.834 3.5113 1.05371 0
M  V30 2527 H 237.482 3.58458 3.52869 0
M  V30 2528 H 237.182 5.17476 2.78374 0
M  V30 2529 H 238.706 4.88099 3.66868 0
M  V30 2530 H 240.12 5.53506 1.49345 0
M  V30 2531 H 238.517 5.94515 0.81684 0
M  V30 2532 H 239.587 4.84842 -0.0749568 0
M  V30 2533 N 240.93 -0.123565 1.57115 0
M  V30 2534 C 242.178 -0.83051 1.84247 0
M  V30 2535 C 242.499 -1.80629 0.73471 0
M  V30 2536 O 241.769 -1.94403 -0.241688 0
M  V30 2537 H 240.349 -0.309694 0.679778 0
M  V30 2538 H 243.011 -0.111976 1.94578 0
M  V30 2539 H 242.107 -1.37852 2.80006 0
M  V30 2540 N 242.408 -1.52605 -0.393616 0
M  V30 2541 C 243.656 -1.67093 -1.13685 0
M  V30 2542 C 243.977 -0.411011 -1.90619 0
M  V30 2543 O 243.247 0.574491 -1.87287 0
M  V30 2544 H 241.827 -0.615923 -0.422668 0
M  V30 2545 H 244.489 -1.89704 -0.447039 0
M  V30 2546 H 243.585 -2.51922 -1.84232 0
M  V30 2547 N 243.887 0.651787 -1.4349 0
M  V30 2548 C 244.835 1.78586 -1.49029 0
M  V30 2549 C 245.829 1.65448 -0.363767 0
M  V30 2550 O 247.035 1.71777 -0.537821 0
M  V30 2551 H 243.41 0.589236 -0.467231 0
M  V30 2552 H 245.381 1.71035 -2.44519 0
M  V30 2553 C 244.13 3.16851 -1.43181 0
M  V30 2554 H 243.453 3.27598 -2.29171 0
M  V30 2555 H 244.893 3.96156 -1.51118 0
M  V30 2556 C 243.352 3.36568 -0.149616 0
M  V30 2557 O 243.882 3.93885 0.788509 0
M  V30 2558 N 242.088 2.90539 -0.0593484 0
M  V30 2559 H 241.635 2.4408 -0.823575 0
M  V30 2560 H 241.593 3.04108 0.797853 0
M  V30 2561 N 245.365 1.30045 0.890287 0
M  V30 2562 C 246.611 1.19747 1.64415 0
M  V30 2563 C 246.966 -0.246591 1.90813 0
M  V30 2564 O 246.259 -1.174 1.51419 0
M  V30 2565 C 246.453 1.95409 2.99249 0
M  V30 2566 C 246.282 3.47025 2.86013 0
M  V30 2567 C 245.052 4.1638 2.86279 0
M  V30 2568 C 247.25 4.42353 2.62351 0
M  V30 2569 N 245.232 5.54293 2.63879 0
M  V30 2570 C 246.603 5.67792 2.49022 0
M  V30 2571 C 248.658 4.32009 2.47533 0
M  V30 2572 C 247.361 6.8406 2.22383 0
M  V30 2573 C 249.387 5.48038 2.22279 0
M  V30 2574 C 248.749 6.72455 2.09722 0
M  V30 2575 H 244.848 0.493223 0.60684 0
M  V30 2576 H 247.432 1.6399 1.04954 0
M  V30 2577 H 245.603 1.53565 3.56752 0
M  V30 2578 H 247.335 1.77298 3.63796 0
M  V30 2579 H 244.09 3.68164 2.97913 0
M  V30 2580 H 244.514 6.26852 2.55706 0
M  V30 2581 H 249.156 3.36503 2.55979 0
M  V30 2582 H 246.874 7.79612 2.12675 0
M  V30 2583 H 250.46 5.41939 2.11643 0
M  V30 2584 H 249.34 7.60722 1.90453 0
M  V30 2585 N 246.843 -1.10192 1.12674 0
M  V30 2586 C 247.806 -2.14786 0.799979 0
M  V30 2587 C 248.806 -1.59711 -0.18685 0
M  V30 2588 O 249.996 -1.74156 0.0392558 0
M  V30 2589 C 247.128 -3.40374 0.189228 0
M  V30 2590 H 248.321 -2.45203 1.72671 0
M  V30 2591 H 245.874 -1.25597 0.930326 0
M  V30 2592 H 246.609 -3.15577 -0.747107 0
M  V30 2593 H 246.394 -3.81637 0.899766 0
M  V30 2594 H 247.884 -4.17594 -0.0228143 0
M  V30 2595 N 248.321 -0.919034 -1.28029 0
M  V30 2596 C 249.737 -0.617972 -1.4715 0
M  V30 2597 C 249.937 0.835242 -1.83374 0
M  V30 2598 O 248.993 1.61388 -1.94191 0
M  V30 2599 C 250.306 -1.56041 -2.57044 0
M  V30 2600 C 251.854 -1.56769 -2.7091 0
M  V30 2601 C 252.329 -2.49688 -3.83953 0
M  V30 2602 N 253.82 -2.47845 -3.91314 0
M  V30 2603 C 254.555 -3.16437 -4.78179 0
M  V30 2604 N 254.051 -3.94376 -5.69596 0
M  V30 2605 N 255.844 -3.05498 -4.71834 0
M  V30 2606 H 247.995 -1.85866 -1.02798 0
M  V30 2607 H 250.258 -0.797506 -0.512531 0
M  V30 2608 H 249.964 -2.59671 -2.372 0
M  V30 2609 H 249.838 -1.29551 -3.54255 0
M  V30 2610 H 252.225 -0.538745 -2.90141 0
M  V30 2611 H 252.306 -1.87305 -1.74214 0
M  V30 2612 H 251.95 -3.52688 -3.65477 0
M  V30 2613 H 251.88 -2.16453 -4.80058 0
M  V30 2614 H 254.371 -1.91234 -3.25941 0
M  V30 2615 H 254.684 -4.43721 -6.32718 0
M  V30 2616 H 253.029 -3.98481 -5.69419 0
M  V30 2617 H 256.22 -2.44108 -3.99411 0
M  V30 2618 H 256.393 -3.59225 -5.39316 0
M  V30 2619 N 249.799 1.42003 -0.683588 0
M  V30 2620 C 250.747 2.326 0.000815408 0
M  V30 2621 C 251.741 1.50308 0.781278 0
M  V30 2622 O 252.947 1.66322 0.688251 0
M  V30 2623 H 249.322 0.751758 0.0190616 0
M  V30 2624 H 251.293 2.88011 -0.780528 0
M  V30 2625 C 250.042 3.34978 0.93195 0
M  V30 2626 H 249.365 3.98345 0.340817 0
M  V30 2627 H 250.805 4.00936 1.37936 0
M  V30 2628 C 249.264 2.67925 2.04249 0
M  V30 2629 O 249.794 2.51788 3.12995 0
M  V30 2630 N 248 2.2681 1.81675 0
M  V30 2631 H 247.547 2.40135 0.932363 0
M  V30 2632 H 247.505 1.8228 2.56167 0
M  V30 2633 N 251.277 0.427512 1.51691 0
M  V30 2634 C 252.224 -0.388867 2.275 0
M  V30 2635 C 253.194 -1.02532 1.30677 0
M  V30 2636 O 254.379 -1.0461 1.59566 0
M  V30 2637 C 251.519 -1.48954 3.11298 0
M  V30 2638 C 250.632 -0.872194 4.23104 0
M  V30 2639 C 249.767 -1.94709 4.94228 0
M  V30 2640 C 248.806 -1.30766 5.97969 0
M  V30 2641 N 247.943 -2.32349 6.62539 0
M  V30 2642 H 252.783 0.263997 2.96828 0
M  V30 2643 H 250.32 0.142033 1.46413 0
M  V30 2644 H 252.278 -2.13887 3.58201 0
M  V30 2645 H 250.908 -2.11217 2.44105 0
M  V30 2646 H 249.96 -0.111419 3.80237 0
M  V30 2647 H 251.272 -0.365264 4.97461 0
M  V30 2648 H 250.426 -2.67327 5.44629 0
M  V30 2649 H 249.165 -2.48773 4.1948 0
M  V30 2650 H 248.17 -0.566902 5.4687 0
M  V30 2651 H 249.395 -0.774483 6.74669 0
M  V30 2652 H 247.341 -2.85511 5.90609 0
M  V30 2653 H 247.258 -1.8652 7.3263 0
M  V30 2654 H 248.526 -3.04481 7.17574 0
M  V30 2655 O 252.794 -1.58699 0.299458 0
M  V30 2656 H 253.485 -1.91872 -0.265495 0
M  V30 END ATOM
M  V30 BEGIN BOND
M  V30 END BOND
M  V30 END CTAB
M  END
$$$$
