drugbank_target|O60701 UDP-glucose 6-dehydrogenase (DB00157; DB09130)
 OpenBabel12092119363D

  0  0  0     0  0            999 V3000
M  V30 BEGIN CTAB
M  V30 COUNTS 7761 7836 0 0 0
M  V30 BEGIN ATOM
M  V30 1 H -0.908 1.98254 -0.117106 0
M  V30 2 N 0 1.576 0 0
M  V30 3 C 0.933 2.03868 1.02534 0
M  V30 4 C 1.911 0.928543 1.3348 0
M  V30 5 O 3.095 1.19667 1.45644 0
M  V30 6 C 0.222 2.43627 2.35294 0
M  V30 7 C -0.732 3.65373 2.2001 0
M  V30 8 S 0.101 5.13292 1.52614 0
M  V30 9 C 1.257 5.56322 2.86805 0
M  V30 10 H 1.49 2.90518 0.631377 0
M  V30 11 H -0.977 1.52953 0.210867 0
M  V30 12 H 0.981 2.67203 3.11629 0
M  V30 13 H -0.358 1.57376 2.7183 0
M  V30 14 H -1.165 3.90944 3.18086 0
M  V30 15 H -1.563 3.418 1.51819 0
M  V30 16 H 0.729 5.58782 3.83104 0
M  V30 17 H 1.672 6.56266 2.65933 0
M  V30 18 H 2.08 4.83886 2.90714 0
M  V30 19 N 1.4781 -0.272755 1.55222 0
M  V30 20 C 2.7251 -1.00433 1.7584 0
M  V30 21 C 3.0531 -1.86275 0.559629 0
M  V30 22 O 2.3081 -1.90269 -0.457857 0
M  V30 23 C 2.6071 -1.91642 3.01675 0
M  V30 24 C 2.2731 -1.21548 4.34208 0
M  V30 25 C 0.9351 -1.02166 4.70229 0
M  V30 26 C 3.2871 -0.716684 5.16249 0
M  V30 27 C 0.6151 -0.316334 5.85847 0
M  V30 28 C 2.9671 -0.0249476 6.32595 0
M  V30 29 C 1.6311 0.180579 6.67256 0
M  V30 30 H 0.9011 -0.367509 0.643443 0
M  V30 31 H 3.5481 -0.276596 1.89492 0
M  V30 32 H 1.8531 -2.71037 2.82924 0
M  V30 33 H 3.5501 -2.48369 3.14824 0
M  V30 34 H 0.1401 -1.37645 4.05896 0
M  V30 35 H 4.3241 -0.854047 4.88896 0
M  V30 36 H -0.4199 -0.146378 6.11225 0
M  V30 37 H 3.7541 0.369311 6.9542 0
M  V30 38 H 1.3811 0.729098 7.56696 0
M  V30 39 N 2.9562 -1.48159 -0.537278 0
M  V30 40 C 3.8662 -1.64807 -1.6696 0
M  V30 41 C 4.8822 -0.530651 -1.65711 0
M  V30 42 O 6.0582 -0.800784 -1.84796 0
M  V30 43 C 3.1232 -1.67708 -3.03438 0
M  V30 44 C 2.1842 -2.91025 -3.156 0
M  V30 45 C 1.4172 -2.93778 -4.45567 0
M  V30 46 O 1.6402 -2.05153 -5.3223 0
M  V30 47 O 0.5742 -3.85868 -4.61941 0
M  V30 48 H 4.4002 -2.6066 -1.55853 0
M  V30 49 H 1.9852 -1.31475 -0.709549 0
M  V30 50 H 3.8672 -1.7218 -3.84619 0
M  V30 51 H 2.5422 -0.750278 -3.14885 0
M  V30 52 H 1.4492 -2.92089 -2.33741 0
M  V30 53 H 2.7822 -3.83065 -3.09066 0
M  V30 54 N 4.4343 0.785586 -1.36625 0
M  V30 55 C 5.6833 1.53883 -1.30396 0
M  V30 56 C 5.9963 1.95271 0.113452 0
M  V30 57 O 7.2023 2.69858 0.298142 0
M  V30 58 C 5.6583 2.77808 -2.28802 0
M  V30 59 C 5.2663 2.43574 -3.75999 0
M  V30 60 C 7.0103 3.55783 -2.31558 0
M  V30 61 C 4.9173 3.63919 -4.66173 0
M  V30 62 H 3.8473 0.577678 -0.484566 0
M  V30 63 H 6.4983 0.861705 -1.62009 0
M  V30 64 H 4.8803 3.47339 -1.90188 0
M  V30 65 H 6.0543 1.81916 -4.23371 0
M  V30 66 H 4.3693 1.78803 -3.76056 0
M  V30 67 H 6.9663 4.45205 -2.96137 0
M  V30 68 H 7.3093 3.94644 -1.3252 0
M  V30 69 H 7.8423 2.93235 -2.68809 0
M  V30 70 H 4.5813 3.3015 -5.66287 0
M  V30 71 H 4.1013 4.2473 -4.23515 0
M  V30 72 H 5.7803 4.30901 -4.82632 0
M  V30 73 N 5.9124 1.20967 1.01018 0
M  V30 74 C 6.8594 0.964281 2.09691 0
M  V30 75 C 7.8294 -0.107853 1.65749 0
M  V30 76 O 9.0144 0.0381987 1.90762 0
M  V30 77 C 6.1544 0.52943 3.41015 0
M  V30 78 C 5.2674 1.67043 3.98398 0
M  V30 79 C 4.4024 1.18525 5.17808 0
M  V30 80 C 3.4414 2.29892 5.67288 0
M  V30 81 N 2.5784 1.82546 6.77954 0
M  V30 82 H 7.4184 1.89463 2.30017 0
M  V30 83 H 4.9554 0.944289 1.1279 0
M  V30 84 H 6.9134 0.258588 4.16398 0
M  V30 85 H 5.5434 -0.363919 3.20742 0
M  V30 86 H 4.5954 2.05603 3.20049 0
M  V30 87 H 5.9074 2.50877 4.31117 0
M  V30 88 H 5.0614 0.870762 6.00419 0
M  V30 89 H 3.8004 0.316887 4.86669 0
M  V30 90 H 2.8054 2.6215 4.83278 0
M  V30 91 H 4.0304 3.17216 6.00459 0
M  V30 92 H 1.9764 0.980454 6.48632 0
M  V30 93 H 1.8934 2.59956 7.09901 0
M  V30 94 H 3.1614 1.54115 7.64113 0
M  V30 95 N 7.3905 -1.2043 1.01659 0
M  V30 96 C 8.3375 -2.23215 0.586822 0
M  V30 97 C 9.3075 -1.61382 -0.393085 0
M  V30 98 O 10.4925 -1.88544 -0.292525 0
M  V30 99 C 7.6325 -3.45032 -0.0687464 0
M  V30 100 C 6.7455 -4.21296 0.955724 0
M  V30 101 C 5.8805 -5.30507 0.271208 0
M  V30 102 C 4.9195 -5.98515 1.28244 0
M  V30 103 N 4.0565 -6.99316 0.62459 0
M  V30 104 H 8.8965 -2.59336 1.46796 0
M  V30 105 H 6.4335 -1.27431 0.734836 0
M  V30 106 H 8.3915 -4.1459 -0.465965 0
M  V30 107 H 7.0215 -3.09604 -0.913529 0
M  V30 108 H 6.0735 -3.50803 1.4711 0
M  V30 109 H 7.3855 -4.6803 1.72479 0
M  V30 110 H 6.5395 -6.06428 -0.18151 0
M  V30 111 H 5.2785 -4.8481 -0.530163 0
M  V30 112 H 4.2835 -5.21355 1.74554 0
M  V30 113 H 5.5085 -6.46298 2.08509 0
M  V30 114 H 3.4545 -6.55812 -0.156914 0
M  V30 115 H 3.3715 -7.44178 1.33172 0
M  V30 116 H 4.6395 -7.79255 0.195462 0
M  V30 117 N 8.8686 -0.792821 -1.36206 0
M  V30 118 C 10.1176 -0.363353 -1.984 0
M  V30 119 C 10.4306 1.07172 -1.63626 0
M  V30 120 O 11.6366 1.60362 -2.19081 0
M  V30 121 C 10.0926 -0.59872 -3.54885 0
M  V30 122 C 9.7006 -2.04543 -3.9858 0
M  V30 123 C 11.4446 -0.233926 -4.23855 0
M  V30 124 C 9.3516 -2.22727 -5.47856 0
M  V30 125 H 8.2816 -0.13212 -0.742334 0
M  V30 126 H 10.9326 -0.974935 -1.55458 0
M  V30 127 H 9.3146 0.0826222 -3.95914 0
M  V30 128 H 10.4886 -2.76345 -3.68741 0
M  V30 129 H 8.8036 -2.36879 -3.42458 0
M  V30 130 H 11.4006 -0.348027 -5.33566 0
M  V30 131 H 11.7436 0.818351 -4.08177 0
M  V30 132 H 12.2766 -0.868639 -3.882 0
M  V30 133 H 9.0156 -3.2635 -5.68486 0
M  V30 134 H 8.5356 -1.55434 -5.7931 0
M  V30 135 H 10.2146 -2.03607 -6.14128 0
M  V30 136 N 10.3467 1.47872 -0.545128 0
M  V30 137 C 11.5867 2.04391 -0.0187854 0
M  V30 138 C 11.9507 1.41162 1.30144 0
M  V30 139 O 13.1517 1.88656 1.91474 0
M  V30 140 C 11.4227 3.57299 0.0850867 0
M  V30 141 S 12.9817 4.35221 0.559302 0
M  V30 142 H 9.7997 0.710737 -0.0193301 0
M  V30 143 H 12.4017 1.81395 -0.729125 0
M  V30 144 H 11.1057 4.00847 -0.880351 0
M  V30 145 H 10.6367 3.84773 0.819348 0
M  V30 146 H 12.6517 4.61571 1.82118 0
M  V30 147 N 11.8248 0.280983 1.55075 0
M  V30 148 C 13.0648 -0.335234 2.01632 0
M  V30 149 C 13.4288 -1.5261 1.16508 0
M  V30 150 O 14.6298 -2.21235 1.52672 0
M  V30 151 C 12.9008 -0.702172 3.50434 0
M  V30 152 S 14.4598 -1.30409 4.18974 0
M  V30 153 H 11.2778 -0.103967 0.703358 0
M  V30 154 H 13.8798 0.404187 1.91276 0
M  V30 155 H 12.5838 0.17333 4.10034 0
M  V30 156 H 12.1148 -1.4729 3.64786 0
M  V30 157 H 14.1298 -2.59253 4.23087 0
M  V30 158 N 13.3029 -1.57598 0.00835791 0
M  V30 159 C 14.5519 -1.90107 -0.673968 0
M  V30 160 C 14.8649 -0.884275 -1.7447 0
M  V30 161 O 16.0709 -1.09987 -2.48224 0
M  V30 162 C 14.5269 -3.37497 -1.24995 0
M  V30 163 C 14.1349 -4.47491 -0.2136 0
M  V30 164 C 15.8789 -3.79104 -1.90999 0
M  V30 165 C 13.7859 -5.85963 -0.80005 0
M  V30 166 H 12.7159 -0.709393 -0.255495 0
M  V30 167 H 15.3669 -1.83365 0.0702693 0
M  V30 168 H 13.7489 -3.39102 -2.04513 0
M  V30 169 H 14.9229 -4.57414 0.557596 0
M  V30 170 H 13.2379 -4.14956 0.346474 0
M  V30 171 H 15.8349 -4.79901 -2.35795 0
M  V30 172 H 16.1779 -3.1306 -2.74407 0
M  V30 173 H 16.7109 -3.79833 -1.18203 0
M  V30 174 H 13.4499 -6.555 -0.00456708 0
M  V30 175 H 12.9699 -5.79687 -1.54021 0
M  V30 176 H 14.6489 -6.33884 -1.29615 0
M  V30 177 N 14.781 0.264519 -1.55364 0
M  V30 178 C 16.029 0.993021 -1.76021 0
M  V30 179 C 16.35 1.86511 -0.569099 0
M  V30 180 O 15.62 1.91438 0.415735 0
M  V30 181 H 14.2 0.369639 -0.649135 0
M  V30 182 H 16.862 0.286707 -1.9278 0
M  V30 183 H 15.958 1.62502 -2.66457 0
M  V30 184 N 16.2591 1.48442 0.529413 0
M  V30 185 C 17.2221 1.62524 1.61612 0
M  V30 186 C 18.2221 0.498509 1.52877 0
M  V30 187 O 19.4121 0.76431 1.56537 0
M  V30 188 C 16.5441 1.59597 3.01233 0
M  V30 189 H 17.7371 2.59423 1.50465 0
M  V30 190 H 15.2901 1.37047 0.751514 0
M  V30 191 H 16.0251 0.641781 3.17886 0
M  V30 192 H 15.8101 2.41397 3.08982 0
M  V30 193 H 17.3001 1.72646 3.80241 0
M  V30 194 N 17.7372 -0.778329 1.37039 0
M  V30 195 C 18.9852 -1.53361 1.31623 0
M  V30 196 C 19.3062 -1.94739 -0.100831 0
M  V30 197 O 18.5762 -1.65797 -1.04347 0
M  V30 198 H 17.1562 -0.568794 0.484234 0
M  V30 199 H 19.8182 -0.926742 1.71457 0
M  V30 200 H 18.9142 -2.43606 1.95096 0
M  V30 201 N 19.2153 -1.21501 -1.00376 0
M  V30 202 C 20.4453 -1.05746 -1.77486 0
M  V30 203 C 20.8533 0.395655 -1.85017 0
M  V30 204 O 20.1963 1.28626 -1.31152 0
M  V30 205 C 20.2583 -1.58092 -3.22873 0
M  V30 206 C 19.9223 -3.06568 -3.38917 0
M  V30 207 C 20.9193 -4.04106 -3.271 0
M  V30 208 C 18.6043 -3.45799 -3.64319 0
M  V30 209 C 20.5983 -5.38862 -3.40451 0
M  V30 210 C 18.2853 -4.80707 -3.77311 0
M  V30 211 C 19.2833 -5.77047 -3.65384 0
M  V30 212 O 18.9713 -7.09507 -3.77961 0
M  V30 213 H 18.7033 -0.371778 -0.564586 0
M  V30 214 H 21.2573 -1.61319 -1.27143 0
M  V30 215 H 19.4873 -0.969163 -3.74358 0
M  V30 216 H 21.1763 -1.38162 -3.81662 0
M  V30 217 H 21.9423 -3.75141 -3.07399 0
M  V30 218 H 17.8213 -2.71344 -3.72684 0
M  V30 219 H 21.3653 -6.14041 -3.31058 0
M  V30 220 H 17.2623 -5.09357 -3.96517 0
M  V30 221 H 18.0303 -7.16935 -3.94901 0
M  V30 222 N 20.6934 1.19889 -1.02296 0
M  V30 223 C 21.9394 1.89701 -0.717033 0
M  V30 224 C 22.2724 1.7905 0.751989 0
M  V30 225 O 21.5474 1.17891 1.547 0
M  V30 226 C 21.8304 3.40858 -1.16136 0
M  V30 227 C 21.6834 3.60411 -2.69117 0
M  V30 228 C 23.0024 4.33876 -0.737549 0
M  V30 229 H 20.1214 0.688874 -0.261957 0
M  V30 230 H 22.7634 1.41154 -1.27183 0
M  V30 231 H 20.9134 3.82335 -0.689342 0
M  V30 232 H 22.5854 3.28145 -3.2422 0
M  V30 233 H 20.8284 3.03665 -3.0979 0
M  V30 234 H 21.4994 4.66396 -2.95261 0
M  V30 235 H 23.9754 4.00081 -1.14344 0
M  V30 236 H 22.8514 5.38242 -1.0764 0
M  V30 237 H 23.1124 4.40628 0.360436 0
M  V30 238 N 22.1715 0.800033 1.35784 0
M  V30 239 C 23.4195 0.376597 1.9856 0
M  V30 240 C 23.7405 -1.05812 1.63795 0
M  V30 241 O 23.0105 -1.73103 0.917171 0
M  V30 242 H 21.5905 0.136261 0.734467 0
M  V30 243 H 24.2525 1.02442 1.65806 0
M  V30 244 H 23.3485 0.477002 3.08433 0
M  V30 245 N 23.6496 -1.47581 0.552962 0
M  V30 246 C 24.8976 -2.02082 0.0272703 0
M  V30 247 C 25.2186 -1.4301 -1.32563 0
M  V30 248 O 24.4886 -0.603745 -1.86365 0
M  V30 249 H 23.0686 -0.746966 0.00709182 0
M  V30 250 H 25.7306 -1.81033 0.722008 0
M  V30 251 H 24.8266 -3.12034 -0.0639951 0
M  V30 252 N 25.1277 -0.289203 -1.54924 0
M  V30 253 C 26.5387 0.205791 -1.85562 0
M  V30 254 C 26.8897 1.54351 -1.2112 0
M  V30 255 O 26.0147 2.10435 -0.504601 0
M  V30 256 C 26.6097 0.380177 -3.3666 0
M  V30 257 C 25.1687 0.819395 -3.67373 0
M  V30 258 C 24.3157 -0.079159 -2.77187 0
M  V30 259 H 27.2667 -0.510577 -1.50262 0
M  V30 260 H 27.2877 1.21659 -3.60526 0
M  V30 261 H 26.7997 -0.593589 -3.83534 0
M  V30 262 H 24.9007 1.80413 -3.26009 0
M  V30 263 H 25.0137 0.646957 -4.74712 0
M  V30 264 H 23.3777 0.439565 -2.50878 0
M  V30 265 H 24.1607 -1.04906 -3.26878 0
M  V30 266 N 26.6058 1.57591 -0.0167156 0
M  V30 267 C 27.8338 1.95575 0.675128 0
M  V30 268 C 28.2488 0.892542 1.6637 0
M  V30 269 O 27.6058 -0.126912 1.82058 0
M  V30 270 C 27.6568 3.33608 1.39239 0
M  V30 271 O 27.3778 4.3585 0.443444 0
M  V30 272 C 28.8788 3.86151 2.17721 0
M  V30 273 H 26.0988 0.644423 0.186978 0
M  V30 274 H 28.6428 2.0437 -0.0728 0
M  V30 275 H 26.7978 3.2607 2.09182 0
M  V30 276 H 27.2118 5.158 0.951358 0
M  V30 277 H 28.6858 4.85114 2.63379 0
M  V30 278 H 29.1628 3.19738 3.01105 0
M  V30 279 H 29.7688 3.96918 1.52761 0
M  V30 280 N 28.0839 -0.256276 1.55502 0
M  V30 281 C 29.3239 -0.993081 1.78654 0
M  V30 282 C 29.6879 -1.8288 0.584724 0
M  V30 283 O 30.8889 -2.59665 0.694822 0
M  V30 284 C 29.1599 -1.83856 3.06483 0
M  V30 285 S 30.7189 -2.63573 3.5082 0
M  V30 286 H 27.5369 -0.334199 0.62756 0
M  V30 287 H 30.1389 -0.26184 1.93739 0
M  V30 288 H 28.8429 -1.21414 3.92029 0
M  V30 289 H 28.3739 -2.61271 2.94111 0
M  V30 290 H 30.3889 -3.86312 3.11412 0
M  V30 291 N 29.562 -1.4872 -0.521534 0
M  V30 292 C 30.787 -1.61101 -1.30618 0
M  V30 293 C 31.212 -0.274611 -1.86085 0
M  V30 294 O 30.57 0.754937 -1.64834 0
M  V30 295 C 30.618 -2.66709 -2.4269 0
M  V30 296 O 29.722 -2.24456 -3.45967 0
M  V30 297 H 29.063 -0.539921 -0.386499 0
M  V30 298 H 31.593 -1.94767 -0.626645 0
M  V30 299 H 31.603 -2.88245 -2.88754 0
M  V30 300 H 30.278 -3.63727 -2.01682 0
M  V30 301 H 28.855 -2.13168 -3.05964 0
M  V30 302 N 31.0401 0.771051 -1.3745 0
M  V30 303 C 32.2861 1.5319 -1.32894 0
M  V30 304 C 32.6191 1.94008 0.0862511 0
M  V30 305 O 31.8941 1.64124 1.04373 0
M  V30 306 C 32.1771 2.79648 -2.26868 0
M  V30 307 C 32.0301 2.45079 -3.77169 0
M  V30 308 C 33.3491 3.81583 -2.19277 0
M  V30 309 H 30.4681 0.555744 -0.484064 0
M  V30 310 H 33.1101 0.884492 -1.68157 0
M  V30 311 H 31.2601 3.34891 -1.96926 0
M  V30 312 H 32.9321 1.95745 -4.1771 0
M  V30 313 H 31.1751 1.77767 -3.95704 0
M  V30 314 H 31.8461 3.35478 -4.38359 0
M  V30 315 H 34.3221 3.35835 -2.45671 0
M  V30 316 H 33.1981 4.67787 -2.87171 0
M  V30 317 H 33.4591 4.25897 -1.18592 0
M  V30 318 N 32.5182 1.22032 0.997298 0
M  V30 319 C 33.7672 1.03637 1.73038 0
M  V30 320 C 34.0802 -0.429475 1.90827 0
M  V30 321 O 35.2862 -0.732995 2.61418 0
M  V30 322 C 33.7422 1.80582 3.11317 0
M  V30 323 C 33.3502 3.31387 3.01474 0
M  V30 324 C 35.0942 1.70621 3.88701 0
M  V30 325 C 33.0012 4.00791 4.3488 0
M  V30 326 H 31.9312 0.384179 0.648785 0
M  V30 327 H 34.5822 1.4584 1.11368 0
M  V30 328 H 32.9642 1.31175 3.73643 0
M  V30 329 H 34.1382 3.88155 2.4834 0
M  V30 330 H 32.4532 3.41976 2.37575 0
M  V30 331 H 35.0502 2.19799 4.87434 0
M  V30 332 H 35.3932 0.665823 4.10941 0
M  V30 333 H 35.9262 2.17547 3.33044 0
M  V30 334 H 32.6652 5.05064 4.1784 0
M  V30 335 H 32.1852 3.48811 4.87945 0
M  V30 336 H 33.8642 4.06139 5.03647 0
M  V30 337 N 33.9963 -1.19345 1.0293 0
M  V30 338 C 34.9593 -2.20793 0.615069 0
M  V30 339 C 35.9593 -1.57553 -0.321533 0
M  V30 340 O 37.1493 -1.73862 -0.108483 0
M  V30 341 C 34.2813 -3.40754 -0.0999222 0
M  V30 342 H 35.4743 -2.58955 1.51269 0
M  V30 343 H 33.0273 -1.3303 0.820534 0
M  V30 344 H 33.7623 -3.0811 -1.01187 0
M  V30 345 H 33.5473 -3.87889 0.57309 0
M  V30 346 H 35.0373 -4.15898 -0.376645 0
M  V30 347 N 35.4744 -0.807222 -1.35358 0
M  V30 348 C 36.4244 -0.190706 -2.27201 0
M  V30 349 C 37.4084 0.635838 -1.47804 0
M  V30 350 O 38.6004 0.492991 -1.69996 0
M  V30 351 C 35.7294 0.659337 -3.36909 0
M  V30 352 C 34.8154 -0.176971 -4.23731 0
M  V30 353 N 35.2064 -1.24029 -4.90357 0
M  V30 354 C 33.5044 0.0412953 -4.45981 0
M  V30 355 C 34.2054 -1.75092 -5.54723 0
M  V30 356 N 33.1814 -1.05727 -5.33219 0
M  V30 357 H 36.9834 -1.0043 -2.76208 0
M  V30 358 H 34.4974 -0.648445 -1.48892 0
M  V30 359 H 36.4944 1.11706 -4.01656 0
M  V30 360 H 35.1544 1.47127 -2.89454 0
M  V30 361 H 36.1654 -1.62295 -4.91814 0
M  V30 362 H 32.8424 0.82232 -4.09322 0
M  V30 363 H 34.2324 -2.63963 -6.17878 0
M  V30 364 N 36.9525 1.47285 -0.560781 0
M  V30 365 C 37.8855 2.27009 0.232821 0
M  V30 366 C 38.8635 1.34273 0.917039 0
M  V30 367 O 40.0475 1.63659 0.935315 0
M  V30 368 C 37.1745 3.11406 1.33206 0
M  V30 369 C 36.2205 4.19746 0.756019 0
M  V30 370 S 37.0535 5.34003 -0.400165 0
M  V30 371 C 38.2095 6.21964 0.700805 0
M  V30 372 H 38.4425 2.93971 -0.443683 0
M  V30 373 H 35.9755 1.50446 -0.347181 0
M  V30 374 H 37.9335 3.60601 1.96156 0
M  V30 375 H 36.5945 2.438 1.98041 0
M  V30 376 H 35.7875 4.78541 1.5816 0
M  V30 377 H 35.3895 3.73451 0.202619 0
M  V30 378 H 37.6815 6.58529 1.59202 0
M  V30 379 H 38.6245 7.07941 0.150126 0
M  V30 380 H 39.0325 5.5566 0.995083 0
M  V30 381 N 38.4306 0.297415 1.54768 0
M  V30 382 C 39.6706 -0.313829 2.01976 0
M  V30 383 C 40.0346 -1.51366 1.1812 0
M  V30 384 O 41.2356 -2.19603 1.5501 0
M  V30 385 C 39.5066 -0.664964 3.51159 0
M  V30 386 S 41.0656 -1.25958 4.20333 0
M  V30 387 H 37.8836 -0.0965014 0.704421 0
M  V30 388 H 40.4856 0.424451 1.90837 0
M  V30 389 H 39.1896 0.21681 4.09827 0
M  V30 390 H 38.7206 -1.43413 3.66328 0
M  V30 391 H 40.7356 -2.54751 4.25813 0
M  V30 392 N 39.9087 -1.5758 0.0250728 0
M  V30 393 C 41.3197 -1.79476 -0.514323 0
M  V30 394 C 41.6707 -0.934956 -1.72491 0
M  V30 395 O 40.7957 -0.144245 -2.15919 0
M  V30 396 C 41.3907 -3.25503 -0.939842 0
M  V30 397 C 39.9497 -3.48408 -1.42438 0
M  V30 398 C 39.0967 -2.74583 -0.387201 0
M  V30 399 H 42.0477 -1.567 0.25113 0
M  V30 400 H 42.0687 -3.34992 -1.80445 0
M  V30 401 H 41.5807 -3.88056 -0.0585628 0
M  V30 402 H 39.6817 -2.91103 -2.32572 0
M  V30 403 H 39.7947 -4.57119 -1.43455 0
M  V30 404 H 38.1587 -2.39942 -0.854409 0
M  V30 405 H 38.9417 -3.39849 0.485543 0
M  V30 406 N 41.3868 0.248026 -1.55636 0
M  V30 407 C 42.2968 1.32859 -1.93354 0
M  V30 408 C 43.3128 1.52719 -0.833838 0
M  V30 409 O 44.4888 1.66363 -1.13513 0
M  V30 410 C 41.5538 2.66337 -2.21958 0
M  V30 411 C 40.6148 2.55008 -3.45354 0
M  V30 412 C 39.8478 3.82121 -3.72584 0
M  V30 413 O 40.0708 4.83951 -3.01907 0
M  V30 414 O 39.0048 3.80822 -4.6611 0
M  V30 415 H 42.8308 1.03862 -2.85388 0
M  V30 416 H 40.4158 0.448686 -1.42503 0
M  V30 417 H 42.2978 3.45216 -2.4167 0
M  V30 418 H 40.9728 2.95068 -1.33103 0
M  V30 419 H 39.8798 1.7442 -3.30951 0
M  V30 420 H 41.2128 2.31222 -4.34508 0
M  V30 421 N 42.8649 1.48995 0.513639 0
M  V30 422 C 44.1139 1.57093 1.2651 0
M  V30 423 C 44.4269 0.257091 1.93903 0
M  V30 424 O 45.6329 0.216478 2.70636 0
M  V30 425 C 44.0889 2.77118 2.29638 0
M  V30 426 C 43.6969 4.15209 1.68241 0
M  V30 427 C 45.4409 2.94538 3.05692 0
M  V30 428 C 43.3479 5.26474 2.69406 0
M  V30 429 H 42.2779 0.584876 0.475854 0
M  V30 430 H 44.9289 1.7536 0.540487 0
M  V30 431 H 43.3109 2.52319 3.05207 0
M  V30 432 H 44.4849 4.50094 0.987505 0
M  V30 433 H 42.7999 4.03042 1.04623 0
M  V30 434 H 45.3969 3.74832 3.8132 0
M  V30 435 H 45.7399 2.04614 3.62545 0
M  V30 436 H 46.2729 3.19316 2.37238 0
M  V30 437 H 43.0119 6.18417 2.17351 0
M  V30 438 H 42.5319 4.96058 3.37175 0
M  V30 439 H 44.2109 5.55277 3.32078 0
M  V30 440 N 44.343 -0.763751 1.37857 0
M  V30 441 C 45.759 -1.06542 1.18832 0
M  V30 442 C 45.959 -2.01478 0.0299722 0
M  V30 443 O 45.015 -2.4458 -0.627447 0
M  V30 444 C 46.328 -1.65525 2.51042 0
M  V30 445 C 47.876 -1.77745 2.57635 0
M  V30 446 C 48.351 -2.4014 3.89996 0
M  V30 447 N 49.842 -2.47582 3.91481 0
M  V30 448 C 50.577 -2.96732 4.9065 0
M  V30 449 N 50.073 -3.45993 6.00217 0
M  V30 450 N 51.866 -2.95679 4.78048 0
M  V30 451 H 44.017 -0.133556 2.1198 0
M  V30 452 H 46.28 -0.121879 0.940133 0
M  V30 453 H 45.986 -1.03236 3.36207 0
M  V30 454 H 45.86 -2.64719 2.68707 0
M  V30 455 H 48.247 -2.39164 1.72872 0
M  V30 456 H 48.328 -0.772836 2.43846 0
M  V30 457 H 47.972 -1.79358 4.75177 0
M  V30 458 H 47.902 -3.41223 4.01092 0
M  V30 459 H 50.393 -2.1273 3.12337 0
M  V30 460 H 50.706 -3.81922 6.7183 0
M  V30 461 H 49.051 -3.44077 6.03851 0
M  V30 462 H 52.242 -2.56499 3.91568 0
M  V30 463 H 52.415 -3.33672 5.55488 0
M  V30 464 N 45.8211 -1.22559 -0.990812 0
M  V30 465 C 47.0671 -1.05297 -1.73322 0
M  V30 466 C 47.4001 0.410655 -1.89808 0
M  V30 467 O 46.6751 1.30439 -1.44277 0
M  V30 468 C 46.9581 -1.76713 -3.13759 0
M  V30 469 C 46.8111 -3.30684 -3.04907 0
M  V30 470 C 48.1301 -1.52121 -4.12974 0
M  V30 471 H 45.2491 -0.38392 -0.629106 0
M  V30 472 H 47.8911 -1.50926 -1.15418 0
M  V30 473 H 46.0411 -1.37924 -3.63193 0
M  V30 474 H 47.7131 -3.7893 -2.63077 0
M  V30 475 H 45.9561 -3.60253 -2.41661 0
M  V30 476 H 46.6271 -3.75833 -4.04294 0
M  V30 477 H 49.1031 -1.85819 -3.72304 0
M  V30 478 H 47.9791 -2.04582 -5.0935 0
M  V30 479 H 48.2401 -0.454257 -4.3976 0
M  V30 480 N 47.2992 1.18797 -1.03562 0
M  V30 481 C 48.5272 1.92599 -0.755869 0
M  V30 482 C 48.9422 1.75886 0.686271 0
M  V30 483 O 48.2992 1.08517 1.46732 0
M  V30 484 C 48.3502 3.44159 -1.10619 0
M  V30 485 O 48.0712 3.60341 -2.4917 0
M  V30 486 C 49.5722 4.3507 -0.850214 0
M  V30 487 H 46.7922 0.611587 -0.276048 0
M  V30 488 H 49.3362 1.50742 -1.38192 0
M  V30 489 H 47.4912 3.83823 -0.525194 0
M  V30 490 H 47.9052 4.54128 -2.62427 0
M  V30 491 H 49.3792 5.39989 -1.14523 0
M  V30 492 H 49.8562 4.38673 0.215176 0
M  V30 493 H 50.4622 4.01097 -1.41426 0
M  V30 494 N 48.7773 0.814389 1.34928 0
M  V30 495 C 50.0233 0.399013 1.98836 0
M  V30 496 C 50.3563 -1.03314 1.64438 0
M  V30 497 O 49.6313 -1.71811 0.911659 0
M  V30 498 C 49.9143 0.591629 3.55207 0
M  V30 499 C 49.7673 2.06928 3.99376 0
M  V30 500 C 51.0863 0.022199 4.40094 0
M  V30 501 H 48.2053 0.146451 0.722303 0
M  V30 502 H 50.8473 1.02537 1.59957 0
M  V30 503 H 48.9973 0.0584441 3.88456 0
M  V30 504 H 50.6693 2.66544 3.76499 0
M  V30 505 H 48.9123 2.56287 3.49999 0
M  V30 506 H 49.5833 2.1549 5.08201 0
M  V30 507 H 52.0593 0.477643 4.13349 0
M  V30 508 H 50.9353 0.186832 5.48582 0
M  V30 509 H 51.1963 -1.07215 4.28902 0
M  V30 510 N 50.2554 -1.46986 0.568584 0
M  V30 511 C 51.5014 -2.02741 0.0488709 0
M  V30 512 C 51.8344 -1.44077 -1.30214 0
M  V30 513 O 51.1094 -0.600552 -1.84996 0
M  V30 514 C 51.3924 -3.60086 -0.032047 0
M  V30 515 C 51.2454 -4.29162 1.34686 0
M  V30 516 C 52.5644 -4.33838 -0.739798 0
M  V30 517 H 49.6834 -0.736749 0.0192338 0
M  V30 518 H 52.3254 -1.75289 0.733065 0
M  V30 519 H 50.4754 -3.83606 -0.61473 0
M  V30 520 H 52.1474 -4.16948 1.97362 0
M  V30 521 H 50.3904 -3.89073 1.91846 0
M  V30 522 H 51.0614 -5.37826 1.24285 0
M  V30 523 H 53.5374 -4.15378 -0.244939 0
M  V30 524 H 52.4134 -5.43537 -0.765406 0
M  V30 525 H 52.6744 -4.03875 -1.79827 0
M  V30 526 N 51.7335 -0.305618 -1.54608 0
M  V30 527 C 53.0105 0.355652 -1.92339 0
M  V30 528 C 53.3905 1.71324 -1.23335 0
M  V30 529 O 52.7385 2.25473 -0.370702 0
M  V30 530 C 52.9485 0.46572 -3.45879 0
M  V30 531 C 54.2965 0.734426 -4.182 0
M  V30 532 O 55.3205 0.54935 -3.51938 0
M  V30 533 O 54.1795 1.09024 -5.35515 0
M  V30 534 H 51.2735 0.199666 -0.802535 0
M  V30 535 H 53.8195 -0.354017 -1.65966 0
M  V30 536 H 52.5915 -0.488461 -3.88239 0
M  V30 537 H 52.2145 1.22367 -3.78301 0
M  V30 538 N 53.2116 1.57565 -0.0334293 0
M  V30 539 C 54.4576 1.92262 0.645226 0
M  V30 540 C 54.7906 0.910543 1.71531 0
M  V30 541 O 54.0656 -0.066099 1.94388 0
M  V30 542 C 54.3486 3.37422 1.2577 0
M  V30 543 C 54.2016 4.49369 0.196891 0
M  V30 544 C 55.5206 3.82628 2.17449 0
M  V30 545 H 52.6396 0.699171 0.233085 0
M  V30 546 H 55.2816 1.89779 -0.0915694 0
M  V30 547 H 53.4316 3.39669 1.88566 0
M  V30 548 H 55.1036 4.59254 -0.433962 0
M  V30 549 H 53.3466 4.31168 -0.477137 0
M  V30 550 H 54.0176 5.47978 0.665124 0
M  V30 551 H 56.4936 3.82145 1.64634 0
M  V30 552 H 55.3696 4.84883 2.57254 0
M  V30 553 H 55.6306 3.18376 3.0674 0
M  V30 554 N 54.6897 -0.239769 1.55765 0
M  V30 555 C 55.6377 -1.31668 1.91745 0
M  V30 556 C 56.6317 -1.49462 0.797338 0
M  V30 557 O 57.8377 -1.50852 0.982021 0
M  V30 558 H 54.2127 -0.441048 0.609082 0
M  V30 559 H 56.1837 -0.985923 2.81642 0
M  V30 560 C 54.9327 -2.66368 2.2348 0
M  V30 561 H 54.2557 -2.53478 3.09175 0
M  V30 562 H 55.6957 -3.40578 2.52553 0
M  V30 563 C 54.1547 -3.20002 1.05359 0
M  V30 564 O 54.6847 -4.00538 0.305261 0
M  V30 565 N 52.8907 -2.78126 0.842292 0
M  V30 566 H 52.4377 -2.12742 1.45253 0
M  V30 567 H 52.3957 -3.14354 0.053652 0
M  V30 568 N 56.1678 -1.49265 -0.50573 0
M  V30 569 C 57.0778 -1.68312 -1.63427 0
M  V30 570 C 58.0938 -0.565682 -1.64548 0
M  V30 571 O 59.2698 -0.839801 -1.83055 0
M  V30 572 C 56.3348 -1.74107 -2.99813 0
M  V30 573 C 55.3958 -2.97653 -3.09356 0
M  V30 574 C 54.6288 -3.03163 -4.39236 0
M  V30 575 O 54.8518 -2.16396 -5.27758 0
M  V30 576 O 53.7858 -3.9558 -4.53652 0
M  V30 577 H 57.6118 -2.63907 -1.50289 0
M  V30 578 H 55.1968 -1.32951 -0.681502 0
M  V30 579 H 57.0788 -1.803 -3.80881 0
M  V30 580 H 55.7538 -0.816901 -3.13223 0
M  V30 581 H 54.6608 -2.96981 -2.27493 0
M  V30 582 H 55.9938 -3.89535 -3.00871 0
M  V30 583 N 57.6459 0.756429 -1.3826 0
M  V30 584 C 58.8709 1.55077 -1.37717 0
M  V30 585 C 59.2959 1.88073 0.03164 0
M  V30 586 O 58.6539 1.50364 1.01293 0
M  V30 587 C 58.7019 2.8283 -2.23695 0
M  V30 588 O 57.8059 3.77862 -1.6521 0
M  V30 589 H 57.1469 0.469152 -0.469885 0
M  V30 590 H 59.6769 0.935019 -1.81985 0
M  V30 591 H 59.6869 3.31783 -2.37453 0
M  V30 592 H 58.3619 2.58144 -3.2609 0
M  V30 593 H 56.9389 3.36555 -1.60578 0
M  V30 594 N 59.124 1.23083 0.984299 0
M  V30 595 C 60.54 0.992637 1.24975 0
M  V30 596 C 60.74 -0.308618 1.99123 0
M  V30 597 O 59.796 -1.02905 2.30579 0
M  V30 598 C 61.109 2.19698 2.05312 0
M  V30 599 C 62.657 2.24147 2.18465 0
M  V30 600 C 63.132 3.44157 3.02192 0
M  V30 601 N 64.623 3.44372 3.09777 0
M  V30 602 C 65.358 4.33886 3.74874 0
M  V30 603 N 64.854 5.3363 4.41827 0
M  V30 604 N 66.647 4.21639 3.71721 0
M  V30 605 H 58.798 2.06731 0.487453 0
M  V30 606 H 61.061 0.906339 0.277944 0
M  V30 607 H 60.767 3.1411 1.58201 0
M  V30 608 H 60.641 2.20465 3.06064 0
M  V30 609 H 63.028 1.30277 2.64786 0
M  V30 610 H 63.109 2.27415 1.17115 0
M  V30 611 H 62.753 4.38332 2.56568 0
M  V30 612 H 62.683 3.3813 4.03702 0
M  V30 613 H 65.174 2.72201 2.62135 0
M  V30 614 H 65.487 5.98196 4.89266 0
M  V30 615 H 63.832 5.37534 4.40548 0
M  V30 616 H 67.023 3.42962 3.18582 0
M  V30 617 H 67.196 4.91604 4.22173 0
M  V30 618 N 60.6021 -1.18246 1.0419 0
M  V30 619 C 61.8511 -1.87588 0.741194 0
M  V30 620 C 62.1641 -1.81303 -0.734066 0
M  V30 621 O 63.3701 -2.46019 -1.14834 0
M  V30 622 C 61.8261 -3.36538 1.27555 0
M  V30 623 C 61.4341 -3.51349 2.77953 0
M  V30 624 C 63.1781 -4.11273 1.05143 0
M  V30 625 C 61.0851 -4.94265 3.2474 0
M  V30 626 H 60.0151 -0.702622 0.273565 0
M  V30 627 H 62.6661 -1.33601 1.25789 0
M  V30 628 H 61.0481 -3.9 0.686703 0
M  V30 629 H 62.2221 -3.08153 3.42605 0
M  V30 630 H 60.5371 -2.90022 2.98791 0
M  V30 631 H 63.1341 -5.16689 1.37611 0
M  V30 632 H 63.4771 -4.16298 -0.0112774 0
M  V30 633 H 64.0101 -3.63987 1.60495 0
M  V30 634 H 60.7491 -4.94408 4.30396 0
M  V30 635 H 60.2691 -5.38172 2.64823 0
M  V30 636 H 61.9481 -5.62987 3.18834 0
M  V30 637 N 62.0802 -0.821533 -1.34494 0
M  V30 638 C 63.0282 -0.230702 -2.31453 0
M  V30 639 C 64.0222 0.627793 -1.57338 0
M  V30 640 O 65.2282 0.519288 -1.72347 0
M  V30 641 H 61.6032 -0.0558577 -0.749923 0
M  V30 642 H 63.5742 -1.06332 -2.78812 0
M  V30 643 C 62.3232 0.59391 -3.4259 0
M  V30 644 H 61.6462 -0.0573588 -3.99759 0
M  V30 645 H 63.0862 0.973446 -4.12674 0
M  V30 646 C 61.5452 1.76568 -2.86924 0
M  V30 647 O 62.0752 2.8638 -2.81691 0
M  V30 648 N 60.2812 1.58198 -2.43766 0
M  V30 649 H 59.8282 0.68872 -2.48222 0
M  V30 650 H 59.7862 2.36752 -2.06871 0
M  V30 651 N 63.5583 1.46682 -0.576371 0
M  V30 652 C 64.5213 2.28707 0.150239 0
M  V30 653 C 65.5213 1.38035 0.824794 0
M  V30 654 O 66.7113 1.60476 0.677719 0
M  V30 655 C 63.8433 3.18248 1.22192 0
M  V30 656 H 65.0363 2.94423 -0.570521 0
M  V30 657 H 62.5893 1.52688 -0.334078 0
M  V30 658 H 63.3243 2.57265 1.97447 0
M  V30 659 H 63.1093 3.85 0.742812 0
M  V30 660 H 64.5993 3.80001 1.73172 0
M  V30 661 N 65.0364 0.313813 1.54444 0
M  V30 662 C 66.2824 -0.284918 2.01395 0
M  V30 663 C 66.6374 -1.50537 1.19818 0
M  V30 664 O 65.9304 -1.89692 0.269748 0
M  V30 665 C 66.1244 -0.680386 3.50864 0
M  V30 666 C 65.9534 0.500198 4.4691 0
M  V30 667 C 64.7234 0.996248 4.95382 0
M  V30 668 C 66.9214 1.34928 4.96285 0
M  V30 669 N 64.9034 2.14226 5.75309 0
M  V30 670 C 66.2744 2.3426 5.7404 0
M  V30 671 C 68.3294 1.37818 4.78446 0
M  V30 672 C 67.0324 3.36272 6.35856 0
M  V30 673 C 69.0584 2.38695 5.4109 0
M  V30 674 C 68.4204 3.36755 6.18688 0
M  V30 675 H 64.5194 -0.0683689 0.779006 0
M  V30 676 H 67.1034 0.44664 1.89508 0
M  V30 677 H 65.2744 -1.38109 3.63016 0
M  V30 678 H 67.0064 -1.25975 3.84594 0
M  V30 679 H 63.7614 0.56912 4.70168 0
M  V30 680 H 64.1854 2.72005 6.19953 0
M  V30 681 H 68.8274 0.633747 4.18023 0
M  V30 682 H 66.5454 4.11627 6.95405 0
M  V30 683 H 70.1314 2.41721 5.29209 0
M  V30 684 H 69.0114 4.13535 6.66302 0
M  V30 685 N 66.5145 -1.57545 0.0417849 0
M  V30 686 C 67.4625 -2.12148 -0.953723 0
M  V30 687 C 68.4565 -1.05104 -1.32852 0
M  V30 688 O 69.6625 -1.23524 -1.30927 0
M  V30 689 H 66.0375 -0.677957 -0.325389 0
M  V30 690 H 68.0085 -2.94707 -0.467991 0
M  V30 691 C 66.7575 -2.6739 -2.22257 0
M  V30 692 H 66.0805 -3.49413 -1.94295 0
M  V30 693 H 67.5205 -3.09227 -2.90094 0
M  V30 694 C 65.9795 -1.60723 -2.96091 0
M  V30 695 O 66.5095 -1.01449 -3.88679 0
M  V30 696 N 64.7155 -1.32466 -2.58652 0
M  V30 697 H 64.2625 -1.80856 -1.83437 0
M  V30 698 H 64.2205 -0.61325 -3.08361 0
M  V30 699 N 67.9926 0.231505 -1.5589 0
M  V30 700 C 69.2176 0.978689 -1.82856 0
M  V30 701 C 69.6426 1.77559 -0.620846 0
M  V30 702 O 69.0006 1.76119 0.430305 0
M  V30 703 C 69.0486 1.87997 -3.07716 0
M  V30 704 O 68.1526 2.97393 -2.85712 0
M  V30 705 H 67.4936 0.277663 -0.603158 0
M  V30 706 H 70.0236 0.24783 -2.03093 0
M  V30 707 H 70.0336 2.2917 -3.37558 0
M  V30 708 H 68.7086 1.29417 -3.95252 0
M  V30 709 H 67.2856 2.60238 -2.67078 0
M  V30 710 N 69.4707 1.49531 0.497807 0
M  V30 711 C 70.8817 1.52344 1.07927 0
M  V30 712 C 71.2327 0.311469 1.93712 0
M  V30 713 O 70.3577 -0.578405 2.08527 0
M  V30 714 C 70.9527 2.76062 1.96405 0
M  V30 715 C 69.5117 2.81643 2.49709 0
M  V30 716 C 68.6587 2.46299 1.27404 0
M  V30 717 H 71.6097 1.56182 0.281576 0
M  V30 718 H 71.6307 2.56405 2.81135 0
M  V30 719 H 71.1427 3.64254 1.33943 0
M  V30 720 H 69.2437 1.97739 3.15801 0
M  V30 721 H 69.3567 3.83891 2.86643 0
M  V30 722 H 67.7207 1.98148 1.60029 0
M  V30 723 H 68.5037 3.36769 0.66645 0
M  V30 724 N 70.9488 -0.749086 1.3866 0
M  V30 725 C 72.1768 -1.53834 1.38358 0
M  V30 726 C 72.5918 -1.88783 -0.0255219 0
M  V30 727 O 71.9488 -1.53101 -0.993292 0
M  V30 728 C 71.9998 -2.83468 2.2434 0
M  V30 729 O 71.7208 -2.50008 3.5976 0
M  V30 730 C 73.2218 -3.7758 2.32267 0
M  V30 731 H 70.4418 -0.47585 0.473083 0
M  V30 732 H 72.9858 -0.926726 1.82297 0
M  V30 733 H 71.1408 -3.40995 1.83851 0
M  V30 734 H 71.5548 -3.33182 4.05081 0
M  V30 735 H 73.0288 -4.65478 2.96706 0
M  V30 736 H 73.5058 -4.18334 1.33765 0
M  V30 737 H 74.1118 -3.25976 2.73166 0
M  V30 738 N 72.4269 -1.23603 -0.977757 0
M  V30 739 C 73.3569 -1.04401 -2.0886 0
M  V30 740 C 74.3379 0.0399052 -1.70053 0
M  V30 741 O 75.5229 -0.125246 -1.93796 0
M  V30 742 C 72.6529 -0.637269 -3.41403 0
M  V30 743 C 71.6069 -1.66883 -3.94124 0
M  V30 744 C 70.9329 -1.11745 -5.22893 0
M  V30 745 C 72.2329 -3.06247 -4.23096 0
M  V30 746 H 73.9269 -1.97316 -2.25182 0
M  V30 747 H 71.4729 -0.950096 -1.08209 0
M  V30 748 H 73.4259 -0.48998 -4.18542 0
M  V30 749 H 72.1499 0.327557 -3.24953 0
M  V30 750 H 70.8089 -1.80416 -3.19133 0
M  V30 751 H 70.4569 -0.143527 -5.02795 0
M  V30 752 H 70.1569 -1.80672 -5.59134 0
M  V30 753 H 71.6809 -0.982067 -6.02651 0
M  V30 754 H 73.0949 -2.96001 -4.90975 0
M  V30 755 H 71.4919 -3.72436 -4.70544 0
M  V30 756 H 72.5619 -3.55041 -3.30263 0
M  V30 757 N 73.905 1.17692 -1.04816 0
M  V30 758 C 75.316 1.69501 -0.782698 0
M  V30 759 C 75.667 1.83456 0.695577 0
M  V30 760 O 74.792 1.51942 1.54086 0
M  V30 761 C 75.387 3.07874 -1.41419 0
M  V30 762 C 73.946 3.56864 -1.19686 0
M  V30 763 C 73.093 2.3322 -1.50012 0
M  V30 764 H 76.044 1.02262 -1.2136 0
M  V30 765 H 76.065 3.71528 -0.821428 0
M  V30 766 H 75.577 2.97685 -2.49009 0
M  V30 767 H 73.678 3.72337 -0.140043 0
M  V30 768 H 73.791 4.39851 -1.89916 0
M  V30 769 H 72.155 2.37501 -0.920071 0
M  V30 770 H 72.938 2.25644 -2.58727 0
M  V30 771 N 75.3831 0.828654 1.34056 0
M  V30 772 C 76.6321 0.415828 1.97367 0
M  V30 773 C 76.9451 -1.02796 1.6641 0
M  V30 774 O 78.1511 -1.54497 2.23255 0
M  V30 775 C 76.6071 0.692601 3.53173 0
M  V30 776 C 76.2151 2.15038 3.93017 0
M  V30 777 C 77.9591 0.346222 4.23086 0
M  V30 778 C 75.8661 2.37174 5.41758 0
M  V30 779 H 74.7961 0.151755 0.738571 0
M  V30 780 H 77.4471 1.01581 1.52819 0
M  V30 781 H 75.8291 0.0223764 3.95994 0
M  V30 782 H 77.0031 2.86024 3.61285 0
M  V30 783 H 75.3181 2.45875 3.36057 0
M  V30 784 H 77.9151 0.48937 5.32456 0
M  V30 785 H 78.2581 -0.709842 4.10204 0
M  V30 786 H 78.7911 0.971258 3.85761 0
M  V30 787 H 75.5301 3.41308 5.59633 0
M  V30 788 H 75.0501 1.70738 5.74986 0
M  V30 789 H 76.7291 2.19818 6.08514 0
M  V30 790 N 76.8612 -1.46375 0.584142 0
M  V30 791 C 78.0912 -2.06461 0.0758195 0
M  V30 792 C 78.4992 -1.43322 -1.23512 0
M  V30 793 O 77.8422 -0.533216 -1.75791 0
M  V30 794 C 77.9042 -3.59131 -0.162773 0
M  V30 795 C 77.5682 -4.4447 1.06279 0
M  V30 796 C 78.5652 -4.80918 1.97519 0
M  V30 797 C 76.2502 -4.85584 1.28504 0
M  V30 798 C 78.2442 -5.57309 3.09331 0
M  V30 799 C 75.9312 -5.61734 2.4062 0
M  V30 800 C 76.9292 -5.9751 3.30863 0
M  V30 801 O 76.6172 -6.72121 4.41032 0
M  V30 802 H 76.3492 -0.673745 0.0551725 0
M  V30 803 H 78.9032 -1.88969 0.804984 0
M  V30 804 H 77.1332 -3.74936 -0.946565 0
M  V30 805 H 78.8222 -4.0114 -0.619782 0
M  V30 806 H 79.5882 -4.49732 1.81565 0
M  V30 807 H 75.4672 -4.57187 0.591702 0
M  V30 808 H 79.0112 -5.85152 3.79793 0
M  V30 809 H 74.9082 -5.92334 2.56537 0
M  V30 810 H 75.6762 -6.90547 4.39417 0
M  V30 811 N 78.3393 -0.321999 -1.54275 0
M  V30 812 C 79.2493 0.553631 -2.27974 0
M  V30 813 C 80.2653 1.13054 -1.32268 0
M  V30 814 O 81.4413 1.15084 -1.6528 0
M  V30 815 C 78.5063 1.69927 -3.02201 0
M  V30 816 C 77.5673 1.15433 -4.1349 0
M  V30 817 C 76.8003 2.24537 -4.84168 0
M  V30 818 O 77.0233 3.44852 -4.5435 0
M  V30 819 O 75.9573 1.90044 -5.7111 0
M  V30 820 H 79.7833 -0.0448345 -3.03667 0
M  V30 821 H 77.3683 -0.0877418 -1.49142 0
M  V30 822 H 79.2503 2.3663 -3.48689 0
M  V30 823 H 77.9253 2.28395 -2.29385 0
M  V30 824 H 76.8323 0.452436 -3.71354 0
M  V30 825 H 78.1653 0.614805 -4.88345 0
M  V30 826 N 79.8174 1.5752 -0.0501392 0
M  V30 827 C 81.2284 1.80271 0.485705 0
M  V30 828 C 81.5794 0.96228 1.70981 0
M  V30 829 O 80.7044 0.178578 2.15662 0
M  V30 830 C 81.2994 3.26957 0.887938 0
M  V30 831 C 79.8584 3.5063 1.36877 0
M  V30 832 C 79.0054 2.75165 0.343468 0
M  V30 833 H 81.9564 1.56281 -0.276028 0
M  V30 834 H 81.9774 3.37821 1.75093 0
M  V30 835 H 81.4894 3.881 -0.0031809 0
M  V30 836 H 79.5904 2.94766 2.27911 0
M  V30 837 H 79.7034 4.59343 1.36164 0
M  V30 838 H 78.0674 2.4127 0.816128 0
M  V30 839 H 78.8504 3.39034 -0.539548 0
M  V30 840 N 81.2955 -0.223234 1.56011 0
M  V30 841 C 82.5435 -0.946003 1.78592 0
M  V30 842 C 82.8645 -1.84936 0.618349 0
M  V30 843 O 82.1345 -1.92473 -0.364833 0
M  V30 844 H 80.7145 -0.352298 0.658707 0
M  V30 845 H 83.3765 -0.235494 1.93472 0
M  V30 846 H 82.4725 -1.55381 2.70672 0
M  V30 847 N 82.7736 -1.49793 -0.48987 0
M  V30 848 C 83.7036 -1.70201 -1.59856 0
M  V30 849 C 84.6846 -0.55076 -1.60937 0
M  V30 850 O 85.8696 -0.787841 -1.77501 0
M  V30 851 C 82.9996 -1.77882 -2.98287 0
M  V30 852 C 81.9536 -2.92907 -3.12073 0
M  V30 853 C 81.2796 -2.85712 -4.51965 0
M  V30 854 C 82.5796 -4.3369 -2.91051 0
M  V30 855 H 84.2736 -2.63025 -1.43032 0
M  V30 856 H 81.8196 -1.26574 -0.686664 0
M  V30 857 H 83.7726 -1.90744 -3.75759 0
M  V30 858 H 82.4966 -0.816653 -3.16225 0
M  V30 859 H 81.1556 -2.79665 -2.37029 0
M  V30 860 H 80.8036 -1.8738 -4.66795 0
M  V30 861 H 80.5036 -3.62921 -4.62128 0
M  V30 862 H 82.0276 -3.00598 -5.31482 0
M  V30 863 H 83.4416 -4.47555 -3.58284 0
M  V30 864 H 81.8386 -5.12205 -3.12675 0
M  V30 865 H 82.9086 -4.47362 -1.87071 0
M  V30 866 N 84.2517 0.741722 -1.39055 0
M  V30 867 C 85.1987 1.85566 -1.37237 0
M  V30 868 C 86.1687 1.64457 -0.233072 0
M  V30 869 O 87.3537 1.85957 -0.427147 0
M  V30 870 C 84.4937 3.23004 -1.215 0
M  V30 871 C 83.6067 3.55864 -2.44918 0
M  V30 872 C 82.7417 4.82669 -2.21821 0
M  V30 873 C 81.7807 5.08351 -3.40948 0
M  V30 874 N 80.9177 6.26356 -3.17211 0
M  V30 875 H 85.7577 1.86455 -2.32462 0
M  V30 876 H 83.2947 0.911176 -1.15482 0
M  V30 877 H 85.2527 4.02331 -1.10389 0
M  V30 878 H 83.8827 3.21411 -0.29908 0
M  V30 879 H 82.9347 2.7129 -2.66657 0
M  V30 880 H 84.2467 3.70765 -3.33668 0
M  V30 881 H 83.4007 5.69962 -2.07914 0
M  V30 882 H 82.1397 4.69929 -1.30454 0
M  V30 883 H 81.1447 4.19522 -3.55361 0
M  V30 884 H 82.3697 5.22981 -4.33207 0
M  V30 885 H 80.3157 6.14917 -2.28502 0
M  V30 886 H 80.2327 6.41813 -3.99515 0
M  V30 887 H 81.5007 7.16506 -3.06984 0
M  V30 888 N 85.7298 1.2412 0.971189 0
M  V30 889 C 86.6398 1.04747 2.09917 0
M  V30 890 C 87.6558 -0.0107162 1.73997 0
M  V30 891 O 88.8318 0.186714 2.00533 0
M  V30 892 C 85.8968 0.650828 3.40537 0
M  V30 893 C 84.9578 1.7851 3.90426 0
M  V30 894 C 84.1908 1.40729 5.14812 0
M  V30 895 O 84.4138 0.29557 5.69634 0
M  V30 896 O 83.3478 2.23168 5.58999 0
M  V30 897 H 87.1738 1.99304 2.29154 0
M  V30 898 H 84.7588 1.02908 1.08307 0
M  V30 899 H 86.6408 0.440992 4.19086 0
M  V30 900 H 85.3158 -0.265649 3.22608 0
M  V30 901 H 84.2228 2.04966 3.12953 0
M  V30 902 H 85.5558 2.68023 4.12825 0
M  V30 903 N 87.2079 -1.17134 1.05439 0
M  V30 904 C 88.4539 -1.87733 0.767077 0
M  V30 905 C 88.7869 -1.8098 -0.704253 0
M  V30 906 O 88.0619 -1.21951 -1.5152 0
M  V30 907 C 88.3449 -3.37659 1.25133 0
M  V30 908 C 88.1979 -3.53149 2.78578 0
M  V30 909 C 89.5169 -4.31768 0.852324 0
M  V30 910 H 86.6359 -0.681687 0.280129 0
M  V30 911 H 89.2779 -1.37732 1.30881 0
M  V30 912 H 87.4279 -3.80373 0.790469 0
M  V30 913 H 89.0999 -3.19434 3.32806 0
M  V30 914 H 87.3429 -2.95345 3.17732 0
M  V30 915 H 88.0139 -4.58403 3.07523 0
M  V30 916 H 90.4899 -3.96909 1.24911 0
M  V30 917 H 89.3659 -5.35199 1.21873 0
M  V30 918 H 89.6269 -4.41429 -0.243485 0
M  V30 919 N 88.686 -0.835752 -1.33615 0
M  V30 920 C 89.932 -0.430596 -1.98176 0
M  V30 921 C 90.265 1.00684 -1.66061 0
M  V30 922 O 89.54 1.70339 -0.938877 0
M  V30 923 C 89.823 -0.648065 -3.5422 0
M  V30 924 C 89.676 -2.13255 -3.96033 0
M  V30 925 C 90.995 -0.0922113 -4.40003 0
M  V30 926 H 88.114 -0.157924 -0.719881 0
M  V30 927 H 90.756 -1.05069 -1.58305 0
M  V30 928 H 88.906 -0.120237 -3.88314 0
M  V30 929 H 90.578 -2.725 -3.72211 0
M  V30 930 H 88.821 -2.61823 -3.45878 0
M  V30 931 H 89.492 -2.23547 -5.04708 0
M  V30 932 H 91.968 -0.543343 -4.12537 0
M  V30 933 H 90.844 -0.274083 -5.48215 0
M  V30 934 H 91.105 1.00378 -4.30554 0
M  V30 935 N 90.1641 1.46063 -0.591896 0
M  V30 936 C 91.0741 2.34192 0.13831 0
M  V30 937 C 92.0901 1.50305 0.876608 0
M  V30 938 O 93.2661 1.8315 0.837728 0
M  V30 939 C 90.3311 3.27656 1.13326 0
M  V30 940 C 89.3921 4.27445 0.39863 0
M  V30 941 C 88.6251 5.16443 1.34618 0
M  V30 942 O 88.8481 5.08553 2.58321 0
M  V30 943 O 87.7821 5.95843 0.851768 0
M  V30 944 H 91.6081 2.98002 -0.58552 0
M  V30 945 H 89.1931 1.45188 -0.352239 0
M  V30 946 H 91.0751 3.85291 1.70671 0
M  V30 947 H 89.7501 2.6643 1.83839 0
M  V30 948 H 88.6571 3.73471 -0.216895 0
M  V30 949 H 89.9901 4.91482 -0.265709 0
M  V30 950 N 91.6422 0.330177 1.54103 0
M  V30 951 C 92.8672 -0.274893 2.0557 0
M  V30 952 C 93.2922 -1.44487 1.20437 0
M  V30 953 O 92.6502 -1.80021 0.214991 0
M  V30 954 C 92.6982 -0.68079 3.54115 0
M  V30 955 O 91.8022 -1.7824 3.71893 0
M  V30 956 H 91.1432 -0.0483849 0.662235 0
M  V30 957 H 93.6732 0.480508 1.98878 0
M  V30 958 H 93.6832 -0.961635 3.96505 0
M  V30 959 H 92.3582 0.174903 4.15532 0
M  V30 960 H 90.9352 -1.49985 3.41407 0
M  V30 961 N 93.1203 -1.57491 0.0584922 0
M  V30 962 C 94.3603 -1.94851 -0.617458 0
M  V30 963 C 94.7243 -0.937165 -1.67575 0
M  V30 964 O 95.9253 -1.19795 -2.40629 0
M  V30 965 C 94.1963 -3.36955 -1.19147 0
M  V30 966 S 95.7553 -3.96277 -1.8844 0
M  V30 967 H 92.5733 -0.681539 -0.202547 0
M  V30 968 H 95.1753 -1.95073 0.129176 0
M  V30 969 H 93.8793 -4.08355 -0.409215 0
M  V30 970 H 93.4103 -3.40245 -1.97476 0
M  V30 971 H 95.4253 -3.82099 -3.16568 0
M  V30 972 N 94.5984 0.214957 -1.56127 0
M  V30 973 C 96.0144 0.564948 -1.49267 0
M  V30 974 C 96.2144 1.86827 -0.754838 0
M  V30 975 O 95.2704 2.50745 -0.297198 0
M  V30 976 C 96.5834 0.638071 -2.93852 0
M  V30 977 C 98.1314 0.728253 -3.0441 0
M  V30 978 C 98.6064 0.832663 -4.50367 0
M  V30 979 N 100.097 0.896712 -4.54437 0
M  V30 980 C 100.832 0.997324 -5.6466 0
M  V30 981 N 100.328 1.06147 -6.8462 0
M  V30 982 N 102.121 1.03297 -5.52527 0
M  V30 983 H 94.2724 -0.640211 -2.02522 0
M  V30 984 H 96.5354 -0.225507 -0.920788 0
M  V30 985 H 96.2414 -0.250126 -3.50809 0
M  V30 986 H 96.1154 1.49947 -3.46115 0
M  V30 987 H 98.5024 1.60689 -2.47514 0
M  V30 988 H 98.5834 -0.158952 -2.55306 0
M  V30 989 H 98.2274 -0.0415417 -5.07883 0
M  V30 990 H 98.1574 1.73538 -4.97184 0
M  V30 991 H 100.648 0.857188 -3.6805 0
M  V30 992 H 100.961 1.1382 -7.64372 0
M  V30 993 H 99.3064 1.03049 -6.87318 0
M  V30 994 H 102.497 0.979558 -4.57736 0
M  V30 995 H 102.67 1.10793 -6.38458 0
M  V30 996 N 96.0765 1.50051 0.48192 0
M  V30 997 C 97.3245 1.60181 1.23234 0
M  V30 998 C 97.6455 0.299176 1.92691 0
M  V30 999 O 96.9155 -0.682708 1.83619 0
M  V30 1000 H 95.4955 0.590232 0.457859 0
M  V30 1001 H 98.1575 1.86775 0.556881 0
M  V30 1002 H 97.2535 2.40753 1.98607 0
M  V30 1003 N 97.5546 -0.734337 1.39446 0
M  V30 1004 C 98.5016 -1.84835 1.38219 0
M  V30 1005 C 99.4716 -1.64331 0.24179 0
M  V30 1006 O 100.657 -1.85728 0.437002 0
M  V30 1007 C 97.7966 -3.22355 1.23212 0
M  V30 1008 C 96.9096 -3.5456 2.46801 0
M  V30 1009 C 96.0446 -4.81485 2.24377 0
M  V30 1010 C 95.0836 -5.06536 3.43639 0
M  V30 1011 N 94.2206 -6.24665 3.20528 0
M  V30 1012 H 99.0606 -1.85219 2.33448 0
M  V30 1013 H 96.5976 -0.905039 1.15963 0
M  V30 1014 H 98.5556 -4.0174 1.12522 0
M  V30 1015 H 97.1856 -3.21248 0.316121 0
M  V30 1016 H 96.2376 -2.69872 2.68092 0
M  V30 1017 H 97.5496 -3.6899 3.3563 0
M  V30 1018 H 96.7036 -5.68852 2.10933 0
M  V30 1019 H 95.4426 -4.6923 1.32944 0
M  V30 1020 H 94.4476 -4.17632 3.5758 0
M  V30 1021 H 95.6726 -5.20676 4.35974 0
M  V30 1022 H 93.6186 -6.13696 2.3176 0
M  V30 1023 H 93.5356 -6.39685 4.02913 0
M  V30 1024 H 94.8036 -7.14868 3.10779 0
M  V30 1025 N 99.0327 -1.24633 -0.964593 0
M  V30 1026 C 99.9807 -1.03917 -2.08096 0
M  V30 1027 C 100.975 0.0268581 -1.69379 0
M  V30 1028 O 102.181 -0.127952 -1.79545 0
M  V30 1029 H 98.5557 -0.319044 -0.680966 0
M  V30 1030 H 100.527 -1.98581 -2.22729 0
M  V30 1031 C 99.2757 -0.663983 -3.41301 0
M  V30 1032 H 98.5987 -1.47605 -3.71555 0
M  V30 1033 H 100.039 -0.558663 -4.20303 0
M  V30 1034 C 98.4977 0.629169 -3.30973 0
M  V30 1035 O 99.0277 1.67404 -3.65156 0
M  V30 1036 N 97.2337 0.611057 -2.84103 0
M  V30 1037 H 96.7807 -0.239593 -2.56483 0
M  V30 1038 H 96.7387 1.47647 -2.77575 0
M  V30 1039 N 100.511 1.16574 -1.06058 0
M  V30 1040 C 101.441 2.23057 -0.690488 0
M  V30 1041 C 102.422 1.67141 0.315901 0
M  V30 1042 O 103.607 1.93253 0.191556 0
M  V30 1043 C 100.737 3.47222 -0.073625 0
M  V30 1044 C 99.6908 4.16016 -1.00573 0
M  V30 1045 C 99.0168 5.34104 -0.252289 0
M  V30 1046 C 100.317 4.67264 -2.33371 0
M  V30 1047 H 102.011 2.54271 -1.58072 0
M  V30 1048 H 99.5568 1.22218 -0.76149 0
M  V30 1049 H 101.51 4.20939 0.19714 0
M  V30 1050 H 100.234 3.15302 0.85161 0
M  V30 1051 H 98.8928 3.44223 -1.2612 0
M  V30 1052 H 98.5408 4.98437 0.675988 0
M  V30 1053 H 98.2408 5.81072 -0.873455 0
M  V30 1054 H 99.7648 6.10599 0.0109857 0
M  V30 1055 H 101.179 5.32573 -2.12223 0
M  V30 1056 H 99.5758 5.24843 -2.90963 0
M  V30 1057 H 100.646 3.83602 -2.96611 0
M  V30 1058 N 101.989 0.842826 1.3317 0
M  V30 1059 C 103.236 0.440447 1.97652 0
M  V30 1060 C 103.564 -1.00123 1.6675 0
M  V30 1061 O 102.819 -1.7155 0.941761 0
M  V30 1062 C 103.118 0.612607 3.52111 0
M  V30 1063 C 102.784 2.02297 4.02972 0
M  V30 1064 C 101.446 2.40874 4.16573 0
M  V30 1065 C 103.798 2.94402 4.30089 0
M  V30 1066 C 101.126 3.70852 4.54627 0
M  V30 1067 C 103.478 4.23865 4.69597 0
M  V30 1068 C 102.142 4.62392 4.81404 0
M  V30 1069 H 101.412 0.161171 0.72326 0
M  V30 1070 H 104.059 1.07061 1.58777 0
M  V30 1071 H 102.364 -0.100849 3.9167 0
M  V30 1072 H 104.061 0.2815 4.00011 0
M  V30 1073 H 100.651 1.71338 3.92863 0
M  V30 1074 H 104.835 2.65835 4.19101 0
M  V30 1075 H 100.091 4.00501 4.61962 0
M  V30 1076 H 104.265 4.95306 4.89536 0
M  V30 1077 H 101.892 5.63154 5.10648 0
M  V30 1078 N 103.467 -1.45747 0.599634 0
M  V30 1079 C 104.714 -2.02292 0.0917284 0
M  V30 1080 C 105.042 -1.46906 -1.27472 0
M  V30 1081 O 104.297 -0.630652 -1.8526 0
M  V30 1082 C 104.596 -3.57399 -0.00602758 0
M  V30 1083 C 104.262 -4.31902 1.29503 0
M  V30 1084 C 102.924 -4.51974 1.65144 0
M  V30 1085 C 105.276 -4.74551 2.15525 0
M  V30 1086 C 102.604 -5.11949 2.86574 0
M  V30 1087 C 104.956 -5.35868 3.36196 0
M  V30 1088 C 103.62 -5.54165 3.72099 0
M  V30 1089 H 102.89 -0.740239 0.0335658 0
M  V30 1090 H 105.537 -1.7491 0.779661 0
M  V30 1091 H 103.842 -3.84014 -0.777183 0
M  V30 1092 H 105.539 -3.98846 -0.415038 0
M  V30 1093 H 102.129 -4.16588 1.00761 0
M  V30 1094 H 106.313 -4.58784 1.8929 0
M  V30 1095 H 101.569 -5.24305 3.14507 0
M  V30 1096 H 105.743 -5.6787 4.03109 0
M  V30 1097 H 103.37 -6.00406 4.6628 0
M  V30 1098 N 104.945 -0.338344 -1.53925 0
M  V30 1099 C 106.17 0.263987 -2.05713 0
M  V30 1100 C 106.595 1.43847 -1.21201 0
M  V30 1101 O 105.953 1.79904 -0.224535 0
M  V30 1102 C 106.001 0.662 -3.54471 0
M  V30 1103 O 105.105 1.76265 -3.72833 0
M  V30 1104 H 104.446 0.0448722 -0.662482 0
M  V30 1105 H 106.976 -0.491048 -1.9862 0
M  V30 1106 H 106.986 0.940594 -3.9701 0
M  V30 1107 H 105.661 -0.196937 -4.15433 0
M  V30 1108 H 104.238 1.48173 -3.42198 0
M  V30 1109 N 106.423 1.57458 -0.0668435 0
M  V30 1110 C 107.651 1.97624 0.612565 0
M  V30 1111 C 108.066 0.94502 1.63447 0
M  V30 1112 O 107.423 -0.0689276 1.8237 0
M  V30 1113 C 107.474 3.37869 1.28555 0
M  V30 1114 O 107.195 4.3704 0.304557 0
M  V30 1115 C 108.696 3.92882 2.05325 0
M  V30 1116 H 105.916 0.650045 0.166381 0
M  V30 1117 H 108.46 2.04035 -0.137782 0
M  V30 1118 H 106.615 3.3256 1.98702 0
M  V30 1119 H 107.029 5.18565 0.786779 0
M  V30 1120 H 108.503 4.93247 2.47812 0
M  V30 1121 H 108.98 3.29156 2.9078 0
M  V30 1122 H 109.586 4.01577 1.40056 0
M  V30 1123 N 107.901 -0.206675 1.56239 0
M  V30 1124 C 108.849 -1.27571 1.94495 0
M  V30 1125 C 109.843 -1.47737 0.828862 0
M  V30 1126 O 111.049 -1.48735 1.0138 0
M  V30 1127 H 107.424 -0.428029 0.6183 0
M  V30 1128 H 109.395 -0.925961 2.8367 0
M  V30 1129 C 108.144 -2.61568 2.29079 0
M  V30 1130 H 107.467 -2.46863 3.14482 0
M  V30 1131 H 108.907 -3.35144 2.5972 0
M  V30 1132 C 107.366 -3.17695 1.12123 0
M  V30 1133 O 107.896 -3.99801 0.390153 0
M  V30 1134 N 106.102 -2.76276 0.901097 0
M  V30 1135 H 105.649 -2.09613 1.49733 0
M  V30 1136 H 105.607 -3.1417 0.120319 0
M  V30 1137 N 109.379 -1.50304 -0.473955 0
M  V30 1138 C 110.628 -1.60392 -1.22301 0
M  V30 1139 C 110.941 -0.308411 -1.93153 0
M  V30 1140 O 112.147 -0.288156 -2.69966 0
M  V30 1141 C 110.603 -2.83109 -2.2221 0
M  V30 1142 C 110.211 -4.19524 -1.57173 0
M  V30 1143 C 111.955 -3.0254 -2.97775 0
M  V30 1144 C 109.862 -5.33431 -2.55353 0
M  V30 1145 H 108.792 -0.597286 -0.460179 0
M  V30 1146 H 111.443 -1.76731 -0.493803 0
M  V30 1147 H 109.825 -2.60322 -2.9841 0
M  V30 1148 H 110.999 -4.52554 -0.867824 0
M  V30 1149 H 109.314 -4.05674 -0.939002 0
M  V30 1150 H 111.911 -3.84811 -3.71248 0
M  V30 1151 H 112.254 -2.14154 -3.56992 0
M  V30 1152 H 112.787 -3.25494 -2.28688 0
M  V30 1153 H 109.526 -6.23962 -2.00878 0
M  V30 1154 H 109.046 -5.04823 -3.23904 0
M  V30 1155 H 110.725 -5.63887 -3.17239 0
M  V30 1156 N 110.857 0.726932 -1.39834 0
M  V30 1157 C 112.134 1.47902 -1.28001 0
M  V30 1158 C 112.514 2.1083 0.106789 0
M  V30 1159 O 111.862 1.99242 1.11869 0
M  V30 1160 C 112.072 2.52392 -2.41038 0
M  V30 1161 C 113.42 3.18546 -2.80737 0
M  V30 1162 O 114.444 2.62708 -2.40547 0
M  V30 1163 O 113.303 4.19604 -3.50135 0
M  V30 1164 H 110.397 0.657163 -0.502062 0
M  V30 1165 H 112.943 0.760071 -1.51727 0
M  V30 1166 H 111.715 2.04329 -3.33715 0
M  V30 1167 H 111.338 3.31837 -2.19021 0
M  V30 1168 N 112.336 1.25143 0.95797 0
M  V30 1169 C 113.613 1.00472 1.67823 0
M  V30 1170 C 113.993 -0.470056 2.058 0
M  V30 1171 O 113.341 -1.44663 1.76875 0
M  V30 1172 C 113.551 1.9372 2.90299 0
M  V30 1173 C 114.899 2.21371 3.62326 0
M  V30 1174 O 115.923 1.91451 3.00375 0
M  V30 1175 O 114.782 2.72231 4.7387 0
M  V30 1176 H 111.876 0.380752 0.734137 0
M  V30 1177 H 114.422 1.36283 1.01119 0
M  V30 1178 H 113.194 2.93316 2.59001 0
M  V30 1179 H 112.817 1.58286 3.64735 0
M  V30 1180 N 113.814 -1.1601 1.06675 0
M  V30 1181 C 114.777 -2.18724 0.685001 0
M  V30 1182 C 115.777 -1.58496 -0.271246 0
M  V30 1183 O 116.967 -1.74119 -0.0531156 0
M  V30 1184 C 114.099 -3.40899 0.00853648 0
M  V30 1185 H 115.292 -2.54011 1.59431 0
M  V30 1186 H 112.845 -1.30352 0.862441 0
M  V30 1187 H 113.58 -3.11173 -0.913337 0
M  V30 1188 H 113.365 -3.8587 0.696204 0
M  V30 1189 H 114.855 -4.16886 -0.24414 0
M  V30 1190 N 115.292 -0.849877 -1.32721 0
M  V30 1191 C 116.541 -0.447175 -1.96681 0
M  V30 1192 C 116.854 1.00135 -1.68025 0
M  V30 1193 O 118.06 1.50926 -2.25685 0
M  V30 1194 C 116.516 -0.7487 -3.52026 0
M  V30 1195 C 116.124 -2.21264 -3.89546 0
M  V30 1196 C 117.868 -0.413487 -4.22481 0
M  V30 1197 C 115.775 -2.45763 -5.37917 0
M  V30 1198 H 114.705 -0.163486 -0.736063 0
M  V30 1199 H 117.356 -1.03999 -1.51183 0
M  V30 1200 H 115.738 -0.0853727 -3.95908 0
M  V30 1201 H 116.912 -2.91736 -3.56689 0
M  V30 1202 H 115.227 -2.5119 -3.32103 0
M  V30 1203 H 117.824 -0.574017 -5.3161 0
M  V30 1204 H 118.167 0.644492 -4.11281 0
M  V30 1205 H 118.7 -1.03251 -3.84167 0
M  V30 1206 H 115.439 -3.50168 -5.54132 0
M  V30 1207 H 114.959 -1.79864 -5.72197 0
M  V30 1208 H 116.638 -2.29471 -6.0494 0
M  V30 1209 N 116.77 1.45427 -0.607355 0
M  V30 1210 C 117.717 2.3053 0.111625 0
M  V30 1211 C 118.687 1.4209 0.860216 0
M  V30 1212 O 119.872 1.71019 0.845998 0
M  V30 1213 C 117.012 3.26992 1.10319 0
M  V30 1214 C 116.125 4.30535 0.355493 0
M  V30 1215 C 115.26 5.14105 1.33676 0
M  V30 1216 C 114.299 6.09376 0.576862 0
M  V30 1217 N 113.436 6.85727 1.5074 0
M  V30 1218 H 118.276 2.91477 -0.620093 0
M  V30 1219 H 115.813 1.43631 -0.317594 0
M  V30 1220 H 117.771 3.81385 1.6912 0
M  V30 1221 H 116.401 2.67799 1.80232 0
M  V30 1222 H 115.453 3.78805 -0.348023 0
M  V30 1223 H 116.765 4.98235 -0.237423 0
M  V30 1224 H 115.919 5.72897 1.99684 0
M  V30 1225 H 114.658 4.46423 1.9636 0
M  V30 1226 H 113.663 5.49715 -0.0968519 0
M  V30 1227 H 114.888 6.79085 -0.0449341 0
M  V30 1228 H 112.834 6.20735 2.12189 0
M  V30 1229 H 112.751 7.49778 0.967913 0
M  V30 1230 H 114.019 7.4906 2.15706 0
M  V30 1231 N 118.248 0.346503 1.53744 0
M  V30 1232 C 119.158 -0.517293 2.28826 0
M  V30 1233 C 120.174 -1.10935 1.3405 0
M  V30 1234 O 121.35 -1.1244 1.6709 0
M  V30 1235 C 118.415 -1.65098 3.04866 0
M  V30 1236 C 117.476 -1.0884 4.15274 0
M  V30 1237 C 116.709 -2.16806 4.87679 0
M  V30 1238 O 116.932 -3.3758 4.59778 0
M  V30 1239 O 115.866 -1.80934 5.74061 0
M  V30 1240 H 119.692 0.0931396 3.03557 0
M  V30 1241 H 117.277 0.111458 1.48984 0
M  V30 1242 H 119.159 -2.31053 3.5241 0
M  V30 1243 H 117.834 -2.24717 2.32989 0
M  V30 1244 H 116.741 -0.3933 3.72027 0
M  V30 1245 H 118.074 -0.537036 4.89261 0
M  V30 1246 N 119.726 -1.57421 0.075193 0
M  V30 1247 C 120.689 -2.11791 -0.876203 0
M  V30 1248 C 121.689 -1.04268 -1.22412 0
M  V30 1249 O 122.879 -1.30242 -1.15684 0
M  V30 1250 C 120.011 -2.62207 -2.17854 0
M  V30 1251 H 121.204 -2.9716 -0.40444 0
M  V30 1252 H 118.757 -1.55333 -0.173557 0
M  V30 1253 H 119.492 -1.803 -2.6956 0
M  V30 1254 H 119.277 -3.40802 -1.93897 0
M  V30 1255 H 120.767 -3.04335 -2.85955 0
M  V30 1256 N 121.204 0.198386 -1.56346 0
M  V30 1257 C 122.481 0.944982 -1.71258 0
M  V30 1258 C 122.861 2.0151 -0.629048 0
M  V30 1259 O 122.209 2.25639 0.360473 0
M  V30 1260 C 122.419 1.5344 -3.1346 0
M  V30 1261 C 123.767 2.01778 -3.73591 0
M  V30 1262 O 124.791 1.63288 -3.16568 0
M  V30 1263 O 123.65 2.72594 -4.73661 0
M  V30 1264 H 120.744 0.442939 -0.69838 0
M  V30 1265 H 123.29 0.188342 -1.68652 0
M  V30 1266 H 122.062 0.762869 -3.83792 0
M  V30 1267 H 121.685 2.35596 -3.20282 0
M  V30 1268 N 122.682 1.50554 0.465978 0
M  V30 1269 C 123.612 1.72722 1.57128 0
M  V30 1270 C 124.593 0.576294 1.6004 0
M  V30 1271 O 125.778 0.81598 1.76225 0
M  V30 1272 C 122.908 1.82605 2.95419 0
M  V30 1273 C 121.862 2.97835 3.07373 0
M  V30 1274 C 121.188 2.92867 4.47363 0
M  V30 1275 C 122.488 4.38265 2.84114 0
M  V30 1276 H 124.182 2.65267 1.38829 0
M  V30 1277 H 121.728 1.2765 0.666441 0
M  V30 1278 H 123.681 1.96698 3.72677 0
M  V30 1279 H 122.405 0.866858 3.14886 0
M  V30 1280 H 121.064 2.83401 2.3255 0
M  V30 1281 H 120.712 1.94783 4.63755 0
M  V30 1282 H 120.412 3.70227 4.56296 0
M  V30 1283 H 121.936 3.09015 5.26633 0
M  V30 1284 H 123.35 4.53198 3.51118 0
M  V30 1285 H 121.747 5.17115 3.04487 0
M  V30 1286 H 122.817 4.50281 1.7993 0
M  V30 1287 N 124.16 -0.719506 1.40217 0
M  V30 1288 C 125.406 -1.48152 1.38488 0
M  V30 1289 C 125.739 -1.94195 -0.0141867 0
M  V30 1290 O 125.014 -1.67884 -0.982096 0
M  V30 1291 C 125.297 -2.71035 2.37091 0
M  V30 1292 C 125.15 -2.30912 3.86005 0
M  V30 1293 C 126.469 -3.73182 2.33288 0
M  V30 1294 H 123.588 -0.537395 0.504357 0
M  V30 1295 H 126.23 -0.821472 1.71324 0
M  V30 1296 H 124.38 -3.27352 2.0922 0
M  V30 1297 H 126.052 -1.80107 4.24687 0
M  V30 1298 H 124.295 -1.62958 4.02029 0
M  V30 1299 H 124.966 -3.18978 4.50508 0
M  V30 1300 H 127.442 -3.26485 2.57966 0
M  V30 1301 H 126.318 -4.56806 3.04334 0
M  V30 1302 H 126.579 -4.21202 1.34317 0
M  V30 1303 N 125.638 -1.25649 -0.95132 0
M  V30 1304 C 126.885 -1.10594 -1.69633 0
M  V30 1305 C 127.213 0.352515 -1.91279 0
M  V30 1306 O 126.468 1.27601 -1.4838 0
M  V30 1307 C 126.767 -1.80909 -3.08231 0
M  V30 1308 C 126.433 -3.30825 -3.06375 0
M  V30 1309 C 125.095 -3.71722 -3.05576 0
M  V30 1310 C 127.447 -4.26589 -2.99452 0
M  V30 1311 C 124.775 -5.06788 -2.95606 0
M  V30 1312 C 127.127 -5.61683 -2.91024 0
M  V30 1313 C 125.791 -6.01904 -2.88562 0
M  V30 1314 H 125.061 -0.404691 -0.620731 0
M  V30 1315 H 127.708 -1.55964 -1.11119 0
M  V30 1316 H 126.013 -1.27979 -3.70309 0
M  V30 1317 H 127.71 -1.6671 -3.64704 0
M  V30 1318 H 124.3 -2.98287 -3.07771 0
M  V30 1319 H 128.484 -3.95982 -2.99185 0
M  V30 1320 H 123.74 -5.37126 -2.92071 0
M  V30 1321 H 127.914 -6.35578 -2.84629 0
M  V30 1322 H 125.541 -7.06521 -2.80593 0
M  V30 1323 N 127.117 1.15442 -1.07289 0
M  V30 1324 C 128.366 1.85557 -0.790669 0
M  V30 1325 C 128.679 1.83186 0.685739 0
M  V30 1326 O 129.885 2.48977 1.0827 0
M  V30 1327 C 128.341 3.33038 -1.36433 0
M  V30 1328 C 127.949 3.43856 -2.8717 0
M  V30 1329 C 129.693 4.0834 -1.1601 0
M  V30 1330 C 127.6 4.85482 -3.3773 0
M  V30 1331 H 126.53 0.695122 -0.292098 0
M  V30 1332 H 129.181 1.30219 -1.29287 0
M  V30 1333 H 127.563 3.88043 -0.789864 0
M  V30 1334 H 128.737 2.98961 -3.50655 0
M  V30 1335 H 127.052 2.81998 -3.06376 0
M  V30 1336 H 129.649 5.12859 -1.51262 0
M  V30 1337 H 129.992 4.16182 -0.0991007 0
M  V30 1338 H 130.525 3.59603 -1.70089 0
M  V30 1339 H 127.264 4.82823 -4.43353 0
M  V30 1340 H 126.784 5.30961 -2.78999 0
M  V30 1341 H 128.463 5.54335 -3.33648 0
M  V30 1342 N 128.595 0.856903 1.32268 0
M  V30 1343 C 129.82 0.474569 2.01897 0
M  V30 1344 C 130.245 -0.921766 1.63967 0
M  V30 1345 O 129.603 -1.60589 0.84148 0
M  V30 1346 C 129.651 0.623799 3.55164 0
M  V30 1347 O 128.755 -0.342459 4.10976 0
M  V30 1348 H 128.096 0.190422 0.63611 0
M  V30 1349 H 130.626 1.15672 1.68764 0
M  V30 1350 H 130.636 0.512169 4.04773 0
M  V30 1351 H 129.311 1.64202 3.82113 0
M  V30 1352 H 127.888 -0.18688 3.72431 0
M  V30 1353 N 130.073 -1.45103 0.615059 0
M  V30 1354 C 131.319 -2.02483 0.113347 0
M  V30 1355 C 131.652 -1.48146 -1.25564 0
M  V30 1356 O 130.927 -0.659104 -1.82992 0
M  V30 1357 C 131.21 -3.60005 0.0825278 0
M  V30 1358 C 131.063 -4.2466 1.48271 0
M  V30 1359 C 132.382 -4.35972 -0.601401 0
M  V30 1360 H 129.501 -0.735764 0.0426632 0
M  V30 1361 H 132.143 -1.72868 0.788461 0
M  V30 1362 H 130.293 -3.85367 -0.492378 0
M  V30 1363 H 131.965 -4.10458 2.10527 0
M  V30 1364 H 130.208 -3.82772 2.04127 0
M  V30 1365 H 130.879 -5.336 1.41332 0
M  V30 1366 H 133.355 -4.15947 -0.112666 0
M  V30 1367 H 132.231 -5.45697 -0.592097 0
M  V30 1368 H 132.492 -4.09391 -1.66887 0
M  V30 1369 N 131.551 -0.354651 -1.53558 0
M  V30 1370 C 132.499 0.512195 -2.26891 0
M  V30 1371 C 133.493 1.09263 -1.29452 0
M  V30 1372 O 134.699 1.03709 -1.47121 0
M  V30 1373 H 131.074 0.183878 -0.729173 0
M  V30 1374 H 133.045 -0.128202 -2.98124 0
M  V30 1375 C 131.794 1.64563 -3.06291 0
M  V30 1376 H 131.117 1.20829 -3.81104 0
M  V30 1377 H 132.557 2.22711 -3.60799 0
M  V30 1378 C 131.016 2.58158 -2.16462 0
M  V30 1379 O 131.546 3.60695 -1.76811 0
M  V30 1380 N 129.752 2.27096 -1.81317 0
M  V30 1381 H 129.299 1.43751 -2.1376 0
M  V30 1382 H 129.257 2.89975 -1.21498 0
M  V30 1383 N 133.029 1.57378 -0.0835403 0
M  V30 1384 C 134.257 1.98263 0.59157 0
M  V30 1385 C 134.672 0.962302 1.62435 0
M  V30 1386 O 134.029 -0.049581 1.82433 0
M  V30 1387 C 134.08 3.39214 1.24965 0
M  V30 1388 O 133.801 4.37339 0.258186 0
M  V30 1389 C 135.302 3.95038 2.01147 0
M  V30 1390 H 132.522 0.651773 0.159477 0
M  V30 1391 H 135.066 2.03878 -0.159415 0
M  V30 1392 H 133.221 3.34649 1.95164 0
M  V30 1393 H 133.635 5.19371 0.731734 0
M  V30 1394 H 135.109 4.95848 2.42567 0
M  V30 1395 H 135.586 3.32222 2.87272 0
M  V30 1396 H 136.192 4.0304 1.35789 0
M  V30 1397 N 134.507 -0.190092 1.56449 0
M  V30 1398 C 135.918 -0.754312 1.70784 0
M  V30 1399 C 136.269 -1.83631 0.690951 0
M  V30 1400 O 135.394 -2.15868 -0.151604 0
M  V30 1401 C 135.989 -1.37503 3.09642 0
M  V30 1402 C 134.548 -1.88628 3.25725 0
M  V30 1403 C 133.695 -0.758098 2.66736 0
M  V30 1404 H 136.646 0.0350524 1.58661 0
M  V30 1405 H 136.667 -2.2445 3.0725 0
M  V30 1406 H 136.179 -0.587302 3.83631 0
M  V30 1407 H 134.28 -2.70103 2.56661 0
M  V30 1408 H 134.393 -2.04462 4.3328 0
M  V30 1409 H 132.757 -1.17369 2.26046 0
M  V30 1410 H 133.54 0.0174705 3.43296 0
M  V30 1411 N 135.985 -1.50799 -0.457987 0
M  V30 1412 C 137.213 -1.66218 -1.23203 0
M  V30 1413 C 137.628 -0.350894 -1.85511 0
M  V30 1414 O 136.985 0.668546 -1.69814 0
M  V30 1415 C 137.036 -2.76291 -2.33121 0
M  V30 1416 O 136.757 -4.02338 -1.73366 0
M  V30 1417 C 138.258 -3.028 -3.2377 0
M  V30 1418 H 135.478 -0.558361 -0.372121 0
M  V30 1419 H 138.022 -1.97099 -0.545179 0
M  V30 1420 H 136.177 -2.48068 -2.97558 0
M  V30 1421 H 136.591 -4.63312 -2.4585 0
M  V30 1422 H 138.065 -3.8345 -3.97077 0
M  V30 1423 H 138.542 -2.14385 -3.83322 0
M  V30 1424 H 139.148 -3.32604 -2.65056 0
M  V30 1425 N 137.463 0.71206 -1.40597 0
M  V30 1426 C 138.41 1.82613 -1.41142 0
M  V30 1427 C 139.38 1.63925 -0.267903 0
M  V30 1428 O 140.565 1.85009 -0.466495 0
M  V30 1429 C 137.705 3.20354 -1.28324 0
M  V30 1430 C 136.818 3.50589 -2.52411 0
M  V30 1431 C 135.953 4.77855 -2.32009 0
M  V30 1432 C 134.992 5.01005 -3.51654 0
M  V30 1433 N 134.129 6.19487 -3.30425 0
M  V30 1434 H 138.969 1.81482 -2.36365 0
M  V30 1435 H 136.506 0.886475 -1.17388 0
M  V30 1436 H 138.464 3.99899 -1.18899 0
M  V30 1437 H 137.094 3.20705 -0.367189 0
M  V30 1438 H 136.146 2.65573 -2.72351 0
M  V30 1439 H 137.458 3.63604 -3.41458 0
M  V30 1440 H 136.612 5.65424 -2.19956 0
M  V30 1441 H 135.351 4.67056 -1.40392 0
M  V30 1442 H 134.356 4.1189 -3.64179 0
M  V30 1443 H 135.581 5.13674 -4.44202 0
M  V30 1444 H 133.527 6.09932 -2.41494 0
M  V30 1445 H 133.444 6.33194 -4.13039 0
M  V30 1446 H 134.712 7.09834 -3.22113 0
M  V30 1447 N 138.941 1.26152 0.944643 0
M  V30 1448 C 140.169 1.14259 1.72489 0
M  V30 1449 C 140.584 -0.302555 1.8636 0
M  V30 1450 O 139.941 -1.20741 1.36849 0
M  V30 1451 C 139.992 1.80266 3.13347 0
M  V30 1452 O 139.713 3.19133 3.00143 0
M  V30 1453 C 141.214 1.74283 4.07603 0
M  V30 1454 H 138.434 0.398051 0.540181 0
M  V30 1455 H 140.978 1.66706 1.18446 0
M  V30 1456 H 139.133 1.31766 3.64303 0
M  V30 1457 H 139.547 3.51744 3.89071 0
M  V30 1458 H 141.021 2.25111 5.04013 0
M  V30 1459 H 141.498 0.708631 4.33446 0
M  V30 1460 H 142.104 2.22319 3.62567 0
M  V30 1461 N 140.419 -1.14872 1.07899 0
M  V30 1462 C 141.649 -1.89386 0.825631 0
M  V30 1463 C 142.057 -1.78565 -0.625406 0
M  V30 1464 O 141.4 -1.13918 -1.44113 0
M  V30 1465 C 141.462 -3.40206 1.16191 0
M  V30 1466 C 141.126 -3.74812 2.61467 0
M  V30 1467 C 142.123 -3.75367 3.59716 0
M  V30 1468 C 139.808 -4.0495 2.97189 0
M  V30 1469 C 141.802 -4.05574 4.9172 0
M  V30 1470 C 139.489 -4.34821 4.29388 0
M  V30 1471 C 140.487 -4.35116 5.26463 0
M  V30 1472 O 140.175 -4.64267 6.56286 0
M  V30 1473 H 139.907 -0.606894 0.297751 0
M  V30 1474 H 142.461 -1.46438 1.44031 0
M  V30 1475 H 140.691 -3.8358 0.490214 0
M  V30 1476 H 142.38 -3.96018 0.890193 0
M  V30 1477 H 143.146 -3.52176 3.33462 0
M  V30 1478 H 139.025 -4.03876 2.22273 0
M  V30 1479 H 142.569 -4.05719 5.67484 0
M  V30 1480 H 138.466 -4.5748 4.55392 0
M  V30 1481 H 139.234 -4.82007 6.61522 0
M  V30 1482 N 141.898 -0.863906 -1.31812 0
M  V30 1483 C 143.146 -0.470904 -1.96537 0
M  V30 1484 C 143.467 0.978771 -1.68657 0
M  V30 1485 O 142.737 1.6853 -0.998717 0
M  V30 1486 H 141.317 -0.171148 -0.72713 0
M  V30 1487 H 143.979 -1.10236 -1.60729 0
M  V30 1488 H 143.075 -0.623616 -3.05806 0
M  V30 1489 N 143.376 1.44774 -0.622745 0
M  V30 1490 C 144.309 2.27792 0.136329 0
M  V30 1491 C 145.287 1.38041 0.859264 0
M  V30 1492 O 146.471 1.67478 0.86506 0
M  V30 1493 C 143.598 3.16776 1.19878 0
M  V30 1494 C 142.644 4.22575 0.57731 0
M  V30 1495 S 143.477 5.31825 -0.626294 0
M  V30 1496 C 144.633 6.24377 0.436378 0
M  V30 1497 H 144.866 2.91824 -0.567967 0
M  V30 1498 H 142.399 1.48838 -0.410677 0
M  V30 1499 H 144.357 3.68596 1.80686 0
M  V30 1500 H 143.018 2.5198 1.87523 0
M  V30 1501 H 142.211 4.84818 1.37721 0
M  V30 1502 H 141.813 3.73974 0.0440439 0
M  V30 1503 H 144.105 6.64689 1.31128 0
M  V30 1504 H 145.048 7.07941 -0.150271 0
M  V30 1505 H 145.456 5.59381 0.758513 0
M  V30 1506 N 144.854 0.36279 1.53368 0
M  V30 1507 C 146.102 -0.227326 2.00817 0
M  V30 1508 C 146.423 -1.49511 1.25186 0
M  V30 1509 O 145.693 -1.92482 0.364348 0
M  V30 1510 H 144.273 -0.0869923 0.741917 0
M  V30 1511 H 146.935 0.488381 1.88682 0
M  V30 1512 H 146.031 -0.456273 3.08747 0
M  V30 1513 N 146.332 -1.57332 0.0918853 0
M  V30 1514 C 147.279 -2.13847 -0.868211 0
M  V30 1515 C 148.249 -1.05618 -1.28196 0
M  V30 1516 O 149.434 -1.33387 -1.36427 0
M  V30 1517 C 146.574 -2.72062 -2.12312 0
M  V30 1518 C 145.687 -3.94514 -1.7602 0
M  V30 1519 C 144.822 -4.40903 -2.96273 0
M  V30 1520 C 143.861 -5.55953 -2.56092 0
M  V30 1521 N 142.998 -5.97209 -3.69169 0
M  V30 1522 H 147.838 -2.95575 -0.379406 0
M  V30 1523 H 145.375 -1.46048 -0.175606 0
M  V30 1524 H 147.333 -3.03931 -2.858 0
M  V30 1525 H 145.963 -1.93068 -2.58698 0
M  V30 1526 H 145.015 -3.68979 -0.925135 0
M  V30 1527 H 146.327 -4.7802 -1.42472 0
M  V30 1528 H 145.481 -4.74539 -3.78018 0
M  V30 1529 H 144.22 -3.56291 -3.33029 0
M  V30 1530 H 143.225 -5.21948 -1.72773 0
M  V30 1531 H 144.45 -6.42311 -2.20484 0
M  V30 1532 H 142.396 -5.15543 -4.05649 0
M  V30 1533 H 142.313 -6.75504 -3.39456 0
M  V30 1534 H 143.581 -6.35475 -4.51434 0
M  V30 1535 N 147.81 0.181792 -1.56548 0
M  V30 1536 C 149.058 0.89832 -1.81038 0
M  V30 1537 C 149.379 1.83232 -0.667164 0
M  V30 1538 O 148.649 1.93372 0.313673 0
M  V30 1539 H 147.229 0.33471 -0.667816 0
M  V30 1540 H 149.891 0.184116 -1.94028 0
M  V30 1541 H 148.987 1.4815 -2.74696 0
M  V30 1542 N 149.288 1.51039 0.449983 0
M  V30 1543 C 150.704 1.38934 0.785462 0
M  V30 1544 C 150.904 0.461817 1.96136 0
M  V30 1545 O 149.96 -0.0877389 2.52348 0
M  V30 1546 C 151.273 2.80724 1.0777 0
M  V30 1547 C 152.821 2.89787 1.1829 0
M  V30 1548 C 153.296 4.32457 1.50815 0
M  V30 1549 N 154.787 4.35505 1.57764 0
M  V30 1550 C 155.522 5.42914 1.84477 0
M  V30 1551 N 155.018 6.60502 2.09068 0
M  V30 1552 N 156.811 5.3038 1.86155 0
M  V30 1553 H 148.962 2.09904 -0.324647 0
M  V30 1554 H 151.225 0.944378 -0.0827957 0
M  V30 1555 H 150.931 3.50531 0.286498 0
M  V30 1556 H 150.805 3.19273 2.00859 0
M  V30 1557 H 153.192 2.20186 1.96474 0
M  V30 1558 H 153.273 2.54752 0.231314 0
M  V30 1559 H 152.917 5.02603 0.731622 0
M  V30 1560 H 152.847 4.64995 2.47158 0
M  V30 1561 H 155.338 3.50724 1.40715 0
M  V30 1562 H 155.651 7.38158 2.28785 0
M  V30 1563 H 153.996 6.63639 2.06416 0
M  V30 1564 H 157.187 4.37505 1.66454 0
M  V30 1565 H 157.36 6.1417 2.06637 0
M  V30 1566 N 150.766 -0.704594 1.40972 0
M  V30 1567 C 151.729 -1.80035 1.41845 0
M  V30 1568 C 152.729 -1.57774 0.310474 0
M  V30 1569 O 153.919 -1.64613 0.56992 0
M  V30 1570 C 151.051 -3.18284 1.22098 0
M  V30 1571 H 152.244 -1.80658 2.3938 0
M  V30 1572 H 149.797 -0.911329 1.26982 0
M  V30 1573 H 150.532 -3.23306 0.253672 0
M  V30 1574 H 150.317 -3.35843 2.02366 0
M  V30 1575 H 151.807 -3.98289 1.25522 0
M  V30 1576 N 152.244 -1.26651 -0.937939 0
M  V30 1577 C 153.207 -1.08546 -2.01867 0
M  V30 1578 C 154.207 -0.0327327 -1.60767 0
M  V30 1579 O 155.397 -0.276427 -1.71993 0
M  V30 1580 C 152.529 -0.651711 -3.34613 0
M  V30 1581 H 153.722 -2.04502 -2.1936 0
M  V30 1582 H 151.275 -1.09294 -1.11734 0
M  V30 1583 H 152.01 0.309696 -3.22818 0
M  V30 1584 H 151.795 -1.41189 -3.65798 0
M  V30 1585 H 153.285 -0.546973 -4.14002 0
M  V30 1586 N 153.722 1.14298 -1.08507 0
M  V30 1587 C 154.999 1.81544 -0.728088 0
M  V30 1588 C 155.379 1.95838 0.78808 0
M  V30 1589 O 154.727 1.51904 1.70697 0
M  V30 1590 C 154.937 3.17169 -1.45619 0
M  V30 1591 C 156.285 3.9265 -1.61591 0
M  V30 1592 O 157.309 3.26762 -1.41793 0
M  V30 1593 O 156.168 5.10807 -1.94263 0
M  V30 1594 H 153.262 0.78491 -0.260471 0
M  V30 1595 H 155.808 1.21307 -1.18671 0
M  V30 1596 H 154.58 3.01934 -2.489 0
M  V30 1597 H 154.203 3.851 -0.989124 0
M  V30 1598 N 155.201 0.870884 1.31352 0
M  V30 1599 C 156.131 0.343096 2.30966 0
M  V30 1600 C 157.112 -0.566507 1.60389 0
M  V30 1601 O 158.297 -0.483336 1.88089 0
M  V30 1602 C 155.427 -0.455487 3.443 0
M  V30 1603 C 154.381 0.361103 4.26474 0
M  V30 1604 C 153.707 -0.563221 5.31725 0
M  V30 1605 C 155.007 1.59566 4.97329 0
M  V30 1606 H 156.701 1.17548 2.75359 0
M  V30 1607 H 154.247 0.566686 1.32381 0
M  V30 1608 H 156.2 -0.83525 4.13039 0
M  V30 1609 H 154.924 -1.32139 2.98675 0
M  V30 1610 H 153.583 0.722825 3.59403 0
M  V30 1611 H 153.231 -1.42643 4.82351 0
M  V30 1612 H 152.931 -0.0207409 5.87596 0
M  V30 1613 H 154.455 -0.939808 6.03324 0
M  V30 1614 H 155.869 1.28728 5.58661 0
M  V30 1615 H 154.266 2.07728 5.63 0
M  V30 1616 H 155.336 2.34798 4.24262 0
M  V30 1617 N 156.679 -1.44442 0.630414 0
M  V30 1618 C 157.626 -2.30678 -0.0749355 0
M  V30 1619 C 158.596 -1.4344 -0.837502 0
M  V30 1620 O 159.781 -1.72343 -0.818684 0
M  V30 1621 C 156.921 -3.28706 -1.05103 0
M  V30 1622 C 156.034 -4.31046 -0.286954 0
M  V30 1623 C 155.169 -5.16167 -1.2548 0
M  V30 1624 C 154.208 -6.10216 -0.479843 0
M  V30 1625 N 153.345 -6.88039 -1.39811 0
M  V30 1626 H 158.185 -2.90454 0.666386 0
M  V30 1627 H 155.722 -1.43107 0.340404 0
M  V30 1628 H 157.68 -3.84027 -1.63031 0
M  V30 1629 H 156.31 -2.70632 -1.75949 0
M  V30 1630 H 155.362 -3.78203 0.408243 0
M  V30 1631 H 156.674 -4.97794 0.316657 0
M  V30 1632 H 155.828 -5.76002 -1.90544 0
M  V30 1633 H 154.567 -4.49491 -1.89233 0
M  V30 1634 H 153.572 -5.49491 0.184295 0
M  V30 1635 H 154.797 -6.78928 0.152965 0
M  V30 1636 H 152.743 -6.24032 -2.02287 0
M  V30 1637 H 152.66 -7.51223 -0.848508 0
M  V30 1638 H 153.928 -7.52397 -2.03762 0
M  V30 1639 N 158.157 -0.370918 -1.53173 0
M  V30 1640 C 159.387 0.217389 -2.05453 0
M  V30 1641 C 159.795 1.42568 -1.24382 0
M  V30 1642 O 159.138 1.81571 -0.278839 0
M  V30 1643 C 159.2 0.669827 -3.53205 0
M  V30 1644 C 158.864 -0.4225 -4.55043 0
M  V30 1645 C 159.861 -1.27407 -5.04047 0
M  V30 1646 C 157.546 -0.58427 -4.9889 0
M  V30 1647 C 159.54 -2.27271 -5.95505 0
M  V30 1648 C 157.227 -1.58627 -5.90153 0
M  V30 1649 C 158.225 -2.42892 -6.38351 0
M  V30 1650 O 157.913 -3.41382 -7.27814 0
M  V30 1651 H 157.645 0.0408171 -0.674767 0
M  V30 1652 H 160.199 -0.5292 -1.98466 0
M  V30 1653 H 158.429 1.4681 -3.57748 0
M  V30 1654 H 160.118 1.18173 -3.88317 0
M  V30 1655 H 160.884 -1.16031 -4.70916 0
M  V30 1656 H 156.763 0.061851 -4.60959 0
M  V30 1657 H 160.307 -2.93079 -6.33049 0
M  V30 1658 H 156.204 -1.70048 -6.22699 0
M  V30 1659 H 156.972 -3.37173 -7.45826 0
M  V30 1660 N 159.635 1.57281 -0.100228 0
M  V30 1661 C 160.884 1.93713 0.561984 0
M  V30 1662 C 161.197 0.984492 1.69018 0
M  V30 1663 O 162.403 1.24273 2.41389 0
M  V30 1664 C 160.859 3.4421 1.05106 0
M  V30 1665 C 160.467 4.47975 -0.0476628 0
M  V30 1666 C 162.211 3.89595 1.68571 0
M  V30 1667 C 160.118 5.89631 0.457055 0
M  V30 1668 H 159.048 0.723082 0.2137 0
M  V30 1669 H 161.699 1.82644 -0.177057 0
M  V30 1670 H 160.081 3.50449 1.84395 0
M  V30 1671 H 161.255 4.53385 -0.823333 0
M  V30 1672 H 159.57 4.1223 -0.587816 0
M  V30 1673 H 162.167 4.92832 2.07414 0
M  V30 1674 H 162.51 3.28526 2.55688 0
M  V30 1675 H 163.043 3.86078 0.958562 0
M  V30 1676 H 159.782 6.54411 -0.377616 0
M  V30 1677 H 159.302 5.87681 1.19962 0
M  V30 1678 H 160.981 6.40363 0.92437 0
M  V30 1679 N 161.113 -0.173488 1.56642 0
M  V30 1680 C 162.023 -1.23482 1.99473 0
M  V30 1681 C 163.039 -1.48567 0.905752 0
M  V30 1682 O 164.215 -1.60758 1.21321 0
M  V30 1683 C 161.28 -2.55444 2.34413 0
M  V30 1684 C 160.341 -2.38241 3.57127 0
M  V30 1685 C 159.574 -3.63909 3.90392 0
M  V30 1686 O 159.797 -4.68996 3.24653 0
M  V30 1687 O 158.731 -3.58149 4.83749 0
M  V30 1688 H 162.557 -0.901279 2.90018 0
M  V30 1689 H 160.142 -0.380185 1.44482 0
M  V30 1690 H 162.024 -3.33292 2.57865 0
M  V30 1691 H 160.699 -2.88382 1.4703 0
M  V30 1692 H 159.606 -1.58431 3.38896 0
M  V30 1693 H 160.939 -2.10228 4.45045 0
M  V30 1694 N 162.591 -1.51276 -0.441967 0
M  V30 1695 C 163.554 -1.7167 -1.51862 0
M  V30 1696 C 164.554 -0.586793 -1.49711 0
M  V30 1697 O 165.744 -0.854276 -1.51815 0
M  V30 1698 C 162.876 -1.76889 -2.91416 0
M  V30 1699 H 164.069 -2.67754 -1.35084 0
M  V30 1700 H 161.622 -1.41196 -0.670333 0
M  V30 1701 H 162.357 -0.826026 -3.13604 0
M  V30 1702 H 162.142 -2.59001 -2.94382 0
M  V30 1703 H 163.632 -1.94522 -3.69528 0
M  V30 1704 N 164.069 0.697108 -1.41344 0
M  V30 1705 C 165.309 1.46939 -1.42085 0
M  V30 1706 C 165.673 1.9198 -0.0280397 0
M  V30 1707 O 166.874 2.6865 0.0897504 0
M  V30 1708 C 165.145 2.64985 -2.39828 0
M  V30 1709 S 166.704 3.54147 -2.59085 0
M  V30 1710 H 163.522 0.502146 -0.503359 0
M  V30 1711 H 166.124 0.813546 -1.77769 0
M  V30 1712 H 164.828 2.30098 -3.39828 0
M  V30 1713 H 164.359 3.35464 -2.05493 0
M  V30 1714 H 166.374 4.60137 -1.85711 0
M  V30 1715 N 165.547 1.27147 0.931209 0
M  V30 1716 C 166.51 1.09615 2.01289 0
M  V30 1717 C 167.51 0.0412581 1.60747 0
M  V30 1718 O 168.7 0.285545 1.71844 0
M  V30 1719 C 165.832 0.669447 3.34262 0
M  V30 1720 H 167.025 2.05662 2.18273 0
M  V30 1721 H 164.578 1.09885 1.11153 0
M  V30 1722 H 165.313 -0.292572 3.22978 0
M  V30 1723 H 165.098 1.43127 3.65044 0
M  V30 1724 H 166.588 0.568921 4.13706 0
M  V30 1725 N 167.025 -1.13721 1.09112 0
M  V30 1726 C 168.441 -1.36914 0.820174 0
M  V30 1727 C 168.641 -1.93356 -0.567079 0
M  V30 1728 O 167.697 -2.15093 -1.32255 0
M  V30 1729 C 169.01 -2.3235 1.90877 0
M  V30 1730 C 170.558 -2.45973 1.93562 0
M  V30 1731 C 171.033 -3.44714 3.01556 0
M  V30 1732 N 172.524 -3.52263 3.00775 0
M  V30 1733 C 173.259 -4.28536 3.80978 0
M  V30 1734 N 172.755 -5.07991 4.71081 0
M  V30 1735 N 174.548 -4.23804 3.69251 0
M  V30 1736 H 166.699 -0.754348 1.98553 0
M  V30 1737 H 168.962 -0.3944 0.862063 0
M  V30 1738 H 168.668 -1.98027 2.90651 0
M  V30 1739 H 168.542 -3.32332 1.78424 0
M  V30 1740 H 170.929 -2.79584 0.944286 0
M  V30 1741 H 171.01 -1.45926 2.10093 0
M  V30 1742 H 170.654 -3.11835 4.00901 0
M  V30 1743 H 170.584 -4.44558 2.82269 0
M  V30 1744 H 173.075 -2.95567 2.35475 0
M  V30 1745 H 173.388 -5.63487 5.28869 0
M  V30 1746 H 171.733 -5.07235 4.75119 0
M  V30 1747 H 174.924 -3.60806 2.98222 0
M  V30 1748 H 175.097 -4.82995 4.31995 0
M  V30 1749 N 168.503 -0.877838 -1.30888 0
M  V30 1750 C 169.919 -0.570844 -1.49042 0
M  V30 1751 C 170.119 0.893159 -1.80624 0
M  V30 1752 O 169.175 1.67485 -1.88958 0
M  V30 1753 C 170.488 -1.47784 -2.61878 0
M  V30 1754 C 172.036 -1.48071 -2.75761 0
M  V30 1755 C 172.511 -2.37347 -3.91702 0
M  V30 1756 N 174.002 -2.35271 -3.99001 0
M  V30 1757 C 174.737 -3.01063 -4.88004 0
M  V30 1758 N 174.233 -3.76055 -5.81854 0
M  V30 1759 N 176.026 -2.90332 -4.81315 0
M  V30 1760 H 168.177 -1.82502 -1.0866 0
M  V30 1761 H 170.44 -0.780797 -0.537644 0
M  V30 1762 H 170.146 -2.51993 -2.45341 0
M  V30 1763 H 170.02 -1.18215 -3.58197 0
M  V30 1764 H 172.407 -0.446166 -2.91708 0
M  V30 1765 H 172.488 -1.81668 -1.80085 0
M  V30 1766 H 172.132 -3.40883 -3.76512 0
M  V30 1767 H 172.062 -2.01071 -4.86701 0
M  V30 1768 H 174.553 -1.80768 -3.3186 0
M  V30 1769 H 174.866 -4.23366 -6.46514 0
M  V30 1770 H 173.211 -3.80163 -5.81808 0
M  V30 1771 H 176.402 -2.31278 -4.06974 0
M  V30 1772 H 176.575 -3.41885 -5.50471 0
M  V30 1773 N 169.982 1.44106 -0.638065 0
M  V30 1774 C 171.231 2.01194 -0.142744 0
M  V30 1775 C 171.544 1.50835 1.24532 0
M  V30 1776 O 172.75 2.00096 1.83504 0
M  V30 1777 C 171.206 3.59319 -0.20442 0
M  V30 1778 C 170.814 4.18674 -1.59423 0
M  V30 1779 C 172.558 4.23854 0.234079 0
M  V30 1780 C 170.465 5.69045 -1.61065 0
M  V30 1781 H 169.395 0.752367 -0.0495998 0
M  V30 1782 H 172.046 1.65246 -0.797881 0
M  V30 1783 H 170.428 3.92598 0.517946 0
M  V30 1784 H 171.602 3.96921 -2.34074 0
M  V30 1785 H 169.917 3.66453 -1.97741 0
M  V30 1786 H 172.514 5.34155 0.241443 0
M  V30 1787 H 172.857 3.96688 1.2627 0
M  V30 1788 H 173.39 3.95403 -0.436025 0
M  V30 1789 H 170.129 6.00956 -2.61787 0
M  V30 1790 H 169.649 5.929 -0.90718 0
M  V30 1791 H 171.328 6.32809 -1.34766 0
M  V30 1792 N 171.46 0.379036 1.52974 0
M  V30 1793 C 172.706 -0.206727 2.01744 0
M  V30 1794 C 173.039 -1.47314 1.26539 0
M  V30 1795 O 172.314 -1.91084 0.362903 0
M  V30 1796 C 172.597 -0.485066 3.56818 0
M  V30 1797 C 172.45 0.795919 4.42702 0
M  V30 1798 C 173.769 -1.28003 4.21074 0
M  V30 1799 H 170.888 -0.0736607 0.73331 0
M  V30 1800 H 173.53 0.506581 1.83122 0
M  V30 1801 H 171.68 -1.09272 3.72816 0
M  V30 1802 H 173.352 1.43307 4.38476 0
M  V30 1803 H 171.595 1.41344 4.10127 0
M  V30 1804 H 172.266 0.555947 5.49193 0
M  V30 1805 H 174.742 -0.765867 4.08991 0
M  V30 1806 H 173.618 -1.44352 5.29579 0
M  V30 1807 H 173.879 -2.29236 3.78026 0
M  V30 1808 N 172.938 -1.57226 0.108567 0
M  V30 1809 C 173.87 -2.11809 -0.875752 0
M  V30 1810 C 174.883 -1.05839 -1.23701 0
M  V30 1811 O 176.072 -1.33245 -1.18778 0
M  V30 1812 C 173.172 -2.59411 -2.18081 0
M  V30 1813 C 172.345 -3.89364 -1.99284 0
M  V30 1814 C 171.404 -4.22672 -3.13424 0
M  V30 1815 O 170.43 -4.91668 -2.86795 0
M  V30 1816 N 171.632 -3.79154 -4.3957 0
M  V30 1817 H 174.397 -2.9689 -0.409477 0
M  V30 1818 H 171.958 -1.61721 -0.076158 0
M  V30 1819 H 173.95 -2.7873 -2.93414 0
M  V30 1820 H 172.52 -1.79268 -2.5609 0
M  V30 1821 H 171.74 -3.79059 -1.08203 0
M  V30 1822 H 173.028 -4.74358 -1.84017 0
M  V30 1823 H 172.426 -3.23486 -4.64083 0
M  V30 1824 H 170.983 -4.03602 -5.11809 0
M  V30 1825 N 174.416 0.165178 -1.56732 0
M  V30 1826 C 175.364 1.22369 -1.97809 0
M  V30 1827 C 176.358 1.45488 -0.867741 0
M  V30 1828 O 177.564 1.45995 -1.05288 0
M  V30 1829 H 173.939 0.411486 -0.629431 0
M  V30 1830 H 175.91 0.850425 -2.86025 0
M  V30 1831 C 174.659 2.55403 -2.35934 0
M  V30 1832 H 173.982 2.38438 -3.20916 0
M  V30 1833 H 175.422 3.2814 -2.68514 0
M  V30 1834 C 173.881 3.14611 -1.20506 0
M  V30 1835 O 174.411 3.98626 -0.496016 0
M  V30 1836 N 172.617 2.7379 -0.97403 0
M  V30 1837 H 172.164 2.0557 -1.55238 0
M  V30 1838 H 172.122 3.1374 -0.203573 0
M  V30 1839 N 175.894 1.51508 0.433938 0
M  V30 1840 C 177.119 1.68443 1.21003 0
M  V30 1841 C 177.544 0.382636 1.84167 0
M  V30 1842 O 176.902 -0.65755 1.68956 0
M  V30 1843 C 176.95 2.80405 2.26727 0
M  V30 1844 O 176.054 2.44245 3.32292 0
M  V30 1845 H 175.395 0.561536 0.354363 0
M  V30 1846 H 177.925 1.9809 0.512024 0
M  V30 1847 H 177.935 3.0459 2.71457 0
M  V30 1848 H 176.61 3.74867 1.80132 0
M  V30 1849 H 175.187 2.30644 2.93015 0
M  V30 1850 N 177.372 -0.689602 1.41712 0
M  V30 1851 C 178.32 -1.82475 1.44242 0
M  V30 1852 C 179.314 -1.66354 0.319774 0
M  V30 1853 O 180.52 -1.73143 0.492089 0
M  V30 1854 H 176.895 -0.601416 0.451445 0
M  V30 1855 H 178.866 -1.77458 2.39899 0
M  V30 1856 C 177.615 -3.20535 1.3473 0
M  V30 1857 H 176.938 -3.33559 2.20405 0
M  V30 1858 H 178.378 -4.00023 1.40562 0
M  V30 1859 C 176.837 -3.36846 0.0603281 0
M  V30 1860 O 177.367 -3.91656 -0.892663 0
M  V30 1861 N 175.573 -2.90595 -0.0177039 0
M  V30 1862 H 175.12 -2.46178 0.758572 0
M  V30 1863 H 175.078 -3.01886 -0.878201 0
M  V30 1864 N 178.85 -1.27639 -0.924453 0
M  V30 1865 C 180.098 -1.13941 -1.66918 0
M  V30 1866 C 180.419 0.314589 -1.92446 0
M  V30 1867 O 179.689 1.21964 -1.53303 0
M  V30 1868 H 178.269 -0.418678 -0.618642 0
M  V30 1869 H 180.931 -1.60213 -1.10985 0
M  V30 1870 H 180.027 -1.67094 -2.63602 0
M  V30 1871 N 180.328 1.1314 -1.09713 0
M  V30 1872 C 181.558 1.88048 -0.855656 0
M  V30 1873 C 181.966 1.79537 0.596919 0
M  V30 1874 O 181.309 1.16196 1.42282 0
M  V30 1875 C 181.371 3.38314 -1.21589 0
M  V30 1876 C 181.035 3.70605 -2.67397 0
M  V30 1877 C 182.032 3.69596 -3.65643 0
M  V30 1878 C 179.717 4.0017 -3.03593 0
M  V30 1879 C 181.711 3.977 -4.9811 0
M  V30 1880 C 179.398 4.27935 -4.36251 0
M  V30 1881 C 180.396 4.26685 -5.33318 0
M  V30 1882 O 180.084 4.53767 -6.63589 0
M  V30 1883 H 179.816 0.60208 -0.307368 0
M  V30 1884 H 182.37 1.44128 -1.46343 0
M  V30 1885 H 180.6 3.82752 -0.551177 0
M  V30 1886 H 182.289 3.94552 -0.953083 0
M  V30 1887 H 183.055 3.46826 -3.39023 0
M  V30 1888 H 178.934 4.00289 -2.2867 0
M  V30 1889 H 182.478 3.9664 -5.73866 0
M  V30 1890 H 178.375 4.50178 -4.62613 0
M  V30 1891 H 179.143 4.71422 -6.69107 0
M  V30 1892 N 181.806 0.884767 1.30421 0
M  V30 1893 C 182.753 0.349642 2.28136 0
M  V30 1894 C 183.723 -0.560061 1.56373 0
M  V30 1895 O 184.908 -0.488524 1.8444 0
M  V30 1896 C 182.048 -0.42999 3.42411 0
M  V30 1897 C 181.161 0.508907 4.28992 0
M  V30 1898 C 180.296 -0.286301 5.30428 0
M  V30 1899 C 179.335 0.648079 6.08659 0
M  V30 1900 N 178.472 -0.111792 7.02011 0
M  V30 1901 H 183.312 1.18807 2.73293 0
M  V30 1902 H 180.849 0.597231 1.3443 0
M  V30 1903 H 182.807 -0.897923 4.07423 0
M  V30 1904 H 181.437 -1.23299 2.98324 0
M  V30 1905 H 180.489 1.09533 3.64289 0
M  V30 1906 H 181.801 1.22475 4.8353 0
M  V30 1907 H 180.955 -0.816098 6.01186 0
M  V30 1908 H 179.694 -1.03536 4.76583 0
M  V30 1909 H 178.699 1.18951 5.36778 0
M  V30 1910 H 179.924 1.39623 6.64592 0
M  V30 1911 H 177.87 -0.843395 6.50556 0
M  V30 1912 H 177.787 0.544429 7.54037 0
M  V30 1913 H 179.055 -0.622339 7.77012 0
M  V30 1914 N 183.284 -1.43765 0.645699 0
M  V30 1915 C 184.533 -2.01116 0.153412 0
M  V30 1916 C 184.846 -1.51493 -1.23731 0
M  V30 1917 O 186.052 -2.01067 -1.8244 0
M  V30 1918 C 184.508 -3.59206 0.223473 0
M  V30 1919 C 184.116 -4.17823 1.61642 0
M  V30 1920 C 185.86 -4.23972 -0.211597 0
M  V30 1921 C 183.767 -5.68183 1.64081 0
M  V30 1922 H 182.697 -0.752093 0.0535891 0
M  V30 1923 H 185.348 -1.6482 0.806633 0
M  V30 1924 H 183.73 -3.92867 -0.497118 0
M  V30 1925 H 184.904 -3.95674 2.36176 0
M  V30 1926 H 183.219 -3.65399 1.99681 0
M  V30 1927 H 185.816 -5.34275 -0.213112 0
M  V30 1928 H 186.159 -3.97352 -1.24165 0
M  V30 1929 H 186.692 -3.95166 0.456988 0
M  V30 1930 H 183.431 -5.99559 2.64971 0
M  V30 1931 H 182.951 -5.9241 0.938611 0
M  V30 1932 H 184.63 -6.32085 1.3812 0
M  V30 1933 N 184.763 -0.387143 -1.52771 0
M  V30 1934 C 186.009 0.196025 -2.0185 0
M  V30 1935 C 186.342 1.46641 -1.27319 0
M  V30 1936 O 185.617 1.90889 -0.373032 0
M  V30 1937 C 185.9 0.466136 -3.5707 0
M  V30 1938 C 185.753 -0.819385 -4.42274 0
M  V30 1939 C 187.072 1.25768 -4.21747 0
M  V30 1940 H 184.191 0.0697708 -0.73369 0
M  V30 1941 H 186.833 -0.516286 -1.82851 0
M  V30 1942 H 184.983 1.07293 -3.7339 0
M  V30 1943 H 186.655 -1.4563 -4.37709 0
M  V30 1944 H 184.898 -1.43517 -4.09372 0
M  V30 1945 H 185.569 -0.585065 -5.48891 0
M  V30 1946 H 188.045 0.744167 -4.09391 0
M  V30 1947 H 186.921 1.41541 -5.30337 0
M  V30 1948 H 187.182 2.27228 -3.79236 0
M  V30 1949 N 186.241 1.57166 -0.116904 0
M  V30 1950 C 187.469 1.99473 0.549383 0
M  V30 1951 C 187.884 0.996541 1.60357 0
M  V30 1952 O 187.241 -0.0108731 1.82497 0
M  V30 1953 C 187.292 3.41788 1.17741 0
M  V30 1954 O 187.013 4.37788 0.165362 0
M  V30 1955 C 188.514 3.99216 1.92722 0
M  V30 1956 H 185.734 0.655009 0.145616 0
M  V30 1957 H 188.278 2.03494 -0.202625 0
M  V30 1958 H 186.433 3.38713 1.88021 0
M  V30 1959 H 186.847 5.20806 0.621403 0
M  V30 1960 H 188.321 5.00882 2.31995 0
M  V30 1961 H 188.798 3.3824 2.80161 0
M  V30 1962 H 189.404 4.0583 1.27209 0
M  V30 1963 N 187.719 -0.156864 1.56817 0
M  V30 1964 C 188.629 -1.2136 2.00771 0
M  V30 1965 C 189.645 -1.47598 0.921459 0
M  V30 1966 O 190.821 -1.59462 1.2302 0
M  V30 1967 C 187.886 -2.52943 2.37109 0
M  V30 1968 C 186.947 -2.34439 3.59634 0
M  V30 1969 C 186.18 -3.59748 3.94229 0
M  V30 1970 O 186.403 -4.65526 3.29609 0
M  V30 1971 O 185.337 -3.52998 4.8752 0
M  V30 1972 H 189.163 -0.870468 2.90958 0
M  V30 1973 H 186.748 -0.36484 1.44877 0
M  V30 1974 H 188.63 -3.30538 2.61386 0
M  V30 1975 H 187.305 -2.86806 1.5008 0
M  V30 1976 H 186.212 -1.54828 3.40557 0
M  V30 1977 H 187.545 -2.05496 4.4725 0
M  V30 1978 N 189.197 -1.51736 -0.425897 0
M  V30 1979 C 190.144 -1.73875 -1.51776 0
M  V30 1980 C 191.114 -0.580702 -1.55618 0
M  V30 1981 O 192.299 -0.81641 -1.72451 0
M  V30 1982 C 189.439 -1.88012 -2.89388 0
M  V30 1983 C 188.552 -3.15606 -2.94986 0
M  V30 1984 C 187.687 -3.20271 -4.23793 0
M  V30 1985 C 186.726 -4.42134 -4.23302 0
M  V30 1986 N 185.863 -4.44284 -5.43651 0
M  V30 1987 H 190.703 -2.67071 -1.32201 0
M  V30 1988 H 188.24 -1.32351 -0.642008 0
M  V30 1989 H 190.198 -1.9419 -3.69251 0
M  V30 1990 H 188.828 -0.98213 -3.07496 0
M  V30 1991 H 187.88 -3.18681 -2.07717 0
M  V30 1992 H 189.192 -4.05486 -2.90486 0
M  V30 1993 H 188.346 -3.25428 -5.12036 0
M  V30 1994 H 187.085 -2.28299 -4.30965 0
M  V30 1995 H 186.09 -4.3714 -3.3345 0
M  V30 1996 H 187.315 -5.35382 -4.17783 0
M  V30 1997 H 185.261 -3.55188 -5.51523 0
M  V30 1998 H 185.178 -5.27988 -5.41078 0
M  V30 1999 H 186.446 -4.53649 -6.33895 0
M  V30 2000 N 190.675 0.682077 -1.42076 0
M  V30 2001 C 191.9 1.47558 -1.45744 0
M  V30 2002 C 192.325 1.87977 -0.0680981 0
M  V30 2003 O 191.683 1.55522 0.9318 0
M  V30 2004 C 191.731 2.70575 -2.38373 0
M  V30 2005 O 190.835 3.68573 -1.85007 0
M  V30 2006 H 190.176 0.443585 -0.494093 0
M  V30 2007 H 192.706 0.837238 -1.86686 0
M  V30 2008 H 192.716 3.18729 -2.54707 0
M  V30 2009 H 191.391 2.40495 -3.39315 0
M  V30 2010 H 189.968 3.2757 -1.78192 0
M  V30 2011 N 192.153 1.28127 0.917671 0
M  V30 2012 C 193.381 1.17892 1.70026 0
M  V30 2013 C 193.796 -0.262958 1.8696 0
M  V30 2014 O 193.153 -1.17811 1.3938 0
M  V30 2015 C 193.204 1.86872 3.09453 0
M  V30 2016 O 192.925 3.25428 2.93306 0
M  V30 2017 C 194.426 1.8289 4.03815 0
M  V30 2018 H 191.646 0.40942 0.531617 0
M  V30 2019 H 194.19 1.69181 1.14883 0
M  V30 2020 H 192.345 1.39464 3.61426 0
M  V30 2021 H 192.759 3.59918 3.81523 0
M  V30 2022 H 194.233 2.35751 4.99125 0
M  V30 2023 H 194.71 0.800412 4.31845 0
M  V30 2024 H 195.316 2.29959 3.57769 0
M  V30 2025 N 193.631 -1.12557 1.10312 0
M  V30 2026 C 194.877 -1.84311 0.846011 0
M  V30 2027 C 195.21 -1.83805 -0.626859 0
M  V30 2028 O 194.485 -1.28268 -1.46211 0
M  V30 2029 C 194.768 -3.32048 1.39341 0
M  V30 2030 C 194.621 -3.41016 2.93305 0
M  V30 2031 C 195.94 -4.27764 1.03468 0
M  V30 2032 H 193.059 -0.669192 0.30879 0
M  V30 2033 H 195.701 -1.32057 1.36605 0
M  V30 2034 H 193.851 -3.76678 0.951087 0
M  V30 2035 H 195.523 -3.05031 3.46055 0
M  V30 2036 H 193.766 -2.81603 3.29973 0
M  V30 2037 H 194.437 -4.44948 3.26689 0
M  V30 2038 H 196.913 -3.91253 1.41633 0
M  V30 2039 H 195.789 -5.29549 1.44463 0
M  V30 2040 H 196.05 -4.42064 -0.0560404 0
M  V30 2041 N 195.109 -0.891671 -1.2995 0
M  V30 2042 C 196.52 -0.563104 -1.78006 0
M  V30 2043 C 196.871 0.920978 -1.73241 0
M  V30 2044 O 195.996 1.71987 -1.31337 0
M  V30 2045 C 196.591 -1.01539 -3.23226 0
M  V30 2046 C 195.15 -0.738124 -3.69092 0
M  V30 2047 C 194.297 -1.19461 -2.50249 0
M  V30 2048 H 197.248 -1.07522 -1.16725 0
M  V30 2049 H 197.269 -0.347217 -3.78912 0
M  V30 2050 H 196.781 -2.09555 -3.26662 0
M  V30 2051 H 194.882 0.329766 -3.71138 0
M  V30 2052 H 194.995 -1.33037 -4.60259 0
M  V30 2053 H 193.359 -0.613787 -2.47194 0
M  V30 2054 H 194.142 -2.28265 -2.56417 0
M  V30 2055 N 196.587 1.43421 -0.653314 0
M  V30 2056 C 197.833 2.02111 -0.166992 0
M  V30 2057 C 198.166 1.51423 1.21592 0
M  V30 2058 O 197.441 0.707389 1.8118 0
M  V30 2059 C 197.724 3.5966 -0.177948 0
M  V30 2060 C 197.577 4.20579 -1.59478 0
M  V30 2061 C 198.896 4.37413 0.4856 0
M  V30 2062 H 196.015 0.734374 -0.0621557 0
M  V30 2063 H 198.657 1.70717 -0.834016 0
M  V30 2064 H 196.807 3.86537 0.390032 0
M  V30 2065 H 198.479 4.04732 -2.21336 0
M  V30 2066 H 196.722 3.77226 -2.14204 0
M  V30 2067 H 197.393 5.29665 -1.5543 0
M  V30 2068 H 199.869 4.161 0.00234528 0
M  V30 2069 H 198.745 5.47075 0.447207 0
M  V30 2070 H 199.006 4.13672 1.55974 0
M  V30 2071 N 198.065 0.39524 1.52563 0
M  V30 2072 C 199.481 0.0454682 1.59535 0
M  V30 2073 C 199.681 -1.44056 1.4089 0
M  V30 2074 O 198.737 -2.20579 1.22888 0
M  V30 2075 C 200.05 0.527963 2.96029 0
M  V30 2076 C 201.598 0.484733 3.09224 0
M  V30 2077 C 202.073 0.943512 4.48176 0
M  V30 2078 N 203.564 0.899765 4.54377 0
M  V30 2079 C 204.299 1.22609 5.60138 0
M  V30 2080 N 203.795 1.62319 6.73516 0
M  V30 2081 N 205.588 1.14696 5.50274 0
M  V30 2082 H 197.739 1.36261 1.62931 0
M  V30 2083 H 200.002 0.558887 0.765735 0
M  V30 2084 H 199.708 1.56607 3.14908 0
M  V30 2085 H 199.582 -0.0698056 3.77135 0
M  V30 2086 H 201.969 -0.544298 2.90037 0
M  V30 2087 H 202.05 1.11838 2.30056 0
M  V30 2088 H 201.694 1.9708 4.68104 0
M  V30 2089 H 201.624 0.286817 5.25818 0
M  V30 2090 H 204.115 0.607632 3.72983 0
M  V30 2091 H 204.428 1.85567 7.5019 0
M  V30 2092 H 202.773 1.66211 6.74833 0
M  V30 2093 H 205.964 0.835701 4.6058 0
M  V30 2094 H 206.137 1.40459 6.32594 0
M  V30 2095 N 199.544 -1.57102 0.125237 0
M  V30 2096 C 200.507 -2.14471 -0.80838 0
M  V30 2097 C 201.507 -1.0811 -1.19033 0
M  V30 2098 O 202.697 -1.33856 -1.11482 0
M  V30 2099 C 199.829 -2.69005 -2.09402 0
M  V30 2100 H 201.022 -2.98297 -0.309696 0
M  V30 2101 H 198.575 -1.55807 -0.124051 0
M  V30 2102 H 199.31 -1.88785 -2.63687 0
M  V30 2103 H 199.095 -3.46799 -1.82957 0
M  V30 2104 H 200.585 -3.13278 -2.76128 0
M  V30 2105 N 201.022 0.148545 -1.56898 0
M  V30 2106 C 201.985 1.16736 -1.97244 0
M  V30 2107 C 202.985 1.35947 -0.858777 0
M  V30 2108 O 204.175 1.32966 -1.12542 0
M  V30 2109 C 201.307 2.52798 -2.28705 0
M  V30 2110 H 202.5 0.821279 -2.88435 0
M  V30 2111 H 200.053 0.391831 -1.51309 0
M  V30 2112 H 200.788 2.92381 -1.403 0
M  V30 2113 H 200.573 2.40216 -3.09901 0
M  V30 2114 H 202.063 3.26179 -2.60762 0
M  V30 2115 N 202.5 1.5196 0.417844 0
M  V30 2116 C 203.41 1.77554 1.53336 0
M  V30 2117 C 204.426 0.660655 1.6097 0
M  V30 2118 O 205.602 0.945099 1.77848 0
M  V30 2119 C 202.667 1.91291 2.89152 0
M  V30 2120 C 201.728 3.15183 2.91475 0
M  V30 2121 C 200.961 3.28256 4.20813 0
M  V30 2122 O 201.184 2.46798 5.14244 0
M  V30 2123 O 200.118 4.21356 4.29817 0
M  V30 2124 H 203.944 2.7222 1.34647 0
M  V30 2125 H 201.529 1.36698 0.602828 0
M  V30 2126 H 203.411 2.02199 3.69721 0
M  V30 2127 H 202.086 0.998129 3.07927 0
M  V30 2128 H 200.993 3.09739 2.09791 0
M  V30 2129 H 202.326 4.06414 2.77648 0
M  V30 2130 N 203.978 -0.674533 1.42435 0
M  V30 2131 C 205.203 -1.46784 1.46524 0
M  V30 2132 C 205.628 -1.87938 0.078066 0
M  V30 2133 O 204.986 -1.56014 -0.92354 0
M  V30 2134 C 205.034 -2.69307 2.39805 0
M  V30 2135 O 204.138 -3.67587 1.86959 0
M  V30 2136 H 203.479 -0.440959 0.496439 0
M  V30 2137 H 206.009 -0.827326 1.87127 0
M  V30 2138 H 206.019 -3.17374 2.56393 0
M  V30 2139 H 204.694 -2.38692 3.40586 0
M  V30 2140 H 203.271 -3.2662 1.79927 0
M  V30 2141 N 205.456 -1.28612 -0.910864 0
M  V30 2142 C 206.705 -1.15311 -1.65488 0
M  V30 2143 C 207.018 0.296999 -1.93332 0
M  V30 2144 O 208.224 0.551168 -2.65847 0
M  V30 2145 C 206.68 -2.01599 -2.98137 0
M  V30 2146 C 206.288 -3.51367 -2.7793 0
M  V30 2147 C 208.032 -1.96993 -3.76024 0
M  V30 2148 C 205.939 -4.29797 -4.06237 0
M  V30 2149 H 204.869 -0.42796 -0.620779 0
M  V30 2150 H 207.52 -1.53166 -1.01057 0
M  V30 2151 H 205.902 -1.56603 -3.63719 0
M  V30 2152 H 207.076 -4.0434 -2.21011 0
M  V30 2153 H 205.391 -3.57529 -2.13452 0
M  V30 2154 H 207.988 -2.52856 -4.71135 0
M  V30 2155 H 208.331 -0.94733 -4.05378 0
M  V30 2156 H 208.864 -2.39973 -3.17266 0
M  V30 2157 H 205.603 -5.32648 -3.82055 0
M  V30 2158 H 205.123 -3.81596 -4.62757 0
M  V30 2159 H 206.802 -4.39869 -4.74473 0
M  V30 2160 N 206.934 1.1197 -1.10907 0
M  V30 2161 C 208.35 1.35591 -0.841852 0
M  V30 2162 C 208.55 1.94233 0.536246 0
M  V30 2163 O 207.606 2.1717 1.28816 0
M  V30 2164 C 208.919 2.29284 -1.94549 0
M  V30 2165 C 210.467 2.42862 -1.97451 0
M  V30 2166 C 210.942 3.39873 -3.07002 0
M  V30 2167 N 212.433 3.47433 -3.06341 0
M  V30 2168 C 213.168 4.22421 -3.87748 0
M  V30 2169 N 212.664 5.00432 -4.79103 0
M  V30 2170 N 214.457 4.17876 -3.75946 0
M  V30 2171 H 206.608 0.722664 -1.99728 0
M  V30 2172 H 208.871 0.380635 -0.868229 0
M  V30 2173 H 208.577 1.93378 -2.93765 0
M  V30 2174 H 208.451 3.29452 -1.83688 0
M  V30 2175 H 210.838 2.78046 -0.988645 0
M  V30 2176 H 210.919 1.42566 -2.12388 0
M  V30 2177 H 210.563 3.05417 -4.05811 0
M  V30 2178 H 210.493 4.40011 -2.89306 0
M  V30 2179 H 212.984 2.91784 -2.40147 0
M  V30 2180 H 213.297 5.55002 -5.37766 0
M  V30 2181 H 211.642 4.99612 -4.83128 0
M  V30 2182 H 214.833 3.56016 -3.03924 0
M  V30 2183 H 215.006 4.76061 -4.39624 0
M  V30 2184 N 208.412 0.89855 1.29475 0
M  V30 2185 C 209.828 0.594483 1.48115 0
M  V30 2186 C 210.028 -0.86431 1.82022 0
M  V30 2187 O 209.084 -1.64457 1.91599 0
M  V30 2188 C 210.397 1.51932 2.59494 0
M  V30 2189 C 211.945 1.5244 2.7337 0
M  V30 2190 C 212.42 2.43548 3.87877 0
M  V30 2191 N 213.911 2.41589 3.95208 0
M  V30 2192 C 214.646 3.08789 4.83153 0
M  V30 2193 N 214.142 3.85265 5.75798 0
M  V30 2194 N 215.935 2.97952 4.76635 0
M  V30 2195 H 208.086 1.84207 1.05742 0
M  V30 2196 H 210.349 0.789251 0.525154 0
M  V30 2197 H 210.055 2.55865 2.41301 0
M  V30 2198 H 209.929 1.23899 3.56271 0
M  V30 2199 H 212.316 0.492518 2.90961 0
M  V30 2200 H 212.397 1.8451 1.77172 0
M  V30 2201 H 212.041 3.46829 3.71041 0
M  V30 2202 H 211.971 2.08788 4.83441 0
M  V30 2203 H 214.462 1.86025 3.28943 0
M  V30 2204 H 214.775 4.33598 6.39697 0
M  V30 2205 H 213.12 3.89371 5.75687 0
M  V30 2206 H 216.311 2.37723 4.03244 0
M  V30 2207 H 216.484 3.50599 5.44962 0
M  V30 2208 N 209.89 -1.43072 0.660911 0
M  V30 2209 C 211.139 -2.00942 0.174735 0
M  V30 2210 C 211.452 -1.52797 -1.22117 0
M  V30 2211 O 212.658 -2.02991 -1.80297 0
M  V30 2212 C 211.114 -3.58948 0.261559 0
M  V30 2213 C 210.722 -4.16085 1.66064 0
M  V30 2214 C 212.466 -4.24173 -0.166617 0
M  V30 2215 C 210.373 -5.6641 1.70098 0
M  V30 2216 H 209.303 -0.751483 0.0615631 0
M  V30 2217 H 211.954 -1.63955 0.824069 0
M  V30 2218 H 210.336 -3.93372 -0.455421 0
M  V30 2219 H 211.51 -3.93147 2.40359 0
M  V30 2220 H 209.825 -3.6326 2.03546 0
M  V30 2221 H 212.422 -5.34471 -0.156433 0
M  V30 2222 H 212.765 -3.98647 -1.19943 0
M  V30 2223 H 213.298 -3.94659 0.498875 0
M  V30 2224 H 210.037 -5.96715 2.71315 0
M  V30 2225 H 209.557 -5.91382 1.00139 0
M  V30 2226 H 211.236 -6.30585 1.44816 0
M  V30 2227 N 211.368 -0.403325 -1.52352 0
M  V30 2228 C 212.615 0.174347 -2.01748 0
M  V30 2229 C 212.943 1.45636 -1.2892 0
M  V30 2230 O 212.198 1.9193 -0.382258 0
M  V30 2231 C 212.497 0.474665 -3.54234 0
M  V30 2232 C 212.163 -0.717458 -4.45155 0
M  V30 2233 C 210.825 -1.04447 -4.69728 0
M  V30 2234 C 213.177 -1.51432 -4.98716 0
M  V30 2235 C 210.505 -2.16963 -5.45109 0
M  V30 2236 C 212.857 -2.6302 -5.75329 0
M  V30 2237 C 211.521 -2.96213 -5.98175 0
M  V30 2238 H 210.791 0.0637981 -0.738248 0
M  V30 2239 H 213.438 -0.543553 -1.83624 0
M  V30 2240 H 211.743 1.27406 -3.70506 0
M  V30 2241 H 213.44 0.934496 -3.89959 0
M  V30 2242 H 210.03 -0.452596 -4.26204 0
M  V30 2243 H 214.214 -1.27491 -4.79645 0
M  V30 2244 H 209.47 -2.43034 -5.61021 0
M  V30 2245 H 213.644 -3.25158 -6.15829 0
M  V30 2246 H 211.271 -3.83516 -6.56368 0
M  V30 2247 N 212.846 1.57033 -0.133567 0
M  V30 2248 C 214.123 1.87256 0.56522 0
M  V30 2249 C 214.503 1.03726 1.83859 0
M  V30 2250 O 213.851 0.120247 2.28183 0
M  V30 2251 C 214.061 3.3865 0.843636 0
M  V30 2252 C 215.409 4.07574 1.19032 0
M  V30 2253 O 216.433 3.43752 0.933429 0
M  V30 2254 O 215.292 5.20259 1.67312 0
M  V30 2255 H 212.386 0.775678 0.286796 0
M  V30 2256 H 214.932 1.68855 -0.169168 0
M  V30 2257 H 213.704 3.91257 -0.0581149 0
M  V30 2258 H 213.327 3.62532 1.63268 0
M  V30 2259 N 214.325 -0.140222 1.56975 0
M  V30 2260 C 215.288 -1.15689 1.97861 0
M  V30 2261 C 216.288 -1.3549 0.865974 0
M  V30 2262 O 217.478 -1.32367 1.13246 0
M  V30 2263 C 214.61 -2.51582 2.30042 0
M  V30 2264 H 215.803 -0.805971 2.88867 0
M  V30 2265 H 213.356 -0.383801 1.51515 0
M  V30 2266 H 214.091 -2.91632 1.41849 0
M  V30 2267 H 213.876 -2.38569 3.11171 0
M  V30 2268 H 215.366 -3.24792 2.62488 0
M  V30 2269 N 215.803 -1.52179 -0.40978 0
M  V30 2270 C 216.751 -1.76086 -1.51975 0
M  V30 2271 C 217.745 -0.627964 -1.57331 0
M  V30 2272 O 218.951 -0.809993 -1.60745 0
M  V30 2273 H 215.326 -0.556829 -0.505416 0
M  V30 2274 H 217.297 -2.69077 -1.28996 0
M  V30 2275 C 216.046 -1.92799 -2.8935 0
M  V30 2276 H 215.369 -2.79392 -2.85972 0
M  V30 2277 H 216.809 -2.13527 -3.66309 0
M  V30 2278 C 215.268 -0.694923 -3.29655 0
M  V30 2279 O 215.798 0.13751 -4.01465 0
M  V30 2280 N 214.004 -0.53101 -2.85707 0
M  V30 2281 H 213.551 -1.20952 -2.27439 0
M  V30 2282 H 213.509 0.292718 -3.13034 0
M  V30 2283 N 217.281 0.66697 -1.42791 0
M  V30 2284 C 218.509 1.45505 -1.47091 0
M  V30 2285 C 218.924 1.8861 -0.0845873 0
M  V30 2286 O 218.281 1.58632 0.90234 0
M  V30 2287 C 218.332 2.69906 -2.40485 0
M  V30 2288 O 218.053 2.28608 -3.73725 0
M  V30 2289 C 219.554 3.63396 -2.53886 0
M  V30 2290 H 216.774 0.447459 -0.500022 0
M  V30 2291 H 219.318 0.818866 -1.8739 0
M  V30 2292 H 217.473 3.29696 -2.03419 0
M  V30 2293 H 217.887 3.08997 -4.23817 0
M  V30 2294 H 219.361 4.47387 -3.2334 0
M  V30 2295 H 219.838 4.09824 -1.57927 0
M  V30 2296 H 220.444 3.09495 -2.91706 0
M  V30 2297 N 218.759 1.29093 0.90403 0
M  V30 2298 C 219.706 1.13853 2.00764 0
M  V30 2299 C 220.676 0.0330084 1.66067 0
M  V30 2300 O 221.861 0.199733 1.89752 0
M  V30 2301 C 219.001 0.816537 3.35301 0
M  V30 2302 C 218.114 2.00206 3.82807 0
M  V30 2303 C 217.249 1.61983 5.059 0
M  V30 2304 C 216.288 2.77143 5.45764 0
M  V30 2305 N 215.425 2.39346 6.60044 0
M  V30 2306 H 220.265 2.08276 2.13132 0
M  V30 2307 H 217.802 1.03648 1.04381 0
M  V30 2308 H 219.76 0.610557 4.12708 0
M  V30 2309 H 218.39 -0.090779 3.22672 0
M  V30 2310 H 217.442 2.31988 3.01473 0
M  V30 2311 H 218.754 2.86512 4.08304 0
M  V30 2312 H 217.908 1.37649 5.90879 0
M  V30 2313 H 216.647 0.728202 4.82233 0
M  V30 2314 H 215.652 3.02165 4.59322 0
M  V30 2315 H 216.877 3.66964 5.71414 0
M  V30 2316 H 214.823 1.52665 6.37989 0
M  V30 2317 H 214.74 3.19185 6.85315 0
M  V30 2318 H 216.008 2.1832 7.48303 0
M  V30 2319 N 220.237 -1.11381 1.11499 0
M  V30 2320 C 221.648 -1.6465 0.880191 0
M  V30 2321 C 221.999 -1.87199 -0.587434 0
M  V30 2322 O 221.124 -1.60667 -1.44966 0
M  V30 2323 C 221.719 -2.99105 1.59128 0
M  V30 2324 C 220.278 -3.49279 1.40289 0
M  V30 2325 C 219.425 -2.24077 1.63354 0
M  V30 2326 H 222.376 -0.950123 1.27116 0
M  V30 2327 H 222.397 -3.66107 1.03664 0
M  V30 2328 H 221.909 -2.82661 2.65941 0
M  V30 2329 H 220.01 -3.70887 0.356888 0
M  V30 2330 H 220.123 -4.2803 2.15238 0
M  V30 2331 H 218.487 -2.31733 1.05698 0
M  V30 2332 H 219.27 -2.10175 2.71443 0
M  V30 2333 N 221.715 -0.905404 -1.28997 0
M  V30 2334 C 222.663 -0.377431 -2.29517 0
M  V30 2335 C 223.657 0.526461 -1.61012 0
M  V30 2336 O 224.863 0.40863 -1.753 0
M  V30 2337 H 221.238 -0.103437 -0.744852 0
M  V30 2338 H 223.209 -1.23848 -2.71485 0
M  V30 2339 C 221.958 0.374833 -3.45674 0
M  V30 2340 H 221.281 -0.311474 -3.98585 0
M  V30 2341 H 222.721 0.70903 -4.1803 0
M  V30 2342 C 221.18 1.57963 -2.97572 0
M  V30 2343 O 221.71 2.67886 -2.99333 0
M  V30 2344 N 219.916 1.42375 -2.53333 0
M  V30 2345 H 219.463 0.529466 -2.521 0
M  V30 2346 H 219.421 2.23117 -2.21509 0
M  V30 2347 N 223.193 1.4272 -0.668489 0
M  V30 2348 C 224.123 2.335 -0.000100175 0
M  V30 2349 C 225.104 1.50328 0.795964 0
M  V30 2350 O 226.289 1.78949 0.754385 0
M  V30 2351 C 223.419 3.33874 0.956302 0
M  V30 2352 C 222.373 4.27152 0.269278 0
M  V30 2353 C 221.699 5.17684 1.33818 0
M  V30 2354 C 222.999 5.15373 -0.847805 0
M  V30 2355 H 224.693 2.89639 -0.758244 0
M  V30 2356 H 222.239 1.39269 -0.366079 0
M  V30 2357 H 224.192 3.9629 1.43292 0
M  V30 2358 H 222.916 2.76025 1.74579 0
M  V30 2359 H 221.575 3.66123 -0.187042 0
M  V30 2360 H 221.223 4.56165 2.1195 0
M  V30 2361 H 220.923 5.80918 0.883659 0
M  V30 2362 H 222.447 5.82974 1.81586 0
M  V30 2363 H 223.861 5.7151 -0.452681 0
M  V30 2364 H 222.258 5.87407 -1.22773 0
M  V30 2365 H 223.328 4.5415 -1.69929 0
M  V30 2366 N 224.671 0.411399 1.52136 0
M  V30 2367 C 225.619 -0.427633 2.28635 0
M  V30 2368 C 226.613 -1.04383 1.33419 0
M  V30 2369 O 227.819 -0.981772 1.50868 0
M  V30 2370 H 224.194 -0.156689 0.735495 0
M  V30 2371 H 226.165 0.238761 2.97443 0
M  V30 2372 C 224.914 -1.53082 3.12188 0
M  V30 2373 H 224.237 -1.06601 3.85326 0
M  V30 2374 H 225.677 -2.09167 3.68816 0
M  V30 2375 C 224.136 -2.49946 2.25895 0
M  V30 2376 O 224.666 -3.53884 1.90076 0
M  V30 2377 N 222.872 -2.2021 1.8962 0
M  V30 2378 H 222.419 -1.35719 2.18948 0
M  V30 2379 H 222.377 -2.85266 1.32176 0
M  V30 2380 N 226.149 -1.5696 0.141893 0
M  V30 2381 C 227.079 -2.19516 -0.795936 0
M  V30 2382 C 228.06 -1.14187 -1.26077 0
M  V30 2383 O 229.245 -1.42511 -1.31925 0
M  V30 2384 C 226.375 -2.81272 -2.03723 0
M  V30 2385 C 225.329 -3.92384 -1.70936 0
M  V30 2386 C 224.655 -4.41052 -3.02287 0
M  V30 2387 C 225.955 -5.13403 -0.959954 0
M  V30 2388 H 227.649 -2.98138 -0.274596 0
M  V30 2389 H 225.195 -1.43406 -0.130636 0
M  V30 2390 H 227.148 -3.237 -2.69808 0
M  V30 2391 H 225.872 -1.99973 -2.58221 0
M  V30 2392 H 224.531 -3.50566 -1.07232 0
M  V30 2393 H 224.179 -3.56582 -3.54765 0
M  V30 2394 H 223.879 -5.15993 -2.81114 0
M  V30 2395 H 225.403 -4.86146 -3.69451 0
M  V30 2396 H 226.817 -5.52706 -1.52279 0
M  V30 2397 H 225.214 -5.94073 -0.848357 0
M  V30 2398 H 226.284 -4.84875 0.0492434 0
M  V30 2399 N 227.627 0.131896 -1.57047 0
M  V30 2400 C 228.559 1.1878 -1.9602 0
M  V30 2401 C 229.572 1.38363 -0.857875 0
M  V30 2402 O 230.761 1.37666 -1.13623 0
M  V30 2403 C 227.861 2.55008 -2.23213 0
M  V30 2404 C 227.034 2.56201 -3.54513 0
M  V30 2405 C 226.093 3.7408 -3.70069 0
M  V30 2406 O 225.119 3.58258 -4.42312 0
M  V30 2407 N 226.321 4.92137 -3.07866 0
M  V30 2408 H 229.086 0.85639 -2.87204 0
M  V30 2409 H 226.647 0.321309 -1.5868 0
M  V30 2410 H 228.639 3.32404 -2.30846 0
M  V30 2411 H 227.209 2.80382 -1.3822 0
M  V30 2412 H 226.429 1.64613 -3.58185 0
M  V30 2413 H 227.717 2.54043 -4.4084 0
M  V30 2414 H 227.115 5.07895 -2.49116 0
M  V30 2415 H 225.672 5.67254 -3.21039 0
M  V30 2416 N 229.106 1.52395 0.401703 0
M  V30 2417 C 230.352 1.67065 1.14966 0
M  V30 2418 C 230.685 0.403052 1.89971 0
M  V30 2419 O 229.96 -0.598774 1.85054 0
M  V30 2420 C 230.243 2.8975 2.13815 0
M  V30 2421 C 230.096 4.26578 1.42658 0
M  V30 2422 C 231.415 3.07965 3.14397 0
M  V30 2423 H 228.534 0.607968 0.416587 0
M  V30 2424 H 231.176 1.84965 0.434511 0
M  V30 2425 H 229.326 2.74619 2.74803 0
M  V30 2426 H 230.998 4.53451 0.847329 0
M  V30 2427 H 229.241 4.27639 0.72849 0
M  V30 2428 H 229.912 5.08483 2.14823 0
M  V30 2429 H 232.388 3.22043 2.63491 0
M  V30 2430 H 231.264 3.95308 3.80819 0
M  V30 2431 H 231.525 2.21611 3.82545 0
M  V30 2432 N 230.584 -0.659388 1.43143 0
M  V30 2433 C 231.514 -1.78422 1.50625 0
M  V30 2434 C 232.495 -1.66216 0.361443 0
M  V30 2435 O 233.68 -1.85404 0.577834 0
M  V30 2436 C 230.81 -3.16815 1.42287 0
M  V30 2437 C 229.764 -3.43777 2.54954 0
M  V30 2438 C 229.09 -4.81905 2.31671 0
M  V30 2439 C 230.39 -3.39134 3.97222 0
M  V30 2440 H 232.084 -1.72417 2.44771 0
M  V30 2441 H 229.63 -0.828084 1.17808 0
M  V30 2442 H 231.583 -3.95253 1.46127 0
M  V30 2443 H 230.307 -3.23534 0.446435 0
M  V30 2444 H 228.966 -2.67707 2.50457 0
M  V30 2445 H 228.614 -4.85294 1.32284 0
M  V30 2446 H 228.314 -5.00906 3.07192 0
M  V30 2447 H 229.838 -5.62609 2.37284 0
M  V30 2448 H 231.252 -4.07518 4.03239 0
M  V30 2449 H 229.649 -3.69671 4.72719 0
M  V30 2450 H 230.719 -2.37426 4.22797 0
M  V30 2451 N 232.062 -1.29571 -0.897171 0
M  V30 2452 C 233.287 -1.20705 -1.68656 0
M  V30 2453 C 233.712 0.228582 -1.86706 0
M  V30 2454 O 233.07 1.16494 -1.3892 0
M  V30 2455 C 233.118 -1.9282 -3.04717 0
M  V30 2456 O 232.222 -1.24697 -3.93096 0
M  V30 2457 H 231.563 -0.418126 -0.515816 0
M  V30 2458 H 234.093 -1.71183 -1.12061 0
M  V30 2459 H 234.103 -2.01372 -3.54843 0
M  V30 2460 H 232.778 -2.97239 -2.90899 0
M  V30 2461 H 231.355 -1.2442 -3.51531 0
M  V30 2462 N 233.54 1.10788 -1.12088 0
M  V30 2463 C 234.488 2.19111 -0.780587 0
M  V30 2464 C 235.482 1.67818 0.230961 0
M  V30 2465 O 236.688 1.79777 0.0895427 0
M  V30 2466 H 233.063 0.714477 -0.234578 0
M  V30 2467 H 235.034 2.45055 -1.70266 0
M  V30 2468 C 233.783 3.46818 -0.24747 0
M  V30 2469 H 233.106 3.86646 -1.01712 0
M  V30 2470 H 234.546 4.23973 -0.0476291 0
M  V30 2471 C 233.005 3.20968 1.02378 0
M  V30 2472 O 233.535 3.42298 2.10226 0
M  V30 2473 N 231.741 2.74658 0.949271 0
M  V30 2474 H 231.288 2.57501 0.0715173 0
M  V30 2475 H 231.246 2.57739 1.80049 0
M  V30 2476 N 235.018 0.912232 1.28515 0
M  V30 2477 C 236.429 0.591352 1.77087 0
M  V30 2478 C 236.78 -0.8933 1.74684 0
M  V30 2479 O 235.905 -1.69876 1.34056 0
M  V30 2480 C 236.5 1.06668 3.2157 0
M  V30 2481 C 235.059 0.79675 3.67871 0
M  V30 2482 C 234.206 1.23427 2.48316 0
M  V30 2483 H 237.157 1.09365 1.15 0
M  V30 2484 H 237.178 0.407455 3.78312 0
M  V30 2485 H 236.69 2.14726 3.23287 0
M  V30 2486 H 234.791 -0.270679 3.71616 0
M  V30 2487 H 234.904 1.40343 4.58084 0
M  V30 2488 H 233.268 0.653036 2.46186 0
M  V30 2489 H 234.051 2.32316 2.52753 0
M  V30 2490 N 236.496 -1.42363 0.676048 0
M  V30 2491 C 237.406 -2.346 -0.00153389 0
M  V30 2492 C 238.422 -1.5516 -0.787485 0
M  V30 2493 O 239.598 -1.87723 -0.729521 0
M  V30 2494 C 236.663 -3.33705 -0.940298 0
M  V30 2495 C 235.724 -4.29042 -0.148739 0
M  V30 2496 C 234.957 -5.23413 -1.04279 0
M  V30 2497 O 235.18 -5.22749 -2.28232 0
M  V30 2498 O 234.114 -5.99795 -0.502925 0
M  V30 2499 H 237.94 -2.94082 0.758268 0
M  V30 2500 H 235.525 -1.42888 0.436289 0
M  V30 2501 H 237.407 -3.94586 -1.47917 0
M  V30 2502 H 236.082 -2.76695 -1.67993 0
M  V30 2503 H 234.989 -3.71571 0.43427 0
M  V30 2504 H 236.322 -4.89097 0.551805 0
M  V30 2505 N 237.974 -0.419461 -1.51915 0
M  V30 2506 C 239.221 0.152939 -2.01922 0
M  V30 2507 C 239.549 1.4426 -1.30458 0
M  V30 2508 O 238.804 1.91514 -0.402593 0
M  V30 2509 C 239.103 0.437067 -3.54717 0
M  V30 2510 C 238.769 -0.764632 -4.44369 0
M  V30 2511 C 237.431 -1.09423 -4.68594 0
M  V30 2512 C 239.783 -1.56713 -4.97082 0
M  V30 2513 C 237.111 -2.22732 -5.42777 0
M  V30 2514 C 239.463 -2.69107 -5.72507 0
M  V30 2515 C 238.127 -3.02541 -5.95 0
M  V30 2516 H 237.397 0.0559644 -0.738884 0
M  V30 2517 H 240.044 -0.562998 -1.83037 0
M  V30 2518 H 238.349 1.23469 -3.71837 0
M  V30 2519 H 240.046 0.893083 -3.90928 0
M  V30 2520 H 236.636 -0.497775 -4.257 0
M  V30 2521 H 240.82 -1.32571 -4.78266 0
M  V30 2522 H 236.076 -2.48971 -5.58411 0
M  V30 2523 H 240.25 -3.31671 -6.12346 0
M  V30 2524 H 237.877 -3.90457 -6.52264 0
M  V30 2525 N 239.452 1.56882 -0.150215 0
M  V30 2526 C 240.382 2.19935 0.784284 0
M  V30 2527 C 241.363 1.14854 1.25469 0
M  V30 2528 O 242.548 1.43209 1.31168 0
M  V30 2529 C 239.678 2.82349 2.02229 0
M  V30 2530 C 238.632 3.93285 1.68853 0
M  V30 2531 C 237.958 4.42649 2.99944 0
M  V30 2532 C 239.258 5.13904 0.932714 0
M  V30 2533 H 240.952 2.9828 0.258781 0
M  V30 2534 H 238.498 1.43473 0.123029 0
M  V30 2535 H 240.451 3.25126 2.68088 0
M  V30 2536 H 239.175 2.0134 2.57157 0
M  V30 2537 H 237.834 3.5113 1.05371 0
M  V30 2538 H 237.482 3.58458 3.52869 0
M  V30 2539 H 237.182 5.17476 2.78374 0
M  V30 2540 H 238.706 4.88099 3.66868 0
M  V30 2541 H 240.12 5.53506 1.49345 0
M  V30 2542 H 238.517 5.94515 0.81684 0
M  V30 2543 H 239.587 4.84842 -0.0749568 0
M  V30 2544 N 240.93 -0.123565 1.57115 0
M  V30 2545 C 241.893 -1.13583 1.99076 0
M  V30 2546 C 242.893 -1.34564 0.880296 0
M  V30 2547 O 244.083 -1.31158 1.14644 0
M  V30 2548 C 241.215 -2.49128 2.32698 0
M  V30 2549 H 242.408 -0.775287 2.89706 0
M  V30 2550 H 239.961 -0.36771 1.51913 0
M  V30 2551 H 240.696 -2.90111 1.44934 0
M  V30 2552 H 240.481 -2.35255 3.13684 0
M  V30 2553 H 241.971 -3.2199 2.65918 0
M  V30 2554 N 242.408 -1.52605 -0.393616 0
M  V30 2555 C 243.318 -1.79971 -1.50492 0
M  V30 2556 C 244.334 -0.686181 -1.59899 0
M  V30 2557 O 245.51 -0.973274 -1.76322 0
M  V30 2558 C 242.575 -1.95867 -2.86072 0
M  V30 2559 C 241.636 -3.19781 -2.86424 0
M  V30 2560 C 240.869 -3.34909 -4.15538 0
M  V30 2561 O 241.092 -2.54948 -5.10253 0
M  V30 2562 O 240.026 -4.28141 -4.23059 0
M  V30 2563 H 243.852 -2.74328 -1.30299 0
M  V30 2564 H 241.437 -1.3764 -0.581005 0
M  V30 2565 H 243.319 -2.08056 -3.66457 0
M  V30 2566 H 241.994 -1.04699 -3.063 0
M  V30 2567 H 240.901 -3.13038 -2.04837 0
M  V30 2568 H 242.234 -4.1078 -2.71147 0
M  V30 2569 N 243.887 0.651787 -1.4349 0
M  V30 2570 C 245.135 1.40888 -1.44897 0
M  V30 2571 C 245.456 1.94856 -0.0749086 0
M  V30 2572 O 244.726 1.74518 0.889956 0
M  V30 2573 H 243.306 0.522887 -0.533478 0
M  V30 2574 H 245.968 0.768609 -1.79104 0
M  V30 2575 H 245.064 2.25052 -2.16236 0
M  V30 2576 N 245.365 1.30045 0.890287 0
M  V30 2577 C 246.593 1.21472 1.67487 0
M  V30 2578 C 247.008 -0.223241 1.87476 0
M  V30 2579 O 246.365 -1.14828 1.41847 0
M  V30 2580 C 246.416 1.93394 3.05419 0
M  V30 2581 O 246.137 3.31576 2.86337 0
M  V30 2582 C 247.638 1.91414 3.99844 0
M  V30 2583 H 244.858 0.420604 0.522813 0
M  V30 2584 H 247.402 1.7158 1.11268 0
M  V30 2585 H 245.557 1.47099 3.58386 0
M  V30 2586 H 245.971 3.67929 3.73802 0
M  V30 2587 H 247.445 2.46285 4.94012 0
M  V30 2588 H 247.922 0.891833 4.3005 0
M  V30 2589 H 248.528 2.37496 3.52811 0
M  V30 2590 N 246.843 -1.10192 1.12674 0
M  V30 2591 C 247.806 -2.14786 0.799979 0
M  V30 2592 C 248.806 -1.59711 -0.18685 0
M  V30 2593 O 249.996 -1.74156 0.0392558 0
M  V30 2594 C 247.128 -3.40374 0.189228 0
M  V30 2595 H 248.321 -2.45203 1.72671 0
M  V30 2596 H 245.874 -1.25597 0.930326 0
M  V30 2597 H 246.609 -3.15577 -0.747107 0
M  V30 2598 H 246.394 -3.81637 0.899766 0
M  V30 2599 H 247.884 -4.17594 -0.0228143 0
M  V30 2600 N 248.321 -0.919034 -1.28029 0
M  V30 2601 C 249.57 -0.550802 -1.94034 0
M  V30 2602 C 249.883 0.910877 -1.73096 0
M  V30 2603 O 251.089 1.3875 -2.33368 0
M  V30 2604 C 249.545 -0.934249 -3.47563 0
M  V30 2605 C 249.153 -2.41602 -3.7727 0
M  V30 2606 C 250.897 -0.636854 -4.19696 0
M  V30 2607 C 248.804 -2.73932 -5.24133 0
M  V30 2608 H 247.734 -0.202273 -0.726362 0
M  V30 2609 H 250.385 -1.11867 -1.45458 0
M  V30 2610 H 248.767 -0.295115 -3.94899 0
M  V30 2611 H 249.941 -3.10233 -3.40723 0
M  V30 2612 H 248.256 -2.68441 -3.18321 0
M  V30 2613 H 250.853 -0.855005 -5.2782 0
M  V30 2614 H 251.196 0.425575 -4.14119 0
M  V30 2615 H 251.729 -1.23469 -3.78154 0
M  V30 2616 H 248.468 -3.79049 -5.34792 0
M  V30 2617 H 247.988 -2.09942 -5.61858 0
M  V30 2618 H 249.667 -2.61215 -5.91925 0
M  V30 2619 N 249.799 1.42003 -0.683588 0
M  V30 2620 C 250.746 2.30798 -0.0107309 0
M  V30 2621 C 251.716 1.4645 0.783688 0
M  V30 2622 O 252.901 1.75263 0.754156 0
M  V30 2623 C 250.041 3.3238 0.928306 0
M  V30 2624 C 249.154 4.31814 0.126776 0
M  V30 2625 C 248.289 5.20468 1.06236 0
M  V30 2626 C 247.328 6.11577 0.253035 0
M  V30 2627 N 246.465 6.92754 1.14179 0
M  V30 2628 H 251.305 2.8778 -0.773727 0
M  V30 2629 H 248.842 1.41745 -0.393283 0
M  V30 2630 H 250.8 3.89813 1.48666 0
M  V30 2631 H 249.43 2.76976 1.65783 0
M  V30 2632 H 248.482 3.76427 -0.54833 0
M  V30 2633 H 249.794 4.96276 -0.501192 0
M  V30 2634 H 248.948 5.82677 1.69035 0
M  V30 2635 H 247.687 4.56204 1.7242 0
M  V30 2636 H 246.692 5.48428 -0.388108 0
M  V30 2637 H 247.917 6.77892 -0.404839 0
M  V30 2638 H 245.863 6.3111 1.78987 0
M  V30 2639 H 245.78 7.53855 0.569111 0
M  V30 2640 H 247.048 7.59441 1.75697 0
M  V30 2641 N 251.277 0.427512 1.51691 0
M  V30 2642 C 252.554 -0.201684 1.94557 0
M  V30 2643 C 252.934 -1.60981 1.36559 0
M  V30 2644 O 252.282 -2.21814 0.548702 0
M  V30 2645 C 252.492 -0.189394 3.48486 0
M  V30 2646 C 253.84 -0.39978 4.22714 0
M  V30 2647 O 254.864 -0.267945 3.55191 0
M  V30 2648 O 253.723 -0.661249 5.42485 0
M  V30 2649 H 250.817 -0.135261 0.815864 0
M  V30 2650 H 253.363 0.484782 1.62628 0
M  V30 2651 H 252.135 0.795431 3.8313 0
M  V30 2652 H 251.758 -0.919187 3.86829 0
M  V30 2653 N 252.755 -1.56801 0.158532 0
M  V30 2654 C 253.685 -2.20347 -0.772609 0
M  V30 2655 C 254.666 -1.15518 -1.24859 0
M  V30 2656 O 255.851 -1.43902 -1.30406 0
M  V30 2657 C 252.981 -2.83417 -2.00729 0
M  V30 2658 C 251.935 -3.94174 -1.66765 0
M  V30 2659 C 251.261 -4.44233 -2.97592 0
M  V30 2660 C 252.561 -5.14392 -0.905447 0
M  V30 2661 H 254.255 -2.98413 -0.242959 0
M  V30 2662 H 251.801 -1.43537 -0.115419 0
M  V30 2663 H 253.754 -3.26543 -2.6636 0
M  V30 2664 H 252.478 -2.02701 -2.56086 0
M  V30 2665 H 251.137 -3.51684 -1.03508 0
M  V30 2666 H 250.785 -3.60325 -3.50963 0
M  V30 2667 H 250.485 -5.18945 -2.75626 0
M  V30 2668 H 252.009 -4.90037 -3.64274 0
M  V30 2669 H 253.423 -5.5429 -1.46408 0
M  V30 2670 H 251.82 -5.9494 -0.7853 0
M  V30 2671 H 252.89 -4.84795 0.100668 0
M  V30 2672 N 254.233 0.115231 -1.57178 0
M  V30 2673 C 255.18 1.14115 -2.00615 0
M  V30 2674 C 256.15 1.40939 -0.878941 0
M  V30 2675 O 257.335 1.52741 -1.14345 0
M  V30 2676 C 254.475 2.46156 -2.4187 0
M  V30 2677 C 253.588 2.26236 -3.68024 0
M  V30 2678 C 252.723 3.51534 -3.98243 0
M  V30 2679 C 251.762 3.26787 -5.17568 0
M  V30 2680 N 250.899 4.44298 -5.43639 0
M  V30 2681 H 255.739 0.763743 -2.88047 0
M  V30 2682 H 253.276 0.365615 -1.42484 0
M  V30 2683 H 255.234 3.23189 -2.63827 0
M  V30 2684 H 253.864 2.81783 -1.57475 0
M  V30 2685 H 252.916 1.40102 -3.5366 0
M  V30 2686 H 254.228 2.03929 -4.55208 0
M  V30 2687 H 253.382 4.36984 -4.20868 0
M  V30 2688 H 252.121 3.76876 -3.09541 0
M  V30 2689 H 251.126 2.39729 -4.94783 0
M  V30 2690 H 252.351 3.02812 -6.0785 0
M  V30 2691 H 250.297 4.69754 -4.57895 0
M  V30 2692 H 250.214 4.25109 -6.25154 0
M  V30 2693 H 251.482 5.3087 -5.70786 0
M  V30 2694 N 255.711 1.52812 0.385517 0
M  V30 2695 C 256.659 1.78482 1.49155 0
M  V30 2696 C 257.653 0.652914 1.56312 0
M  V30 2697 O 258.859 0.835464 1.59436 0
M  V30 2698 H 255.234 0.5648 0.496493 0
M  V30 2699 H 257.205 2.71095 1.24699 0
M  V30 2700 C 255.954 1.97378 2.86247 0
M  V30 2701 H 255.277 2.83907 2.81491 0
M  V30 2702 H 256.717 2.19327 3.62866 0
M  V30 2703 C 255.176 0.74728 3.28508 0
M  V30 2704 O 255.706 -0.0736232 4.01633 0
M  V30 2705 N 253.912 0.576396 2.84826 0
M  V30 2706 H 253.459 1.24555 2.25486 0
M  V30 2707 H 253.417 -0.24288 3.1346 0
M  V30 2708 N 257.189 -0.644168 1.43834 0
M  V30 2709 C 258.6 -1.22554 1.40845 0
M  V30 2710 C 258.951 -1.9585 0.117115 0
M  V30 2711 O 258.076 -2.01734 -0.783086 0
M  V30 2712 C 258.671 -2.22907 2.55143 0
M  V30 2713 C 257.23 -2.76501 2.5539 0
M  V30 2714 C 256.377 -1.51287 2.32396 0
M  V30 2715 H 259.328 -0.43563 1.52604 0
M  V30 2716 H 259.349 -3.05259 2.2715 0
M  V30 2717 H 258.861 -1.69533 3.49114 0
M  V30 2718 H 256.962 -3.33914 1.65324 0
M  V30 2719 H 257.075 -3.23429 3.53455 0
M  V30 2720 H 255.439 -1.78957 1.81236 0
M  V30 2721 H 256.222 -0.998336 3.28463 0
M  V30 2722 N 258.668 -1.30515 -0.883378 0
M  V30 2723 C 259.945 -1.10086 -1.6168 0
M  V30 2724 C 260.325 0.349269 -2.08191 0
M  V30 2725 O 259.673 1.34105 -1.85008 0
M  V30 2726 C 259.883 -2.10315 -2.78511 0
M  V30 2727 C 261.231 -2.42119 -3.48803 0
M  V30 2728 O 262.255 -2.08638 -2.88702 0
M  V30 2729 O 261.114 -2.99396 -4.57192 0
M  V30 2730 H 258.208 -0.422907 -0.710689 0
M  V30 2731 H 260.754 -1.41947 -0.930015 0
M  V30 2732 H 259.526 -3.07917 -2.41459 0
M  V30 2733 H 259.149 -1.79282 -3.54886 0
M  V30 2734 N 260.146 1.09593 -1.13257 0
M  V30 2735 C 261.562 1.33775 -0.870423 0
M  V30 2736 C 261.762 1.95327 0.494926 0
M  V30 2737 O 260.818 2.19853 1.2418 0
M  V30 2738 C 262.131 2.25106 -1.99369 0
M  V30 2739 C 263.679 2.3862 -2.02558 0
M  V30 2740 C 264.154 3.33285 -3.14142 0
M  V30 2741 N 265.645 3.40857 -3.13641 0
M  V30 2742 C 266.38 4.14101 -3.96621 0
M  V30 2743 N 265.876 4.90157 -4.8961 0
M  V30 2744 N 267.669 4.09808 -3.84726 0
M  V30 2745 H 259.82 0.680136 -2.01216 0
M  V30 2746 H 262.083 0.362133 -0.876107 0
M  V30 2747 H 261.789 1.87103 -2.97801 0
M  V30 2748 H 261.663 3.25481 -1.90635 0
M  V30 2749 H 264.05 2.75887 -1.0474 0
M  V30 2750 H 264.131 1.38028 -2.15364 0
M  V30 2751 H 263.775 2.96741 -4.12198 0
M  V30 2752 H 263.705 4.33776 -2.98574 0
M  V30 2753 H 266.196 2.86624 -2.46282 0
M  V30 2754 H 266.509 5.4347 -5.49418 0
M  V30 2755 H 264.854 4.89251 -4.93617 0
M  V30 2756 H 268.045 3.4949 -3.11408 0
M  V30 2757 H 268.218 4.66629 -4.49623 0
M  V30 2758 N 261.624 0.925811 1.2754 0
M  V30 2759 C 262.87 0.566092 1.94739 0
M  V30 2760 C 263.203 -0.890057 1.72603 0
M  V30 2761 O 262.478 -1.63467 1.05399 0
M  V30 2762 C 262.761 0.89054 3.48915 0
M  V30 2763 C 262.614 2.4003 3.80402 0
M  V30 2764 C 263.933 0.395101 4.38323 0
M  V30 2765 H 261.052 0.20714 0.707292 0
M  V30 2766 H 263.694 1.15725 1.50691 0
M  V30 2767 H 261.844 0.387452 3.86563 0
M  V30 2768 H 263.516 2.97494 3.52555 0
M  V30 2769 H 261.759 2.85028 3.2702 0
M  V30 2770 H 262.43 2.57785 4.8811 0
M  V30 2771 H 264.906 0.826241 4.07814 0
M  V30 2772 H 263.782 0.651086 5.45025 0
M  V30 2773 H 264.043 -0.704798 4.36446 0
M  V30 2774 N 263.102 -1.41638 0.69111 0
M  V30 2775 C 264.032 -2.3347 0.037248 0
M  V30 2776 C 265.013 -1.51575 -0.771947 0
M  V30 2777 O 266.198 -1.80126 -0.72582 0
M  V30 2778 C 263.328 -3.35354 -0.903064 0
M  V30 2779 C 262.282 -4.27526 -0.201288 0
M  V30 2780 C 261.608 -5.19747 -1.25565 0
M  V30 2781 C 262.908 -5.13959 0.929689 0
M  V30 2782 H 264.602 -2.88397 0.804227 0
M  V30 2783 H 262.148 -1.38669 0.388189 0
M  V30 2784 H 264.101 -3.98519 -1.36969 0
M  V30 2785 H 262.825 -2.78767 -1.70166 0
M  V30 2786 H 261.484 -3.65779 0.245265 0
M  V30 2787 H 261.132 -4.59479 -2.04666 0
M  V30 2788 H 260.832 -5.8225 -0.791128 0
M  V30 2789 H 262.356 -5.85789 -1.72288 0
M  V30 2790 H 263.77 -5.70718 0.543546 0
M  V30 2791 H 262.167 -5.85379 1.32103 0
M  V30 2792 H 263.237 -4.51389 1.77133 0
M  V30 2793 N 264.58 -0.43555 -1.51462 0
M  V30 2794 C 265.829 0.133007 -2.01261 0
M  V30 2795 C 266.142 1.43942 -1.32439 0
M  V30 2796 O 267.348 2.09081 -1.73198 0
M  V30 2797 C 265.804 0.287581 -3.58749 0
M  V30 2798 C 265.412 -1.00829 -4.36506 0
M  V30 2799 C 267.156 0.810004 -4.167 0
M  V30 2800 C 265.063 -0.819454 -5.85695 0
M  V30 2801 H 263.993 0.0534822 -0.752101 0
M  V30 2802 H 266.644 -0.565038 -1.74584 0
M  V30 2803 H 265.026 1.04859 -3.81865 0
M  V30 2804 H 266.2 -1.77749 -4.25138 0
M  V30 2805 H 264.515 -1.45911 -3.89999 0
M  V30 2806 H 267.112 0.967743 -5.2587 0
M  V30 2807 H 267.455 1.79196 -3.75758 0
M  V30 2808 H 267.988 0.107357 -3.97655 0
M  V30 2809 H 264.727 -1.77374 -6.31046 0
M  V30 2810 H 264.247 -0.0900208 -5.99732 0
M  V30 2811 H 265.926 -0.471949 -6.45276 0
M  V30 2812 N 266.058 1.56714 -0.166846 0
M  V30 2813 C 267.306 1.96358 0.478305 0
M  V30 2814 C 267.627 1.0537 1.6408 0
M  V30 2815 O 266.897 0.119154 1.95537 0
M  V30 2816 H 265.477 0.725065 0.179692 0
M  V30 2817 H 268.139 1.93329 -0.246985 0
M  V30 2818 H 267.235 3.00547 0.841292 0
M  V30 2819 N 267.536 -0.106894 1.57237 0
M  V30 2820 C 268.784 -0.810921 1.85117 0
M  V30 2821 C 269.105 -1.7984 0.753827 0
M  V30 2822 O 268.375 -1.94649 -0.221056 0
M  V30 2823 H 266.955 -0.302466 0.683025 0
M  V30 2824 H 269.617 -0.0913324 1.94686 0
M  V30 2825 H 268.713 -1.34875 2.81452 0
M  V30 2826 N 269.014 -1.53014 -0.377408 0
M  V30 2827 C 270.291 -1.59215 -1.13622 0
M  V30 2828 C 270.671 -0.392407 -2.07421 0
M  V30 2829 O 270.019 0.618342 -2.19975 0
M  V30 2830 C 270.229 -2.93669 -1.88573 0
M  V30 2831 C 271.577 -3.47822 -2.43526 0
M  V30 2832 O 272.601 -2.9562 -1.98715 0
M  V30 2833 O 271.46 -4.39055 -3.25412 0
M  V30 2834 H 268.554 -0.642625 -0.52054 0
M  V30 2835 H 271.1 -1.65353 -0.381625 0
M  V30 2836 H 269.872 -3.7243 -1.20048 0
M  V30 2837 H 269.495 -2.90968 -2.70968 0
M  V30 2838 N 270.492 0.636531 -1.44174 0
M  V30 2839 C 271.402 1.77754 -1.53103 0
M  V30 2840 C 272.418 1.68928 -0.417034 0
M  V30 2841 O 273.594 1.89801 -0.6736 0
M  V30 2842 C 270.659 3.14115 -1.46741 0
M  V30 2843 C 269.72 3.34612 -2.68948 0
M  V30 2844 C 268.953 4.64467 -2.6288 0
M  V30 2845 O 269.176 5.44919 -1.68581 0
M  V30 2846 O 268.11 4.87049 -3.53648 0
M  V30 2847 H 271.936 1.73174 -2.49489 0
M  V30 2848 H 269.521 0.79709 -1.2636 0
M  V30 2849 H 271.403 3.95412 -1.45696 0
M  V30 2850 H 270.078 3.19249 -0.534975 0
M  V30 2851 H 268.985 2.53014 -2.75562 0
M  V30 2852 H 270.318 3.34336 -3.61221 0
M  V30 2853 N 271.97 1.30982 0.876444 0
M  V30 2854 C 273.198 1.23242 1.6619 0
M  V30 2855 C 273.613 -0.203345 1.87702 0
M  V30 2856 O 272.97 -1.13317 1.43057 0
M  V30 2857 C 273.021 1.96623 3.03351 0
M  V30 2858 O 272.742 3.34594 2.82804 0
M  V30 2859 C 274.243 1.95644 3.97792 0
M  V30 2860 H 271.463 0.426126 0.518322 0
M  V30 2861 H 274.007 1.7275 1.09442 0
M  V30 2862 H 272.162 1.50892 3.56806 0
M  V30 2863 H 272.576 3.71873 3.69879 0
M  V30 2864 H 274.05 2.51511 4.91372 0
M  V30 2865 H 274.527 0.937395 4.2908 0
M  V30 2866 H 275.133 2.41225 3.50272 0
M  V30 2867 N 273.449 -1.08991 1.13837 0
M  V30 2868 C 274.86 -1.62746 0.914917 0
M  V30 2869 C 275.211 -1.88403 -0.547594 0
M  V30 2870 O 274.336 -1.63706 -1.41525 0
M  V30 2871 C 274.931 -2.95662 1.65437 0
M  V30 2872 C 273.49 -3.46225 1.47666 0
M  V30 2873 C 272.637 -2.20562 1.6807 0
M  V30 2874 H 275.588 -0.922946 1.29102 0
M  V30 2875 H 275.609 -3.63825 1.11407 0
M  V30 2876 H 275.121 -2.76956 2.71877 0
M  V30 2877 H 273.222 -3.70046 0.435478 0
M  V30 2878 H 273.335 -4.23368 2.24268 0
M  V30 2879 H 271.699 -2.29439 1.10589 0
M  V30 2880 H 272.482 -2.0437 2.7584 0
M  V30 2881 N 274.927 -0.932562 -1.27047 0
M  V30 2882 C 275.837 -0.441219 -2.30414 0
M  V30 2883 C 276.853 0.480525 -1.67233 0
M  V30 2884 O 278.029 0.362151 -1.98117 0
M  V30 2885 C 275.094 0.293651 -3.45454 0
M  V30 2886 C 274.155 -0.663601 -4.2414 0
M  V30 2887 C 273.388 0.0362932 -5.33688 0
M  V30 2888 O 273.611 1.2548 -5.56427 0
M  V30 2889 O 272.545 -0.638015 -5.98509 0
M  V30 2890 H 276.371 -1.29962 -2.74488 0
M  V30 2891 H 273.956 -0.6981 -1.32087 0
M  V30 2892 H 275.838 0.707951 -4.15411 0
M  V30 2893 H 274.513 1.12758 -3.03426 0
M  V30 2894 H 273.42 -1.12768 -3.56699 0
M  V30 2895 H 274.753 -1.46489 -4.69896 0
M  V30 2896 N 276.405 1.4127 -0.698611 0
M  V30 2897 C 277.653 2.00782 -0.230409 0
M  V30 2898 C 277.974 1.5562 1.17505 0
M  V30 2899 O 277.244 0.78815 1.79346 0
M  V30 2900 H 275.824 0.742464 -0.0821944 0
M  V30 2901 H 278.486 1.72852 -0.90045 0
M  V30 2902 H 277.582 3.11095 -0.25021 0
M  V30 2903 N 277.883 0.443576 1.51229 0
M  V30 2904 C 278.815 -0.400608 2.25672 0
M  V30 2905 C 279.828 -0.980945 1.29928 0
M  V30 2906 O 281.017 -0.874024 1.55638 0
M  V30 2907 C 278.117 -1.57304 3.00181 0
M  V30 2908 C 277.29 -1.11046 4.23069 0
M  V30 2909 C 276.349 -2.15374 4.80105 0
M  V30 2910 O 275.375 -1.74554 5.41774 0
M  V30 2911 N 276.577 -3.47922 4.64683 0
M  V30 2912 H 279.342 0.23745 2.98758 0
M  V30 2913 H 276.903 0.272809 1.59585 0
M  V30 2914 H 278.895 -2.26733 3.35223 0
M  V30 2915 H 277.465 -2.11632 2.30066 0
M  V30 2916 H 276.685 -0.243019 3.9345 0
M  V30 2917 H 277.973 -0.778888 5.02803 0
M  V30 2918 H 277.371 -3.83815 4.15575 0
M  V30 2919 H 275.928 -4.13228 5.0407 0
M  V30 2920 N 279.361 -1.56624 0.175154 0
M  V30 2921 C 280.777 -1.58571 -0.180966 0
M  V30 2922 C 280.977 -1.19065 -1.6256 0
M  V30 2923 O 280.033 -0.904044 -2.35761 0
M  V30 2924 C 281.346 -3.00522 0.103326 0
M  V30 2925 C 282.894 -3.12972 0.0418426 0
M  V30 2926 C 283.369 -4.57022 0.299175 0
M  V30 2927 N 284.86 -4.62541 0.247086 0
M  V30 2928 C 285.595 -5.71857 0.420318 0
M  V30 2929 N 285.091 -6.89717 0.652816 0
M  V30 2930 N 286.884 -5.60972 0.355957 0
M  V30 2931 H 279.035 -1.80589 1.11809 0
M  V30 2932 H 281.298 -0.837178 0.444788 0
M  V30 2933 H 281.004 -3.33916 1.10422 0
M  V30 2934 H 280.878 -3.72344 -0.603299 0
M  V30 2935 H 283.265 -2.79403 -0.949636 0
M  V30 2936 H 283.346 -2.43578 0.781238 0
M  V30 2937 H 282.99 -4.913 1.28788 0
M  V30 2938 H 282.92 -5.24579 -0.460876 0
M  V30 2939 H 285.411 -3.77829 0.0731895 0
M  V30 2940 H 285.724 -7.68911 0.774347 0
M  V30 2941 H 284.069 -6.91572 0.689476 0
M  V30 2942 H 287.26 -4.67773 0.174882 0
M  V30 2943 H 287.433 -6.46111 0.494388 0
M  V30 2944 N 280.839 0.0985539 -1.57292 0
M  V30 2945 C 281.802 1.10402 -2.00858 0
M  V30 2946 C 282.802 1.33146 -0.901593 0
M  V30 2947 O 283.992 1.29318 -1.16716 0
M  V30 2948 C 281.124 2.45394 -2.36632 0
M  V30 2949 H 282.317 0.729099 -2.90902 0
M  V30 2950 H 279.87 0.343495 -1.52479 0
M  V30 2951 H 280.605 2.87769 -1.49531 0
M  V30 2952 H 280.39 2.30235 -3.17387 0
M  V30 2953 H 281.88 3.17718 -2.71007 0
M  V30 2954 N 282.317 1.53212 0.369288 0
M  V30 2955 C 283.563 1.69466 1.11397 0
M  V30 2956 C 283.896 0.443257 1.89074 0
M  V30 2957 O 283.171 -0.559386 1.86282 0
M  V30 2958 C 283.454 2.9422 2.07621 0
M  V30 2959 C 283.307 4.29508 1.33577 0
M  V30 2960 C 284.626 3.14565 3.07794 0
M  V30 2961 H 281.745 0.616667 0.403597 0
M  V30 2962 H 284.387 1.85845 0.395179 0
M  V30 2963 H 282.537 2.80387 2.68916 0
M  V30 2964 H 284.209 4.55147 0.750955 0
M  V30 2965 H 282.452 4.29088 0.637618 0
M  V30 2966 H 283.123 5.12926 2.03989 0
M  V30 2967 H 285.599 3.2756 2.56601 0
M  V30 2968 H 284.475 4.03297 3.72348 0
M  V30 2969 H 284.736 2.29675 3.77759 0
M  V30 2970 N 283.795 -0.628877 1.44509 0
M  V30 2971 C 284.727 -1.754 1.47538 0
M  V30 2972 C 285.74 -1.58575 0.368506 0
M  V30 2973 O 286.929 -1.66847 0.634376 0
M  V30 2974 C 284.029 -3.1315 1.29577 0
M  V30 2975 C 283.202 -3.56413 2.53551 0
M  V30 2976 C 282.261 -4.7305 2.30457 0
M  V30 2977 O 281.287 -4.81247 3.03957 0
M  V30 2978 N 282.489 -5.64903 1.3366 0
M  V30 2979 H 285.254 -1.73272 2.44534 0
M  V30 2980 H 282.815 -0.813512 1.39977 0
M  V30 2981 H 284.807 -3.88902 1.11971 0
M  V30 2982 H 283.377 -3.09908 0.409371 0
M  V30 2983 H 282.597 -2.70847 2.86419 0
M  V30 2984 H 283.885 -3.82071 3.36005 0
M  V30 2985 H 283.283 -5.60975 0.729604 0
M  V30 2986 H 281.84 -6.40275 1.22032 0
M  V30 2987 N 285.273 -1.31445 -0.869486 0
M  V30 2988 C 286.236 -1.19094 -1.9583 0
M  V30 2989 C 287.236 -0.117906 -1.60367 0
M  V30 2990 O 288.426 -0.367208 -1.70286 0
M  V30 2991 C 285.558 -0.828165 -3.30688 0
M  V30 2992 H 286.751 -2.15842 -2.08212 0
M  V30 2993 H 284.304 -1.15063 -1.05784 0
M  V30 2994 H 285.039 0.138142 -3.24006 0
M  V30 2995 H 284.824 -1.6038 -3.578 0
M  V30 2996 H 286.314 -0.765658 -4.10521 0
M  V30 2997 N 286.751 1.08385 -1.14413 0
M  V30 2998 C 287.681 2.17321 -0.854044 0
M  V30 2999 C 288.662 1.69024 0.191049 0
M  V30 3000 O 289.847 1.94141 0.0476779 0
M  V30 3001 C 286.977 3.45719 -0.330983 0
M  V30 3002 C 285.931 4.07409 -1.31155 0
M  V30 3003 C 285.257 5.30762 -0.64778 0
M  V30 3004 C 286.557 4.48665 -2.67388 0
M  V30 3005 H 288.251 2.41845 -1.76498 0
M  V30 3006 H 285.797 1.16233 -0.850051 0
M  V30 3007 H 287.75 4.21241 -0.115645 0
M  V30 3008 H 286.474 3.2075 0.615381 0
M  V30 3009 H 285.133 3.33919 -1.51306 0
M  V30 3010 H 284.781 5.02078 0.304398 0
M  V30 3011 H 284.481 5.72992 -1.30207 0
M  V30 3012 H 286.005 6.08998 -0.441972 0
M  V30 3013 H 287.419 5.15364 -2.51143 0
M  V30 3014 H 285.816 5.01814 -3.29093 0
M  V30 3015 H 286.886 3.60543 -3.24248 0
M  V30 3016 N 288.23 0.939286 1.26551 0
M  V30 3017 C 289.47 0.5933 1.956 0
M  V30 3018 C 289.834 -0.851515 1.72085 0
M  V30 3019 O 291.035 -1.30634 2.34921 0
M  V30 3020 C 289.306 0.923996 3.45249 0
M  V30 3021 S 290.865 0.688269 4.33369 0
M  V30 3022 H 287.683 0.218591 0.676564 0
M  V30 3023 H 290.285 1.2102 1.5354 0
M  V30 3024 H 288.989 1.97297 3.59864 0
M  V30 3025 H 288.52 0.296746 3.92279 0
M  V30 3026 H 290.535 -0.448434 4.9417 0
M  V30 3027 N 289.708 -1.40897 0.706093 0
M  V30 3028 C 290.671 -2.29131 0.0562841 0
M  V30 3029 C 291.671 -1.44901 -0.697166 0
M  V30 3030 O 292.861 -1.65926 -0.530484 0
M  V30 3031 C 289.993 -3.27957 -0.93043 0
M  V30 3032 H 291.186 -2.88091 0.833284 0
M  V30 3033 H 288.739 -1.4906 0.470192 0
M  V30 3034 H 289.474 -2.73997 -1.73482 0
M  V30 3035 H 289.259 -3.90124 -0.393166 0
M  V30 3036 H 290.749 -3.94049 -1.38256 0
M  V30 3037 N 291.186 -0.45159 -1.50991 0
M  V30 3038 C 292.432 0.110237 -2.025 0
M  V30 3039 C 292.765 1.41109 -1.33424 0
M  V30 3040 O 292.04 1.89135 -0.453659 0
M  V30 3041 C 292.323 0.314271 -3.58726 0
M  V30 3042 C 292.176 -1.00623 -4.38401 0
M  V30 3043 C 293.495 1.07767 -4.26702 0
M  V30 3044 H 290.614 0.0385897 -0.735989 0
M  V30 3045 H 293.256 -0.593374 -1.80497 0
M  V30 3046 H 291.406 0.913601 -3.77605 0
M  V30 3047 H 293.078 -1.64064 -4.31139 0
M  V30 3048 H 291.321 -1.6075 -4.02917 0
M  V30 3049 H 291.992 -0.817341 -5.45915 0
M  V30 3050 H 294.468 0.56986 -4.12179 0
M  V30 3051 H 293.344 1.18921 -5.35863 0
M  V30 3052 H 293.605 2.10939 -3.88532 0
M  V30 3053 N 292.664 1.56529 -0.183458 0
M  V30 3054 C 293.894 2.01331 0.463612 0
M  V30 3055 C 294.302 1.06278 1.5653 0
M  V30 3056 O 293.645 0.0577976 1.83609 0
M  V30 3057 C 293.707 3.42547 1.09096 0
M  V30 3058 C 293.371 4.56817 0.129442 0
M  V30 3059 C 294.368 5.15734 -0.656807 0
M  V30 3060 C 292.053 5.02295 0.02174 0
M  V30 3061 C 294.047 6.1857 -1.53784 0
M  V30 3062 C 291.734 6.04978 -0.862864 0
M  V30 3063 C 292.732 6.62988 -1.64123 0
M  V30 3064 O 292.42 7.63677 -2.51103 0
M  V30 3065 H 292.152 0.664917 0.121907 0
M  V30 3066 H 294.706 2.034 -0.285954 0
M  V30 3067 H 292.936 3.37428 1.88889 0
M  V30 3068 H 294.625 3.71228 1.64148 0
M  V30 3069 H 295.391 4.81473 -0.583839 0
M  V30 3070 H 291.27 4.56847 0.617392 0
M  V30 3071 H 294.814 6.63777 -2.14583 0
M  V30 3072 H 290.711 6.38663 -0.93699 0
M  V30 3073 H 291.479 7.81049 -2.44753 0
M  V30 3074 N 294.142 -0.090211 1.57342 0
M  V30 3075 C 295.052 -1.12735 2.05738 0
M  V30 3076 C 296.068 -1.43557 0.983231 0
M  V30 3077 O 297.244 -1.54101 1.29672 0
M  V30 3078 C 294.309 -2.42659 2.47624 0
M  V30 3079 C 293.37 -2.18975 3.69254 0
M  V30 3080 C 292.603 -3.42704 4.09133 0
M  V30 3081 O 292.826 -4.51127 3.49057 0
M  V30 3082 O 291.76 -3.32003 5.02053 0
M  V30 3083 H 295.586 -0.746279 2.94388 0
M  V30 3084 H 293.171 -0.303064 1.46294 0
M  V30 3085 H 295.053 -3.19155 2.7517 0
M  V30 3086 H 293.728 -2.80182 1.62109 0
M  V30 3087 H 292.635 -1.40244 3.46818 0
M  V30 3088 H 293.968 -1.86342 4.55563 0
M  V30 3089 N 295.62 -1.53406 -0.361157 0
M  V30 3090 C 296.57 -1.76536 -1.44287 0
M  V30 3091 C 297.554 -0.620019 -1.48474 0
M  V30 3092 O 298.746 -0.878834 -1.53641 0
M  V30 3093 C 295.875 -1.96266 -2.81664 0
M  V30 3094 C 294.961 -3.16815 -2.81938 0
M  V30 3095 N 295.352 -4.38637 -2.51855 0
M  V30 3096 C 293.65 -3.17627 -3.13096 0
M  V30 3097 C 294.351 -5.20401 -2.59919 0
M  V30 3098 N 293.327 -4.56712 -2.94814 0
M  V30 3099 H 297.129 -2.68331 -1.19899 0
M  V30 3100 H 294.643 -1.52091 -0.56938 0
M  V30 3101 H 296.64 -2.10966 -3.59582 0
M  V30 3102 H 295.3 -1.05702 -3.07013 0
M  V30 3103 H 296.311 -4.66293 -2.25369 0
M  V30 3104 H 292.988 -2.36971 -3.43731 0
M  V30 3105 H 294.378 -6.27586 -2.39969 0
M  V30 3106 N 297.098 0.621204 -1.44841 0
M  V30 3107 C 298.344 1.38073 -1.49357 0
M  V30 3108 C 298.699 1.91973 -0.128115 0
M  V30 3109 O 297.992 1.71311 0.858087 0
M  V30 3110 C 298.186 2.55675 -2.4973 0
M  V30 3111 C 298.015 2.13289 -3.95901 0
M  V30 3112 C 296.785 2.001 -4.63991 0
M  V30 3113 C 298.983 1.7159 -4.84831 0
M  V30 3114 N 296.965 1.51381 -5.94943 0
M  V30 3115 C 298.336 1.34188 -6.05304 0
M  V30 3116 C 300.391 1.59059 -4.7181 0
M  V30 3117 C 299.094 0.855085 -7.14199 0
M  V30 3118 C 301.12 1.11784 -5.8074 0
M  V30 3119 C 300.482 0.753385 -7.0036 0
M  V30 3120 H 296.581 0.499675 -0.601539 0
M  V30 3121 H 299.165 0.711609 -1.8123 0
M  V30 3122 H 297.336 3.20201 -2.19832 0
M  V30 3123 H 299.068 3.22509 -2.4448 0
M  V30 3124 H 295.823 2.20863 -4.18947 0
M  V30 3125 H 296.247 1.29293 -6.64539 0
M  V30 3126 H 300.889 1.85865 -3.79755 0
M  V30 3127 H 298.607 0.574552 -8.06055 0
M  V30 3128 H 302.193 1.02533 -5.72694 0
M  V30 3129 H 301.073 0.393183 -7.83214 0
M  V30 3130 N 298.576 1.31904 0.862503 0
M  V30 3131 C 299.822 1.22197 1.61851 0
M  V30 3132 C 300.155 -0.217641 1.92977 0
M  V30 3133 O 299.43 -1.15264 1.56666 0
M  V30 3134 C 299.713 2.07378 2.94391 0
M  V30 3135 C 299.566 3.59678 2.70096 0
M  V30 3136 C 300.885 1.92891 3.95577 0
M  V30 3137 H 298.004 0.445255 0.587296 0
M  V30 3138 H 300.646 1.6177 0.99651 0
M  V30 3139 H 298.796 1.73758 3.47477 0
M  V30 3140 H 300.468 4.03472 2.23625 0
M  V30 3141 H 298.711 3.82735 2.04197 0
M  V30 3142 H 299.382 4.14595 3.64438 0
M  V30 3143 H 301.858 2.22327 3.51724 0
M  V30 3144 H 300.734 2.54781 4.86187 0
M  V30 3145 H 300.995 0.894315 4.3296 0
M  V30 3146 N 300.054 -1.07777 1.14986 0
M  V30 3147 C 301.465 -1.61766 0.932127 0
M  V30 3148 C 301.816 -1.88974 -0.527581 0
M  V30 3149 O 300.941 -1.65198 -1.39781 0
M  V30 3150 C 301.536 -2.93891 1.68563 0
M  V30 3151 C 300.095 -3.44639 1.5133 0
M  V30 3152 C 299.242 -2.18767 1.704 0
M  V30 3153 H 302.193 -0.909201 1.30074 0
M  V30 3154 H 302.214 -3.62623 1.15259 0
M  V30 3155 H 301.726 -2.74057 2.74799 0
M  V30 3156 H 299.827 -3.69564 0.474702 0
M  V30 3157 H 299.94 -4.20966 2.28746 0
M  V30 3158 H 298.304 -2.28253 1.13016 0
M  V30 3159 H 299.087 -2.01433 2.77992 0
M  V30 3160 N 301.532 -0.945985 -1.26051 0
M  V30 3161 C 302.948 -0.649045 -1.45807 0
M  V30 3162 C 303.148 0.796158 -1.85104 0
M  V30 3163 O 302.204 1.57233 -1.97571 0
M  V30 3164 C 303.517 -1.61458 -2.53677 0
M  V30 3165 C 305.065 -1.62481 -2.67524 0
M  V30 3166 C 305.54 -2.57776 -3.7857 0
M  V30 3167 N 307.031 -2.5609 -3.85969 0
M  V30 3168 C 307.766 -3.26508 -4.7136 0
M  V30 3169 N 307.262 -4.0637 -5.61102 0
M  V30 3170 N 309.055 -3.15437 -4.65248 0
M  V30 3171 H 301.206 -1.88005 -0.988328 0
M  V30 3172 H 303.469 -0.808198 -0.4955 0
M  V30 3173 H 303.175 -2.64644 -2.31638 0
M  V30 3174 H 303.049 -1.37036 -3.51427 0
M  V30 3175 H 305.436 -0.600167 -2.88933 0
M  V30 3176 H 305.517 -1.90958 -1.70202 0
M  V30 3177 H 305.161 -3.60361 -3.57913 0
M  V30 3178 H 305.091 -2.26587 -4.75359 0
M  V30 3179 H 307.582 -1.98105 -3.21812 0
M  V30 3180 H 307.895 -4.57042 -6.23164 0
M  V30 3181 H 306.24 -4.10469 -5.60839 0
M  V30 3182 H 309.431 -2.52525 -3.94143 0
M  V30 3183 H 309.604 -3.70584 -5.31575 0
M  V30 3184 N 303.011 1.40521 -0.713556 0
M  V30 3185 C 303.921 2.34522 -0.0606667 0
M  V30 3186 C 304.937 1.57193 0.74607 0
M  V30 3187 O 306.113 1.89591 0.679493 0
M  V30 3188 C 303.178 3.36081 0.851491 0
M  V30 3189 C 302.239 4.29286 0.0349339 0
M  V30 3190 C 301.472 5.25994 0.903649 0
M  V30 3191 O 301.695 5.28616 2.14292 0
M  V30 3192 O 300.629 6.00918 0.343723 0
M  V30 3193 H 304.455 2.91968 -0.835972 0
M  V30 3194 H 302.04 1.41681 -0.47402 0
M  V30 3195 H 303.922 3.98369 1.37404 0
M  V30 3196 H 302.597 2.81052 1.60598 0
M  V30 3197 H 301.504 3.70289 -0.532633 0
M  V30 3198 H 302.837 4.87462 -0.681287 0
M  V30 3199 N 304.489 0.459591 1.5075 0
M  V30 3200 C 305.436 -0.340524 2.28274 0
M  V30 3201 C 306.406 -0.997371 1.32822 0
M  V30 3202 O 307.591 -1.01202 1.61749 0
M  V30 3203 C 304.731 -1.42317 3.14388 0
M  V30 3204 C 303.844 -0.782251 4.24859 0
M  V30 3205 C 302.979 -1.84182 4.98247 0
M  V30 3206 C 302.018 -1.18053 6.00608 0
M  V30 3207 N 301.155 -2.18244 6.67319 0
M  V30 3208 H 305.995 0.326899 2.96202 0
M  V30 3209 H 303.532 0.173057 1.46078 0
M  V30 3210 H 305.49 -2.06241 3.62658 0
M  V30 3211 H 304.12 -2.05992 2.4853 0
M  V30 3212 H 303.172 -0.0307404 3.80388 0
M  V30 3213 H 304.484 -0.259663 4.98124 0
M  V30 3214 H 303.638 -2.55714 5.50177 0
M  V30 3215 H 302.377 -2.39819 4.24662 0
M  V30 3216 H 301.382 -0.450776 5.47949 0
M  V30 3217 H 302.607 -0.631202 6.7616 0
M  V30 3218 H 300.553 -2.72919 5.96533 0
M  V30 3219 H 300.47 -1.70938 7.36421 0
M  V30 3220 H 301.738 -2.89191 7.23871 0
M  V30 3221 N 305.967 -1.56429 0.191757 0
M  V30 3222 C 307.216 -1.9666 -0.448088 0
M  V30 3223 C 307.529 -1.08136 -1.62991 0
M  V30 3224 O 308.735 -1.38135 -2.33733 0
M  V30 3225 C 307.191 -3.49753 -0.848585 0
M  V30 3226 C 306.799 -4.46935 0.308764 0
M  V30 3227 C 308.543 -3.9876 -1.4557 0
M  V30 3228 C 306.45 -5.91293 -0.112506 0
M  V30 3229 H 305.38 -0.734312 -0.171179 0
M  V30 3230 H 308.031 -1.81301 0.283242 0
M  V30 3231 H 306.413 -3.60604 -1.63649 0
M  V30 3232 H 307.587 -4.47813 1.08627 0
M  V30 3233 H 305.902 -4.08102 0.827158 0
M  V30 3234 H 308.499 -5.04086 -1.78328 0
M  V30 3235 H 308.842 -3.42875 -2.36099 0
M  V30 3236 H 309.375 -3.9101 -0.731836 0
M  V30 3237 H 306.114 -6.51097 0.758514 0
M  V30 3238 H 305.634 -5.93676 -0.854941 0
M  V30 3239 H 307.313 -6.44663 -0.549448 0
M  V30 3240 N 307.445 0.0818655 -1.57387 0
M  V30 3241 C 308.375 1.09885 -2.06028 0
M  V30 3242 C 309.356 1.4098 -0.951774 0
M  V30 3243 O 310.541 1.50781 -1.22387 0
M  V30 3244 C 307.671 2.4151 -2.4958 0
M  V30 3245 C 306.625 2.24792 -3.64215 0
M  V30 3246 C 305.951 3.61712 -3.93787 0
M  V30 3247 C 307.251 1.67749 -4.94629 0
M  V30 3248 H 308.945 0.694128 -2.91243 0
M  V30 3249 H 306.491 0.332448 -1.4011 0
M  V30 3250 H 308.444 3.12939 -2.82219 0
M  V30 3251 H 307.168 2.83943 -1.61381 0
M  V30 3252 H 305.827 1.55807 -3.31843 0
M  V30 3253 H 305.475 4.01697 -3.02735 0
M  V30 3254 H 305.175 3.51368 -4.70971 0
M  V30 3255 H 306.699 4.34587 -4.28913 0
M  V30 3256 H 308.113 2.29032 -5.25564 0
M  V30 3257 H 306.51 1.68128 -5.76067 0
M  V30 3258 H 307.58 0.638059 -4.80684 0
M  V30 3259 N 308.923 1.53595 0.353017 0
M  V30 3260 C 310.151 1.74311 1.1146 0
M  V30 3261 C 310.566 0.477854 1.82653 0
M  V30 3262 O 309.923 -0.549977 1.74016 0
M  V30 3263 C 309.974 2.91694 2.13534 0
M  V30 3264 O 309.695 4.13325 1.45238 0
M  V30 3265 C 311.196 3.24384 3.02142 0
M  V30 3266 H 308.416 0.582669 0.332773 0
M  V30 3267 H 310.96 2.00386 0.408107 0
M  V30 3268 H 309.115 2.67977 2.79763 0
M  V30 3269 H 309.529 4.79148 2.13349 0
M  V30 3270 H 311.003 4.09893 3.69718 0
M  V30 3271 H 311.48 2.40282 3.67643 0
M  V30 3272 H 312.086 3.50073 2.41514 0
M  V30 3273 N 310.401 -0.613514 1.45168 0
M  V30 3274 C 311.629 -1.39946 1.5239 0
M  V30 3275 C 312.044 -1.88167 0.154531 0
M  V30 3276 O 311.401 -1.61872 -0.842843 0
M  V30 3277 C 311.452 -2.60795 2.50337 0
M  V30 3278 O 311.173 -2.1458 3.81952 0
M  V30 3279 C 312.674 -3.53723 2.67198 0
M  V30 3280 H 309.894 -0.428593 0.516284 0
M  V30 3281 H 312.438 -0.748753 1.903 0
M  V30 3282 H 310.593 -3.21919 2.15515 0
M  V30 3283 H 311.007 -2.93055 4.34993 0
M  V30 3284 H 312.481 -4.35079 3.39721 0
M  V30 3285 H 312.958 -4.0368 1.73029 0
M  V30 3286 H 313.564 -2.98456 3.02992 0
M  V30 3287 N 311.879 -1.3236 -0.855495 0
M  V30 3288 C 312.827 -1.2118 -1.9854 0
M  V30 3289 C 313.821 -0.116788 -1.68997 0
M  V30 3290 O 315.027 -0.279657 -1.77814 0
M  V30 3291 H 311.402 -0.375608 -0.651477 0
M  V30 3292 H 313.373 -2.16743 -2.05098 0
M  V30 3293 C 312.122 -0.950849 -3.34446 0
M  V30 3294 H 311.445 -1.78563 -3.57708 0
M  V30 3295 H 312.885 -0.912863 -4.14057 0
M  V30 3296 C 311.344 0.346404 -3.35114 0
M  V30 3297 O 311.874 1.35855 -3.7803 0
M  V30 3298 N 310.08 0.36808 -2.88259 0
M  V30 3299 H 309.627 -0.456102 -2.5353 0
M  V30 3300 H 309.585 1.23591 -2.89089 0
M  V30 3301 N 313.357 1.07166 -1.15556 0
M  V30 3302 C 314.585 1.83514 -0.955519 0
M  V30 3303 C 315 1.82163 0.49621 0
M  V30 3304 O 314.357 1.23441 1.34419 0
M  V30 3305 C 314.408 3.30515 -1.46432 0
M  V30 3306 O 314.129 3.31937 -2.85918 0
M  V30 3307 C 315.63 4.23625 -1.30603 0
M  V30 3308 H 312.85 0.578926 -0.339244 0
M  V30 3309 H 315.394 1.35265 -1.53374 0
M  V30 3310 H 313.549 3.76106 -0.928584 0
M  V30 3311 H 313.963 4.23794 -3.09029 0
M  V30 3312 H 315.437 5.24831 -1.71047 0
M  V30 3313 H 315.914 4.38485 -0.250441 0
M  V30 3314 H 316.52 3.83871 -1.83094 0
M  V30 3315 N 314.835 0.952656 1.25548 0
M  V30 3316 C 316.081 0.616826 1.93822 0
M  V30 3317 C 316.436 -0.836684 1.73255 0
M  V30 3318 O 315.729 -1.59218 1.06584 0
M  V30 3319 C 315.923 0.908818 3.45652 0
M  V30 3320 C 315.752 2.38916 3.80984 0
M  V30 3321 C 314.522 3.04637 4.03143 0
M  V30 3322 C 316.72 3.36838 3.88645 0
M  V30 3323 N 314.702 4.42565 4.25453 0
M  V30 3324 C 316.073 4.60065 4.1562 0
M  V30 3325 C 318.128 3.31704 3.71318 0
M  V30 3326 C 316.831 5.78795 4.2707 0
M  V30 3327 C 318.857 4.4977 3.84006 0
M  V30 3328 C 318.219 5.71783 4.11392 0
M  V30 3329 H 314.318 0.27629 0.731565 0
M  V30 3330 H 316.902 1.22443 1.5138 0
M  V30 3331 H 315.073 0.330166 3.86994 0
M  V30 3332 H 316.805 0.533093 4.01174 0
M  V30 3333 H 313.56 2.55215 3.98952 0
M  V30 3334 H 313.984 5.1399 4.40617 0
M  V30 3335 H 318.626 2.3842 3.49164 0
M  V30 3336 H 316.344 6.72521 4.48041 0
M  V30 3337 H 319.93 4.47342 3.71989 0
M  V30 3338 H 318.81 6.61617 4.2099 0
M  V30 3339 N 316.313 -1.40141 0.720998 0
M  V30 3340 C 317.538 -2.05618 0.271258 0
M  V30 3341 C 317.963 -1.53978 -1.08039 0
M  V30 3342 O 317.321 -0.677463 -1.68167 0
M  V30 3343 C 317.369 -3.59609 0.267197 0
M  V30 3344 O 316.473 -4.05526 -0.749814 0
M  V30 3345 H 315.814 -0.651904 0.126162 0
M  V30 3346 H 318.344 -1.79439 0.982997 0
M  V30 3347 H 318.354 -4.0786 0.106744 0
M  V30 3348 H 317.029 -3.96559 1.25354 0
M  V30 3349 H 315.606 -3.68722 -0.556644 0
M  V30 3350 N 317.792 -0.46758 -1.50504 0
M  V30 3351 C 319.017 0.0886943 -2.0721 0
M  V30 3352 C 319.442 1.33057 -1.32956 0
M  V30 3353 O 318.8 1.77354 -0.376197 0
M  V30 3354 C 318.848 0.359202 -3.58806 0
M  V30 3355 O 317.952 1.44034 -3.8643 0
M  V30 3356 H 317.293 -0.0114349 -0.663902 0
M  V30 3357 H 319.823 -0.657613 -1.93744 0
M  V30 3358 H 319.833 0.600742 -4.03553 0
M  V30 3359 H 318.508 -0.548311 -4.1227 0
M  V30 3360 H 317.085 1.18638 -3.53524 0
M  V30 3361 N 319.27 1.56325 -0.20005 0
M  V30 3362 C 320.18 2.22931 0.730668 0
M  V30 3363 C 321.196 1.22997 1.23076 0
M  V30 3364 O 322.372 1.55748 1.27689 0
M  V30 3365 C 319.437 2.87948 1.93098 0
M  V30 3366 C 318.498 4.03166 1.47497 0
M  V30 3367 C 317.731 4.65073 2.61807 0
M  V30 3368 O 317.954 4.25913 3.79413 0
M  V30 3369 O 316.888 5.54452 2.34237 0
M  V30 3370 H 320.714 3.03084 0.193391 0
M  V30 3371 H 318.299 1.49371 0.0294621 0
M  V30 3372 H 320.181 3.29063 2.6324 0
M  V30 3373 H 318.856 2.10771 2.45677 0
M  V30 3374 H 317.763 3.66664 0.742201 0
M  V30 3375 H 319.096 4.82022 0.995796 0
M  V30 3376 N 320.748 -0.0735177 1.57428 0
M  V30 3377 C 321.678 -1.0879 2.06608 0
M  V30 3378 C 322.659 -1.40473 0.959237 0
M  V30 3379 O 323.844 -1.5013 1.23185 0
M  V30 3380 C 320.974 -2.40183 2.50857 0
M  V30 3381 C 319.928 -2.22858 3.65402 0
M  V30 3382 C 319.254 -3.59619 3.957 0
M  V30 3383 C 320.554 -1.65123 4.95511 0
M  V30 3384 H 322.248 -0.678673 2.91607 0
M  V30 3385 H 319.794 -0.325013 1.40284 0
M  V30 3386 H 321.747 -3.11437 2.83874 0
M  V30 3387 H 320.471 -2.83083 1.62885 0
M  V30 3388 H 319.13 -1.54045 3.32664 0
M  V30 3389 H 318.778 -4.00086 3.04861 0
M  V30 3390 H 318.478 -3.48866 4.72828 0
M  V30 3391 H 320.002 -4.32306 4.31212 0
M  V30 3392 H 321.416 -2.26241 5.26771 0
M  V30 3393 H 319.813 -1.65071 5.7695 0
M  V30 3394 H 320.883 -0.612559 4.81015 0
M  V30 3395 N 322.226 -1.5378 -0.344866 0
M  V30 3396 C 323.451 -1.75211 -1.10977 0
M  V30 3397 C 323.876 -0.48936 -1.81623 0
M  V30 3398 O 323.234 0.557925 -1.72502 0
M  V30 3399 C 323.282 -2.93147 -2.09993 0
M  V30 3400 O 322.386 -2.63203 -3.17487 0
M  V30 3401 H 321.727 -0.581241 -0.321021 0
M  V30 3402 H 324.257 -2.00738 -0.395661 0
M  V30 3403 H 324.267 -3.19898 -2.53237 0
M  V30 3404 H 322.942 -3.84731 -1.5797 0
M  V30 3405 H 321.519 -2.47336 -2.79069 0
M  V30 3406 N 323.704 0.605807 -1.45491 0
M  V30 3407 C 324.651 1.7164 -1.54299 0
M  V30 3408 C 325.621 1.61486 -0.388761 0
M  V30 3409 O 326.806 1.81039 -0.602445 0
M  V30 3410 C 323.946 3.09953 -1.51734 0
M  V30 3411 C 323.059 3.309 -2.77721 0
M  V30 3412 C 322.194 4.59329 -2.66816 0
M  V30 3413 C 321.233 4.7354 -3.87848 0
M  V30 3414 N 320.37 5.9327 -3.75467 0
M  V30 3415 H 325.21 1.63449 -2.49176 0
M  V30 3416 H 322.747 0.796957 -1.23641 0
M  V30 3417 H 324.705 3.89977 -1.48235 0
M  V30 3418 H 323.335 3.17098 -0.604068 0
M  V30 3419 H 322.387 2.44639 -2.913 0
M  V30 3420 H 323.699 3.37274 -3.67488 0
M  V30 3421 H 322.853 5.4755 -2.61292 0
M  V30 3422 H 321.592 4.55355 -1.74651 0
M  V30 3423 H 320.597 3.83741 -3.93729 0
M  V30 3424 H 321.822 4.79309 -4.81082 0
M  V30 3425 H 319.768 5.90338 -2.86072 0
M  V30 3426 H 319.685 6.00811 -4.5887 0
M  V30 3427 H 320.953 6.83984 -3.73879 0
M  V30 3428 N 325.182 1.32811 0.848464 0
M  V30 3429 C 326.112 1.24882 1.97299 0
M  V30 3430 C 327.093 0.131357 1.69592 0
M  V30 3431 O 328.278 0.319553 1.91553 0
M  V30 3432 C 325.408 0.97746 3.33261 0
M  V30 3433 C 324.362 2.05682 3.75338 0
M  V30 3434 C 323.688 1.63777 5.09 0
M  V30 3435 C 324.988 3.47254 3.90144 0
M  V30 3436 H 326.682 2.18966 2.04191 0
M  V30 3437 H 324.228 1.05413 0.981029 0
M  V30 3438 H 326.181 0.908513 4.1149 0
M  V30 3439 H 324.905 0.000980011 3.266 0
M  V30 3440 H 323.564 2.11603 2.99366 0
M  V30 3441 H 323.212 0.648569 4.98801 0
M  V30 3442 H 322.912 2.36 5.38124 0
M  V30 3443 H 324.436 1.5833 5.89715 0
M  V30 3444 H 325.85 3.43888 4.58709 0
M  V30 3445 H 324.247 4.1788 4.30693 0
M  V30 3446 H 325.317 3.86462 2.92874 0
M  V30 3447 N 326.66 -1.06551 1.16123 0
M  V30 3448 C 327.623 -2.12132 0.867906 0
M  V30 3449 C 328.623 -1.60224 -0.135944 0
M  V30 3450 O 329.813 -1.73943 0.0946422 0
M  V30 3451 C 326.945 -3.396 0.297419 0
M  V30 3452 H 328.138 -2.39586 1.80385 0
M  V30 3453 H 325.691 -1.22574 0.969812 0
M  V30 3454 H 326.426 -3.17794 -0.64633 0
M  V30 3455 H 326.211 -3.78581 1.02073 0
M  V30 3456 H 327.701 -4.17455 0.110052 0
M  V30 3457 N 328.138 -0.959301 -1.25041 0
M  V30 3458 C 329.101 -0.487677 -2.23952 0
M  V30 3459 C 330.101 0.41119 -1.55454 0
M  V30 3460 O 331.291 0.207825 -1.72956 0
M  V30 3461 C 328.423 0.294807 -3.39623 0
M  V30 3462 H 329.616 -1.36198 -2.67189 0
M  V30 3463 H 327.169 -0.743042 -1.37508 0
M  V30 3464 H 327.904 1.18658 -3.01813 0
M  V30 3465 H 327.689 -0.35012 -3.90534 0
M  V30 3466 H 329.179 0.614089 -4.1306 0
M  V30 3467 N 329.616 1.39756 -0.72842 0
M  V30 3468 C 330.564 2.32485 -0.0731849 0
M  V30 3469 C 331.558 1.52717 0.733063 0
M  V30 3470 O 332.764 1.68428 0.634988 0
M  V30 3471 H 329.139 0.751984 -0.00486469 0
M  V30 3472 H 331.11 2.85382 -0.871761 0
M  V30 3473 C 329.859 3.37773 0.824908 0
M  V30 3474 H 329.182 3.99227 0.213915 0
M  V30 3475 H 330.622 4.05121 1.25111 0
M  V30 3476 C 329.081 2.74287 1.95622 0
M  V30 3477 O 329.611 2.61618 3.04826 0
M  V30 3478 N 327.817 2.32475 1.74367 0
M  V30 3479 H 327.364 2.4298 0.855494 0
M  V30 3480 H 327.322 1.90337 2.50238 0
M  V30 3481 N 331.094 0.475555 1.50254 0
M  V30 3482 C 332.057 -0.305016 2.27161 0
M  V30 3483 C 333.057 -0.916519 1.32123 0
M  V30 3484 O 334.247 -0.785003 1.5551 0
M  V30 3485 C 331.379 -1.43496 3.09227 0
M  V30 3486 H 332.572 0.369511 2.97615 0
M  V30 3487 H 330.125 0.229747 1.54602 0
M  V30 3488 H 330.86 -2.14441 2.43281 0
M  V30 3489 H 330.645 -1.00223 3.79075 0
M  V30 3490 H 332.135 -1.98548 3.67381 0
M  V30 3491 N 332.573 -1.56217 0.208337 0
M  V30 3492 C 333.82 -1.97949 -0.42692 0
M  V30 3493 C 334.148 -1.09562 -1.60706 0
M  V30 3494 O 333.403 -0.137616 -1.95216 0
M  V30 3495 C 333.702 -3.45441 -0.916797 0
M  V30 3496 C 333.368 -4.50646 0.151391 0
M  V30 3497 C 332.03 -4.79139 0.444867 0
M  V30 3498 C 334.382 -5.13811 0.874492 0
M  V30 3499 C 331.71 -5.68084 1.46619 0
M  V30 3500 C 334.062 -6.03861 1.88506 0
M  V30 3501 C 332.726 -6.30704 2.18559 0
M  V30 3502 H 331.996 -0.724345 -0.156221 0
M  V30 3503 H 334.643 -1.89006 0.308084 0
M  V30 3504 H 332.948 -3.51521 -1.73032 0
M  V30 3505 H 334.645 -3.75094 -1.41794 0
M  V30 3506 H 331.235 -4.28511 -0.0875068 0
M  V30 3507 H 335.419 -4.91879 0.660996 0
M  V30 3508 H 330.675 -5.87151 1.7048 0
M  V30 3509 H 334.849 -6.51861 2.45051 0
M  V30 3510 H 332.476 -6.99424 2.97843 0
M  V30 3511 N 334.051 0.0651679 -1.57465 0
M  V30 3512 C 334.981 1.07693 -2.07182 0
M  V30 3513 C 335.962 1.39962 -0.966673 0
M  V30 3514 O 337.147 1.49475 -1.2398 0
M  V30 3515 C 334.277 2.3885 -2.52127 0
M  V30 3516 C 333.231 2.20917 -3.66579 0
M  V30 3517 C 332.557 3.57515 -3.97601 0
M  V30 3518 C 333.857 1.62493 -4.9638 0
M  V30 3519 H 335.551 0.663199 -2.91962 0
M  V30 3520 H 333.097 0.317569 -1.40455 0
M  V30 3521 H 335.05 3.09928 -2.85522 0
M  V30 3522 H 333.774 2.82215 -1.64384 0
M  V30 3523 H 332.433 1.52279 -3.33477 0
M  V30 3524 H 332.081 3.98463 -3.06979 0
M  V30 3525 H 331.781 3.46353 -4.74672 0
M  V30 3526 H 333.305 4.30013 -4.33499 0
M  V30 3527 H 334.719 2.23445 -5.27963 0
M  V30 3528 H 333.116 1.62009 -5.77818 0
M  V30 3529 H 334.186 0.587041 -4.81333 0
M  V30 3530 N 335.529 1.53961 0.336706 0
M  V30 3531 C 336.492 1.81724 1.39675 0
M  V30 3532 C 337.492 0.688532 1.45313 0
M  V30 3533 O 338.682 0.956829 1.45569 0
M  V30 3534 C 335.814 1.96543 2.78538 0
M  V30 3535 H 337.007 2.76424 1.16318 0
M  V30 3536 H 334.56 1.45478 0.571474 0
M  V30 3537 H 335.295 1.0401 3.07168 0
M  V30 3538 H 335.08 2.78665 2.75841 0
M  V30 3539 H 336.57 2.19516 3.5525 0
M  V30 3540 N 337.007 -0.598083 1.45811 0
M  V30 3541 C 337.939 -1.72231 1.51225 0
M  V30 3542 C 338.952 -1.57757 0.402059 0
M  V30 3543 O 340.141 -1.65464 0.669624 0
M  V30 3544 C 337.241 -3.10331 1.3619 0
M  V30 3545 C 336.414 -3.50955 2.61054 0
M  V30 3546 C 335.473 -4.68055 2.40439 0
M  V30 3547 O 334.499 -4.74691 3.14097 0
M  V30 3548 N 335.701 -5.61941 1.45612 0
M  V30 3549 H 338.466 -1.68046 2.48154 0
M  V30 3550 H 336.027 -0.783637 1.41671 0
M  V30 3551 H 338.019 -3.86439 1.20195 0
M  V30 3552 H 336.589 -3.0897 0.475015 0
M  V30 3553 H 335.809 -2.64711 2.92099 0
M  V30 3554 H 337.097 -3.74858 3.44034 0
M  V30 3555 H 336.495 -5.59301 0.848431 0
M  V30 3556 H 335.052 -6.37542 1.35585 0
M  V30 3557 N 338.485 -1.33259 -0.841409 0
M  V30 3558 C 339.901 -1.12538 -1.13169 0
M  V30 3559 C 340.101 0.0854037 -2.01319 0
M  V30 3560 O 339.157 0.766417 -2.40587 0
M  V30 3561 C 340.47 -2.41156 -1.79623 0
M  V30 3562 C 342.018 -2.47038 -1.922 0
M  V30 3563 C 342.493 -3.7561 -2.6207 0
M  V30 3564 N 343.984 -3.76667 -2.69585 0
M  V30 3565 C 344.719 -4.72861 -3.2433 0
M  V30 3566 N 344.215 -5.79428 -3.79783 0
M  V30 3567 N 346.008 -4.6034 -3.22558 0
M  V30 3568 H 338.159 -2.10868 -0.254676 0
M  V30 3569 H 340.422 -0.931615 -0.175493 0
M  V30 3570 H 340.128 -3.29747 -1.22311 0
M  V30 3571 H 340.002 -2.53114 -2.79666 0
M  V30 3572 H 342.389 -1.58898 -2.48667 0
M  V30 3573 H 342.47 -2.39022 -0.911148 0
M  V30 3574 H 342.114 -4.64131 -2.06263 0
M  V30 3575 H 342.044 -3.80902 -3.63622 0
M  V30 3576 H 344.535 -2.99648 -2.30259 0
M  V30 3577 H 344.848 -6.48867 -4.19752 0
M  V30 3578 H 343.193 -5.83166 -3.78078 0
M  V30 3579 H 346.384 -3.76244 -2.78492 0
M  V30 3580 H 346.557 -5.35478 -3.64921 0
M  V30 3581 N 339.963 1.05934 -1.16686 0
M  V30 3582 C 341.212 1.78188 -0.945085 0
M  V30 3583 C 341.525 1.88338 0.528021 0
M  V30 3584 O 342.731 2.57258 0.867799 0
M  V30 3585 C 341.187 3.20277 -1.64167 0
M  V30 3586 C 340.795 3.18281 -3.15279 0
M  V30 3587 C 342.539 3.97039 -1.502 0
M  V30 3588 C 340.446 4.55112 -3.7766 0
M  V30 3589 H 339.376 0.667866 -0.349959 0
M  V30 3590 H 342.027 1.18794 -1.39858 0
M  V30 3591 H 340.409 3.79952 -1.11589 0
M  V30 3592 H 341.583 2.68167 -3.74731 0
M  V30 3593 H 339.898 2.55018 -3.29173 0
M  V30 3594 H 342.495 4.98194 -1.94183 0
M  V30 3595 H 342.838 4.13845 -0.451461 0
M  V30 3596 H 343.371 3.43894 -1.99954 0
M  V30 3597 H 340.11 4.43512 -4.82677 0
M  V30 3598 H 339.63 5.05406 -3.22994 0
M  V30 3599 H 341.309 5.24064 -3.79428 0
M  V30 3600 N 341.441 0.965919 1.2453 0
M  V30 3601 C 342.666 0.643971 1.97149 0
M  V30 3602 C 343.091 -0.779487 1.71189 0
M  V30 3603 O 342.449 -1.5288 0.974553 0
M  V30 3604 C 342.497 0.922557 3.48599 0
M  V30 3605 O 341.601 0.00707672 4.12399 0
M  V30 3606 H 340.942 0.243647 0.617683 0
M  V30 3607 H 343.472 1.29558 1.58353 0
M  V30 3608 H 343.482 0.853373 3.98976 0
M  V30 3609 H 342.157 1.95996 3.66822 0
M  V30 3610 H 340.734 0.12943 3.72675 0
M  V30 3611 N 342.919 -1.39368 0.735821 0
M  V30 3612 C 344.144 -2.05319 0.293052 0
M  V30 3613 C 344.569 -1.55115 -1.064 0
M  V30 3614 O 343.927 -0.695261 -1.67439 0
M  V30 3615 C 343.975 -3.59305 0.305323 0
M  V30 3616 O 343.079 -4.06299 -0.706761 0
M  V30 3617 H 342.42 -0.650529 0.13307 0
M  V30 3618 H 344.95 -1.78386 1.00197 0
M  V30 3619 H 344.96 -4.07724 0.149997 0
M  V30 3620 H 343.635 -3.95207 1.29553 0
M  V30 3621 H 342.212 -3.69292 -0.517504 0
M  V30 3622 N 344.397 -0.483516 -1.5 0
M  V30 3623 C 345.646 0.0689102 -2.01582 0
M  V30 3624 C 345.959 1.39655 -1.36952 0
M  V30 3625 O 347.165 2.03465 -1.79762 0
M  V30 3626 C 345.621 0.173302 -3.59483 0
M  V30 3627 C 345.229 -1.14665 -4.33077 0
M  V30 3628 C 346.973 0.677024 -4.19066 0
M  V30 3629 C 344.88 -1.00537 -5.82792 0
M  V30 3630 H 343.81 0.0295277 -0.753422 0
M  V30 3631 H 346.461 -0.620295 -1.72698 0
M  V30 3632 H 344.843 0.926569 -3.85007 0
M  V30 3633 H 346.017 -1.91184 -4.19268 0
M  V30 3634 H 344.332 -1.58244 -3.85159 0
M  V30 3635 H 346.929 0.799952 -5.28682 0
M  V30 3636 H 347.272 1.67151 -3.81269 0
M  V30 3637 H 347.805 -0.0192083 -3.97795 0
M  V30 3638 H 344.544 -1.9736 -6.25083 0
M  V30 3639 H 344.064 -0.280776 -5.99142 0
M  V30 3640 H 345.743 -0.677 -6.43448 0
M  V30 3641 N 345.875 1.56104 -0.216619 0
M  V30 3642 C 346.823 2.21434 0.712036 0
M  V30 3643 C 347.817 1.19218 1.20348 0
M  V30 3644 O 349.023 1.3731 1.16387 0
M  V30 3645 H 345.398 0.70992 0.248026 0
M  V30 3646 H 347.369 2.98083 0.137558 0
M  V30 3647 C 346.118 2.90434 1.91163 0
M  V30 3648 H 345.441 3.68842 1.54258 0
M  V30 3649 H 346.881 3.39552 2.5393 0
M  V30 3650 C 345.34 1.92635 2.76394 0
M  V30 3651 O 345.87 1.44017 3.74996 0
M  V30 3652 N 344.076 1.60392 2.42328 0
M  V30 3653 H 343.623 2.00122 1.622 0
M  V30 3654 H 343.581 0.952159 2.99635 0
M  V30 3655 N 347.353 -0.0568162 1.57498 0
M  V30 3656 C 348.578 -0.769402 1.92601 0
M  V30 3657 C 349.003 -1.69559 0.814336 0
M  V30 3658 O 348.361 -1.79811 -0.231903 0
M  V30 3659 C 348.409 -1.52634 3.26704 0
M  V30 3660 O 347.513 -2.63797 3.16994 0
M  V30 3661 H 346.854 -0.208909 0.63028 0
M  V30 3662 H 349.384 -0.0205798 2.0459 0
M  V30 3663 H 349.394 -1.90234 3.60936 0
M  V30 3664 H 348.069 -0.846875 4.07186 0
M  V30 3665 H 346.646 -2.28943 2.94346 0
M  V30 3666 N 348.832 -1.54138 -0.328536 0
M  V30 3667 C 350.081 -1.71318 -1.06456 0
M  V30 3668 C 350.394 -0.491109 -1.89334 0
M  V30 3669 O 351.6 -0.54416 -2.65991 0
M  V30 3670 C 350.056 -3.03 -1.94214 0
M  V30 3671 C 349.664 -4.32595 -1.16471 0
M  V30 3672 C 351.408 -3.29544 -2.67583 0
M  V30 3673 C 349.315 -5.55341 -2.03347 0
M  V30 3674 H 348.245 -0.638429 -0.401155 0
M  V30 3675 H 350.896 -1.80633 -0.323106 0
M  V30 3676 H 349.278 -2.87579 -2.72239 0
M  V30 3677 H 350.452 -4.58766 -0.432525 0
M  V30 3678 H 348.767 -4.12777 -0.548063 0
M  V30 3679 H 351.364 -4.18444 -3.3288 0
M  V30 3680 H 351.707 -2.47206 -3.34955 0
M  V30 3681 H 352.24 -3.45809 -1.96623 0
M  V30 3682 H 348.979 -6.40268 -1.40491 0
M  V30 3683 H 348.499 -5.33397 -2.74313 0
M  V30 3684 H 350.178 -5.91557 -2.62049 0
M  V30 3685 N 350.31 0.590341 -1.46126 0
M  V30 3686 C 351.535 1.37991 -1.54833 0
M  V30 3687 C 351.96 1.87163 -0.187506 0
M  V30 3688 O 351.318 1.61133 0.831008 0
M  V30 3689 C 351.366 2.54867 -2.55098 0
M  V30 3690 O 350.47 3.56061 -2.08073 0
M  V30 3691 H 349.811 0.411265 -0.521303 0
M  V30 3692 H 352.341 0.716819 -1.91632 0
M  V30 3693 H 352.351 3.01886 -2.74461 0
M  V30 3694 H 351.026 2.18429 -3.53923 0
M  V30 3695 H 349.603 3.15574 -1.98664 0
M  V30 3696 N 351.788 1.33704 0.83433 0
M  V30 3697 C 352.751 1.24244 1.92603 0
M  V30 3698 C 353.751 0.160383 1.59998 0
M  V30 3699 O 354.941 0.412228 1.69252 0
M  V30 3700 C 352.073 0.91555 3.28376 0
M  V30 3701 H 353.266 2.21287 2.02416 0
M  V30 3702 H 350.819 1.17827 1.02696 0
M  V30 3703 H 351.554 -0.0521886 3.24258 0
M  V30 3704 H 351.339 1.69811 3.53422 0
M  V30 3705 H 352.829 0.874231 4.08347 0
M  V30 3706 N 353.266 -1.05314 1.17247 0
M  V30 3707 C 354.196 -2.1498 0.911362 0
M  V30 3708 C 355.177 -1.69471 -0.146169 0
M  V30 3709 O 356.362 -1.942 0.003812 0
M  V30 3710 C 353.492 -3.4472 0.422528 0
M  V30 3711 C 352.446 -4.03789 1.4191 0
M  V30 3712 C 351.772 -5.28858 0.788274 0
M  V30 3713 C 353.072 -4.41418 2.7919 0
M  V30 3714 H 354.766 -2.3708 1.82848 0
M  V30 3715 H 352.312 -1.13938 0.880569 0
M  V30 3716 H 354.265 -4.20787 0.227289 0
M  V30 3717 H 352.989 -3.22269 -0.530123 0
M  V30 3718 H 351.648 -3.2979 1.60106 0
M  V30 3719 H 351.296 -5.02709 -0.171173 0
M  V30 3720 H 350.996 -5.69338 1.45353 0
M  V30 3721 H 352.52 -6.07612 0.603282 0
M  V30 3722 H 353.934 -5.08524 2.64719 0
M  V30 3723 H 352.331 -4.92913 3.42282 0
M  V30 3724 H 353.401 -3.51819 3.33693 0
M  V30 3725 N 354.744 -0.972509 -1.24016 0
M  V30 3726 C 355.984 -0.644951 -1.93958 0
M  V30 3727 C 356.348 0.80559 -1.74282 0
M  V30 3728 O 357.549 1.2436 -2.38302 0
M  V30 3729 C 355.82 -1.01521 -3.42678 0
M  V30 3730 S 357.379 -0.802927 -4.31391 0
M  V30 3731 H 354.197 -0.236452 -0.670531 0
M  V30 3732 H 356.799 -1.25048 -1.50277 0
M  V30 3733 H 355.503 -2.06769 -3.54506 0
M  V30 3734 H 355.034 -0.400648 -3.91355 0
M  V30 3735 H 357.049 0.317256 -4.95185 0
M  V30 3736 N 356.222 1.38976 -0.743202 0
M  V30 3737 C 357.132 2.3434 -0.110399 0
M  V30 3738 C 358.148 1.58741 0.712559 0
M  V30 3739 O 359.324 1.9099 0.639125 0
M  V30 3740 C 356.389 3.37812 0.780012 0
M  V30 3741 C 355.45 4.29263 -0.0561319 0
M  V30 3742 C 354.683 5.27793 0.791875 0
M  V30 3743 O 354.906 5.33043 2.03031 0
M  V30 3744 O 353.84 6.01512 0.216183 0
M  V30 3745 H 357.666 2.90129 -0.897714 0
M  V30 3746 H 355.251 1.40643 -0.503966 0
M  V30 3747 H 357.133 4.01194 1.28923 0
M  V30 3748 H 355.808 2.84395 1.546 0
M  V30 3749 H 354.715 3.69076 -0.611056 0
M  V30 3750 H 356.048 4.85907 -0.784531 0
M  V30 3751 N 357.7 0.491464 1.49741 0
M  V30 3752 C 358.663 -0.280906 2.27472 0
M  V30 3753 C 359.663 -0.902454 1.33088 0
M  V30 3754 O 360.853 -0.768465 1.56334 0
M  V30 3755 C 357.985 -1.40209 3.10732 0
M  V30 3756 H 359.178 0.401056 2.97206 0
M  V30 3757 H 356.731 0.246131 1.5435 0
M  V30 3758 H 357.466 -2.11849 2.45541 0
M  V30 3759 H 357.251 -0.961969 3.80117 0
M  V30 3760 H 358.741 -1.9464 3.69466 0
M  V30 3761 N 359.178 -1.55987 0.224894 0
M  V30 3762 C 360.406 -2.02784 -0.410665 0
M  V30 3763 C 360.821 -1.10464 -1.53112 0
M  V30 3764 O 360.178 -0.114871 -1.82138 0
M  V30 3765 C 360.229 -3.49087 -0.939165 0
M  V30 3766 O 359.95 -4.37887 0.136614 0
M  V30 3767 C 361.451 -4.11543 -1.64763 0
M  V30 3768 H 358.671 -0.663484 -0.100148 0
M  V30 3769 H 361.215 -2.01614 0.342326 0
M  V30 3770 H 359.37 -3.50861 -1.64242 0
M  V30 3771 H 359.784 -5.23849 -0.261155 0
M  V30 3772 H 361.258 -5.15673 -1.96939 0
M  V30 3773 H 361.735 -3.56736 -2.56195 0
M  V30 3774 H 362.341 -4.13629 -0.989503 0
M  V30 3775 N 360.656 0.0484629 -1.57525 0
M  V30 3776 C 361.904 0.741657 -1.88 0
M  V30 3777 C 362.225 1.76918 -0.820054 0
M  V30 3778 O 361.495 1.95335 0.148661 0
M  V30 3779 H 360.075 0.276908 -0.69378 0
M  V30 3780 H 362.737 0.019013 -1.94891 0
M  V30 3781 H 361.833 1.24336 -2.86264 0
M  V30 3782 N 362.134 1.5431 0.320358 0
M  V30 3783 C 363.097 1.83195 1.3774 0
M  V30 3784 C 364.097 0.703906 1.44575 0
M  V30 3785 O 365.287 0.972214 1.44546 0
M  V30 3786 C 362.419 1.99487 2.76438 0
M  V30 3787 H 363.612 2.77642 1.1338 0
M  V30 3788 H 361.165 1.46076 0.556012 0
M  V30 3789 H 361.9 1.07262 3.06048 0
M  V30 3790 H 361.685 2.81575 2.7287 0
M  V30 3791 H 363.175 2.23271 3.52902 0
M  V30 3792 N 363.613 -0.582584 1.46437 0
M  V30 3793 C 364.89 -1.34276 1.4223 0
M  V30 3794 C 365.27 -2.10835 0.10583 0
M  V30 3795 O 364.618 -2.09485 -0.912596 0
M  V30 3796 C 364.828 -2.26865 2.65204 0
M  V30 3797 C 366.176 -2.88691 3.11356 0
M  V30 3798 O 367.2 -2.37178 2.65753 0
M  V30 3799 O 366.059 -3.82255 3.90568 0
M  V30 3800 H 363.153 -0.603326 0.565621 0
M  V30 3801 H 365.699 -0.603591 1.58603 0
M  V30 3802 H 364.471 -1.69724 3.52576 0
M  V30 3803 H 364.094 -3.08122 2.5129 0
M  V30 3804 N 365.091 -1.34144 -0.827227 0
M  V30 3805 C 366.337 -1.26446 -1.58554 0
M  V30 3806 C 366.67 0.1664 -1.93486 0
M  V30 3807 O 365.945 1.1107 -1.59667 0
M  V30 3808 C 366.228 -2.15111 -2.8879 0
M  V30 3809 C 366.081 -3.66712 -2.60465 0
M  V30 3810 C 367.4 -2.03311 -3.90324 0
M  V30 3811 H 364.519 -0.46067 -0.575284 0
M  V30 3812 H 367.161 -1.64356 -0.953269 0
M  V30 3813 H 365.311 -1.8291 -3.42748 0
M  V30 3814 H 366.983 -4.09259 -2.1285 0
M  V30 3815 H 365.226 -3.88014 -1.93978 0
M  V30 3816 H 365.897 -4.24112 -3.53317 0
M  V30 3817 H 368.373 -2.31574 -3.45706 0
M  V30 3818 H 367.249 -2.67582 -4.79261 0
M  V30 3819 H 367.51 -1.00879 -4.30437 0
M  V30 3820 N 366.569 1.04691 -1.17803 0
M  V30 3821 C 367.479 2.16057 -0.914151 0
M  V30 3822 C 368.495 1.73589 0.119503 0
M  V30 3823 O 369.671 2.01308 -0.0609468 0
M  V30 3824 C 366.736 3.4394 -0.436603 0
M  V30 3825 C 365.797 4.00825 -1.53746 0
M  V30 3826 C 365.03 5.22604 -1.0826 0
M  V30 3827 O 365.253 5.70367 0.0612244 0
M  V30 3828 O 364.187 5.7186 -1.87775 0
M  V30 3829 H 368.013 2.41169 -1.84584 0
M  V30 3830 H 365.598 1.1453 -0.959334 0
M  V30 3831 H 367.48 4.21024 -0.178057 0
M  V30 3832 H 366.155 3.20316 0.466869 0
M  V30 3833 H 365.062 3.25158 -1.84995 0
M  V30 3834 H 366.395 4.28778 -2.41683 0
M  V30 3835 N 368.047 0.979072 1.23499 0
M  V30 3836 C 368.957 0.526431 2.28617 0
M  V30 3837 C 369.973 -0.418126 1.68901 0
M  V30 3838 O 371.149 -0.288372 1.99325 0
M  V30 3839 C 368.214 -0.165235 3.46306 0
M  V30 3840 C 367.275 0.82056 4.21385 0
M  V30 3841 C 366.508 0.161807 5.33455 0
M  V30 3842 O 366.731 -1.04742 5.60701 0
M  V30 3843 O 365.665 0.859708 5.95729 0
M  V30 3844 H 369.491 1.4006 2.69475 0
M  V30 3845 H 367.076 0.746643 1.29405 0
M  V30 3846 H 368.958 -0.553287 4.17752 0
M  V30 3847 H 367.633 -1.01419 3.07402 0
M  V30 3848 H 366.54 1.25929 3.52268 0
M  V30 3849 H 367.873 1.63828 4.64135 0
M  V30 3850 N 369.525 -1.3858 0.750561 0
M  V30 3851 C 370.771 -2.00481 0.305825 0
M  V30 3852 C 371.104 -1.5944 -1.10872 0
M  V30 3853 O 370.379 -0.83052 -1.75877 0
M  V30 3854 C 370.662 -3.5758 0.425287 0
M  V30 3855 C 370.515 -4.08594 1.88072 0
M  V30 3856 C 371.834 -4.39719 -0.183122 0
M  V30 3857 H 368.953 -0.728348 0.112598 0
M  V30 3858 H 371.595 -1.64566 0.949638 0
M  V30 3859 H 369.745 -3.88306 -0.122828 0
M  V30 3860 H 371.417 -3.88523 2.48691 0
M  V30 3861 H 369.66 -3.61574 2.39681 0
M  V30 3862 H 370.331 -5.177 1.91548 0
M  V30 3863 H 372.807 -4.15128 0.284303 0
M  V30 3864 H 371.683 -5.48856 -0.0692757 0
M  V30 3865 H 371.944 -4.23434 -1.27106 0
M  V30 3866 N 371.003 -0.499398 -1.49478 0
M  V30 3867 C 371.966 0.268838 -2.27618 0
M  V30 3868 C 372.966 0.895383 -1.33565 0
M  V30 3869 O 374.156 0.760164 -1.56739 0
M  V30 3870 C 371.288 1.38559 -3.11471 0
M  V30 3871 H 372.481 -0.416812 -2.96989 0
M  V30 3872 H 370.034 -0.254313 -1.54217 0
M  V30 3873 H 370.769 2.10544 -2.46661 0
M  V30 3874 H 370.554 0.941797 -3.80621 0
M  V30 3875 H 372.044 1.92678 -3.70493 0
M  V30 3876 N 372.481 1.55866 -0.233164 0
M  V30 3877 C 373.709 2.02998 0.399905 0
M  V30 3878 C 374.124 1.11274 1.52524 0
M  V30 3879 O 373.481 0.124528 1.82075 0
M  V30 3880 C 373.532 3.4958 0.920639 0
M  V30 3881 O 373.253 4.37808 -0.159834 0
M  V30 3882 C 374.754 4.12411 1.62578 0
M  V30 3883 H 371.974 0.664006 0.0966281 0
M  V30 3884 H 374.518 2.0143 -0.353013 0
M  V30 3885 H 372.673 3.51727 1.62379 0
M  V30 3886 H 373.087 5.23981 0.23337 0
M  V30 3887 H 374.561 5.16711 1.94201 0
M  V30 3888 H 375.038 3.5809 2.54299 0
M  V30 3889 H 375.644 4.14148 0.967553 0
M  V30 3890 N 373.959 -0.0401083 1.57549 0
M  V30 3891 C 374.922 -1.02871 2.04817 0
M  V30 3892 C 375.922 -1.29708 0.950388 0
M  V30 3893 O 377.112 -1.24897 1.21435 0
M  V30 3894 C 374.244 -2.36443 2.45576 0
M  V30 3895 H 375.437 -0.620631 2.93408 0
M  V30 3896 H 372.99 -0.286667 1.53649 0
M  V30 3897 H 373.725 -2.82021 1.60108 0
M  V30 3898 H 373.51 -2.18296 3.25713 0
M  V30 3899 H 375 -3.07441 2.82612 0
M  V30 3900 N 375.437 -1.54477 -0.31217 0
M  V30 3901 C 376.686 -1.72438 -1.04633 0
M  V30 3902 C 376.999 -0.511163 -1.88803 0
M  V30 3903 O 378.205 -0.572341 -2.65399 0
M  V30 3904 C 376.661 -3.05043 -1.9099 0
M  V30 3905 C 376.269 -4.33806 -1.11877 0
M  V30 3906 C 378.013 -3.32364 -2.64073 0
M  V30 3907 C 375.92 -5.57467 -1.97445 0
M  V30 3908 H 374.85 -0.642647 -0.394361 0
M  V30 3909 H 377.501 -1.80966 -0.303929 0
M  V30 3910 H 375.883 -2.90451 -2.69173 0
M  V30 3911 H 377.057 -4.59199 -0.383843 0
M  V30 3912 H 375.372 -4.13336 -0.504252 0
M  V30 3913 H 377.969 -4.21951 -3.28423 0
M  V30 3914 H 378.312 -2.50745 -3.32314 0
M  V30 3915 H 378.845 -3.47875 -1.92944 0
M  V30 3916 H 375.584 -6.41722 -1.33692 0
M  V30 3917 H 375.104 -5.36277 -2.6864 0
M  V30 3918 H 376.783 -5.94303 -2.5576 0
M  V30 3919 N 376.915 0.57481 -1.46744 0
M  V30 3920 C 378.163 1.33009 -1.52161 0
M  V30 3921 C 378.484 1.94185 -0.178092 0
M  V30 3922 O 377.754 1.7899 0.796196 0
M  V30 3923 H 376.334 0.493873 -0.560445 0
M  V30 3924 H 378.996 0.672589 -1.82927 0
M  V30 3925 H 378.092 2.13273 -2.27862 0
M  V30 3926 N 378.394 1.34581 0.820102 0
M  V30 3927 C 379.327 1.20735 1.93644 0
M  V30 3928 C 380.305 0.0983343 1.62302 0
M  V30 3929 O 381.489 0.263997 1.86642 0
M  V30 3930 C 378.616 0.856037 3.27704 0
M  V30 3931 C 377.662 1.97521 3.78005 0
M  V30 3932 S 378.495 3.58906 3.97425 0
M  V30 3933 C 379.651 3.25822 5.34407 0
M  V30 3934 H 379.884 2.15231 2.05093 0
M  V30 3935 H 377.417 1.1964 0.97599 0
M  V30 3936 H 379.375 0.660133 4.05157 0
M  V30 3937 H 378.036 -0.0706253 3.14021 0
M  V30 3938 H 377.229 1.68321 4.75062 0
M  V30 3939 H 376.831 2.12875 3.07507 0
M  V30 3940 H 379.123 2.77812 6.17922 0
M  V30 3941 H 380.066 4.22029 5.68592 0
M  V30 3942 H 380.474 2.61932 5.00052 0
M  V30 3943 N 379.872 -1.04064 1.18357 0
M  V30 3944 C 381.149 -1.74252 0.888581 0
M  V30 3945 C 381.529 -2.02138 -0.60856 0
M  V30 3946 O 380.877 -1.66656 -1.56327 0
M  V30 3947 C 381.087 -3.0277 1.73584 0
M  V30 3948 C 382.435 -3.76506 1.96286 0
M  V30 3949 O 383.459 -3.12668 1.70637 0
M  V30 3950 O 382.318 -4.91243 2.39464 0
M  V30 3951 H 379.412 -0.758271 0.330082 0
M  V30 3952 H 381.958 -1.1013 1.2911 0
M  V30 3953 H 380.73 -2.78299 2.75073 0
M  V30 3954 H 380.353 -3.74631 1.33183 0
M  V30 3955 N 381.35 -0.985608 -1.22978 0
M  V30 3956 C 382.282 -0.488154 -2.23941 0
M  V30 3957 C 383.295 0.41282 -1.57479 0
M  V30 3958 O 384.484 0.216121 -1.77187 0
M  V30 3959 C 381.584 0.312611 -3.37455 0
M  V30 3960 C 380.757 -0.582741 -4.33501 0
M  V30 3961 C 379.816 0.165064 -5.25941 0
M  V30 3962 O 378.842 -0.447077 -5.67442 0
M  V30 3963 N 380.044 1.44953 -5.62111 0
M  V30 3964 H 382.809 -1.3563 -2.67254 0
M  V30 3965 H 380.37 -0.859477 -1.37203 0
M  V30 3966 H 382.362 0.821357 -3.96277 0
M  V30 3967 H 380.932 1.0818 -2.93285 0
M  V30 3968 H 380.152 -1.27225 -3.73105 0
M  V30 3969 H 381.44 -1.19275 -4.94622 0
M  V30 3970 H 380.838 1.9683 -5.30353 0
M  V30 3971 H 379.395 1.90361 -6.23383 0
M  V30 3972 N 382.828 1.3818 -0.7579 0
M  V30 3973 C 384.244 1.5353 -0.435972 0
M  V30 3974 C 384.444 1.71961 1.05032 0
M  V30 3975 O 383.5 1.73307 1.83633 0
M  V30 3976 C 384.813 2.73989 -1.23898 0
M  V30 3977 C 386.361 2.87841 -1.22949 0
M  V30 3978 C 386.836 4.11266 -2.01554 0
M  V30 3979 N 388.327 4.18352 -1.98837 0
M  V30 3980 C 389.062 5.12856 -2.5645 0
M  V30 3981 N 388.558 6.13005 -3.22794 0
M  V30 3982 N 390.351 5.05238 -2.46356 0
M  V30 3983 H 382.502 1.24467 -1.7211 0
M  V30 3984 H 384.765 0.604982 -0.729864 0
M  V30 3985 H 384.471 2.66789 -2.29165 0
M  V30 3986 H 384.345 3.67294 -0.858764 0
M  V30 3987 H 386.732 2.9452 -0.184854 0
M  V30 3988 H 386.813 1.95534 -1.64924 0
M  V30 3989 H 386.457 4.05349 -3.06031 0
M  V30 3990 H 386.387 5.02661 -1.5697 0
M  V30 3991 H 388.878 3.46628 -1.50524 0
M  V30 3992 H 389.191 6.81619 -3.64165 0
M  V30 3993 H 387.536 6.13325 -3.2689 0
M  V30 3994 H 390.727 4.25938 -1.9415 0
M  V30 3995 H 390.9 5.78707 -2.91552 0
M  V30 3996 N 384.306 0.507319 1.49211 0
M  V30 3997 C 385.555 -0.0368315 2.01666 0
M  V30 3998 C 385.868 -1.37459 1.39156 0
M  V30 3999 O 387.074 -2.00579 1.82976 0
M  V30 4000 C 385.53 -0.116089 3.59713 0
M  V30 4001 C 385.138 1.2154 4.31198 0
M  V30 4002 C 386.882 -0.610268 4.2009 0
M  V30 4003 C 384.789 1.09796 5.81119 0
M  V30 4004 H 383.719 -0.0175376 0.753796 0
M  V30 4005 H 386.37 0.647691 1.71689 0
M  V30 4006 H 384.752 -0.8652 3.86433 0
M  V30 4007 H 385.926 1.9783 4.16173 0
M  V30 4008 H 384.241 1.64352 3.82593 0
M  V30 4009 H 386.838 -0.715742 5.29888 0
M  V30 4010 H 387.181 -1.61064 3.8388 0
M  V30 4011 H 387.714 0.0824916 3.97714 0
M  V30 4012 H 384.453 2.0728 6.21864 0
M  V30 4013 H 383.973 0.376058 5.9862 0
M  V30 4014 H 385.652 0.779281 6.4229 0
M  V30 4015 N 385.784 -1.5574 0.241426 0
M  V30 4016 C 387.032 -1.98417 -0.384075 0
M  V30 4017 C 387.353 -1.13078 -1.58866 0
M  V30 4018 O 386.623 -0.212312 -1.94746 0
M  V30 4019 H 385.203 -0.732813 -0.144894 0
M  V30 4020 H 387.865 -1.9193 0.338943 0
M  V30 4021 H 386.961 -3.04219 -0.696939 0
M  V30 4022 N 387.262 0.0317525 -1.57568 0
M  V30 4023 C 388.21 1.05165 -2.07468 0
M  V30 4024 C 389.204 1.3761 -0.98792 0
M  V30 4025 O 390.41 1.36546 -1.17282 0
M  V30 4026 H 386.785 0.35666 -0.66204 0
M  V30 4027 H 388.756 0.604958 -2.92203 0
M  V30 4028 C 387.505 2.34488 -2.56731 0
M  V30 4029 H 386.828 2.10383 -3.39969 0
M  V30 4030 H 388.268 3.04203 -2.95358 0
M  V30 4031 C 386.727 3.03266 -1.46736 0
M  V30 4032 O 387.257 3.92988 -0.832069 0
M  V30 4033 N 385.463 2.6455 -1.20256 0
M  V30 4034 H 385.01 1.91674 -1.72102 0
M  V30 4035 H 384.968 3.10886 -0.468737 0
M  V30 4036 N 388.74 1.54641 0.303973 0
M  V30 4037 C 389.687 1.85386 1.37479 0
M  V30 4038 C 390.657 0.702528 1.50512 0
M  V30 4039 O 391.842 0.950867 1.65418 0
M  V30 4040 C 388.982 2.10413 2.73533 0
M  V30 4041 C 388.095 3.38049 2.68974 0
M  V30 4042 C 387.23 3.52934 3.97002 0
M  V30 4043 C 386.269 4.74373 3.86829 0
M  V30 4044 N 385.406 4.8608 5.06627 0
M  V30 4045 H 390.246 2.76732 1.1056 0
M  V30 4046 H 387.783 1.37034 0.534805 0
M  V30 4047 H 389.741 2.22919 3.52652 0
M  V30 4048 H 388.371 1.22338 2.98719 0
M  V30 4049 H 387.423 3.3418 1.81736 0
M  V30 4050 H 388.735 4.27288 2.57346 0
M  V30 4051 H 387.889 3.65088 4.84557 0
M  V30 4052 H 386.628 2.61824 4.1146 0
M  V30 4053 H 385.633 4.62255 2.97658 0
M  V30 4054 H 386.858 5.66888 3.73918 0
M  V30 4055 H 384.804 3.97891 5.21554 0
M  V30 4056 H 384.721 5.69315 4.9741 0
M  V30 4057 H 385.989 5.02587 5.95841 0
M  V30 4058 N 390.218 -0.567019 1.47046 0
M  V30 4059 C 391.465 -1.32462 1.53167 0
M  V30 4060 C 391.793 -1.93571 0.189841 0
M  V30 4061 O 391.048 -1.77865 -0.816243 0
M  V30 4062 C 391.347 -2.4623 2.59047 0
M  V30 4063 C 391.013 -2.03014 4.02612 0
M  V30 4064 C 389.675 -1.90944 4.41694 0
M  V30 4065 C 392.027 -1.69895 4.92732 0
M  V30 4066 C 389.355 -1.44035 5.68745 0
M  V30 4067 C 391.707 -1.2446 6.20236 0
M  V30 4068 C 390.371 -1.10979 6.5821 0
M  V30 4069 H 389.641 -0.484713 0.560477 0
M  V30 4070 H 392.288 -0.636888 1.80599 0
M  V30 4071 H 390.593 -3.20517 2.25335 0
M  V30 4072 H 392.29 -3.04427 2.61008 0
M  V30 4073 H 388.88 -2.13348 3.71726 0
M  V30 4074 H 393.064 -1.78098 4.63244 0
M  V30 4075 H 388.32 -1.32254 5.96925 0
M  V30 4076 H 392.494 -0.978924 6.89485 0
M  V30 4077 H 390.121 -0.744078 7.5655 0
M  V30 4078 N 391.696 -1.35014 -0.812953 0
M  V30 4079 C 392.626 -1.30069 -1.93919 0
M  V30 4080 C 393.607 -0.176275 -1.69184 0
M  V30 4081 O 394.792 -0.370227 -1.90638 0
M  V30 4082 C 391.922 -1.06547 -3.30552 0
M  V30 4083 C 390.876 -2.15561 -3.69753 0
M  V30 4084 C 390.202 -1.77214 -5.04479 0
M  V30 4085 C 391.502 -3.57476 -3.808 0
M  V30 4086 H 393.196 -2.24303 -1.98314 0
M  V30 4087 H 390.742 -1.07977 -0.952736 0
M  V30 4088 H 392.695 -1.01729 -4.08937 0
M  V30 4089 H 391.419 -0.0875719 -3.26483 0
M  V30 4090 H 390.078 -2.19466 -2.9365 0
M  V30 4091 H 389.726 -0.780589 -4.96906 0
M  V30 4092 H 389.426 -2.50184 -5.31678 0
M  V30 4093 H 390.95 -1.7391 -5.8531 0
M  V30 4094 H 392.364 -3.55929 -4.4943 0
M  V30 4095 H 390.761 -4.29152 -4.19462 0
M  V30 4096 H 391.831 -3.94091 -2.82525 0
M  V30 4097 N 393.175 1.03435 -1.18907 0
M  V30 4098 C 394.122 2.11591 -0.921837 0
M  V30 4099 C 395.092 1.65499 0.141226 0
M  V30 4100 O 396.277 1.908 0.000242829 0
M  V30 4101 C 393.417 3.42012 -0.460616 0
M  V30 4102 C 392.53 4.01682 -1.58982 0
M  V30 4103 C 391.665 5.20091 -1.08069 0
M  V30 4104 C 390.704 5.71805 -2.18416 0
M  V30 4105 N 389.841 6.81494 -1.68849 0
M  V30 4106 H 394.681 2.33787 -1.8479 0
M  V30 4107 H 392.218 1.1467 -0.921373 0
M  V30 4108 H 394.176 4.16834 -0.174642 0
M  V30 4109 H 392.806 3.19944 0.428467 0
M  V30 4110 H 391.858 3.24127 -1.99113 0
M  V30 4111 H 393.17 4.36084 -2.4214 0
M  V30 4112 H 392.324 6.02051 -0.749615 0
M  V30 4113 H 391.063 4.87209 -0.218771 0
M  V30 4114 H 390.068 4.88461 -2.5236 0
M  V30 4115 H 391.293 6.06728 -3.05054 0
M  V30 4116 H 389.239 6.50475 -0.849572 0
M  V30 4117 H 389.156 7.14994 -2.45601 0
M  V30 4118 H 390.424 7.67063 -1.38689 0
M  V30 4119 N 394.653 0.992116 1.22453 0
M  V30 4120 C 395.616 0.546883 2.2258 0
M  V30 4121 C 396.616 -0.369829 1.56489 0
M  V30 4122 O 397.806 -0.161896 1.73446 0
M  V30 4123 C 394.938 -0.204659 3.40285 0
M  V30 4124 H 396.131 1.43234 2.63484 0
M  V30 4125 H 393.684 0.779239 1.3549 0
M  V30 4126 H 394.419 -1.10614 3.04853 0
M  V30 4127 H 394.204 0.45354 3.89468 0
M  V30 4128 H 395.694 -0.504358 4.14543 0
M  V30 4129 N 396.131 -1.37776 0.765217 0
M  V30 4130 C 397.356 -2.04651 0.336537 0
M  V30 4131 C 397.781 -1.57337 -1.03086 0
M  V30 4132 O 397.139 -0.730621 -1.65927 0
M  V30 4133 C 397.187 -3.58577 0.381468 0
M  V30 4134 O 396.291 -4.07706 -0.62042 0
M  V30 4135 H 395.632 -0.64756 0.146838 0
M  V30 4136 H 398.162 -1.76221 1.03959 0
M  V30 4137 H 398.172 -4.07314 0.236448 0
M  V30 4138 H 396.847 -3.9237 1.37907 0
M  V30 4139 H 395.424 -3.70306 -0.439056 0
M  V30 4140 N 397.609 -0.515225 -1.4894 0
M  V30 4141 C 398.855 0.0242508 -2.02785 0
M  V30 4142 C 399.188 1.35323 -1.39289 0
M  V30 4143 O 398.463 1.87041 -0.533469 0
M  V30 4144 C 398.746 0.16184 -3.59736 0
M  V30 4145 C 398.599 -1.19127 -4.33738 0
M  V30 4146 C 399.918 0.895719 -4.30888 0
M  V30 4147 H 397.037 0.00733914 -0.736963 0
M  V30 4148 H 399.679 -0.669395 -1.77818 0
M  V30 4149 H 397.829 0.752624 -3.8114 0
M  V30 4150 H 399.501 -1.82202 -4.23792 0
M  V30 4151 H 397.744 -1.77695 -3.95736 0
M  V30 4152 H 398.415 -1.04815 -5.41957 0
M  V30 4153 H 400.891 0.394528 -4.14225 0
M  V30 4154 H 399.767 0.960859 -5.40425 0
M  V30 4155 H 400.028 1.9427 -3.97129 0
M  V30 4156 N 399.087 1.5561 -0.249682 0
M  V30 4157 C 400.335 1.98618 0.373548 0
M  V30 4158 C 400.656 1.13919 1.58264 0
M  V30 4159 O 399.926 0.222637 1.94631 0
M  V30 4160 H 398.506 0.733571 0.141006 0
M  V30 4161 H 401.168 1.91748 -0.349117 0
M  V30 4162 H 400.264 3.04584 0.680796 0
M  V30 4163 N 400.565 -0.0233959 1.57583 0
M  V30 4164 C 401.812 -0.713063 1.8953 0
M  V30 4165 C 402.14 -1.75056 0.847673 0
M  V30 4166 O 401.395 -1.95119 -0.150636 0
M  V30 4167 C 401.694 -1.41428 3.28227 0
M  V30 4168 C 401.36 -0.512222 4.47981 0
M  V30 4169 C 400.022 -0.263785 4.80476 0
M  V30 4170 C 402.374 0.110248 5.21083 0
M  V30 4171 C 399.702 0.615804 5.83459 0
M  V30 4172 C 402.054 0.977573 6.25001 0
M  V30 4173 C 400.718 1.23542 6.55968 0
M  V30 4174 H 399.988 -0.260928 0.69354 0
M  V30 4175 H 402.635 0.0271047 1.91481 0
M  V30 4176 H 400.94 -2.22791 3.22291 0
M  V30 4177 H 402.637 -1.95355 3.50196 0
M  V30 4178 H 399.227 -0.716013 4.22577 0
M  V30 4179 H 403.411 -0.0687137 4.96252 0
M  V30 4180 H 398.667 0.82382 6.05824 0
M  V30 4181 H 402.841 1.46638 6.80786 0
M  V30 4182 H 400.468 1.91871 7.35588 0
M  V30 4183 N 402.043 -1.548 -0.295768 0
M  V30 4184 C 403.291 -1.73985 -1.02828 0
M  V30 4185 C 403.612 -0.531406 -1.87619 0
M  V30 4186 O 402.882 0.454221 -1.90561 0
M  V30 4187 H 401.462 -0.641556 -0.382642 0
M  V30 4188 H 404.124 -1.92163 -0.325489 0
M  V30 4189 H 403.22 -2.63129 -1.67838 0
M  V30 4190 N 403.521 0.559213 -1.47345 0
M  V30 4191 C 404.769 1.31388 -1.53563 0
M  V30 4192 C 405.09 1.93985 -0.198678 0
M  V30 4193 O 404.36 1.79825 0.777167 0
M  V30 4194 H 402.94 0.487901 -0.565652 0
M  V30 4195 H 405.602 0.65315 -1.8363 0
M  V30 4196 H 404.698 2.10844 -2.30111 0
M  V30 4197 N 404.999 1.35443 0.805782 0
M  V30 4198 C 406.224 1.32037 1.59941 0
M  V30 4199 C 406.649 -0.0994215 1.87837 0
M  V30 4200 O 406.007 -1.06648 1.46615 0
M  V30 4201 C 406.055 2.13354 2.90711 0
M  V30 4202 O 405.159 1.5148 3.83572 0
M  V30 4203 H 404.5 0.452666 0.485787 0
M  V30 4204 H 407.03 1.78496 1.00002 0
M  V30 4205 H 407.04 2.25338 3.40128 0
M  V30 4206 H 405.715 3.16572 2.69732 0
M  V30 4207 H 404.292 1.4834 3.42125 0
M  V30 4208 N 406.477 -1.02803 1.19454 0
M  V30 4209 C 407.717 -1.77769 1.00883 0
M  V30 4210 C 408.081 -1.86596 -0.45233 0
M  V30 4211 O 409.282 -2.57895 -0.757877 0
M  V30 4212 C 407.553 -3.16486 1.66046 0
M  V30 4213 S 409.112 -4.07632 1.62424 0
M  V30 4214 H 405.93 -0.611949 0.361993 0
M  V30 4215 H 408.532 -1.23175 1.51816 0
M  V30 4216 H 407.236 -3.0768 2.7159 0
M  V30 4217 H 406.767 -3.76156 1.15196 0
M  V30 4218 H 408.782 -4.91937 0.64903 0
M  V30 4219 N 407.956 -0.998596 -1.21925 0
M  V30 4220 C 409.203 -0.677663 -1.90824 0
M  V30 4221 C 409.531 0.790905 -1.77693 0
M  V30 4222 O 408.786 1.58817 -1.14349 0
M  V30 4223 C 409.085 -1.03648 -3.42041 0
M  V30 4224 C 408.751 -2.49825 -3.75364 0
M  V30 4225 C 407.413 -2.8977 -3.8417 0
M  V30 4226 C 409.765 -3.44545 -3.91073 0
M  V30 4227 C 407.093 -4.23412 -4.06127 0
M  V30 4228 C 409.445 -4.77853 -4.14535 0
M  V30 4229 C 408.109 -5.17531 -4.21566 0
M  V30 4230 H 407.379 -0.247975 -0.698276 0
M  V30 4231 H 410.026 -1.25584 -1.44571 0
M  V30 4232 H 408.331 -0.376457 -3.89987 0
M  V30 4233 H 410.028 -0.766113 -3.93614 0
M  V30 4234 H 406.618 -2.17866 -3.69097 0
M  V30 4235 H 410.802 -3.14853 -3.83642 0
M  V30 4236 H 406.058 -4.53734 -4.09799 0
M  V30 4237 H 410.232 -5.51189 -4.25633 0
M  V30 4238 H 407.859 -6.21102 -4.38333 0
M  V30 4239 N 409.434 1.37368 -0.772513 0
M  V30 4240 C 410.366 2.28899 -0.117502 0
M  V30 4241 C 411.379 1.4867 0.663405 0
M  V30 4242 O 412.568 1.71314 0.501372 0
M  V30 4243 C 409.668 3.2788 0.857192 0
M  V30 4244 C 408.841 4.37207 0.129938 0
M  V30 4245 C 407.9 5.16257 1.01811 0
M  V30 4246 O 406.926 5.67159 0.481601 0
M  V30 4247 N 408.128 5.31058 2.3443 0
M  V30 4248 H 410.893 2.85752 -0.903662 0
M  V30 4249 H 408.454 1.49353 -0.62493 0
M  V30 4250 H 410.446 3.77647 1.45482 0
M  V30 4251 H 409.016 2.7179 1.54432 0
M  V30 4252 H 408.236 3.88827 -0.648605 0
M  V30 4253 H 409.524 5.07434 -0.372559 0
M  V30 4254 H 408.922 4.91287 2.80452 0
M  V30 4255 H 407.479 5.84131 2.89197 0
M  V30 4256 N 410.912 0.523116 1.48665 0
M  V30 4257 C 411.859 -0.243398 2.29513 0
M  V30 4258 C 412.829 -0.940139 1.36933 0
M  V30 4259 O 414.014 -0.942503 1.65896 0
M  V30 4260 C 411.154 -1.28855 3.20141 0
M  V30 4261 C 410.267 -0.60135 4.27794 0
M  V30 4262 C 409.402 -1.62884 5.05611 0
M  V30 4263 C 408.441 -0.924726 6.05075 0
M  V30 4264 N 407.578 -1.89744 6.75975 0
M  V30 4265 H 412.418 0.452234 2.94549 0
M  V30 4266 H 409.955 0.234858 1.45213 0
M  V30 4267 H 411.913 -1.90674 3.71079 0
M  V30 4268 H 410.543 -1.95266 2.57043 0
M  V30 4269 H 409.595 0.130623 3.80176 0
M  V30 4270 H 410.907 -0.0481585 4.98777 0
M  V30 4271 H 410.061 -2.32149 5.60528 0
M  V30 4272 H 408.8 -2.21592 4.34452 0
M  V30 4273 H 407.805 -0.217966 5.49368 0
M  V30 4274 H 409.03 -0.343851 6.78229 0
M  V30 4275 H 406.976 -2.47373 6.07571 0
M  V30 4276 H 406.893 -1.3955 7.43009 0
M  V30 4277 H 408.161 -2.58229 7.35485 0
M  V30 4278 N 412.39 -1.55475 0.257931 0
M  V30 4279 C 413.667 -1.91155 -0.414629 0
M  V30 4280 C 414.047 -1.18008 -1.75035 0
M  V30 4281 O 413.395 -0.301193 -2.26506 0
M  V30 4282 C 413.605 -3.44283 -0.571859 0
M  V30 4283 C 414.953 -4.15744 -0.862678 0
M  V30 4284 O 415.977 -3.50083 -0.657314 0
M  V30 4285 O 414.836 -5.31909 -1.2544 0
M  V30 4286 H 411.93 -0.796016 -0.22425 0
M  V30 4287 H 414.476 -1.66976 0.302814 0
M  V30 4288 H 413.248 -3.89558 0.368844 0
M  V30 4289 H 412.871 -3.7436 -1.33943 0
M  V30 4290 N 413.868 0.0150385 -1.57593 0
M  V30 4291 C 415.114 0.704043 -1.90187 0
M  V30 4292 C 415.447 1.74249 -0.857366 0
M  V30 4293 O 414.722 1.94092 0.125843 0
M  V30 4294 C 415.005 1.36087 -3.33395 0
M  V30 4295 C 414.858 0.334981 -4.48551 0
M  V30 4296 C 416.177 2.29112 -3.7576 0
M  V30 4297 H 413.296 0.254475 -0.691673 0
M  V30 4298 H 415.938 -0.0331678 -1.89971 0
M  V30 4299 H 414.088 1.98922 -3.3371 0
M  V30 4300 H 415.76 -0.292534 -4.60372 0
M  V30 4301 H 414.003 -0.344325 -4.32431 0
M  V30 4302 H 414.674 0.833316 -5.45674 0
M  V30 4303 H 417.15 1.76308 -3.76902 0
M  V30 4304 H 416.026 2.72043 -4.76743 0
M  V30 4305 H 416.287 3.16385 -3.08793 0
M  V30 4306 N 415.346 1.54954 0.287554 0
M  V30 4307 C 416.276 1.89839 1.35954 0
M  V30 4308 C 417.257 0.758675 1.52244 0
M  V30 4309 O 418.442 1.01557 1.65529 0
M  V30 4310 C 415.572 2.15753 2.72154 0
M  V30 4311 C 414.526 3.3159 2.70614 0
M  V30 4312 C 413.852 3.42952 4.10229 0
M  V30 4313 C 415.152 4.68359 2.31165 0
M  V30 4314 H 416.846 2.79625 1.07007 0
M  V30 4315 H 414.392 1.3454 0.513316 0
M  V30 4316 H 416.345 2.38743 3.47246 0
M  V30 4317 H 415.069 1.22752 3.02654 0
M  V30 4318 H 413.728 3.08545 1.97979 0
M  V30 4319 H 413.376 2.47443 4.37928 0
M  V30 4320 H 413.076 4.20826 4.10097 0
M  V30 4321 H 414.6 3.68218 4.87081 0
M  V30 4322 H 416.014 4.9099 2.95976 0
M  V30 4323 H 414.411 5.49044 2.42221 0
M  V30 4324 H 415.481 4.68165 1.26291 0
M  V30 4325 N 416.824 -0.551391 1.4764 0
M  V30 4326 C 417.772 -1.67896 1.60978 0
M  V30 4327 C 418.766 -1.62549 0.476877 0
M  V30 4328 O 419.972 -1.67664 0.654878 0
M  V30 4329 H 416.347 -0.555649 0.506713 0
M  V30 4330 H 418.318 -1.53784 2.55721 0
M  V30 4331 C 417.067 -3.06234 1.64669 0
M  V30 4332 H 416.39 -3.11033 2.51194 0
M  V30 4333 H 417.83 -3.84804 1.7805 0
M  V30 4334 C 416.289 -3.34737 0.381115 0
M  V30 4335 O 416.819 -3.98381 -0.515297 0
M  V30 4336 N 415.025 -2.8944 0.259354 0
M  V30 4337 H 414.572 -2.37827 0.98976 0
M  V30 4338 H 414.53 -3.08882 -0.586464 0
M  V30 4339 N 418.302 -1.35869 -0.798587 0
M  V30 4340 C 419.232 -1.32118 -1.92528 0
M  V30 4341 C 420.213 -0.194209 -1.68988 0
M  V30 4342 O 421.398 -0.390426 -1.90235 0
M  V30 4343 C 418.528 -1.10047 -3.29404 0
M  V30 4344 C 417.482 -2.19471 -3.67446 0
M  V30 4345 C 416.808 -1.82555 -5.02571 0
M  V30 4346 C 418.108 -3.61495 -3.76987 0
M  V30 4347 H 419.802 -2.26394 -1.95924 0
M  V30 4348 H 417.348 -1.08981 -0.94123 0
M  V30 4349 H 419.301 -1.06061 -4.07835 0
M  V30 4350 H 418.025 -0.122195 -3.26371 0
M  V30 4351 H 416.684 -2.22568 -2.91306 0
M  V30 4352 H 416.332 -0.833249 -4.9605 0
M  V30 4353 H 416.032 -2.5581 -5.28995 0
M  V30 4354 H 417.556 -1.80108 -5.83432 0
M  V30 4355 H 418.97 -3.60676 -4.4563 0
M  V30 4356 H 417.367 -4.33577 -4.14887 0
M  V30 4357 H 418.437 -3.97065 -2.78329 0
M  V30 4358 N 419.78 1.02168 -1.19998 0
M  V30 4359 C 421.026 1.75945 -1.00852 0
M  V30 4360 C 421.359 1.88702 0.458828 0
M  V30 4361 O 420.634 1.40911 1.34069 0
M  V30 4362 C 420.917 3.18154 -1.68671 0
M  V30 4363 C 420.77 3.13224 -3.22817 0
M  V30 4364 C 422.089 4.16711 -1.41561 0
M  V30 4365 H 419.208 0.638673 -0.367785 0
M  V30 4366 H 421.85 1.19222 -1.4794 0
M  V30 4367 H 420 3.66586 -1.28636 0
M  V30 4368 H 421.672 2.72635 -3.72112 0
M  V30 4369 H 419.915 2.50751 -3.53986 0
M  V30 4370 H 420.586 4.13728 -3.65422 0
M  V30 4371 H 423.062 3.76913 -1.76284 0
M  V30 4372 H 421.938 5.14391 -1.91553 0
M  V30 4373 H 422.199 4.40774 -0.342193 0
M  V30 4374 N 421.258 1.00505 1.21394 0
M  V30 4375 C 422.488 0.705584 1.94178 0
M  V30 4376 C 422.896 -0.735846 1.74304 0
M  V30 4377 O 422.239 -1.50954 1.04683 0
M  V30 4378 C 422.301 0.94689 3.46806 0
M  V30 4379 C 421.965 2.37517 3.90429 0
M  V30 4380 C 422.962 3.35539 3.97127 0
M  V30 4381 C 420.647 2.71284 4.22742 0
M  V30 4382 C 422.641 4.65395 4.3553 0
M  V30 4383 C 420.328 4.01356 4.60822 0
M  V30 4384 C 421.326 4.98223 4.67186 0
M  V30 4385 O 421.014 6.25969 5.04399 0
M  V30 4386 H 420.746 0.259216 0.624326 0
M  V30 4387 H 423.3 1.34592 1.55159 0
M  V30 4388 H 421.53 0.249386 3.85895 0
M  V30 4389 H 423.219 0.640804 4.0081 0
M  V30 4390 H 423.985 3.10786 3.7234 0
M  V30 4391 H 419.864 1.96581 4.16985 0
M  V30 4392 H 423.408 5.41002 4.40412 0
M  V30 4393 H 419.305 4.25893 4.85063 0
M  V30 4394 H 420.073 6.30085 5.22431 0
M  V30 4395 N 422.737 -1.36956 0.779787 0
M  V30 4396 C 423.667 -2.32761 0.185651 0
M  V30 4397 C 424.648 -1.56177 -0.673989 0
M  V30 4398 O 425.833 -1.84378 -0.609797 0
M  V30 4399 C 422.963 -3.40418 -0.687964 0
M  V30 4400 C 421.917 -4.27941 0.0710102 0
M  V30 4401 C 421.243 -5.26681 -0.922573 0
M  V30 4402 C 422.543 -5.07006 1.25467 0
M  V30 4403 H 424.237 -2.82698 0.986008 0
M  V30 4404 H 421.783 -1.3592 0.475592 0
M  V30 4405 H 423.736 -4.06423 -1.11348 0
M  V30 4406 H 422.46 -2.89025 -1.52093 0
M  V30 4407 H 421.119 -3.63478 0.47739 0
M  V30 4408 H 420.767 -4.71565 -1.7503 0
M  V30 4409 H 420.467 -5.86103 -0.419237 0
M  V30 4410 H 421.991 -5.9556 -1.34686 0
M  V30 4411 H 423.405 -5.66105 0.905401 0
M  V30 4412 H 421.802 -5.75793 1.69063 0
M  V30 4413 H 422.872 -4.3921 2.05481 0
M  V30 4414 N 424.215 -0.530993 -1.48385 0
M  V30 4415 C 425.455 0.000718982 -2.044 0
M  V30 4416 C 425.819 1.31485 -1.39913 0
M  V30 4417 O 427.02 1.93265 -1.86821 0
M  V30 4418 C 425.291 0.119177 -3.57201 0
M  V30 4419 S 426.85 0.600806 -4.34667 0
M  V30 4420 H 423.668 -0.0125473 -0.710889 0
M  V30 4421 H 426.27 -0.711783 -1.82082 0
M  V30 4422 H 424.974 -0.842061 -4.01668 0
M  V30 4423 H 424.505 0.856026 -3.83974 0
M  V30 4424 H 426.52 1.86514 -4.59812 0
M  V30 4425 N 425.693 1.55336 -0.266172 0
M  V30 4426 C 426.603 2.2583 0.635458 0
M  V30 4427 C 427.619 1.28106 1.17749 0
M  V30 4428 O 428.795 1.61024 1.20968 0
M  V30 4429 C 425.86 2.95879 1.80712 0
M  V30 4430 C 424.921 4.09059 1.30265 0
M  V30 4431 C 424.154 4.75759 2.41846 0
M  V30 4432 O 424.377 4.41622 3.61007 0
M  V30 4433 O 423.311 5.63888 2.1051 0
M  V30 4434 H 427.137 3.03631 0.0646693 0
M  V30 4435 H 424.722 1.49361 -0.0339177 0
M  V30 4436 H 426.604 3.39932 2.49047 0
M  V30 4437 H 425.279 2.21002 2.36516 0
M  V30 4438 H 424.186 3.69482 0.586019 0
M  V30 4439 H 425.519 4.85811 0.790458 0
M  V30 4440 N 427.171 -0.0066808 1.57599 0
M  V30 4441 C 428.134 -0.985035 2.06953 0
M  V30 4442 C 429.134 -1.27663 0.977687 0
M  V30 4443 O 430.324 -1.22293 1.24057 0
M  V30 4444 C 427.456 -2.3118 2.50536 0
M  V30 4445 H 428.649 -0.558255 2.94658 0
M  V30 4446 H 426.202 -0.254011 1.54222 0
M  V30 4447 H 426.937 -2.78561 1.66054 0
M  V30 4448 H 426.722 -2.11338 3.3027 0
M  V30 4449 H 428.212 -3.01377 2.8907 0
M  V30 4450 N 428.649 -1.55105 -0.279332 0
M  V30 4451 C 429.579 -1.90557 -1.34945 0
M  V30 4452 C 430.56 -0.766738 -1.51839 0
M  V30 4453 O 431.745 -1.02434 -1.64988 0
M  V30 4454 C 428.875 -2.17193 -2.71006 0
M  V30 4455 C 427.829 -3.33021 -2.68851 0
M  V30 4456 C 427.155 -3.45123 -4.08405 0
M  V30 4457 C 428.455 -4.69578 -2.28678 0
M  V30 4458 H 430.149 -2.80188 -1.05522 0
M  V30 4459 H 427.695 -1.34811 -0.506173 0
M  V30 4460 H 429.648 -2.40581 -3.45975 0
M  V30 4461 H 428.372 -1.24355 -3.01999 0
M  V30 4462 H 427.031 -3.0959 -1.9634 0
M  V30 4463 H 426.679 -2.49762 -4.3661 0
M  V30 4464 H 426.379 -4.22995 -4.07859 0
M  V30 4465 H 427.903 -3.70796 -4.85121 0
M  V30 4466 H 429.317 -4.92553 -2.93368 0
M  V30 4467 H 427.714 -5.5032 -2.39306 0
M  V30 4468 H 428.784 -4.68828 -1.23807 0
M  V30 4469 N 430.127 0.543554 -1.4793 0
M  V30 4470 C 431.075 1.67039 -1.61866 0
M  V30 4471 C 432.069 1.62294 -0.48549 0
M  V30 4472 O 433.275 1.67315 -0.66376 0
M  V30 4473 H 429.65 0.552954 -0.509652 0
M  V30 4474 H 431.621 1.52426 -2.56533 0
M  V30 4475 C 430.37 3.05357 -1.6629 0
M  V30 4476 H 429.693 3.09696 -2.5284 0
M  V30 4477 H 431.133 3.83855 -1.80088 0
M  V30 4478 C 429.592 3.34531 -0.398861 0
M  V30 4479 O 430.122 3.98649 0.494162 0
M  V30 4480 N 428.328 2.89299 -0.2747 0
M  V30 4481 H 427.875 2.37298 -1.00236 0
M  V30 4482 H 427.833 3.09188 0.570075 0
M  V30 4483 N 431.605 1.3629 0.791371 0
M  V30 4484 C 432.535 1.33137 1.91825 0
M  V30 4485 C 433.516 0.203168 1.68882 0
M  V30 4486 O 434.701 0.400509 1.90025 0
M  V30 4487 C 431.831 1.11793 3.28816 0
M  V30 4488 C 430.785 2.21417 3.66277 0
M  V30 4489 C 430.111 1.85218 5.01596 0
M  V30 4490 C 431.411 3.63489 3.75064 0
M  V30 4491 H 433.105 2.2743 1.9472 0
M  V30 4492 H 430.651 1.09479 0.935437 0
M  V30 4493 H 432.604 1.08222 4.07266 0
M  V30 4494 H 431.328 0.139501 3.26302 0
M  V30 4495 H 429.987 2.2411 2.90121 0
M  V30 4496 H 429.635 0.859544 4.95602 0
M  V30 4497 H 429.335 2.58611 5.27631 0
M  V30 4498 H 430.859 1.832 5.82469 0
M  V30 4499 H 432.273 3.63034 4.43711 0
M  V30 4500 H 430.67 4.35771 4.12582 0
M  V30 4501 H 431.74 3.98536 2.76219 0
M  V30 4502 N 433.083 -1.0153 1.20538 0
M  V30 4503 C 434.494 -1.56598 1.01657 0
M  V30 4504 C 434.845 -1.91505 -0.426668 0
M  V30 4505 O 433.97 -1.72375 -1.30827 0
M  V30 4506 C 434.565 -2.84542 1.83905 0
M  V30 4507 C 433.124 -3.36133 1.69386 0
M  V30 4508 C 432.271 -2.09427 1.81757 0
M  V30 4509 H 435.222 -0.838974 1.34711 0
M  V30 4510 H 435.243 -3.56004 1.34319 0
M  V30 4511 H 434.755 -2.59105 2.8894 0
M  V30 4512 H 432.856 -3.66528 0.669933 0
M  V30 4513 H 432.969 -4.08248 2.50739 0
M  V30 4514 H 431.333 -2.21941 1.24957 0
M  V30 4515 H 432.116 -1.86414 2.88279 0
M  V30 4516 N 434.561 -1.01147 -1.20859 0
M  V30 4517 C 435.471 -0.58686 -2.27141 0
M  V30 4518 C 436.487 0.373198 -1.69951 0
M  V30 4519 O 437.663 0.235423 -2.00019 0
M  V30 4520 C 434.728 0.0733602 -3.46622 0
M  V30 4521 C 433.789 -0.931995 -4.19061 0
M  V30 4522 C 433.022 -0.303186 -5.32838 0
M  V30 4523 O 433.245 0.898395 -5.63281 0
M  V30 4524 O 432.179 -1.01735 -5.9324 0
M  V30 4525 H 436.005 -1.47155 -2.65667 0
M  V30 4526 H 433.59 -0.780689 -1.2738 0
M  V30 4527 H 435.472 0.442333 -4.19072 0
M  V30 4528 H 434.147 0.932329 -3.09983 0
M  V30 4529 H 433.054 -1.35224 -3.48805 0
M  V30 4530 H 434.387 -1.76076 -4.59628 0
M  V30 4531 N 436.039 1.36541 -0.78704 0
M  V30 4532 C 437.285 1.99599 -0.358872 0
M  V30 4533 C 437.618 1.62323 1.06606 0
M  V30 4534 O 436.893 0.876858 1.73613 0
M  V30 4535 C 437.176 3.56327 -0.519944 0
M  V30 4536 C 437.029 4.03464 -1.98839 0
M  V30 4537 C 438.348 4.4005 0.0664737 0
M  V30 4538 H 435.467 0.725107 -0.131869 0
M  V30 4539 H 438.109 1.6199 -0.992936 0
M  V30 4540 H 436.259 3.88495 0.0198321 0
M  V30 4541 H 437.931 3.81793 -2.58905 0
M  V30 4542 H 436.174 3.55092 -2.49183 0
M  V30 4543 H 436.845 5.12439 -2.05207 0
M  V30 4544 H 439.321 4.14228 -0.394267 0
M  V30 4545 H 438.197 5.48847 -0.0762682 0
M  V30 4546 H 438.458 4.26655 1.15835 0
M  V30 4547 N 437.518 0.538854 1.48102 0
M  V30 4548 C 438.481 -0.208395 2.28251 0
M  V30 4549 C 439.481 -0.859656 1.35892 0
M  V30 4550 O 440.671 -0.71834 1.58699 0
M  V30 4551 C 437.803 -1.30252 3.15035 0
M  V30 4552 H 438.996 0.495407 2.9578 0
M  V30 4553 H 436.549 0.295112 1.53489 0
M  V30 4554 H 437.284 -2.0393 2.52157 0
M  V30 4555 H 437.069 -0.840551 3.82985 0
M  V30 4556 H 438.559 -1.82787 3.75471 0
M  V30 4557 N 438.996 -1.55193 0.274407 0
M  V30 4558 C 440.412 -1.59401 -0.0797543 0
M  V30 4559 C 440.612 -1.29162 -1.54659 0
M  V30 4560 O 439.668 -1.05215 -2.29534 0
M  V30 4561 C 440.981 -2.99257 0.294238 0
M  V30 4562 C 442.529 -3.12072 0.240796 0
M  V30 4563 C 443.004 -4.54194 0.589218 0
M  V30 4564 N 444.495 -4.60033 0.540744 0
M  V30 4565 C 445.23 -5.68027 0.783147 0
M  V30 4566 N 444.726 -6.8417 1.09013 0
M  V30 4567 N 446.519 -5.57572 0.711993 0
M  V30 4568 H 438.67 -1.73113 1.23067 0
M  V30 4569 H 440.933 -0.807197 0.497129 0
M  V30 4570 H 440.639 -3.26217 1.31435 0
M  V30 4571 H 440.513 -3.75427 -0.365281 0
M  V30 4572 H 442.9 -2.84877 -0.770024 0
M  V30 4573 H 442.981 -2.38117 0.934563 0
M  V30 4574 H 442.625 -4.82115 1.59772 0
M  V30 4575 H 442.555 -5.26448 -0.126331 0
M  V30 4576 H 445.046 -3.76599 0.313327 0
M  V30 4577 H 445.359 -7.6243 1.26178 0
M  V30 4578 H 443.704 -6.85787 1.12789 0
M  V30 4579 H 446.895 -4.65714 0.472014 0
M  V30 4580 H 447.068 -6.41659 0.90429 0
M  V30 4581 N 440.474 -0.00167713 -1.576 0
M  V30 4582 C 441.704 0.692754 -1.94639 0
M  V30 4583 C 442.112 1.67744 -0.87513 0
M  V30 4584 O 441.455 1.8305 0.154382 0
M  V30 4585 C 441.517 1.47881 -3.27676 0
M  V30 4586 C 441.181 0.655518 -4.52274 0
M  V30 4587 C 442.178 -0.0575214 -5.19868 0
M  V30 4588 C 439.863 0.600994 -4.98692 0
M  V30 4589 C 441.857 -0.814052 -6.3218 0
M  V30 4590 C 439.544 -0.15926 -6.10892 0
M  V30 4591 C 440.542 -0.865515 -6.77494 0
M  V30 4592 O 440.23 -1.61336 -7.87544 0
M  V30 4593 H 439.962 0.197792 -0.646417 0
M  V30 4594 H 442.516 -0.049423 -2.05341 0
M  V30 4595 H 440.746 2.2655 -3.13388 0
M  V30 4596 H 442.435 2.05874 -3.49816 0
M  V30 4597 H 443.201 -0.0245611 -4.84994 0
M  V30 4598 H 439.08 1.14025 -4.46676 0
M  V30 4599 H 442.624 -1.36584 -6.84098 0
M  V30 4600 H 438.521 -0.194035 -6.45208 0
M  V30 4601 H 439.289 -1.53025 -8.04068 0
M  V30 4602 N 441.952 1.55251 0.271103 0
M  V30 4603 C 443.198 1.7713 0.999832 0
M  V30 4604 C 443.553 0.56659 1.83868 0
M  V30 4605 O 442.846 -0.44069 1.86463 0
M  V30 4606 C 443.04 3.01879 1.91321 0
M  V30 4607 C 442.869 4.34368 1.16426 0
M  V30 4608 C 441.639 4.97593 0.879169 0
M  V30 4609 C 443.837 5.1131 0.553749 0
M  V30 4610 N 441.819 6.13813 0.103618 0
M  V30 4611 C 443.19 6.19938 -0.0875442 0
M  V30 4612 C 445.245 4.95754 0.461782 0
M  V30 4613 C 443.948 7.14703 -0.811942 0
M  V30 4614 C 445.974 5.90875 -0.249027 0
M  V30 4615 C 445.336 6.98893 -0.879051 0
M  V30 4616 H 441.435 0.700407 0.347784 0
M  V30 4617 H 444.019 1.92744 0.275314 0
M  V30 4618 H 442.19 2.87637 2.60997 0
M  V30 4619 H 443.922 3.12154 2.57569 0
M  V30 4620 H 440.677 4.58538 1.18491 0
M  V30 4621 H 441.101 6.76455 -0.271543 0
M  V30 4622 H 445.743 4.12342 0.934552 0
M  V30 4623 H 443.461 7.97634 -1.29639 0
M  V30 4624 H 447.047 5.80916 -0.320529 0
M  V30 4625 H 445.927 7.71231 -1.42031 0
M  V30 4626 N 443.43 -0.535701 1.48216 0
M  V30 4627 C 444.362 -1.65662 1.58394 0
M  V30 4628 C 445.375 -1.5591 0.468607 0
M  V30 4629 O 446.564 -1.62475 0.7392 0
M  V30 4630 C 443.664 -3.04276 1.4923 0
M  V30 4631 C 442.837 -3.39567 2.75705 0
M  V30 4632 C 441.896 -4.57436 2.60075 0
M  V30 4633 O 440.922 -4.60942 3.33948 0
M  V30 4634 N 442.124 -5.55259 1.69315 0
M  V30 4635 H 444.889 -1.5737 2.55058 0
M  V30 4636 H 442.45 -0.722845 1.44867 0
M  V30 4637 H 444.442 -3.80994 1.36477 0
M  V30 4638 H 443.012 -3.06677 0.605632 0
M  V30 4639 H 442.232 -2.52083 3.03064 0
M  V30 4640 H 443.52 -3.59929 3.59623 0
M  V30 4641 H 442.918 -5.552 1.08489 0
M  V30 4642 H 441.475 -6.31218 1.62504 0
M  V30 4643 N 444.908 -1.36708 -0.784132 0
M  V30 4644 C 445.84 -1.27333 -1.90575 0
M  V30 4645 C 446.853 -0.191706 -1.61667 0
M  V30 4646 O 448.042 -0.446854 -1.72816 0
M  V30 4647 C 445.142 -0.943177 -3.25511 0
M  V30 4648 C 444.315 -2.12776 -3.82158 0
M  V30 4649 C 443.374 -1.76983 -4.95544 0
M  V30 4650 O 442.4 -2.49134 -5.11782 0
M  V30 4651 N 443.602 -0.706624 -5.76183 0
M  V30 4652 H 446.367 -2.23974 -1.99138 0
M  V30 4653 H 443.928 -1.30171 -0.962656 0
M  V30 4654 H 445.92 -0.684799 -3.98864 0
M  V30 4655 H 444.49 -0.0657333 -3.12531 0
M  V30 4656 H 443.71 -2.54863 -3.0073 0
M  V30 4657 H 444.998 -2.91904 -4.16737 0
M  V30 4658 H 444.396 -0.107643 -5.65598 0
M  V30 4659 H 442.953 -0.50808 -6.49817 0
M  V30 4660 N 446.386 1.0089 -1.21074 0
M  V30 4661 C 447.632 1.74866 -1.02712 0
M  V30 4662 C 447.965 1.89178 0.438787 0
M  V30 4663 O 447.24 1.42325 1.32567 0
M  V30 4664 C 447.523 3.16347 -1.72036 0
M  V30 4665 C 447.376 3.09782 -3.26121 0
M  V30 4666 C 448.695 4.15187 -1.45973 0
M  V30 4667 H 445.814 0.634736 -0.374539 0
M  V30 4668 H 448.456 1.17646 -1.49196 0
M  V30 4669 H 446.606 3.65201 -1.32517 0
M  V30 4670 H 448.278 2.68673 -3.74983 0
M  V30 4671 H 446.521 2.46982 -3.56626 0
M  V30 4672 H 447.192 4.09829 -3.6979 0
M  V30 4673 H 449.668 3.75022 -1.80272 0
M  V30 4674 H 448.544 5.12331 -1.96999 0
M  V30 4675 H 448.805 4.40386 -0.388924 0
M  V30 4676 N 447.864 1.01787 1.20321 0
M  V30 4677 C 449.113 0.703249 1.89043 0
M  V30 4678 C 449.426 -0.770445 1.79787 0
M  V30 4679 O 450.632 -1.19767 2.43656 0
M  V30 4680 C 449.088 1.20749 3.3904 0
M  V30 4681 C 448.696 2.70817 3.56878 0
M  V30 4682 C 450.44 0.968352 4.13308 0
M  V30 4683 C 448.347 3.14716 5.00708 0
M  V30 4684 H 447.277 0.259354 0.707991 0
M  V30 4685 H 449.928 1.23072 1.36108 0
M  V30 4686 H 448.31 0.607989 3.91305 0
M  V30 4687 H 449.484 3.36327 3.14993 0
M  V30 4688 H 447.799 2.92888 2.95983 0
M  V30 4689 H 450.396 1.27173 5.19356 0
M  V30 4690 H 450.739 -0.095149 4.16191 0
M  V30 4691 H 451.272 1.53129 3.67146 0
M  V30 4692 H 448.011 4.20347 5.02979 0
M  V30 4693 H 447.531 2.53927 5.43398 0
M  V30 4694 H 449.21 3.07426 5.69296 0
M  V30 4695 N 449.342 -1.36122 0.79427 0
M  V30 4696 C 450.619 -1.93398 0.292685 0
M  V30 4697 C 450.999 -1.72567 -1.21589 0
M  V30 4698 O 450.347 -1.08745 -2.00965 0
M  V30 4699 C 450.557 -3.42099 0.690614 0
M  V30 4700 C 451.905 -4.19231 0.673105 0
M  V30 4701 O 452.929 -3.50559 0.631389 0
M  V30 4702 O 451.788 -5.41732 0.720362 0
M  V30 4703 H 448.882 -0.823712 0.0736693 0
M  V30 4704 H 451.428 -1.45273 0.87714 0
M  V30 4705 H 450.2 -3.50938 1.73085 0
M  V30 4706 H 449.823 -3.97519 0.0803036 0
M  V30 4707 N 450.82 -0.546701 -1.47814 0
M  V30 4708 C 451.753 0.254472 -2.26777 0
M  V30 4709 C 452.731 0.929809 -1.33392 0
M  V30 4710 O 453.915 0.950889 -1.62759 0
M  V30 4711 C 451.042 1.36171 -3.10121 0
M  V30 4712 C 450.088 0.796038 -4.19005 0
M  V30 4713 S 450.921 -0.349191 -5.3436 0
M  V30 4714 C 452.077 0.760122 -6.21267 0
M  V30 4715 H 452.31 -0.415612 -2.94381 0
M  V30 4716 H 449.843 -0.332809 -1.5077 0
M  V30 4717 H 451.801 1.99588 -3.58713 0
M  V30 4718 H 450.462 2.00359 -2.41899 0
M  V30 4719 H 449.655 1.62719 -4.7701 0
M  V30 4720 H 449.257 0.238246 -3.7324 0
M  V30 4721 H 451.549 1.65479 -6.5698 0
M  V30 4722 H 452.492 0.217673 -7.07765 0
M  V30 4723 H 452.9 1.04806 -5.54685 0
M  V30 4724 N 452.299 1.55045 -0.282633 0
M  V30 4725 C 453.247 2.24254 0.617478 0
M  V30 4726 C 454.241 1.24215 1.15183 0
M  V30 4727 O 455.447 1.42123 1.10459 0
M  V30 4728 H 451.822 0.719801 0.217693 0
M  V30 4729 H 453.793 2.98398 0.0110076 0
M  V30 4730 C 452.542 2.98281 1.78672 0
M  V30 4731 H 451.865 3.75053 1.38475 0
M  V30 4732 H 453.305 3.50017 2.393 0
M  V30 4733 C 451.764 2.04184 2.67975 0
M  V30 4734 O 452.294 1.59792 3.6855 0
M  V30 4735 N 450.5 1.70526 2.35307 0
M  V30 4736 H 450.047 2.06821 1.53567 0
M  V30 4737 H 450.005 1.07839 2.95327 0
M  V30 4738 N 453.777 0.010035 1.57597 0
M  V30 4739 C 455.054 -0.710296 1.82248 0
M  V30 4740 C 455.434 -1.91426 0.889911 0
M  V30 4741 O 454.782 -2.28424 -0.0590292 0
M  V30 4742 C 454.992 -1.10655 3.30993 0
M  V30 4743 C 456.34 -1.50621 3.96987 0
M  V30 4744 O 457.364 -1.20007 3.35375 0
M  V30 4745 O 456.223 -2.07587 5.05539 0
M  V30 4746 H 453.317 -0.34673 0.750804 0
M  V30 4747 H 455.863 0.0362578 1.69661 0
M  V30 4748 H 454.635 -0.248826 3.90508 0
M  V30 4749 H 454.258 -1.91189 3.48615 0
M  V30 4750 N 455.255 -1.55392 -0.262866 0
M  V30 4751 C 456.485 -1.80251 -1.00961 0
M  V30 4752 C 456.893 -0.58117 -1.80053 0
M  V30 4753 O 456.236 0.459427 -1.77862 0
M  V30 4754 C 456.298 -2.98207 -2.00781 0
M  V30 4755 C 455.962 -4.34856 -1.40533 0
M  V30 4756 C 456.959 -5.13459 -0.815853 0
M  V30 4757 C 454.644 -4.8153 -1.42948 0
M  V30 4758 C 456.638 -6.36875 -0.258562 0
M  V30 4759 C 454.325 -6.04899 -0.868334 0
M  V30 4760 C 455.323 -6.8241 -0.283884 0
M  V30 4761 O 455.011 -8.03451 0.268644 0
M  V30 4762 H 454.743 -0.604049 -0.303482 0
M  V30 4763 H 457.297 -2.03257 -0.295926 0
M  V30 4764 H 455.527 -2.70917 -2.75936 0
M  V30 4765 H 457.216 -3.10299 -2.61667 0
M  V30 4766 H 457.982 -4.78526 -0.789812 0
M  V30 4767 H 453.861 -4.21201 -1.87378 0
M  V30 4768 H 457.405 -6.97318 0.198257 0
M  V30 4769 H 453.302 -6.39312 -0.891649 0
M  V30 4770 H 454.07 -8.18346 0.158974 0
M  V30 4771 N 456.733 0.527833 -1.48498 0
M  V30 4772 C 457.665 1.6482 -1.5927 0
M  V30 4773 C 458.678 1.55659 -0.476869 0
M  V30 4774 O 459.867 1.62081 -0.747806 0
M  V30 4775 C 456.967 3.0348 -1.50842 0
M  V30 4776 C 456.14 3.381 -2.77502 0
M  V30 4777 C 455.199 4.5605 -2.62497 0
M  V30 4778 O 454.225 4.59165 -3.36387 0
M  V30 4779 N 455.427 5.54353 -1.72257 0
M  V30 4780 H 458.192 1.56015 -2.55889 0
M  V30 4781 H 455.753 0.715152 -1.45249 0
M  V30 4782 H 457.745 3.80264 -1.38496 0
M  V30 4783 H 456.315 3.06352 -0.621887 0
M  V30 4784 H 455.535 2.50473 -3.04396 0
M  V30 4785 H 456.823 3.58017 -3.61527 0
M  V30 4786 H 456.221 5.54617 -1.11431 0
M  V30 4787 H 454.778 6.30347 -1.65849 0
M  V30 4788 N 458.211 1.37122 0.776871 0
M  V30 4789 C 459.627 1.1781 1.07671 0
M  V30 4790 C 459.827 0.0107454 2.01497 0
M  V30 4791 O 458.883 -0.650756 2.4397 0
M  V30 4792 C 460.196 2.49451 1.67913 0
M  V30 4793 C 461.744 2.55927 1.80195 0
M  V30 4794 C 462.219 3.87686 2.43851 0
M  V30 4795 N 463.71 3.891 2.51307 0
M  V30 4796 C 464.445 4.87797 3.014 0
M  V30 4797 N 463.941 5.96888 3.51705 0
M  V30 4798 N 465.734 4.75205 3.00227 0
M  V30 4799 H 457.885 2.11843 0.153778 0
M  V30 4800 H 460.148 0.938927 0.130844 0
M  V30 4801 H 459.854 3.35207 1.06439 0
M  V30 4802 H 459.728 2.66169 2.67271 0
M  V30 4803 H 462.115 1.70582 2.40803 0
M  V30 4804 H 462.196 2.43097 0.796069 0
M  V30 4805 H 461.84 4.73444 1.83884 0
M  V30 4806 H 461.77 3.97817 3.45035 0
M  V30 4807 H 464.261 3.10293 2.157 0
M  V30 4808 H 464.574 6.68155 3.88316 0
M  V30 4809 H 462.919 6.0054 3.49824 0
M  V30 4810 H 466.11 3.89103 2.60224 0
M  V30 4811 H 466.283 5.52279 3.38957 0
M  V30 4812 N 459.689 -1.00246 1.21608 0
M  V30 4813 C 461.105 -1.26435 0.973975 0
M  V30 4814 C 461.305 -1.98642 -0.338143 0
M  V30 4815 O 460.361 -2.29026 -1.06317 0
M  V30 4816 C 461.674 -2.08551 2.16626 0
M  V30 4817 C 463.222 -2.21769 2.20879 0
M  V30 4818 C 463.697 -3.07267 3.39633 0
M  V30 4819 N 465.188 -3.14855 3.39736 0
M  V30 4820 C 465.923 -3.81274 4.28273 0
M  V30 4821 N 465.419 -4.497 5.27012 0
M  V30 4822 N 467.212 -3.7794 4.16074 0
M  V30 4823 H 459.363 -0.518089 2.05984 0
M  V30 4824 H 461.626 -0.291368 0.902113 0
M  V30 4825 H 461.332 -1.62847 3.11727 0
M  V30 4826 H 461.206 -3.09303 2.15897 0
M  V30 4827 H 463.593 -2.66691 1.26332 0
M  V30 4828 H 463.674 -1.20478 2.25652 0
M  V30 4829 H 463.318 -2.63047 4.34475 0
M  V30 4830 H 463.248 -4.08678 3.321 0
M  V30 4831 H 465.739 -2.66147 2.6828 0
M  V30 4832 H 466.052 -4.98092 5.90867 0
M  V30 4833 H 464.397 -4.48479 5.30935 0
M  V30 4834 H 467.588 -3.23638 3.38195 0
M  V30 4835 H 467.761 -4.29424 4.85282 0
M  V30 4836 N 461.167 -1.02423 -1.1978 0
M  V30 4837 C 462.583 -0.740459 -1.41384 0
M  V30 4838 C 462.783 0.676827 -1.89793 0
M  V30 4839 O 461.839 1.4435 -2.0717 0
M  V30 4840 C 463.152 -1.77264 -2.42895 0
M  V30 4841 C 464.7 -1.79165 -2.56649 0
M  V30 4842 C 465.175 -2.8133 -3.6141 0
M  V30 4843 N 466.666 -2.80118 -3.68901 0
M  V30 4844 C 467.401 -3.55824 -4.49641 0
M  V30 4845 N 466.897 -4.41231 -5.34123 0
M  V30 4846 N 468.69 -3.44387 -4.44246 0
M  V30 4847 H 460.841 -1.9391 -0.866764 0
M  V30 4848 H 463.104 -0.838074 -0.443098 0
M  V30 4849 H 462.81 -2.7884 -2.14339 0
M  V30 4850 H 462.684 -1.59108 -3.42001 0
M  V30 4851 H 465.071 -0.782702 -2.84531 0
M  V30 4852 H 465.152 -2.01396 -1.57713 0
M  V30 4853 H 464.796 -3.82394 -3.34271 0
M  V30 4854 H 464.726 -2.56359 -4.59986 0
M  V30 4855 H 467.217 -2.1817 -3.08562 0
M  V30 4856 H 467.53 -4.95747 -5.92836 0
M  V30 4857 H 465.875 -4.45306 -5.33599 0
M  V30 4858 H 469.066 -2.7708 -3.77285 0
M  V30 4859 H 469.239 -4.0364 -5.06931 0
M  V30 4860 N 462.645 1.35699 -0.801477 0
M  V30 4861 C 463.892 1.98913 -0.379459 0
M  V30 4862 C 464.22 1.63592 1.05204 0
M  V30 4863 O 463.475 0.888563 1.74365 0
M  V30 4864 C 463.774 3.53828 -0.504041 0
M  V30 4865 C 463.44 4.09002 -1.8981 0
M  V30 4866 C 462.102 4.23783 -2.27951 0
M  V30 4867 C 464.454 4.38939 -2.81038 0
M  V30 4868 C 461.782 4.65816 -3.56696 0
M  V30 4869 C 464.134 4.82409 -4.09224 0
M  V30 4870 C 462.798 4.95395 -4.4737 0
M  V30 4871 H 462.068 0.727874 -0.138854 0
M  V30 4872 H 464.715 1.61994 -1.02128 0
M  V30 4873 H 463.02 3.91175 0.221242 0
M  V30 4874 H 464.717 4.00687 -0.158361 0
M  V30 4875 H 461.307 3.97946 -1.59176 0
M  V30 4876 H 465.491 4.27077 -2.52821 0
M  V30 4877 H 460.747 4.74059 -3.86106 0
M  V30 4878 H 464.921 5.04535 -4.80018 0
M  V30 4879 H 462.548 5.27724 -5.47185 0
M  V30 4880 N 464.123 0.554532 1.47522 0
M  V30 4881 C 465.086 -0.184174 2.28459 0
M  V30 4882 C 466.086 -0.845195 1.36796 0
M  V30 4883 O 467.276 -0.701467 1.59452 0
M  V30 4884 C 464.408 -1.26903 3.16399 0
M  V30 4885 H 465.601 0.526751 2.95238 0
M  V30 4886 H 463.154 0.311375 1.53167 0
M  V30 4887 H 463.889 -2.01244 2.54306 0
M  V30 4888 H 463.674 -0.799883 3.83854 0
M  V30 4889 H 465.164 -1.78794 3.77389 0
M  V30 4890 N 465.601 -1.54893 0.290851 0
M  V30 4891 C 466.826 -2.04804 -0.32712 0
M  V30 4892 C 467.251 -1.16721 -1.47506 0
M  V30 4893 O 466.609 -0.169107 -1.8051 0
M  V30 4894 C 466.657 -3.52268 -0.770689 0
M  V30 4895 O 465.761 -3.67236 -1.87647 0
M  V30 4896 H 465.102 -0.660789 -0.0652227 0
M  V30 4897 H 467.632 -2.00036 0.429739 0
M  V30 4898 H 467.642 -3.9393 -1.06223 0
M  V30 4899 H 466.317 -4.15843 0.069096 0
M  V30 4900 H 464.894 -3.37479 -1.58626 0
M  V30 4901 N 467.08 -0.0183926 -1.57589 0
M  V30 4902 C 468.496 0.337897 -1.55982 0
M  V30 4903 C 468.696 1.73604 -1.02294 0
M  V30 4904 O 467.752 2.43589 -0.664895 0
M  V30 4905 C 469.065 0.196305 -3.00059 0
M  V30 4906 C 470.613 0.269875 -3.11834 0
M  V30 4907 C 471.088 0.157197 -4.5773 0
M  V30 4908 N 472.579 0.214521 -4.62703 0
M  V30 4909 C 473.314 0.150955 -5.73201 0
M  V30 4910 N 472.81 0.0369212 -6.9279 0
M  V30 4911 N 474.603 0.204162 -5.61729 0
M  V30 4912 H 466.754 -0.93279 -1.90821 0
M  V30 4913 H 469.017 -0.359253 -0.877292 0
M  V30 4914 H 468.723 -0.766383 -3.43248 0
M  V30 4915 H 468.597 0.970908 -3.6449 0
M  V30 4916 H 470.984 1.22302 -2.68563 0
M  V30 4917 H 471.065 -0.534918 -2.50144 0
M  V30 4918 H 470.709 -0.792479 -5.01679 0
M  V30 4919 H 470.639 0.980717 -5.17387 0
M  V30 4920 H 473.13 0.303238 -3.76681 0
M  V30 4921 H 473.443 -0.00518321 -7.728 0
M  V30 4922 H 471.788 0.0022886 -6.95 0
M  V30 4923 H 474.979 0.291575 -4.67191 0
M  V30 4924 H 475.152 0.15116 -6.47824 0
M  V30 4925 N 468.558 1.5553 0.254621 0
M  V30 4926 C 469.807 1.76202 0.981612 0
M  V30 4927 C 470.12 0.580883 1.86776 0
M  V30 4928 O 471.326 0.670448 2.63092 0
M  V30 4929 C 469.782 3.11921 1.79537 0
M  V30 4930 C 469.39 4.37659 0.956991 0
M  V30 4931 C 471.134 3.41936 2.51555 0
M  V30 4932 C 469.041 5.64411 1.76619 0
M  V30 4933 H 467.971 0.656841 0.370237 0
M  V30 4934 H 470.622 1.81969 0.236556 0
M  V30 4935 H 469.004 3.00241 2.58208 0
M  V30 4936 H 470.178 4.60307 0.21315 0
M  V30 4937 H 468.493 4.14922 0.350497 0
M  V30 4938 H 471.09 4.33849 3.12536 0
M  V30 4939 H 471.433 2.62905 3.22779 0
M  V30 4940 H 471.966 3.54797 1.799 0
M  V30 4941 H 468.705 6.46241 1.09783 0
M  V30 4942 H 468.225 5.45877 2.48551 0
M  V30 4943 H 469.904 6.03386 2.33527 0
M  V30 4944 N 470.036 -0.519951 1.48776 0
M  V30 4945 C 471.285 -1.27175 1.56555 0
M  V30 4946 C 471.598 -1.9401 0.248869 0
M  V30 4947 O 472.804 -2.70725 0.205004 0
M  V30 4948 C 471.26 -2.30811 2.76142 0
M  V30 4949 C 470.868 -1.7 4.14493 0
M  V30 4950 C 472.612 -3.06937 2.9324 0
M  V30 4951 C 470.519 -2.71635 5.25327 0
M  V30 4952 H 469.449 -0.478329 0.582853 0
M  V30 4953 H 472.1 -0.547916 1.75129 0
M  V30 4954 H 470.482 -3.06274 2.51023 0
M  V30 4955 H 471.656 -1.00658 4.49672 0
M  V30 4956 H 469.971 -1.06331 4.02595 0
M  V30 4957 H 472.568 -3.82905 3.73213 0
M  V30 4958 H 472.911 -3.63409 2.03075 0
M  V30 4959 H 473.444 -2.38589 3.18308 0
M  V30 4960 H 470.183 -2.1997 6.1749 0
M  V30 4961 H 469.703 -3.39275 4.94624 0
M  V30 4962 H 471.382 -3.34429 5.53865 0
M  V30 4963 N 471.514 -1.37532 -0.769588 0
M  V30 4964 C 472.791 -1.23392 -1.51768 0
M  V30 4965 C 473.171 0.17157 -2.10402 0
M  V30 4966 O 472.519 1.17943 -1.95708 0
M  V30 4967 C 472.729 -2.33163 -2.59685 0
M  V30 4968 C 474.077 -2.70809 -3.27028 0
M  V30 4969 O 475.101 -2.32355 -2.69981 0
M  V30 4970 O 473.96 -3.37066 -4.30173 0
M  V30 4971 H 471.054 -0.481617 -0.67229 0
M  V30 4972 H 473.6 -1.49318 -0.806368 0
M  V30 4973 H 472.372 -3.27273 -2.14494 0
M  V30 4974 H 471.995 -2.08713 -3.38415 0
M  V30 4975 N 472.992 0.995999 -1.22138 0
M  V30 4976 C 474.217 1.77601 -1.0711 0
M  V30 4977 C 474.642 1.84339 0.374264 0
M  V30 4978 O 474 1.29359 1.27028 0
M  V30 4979 C 474.048 3.18897 -1.68336 0
M  V30 4980 O 473.152 4.01663 -0.934928 0
M  V30 4981 H 472.493 0.547011 -0.376397 0
M  V30 4982 H 475.023 1.25137 -1.6187 0
M  V30 4983 H 475.033 3.69539 -1.72931 0
M  V30 4984 H 473.708 3.13308 -2.73516 0
M  V30 4985 H 472.285 3.60204 -0.964751 0
M  V30 4986 N 474.47 1.03057 1.19235 0
M  V30 4987 C 475.4 0.633497 2.24742 0
M  V30 4988 C 476.381 -0.358335 1.66283 0
M  V30 4989 O 477.566 -0.240676 1.92703 0
M  V30 4990 C 474.696 -0.0147648 3.47297 0
M  V30 4991 C 473.65 0.899527 4.18441 0
M  V30 4992 C 472.976 0.116281 5.34574 0
M  V30 4993 C 474.276 2.21404 4.73051 0
M  V30 4994 H 475.97 1.5155 2.58211 0
M  V30 4995 H 473.516 0.73014 1.24117 0
M  V30 4996 H 475.469 -0.304202 4.20301 0
M  V30 4997 H 474.193 -0.931577 3.13032 0
M  V30 4998 H 472.852 1.17319 3.47321 0
M  V30 4999 H 472.5 -0.802619 4.96555 0
M  V30 5000 H 472.2 0.725293 5.83107 0
M  V30 5001 H 473.724 -0.166376 6.10373 0
M  V30 5002 H 475.138 1.98601 5.37802 0
M  V30 5003 H 473.535 2.77512 5.32078 0
M  V30 5004 H 474.605 2.86752 3.91026 0
M  V30 5005 N 475.948 -1.35272 0.808662 0
M  V30 5006 C 477.195 -1.98709 0.390003 0
M  V30 5007 C 477.523 -1.64148 -1.04335 0
M  V30 5008 O 476.778 -0.897797 -1.73891 0
M  V30 5009 C 477.077 -3.53556 0.522798 0
M  V30 5010 C 476.743 -4.0799 1.91977 0
M  V30 5011 C 475.405 -4.22568 2.30195 0
M  V30 5012 C 477.757 -4.37442 2.83361 0
M  V30 5013 C 475.085 -4.63918 3.59162 0
M  V30 5014 C 477.437 -4.80232 4.11776 0
M  V30 5015 C 476.101 -4.93016 4.49991 0
M  V30 5016 H 475.371 -0.727127 0.142712 0
M  V30 5017 H 478.018 -1.6145 1.02985 0
M  V30 5018 H 476.323 -3.91287 -0.200494 0
M  V30 5019 H 478.02 -4.00598 0.179608 0
M  V30 5020 H 474.61 -3.97096 1.61284 0
M  V30 5021 H 478.794 -4.25731 2.55083 0
M  V30 5022 H 474.05 -4.72005 3.88615 0
M  V30 5023 H 478.224 -5.01982 4.82687 0
M  V30 5024 H 475.851 -5.24814 5.49976 0
M  V30 5025 N 477.426 -0.562348 -1.47226 0
M  V30 5026 C 478.374 0.195476 -2.31777 0
M  V30 5027 C 479.368 0.90433 -1.43242 0
M  V30 5028 O 480.574 0.825031 -1.59979 0
M  V30 5029 H 476.949 0.0819095 -0.747526 0
M  V30 5030 H 478.92 -0.536753 -2.93533 0
M  V30 5031 C 477.669 1.20902 -3.26003 0
M  V30 5032 H 476.992 0.672997 -3.94095 0
M  V30 5033 H 478.432 1.71006 -3.87986 0
M  V30 5034 C 476.891 2.25955 -2.49891 0
M  V30 5035 O 477.421 3.32969 -2.2471 0
M  V30 5036 N 475.627 2.00019 -2.1081 0
M  V30 5037 H 475.174 1.13006 -2.31489 0
M  V30 5038 H 475.132 2.70523 -1.60201 0
M  V30 5039 N 478.904 1.54736 -0.299062 0
M  V30 5040 C 480.132 2.04512 0.313447 0
M  V30 5041 C 480.547 1.17643 1.47667 0
M  V30 5042 O 479.904 0.20164 1.81383 0
M  V30 5043 C 479.955 3.53171 0.771542 0
M  V30 5044 O 479.676 4.36736 -0.345379 0
M  V30 5045 C 481.177 4.18936 1.4494 0
M  V30 5046 H 478.397 0.667507 0.0683784 0
M  V30 5047 H 480.941 1.99752 -0.438129 0
M  V30 5048 H 479.096 3.58298 1.47314 0
M  V30 5049 H 479.51 5.24499 0.0109219 0
M  V30 5050 H 480.984 5.24482 1.72111 0
M  V30 5051 H 481.461 3.68554 2.38883 0
M  V30 5052 H 482.067 4.17879 0.791028 0
M  V30 5053 N 480.382 0.0267497 1.57577 0
M  V30 5054 C 481.628 -0.653371 1.91987 0
M  V30 5055 C 481.961 -1.71915 0.903263 0
M  V30 5056 O 481.236 -1.94358 -0.0743387 0
M  V30 5057 C 481.519 -1.272 3.36886 0
M  V30 5058 C 481.372 -0.215938 4.49281 0
M  V30 5059 C 482.691 -2.19069 3.81703 0
M  V30 5060 H 479.81 -0.236047 0.698177 0
M  V30 5061 H 482.452 0.0835236 1.89816 0
M  V30 5062 H 480.602 -1.90005 3.38866 0
M  V30 5063 H 482.274 0.41449 4.59434 0
M  V30 5064 H 480.517 0.458855 4.31366 0
M  V30 5065 H 481.188 -0.688347 5.47691 0
M  V30 5066 H 483.664 -1.66253 3.81444 0
M  V30 5067 H 482.54 -2.59307 4.83788 0
M  V30 5068 H 482.801 -3.08087 3.17072 0
M  V30 5069 N 481.861 -1.55662 -0.24637 0
M  V30 5070 C 483.089 -1.81575 -0.991876 0
M  V30 5071 C 483.504 -0.602545 -1.78927 0
M  V30 5072 O 482.861 0.428795 -1.77391 0
M  V30 5073 C 482.912 -3.05711 -1.92933 0
M  V30 5074 O 482.633 -4.22348 -1.1642 0
M  V30 5075 C 484.134 -3.44428 -2.79078 0
M  V30 5076 H 481.354 -0.604209 -0.291844 0
M  V30 5077 H 483.898 -2.02722 -0.269095 0
M  V30 5078 H 482.053 -2.86612 -2.60638 0
M  V30 5079 H 482.467 -4.92706 -1.79835 0
M  V30 5080 H 483.941 -4.34388 -3.40603 0
M  V30 5081 H 484.418 -2.65037 -3.50217 0
M  V30 5082 H 485.024 -3.65879 -2.16824 0
M  V30 5083 N 483.339 0.512053 -1.4905 0
M  V30 5084 C 484.616 1.27337 -1.48474 0
M  V30 5085 C 484.996 2.1009 -0.206301 0
M  V30 5086 O 484.344 2.136 0.811609 0
M  V30 5087 C 484.554 2.13954 -2.75726 0
M  V30 5088 C 485.902 2.73507 -3.24776 0
M  V30 5089 O 486.926 2.24229 -2.76767 0
M  V30 5090 O 485.785 3.63186 -4.08361 0
M  V30 5091 H 482.879 0.575652 -0.593762 0
M  V30 5092 H 485.425 0.527232 -1.61302 0
M  V30 5093 H 484.197 1.52709 -3.60272 0
M  V30 5094 H 483.82 2.95782 -2.65705 0
M  V30 5095 N 484.817 1.37938 0.762283 0
M  V30 5096 C 485.764 1.34467 1.87583 0
M  V30 5097 C 486.734 0.208633 1.64785 0
M  V30 5098 O 487.919 0.399494 1.86571 0
M  V30 5099 C 485.059 1.16692 3.24772 0
M  V30 5100 C 484.172 2.39608 3.59461 0
M  V30 5101 C 483.307 2.14631 4.85908 0
M  V30 5102 C 482.346 3.33364 5.13357 0
M  V30 5103 N 481.483 3.07877 6.30996 0
M  V30 5104 H 486.323 2.29669 1.89885 0
M  V30 5105 H 483.86 1.14116 0.928219 0
M  V30 5106 H 485.818 1.04405 4.03925 0
M  V30 5107 H 484.448 0.251333 3.2182 0
M  V30 5108 H 483.5 2.626 2.75219 0
M  V30 5109 H 484.812 3.28128 3.75678 0
M  V30 5110 H 483.966 1.99429 5.72986 0
M  V30 5111 H 482.705 1.23463 4.71814 0
M  V30 5112 H 481.71 3.49094 4.24751 0
M  V30 5113 H 482.935 4.25395 5.29354 0
M  V30 5114 H 480.881 2.19348 6.18241 0
M  V30 5115 H 480.798 3.89944 6.47673 0
M  V30 5116 H 482.066 2.96313 7.20985 0
M  V30 5117 N 486.295 -0.989507 1.22664 0
M  V30 5118 C 487.242 -2.08024 0.999733 0
M  V30 5119 C 488.212 -1.65909 -0.0797047 0
M  V30 5120 O 489.397 -1.90669 0.0705715 0
M  V30 5121 C 486.537 -3.40067 0.587234 0
M  V30 5122 C 485.65 -3.95505 1.73781 0
M  V30 5123 C 484.785 -5.15722 1.27297 0
M  V30 5124 C 483.824 -5.63305 2.39488 0
M  V30 5125 N 482.961 -6.74758 1.94026 0
M  V30 5126 H 487.801 -2.26768 1.9334 0
M  V30 5127 H 485.338 -1.11171 0.963297 0
M  V30 5128 H 487.296 -4.15899 0.329227 0
M  V30 5129 H 485.926 -3.21314 -0.309426 0
M  V30 5130 H 484.978 -3.16513 2.11006 0
M  V30 5131 H 486.29 -4.26797 2.58158 0
M  V30 5132 H 485.444 -5.98854 0.972546 0
M  V30 5133 H 484.183 -4.86061 0.399445 0
M  V30 5134 H 483.188 -4.78759 2.70315 0
M  V30 5135 H 484.413 -5.94988 3.27362 0
M  V30 5136 H 482.359 -6.46874 1.09041 0
M  V30 5137 H 482.276 -7.05386 2.71968 0
M  V30 5138 H 483.544 -7.61387 1.67062 0
M  V30 5139 N 487.773 -1.03688 -1.18687 0
M  V30 5140 C 489.022 -0.733235 -1.879 0
M  V30 5141 C 489.335 0.741745 -1.8099 0
M  V30 5142 O 490.541 1.15875 -2.4553 0
M  V30 5143 C 488.997 -1.26127 -3.37076 0
M  V30 5144 C 488.605 -2.76461 -3.52524 0
M  V30 5145 C 490.349 -1.03398 -4.11715 0
M  V30 5146 C 488.256 -3.22642 -4.95637 0
M  V30 5147 H 487.186 -0.270584 -0.703776 0
M  V30 5148 H 489.837 -1.25222 -1.34133 0
M  V30 5149 H 488.219 -0.670165 -3.90288 0
M  V30 5150 H 489.393 -3.41296 -3.09602 0
M  V30 5151 H 487.708 -2.97559 -2.91286 0
M  V30 5152 H 490.305 -1.3542 -5.17267 0
M  V30 5153 H 490.648 0.0289246 -4.1629 0
M  V30 5154 H 491.181 -1.5895 -3.64664 0
M  V30 5155 H 487.92 -4.28296 -4.96228 0
M  V30 5156 H 487.44 -2.62539 -5.39289 0
M  V30 5157 H 489.119 -3.16444 -5.64333 0
M  V30 5158 N 489.251 1.34841 -0.815825 0
M  V30 5159 C 490.214 2.27959 -0.238185 0
M  V30 5160 C 491.214 1.49983 0.579816 0
M  V30 5161 O 492.404 1.69617 0.396953 0
M  V30 5162 C 489.536 3.34314 0.666876 0
M  V30 5163 H 490.729 2.80558 -1.05958 0
M  V30 5164 H 488.282 1.44852 -0.587156 0
M  V30 5165 H 489.017 2.86916 1.5116 0
M  V30 5166 H 488.802 3.92014 0.0819106 0
M  V30 5167 H 490.292 4.0379 1.06506 0
M  V30 5168 N 490.729 0.570148 1.46925 0
M  V30 5169 C 491.978 0.0487352 2.01641 0
M  V30 5170 C 492.291 -1.31433 1.44861 0
M  V30 5171 O 493.497 -1.92638 1.91318 0
M  V30 5172 C 491.953 0.0365817 3.59881 0
M  V30 5173 C 491.561 1.39719 4.25655 0
M  V30 5174 C 493.305 -0.431545 4.22301 0
M  V30 5175 C 491.212 1.34345 5.75939 0
M  V30 5176 H 490.142 0.0144492 0.753862 0
M  V30 5177 H 492.793 0.719928 1.68788 0
M  V30 5178 H 491.175 -0.700522 3.89755 0
M  V30 5179 H 492.349 2.15303 4.07408 0
M  V30 5180 H 490.664 1.80431 3.75278 0
M  V30 5181 H 493.261 -0.490354 5.32447 0
M  V30 5182 H 493.604 -1.44638 3.90366 0
M  V30 5183 H 494.137 0.251102 3.97007 0
M  V30 5184 H 490.876 2.33469 6.12513 0
M  V30 5185 H 490.396 0.629615 5.96486 0
M  V30 5186 H 492.075 1.051 6.38407 0
M  V30 5187 N 492.207 -1.54576 0.307264 0
M  V30 5188 C 493.137 -2.26708 -0.55907 0
M  V30 5189 C 494.118 -1.26893 -1.1328 0
M  V30 5190 O 495.303 -1.55677 -1.16097 0
M  V30 5191 C 492.433 -3.01259 -1.72801 0
M  V30 5192 C 491.387 -4.08275 -1.28435 0
M  V30 5193 C 490.713 -4.70575 -2.53895 0
M  V30 5194 C 492.013 -5.2068 -0.411038 0
M  V30 5195 H 493.707 -2.9937 0.042576 0
M  V30 5196 H 491.253 -1.43983 0.0219173 0
M  V30 5197 H 493.206 -3.50444 -2.34023 0
M  V30 5198 H 491.93 -2.26187 -2.356 0
M  V30 5199 H 490.589 -3.59949 -0.695161 0
M  V30 5200 H 490.237 -3.92136 -3.15021 0
M  V30 5201 H 489.937 -5.42854 -2.24908 0
M  V30 5202 H 491.461 -5.22527 -3.15908 0
M  V30 5203 H 492.875 -5.65721 -0.929097 0
M  V30 5204 H 491.272 -5.99716 -0.214664 0
M  V30 5205 H 492.342 -4.81629 0.562287 0
M  V30 5206 N 493.685 -0.035106 -1.57561 0
M  V30 5207 C 494.933 0.64096 -1.91667 0
M  V30 5208 C 495.254 1.72323 -0.912681 0
M  V30 5209 O 494.524 1.95849 0.0449089 0
M  V30 5210 H 493.104 0.239743 -0.707483 0
M  V30 5211 H 495.766 -0.084321 -1.94718 0
M  V30 5212 H 494.862 1.08987 -2.92452 0
M  V30 5213 N 495.163 1.55791 0.238111 0
M  V30 5214 C 496.41 1.78033 0.964907 0
M  V30 5215 C 496.738 0.600984 1.84982 0
M  V30 5216 O 495.993 -0.41536 1.91241 0
M  V30 5217 C 496.292 3.05869 1.84875 0
M  V30 5218 C 495.958 4.36808 1.11846 0
M  V30 5219 C 494.62 4.72388 0.916662 0
M  V30 5220 C 496.972 5.17717 0.60151 0
M  V30 5221 C 494.3 5.86406 0.185756 0
M  V30 5222 C 496.652 6.32494 -0.115972 0
M  V30 5223 C 495.316 6.66688 -0.329168 0
M  V30 5224 H 494.586 0.651469 0.353085 0
M  V30 5225 H 497.233 1.90061 0.234318 0
M  V30 5226 H 495.538 2.88891 2.64668 0
M  V30 5227 H 497.235 3.20278 2.41294 0
M  V30 5228 H 493.825 4.08862 1.28569 0
M  V30 5229 H 498.009 4.90678 0.744932 0
M  V30 5230 H 493.265 6.11399 0.0101886 0
M  V30 5231 H 497.439 6.94425 -0.524127 0
M  V30 5232 H 495.066 7.54884 -0.897474 0
M  V30 5233 N 496.642 -0.504142 1.49319 0
M  V30 5234 C 497.605 -1.5883 1.65244 0
M  V30 5235 C 498.605 -1.52009 0.524386 0
M  V30 5236 O 499.795 -1.55218 0.79077 0
M  V30 5237 C 496.927 -2.98481 1.64687 0
M  V30 5238 H 498.12 -1.4604 2.61939 0
M  V30 5239 H 495.673 -0.728144 1.38303 0
M  V30 5240 H 496.408 -3.16751 0.695644 0
M  V30 5241 H 496.193 -3.0484 2.46607 0
M  V30 5242 H 497.683 -3.77256 1.79075 0
M  V30 5243 N 498.12 -1.38341 -0.754957 0
M  V30 5244 C 499.367 -1.34473 -1.51404 0
M  V30 5245 C 499.695 0.0656458 -1.94389 0
M  V30 5246 O 498.95 1.04244 -1.65625 0
M  V30 5247 C 499.249 -2.2452 -2.78075 0
M  V30 5248 C 498.915 -3.72512 -2.54059 0
M  V30 5249 C 497.577 -4.1284 -2.47218 0
M  V30 5250 C 499.929 -4.66197 -2.33044 0
M  V30 5251 C 497.257 -5.44945 -2.17376 0
M  V30 5252 C 499.609 -5.98558 -2.04723 0
M  V30 5253 C 498.273 -6.37972 -1.96337 0
M  V30 5254 H 497.543 -0.492072 -0.554027 0
M  V30 5255 H 500.19 -1.70687 -0.868223 0
M  V30 5256 H 498.495 -1.81357 -3.473 0
M  V30 5257 H 500.192 -2.18832 -3.36026 0
M  V30 5258 H 496.782 -3.40538 -2.60253 0
M  V30 5259 H 500.966 -4.35888 -2.37309 0
M  V30 5260 H 496.222 -5.74426 -2.09391 0
M  V30 5261 H 500.396 -6.70693 -1.87465 0
M  V30 5262 H 498.023 -7.40258 -1.72978 0
M  V30 5263 N 499.598 0.982988 -1.23187 0
M  V30 5264 C 500.545 2.07491 -1.01075 0
M  V30 5265 C 501.515 1.65949 0.070905 0
M  V30 5266 O 502.7 1.90629 -0.0806822 0
M  V30 5267 C 499.84 3.39751 -0.605261 0
M  V30 5268 C 498.953 3.94578 -1.75876 0
M  V30 5269 C 498.088 5.15039 -1.3003 0
M  V30 5270 C 497.127 5.62027 -2.42472 0
M  V30 5271 N 496.264 6.73719 -1.97602 0
M  V30 5272 H 501.104 2.25739 -1.9454 0
M  V30 5273 H 498.641 1.10659 -0.969179 0
M  V30 5274 H 500.599 4.15719 -0.351279 0
M  V30 5275 H 499.229 3.21473 0.292382 0
M  V30 5276 H 498.281 3.1539 -2.12681 0
M  V30 5277 H 499.593 4.25422 -2.60418 0
M  V30 5278 H 498.747 5.9833 -1.00429 0
M  V30 5279 H 497.486 4.85843 -0.425216 0
M  V30 5280 H 496.491 4.77318 -2.7285 0
M  V30 5281 H 497.716 5.93244 -3.30512 0
M  V30 5282 H 495.662 6.46287 -1.1247 0
M  V30 5283 H 495.579 7.03934 -2.75705 0
M  V30 5284 H 496.847 7.6049 -1.71098 0
M  V30 5285 N 501.076 1.04316 1.18135 0
M  V30 5286 C 502.023 0.636398 2.21853 0
M  V30 5287 C 502.993 -0.357039 1.62217 0
M  V30 5288 O 504.178 -0.250453 1.89149 0
M  V30 5289 C 501.318 0.00812779 3.45099 0
M  V30 5290 C 500.431 1.04933 4.19062 0
M  V30 5291 C 499.566 0.389313 5.29771 0
M  V30 5292 C 498.605 1.41544 5.9551 0
M  V30 5293 N 497.742 0.78021 6.97751 0
M  V30 5294 H 502.582 1.52536 2.56002 0
M  V30 5295 H 500.119 0.76304 1.25762 0
M  V30 5296 H 502.077 -0.373497 4.15525 0
M  V30 5297 H 500.707 -0.844336 3.11562 0
M  V30 5298 H 499.759 1.54888 3.47439 0
M  V30 5299 H 501.071 1.82862 4.64072 0
M  V30 5300 H 500.225 -0.0463805 6.06682 0
M  V30 5301 H 498.964 -0.422038 4.8587 0
M  V30 5302 H 497.969 1.86124 5.17337 0
M  V30 5303 H 499.194 2.22854 6.41493 0
M  V30 5304 H 497.14 -0.0107899 6.55999 0
M  V30 5305 H 497.057 1.49716 7.41027 0
M  V30 5306 H 498.325 0.368996 7.78626 0
M  V30 5307 N 502.554 -1.34406 0.822964 0
M  V30 5308 C 503.831 -1.92733 0.333641 0
M  V30 5309 C 504.211 -1.75107 -1.17901 0
M  V30 5310 O 503.559 -1.12983 -1.98613 0
M  V30 5311 C 503.769 -3.40557 0.763023 0
M  V30 5312 C 505.117 -4.17709 0.761879 0
M  V30 5313 O 506.141 -3.49141 0.705606 0
M  V30 5314 O 505 -5.40082 0.835109 0
M  V30 5315 H 502.094 -0.821964 0.0911249 0
M  V30 5316 H 504.64 -1.4338 0.907757 0
M  V30 5317 H 503.412 -3.47187 1.8049 0
M  V30 5318 H 503.035 -3.97259 0.164605 0
M  V30 5319 N 504.032 -0.577932 -1.46621 0
M  V30 5320 C 505.26 -0.0671642 -2.06791 0
M  V30 5321 C 505.675 1.23571 -1.42743 0
M  V30 5322 O 505.032 1.74602 -0.531062 0
M  V30 5323 C 505.083 0.110357 -3.61332 0
M  V30 5324 O 504.804 -1.14095 -4.22982 0
M  V30 5325 C 506.305 0.656025 -4.38419 0
M  V30 5326 H 503.525 -0.0552732 -0.66872 0
M  V30 5327 H 506.069 -0.797242 -1.8832 0
M  V30 5328 H 504.224 0.790637 -3.79246 0
M  V30 5329 H 504.638 -0.951742 -5.15793 0
M  V30 5330 H 506.112 0.729438 -5.47159 0
M  V30 5331 H 506.589 1.67195 -4.06131 0
M  V30 5332 H 507.195 0.0107692 -4.25299 0
M  V30 5333 N 505.51 1.54411 -0.315457 0
M  V30 5334 C 506.758 2.00023 0.288971 0
M  V30 5335 C 507.079 1.20529 1.5329 0
M  V30 5336 O 506.349 0.304986 1.93511 0
M  V30 5337 H 504.929 0.738891 0.109766 0
M  V30 5338 H 507.591 1.90094 -0.430129 0
M  V30 5339 H 506.687 3.07198 0.550999 0
M  V30 5340 N 506.988 0.0434614 1.5754 0
M  V30 5341 C 508.265 -0.671479 1.83713 0
M  V30 5342 C 508.645 -1.89495 0.930315 0
M  V30 5343 O 507.993 -2.28498 -0.0105639 0
M  V30 5344 C 508.203 -1.0361 3.33266 0
M  V30 5345 C 509.551 -1.42167 4.00092 0
M  V30 5346 O 510.575 -1.12866 3.37846 0
M  V30 5347 O 509.434 -1.96817 5.09829 0
M  V30 5348 H 506.528 -0.330726 0.75799 0
M  V30 5349 H 509.074 0.0722373 1.69546 0
M  V30 5350 H 507.846 -0.165938 3.90948 0
M  V30 5351 H 507.469 -1.83751 3.52592 0
M  V30 5352 N 508.466 -1.55915 -0.229846 0
M  V30 5353 C 509.694 -1.82617 -0.972562 0
M  V30 5354 C 510.109 -0.621488 -1.78278 0
M  V30 5355 O 509.466 0.409956 -1.77836 0
M  V30 5356 C 509.517 -3.0774 -1.89679 0
M  V30 5357 O 509.238 -4.23559 -1.11934 0
M  V30 5358 C 510.739 -3.47368 -2.75409 0
M  V30 5359 H 507.959 -0.60727 -0.285419 0
M  V30 5360 H 510.503 -2.02996 -0.247579 0
M  V30 5361 H 508.658 -2.89361 -2.57583 0
M  V30 5362 H 509.072 -4.94586 -1.74599 0
M  V30 5363 H 510.546 -4.37977 -3.35977 0
M  V30 5364 H 511.023 -2.68737 -3.47386 0
M  V30 5365 H 511.629 -3.68158 -2.12931 0
M  V30 5366 N 509.944 0.496216 -1.49584 0
M  V30 5367 C 511.36 0.827814 -1.36453 0
M  V30 5368 C 511.56 1.97464 -0.401285 0
M  V30 5369 O 510.616 2.51958 0.165296 0
M  V30 5370 C 511.929 1.16352 -2.77277 0
M  V30 5371 C 513.477 1.27145 -2.86013 0
M  V30 5372 C 513.952 1.64042 -4.27615 0
M  V30 5373 N 515.443 1.71082 -4.30448 0
M  V30 5374 C 516.178 2.01085 -5.36984 0
M  V30 5375 N 515.674 2.2928 -6.5376 0
M  V30 5376 N 517.467 2.02376 -5.24405 0
M  V30 5377 H 509.618 -0.259947 -2.10803 0
M  V30 5378 H 511.881 -0.0537163 -0.946477 0
M  V30 5379 H 511.587 0.394153 -3.49484 0
M  V30 5380 H 511.461 2.10582 -3.12946 0
M  V30 5381 H 513.848 2.03152 -2.1404 0
M  V30 5382 H 513.929 0.309542 -2.5392 0
M  V30 5383 H 513.573 0.88583 -5.00115 0
M  V30 5384 H 513.503 2.6134 -4.57175 0
M  V30 5385 H 515.994 1.51434 -3.46232 0
M  V30 5386 H 516.307 2.51376 -7.30774 0
M  V30 5387 H 514.652 2.26726 -6.56978 0
M  V30 5388 H 517.843 1.79829 -4.32179 0
M  V30 5389 H 518.016 2.25425 -6.07526 0
M  V30 5390 N 511.423 1.38739 0.74761 0
M  V30 5391 C 512.333 1.38696 1.89211 0
M  V30 5392 C 513.349 0.283303 1.71678 0
M  V30 5393 O 514.525 0.522713 1.94498 0
M  V30 5394 C 511.59 1.21662 3.24653 0
M  V30 5395 C 510.651 2.41886 3.54669 0
M  V30 5396 C 509.884 2.25655 4.83648 0
M  V30 5397 O 510.107 1.25339 5.56459 0
M  V30 5398 O 509.041 3.14372 5.13277 0
M  V30 5399 H 512.867 2.35143 1.92202 0
M  V30 5400 H 510.452 1.19721 0.893708 0
M  V30 5401 H 512.334 1.14246 4.05618 0
M  V30 5402 H 511.009 0.283024 3.2246 0
M  V30 5403 H 509.916 2.54877 2.73841 0
M  V30 5404 H 511.249 3.33895 3.61628 0
M  V30 5405 N 512.901 -0.976442 1.23707 0
M  V30 5406 C 514.126 -1.75875 1.09922 0
M  V30 5407 C 514.551 -1.84911 -0.34489 0
M  V30 5408 O 513.909 -1.31363 -1.24954 0
M  V30 5409 C 513.957 -3.16179 1.73388 0
M  V30 5410 O 513.061 -4.00124 0.99871 0
M  V30 5411 H 512.402 -0.540954 0.385052 0
M  V30 5412 H 514.932 -1.22546 1.6384 0
M  V30 5413 H 514.942 -3.66741 1.78788 0
M  V30 5414 H 513.617 -3.08917 2.78466 0
M  V30 5415 H 512.194 -3.58624 1.02193 0
M  V30 5416 N 514.379 -1.04941 -1.1758 0
M  V30 5417 C 515.604 -0.778253 -1.92245 0
M  V30 5418 C 516.029 0.659707 -1.76152 0
M  V30 5419 O 515.387 1.45803 -1.07755 0
M  V30 5420 C 515.435 -1.16051 -3.41416 0
M  V30 5421 O 514.539 -0.291153 -4.11371 0
M  V30 5422 H 513.88 -0.285619 -0.599431 0
M  V30 5423 H 516.41 -1.40159 -1.49052 0
M  V30 5424 H 516.42 -1.12619 -3.92149 0
M  V30 5425 H 515.095 -2.208 -3.52449 0
M  V30 5426 H 513.672 -0.385851 -3.70898 0
M  V30 5427 N 515.857 1.33968 -0.830081 0
M  V30 5428 C 517.082 2.02813 -0.433796 0
M  V30 5429 C 517.507 1.62076 0.954614 0
M  V30 5430 O 516.865 0.808955 1.62252 0
M  V30 5431 C 516.913 3.56348 -0.552115 0
M  V30 5432 O 516.017 4.10202 0.425191 0
M  V30 5433 H 515.358 0.639817 -0.177567 0
M  V30 5434 H 517.888 1.7106 -1.12248 0
M  V30 5435 H 517.898 4.05722 -0.430513 0
M  V30 5436 H 516.573 3.85344 -1.56471 0
M  V30 5437 H 515.15 3.71979 0.261878 0
M  V30 5438 N 517.335 0.585699 1.46312 0
M  V30 5439 C 518.584 0.0701192 2.01578 0
M  V30 5440 C 518.897 -1.29889 1.46247 0
M  V30 5441 O 520.103 -1.90598 1.93351 0
M  V30 5442 C 518.559 0.0747499 3.59822 0
M  V30 5443 C 518.167 1.44226 4.24149 0
M  V30 5444 C 519.911 -0.38673 4.22735 0
M  V30 5445 C 517.818 1.40446 5.74481 0
M  V30 5446 H 516.748 0.0224441 0.753666 0
M  V30 5447 H 519.399 0.737789 1.68015 0
M  V30 5448 H 517.781 -0.659144 3.90476 0
M  V30 5449 H 518.955 2.19612 4.05101 0
M  V30 5450 H 517.27 1.84401 3.73343 0
M  V30 5451 H 519.867 -0.433853 5.32937 0
M  V30 5452 H 520.21 -1.40489 3.91878 0
M  V30 5453 H 520.743 0.293195 3.96718 0
M  V30 5454 H 517.482 2.39952 6.10003 0
M  V30 5455 H 517.002 0.692845 5.95785 0
M  V30 5456 H 518.681 1.11865 6.37256 0
M  V30 5457 N 518.813 -1.54241 0.323641 0
M  V30 5458 C 520.043 -2.04687 -0.280464 0
M  V30 5459 C 520.451 -1.19939 -1.46326 0
M  V30 5460 O 519.794 -0.222872 -1.82343 0
M  V30 5461 C 519.856 -3.50978 -0.778123 0
M  V30 5462 C 519.52 -4.56127 0.282371 0
M  V30 5463 C 520.517 -5.07726 1.11847 0
M  V30 5464 C 518.202 -5.00451 0.430582 0
M  V30 5465 C 520.196 -6.02212 2.08851 0
M  V30 5466 C 517.883 -5.94752 1.40404 0
M  V30 5467 C 518.881 -6.45519 2.23147 0
M  V30 5468 O 518.569 -7.37968 3.1884 0
M  V30 5469 H 518.301 -0.673192 -0.0615473 0
M  V30 5470 H 520.855 -1.99999 0.467921 0
M  V30 5471 H 519.085 -3.53064 -1.57742 0
M  V30 5472 H 520.774 -3.84499 -1.30058 0
M  V30 5473 H 521.54 -4.74261 1.01496 0
M  V30 5474 H 517.419 -4.6055 -0.203569 0
M  V30 5475 H 520.963 -6.41761 2.73474 0
M  V30 5476 H 516.86 -6.27633 1.5082 0
M  V30 5477 H 517.628 -7.55841 3.14079 0
M  V30 5478 N 520.291 -0.0518155 -1.57515 0
M  V30 5479 C 521.54 0.621286 -1.91893 0
M  V30 5480 C 521.853 1.71966 -0.932052 0
M  V30 5481 O 523.059 2.45096 -1.16791 0
M  V30 5482 C 521.515 1.15641 -3.40816 0
M  V30 5483 C 521.123 0.0901146 -4.47909 0
M  V30 5484 C 522.867 1.80472 -3.84227 0
M  V30 5485 C 520.774 0.638154 -5.87947 0
M  V30 5486 H 519.704 0.235835 -0.716169 0
M  V30 5487 H 522.355 -0.120809 -1.83102 0
M  V30 5488 H 520.737 1.95084 -3.44613 0
M  V30 5489 H 521.911 -0.683525 -4.55702 0
M  V30 5490 H 520.226 -0.460774 -4.13843 0
M  V30 5491 H 522.823 2.22471 -4.86221 0
M  V30 5492 H 523.166 2.65669 -3.20508 0
M  V30 5493 H 523.699 1.07683 -3.82948 0
M  V30 5494 H 520.438 -0.176202 -6.55263 0
M  V30 5495 H 519.958 1.37976 -5.83714 0
M  V30 5496 H 521.637 1.12085 -6.37217 0
M  V30 5497 N 521.769 1.56035 0.221574 0
M  V30 5498 C 522.994 1.83476 0.967026 0
M  V30 5499 C 523.419 0.632139 1.7716 0
M  V30 5500 O 522.777 -0.419082 1.7639 0
M  V30 5501 C 522.825 3.08907 1.86034 0
M  V30 5502 O 521.929 2.876 2.95567 0
M  V30 5503 H 521.27 0.604913 0.273817 0
M  V30 5504 H 523.8 2.03247 0.234893 0
M  V30 5505 H 523.81 3.3901 2.27016 0
M  V30 5506 H 522.485 3.96068 1.26898 0
M  V30 5507 H 521.062 2.6873 2.58532 0
M  V30 5508 N 523.247 -0.488276 1.49845 0
M  V30 5509 C 524.194 -1.58836 1.67451 0
M  V30 5510 C 525.164 -1.57886 0.515857 0
M  V30 5511 O 526.349 -1.75679 0.744403 0
M  V30 5512 C 523.489 -2.96915 1.75885 0
M  V30 5513 C 522.602 -3.07784 3.03138 0
M  V30 5514 C 521.737 -4.36673 3.02473 0
M  V30 5515 C 520.776 -4.41222 4.24252 0
M  V30 5516 N 519.913 -5.61557 4.21424 0
M  V30 5517 H 524.753 -1.43131 2.61376 0
M  V30 5518 H 522.29 -0.696186 1.29583 0
M  V30 5519 H 524.248 -3.76965 1.78755 0
M  V30 5520 H 522.878 -3.11295 0.85414 0
M  V30 5521 H 521.93 -2.20717 3.09819 0
M  V30 5522 H 523.242 -3.07005 3.93128 0
M  V30 5523 H 522.396 -5.25055 3.03977 0
M  V30 5524 H 521.135 -4.40037 2.10283 0
M  V30 5525 H 520.14 -3.5124 4.22978 0
M  V30 5526 H 521.365 -4.39564 5.17649 0
M  V30 5527 H 519.311 -5.65738 3.32078 0
M  V30 5528 H 519.228 -5.62447 5.05163 0
M  V30 5529 H 520.496 -6.52111 4.2705 0
M  V30 5530 N 524.725 -1.39134 -0.740242 0
M  V30 5531 C 525.955 -1.39132 -1.52728 0
M  V30 5532 C 526.363 0.0173133 -1.89192 0
M  V30 5533 O 525.706 0.997715 -1.54244 0
M  V30 5534 C 525.768 -2.1952 -2.84695 0
M  V30 5535 C 525.432 -3.68203 -2.70695 0
M  V30 5536 C 526.429 -4.61401 -2.39593 0
M  V30 5537 C 524.114 -4.11724 -2.8773 0
M  V30 5538 C 526.108 -5.96102 -2.25701 0
M  V30 5539 C 523.795 -5.46503 -2.73456 0
M  V30 5540 C 524.793 -6.38506 -2.42486 0
M  V30 5541 O 524.481 -7.70803 -2.28295 0
M  V30 5542 H 524.213 -0.477263 -0.478744 0
M  V30 5543 H 526.767 -1.83504 -0.922799 0
M  V30 5544 H 524.997 -1.69888 -3.47383 0
M  V30 5545 H 526.686 -2.1176 -3.46284 0
M  V30 5546 H 527.452 -4.29079 -2.26088 0
M  V30 5547 H 523.331 -3.4045 -3.10829 0
M  V30 5548 H 526.875 -6.6788 -2.0145 0
M  V30 5549 H 522.772 -5.78417 -2.86538 0
M  V30 5550 H 523.54 -7.8147 -2.43405 0
M  V30 5551 N 526.204 0.969867 -1.24223 0
M  V30 5552 C 527.134 2.08191 -1.05729 0
M  V30 5553 C 528.115 1.70075 0.0290765 0
M  V30 5554 O 529.3 1.93712 -0.137583 0
M  V30 5555 C 526.43 3.40991 -0.658995 0
M  V30 5556 C 525.384 3.93054 -1.69389 0
M  V30 5557 C 524.71 5.22171 -1.15072 0
M  V30 5558 C 526.01 4.21137 -3.08935 0
M  V30 5559 H 527.704 2.23921 -1.98746 0
M  V30 5560 H 525.25 1.07602 -0.956967 0
M  V30 5561 H 527.203 4.18221 -0.51662 0
M  V30 5562 H 525.927 3.25155 0.30686 0
M  V30 5563 H 524.586 3.17977 -1.82444 0
M  V30 5564 H 524.234 5.02694 -0.175539 0
M  V30 5565 H 523.934 5.57973 -1.84229 0
M  V30 5566 H 525.458 6.02013 -1.02042 0
M  V30 5567 H 526.872 4.8908 -2.99121 0
M  V30 5568 H 525.269 4.68163 -3.75425 0
M  V30 5569 H 526.339 3.27996 -3.57137 0
M  V30 5570 N 527.682 1.05563 1.17022 0
M  V30 5571 C 528.615 0.604197 2.20056 0
M  V30 5572 C 529.593 -0.369169 1.58354 0
M  V30 5573 O 530.777 -0.279898 1.8641 0
M  V30 5574 C 527.904 -0.115265 3.38504 0
M  V30 5575 C 526.95 0.813698 4.18666 0
M  V30 5576 S 527.783 2.30492 4.83357 0
M  V30 5577 C 528.939 1.59674 6.0519 0
M  V30 5578 H 529.172 1.47713 2.58008 0
M  V30 5579 H 526.705 0.867932 1.27696 0
M  V30 5580 H 528.663 -0.524162 4.0714 0
M  V30 5581 H 527.324 -0.964284 2.98932 0
M  V30 5582 H 526.517 0.256736 5.03346 0
M  V30 5583 H 526.119 1.16213 3.55486 0
M  V30 5584 H 528.411 0.898164 6.7152 0
M  V30 5585 H 529.354 2.42115 6.65422 0
M  V30 5586 H 529.762 1.08252 5.54023 0
M  V30 5587 N 529.16 -1.33526 0.837174 0
M  V30 5588 C 530.437 -1.92369 0.354065 0
M  V30 5589 C 530.817 -1.76348 -1.16038 0
M  V30 5590 O 530.165 -1.15083 -1.97403 0
M  V30 5591 C 530.375 -3.39728 0.799101 0
M  V30 5592 C 531.723 -4.16877 0.806139 0
M  V30 5593 O 532.747 -3.48373 0.742597 0
M  V30 5594 O 531.606 -5.39166 0.892345 0
M  V30 5595 H 528.7 -0.820952 0.0998378 0
M  V30 5596 H 531.246 -1.42409 0.922913 0
M  V30 5597 H 530.018 -3.45254 1.84162 0
M  V30 5598 H 529.641 -3.97062 0.206731 0
M  V30 5599 N 530.638 -0.59345 -1.46 0
M  V30 5600 C 531.548 0.135817 -2.34207 0
M  V30 5601 C 532.564 0.875008 -1.50398 0
M  V30 5602 O 533.74 0.835778 -1.83239 0
M  V30 5603 C 530.805 1.12977 -3.27776 0
M  V30 5604 C 529.866 0.394081 -4.27487 0
M  V30 5605 C 529.099 1.34068 -5.16586 0
M  V30 5606 O 529.322 2.5778 -5.08828 0
M  V30 5607 O 528.256 0.845426 -5.95933 0
M  V30 5608 H 532.082 -0.588691 -2.9794 0
M  V30 5609 H 529.667 -0.353784 -1.45151 0
M  V30 5610 H 531.549 1.70261 -3.85473 0
M  V30 5611 H 530.224 1.83556 -2.66625 0
M  V30 5612 H 529.131 -0.220869 -3.73447 0
M  V30 5613 H 530.464 -0.270939 -4.91454 0
M  V30 5614 N 532.116 1.54067 -0.331816 0
M  V30 5615 C 533.364 2.00319 0.267739 0
M  V30 5616 C 533.685 1.22148 1.52003 0
M  V30 5617 O 532.955 0.325494 1.93177 0
M  V30 5618 H 531.535 0.740014 0.101922 0
M  V30 5619 H 534.197 1.89628 -0.450267 0
M  V30 5620 H 533.293 3.07765 0.518385 0
M  V30 5621 N 533.594 0.0601682 1.57485 0
M  V30 5622 C 534.557 -0.896373 2.10945 0
M  V30 5623 C 535.557 -1.23402 1.03095 0
M  V30 5624 O 536.747 -1.16921 1.29132 0
M  V30 5625 C 533.879 -2.20346 2.60116 0
M  V30 5626 H 535.072 -0.432778 2.96761 0
M  V30 5627 H 532.625 -0.188372 1.55161 0
M  V30 5628 H 533.36 -2.71268 1.7772 0
M  V30 5629 H 533.145 -1.9714 3.38937 0
M  V30 5630 H 534.635 -2.88846 3.01592 0
M  V30 5631 N 535.072 -1.5615 -0.213296 0
M  V30 5632 C 536.022 -1.89485 -1.26804 0
M  V30 5633 C 537.006 -0.758713 -1.41889 0
M  V30 5634 O 538.198 -1.02127 -1.44565 0
M  V30 5635 C 535.327 -2.22219 -2.61675 0
M  V30 5636 C 534.413 -3.42245 -2.50458 0
M  V30 5637 N 534.804 -4.60645 -2.089 0
M  V30 5638 C 533.102 -3.46023 -2.81397 0
M  V30 5639 C 533.803 -5.42805 -2.09135 0
M  V30 5640 N 532.779 -4.82732 -2.49941 0
M  V30 5641 H 536.581 -2.78537 -0.937771 0
M  V30 5642 H 534.095 -1.56826 -0.421824 0
M  V30 5643 H 536.092 -2.44278 -3.37837 0
M  V30 5644 H 534.752 -1.34484 -2.95541 0
M  V30 5645 H 535.763 -4.85651 -1.79899 0
M  V30 5646 H 532.44 -2.68654 -3.1958 0
M  V30 5647 H 533.83 -6.47601 -1.79059 0
M  V30 5648 N 536.55 0.480323 -1.50102 0
M  V30 5649 C 537.48 1.58769 -1.71215 0
M  V30 5650 C 538.461 1.60583 -0.560997 0
M  V30 5651 O 539.646 1.76996 -0.799127 0
M  V30 5652 C 536.776 2.97148 -1.79778 0
M  V30 5653 C 535.73 3.10201 -2.94888 0
M  V30 5654 C 535.056 4.50137 -2.88584 0
M  V30 5655 C 536.356 2.88283 -4.35534 0
M  V30 5656 H 538.05 1.41354 -2.6393 0
M  V30 5657 H 535.596 0.678591 -1.27008 0
M  V30 5658 H 537.549 3.74536 -1.93133 0
M  V30 5659 H 536.273 3.15699 -0.836772 0
M  V30 5660 H 534.932 2.35244 -2.81169 0
M  V30 5661 H 534.58 4.65593 -1.90349 0
M  V30 5662 H 534.28 4.59808 -3.65856 0
M  V30 5663 H 535.804 5.29558 -3.03976 0
M  V30 5664 H 537.218 3.55427 -4.49827 0
M  V30 5665 H 535.615 3.09408 -5.14186 0
M  V30 5666 H 536.685 1.84219 -4.48544 0
M  V30 5667 N 538.028 1.39524 0.732853 0
M  V30 5668 C 538.978 1.34905 1.83806 0
M  V30 5669 C 539.962 0.229546 1.59254 0
M  V30 5670 O 541.154 0.467255 1.70721 0
M  V30 5671 C 538.283 1.19699 3.21756 0
M  V30 5672 C 537.369 2.36359 3.5213 0
M  V30 5673 N 537.76 3.61834 3.53426 0
M  V30 5674 C 536.058 2.29363 3.82503 0
M  V30 5675 C 536.759 4.38992 3.81655 0
M  V30 5676 N 535.735 3.68606 3.99538 0
M  V30 5677 H 539.537 2.29882 1.83116 0
M  V30 5678 H 537.051 1.33051 0.931194 0
M  V30 5679 H 539.048 1.14472 4.00876 0
M  V30 5680 H 537.708 0.256739 3.23683 0
M  V30 5681 H 538.719 3.95228 3.34686 0
M  V30 5682 H 535.396 1.43612 3.92023 0
M  V30 5683 H 536.786 5.47763 3.89108 0
M  V30 5684 N 539.506 -0.963266 1.24736 0
M  V30 5685 C 540.755 -1.70115 1.08369 0
M  V30 5686 C 541.068 -1.91939 -0.376688 0
M  V30 5687 O 542.274 -2.6334 -0.660624 0
M  V30 5688 C 540.73 -3.06218 1.89099 0
M  V30 5689 C 540.338 -2.92221 3.39574 0
M  V30 5690 C 542.082 -3.83848 1.81275 0
M  V30 5691 C 539.989 -4.23662 4.12631 0
M  V30 5692 H 538.919 -0.637944 0.401924 0
M  V30 5693 H 541.57 -1.07304 1.48856 0
M  V30 5694 H 539.952 -3.69884 1.41429 0
M  V30 5695 H 541.126 -2.37541 3.94856 0
M  V30 5696 H 539.441 -2.28054 3.48397 0
M  V30 5697 H 542.038 -4.81188 2.33158 0
M  V30 5698 H 542.381 -4.08949 0.778895 0
M  V30 5699 H 542.914 -3.26918 2.26649 0
M  V30 5700 H 539.653 -4.03753 5.16395 0
M  V30 5701 H 539.173 -4.78141 3.62135 0
M  V30 5702 H 540.852 -4.92256 4.19873 0
M  V30 5703 N 540.985 -1.06182 -1.16461 0
M  V30 5704 C 542.215 -0.797425 -1.9059 0
M  V30 5705 C 542.623 0.651845 -1.77616 0
M  V30 5706 O 541.966 1.45788 -1.11766 0
M  V30 5707 C 542.028 -1.11128 -3.41893 0
M  V30 5708 C 541.692 -2.55874 -3.78652 0
M  V30 5709 C 542.689 -3.54104 -3.80665 0
M  V30 5710 C 540.374 -2.91144 -4.09317 0
M  V30 5711 C 542.368 -4.85645 -4.12829 0
M  V30 5712 C 540.055 -4.22885 -4.41148 0
M  V30 5713 C 541.053 -5.19945 -4.42883 0
M  V30 5714 O 540.741 -6.49322 -4.73959 0
M  V30 5715 H 540.473 -0.288709 -0.611247 0
M  V30 5716 H 543.027 -1.41841 -1.4856 0
M  V30 5717 H 541.257 -0.433217 -3.84266 0
M  V30 5718 H 542.946 -0.831306 -3.97296 0
M  V30 5719 H 543.712 -3.28197 -3.57088 0
M  V30 5720 H 539.591 -2.16252 -4.07131 0
M  V30 5721 H 543.135 -5.61398 -4.14099 0
M  V30 5722 H 539.032 -4.48551 -4.6419 0
M  V30 5723 H 539.8 -6.54294 -4.91774 0
M  V30 5724 N 542.463 1.3308 -0.844243 0
M  V30 5725 C 543.74 1.92178 -0.364261 0
M  V30 5726 C 544.12 1.76961 1.15101 0
M  V30 5727 O 543.468 1.16128 1.9679 0
M  V30 5728 C 543.678 3.393 -0.817106 0
M  V30 5729 C 545.026 4.16444 -0.828236 0
M  V30 5730 O 546.05 3.47975 -0.761062 0
M  V30 5731 O 544.909 5.38685 -0.920926 0
M  V30 5732 H 542.003 0.820411 -0.10419 0
M  V30 5733 H 544.549 1.41918 -0.930453 0
M  V30 5734 H 543.321 3.44272 -1.85991 0
M  V30 5735 H 542.944 3.96947 -0.227785 0
M  V30 5736 N 543.941 0.601185 1.45683 0
M  V30 5737 C 545.352 0.179659 1.85834 0
M  V30 5738 C 545.703 -1.26189 1.50236 0
M  V30 5739 O 544.828 -1.95587 0.925987 0
M  V30 5740 C 545.423 0.319277 3.37292 0
M  V30 5741 C 543.982 -0.0475092 3.7637 0
M  V30 5742 C 543.129 0.646692 2.69654 0
M  V30 5743 H 546.08 0.808268 1.36575 0
M  V30 5744 H 546.101 -0.4503 3.77826 0
M  V30 5745 H 545.613 1.36855 3.6317 0
M  V30 5746 H 543.714 -1.0962 3.5611 0
M  V30 5747 H 543.827 0.34168 4.7788 0
M  V30 5748 H 542.191 0.0849971 2.54558 0
M  V30 5749 H 542.974 1.69797 2.98369 0
M  V30 5750 N 545.419 -1.53889 0.339982 0
M  V30 5751 C 546.366 -2.24902 -0.518452 0
M  V30 5752 C 547.336 -1.24593 -1.09844 0
M  V30 5753 O 548.521 -1.53317 -1.13572 0
M  V30 5754 C 545.661 -3.02262 -1.66529 0
M  V30 5755 C 544.774 -4.17418 -1.11295 0
M  V30 5756 C 543.909 -4.82273 -2.2268 0
M  V30 5757 C 542.948 -5.89503 -1.6478 0
M  V30 5758 N 542.085 -6.48153 -2.69893 0
M  V30 5759 H 546.925 -2.97853 0.0936579 0
M  V30 5760 H 544.462 -1.46986 0.0579924 0
M  V30 5761 H 546.42 -3.45371 -2.3404 0
M  V30 5762 H 545.05 -2.31614 -2.24844 0
M  V30 5763 H 544.102 -3.78976 -0.328886 0
M  V30 5764 H 545.414 -4.94554 -0.649414 0
M  V30 5765 H 544.568 -5.28435 -2.98063 0
M  V30 5766 H 543.307 -4.04552 -2.72376 0
M  V30 5767 H 542.312 -5.42728 -0.879004 0
M  V30 5768 H 543.537 -6.6913 -1.1594 0
M  V30 5769 H 541.483 -5.73298 -3.1885 0
M  V30 5770 H 541.4 -7.20752 -2.28151 0
M  V30 5771 H 542.668 -6.98968 -3.45056 0
M  V30 5772 N 546.897 -0.0685191 -1.57451 0
M  V30 5773 C 548.143 0.602239 -1.93652 0
M  V30 5774 C 548.476 1.6946 -0.948526 0
M  V30 5775 O 547.751 1.94487 0.022782 0
M  V30 5776 C 548.034 1.18223 -3.4014 0
M  V30 5777 C 547.887 0.0967431 -4.49696 0
M  V30 5778 C 549.206 2.08872 -3.87377 0
M  V30 5779 H 546.325 0.217453 -0.70419 0
M  V30 5780 H 548.967 -0.133821 -1.89528 0
M  V30 5781 H 547.117 1.80953 -3.43785 0
M  V30 5782 H 548.789 -0.536155 -4.58174 0
M  V30 5783 H 547.032 -0.573063 -4.29998 0
M  V30 5784 H 547.703 0.542894 -5.49324 0
M  V30 5785 H 550.179 1.56081 -3.85717 0
M  V30 5786 H 549.055 2.46389 -4.90493 0
M  V30 5787 H 549.316 2.99572 -3.25129 0
M  V30 5788 N 548.375 1.56261 0.205012 0
M  V30 5789 C 549.786 1.70056 0.770574 0
M  V30 5790 C 550.137 0.673398 1.84282 0
M  V30 5791 O 549.262 -0.172196 2.15714 0
M  V30 5792 C 549.857 3.08316 1.40451 0
M  V30 5793 C 548.416 3.2391 1.91727 0
M  V30 5794 C 547.563 2.66001 0.783516 0
M  V30 5795 H 550.514 1.58688 -0.019911 0
M  V30 5796 H 550.535 3.05094 2.27371 0
M  V30 5797 H 550.047 3.83053 0.623882 0
M  V30 5798 H 548.148 2.54072 2.7254 0
M  V30 5799 H 548.261 4.3131 2.08588 0
M  V30 5800 H 546.625 2.24915 1.19521 0
M  V30 5801 H 547.408 3.43297 0.0152883 0
M  V30 5802 N 549.853 -0.472356 1.50355 0
M  V30 5803 C 551.269 -0.806001 1.37753 0
M  V30 5804 C 551.469 -1.968 0.432649 0
M  V30 5805 O 550.525 -2.52189 -0.12519 0
M  V30 5806 C 551.838 -1.11926 2.79093 0
M  V30 5807 C 553.386 -1.22579 2.87999 0
M  V30 5808 C 553.861 -1.57218 4.3017 0
M  V30 5809 N 555.352 -1.64212 4.33115 0
M  V30 5810 C 556.087 -1.92517 5.40116 0
M  V30 5811 N 555.583 -2.1885 6.57325 0
M  V30 5812 N 557.376 -1.94008 5.27558 0
M  V30 5813 H 549.527 0.293451 2.10363 0
M  V30 5814 H 551.79 0.0687672 0.945503 0
M  V30 5815 H 551.496 -0.338504 3.50067 0
M  V30 5816 H 551.37 -2.05577 3.16256 0
M  V30 5817 H 553.757 -1.99722 2.17245 0
M  V30 5818 H 553.838 -0.269107 2.54381 0
M  V30 5819 H 553.482 -0.806154 5.01461 0
M  V30 5820 H 553.412 -2.54034 4.61275 0
M  V30 5821 H 555.903 -1.45906 3.48597 0
M  V30 5822 H 556.216 -2.39718 7.3468 0
M  V30 5823 H 554.561 -2.16245 6.60502 0
M  V30 5824 H 557.752 -1.72931 4.34986 0
M  V30 5825 H 557.925 -2.15731 6.11035 0
M  V30 5826 N 551.331 -1.39911 -0.725443 0
M  V30 5827 C 552.241 -1.41688 -1.8698 0
M  V30 5828 C 553.257 -0.310579 -1.71206 0
M  V30 5829 O 554.433 -0.55359 -1.93642 0
M  V30 5830 C 551.498 -1.26811 -3.22676 0
M  V30 5831 C 550.559 -2.47497 -3.50776 0
M  V30 5832 C 549.792 -2.3332 -4.79997 0
M  V30 5833 O 550.015 -1.34175 -5.54394 0
M  V30 5834 O 548.949 -3.22498 -5.08211 0
M  V30 5835 H 552.775 -2.38171 -1.88436 0
M  V30 5836 H 550.36 -1.21128 -0.874548 0
M  V30 5837 H 552.242 -1.20684 -4.03749 0
M  V30 5838 H 550.917 -0.334289 -3.21969 0
M  V30 5839 H 549.824 -2.59201 -2.69751 0
M  V30 5840 H 551.157 -3.39606 -3.5627 0
M  V30 5841 N 552.809 0.956637 -1.25245 0
M  V30 5842 C 553.741 2.05628 -1.01242 0
M  V30 5843 C 554.754 1.62785 0.0219579 0
M  V30 5844 O 555.943 1.77184 -0.216365 0
M  V30 5845 C 553.043 3.35069 -0.508161 0
M  V30 5846 C 552.216 4.06761 -1.60823 0
M  V30 5847 C 551.275 5.14473 -1.1047 0
M  V30 5848 O 550.301 5.40033 -1.79868 0
M  V30 5849 N 551.503 5.80474 0.0550773 0
M  V30 5850 H 554.268 2.2679 -1.95925 0
M  V30 5851 H 551.829 1.12505 -1.16423 0
M  V30 5852 H 553.821 4.044 -0.155819 0
M  V30 5853 H 552.391 3.10694 0.344683 0
M  V30 5854 H 551.611 3.31555 -2.13224 0
M  V30 5855 H 552.899 4.51418 -2.34733 0
M  V30 5856 H 552.297 5.62125 0.635004 0
M  V30 5857 H 550.854 6.50868 0.348469 0
M  V30 5858 N 554.287 1.06798 1.15896 0
M  V30 5859 C 555.536 0.782796 1.8589 0
M  V30 5860 C 555.849 -0.693498 1.82893 0
M  V30 5861 O 557.055 -1.09325 2.48516 0
M  V30 5862 C 555.511 1.3502 3.33613 0
M  V30 5863 C 555.119 2.8571 3.45071 0
M  V30 5864 C 556.863 1.14278 4.08829 0
M  V30 5865 C 554.77 3.35669 4.86909 0
M  V30 5866 H 553.7 0.289149 0.696354 0
M  V30 5867 H 556.351 1.28734 1.30766 0
M  V30 5868 H 554.733 0.773407 3.88374 0
M  V30 5869 H 555.907 3.49385 3.00445 0
M  V30 5870 H 554.222 3.05178 2.83294 0
M  V30 5871 H 556.819 1.49087 5.13495 0
M  V30 5872 H 557.162 0.0814575 4.1622 0
M  V30 5873 H 557.695 1.68563 3.60321 0
M  V30 5874 H 554.434 4.41302 4.84698 0
M  V30 5875 H 553.954 2.76745 5.32139 0
M  V30 5876 H 555.633 3.31296 5.55745 0
M  V30 5877 N 555.766 -1.3263 0.851289 0
M  V30 5878 C 557.012 -1.9766 0.453694 0
M  V30 5879 C 557.345 -1.67225 -0.987396 0
M  V30 5880 O 556.62 -0.958693 -1.69232 0
M  V30 5881 C 556.903 -3.5344 0.68936 0
M  V30 5882 C 556.756 -3.93517 2.17862 0
M  V30 5883 C 558.075 -4.39866 0.143555 0
M  V30 5884 H 555.194 -0.717989 0.166314 0
M  V30 5885 H 557.836 -1.57068 1.06909 0
M  V30 5886 H 555.986 -3.88147 0.165546 0
M  V30 5887 H 557.658 -3.69006 2.76826 0
M  V30 5888 H 555.901 -3.42798 2.65841 0
M  V30 5889 H 556.572 -5.02065 2.29422 0
M  V30 5890 H 559.048 -4.11875 0.591451 0
M  V30 5891 H 557.924 -5.47858 0.338043 0
M  V30 5892 H 558.185 -4.31696 -0.953466 0
M  V30 5893 N 557.244 -0.608902 -1.45362 0
M  V30 5894 C 558.49 -0.104762 -2.02529 0
M  V30 5895 C 558.823 1.26191 -1.47613 0
M  V30 5896 O 558.098 1.8327 -0.65134 0
M  V30 5897 C 558.381 -0.0672661 -3.60037 0
M  V30 5898 C 558.234 -1.4647 -4.25284 0
M  V30 5899 C 559.553 0.619877 -4.35713 0
M  V30 5900 H 556.672 -0.0395438 -0.735938 0
M  V30 5901 H 559.314 -0.781126 -1.73201 0
M  V30 5902 H 557.464 0.50871 -3.85155 0
M  V30 5903 H 559.136 -2.08785 -4.11347 0
M  V30 5904 H 557.379 -2.02502 -3.83634 0
M  V30 5905 H 558.05 -1.39069 -5.34195 0
M  V30 5906 H 560.526 0.130297 -4.15896 0
M  V30 5907 H 559.402 0.615224 -5.45441 0
M  V30 5908 H 559.663 1.68621 -4.0868 0
M  V30 5909 N 558.722 1.53707 -0.348139 0
M  V30 5910 C 559.999 1.93247 0.302475 0
M  V30 5911 C 560.379 1.28012 1.67857 0
M  V30 5912 O 559.727 0.43274 2.24365 0
M  V30 5913 C 559.937 3.47031 0.370159 0
M  V30 5914 C 561.285 4.20066 0.61882 0
M  V30 5915 O 562.309 3.53319 0.452087 0
M  V30 5916 O 561.168 5.38318 0.94215 0
M  V30 5917 H 558.262 0.807736 0.177458 0
M  V30 5918 H 560.808 1.64927 -0.399651 0
M  V30 5919 H 559.58 3.86745 -0.59534 0
M  V30 5920 H 559.203 3.81532 1.11888 0
M  V30 5921 N 560.2 0.0768682 1.57412 0
M  V30 5922 C 561.13 -0.886026 2.16037 0
M  V30 5923 C 562.111 -1.30691 1.08876 0
M  V30 5924 O 563.296 -1.37705 1.36934 0
M  V30 5925 C 560.426 -2.1518 2.72608 0
M  V30 5926 C 559.38 -1.87015 3.8498 0
M  V30 5927 C 558.706 -3.20266 4.28175 0
M  V30 5928 C 560.006 -1.17143 5.08994 0
M  V30 5929 H 561.7 -0.397642 2.96748 0
M  V30 5930 H 559.246 -0.189823 1.42743 0
M  V30 5931 H 561.199 -2.82962 3.12266 0
M  V30 5932 H 559.923 -2.66269 1.89125 0
M  V30 5933 H 558.582 -1.21636 3.45833 0
M  V30 5934 H 558.23 -3.69207 3.41607 0
M  V30 5935 H 557.93 -3.0221 5.03927 0
M  V30 5936 H 559.454 -3.89237 4.70454 0
M  V30 5937 H 560.868 -1.75003 5.45937 0
M  V30 5938 H 559.265 -1.09328 5.90057 0
M  V30 5939 H 560.335 -0.151295 4.84664 0
M  V30 5940 N 561.678 -1.56367 -0.196722 0
M  V30 5941 C 562.903 -1.84991 -0.937714 0
M  V30 5942 C 563.328 -0.660244 -1.76132 0
M  V30 5943 O 562.686 0.390967 -1.77034 0
M  V30 5944 C 562.734 -3.11828 -1.81096 0
M  V30 5945 O 561.838 -2.92266 -2.90955 0
M  V30 5946 H 561.179 -0.609193 -0.264159 0
M  V30 5947 H 563.709 -2.03595 -0.202529 0
M  V30 5948 H 563.719 -3.42579 -2.21594 0
M  V30 5949 H 562.394 -3.98037 -1.2058 0
M  V30 5950 H 560.971 -2.72809 -2.54224 0
M  V30 5951 N 563.156 0.464375 -1.50603 0
M  V30 5952 C 564.106 1.55929 -1.66343 0
M  V30 5953 C 565.09 1.52338 -0.517887 0
M  V30 5954 O 566.282 1.59248 -0.772601 0
M  V30 5955 C 563.411 2.94327 -1.7671 0
M  V30 5956 C 562.497 3.02777 -2.96962 0
M  V30 5957 N 562.888 2.81026 -4.20545 0
M  V30 5958 C 561.186 3.33919 -2.95659 0
M  V30 5959 C 561.887 2.94618 -5.01573 0
M  V30 5960 N 560.863 3.25112 -4.35664 0
M  V30 5961 H 564.665 1.37822 -2.59581 0
M  V30 5962 H 562.179 0.671227 -1.47879 0
M  V30 5963 H 564.176 3.73063 -1.86091 0
M  V30 5964 H 562.836 3.13476 -0.846353 0
M  V30 5965 H 563.847 2.56477 -4.49933 0
M  V30 5966 H 560.524 3.59013 -2.13111 0
M  V30 5967 H 561.914 2.81984 -6.09865 0
M  V30 5968 N 564.634 1.40294 0.718013 0
M  V30 5969 C 566.045 1.34289 1.29705 0
M  V30 5970 C 566.396 0.0152228 1.96194 0
M  V30 5971 O 565.521 -0.88682 1.97394 0
M  V30 5972 C 566.116 2.43219 2.3586 0
M  V30 5973 C 564.675 2.40682 2.89394 0
M  V30 5974 C 563.822 2.24223 1.63154 0
M  V30 5975 H 566.773 1.50135 0.514312 0
M  V30 5976 H 566.794 2.10986 3.16647 0
M  V30 5977 H 566.306 3.39836 1.87439 0
M  V30 5978 H 564.407 1.47756 3.42051 0
M  V30 5979 H 564.52 3.36177 3.41353 0
M  V30 5980 H 562.884 1.71696 1.88129 0
M  V30 5981 H 563.667 3.22834 1.16761 0
M  V30 5982 N 566.112 -0.949982 1.2575 0
M  V30 5983 C 567.36 -1.6918 1.10555 0
M  V30 5984 C 567.681 -1.91773 -0.353298 0
M  V30 5985 O 566.951 -1.50814 -1.25027 0
M  V30 5986 H 565.531 -0.626952 0.406129 0
M  V30 5987 H 568.193 -1.1419 1.57945 0
M  V30 5988 H 567.289 -2.66915 1.61749 0
M  V30 5989 N 567.59 -1.07411 -1.15328 0
M  V30 5990 C 568.836 -0.798831 -1.86404 0
M  V30 5991 C 569.169 0.673433 -1.8215 0
M  V30 5992 O 568.444 1.49428 -1.24505 0
M  V30 5993 C 568.727 -1.30846 -3.35487 0
M  V30 5994 C 568.58 -2.84532 -3.4837 0
M  V30 5995 C 569.899 -0.925486 -4.30259 0
M  V30 5996 H 567.018 -0.291659 -0.676834 0
M  V30 5997 H 569.66 -1.332 -1.35491 0
M  V30 5998 H 567.81 -0.854916 -3.78977 0
M  V30 5999 H 569.482 -3.3818 -3.13739 0
M  V30 6000 H 567.725 -3.22699 -2.8991 0
M  V30 6001 H 568.396 -3.15259 -4.53118 0
M  V30 6002 H 570.872 -1.3163 -3.94731 0
M  V30 6003 H 569.748 -1.3094 -5.33053 0
M  V30 6004 H 570.009 0.168525 -4.41779 0
M  V30 6005 N 569.068 1.32177 -0.85831 0
M  V30 6006 C 570.293 2.01847 -0.476718 0
M  V30 6007 C 570.718 1.64065 0.920021 0
M  V30 6008 O 570.076 0.843189 1.60499 0
M  V30 6009 C 570.124 3.55097 -0.627578 0
M  V30 6010 O 569.228 4.11012 0.338086 0
M  V30 6011 H 568.569 0.635907 -0.191099 0
M  V30 6012 H 571.099 1.68641 -1.15851 0
M  V30 6013 H 571.109 4.04718 -0.516476 0
M  V30 6014 H 569.784 3.81938 -1.64609 0
M  V30 6015 H 568.361 3.72451 0.182917 0
M  V30 6016 N 570.547 0.616602 1.45037 0
M  V30 6017 C 571.457 -0.0985401 2.34393 0
M  V30 6018 C 572.473 -0.850971 1.51771 0
M  V30 6019 O 573.649 -0.806521 1.84546 0
M  V30 6020 C 570.714 -1.07748 3.29532 0
M  V30 6021 C 569.775 -0.326022 4.2806 0
M  V30 6022 C 569.008 -1.25833 5.18654 0
M  V30 6023 O 569.231 -2.49652 5.12864 0
M  V30 6024 O 568.165 -0.750512 5.97203 0
M  V30 6025 H 571.991 0.636016 2.96966 0
M  V30 6026 H 569.576 0.376832 1.44569 0
M  V30 6027 H 571.458 -1.64107 3.88133 0
M  V30 6028 H 570.133 -1.79291 2.69512 0
M  V30 6029 H 569.04 0.280253 3.73049 0
M  V30 6030 H 570.373 0.349091 4.9096 0
M  V30 6031 N 572.025 -1.5352 0.356285 0
M  V30 6032 C 573.302 -1.93405 -0.292223 0
M  V30 6033 C 573.682 -1.28901 -1.67176 0
M  V30 6034 O 573.03 -0.444632 -2.24132 0
M  V30 6035 C 573.24 -3.47223 -0.35175 0
M  V30 6036 C 574.588 -4.20389 -0.596534 0
M  V30 6037 O 575.612 -3.53554 -0.433344 0
M  V30 6038 O 574.471 -5.3881 -0.913589 0
M  V30 6039 H 571.565 -0.808666 -0.173172 0
M  V30 6040 H 574.111 -1.64713 0.408391 0
M  V30 6041 H 572.883 -3.86423 0.615841 0
M  V30 6042 H 572.506 -3.8212 -1.09864 0
M  V30 6043 N 573.503 -0.0852151 -1.57369 0
M  V30 6044 C 574.78 0.622534 -1.85429 0
M  V30 6045 C 575.16 1.86962 -0.980229 0
M  V30 6046 O 574.508 2.28445 -0.0500219 0
M  V30 6047 C 574.718 0.947374 -3.35896 0
M  V30 6048 C 576.066 1.31509 -4.03721 0
M  V30 6049 O 577.09 1.03869 -3.40719 0
M  V30 6050 O 575.949 1.83231 -5.14868 0
M  V30 6051 H 573.043 0.310513 -0.766492 0
M  V30 6052 H 575.589 -0.117164 -1.69295 0
M  V30 6053 H 574.361 0.0622264 -3.91251 0
M  V30 6054 H 573.984 1.74338 -3.5734 0
M  V30 6055 N 574.981 1.5647 0.188427 0
M  V30 6056 C 575.913 1.91611 1.25769 0
M  V30 6057 C 576.926 0.807436 1.41366 0
M  V30 6058 O 578.115 1.08586 1.41673 0
M  V30 6059 C 575.215 2.13874 2.6289 0
M  V30 6060 C 574.388 3.45047 2.68815 0
M  V30 6061 C 573.447 3.56342 3.87178 0
M  V30 6062 O 572.473 4.29109 3.73971 0
M  V30 6063 N 573.675 2.89924 5.02916 0
M  V30 6064 H 576.44 2.8393 0.959373 0
M  V30 6065 H 574.001 1.57418 0.378306 0
M  V30 6066 H 575.993 2.18713 3.4051 0
M  V30 6067 H 574.563 1.28022 2.85183 0
M  V30 6068 H 573.783 3.52017 1.77419 0
M  V30 6069 H 575.071 4.31395 2.6977 0
M  V30 6070 H 574.469 2.30644 5.16546 0
M  V30 6071 H 573.026 3.0038 5.78459 0
M  V30 6072 N 576.459 -0.456382 1.50847 0
M  V30 6073 C 577.705 -1.20914 1.62811 0
M  V30 6074 C 578.038 -1.91301 0.334304 0
M  V30 6075 O 577.313 -1.82775 -0.665098 0
M  V30 6076 C 577.596 -2.24122 2.81853 0
M  V30 6077 C 577.449 -1.57944 4.21158 0
M  V30 6078 C 578.768 -3.25295 2.96431 0
M  V30 6079 H 575.887 -0.438233 0.592554 0
M  V30 6080 H 578.529 -0.50091 1.83278 0
M  V30 6081 H 576.679 -2.84524 2.64534 0
M  V30 6082 H 578.351 -1.01025 4.50102 0
M  V30 6083 H 576.594 -0.882185 4.24735 0
M  V30 6084 H 577.265 -2.33014 5.00408 0
M  V30 6085 H 579.741 -2.7493 3.12335 0
M  V30 6086 H 578.617 -3.94822 3.81322 0
M  V30 6087 H 578.878 -3.90286 2.07676 0
M  V30 6088 N 577.937 -1.40673 -0.710563 0
M  V30 6089 C 579.162 -1.42741 -1.50465 0
M  V30 6090 C 579.587 -0.0302116 -1.88076 0
M  V30 6091 O 578.945 0.962945 -1.53613 0
M  V30 6092 C 578.993 -2.32873 -2.75322 0
M  V30 6093 O 578.097 -1.77544 -3.72226 0
M  V30 6094 H 577.438 -0.485056 -0.45345 0
M  V30 6095 H 579.968 -1.84961 -0.874681 0
M  V30 6096 H 579.978 -2.48233 -3.23797 0
M  V30 6097 H 578.653 -3.34401 -2.47283 0
M  V30 6098 H 577.23 -1.71556 -3.31093 0
M  V30 6099 N 579.415 0.9433 -1.26252 0
M  V30 6100 C 580.831 1.21644 -1.03319 0
M  V30 6101 C 581.031 2.0003 0.242983 0
M  V30 6102 O 580.087 2.33838 0.952688 0
M  V30 6103 C 581.4 1.97978 -2.2633 0
M  V30 6104 C 582.948 2.10978 -2.31209 0
M  V30 6105 C 583.423 2.90713 -3.53907 0
M  V30 6106 N 584.914 2.98287 -3.54371 0
M  V30 6107 C 585.649 3.60406 -4.45976 0
M  V30 6108 N 585.145 4.24043 -5.47868 0
M  V30 6109 N 586.938 3.57658 -4.33633 0
M  V30 6110 H 579.089 0.419221 -2.08222 0
M  V30 6111 H 581.352 0.247995 -0.914988 0
M  V30 6112 H 581.058 1.47788 -3.19142 0
M  V30 6113 H 580.932 2.9865 -2.30408 0
M  V30 6114 H 583.319 2.6036 -1.38913 0
M  V30 6115 H 583.4 1.09575 -2.31143 0
M  V30 6116 H 583.044 2.42018 -4.46531 0
M  V30 6117 H 582.974 3.92367 -3.5122 0
M  V30 6118 H 585.465 2.53044 -2.80673 0
M  V30 6119 H 585.778 4.69334 -6.13959 0
M  V30 6120 H 584.123 4.22637 -5.51728 0
M  V30 6121 H 587.314 3.07134 -3.53251 0
M  V30 6122 H 587.487 4.05782 -5.05218 0
M  V30 6123 N 580.893 1.08022 1.14757 0
M  V30 6124 C 581.823 0.728248 2.21853 0
M  V30 6125 C 582.804 -0.287486 1.67653 0
M  V30 6126 O 583.989 -0.158727 1.9355 0
M  V30 6127 C 581.119 0.132549 3.47047 0
M  V30 6128 C 580.073 1.07619 4.14249 0
M  V30 6129 C 579.399 0.342907 5.33599 0
M  V30 6130 C 580.699 2.41268 4.63235 0
M  V30 6131 H 582.393 1.62365 2.51551 0
M  V30 6132 H 579.939 0.782125 1.20908 0
M  V30 6133 H 581.892 -0.125665 4.21213 0
M  V30 6134 H 580.616 -0.797971 3.16702 0
M  V30 6135 H 579.275 1.31944 3.42033 0
M  V30 6136 H 578.923 -0.59129 4.99513 0
M  V30 6137 H 578.623 0.971955 5.79506 0
M  V30 6138 H 580.147 0.0926538 6.1053 0
M  V30 6139 H 581.561 2.21232 5.28894 0
M  V30 6140 H 579.958 2.9983 5.19829 0
M  V30 6141 H 581.028 3.03079 3.78512 0
M  V30 6142 N 582.371 -1.3172 0.865308 0
M  V30 6143 C 583.617 -1.97168 0.474633 0
M  V30 6144 C 583.95 -1.68263 -0.969604 0
M  V30 6145 O 583.225 -0.976588 -1.68205 0
M  V30 6146 C 583.508 -3.52689 0.726808 0
M  V30 6147 C 583.361 -3.91185 2.22024 0
M  V30 6148 C 584.68 -4.39689 0.190201 0
M  V30 6149 H 581.799 -0.716185 0.17392 0
M  V30 6150 H 584.441 -1.55925 1.08569 0
M  V30 6151 H 582.591 -3.8795 0.206705 0
M  V30 6152 H 584.263 -3.66049 2.80724 0
M  V30 6153 H 582.506 -3.3996 2.69462 0
M  V30 6154 H 583.177 -4.99604 2.34735 0
M  V30 6155 H 585.653 -4.11225 0.635103 0
M  V30 6156 H 584.529 -5.47469 0.396132 0
M  V30 6157 H 584.79 -4.32683 -0.907625 0
M  V30 6158 N 583.85 -0.624285 -1.44708 0
M  V30 6159 C 585.077 -0.132919 -2.06473 0
M  V30 6160 C 585.493 1.18967 -1.46602 0
M  V30 6161 O 584.85 1.72824 -0.586341 0
M  V30 6162 C 584.901 -0.00465418 -3.615 0
M  V30 6163 O 584.622 -1.27494 -4.19138 0
M  V30 6164 C 586.123 0.516213 -4.40284 0
M  V30 6165 H 583.343 -0.0765201 -0.666623 0
M  V30 6166 H 585.887 -0.856751 -1.85688 0
M  V30 6167 H 584.042 0.669583 -3.8157 0
M  V30 6168 H 584.456 -1.11536 -5.12504 0
M  V30 6169 H 585.93 0.554994 -5.49203 0
M  V30 6170 H 586.407 1.5419 -4.11245 0
M  V30 6171 H 587.013 -0.124542 -4.25118 0
M  V30 6172 N 585.328 1.53329 -0.364422 0
M  V30 6173 C 586.577 2.00421 0.226747 0
M  V30 6174 C 586.89 1.25581 1.49963 0
M  V30 6175 O 588.096 1.63256 2.16933 0
M  V30 6176 C 586.552 3.57017 0.454618 0
M  V30 6177 C 586.16 4.40734 -0.803568 0
M  V30 6178 C 587.904 4.12468 1.00351 0
M  V30 6179 C 585.811 5.8888 -0.545345 0
M  V30 6180 H 584.741 0.748787 0.0885082 0
M  V30 6181 H 587.392 1.7703 -0.482983 0
M  V30 6182 H 585.774 3.76558 1.22558 0
M  V30 6183 H 586.948 4.32967 -1.57723 0
M  V30 6184 H 585.263 3.96381 -1.27559 0
M  V30 6185 H 587.86 5.20783 1.212 0
M  V30 6186 H 588.203 3.6699 1.9653 0
M  V30 6187 H 588.736 3.96721 0.29274 0
M  V30 6188 H 585.475 6.38633 -1.47743 0
M  V30 6189 H 584.995 5.99499 0.189842 0
M  V30 6190 H 586.674 6.46776 -0.170425 0
M  V30 6191 N 586.806 0.0935595 1.57322 0
M  V30 6192 C 588.031 -0.582324 1.99057 0
M  V30 6193 C 588.456 -1.61025 0.972242 0
M  V30 6194 O 587.814 -1.81202 -0.0594622 0
M  V30 6195 C 587.862 -1.20799 3.39765 0
M  V30 6196 O 586.966 -2.32382 3.40694 0
M  V30 6197 H 586.307 -0.147884 0.647323 0
M  V30 6198 H 588.837 0.174516 2.03854 0
M  V30 6199 H 588.847 -1.54966 3.77425 0
M  V30 6200 H 587.522 -0.454914 4.13405 0
M  V30 6201 H 586.099 -1.99845 3.14827 0
M  V30 6202 N 588.284 -1.56567 -0.180126 0
M  V30 6203 C 589.231 -1.95725 -1.22313 0
M  V30 6204 C 590.201 -0.819911 -1.44453 0
M  V30 6205 O 591.386 -1.07931 -1.57339 0
M  V30 6206 C 588.526 -2.31484 -2.55947 0
M  V30 6207 C 587.639 -3.58354 -2.4126 0
M  V30 6208 C 586.774 -3.83366 -3.67701 0
M  V30 6209 C 585.813 -5.03612 -3.47909 0
M  V30 6210 N 584.95 -5.24802 -4.66398 0
M  V30 6211 H 589.79 -2.84642 -0.882198 0
M  V30 6212 H 587.327 -1.4085 -0.42422 0
M  V30 6213 H 589.285 -2.50237 -3.33822 0
M  V30 6214 H 587.915 -1.45689 -2.88053 0
M  V30 6215 H 586.967 -3.47565 -1.54606 0
M  V30 6216 H 588.279 -4.46386 -2.22577 0
M  V30 6217 H 587.433 -4.02439 -4.54013 0
M  V30 6218 H 586.172 -2.93692 -3.89353 0
M  V30 6219 H 585.177 -4.84447 -2.59983 0
M  V30 6220 H 586.402 -5.94809 -3.27688 0
M  V30 6221 H 584.348 -4.38079 -4.88286 0
M  V30 6222 H 584.265 -6.07041 -4.50596 0
M  V30 6223 H 585.533 -5.48346 -5.54019 0
M  V30 6224 N 589.762 0.448376 -1.51087 0
M  V30 6225 C 591.039 1.20926 -1.53741 0
M  V30 6226 C 591.419 2.09025 -0.295222 0
M  V30 6227 O 590.767 2.16851 0.720283 0
M  V30 6228 C 590.977 2.02067 -2.84552 0
M  V30 6229 C 592.325 2.59486 -3.36084 0
M  V30 6230 O 593.349 2.12289 -2.86028 0
M  V30 6231 O 592.208 3.45539 -4.23397 0
M  V30 6232 H 589.302 0.549951 -0.617643 0
M  V30 6233 H 591.848 0.458344 -1.63393 0
M  V30 6234 H 590.62 1.37291 -3.66425 0
M  V30 6235 H 590.243 2.84246 -2.78011 0
M  V30 6236 N 591.24 1.41047 0.703093 0
M  V30 6237 C 592.651 1.35657 1.28274 0
M  V30 6238 C 593.002 0.0360309 1.96167 0
M  V30 6239 O 592.127 -0.865833 1.98324 0
M  V30 6240 C 592.722 2.45707 2.33267 0
M  V30 6241 C 591.281 2.43738 2.86825 0
M  V30 6242 C 590.428 2.25941 1.60767 0
M  V30 6243 H 593.379 1.50672 0.49836 0
M  V30 6244 H 593.4 2.14333 3.14391 0
M  V30 6245 H 592.912 3.41805 1.83824 0
M  V30 6246 H 591.013 1.51375 3.40465 0
M  V30 6247 H 591.126 3.39779 3.37768 0
M  V30 6248 H 589.49 1.73681 1.86298 0
M  V30 6249 H 590.273 3.24054 1.1333 0
M  V30 6250 N 592.718 -0.936591 1.26751 0
M  V30 6251 C 593.948 -1.71509 1.15188 0
M  V30 6252 C 594.356 -1.86885 -0.295037 0
M  V30 6253 O 593.699 -1.37915 -1.21347 0
M  V30 6254 C 593.761 -3.13853 1.75318 0
M  V30 6255 C 593.425 -3.21845 3.24445 0
M  V30 6256 C 594.422 -3.04771 4.21201 0
M  V30 6257 C 592.107 -3.45088 3.64992 0
M  V30 6258 C 594.101 -3.10816 5.56482 0
M  V30 6259 C 591.788 -3.50767 5.00405 0
M  V30 6260 C 592.786 -3.33648 5.9596 0
M  V30 6261 O 592.474 -3.39045 7.28906 0
M  V30 6262 H 592.206 -0.543658 0.401761 0
M  V30 6263 H 594.76 -1.18234 1.67958 0
M  V30 6264 H 592.99 -3.6857 1.17016 0
M  V30 6265 H 594.679 -3.73634 1.58596 0
M  V30 6266 H 595.445 -2.86665 3.91214 0
M  V30 6267 H 591.324 -3.57467 2.91098 0
M  V30 6268 H 594.868 -2.97372 6.31043 0
M  V30 6269 H 590.765 -3.68396 5.30052 0
M  V30 6270 H 591.533 -3.55558 7.37238 0
M  V30 6271 N 594.196 -1.08629 -1.14182 0
M  V30 6272 C 595.106 -0.730126 -2.22949 0
M  V30 6273 C 596.122 0.26436 -1.7198 0
M  V30 6274 O 597.298 0.107742 -2.01112 0
M  V30 6275 C 594.363 -0.147227 -3.46387 0
M  V30 6276 C 593.424 -1.19662 -4.12286 0
M  V30 6277 C 592.657 -0.641437 -5.29831 0
M  V30 6278 O 592.88 0.538351 -5.67854 0
M  V30 6279 O 591.814 -1.39257 -5.85569 0
M  V30 6280 H 595.64 -1.63753 -2.55771 0
M  V30 6281 H 593.225 -0.860118 -1.22157 0
M  V30 6282 H 595.107 0.174923 -4.21037 0
M  V30 6283 H 593.782 0.733304 -3.15285 0
M  V30 6284 H 592.689 -1.57133 -3.395 0
M  V30 6285 H 594.022 -2.0495 -4.475 0
M  V30 6286 N 595.674 1.31259 -0.872281 0
M  V30 6287 C 596.637 2.26744 -0.334656 0
M  V30 6288 C 597.637 1.52307 0.515681 0
M  V30 6289 O 598.827 1.71148 0.324656 0
M  V30 6290 C 595.959 3.36841 0.524482 0
M  V30 6291 H 597.152 2.75812 -1.17762 0
M  V30 6292 H 594.705 1.42232 -0.648064 0
M  V30 6293 H 595.44 2.93069 1.38855 0
M  V30 6294 H 595.225 3.92009 -0.0844299 0
M  V30 6295 H 596.715 4.07944 0.892838 0
M  V30 6296 N 597.152 0.631951 1.44375 0
M  V30 6297 C 598.392 0.14009 2.03919 0
M  V30 6298 C 598.756 -1.21534 1.48639 0
M  V30 6299 O 599.957 -1.79936 1.99691 0
M  V30 6300 C 598.228 0.127174 3.57174 0
M  V30 6301 S 599.787 -0.299946 4.37774 0
M  V30 6302 H 596.605 0.0614891 0.708336 0
M  V30 6303 H 599.207 0.835524 1.76746 0
M  V30 6304 H 597.911 1.11676 3.94913 0
M  V30 6305 H 597.442 -0.589482 3.88958 0
M  V30 6306 H 599.457 -1.54396 4.71568 0
M  V30 6307 N 598.631 -1.53133 0.372548 0
M  V30 6308 C 599.908 -1.93704 -0.271693 0
M  V30 6309 C 600.288 -1.30667 -1.65799 0
M  V30 6310 O 599.636 -0.46838 -2.23648 0
M  V30 6311 C 599.846 -3.47576 -0.314903 0
M  V30 6312 C 601.194 -4.20998 -0.551912 0
M  V30 6313 O 602.218 -3.53994 -0.39582 0
M  V30 6314 O 601.077 -5.39748 -0.85639 0
M  V30 6315 H 598.171 -0.810457 -0.164586 0
M  V30 6316 H 600.717 -1.6427 0.425838 0
M  V30 6317 H 599.489 -3.85749 0.656792 0
M  V30 6318 H 599.112 -3.83264 -1.05804 0
M  V30 6319 N 600.109 -0.101901 -1.5727 0
M  V30 6320 C 601.357 0.559091 -1.94213 0
M  V30 6321 C 601.678 1.68297 -0.984948 0
M  V30 6322 O 600.948 1.95863 -0.0381975 0
M  V30 6323 H 599.528 0.20952 -0.717015 0
M  V30 6324 H 602.19 -0.166831 -1.94185 0
M  V30 6325 H 601.286 0.96485 -2.96811 0
M  V30 6326 N 601.587 1.56661 0.17182 0
M  V30 6327 C 602.55 1.9549 1.19651 0
M  V30 6328 C 603.55 0.838501 1.37207 0
M  V30 6329 O 604.74 1.10556 1.34622 0
M  V30 6330 C 601.872 2.24927 2.56166 0
M  V30 6331 H 603.065 2.87184 0.864007 0
M  V30 6332 H 600.618 1.50711 0.41425 0
M  V30 6333 H 601.353 1.35944 2.94431 0
M  V30 6334 H 601.138 3.06301 2.4479 0
M  V30 6335 H 602.628 2.55891 3.30014 0
M  V30 6336 N 603.065 -0.440357 1.51323 0
M  V30 6337 C 604.015 -1.53263 1.68803 0
M  V30 6338 C 604.999 -1.51494 0.542057 0
M  V30 6339 O 606.191 -1.57999 0.797839 0
M  V30 6340 C 603.32 -2.91479 1.8137 0
M  V30 6341 C 602.406 -2.98015 3.01742 0
M  V30 6342 N 602.797 -2.743 4.24962 0
M  V30 6343 C 601.095 -3.29173 3.00934 0
M  V30 6344 C 601.796 -2.86601 5.06197 0
M  V30 6345 N 600.772 -3.1814 4.40781 0
M  V30 6346 H 604.574 -1.33675 2.61741 0
M  V30 6347 H 602.088 -0.647616 1.48929 0
M  V30 6348 H 604.085 -3.70055 1.92002 0
M  V30 6349 H 602.745 -3.12089 0.896117 0
M  V30 6350 H 603.756 -2.49287 4.53957 0
M  V30 6351 H 600.433 -3.55577 2.18796 0
M  V30 6352 H 601.823 -2.72246 6.14274 0
M  V30 6353 N 604.543 -1.41418 -0.695603 0
M  V30 6354 C 605.506 -1.42988 -1.79129 0
M  V30 6355 C 606.506 -0.320514 -1.57573 0
M  V30 6356 O 607.696 -0.58039 -1.64247 0
M  V30 6357 C 604.828 -1.24122 -3.175 0
M  V30 6358 H 606.021 -2.40526 -1.7913 0
M  V30 6359 H 603.574 -1.2756 -0.903225 0
M  V30 6360 H 604.309 -0.274253 -3.23138 0
M  V30 6361 H 604.094 -2.045 -3.34547 0
M  V30 6362 H 605.584 -1.28056 -3.97481 0
M  V30 6363 N 606.021 0.929856 -1.27246 0
M  V30 6364 C 607.267 1.6798 -1.13625 0
M  V30 6365 C 607.6 1.91586 0.317589 0
M  V30 6366 O 606.875 1.50467 1.23247 0
M  V30 6367 C 607.158 3.04766 -1.91806 0
M  V30 6368 C 607.011 2.88415 -3.45162 0
M  V30 6369 C 608.33 4.05063 -1.72082 0
M  V30 6370 H 605.449 0.609632 -0.414147 0
M  V30 6371 H 608.091 1.0792 -1.56376 0
M  V30 6372 H 606.241 3.56034 -1.55474 0
M  V30 6373 H 607.913 2.44282 -3.91311 0
M  V30 6374 H 606.156 2.23802 -3.71611 0
M  V30 6375 H 606.827 3.85482 -3.95105 0
M  V30 6376 H 609.303 3.62798 -2.03757 0
M  V30 6377 H 608.179 4.98765 -2.29182 0
M  V30 6378 H 608.44 4.37021 -0.668206 0
M  V30 6379 N 607.499 1.09233 1.13605 0
M  V30 6380 C 608.745 0.828385 1.8511 0
M  V30 6381 C 609.078 -0.64437 1.83198 0
M  V30 6382 O 608.353 -1.47428 1.26867 0
M  V30 6383 C 608.636 1.36167 3.33363 0
M  V30 6384 C 608.489 2.90038 3.438 0
M  V30 6385 C 609.808 0.993819 4.28732 0
M  V30 6386 H 606.927 0.30239 0.672108 0
M  V30 6387 H 609.569 1.35339 1.33355 0
M  V30 6388 H 607.719 0.9151 3.77569 0
M  V30 6389 H 609.391 3.43128 3.08319 0
M  V30 6390 H 607.634 3.27271 2.84739 0
M  V30 6391 H 608.305 3.22428 4.48045 0
M  V30 6392 H 610.781 1.37893 3.92587 0
M  V30 6393 H 609.657 1.39403 5.30903 0
M  V30 6394 H 609.918 -0.0982206 4.41991 0
M  V30 6395 N 608.977 -1.30795 0.87923 0
M  V30 6396 C 610.226 -1.95636 0.490875 0
M  V30 6397 C 610.539 -1.70214 -0.963674 0
M  V30 6398 O 611.745 -2.28991 -1.45861 0
M  V30 6399 C 610.201 -3.50271 0.826929 0
M  V30 6400 C 609.809 -3.84521 2.29886 0
M  V30 6401 C 611.553 -4.21456 0.507494 0
M  V30 6402 C 609.46 -5.32309 2.57685 0
M  V30 6403 H 608.39 -0.732238 0.179841 0
M  V30 6404 H 611.041 -1.48829 1.07341 0
M  V30 6405 H 609.423 -3.9562 0.173542 0
M  V30 6406 H 610.597 -3.50102 2.99609 0
M  V30 6407 H 608.912 -3.26425 2.58526 0
M  V30 6408 H 611.509 -5.30199 0.692293 0
M  V30 6409 H 611.852 -4.12614 -0.552718 0
M  V30 6410 H 612.385 -3.81772 1.11782 0
M  V30 6411 H 609.124 -5.46195 3.62424 0
M  V30 6412 H 608.644 -5.68048 1.92566 0
M  V30 6413 H 610.323 -5.99678 2.42889 0
M  V30 6414 N 610.455 -0.639598 -1.44038 0
M  V30 6415 C 611.695 -0.150902 -2.03842 0
M  V30 6416 C 612.059 1.20744 -1.49281 0
M  V30 6417 O 613.26 1.78875 -2.00642 0
M  V30 6418 C 611.531 -0.146114 -3.57101 0
M  V30 6419 S 613.09 0.276725 -4.37927 0
M  V30 6420 H 609.908 -0.0652447 -0.708 0
M  V30 6421 H 612.51 -0.844886 -1.76301 0
M  V30 6422 H 611.214 -1.13769 -3.94316 0
M  V30 6423 H 610.745 0.568846 -3.89266 0
M  V30 6424 H 612.76 1.51893 -4.7238 0
M  V30 6425 N 611.933 1.52934 -0.380664 0
M  V30 6426 C 613.161 2.05886 0.204599 0
M  V30 6427 C 613.576 1.25305 1.41223 0
M  V30 6428 O 612.933 0.297504 1.80059 0
M  V30 6429 C 612.984 3.56764 0.583249 0
M  V30 6430 O 612.705 4.34292 -0.576398 0
M  V30 6431 C 614.206 4.2603 1.2253 0
M  V30 6432 H 611.426 0.670193 0.0328991 0
M  V30 6433 H 613.97 1.97148 -0.543397 0
M  V30 6434 H 612.125 3.65603 1.28115 0
M  V30 6435 H 612.539 5.23819 -0.267119 0
M  V30 6436 H 614.013 5.32868 1.44068 0
M  V30 6437 H 614.49 3.80698 2.19011 0
M  V30 6438 H 615.096 4.21485 0.568407 0
M  V30 6439 N 613.412 0.11024 1.57214 0
M  V30 6440 C 614.322 -0.857077 2.18383 0
M  V30 6441 C 615.338 -1.29915 1.1575 0
M  V30 6442 O 616.514 -1.36394 1.48184 0
M  V30 6443 C 613.579 -2.09264 2.76423 0
M  V30 6444 C 612.64 -1.70333 3.94063 0
M  V30 6445 C 611.873 -2.87999 4.49324 0
M  V30 6446 O 612.096 -4.0317 4.03497 0
M  V30 6447 O 611.03 -2.6559 5.40135 0
M  V30 6448 H 614.856 -0.366561 3.0148 0
M  V30 6449 H 612.441 -0.114914 1.48957 0
M  V30 6450 H 614.323 -2.81644 3.13456 0
M  V30 6451 H 612.998 -2.57339 1.96363 0
M  V30 6452 H 611.905 -0.950864 3.61814 0
M  V30 6453 H 613.238 -1.27007 4.75531 0
M  V30 6454 N 614.89 -1.56749 -0.16351 0
M  V30 6455 C 616.136 -1.83597 -0.875436 0
M  V30 6456 C 616.491 -0.691907 -1.79528 0
M  V30 6457 O 615.784 0.311193 -1.89056 0
M  V30 6458 C 615.978 -3.14342 -1.70071 0
M  V30 6459 C 615.807 -4.41356 -0.862265 0
M  V30 6460 C 614.577 -5.02467 -0.534299 0
M  V30 6461 C 616.775 -5.1391 -0.200203 0
M  V30 6462 N 614.757 -6.13068 0.31947 0
M  V30 6463 C 616.128 -6.17862 0.514398 0
M  V30 6464 C 618.183 -4.97757 -0.119171 0
M  V30 6465 C 616.886 -7.07412 1.30236 0
M  V30 6466 C 618.912 -5.87756 0.655477 0
M  V30 6467 C 618.274 -6.91178 1.35842 0
M  V30 6468 H 614.373 -0.722702 -0.298708 0
M  V30 6469 H 616.957 -1.94182 -0.141883 0
M  V30 6470 H 615.128 -3.04933 -2.40562 0
M  V30 6471 H 616.86 -3.29156 -2.35453 0
M  V30 6472 H 613.615 -4.65611 -0.866222 0
M  V30 6473 H 614.039 -6.72978 0.736893 0
M  V30 6474 H 618.681 -4.178 -0.648278 0
M  V30 6475 H 616.399 -7.86808 1.84278 0
M  V30 6476 H 619.985 -5.77328 0.719948 0
M  V30 6477 H 618.865 -7.59614 1.94822 0
M  V30 6478 N 616.368 0.432326 -1.51554 0
M  V30 6479 C 617.645 1.19288 -1.55015 0
M  V30 6480 C 618.025 2.08701 -0.317375 0
M  V30 6481 O 617.373 2.17602 0.697243 0
M  V30 6482 C 617.583 1.99037 -2.86679 0
M  V30 6483 C 618.931 2.55907 -3.38817 0
M  V30 6484 O 619.955 2.09243 -2.88263 0
M  V30 6485 O 618.814 3.41029 -4.27038 0
M  V30 6486 H 615.908 0.543369 -0.623441 0
M  V30 6487 H 618.454 0.440988 -1.6387 0
M  V30 6488 H 617.226 1.33397 -3.6786 0
M  V30 6489 H 616.849 2.81281 -2.8101 0
M  V30 6490 N 617.846 1.41785 0.688094 0
M  V30 6491 C 618.779 1.38643 1.81255 0
M  V30 6492 C 619.757 0.252583 1.60626 0
M  V30 6493 O 620.941 0.440691 1.83276 0
M  V30 6494 C 618.068 1.16449 3.18053 0
M  V30 6495 C 617.114 2.32651 3.57457 0
M  V30 6496 S 617.947 3.95152 3.61407 0
M  V30 6497 C 619.103 3.75275 5.00919 0
M  V30 6498 H 619.336 2.33799 1.83644 0
M  V30 6499 H 616.869 1.28398 0.857513 0
M  V30 6500 H 618.827 1.0433 3.97021 0
M  V30 6501 H 617.488 0.229002 3.13264 0
M  V30 6502 H 616.681 2.12835 4.56856 0
M  V30 6503 H 616.283 2.41215 2.85817 0
M  V30 6504 H 618.575 3.35443 5.88629 0
M  V30 6505 H 619.518 4.74302 5.25778 0
M  V30 6506 H 619.926 3.08401 4.7281 0
M  V30 6507 N 619.324 -0.923095 1.27737 0
M  V30 6508 C 620.571 -1.67127 1.14345 0
M  V30 6509 C 620.899 -1.92017 -0.30982 0
M  V30 6510 O 620.154 -1.51185 -1.24264 0
M  V30 6511 C 620.453 -3.04125 1.8773 0
M  V30 6512 C 620.119 -2.98929 3.37568 0
M  V30 6513 C 618.781 -2.9722 3.78436 0
M  V30 6514 C 621.133 -2.89875 4.33154 0
M  V30 6515 C 618.461 -2.84244 5.13247 0
M  V30 6516 C 620.813 -2.7844 5.68026 0
M  V30 6517 C 619.477 -2.75083 6.08182 0
M  V30 6518 H 618.747 -0.611562 0.418417 0
M  V30 6519 H 621.394 -1.07618 1.584 0
M  V30 6520 H 619.699 -3.67366 1.36196 0
M  V30 6521 H 621.396 -3.609 1.74792 0
M  V30 6522 H 617.986 -3.0105 3.05069 0
M  V30 6523 H 622.17 -2.9029 4.02548 0
M  V30 6524 H 617.426 -2.80034 5.43499 0
M  V30 6525 H 621.6 -2.70401 6.4176 0
M  V30 6526 H 619.227 -2.64786 7.12596 0
M  V30 6527 N 620.802 -1.09834 -1.13024 0
M  V30 6528 C 621.749 -0.741522 -2.18564 0
M  V30 6529 C 622.719 0.279236 -1.63736 0
M  V30 6530 O 623.904 0.159923 -1.90129 0
M  V30 6531 C 621.044 -0.17277 -3.44667 0
M  V30 6532 C 620.157 -1.24808 -4.13578 0
M  V30 6533 C 619.292 -0.641631 -5.27311 0
M  V30 6534 C 618.331 -1.69795 -5.88078 0
M  V30 6535 N 617.468 -1.11223 -6.93234 0
M  V30 6536 H 622.308 -1.64576 -2.48432 0
M  V30 6537 H 619.845 -0.822174 -1.21978 0
M  V30 6538 H 621.803 0.17482 -4.16834 0
M  V30 6539 H 620.433 0.694725 -3.15235 0
M  V30 6540 H 619.485 -1.71288 -3.39653 0
M  V30 6541 H 620.797 -2.04795 -4.54819 0
M  V30 6542 H 619.951 -0.243128 -6.06213 0
M  V30 6543 H 618.69 0.189742 -4.87331 0
M  V30 6544 H 617.695 -2.10595 -5.07868 0
M  V30 6545 H 618.92 -2.53206 -6.3013 0
M  V30 6546 H 616.866 -0.302208 -6.55304 0
M  V30 6547 H 616.783 -1.84901 -7.3304 0
M  V30 6548 H 618.051 -0.740068 -7.75979 0
M  V30 6549 N 622.28 1.30327 -0.886154 0
M  V30 6550 C 623.19 2.31854 -0.357866 0
M  V30 6551 C 624.206 1.65392 0.540502 0
M  V30 6552 O 625.382 1.96683 0.433339 0
M  V30 6553 C 622.447 3.44171 0.417999 0
M  V30 6554 C 621.508 4.26257 -0.510263 0
M  V30 6555 C 620.741 5.3321 0.228669 0
M  V30 6556 O 620.964 5.51542 1.45458 0
M  V30 6557 O 619.898 6.0042 -0.421832 0
M  V30 6558 H 623.724 2.78995 -1.19982 0
M  V30 6559 H 621.309 1.34518 -0.650028 0
M  V30 6560 H 623.191 4.12588 0.857251 0
M  V30 6561 H 621.866 2.99164 1.23623 0
M  V30 6562 H 620.773 3.60533 -0.99835 0
M  V30 6563 H 622.106 4.74871 -1.29454 0
M  V30 6564 N 623.758 0.647228 1.43697 0
M  V30 6565 C 624.688 -0.0345631 2.33474 0
M  V30 6566 C 625.669 -0.818193 1.4913 0
M  V30 6567 O 626.854 -0.780867 1.77809 0
M  V30 6568 C 623.984 -1.00576 3.32418 0
M  V30 6569 C 622.938 -0.33266 4.26705 0
M  V30 6570 C 622.264 -1.41489 5.1564 0
M  V30 6571 C 623.564 0.771204 5.16575 0
M  V30 6572 H 625.258 0.715163 2.90733 0
M  V30 6573 H 622.804 0.345364 1.39797 0
M  V30 6574 H 624.757 -1.49159 3.94119 0
M  V30 6575 H 623.481 -1.78657 2.73403 0
M  V30 6576 H 622.14 0.13267 3.6636 0
M  V30 6577 H 621.788 -2.18698 4.52968 0
M  V30 6578 H 621.488 -0.969799 5.79542 0
M  V30 6579 H 623.012 -1.9022 5.80214 0
M  V30 6580 H 624.426 0.36779 5.72119 0
M  V30 6581 H 622.823 1.1404 5.89165 0
M  V30 6582 H 623.893 1.63169 4.56622 0
M  V30 6583 N 625.236 -1.5273 0.388769 0
M  V30 6584 C 626.513 -1.93981 -0.251133 0
M  V30 6585 C 626.893 -1.32418 -1.64404 0
M  V30 6586 O 626.241 -0.492074 -2.23139 0
M  V30 6587 C 626.451 -3.47891 -0.27802 0
M  V30 6588 C 627.799 -4.21559 -0.507229 0
M  V30 6589 O 628.823 -3.54394 -0.358252 0
M  V30 6590 O 627.682 -5.40626 -0.799094 0
M  V30 6591 H 624.776 -0.812157 -0.15598 0
M  V30 6592 H 627.322 -1.63809 0.443237 0
M  V30 6593 H 626.094 -3.8503 0.697669 0
M  V30 6594 H 625.717 -3.84364 -1.01733 0
M  V30 6595 N 626.714 -0.118576 -1.57153 0
M  V30 6596 C 627.944 0.546466 -1.99242 0
M  V30 6597 C 628.352 1.60791 -0.997148 0
M  V30 6598 O 627.695 1.83691 0.0181745 0
M  V30 6599 C 627.757 1.23167 -3.37743 0
M  V30 6600 C 627.421 0.318226 -4.55891 0
M  V30 6601 C 628.418 -0.442988 -5.18009 0
M  V30 6602 C 626.103 0.229421 -5.01776 0
M  V30 6603 C 628.097 -1.28074 -6.244 0
M  V30 6604 C 625.784 -0.611966 -6.08028 0
M  V30 6605 C 626.782 -1.36568 -6.69207 0
M  V30 6606 O 626.47 -2.1931 -7.73407 0
M  V30 6607 H 626.202 0.149297 -0.659307 0
M  V30 6608 H 628.756 -0.201603 -2.04408 0
M  V30 6609 H 626.986 2.0268 -3.29329 0
M  V30 6610 H 628.675 1.79358 -3.64123 0
M  V30 6611 H 629.441 -0.38425 -4.83475 0
M  V30 6612 H 625.32 0.805771 -4.53903 0
M  V30 6613 H 628.864 -1.86952 -6.72082 0
M  V30 6614 H 624.761 -0.6721 -6.41991 0
M  V30 6615 H 625.529 -2.12247 -7.90502 0
M  V30 6616 N 628.193 1.56834 0.155195 0
M  V30 6617 C 629.103 2.009 1.21146 0
M  V30 6618 C 630.119 0.923029 1.475 0
M  V30 6619 O 631.295 1.23189 1.59331 0
M  V30 6620 C 628.36 2.37378 2.52691 0
M  V30 6621 C 627.421 3.59883 2.34057 0
M  V30 6622 C 626.654 3.94612 3.59329 0
M  V30 6623 O 626.877 3.30104 4.65175 0
M  V30 6624 O 625.811 4.87895 3.52479 0
M  V30 6625 H 629.637 2.9105 0.867371 0
M  V30 6626 H 627.222 1.44916 0.363298 0
M  V30 6627 H 629.104 2.61737 3.3026 0
M  V30 6628 H 627.779 1.50385 2.86646 0
M  V30 6629 H 626.686 3.40722 1.54465 0
M  V30 6630 H 628.019 4.47468 2.0502 0
M  V30 6631 N 629.671 -0.424282 1.51781 0
M  V30 6632 C 631.087 -0.761768 1.40247 0
M  V30 6633 C 631.287 -1.95324 0.495041 0
M  V30 6634 O 630.343 -2.5246 -0.0448949 0
M  V30 6635 C 631.656 -1.0299 2.82513 0
M  V30 6636 C 633.204 -1.13354 2.91753 0
M  V30 6637 C 633.679 -1.43453 4.34954 0
M  V30 6638 N 635.17 -1.5035 4.3812 0
M  V30 6639 C 635.905 -1.75236 5.45967 0
M  V30 6640 N 635.401 -1.97827 6.63955 0
M  V30 6641 N 637.194 -1.77126 5.33463 0
M  V30 6642 H 629.345 0.360228 2.09323 0
M  V30 6643 H 631.608 0.0988128 0.942836 0
M  V30 6644 H 631.314 -0.226961 3.50967 0
M  V30 6645 H 631.188 -1.95411 3.22637 0
M  V30 6646 H 633.575 -1.92709 2.23489 0
M  V30 6647 H 633.656 -0.188041 2.55108 0
M  V30 6648 H 633.3 -0.646209 5.03772 0
M  V30 6649 H 633.23 -2.3923 4.69123 0
M  V30 6650 H 635.721 -1.34742 3.53062 0
M  V30 6651 H 636.034 -2.16223 7.41935 0
M  V30 6652 H 634.379 -1.95123 6.67047 0
M  V30 6653 H 637.57 -1.59005 4.40267 0
M  V30 6654 H 637.743 -1.96182 6.17589 0
M  V30 6655 N 631.149 -1.42148 -0.680565 0
M  V30 6656 C 632.398 -1.41604 -1.43636 0
M  V30 6657 C 632.711 -0.0337887 -1.95571 0
M  V30 6658 O 633.917 0.0942588 -2.71336 0
M  V30 6659 C 632.373 -2.49056 -2.59806 0
M  V30 6660 C 631.981 -3.9326 -2.14594 0
M  V30 6661 C 633.725 -2.5767 -3.37352 0
M  V30 6662 C 631.632 -4.92232 -3.27813 0
M  V30 6663 H 630.562 -0.526656 -0.539583 0
M  V30 6664 H 633.213 -1.68033 -0.737369 0
M  V30 6665 H 631.595 -2.15782 -3.32045 0
M  V30 6666 H 632.769 -4.35858 -1.49546 0
M  V30 6667 H 631.084 -3.88443 -1.50002 0
M  V30 6668 H 633.681 -3.28794 -4.21662 0
M  V30 6669 H 634.024 -1.61837 -3.83555 0
M  V30 6670 H 634.557 -2.90109 -2.72179 0
M  V30 6671 H 631.296 -5.89522 -2.86607 0
M  V30 6672 H 630.816 -4.5427 -3.91661 0
M  V30 6673 H 632.495 -5.13684 -3.93367 0
M  V30 6674 N 632.627 0.916307 -1.28225 0
M  V30 6675 C 633.577 2.00488 -1.08574 0
M  V30 6676 C 634.561 1.60897 -0.0101874 0
M  V30 6677 O 635.753 1.75499 -0.230034 0
M  V30 6678 C 632.882 3.35076 -0.746943 0
M  V30 6679 C 631.968 3.81077 -1.86121 0
M  V30 6680 N 632.359 3.99475 -3.10247 0
M  V30 6681 C 630.657 4.10212 -1.75048 0
M  V30 6682 C 631.358 4.37965 -3.82834 0
M  V30 6683 N 630.334 4.4608 -3.10667 0
M  V30 6684 H 634.136 2.1276 -2.02757 0
M  V30 6685 H 631.65 1.10397 -1.19107 0
M  V30 6686 H 633.647 4.12743 -0.587252 0
M  V30 6687 H 632.307 3.2416 0.187146 0
M  V30 6688 H 633.318 3.85466 -3.45885 0
M  V30 6689 H 629.995 4.07947 -0.887999 0
M  V30 6690 H 631.385 4.60183 -4.89572 0
M  V30 6691 N 634.105 1.10431 1.1244 0
M  V30 6692 C 635.052 0.753103 2.18167 0
M  V30 6693 C 636.022 -0.270549 1.63882 0
M  V30 6694 O 637.207 -0.149837 1.90211 0
M  V30 6695 C 634.347 0.191046 3.44571 0
M  V30 6696 C 633.46 1.26999 4.12911 0
M  V30 6697 C 632.595 0.669586 5.26963 0
M  V30 6698 C 631.634 1.72912 5.87169 0
M  V30 6699 N 630.771 1.14898 6.92635 0
M  V30 6700 H 635.611 1.65892 2.47556 0
M  V30 6701 H 633.148 0.828631 1.21541 0
M  V30 6702 H 635.106 -0.152712 4.1692 0
M  V30 6703 H 633.736 -0.677997 3.15599 0
M  V30 6704 H 632.788 1.73087 3.3874 0
M  V30 6705 H 634.1 2.07204 4.53727 0
M  V30 6706 H 633.254 0.275274 6.06075 0
M  V30 6707 H 631.993 -0.163895 4.87425 0
M  V30 6708 H 630.998 2.13286 5.06744 0
M  V30 6709 H 632.223 2.56544 6.28778 0
M  V30 6710 H 630.169 0.336956 6.55134 0
M  V30 6711 H 630.086 1.88786 7.32049 0
M  V30 6712 H 631.354 0.78121 7.75576 0
M  V30 6713 N 635.583 -1.29855 0.893053 0
M  V30 6714 C 636.53 -2.27909 0.364161 0
M  V30 6715 C 637.5 -1.56726 -0.550093 0
M  V30 6716 O 638.685 -1.84747 -0.47677 0
M  V30 6717 C 635.825 -3.42678 -0.408178 0
M  V30 6718 C 634.938 -4.28659 0.536212 0
M  V30 6719 C 634.073 -5.30599 -0.252521 0
M  V30 6720 C 633.112 -6.08234 0.686822 0
M  V30 6721 N 632.249 -7.02068 -0.0670902 0
M  V30 6722 H 637.089 -2.72531 1.20544 0
M  V30 6723 H 634.626 -1.34047 0.605779 0
M  V30 6724 H 636.584 -4.07986 -0.871962 0
M  V30 6725 H 635.214 -2.99103 -1.21397 0
M  V30 6726 H 634.266 -3.63584 1.1185 0
M  V30 6727 H 635.578 -4.8274 1.25552 0
M  V30 6728 H 634.732 -6.01694 -0.777801 0
M  V30 6729 H 633.471 -4.77233 -1.005 0
M  V30 6730 H 632.476 -5.3601 1.22366 0
M  V30 6731 H 633.701 -6.63689 1.43852 0
M  V30 6732 H 631.647 -6.5108 -0.801955 0
M  V30 6733 H 631.564 -7.53675 0.59243 0
M  V30 6734 H 632.832 -7.77392 -0.572851 0
M  V30 6735 N 637.061 -0.65484 -1.43351 0
M  V30 6736 C 637.994 0.0855537 -2.2804 0
M  V30 6737 C 638.972 0.828301 -1.39921 0
M  V30 6738 O 640.156 0.827539 -1.69364 0
M  V30 6739 C 637.283 1.12792 -3.19368 0
M  V30 6740 C 636.329 0.483037 -4.23756 0
M  V30 6741 S 637.162 -0.744605 -5.30298 0
M  V30 6742 C 638.318 0.297187 -6.25194 0
M  V30 6743 H 638.551 -0.632831 -2.90487 0
M  V30 6744 H 636.084 -0.44373 -1.47886 0
M  V30 6745 H 638.042 1.7243 -3.72529 0
M  V30 6746 H 636.703 1.81863 -2.56095 0
M  V30 6747 H 635.896 1.26888 -4.87766 0
M  V30 6748 H 635.498 -0.0392713 -3.73979 0
M  V30 6749 H 637.79 1.1629 -6.67445 0
M  V30 6750 H 638.733 -0.30793 -7.0743 0
M  V30 6751 H 639.141 0.633721 -5.60932 0
M  V30 6752 N 638.539 1.52521 -0.396863 0
M  V30 6753 C 639.469 2.29582 0.425941 0
M  V30 6754 C 640.45 1.33281 1.05689 0
M  V30 6755 O 641.635 1.62181 1.06823 0
M  V30 6756 C 638.765 3.10821 1.54943 0
M  V30 6757 C 637.719 4.15069 1.04413 0
M  V30 6758 C 637.045 4.84578 2.26028 0
M  V30 6759 C 638.345 5.22191 0.106767 0
M  V30 6760 H 640.039 2.98612 -0.217045 0
M  V30 6761 H 637.585 1.43611 -0.105826 0
M  V30 6762 H 639.538 3.63492 2.13193 0
M  V30 6763 H 638.262 2.39538 2.22011 0
M  V30 6764 H 636.921 3.63389 0.484118 0
M  V30 6765 H 636.569 4.09835 2.91623 0
M  V30 6766 H 636.269 5.55043 1.92876 0
M  V30 6767 H 637.793 5.40056 2.84906 0
M  V30 6768 H 639.207 5.70176 0.597685 0
M  V30 6769 H 637.604 5.99947 -0.135352 0
M  V30 6770 H 638.674 4.77531 -0.842134 0
M  V30 6771 N 640.017 0.126909 1.57088 0
M  V30 6772 C 640.964 -0.82036 2.15728 0
M  V30 6773 C 641.934 -1.25811 1.08447 0
M  V30 6774 O 643.119 -1.33422 1.36393 0
M  V30 6775 C 640.259 -2.06199 2.76724 0
M  V30 6776 C 639.372 -1.67188 3.98337 0
M  V30 6777 C 638.507 -2.86378 4.47393 0
M  V30 6778 C 637.546 -2.43644 5.61519 0
M  V30 6779 N 636.683 -3.55775 6.05284 0
M  V30 6780 H 641.523 -0.313472 2.96347 0
M  V30 6781 H 639.06 -0.14303 1.46403 0
M  V30 6782 H 641.018 -2.78959 3.10222 0
M  V30 6783 H 639.648 -2.54333 1.98782 0
M  V30 6784 H 638.7 -0.842714 3.70948 0
M  V30 6785 H 640.012 -1.31789 4.81075 0
M  V30 6786 H 639.166 -3.67353 4.82842 0
M  V30 6787 H 637.905 -3.25009 3.63621 0
M  V30 6788 H 636.91 -1.61104 5.25667 0
M  V30 6789 H 638.135 -2.06122 6.47063 0
M  V30 6790 H 636.081 -3.94065 5.24451 0
M  V30 6791 H 635.998 -3.24325 6.82898 0
M  V30 6792 H 637.266 -4.37166 6.45373 0
M  V30 6793 N 641.495 -1.56914 -0.146875 0
M  V30 6794 C 642.906 -1.72799 -0.706928 0
M  V30 6795 C 643.257 -0.741329 -1.81656 0
M  V30 6796 O 642.382 0.0920162 -2.16204 0
M  V30 6797 C 642.977 -3.13317 -1.28911 0
M  V30 6798 C 641.536 -3.30803 -1.79573 0
M  V30 6799 C 640.683 -2.68725 -0.684252 0
M  V30 6800 H 643.634 -1.58504 0.0787931 0
M  V30 6801 H 643.655 -3.13323 -2.15891 0
M  V30 6802 H 643.167 -3.85104 -0.481284 0
M  V30 6803 H 641.268 -2.64012 -2.62923 0
M  V30 6804 H 641.381 -4.38754 -1.92436 0
M  V30 6805 H 639.745 -2.29196 -1.11091 0
M  V30 6806 H 640.528 -3.43117 0.112134 0
M  V30 6807 N 642.974 0.416227 -1.52004 0
M  V30 6808 C 643.937 1.48926 -1.74223 0
M  V30 6809 C 644.937 1.48693 -0.612119 0
M  V30 6810 O 646.127 1.50343 -0.879921 0
M  V30 6811 C 643.259 2.88372 -1.81809 0
M  V30 6812 H 644.452 1.3052 -2.70008 0
M  V30 6813 H 642.005 0.646271 -1.42313 0
M  V30 6814 H 642.74 3.12157 -0.879135 0
M  V30 6815 H 642.525 2.89944 -2.6396 0
M  V30 6816 H 644.015 3.66173 -2.00766 0
M  V30 6817 N 644.452 1.42507 0.673017 0
M  V30 6818 C 645.699 1.43072 1.43306 0
M  V30 6819 C 646.027 0.0478004 1.94441 0
M  V30 6820 O 645.282 -0.944106 1.71421 0
M  V30 6821 C 645.581 2.40351 2.64511 0
M  V30 6822 C 645.247 3.8669 2.31908 0
M  V30 6823 C 643.909 4.26551 2.22728 0
M  V30 6824 C 646.261 4.78991 2.05467 0
M  V30 6825 C 643.589 5.56691 1.85234 0
M  V30 6826 C 645.941 6.09476 1.69477 0
M  V30 6827 C 644.605 6.48334 1.58808 0
M  V30 6828 H 643.875 0.523536 0.524395 0
M  V30 6829 H 646.522 1.75459 0.76723 0
M  V30 6830 H 644.827 2.01297 3.36135 0
M  V30 6831 H 646.524 2.38051 3.22696 0
M  V30 6832 H 643.114 3.55132 2.39956 0
M  V30 6833 H 647.298 4.48982 2.11492 0
M  V30 6834 H 642.554 5.85657 1.75545 0
M  V30 6835 H 646.728 6.80482 1.48043 0
M  V30 6836 H 644.355 7.49084 1.29525 0
M  V30 6837 N 645.93 -0.909495 1.28709 0
M  V30 6838 C 647.179 -1.65365 1.15487 0
M  V30 6839 C 647.492 -1.93364 -0.294941 0
M  V30 6840 O 648.698 -2.65905 -0.548338 0
M  V30 6841 C 647.154 -2.97923 2.01916 0
M  V30 6842 C 646.762 -2.77556 3.51663 0
M  V30 6843 C 648.506 -3.75814 1.97393 0
M  V30 6844 C 646.413 -4.0578 4.30229 0
M  V30 6845 H 645.343 -0.620323 0.42862 0
M  V30 6846 H 647.994 -1.00894 1.53273 0
M  V30 6847 H 646.376 -3.63552 1.5699 0
M  V30 6848 H 647.55 -2.2058 4.04575 0
M  V30 6849 H 645.865 -2.13072 3.57756 0
M  V30 6850 H 648.462 -4.70866 2.53357 0
M  V30 6851 H 648.805 -4.05277 0.951643 0
M  V30 6852 H 649.338 -3.1701 2.40311 0
M  V30 6853 H 646.077 -3.81488 5.33055 0
M  V30 6854 H 645.597 -4.62351 3.82089 0
M  V30 6855 H 647.276 -4.74004 4.40374 0
M  V30 6856 N 647.408 -1.11026 -1.11852 0
M  V30 6857 C 648.655 -0.85646 -1.83497 0
M  V30 6858 C 648.983 0.617938 -1.84423 0
M  V30 6859 O 648.238 1.47194 -1.28966 0
M  V30 6860 C 648.537 -1.35777 -3.30604 0
M  V30 6861 C 648.203 -2.84465 -3.49843 0
M  V30 6862 C 646.865 -3.25068 -3.54802 0
M  V30 6863 C 649.217 -3.80251 -3.56453 0
M  V30 6864 C 646.545 -4.60194 -3.63921 0
M  V30 6865 C 648.897 -5.15188 -3.67102 0
M  V30 6866 C 647.561 -5.55356 -3.70319 0
M  V30 6867 H 646.831 -0.313401 -0.671462 0
M  V30 6868 H 649.478 -1.38792 -1.31943 0
M  V30 6869 H 647.783 -0.746455 -3.84624 0
M  V30 6870 H 649.48 -1.13779 -3.8452 0
M  V30 6871 H 646.07 -2.52054 -3.46651 0
M  V30 6872 H 650.254 -3.49986 -3.51886 0
M  V30 6873 H 645.51 -4.90728 -3.64686 0
M  V30 6874 H 649.684 -5.89248 -3.71159 0
M  V30 6875 H 647.311 -6.60054 -3.77138 0
M  V30 6876 N 648.886 1.2938 -0.899927 0
M  V30 6877 C 650.163 1.9046 -0.445443 0
M  V30 6878 C 650.543 1.81683 1.07492 0
M  V30 6879 O 649.891 1.24371 1.91688 0
M  V30 6880 C 650.101 3.35529 -0.960279 0
M  V30 6881 C 651.449 4.12556 -1.00412 0
M  V30 6882 O 652.473 3.44434 -0.907965 0
M  V30 6883 O 651.332 5.34294 -1.14857 0
M  V30 6884 H 648.426 0.815253 -0.138893 0
M  V30 6885 H 650.972 1.37844 -0.989808 0
M  V30 6886 H 649.744 3.36074 -2.00425 0
M  V30 6887 H 649.367 3.95624 -0.395939 0
M  V30 6888 N 650.364 0.662433 1.43002 0
M  V30 6889 C 651.612 0.179237 2.01304 0
M  V30 6890 C 651.933 -1.21428 1.52579 0
M  V30 6891 O 651.203 -1.81294 0.742252 0
M  V30 6892 H 649.783 0.0632725 0.744316 0
M  V30 6893 H 652.445 0.856169 1.75088 0
M  V30 6894 H 651.541 0.170957 3.11631 0
M  V30 6895 N 651.842 -1.52309 0.404946 0
M  V30 6896 C 653.258 -1.59503 0.0556255 0
M  V30 6897 C 653.458 -1.41805 -1.43156 0
M  V30 6898 O 652.514 -1.2429 -2.19792 0
M  V30 6899 C 653.827 -2.95687 0.546801 0
M  V30 6900 C 655.375 -3.08909 0.504413 0
M  V30 6901 C 655.85 -4.47566 0.97203 0
M  V30 6902 N 657.341 -4.53795 0.928679 0
M  V30 6903 C 658.076 -5.59346 1.26174 0
M  V30 6904 N 657.572 -6.72469 1.66604 0
M  V30 6905 N 659.365 -5.49532 1.18198 0
M  V30 6906 H 651.516 -1.6206 1.37296 0
M  V30 6907 H 653.779 -0.762161 0.563751 0
M  V30 6908 H 653.485 -3.13905 1.58609 0
M  V30 6909 H 653.359 -3.77172 -0.0457905 0
M  V30 6910 H 655.746 -2.90378 -0.525819 0
M  V30 6911 H 655.827 -2.2934 1.13301 0
M  V30 6912 H 655.471 -4.6684 2.00057 0
M  V30 6913 H 655.401 -5.25625 0.320292 0
M  V30 6914 H 657.892 -3.72588 0.631369 0
M  V30 6915 H 658.205 -7.48993 1.9034 0
M  V30 6916 H 656.55 -6.73761 1.70504 0
M  V30 6917 H 659.741 -4.60038 0.865011 0
M  V30 6918 H 659.914 -6.31687 1.44485 0
M  V30 6919 N 653.32 -0.135238 -1.57019 0
M  V30 6920 C 654.736 0.221262 -1.58059 0
M  V30 6921 C 654.936 1.65538 -1.14889 0
M  V30 6922 O 653.992 2.37985 -0.843751 0
M  V30 6923 C 655.305 -0.0268114 -3.00688 0
M  V30 6924 C 656.853 0.0378206 -3.12977 0
M  V30 6925 C 657.328 -0.182769 -4.57635 0
M  V30 6926 N 658.819 -0.129292 -4.6302 0
M  V30 6927 C 659.554 -0.274648 -5.72742 0
M  V30 6928 N 659.05 -0.477075 -6.91155 0
M  V30 6929 N 660.843 -0.213077 -5.61696 0
M  V30 6930 H 652.994 -1.07177 -1.83376 0
M  V30 6931 H 655.257 -0.423338 -0.848227 0
M  V30 6932 H 654.963 -1.01889 -3.36618 0
M  V30 6933 H 654.837 0.697863 -3.70688 0
M  V30 6934 H 657.224 1.02043 -2.76896 0
M  V30 6935 H 657.305 -0.718996 -2.45487 0
M  V30 6936 H 656.949 -1.16243 -4.94419 0
M  V30 6937 H 656.879 0.59423 -5.23237 0
M  V30 6938 H 659.37 0.0229896 -3.77893 0
M  V30 6939 H 659.683 -0.578413 -7.70632 0
M  V30 6940 H 658.028 -0.513252 -6.93102 0
M  V30 6941 H 661.219 -0.0557796 -4.68067 0
M  V30 6942 H 661.392 -0.329796 -6.4716 0
M  V30 6943 N 654.798 1.5699 0.138552 0
M  V30 6944 C 656.044 1.84081 0.85099 0
M  V30 6945 C 656.377 0.718107 1.80435 0
M  V30 6946 O 655.652 -0.277633 1.92508 0
M  V30 6947 C 655.935 3.21699 1.61808 0
M  V30 6948 C 655.788 4.44544 0.685633 0
M  V30 6949 C 657.107 3.5664 2.57868 0
M  V30 6950 H 654.226 0.669592 0.307922 0
M  V30 6951 H 656.868 1.89646 0.11588 0
M  V30 6952 H 655.018 3.17086 2.24474 0
M  V30 6953 H 656.69 4.61248 0.0693179 0
M  V30 6954 H 654.933 4.338 -0.00421993 0
M  V30 6955 H 655.604 5.3746 1.25858 0
M  V30 6956 H 658.08 3.61918 2.05316 0
M  V30 6957 H 656.956 4.53946 3.08584 0
M  V30 6958 H 657.217 2.83036 3.39622 0
M  V30 6959 N 656.276 -0.40816 1.52223 0
M  V30 6960 C 657.206 -1.5042 1.78595 0
M  V30 6961 C 658.187 -1.57723 0.636974 0
M  V30 6962 O 659.372 -1.72982 0.882664 0
M  V30 6963 C 656.502 -2.88232 1.93751 0
M  V30 6964 C 655.456 -2.95779 3.09352 0
M  V30 6965 C 654.782 -4.35855 3.09732 0
M  V30 6966 C 656.082 -2.67175 4.48793 0
M  V30 6967 H 657.776 -1.28601 2.70374 0
M  V30 6968 H 655.322 -0.617221 1.30101 0
M  V30 6969 H 657.275 -3.64895 2.10783 0
M  V30 6970 H 655.999 -3.11347 0.986443 0
M  V30 6971 H 654.658 -2.21561 2.92072 0
M  V30 6972 H 654.306 -4.55981 2.12346 0
M  V30 6973 H 654.006 -4.41829 3.87377 0
M  V30 6974 H 655.53 -5.14451 3.28895 0
M  V30 6975 H 656.944 -3.3356 4.66273 0
M  V30 6976 H 655.341 -2.84523 5.28362 0
M  V30 6977 H 656.411 -1.62609 4.56822 0
M  V30 6978 N 657.755 -1.42862 -0.66545 0
M  V30 6979 C 659.032 -1.3431 -1.42197 0
M  V30 6980 C 659.412 0.0150265 -2.11095 0
M  V30 6981 O 658.76 1.03101 -2.03918 0
M  V30 6982 C 658.97 -2.51783 -2.41674 0
M  V30 6983 C 660.318 -2.94321 -3.0604 0
M  V30 6984 O 661.342 -2.51741 -2.52001 0
M  V30 6985 O 660.201 -3.68047 -4.03985 0
M  V30 6986 H 657.295 -0.530159 -0.634713 0
M  V30 6987 H 659.841 -1.54888 -0.693386 0
M  V30 6988 H 658.613 -3.42282 -1.89627 0
M  V30 6989 H 658.236 -2.33241 -3.22001 0
M  V30 6990 N 659.233 0.902656 -1.29189 0
M  V30 6991 C 660.481 1.6496 -1.16758 0
M  V30 6992 C 660.802 1.92952 0.28188 0
M  V30 6993 O 660.072 1.55351 1.19344 0
M  V30 6994 H 658.652 0.611447 -0.429118 0
M  V30 6995 H 661.314 1.0825 -1.62074 0
M  V30 6996 H 660.41 2.60728 -1.71544 0
M  V30 6997 N 660.711 1.11618 1.11262 0
M  V30 6998 C 661.641 0.79846 2.19424 0
M  V30 6999 C 662.622 -0.234003 1.68483 0
M  V30 7000 O 663.807 -0.0970704 1.93957 0
M  V30 7001 C 660.937 0.242892 3.4645 0
M  V30 7002 C 659.891 1.20744 4.10615 0
M  V30 7003 C 659.217 0.512494 5.32238 0
M  V30 7004 C 660.517 2.55884 4.55325 0
M  V30 7005 H 662.211 1.70286 2.46258 0
M  V30 7006 H 659.757 0.820195 1.18359 0
M  V30 7007 H 661.71 0.00840447 4.21399 0
M  V30 7008 H 660.434 -0.696811 3.1908 0
M  V30 7009 H 659.093 1.42759 3.37662 0
M  V30 7010 H 658.741 -0.432075 5.01141 0
M  V30 7011 H 658.441 1.15583 5.7612 0
M  V30 7012 H 659.965 0.286842 6.09926 0
M  V30 7013 H 661.379 2.37946 5.21588 0
M  V30 7014 H 659.776 3.16216 5.10027 0
M  V30 7015 H 660.846 3.14968 3.68678 0
M  V30 7016 N 662.189 -1.289 0.906776 0
M  V30 7017 C 663.139 -2.25122 0.361109 0
M  V30 7018 C 664.123 -1.52169 -0.52283 0
M  V30 7019 O 665.315 -1.73223 -0.363691 0
M  V30 7020 C 662.444 -3.40915 -0.403982 0
M  V30 7021 C 661.53 -4.21198 0.495279 0
M  V30 7022 N 661.921 -4.79636 1.60572 0
M  V30 7023 C 660.219 -4.45027 0.294372 0
M  V30 7024 C 660.92 -5.39977 2.16332 0
M  V30 7025 N 659.896 -5.23753 1.45546 0
M  V30 7026 H 663.698 -2.67869 1.20927 0
M  V30 7027 H 661.212 -1.43592 0.758632 0
M  V30 7028 H 663.209 -4.08922 -0.811695 0
M  V30 7029 H 661.869 -2.99703 -1.24932 0
M  V30 7030 H 662.88 -4.78209 1.98838 0
M  V30 7031 H 659.557 -4.14348 -0.512021 0
M  V30 7032 H 660.947 -5.96266 3.09704 0
M  V30 7033 N 663.667 -0.670007 -1.42649 0
M  V30 7034 C 664.615 0.0230106 -2.32589 0
M  V30 7035 C 665.609 0.795585 -1.49555 0
M  V30 7036 O 666.815 0.70409 -1.65658 0
M  V30 7037 H 663.19 0.0262342 -0.751542 0
M  V30 7038 H 665.161 -0.753009 -2.88743 0
M  V30 7039 C 663.91 0.963872 -3.34073 0
M  V30 7040 H 663.233 0.378813 -3.98001 0
M  V30 7041 H 664.673 1.41755 -3.99602 0
M  V30 7042 C 663.132 2.06797 -2.65964 0
M  V30 7043 O 663.662 3.15383 -2.48789 0
M  V30 7044 N 661.868 1.83831 -2.25066 0
M  V30 7045 H 661.415 0.955235 -2.39234 0
M  V30 7046 H 661.373 2.57895 -1.79827 0
M  V30 7047 N 665.145 1.52092 -0.413018 0
M  V30 7048 C 666.055 2.30858 0.417318 0
M  V30 7049 C 667.071 1.38746 1.05003 0
M  V30 7050 O 668.247 1.71821 1.05069 0
M  V30 7051 C 665.312 3.11756 1.51687 0
M  V30 7052 C 664.373 4.19613 0.906825 0
M  V30 7053 C 663.606 4.96644 1.95399 0
M  V30 7054 O 663.829 4.7402 3.17271 0
M  V30 7055 O 662.763 5.81385 1.55805 0
M  V30 7056 H 666.589 3.02865 -0.225028 0
M  V30 7057 H 664.174 1.48358 -0.176126 0
M  V30 7058 H 666.056 3.62122 2.15512 0
M  V30 7059 H 664.731 2.42539 2.14375 0
M  V30 7060 H 663.638 3.73385 0.231183 0
M  V30 7061 H 664.971 4.91134 0.323814 0
M  V30 7062 N 666.623 0.143563 1.56945 0
M  V30 7063 C 667.553 -0.7936 2.196 0
M  V30 7064 C 668.534 -1.25955 1.14321 0
M  V30 7065 O 669.719 -1.31773 1.42651 0
M  V30 7066 C 666.849 -2.03424 2.81489 0
M  V30 7067 C 665.803 -1.70519 3.92565 0
M  V30 7068 C 665.129 -3.01817 4.41373 0
M  V30 7069 C 666.429 -0.95449 5.13504 0
M  V30 7070 H 668.123 -0.271423 2.98167 0
M  V30 7071 H 665.669 -0.12911 1.4342 0
M  V30 7072 H 667.622 -2.69463 3.23987 0
M  V30 7073 H 666.346 -2.58008 2.00248 0
M  V30 7074 H 665.005 -1.06859 3.5068 0
M  V30 7075 H 664.653 -3.54386 3.56959 0
M  V30 7076 H 664.353 -2.80565 5.16292 0
M  V30 7077 H 665.877 -3.68934 4.86539 0
M  V30 7078 H 667.291 -1.5169 5.52868 0
M  V30 7079 H 665.688 -0.842035 5.94163 0
M  V30 7080 H 666.758 0.0544033 4.84869 0
M  V30 7081 N 668.101 -1.57061 -0.130224 0
M  V30 7082 C 669.033 -1.96147 -1.18571 0
M  V30 7083 C 670.046 -0.859347 -1.38272 0
M  V30 7084 O 671.235 -1.13769 -1.37545 0
M  V30 7085 C 668.335 -2.23484 -2.54771 0
M  V30 7086 C 667.508 -3.54786 -2.55824 0
M  V30 7087 C 666.567 -3.70467 -3.73686 0
M  V30 7088 O 665.593 -4.42693 -3.57787 0
M  V30 7089 N 666.795 -3.08389 -4.91809 0
M  V30 7090 H 669.56 -2.87295 -0.853333 0
M  V30 7091 H 667.121 -1.58714 -0.319621 0
M  V30 7092 H 669.113 -2.312 -3.32158 0
M  V30 7093 H 667.683 -1.38518 -2.80235 0
M  V30 7094 H 666.903 -3.5836 -1.64232 0
M  V30 7095 H 668.191 -4.4111 -2.53573 0
M  V30 7096 H 667.589 -2.49656 -5.0763 0
M  V30 7097 H 666.146 -3.21642 -5.66912 0
M  V30 7098 N 669.579 0.400081 -1.52437 0
M  V30 7099 C 670.807 1.16768 -1.70801 0
M  V30 7100 C 671.222 1.84036 -0.421462 0
M  V30 7101 O 670.579 1.72242 0.603228 0
M  V30 7102 C 670.63 2.22403 -2.8499 0
M  V30 7103 O 670.351 1.57879 -4.08663 0
M  V30 7104 C 671.852 3.11974 -3.1494 0
M  V30 7105 H 669.072 0.350533 -0.57216 0
M  V30 7106 H 671.616 0.469534 -1.99037 0
M  V30 7107 H 669.771 2.87871 -2.59247 0
M  V30 7108 H 670.185 2.27982 -4.7236 0
M  V30 7109 H 671.659 3.82148 -3.9833 0
M  V30 7110 H 672.136 3.74858 -2.28863 0
M  V30 7111 H 672.742 2.52165 -3.42481 0
M  V30 7112 N 671.057 1.43213 0.657864 0
M  V30 7113 C 672.306 1.43871 1.41365 0
M  V30 7114 C 672.619 0.064898 1.95492 0
M  V30 7115 O 673.825 -0.0510796 2.71452 0
M  V30 7116 C 672.281 2.53158 2.55811 0
M  V30 7117 C 671.889 3.96624 2.08311 0
M  V30 7118 C 673.633 2.63004 3.3321 0
M  V30 7119 C 671.54 4.97385 3.1994 0
M  V30 7120 H 670.47 0.535174 0.531136 0
M  V30 7121 H 673.121 1.69185 0.710543 0
M  V30 7122 H 671.503 2.21037 3.2857 0
M  V30 7123 H 672.677 4.38182 1.42593 0
M  V30 7124 H 670.992 3.90781 1.43804 0
M  V30 7125 H 673.589 3.3546 4.16378 0
M  V30 7126 H 673.932 1.67918 3.80932 0
M  V30 7127 H 674.465 2.94403 2.67529 0
M  V30 7128 H 671.204 5.94007 2.77192 0
M  V30 7129 H 670.724 4.60444 3.84385 0
M  V30 7130 H 672.403 5.19877 3.85145 0
M  V30 7131 N 672.536 -0.895792 1.29666 0
M  V30 7132 C 673.784 -1.64339 1.17631 0
M  V30 7133 C 674.105 -1.93099 -0.271643 0
M  V30 7134 O 673.375 -1.55981 -1.18518 0
M  V30 7135 H 671.955 -0.609162 0.432354 0
M  V30 7136 H 674.617 -1.07389 1.62646 0
M  V30 7137 H 673.713 -2.59815 1.72924 0
M  V30 7138 N 674.014 -1.12206 -1.10668 0
M  V30 7139 C 675.261 -0.875875 -1.82578 0
M  V30 7140 C 675.589 0.598342 -1.85068 0
M  V30 7141 O 674.844 1.45818 -1.3052 0
M  V30 7142 C 675.143 -1.39276 -3.29146 0
M  V30 7143 C 674.809 -2.8816 -3.46806 0
M  V30 7144 C 673.471 -3.28813 -3.51334 0
M  V30 7145 C 675.823 -3.8401 -3.52399 0
M  V30 7146 C 673.151 -4.64028 -3.59019 0
M  V30 7147 C 675.503 -5.19053 -3.61617 0
M  V30 7148 C 674.167 -5.59252 -3.64408 0
M  V30 7149 H 673.437 -0.320505 -0.6681 0
M  V30 7150 H 676.084 -1.40184 -1.30464 0
M  V30 7151 H 674.389 -0.787207 -3.8381 0
M  V30 7152 H 676.086 -1.17851 -3.83291 0
M  V30 7153 H 672.676 -2.55716 -3.43958 0
M  V30 7154 H 676.86 -3.53698 -3.48154 0
M  V30 7155 H 672.116 -4.94568 -3.59461 0
M  V30 7156 H 676.29 -5.93152 -3.64889 0
M  V30 7157 H 673.917 -6.64017 -3.70116 0
M  V30 7158 N 675.492 1.28418 -0.913599 0
M  V30 7159 C 676.424 2.26368 -0.359169 0
M  V30 7160 C 677.437 1.54858 0.502285 0
M  V30 7161 O 678.626 1.75659 0.31719 0
M  V30 7162 C 675.726 3.35112 0.50526 0
M  V30 7163 C 674.899 4.36126 -0.333648 0
M  V30 7164 C 673.958 5.24134 0.465845 0
M  V30 7165 O 672.984 5.6907 -0.121538 0
M  V30 7166 N 674.186 5.52892 1.76891 0
M  V30 7167 H 676.951 2.74579 -1.2011 0
M  V30 7168 H 674.512 1.41898 -0.779532 0
M  V30 7169 H 676.504 3.90926 1.04684 0
M  V30 7170 H 675.074 2.86611 1.2479 0
M  V30 7171 H 674.294 3.79776 -1.0566 0
M  V30 7172 H 675.582 5.00638 -0.907669 0
M  V30 7173 H 674.98 5.18217 2.26865 0
M  V30 7174 H 673.537 6.11464 2.25732 0
M  V30 7175 N 676.97 0.677563 1.42291 0
M  V30 7176 C 678.219 0.198173 2.00724 0
M  V30 7177 C 678.532 -1.20325 1.54211 0
M  V30 7178 O 679.738 -1.77916 2.05081 0
M  V30 7179 C 678.194 0.303432 3.58619 0
M  V30 7180 C 677.802 1.70909 4.14119 0
M  V30 7181 C 679.546 -0.117103 4.24338 0
M  V30 7182 C 677.453 1.76696 5.64387 0
M  V30 7183 H 676.383 0.070329 0.750713 0
M  V30 7184 H 679.034 0.843147 1.62982 0
M  V30 7185 H 677.416 -0.409482 3.93877 0
M  V30 7186 H 678.59 2.44931 3.90315 0
M  V30 7187 H 676.905 2.07771 3.6086 0
M  V30 7188 H 679.502 -0.0940471 5.34617 0
M  V30 7189 H 679.845 -1.15283 4.00019 0
M  V30 7190 H 680.378 0.5449 3.9405 0
M  V30 7191 H 677.117 2.7826 5.93508 0
M  V30 7192 H 676.637 1.07034 5.90173 0
M  V30 7193 H 678.316 1.52166 6.28852 0
M  V30 7194 N 678.448 -1.51871 0.421078 0
M  V30 7195 C 679.358 -2.31077 -0.405069 0
M  V30 7196 C 680.374 -1.39301 -1.04265 0
M  V30 7197 O 681.55 -1.72376 -1.04157 0
M  V30 7198 C 678.615 -3.12556 -1.50032 0
M  V30 7199 C 677.676 -4.20088 -0.884559 0
M  V30 7200 C 676.909 -4.97673 -1.92762 0
M  V30 7201 O 677.132 -4.75696 -3.14753 0
M  V30 7202 O 676.066 -5.82203 -1.52719 0
M  V30 7203 H 679.892 -3.02742 0.241086 0
M  V30 7204 H 677.477 -1.48263 0.183991 0
M  V30 7205 H 679.359 -3.6326 -2.13589 0
M  V30 7206 H 678.034 -2.43672 -2.13086 0
M  V30 7207 H 676.941 -3.73502 -0.211379 0
M  V30 7208 H 678.274 -4.91298 -0.297763 0
M  V30 7209 N 679.926 -0.151884 -1.56866 0
M  V30 7210 C 681.154 0.504813 -2.00647 0
M  V30 7211 C 681.569 1.58098 -1.03201 0
M  V30 7212 O 680.926 1.82476 -0.0297814 0
M  V30 7213 C 680.977 1.10099 -3.44326 0
M  V30 7214 O 680.698 0.0678021 -4.38048 0
M  V30 7215 C 682.199 1.83782 -4.03409 0
M  V30 7216 H 679.419 0.130989 -0.65809 0
M  V30 7217 H 681.963 -0.247903 -2.02992 0
M  V30 7218 H 680.118 1.8043 -3.42817 0
M  V30 7219 H 680.532 0.505237 -5.22061 0
M  V30 7220 H 682.006 2.2078 -5.05925 0
M  V30 7221 H 682.483 2.72557 -3.44397 0
M  V30 7222 H 683.089 1.18138 -4.08563 0
M  V30 7223 N 681.404 1.57128 0.121893 0
M  V30 7224 C 682.653 1.83888 0.828748 0
M  V30 7225 C 682.966 0.737087 1.81181 0
M  V30 7226 O 684.172 0.891007 2.56463 0
M  V30 7227 C 682.628 3.26014 1.52455 0
M  V30 7228 C 682.236 4.44195 0.58263 0
M  V30 7229 C 683.98 3.62025 2.21671 0
M  V30 7230 C 681.887 5.77349 1.28149 0
M  V30 7231 H 680.817 0.685856 0.313238 0
M  V30 7232 H 683.468 1.83319 0.0814851 0
M  V30 7233 H 681.85 3.21044 2.31834 0
M  V30 7234 H 683.024 4.60457 -0.177729 0
M  V30 7235 H 681.339 4.164 -0.00241228 0
M  V30 7236 H 683.936 4.58776 2.74643 0
M  V30 7237 H 684.279 2.89315 2.99337 0
M  V30 7238 H 684.812 3.68767 1.49184 0
M  V30 7239 H 681.551 6.53221 0.546189 0
M  V30 7240 H 681.071 5.64978 2.01394 0
M  V30 7241 H 682.75 6.21006 1.81549 0
M  V30 7242 N 682.882 -0.391992 1.52647 0
M  V30 7243 C 684.13 -1.13507 1.67214 0
M  V30 7244 C 684.451 -1.90575 0.41304 0
M  V30 7245 O 683.721 -1.87348 -0.572498 0
M  V30 7246 H 682.301 -0.422013 0.616372 0
M  V30 7247 H 684.963 -0.44502 1.89751 0
M  V30 7248 H 684.059 -1.83964 2.52118 0
M  V30 7249 N 684.36 -1.4356 -0.65026 0
M  V30 7250 C 685.307 -1.48948 -1.76304 0
M  V30 7251 C 686.277 -0.338919 -1.62605 0
M  V30 7252 O 687.462 -0.54649 -1.82806 0
M  V30 7253 C 684.602 -1.42131 -3.14472 0
M  V30 7254 C 683.715 -2.67415 -3.39284 0
M  V30 7255 C 682.85 -2.52565 -4.67316 0
M  V30 7256 C 681.889 -3.73103 -4.85243 0
M  V30 7257 N 681.026 -3.57046 -6.04535 0
M  V30 7258 H 685.866 -2.44032 -1.71034 0
M  V30 7259 H 683.403 -1.21131 -0.834601 0
M  V30 7260 H 685.361 -1.36172 -3.94351 0
M  V30 7261 H 683.991 -0.506273 -3.18805 0
M  V30 7262 H 683.043 -2.8364 -2.53481 0
M  V30 7263 H 684.355 -3.56943 -3.48415 0
M  V30 7264 H 683.509 -2.44331 -5.55326 0
M  V30 7265 H 682.248 -1.60566 -4.60511 0
M  V30 7266 H 681.253 -3.81743 -3.95667 0
M  V30 7267 H 682.478 -4.66115 -4.93876 0
M  V30 7268 H 680.424 -2.67783 -5.98856 0
M  V30 7269 H 680.341 -4.40178 -6.14638 0
M  V30 7270 H 681.609 -3.52669 -6.95158 0
M  V30 7271 N 685.838 0.888903 -1.30139 0
M  V30 7272 C 686.785 1.99422 -1.16188 0
M  V30 7273 C 687.755 1.66017 -0.0523869 0
M  V30 7274 O 688.94 1.89506 -0.221864 0
M  V30 7275 C 686.08 3.34325 -0.855612 0
M  V30 7276 C 685.193 3.80445 -2.0466 0
M  V30 7277 C 684.328 5.03975 -1.67876 0
M  V30 7278 C 683.367 5.42492 -2.83493 0
M  V30 7279 N 682.504 6.57206 -2.47032 0
M  V30 7280 H 687.344 2.10687 -2.10749 0
M  V30 7281 H 684.881 1.03165 -1.04859 0
M  V30 7282 H 686.839 4.11968 -0.658681 0
M  V30 7283 H 685.469 3.22756 0.0531155 0
M  V30 7284 H 684.521 2.98745 -2.3549 0
M  V30 7285 H 685.833 4.04933 -2.91257 0
M  V30 7286 H 684.987 5.89232 -1.44535 0
M  V30 7287 H 683.726 4.8135 -0.784431 0
M  V30 7288 H 682.731 4.55764 -3.07505 0
M  V30 7289 H 683.956 5.67093 -3.73607 0
M  V30 7290 H 681.902 6.36164 -1.601 0
M  V30 7291 H 681.819 6.81543 -3.27161 0
M  V30 7292 H 683.087 7.45704 -2.27038 0
M  V30 7293 N 687.317 1.12792 1.10072 0
M  V30 7294 C 688.563 0.886857 1.82381 0
M  V30 7295 C 688.896 -0.58576 1.85155 0
M  V30 7296 O 688.171 -1.43317 1.31493 0
M  V30 7297 C 688.454 1.46703 3.28862 0
M  V30 7298 C 688.307 3.00829 3.34398 0
M  V30 7299 C 689.626 1.12971 4.25353 0
M  V30 7300 H 686.745 0.32362 0.662148 0
M  V30 7301 H 689.387 1.39513 1.28982 0
M  V30 7302 H 687.537 1.03476 3.74466 0
M  V30 7303 H 689.209 3.52764 2.97247 0
M  V30 7304 H 687.452 3.36164 2.74183 0
M  V30 7305 H 688.123 3.36519 4.3756 0
M  V30 7306 H 690.599 1.50313 3.88001 0
M  V30 7307 H 689.475 1.56223 5.26199 0
M  V30 7308 H 689.736 0.0424452 4.4208 0
M  V30 7309 N 688.795 -1.27931 0.920396 0
M  V30 7310 C 690.02 -1.99343 0.572478 0
M  V30 7311 C 690.445 -1.68267 -0.840696 0
M  V30 7312 O 689.803 -0.918805 -1.56294 0
M  V30 7313 C 689.851 -3.51698 0.796284 0
M  V30 7314 O 688.955 -4.12157 -0.141602 0
M  V30 7315 H 688.296 -0.626065 0.221221 0
M  V30 7316 H 690.826 -1.62921 1.23765 0
M  V30 7317 H 690.836 -4.01793 0.708984 0
M  V30 7318 H 689.511 -3.73649 1.82644 0
M  V30 7319 H 688.088 -3.729 -0.005007 0
M  V30 7320 N 690.273 -0.685099 -1.4193 0
M  V30 7321 C 691.498 -0.218842 -2.06242 0
M  V30 7322 C 691.923 1.11923 -1.51178 0
M  V30 7323 O 691.281 1.69837 -0.634446 0
M  V30 7324 C 691.329 -0.175592 -3.60172 0
M  V30 7325 O 690.433 0.852776 -4.03487 0
M  V30 7326 H 689.774 -0.109531 -0.654904 0
M  V30 7327 H 692.304 -0.937013 -1.81882 0
M  V30 7328 H 692.314 -0.00291151 -4.08 0
M  V30 7329 H 690.989 -1.15222 -3.99621 0
M  V30 7330 H 689.566 0.650301 -3.67186 0
M  V30 7331 N 691.751 1.51645 -0.429126 0
M  V30 7332 C 692.698 2.27542 0.386446 0
M  V30 7333 C 693.668 1.30786 1.02393 0
M  V30 7334 O 694.853 1.59678 1.0444 0
M  V30 7335 C 691.993 3.11457 1.48623 0
M  V30 7336 C 691.106 4.23196 0.867691 0
M  V30 7337 C 690.241 4.94435 1.94183 0
M  V30 7338 C 689.28 5.98108 1.30129 0
M  V30 7339 N 688.417 6.62786 2.31644 0
M  V30 7340 H 693.257 2.968 -0.267155 0
M  V30 7341 H 690.794 1.46397 -0.143591 0
M  V30 7342 H 692.752 3.58429 2.13506 0
M  V30 7343 H 691.382 2.44329 2.10957 0
M  V30 7344 H 690.434 3.80248 0.107373 0
M  V30 7345 H 691.746 4.97499 0.35997 0
M  V30 7346 H 690.9 5.44914 2.66747 0
M  V30 7347 H 689.639 4.19744 2.48326 0
M  V30 7348 H 688.644 5.4693 0.561082 0
M  V30 7349 H 689.869 6.74751 0.767303 0
M  V30 7350 H 687.815 5.90913 2.84883 0
M  V30 7351 H 687.732 7.32828 1.85741 0
M  V30 7352 H 689 7.17897 3.03717 0
M  V30 7353 N 693.229 0.160201 1.56784 0
M  V30 7354 C 694.645 -0.196089 1.58391 0
M  V30 7355 C 694.845 -1.63689 1.17508 0
M  V30 7356 O 693.901 -2.36613 0.881506 0
M  V30 7357 C 695.214 0.0746449 3.00607 0
M  V30 7358 C 696.762 0.0119762 3.12998 0
M  V30 7359 C 697.237 0.255551 4.57286 0
M  V30 7360 N 698.728 0.202938 4.62755 0
M  V30 7361 C 699.463 0.365731 5.72232 0
M  V30 7362 N 698.959 0.586972 6.90309 0
M  V30 7363 N 700.752 0.302411 5.61286 0
M  V30 7364 H 692.903 1.1008 1.81648 0
M  V30 7365 H 695.166 0.436779 0.841384 0
M  V30 7366 H 694.872 1.07231 3.34954 0
M  V30 7367 H 694.746 -0.638802 3.71751 0
M  V30 7368 H 697.133 -0.976254 2.78484 0
M  V30 7369 H 697.214 0.75796 2.44313 0
M  V30 7370 H 696.858 1.24094 4.92507 0
M  V30 7371 H 696.788 -0.510912 5.24116 0
M  V30 7372 H 699.279 0.0371328 3.77882 0
M  V30 7373 H 699.592 0.700941 7.69615 0
M  V30 7374 H 697.937 0.623453 6.92198 0
M  V30 7375 H 701.128 0.130238 4.67919 0
M  V30 7376 H 701.301 0.432712 6.46554 0
M  V30 7377 N 694.707 -1.5719 -0.113559 0
M  V30 7378 C 695.956 -1.84325 -0.818984 0
M  V30 7379 C 696.269 -0.746685 -1.80787 0
M  V30 7380 O 697.475 -0.904596 -2.55987 0
M  V30 7381 C 695.931 -3.26818 -1.50724 0
M  V30 7382 C 695.539 -4.44498 -0.559065 0
M  V30 7383 C 697.283 -3.63196 -2.19748 0
M  V30 7384 C 695.19 -5.7802 -1.25086 0
M  V30 7385 H 694.12 -0.687507 -0.309596 0
M  V30 7386 H 696.771 -1.8336 -0.0717621 0
M  V30 7387 H 695.153 -3.22269 -2.30128 0
M  V30 7388 H 696.327 -4.60356 0.202146 0
M  V30 7389 H 694.642 -4.16393 0.024495 0
M  V30 7390 H 697.239 -4.60226 -2.72206 0
M  V30 7391 H 697.582 -2.90899 -2.97798 0
M  V30 7392 H 698.115 -3.69553 -1.47226 0
M  V30 7393 H 694.854 -6.53501 -0.511539 0
M  V30 7394 H 694.374 -5.66038 -1.98395 0
M  V30 7395 H 696.053 -6.2196 -1.78253 0
M  V30 7396 N 696.185 0.383891 -1.52853 0
M  V30 7397 C 697.596 0.961591 -1.60032 0
M  V30 7398 C 697.947 1.90819 -0.456333 0
M  V30 7399 O 697.072 2.12288 0.419873 0
M  V30 7400 C 697.667 1.75078 -2.90057 0
M  V30 7401 C 696.226 2.2781 -2.99632 0
M  V30 7402 C 695.373 1.08512 -2.55187 0
M  V30 7403 H 698.324 0.163269 -1.57858 0
M  V30 7404 H 698.345 2.61046 -2.7683 0
M  V30 7405 H 697.857 1.06157 -3.73299 0
M  V30 7406 H 695.958 3.00028 -2.20939 0
M  V30 7407 H 696.071 2.56947 -4.0437 0
M  V30 7408 H 694.435 1.44667 -2.09627 0
M  V30 7409 H 695.218 0.41118 -3.40829 0
M  V30 7410 N 697.663 1.43903 0.642637 0
M  V30 7411 C 698.893 1.49323 1.4278 0
M  V30 7412 C 699.301 0.113058 1.88862 0
M  V30 7413 O 698.644 -0.889089 1.60751 0
M  V30 7414 C 698.706 2.3861 2.68897 0
M  V30 7415 C 698.37 3.85976 2.44687 0
M  V30 7416 C 699.367 4.7681 2.07239 0
M  V30 7417 C 697.052 4.30567 2.58683 0
M  V30 7418 C 699.046 6.10234 1.841 0
M  V30 7419 C 696.733 5.64042 2.35159 0
M  V30 7420 C 697.731 6.53693 1.97925 0
M  V30 7421 O 697.419 7.84698 1.74654 0
M  V30 7422 H 697.151 0.509109 0.444729 0
M  V30 7423 H 699.705 1.89425 0.794195 0
M  V30 7424 H 697.935 1.93415 3.34855 0
M  V30 7425 H 699.624 2.35112 3.30873 0
M  V30 7426 H 700.39 4.43635 1.95993 0
M  V30 7427 H 696.269 3.61054 2.86637 0
M  V30 7428 H 699.813 6.80171 1.54962 0
M  V30 7429 H 695.71 5.96782 2.46011 0
M  V30 7430 H 696.478 7.96382 1.88993 0
M  V30 7431 N 699.141 -0.881989 1.30609 0
M  V30 7432 C 700.104 -1.96957 1.1722 0
M  V30 7433 C 701.104 -1.60472 0.102598 0
M  V30 7434 O 702.294 -1.70628 0.350943 0
M  V30 7435 C 699.426 -3.31463 0.796572 0
M  V30 7436 H 700.619 -2.10262 2.13846 0
M  V30 7437 H 698.172 -1.06877 1.14048 0
M  V30 7438 H 698.907 -3.23859 -0.169053 0
M  V30 7439 H 698.692 -3.59314 1.56959 0
M  V30 7440 H 700.182 -4.11233 0.72645 0
M  V30 7441 N 700.619 -1.13374 -1.09472 0
M  V30 7442 C 702.03 -0.90801 -1.63132 0
M  V30 7443 C 702.381 0.555576 -1.8817 0
M  V30 7444 O 701.506 1.42218 -1.63104 0
M  V30 7445 C 702.101 -1.64182 -2.96361 0
M  V30 7446 C 700.66 -1.46197 -3.46848 0
M  V30 7447 C 699.807 -1.67134 -2.21273 0
M  V30 7448 H 702.758 -1.2871 -0.928411 0
M  V30 7449 H 702.779 -1.09863 -3.64294 0
M  V30 7450 H 702.291 -2.707 -2.78106 0
M  V30 7451 H 700.392 -0.419788 -3.70228 0
M  V30 7452 H 700.505 -2.22472 -4.24315 0
M  V30 7453 H 698.869 -1.09616 -2.29905 0
M  V30 7454 H 699.652 -2.74971 -2.05538 0
M  V30 7455 N 702.098 1.27442 -0.927168 0
M  V30 7456 C 703.323 1.99036 -0.583042 0
M  V30 7457 C 703.748 1.68711 0.83176 0
M  V30 7458 O 703.106 0.927081 1.55804 0
M  V30 7459 C 703.154 3.51271 -0.814925 0
M  V30 7460 O 702.258 4.12226 0.119742 0
M  V30 7461 H 701.599 0.624883 -0.224538 0
M  V30 7462 H 704.129 1.62263 -1.24628 0
M  V30 7463 H 704.139 4.01411 -0.730282 0
M  V30 7464 H 702.814 3.72676 -1.84623 0
M  V30 7465 H 701.391 3.72897 -0.0147688 0
M  V30 7466 N 703.576 0.692616 1.41565 0
M  V30 7467 C 704.824 0.221896 2.00878 0
M  V30 7468 C 705.145 -1.18164 1.5512 0
M  V30 7469 O 704.415 -1.79679 0.78054 0
M  V30 7470 H 702.995 0.0790463 0.742806 0
M  V30 7471 H 705.657 0.893115 1.73232 0
M  V30 7472 H 704.753 0.23702 3.11199 0
M  V30 7473 N 705.054 -1.51416 0.437162 0
M  V30 7474 C 705.964 -2.31493 -0.380537 0
M  V30 7475 C 706.98 -1.40399 -1.02782 0
M  V30 7476 O 708.156 -1.73471 -1.02323 0
M  V30 7477 C 705.221 -3.1413 -1.46709 0
M  V30 7478 C 704.282 -4.21003 -0.839953 0
M  V30 7479 C 703.515 -4.9969 -1.87473 0
M  V30 7480 O 703.738 -4.79008 -3.09689 0
M  V30 7481 O 702.672 -5.8379 -1.46536 0
M  V30 7482 H 706.498 -3.02469 0.273183 0
M  V30 7483 H 704.083 -1.48059 0.199706 0
M  V30 7484 H 705.965 -3.65505 -2.09724 0
M  V30 7485 H 704.64 -2.45919 -2.10489 0
M  V30 7486 H 703.547 -3.73706 -0.171752 0
M  V30 7487 H 704.88 -4.91587 -0.245638 0
M  V30 7488 N 706.532 -0.168513 -1.56696 0
M  V30 7489 C 707.781 0.477233 -1.95973 0
M  V30 7490 C 708.094 1.64578 -1.05704 0
M  V30 7491 O 709.3 2.35758 -1.3465 0
M  V30 7492 C 707.756 0.900413 -3.48455 0
M  V30 7493 C 707.364 -0.242382 -4.47344 0
M  V30 7494 C 709.108 1.51474 -3.96555 0
M  V30 7495 C 707.015 0.200272 -5.91061 0
M  V30 7496 H 705.945 0.182061 -0.73169 0
M  V30 7497 H 708.596 -0.256297 -1.81701 0
M  V30 7498 H 706.978 1.68984 -3.58135 0
M  V30 7499 H 708.152 -1.01967 -4.49377 0
M  V30 7500 H 706.467 -0.766484 -4.09285 0
M  V30 7501 H 709.064 1.85792 -5.01384 0
M  V30 7502 H 709.407 2.41163 -3.39332 0
M  V30 7503 H 709.94 0.789802 -3.89881 0
M  V30 7504 H 706.679 -0.661775 -6.52151 0
M  V30 7505 H 706.199 0.942979 -5.92341 0
M  V30 7506 H 707.878 0.645088 -6.43776 0
M  V30 7507 N 708.01 1.57248 0.105221 0
M  V30 7508 C 709.421 1.74612 0.660865 0
M  V30 7509 C 709.772 0.789231 1.79626 0
M  V30 7510 O 708.897 -0.0346611 2.16372 0
M  V30 7511 C 709.492 3.16624 1.20559 0
M  V30 7512 C 708.051 3.35447 1.7074 0
M  V30 7513 C 707.198 2.70445 0.612764 0
M  V30 7514 H 710.149 1.5824 -0.12079 0
M  V30 7515 H 710.17 3.18937 2.07508 0
M  V30 7516 H 709.682 3.86245 0.379012 0
M  V30 7517 H 707.783 2.7089 2.5583 0
M  V30 7518 H 707.896 4.43702 1.80736 0
M  V30 7519 H 706.26 2.32061 1.04975 0
M  V30 7520 H 707.043 3.42699 -0.203066 0
M  V30 7521 N 709.488 -0.375779 1.53054 0
M  V30 7522 C 710.435 -1.45978 1.78771 0
M  V30 7523 C 711.405 -1.53625 0.631552 0
M  V30 7524 O 712.59 -1.69674 0.872667 0
M  V30 7525 C 709.73 -2.8305 1.97425 0
M  V30 7526 C 708.843 -2.84451 3.25134 0
M  V30 7527 C 707.978 -4.13034 3.34031 0
M  V30 7528 C 707.017 -4.08536 4.55812 0
M  V30 7529 N 706.154 -5.2875 4.61918 0
M  V30 7530 H 710.994 -1.23349 2.71273 0
M  V30 7531 H 708.531 -0.598147 1.3439 0
M  V30 7532 H 710.489 -3.62666 2.06225 0
M  V30 7533 H 709.119 -3.04101 1.0827 0
M  V30 7534 H 708.171 -1.97127 3.25338 0
M  V30 7535 H 709.483 -2.76998 4.14818 0
M  V30 7536 H 708.637 -5.0106 3.42087 0
M  V30 7537 H 707.376 -4.23226 2.42345 0
M  V30 7538 H 706.381 -3.18897 4.47867 0
M  V30 7539 H 707.606 -3.99955 5.48828 0
M  V30 7540 H 705.552 -5.39547 3.73129 0
M  V30 7541 H 705.469 -5.23426 5.45492 0
M  V30 7542 H 706.737 -6.18637 4.74245 0
M  V30 7543 N 710.966 -1.44241 -0.634997 0
M  V30 7544 C 712.213 -1.46821 -1.39463 0
M  V30 7545 C 712.541 -0.0993362 -1.94246 0
M  V30 7546 O 711.796 0.898325 -1.73864 0
M  V30 7547 C 712.095 -2.47279 -2.58046 0
M  V30 7548 C 711.761 -3.92703 -2.21574 0
M  V30 7549 C 710.423 -4.32306 -2.1134 0
M  V30 7550 C 712.775 -4.84271 -1.92695 0
M  V30 7551 C 710.103 -5.61407 -1.70409 0
M  V30 7552 C 712.455 -6.13755 -1.53258 0
M  V30 7553 C 711.119 -6.52316 -1.41562 0
M  V30 7554 H 710.389 -0.537256 -0.51033 0
M  V30 7555 H 713.036 -1.77431 -0.720441 0
M  V30 7556 H 711.341 -2.10138 -3.3068 0
M  V30 7557 H 713.038 -2.46523 -3.16271 0
M  V30 7558 H 709.628 -3.61369 -2.30456 0
M  V30 7559 H 713.812 -4.54432 -1.99513 0
M  V30 7560 H 709.068 -5.90105 -1.59955 0
M  V30 7561 H 713.242 -6.84168 -1.29949 0
M  V30 7562 H 710.869 -7.52255 -1.09619 0
M  V30 7563 N 712.444 0.87505 -1.31075 0
M  V30 7564 C 713.669 1.66583 -1.23551 0
M  V30 7565 C 714.094 1.87067 0.19686 0
M  V30 7566 O 713.452 1.40877 1.1412 0
M  V30 7567 C 713.5 3.01401 -1.97965 0
M  V30 7568 O 712.604 3.90923 -1.31351 0
M  V30 7569 H 711.945 0.508645 -0.426821 0
M  V30 7570 H 714.475 1.09139 -1.7306 0
M  V30 7571 H 714.485 3.51374 -2.07366 0
M  V30 7572 H 713.16 2.85812 -3.02133 0
M  V30 7573 H 711.737 3.49369 -1.30368 0
M  V30 7574 N 713.922 1.13953 1.08869 0
M  V30 7575 C 714.852 0.844824 2.17681 0
M  V30 7576 C 715.833 -0.198213 1.68941 0
M  V30 7577 O 717.018 -0.0559073 1.9412 0
M  V30 7578 C 714.148 0.316325 3.45856 0
M  V30 7579 C 713.102 1.29426 4.07962 0
M  V30 7580 C 712.428 0.625275 5.31031 0
M  V30 7581 C 713.728 2.65484 4.49795 0
M  V30 7582 H 715.422 1.75471 2.42591 0
M  V30 7583 H 712.968 0.845116 1.16592 0
M  V30 7584 H 714.921 0.0977876 4.21287 0
M  V30 7585 H 713.645 -0.628972 3.20486 0
M  V30 7586 H 712.304 1.49889 3.34558 0
M  V30 7587 H 711.952 -0.325678 5.01945 0
M  V30 7588 H 711.652 1.27777 5.73539 0
M  V30 7589 H 713.176 0.416152 6.0918 0
M  V30 7590 H 714.59 2.48957 5.16424 0
M  V30 7591 H 712.987 3.26963 5.03205 0
M  V30 7592 H 714.057 3.22717 3.61914 0
M  V30 7593 N 715.4 -1.26948 0.933913 0
M  V30 7594 C 716.332 -2.25768 0.395137 0
M  V30 7595 C 717.345 -1.55637 -0.477585 0
M  V30 7596 O 718.534 -1.76142 -0.289204 0
M  V30 7597 C 715.634 -3.35874 -0.451882 0
M  V30 7598 C 714.807 -4.3554 0.40299 0
M  V30 7599 C 713.866 -5.24809 -0.3824 0
M  V30 7600 O 712.892 -5.68805 0.212057 0
M  V30 7601 N 714.094 -5.55636 -1.68072 0
M  V30 7602 H 716.859 -2.72634 1.24463 0
M  V30 7603 H 714.42 -1.40639 0.802008 0
M  V30 7604 H 716.412 -3.92542 -0.984516 0
M  V30 7605 H 714.982 -2.8856 -1.20215 0
M  V30 7606 H 714.202 -3.78047 1.11688 0
M  V30 7607 H 715.49 -4.99131 0.987201 0
M  V30 7608 H 714.888 -5.2176 -2.18592 0
M  V30 7609 H 713.445 -6.14978 -2.15975 0
M  V30 7610 N 716.879 -0.700114 -1.41195 0
M  V30 7611 C 718.156 -0.160836 -1.94938 0
M  V30 7612 C 718.536 1.33014 -1.63922 0
M  V30 7613 O 717.884 2.07878 -0.948636 0
M  V30 7614 C 718.094 -0.456991 -3.45995 0
M  V30 7615 C 719.442 -0.387207 -4.22831 0
M  V30 7616 O 720.466 -0.392164 -3.54035 0
M  V30 7617 O 719.325 -0.351267 -5.4537 0
M  V30 7618 H 716.419 -0.0176304 -0.826812 0
M  V30 7619 H 718.965 -0.776586 -1.50888 0
M  V30 7620 H 717.737 -1.48884 -3.61869 0
M  V30 7621 H 717.36 0.189503 -3.97148 0
M  V30 7622 N 718.357 1.51182 -0.445186 0
M  V30 7623 C 719.768 1.86693 0.0160999 0
M  V30 7624 C 720.119 1.36183 1.4124 0
M  V30 7625 O 719.244 0.715895 2.04215 0
M  V30 7626 C 719.839 3.38781 0.0359918 0
M  V30 7627 C 718.398 3.73799 0.441715 0
M  V30 7628 C 717.545 2.74947 -0.360511 0
M  V30 7629 H 720.496 1.44294 -0.660674 0
M  V30 7630 H 720.517 3.71026 0.843813 0
M  V30 7631 H 720.029 3.75513 -0.980378 0
M  V30 7632 H 718.13 3.42659 1.4634 0
M  V30 7633 H 718.243 4.78829 0.16106 0
M  V30 7634 H 716.607 2.54047 0.182269 0
M  V30 7635 H 717.39 3.14521 -1.3759 0
M  V30 7636 N 719.835 0.176821 1.56605 0
M  V30 7637 C 721.246 -0.338963 1.83597 0
M  V30 7638 C 721.597 -1.62677 1.09684 0
M  V30 7639 O 720.722 -2.13524 0.351661 0
M  V30 7640 C 721.317 -0.62177 3.33046 0
M  V30 7641 C 719.876 -1.08198 3.60514 0
M  V30 7642 C 719.023 -0.120774 2.77037 0
M  V30 7643 H 721.974 0.400978 1.53551 0
M  V30 7644 H 721.995 -1.47321 3.50823 0
M  V30 7645 H 721.507 0.315692 3.86814 0
M  V30 7646 H 719.608 -2.03435 3.12162 0
M  V30 7647 H 719.721 -0.987329 4.68816 0
M  V30 7648 H 718.085 -0.619192 2.47059 0
M  V30 7649 H 718.868 0.810806 3.33588 0
M  V30 7650 N 721.313 -1.57302 -0.09688 0
M  V30 7651 C 722.261 -2.02942 -1.13654 0
M  V30 7652 C 723.255 -0.930173 -1.41577 0
M  V30 7653 O 724.461 -1.11535 -1.41279 0
M  V30 7654 H 720.836 -0.646726 -0.383731 0
M  V30 7655 H 722.807 -2.89452 -0.725267 0
M  V30 7656 C 721.556 -2.46815 -2.44903 0
M  V30 7657 H 720.879 -3.30979 -2.24261 0
M  V30 7658 H 722.319 -2.82527 -3.16156 0
M  V30 7659 C 720.778 -1.34071 -3.09074 0
M  V30 7660 O 721.308 -0.668856 -3.96092 0
M  V30 7661 N 719.514 -1.09214 -2.69296 0
M  V30 7662 H 719.061 -1.64029 -1.98626 0
M  V30 7663 H 719.019 -0.339785 -3.12559 0
M  V30 7664 N 722.791 0.367657 -1.53252 0
M  V30 7665 C 723.738 1.45028 -1.79543 0
M  V30 7666 C 724.708 1.53288 -0.63969 0
M  V30 7667 O 725.893 1.69209 -0.881653 0
M  V30 7668 C 723.033 2.82 -1.98923 0
M  V30 7669 C 722.146 2.82722 -3.26638 0
M  V30 7670 C 721.281 4.11257 -3.36216 0
M  V30 7671 C 720.32 4.06113 -4.57972 0
M  V30 7672 N 719.457 5.26293 -4.64715 0
M  V30 7673 H 724.297 1.21908 -2.71923 0
M  V30 7674 H 721.834 0.591011 -1.34705 0
M  V30 7675 H 723.792 3.61568 -2.08146 0
M  V30 7676 H 722.422 3.03523 -1.09881 0
M  V30 7677 H 721.474 1.95399 -3.26379 0
M  V30 7678 H 722.786 2.74794 -4.16281 0
M  V30 7679 H 721.94 4.99239 -3.44739 0
M  V30 7680 H 720.679 4.21935 -2.44586 0
M  V30 7681 H 719.684 3.16517 -4.49552 0
M  V30 7682 H 720.909 3.97039 -5.50942 0
M  V30 7683 H 718.855 5.37561 -3.75985 0
M  V30 7684 H 718.772 5.20526 -5.4826 0
M  V30 7685 H 720.04 6.16113 -4.77519 0
M  V30 7686 N 724.269 1.44576 0.627338 0
M  V30 7687 C 725.216 1.51734 1.73912 0
M  V30 7688 C 726.186 0.364745 1.62046 0
M  V30 7689 O 727.371 0.575503 1.81914 0
M  V30 7690 C 724.511 1.47116 3.12171 0
M  V30 7691 C 723.624 2.72778 3.34986 0
M  V30 7692 C 722.759 2.59968 4.63239 0
M  V30 7693 C 721.798 3.80776 4.79245 0
M  V30 7694 N 720.935 3.66618 5.98778 0
M  V30 7695 H 725.775 2.46722 1.6713 0
M  V30 7696 H 723.312 1.22444 0.815224 0
M  V30 7697 H 725.27 1.42429 3.92135 0
M  V30 7698 H 723.9 0.556928 3.17959 0
M  V30 7699 H 722.952 2.87637 2.48936 0
M  V30 7700 H 724.264 3.62441 3.42692 0
M  V30 7701 H 723.418 2.53135 5.51369 0
M  V30 7702 H 722.157 1.67872 4.57898 0
M  V30 7703 H 721.162 3.87989 3.89544 0
M  V30 7704 H 722.387 4.73913 4.86398 0
M  V30 7705 H 720.333 2.77277 5.9452 0
M  V30 7706 H 720.25 4.499 6.07557 0
M  V30 7707 H 721.518 3.63684 6.89459 0
M  V30 7708 N 725.747 -0.868086 1.31537 0
M  V30 7709 C 727.158 -1.437 1.19195 0
M  V30 7710 C 727.509 -1.95169 -0.200842 0
M  V30 7711 O 726.634 -1.86432 -1.09872 0
M  V30 7712 C 727.229 -2.612 2.15778 0
M  V30 7713 C 725.788 -3.1413 2.07363 0
M  V30 7714 C 724.935 -1.86845 2.049 0
M  V30 7715 H 727.886 -0.676457 1.43561 0
M  V30 7716 H 727.907 -3.37948 1.74847 0
M  V30 7717 H 727.419 -2.23709 3.17137 0
M  V30 7718 H 725.52 -3.56238 1.09204 0
M  V30 7719 H 725.633 -3.76285 2.96557 0
M  V30 7720 H 723.997 -2.05886 1.49943 0
M  V30 7721 H 724.78 -1.51589 3.08019 0
M  V30 7722 N 727.225 -1.14528 -1.08264 0
M  V30 7723 C 728.172 -0.833556 -2.15222 0
M  V30 7724 C 729.142 0.209539 -1.64773 0
M  V30 7725 O 730.327 0.0791388 -1.90636 0
M  V30 7726 C 727.467 -0.318799 -3.43624 0
M  V30 7727 C 726.58 -1.42237 -4.07913 0
M  V30 7728 C 725.715 -0.864704 -5.24115 0
M  V30 7729 C 724.754 -1.94585 -5.80347 0
M  V30 7730 N 723.891 -1.40525 -6.87893 0
M  V30 7731 H 728.731 -1.74965 -2.41228 0
M  V30 7732 H 726.268 -0.873169 -1.18381 0
M  V30 7733 H 728.226 -0.00213088 -4.172 0
M  V30 7734 H 726.856 0.560397 -3.17898 0
M  V30 7735 H 725.908 -1.8554 -3.32083 0
M  V30 7736 H 727.22 -2.23901 -4.45724 0
M  V30 7737 H 726.374 -0.500025 -6.04636 0
M  V30 7738 H 725.113 -0.0171219 -4.87697 0
M  V30 7739 H 724.118 -2.31946 -4.98479 0
M  V30 7740 H 725.343 -2.79704 -6.18823 0
M  V30 7741 H 723.289 -0.579873 -6.53432 0
M  V30 7742 H 723.206 -2.15825 -7.24538 0
M  V30 7743 H 724.474 -1.06852 -7.72142 0
M  V30 7744 N 728.703 1.26451 -0.940633 0
M  V30 7745 C 729.949 1.94065 -0.58878 0
M  V30 7746 C 730.282 1.7363 0.869853 0
M  V30 7747 O 729.557 1.073 1.62225 0
M  V30 7748 C 729.84 3.47852 -0.931199 0
M  V30 7749 C 729.693 3.77575 -2.44453 0
M  V30 7750 C 731.012 4.37832 -0.446229 0
M  V30 7751 H 728.131 0.704827 -0.21538 0
M  V30 7752 H 730.773 1.4933 -1.17475 0
M  V30 7753 H 728.923 3.86085 -0.432539 0
M  V30 7754 H 730.595 3.49059 -3.01588 0
M  V30 7755 H 728.838 3.23671 -2.88825 0
M  V30 7756 H 729.509 4.85068 -2.63464 0
M  V30 7757 H 731.985 4.06822 -0.873778 0
M  V30 7758 H 730.861 5.44228 -0.714648 0
M  V30 7759 H 731.122 4.37239 0.653815 0
M  V30 7760 O 730.22 0.846016 1.37567 0
M  V30 7761 H 730.911 0.436618 1.88715 0
M  V30 END ATOM
M  V30 BEGIN BOND
M  V30 END BOND
M  V30 END CTAB
M  END
$$$$
