drugbank_target|O60760 Hematopoietic prostaglandin D synthase (DB00143; DB00755; DB01897; DB07613; DB07614; DB07615; DB07616; DB07917; DB08313; DB08695; DB08790)
 OpenBabel12092119483D

  0  0  0     0  0            999 V3000
M  V30 BEGIN CTAB
M  V30 COUNTS 3276 3319 0 0 0
M  V30 BEGIN ATOM
M  V30 1 H -0.908 1.98254 -0.117106 0
M  V30 2 N 0 1.576 0 0
M  V30 3 C 0.933 2.03868 1.02534 0
M  V30 4 C 1.911 0.928543 1.3348 0
M  V30 5 O 3.095 1.19667 1.45644 0
M  V30 6 C 0.222 2.43627 2.35294 0
M  V30 7 C -0.732 3.65373 2.2001 0
M  V30 8 S 0.101 5.13292 1.52614 0
M  V30 9 C 1.257 5.56322 2.86805 0
M  V30 10 H 1.49 2.90518 0.631377 0
M  V30 11 H -0.977 1.52953 0.210867 0
M  V30 12 H 0.981 2.67203 3.11629 0
M  V30 13 H -0.358 1.57376 2.7183 0
M  V30 14 H -1.165 3.90944 3.18086 0
M  V30 15 H -1.563 3.418 1.51819 0
M  V30 16 H 0.729 5.58782 3.83104 0
M  V30 17 H 1.672 6.56266 2.65933 0
M  V30 18 H 2.08 4.83886 2.90714 0
M  V30 19 N 1.4781 -0.272755 1.55222 0
M  V30 20 C 2.8891 -0.84378 1.66545 0
M  V30 21 C 3.2401 -1.87035 0.592641 0
M  V30 22 O 2.3651 -2.14761 -0.265818 0
M  V30 23 C 2.9601 -1.53723 3.01918 0
M  V30 24 C 1.5191 -2.05628 3.15268 0
M  V30 25 C 0.6661 -0.898424 2.62343 0
M  V30 26 H 3.6171 -0.0490998 1.58624 0
M  V30 27 H 3.6381 -2.40421 2.94921 0
M  V30 28 H 3.1501 -0.78983 3.79978 0
M  V30 29 H 1.2511 -2.83329 2.41983 0
M  V30 30 H 1.3641 -2.27142 4.21833 0
M  V30 31 H -0.2719 -1.29186 2.19506 0
M  V30 32 H 0.5111 -0.164528 3.42906 0
M  V30 33 N 2.9562 -1.48159 -0.537278 0
M  V30 34 C 3.9042 -1.62573 -1.66352 0
M  V30 35 C 4.8982 -0.492366 -1.62087 0
M  V30 36 O 6.1042 -0.670847 -1.67032 0
M  V30 37 H 2.4792 -0.511992 -0.550789 0
M  V30 38 H 4.4502 -2.57176 -1.51337 0
M  V30 39 C 3.1992 -1.67583 -3.04649 0
M  V30 40 H 2.5222 -2.54151 -3.08622 0
M  V30 41 H 3.9622 -1.81713 -3.83088 0
M  V30 42 C 2.4212 -0.413039 -3.34358 0
M  V30 43 O 2.9512 0.477259 -3.98855 0
M  V30 44 N 1.1572 -0.286961 -2.8918 0
M  V30 45 H 0.7042 -1.01241 -2.36871 0
M  V30 46 H 0.6622 0.556963 -3.09427 0
M  V30 47 N 4.4343 0.785586 -1.36625 0
M  V30 48 C 5.6643 1.5722 -1.34036 0
M  V30 49 C 6.0723 1.89033 0.0795062 0
M  V30 50 O 5.4153 1.50881 1.04789 0
M  V30 51 C 5.4773 2.91759 -2.10041 0
M  V30 52 C 5.1413 2.82654 -3.59104 0
M  V30 53 C 6.1383 2.54634 -4.53274 0
M  V30 54 C 3.8233 3.01111 -4.02042 0
M  V30 55 C 5.8173 2.45177 -5.88359 0
M  V30 56 C 3.5043 2.91276 -5.37216 0
M  V30 57 C 4.5023 2.63348 -6.30188 0
M  V30 58 O 4.1903 2.53514 -7.6288 0
M  V30 59 H 3.9223 0.494177 -0.461265 0
M  V30 60 H 6.4763 0.982632 -1.8037 0
M  V30 61 H 4.7063 3.52781 -1.58375 0
M  V30 62 H 6.3953 3.53059 -2.00261 0
M  V30 63 H 7.1613 2.40073 -4.21414 0
M  V30 64 H 3.0403 3.21854 -3.30047 0
M  V30 65 H 6.5843 2.23299 -6.60896 0
M  V30 66 H 2.4813 3.054 -5.68684 0
M  V30 67 H 3.2493 2.68967 -7.73045 0
M  V30 68 N 5.9124 1.20967 1.01018 0
M  V30 69 C 6.8594 0.964281 2.09691 0
M  V30 70 C 7.8294 -0.107853 1.65749 0
M  V30 71 O 9.0144 0.0381987 1.90762 0
M  V30 72 C 6.1544 0.52943 3.41015 0
M  V30 73 C 5.2674 1.67043 3.98398 0
M  V30 74 C 4.4024 1.18525 5.17808 0
M  V30 75 C 3.4414 2.29892 5.67288 0
M  V30 76 N 2.5784 1.82546 6.77954 0
M  V30 77 H 7.4184 1.89463 2.30017 0
M  V30 78 H 4.9554 0.944289 1.1279 0
M  V30 79 H 6.9134 0.258588 4.16398 0
M  V30 80 H 5.5434 -0.363919 3.20742 0
M  V30 81 H 4.5954 2.05603 3.20049 0
M  V30 82 H 5.9074 2.50877 4.31117 0
M  V30 83 H 5.0614 0.870762 6.00419 0
M  V30 84 H 3.8004 0.316887 4.86669 0
M  V30 85 H 2.8054 2.6215 4.83278 0
M  V30 86 H 4.0304 3.17216 6.00459 0
M  V30 87 H 1.9764 0.980454 6.48632 0
M  V30 88 H 1.8934 2.59956 7.09901 0
M  V30 89 H 3.1614 1.54115 7.64113 0
M  V30 90 N 7.3905 -1.2043 1.01659 0
M  V30 91 C 8.3205 -2.25466 0.607226 0
M  V30 92 C 9.3015 -1.65853 -0.377716 0
M  V30 93 O 10.4865 -1.92409 -0.263149 0
M  V30 94 C 7.6165 -3.47256 -0.0552949 0
M  V30 95 C 6.5705 -4.19462 0.850632 0
M  V30 96 C 5.8965 -5.34673 0.0538859 0
M  V30 97 C 7.1965 -4.75603 2.15868 0
M  V30 98 H 8.8905 -2.59962 1.48526 0
M  V30 99 H 6.4365 -1.2496 0.715605 0
M  V30 100 H 8.3895 -4.19917 -0.353233 0
M  V30 101 H 7.1135 -3.11924 -0.968045 0
M  V30 102 H 5.7725 -3.48667 1.13257 0
M  V30 103 H 5.4205 -4.95585 -0.860514 0
M  V30 104 H 5.1205 -5.83913 0.657192 0
M  V30 105 H 6.6445 -6.10138 -0.237598 0
M  V30 106 H 8.0585 -5.40083 1.92311 0
M  V30 107 H 6.4555 -5.3528 2.71284 0
M  V30 108 H 7.5255 -3.94346 2.82169 0
M  V30 109 N 8.8686 -0.792821 -1.36206 0
M  V30 110 C 10.0966 -0.378825 -2.03402 0
M  V30 111 C 10.5116 1.00586 -1.59774 0
M  V30 112 O 9.8686 1.64574 -0.788764 0
M  V30 113 C 9.9196 -0.43683 -3.58851 0
M  V30 114 O 9.6406 -1.76691 -4.00889 0
M  V30 115 C 11.1416 -0.0138943 -4.43298 0
M  V30 116 H 8.3616 -0.155673 -0.652692 0
M  V30 117 H 10.9056 -1.07261 -1.74113 0
M  V30 118 H 9.0606 0.208575 -3.86838 0
M  V30 119 H 9.4746 -1.72011 -4.95492 0
M  V30 120 H 10.9486 -0.105615 -5.51899 0
M  V30 121 H 11.4256 1.03915 -4.2673 0
M  V30 122 H 12.0316 -0.63192 -4.20579 0
M  V30 123 N 10.3467 1.47872 -0.545128 0
M  V30 124 C 11.5767 2.06589 -0.0210534 0
M  V30 125 C 11.9847 1.39997 1.27269 0
M  V30 126 O 11.3277 0.486421 1.77143 0
M  V30 127 C 11.3897 3.58574 0.257933 0
M  V30 128 C 11.0537 4.47132 -0.944573 0
M  V30 129 C 12.0507 4.85986 -1.84699 0
M  V30 130 C 9.7357 4.88821 -1.15584 0
M  V30 131 C 11.7297 5.65314 -2.94446 0
M  V30 132 C 9.4167 5.67916 -2.25642 0
M  V30 133 C 10.4147 6.06073 -3.14905 0
M  V30 134 O 10.1027 6.83578 -4.23057 0
M  V30 135 H 9.8347 0.674971 -0.0372899 0
M  V30 136 H 12.3887 1.91037 -0.754599 0
M  V30 137 H 10.6187 3.72295 1.04564 0
M  V30 138 H 12.3077 3.99356 0.72592 0
M  V30 139 H 13.0737 4.54388 -1.69577 0
M  V30 140 H 8.9527 4.58595 -0.470279 0
M  V30 141 H 12.4967 5.95016 -3.64145 0
M  V30 142 H 8.3937 5.98927 -2.40742 0
M  V30 143 H 9.1617 7.01954 -4.20954 0
M  V30 144 N 11.8248 0.280983 1.55075 0
M  V30 145 C 13.0718 -0.334115 1.99725 0
M  V30 146 C 13.3998 -1.5542 1.1694 0
M  V30 147 O 12.6548 -1.94361 0.228531 0
M  V30 148 C 12.9538 -0.754656 3.49342 0
M  V30 149 C 12.6198 0.361445 4.49449 0
M  V30 150 C 11.2818 0.667893 4.76542 0
M  V30 151 C 13.6338 1.11322 5.09173 0
M  V30 152 C 10.9618 1.7296 5.60626 0
M  V30 153 C 13.3138 2.1647 5.9441 0
M  V30 154 C 11.9778 2.47742 6.19822 0
M  V30 155 H 11.2478 -0.122261 0.730844 0
M  V30 156 H 13.8948 0.395917 1.87363 0
M  V30 157 H 12.1998 -1.56446 3.5921 0
M  V30 158 H 13.8968 -1.24142 3.813 0
M  V30 159 H 10.4868 0.112481 4.28452 0
M  V30 160 H 14.6708 0.88973 4.8826 0
M  V30 161 H 9.9268 1.97684 5.78559 0
M  V30 162 H 14.1008 2.75193 6.3972 0
M  V30 163 H 11.7278 3.30145 6.84769 0
M  V30 164 N 13.3029 -1.57598 0.00835791 0
M  V30 165 C 14.2509 -2.10078 -0.998508 0
M  V30 166 C 15.2449 -1.02262 -1.35051 0
M  V30 167 O 16.4509 -1.20719 -1.33518 0
M  V30 168 H 12.8259 -0.670903 -0.339696 0
M  V30 169 H 14.7969 -2.93648 -0.530398 0
M  V30 170 C 13.5459 -2.62615 -2.27879 0
M  V30 171 H 12.8689 -3.45213 -2.01662 0
M  V30 172 H 14.3089 -3.03004 -2.96588 0
M  V30 173 C 12.7679 -1.54407 -2.99433 0
M  V30 174 O 13.2979 -0.931812 -3.90743 0
M  V30 175 N 11.5039 -1.2695 -2.61404 0
M  V30 176 H 11.0509 -1.76924 -1.87232 0
M  V30 177 H 11.0089 -0.547704 -3.09593 0
M  V30 178 N 14.781 0.264519 -1.55364 0
M  V30 179 C 15.714 1.35297 -1.83766 0
M  V30 180 C 16.692 1.47171 -0.691336 0
M  V30 181 O 17.876 1.63663 -0.935238 0
M  V30 182 C 15.003 2.72847 -2.00679 0
M  V30 183 C 14.049 2.78214 -3.23263 0
M  V30 184 S 14.882 2.36601 -4.80396 0
M  V30 185 C 16.038 3.7611 -5.00292 0
M  V30 186 H 16.271 1.11003 -2.758 0
M  V30 187 H 13.804 0.464596 -1.47244 0
M  V30 188 H 15.762 3.52057 -2.11108 0
M  V30 189 H 14.423 2.94388 -1.09518 0
M  V30 190 H 13.616 3.7919 -3.3201 0
M  V30 191 H 13.218 2.07034 -3.11469 0
M  V30 192 H 15.51 4.71457 -4.86554 0
M  V30 193 H 16.453 3.7231 -6.02321 0
M  V30 194 H 16.861 3.67806 -4.28228 0
M  V30 195 N 16.2591 1.48442 0.529413 0
M  V30 196 C 17.6751 1.34575 0.858004 0
M  V30 197 C 17.8751 0.3572 1.98309 0
M  V30 198 O 16.9311 -0.221379 2.51528 0
M  V30 199 C 18.2441 2.74617 1.22499 0
M  V30 200 C 19.7921 2.83109 1.33484 0
M  V30 201 C 20.2671 4.23854 1.73526 0
M  V30 202 N 21.7581 4.2653 1.80628 0
M  V30 203 C 22.4931 5.32372 2.12997 0
M  V30 204 N 21.9891 6.48491 2.43786 0
M  V30 205 N 23.7821 5.19766 2.14008 0
M  V30 206 H 15.9331 2.1133 -0.212925 0
M  V30 207 H 18.1961 0.947439 -0.0326199 0
M  V30 208 H 17.9021 3.4852 0.471905 0
M  V30 209 H 17.7761 3.08177 2.17501 0
M  V30 210 H 20.1631 2.09462 2.0787 0
M  V30 211 H 20.2441 2.53168 0.366027 0
M  V30 212 H 19.8881 4.98018 0.997013 0
M  V30 213 H 19.8181 4.5124 2.71459 0
M  V30 214 H 22.3091 3.42772 1.59108 0
M  V30 215 H 22.6221 7.24993 2.67592 0
M  V30 216 H 20.9671 6.51765 2.41304 0
M  V30 217 H 24.1581 4.28066 1.89412 0
M  V30 218 H 24.3311 6.02354 2.38902 0
M  V30 219 N 17.7372 -0.778329 1.37039 0
M  V30 220 C 18.9852 -1.53361 1.31623 0
M  V30 221 C 19.3062 -1.94739 -0.100831 0
M  V30 222 O 18.5762 -1.65797 -1.04347 0
M  V30 223 H 17.1562 -0.568794 0.484234 0
M  V30 224 H 19.8182 -0.926742 1.71457 0
M  V30 225 H 18.9142 -2.43606 1.95096 0
M  V30 226 N 19.2153 -1.21501 -1.00376 0
M  V30 227 C 20.6313 -0.972629 -1.26539 0
M  V30 228 C 20.8313 0.340257 -1.98606 0
M  V30 229 O 19.8873 1.06561 -2.28913 0
M  V30 230 C 21.2003 -2.16404 -2.08781 0
M  V30 231 C 22.7483 -2.20643 -2.22004 0
M  V30 232 C 23.2233 -3.39306 -3.07629 0
M  V30 233 N 24.7143 -3.39401 -3.15217 0
M  V30 234 C 25.4493 -4.27867 -3.81729 0
M  V30 235 N 24.9453 -5.26533 -4.5026 0
M  V30 236 N 26.7383 -4.15672 -3.78382 0
M  V30 237 H 18.8893 -2.05929 -0.520281 0
M  V30 238 H 21.1523 -0.901803 -0.292328 0
M  V30 239 H 20.8583 -3.11554 -1.63178 0
M  V30 240 H 20.7323 -2.15567 -3.09533 0
M  V30 241 H 23.1193 -1.26048 -2.66825 0
M  V30 242 H 23.2003 -2.25523 -1.20718 0
M  V30 243 H 22.8443 -4.34195 -2.63509 0
M  V30 244 H 22.7743 -3.31665 -4.09031 0
M  V30 245 H 25.2653 -2.67997 -2.66432 0
M  V30 246 H 25.5783 -5.90337 -4.98721 0
M  V30 247 H 23.9233 -5.30457 -4.49044 0
M  V30 248 H 27.1143 -3.3785 -3.23998 0
M  V30 249 H 27.2873 -4.84825 -4.2994 0
M  V30 250 N 20.6934 1.19889 -1.02296 0
M  V30 251 C 21.6564 2.21116 -0.603351 0
M  V30 252 C 22.6564 1.5738 0.329884 0
M  V30 253 O 23.8464 1.73802 0.117702 0
M  V30 254 C 20.9784 3.40696 0.117992 0
M  V30 255 H 22.1714 2.59754 -1.49893 0
M  V30 256 H 19.7244 1.33463 -0.813468 0
M  V30 257 H 20.4594 3.07569 1.0282 0
M  V30 258 H 20.2444 3.88188 -0.552511 0
M  V30 259 H 21.7344 4.15692 0.398696 0
M  V30 260 N 22.1715 0.800033 1.35784 0
M  V30 261 C 23.0815 0.207204 2.33683 0
M  V30 262 C 24.0975 -0.64631 1.61551 0
M  V30 263 O 25.2735 -0.559604 1.93469 0
M  V30 264 C 22.3385 -0.639659 3.40748 0
M  V30 265 C 21.3995 0.233585 4.28664 0
M  V30 266 C 20.6325 -0.572954 5.30616 0
M  V30 267 O 20.8555 -1.80816 5.40982 0
M  V30 268 O 19.7895 0.0327285 6.01891 0
M  V30 269 H 23.6155 1.01692 2.86169 0
M  V30 270 H 21.2005 0.561691 1.38439 0
M  V30 271 H 23.0825 -1.12223 4.06182 0
M  V30 272 H 21.7575 -1.42708 2.90544 0
M  V30 273 H 20.6645 0.763147 3.66233 0
M  V30 274 H 21.9975 0.984784 4.82248 0
M  V30 275 N 23.6496 -1.47581 0.552962 0
M  V30 276 C 24.8986 -2.01684 0.0251995 0
M  V30 277 C 25.2116 -1.43317 -1.33115 0
M  V30 278 O 26.4176 -1.89057 -1.94858 0
M  V30 279 C 24.8736 -3.599 -0.00542052 0
M  V30 280 C 24.4816 -4.27257 1.34742 0
M  V30 281 C 26.2256 -4.21768 -0.4808 0
M  V30 282 C 24.1326 -5.77467 1.27614 0
M  V30 283 H 23.0626 -0.753979 0.00565033 0
M  V30 284 H 25.7136 -1.69616 0.70018 0
M  V30 285 H 24.0956 -3.88911 -0.745961 0
M  V30 286 H 25.2696 -4.09893 2.10534 0
M  V30 287 H 23.5846 -3.77358 1.76039 0
M  V30 288 H 26.1816 -5.31838 -0.55246 0
M  V30 289 H 26.5246 -3.88651 -1.49184 0
M  V30 290 H 27.0576 -3.97273 0.204752 0
M  V30 291 H 23.7966 -6.15196 2.26304 0
M  V30 292 H 23.3166 -5.9718 0.55996 0
M  V30 293 H 24.9956 -6.3959 0.976421 0
M  V30 294 N 25.1277 -0.289203 -1.54924 0
M  V30 295 C 26.3767 0.324231 -1.99077 0
M  V30 296 C 26.6897 1.5591 -1.18117 0
M  V30 297 O 27.8957 2.24637 -1.52481 0
M  V30 298 C 26.3517 0.628209 -3.54375 0
M  V30 299 C 25.9597 -0.587647 -4.44129 0
M  V30 300 C 27.7037 1.20349 -4.07083 0
M  V30 301 C 25.6107 -0.257475 -5.90839 0
M  V30 302 H 24.5407 0.124924 -0.743579 0
M  V30 303 H 27.1917 -0.396063 -1.79175 0
M  V30 304 H 25.5737 1.40778 -3.70132 0
M  V30 305 H 26.7477 -1.36418 -4.40144 0
M  V30 306 H 25.0627 -1.08074 -4.0213 0
M  V30 307 H 27.6597 1.46456 -5.14252 0
M  V30 308 H 28.0027 2.14195 -3.56968 0
M  V30 309 H 28.5357 0.485889 -3.94821 0
M  V30 310 H 25.2747 -1.16419 -6.45079 0
M  V30 311 H 24.7947 0.482018 -5.9786 0
M  V30 312 H 26.4737 0.145238 -6.46837 0
M  V30 313 N 26.6058 1.57591 -0.0167156 0
M  V30 314 C 28.0218 1.55946 0.339557 0
M  V30 315 C 28.2218 1.02109 1.73713 0
M  V30 316 O 27.2778 0.662303 2.43659 0
M  V30 317 C 28.5908 3.00037 0.199499 0
M  V30 318 C 30.1388 3.11805 0.273193 0
M  V30 319 C 30.6138 4.57713 0.162068 0
M  V30 320 N 32.1048 4.6268 0.219444 0
M  V30 321 C 32.8398 5.73185 0.157054 0
M  V30 322 N 32.3358 6.92786 0.0442936 0
M  V30 323 N 34.1288 5.61707 0.21014 0
M  V30 324 H 26.2798 1.90921 -0.930758 0
M  V30 325 H 28.5428 0.877674 -0.358319 0
M  V30 326 H 28.2488 3.4333 -0.76273 0
M  V30 327 H 28.1228 3.64387 0.974786 0
M  V30 328 H 30.5098 2.68433 1.22587 0
M  V30 329 H 30.5908 2.50201 -0.532256 0
M  V30 330 H 30.2348 5.01763 -0.78714 0
M  V30 331 H 30.1648 5.17283 0.986222 0
M  V30 332 H 32.6558 3.76649 0.307246 0
M  V30 333 H 32.9688 7.728 0.00304069 0
M  V30 334 H 31.3138 6.94999 0.00968457 0
M  V30 335 H 34.5048 4.6716 0.296546 0
M  V30 336 H 34.6778 6.47807 0.158054 0
M  V30 337 N 28.0839 -0.256276 1.55502 0
M  V30 338 C 29.3139 -1.00196 1.80677 0
M  V30 339 C 29.7219 -1.79805 0.588797 0
M  V30 340 O 29.0649 -1.78055 -0.451883 0
M  V30 341 C 29.1269 -1.99515 2.99055 0
M  V30 342 C 28.7909 -1.38688 4.35448 0
M  V30 343 C 29.7879 -0.794079 5.138 0
M  V30 344 C 27.4729 -1.40906 4.82132 0
M  V30 345 C 29.4669 -0.231562 6.36979 0
M  V30 346 C 27.1539 -0.842684 6.05262 0
M  V30 347 C 28.1519 -0.254953 6.82524 0
M  V30 348 O 27.8399 0.3027 8.0333 0
M  V30 349 H 27.5719 -0.300919 0.60533 0
M  V30 350 H 30.1259 -0.287307 2.03381 0
M  V30 351 H 28.3559 -2.74785 2.72084 0
M  V30 352 H 30.0449 -2.60349 3.11405 0
M  V30 353 H 30.8109 -0.769519 4.78856 0
M  V30 354 H 26.6899 -1.85591 4.21992 0
M  V30 355 H 30.2339 0.227816 6.97228 0
M  V30 356 H 26.1309 -0.86454 6.39684 0
M  V30 357 H 26.8989 0.193662 8.18271 0
M  V30 358 N 29.562 -1.4872 -0.521534 0
M  V30 359 C 30.811 -1.56419 -1.27341 0
M  V30 360 C 31.124 -0.246805 -1.94037 0
M  V30 361 O 32.33 -0.202122 -2.70747 0
M  V30 362 C 30.786 -2.75896 -2.31105 0
M  V30 363 C 30.394 -4.14311 -1.70441 0
M  V30 364 C 32.138 -2.92913 -3.07249 0
M  V30 365 C 30.045 -5.25038 -2.72194 0
M  V30 366 H 28.975 -0.582344 -0.478949 0
M  V30 367 H 31.626 -1.75071 -0.549779 0
M  V30 368 H 30.008 -2.50697 -3.06541 0
M  V30 369 H 31.182 -4.49564 -1.01136 0
M  V30 370 H 29.497 -4.02482 -1.06759 0
M  V30 371 H 32.094 -3.72805 -3.83302 0
M  V30 372 H 32.437 -2.02689 -3.63625 0
M  V30 373 H 32.97 -3.18054 -2.38928 0
M  V30 374 H 29.709 -6.17255 -2.20627 0
M  V30 375 H 29.229 -4.94263 -3.39801 0
M  V30 376 H 30.908 -5.53508 -3.35019 0
M  V30 377 N 31.0401 0.771051 -1.3745 0
M  V30 378 C 32.2871 1.52963 -1.32697 0
M  V30 379 C 32.6151 1.94299 0.0883274 0
M  V30 380 O 31.8701 1.64397 1.0617 0
M  V30 381 C 32.1691 2.80676 -2.2126 0
M  V30 382 C 31.8351 2.58389 -3.69521 0
M  V30 383 C 30.4971 2.52019 -4.09927 0
M  V30 384 C 32.8491 2.38469 -4.63446 0
M  V30 385 C 30.1771 2.23721 -5.42371 0
M  V30 386 C 32.5291 2.11694 -5.96128 0
M  V30 387 C 31.1931 2.03769 -6.35637 0
M  V30 388 H 30.4631 0.559732 -0.485573 0
M  V30 389 H 33.1101 0.888083 -1.69662 0
M  V30 390 H 31.4151 3.49392 -1.77291 0
M  V30 391 H 33.1121 3.38557 -2.14895 0
M  V30 392 H 29.7021 2.6421 -3.37478 0
M  V30 393 H 33.8861 2.4238 -4.33089 0
M  V30 394 H 29.1421 2.16081 -5.71943 0
M  V30 395 H 33.3161 1.9528 -6.6846 0
M  V30 396 H 30.9431 1.81606 -7.38189 0
M  V30 397 N 32.5182 1.22032 0.997298 0
M  V30 398 C 33.4812 0.987909 2.06816 0
M  V30 399 C 34.4812 -0.0440084 1.6074 0
M  V30 400 O 35.6712 0.194053 1.73116 0
M  V30 401 C 32.8032 0.49132 3.37341 0
M  V30 402 H 33.9962 1.93803 2.28868 0
M  V30 403 H 31.5492 1.03838 1.16822 0
M  V30 404 H 32.2842 -0.463364 3.20973 0
M  V30 405 H 32.0692 1.23575 3.72118 0
M  V30 406 H 33.5592 0.348824 4.16141 0
M  V30 407 N 33.9963 -1.19345 1.0293 0
M  V30 408 C 35.2263 -1.92717 0.744563 0
M  V30 409 C 35.6343 -1.75751 -0.700579 0
M  V30 410 O 34.9773 -1.07703 -1.48815 0
M  V30 411 C 35.0393 -3.44828 1.01657 0
M  V30 412 C 34.7033 -3.85564 2.45335 0
M  V30 413 C 35.7003 -3.90286 3.43472 0
M  V30 414 C 33.3853 -4.1719 2.79746 0
M  V30 415 C 35.3793 -4.26065 4.74075 0
M  V30 416 C 33.0663 -4.52642 4.10559 0
M  V30 417 C 34.0643 -4.57054 5.07534 0
M  V30 418 O 33.7523 -4.91685 6.36004 0
M  V30 419 H 33.4843 -0.618977 0.271742 0
M  V30 420 H 36.0383 -1.52415 1.37691 0
M  V30 421 H 34.2683 -3.85314 0.327084 0
M  V30 422 H 35.9573 -3.99437 0.721427 0
M  V30 423 H 36.7233 -3.66002 3.18225 0
M  V30 424 H 32.6023 -4.1294 2.04943 0
M  V30 425 H 36.1463 -4.29423 5.49765 0
M  V30 426 H 32.0433 -4.76383 4.35579 0
M  V30 427 H 32.8113 -5.09631 6.40483 0
M  V30 428 N 35.4744 -0.807222 -1.35358 0
M  V30 429 C 36.4044 -0.232509 -2.3234 0
M  V30 430 C 37.3854 0.642386 -1.57504 0
M  V30 431 O 38.5704 0.572526 -1.85569 0
M  V30 432 C 35.7004 0.619238 -3.41735 0
M  V30 433 C 34.6544 -0.157215 -4.27711 0
M  V30 434 C 33.9804 0.816273 -5.28433 0
M  V30 435 C 35.2804 -1.35656 -5.04376 0
M  V30 436 H 36.9744 -1.04276 -2.80654 0
M  V30 437 H 34.5204 -0.50288 -1.34934 0
M  V30 438 H 36.4734 1.03137 -4.08584 0
M  V30 439 H 35.1974 1.46239 -2.92031 0
M  V30 440 H 33.8564 -0.550525 -3.62443 0
M  V30 441 H 33.5044 1.65494 -4.74996 0
M  V30 442 H 33.2044 0.301067 -5.86828 0
M  V30 443 H 34.7284 1.22659 -5.98153 0
M  V30 444 H 36.1424 -1.01927 -5.64166 0
M  V30 445 H 34.5394 -1.8063 -5.7227 0
M  V30 446 H 35.6094 -2.14288 -4.34981 0
M  V30 447 N 36.9525 1.47285 -0.560781 0
M  V30 448 C 38.2295 1.9558 0.0277798 0
M  V30 449 C 38.6095 1.5034 1.48192 0
M  V30 450 O 37.9575 0.743882 2.16052 0
M  V30 451 C 38.1675 3.48789 -0.121418 0
M  V30 452 C 39.5155 4.24594 0.0220912 0
M  V30 453 O 40.5395 3.56166 -0.0491439 0
M  V30 454 O 39.3985 5.46217 0.175958 0
M  V30 455 H 36.4925 0.824663 0.0621342 0
M  V30 456 H 39.0385 1.5767 -0.627556 0
M  V30 457 H 37.8105 3.74533 -1.13316 0
M  V30 458 H 37.4335 3.93473 0.571366 0
M  V30 459 N 38.4306 0.297415 1.54768 0
M  V30 460 C 39.6796 -0.313669 1.99246 0
M  V30 461 C 39.9926 -1.55281 1.18942 0
M  V30 462 O 41.1986 -2.23825 1.5367 0
M  V30 463 C 39.6546 -0.609407 3.54703 0
M  V30 464 C 39.2626 0.611192 4.43811 0
M  V30 465 C 41.0066 -1.18188 4.07715 0
M  V30 466 C 38.9136 0.288805 5.90694 0
M  V30 467 H 37.8436 -0.120979 0.744231 0
M  V30 468 H 40.4946 0.40556 1.78962 0
M  V30 469 H 38.8766 -1.38813 3.70873 0
M  V30 470 H 40.0506 1.3875 4.39414 0
M  V30 471 H 38.3656 1.10205 4.01552 0
M  V30 472 H 40.9626 -1.43727 5.15021 0
M  V30 473 H 41.3056 -2.12299 3.58099 0
M  V30 474 H 41.8386 -0.464944 3.95074 0
M  V30 475 H 38.5776 1.19838 6.44453 0
M  V30 476 H 38.0976 -0.450305 5.98107 0
M  V30 477 H 39.7766 -0.110933 6.46905 0
M  V30 478 N 39.9087 -1.5758 0.0250728 0
M  V30 479 C 40.8407 -2.06869 -0.986796 0
M  V30 480 C 41.8537 -0.991332 -1.29137 0
M  V30 481 O 43.0427 -1.26761 -1.25674 0
M  V30 482 C 40.1427 -2.47486 -2.31525 0
M  V30 483 C 39.3157 -3.78253 -2.19643 0
M  V30 484 C 38.3747 -4.05464 -3.35388 0
M  V30 485 O 37.4007 -4.75774 -3.12454 0
M  V30 486 N 38.6027 -3.55321 -4.59051 0
M  V30 487 H 41.3677 -2.94302 -0.566276 0
M  V30 488 H 38.9287 -1.6109 -0.161776 0
M  V30 489 H 40.9207 -2.62785 -3.07776 0
M  V30 490 H 39.4907 -1.65441 -2.65232 0
M  V30 491 H 38.7107 -3.7279 -1.28144 0
M  V30 492 H 39.9987 -4.63936 -2.08903 0
M  V30 493 H 39.3967 -2.98431 -4.80578 0
M  V30 494 H 37.9537 -3.75905 -5.32483 0
M  V30 495 N 41.3868 0.248026 -1.55636 0
M  V30 496 C 42.6168 0.992367 -1.81206 0
M  V30 497 C 43.0248 1.7949 -0.598324 0
M  V30 498 O 42.3678 1.78292 0.442434 0
M  V30 499 C 42.4298 1.97926 -3.00109 0
M  V30 500 C 42.0938 1.36377 -4.36177 0
M  V30 501 C 43.0908 0.76682 -5.14214 0
M  V30 502 C 40.7758 1.38347 -4.82872 0
M  V30 503 C 42.7698 0.197778 -6.37093 0
M  V30 504 C 40.4568 0.810574 -6.057 0
M  V30 505 C 41.4548 0.218754 -6.8265 0
M  V30 506 O 41.1428 -0.345298 -8.03158 0
M  V30 507 H 40.8748 0.297704 -0.606917 0
M  V30 508 H 43.4288 0.276517 -2.0353 0
M  V30 509 H 41.6588 2.73339 -2.73538 0
M  V30 510 H 43.3478 2.58694 -3.12781 0
M  V30 511 H 44.1138 0.744114 -4.79258 0
M  V30 512 H 39.9928 1.8335 -4.2297 0
M  V30 513 H 43.5368 -0.264788 -6.97097 0
M  V30 514 H 39.4338 0.830604 -6.40134 0
M  V30 515 H 40.2018 -0.237055 -8.18157 0
M  V30 516 N 42.8649 1.48995 0.513639 0
M  V30 517 C 43.7749 1.67443 1.64317 0
M  V30 518 C 44.7909 0.556947 1.64846 0
M  V30 519 O 45.9669 0.830082 1.83498 0
M  V30 520 C 43.0319 1.72515 3.00732 0
M  V30 521 C 42.0929 2.96009 3.1093 0
M  V30 522 C 41.3259 3.00829 4.40837 0
M  V30 523 O 41.5489 2.13594 5.28898 0
M  V30 524 O 40.4829 3.93168 4.55744 0
M  V30 525 H 44.3089 2.63106 1.51687 0
M  V30 526 H 41.8939 1.32588 0.688543 0
M  V30 527 H 43.7759 1.78277 3.81831 0
M  V30 528 H 42.4509 0.800278 3.13651 0
M  V30 529 H 41.3579 2.9577 2.29065 0
M  V30 530 H 42.6909 3.87934 3.02933 0
M  V30 531 N 44.343 -0.763751 1.37857 0
M  V30 532 C 45.62 -1.51244 1.24035 0
M  V30 533 C 46 -2.10472 -0.162649 0
M  V30 534 O 45.348 -1.96206 -1.17112 0
M  V30 535 C 45.558 -2.58694 2.34261 0
M  V30 536 C 46.906 -3.25878 2.72193 0
M  V30 537 O 47.93 -2.68993 2.33497 0
M  V30 538 O 46.789 -4.2874 3.38887 0
M  V30 539 H 43.883 -0.670243 0.484462 0
M  V30 540 H 46.429 -0.800031 1.49658 0
M  V30 541 H 45.201 -2.13105 3.2818 0
M  V30 542 H 44.824 -3.37527 2.10146 0
M  V30 543 N 45.8211 -1.22559 -0.990812 0
M  V30 544 C 46.7711 -0.964807 -2.0658 0
M  V30 545 C 47.7551 0.0853472 -1.60673 0
M  V30 546 O 48.9471 -0.125443 -1.76555 0
M  V30 547 C 46.0761 -0.546707 -3.38919 0
M  V30 548 C 45.1621 -1.6317 -3.91454 0
M  V30 549 N 45.5531 -2.85985 -4.17189 0
M  V30 550 C 43.8511 -1.50387 -4.19881 0
M  V30 551 C 44.5521 -3.56159 -4.59919 0
M  V30 552 N 43.5281 -2.83637 -4.63736 0
M  V30 553 H 47.3301 -1.89769 -2.24421 0
M  V30 554 H 44.8441 -1.12343 -1.17273 0
M  V30 555 H 46.8411 -0.34119 -4.15502 0
M  V30 556 H 45.5011 0.379254 -3.22478 0
M  V30 557 H 46.5121 -3.22392 -4.05319 0
M  V30 558 H 43.1891 -0.644254 -4.12499 0
M  V30 559 H 44.5791 -4.6139 -4.88435 0
M  V30 560 N 47.2992 1.18797 -1.03562 0
M  V30 561 C 48.7152 1.40671 -0.753917 0
M  V30 562 C 48.9152 1.9043 0.658686 0
M  V30 563 O 47.9712 2.08538 1.42366 0
M  V30 564 C 49.2842 2.41192 -1.79574 0
M  V30 565 C 50.8322 2.54928 -1.81606 0
M  V30 566 C 51.3072 3.58709 -2.84766 0
M  V30 567 N 52.7982 3.66212 -2.83625 0
M  V30 568 C 53.5332 4.46225 -3.60098 0
M  V30 569 N 53.0292 5.29888 -4.46308 0
M  V30 570 N 54.8222 4.40939 -3.4861 0
M  V30 571 H 46.9732 0.848221 -1.94728 0
M  V30 572 H 49.2362 0.435081 -0.842264 0
M  V30 573 H 48.9422 2.11669 -2.80872 0
M  V30 574 H 48.8162 3.40467 -1.62365 0
M  V30 575 H 51.2032 2.83771 -0.809817 0
M  V30 576 H 51.2842 1.55784 -2.02891 0
M  V30 577 H 50.9282 3.30607 -3.85566 0
M  V30 578 H 50.8582 4.57519 -2.60737 0
M  V30 579 H 53.3492 3.06466 -2.21105 0
M  V30 580 H 53.6622 5.88078 -5.01382 0
M  V30 581 H 52.0072 5.29326 -4.50377 0
M  V30 582 H 55.1982 3.74624 -2.80668 0
M  V30 583 H 55.3712 5.03056 -4.08459 0
M  V30 584 N 48.7773 0.814389 1.34928 0
M  V30 585 C 50.0263 0.394871 1.97797 0
M  V30 586 C 50.3393 -1.04555 1.65311 0
M  V30 587 O 51.5453 -1.56856 2.21604 0
M  V30 588 C 50.0013 0.655103 3.53888 0
M  V30 589 C 49.6093 2.10858 3.95276 0
M  V30 590 C 51.3533 0.301329 4.23429 0
M  V30 591 C 49.2603 2.31415 5.44244 0
M  V30 592 H 48.1903 0.143913 0.740139 0
M  V30 593 H 50.8413 0.999544 1.53888 0
M  V30 594 H 49.2233 -0.0196253 3.95995 0
M  V30 595 H 50.3973 2.82176 3.64298 0
M  V30 596 H 48.7123 2.42297 3.38646 0
M  V30 597 H 51.3093 0.432869 5.32945 0
M  V30 598 H 51.6523 -0.75331 4.09428 0
M  V30 599 H 52.1853 0.930288 3.86769 0
M  V30 600 H 48.9243 3.35353 5.63222 0
M  V30 601 H 48.4443 1.6463 5.76764 0
M  V30 602 H 50.1233 2.13352 6.10811 0
M  V30 603 N 50.2554 -1.46986 0.568584 0
M  V30 604 C 51.1654 -2.33942 -0.17555 0
M  V30 605 C 52.1814 -1.48891 -0.90041 0
M  V30 606 O 53.3574 -1.81794 -0.86676 0
M  V30 607 C 50.4224 -3.25811 -1.18524 0
M  V30 608 C 49.4834 -4.26757 -0.466582 0
M  V30 609 C 48.7164 -5.14236 -1.42817 0
M  V30 610 O 48.9394 -5.04379 -2.66379 0
M  V30 611 O 47.8734 -5.94412 -0.946453 0
M  V30 612 H 51.6994 -2.98896 0.538036 0
M  V30 613 H 49.2844 -1.4573 0.329097 0
M  V30 614 H 51.1664 -3.82527 -1.76779 0
M  V30 615 H 49.8414 -2.63471 -1.88055 0
M  V30 616 H 48.7484 -3.73769 0.157451 0
M  V30 617 H 50.0814 -4.91843 0.187485 0
M  V30 618 N 51.7335 -0.305618 -1.54608 0
M  V30 619 C 52.6655 0.602161 -2.21149 0
M  V30 620 C 53.6785 1.09394 -1.20569 0
M  V30 621 O 54.8675 1.0106 -1.47136 0
M  V30 622 C 51.9675 1.83692 -2.84799 0
M  V30 623 C 51.1405 1.48686 -4.11353 0
M  V30 624 C 50.1995 2.57725 -4.58764 0
M  V30 625 O 49.2255 2.22623 -5.23858 0
M  V30 626 N 50.4275 3.88346 -4.31471 0
M  V30 627 H 53.1925 0.0324966 -2.99682 0
M  V30 628 H 50.7535 -0.128021 -1.61393 0
M  V30 629 H 52.7455 2.55994 -3.13448 0
M  V30 630 H 51.3155 2.31486 -2.10078 0
M  V30 631 H 50.5355 0.596269 -3.89664 0
M  V30 632 H 51.8235 1.22842 -4.93748 0
M  V30 633 H 51.2215 4.19671 -3.79331 0
M  V30 634 H 49.7785 4.56932 -4.64818 0
M  V30 635 N 53.2116 1.57565 -0.0334293 0
M  V30 636 C 54.1746 2.09393 0.932048 0
M  V30 637 C 55.1746 1.00986 1.25134 0
M  V30 638 O 56.3646 1.27129 1.19096 0
M  V30 639 C 53.4966 2.56338 2.2473 0
M  V30 640 H 54.6896 2.95984 0.483085 0
M  V30 641 H 52.2426 1.54819 0.21468 0
M  V30 642 H 52.9776 1.7309 2.74245 0
M  V30 643 H 52.7626 3.35542 2.02865 0
M  V30 644 H 54.2526 2.96646 2.93923 0
M  V30 645 N 54.6897 -0.239769 1.55765 0
M  V30 646 C 55.9667 -0.990056 1.68693 0
M  V30 647 C 56.3467 -2.03107 0.5754 0
M  V30 648 O 55.6947 -2.24604 -0.42017 0
M  V30 649 C 55.9047 -1.61696 3.09282 0
M  V30 650 C 57.2527 -2.11613 3.6811 0
M  V30 651 O 58.2767 -1.71624 3.12127 0
M  V30 652 O 57.1357 -2.85057 4.66267 0
M  V30 653 H 54.2297 -0.461299 0.686391 0
M  V30 654 H 56.7757 -0.232991 1.68093 0
M  V30 655 H 55.5477 -0.864357 3.81634 0
M  V30 656 H 55.1707 -2.44005 3.13923 0
M  V30 657 N 56.1678 -1.49265 -0.50573 0
M  V30 658 C 57.4138 -1.59723 -1.25937 0
M  V30 659 C 57.7688 -0.278236 -1.90378 0
M  V30 660 O 57.0618 0.72113 -1.77511 0
M  V30 661 C 57.2558 -2.69008 -2.35308 0
M  V30 662 C 57.0848 -4.11405 -1.81592 0
M  V30 663 C 55.8548 -4.78252 -1.63105 0
M  V30 664 C 58.0528 -4.96792 -1.33048 0
M  V30 665 N 56.0348 -6.0498 -1.04269 0
M  V30 666 C 57.4058 -6.13962 -0.863168 0
M  V30 667 C 59.4608 -4.82828 -1.21577 0
M  V30 668 C 58.1638 -7.18705 -0.292489 0
M  V30 669 C 60.1898 -5.87716 -0.65907 0
M  V30 670 C 59.5518 -7.0411 -0.201954 0
M  V30 671 H 55.6508 -0.638864 -0.450973 0
M  V30 672 H 58.2348 -1.86251 -0.567326 0
M  V30 673 H 56.4058 -2.4426 -3.01979 0
M  V30 674 H 58.1378 -2.69013 -3.02348 0
M  V30 675 H 54.8928 -4.34974 -1.87336 0
M  V30 676 H 55.3168 -6.72631 -0.767919 0
M  V30 677 H 59.9588 -3.93159 -1.55518 0
M  V30 678 H 57.6768 -8.08078 0.0591987 0
M  V30 679 H 61.2628 -5.7897 -0.573156 0
M  V30 680 H 60.1428 -7.83885 0.222101 0
M  V30 681 N 57.6459 0.756429 -1.3826 0
M  V30 682 C 59.0569 1.33359 -1.30661 0
M  V30 683 C 59.4079 1.96161 0.0388875 0
M  V30 684 O 58.5329 1.94874 0.940918 0
M  V30 685 C 59.1279 2.42477 -2.36622 0
M  V30 686 C 57.6869 2.95922 -2.3261 0
M  V30 687 C 56.8339 1.69275 -2.19639 0
M  V30 688 H 59.7849 0.55552 -1.4866 0
M  V30 689 H 59.8059 3.22345 -2.02174 0
M  V30 690 H 59.3179 1.96739 -3.34538 0
M  V30 691 H 57.4189 3.45996 -1.38267 0
M  V30 692 H 57.5319 3.50494 -3.26636 0
M  V30 693 H 55.8959 1.92793 -1.66442 0
M  V30 694 H 56.6789 1.25619 -3.19491 0
M  V30 695 N 59.124 1.23083 0.984299 0
M  V30 696 C 60.034 1.02515 2.11016 0
M  V30 697 C 61.05 -0.0291702 1.73976 0
M  V30 698 O 62.226 0.165434 2.00719 0
M  V30 699 C 59.291 0.614673 3.41208 0
M  V30 700 C 58.352 1.74359 3.92297 0
M  V30 701 C 57.585 1.35261 5.16275 0
M  V30 702 O 57.808 0.235136 5.69915 0
M  V30 703 O 56.742 2.17227 5.61334 0
M  V30 704 H 60.568 1.96862 2.31255 0
M  V30 705 H 58.153 1.01753 1.09392 0
M  V30 706 H 60.035 0.396518 4.1953 0
M  V30 707 H 58.71 -0.299851 3.22308 0
M  V30 708 H 57.617 2.01635 3.1511 0
M  V30 709 H 58.95 2.63629 4.15645 0
M  V30 710 N 60.6021 -1.18246 1.0419 0
M  V30 711 C 61.8511 -1.87588 0.741194 0
M  V30 712 C 62.1641 -1.81303 -0.734066 0
M  V30 713 O 63.3701 -2.46019 -1.14834 0
M  V30 714 C 61.8261 -3.36538 1.27555 0
M  V30 715 C 61.4341 -3.51349 2.77953 0
M  V30 716 C 63.1781 -4.11273 1.05143 0
M  V30 717 C 61.0851 -4.94265 3.2474 0
M  V30 718 H 60.0151 -0.702622 0.273565 0
M  V30 719 H 62.6661 -1.33601 1.25789 0
M  V30 720 H 61.0481 -3.9 0.686703 0
M  V30 721 H 62.2221 -3.08153 3.42605 0
M  V30 722 H 60.5371 -2.90022 2.98791 0
M  V30 723 H 63.1341 -5.16689 1.37611 0
M  V30 724 H 63.4771 -4.16298 -0.0112774 0
M  V30 725 H 64.0101 -3.63987 1.60495 0
M  V30 726 H 60.7491 -4.94408 4.30396 0
M  V30 727 H 60.2691 -5.38172 2.64823 0
M  V30 728 H 61.9481 -5.62987 3.18834 0
M  V30 729 N 62.0802 -0.821533 -1.34494 0
M  V30 730 C 63.0272 -0.240397 -2.29545 0
M  V30 731 C 63.9972 0.634031 -1.53523 0
M  V30 732 O 65.1822 0.575966 -1.81899 0
M  V30 733 C 62.3222 0.592869 -3.39969 0
M  V30 734 C 61.4352 -0.30365 -4.30932 0
M  V30 735 C 60.5702 0.539049 -5.28458 0
M  V30 736 C 59.6092 -0.356942 -6.11058 0
M  V30 737 N 58.7462 0.446603 -7.00678 0
M  V30 738 H 63.5862 -1.05632 -2.7865 0
M  V30 739 H 61.1232 -0.532413 -1.37127 0
M  V30 740 H 63.0812 1.09129 -4.02675 0
M  V30 741 H 61.7112 1.37392 -2.92102 0
M  V30 742 H 60.7632 -0.920276 -3.691 0
M  V30 743 H 62.0752 -0.992661 -4.88823 0
M  V30 744 H 61.2292 1.102 -5.96608 0
M  V30 745 H 59.9682 1.26157 -4.71101 0
M  V30 746 H 58.9732 -0.932047 -5.41842 0
M  V30 747 H 60.1982 -1.07755 -6.70497 0
M  V30 748 H 58.1442 1.15282 -6.45791 0
M  V30 749 H 58.0612 -0.184048 -7.55776 0
M  V30 750 H 59.3292 0.992352 -7.73158 0
M  V30 751 N 63.5583 1.46682 -0.576371 0
M  V30 752 C 64.7833 2.07304 -0.0630475 0
M  V30 753 C 65.2083 1.42329 1.2298 0
M  V30 754 O 64.5663 0.504865 1.74129 0
M  V30 755 C 64.6143 3.60472 0.095895 0
M  V30 756 O 63.7183 3.95927 1.15394 0
M  V30 757 H 63.0593 0.661288 -0.0599463 0
M  V30 758 H 65.5893 1.88417 -0.797511 0
M  V30 759 H 65.5993 4.06865 0.304071 0
M  V30 760 H 64.2743 4.07157 -0.84828 0
M  V30 761 H 62.8513 3.61252 0.924724 0
M  V30 762 N 65.0364 0.313813 1.54444 0
M  V30 763 C 66.2644 -0.293918 2.04802 0
M  V30 764 C 66.6794 -1.46537 1.19047 0
M  V30 765 O 66.0364 -1.81182 0.218939 0
M  V30 766 C 66.0874 -0.737806 3.53891 0
M  V30 767 O 65.8084 0.387038 4.36387 0
M  V30 768 C 67.3094 -1.40936 4.203 0
M  V30 769 H 64.5294 -0.0620057 0.668129 0
M  V30 770 H 67.0734 0.457169 1.99324 0
M  V30 771 H 65.2284 -1.43889 3.59687 0
M  V30 772 H 65.6424 0.0391274 5.24485 0
M  V30 773 H 67.1164 -1.67099 5.26101 0
M  V30 774 H 67.5934 -2.35355 3.70816 0
M  V30 775 H 68.1994 -0.751117 4.18615 0
M  V30 776 N 66.5145 -1.57545 0.0417849 0
M  V30 777 C 67.4445 -2.14009 -0.933929 0
M  V30 778 C 68.4255 -1.05938 -1.33083 0
M  V30 779 O 69.6105 -1.33833 -1.40721 0
M  V30 780 C 66.7405 -2.67747 -2.21199 0
M  V30 781 C 65.6945 -3.80718 -1.95544 0
M  V30 782 C 65.0205 -4.20935 -3.29724 0
M  V30 783 C 66.3205 -5.06258 -1.28452 0
M  V30 784 H 68.0145 -2.95788 -0.463645 0
M  V30 785 H 65.5605 -1.42285 -0.221573 0
M  V30 786 H 67.5135 -3.05886 -2.89848 0
M  V30 787 H 66.2375 -1.83147 -2.70416 0
M  V30 788 H 64.8965 -3.43037 -1.2931 0
M  V30 789 H 64.5445 -3.33298 -3.76724 0
M  V30 790 H 64.2445 -4.9707 -3.13361 0
M  V30 791 H 65.7685 -4.61666 -3.9962 0
M  V30 792 H 67.1825 -5.41903 -1.8712 0
M  V30 793 H 65.5795 -5.87475 -1.22445 0
M  V30 794 H 66.6495 -4.84207 -0.259219 0
M  V30 795 N 67.9926 0.231505 -1.5589 0
M  V30 796 C 69.4036 0.799327 -1.68724 0
M  V30 797 C 69.7546 1.85398 -0.642022 0
M  V30 798 O 68.8796 2.1539 0.208784 0
M  V30 799 C 69.4746 1.45664 -3.05888 0
M  V30 800 C 68.0336 1.97197 -3.20609 0
M  V30 801 C 67.1806 0.828552 -2.64632 0
M  V30 802 H 70.1316 0.00702616 -1.58698 0
M  V30 803 H 70.1526 2.32517 -3.01191 0
M  V30 804 H 69.6646 0.688808 -3.81939 0
M  V30 805 H 67.7656 2.76813 -2.4941 0
M  V30 806 H 67.8786 2.15878 -4.27707 0
M  V30 807 H 66.2426 1.23321 -2.22854 0
M  V30 808 H 67.0256 0.0735544 -3.43221 0
M  V30 809 N 69.4707 1.49531 0.497807 0
M  V30 810 C 70.7177 1.59179 1.25173 0
M  V30 811 C 71.0457 0.279932 1.92475 0
M  V30 812 O 70.3007 -0.732383 1.81479 0
M  V30 813 C 70.5997 2.70252 2.33878 0
M  V30 814 C 70.2657 4.11644 1.84012 0
M  V30 815 C 68.9277 4.50121 1.70132 0
M  V30 816 C 71.2797 5.00121 1.46725 0
M  V30 817 C 68.6077 5.74845 1.17348 0
M  V30 818 C 70.9597 6.25366 0.95392 0
M  V30 819 C 69.6237 6.6267 0.801538 0
M  V30 820 H 68.8937 0.582478 0.45804 0
M  V30 821 H 71.5407 1.83373 0.551948 0
M  V30 822 H 69.8457 2.40041 3.09657 0
M  V30 823 H 71.5427 2.74925 2.9192 0
M  V30 824 H 68.1327 3.81274 1.95775 0
M  V30 825 H 72.3167 4.71048 1.56294 0
M  V30 826 H 67.5727 6.02444 1.04264 0
M  V30 827 H 71.7467 6.93301 0.656225 0
M  V30 828 H 69.3737 7.59197 0.390351 0
M  V30 829 N 70.9488 -0.749086 1.3866 0
M  V30 830 C 72.1968 -1.50535 1.34847 0
M  V30 831 C 72.5178 -1.94909 -0.0595016 0
M  V30 832 O 71.7878 -1.67973 -1.00806 0
M  V30 833 H 70.3678 -0.558395 0.49619 0
M  V30 834 H 73.0298 -0.890165 1.73384 0
M  V30 835 H 72.1258 -2.39413 2.00219 0
M  V30 836 N 72.4269 -1.23603 -0.977757 0
M  V30 837 C 73.3739 -1.01954 -2.07061 0
M  V30 838 C 74.3439 0.0638697 -1.65977 0
M  V30 839 O 75.5289 -0.0887624 -1.90593 0
M  V30 840 C 72.6689 -0.619658 -3.39491 0
M  V30 841 C 71.7819 -1.77547 -3.93829 0
M  V30 842 C 70.9169 -1.32212 -5.14484 0
M  V30 843 C 69.9559 -2.44852 -5.60994 0
M  V30 844 N 69.0929 -2.00456 -6.72876 0
M  V30 845 H 73.9329 -1.95495 -2.24913 0
M  V30 846 H 71.4699 -0.973861 -1.10247 0
M  V30 847 H 73.4279 -0.368898 -4.15566 0
M  V30 848 H 72.0579 0.278752 -3.21594 0
M  V30 849 H 71.1099 -2.14016 -3.14486 0
M  V30 850 H 72.4219 -2.62219 -4.24314 0
M  V30 851 H 71.5759 -1.02965 -5.97899 0
M  V30 852 H 70.3149 -0.445808 -4.85658 0
M  V30 853 H 69.3199 -2.74871 -4.76157 0
M  V30 854 H 70.5449 -3.33024 -5.91837 0
M  V30 855 H 68.4909 -1.15208 -6.45804 0
M  V30 856 H 68.4079 -2.78687 -7.02759 0
M  V30 857 H 69.6759 -1.7432 -7.59758 0
M  V30 858 N 73.905 1.17692 -1.04816 0
M  V30 859 C 75.154 1.87192 -0.751132 0
M  V30 860 C 75.467 1.8169 0.724441 0
M  V30 861 O 76.673 2.46625 1.13527 0
M  V30 862 C 75.129 3.35857 -1.29338 0
M  V30 863 C 74.737 3.4987 -2.79812 0
M  V30 864 C 76.481 4.10709 -1.07322 0
M  V30 865 C 74.388 4.92536 -3.27356 0
M  V30 866 H 73.318 0.701162 -0.277288 0
M  V30 867 H 75.969 1.32932 -1.26496 0
M  V30 868 H 74.351 3.89631 -0.707376 0
M  V30 869 H 75.525 3.06332 -3.44235 0
M  V30 870 H 73.84 2.88433 -3.00325 0
M  V30 871 H 76.437 5.15952 -1.4035 0
M  V30 872 H 76.78 4.16299 -0.0108001 0
M  V30 873 H 77.313 3.6313 -1.62423 0
M  V30 874 H 74.052 4.92119 -4.33012 0
M  V30 875 H 73.572 5.3676 -2.67673 0
M  V30 876 H 75.251 5.61288 -3.21815 0
M  V30 877 N 75.3831 0.828654 1.34056 0
M  V30 878 C 76.7941 0.477534 1.8049 0
M  V30 879 C 77.1451 -1.00258 1.6865 0
M  V30 880 O 76.2701 -1.78057 1.22982 0
M  V30 881 C 76.8651 0.860018 3.27703 0
M  V30 882 C 75.4241 0.561185 3.72193 0
M  V30 883 C 74.5711 1.07385 2.55663 0
M  V30 884 H 77.5221 1.0183 1.21722 0
M  V30 885 H 77.5431 0.166038 3.80138 0
M  V30 886 H 77.0551 1.93731 3.36288 0
M  V30 887 H 75.1561 -0.506465 3.69142 0
M  V30 888 H 75.2691 1.10926 4.66082 0
M  V30 889 H 73.6331 0.495149 2.49841 0
M  V30 890 H 74.4161 2.15771 2.67016 0
M  V30 891 N 76.8612 -1.46375 0.584142 0
M  V30 892 C 78.1102 -2.01585 0.0679741 0
M  V30 893 C 78.4232 -1.46109 -1.30045 0
M  V30 894 O 79.6292 -1.93148 -1.90804 0
M  V30 895 C 78.0852 -3.5983 0.0709207 0
M  V30 896 C 77.6932 -4.24303 1.43775 0
M  V30 897 C 79.4372 -4.22693 -0.391228 0
M  V30 898 C 77.3442 -5.74631 1.39834 0
M  V30 899 H 76.2742 -0.753689 0.0216421 0
M  V30 900 H 78.9252 -1.68093 0.736001 0
M  V30 901 H 77.3072 -3.90405 -0.663299 0
M  V30 902 H 78.4812 -4.05335 2.19181 0
M  V30 903 H 76.7962 -3.73539 1.84004 0
M  V30 904 H 79.3932 -5.3289 -0.439524 0
M  V30 905 H 79.7362 -3.91728 -1.40906 0
M  V30 906 H 80.2692 -3.96749 0.288974 0
M  V30 907 H 77.0082 -6.10258 2.39303 0
M  V30 908 H 76.5282 -5.95858 0.686505 0
M  V30 909 H 78.2072 -6.37375 1.11187 0
M  V30 910 N 78.3393 -0.321999 -1.54275 0
M  V30 911 C 79.2693 0.537411 -2.27231 0
M  V30 912 C 80.2503 1.12064 -1.27968 0
M  V30 913 O 81.4353 1.14606 -1.56777 0
M  V30 914 C 78.5653 1.69919 -3.02894 0
M  V30 915 C 77.5193 1.24534 -4.09482 0
M  V30 916 C 76.8453 2.49394 -4.72977 0
M  V30 917 C 78.1453 0.361335 -5.21049 0
M  V30 918 H 79.8393 -0.0711406 -2.99315 0
M  V30 919 H 77.3853 -0.0356555 -1.43956 0
M  V30 920 H 79.3383 2.30668 -3.52662 0
M  V30 921 H 78.0623 2.33431 -2.28424 0
M  V30 922 H 76.7213 0.660782 -3.60596 0
M  V30 923 H 76.3693 3.11265 -3.95124 0
M  V30 924 H 76.0693 2.19718 -5.44975 0
M  V30 925 H 77.5933 3.10908 -5.25517 0
M  V30 926 H 79.0073 0.875072 -5.66582 0
M  V30 927 H 77.4043 0.157428 -5.99893 0
M  V30 928 H 78.4743 -0.60822 -4.8107 0
M  V30 929 N 79.8174 1.5752 -0.0501392 0
M  V30 930 C 80.7274 2.14952 0.939827 0
M  V30 931 C 81.7434 1.10706 1.34239 0
M  V30 932 O 82.9194 1.42869 1.41952 0
M  V30 933 C 79.9844 2.68232 2.19665 0
M  V30 934 C 79.0454 3.87272 1.85253 0
M  V30 935 C 78.2784 4.38002 3.04943 0
M  V30 936 O 78.5014 3.87811 4.18281 0
M  V30 937 O 77.4354 5.29602 2.86017 0
M  V30 938 H 81.2614 2.9986 0.481392 0
M  V30 939 H 78.8464 1.4841 0.171699 0
M  V30 940 H 80.7284 3.02475 2.93406 0
M  V30 941 H 79.4034 1.86395 2.64648 0
M  V30 942 H 78.3104 3.5792 1.0883 0
M  V30 943 H 79.6434 4.70336 1.4507 0
M  V30 944 N 81.2955 -0.223234 1.56011 0
M  V30 945 C 82.5415 -0.949279 1.79211 0
M  V30 946 C 82.8745 -1.84054 0.619494 0
M  V30 947 O 82.1495 -1.90726 -0.381317 0
M  V30 948 C 82.4325 -1.78965 3.12479 0
M  V30 949 C 82.2855 -0.924997 4.40186 0
M  V30 950 C 83.6045 -2.76774 3.42175 0
M  V30 951 H 80.7235 -0.343676 0.651963 0
M  V30 952 H 83.3655 -0.218253 1.88742 0
M  V30 953 H 81.5155 -2.41291 3.04485 0
M  V30 954 H 83.1875 -0.318615 4.60198 0
M  V30 955 H 81.4305 -0.230344 4.33188 0
M  V30 956 H 82.1015 -1.54735 5.29869 0
M  V30 957 H 84.5775 -2.24584 3.50287 0
M  V30 958 H 83.4535 -3.32678 4.36597 0
M  V30 959 H 83.7145 -3.54429 2.64258 0
M  V30 960 N 82.7736 -1.49793 -0.48987 0
M  V30 961 C 84.0506 -1.50348 -1.25119 0
M  V30 962 C 84.4306 -0.237466 -2.0976 0
M  V30 963 O 83.7786 0.77981 -2.14782 0
M  V30 964 C 83.9886 -2.78872 -2.09837 0
M  V30 965 C 85.3366 -3.288 -2.68655 0
M  V30 966 O 86.3606 -2.80065 -2.20096 0
M  V30 967 O 85.2196 -4.13707 -3.57083 0
M  V30 968 H 82.3136 -0.602242 -0.566775 0
M  V30 969 H 84.8596 -1.62067 -0.503229 0
M  V30 970 H 83.6316 -3.62499 -1.47343 0
M  V30 971 H 83.2546 -2.70066 -2.91805 0
M  V30 972 N 84.2517 0.741722 -1.39055 0
M  V30 973 C 85.4997 1.49818 -1.35643 0
M  V30 974 C 85.8207 1.94938 0.0491642 0
M  V30 975 O 85.0907 1.68505 0.999141 0
M  V30 976 H 83.6707 0.555755 -0.499144 0
M  V30 977 H 86.3327 0.880957 -1.73854 0
M  V30 978 H 85.4287 2.38348 -2.01486 0
M  V30 979 N 85.7298 1.2412 0.971189 0
M  V30 980 C 86.6598 1.05508 2.08304 0
M  V30 981 C 87.6408 -0.0308864 1.70072 0
M  V30 982 O 88.8258 0.135521 1.93727 0
M  V30 983 C 85.9558 0.655365 3.4106 0
M  V30 984 C 84.9098 1.68971 3.93234 0
M  V30 985 C 84.2358 1.14516 5.22293 0
M  V30 986 C 85.5358 3.08487 4.21465 0
M  V30 987 H 87.2298 1.98507 2.24132 0
M  V30 988 H 84.7758 0.955821 1.07704 0
M  V30 989 H 86.7288 0.51217 4.18276 0
M  V30 990 H 85.4528 -0.31032 3.25122 0
M  V30 991 H 84.1118 1.82106 3.18171 0
M  V30 992 H 83.7598 0.170189 5.02712 0
M  V30 993 H 83.4598 1.83635 5.58168 0
M  V30 994 H 84.9838 1.01401 6.02121 0
M  V30 995 H 86.3978 2.98601 4.89398 0
M  V30 996 H 84.7948 3.74926 4.68562 0
M  V30 997 H 85.8648 3.56787 3.28376 0
M  V30 998 N 87.2079 -1.17134 1.05439 0
M  V30 999 C 88.4359 -1.91372 0.786414 0
M  V30 1000 C 88.8509 -1.76955 -0.658202 0
M  V30 1001 O 88.2079 -1.10838 -1.44987 0
M  V30 1002 C 88.2589 -3.42356 1.1608 0
M  V30 1003 O 87.9799 -3.56332 2.54871 0
M  V30 1004 C 89.4809 -4.33663 0.919322 0
M  V30 1005 H 86.7009 -0.607118 0.285743 0
M  V30 1006 H 89.2449 -1.48525 1.40572 0
M  V30 1007 H 87.3999 -3.82939 0.586191 0
M  V30 1008 H 87.8139 -4.49896 2.69618 0
M  V30 1009 H 89.2879 -5.38099 1.231 0
M  V30 1010 H 89.7649 -4.38959 -0.145359 0
M  V30 1011 H 90.3709 -3.98796 1.47789 0
M  V30 1012 N 88.686 -0.835752 -1.33615 0
M  V30 1013 C 89.616 -0.281739 -2.31794 0
M  V30 1014 C 90.597 0.608833 -1.58831 0
M  V30 1015 O 91.782 0.533035 -1.86741 0
M  V30 1016 C 88.912 0.546612 -3.42971 0
M  V30 1017 C 87.866 -0.247904 -4.27281 0
M  V30 1018 C 87.192 0.704001 -5.30045 0
M  V30 1019 C 88.492 -1.46324 -5.01385 0
M  V30 1020 H 90.186 -1.10206 -2.78379 0
M  V30 1021 H 87.732 -0.531388 -1.33837 0
M  V30 1022 H 89.685 0.944467 -4.1068 0
M  V30 1023 H 88.409 1.40011 -2.95067 0
M  V30 1024 H 87.068 -0.627281 -3.61194 0
M  V30 1025 H 86.716 1.55381 -4.78399 0
M  V30 1026 H 86.416 0.176524 -5.87335 0
M  V30 1027 H 87.94 1.09944 -6.0062 0
M  V30 1028 H 89.354 -1.13871 -5.61877 0
M  V30 1029 H 87.751 -1.92728 -5.6831 0
M  V30 1030 H 88.821 -2.23467 -4.30338 0
M  V30 1031 N 90.1641 1.46063 -0.591896 0
M  V30 1032 C 91.1141 2.27458 0.157172 0
M  V30 1033 C 92.0981 1.3641 0.853301 0
M  V30 1034 O 93.2901 1.60517 0.74588 0
M  V30 1035 C 90.4191 3.22956 1.16423 0
M  V30 1036 C 89.5051 4.2149 0.469742 0
M  V30 1037 N 89.8961 5.03519 -0.479839 0
M  V30 1038 C 88.1941 4.40161 0.719319 0
M  V30 1039 C 88.8951 5.74904 -0.886591 0
M  V30 1040 N 87.8711 5.43097 -0.233731 0
M  V30 1041 H 91.6731 2.88272 -0.572392 0
M  V30 1042 H 89.1871 1.57024 -0.414375 0
M  V30 1043 H 91.1841 3.79986 1.71513 0
M  V30 1044 H 89.8441 2.63701 1.89451 0
M  V30 1045 H 90.8551 5.1078 -0.855823 0
M  V30 1046 H 87.5321 3.92046 1.43548 0
M  V30 1047 H 88.9221 6.50844 -1.66888 0
M  V30 1048 N 91.6422 0.330177 1.54103 0
M  V30 1049 C 92.5742 -0.566902 2.22079 0
M  V30 1050 C 93.5872 -1.07462 1.22294 0
M  V30 1051 O 94.7762 -0.987065 1.48726 0
M  V30 1052 C 91.8762 -1.79138 2.87685 0
M  V30 1053 C 91.0492 -1.42123 4.13666 0
M  V30 1054 C 90.1082 -2.50394 4.62806 0
M  V30 1055 O 89.1342 -2.14261 5.27334 0
M  V30 1056 N 90.3362 -3.81433 4.37595 0
M  V30 1057 H 93.1012 0.0151844 2.99696 0
M  V30 1058 H 90.6622 0.153681 1.61169 0
M  V30 1059 H 92.6542 -2.50975 3.1748 0
M  V30 1060 H 91.2242 -2.28115 2.13734 0
M  V30 1061 H 90.4442 -0.534201 3.90564 0
M  V30 1062 H 91.7322 -1.14971 4.9564 0
M  V30 1063 H 91.1302 -4.13584 3.8596 0
M  V30 1064 H 89.6872 -4.4948 4.72029 0
M  V30 1065 N 93.1203 -1.57491 0.0584922 0
M  V30 1066 C 94.3453 -1.97711 -0.62652 0
M  V30 1067 C 94.7703 -0.936132 -1.63151 0
M  V30 1068 O 94.1283 0.099811 -1.81025 0
M  V30 1069 C 94.1763 -3.36989 -1.28338 0
M  V30 1070 O 93.2803 -3.35433 -2.39913 0
M  V30 1071 H 92.6213 -0.643868 -0.162266 0
M  V30 1072 H 95.1513 -2.04193 0.129064 0
M  V30 1073 H 95.1613 -3.73879 -1.63335 0
M  V30 1074 H 93.8363 -4.12289 -0.546889 0
M  V30 1075 H 92.4133 -3.10298 -2.06809 0
M  V30 1076 N 94.5984 0.214957 -1.56127 0
M  V30 1077 C 95.5284 1.2695 -1.95974 0
M  V30 1078 C 96.5094 1.48539 -0.828868 0
M  V30 1079 O 97.6944 1.60611 -1.09168 0
M  V30 1080 C 94.8244 2.61794 -2.28214 0
M  V30 1081 C 93.7784 2.54851 -3.43853 0
M  V30 1082 C 93.1044 3.93785 -3.61715 0
M  V30 1083 C 94.4044 2.09065 -4.78632 0
M  V30 1084 H 96.0984 0.93846 -2.84312 0
M  V30 1085 H 93.6444 0.449996 -1.36788 0
M  V30 1086 H 95.5974 3.35731 -2.54682 0
M  V30 1087 H 94.3214 2.96599 -1.36736 0
M  V30 1088 H 92.9804 1.8337 -3.17444 0
M  V30 1089 H 92.6284 4.25908 -2.67602 0
M  V30 1090 H 92.3284 3.90019 -4.39498 0
M  V30 1091 H 93.8524 4.69374 -3.90539 0
M  V30 1092 H 95.2664 2.7275 -5.04262 0
M  V30 1093 H 93.6634 2.16346 -5.59745 0
M  V30 1094 H 94.7334 1.04315 -4.73547 0
M  V30 1095 N 96.0765 1.50051 0.48192 0
M  V30 1096 C 97.0395 1.67584 1.5636 0
M  V30 1097 C 98.0395 0.546894 1.51214 0
M  V30 1098 O 99.2295 0.813725 1.54026 0
M  V30 1099 C 96.3615 1.691 2.96003 0
M  V30 1100 H 97.5545 2.64078 1.42136 0
M  V30 1101 H 95.1075 1.39369 0.707533 0
M  V30 1102 H 95.8425 0.742589 3.15684 0
M  V30 1103 H 95.6275 2.51105 3.01146 0
M  V30 1104 H 97.1175 1.84656 3.74556 0
M  V30 1105 N 97.5546 -0.734337 1.39446 0
M  V30 1106 C 98.8036 -1.48937 1.36017 0
M  V30 1107 C 99.1166 -1.95557 -0.0409005 0
M  V30 1108 O 100.323 -2.70779 -0.19778 0
M  V30 1109 C 98.7786 -2.69125 2.38955 0
M  V30 1110 C 98.3866 -2.29452 3.8478 0
M  V30 1111 C 100.131 -3.46944 2.44603 0
M  V30 1112 C 98.0376 -3.46366 4.79358 0
M  V30 1113 H 96.9676 -0.559296 0.505672 0
M  V30 1114 H 99.6186 -0.800983 1.65095 0
M  V30 1115 H 98.0006 -3.40041 2.02948 0
M  V30 1116 H 99.1746 -1.66077 4.29831 0
M  V30 1117 H 97.4896 -1.64723 3.82433 0
M  V30 1118 H 100.087 -4.33907 3.12456 0
M  V30 1119 H 100.43 -3.89454 1.47076 0
M  V30 1120 H 100.963 -2.83056 2.79507 0
M  V30 1121 H 97.7016 -3.08905 5.78151 0
M  V30 1122 H 97.2216 -4.08719 4.38986 0
M  V30 1123 H 98.9006 -4.12691 4.98292 0
M  V30 1124 N 99.0327 -1.24633 -0.964593 0
M  V30 1125 C 99.9957 -1.0424 -2.04124 0
M  V30 1126 C 100.996 0.00137563 -1.608 0
M  V30 1127 O 102.186 -0.239883 -1.7254 0
M  V30 1128 C 99.3177 -0.580588 -3.3592 0
M  V30 1129 H 100.511 -1.99803 -2.23649 0
M  V30 1130 H 98.0637 -1.06899 -1.14027 0
M  V30 1131 H 98.7987 0.3781 -3.22088 0
M  V30 1132 H 98.5837 -1.33398 -3.6871 0
M  V30 1133 H 100.074 -0.459034 -4.15069 0
M  V30 1134 N 100.511 1.16574 -1.06058 0
M  V30 1135 C 101.927 1.3904 -0.783585 0
M  V30 1136 C 102.127 1.91784 0.618145 0
M  V30 1137 O 101.183 2.11511 1.37911 0
M  V30 1138 C 102.496 2.37329 -1.84649 0
M  V30 1139 C 104.044 2.51018 -1.86973 0
M  V30 1140 C 104.519 3.52588 -2.92311 0
M  V30 1141 N 106.01 3.60113 -2.91329 0
M  V30 1142 C 106.745 4.38486 -3.69482 0
M  V30 1143 N 106.241 5.20302 -4.57447 0
M  V30 1144 N 108.034 4.33446 -3.57885 0
M  V30 1145 H 100.185 0.806725 -1.96483 0
M  V30 1146 H 102.448 0.417117 -0.851303 0
M  V30 1147 H 102.154 2.05663 -2.85299 0
M  V30 1148 H 102.028 3.36946 -1.6955 0
M  V30 1149 H 104.415 2.81989 -0.869827 0
M  V30 1150 H 104.496 1.51445 -2.0615 0
M  V30 1151 H 104.14 3.22354 -3.92492 0
M  V30 1152 H 104.07 4.51886 -2.70383 0
M  V30 1153 H 106.561 3.01707 -2.27555 0
M  V30 1154 H 106.874 5.77311 -5.13743 0
M  V30 1155 H 105.219 5.19653 -4.61503 0
M  V30 1156 H 108.41 3.68586 -2.88551 0
M  V30 1157 H 108.583 4.94279 -4.19037 0
M  V30 1158 N 101.989 0.842826 1.3317 0
M  V30 1159 C 103.219 0.453397 2.01564 0
M  V30 1160 C 103.627 -0.951147 1.63554 0
M  V30 1161 O 102.97 -1.63021 0.846746 0
M  V30 1162 C 103.032 0.499013 3.5602 0
M  V30 1163 C 102.696 1.86037 4.1742 0
M  V30 1164 C 103.693 2.82416 4.36506 0
M  V30 1165 C 101.378 2.15428 4.53757 0
M  V30 1166 C 103.372 4.06346 4.91082 0
M  V30 1167 C 101.059 3.39615 5.0804 0
M  V30 1168 C 102.057 4.3489 5.26649 0
M  V30 1169 O 101.745 5.5688 5.79776 0
M  V30 1170 H 101.477 0.177871 0.652179 0
M  V30 1171 H 104.031 1.13808 1.70988 0
M  V30 1172 H 102.261 -0.242467 3.85939 0
M  V30 1173 H 103.95 0.126852 4.05702 0
M  V30 1174 H 104.716 2.6101 4.08777 0
M  V30 1175 H 100.595 1.42061 4.38565 0
M  V30 1176 H 104.139 4.80722 5.05522 0
M  V30 1177 H 100.036 3.60876 5.352 0
M  V30 1178 H 100.804 5.58674 5.98185 0
M  V30 1179 N 103.467 -1.45747 0.599634 0
M  V30 1180 C 104.397 -2.33235 -0.111306 0
M  V30 1181 C 105.378 -1.46359 -0.866781 0
M  V30 1182 O 106.563 -1.75146 -0.838904 0
M  V30 1183 C 103.693 -3.28932 -1.11451 0
M  V30 1184 C 102.647 -4.25381 -0.472772 0
M  V30 1185 C 101.973 -5.1071 -1.58365 0
M  V30 1186 C 103.273 -5.18831 0.600948 0
M  V30 1187 H 104.967 -2.92927 0.61919 0
M  V30 1188 H 102.513 -1.40857 0.299215 0
M  V30 1189 H 104.466 -3.89002 -1.62036 0
M  V30 1190 H 103.19 -2.67381 -1.8755 0
M  V30 1191 H 101.849 -3.66598 0.0121472 0
M  V30 1192 H 101.497 -4.45533 -2.33473 0
M  V30 1193 H 101.197 -5.7604 -1.15982 0
M  V30 1194 H 102.721 -5.73647 -2.09194 0
M  V30 1195 H 104.135 -5.73019 0.179491 0
M  V30 1196 H 102.532 -5.92595 0.946076 0
M  V30 1197 H 103.602 -4.6174 1.48068 0
M  V30 1198 N 104.945 -0.338344 -1.53925 0
M  V30 1199 C 106.173 0.261298 -2.05243 0
M  V30 1200 C 106.588 1.44625 -1.21363 0
M  V30 1201 O 105.945 1.80811 -0.247736 0
M  V30 1202 C 105.996 0.681412 -3.5502 0
M  V30 1203 O 105.717 -0.456414 -4.35716 0
M  V30 1204 C 107.218 1.34232 -4.22489 0
M  V30 1205 H 104.438 0.0513685 -0.669031 0
M  V30 1206 H 106.982 -0.488822 -1.98572 0
M  V30 1207 H 105.137 1.38148 -3.61931 0
M  V30 1208 H 105.551 -0.122564 -5.24357 0
M  V30 1209 H 107.025 1.58708 -5.28693 0
M  V30 1210 H 107.502 2.29426 -3.74514 0
M  V30 1211 H 108.108 0.684424 -4.19757 0
M  V30 1212 N 106.423 1.57458 -0.0668435 0
M  V30 1213 C 107.37 2.12439 0.902122 0
M  V30 1214 C 108.34 1.03565 1.2986 0
M  V30 1215 O 109.525 1.312 1.38532 0
M  V30 1216 C 106.665 2.6865 2.16614 0
M  V30 1217 C 105.778 3.91663 1.82274 0
M  V30 1218 C 104.913 4.36134 3.0325 0
M  V30 1219 C 103.952 5.51808 2.64904 0
M  V30 1220 N 103.089 5.9126 3.78624 0
M  V30 1221 H 107.929 2.94934 0.426382 0
M  V30 1222 H 105.466 1.4575 0.198819 0
M  V30 1223 H 107.424 2.99346 2.90599 0
M  V30 1224 H 106.054 1.88928 2.61737 0
M  V30 1225 H 105.106 3.6746 0.983719 0
M  V30 1226 H 106.418 4.75693 1.50059 0
M  V30 1227 H 105.572 4.68465 3.85519 0
M  V30 1228 H 104.311 3.50948 3.38655 0
M  V30 1229 H 103.316 5.19133 1.81055 0
M  V30 1230 H 104.541 6.38722 2.30675 0
M  V30 1231 H 102.487 5.09024 4.138 0
M  V30 1232 H 102.404 6.70018 3.5016 0
M  V30 1233 H 103.672 6.28212 4.61486 0
M  V30 1234 N 107.901 -0.206675 1.56239 0
M  V30 1235 C 108.849 -1.27571 1.94495 0
M  V30 1236 C 109.843 -1.47737 0.828862 0
M  V30 1237 O 111.049 -1.48735 1.0138 0
M  V30 1238 H 107.424 -0.428029 0.6183 0
M  V30 1239 H 109.395 -0.925961 2.8367 0
M  V30 1240 C 108.144 -2.61568 2.29079 0
M  V30 1241 H 107.467 -2.46863 3.14482 0
M  V30 1242 H 108.907 -3.35144 2.5972 0
M  V30 1243 C 107.366 -3.17695 1.12123 0
M  V30 1244 O 107.896 -3.99801 0.390153 0
M  V30 1245 N 106.102 -2.76276 0.901097 0
M  V30 1246 H 105.649 -2.09613 1.49733 0
M  V30 1247 H 105.607 -3.1417 0.120319 0
M  V30 1248 N 109.379 -1.50304 -0.473955 0
M  V30 1249 C 110.607 -1.64902 -1.24959 0
M  V30 1250 C 111.022 -0.331198 -1.85872 0
M  V30 1251 O 110.379 0.68652 -1.69095 0
M  V30 1252 C 110.43 -2.73803 -2.36038 0
M  V30 1253 O 110.151 -4.00477 -1.77624 0
M  V30 1254 C 111.652 -2.99349 -3.26964 0
M  V30 1255 H 108.872 -0.554383 -0.378022 0
M  V30 1256 H 111.416 -1.9651 -0.566054 0
M  V30 1257 H 109.571 -2.44898 -3.00173 0
M  V30 1258 H 109.985 -4.60678 -2.5075 0
M  V30 1259 H 111.459 -3.79217 -4.01121 0
M  V30 1260 H 111.936 -2.10307 -3.85574 0
M  V30 1261 H 112.542 -3.29774 -2.68569 0
M  V30 1262 N 110.857 0.726932 -1.39834 0
M  V30 1263 C 112.134 1.47902 -1.28001 0
M  V30 1264 C 112.514 2.1083 0.106789 0
M  V30 1265 O 111.862 1.99242 1.11869 0
M  V30 1266 C 112.072 2.52392 -2.41038 0
M  V30 1267 C 113.42 3.18546 -2.80737 0
M  V30 1268 O 114.444 2.62708 -2.40547 0
M  V30 1269 O 113.303 4.19604 -3.50135 0
M  V30 1270 H 110.397 0.657163 -0.502062 0
M  V30 1271 H 112.943 0.760071 -1.51727 0
M  V30 1272 H 111.715 2.04329 -3.33715 0
M  V30 1273 H 111.338 3.31837 -2.19021 0
M  V30 1274 N 112.336 1.25143 0.95797 0
M  V30 1275 C 113.266 1.07711 2.07173 0
M  V30 1276 C 114.247 -0.0128462 1.70095 0
M  V30 1277 O 115.432 0.156061 1.93572 0
M  V30 1278 C 112.562 0.691503 3.40346 0
M  V30 1279 C 111.516 1.73132 3.9142 0
M  V30 1280 C 110.842 1.20049 5.21049 0
M  V30 1281 C 112.142 3.1294 4.1817 0
M  V30 1282 H 113.836 2.00873 2.22014 0
M  V30 1283 H 111.382 0.967191 1.06684 0
M  V30 1284 H 113.335 0.556505 4.17709 0
M  V30 1285 H 112.059 -0.275819 3.25433 0
M  V30 1286 H 110.718 1.8547 3.16222 0
M  V30 1287 H 110.366 0.223499 5.02503 0
M  V30 1288 H 110.066 1.89545 5.56189 0
M  V30 1289 H 111.59 1.07782 6.01012 0
M  V30 1290 H 113.004 3.03775 4.86203 0
M  V30 1291 H 111.401 3.79875 4.64559 0
M  V30 1292 H 112.471 3.6025 3.24573 0
M  V30 1293 N 113.814 -1.1601 1.06675 0
M  V30 1294 C 114.777 -2.18724 0.685001 0
M  V30 1295 C 115.777 -1.58496 -0.271246 0
M  V30 1296 O 116.967 -1.74119 -0.0531156 0
M  V30 1297 C 114.099 -3.40899 0.00853648 0
M  V30 1298 H 115.292 -2.54011 1.59431 0
M  V30 1299 H 112.845 -1.30352 0.862441 0
M  V30 1300 H 113.58 -3.11173 -0.913337 0
M  V30 1301 H 113.365 -3.8587 0.696204 0
M  V30 1302 H 114.855 -4.16886 -0.24414 0
M  V30 1303 N 115.292 -0.849877 -1.32721 0
M  V30 1304 C 116.54 -0.450032 -1.97026 0
M  V30 1305 C 116.861 0.996604 -1.67609 0
M  V30 1306 O 116.131 1.6958 -0.980786 0
M  V30 1307 H 114.711 -0.163426 -0.728904 0
M  V30 1308 H 117.373 -1.08526 -1.6189 0
M  V30 1309 H 116.469 -0.591146 -3.0645 0
M  V30 1310 N 116.77 1.45427 -0.607355 0
M  V30 1311 C 117.718 2.32269 0.12411 0
M  V30 1312 C 118.712 1.45955 0.859854 0
M  V30 1313 O 119.918 1.6244 0.775447 0
M  V30 1314 H 116.293 0.749691 0.0588839 0
M  V30 1315 H 118.264 2.91743 -0.626762 0
M  V30 1316 C 117.013 3.29567 1.1082 0
M  V30 1317 H 116.336 3.95978 0.551492 0
M  V30 1318 H 117.776 3.93061 1.58995 0
M  V30 1319 C 116.235 2.56722 2.18164 0
M  V30 1320 O 116.765 2.34842 3.25902 0
M  V30 1321 N 114.971 2.16861 1.93442 0
M  V30 1322 H 114.518 2.34855 1.05834 0
M  V30 1323 H 114.476 1.68444 2.65469 0
M  V30 1324 N 118.248 0.346503 1.53744 0
M  V30 1325 C 119.476 -0.25041 2.05379 0
M  V30 1326 C 119.891 -1.43979 1.22129 0
M  V30 1327 O 119.248 -1.80677 0.257321 0
M  V30 1328 C 119.299 -0.662575 3.55376 0
M  V30 1329 O 119.02 0.479515 4.35468 0
M  V30 1330 C 120.521 -1.31989 4.23195 0
M  V30 1331 H 117.741 -0.0478198 0.669294 0
M  V30 1332 H 120.285 0.499346 1.9831 0
M  V30 1333 H 118.44 -1.36227 3.62658 0
M  V30 1334 H 118.854 0.15037 5.24284 0
M  V30 1335 H 120.328 -1.55902 5.29527 0
M  V30 1336 H 120.805 -2.27436 3.75725 0
M  V30 1337 H 121.411 -0.662154 4.20114 0
M  V30 1338 N 119.726 -1.57421 0.075193 0
M  V30 1339 C 120.636 -2.1642 -0.905511 0
M  V30 1340 C 121.652 -1.12828 -1.32461 0
M  V30 1341 O 122.828 -1.45109 -1.39661 0
M  V30 1342 C 119.893 -2.71693 -2.15369 0
M  V30 1343 C 118.954 -3.90171 -1.79068 0
M  V30 1344 C 118.187 -4.42798 -2.97936 0
M  V30 1345 O 118.41 -3.94416 -4.12058 0
M  V30 1346 O 117.344 -5.34085 -2.77555 0
M  V30 1347 H 121.17 -3.00588 -0.433626 0
M  V30 1348 H 118.755 -1.48664 -0.148067 0
M  V30 1349 H 120.637 -3.07104 -2.88557 0
M  V30 1350 H 119.312 -1.90582 -2.61649 0
M  V30 1351 H 118.219 -3.59606 -1.03122 0
M  V30 1352 H 119.552 -4.72584 -1.37569 0
M  V30 1353 N 121.204 0.198386 -1.56346 0
M  V30 1354 C 122.137 1.27381 -1.89339 0
M  V30 1355 C 123.115 1.44106 -0.753134 0
M  V30 1356 O 124.299 1.59549 -1.00381 0
M  V30 1357 C 121.426 2.6409 -2.12071 0
M  V30 1358 C 120.472 2.64253 -3.34772 0
M  V30 1359 S 121.305 2.16013 -4.89999 0
M  V30 1360 C 122.461 3.54553 -5.15794 0
M  V30 1361 H 122.694 0.992058 -2.8026 0
M  V30 1362 H 120.227 0.401726 -1.49082 0
M  V30 1363 H 122.185 3.42786 -2.2585 0
M  V30 1364 H 120.846 2.89478 -1.21906 0
M  V30 1365 H 120.039 3.64768 -3.47794 0
M  V30 1366 H 119.641 1.93637 -3.1997 0
M  V30 1367 H 121.933 4.50396 -5.06112 0
M  V30 1368 H 122.876 3.46428 -6.1757 0
M  V30 1369 H 123.284 3.49313 -4.43442 0
M  V30 1370 N 122.682 1.50554 0.465978 0
M  V30 1371 C 123.592 1.72585 1.58907 0
M  V30 1372 C 124.608 0.60911 1.6299 0
M  V30 1373 O 125.784 0.88804 1.80765 0
M  V30 1374 C 122.849 1.81995 2.95091 0
M  V30 1375 C 121.91 3.05751 3.01355 0
M  V30 1376 C 121.143 3.14702 4.31043 0
M  V30 1377 O 121.366 2.30313 5.21835 0
M  V30 1378 O 120.3 4.07468 4.43005 0
M  V30 1379 H 124.126 2.67799 1.43239 0
M  V30 1380 H 121.711 1.34711 0.646013 0
M  V30 1381 H 123.593 1.90335 3.75966 0
M  V30 1382 H 122.268 0.899659 3.10947 0
M  V30 1383 H 121.175 3.02908 2.19539 0
M  V30 1384 H 122.508 3.97375 2.90437 0
M  V30 1385 N 124.16 -0.719506 1.40217 0
M  V30 1386 C 125.092 -1.84428 1.36084 0
M  V30 1387 C 126.105 -1.60597 0.266913 0
M  V30 1388 O 127.294 -1.70544 0.526983 0
M  V30 1389 C 124.394 -3.20757 1.094 0
M  V30 1390 C 123.567 -3.71817 2.30372 0
M  V30 1391 C 122.626 -4.86748 1.99907 0
M  V30 1392 O 121.652 -4.99603 2.72737 0
M  V30 1393 N 122.854 -5.7226 0.974635 0
M  V30 1394 H 125.619 -1.88473 2.33019 0
M  V30 1395 H 123.18 -0.900885 1.3452 0
M  V30 1396 H 125.172 -3.95235 0.870116 0
M  V30 1397 H 123.742 -3.11884 0.211452 0
M  V30 1398 H 122.962 -2.88514 2.68614 0
M  V30 1399 H 124.25 -4.02666 3.11026 0
M  V30 1400 H 123.648 -5.6448 0.371368 0
M  V30 1401 H 122.205 -6.46739 0.810656 0
M  V30 1402 N 125.638 -1.25649 -0.95132 0
M  V30 1403 C 126.878 -1.11802 -1.71113 0
M  V30 1404 C 127.242 0.334758 -1.89059 0
M  V30 1405 O 128.443 0.595121 -2.62129 0
M  V30 1406 C 126.714 -1.85512 -3.05483 0
M  V30 1407 S 128.273 -1.87597 -3.96677 0
M  V30 1408 H 125.091 -0.399552 -0.588115 0
M  V30 1409 H 127.693 -1.59222 -1.1344 0
M  V30 1410 H 126.397 -2.90299 -2.90094 0
M  V30 1411 H 125.928 -1.38493 -3.68216 0
M  V30 1412 H 127.943 -0.955389 -4.86916 0
M  V30 1413 N 127.117 1.15442 -1.07289 0
M  V30 1414 C 128.067 2.18164 -0.662467 0
M  V30 1415 C 129.051 1.57845 0.312074 0
M  V30 1416 O 130.243 1.76552 0.125905 0
M  V30 1417 C 127.372 3.43246 -0.0611295 0
M  V30 1418 C 126.458 4.1062 -1.06077 0
M  V30 1419 N 126.849 4.53491 -2.24008 0
M  V30 1420 C 125.147 4.36949 -0.893964 0
M  V30 1421 C 125.848 5.05731 -2.87422 0
M  V30 1422 N 124.824 4.99236 -2.15091 0
M  V30 1423 H 128.626 2.49038 -1.56068 0
M  V30 1424 H 126.14 1.32003 -0.945988 0
M  V30 1425 H 128.137 4.16145 0.250792 0
M  V30 1426 H 126.797 3.13854 0.832207 0
M  V30 1427 H 127.808 4.46898 -2.6173 0
M  V30 1428 H 124.485 4.17466 -0.0534693 0
M  V30 1429 H 125.875 5.48865 -3.87553 0
M  V30 1430 N 128.595 0.856903 1.32268 0
M  V30 1431 C 129.841 0.462069 1.97466 0
M  V30 1432 C 130.174 -0.980298 1.67642 0
M  V30 1433 O 129.449 -1.68824 0.965858 0
M  V30 1434 C 129.732 0.704336 3.53145 0
M  V30 1435 C 129.585 2.19529 3.9259 0
M  V30 1436 C 130.904 0.1622 4.39801 0
M  V30 1437 H 128.023 0.169357 0.717278 0
M  V30 1438 H 130.665 1.07574 1.56614 0
M  V30 1439 H 128.815 0.181999 3.88073 0
M  V30 1440 H 130.487 2.78387 3.67829 0
M  V30 1441 H 128.73 2.67292 3.41668 0
M  V30 1442 H 129.401 2.31549 5.01088 0
M  V30 1443 H 131.877 0.608905 4.11621 0
M  V30 1444 H 130.753 0.361265 5.4771 0
M  V30 1445 H 131.014 -0.935158 4.32096 0
M  V30 1446 N 130.073 -1.45103 0.615059 0
M  V30 1447 C 131.35 -1.95549 0.0448276 0
M  V30 1448 C 131.73 -1.55737 -1.4251 0
M  V30 1449 O 131.078 -0.823556 -2.13143 0
M  V30 1450 C 131.288 -3.48098 0.250785 0
M  V30 1451 C 132.636 -4.24384 0.135509 0
M  V30 1452 O 133.66 -3.55738 0.181299 0
M  V30 1453 O 132.519 -5.46493 0.0268878 0
M  V30 1454 H 129.613 -0.8264 -0.0314845 0
M  V30 1455 H 132.159 -1.55232 0.685642 0
M  V30 1456 H 130.931 -3.7007 1.27139 0
M  V30 1457 H 130.554 -3.95323 -0.424937 0
M  V30 1458 N 131.551 -0.354651 -1.53558 0
M  V30 1459 C 132.514 0.484566 -2.24019 0
M  V30 1460 C 133.514 1.01861 -1.24422 0
M  V30 1461 O 134.704 0.906097 -1.4878 0
M  V30 1462 C 131.836 1.67615 -2.96847 0
M  V30 1463 H 133.029 -0.131843 -2.9961 0
M  V30 1464 H 130.582 -0.106165 -1.55939 0
M  V30 1465 H 131.317 2.33095 -2.25471 0
M  V30 1466 H 131.102 1.30029 -3.69912 0
M  V30 1467 H 132.592 2.27114 -3.50441 0
M  V30 1468 N 133.029 1.57378 -0.0835403 0
M  V30 1469 C 134.278 1.93106 0.582498 0
M  V30 1470 C 134.591 0.96651 1.70053 0
M  V30 1471 O 135.797 1.21705 2.42693 0
M  V30 1472 C 134.253 3.43076 1.08751 0
M  V30 1473 C 133.861 4.48 -0.000146404 0
M  V30 1474 C 135.605 3.87785 1.72694 0
M  V30 1475 C 133.512 5.89113 0.519568 0
M  V30 1476 H 132.442 0.720775 0.221358 0
M  V30 1477 H 135.093 1.82821 -0.157675 0
M  V30 1478 H 133.475 3.48474 1.88101 0
M  V30 1479 H 134.649 4.54233 -0.775199 0
M  V30 1480 H 132.964 4.1283 -0.54406 0
M  V30 1481 H 135.561 4.90604 2.1263 0
M  V30 1482 H 135.904 3.25796 2.59158 0
M  V30 1483 H 136.437 3.8504 0.999457 0
M  V30 1484 H 133.176 6.54775 -0.308186 0
M  V30 1485 H 132.696 5.86376 1.26188 0
M  V30 1486 H 134.375 6.39346 0.992237 0
M  V30 1487 N 134.507 -0.190092 1.56449 0
M  V30 1488 C 135.753 -0.911052 1.81184 0
M  V30 1489 C 136.086 -1.82699 0.658396 0
M  V30 1490 O 135.361 -1.91491 -0.340775 0
M  V30 1491 C 135.644 -1.72297 3.16205 0
M  V30 1492 C 135.497 -0.831419 4.42049 0
M  V30 1493 C 136.816 -2.69454 3.47969 0
M  V30 1494 H 133.935 -0.32977 0.659106 0
M  V30 1495 H 136.577 -0.178169 1.89163 0
M  V30 1496 H 134.727 -2.34778 3.09534 0
M  V30 1497 H 136.399 -0.220929 4.60771 0
M  V30 1498 H 134.642 -0.138406 4.33579 0
M  V30 1499 H 135.313 -1.43461 5.33032 0
M  V30 1500 H 137.789 -2.17104 3.54972 0
M  V30 1501 H 136.665 -3.23342 4.43555 0
M  V30 1502 H 136.926 -3.48744 2.71717 0
M  V30 1503 N 135.985 -1.50799 -0.457987 0
M  V30 1504 C 137.262 -1.52968 -1.21902 0
M  V30 1505 C 137.642 -0.281906 -2.09209 0
M  V30 1506 O 136.99 0.734076 -2.16388 0
M  V30 1507 C 137.2 -2.8326 -2.03875 0
M  V30 1508 C 138.548 -3.34425 -2.6162 0
M  V30 1509 O 139.572 -2.8467 -2.14106 0
M  V30 1510 O 138.431 -4.21188 -3.48228 0
M  V30 1511 H 135.525 -0.614129 -0.553873 0
M  V30 1512 H 138.071 -1.63098 -0.468739 0
M  V30 1513 H 136.843 -3.65543 -1.39621 0
M  V30 1514 H 136.466 -2.76195 -2.8601 0
M  V30 1515 N 137.463 0.71206 -1.40597 0
M  V30 1516 C 138.691 1.50111 -1.42388 0
M  V30 1517 C 139.106 1.88784 -0.0245395 0
M  V30 1518 O 138.463 1.55681 0.952351 0
M  V30 1519 C 138.514 2.7742 -2.31776 0
M  V30 1520 O 138.235 2.40382 -3.66262 0
M  V30 1521 C 139.736 3.7129 -2.42196 0
M  V30 1522 H 136.956 0.46314 -0.485533 0
M  V30 1523 H 139.5 0.878068 -1.8469 0
M  V30 1524 H 137.655 3.36001 -1.92827 0
M  V30 1525 H 138.069 3.22324 -4.13772 0
M  V30 1526 H 139.543 4.57448 -3.08943 0
M  V30 1527 H 140.02 4.14641 -1.44809 0
M  V30 1528 H 140.626 3.18619 -2.81712 0
M  V30 1529 N 138.941 1.26152 0.944643 0
M  V30 1530 C 139.871 1.09902 2.06019 0
M  V30 1531 C 140.852 0.00519538 1.70099 0
M  V30 1532 O 142.037 0.176583 1.93396 0
M  V30 1533 C 139.167 0.727562 3.39594 0
M  V30 1534 C 138.121 1.77274 3.89561 0
M  V30 1535 C 137.447 1.25569 5.19747 0
M  V30 1536 C 138.747 3.17357 4.14827 0
M  V30 1537 H 140.441 2.03217 2.19871 0
M  V30 1538 H 137.987 0.978452 1.05652 0
M  V30 1539 H 139.94 0.600777 4.17095 0
M  V30 1540 H 138.664 -0.241287 3.25707 0
M  V30 1541 H 137.323 1.88814 3.14237 0
M  V30 1542 H 136.971 0.276783 5.02238 0
M  V30 1543 H 136.671 1.95433 5.54148 0
M  V30 1544 H 138.195 1.1415 5.99835 0
M  V30 1545 H 139.609 3.08914 4.82954 0
M  V30 1546 H 138.006 3.84781 4.60504 0
M  V30 1547 H 139.076 3.63673 3.20734 0
M  V30 1548 N 140.419 -1.14872 1.07899 0
M  V30 1549 C 141.696 -1.81928 0.71845 0
M  V30 1550 C 142.076 -1.95417 -0.798455 0
M  V30 1551 O 141.424 -1.50997 -1.715 0
M  V30 1552 C 141.634 -3.17937 1.43935 0
M  V30 1553 C 142.982 -3.93501 1.59506 0
M  V30 1554 O 144.006 -3.27509 1.40058 0
M  V30 1555 O 142.865 -5.1183 1.91551 0
M  V30 1556 H 139.959 -0.78628 0.256305 0
M  V30 1557 H 142.505 -1.21934 1.18026 0
M  V30 1558 H 141.277 -3.0325 2.47295 0
M  V30 1559 H 140.9 -3.85619 0.968687 0
M  V30 1560 N 141.898 -0.863906 -1.31812 0
M  V30 1561 C 143.175 -0.39275 -1.91616 0
M  V30 1562 C 143.555 1.12461 -1.7865 0
M  V30 1563 O 142.903 1.95045 -1.19037 0
M  V30 1564 C 143.113 -0.867385 -3.38049 0
M  V30 1565 C 144.461 -0.889966 -4.15168 0
M  V30 1566 O 145.485 -0.812635 -3.46806 0
M  V30 1567 O 144.344 -1.00079 -5.37258 0
M  V30 1568 H 141.438 -0.116358 -0.818773 0
M  V30 1569 H 143.984 -0.951418 -1.40521 0
M  V30 1570 H 142.756 -1.91081 -3.41473 0
M  V30 1571 H 142.379 -0.286687 -3.96565 0
M  V30 1572 N 143.376 1.44774 -0.622745 0
M  V30 1573 C 144.623 2.02121 -0.1239 0
M  V30 1574 C 144.951 1.48915 1.25118 0
M  V30 1575 O 144.206 0.660045 1.84233 0
M  V30 1576 C 144.505 3.57364 -0.0508323 0
M  V30 1577 C 144.171 4.29787 -1.36358 0
M  V30 1578 C 142.833 4.4929 -1.72314 0
M  V30 1579 C 145.185 4.71062 -2.23048 0
M  V30 1580 C 142.513 5.07325 -2.94682 0
M  V30 1581 C 144.865 5.30452 -3.44679 0
M  V30 1582 C 143.529 5.48175 -3.80868 0
M  V30 1583 H 142.799 0.739612 -0.0453381 0
M  V30 1584 H 145.446 1.73648 -0.807389 0
M  V30 1585 H 143.751 3.85202 0.715991 0
M  V30 1586 H 145.448 3.99456 0.351533 0
M  V30 1587 H 142.038 4.14932 -1.07375 0
M  V30 1588 H 146.222 4.55715 -1.96565 0
M  V30 1589 H 141.478 5.19235 -3.22809 0
M  V30 1590 H 145.652 5.61385 -4.12092 0
M  V30 1591 H 143.279 5.92912 -4.75773 0
M  V30 1592 N 144.854 0.36279 1.53368 0
M  V30 1593 C 145.787 -0.528507 2.21996 0
M  V30 1594 C 146.765 -1.0852 1.21087 0
M  V30 1595 O 147.949 -1.14186 1.4998 0
M  V30 1596 C 145.076 -1.72893 2.91249 0
M  V30 1597 C 144.122 -1.29994 4.06207 0
M  V30 1598 S 144.955 -0.303575 5.34639 0
M  V30 1599 C 146.111 -1.51039 6.07403 0
M  V30 1600 H 146.344 0.0543423 2.9725 0
M  V30 1601 H 143.877 0.146889 1.537 0
M  V30 1602 H 145.835 -2.41751 3.31763 0
M  V30 1603 H 144.496 -2.28303 2.15724 0
M  V30 1604 H 143.689 -2.19549 4.53667 0
M  V30 1605 H 143.291 -0.690608 3.67569 0
M  V30 1606 H 145.583 -2.44186 6.31965 0
M  V30 1607 H 146.526 -1.07721 6.99858 0
M  V30 1608 H 146.934 -1.71518 5.37812 0
M  V30 1609 N 146.332 -1.57332 0.0918853 0
M  V30 1610 C 147.557 -1.98995 -0.584442 0
M  V30 1611 C 147.982 -0.970528 -1.61128 0
M  V30 1612 O 147.34 0.0613904 -1.81196 0
M  V30 1613 C 147.388 -3.39636 -1.21161 0
M  V30 1614 O 146.492 -3.40447 -2.32744 0
M  V30 1615 H 145.833 -0.647165 -0.148572 0
M  V30 1616 H 148.363 -2.03873 0.172347 0
M  V30 1617 H 148.373 -3.7726 -1.55367 0
M  V30 1618 H 147.048 -4.13356 -0.459313 0
M  V30 1619 H 145.625 -3.14614 -2.0018 0
M  V30 1620 N 147.81 0.181792 -1.56548 0
M  V30 1621 C 149.05 0.906711 -1.83189 0
M  V30 1622 C 149.414 1.79882 -0.671312 0
M  V30 1623 O 150.615 2.56054 -0.81792 0
M  V30 1624 C 148.886 1.69023 -3.14906 0
M  V30 1625 S 150.445 2.46535 -3.62996 0
M  V30 1626 H 147.263 0.303877 -0.642791 0
M  V30 1627 H 149.865 0.169107 -1.94767 0
M  V30 1628 H 148.569 1.02571 -3.97376 0
M  V30 1629 H 148.1 2.46941 -3.06241 0
M  V30 1630 H 150.115 3.71014 -3.29489 0
M  V30 1631 N 149.288 1.51039 0.449983 0
M  V30 1632 C 150.535 1.63081 1.20045 0
M  V30 1633 C 150.863 0.341024 1.91487 0
M  V30 1634 O 150.118 -0.674276 1.83717 0
M  V30 1635 C 150.417 2.77556 2.25161 0
M  V30 1636 C 150.083 4.17289 1.70823 0
M  V30 1637 C 148.745 4.55305 1.55725 0
M  V30 1638 C 151.097 5.04536 1.3074 0
M  V30 1639 C 148.425 5.78287 0.989999 0
M  V30 1640 C 150.777 6.28085 0.754482 0
M  V30 1641 C 149.441 6.64885 0.590308 0
M  V30 1642 H 148.711 0.596755 0.439277 0
M  V30 1643 H 151.358 1.85037 0.49333 0
M  V30 1644 H 149.663 2.49771 3.01863 0
M  V30 1645 H 151.36 2.84073 2.83026 0
M  V30 1646 H 147.95 3.8731 1.83546 0
M  V30 1647 H 152.134 4.75782 1.41229 0
M  V30 1648 H 147.39 6.05456 0.850451 0
M  V30 1649 H 151.564 6.95038 0.435324 0
M  V30 1650 H 149.191 7.60055 0.14862 0
M  V30 1651 N 150.766 -0.704594 1.40972 0
M  V30 1652 C 152.177 -1.28418 1.3552 0
M  V30 1653 C 152.528 -1.96171 0.0339434 0
M  V30 1654 O 151.653 -1.98231 -0.867944 0
M  V30 1655 C 152.248 -2.33528 2.45459 0
M  V30 1656 C 150.807 -2.87085 2.43433 0
M  V30 1657 C 149.954 -1.61007 2.2577 0
M  V30 1658 H 152.905 -0.499963 1.50619 0
M  V30 1659 H 152.926 -3.14619 2.13998 0
M  V30 1660 H 152.438 -1.84187 3.41609 0
M  V30 1661 H 150.539 -3.40626 1.51013 0
M  V30 1662 H 150.652 -3.3813 3.39419 0
M  V30 1663 H 149.016 -1.86482 1.73483 0
M  V30 1664 H 149.799 -1.13675 3.23933 0
M  V30 1665 N 152.244 -1.26651 -0.937939 0
M  V30 1666 C 153.49 -1.13562 -1.68746 0
M  V30 1667 C 153.845 0.317241 -1.89767 0
M  V30 1668 O 153.138 1.22939 -1.46957 0
M  V30 1669 C 153.332 -1.84168 -3.06295 0
M  V30 1670 C 153.161 -3.36171 -2.98696 0
M  V30 1671 C 151.931 -4.05468 -3.01535 0
M  V30 1672 C 154.129 -4.32312 -2.78588 0
M  V30 1673 N 152.111 -5.44118 -2.84269 0
M  V30 1674 C 153.482 -5.58159 -2.69924 0
M  V30 1675 C 155.537 -4.22524 -2.63396 0
M  V30 1676 C 154.24 -6.75335 -2.47618 0
M  V30 1677 C 156.266 -5.39411 -2.42466 0
M  V30 1678 C 155.628 -6.64208 -2.34536 0
M  V30 1679 H 151.727 -0.470361 -0.624728 0
M  V30 1680 H 154.311 -1.59982 -1.10968 0
M  V30 1681 H 152.482 -1.40219 -3.62206 0
M  V30 1682 H 154.214 -1.63674 -3.70126 0
M  V30 1683 H 150.969 -3.56854 -3.11372 0
M  V30 1684 H 151.393 -6.1693 -2.78795 0
M  V30 1685 H 156.035 -3.26771 -2.68292 0
M  V30 1686 H 153.753 -7.71182 -2.41463 0
M  V30 1687 H 157.339 -5.33711 -2.31611 0
M  V30 1688 H 156.219 -7.53129 -2.18555 0
M  V30 1689 N 153.722 1.14298 -1.08507 0
M  V30 1690 C 154.685 2.17607 -0.719711 0
M  V30 1691 C 155.685 1.58907 0.245997 0
M  V30 1692 O 156.875 1.74181 0.0254081 0
M  V30 1693 C 154.007 3.40842 -0.0627695 0
M  V30 1694 H 155.2 2.51443 -1.63452 0
M  V30 1695 H 152.753 1.28963 -0.88307 0
M  V30 1696 H 153.488 3.12587 0.863716 0
M  V30 1697 H 153.273 3.84713 -0.757504 0
M  V30 1698 H 154.763 4.17221 0.177786 0
M  V30 1699 N 155.201 0.870884 1.31352 0
M  V30 1700 C 156.111 0.330783 2.32256 0
M  V30 1701 C 157.127 -0.559767 1.6475 0
M  V30 1702 O 158.303 -0.456263 1.96164 0
M  V30 1703 C 155.368 -0.458137 3.4366 0
M  V30 1704 C 154.429 0.460482 4.26823 0
M  V30 1705 C 153.662 -0.290881 5.32907 0
M  V30 1706 O 153.885 -1.51885 5.49806 0
M  V30 1707 O 152.819 0.351732 6.00871 0
M  V30 1708 H 156.645 1.16718 2.80376 0
M  V30 1709 H 154.23 0.634285 1.35267 0
M  V30 1710 H 156.112 -0.905343 4.1156 0
M  V30 1711 H 154.787 -1.27106 2.97701 0
M  V30 1712 H 153.694 0.956207 3.61673 0
M  V30 1713 H 155.027 1.23903 4.7635 0
M  V30 1714 N 156.679 -1.44442 0.630414 0
M  V30 1715 C 157.626 -2.30678 -0.0749355 0
M  V30 1716 C 158.596 -1.4344 -0.837502 0
M  V30 1717 O 159.781 -1.72343 -0.818684 0
M  V30 1718 C 156.921 -3.28706 -1.05103 0
M  V30 1719 C 156.034 -4.31046 -0.286954 0
M  V30 1720 C 155.169 -5.16167 -1.2548 0
M  V30 1721 C 154.208 -6.10216 -0.479843 0
M  V30 1722 N 153.345 -6.88039 -1.39811 0
M  V30 1723 H 158.185 -2.90454 0.666386 0
M  V30 1724 H 155.722 -1.43107 0.340404 0
M  V30 1725 H 157.68 -3.84027 -1.63031 0
M  V30 1726 H 156.31 -2.70632 -1.75949 0
M  V30 1727 H 155.362 -3.78203 0.408243 0
M  V30 1728 H 156.674 -4.97794 0.316657 0
M  V30 1729 H 155.828 -5.76002 -1.90544 0
M  V30 1730 H 154.567 -4.49491 -1.89233 0
M  V30 1731 H 153.572 -5.49491 0.184295 0
M  V30 1732 H 154.797 -6.78928 0.152965 0
M  V30 1733 H 152.743 -6.24032 -2.02287 0
M  V30 1734 H 152.66 -7.51223 -0.848508 0
M  V30 1735 H 153.928 -7.52397 -2.03762 0
M  V30 1736 N 158.157 -0.370918 -1.53173 0
M  V30 1737 C 159.104 0.473035 -2.259 0
M  V30 1738 C 160.074 1.07311 -1.26781 0
M  V30 1739 O 161.259 1.1046 -1.55574 0
M  V30 1740 C 158.399 1.60405 -3.05556 0
M  V30 1741 C 157.512 1.02863 -4.19575 0
M  V30 1742 C 156.647 2.12918 -4.86661 0
M  V30 1743 C 155.686 1.52869 -5.92704 0
M  V30 1744 N 154.823 2.56779 -6.53459 0
M  V30 1745 H 159.663 -0.153649 -2.97604 0
M  V30 1746 H 157.2 -0.0875946 -1.46839 0
M  V30 1747 H 159.158 2.27034 -3.50016 0
M  V30 1748 H 157.788 2.20131 -2.36097 0
M  V30 1749 H 156.84 0.252465 -3.79561 0
M  V30 1750 H 158.152 0.549642 -4.95762 0
M  V30 1751 H 157.306 2.87356 -5.34333 0
M  V30 1752 H 156.045 2.6417 -4.09958 0
M  V30 1753 H 155.05 0.769479 -5.44389 0
M  V30 1754 H 156.275 1.02435 -6.7133 0
M  V30 1755 H 154.221 3.07235 -5.79606 0
M  V30 1756 H 154.138 2.13583 -7.25202 0
M  V30 1757 H 155.406 3.30903 -7.05779 0
M  V30 1758 N 159.635 1.57281 -0.100228 0
M  V30 1759 C 160.567 2.11342 0.886972 0
M  V30 1760 C 161.58 1.05182 1.24261 0
M  V30 1761 O 162.769 1.32613 1.19483 0
M  V30 1762 C 159.869 2.5825 2.19454 0
M  V30 1763 C 159.042 3.88302 2.01346 0
M  V30 1764 C 158.101 4.21004 3.15661 0
M  V30 1765 O 157.127 4.9014 2.89398 0
M  V30 1766 N 158.329 3.76818 4.41575 0
M  V30 1767 H 161.094 2.96668 0.425216 0
M  V30 1768 H 158.655 1.61678 0.0847334 0
M  V30 1769 H 160.647 2.7717 2.94888 0
M  V30 1770 H 159.217 1.77907 2.57037 0
M  V30 1771 H 158.437 3.7848 1.10212 0
M  V30 1772 H 159.725 4.73375 1.8653 0
M  V30 1773 H 159.123 3.2102 4.65792 0
M  V30 1774 H 157.68 4.00882 5.13942 0
M  V30 1775 N 161.113 -0.173488 1.56642 0
M  V30 1776 C 162.39 -0.917617 1.7274 0
M  V30 1777 C 162.77 -2.00484 0.661027 0
M  V30 1778 O 162.118 -2.26184 -0.32453 0
M  V30 1779 C 162.328 -1.48433 3.15862 0
M  V30 1780 C 163.676 -1.95809 3.76754 0
M  V30 1781 O 164.7 -1.58231 3.19126 0
M  V30 1782 O 163.559 -2.65024 4.77938 0
M  V30 1783 H 160.653 -0.431772 0.705338 0
M  V30 1784 H 163.199 -0.161487 1.6893 0
M  V30 1785 H 161.971 -0.701715 3.84957 0
M  V30 1786 H 161.594 -2.30471 3.23989 0
M  V30 1787 N 162.591 -1.51276 -0.441967 0
M  V30 1788 C 163.837 -1.63958 -1.19355 0
M  V30 1789 C 164.17 -0.352543 -1.90973 0
M  V30 1790 O 163.445 0.647627 -1.83401 0
M  V30 1791 C 163.728 -2.83979 -2.21422 0
M  V30 1792 C 163.581 -4.22646 -1.53918 0
M  V30 1793 C 164.9 -2.99521 -3.22451 0
M  V30 1794 H 162.019 -0.596709 -0.432559 0
M  V30 1795 H 164.661 -1.83748 -0.483398 0
M  V30 1796 H 162.811 -2.67237 -2.81987 0
M  V30 1797 H 164.483 -4.51045 -0.967256 0
M  V30 1798 H 162.726 -4.25558 -0.841615 0
M  V30 1799 H 163.397 -5.02609 -2.28229 0
M  V30 1800 H 165.873 -3.14944 -2.71937 0
M  V30 1801 H 164.749 -3.85072 -3.91166 0
M  V30 1802 H 165.01 -2.11391 -3.88287 0
M  V30 1803 N 164.069 0.697108 -1.41344 0
M  V30 1804 C 165.016 1.81106 -1.43071 0
M  V30 1805 C 165.986 1.63632 -0.285275 0
M  V30 1806 O 167.171 1.84504 -0.486091 0
M  V30 1807 C 164.311 3.18975 -1.31715 0
M  V30 1808 C 163.424 3.47892 -2.56115 0
M  V30 1809 C 162.559 4.75367 -2.37064 0
M  V30 1810 C 161.598 4.97247 -3.56948 0
M  V30 1811 N 160.735 6.15947 -3.36977 0
M  V30 1812 H 165.575 1.78965 -2.38276 0
M  V30 1813 H 163.112 0.873975 -1.18322 0
M  V30 1814 H 165.07 3.98615 -1.23133 0
M  V30 1815 H 163.7 3.20297 -0.401183 0
M  V30 1816 H 162.752 2.62669 -2.75153 0
M  V30 1817 H 164.064 3.59962 -3.45295 0
M  V30 1818 H 163.218 5.63059 -2.25941 0
M  V30 1819 H 161.957 4.65541 -1.45338 0
M  V30 1820 H 160.962 4.08004 -3.68527 0
M  V30 1821 H 162.187 5.08934 -4.49626 0
M  V30 1822 H 160.133 6.07336 -2.47949 0
M  V30 1823 H 160.05 6.28777 -4.19732 0
M  V30 1824 H 161.318 7.06377 -3.29623 0
M  V30 1825 N 165.547 1.27147 0.931209 0
M  V30 1826 C 166.457 1.11372 2.06478 0
M  V30 1827 C 167.473 0.044645 1.73943 0
M  V30 1828 O 168.649 0.250417 1.99837 0
M  V30 1829 C 165.714 0.758838 3.38294 0
M  V30 1830 C 164.775 1.90841 3.84549 0
M  V30 1831 C 164.008 1.57036 5.10074 0
M  V30 1832 O 164.231 0.476645 5.68405 0
M  V30 1833 O 163.165 2.40839 5.51616 0
M  V30 1834 H 166.991 2.06493 2.22698 0
M  V30 1835 H 164.576 1.06301 1.04978 0
M  V30 1836 H 166.458 0.574098 4.17471 0
M  V30 1837 H 165.133 -0.162879 3.2329 0
M  V30 1838 H 164.04 2.14819 3.06274 0
M  V30 1839 H 165.373 2.81021 4.04089 0
M  V30 1840 N 167.025 -1.13721 1.09112 0
M  V30 1841 C 167.957 -2.1871 0.685467 0
M  V30 1842 C 168.97 -1.60527 -0.271068 0
M  V30 1843 O 170.159 -1.78407 -0.0576148 0
M  V30 1844 C 167.259 -3.38898 -0.0111255 0
M  V30 1845 C 166.432 -4.26597 0.966131 0
M  V30 1846 C 165.491 -5.25324 0.303539 0
M  V30 1847 O 164.517 -5.61213 0.950177 0
M  V30 1848 N 165.719 -5.72779 -0.943651 0
M  V30 1849 H 168.484 -2.54126 1.58871 0
M  V30 1850 H 166.045 -1.29012 0.978143 0
M  V30 1851 H 168.037 -4.02014 -0.465517 0
M  V30 1852 H 166.607 -3.01747 -0.816565 0
M  V30 1853 H 165.827 -3.60306 1.59917 0
M  V30 1854 H 167.115 -4.82048 1.6281 0
M  V30 1855 H 166.513 -5.45762 -1.48862 0
M  V30 1856 H 165.07 -6.37847 -1.34142 0
M  V30 1857 N 168.503 -0.877838 -1.30888 0
M  V30 1858 C 169.436 -0.283995 -2.26426 0
M  V30 1859 C 170.414 0.591361 -1.51465 0
M  V30 1860 O 171.598 0.54304 -1.80509 0
M  V30 1861 C 168.725 0.597129 -3.33395 0
M  V30 1862 C 167.771 -0.207937 -4.25993 0
M  V30 1863 S 168.604 -1.59158 -5.11301 0
M  V30 1864 C 169.76 -0.716791 -6.21782 0
M  V30 1865 H 169.993 -1.09383 -2.76446 0
M  V30 1866 H 167.526 -0.676828 -1.38775 0
M  V30 1867 H 169.484 1.09978 -3.95493 0
M  V30 1868 H 168.145 1.38099 -2.82113 0
M  V30 1869 H 167.338 0.464163 -5.01858 0
M  V30 1870 H 166.94 -0.642963 -3.68432 0
M  V30 1871 H 169.232 0.0692833 -6.77465 0
M  V30 1872 H 170.175 -1.44682 -6.93161 0
M  V30 1873 H 170.583 -0.280855 -5.63801 0
M  V30 1874 N 169.982 1.44106 -0.638065 0
M  V30 1875 C 171.229 2.01978 -0.14533 0
M  V30 1876 C 171.557 1.50234 1.23532 0
M  V30 1877 O 170.812 0.679548 1.83523 0
M  V30 1878 C 171.111 3.5729 -0.0887327 0
M  V30 1879 C 170.777 4.28317 -1.40909 0
M  V30 1880 C 169.439 4.47437 -1.77069 0
M  V30 1881 C 171.791 4.6867 -2.28031 0
M  V30 1882 C 169.119 5.04171 -3.00047 0
M  V30 1883 C 171.471 5.26766 -3.50286 0
M  V30 1884 C 170.135 5.44104 -3.86661 0
M  V30 1885 H 169.405 0.739089 -0.0531801 0
M  V30 1886 H 172.052 1.72781 -0.825761 0
M  V30 1887 H 170.357 3.8594 0.675095 0
M  V30 1888 H 172.054 3.99807 0.309145 0
M  V30 1889 H 168.644 4.1377 -1.1177 0
M  V30 1890 H 172.828 4.53604 -2.01388 0
M  V30 1891 H 168.084 5.15782 -3.28298 0
M  V30 1892 H 172.258 5.56983 -4.18023 0
M  V30 1893 H 169.885 5.87832 -4.82034 0
M  V30 1894 N 171.46 0.379036 1.52974 0
M  V30 1895 C 172.408 -0.476033 2.27677 0
M  V30 1896 C 173.402 -1.0719 1.31174 0
M  V30 1897 O 174.608 -1.01355 1.48752 0
M  V30 1898 H 170.983 -0.172255 0.732006 0
M  V30 1899 H 172.954 0.175615 2.97883 0
M  V30 1900 C 171.703 -1.5967 3.0887 0
M  V30 1901 H 171.026 -1.1475 3.82978 0
M  V30 1902 H 172.466 -2.16943 3.64296 0
M  V30 1903 C 170.925 -2.54682 2.20542 0
M  V30 1904 O 171.455 -3.57836 1.82527 0
M  V30 1905 N 169.661 -2.24183 1.84907 0
M  V30 1906 H 169.208 -1.40333 2.1602 0
M  V30 1907 H 169.166 -2.88006 1.26096 0
M  V30 1908 N 172.938 -1.57226 0.108567 0
M  V30 1909 C 173.848 -2.18292 -0.859401 0
M  V30 1910 C 174.864 -1.15612 -1.30038 0
M  V30 1911 O 176.04 -1.48039 -1.36552 0
M  V30 1912 C 173.105 -2.762 -2.09558 0
M  V30 1913 C 172.166 -3.93881 -1.70752 0
M  V30 1914 C 171.399 -4.49018 -2.88477 0
M  V30 1915 O 171.622 -4.03068 -4.036 0
M  V30 1916 O 170.556 -5.39852 -2.66164 0
M  V30 1917 H 174.382 -3.01441 -0.369769 0
M  V30 1918 H 171.967 -1.48945 -0.1165 0
M  V30 1919 H 173.849 -3.13156 -2.81978 0
M  V30 1920 H 172.524 -1.96089 -2.57548 0
M  V30 1921 H 171.431 -3.61713 -0.954714 0
M  V30 1922 H 172.764 -4.75396 -1.27513 0
M  V30 1923 N 174.416 0.165178 -1.56732 0
M  V30 1924 C 175.346 1.20651 -1.99914 0
M  V30 1925 C 176.327 1.45827 -0.875705 0
M  V30 1926 O 177.512 1.57057 -1.14223 0
M  V30 1927 C 174.642 2.54401 -2.36427 0
M  V30 1928 C 173.596 2.43782 -3.51787 0
M  V30 1929 C 172.922 3.82078 -3.7406 0
M  V30 1930 C 174.222 1.93732 -4.85041 0
M  V30 1931 H 175.916 0.847534 -2.87154 0
M  V30 1932 H 173.462 0.40625 -1.38151 0
M  V30 1933 H 175.415 3.27458 -2.65234 0
M  V30 1934 H 174.139 2.92098 -1.46103 0
M  V30 1935 H 172.798 1.73178 -3.23117 0
M  V30 1936 H 172.446 4.17179 -2.81017 0
M  V30 1937 H 172.146 3.7584 -4.51684 0
M  V30 1938 H 173.67 4.56712 -4.05274 0
M  V30 1939 H 175.084 2.56569 -5.12684 0
M  V30 1940 H 173.481 1.98428 -5.66345 0
M  V30 1941 H 174.551 0.891962 -4.76626 0
M  V30 1942 N 175.894 1.51508 0.433938 0
M  V30 1943 C 176.824 1.76016 1.53429 0
M  V30 1944 C 177.805 0.610112 1.58782 0
M  V30 1945 O 178.99 0.853177 1.74455 0
M  V30 1946 C 176.12 1.88831 2.9148 0
M  V30 1947 C 175.074 3.04288 3.00987 0
M  V30 1948 C 174.4 3.0229 4.4105 0
M  V30 1949 C 175.7 4.44193 2.74754 0
M  V30 1950 H 177.394 2.68152 1.33171 0
M  V30 1951 H 174.94 1.29035 0.639214 0
M  V30 1952 H 176.893 2.04559 3.6842 0
M  V30 1953 H 175.617 0.933455 3.12976 0
M  V30 1954 H 174.276 2.8827 2.26486 0
M  V30 1955 H 173.924 2.04576 4.59519 0
M  V30 1956 H 173.624 3.79822 4.4834 0
M  V30 1957 H 175.148 3.20116 5.1996 0
M  V30 1958 H 176.562 4.60544 3.41426 0
M  V30 1959 H 174.959 5.23457 2.9345 0
M  V30 1960 H 176.029 4.53996 1.70339 0
M  V30 1961 N 177.372 -0.689602 1.41712 0
M  V30 1962 C 178.6 -1.47827 1.44758 0
M  V30 1963 C 179.015 -1.88721 0.0545703 0
M  V30 1964 O 178.372 -1.57176 -0.927463 0
M  V30 1965 C 178.423 -2.73698 2.3616 0
M  V30 1966 O 178.144 -2.34524 3.7004 0
M  V30 1967 C 179.645 -3.67389 2.48072 0
M  V30 1968 H 176.865 -0.455357 0.49284 0
M  V30 1969 H 179.409 -0.848574 1.86063 0
M  V30 1970 H 177.564 -3.32891 1.98148 0
M  V30 1971 H 177.978 -3.15701 4.18847 0
M  V30 1972 H 179.452 -4.52475 3.16181 0
M  V30 1973 H 179.929 -4.12284 1.51388 0
M  V30 1974 H 180.535 -3.14097 2.86746 0
M  V30 1975 N 178.85 -1.27639 -0.924453 0
M  V30 1976 C 180.08 -1.16819 -1.70402 0
M  V30 1977 C 180.488 0.277191 -1.87158 0
M  V30 1978 O 179.831 1.20025 -1.39067 0
M  V30 1979 C 179.893 -1.78305 -3.12166 0
M  V30 1980 C 179.557 -3.27502 -3.18734 0
M  V30 1981 C 180.554 -4.2409 -3.00738 0
M  V30 1982 C 178.239 -3.68269 -3.4159 0
M  V30 1983 C 180.233 -5.59422 -3.05492 0
M  V30 1984 C 177.92 -5.0373 -3.45977 0
M  V30 1985 C 178.918 -5.99116 -3.27946 0
M  V30 1986 O 178.606 -7.32108 -3.32074 0
M  V30 1987 H 178.338 -0.406931 -0.539799 0
M  V30 1988 H 180.892 -1.69078 -1.16626 0
M  V30 1989 H 179.122 -1.20528 -3.67437 0
M  V30 1990 H 180.811 -1.62154 -3.72103 0
M  V30 1991 H 181.577 -3.93931 -2.82919 0
M  V30 1992 H 177.456 -2.94496 -3.54673 0
M  V30 1993 H 181 -6.33852 -2.91337 0
M  V30 1994 H 176.897 -5.33543 -3.63321 0
M  V30 1995 H 177.665 -7.40598 -3.48507 0
M  V30 1996 N 180.328 1.1314 -1.09713 0
M  V30 1997 C 181.276 2.20717 -0.733934 0
M  V30 1998 C 182.27 1.6729 0.266506 0
M  V30 1999 O 183.476 1.79547 0.127656 0
M  V30 2000 H 179.851 0.719292 -0.21937 0
M  V30 2001 H 181.822 2.48611 -1.6503 0
M  V30 2002 C 180.571 3.47265 -0.173849 0
M  V30 2003 H 179.894 3.88716 -0.934873 0
M  V30 2004 H 181.334 4.23979 0.0423126 0
M  V30 2005 C 179.793 3.18724 1.09164 0
M  V30 2006 O 180.323 3.37762 2.17439 0
M  V30 2007 N 178.529 2.72583 1.00732 0
M  V30 2008 H 178.076 2.57291 0.126121 0
M  V30 2009 H 178.034 2.53862 1.85476 0
M  V30 2010 N 181.806 0.884767 1.30421 0
M  V30 2011 C 182.769 0.356277 2.26414 0
M  V30 2012 C 183.769 -0.501124 1.52792 0
M  V30 2013 O 184.959 -0.30831 1.7145 0
M  V30 2014 C 182.091 -0.492316 3.37326 0
M  V30 2015 H 183.284 1.20389 2.74675 0
M  V30 2016 H 180.837 0.661607 1.41607 0
M  V30 2017 H 181.572 -1.36052 2.94381 0
M  V30 2018 H 181.357 0.121832 3.91911 0
M  V30 2019 H 182.847 -0.853871 4.08777 0
M  V30 2020 N 183.284 -1.43765 0.645699 0
M  V30 2021 C 184.695 -1.85193 0.236719 0
M  V30 2022 C 185.046 -1.54045 -1.21509 0
M  V30 2023 O 184.171 -0.985694 -1.92647 0
M  V30 2024 C 184.766 -3.36151 0.422845 0
M  V30 2025 C 183.325 -3.76338 0.0682492 0
M  V30 2026 C 182.472 -2.67538 0.729306 0
M  V30 2027 H 185.423 -1.34025 0.849883 0
M  V30 2028 H 185.444 -3.79032 -0.333904 0
M  V30 2029 H 184.956 -3.5879 1.47958 0
M  V30 2030 H 183.057 -3.59312 -0.986179 0
M  V30 2031 H 183.17 -4.76603 0.488469 0
M  V30 2032 H 181.534 -2.54176 0.163235 0
M  V30 2033 H 182.317 -2.93006 1.78892 0
M  V30 2034 N 184.763 -0.387143 -1.52771 0
M  V30 2035 C 185.713 0.465942 -2.23188 0
M  V30 2036 C 186.697 1.03138 -1.23496 0
M  V30 2037 O 187.889 0.957845 -1.48843 0
M  V30 2038 C 185.018 1.59384 -3.04059 0
M  V30 2039 C 184.104 1.04024 -4.11144 0
M  V30 2040 N 184.495 0.211416 -5.05358 0
M  V30 2041 C 182.793 1.31295 -4.26237 0
M  V30 2042 C 183.494 -0.0941698 -5.81624 0
M  V30 2043 N 182.47 0.509207 -5.4121 0
M  V30 2044 H 186.272 -0.173856 -2.93385 0
M  V30 2045 H 183.786 -0.19633 -1.61209 0
M  V30 2046 H 185.783 2.21738 -3.53041 0
M  V30 2047 H 184.443 2.23648 -2.35397 0
M  V30 2048 H 185.454 -0.151151 -5.17679 0
M  V30 2049 H 182.131 1.95679 -3.68803 0
M  V30 2050 H 183.521 -0.765572 -6.67524 0
M  V30 2051 N 186.241 1.57166 -0.116904 0
M  V30 2052 C 187.171 2.18222 0.830759 0
M  V30 2053 C 188.152 1.12167 1.27877 0
M  V30 2054 O 189.337 1.40394 1.34176 0
M  V30 2055 C 186.467 2.77996 2.08172 0
M  V30 2056 C 185.421 3.89614 1.77157 0
M  V30 2057 C 184.747 4.36187 3.09265 0
M  V30 2058 C 186.047 5.1181 1.04151 0
M  V30 2059 H 187.741 2.97664 0.321992 0
M  V30 2060 H 185.287 1.4318 0.153434 0
M  V30 2061 H 187.24 3.19366 2.74924 0
M  V30 2062 H 185.964 1.9584 2.6137 0
M  V30 2063 H 184.623 3.48816 1.12796 0
M  V30 2064 H 184.271 3.50893 3.60393 0
M  V30 2065 H 183.971 5.11455 2.89288 0
M  V30 2066 H 185.495 4.80207 3.77139 0
M  V30 2067 H 186.909 5.50214 1.61052 0
M  V30 2068 H 185.306 5.92648 0.942762 0
M  V30 2069 H 186.376 4.84892 0.0279022 0
M  V30 2070 N 187.719 -0.156864 1.56817 0
M  V30 2071 C 188.652 -1.22316 1.9265 0
M  V30 2072 C 189.63 -1.42059 0.791076 0
M  V30 2073 O 190.814 -1.56831 1.04576 0
M  V30 2074 C 187.941 -2.58375 2.18998 0
M  V30 2075 C 186.987 -2.55284 3.41661 0
M  V30 2076 S 187.82 -2.02946 4.95553 0
M  V30 2077 C 188.976 -3.40753 5.25013 0
M  V30 2078 H 189.209 -0.917403 2.82791 0
M  V30 2079 H 186.742 -0.362059 1.50095 0
M  V30 2080 H 188.7 -3.36677 2.34859 0
M  V30 2081 H 187.361 -2.86145 1.29538 0
M  V30 2082 H 186.554 -3.55418 3.57343 0
M  V30 2083 H 186.156 -1.85086 3.24991 0
M  V30 2084 H 188.448 -4.36819 5.17876 0
M  V30 2085 H 189.391 -3.29933 6.26538 0
M  V30 2086 H 189.799 -3.37433 4.52548 0
M  V30 2087 N 189.197 -1.51736 -0.425897 0
M  V30 2088 C 190.129 -1.70083 -1.53638 0
M  V30 2089 C 191.142 -0.581349 -1.52066 0
M  V30 2090 O 192.331 -0.856017 -1.56635 0
M  V30 2091 C 189.431 -1.71078 -2.9255 0
M  V30 2092 C 188.604 -2.99795 -3.185 0
M  V30 2093 C 187.663 -2.92825 -4.37196 0
M  V30 2094 O 186.689 -3.66756 -4.35291 0
M  V30 2095 N 187.891 -2.0946 -5.41393 0
M  V30 2096 H 190.656 -2.65882 -1.383 0
M  V30 2097 H 188.217 -1.49765 -0.614988 0
M  V30 2098 H 190.209 -1.63969 -3.69995 0
M  V30 2099 H 188.779 -0.828242 -3.01428 0
M  V30 2100 H 187.999 -3.20684 -2.2925 0
M  V30 2101 H 189.287 -3.84977 -3.32671 0
M  V30 2102 H 188.685 -1.48792 -5.45781 0
M  V30 2103 H 187.242 -2.08221 -6.17647 0
M  V30 2104 N 190.675 0.682077 -1.42076 0
M  V30 2105 C 191.952 1.43755 -1.32642 0
M  V30 2106 C 192.332 2.11063 0.0396611 0
M  V30 2107 O 191.68 2.02701 1.05474 0
M  V30 2108 C 191.89 2.44596 -2.48946 0
M  V30 2109 C 193.238 3.09454 -2.9073 0
M  V30 2110 O 194.262 2.54922 -2.48783 0
M  V30 2111 O 193.121 4.08253 -3.63307 0
M  V30 2112 H 190.215 0.640857 -0.522715 0
M  V30 2113 H 192.761 0.711415 -1.54068 0
M  V30 2114 H 191.533 1.93609 -3.40046 0
M  V30 2115 H 191.156 3.24701 -2.29467 0
M  V30 2116 N 192.153 1.28127 0.917671 0
M  V30 2117 C 193.083 1.14248 2.03641 0
M  V30 2118 C 194.064 0.0412748 1.7005 0
M  V30 2119 O 195.249 0.217566 1.92977 0
M  V30 2120 C 192.379 0.799431 3.37974 0
M  V30 2121 C 191.333 1.85497 3.85713 0
M  V30 2122 C 190.659 1.36565 5.16966 0
M  V30 2123 C 191.959 3.26085 4.08002 0
M  V30 2124 H 193.653 2.07835 2.15511 0
M  V30 2125 H 191.199 1.00064 1.03553 0
M  V30 2126 H 193.152 0.689114 4.15727 0
M  V30 2127 H 191.876 -0.172145 3.26146 0
M  V30 2128 H 190.535 1.95437 3.10161 0
M  V30 2129 H 190.183 0.383253 5.01538 0
M  V30 2130 H 189.883 2.07143 5.49878 0
M  V30 2131 H 191.407 1.26848 5.97279 0
M  V30 2132 H 192.821 3.19089 4.76293 0
M  V30 2133 H 191.218 3.94462 4.52238 0
M  V30 2134 H 192.288 3.70394 3.12948 0
M  V30 2135 N 193.631 -1.12557 1.10312 0
M  V30 2136 C 194.908 -1.80363 0.756878 0
M  V30 2137 C 195.288 -1.97067 -0.756824 0
M  V30 2138 O 194.636 -1.54601 -1.68259 0
M  V30 2139 C 194.846 -3.14812 1.50647 0
M  V30 2140 C 196.194 -3.90029 1.67817 0
M  V30 2141 O 197.218 -3.24464 1.46974 0
M  V30 2142 O 196.077 -5.07652 2.02365 0
M  V30 2143 H 193.171 -0.780667 0.272926 0
M  V30 2144 H 195.717 -1.19404 1.20586 0
M  V30 2145 H 194.489 -2.97936 2.53672 0
M  V30 2146 H 194.112 -3.83478 1.05026 0
M  V30 2147 N 195.109 -0.891671 -1.2995 0
M  V30 2148 C 196.337 -0.52866 -2.00032 0
M  V30 2149 C 196.752 0.884574 -1.66795 0
M  V30 2150 O 196.109 1.5827 -0.908669 0
M  V30 2151 C 196.16 -0.701814 -3.54622 0
M  V30 2152 O 195.881 -2.05942 -3.86678 0
M  V30 2153 C 197.382 -0.342683 -4.41973 0
M  V30 2154 H 194.602 -0.203659 -0.639347 0
M  V30 2155 H 197.146 -1.19881 -1.65677 0
M  V30 2156 H 195.301 -0.0789468 -3.8732 0
M  V30 2157 H 195.715 -2.08291 -4.81368 0
M  V30 2158 H 197.189 -0.514709 -5.49595 0
M  V30 2159 H 197.666 0.71975 -4.33262 0
M  V30 2160 H 198.272 -0.942154 -4.14733 0
M  V30 2161 N 196.587 1.43421 -0.653314 0
M  V30 2162 C 197.817 2.05864 -0.174238 0
M  V30 2163 C 198.225 1.49052 1.16534 0
M  V30 2164 O 197.568 0.616481 1.73047 0
M  V30 2165 C 197.63 3.59499 -0.00875873 0
M  V30 2166 C 197.294 4.38893 -1.27364 0
M  V30 2167 C 198.291 4.70947 -2.20239 0
M  V30 2168 C 195.976 4.789 -1.51525 0
M  V30 2169 C 197.97 5.41916 -3.35568 0
M  V30 2170 C 195.657 5.49614 -2.67147 0
M  V30 2171 C 196.655 5.81044 -3.58994 0
M  V30 2172 O 196.343 6.50313 -4.72597 0
M  V30 2173 H 196.075 0.670345 -0.0872549 0
M  V30 2174 H 198.629 1.84913 -0.894226 0
M  V30 2175 H 196.859 3.79025 0.7666 0
M  V30 2176 H 198.548 4.0364 0.427687 0
M  V30 2177 H 199.314 4.40558 -2.02815 0
M  V30 2178 H 195.193 4.53843 -0.809158 0
M  V30 2179 H 198.737 5.66365 -4.07279 0
M  V30 2180 H 194.634 5.79419 -2.84505 0
M  V30 2181 H 195.402 6.68795 -4.71864 0
M  V30 2182 N 198.065 0.39524 1.52563 0
M  V30 2183 C 198.995 -0.428384 2.29537 0
M  V30 2184 C 199.976 -1.05831 1.33169 0
M  V30 2185 O 201.161 -1.06995 1.62067 0
M  V30 2186 C 198.291 -1.55274 3.10656 0
M  V30 2187 C 197.245 -1.04855 4.14957 0
M  V30 2188 C 196.571 -2.26543 4.84337 0
M  V30 2189 C 197.871 -0.112324 5.22179 0
M  V30 2190 H 199.565 0.213867 2.98635 0
M  V30 2191 H 197.111 0.104298 1.43622 0
M  V30 2192 H 199.064 -2.1358 3.63265 0
M  V30 2193 H 197.788 -2.22266 2.39302 0
M  V30 2194 H 196.447 -0.487985 3.63338 0
M  V30 2195 H 196.095 -2.92059 4.09525 0
M  V30 2196 H 195.795 -1.93466 5.54837 0
M  V30 2197 H 197.319 -2.85481 5.39753 0
M  V30 2198 H 198.733 -0.603752 5.70112 0
M  V30 2199 H 197.13 0.128968 5.99961 0
M  V30 2200 H 198.2 0.837052 4.77621 0
M  V30 2201 N 199.544 -1.57102 0.125237 0
M  V30 2202 C 200.792 -1.95021 -0.530198 0
M  V30 2203 C 201.113 -1.00982 -1.66816 0
M  V30 2204 O 200.383 -0.0672693 -1.95784 0
M  V30 2205 H 198.963 -0.720046 -0.198853 0
M  V30 2206 H 201.625 -1.93916 0.19564 0
M  V30 2207 H 200.721 -2.98211 -0.920681 0
M  V30 2208 N 201.022 0.148545 -1.56898 0
M  V30 2209 C 202.27 0.859717 -1.82902 0
M  V30 2210 C 202.591 1.81775 -0.70588 0
M  V30 2211 O 201.861 1.93994 0.272586 0
M  V30 2212 H 200.441 0.320469 -0.674766 0
M  V30 2213 H 203.103 0.142918 -1.94375 0
M  V30 2214 H 202.199 1.4229 -2.77777 0
M  V30 2215 N 202.5 1.5196 0.417844 0
M  V30 2216 C 203.916 1.40569 0.755816 0
M  V30 2217 C 204.116 0.503316 1.95113 0
M  V30 2218 O 203.172 -0.0341925 2.52477 0
M  V30 2219 C 204.485 2.82947 1.01791 0
M  V30 2220 C 206.033 2.92231 1.12116 0
M  V30 2221 C 206.508 4.35559 1.41608 0
M  V30 2222 N 207.999 4.38753 1.48491 0
M  V30 2223 C 208.734 5.46705 1.7292 0
M  V30 2224 N 208.23 6.64788 1.95011 0
M  V30 2225 N 210.023 5.34209 1.74863 0
M  V30 2226 H 202.174 2.09168 -0.369098 0
M  V30 2227 H 204.437 0.942409 -0.102809 0
M  V30 2228 H 204.143 3.5106 0.212081 0
M  V30 2229 H 204.017 3.23462 1.94042 0
M  V30 2230 H 206.404 2.24304 1.9176 0
M  V30 2231 H 206.485 2.55185 0.177225 0
M  V30 2232 H 206.129 5.04042 0.624848 0
M  V30 2233 H 206.059 4.70133 2.37239 0
M  V30 2234 H 208.55 3.5363 1.33244 0
M  V30 2235 H 208.863 7.42845 2.13076 0
M  V30 2236 H 207.208 6.67869 1.92293 0
M  V30 2237 H 210.399 4.40937 1.57137 0
M  V30 2238 H 210.572 6.18415 1.93563 0
M  V30 2239 N 203.978 -0.674533 1.42435 0
M  V30 2240 C 204.888 -1.81751 1.48337 0
M  V30 2241 C 205.904 -1.69975 0.372099 0
M  V30 2242 O 207.08 -1.91521 0.62304 0
M  V30 2243 C 204.145 -3.17895 1.38361 0
M  V30 2244 C 203.206 -3.41625 2.59982 0
M  V30 2245 C 202.439 -4.71274 2.50473 0
M  V30 2246 O 202.662 -5.49197 1.54075 0
M  V30 2247 O 201.596 -4.96254 3.4061 0
M  V30 2248 H 205.422 -1.79728 2.44809 0
M  V30 2249 H 203.007 -0.830312 1.24202 0
M  V30 2250 H 204.889 -3.99136 1.35161 0
M  V30 2251 H 203.564 -3.20555 0.450144 0
M  V30 2252 H 202.471 -2.60231 2.68757 0
M  V30 2253 H 203.804 -3.43796 3.52229 0
M  V30 2254 N 205.456 -1.28612 -0.910864 0
M  V30 2255 C 206.702 -1.17116 -1.66299 0
M  V30 2256 C 207.057 0.276917 -1.90397 0
M  V30 2257 O 206.35 1.19795 -1.49532 0
M  V30 2258 C 206.544 -1.90624 -3.0232 0
M  V30 2259 C 206.373 -3.42431 -2.91498 0
M  V30 2260 C 205.143 -4.11773 -2.92867 0
M  V30 2261 C 207.341 -4.38124 -2.69355 0
M  V30 2262 N 205.323 -5.50025 -2.72664 0
M  V30 2263 C 206.694 -5.63759 -2.58023 0
M  V30 2264 C 208.749 -4.28016 -2.54375 0
M  V30 2265 C 207.452 -6.80436 -2.33238 0
M  V30 2266 C 209.478 -5.44433 -2.30969 0
M  V30 2267 C 208.84 -6.69034 -2.20394 0
M  V30 2268 H 204.939 -0.483506 -0.61461 0
M  V30 2269 H 207.523 -1.62299 -1.0755 0
M  V30 2270 H 205.694 -1.4787 -3.5915 0
M  V30 2271 H 207.426 -1.71488 -3.66571 0
M  V30 2272 H 204.181 -3.63378 -3.03732 0
M  V30 2273 H 204.605 -6.22705 -2.65646 0
M  V30 2274 H 209.247 -3.32388 -2.613 0
M  V30 2275 H 206.965 -7.7613 -2.25051 0
M  V30 2276 H 210.551 -5.38504 -2.20238 0
M  V30 2277 H 209.431 -7.57595 -2.02531 0
M  V30 2278 N 206.934 1.1197 -1.10907 0
M  V30 2279 C 207.864 2.19928 -0.784473 0
M  V30 2280 C 208.845 1.6833 0.244726 0
M  V30 2281 O 210.03 1.93892 0.109418 0
M  V30 2282 C 207.16 3.46597 -0.220827 0
M  V30 2283 C 206.114 4.11376 -1.18127 0
M  V30 2284 C 205.44 5.32554 -0.478594 0
M  V30 2285 C 206.74 4.56945 -2.52979 0
M  V30 2286 H 208.434 2.47337 -1.68715 0
M  V30 2287 H 205.98 1.18879 -0.812642 0
M  V30 2288 H 207.933 4.21396 0.0184278 0
M  V30 2289 H 206.657 3.1863 0.717113 0
M  V30 2290 H 205.316 3.38564 -1.40606 0
M  V30 2291 H 204.964 5.00856 0.463976 0
M  V30 2292 H 204.664 5.76844 -1.11912 0
M  V30 2293 H 206.188 6.10096 -0.248 0
M  V30 2294 H 207.602 5.23093 -2.3462 0
M  V30 2295 H 205.999 5.1203 -3.12962 0
M  V30 2296 H 207.069 3.70676 -3.12614 0
M  V30 2297 N 208.412 0.89855 1.29475 0
M  V30 2298 C 209.661 0.519863 1.94885 0
M  V30 2299 C 209.974 -0.9383 1.71625 0
M  V30 2300 O 211.18 -1.42445 2.31131 0
M  V30 2301 C 209.636 0.878836 3.49005 0
M  V30 2302 C 209.244 2.35569 3.81066 0
M  V30 2303 C 210.988 0.570004 4.20656 0
M  V30 2304 C 208.895 2.65558 5.28425 0
M  V30 2305 H 207.825 0.190692 0.729488 0
M  V30 2306 H 210.476 1.09539 1.47219 0
M  V30 2307 H 208.858 0.232253 3.95318 0
M  V30 2308 H 210.032 3.04773 3.45616 0
M  V30 2309 H 208.347 2.63343 3.22552 0
M  V30 2310 H 210.944 0.770925 5.29113 0
M  V30 2311 H 211.287 -0.491404 4.1339 0
M  V30 2312 H 211.82 1.17438 3.8007 0
M  V30 2313 H 208.559 3.70493 5.40754 0
M  V30 2314 H 208.079 2.00977 5.65127 0
M  V30 2315 H 209.758 2.51765 5.96006 0
M  V30 2316 N 209.89 -1.43072 0.660911 0
M  V30 2317 C 211.138 -2.01323 0.177094 0
M  V30 2318 C 211.459 -1.5245 -1.2159 0
M  V30 2319 O 210.729 -0.740322 -1.81373 0
M  V30 2320 H 209.309 -0.744382 0.0624804 0
M  V30 2321 H 211.971 -1.75179 0.854305 0
M  V30 2322 H 211.067 -3.11649 0.167641 0
M  V30 2323 N 211.368 -0.403325 -1.52352 0
M  V30 2324 C 212.316 0.439752 -2.28405 0
M  V30 2325 C 213.31 1.05089 -1.32863 0
M  V30 2326 O 214.516 0.989759 -1.50345 0
M  V30 2327 H 210.891 0.160587 -0.734653 0
M  V30 2328 H 212.862 -0.222983 -2.97566 0
M  V30 2329 C 211.611 1.54736 -3.11371 0
M  V30 2330 H 210.934 1.08643 -3.84755 0
M  V30 2331 H 212.374 2.1112 -3.67701 0
M  V30 2332 C 210.833 2.51141 -2.24566 0
M  V30 2333 O 211.363 3.54887 -1.88196 0
M  V30 2334 N 209.569 2.21213 -1.8845 0
M  V30 2335 H 209.116 1.36878 -2.18225 0
M  V30 2336 H 209.074 2.85963 -1.30662 0
M  V30 2337 N 212.846 1.57033 -0.133567 0
M  V30 2338 C 214.071 2.00475 0.531477 0
M  V30 2339 C 214.496 1.01291 1.58499 0
M  V30 2340 O 213.854 -0.0133279 1.81295 0
M  V30 2341 C 213.902 3.42729 1.12113 0
M  V30 2342 O 213.006 3.46498 2.23636 0
M  V30 2343 H 212.347 0.650876 0.131362 0
M  V30 2344 H 214.877 2.03344 -0.22634 0
M  V30 2345 H 214.887 3.81246 1.4531 0
M  V30 2346 H 213.562 4.14428 0.349557 0
M  V30 2347 H 212.139 3.19811 1.91769 0
M  V30 2348 N 214.325 -0.140222 1.56975 0
M  V30 2349 C 215.571 -0.852949 1.83991 0
M  V30 2350 C 215.904 -1.80512 0.716187 0
M  V30 2351 O 215.179 -1.92479 -0.279681 0
M  V30 2352 C 215.462 -1.6215 3.21527 0
M  V30 2353 C 215.315 -0.690363 4.4447 0
M  V30 2354 C 216.634 -2.58247 3.56366 0
M  V30 2355 H 213.753 -0.308634 0.669264 0
M  V30 2356 H 216.395 -0.117898 1.89634 0
M  V30 2357 H 214.545 -2.24812 3.16847 0
M  V30 2358 H 216.217 -0.0742264 4.6124 0
M  V30 2359 H 214.46 -0.000396433 4.338 0
M  V30 2360 H 215.131 -1.2643 5.37326 0
M  V30 2361 H 217.607 -2.05701 3.61699 0
M  V30 2362 H 216.483 -3.09067 4.53617 0
M  V30 2363 H 216.744 -3.39923 2.82674 0
M  V30 2364 N 215.803 -1.52179 -0.40978 0
M  V30 2365 C 217.031 -1.70054 -1.17853 0
M  V30 2366 C 217.446 -0.409735 -1.843 0
M  V30 2367 O 216.803 0.614183 -1.71855 0
M  V30 2368 C 216.854 -2.83568 -2.24213 0
M  V30 2369 O 216.575 -4.0765 -1.60478 0
M  V30 2370 C 218.076 -3.12947 -3.13973 0
M  V30 2371 H 215.296 -0.569917 -0.354169 0
M  V30 2372 H 217.84 -1.98734 -0.482198 0
M  V30 2373 H 215.995 -2.57409 -2.89516 0
M  V30 2374 H 216.409 -4.70899 -2.30986 0
M  V30 2375 H 217.883 -3.95889 -3.84677 0
M  V30 2376 H 218.36 -2.26472 -3.76307 0
M  V30 2377 H 218.966 -3.40868 -2.5434 0
M  V30 2378 N 217.281 0.66697 -1.42791 0
M  V30 2379 C 218.527 1.42754 -1.44889 0
M  V30 2380 C 218.882 1.92283 -0.0669755 0
M  V30 2381 O 218.175 1.68494 0.912154 0
M  V30 2382 C 218.369 2.6349 -2.4147 0
M  V30 2383 C 218.198 2.25776 -3.88915 0
M  V30 2384 C 216.968 2.1476 -4.57391 0
M  V30 2385 C 219.166 1.86927 -4.79127 0
M  V30 2386 N 217.148 1.70232 -5.89826 0
M  V30 2387 C 218.519 1.53378 -6.00729 0
M  V30 2388 C 220.574 1.73989 -4.66511 0
M  V30 2389 C 219.277 1.08187 -7.11117 0
M  V30 2390 C 221.303 1.30203 -5.76889 0
M  V30 2391 C 220.665 0.975818 -6.97608 0
M  V30 2392 H 216.764 0.518559 -0.585338 0
M  V30 2393 H 219.348 0.768906 -1.78874 0
M  V30 2394 H 217.519 3.27033 -2.09533 0
M  V30 2395 H 219.251 3.30123 -2.34096 0
M  V30 2396 H 216.006 2.3408 -4.11708 0
M  V30 2397 H 216.43 1.50369 -6.6009 0
M  V30 2398 H 221.072 1.97853 -3.7365 0
M  V30 2399 H 218.79 0.830701 -8.03819 0
M  V30 2400 H 222.376 1.20701 -5.69142 0
M  V30 2401 H 221.256 0.642157 -7.81566 0
M  V30 2402 N 218.759 1.29093 0.90403 0
M  V30 2403 C 219.722 1.1386 1.98919 0
M  V30 2404 C 220.722 0.0753457 1.60623 0
M  V30 2405 O 221.912 0.321931 1.71199 0
M  V30 2406 C 219.044 0.740198 3.32767 0
M  V30 2407 H 220.237 2.10246 2.13861 0
M  V30 2408 H 217.79 1.12218 1.08797 0
M  V30 2409 H 218.525 -0.223997 3.23525 0
M  V30 2410 H 218.31 1.50838 3.61926 0
M  V30 2411 H 219.8 0.656546 4.12407 0
M  V30 2412 N 220.237 -1.11381 1.11499 0
M  V30 2413 C 221.514 -1.7955 0.775965 0
M  V30 2414 C 221.894 -1.97859 -0.73588 0
M  V30 2415 O 221.242 -1.56376 -1.66609 0
M  V30 2416 C 221.452 -3.13196 1.53977 0
M  V30 2417 C 222.8 -3.88227 1.71944 0
M  V30 2418 O 223.824 -3.22887 1.50407 0
M  V30 2419 O 222.683 -5.05477 2.07738 0
M  V30 2420 H 219.777 -0.777728 0.28119 0
M  V30 2421 H 222.323 -1.18118 1.21845 0
M  V30 2422 H 221.095 -2.95229 2.56818 0
M  V30 2423 H 220.718 -3.82342 1.09088 0
M  V30 2424 N 221.715 -0.905404 -1.28997 0
M  V30 2425 C 222.962 -0.534248 -1.95325 0
M  V30 2426 C 223.29 0.920535 -1.71337 0
M  V30 2427 O 222.545 1.66861 -1.02254 0
M  V30 2428 C 222.844 -0.779906 -3.48787 0
M  V30 2429 C 222.51 -2.21293 -3.92861 0
M  V30 2430 C 221.172 -2.60475 -4.04606 0
M  V30 2431 C 223.524 -3.14587 -4.15553 0
M  V30 2432 C 220.852 -3.9212 -4.36416 0
M  V30 2433 C 223.204 -4.45787 -4.48839 0
M  V30 2434 C 221.868 -4.84834 -4.58794 0
M  V30 2435 H 221.138 -0.195495 -0.714747 0
M  V30 2436 H 223.785 -1.14514 -1.53488 0
M  V30 2437 H 222.09 -0.0861365 -3.91705 0
M  V30 2438 H 223.787 -0.472029 -3.98212 0
M  V30 2439 H 220.377 -1.89887 -3.84241 0
M  V30 2440 H 224.561 -2.85528 -4.0594 0
M  V30 2441 H 219.817 -4.22086 -4.42327 0
M  V30 2442 H 223.991 -5.18098 -4.65346 0
M  V30 2443 H 221.618 -5.86877 -4.83197 0
M  V30 2444 N 223.193 1.4272 -0.668489 0
M  V30 2445 C 224.423 2.05668 -0.196063 0
M  V30 2446 C 224.831 1.5028 1.14946 0
M  V30 2447 O 224.174 0.6348 1.72383 0
M  V30 2448 C 224.236 3.59469 -0.0468879 0
M  V30 2449 C 223.9 4.37518 -1.32012 0
M  V30 2450 C 224.897 4.68584 -2.25222 0
M  V30 2451 C 222.582 4.77266 -1.56596 0
M  V30 2452 C 224.576 5.38326 -3.41297 0
M  V30 2453 C 222.263 5.4675 -2.72962 0
M  V30 2454 C 223.261 5.77204 -3.65137 0
M  V30 2455 O 222.949 6.45264 -4.79468 0
M  V30 2456 H 222.681 0.669382 -0.0943599 0
M  V30 2457 H 225.235 1.83954 -0.913788 0
M  V30 2458 H 223.465 3.79817 0.726357 0
M  V30 2459 H 225.154 4.04071 0.384852 0
M  V30 2460 H 225.92 4.38382 -2.07477 0
M  V30 2461 H 221.799 4.52959 -0.857249 0
M  V30 2462 H 225.343 5.62014 -4.13263 0
M  V30 2463 H 221.24 5.76369 -2.90635 0
M  V30 2464 H 222.008 6.63753 -4.78931 0
M  V30 2465 N 224.671 0.411399 1.52136 0
M  V30 2466 C 225.917 -0.156262 2.02799 0
M  V30 2467 C 226.272 -1.42613 1.29149 0
M  V30 2468 O 225.565 -1.87592 0.389839 0
M  V30 2469 C 225.759 -0.455872 3.54481 0
M  V30 2470 C 225.588 0.783404 4.42824 0
M  V30 2471 C 224.358 1.30928 4.88043 0
M  V30 2472 C 226.556 1.66217 4.86699 0
M  V30 2473 N 224.538 2.5038 5.6052 0
M  V30 2474 C 225.909 2.70292 5.5798 0
M  V30 2475 C 227.964 1.67966 4.68713 0
M  V30 2476 C 226.667 3.7603 6.13184 0
M  V30 2477 C 228.693 2.72624 5.24815 0
M  V30 2478 C 228.055 3.7542 5.9602 0
M  V30 2479 H 224.154 -0.0186886 0.781777 0
M  V30 2480 H 226.738 0.566255 1.86284 0
M  V30 2481 H 224.909 -1.14743 3.71064 0
M  V30 2482 H 226.641 -1.01261 3.91827 0
M  V30 2483 H 223.396 0.866977 4.65597 0
M  V30 2484 H 223.82 3.10881 6.014 0
M  V30 2485 H 228.462 0.898312 4.13147 0
M  V30 2486 H 226.18 4.55019 6.6782 0
M  V30 2487 H 229.766 2.74887 5.12765 0
M  V30 2488 H 228.646 4.55073 6.38654 0
M  V30 2489 N 226.149 -1.5696 0.141893 0
M  V30 2490 C 227.059 -2.20066 -0.812905 0
M  V30 2491 C 228.075 -1.18344 -1.27557 0
M  V30 2492 O 229.251 -1.50902 -1.33381 0
M  V30 2493 C 226.316 -2.80583 -2.03652 0
M  V30 2494 C 225.377 -3.97414 -1.62359 0
M  V30 2495 C 224.61 -4.55036 -2.78887 0
M  V30 2496 O 224.833 -4.11538 -3.94959 0
M  V30 2497 O 223.767 -5.45376 -2.54653 0
M  V30 2498 H 227.593 -3.02157 -0.305746 0
M  V30 2499 H 225.178 -1.49159 -0.0848799 0
M  V30 2500 H 227.06 -3.19067 -2.75272 0
M  V30 2501 H 225.735 -2.01508 -2.5333 0
M  V30 2502 H 224.642 -3.63656 -0.877775 0
M  V30 2503 H 225.975 -4.77994 -1.17401 0
M  V30 2504 N 227.627 0.131896 -1.57047 0
M  V30 2505 C 228.876 0.84044 -1.83356 0
M  V30 2506 C 229.189 1.81646 -0.725535 0
M  V30 2507 O 230.395 2.57025 -0.874659 0
M  V30 2508 C 228.851 1.54528 -3.25037 0
M  V30 2509 C 228.459 0.610902 -4.43815 0
M  V30 2510 C 230.203 2.23972 -3.60606 0
M  V30 2511 C 228.11 1.31823 -5.76521 0
M  V30 2512 H 227.04 0.317599 -0.683847 0
M  V30 2513 H 229.691 0.0931561 -1.83263 0
M  V30 2514 H 228.073 2.33873 -3.19561 0
M  V30 2515 H 229.247 -0.148407 -4.60561 0
M  V30 2516 H 227.562 0.0241016 -4.16393 0
M  V30 2517 H 230.159 2.77558 -4.57018 0
M  V30 2518 H 230.502 3.01173 -2.87403 0
M  V30 2519 H 231.035 1.51529 -3.6781 0
M  V30 2520 H 227.774 0.587771 -6.52859 0
M  V30 2521 H 227.294 2.04987 -5.63685 0
M  V30 2522 H 228.973 1.855 -6.19838 0
M  V30 2523 N 229.106 1.52395 0.401703 0
M  V30 2524 C 230.346 1.68498 1.15705 0
M  V30 2525 C 230.71 0.409748 1.87577 0
M  V30 2526 O 231.911 0.446983 2.65058 0
M  V30 2527 C 230.182 2.87789 2.11924 0
M  V30 2528 S 231.741 3.24415 2.95466 0
M  V30 2529 H 228.559 0.593267 0.391862 0
M  V30 2530 H 231.161 1.90408 0.443282 0
M  V30 2531 H 229.865 3.7884 1.57824 0
M  V30 2532 H 229.396 2.68175 2.87829 0
M  V30 2533 H 231.411 2.73614 4.13944 0
M  V30 2534 N 230.584 -0.659388 1.43143 0
M  V30 2535 C 231.809 -1.45221 1.48073 0
M  V30 2536 C 232.234 -1.87845 0.097995 0
M  V30 2537 O 231.592 -1.56985 -0.90694 0
M  V30 2538 C 231.64 -2.66748 2.42647 0
M  V30 2539 O 230.744 -3.65583 1.90848 0
M  V30 2540 H 230.085 -0.435669 0.501088 0
M  V30 2541 H 232.615 -0.807432 1.87994 0
M  V30 2542 H 232.625 -3.14637 2.59745 0
M  V30 2543 H 231.3 -2.35067 3.43098 0
M  V30 2544 H 229.877 -3.24693 1.83381 0
M  V30 2545 N 232.062 -1.29571 -0.897171 0
M  V30 2546 C 233.29 -1.20583 -1.68129 0
M  V30 2547 C 233.705 0.233181 -1.87354 0
M  V30 2548 O 233.062 1.15579 -1.41236 0
M  V30 2549 C 233.113 -1.91772 -3.06441 0
M  V30 2550 O 232.834 -3.30053 -2.88091 0
M  V30 2551 C 234.335 -1.89291 -4.00854 0
M  V30 2552 H 231.555 -0.417826 -0.525036 0
M  V30 2553 H 234.099 -1.70987 -1.12177 0
M  V30 2554 H 232.254 -1.45196 -3.59161 0
M  V30 2555 H 232.668 -3.65942 -3.75748 0
M  V30 2556 H 234.142 -2.43662 -4.95311 0
M  V30 2557 H 234.619 -0.869014 -4.30517 0
M  V30 2558 H 235.225 -2.35622 -3.54066 0
M  V30 2559 N 233.54 1.10788 -1.12088 0
M  V30 2560 C 234.768 1.86461 -0.896651 0
M  V30 2561 C 235.183 1.80492 0.553912 0
M  V30 2562 O 234.54 1.19102 1.38278 0
M  V30 2563 C 234.591 3.35006 -1.35843 0
M  V30 2564 O 234.312 3.40866 -2.75213 0
M  V30 2565 C 235.813 4.27565 -1.1706 0
M  V30 2566 H 233.033 0.589425 -0.320654 0
M  V30 2567 H 235.577 1.40076 -1.48993 0
M  V30 2568 H 233.732 3.7887 -0.808458 0
M  V30 2569 H 234.146 4.33411 -2.9539 0
M  V30 2570 H 235.62 5.30007 -1.54263 0
M  V30 2571 H 236.097 4.3906 -0.110814 0
M  V30 2572 H 236.703 3.89501 -1.70789 0
M  V30 2573 N 235.018 0.912232 1.28515 0
M  V30 2574 C 235.948 0.416403 2.29757 0
M  V30 2575 C 236.929 -0.515194 1.6211 0
M  V30 2576 O 238.114 -0.423253 1.89532 0
M  V30 2577 C 235.244 -0.34572 3.45575 0
M  V30 2578 C 234.198 0.496599 4.25109 0
M  V30 2579 C 233.524 -0.393771 5.33248 0
M  V30 2580 C 234.824 1.75307 4.92001 0
M  V30 2581 H 236.518 1.26249 2.7148 0
M  V30 2582 H 234.064 0.608515 1.30511 0
M  V30 2583 H 236.017 -0.703422 4.15488 0
M  V30 2584 H 234.741 -1.2257 3.02728 0
M  V30 2585 H 233.4 0.8368 3.56922 0
M  V30 2586 H 233.048 -1.27225 4.86644 0
M  V30 2587 H 232.748 0.166209 5.87365 0
M  V30 2588 H 234.272 -0.747389 6.06009 0
M  V30 2589 H 235.686 1.46437 5.54283 0
M  V30 2590 H 234.083 2.25534 5.56106 0
M  V30 2591 H 235.153 2.48176 4.16577 0
M  V30 2592 N 236.496 -1.42363 0.676048 0
M  V30 2593 C 237.426 -2.33497 0.0124832 0
M  V30 2594 C 238.407 -1.50748 -0.787981 0
M  V30 2595 O 239.592 -1.79346 -0.744884 0
M  V30 2596 C 236.722 -3.34377 -0.938582 0
M  V30 2597 C 235.676 -4.27289 -0.246622 0
M  V30 2598 C 235.002 -5.18386 -1.31071 0
M  V30 2599 C 236.302 -5.14916 0.875125 0
M  V30 2600 H 237.996 -2.89233 0.773593 0
M  V30 2601 H 235.542 -1.39073 0.37346 0
M  V30 2602 H 237.495 -3.97044 -1.41188 0
M  V30 2603 H 236.219 -2.76947 -1.73113 0
M  V30 2604 H 234.878 -3.66018 0.206456 0
M  V30 2605 H 234.526 -4.57282 -2.09528 0
M  V30 2606 H 234.226 -5.81378 -0.852839 0
M  V30 2607 H 235.75 -5.83929 -1.78492 0
M  V30 2608 H 237.164 -5.71262 0.482983 0
M  V30 2609 H 235.561 -5.86747 1.25887 0
M  V30 2610 H 236.631 -4.53242 1.72335 0
M  V30 2611 N 237.974 -0.419461 -1.51915 0
M  V30 2612 C 239.22 0.153166 -2.02221 0
M  V30 2613 C 239.553 1.43907 -1.30401 0
M  V30 2614 O 238.828 1.90055 -0.413438 0
M  V30 2615 C 239.111 0.390291 -3.57979 0
M  V30 2616 C 238.964 -0.913014 -4.40436 0
M  V30 2617 C 240.283 1.16794 -4.2432 0
M  V30 2618 H 237.402 0.0541924 -0.735005 0
M  V30 2619 H 240.044 -0.554955 -1.81715 0
M  V30 2620 H 238.194 0.993491 -3.75582 0
M  V30 2621 H 239.866 -1.54882 -4.34522 0
M  V30 2622 H 238.109 -1.52168 -4.06236 0
M  V30 2623 H 238.78 -0.701361 -5.47526 0
M  V30 2624 H 241.256 0.657161 -4.10878 0
M  V30 2625 H 240.132 1.3026 -5.3322 0
M  V30 2626 H 240.393 2.19132 -3.83971 0
M  V30 2627 N 239.452 1.56882 -0.150215 0
M  V30 2628 C 240.699 1.96228 0.500093 0
M  V30 2629 C 241.027 1.03522 1.64661 0
M  V30 2630 O 240.282 0.0650683 1.95592 0
M  V30 2631 C 240.581 3.41801 1.04437 0
M  V30 2632 C 240.247 4.50897 0.0159671 0
M  V30 2633 C 238.909 4.8046 -0.266731 0
M  V30 2634 C 241.261 5.16703 -0.683192 0
M  V30 2635 C 238.589 5.73135 -1.25434 0
M  V30 2636 C 240.941 6.10441 -1.65964 0
M  V30 2637 C 239.605 6.38382 -1.95 0
M  V30 2638 H 238.875 0.718048 0.182997 0
M  V30 2639 H 241.522 1.90019 -0.237724 0
M  V30 2640 H 239.827 3.44857 1.85959 0
M  V30 2641 H 241.524 3.69573 1.55618 0
M  V30 2642 H 238.114 4.27891 0.246485 0
M  V30 2643 H 242.298 4.93993 -0.477983 0
M  V30 2644 H 237.554 5.93074 -1.48571 0
M  V30 2645 H 241.728 6.60507 -2.20689 0
M  V30 2646 H 239.355 7.09996 -2.71679 0
M  V30 2647 N 240.93 -0.123565 1.57115 0
M  V30 2648 C 241.877 -1.15177 2.00007 0
M  V30 2649 C 242.847 -1.41403 0.871454 0
M  V30 2650 O 244.032 -1.53346 1.13533 0
M  V30 2651 C 241.172 -2.47436 2.40561 0
M  V30 2652 C 240.285 -2.28184 3.66819 0
M  V30 2653 C 239.42 -3.53641 3.96373 0
M  V30 2654 C 238.459 -3.29528 5.15827 0
M  V30 2655 N 237.596 -4.47175 5.41275 0
M  V30 2656 H 242.436 -0.779008 2.87638 0
M  V30 2657 H 239.973 -0.373166 1.42288 0
M  V30 2658 H 241.931 -3.24584 2.62109 0
M  V30 2659 H 240.561 -2.82614 1.55978 0
M  V30 2660 H 239.613 -1.41976 3.52912 0
M  V30 2661 H 240.925 -2.0634 4.5412 0
M  V30 2662 H 240.079 -4.39209 4.18545 0
M  V30 2663 H 238.818 -3.78512 3.07538 0
M  V30 2664 H 237.823 -2.42349 4.93505 0
M  V30 2665 H 239.048 -3.06031 6.06236 0
M  V30 2666 H 236.994 -4.72175 4.55397 0
M  V30 2667 H 236.911 -4.28419 6.22891 0
M  V30 2668 H 238.179 -5.3389 5.67963 0
M  V30 2669 N 242.408 -1.52605 -0.393616 0
M  V30 2670 C 243.819 -1.59417 -0.971761 0
M  V30 2671 C 244.17 -0.444173 -1.91106 0
M  V30 2672 O 243.295 0.433382 -2.12016 0
M  V30 2673 C 243.89 -2.88936 -1.76921 0
M  V30 2674 C 242.449 -2.98175 -2.29714 0
M  V30 2675 C 241.596 -2.54491 -1.10135 0
M  V30 2676 H 244.547 -1.57751 -0.173317 0
M  V30 2677 H 244.568 -2.75163 -2.62804 0
M  V30 2678 H 244.08 -3.72616 -1.08532 0
M  V30 2679 H 242.181 -2.19024 -3.01429 0
M  V30 2680 H 242.294 -4.02726 -2.59517 0
M  V30 2681 H 240.658 -2.08702 -1.45999 0
M  V30 2682 H 241.441 -3.4056 -0.432874 0
M  V30 2683 N 243.887 0.651787 -1.4349 0
M  V30 2684 C 245.164 1.40909 -1.35661 0
M  V30 2685 C 245.544 2.11099 -0.00511733 0
M  V30 2686 O 244.892 2.04892 1.0115 0
M  V30 2687 C 245.102 2.3926 -2.54078 0
M  V30 2688 C 246.45 3.03217 -2.97228 0
M  V30 2689 O 247.474 2.49588 -2.54135 0
M  V30 2690 O 246.333 4.00455 -3.71885 0
M  V30 2691 H 243.427 0.629625 -0.536191 0
M  V30 2692 H 245.973 0.678575 -1.55542 0
M  V30 2693 H 244.745 1.86352 -3.44076 0
M  V30 2694 H 244.368 3.1976 -2.36303 0
M  V30 2695 N 245.365 1.30045 0.890287 0
M  V30 2696 C 246.295 1.18541 2.01172 0
M  V30 2697 C 247.276 0.0773356 1.69924 0
M  V30 2698 O 248.461 0.25845 1.92473 0
M  V30 2699 C 245.591 0.870941 3.36202 0
M  V30 2700 C 244.545 1.93637 3.81692 0
M  V30 2701 C 243.871 1.475 5.13953 0
M  V30 2702 C 245.171 3.34666 4.00994 0
M  V30 2703 H 246.865 2.12359 2.11054 0
M  V30 2704 H 244.411 1.02238 1.01407 0
M  V30 2705 H 246.364 0.777141 4.14172 0
M  V30 2706 H 245.088 -0.102926 3.26438 0
M  V30 2707 H 243.747 2.01972 3.05946 0
M  V30 2708 H 243.395 0.489551 5.00612 0
M  V30 2709 H 243.095 2.1876 5.4536 0
M  V30 2710 H 244.619 1.39489 5.94454 0
M  V30 2711 H 246.033 3.2912 4.69417 0
M  V30 2712 H 244.43 4.03966 4.43769 0
M  V30 2713 H 245.5 3.76949 3.05021 0
M  V30 2714 N 246.843 -1.10192 1.12674 0
M  V30 2715 C 247.773 -2.18652 0.819362 0
M  V30 2716 C 248.754 -1.68698 -0.217915 0
M  V30 2717 O 249.939 -1.94041 -0.0785581 0
M  V30 2718 C 247.069 -3.46202 0.27594 0
M  V30 2719 C 246.023 -4.09444 1.24656 0
M  V30 2720 C 245.349 -5.31725 0.563258 0
M  V30 2721 C 246.649 -4.52863 2.60217 0
M  V30 2722 H 248.343 -2.44622 1.72628 0
M  V30 2723 H 245.889 -1.17571 0.831451 0
M  V30 2724 H 247.842 -4.21372 0.0486149 0
M  V30 2725 H 246.566 -3.1973 -0.666331 0
M  V30 2726 H 245.225 -3.36284 1.45974 0
M  V30 2727 H 244.873 -5.0153 -0.384235 0
M  V30 2728 H 244.573 -5.74991 1.21075 0
M  V30 2729 H 246.097 -6.09624 0.34503 0
M  V30 2730 H 247.511 -5.19294 2.42913 0
M  V30 2731 H 245.908 -5.06986 3.21068 0
M  V30 2732 H 246.978 -3.65656 3.18471 0
M  V30 2733 N 248.321 -0.919034 -1.28029 0
M  V30 2734 C 249.598 -0.473668 -1.89778 0
M  V30 2735 C 249.978 1.04783 -1.83259 0
M  V30 2736 O 249.326 1.8982 -1.27202 0
M  V30 2737 C 249.536 -1.00998 -3.34066 0
M  V30 2738 C 250.884 -1.06525 -4.1102 0
M  V30 2739 O 251.908 -0.958996 -3.43048 0
M  V30 2740 O 250.767 -1.22776 -5.3253 0
M  V30 2741 H 247.861 -0.15098 -0.813101 0
M  V30 2742 H 250.407 -1.01016 -1.36359 0
M  V30 2743 H 249.179 -2.05392 -3.33061 0
M  V30 2744 H 248.802 -0.454626 -3.94992 0
M  V30 2745 N 249.799 1.42003 -0.683588 0
M  V30 2746 C 250.747 2.326 0.000815408 0
M  V30 2747 C 251.741 1.50308 0.781278 0
M  V30 2748 O 252.947 1.66322 0.688251 0
M  V30 2749 H 249.322 0.751758 0.0190616 0
M  V30 2750 H 251.293 2.88011 -0.780528 0
M  V30 2751 C 250.042 3.34978 0.93195 0
M  V30 2752 H 249.365 3.98345 0.340817 0
M  V30 2753 H 250.805 4.00936 1.37936 0
M  V30 2754 C 249.264 2.67925 2.04249 0
M  V30 2755 O 249.794 2.51788 3.12995 0
M  V30 2756 N 248 2.2681 1.81675 0
M  V30 2757 H 247.547 2.40135 0.932363 0
M  V30 2758 H 247.505 1.8228 2.56167 0
M  V30 2759 N 251.277 0.427512 1.51691 0
M  V30 2760 C 252.227 -0.406604 2.24345 0
M  V30 2761 C 253.211 -0.998276 1.26187 0
M  V30 2762 O 254.403 -0.918045 1.51331 0
M  V30 2763 C 251.532 -1.51266 3.08177 0
M  V30 2764 C 250.618 -0.930868 4.13758 0
M  V30 2765 N 251.009 -0.0773552 5.05741 0
M  V30 2766 C 249.307 -1.19948 4.29568 0
M  V30 2767 C 250.008 0.248344 5.8117 0
M  V30 2768 N 248.984 -0.365535 5.4237 0
M  V30 2769 H 252.786 0.251581 2.92821 0
M  V30 2770 H 250.3 0.239003 1.60632 0
M  V30 2771 H 252.297 -2.123 3.58796 0
M  V30 2772 H 250.957 -2.17328 2.41244 0
M  V30 2773 H 251.968 0.288351 5.17097 0
M  V30 2774 H 248.645 -1.85832 3.73862 0
M  V30 2775 H 250.035 0.942286 6.6526 0
M  V30 2776 N 252.755 -1.56801 0.158532 0
M  V30 2777 C 254.166 -1.83189 -0.360366 0
M  V30 2778 C 254.517 -1.07778 -1.63946 0
M  V30 2779 O 253.642 -0.326718 -2.13919 0
M  V30 2780 C 254.237 -3.32297 -0.660595 0
M  V30 2781 C 252.796 -3.59227 -1.12398 0
M  V30 2782 C 251.943 -2.76877 -0.153097 0
M  V30 2783 H 254.894 -1.54008 0.383031 0
M  V30 2784 H 254.915 -3.4908 -1.51405 0
M  V30 2785 H 254.427 -3.87156 0.270527 0
M  V30 2786 H 252.528 -3.09766 -2.07064 0
M  V30 2787 H 252.641 -4.67632 -1.04197 0
M  V30 2788 H 251.005 -2.46319 -0.647983 0
M  V30 2789 H 251.788 -3.34511 0.77182 0
M  V30 2790 N 254.233 0.115231 -1.57178 0
M  V30 2791 C 255.649 0.468877 -1.52557 0
M  V30 2792 C 255.849 1.81649 -0.872125 0
M  V30 2793 O 254.905 2.48347 -0.45606 0
M  V30 2794 C 256.218 0.4499 -2.97315 0
M  V30 2795 C 257.766 0.533185 -3.08425 0
M  V30 2796 C 258.241 0.54456 -4.54751 0
M  V30 2797 N 259.732 0.605892 -4.5922 0
M  V30 2798 C 260.467 0.636203 -5.6986 0
M  V30 2799 N 259.963 0.623931 -6.89985 0
M  V30 2800 N 261.756 0.679496 -5.57978 0
M  V30 2801 H 253.907 -0.767712 -1.9804 0
M  V30 2802 H 256.17 -0.283609 -0.904583 0
M  V30 2803 H 255.876 -0.472721 -3.48509 0
M  V30 2804 H 255.75 1.27632 -3.5495 0
M  V30 2805 H 258.137 1.44623 -2.57232 0
M  V30 2806 H 258.218 -0.320995 -2.53778 0
M  V30 2807 H 257.862 -0.364452 -5.06591 0
M  V30 2808 H 257.792 1.41568 -5.07214 0
M  V30 2809 H 260.283 0.621386 -3.72756 0
M  V30 2810 H 260.596 0.649787 -7.70063 0
M  V30 2811 H 258.941 0.591296 -6.9248 0
M  V30 2812 H 262.132 0.686472 -4.63039 0
M  V30 2813 H 262.305 0.69965 -6.44212 0
M  V30 2814 N 255.711 1.52812 0.385517 0
M  V30 2815 C 256.641 1.80808 1.47752 0
M  V30 2816 C 257.622 0.660318 1.5676 0
M  V30 2817 O 258.807 0.908246 1.71652 0
M  V30 2818 C 255.937 1.98008 2.85324 0
M  V30 2819 C 254.891 3.13709 2.91154 0
M  V30 2820 C 254.217 3.16169 4.31209 0
M  V30 2821 C 255.517 4.52709 2.60483 0
M  V30 2822 H 257.211 2.72253 1.24573 0
M  V30 2823 H 254.757 1.31003 0.597839 0
M  V30 2824 H 256.71 2.16176 3.61726 0
M  V30 2825 H 255.434 1.03255 3.09848 0
M  V30 2826 H 254.093 2.95329 2.17201 0
M  V30 2827 H 253.741 2.19092 4.52778 0
M  V30 2828 H 253.441 3.93894 4.36029 0
M  V30 2829 H 254.965 3.36496 5.09512 0
M  V30 2830 H 256.379 4.71173 3.26602 0
M  V30 2831 H 254.776 5.32528 2.76648 0
M  V30 2832 H 255.846 4.59186 1.55809 0
M  V30 2833 N 257.189 -0.644168 1.43834 0
M  V30 2834 C 258.435 -1.40603 1.46146 0
M  V30 2835 C 258.768 -1.93997 0.0887717 0
M  V30 2836 O 258.043 -1.72854 -0.891724 0
M  V30 2837 C 258.326 -2.58086 2.51124 0
M  V30 2838 C 258.179 -2.10126 3.97702 0
M  V30 2839 C 259.498 -3.60291 2.52742 0
M  V30 2840 H 256.617 -0.509905 0.532134 0
M  V30 2841 H 259.259 -0.729502 1.75437 0
M  V30 2842 H 257.409 -3.15801 2.26278 0
M  V30 2843 H 259.081 -1.57342 4.33637 0
M  V30 2844 H 257.324 -1.41419 4.10101 0
M  V30 2845 H 257.995 -2.94649 4.66783 0
M  V30 2846 H 260.471 -3.12352 2.7491 0
M  V30 2847 H 259.347 -4.40032 3.28121 0
M  V30 2848 H 259.608 -4.1349 1.56455 0
M  V30 2849 N 258.668 -1.30515 -0.883378 0
M  V30 2850 C 259.896 -1.22359 -1.66841 0
M  V30 2851 C 260.311 0.213296 -1.87591 0
M  V30 2852 O 259.668 1.14075 -1.42454 0
M  V30 2853 C 259.719 -1.95011 -3.04389 0
M  V30 2854 O 259.44 -3.3309 -2.84575 0
M  V30 2855 C 260.941 -1.93532 -3.98824 0
M  V30 2856 H 258.161 -0.423371 -0.520575 0
M  V30 2857 H 260.705 -1.72167 -1.10357 0
M  V30 2858 H 258.86 -1.48997 -3.57601 0
M  V30 2859 H 259.274 -3.69907 -3.71846 0
M  V30 2860 H 260.748 -2.48902 -4.92699 0
M  V30 2861 H 261.225 -0.914627 -4.29571 0
M  V30 2862 H 261.831 -2.39364 -3.51547 0
M  V30 2863 N 260.146 1.09593 -1.13257 0
M  V30 2864 C 261.076 2.18214 -0.830946 0
M  V30 2865 C 262.057 1.68812 0.208966 0
M  V30 2866 O 263.242 1.9408 0.0682666 0
M  V30 2867 C 260.372 3.46051 -0.294296 0
M  V30 2868 C 259.326 4.08778 -1.26826 0
M  V30 2869 C 258.652 5.31419 -0.591449 0
M  V30 2870 C 259.952 4.51476 -2.62615 0
M  V30 2871 H 261.646 2.43703 -1.73923 0
M  V30 2872 H 259.192 1.17128 -0.837675 0
M  V30 2873 H 261.145 4.2134 -0.0709606 0
M  V30 2874 H 259.869 3.20079 0.649366 0
M  V30 2875 H 258.528 3.35505 -1.47756 0
M  V30 2876 H 258.176 5.01727 0.357633 0
M  V30 2877 H 257.876 5.74341 -1.24123 0
M  V30 2878 H 259.4 6.09433 -0.377355 0
M  V30 2879 H 260.814 5.17999 -2.45663 0
M  V30 2880 H 259.211 5.05277 -3.23752 0
M  V30 2881 H 260.281 3.63962 -3.20406 0
M  V30 2882 N 261.624 0.925811 1.2754 0
M  V30 2883 C 263.04 0.625767 1.46821 0
M  V30 2884 C 263.24 -0.825506 1.83814 0
M  V30 2885 O 262.296 -1.60356 1.95044 0
M  V30 2886 C 263.609 1.57402 2.56213 0
M  V30 2887 C 265.157 1.58204 2.70075 0
M  V30 2888 C 265.632 2.51721 3.82623 0
M  V30 2889 N 267.123 2.49917 3.89994 0
M  V30 2890 C 267.858 3.18968 4.76494 0
M  V30 2891 N 267.354 3.97391 5.67496 0
M  V30 2892 N 269.147 3.07996 4.70208 0
M  V30 2893 H 261.298 1.86409 1.01811 0
M  V30 2894 H 263.561 0.800213 0.508295 0
M  V30 2895 H 263.267 2.60925 2.35819 0
M  V30 2896 H 263.141 1.31428 3.53563 0
M  V30 2897 H 265.528 0.554124 2.89851 0
M  V30 2898 H 265.609 1.88226 1.73218 0
M  V30 2899 H 265.253 3.54622 3.63601 0
M  V30 2900 H 265.183 2.18996 4.78903 0
M  V30 2901 H 267.674 1.9296 3.24923 0
M  V30 2902 H 267.987 4.4707 6.30356 0
M  V30 2903 H 266.332 4.01495 5.67298 0
M  V30 2904 H 269.523 2.46223 3.9811 0
M  V30 2905 H 269.696 3.6208 5.37403 0
M  V30 2906 N 263.102 -1.41638 0.69111 0
M  V30 2907 C 264.049 -2.30789 0.0229705 0
M  V30 2908 C 265.019 -1.46863 -0.775911 0
M  V30 2909 O 266.204 -1.75661 -0.74485 0
M  V30 2910 C 263.344 -3.32868 -0.910666 0
M  V30 2911 C 262.457 -4.31875 -0.103874 0
M  V30 2912 C 261.592 -5.21024 -1.03475 0
M  V30 2913 C 260.631 -6.11702 -0.220598 0
M  V30 2914 N 259.768 -6.93349 -1.10504 0
M  V30 2915 H 264.608 -2.87366 0.788978 0
M  V30 2916 H 262.145 -1.41535 0.400794 0
M  V30 2917 H 264.103 -3.90596 -1.46597 0
M  V30 2918 H 262.733 -2.77851 -1.64312 0
M  V30 2919 H 261.785 -3.76131 0.568285 0
M  V30 2920 H 263.097 -4.96003 0.527504 0
M  V30 2921 H 262.251 -5.83565 -1.65943 0
M  V30 2922 H 260.99 -4.57112 -1.69999 0
M  V30 2923 H 259.995 -5.48215 0.417187 0
M  V30 2924 H 261.22 -6.77668 0.440784 0
M  V30 2925 H 259.166 -6.3205 -1.75638 0
M  V30 2926 H 259.083 -7.54146 -0.529125 0
M  V30 2927 H 260.351 -7.60362 -1.71667 0
M  V30 2928 N 264.58 -0.43555 -1.51462 0
M  V30 2929 C 265.527 0.376797 -2.27703 0
M  V30 2930 C 266.497 1.01838 -1.31219 0
M  V30 2931 O 267.682 1.03762 -1.60119 0
M  V30 2932 C 264.822 1.47301 -3.12084 0
M  V30 2933 C 263.935 0.849744 -4.2356 0
M  V30 2934 C 263.07 1.92086 -4.95254 0
M  V30 2935 C 262.109 1.27593 -5.98654 0
M  V30 2936 N 261.246 2.28833 -6.63762 0
M  V30 2937 H 266.086 -0.279734 -2.96684 0
M  V30 2938 H 263.623 -0.149795 -1.46335 0
M  V30 2939 H 265.581 2.11984 -3.59331 0
M  V30 2940 H 264.211 2.0992 -2.45221 0
M  V30 2941 H 263.263 0.0912529 -3.80291 0
M  V30 2942 H 264.575 0.338878 -4.97648 0
M  V30 2943 H 263.729 2.64435 -5.46039 0
M  V30 2944 H 262.468 2.46545 -4.20793 0
M  V30 2945 H 261.473 0.537893 -5.47162 0
M  V30 2946 H 262.698 0.738693 -6.7507 0
M  V30 2947 H 260.644 2.82375 -5.92115 0
M  V30 2948 H 260.561 1.82632 -7.33608 0
M  V30 2949 H 261.829 3.00671 -7.19178 0
M  V30 2950 N 266.058 1.56714 -0.166846 0
M  V30 2951 C 267.304 1.97039 0.479962 0
M  V30 2952 C 267.637 1.05264 1.63197 0
M  V30 2953 O 266.912 0.0988833 1.94248 0
M  V30 2954 C 267.195 3.46867 0.967212 0
M  V30 2955 C 267.048 4.49421 -0.18466 0
M  V30 2956 C 268.367 3.9968 1.84238 0
M  V30 2957 H 265.486 0.71641 0.172992 0
M  V30 2958 H 268.128 1.8832 -0.252079 0
M  V30 2959 H 266.278 3.54428 1.59101 0
M  V30 2960 H 267.95 4.53924 -0.821621 0
M  V30 2961 H 266.193 4.25573 -0.840837 0
M  V30 2962 H 266.864 5.51644 0.198317 0
M  V30 2963 H 269.34 3.94723 1.31655 0
M  V30 2964 H 268.216 5.04941 2.15234 0
M  V30 2965 H 268.477 3.43226 2.78654 0
M  V30 2966 N 267.536 -0.106894 1.57237 0
M  V30 2967 C 268.468 -1.15646 1.97885 0
M  V30 2968 C 269.481 -1.36981 0.879779 0
M  V30 2969 O 270.67 -1.35841 1.15799 0
M  V30 2970 C 267.77 -2.51425 2.27241 0
M  V30 2971 C 266.943 -2.50529 3.58545 0
M  V30 2972 C 266.002 -3.68145 3.75973 0
M  V30 2973 O 265.028 -3.51176 4.47956 0
M  V30 2974 N 266.23 -4.87177 3.15656 0
M  V30 2975 H 268.995 -0.81059 2.8853 0
M  V30 2976 H 266.556 -0.296024 1.59171 0
M  V30 2977 H 268.548 -3.28689 2.36105 0
M  V30 2978 H 267.118 -2.78147 1.42663 0
M  V30 2979 H 266.338 -1.58894 3.60758 0
M  V30 2980 H 267.626 -2.46997 4.44826 0
M  V30 2981 H 267.024 -5.03868 2.57165 0
M  V30 2982 H 265.581 -5.62075 3.30023 0
M  V30 2983 N 269.014 -1.53014 -0.377408 0
M  V30 2984 C 269.977 -1.77957 -1.44444 0
M  V30 2985 C 270.977 -0.649763 -1.47087 0
M  V30 2986 O 272.167 -0.917897 -1.48055 0
M  V30 2987 C 269.299 -1.89089 -2.83651 0
M  V30 2988 H 270.492 -2.73243 -1.23606 0
M  V30 2989 H 268.045 -1.43912 -0.609844 0
M  V30 2990 H 268.78 -0.958293 -3.09818 0
M  V30 2991 H 268.565 -2.71254 -2.83132 0
M  V30 2992 H 270.055 -2.1002 -3.60945 0
M  V30 2993 N 270.492 0.636531 -1.44174 0
M  V30 2994 C 271.741 1.39213 -1.45954 0
M  V30 2995 C 272.054 1.95374 -0.0939119 0
M  V30 2996 O 273.26 2.71498 0.0107767 0
M  V30 2997 C 271.716 2.52025 -2.56927 0
M  V30 2998 C 271.324 2.024 -3.99673 0
M  V30 2999 C 273.068 3.29269 -2.67922 0
M  V30 3000 C 270.975 3.12521 -5.0208 0
M  V30 3001 H 269.905 0.523132 -0.542999 0
M  V30 3002 H 272.556 0.685349 -1.70221 0
M  V30 3003 H 270.938 3.25253 -2.25891 0
M  V30 3004 H 272.112 1.36073 -4.40251 0
M  V30 3005 H 270.427 1.37987 -3.92872 0
M  V30 3006 H 273.024 4.11352 -3.41605 0
M  V30 3007 H 273.367 3.78397 -1.73555 0
M  V30 3008 H 273.9 2.63129 -2.98342 0
M  V30 3009 H 270.639 2.68343 -5.98057 0
M  V30 3010 H 270.159 3.77507 -4.66099 0
M  V30 3011 H 271.838 3.77385 -5.25538 0
M  V30 3012 N 271.97 1.30982 0.876444 0
M  V30 3013 C 273.381 1.18277 1.44456 0
M  V30 3014 C 273.732 -0.213265 1.95037 0
M  V30 3015 O 272.857 -1.11057 1.85729 0
M  V30 3016 C 273.452 2.1411 2.62569 0
M  V30 3017 C 272.011 2.05358 3.15444 0
M  V30 3018 C 271.158 2.03706 1.88146 0
M  V30 3019 H 274.109 1.43127 0.685584 0
M  V30 3020 H 274.13 1.72692 3.39054 0
M  V30 3021 H 273.642 3.15706 2.25724 0
M  V30 3022 H 271.743 1.06934 3.56926 0
M  V30 3023 H 271.856 2.94156 3.78166 0
M  V30 3024 H 270.22 1.48629 2.06837 0
M  V30 3025 H 271.003 3.07047 1.53547 0
M  V30 3026 N 273.449 -1.08991 1.13837 0
M  V30 3027 C 274.412 -2.13925 0.822715 0
M  V30 3028 C 275.412 -1.599 -0.1699 0
M  V30 3029 O 276.602 -1.74104 0.0577251 0
M  V30 3030 C 273.734 -3.40155 0.225318 0
M  V30 3031 H 274.927 -2.43358 1.75262 0
M  V30 3032 H 272.48 -1.24603 0.943594 0
M  V30 3033 H 273.215 -3.16352 -0.713594 0
M  V30 3034 H 273 -3.80661 0.940193 0
M  V30 3035 H 274.49 -4.17594 0.0214784 0
M  V30 3036 N 274.927 -0.932562 -1.27047 0
M  V30 3037 C 276.173 -0.576412 -1.94436 0
M  V30 3038 C 276.506 0.880891 -1.73072 0
M  V30 3039 O 275.781 1.62905 -1.06264 0
M  V30 3040 C 276.064 -0.909031 -3.48437 0
M  V30 3041 C 275.917 -2.42044 -3.79123 0
M  V30 3042 C 277.236 -0.418341 -4.38107 0
M  V30 3043 H 274.355 -0.210888 -0.706184 0
M  V30 3044 H 276.997 -1.16522 -1.50075 0
M  V30 3045 H 275.147 -0.407947 -3.86352 0
M  V30 3046 H 276.819 -2.99359 -3.50973 0
M  V30 3047 H 275.062 -2.86758 -3.25503 0
M  V30 3048 H 275.733 -2.6037 -4.86736 0
M  V30 3049 H 278.209 -0.847856 -4.0737 0
M  V30 3050 H 277.085 -0.679981 -5.44672 0
M  V30 3051 H 277.346 0.681642 -4.36814 0
M  V30 3052 N 276.405 1.4127 -0.698611 0
M  V30 3053 C 277.368 2.29158 -0.044132 0
M  V30 3054 C 278.368 1.44529 0.704841 0
M  V30 3055 O 279.558 1.65643 0.539276 0
M  V30 3056 C 276.69 3.27459 0.947809 0
M  V30 3057 H 277.883 2.88529 -0.817994 0
M  V30 3058 H 275.436 1.49307 -0.46228 0
M  V30 3059 H 276.171 2.73073 1.74933 0
M  V30 3060 H 275.956 3.8991 0.41385 0
M  V30 3061 H 277.446 3.93311 1.40344 0
M  V30 3062 N 277.883 0.443576 1.51229 0
M  V30 3063 C 278.831 -0.37904 2.29491 0
M  V30 3064 C 279.825 -1.0153 1.35603 0
M  V30 3065 O 281.031 -0.94955 1.52917 0
M  V30 3066 H 277.406 -0.141053 0.738653 0
M  V30 3067 H 279.377 0.301799 2.9687 0
M  V30 3068 C 278.126 -1.46426 3.15364 0
M  V30 3069 H 277.449 -0.984037 3.87501 0
M  V30 3070 H 278.889 -2.01297 3.7317 0
M  V30 3071 C 277.348 -2.45099 2.31146 0
M  V30 3072 O 277.878 -3.49773 1.9754 0
M  V30 3073 N 276.084 -2.16139 1.94249 0
M  V30 3074 H 275.631 -1.31044 2.21777 0
M  V30 3075 H 275.589 -2.82398 1.38198 0
M  V30 3076 N 279.361 -1.56624 0.175154 0
M  V30 3077 C 280.607 -1.98061 -0.462976 0
M  V30 3078 C 280.962 -1.05949 -1.60601 0
M  V30 3079 O 280.255 -0.0999027 -1.91339 0
M  V30 3080 C 280.449 -3.43419 -0.989864 0
M  V30 3081 C 280.278 -4.49587 0.100583 0
M  V30 3082 C 279.048 -5.02281 0.551539 0
M  V30 3083 C 281.246 -5.06322 0.902369 0
M  V30 3084 N 279.228 -5.92088 1.62189 0
M  V30 3085 C 280.599 -5.92607 1.82256 0
M  V30 3086 C 282.654 -4.88811 0.947019 0
M  V30 3087 C 281.357 -6.63254 2.78364 0
M  V30 3088 C 283.383 -5.60182 1.89606 0
M  V30 3089 C 282.745 -6.46197 2.80372 0
M  V30 3090 H 278.844 -0.769833 -0.137409 0
M  V30 3091 H 281.428 -1.9273 0.276256 0
M  V30 3092 H 279.599 -3.49288 -1.6986 0
M  V30 3093 H 281.331 -3.7186 -1.59694 0
M  V30 3094 H 278.086 -4.73367 0.148537 0
M  V30 3095 H 278.51 -6.41696 2.15767 0
M  V30 3096 H 283.152 -4.22004 0.259304 0
M  V30 3097 H 280.87 -7.29271 3.48122 0
M  V30 3098 H 284.456 -5.48617 1.93676 0
M  V30 3099 H 283.336 -7.00453 3.52612 0
M  V30 3100 N 280.839 0.0985539 -1.57292 0
M  V30 3101 C 282.088 0.801358 -1.85098 0
M  V30 3102 C 282.401 1.80066 -0.763902 0
M  V30 3103 O 283.607 2.55112 -0.928981 0
M  V30 3104 C 282.063 1.47599 -3.28242 0
M  V30 3105 C 281.671 0.516624 -4.45011 0
M  V30 3106 C 283.415 2.16272 -3.65276 0
M  V30 3107 C 281.322 1.19564 -5.79188 0
M  V30 3108 H 280.252 0.303022 -0.69043 0
M  V30 3109 H 282.903 0.0542623 -1.8342 0
M  V30 3110 H 281.285 2.27042 -3.2445 0
M  V30 3111 H 282.459 -0.246065 -4.60143 0
M  V30 3112 H 280.774 -0.064227 -4.1635 0
M  V30 3113 H 283.371 2.67802 -4.62803 0
M  V30 3114 H 283.714 2.95009 -2.93727 0
M  V30 3115 H 284.247 1.43693 -3.70941 0
M  V30 3116 H 280.986 0.449157 -6.53959 0
M  V30 3117 H 280.506 1.92984 -5.67906 0
M  V30 3118 H 282.185 1.7231 -6.23633 0
M  V30 3119 N 282.317 1.53212 0.369288 0
M  V30 3120 C 283.264 1.79388 1.45219 0
M  V30 3121 C 284.234 0.638059 1.53356 0
M  V30 3122 O 285.419 0.879852 1.69302 0
M  V30 3123 C 282.559 1.98623 2.82211 0
M  V30 3124 C 281.672 3.26337 2.8307 0
M  V30 3125 C 280.807 3.35779 4.11614 0
M  V30 3126 C 279.846 4.5754 4.06601 0
M  V30 3127 N 278.983 4.64155 5.26787 0
M  V30 3128 H 283.823 2.71794 1.22198 0
M  V30 3129 H 281.36 1.34642 0.592444 0
M  V30 3130 H 283.318 2.07761 3.61789 0
M  V30 3131 H 281.948 1.09558 3.03639 0
M  V30 3132 H 281 3.26171 1.95747 0
M  V30 3133 H 282.312 4.15988 2.75237 0
M  V30 3134 H 281.466 3.44208 4.99606 0
M  V30 3135 H 280.205 2.44137 4.22195 0
M  V30 3136 H 279.21 4.49215 3.16996 0
M  V30 3137 H 280.435 5.50519 3.97625 0
M  V30 3138 H 278.381 3.75413 5.3796 0
M  V30 3139 H 278.298 5.47706 5.21109 0
M  V30 3140 H 279.566 4.76863 6.16621 0
M  V30 3141 N 283.795 -0.628877 1.44509 0
M  V30 3142 C 285.211 -0.947305 1.28446 0
M  V30 3143 C 285.411 -2.00275 0.221872 0
M  V30 3144 O 284.467 -2.49447 -0.391471 0
M  V30 3145 C 285.78 -1.40843 2.65676 0
M  V30 3146 C 287.328 -1.52379 2.73404 0
M  V30 3147 C 287.803 -2.01875 4.11109 0
M  V30 3148 N 289.294 -2.09142 4.13296 0
M  V30 3149 C 290.029 -2.48615 5.16699 0
M  V30 3150 N 289.525 -2.87209 6.30462 0
M  V30 3151 N 291.318 -2.48768 5.04054 0
M  V30 3152 H 283.469 0.0690977 2.12288 0
M  V30 3153 H 285.732 -0.0317164 0.947469 0
M  V30 3154 H 285.438 -0.707206 3.44516 0
M  V30 3155 H 285.312 -2.37902 2.92716 0
M  V30 3156 H 287.699 -2.21598 1.9488 0
M  V30 3157 H 287.78 -0.536898 2.50102 0
M  V30 3158 H 287.424 -1.3325 4.90109 0
M  V30 3159 H 287.354 -3.0144 4.31789 0
M  V30 3160 H 289.845 -1.81991 3.31191 0
M  V30 3161 H 290.158 -3.16149 7.05174 0
M  V30 3162 H 288.503 -2.84955 6.33897 0
M  V30 3163 H 291.694 -2.18009 4.14234 0
M  V30 3164 H 291.867 -2.79207 5.84763 0
M  V30 3165 N 285.273 -1.31445 -0.869486 0
M  V30 3166 C 286.689 -1.10113 -1.15531 0
M  V30 3167 C 286.889 0.128087 -2.01092 0
M  V30 3168 O 285.945 0.817276 -2.38908 0
M  V30 3169 C 287.258 -2.37291 -1.84698 0
M  V30 3170 C 288.806 -2.42906 -1.97397 0
M  V30 3171 C 289.281 -3.69967 -2.69979 0
M  V30 3172 N 290.772 -3.70864 -2.77514 0
M  V30 3173 C 291.507 -4.65875 -3.34287 0
M  V30 3174 N 291.003 -5.71242 -3.91988 0
M  V30 3175 N 292.796 -4.53394 -3.3225 0
M  V30 3176 H 284.947 -2.1028 -0.299347 0
M  V30 3177 H 287.21 -0.927683 -0.195214 0
M  V30 3178 H 286.916 -3.27078 -1.29278 0
M  V30 3179 H 286.79 -2.47125 -2.84972 0
M  V30 3180 H 289.177 -1.53588 -2.51982 0
M  V30 3181 H 289.258 -2.37036 -0.961643 0
M  V30 3182 H 288.902 -4.59652 -2.16062 0
M  V30 3183 H 288.832 -3.73103 -3.7162 0
M  V30 3184 H 291.323 -2.94697 -2.36563 0
M  V30 3185 H 291.636 -6.39817 -4.33421 0
M  V30 3186 H 289.981 -5.75015 -3.90362 0
M  V30 3187 H 293.172 -3.70252 -2.8641 0
M  V30 3188 H 293.345 -5.27617 -3.76197 0
M  V30 3189 N 286.751 1.08385 -1.14413 0
M  V30 3190 C 288.162 1.62258 -0.923535 0
M  V30 3191 C 288.513 1.88691 0.537595 0
M  V30 3192 O 287.638 1.64454 1.40655 0
M  V30 3193 C 288.233 2.94781 -1.67002 0
M  V30 3194 C 286.792 3.45437 -1.495 0
M  V30 3195 C 285.939 2.19668 -1.69238 0
M  V30 3196 H 288.89 0.916086 -1.2959 0
M  V30 3197 H 288.911 3.63229 -1.13334 0
M  V30 3198 H 288.423 2.7551 -2.73342 0
M  V30 3199 H 286.524 3.6981 -0.455097 0
M  V30 3200 H 286.637 4.22173 -2.2651 0
M  V30 3201 H 285.001 2.28849 -1.11804 0
M  V30 3202 H 285.784 2.02905 -2.7692 0
M  V30 3203 N 288.23 0.939286 1.26551 0
M  V30 3204 C 289.162 0.404704 2.25599 0
M  V30 3205 C 290.175 -0.470983 1.55838 0
M  V30 3206 O 291.364 -0.281734 1.76263 0
M  V30 3207 C 288.464 -0.43764 3.36062 0
M  V30 3208 C 287.637 0.421449 4.35365 0
M  V30 3209 C 286.696 -0.36015 5.24966 0
M  V30 3210 O 285.722 0.236167 5.6871 0
M  V30 3211 N 286.924 -1.65715 5.56344 0
M  V30 3212 H 289.689 1.25618 2.72103 0
M  V30 3213 H 287.25 0.807963 1.40298 0
M  V30 3214 H 289.242 -0.967866 3.92956 0
M  V30 3215 H 287.812 -1.18991 2.89067 0
M  V30 3216 H 287.032 1.1329 3.7757 0
M  V30 3217 H 288.32 1.00835 4.98708 0
M  V30 3218 H 287.718 -2.16378 5.22682 0
M  V30 3219 H 286.275 -2.13366 6.15888 0
M  V30 3220 N 289.708 -1.40897 0.706093 0
M  V30 3221 C 290.936 -2.05373 0.250887 0
M  V30 3222 C 291.351 -1.53172 -1.10381 0
M  V30 3223 O 290.708 -0.684305 -1.69185 0
M  V30 3224 C 290.759 -3.6088 0.211571 0
M  V30 3225 O 290.48 -4.11153 1.51276 0
M  V30 3226 C 291.981 -4.42517 -0.263346 0
M  V30 3227 H 289.201 -0.66115 0.114552 0
M  V30 3228 H 291.745 -1.80479 0.961635 0
M  V30 3229 H 289.9 -3.84777 -0.450073 0
M  V30 3230 H 290.314 -5.05279 1.40689 0
M  V30 3231 H 291.788 -5.51479 -0.239718 0
M  V30 3232 H 292.265 -4.19396 -1.30397 0
M  V30 3233 H 292.871 -4.23708 0.367677 0
M  V30 3234 N 291.186 -0.45159 -1.50991 0
M  V30 3235 C 292.133 0.352625 -2.2809 0
M  V30 3236 C 293.103 1.0044 -1.32291 0
M  V30 3237 O 294.288 1.02058 -1.6121 0
M  V30 3238 C 291.428 1.43983 -3.13629 0
M  V30 3239 C 290.541 0.804772 -4.24438 0
M  V30 3240 C 289.676 1.86822 -4.97263 0
M  V30 3241 C 288.715 1.21236 -5.99973 0
M  V30 3242 N 287.852 2.2178 -6.66152 0
M  V30 3243 H 292.692 -0.311186 -2.96371 0
M  V30 3244 H 290.229 -0.165308 -1.46168 0
M  V30 3245 H 292.187 2.08161 -3.61559 0
M  V30 3246 H 290.817 2.07307 -2.47434 0
M  V30 3247 H 289.869 0.0509129 -3.80366 0
M  V30 3248 H 291.181 0.286076 -4.97979 0
M  V30 3249 H 290.335 2.58628 -5.48813 0
M  V30 3250 H 289.074 2.42068 -4.23385 0
M  V30 3251 H 288.079 0.479828 -5.47702 0
M  V30 3252 H 289.304 0.667051 -6.75816 0
M  V30 3253 H 287.25 2.76079 -5.95077 0
M  V30 3254 H 287.167 1.74841 -7.35504 0
M  V30 3255 H 288.435 2.93026 -7.22327 0
M  V30 3256 N 292.664 1.56529 -0.183458 0
M  V30 3257 C 293.594 2.21549 0.737456 0
M  V30 3258 C 294.575 1.17489 1.23005 0
M  V30 3259 O 295.76 1.45959 1.281 0
M  V30 3260 C 292.89 2.86575 1.96194 0
M  V30 3261 C 291.844 3.96778 1.60473 0
M  V30 3262 C 291.17 4.48911 2.90487 0
M  V30 3263 C 292.47 5.15767 0.823497 0
M  V30 3264 H 294.164 2.98761 0.195453 0
M  V30 3265 H 291.71 1.43702 0.0925686 0
M  V30 3266 H 293.663 3.30739 2.61131 0
M  V30 3267 H 292.387 2.06749 2.52828 0
M  V30 3268 H 291.046 3.53286 0.978997 0
M  V30 3269 H 290.694 3.65862 3.45186 0
M  V30 3270 H 290.394 5.23265 2.67335 0
M  V30 3271 H 291.918 4.95771 3.56432 0
M  V30 3272 H 293.332 5.56549 1.37571 0
M  V30 3273 H 291.729 5.96114 0.690551 0
M  V30 3274 H 292.799 4.84574 -0.177782 0
M  V30 3275 O 294.181 0.04597 1.61435 0
M  V30 3276 H 294.872 -0.564149 1.85303 0
M  V30 END ATOM
M  V30 BEGIN BOND
M  V30 END BOND
M  V30 END CTAB
M  END
$$$$
