drugbank_target|P10109 Adrenodoxin, mitochondrial (DB00648)
 OpenBabel12092119273D

  0  0  0     0  0            999 V3000
M  V30 BEGIN CTAB
M  V30 COUNTS 2690 2704 0 0 0
M  V30 BEGIN ATOM
M  V30 1 H -0.908 1.98254 -0.117106 0
M  V30 2 N 0 1.576 0 0
M  V30 3 C 0.933 2.03868 1.02534 0
M  V30 4 C 1.911 0.928543 1.3348 0
M  V30 5 O 3.095 1.19667 1.45644 0
M  V30 6 C 0.222 2.43627 2.35294 0
M  V30 7 C -0.732 3.65373 2.2001 0
M  V30 8 S 0.101 5.13292 1.52614 0
M  V30 9 C 1.257 5.56322 2.86805 0
M  V30 10 H 1.49 2.90518 0.631377 0
M  V30 11 H -0.977 1.52953 0.210867 0
M  V30 12 H 0.981 2.67203 3.11629 0
M  V30 13 H -0.358 1.57376 2.7183 0
M  V30 14 H -1.165 3.90944 3.18086 0
M  V30 15 H -1.563 3.418 1.51819 0
M  V30 16 H 0.729 5.58782 3.83104 0
M  V30 17 H 1.672 6.56266 2.65933 0
M  V30 18 H 2.08 4.83886 2.90714 0
M  V30 19 N 1.4781 -0.272755 1.55222 0
M  V30 20 C 2.4411 -1.32041 1.87344 0
M  V30 21 C 3.4411 -1.42342 0.74803 0
M  V30 22 O 4.6311 -1.41488 1.0162 0
M  V30 23 C 1.7631 -2.70173 2.07893 0
M  V30 24 H 2.9561 -1.04789 2.80997 0
M  V30 25 H 0.5091 -0.51083 1.47717 0
M  V30 26 H 1.2441 -3.02605 1.16622 0
M  V30 27 H 1.0291 -2.64082 2.89833 0
M  V30 28 H 2.5191 -3.45869 2.34017 0
M  V30 29 N 2.9562 -1.48159 -0.537278 0
M  V30 30 C 3.9192 -1.61665 -1.62472 0
M  V30 31 C 4.9192 -0.490395 -1.5314 0
M  V30 32 O 6.1092 -0.755998 -1.5694 0
M  V30 33 C 3.2412 -1.57997 -3.02076 0
M  V30 34 H 4.4342 -2.58621 -1.51839 0
M  V30 35 H 1.9872 -1.36647 -0.758771 0
M  V30 36 H 2.7222 -0.624913 -3.18222 0
M  V30 37 H 2.5072 -2.39755 -3.10258 0
M  V30 38 H 3.9972 -1.70627 -3.81151 0
M  V30 39 N 4.4343 0.785586 -1.36625 0
M  V30 40 C 5.3973 1.87999 -1.31107 0
M  V30 41 C 6.3973 1.59316 -0.217959 0
M  V30 42 O 7.5873 1.67656 -0.472977 0
M  V30 43 C 4.7193 3.24861 -1.03334 0
M  V30 44 H 5.9123 1.94307 -2.2844 0
M  V30 45 H 3.4653 0.983813 -1.21453 0
M  V30 46 H 4.2003 3.24235 -0.0647432 0
M  V30 47 H 3.9853 3.4707 -1.82441 0
M  V30 48 H 5.4753 4.04929 -1.02088 0
M  V30 49 N 5.9124 1.20967 1.01018 0
M  V30 50 C 7.1604 1.02172 1.74371 0
M  V30 51 C 7.4814 -0.446414 1.89821 0
M  V30 52 O 6.7514 -1.32234 1.44537 0
M  V30 53 H 5.3314 0.375066 0.646014 0
M  V30 54 H 7.9934 1.52187 1.21758 0
M  V30 55 H 7.0894 1.48538 2.74487 0
M  V30 56 N 7.3905 -1.2043 1.01659 0
M  V30 57 C 8.6385 -1.89423 0.704522 0
M  V30 58 C 8.9595 -1.79231 -0.768197 0
M  V30 59 O 8.2295 -1.1947 -1.55254 0
M  V30 60 H 6.8095 -0.701178 0.257602 0
M  V30 61 H 9.4715 -1.4626 1.28818 0
M  V30 62 H 8.5675 -2.96052 0.987916 0
M  V30 63 N 8.8686 -0.792821 -1.36206 0
M  V30 64 C 9.8316 -0.199459 -2.2833 0
M  V30 65 C 10.8316 0.605189 -1.48977 0
M  V30 66 O 12.0216 0.425685 -1.68919 0
M  V30 67 C 9.1536 0.723523 -3.33134 0
M  V30 68 H 10.3466 -1.01181 -2.82316 0
M  V30 69 H 7.8996 -0.562485 -1.45828 0
M  V30 70 H 8.6346 1.56008 -2.84309 0
M  V30 71 H 8.4196 0.148436 -3.91819 0
M  V30 72 H 9.9096 1.13344 -4.01924 0
M  V30 73 N 10.3467 1.47872 -0.545128 0
M  V30 74 C 11.7627 1.5829 -0.204032 0
M  V30 75 C 11.9627 1.54529 1.29317 0
M  V30 76 O 11.0187 1.44232 2.07252 0
M  V30 77 C 12.3317 2.89304 -0.819987 0
M  V30 78 C 13.8797 3.02864 -0.790105 0
M  V30 79 C 14.3547 4.3656 -1.38491 0
M  V30 80 N 15.8457 4.43165 -1.34755 0
M  V30 81 C 16.5807 5.45153 -1.77753 0
M  V30 82 N 16.0767 6.54016 -2.2855 0
M  V30 83 N 17.8697 5.36125 -1.68897 0
M  V30 84 H 10.0207 1.4856 -1.51802 0
M  V30 85 H 12.2837 0.706305 -0.632327 0
M  V30 86 H 11.9897 2.97757 -1.87173 0
M  V30 87 H 11.8637 3.75957 -0.305915 0
M  V30 88 H 14.2507 2.94014 0.252913 0
M  V30 89 H 14.3317 2.17782 -1.34181 0
M  V30 90 H 13.9757 4.46164 -2.42693 0
M  V30 91 H 13.9057 5.20353 -0.808754 0
M  V30 92 H 16.3967 3.65083 -0.975855 0
M  V30 93 H 16.7097 7.27994 -2.59314 0
M  V30 94 H 15.0547 6.54938 -2.32553 0
M  V30 95 H 18.2457 4.49975 -1.28998 0
M  V30 96 H 18.4187 6.15472 -2.02726 0
M  V30 97 N 11.8248 0.280983 1.55075 0
M  V30 98 C 12.7548 -0.597469 2.25727 0
M  V30 99 C 13.7358 -1.15417 1.24952 0
M  V30 100 O 14.9208 -1.18722 1.53684 0
M  V30 101 C 12.0508 -1.7789 2.98283 0
M  V30 102 C 11.0048 -1.35347 4.06036 0
M  V30 103 C 10.3308 -2.61846 4.66198 0
M  V30 104 C 11.6308 -0.499354 5.19907 0
M  V30 105 H 13.3248 -0.00824265 2.99399 0
M  V30 106 H 10.8708 -0.0025244 1.44 0
M  V30 107 H 12.8238 -2.39937 3.46422 0
M  V30 108 H 11.5478 -2.39405 2.22155 0
M  V30 109 H 10.2068 -0.756156 3.58717 0
M  V30 110 H 9.8548 -3.21632 3.86732 0
M  V30 111 H 9.5548 -2.3409 5.38958 0
M  V30 112 H 11.0788 -3.24732 5.1709 0
M  V30 113 H 12.4928 -1.02498 5.64063 0
M  V30 114 H 10.8898 -0.316424 5.99265 0
M  V30 115 H 11.9598 0.480459 4.82514 0
M  V30 116 N 13.3029 -1.57598 0.00835791 0
M  V30 117 C 14.2329 -2.1198 -0.979113 0
M  V30 118 C 15.2139 -1.03091 -1.35301 0
M  V30 119 O 16.3989 -1.30818 -1.43528 0
M  V30 120 C 13.5289 -2.62995 -2.26828 0
M  V30 121 C 12.4829 -3.76485 -2.03576 0
M  V30 122 C 11.8089 -4.13846 -3.38579 0
M  V30 123 C 13.1089 -5.0342 -1.39161 0
M  V30 124 H 14.8029 -2.94738 -0.526281 0
M  V30 125 H 12.3489 -1.41783 -0.251704 0
M  V30 126 H 14.3019 -2.99669 -2.96271 0
M  V30 127 H 13.0259 -1.7737 -2.7424 0
M  V30 128 H 11.6849 -3.40217 -1.36557 0
M  V30 129 H 11.3329 -3.25232 -3.83709 0
M  V30 130 H 11.0329 -4.90312 -3.23834 0
M  V30 131 H 12.5569 -4.53086 -4.09323 0
M  V30 132 H 13.9709 -5.37812 -1.98573 0
M  V30 133 H 12.3679 -5.84746 -1.34878 0
M  V30 134 H 13.4379 -4.83548 -0.361868 0
M  V30 135 N 14.781 0.264519 -1.55364 0
M  V30 136 C 16.197 0.61215 -1.47394 0
M  V30 137 C 16.397 1.89134 -0.695018 0
M  V30 138 O 15.453 2.51563 -0.217275 0
M  V30 139 C 16.766 0.731235 -2.91674 0
M  V30 140 C 18.314 0.82473 -3.01939 0
M  V30 141 C 18.789 0.975522 -4.4749 0
M  V30 142 N 20.28 1.04083 -4.51354 0
M  V30 143 C 21.015 1.17646 -5.61201 0
M  V30 144 N 20.511 1.27874 -6.80896 0
M  V30 145 N 22.304 1.20823 -5.48961 0
M  V30 146 H 14.455 -0.575456 -2.04456 0
M  V30 147 H 16.718 -0.196099 -0.927496 0
M  V30 148 H 16.424 -0.138392 -3.51428 0
M  V30 149 H 16.298 1.60883 -3.41169 0
M  V30 150 H 18.685 1.68482 -2.42276 0
M  V30 151 H 18.766 -0.0776479 -2.55682 0
M  V30 152 H 18.41 0.120058 -5.07758 0
M  V30 153 H 18.34 1.89268 -4.91412 0
M  V30 154 H 20.831 0.973846 -3.65136 0
M  V30 155 H 21.144 1.38081 -7.60364 0
M  V30 156 H 19.489 1.24863 -6.83692 0
M  V30 157 H 22.68 1.12469 -4.54388 0
M  V30 158 H 22.853 1.31049 -6.3461 0
M  V30 159 N 16.2591 1.48442 0.529413 0
M  V30 160 C 17.2221 1.62524 1.61612 0
M  V30 161 C 18.2221 0.498509 1.52877 0
M  V30 162 O 19.4121 0.76431 1.56537 0
M  V30 163 C 16.5441 1.59597 3.01233 0
M  V30 164 H 17.7371 2.59423 1.50465 0
M  V30 165 H 15.2901 1.37047 0.751514 0
M  V30 166 H 16.0251 0.641781 3.17886 0
M  V30 167 H 15.8101 2.41397 3.08982 0
M  V30 168 H 17.3001 1.72646 3.80241 0
M  V30 169 N 17.7372 -0.778329 1.37039 0
M  V30 170 C 18.7002 -1.87301 1.32102 0
M  V30 171 C 19.7002 -1.59198 0.226405 0
M  V30 172 O 20.8902 -1.67403 0.481861 0
M  V30 173 C 18.0222 -3.24309 1.05055 0
M  V30 174 H 19.2152 -1.93093 2.29467 0
M  V30 175 H 16.7682 -0.977358 1.21973 0
M  V30 176 H 17.5032 -3.24196 0.0819373 0
M  V30 177 H 17.2882 -3.46098 1.84279 0
M  V30 178 H 18.7782 -4.04382 1.04234 0
M  V30 179 N 19.2153 -1.21501 -1.00376 0
M  V30 180 C 20.4403 -1.05977 -1.78279 0
M  V30 181 C 20.8653 0.385994 -1.84097 0
M  V30 182 O 20.2233 1.27849 -1.28547 0
M  V30 183 C 20.2713 -1.66302 -3.19963 0
M  V30 184 O 19.3753 -0.909333 -4.0225 0
M  V30 185 H 18.7163 -0.372906 -0.549397 0
M  V30 186 H 21.2463 -1.6107 -1.26165 0
M  V30 187 H 21.2563 -1.70574 -3.70632 0
M  V30 188 H 19.9313 -2.71515 -3.15043 0
M  V30 189 H 18.5083 -0.941795 -3.60811 0
M  V30 190 N 20.6934 1.19889 -1.02296 0
M  V30 191 C 21.6564 2.21116 -0.603351 0
M  V30 192 C 22.6564 1.5738 0.329884 0
M  V30 193 O 23.8464 1.73802 0.117702 0
M  V30 194 C 20.9784 3.40696 0.117992 0
M  V30 195 H 22.1714 2.59754 -1.49893 0
M  V30 196 H 19.7244 1.33463 -0.813468 0
M  V30 197 H 20.4594 3.07569 1.0282 0
M  V30 198 H 20.2444 3.88188 -0.552511 0
M  V30 199 H 21.7344 4.15692 0.398696 0
M  V30 200 N 22.1715 0.800033 1.35784 0
M  V30 201 C 23.4175 0.377901 1.99248 0
M  V30 202 C 23.7505 -1.05052 1.63333 0
M  V30 203 O 23.0255 -1.72768 0.893385 0
M  V30 204 C 23.3085 0.553922 3.55814 0
M  V30 205 C 23.1615 2.0268 4.01548 0
M  V30 206 C 24.4805 -0.0244802 4.40093 0
M  V30 207 H 21.5995 0.138782 0.723815 0
M  V30 208 H 24.2415 1.00835 1.61035 0
M  V30 209 H 22.3915 0.0172398 3.88496 0
M  V30 210 H 24.0635 2.62536 3.79305 0
M  V30 211 H 22.3065 2.5256 3.52698 0
M  V30 212 H 22.9775 2.10087 5.10458 0
M  V30 213 H 25.4535 0.433775 4.13833 0
M  V30 214 H 24.3295 0.128637 5.48749 0
M  V30 215 H 24.5905 -1.11758 4.27741 0
M  V30 216 N 23.6496 -1.47581 0.552962 0
M  V30 217 C 24.5796 -2.32762 -0.185451 0
M  V30 218 C 25.5606 -1.43527 -0.912905 0
M  V30 219 O 26.7456 -1.72388 -0.894201 0
M  V30 220 C 23.8756 -3.25219 -1.21859 0
M  V30 221 C 22.8296 -4.23661 -0.607864 0
M  V30 222 C 22.1556 -5.05413 -1.74533 0
M  V30 223 C 23.4556 -5.20481 0.435582 0
M  V30 224 H 25.1496 -2.94749 0.525684 0
M  V30 225 H 22.6956 -1.41738 0.254251 0
M  V30 226 H 24.6486 -3.8365 -1.7433 0
M  V30 227 H 23.3726 -2.61279 -1.95961 0
M  V30 228 H 22.0316 -3.66451 -0.104489 0
M  V30 229 H 21.6796 -4.3788 -2.47529 0
M  V30 230 H 21.3796 -5.72059 -1.34249 0
M  V30 231 H 22.9036 -5.66701 -2.27338 0
M  V30 232 H 24.3176 -5.733 -0.00290157 0
M  V30 233 H 22.7146 -5.95305 0.757067 0
M  V30 234 H 23.7846 -4.66217 1.33303 0
M  V30 235 N 25.1277 -0.289203 -1.54924 0
M  V30 236 C 26.3757 0.322879 -1.99504 0
M  V30 237 C 26.6967 1.55313 -1.1791 0
M  V30 238 O 25.9667 1.94001 -0.272097 0
M  V30 239 H 24.5467 0.122291 -0.736922 0
M  V30 240 H 27.2087 -0.397802 -1.90797 0
M  V30 241 H 26.3047 0.603061 -3.06218 0
M  V30 242 N 26.6058 1.57591 -0.0167156 0
M  V30 243 C 27.8538 1.90906 0.663285 0
M  V30 244 C 28.1748 0.892509 1.73376 0
M  V30 245 O 27.4448 -0.0677623 1.95783 0
M  V30 246 H 26.0248 0.704637 0.247983 0
M  V30 247 H 28.6868 1.94803 -0.0615909 0
M  V30 248 H 27.7828 2.9116 1.12393 0
M  V30 249 N 28.0839 -0.256276 1.55502 0
M  V30 250 C 29.4949 -0.826068 1.67431 0
M  V30 251 C 29.8459 -1.86396 0.612446 0
M  V30 252 O 28.9709 -2.15031 -0.243025 0
M  V30 253 C 29.5659 -1.50512 3.03532 0
M  V30 254 C 28.1249 -2.02273 3.17431 0
M  V30 255 C 27.2719 -0.870548 2.63281 0
M  V30 256 H 30.2229 -0.0322728 1.58667 0
M  V30 257 H 30.2439 -2.37279 2.97454 0
M  V30 258 H 29.7559 -0.749484 3.80794 0
M  V30 259 H 27.8569 -2.80746 2.44974 0
M  V30 260 H 27.9699 -2.22655 4.24219 0
M  V30 261 H 26.3339 -1.26851 2.20864 0
M  V30 262 H 27.1169 -0.128149 3.43061 0
M  V30 263 N 29.562 -1.4872 -0.521534 0
M  V30 264 C 30.525 -1.63379 -1.60748 0
M  V30 265 C 31.525 -0.50661 -1.52611 0
M  V30 266 O 32.715 -0.772601 -1.5613 0
M  V30 267 C 29.847 -1.61192 -3.00383 0
M  V30 268 H 31.04 -2.60217 -1.49087 0
M  V30 269 H 28.593 -1.37444 -0.744235 0
M  V30 270 H 29.328 -0.65863 -3.17541 0
M  V30 271 H 29.113 -2.43032 -3.07698 0
M  V30 272 H 30.603 -1.7466 -3.7932 0
M  V30 273 N 31.0401 0.771051 -1.3745 0
M  V30 274 C 32.2881 1.52661 -1.32435 0
M  V30 275 C 32.6091 1.9479 0.0905024 0
M  V30 276 O 31.8791 1.66348 1.03466 0
M  V30 277 H 30.4591 0.566218 -0.487244 0
M  V30 278 H 33.1211 0.917636 -1.71946 0
M  V30 279 H 32.2171 2.42568 -1.96385 0
M  V30 280 N 32.5182 1.22032 0.997298 0
M  V30 281 C 33.9342 0.979326 1.26021 0
M  V30 282 C 34.1342 -0.32972 1.98784 0
M  V30 283 O 33.1902 -1.05345 2.29475 0
M  V30 284 C 34.5032 2.17509 2.07631 0
M  V30 285 C 36.0512 2.21817 2.2083 0
M  V30 286 C 36.5262 3.40933 3.05825 0
M  V30 287 N 38.0172 3.41067 3.13412 0
M  V30 288 C 38.7522 4.29885 3.79455 0
M  V30 289 N 38.2482 5.28914 4.47462 0
M  V30 290 N 40.0412 4.17673 3.76173 0
M  V30 291 H 32.1922 2.06202 0.509352 0
M  V30 292 H 34.4552 0.90334 0.287541 0
M  V30 293 H 34.1612 3.12415 1.61524 0
M  V30 294 H 34.0352 2.17206 3.08385 0
M  V30 295 H 36.4222 1.27462 2.66153 0
M  V30 296 H 36.5032 2.2616 1.1952 0
M  V30 297 H 36.1472 4.35586 2.61203 0
M  V30 298 H 36.0772 3.33829 4.07266 0
M  V30 299 H 38.5682 2.69406 2.65007 0
M  V30 300 H 38.8812 5.92973 4.95583 0
M  V30 301 H 37.2262 5.32831 4.46224 0
M  V30 302 H 40.4172 3.39564 3.22202 0
M  V30 303 H 40.5902 4.87098 4.27363 0
M  V30 304 N 33.9963 -1.19345 1.0293 0
M  V30 305 C 35.2423 -1.89585 0.736824 0
M  V30 306 C 35.5973 -1.78148 -0.726703 0
M  V30 307 O 34.8903 -1.16332 -1.52242 0
M  V30 308 C 35.0843 -3.39292 1.12319 0
M  V30 309 C 34.9133 -3.65298 2.62273 0
M  V30 310 C 33.6833 -3.83304 3.29251 0
M  V30 311 C 35.8813 -3.6682 3.60482 0
M  V30 312 N 33.8633 -3.96944 4.68304 0
M  V30 313 C 35.2343 -3.86037 4.85155 0
M  V30 314 C 37.2893 -3.49848 3.54275 0
M  V30 315 C 35.9923 -3.9004 6.04369 0
M  V30 316 C 38.0183 -3.55129 4.72903 0
M  V30 317 C 37.3803 -3.74831 5.9639 0
M  V30 318 H 33.4793 -0.712856 0.321497 0
M  V30 319 H 36.0633 -1.43427 1.31669 0
M  V30 320 H 34.2343 -3.84172 0.571524 0
M  V30 321 H 35.9663 -3.97055 0.78292 0
M  V30 322 H 32.7213 -3.82211 2.79663 0
M  V30 323 H 33.1453 -4.07613 5.40538 0
M  V30 324 H 37.7873 -3.33572 2.59788 0
M  V30 325 H 35.5053 -4.05108 6.99223 0
M  V30 326 H 39.0913 -3.43287 4.69729 0
M  V30 327 H 37.9713 -3.78792 6.86649 0
M  V30 328 N 35.4744 -0.807222 -1.35358 0
M  V30 329 C 36.4044 -0.232509 -2.3234 0
M  V30 330 C 37.3854 0.642386 -1.57504 0
M  V30 331 O 38.5704 0.572526 -1.85569 0
M  V30 332 C 35.7004 0.619238 -3.41735 0
M  V30 333 C 34.6544 -0.157215 -4.27711 0
M  V30 334 C 33.9804 0.816273 -5.28433 0
M  V30 335 C 35.2804 -1.35656 -5.04376 0
M  V30 336 H 36.9744 -1.04276 -2.80654 0
M  V30 337 H 34.5204 -0.50288 -1.34934 0
M  V30 338 H 36.4734 1.03137 -4.08584 0
M  V30 339 H 35.1974 1.46239 -2.92031 0
M  V30 340 H 33.8564 -0.550525 -3.62443 0
M  V30 341 H 33.5044 1.65494 -4.74996 0
M  V30 342 H 33.2044 0.301067 -5.86828 0
M  V30 343 H 34.7284 1.22659 -5.98153 0
M  V30 344 H 36.1424 -1.01927 -5.64166 0
M  V30 345 H 34.5394 -1.8063 -5.7227 0
M  V30 346 H 35.6094 -2.14288 -4.34981 0
M  V30 347 N 36.9525 1.47285 -0.560781 0
M  V30 348 C 37.9025 2.27073 0.205384 0
M  V30 349 C 38.8865 1.34569 0.882044 0
M  V30 350 O 40.0785 1.58899 0.77976 0
M  V30 351 C 37.2075 3.20414 1.23247 0
M  V30 352 C 36.2935 4.20399 0.559041 0
M  V30 353 N 36.6845 5.04423 -0.372927 0
M  V30 354 C 34.9825 4.38536 0.812522 0
M  V30 355 C 35.6835 5.76655 -0.764446 0
M  V30 356 N 34.6595 5.43471 -0.11848 0
M  V30 357 H 38.4615 2.89422 -0.511117 0
M  V30 358 H 35.9755 1.57868 -0.380975 0
M  V30 359 H 37.9725 3.76262 1.79534 0
M  V30 360 H 36.6325 2.59623 1.95002 0
M  V30 361 H 37.6435 5.1248 -0.747287 0
M  V30 362 H 34.3205 3.88913 1.51832 0
M  V30 363 H 35.7105 6.54238 -1.53045 0
M  V30 364 N 38.4306 0.297415 1.54768 0
M  V30 365 C 39.3806 -0.595275 2.20092 0
M  V30 366 C 40.3646 -1.10163 1.17273 0
M  V30 367 O 41.5566 -1.043 1.43006 0
M  V30 368 C 38.6856 -1.7684 2.94249 0
M  V30 369 C 37.7716 -1.27818 4.0438 0
M  V30 370 N 38.1626 -0.505695 5.03266 0
M  V30 371 C 36.4606 -1.55923 4.17857 0
M  V30 372 C 37.1616 -0.245094 5.81183 0
M  V30 373 N 36.1376 -0.823881 5.3732 0
M  V30 374 H 39.9396 0.00250837 2.939 0
M  V30 375 H 37.4536 0.102007 1.62079 0
M  V30 376 H 39.4506 -2.41944 3.39513 0
M  V30 377 H 38.1106 -2.36992 2.21957 0
M  V30 378 H 39.1216 -0.150928 5.1768 0
M  V30 379 H 35.7986 -2.16849 3.56767 0
M  V30 380 H 37.1886 0.375084 6.70852 0
M  V30 381 N 39.9087 -1.5758 0.0250728 0
M  V30 382 C 40.8717 -2.08896 -0.943139 0
M  V30 383 C 41.8717 -1.00321 -1.25668 0
M  V30 384 O 43.0617 -1.26495 -1.19769 0
M  V30 385 C 40.1937 -2.55143 -2.26086 0
M  V30 386 H 41.3867 -2.95723 -0.498775 0
M  V30 387 H 38.9397 -1.54703 -0.222888 0
M  V30 388 H 39.6747 -1.71633 -2.75159 0
M  V30 389 H 39.4597 -3.34461 -2.04641 0
M  V30 390 H 40.9497 -2.95083 -2.95492 0
M  V30 391 N 41.3868 0.248026 -1.55636 0
M  V30 392 C 42.6348 0.974295 -1.77065 0
M  V30 393 C 42.9558 1.85897 -0.588849 0
M  V30 394 O 42.2258 1.91868 0.395407 0
M  V30 395 H 40.8058 0.362733 -0.653019 0
M  V30 396 H 43.4678 0.266244 -1.93073 0
M  V30 397 H 42.5638 1.59667 -2.68166 0
M  V30 398 N 42.8649 1.48995 0.513639 0
M  V30 399 C 44.0899 1.61792 1.29762 0
M  V30 400 C 44.5149 0.284475 1.85936 0
M  V30 401 O 43.8729 -0.746185 1.65232 0
M  V30 402 C 43.9209 2.67993 2.41272 0
M  V30 403 O 43.0249 2.26287 3.44772 0
M  V30 404 H 42.3659 0.541963 0.38363 0
M  V30 405 H 44.8959 1.95097 0.616307 0
M  V30 406 H 44.9059 2.89772 2.87221 0
M  V30 407 H 43.5809 3.64791 1.9975 0
M  V30 408 H 42.1579 2.14788 3.04829 0
M  V30 409 N 44.343 -0.763751 1.37857 0
M  V30 410 C 45.759 -1.06542 1.18832 0
M  V30 411 C 45.959 -2.01478 0.0299722 0
M  V30 412 O 45.015 -2.4458 -0.627447 0
M  V30 413 C 46.328 -1.65525 2.51042 0
M  V30 414 C 47.876 -1.77745 2.57635 0
M  V30 415 C 48.351 -2.4014 3.89996 0
M  V30 416 N 49.842 -2.47582 3.91481 0
M  V30 417 C 50.577 -2.96732 4.9065 0
M  V30 418 N 50.073 -3.45993 6.00217 0
M  V30 419 N 51.866 -2.95679 4.78048 0
M  V30 420 H 44.017 -0.133556 2.1198 0
M  V30 421 H 46.28 -0.121879 0.940133 0
M  V30 422 H 45.986 -1.03236 3.36207 0
M  V30 423 H 45.86 -2.64719 2.68707 0
M  V30 424 H 48.247 -2.39164 1.72872 0
M  V30 425 H 48.328 -0.772836 2.43846 0
M  V30 426 H 47.972 -1.79358 4.75177 0
M  V30 427 H 47.902 -3.41223 4.01092 0
M  V30 428 H 50.393 -2.1273 3.12337 0
M  V30 429 H 50.706 -3.81922 6.7183 0
M  V30 430 H 49.051 -3.44077 6.03851 0
M  V30 431 H 52.242 -2.56499 3.91568 0
M  V30 432 H 52.415 -3.33672 5.55488 0
M  V30 433 N 45.8211 -1.22559 -0.990812 0
M  V30 434 C 46.7841 -0.998863 -2.0629 0
M  V30 435 C 47.7841 0.0354834 -1.60761 0
M  V30 436 O 48.9741 -0.203231 -1.7301 0
M  V30 437 C 46.1061 -0.509203 -3.37076 0
M  V30 438 H 47.2991 -1.95014 -2.27837 0
M  V30 439 H 44.8521 -1.04456 -1.16269 0
M  V30 440 H 45.5871 0.446335 -3.21214 0
M  V30 441 H 45.3721 -1.25547 -3.71457 0
M  V30 442 H 46.8621 -0.370888 -4.1595 0
M  V30 443 N 47.2992 1.18797 -1.03562 0
M  V30 444 C 48.5472 1.88278 -0.734569 0
M  V30 445 C 48.8682 1.8043 0.739586 0
M  V30 446 O 48.1382 1.21925 1.53333 0
M  V30 447 H 46.7182 0.696991 -0.268725 0
M  V30 448 H 49.3802 1.44192 -1.31129 0
M  V30 449 H 48.4762 2.94443 -1.03489 0
M  V30 450 N 48.7773 0.814389 1.34928 0
M  V30 451 C 50.0023 0.410097 2.03305 0
M  V30 452 C 50.4273 -0.973464 1.60951 0
M  V30 453 O 49.7853 -1.63185 0.789964 0
M  V30 454 C 49.8333 0.51049 3.56968 0
M  V30 455 O 48.9373 -0.473035 4.09678 0
M  V30 456 H 48.2783 0.170088 0.641846 0
M  V30 457 H 50.8083 1.10244 1.72358 0
M  V30 458 H 50.8183 0.383135 4.06197 0
M  V30 459 H 49.4933 1.51963 3.87144 0
M  V30 460 H 48.0703 -0.305272 3.71648 0
M  V30 461 N 50.2554 -1.46986 0.568584 0
M  V30 462 C 51.4804 -2.07335 0.0520528 0
M  V30 463 C 51.9054 -1.41675 -1.23733 0
M  V30 464 O 51.2634 -0.495623 -1.74394 0
M  V30 465 C 51.3114 -3.60417 -0.11501 0
M  V30 466 O 50.4154 -3.95309 -1.17492 0
M  V30 467 H 49.7564 -0.661597 0.0564385 0
M  V30 468 H 52.2864 -1.88837 0.787507 0
M  V30 469 H 52.2964 -4.06698 -0.325644 0
M  V30 470 H 50.9714 -4.07601 0.826675 0
M  V30 471 H 49.5484 -3.60757 -0.943869 0
M  V30 472 N 51.7335 -0.305618 -1.54608 0
M  V30 473 C 52.9815 0.301701 -1.99835 0
M  V30 474 C 53.3025 1.54054 -1.19551 0
M  V30 475 O 52.5725 1.93702 -0.292658 0
M  V30 476 H 51.1525 0.114468 -0.738178 0
M  V30 477 H 53.8145 -0.418016 -1.90364 0
M  V30 478 H 52.9105 0.570548 -3.06841 0
M  V30 479 N 53.2116 1.57565 -0.0334293 0
M  V30 480 C 54.1416 2.13511 0.945265 0
M  V30 481 C 55.1226 1.05231 1.33643 0
M  V30 482 O 56.3076 1.33084 1.41429 0
M  V30 483 C 53.4376 2.6657 2.22616 0
M  V30 484 C 52.3916 3.79676 1.97561 0
M  V30 485 C 51.7176 4.1918 3.31952 0
M  V30 486 C 53.0176 5.0557 1.31135 0
M  V30 487 H 54.7116 2.95538 0.479325 0
M  V30 488 H 52.2576 1.42166 0.229115 0
M  V30 489 H 54.2106 3.04344 2.91466 0
M  V30 490 H 52.9346 1.8171 2.71384 0
M  V30 491 H 51.5936 3.42347 1.31127 0
M  V30 492 H 51.2416 3.31296 3.78487 0
M  V30 493 H 50.9416 4.95402 3.15992 0
M  V30 494 H 52.4656 4.59541 4.02063 0
M  V30 495 H 53.8796 5.40903 1.89992 0
M  V30 496 H 52.2766 5.86818 1.25559 0
M  V30 497 H 53.3466 4.84062 0.284894 0
M  V30 498 N 54.6897 -0.239769 1.55765 0
M  V30 499 C 55.6197 -1.30052 1.9393 0
M  V30 500 C 56.6007 -1.49839 0.805132 0
M  V30 501 O 57.7857 -1.62328 1.06599 0
M  V30 502 C 54.9157 -2.65391 2.2402 0
M  V30 503 C 53.8697 -2.60289 3.39755 0
M  V30 504 C 53.1957 -3.99489 3.55405 0
M  V30 505 C 54.4957 -2.16654 4.75246 0
M  V30 506 H 56.1897 -0.983573 2.82783 0
M  V30 507 H 53.7357 -0.471701 1.36055 0
M  V30 508 H 55.6887 -3.3974 2.49308 0
M  V30 509 H 54.4127 -2.98736 1.32 0
M  V30 510 H 53.0717 -1.88398 3.14487 0
M  V30 511 H 52.7197 -4.30112 2.60793 0
M  V30 512 H 52.4197 -3.96962 4.33238 0
M  V30 513 H 53.9437 -4.75528 3.83022 0
M  V30 514 H 55.3577 -2.80737 4.99859 0
M  V30 515 H 53.7547 -2.25223 5.56232 0
M  V30 516 H 54.8247 -1.11835 4.71827 0
M  V30 517 N 56.1678 -1.49265 -0.50573 0
M  V30 518 C 57.5838 -1.35923 -0.836486 0
M  V30 519 C 57.7838 -0.388704 -1.97715 0
M  V30 520 O 56.8398 0.181336 -2.51848 0
M  V30 521 C 58.1528 -2.76531 -1.18115 0
M  V30 522 C 59.7008 -2.85197 -1.28964 0
M  V30 523 C 60.1758 -4.26561 -1.66761 0
M  V30 524 N 61.6668 -4.2935 -1.73819 0
M  V30 525 C 62.4018 -5.35693 -2.045 0
M  V30 526 N 61.8978 -6.52287 -2.33438 0
M  V30 527 N 63.6908 -5.23105 -2.05711 0
M  V30 528 H 55.8418 -2.10965 0.246519 0
M  V30 529 H 58.1048 -0.9468 0.0476887 0
M  V30 530 H 57.8108 -3.49226 -0.416398 0
M  V30 531 H 57.6848 -3.11599 -2.1257 0
M  V30 532 H 60.0718 -2.12742 -2.04511 0
M  V30 533 H 60.1528 -2.53718 -0.325704 0
M  V30 534 H 59.7968 -4.99541 -0.917656 0
M  V30 535 H 59.7268 -4.55502 -2.64246 0
M  V30 536 H 62.2178 -3.4526 -1.53635 0
M  V30 537 H 62.5308 -7.29158 -2.56024 0
M  V30 538 H 60.8758 -6.55521 -2.30905 0
M  V30 539 H 64.0668 -4.31026 -1.82577 0
M  V30 540 H 64.2398 -6.06078 -2.29289 0
M  V30 541 N 57.6459 0.756429 -1.3826 0
M  V30 542 C 58.5939 1.89149 -1.35372 0
M  V30 543 C 59.5879 1.67691 -0.24004 0
M  V30 544 O 60.7939 1.75294 -0.408919 0
M  V30 545 H 57.1689 0.622271 -0.422236 0
M  V30 546 H 59.1399 1.88701 -2.31159 0
M  V30 547 C 57.8889 3.26599 -1.19284 0
M  V30 548 H 57.2119 3.43695 -2.0424 0
M  V30 549 H 58.6519 4.06274 -1.21316 0
M  V30 550 C 57.1109 3.3675 0.100454 0
M  V30 551 O 57.6409 3.86951 1.07851 0
M  V30 552 N 55.8469 2.90179 0.15633 0
M  V30 553 H 55.3939 2.49517 -0.640253 0
M  V30 554 H 55.3519 2.97352 1.02123 0
M  V30 555 N 59.124 1.23083 0.984299 0
M  V30 556 C 60.54 0.992637 1.24975 0
M  V30 557 C 60.74 -0.308618 1.99123 0
M  V30 558 O 59.796 -1.02905 2.30579 0
M  V30 559 C 61.109 2.19698 2.05312 0
M  V30 560 C 62.657 2.24147 2.18465 0
M  V30 561 C 63.132 3.44157 3.02192 0
M  V30 562 N 64.623 3.44372 3.09777 0
M  V30 563 C 65.358 4.33886 3.74874 0
M  V30 564 N 64.854 5.3363 4.41827 0
M  V30 565 N 66.647 4.21639 3.71721 0
M  V30 566 H 58.798 2.06731 0.487453 0
M  V30 567 H 61.061 0.906339 0.277944 0
M  V30 568 H 60.767 3.1411 1.58201 0
M  V30 569 H 60.641 2.20465 3.06064 0
M  V30 570 H 63.028 1.30277 2.64786 0
M  V30 571 H 63.109 2.27415 1.17115 0
M  V30 572 H 62.753 4.38332 2.56568 0
M  V30 573 H 62.683 3.3813 4.03702 0
M  V30 574 H 65.174 2.72201 2.62135 0
M  V30 575 H 65.487 5.98196 4.89266 0
M  V30 576 H 63.832 5.37534 4.40548 0
M  V30 577 H 67.023 3.42962 3.18582 0
M  V30 578 H 67.196 4.91604 4.22173 0
M  V30 579 N 60.6021 -1.18246 1.0419 0
M  V30 580 C 61.8501 -1.87886 0.744543 0
M  V30 581 C 62.1711 -1.8082 -0.730006 0
M  V30 582 O 61.4411 -1.22736 -1.52685 0
M  V30 583 H 60.0211 -0.695556 0.272417 0
M  V30 584 H 62.6831 -1.43494 1.31892 0
M  V30 585 H 61.7791 -2.9389 1.05049 0
M  V30 586 N 62.0802 -0.821533 -1.34494 0
M  V30 587 C 63.4912 -0.467956 -1.8074 0
M  V30 588 C 63.8422 1.01151 -1.68116 0
M  V30 589 O 62.9672 1.78707 -1.22036 0
M  V30 590 C 63.5622 -0.842627 -3.28154 0
M  V30 591 C 62.1212 -0.541439 -3.72485 0
M  V30 592 C 61.2682 -1.06028 -2.56229 0
M  V30 593 H 64.2192 -1.01183 -1.22261 0
M  V30 594 H 64.2402 -0.145876 -3.8022 0
M  V30 595 H 63.7522 -1.91945 -3.37311 0
M  V30 596 H 61.8532 0.526034 -3.68868 0
M  V30 597 H 61.9662 -1.08453 -4.66663 0
M  V30 598 H 60.3302 -0.481892 -2.501 0
M  V30 599 H 61.1132 -2.14352 -2.68157 0
M  V30 600 N 63.5583 1.46682 -0.576371 0
M  V30 601 C 64.8063 2.02013 -0.0594163 0
M  V30 602 C 65.1273 1.45101 1.30271 0
M  V30 603 O 64.3973 0.633317 1.8538 0
M  V30 604 H 62.9773 0.746759 -0.0189745 0
M  V30 605 H 65.6393 1.79862 -0.750717 0
M  V30 606 H 64.7353 3.12097 0.014345 0
M  V30 607 N 65.0364 0.313813 1.54444 0
M  V30 608 C 66.2844 -0.291099 1.99993 0
M  V30 609 C 66.6054 -1.53418 1.20366 0
M  V30 610 O 65.8754 -1.93544 0.302927 0
M  V30 611 H 64.4554 -0.110552 0.738774 0
M  V30 612 H 67.1174 0.428106 1.9014 0
M  V30 613 H 66.2134 -0.554268 3.07139 0
M  V30 614 N 66.5145 -1.57545 0.0417849 0
M  V30 615 C 67.7395 -1.97035 -0.647455 0
M  V30 616 C 68.1645 -0.918775 -1.64135 0
M  V30 617 O 67.5225 0.119006 -1.80909 0
M  V30 618 C 67.5705 -3.35609 -1.31905 0
M  V30 619 O 66.6745 -3.3287 -2.43457 0
M  V30 620 H 66.0155 -0.64211 -0.169086 0
M  V30 621 H 68.5455 -2.04318 0.107399 0
M  V30 622 H 68.5555 -3.72126 -1.67291 0
M  V30 623 H 67.2305 -4.11685 -0.590586 0
M  V30 624 H 65.8075 -3.08087 -2.10088 0
M  V30 625 N 67.9926 0.231505 -1.5589 0
M  V30 626 C 68.9556 1.27028 -1.90779 0
M  V30 627 C 69.9556 1.40308 -0.785507 0
M  V30 628 O 71.1456 1.38744 -1.05336 0
M  V30 629 C 68.2776 2.64566 -2.14983 0
M  V30 630 H 69.4706 0.973017 -2.83677 0
M  V30 631 H 67.0236 0.471486 -1.49019 0
M  V30 632 H 67.7586 2.99406 -1.24604 0
M  V30 633 H 67.5436 2.56305 -2.96732 0
M  V30 634 H 69.0336 3.39543 -2.43105 0
M  V30 635 N 69.4707 1.49531 0.497807 0
M  V30 636 C 70.3807 1.69176 1.62532 0
M  V30 637 C 71.3967 0.5744 1.64246 0
M  V30 638 O 72.5727 0.849497 1.82608 0
M  V30 639 C 69.6377 1.75695 2.98885 0
M  V30 640 C 68.6987 2.9929 3.07773 0
M  V30 641 C 67.9317 3.05488 4.37622 0
M  V30 642 O 68.1547 2.19192 5.26603 0
M  V30 643 O 67.0887 3.9798 4.51548 0
M  V30 644 H 70.9147 2.647 1.48887 0
M  V30 645 H 68.4997 1.3331 0.674441 0
M  V30 646 H 70.3817 1.82317 3.79919 0
M  V30 647 H 69.0567 0.8335 3.12785 0
M  V30 648 H 67.9637 2.98183 2.25915 0
M  V30 649 H 69.2967 3.91125 2.98801 0
M  V30 650 N 70.9488 -0.749086 1.3866 0
M  V30 651 C 71.9118 -1.84457 1.36045 0
M  V30 652 C 72.9118 -1.58682 0.260122 0
M  V30 653 O 74.1018 -1.66343 0.517261 0
M  V30 654 C 71.2338 -3.22008 1.11911 0
M  V30 655 H 72.4268 -1.88182 2.33512 0
M  V30 656 H 69.9798 -0.951266 1.24019 0
M  V30 657 H 70.7148 -3.2395 0.150686 0
M  V30 658 H 70.4998 -3.42111 1.91579 0
M  V30 659 H 71.9898 -4.0208 1.12788 0
M  V30 660 N 72.4269 -1.23603 -0.977757 0
M  V30 661 C 73.6519 -1.09735 -1.75991 0
M  V30 662 C 74.0769 0.346858 -1.84874 0
M  V30 663 O 73.4349 1.25093 -1.3123 0
M  V30 664 C 73.4829 -1.73051 -3.16363 0
M  V30 665 O 72.5869 -0.994452 -4.0023 0
M  V30 666 H 71.9279 -0.384476 -0.541364 0
M  V30 667 H 74.4579 -1.6371 -1.2272 0
M  V30 668 H 74.4679 -1.78398 -3.66931 0
M  V30 669 H 73.1429 -2.78137 -3.09213 0
M  V30 670 H 71.7199 -1.01812 -3.58732 0
M  V30 671 N 73.905 1.17692 -1.04816 0
M  V30 672 C 75.321 1.39863 -0.768794 0
M  V30 673 C 75.521 1.91118 0.638451 0
M  V30 674 O 74.577 2.10036 1.40146 0
M  V30 675 C 75.89 2.39274 -1.82122 0
M  V30 676 C 77.438 2.52987 -1.843 0
M  V30 677 C 77.913 3.55669 -2.88555 0
M  V30 678 N 79.404 3.63183 -2.87493 0
M  V30 679 C 80.139 4.42381 -3.64811 0
M  V30 680 N 79.635 5.25125 -4.51903 0
M  V30 681 N 81.428 4.37217 -3.53267 0
M  V30 682 H 73.579 0.82752 -1.95617 0
M  V30 683 H 75.842 0.426123 -0.846831 0
M  V30 684 H 75.548 2.08678 -2.83102 0
M  V30 685 H 75.422 3.38725 -1.65967 0
M  V30 686 H 77.809 2.82896 -0.839869 0
M  V30 687 H 77.89 1.53623 -2.04532 0
M  V30 688 H 77.534 3.26499 -3.89051 0
M  V30 689 H 77.464 4.54728 -2.65575 0
M  V30 690 H 79.955 3.04103 -2.24343 0
M  V30 691 H 80.268 5.82728 -5.07591 0
M  V30 692 H 78.613 5.24519 -4.55966 0
M  V30 693 H 81.804 3.71626 -2.84625 0
M  V30 694 H 81.977 4.98696 -4.13771 0
M  V30 695 N 75.3831 0.828654 1.34056 0
M  V30 696 C 76.6081 0.431637 2.02859 0
M  V30 697 C 77.0331 -0.956339 1.61975 0
M  V30 698 O 76.3911 -1.62338 0.807228 0
M  V30 699 C 76.4391 0.548323 3.56407 0
M  V30 700 O 75.5431 -0.429556 4.10157 0
M  V30 701 H 74.8841 0.176886 0.640006 0
M  V30 702 H 77.4141 1.12066 1.71179 0
M  V30 703 H 77.4241 0.426196 4.05768 0
M  V30 704 H 76.0991 1.5606 3.8551 0
M  V30 705 H 74.6761 -0.265836 3.71951 0
M  V30 706 N 76.8612 -1.46375 0.584142 0
M  V30 707 C 77.7912 -2.33103 -0.136037 0
M  V30 708 C 78.7722 -1.45431 -0.882255 0
M  V30 709 O 79.9572 -1.74246 -0.857434 0
M  V30 710 C 77.0872 -3.27731 -1.14933 0
M  V30 711 C 76.0412 -4.24855 -0.517862 0
M  V30 712 C 75.3672 -5.09001 -1.63773 0
M  V30 713 C 76.6672 -5.19439 0.545886 0
M  V30 714 H 78.3612 -2.93568 0.588086 0
M  V30 715 H 75.9072 -1.41166 0.284259 0
M  V30 716 H 77.8602 -3.87261 -1.66153 0
M  V30 717 H 76.5842 -2.65377 -1.90375 0
M  V30 718 H 75.2432 -3.6659 -0.0267361 0
M  V30 719 H 74.8912 -4.43031 -2.38185 0
M  V30 720 H 74.5912 -5.74777 -1.22085 0
M  V30 721 H 76.1152 -5.71396 -2.15266 0
M  V30 722 H 77.5292 -5.73177 0.118704 0
M  V30 723 H 75.9262 -5.93566 0.88317 0
M  V30 724 H 76.9962 -4.63285 1.43162 0
M  V30 725 N 78.3393 -0.321999 -1.54275 0
M  V30 726 C 79.5643 0.285791 -2.05422 0
M  V30 727 C 79.9893 1.45124 -1.19669 0
M  V30 728 O 79.3473 1.80132 -0.205441 0
M  V30 729 C 79.3953 0.69956 -3.53749 0
M  V30 730 O 78.4993 1.8021 -3.70942 0
M  V30 731 H 77.8403 0.0518962 -0.661969 0
M  V30 732 H 80.3703 -0.469954 -1.9913 0
M  V30 733 H 80.3803 0.982649 -3.9599 0
M  V30 734 H 79.0553 -0.152864 -4.15619 0
M  V30 735 H 77.6323 1.51794 -3.40607 0
M  V30 736 N 79.8174 1.5752 -0.0501392 0
M  V30 737 C 81.0634 1.92936 0.624798 0
M  V30 738 C 81.3964 0.928685 1.70555 0
M  V30 739 O 80.6714 -0.0454779 1.94447 0
M  V30 740 C 80.9544 3.38737 1.22185 0
M  V30 741 C 80.8074 4.49552 0.149218 0
M  V30 742 C 82.1264 3.84913 2.13378 0
M  V30 743 H 79.2454 0.701604 0.225657 0
M  V30 744 H 81.8874 1.89671 -0.111693 0
M  V30 745 H 80.0374 3.4165 1.84953 0
M  V30 746 H 81.7094 4.58768 -0.482648 0
M  V30 747 H 79.9524 4.30638 -0.522841 0
M  V30 748 H 80.6234 5.48653 0.606966 0
M  V30 749 H 83.0994 3.8387 1.60572 0
M  V30 750 H 81.9754 4.87584 2.52097 0
M  V30 751 H 82.2364 3.21611 3.03346 0
M  V30 752 N 81.2955 -0.223234 1.56011 0
M  V30 753 C 82.5205 -0.968978 1.83373 0
M  V30 754 C 82.9455 -1.77227 0.630254 0
M  V30 755 O 82.3035 -1.76345 -0.420959 0
M  V30 756 C 82.3515 -1.86363 3.08709 0
M  V30 757 O 81.4555 -2.95873 2.87285 0
M  V30 758 H 80.7965 -0.274461 0.604622 0
M  V30 759 H 83.3265 -0.237056 2.03222 0
M  V30 760 H 83.3365 -2.27376 3.38768 0
M  V30 761 H 82.0115 -1.27319 3.95933 0
M  V30 762 H 80.5885 -2.58818 2.68454 0
M  V30 763 N 82.7736 -1.49793 -0.48987 0
M  V30 764 C 83.7366 -1.66752 -1.57246 0
M  V30 765 C 84.7366 -0.538867 -1.51502 0
M  V30 766 O 85.9266 -0.805545 -1.54456 0
M  V30 767 C 83.0586 -1.67528 -2.96896 0
M  V30 768 H 84.2516 -2.63321 -1.43534 0
M  V30 769 H 81.8046 -1.38992 -0.714914 0
M  V30 770 H 82.5396 -0.725837 -3.16073 0
M  V30 771 H 82.3246 -2.49504 -3.02473 0
M  V30 772 H 83.8146 -1.82667 -3.7553 0
M  V30 773 N 84.2517 0.741722 -1.39055 0
M  V30 774 C 85.6677 1.04638 -1.20512 0
M  V30 775 C 85.8677 2.01405 -0.0620218 0
M  V30 776 O 84.9237 2.45547 0.588457 0
M  V30 777 C 86.2367 1.6151 -2.53643 0
M  V30 778 C 87.7847 1.73623 -2.6043 0
M  V30 779 C 88.2597 2.33906 -3.93767 0
M  V30 780 N 89.7507 2.41323 -3.9537 0
M  V30 781 C 90.4857 2.88888 -4.95309 0
M  V30 782 N 89.9817 3.36401 -6.05645 0
M  V30 783 N 91.7747 2.88037 -4.82692 0
M  V30 784 H 83.9257 0.0998155 -2.12165 0
M  V30 785 H 86.1887 0.106907 -0.941953 0
M  V30 786 H 85.8947 0.978739 -3.37807 0
M  V30 787 H 85.7687 2.60411 -2.72885 0
M  V30 788 H 88.1557 2.36384 -1.76655 0
M  V30 789 H 88.2367 0.733945 -2.45045 0
M  V30 790 H 87.8807 1.71776 -4.7797 0
M  V30 791 H 87.8107 3.34799 -4.06469 0
M  V30 792 H 90.3017 2.07734 -3.15682 0
M  V30 793 H 90.6147 3.71186 -6.77821 0
M  V30 794 H 88.9597 3.34427 -6.09248 0
M  V30 795 H 92.1507 2.50237 -3.95599 0
M  V30 796 H 92.3237 3.24792 -5.60726 0
M  V30 797 N 85.7298 1.2412 0.971189 0
M  V30 798 C 86.6928 1.03156 2.04674 0
M  V30 799 C 87.6928 -0.00990322 1.60797 0
M  V30 800 O 88.8828 0.230729 1.72665 0
M  V30 801 C 86.0148 0.562765 3.36223 0
M  V30 802 H 87.2078 1.98614 2.24705 0
M  V30 803 H 84.7608 1.06293 1.14593 0
M  V30 804 H 85.4958 -0.395176 3.21883 0
M  V30 805 H 85.2808 1.31441 3.69413 0
M  V30 806 H 86.7708 0.437015 4.15307 0
M  V30 807 N 87.2079 -1.17134 1.05439 0
M  V30 808 C 88.6239 -1.39454 0.776201 0
M  V30 809 C 88.8239 -1.91454 -0.628307 0
M  V30 810 O 87.8799 -2.10777 -1.39031 0
M  V30 811 C 89.1929 -2.38305 1.83388 0
M  V30 812 C 90.7409 -2.52006 1.85639 0
M  V30 813 C 91.2159 -3.54133 2.90437 0
M  V30 814 N 92.7069 -3.61653 2.89415 0
M  V30 815 C 93.4419 -4.4044 3.67152 0
M  V30 816 N 92.9379 -5.22721 4.54681 0
M  V30 817 N 94.7309 -4.35337 3.55581 0
M  V30 818 H 86.8819 -0.817134 1.96053 0
M  V30 819 H 89.1449 -0.421626 0.849079 0
M  V30 820 H 88.8509 -2.07173 2.84204 0
M  V30 821 H 88.7249 -3.37841 1.67761 0
M  V30 822 H 91.1119 -2.82447 0.85486 0
M  V30 823 H 91.1929 -1.52537 2.05344 0
M  V30 824 H 90.8369 -3.24431 3.90777 0
M  V30 825 H 90.7669 -4.53313 2.67983 0
M  V30 826 H 93.2579 -3.02909 2.25952 0
M  V30 827 H 93.5709 -5.80027 5.10674 0
M  V30 828 H 91.9159 -5.22093 4.58741 0
M  V30 829 H 95.1069 -3.70112 2.86592 0
M  V30 830 H 95.2799 -4.96494 4.1641 0
M  V30 831 N 88.686 -0.835752 -1.33615 0
M  V30 832 C 89.911 -0.442389 -2.02627 0
M  V30 833 C 90.336 0.947735 -1.62479 0
M  V30 834 O 89.694 1.61907 -0.815826 0
M  V30 835 C 89.742 -0.567216 -3.56111 0
M  V30 836 O 88.846 0.407799 -4.10379 0
M  V30 837 H 88.187 -0.180278 -0.639059 0
M  V30 838 H 90.717 -1.12972 -1.70583 0
M  V30 839 H 90.727 -0.447708 -4.05536 0
M  V30 840 H 89.402 -1.58103 -3.84677 0
M  V30 841 H 87.979 0.246107 -3.72087 0
M  V30 842 N 90.1641 1.46063 -0.591896 0
M  V30 843 C 91.3891 2.07226 -0.0850314 0
M  V30 844 C 91.8141 1.43625 1.21463 0
M  V30 845 O 91.1721 0.523305 1.73583 0
M  V30 846 C 91.2201 3.60554 0.0576567 0
M  V30 847 O 90.3241 3.97128 1.11188 0
M  V30 848 H 89.6651 0.660615 -0.0669568 0
M  V30 849 H 92.1951 1.8756 -0.81745 0
M  V30 850 H 92.2051 4.07165 0.2609 0
M  V30 851 H 90.8801 4.06235 -0.891416 0
M  V30 852 H 89.4571 3.62213 0.886356 0
M  V30 853 N 91.6422 0.330177 1.54103 0
M  V30 854 C 92.8672 -0.274893 2.0557 0
M  V30 855 C 93.2922 -1.44487 1.20437 0
M  V30 856 O 92.6502 -1.80021 0.214991 0
M  V30 857 C 92.6982 -0.68079 3.54115 0
M  V30 858 O 91.8022 -1.7824 3.71893 0
M  V30 859 H 91.1432 -0.0483849 0.662235 0
M  V30 860 H 93.6732 0.480508 1.98878 0
M  V30 861 H 93.6832 -0.961635 3.96505 0
M  V30 862 H 92.3582 0.174903 4.15532 0
M  V30 863 H 90.9352 -1.49985 3.41407 0
M  V30 864 N 93.1203 -1.57491 0.0584922 0
M  V30 865 C 94.0303 -2.15448 -0.928414 0
M  V30 866 C 95.0463 -1.11416 -1.3365 0
M  V30 867 O 96.2223 -1.4362 -1.41193 0
M  V30 868 C 93.2873 -2.69393 -2.18239 0
M  V30 869 C 92.3483 -3.88249 -1.83196 0
M  V30 870 C 91.5813 -4.39613 -3.02616 0
M  V30 871 O 91.8043 -3.90023 -4.16219 0
M  V30 872 O 90.7383 -5.31111 -2.83204 0
M  V30 873 H 94.5643 -3.00112 -0.465483 0
M  V30 874 H 92.1493 -1.48499 -0.163826 0
M  V30 875 H 94.0313 -3.04026 -2.91798 0
M  V30 876 H 92.7063 -1.87796 -2.63656 0
M  V30 877 H 91.6133 -3.58492 -1.06931 0
M  V30 878 H 92.9463 -4.71098 -1.42573 0
M  V30 879 N 94.5984 0.214957 -1.56127 0
M  V30 880 C 95.8754 0.963093 -1.70247 0
M  V30 881 C 96.2554 2.02166 -0.60764 0
M  V30 882 O 95.6034 2.25244 0.384385 0
M  V30 883 C 95.8134 1.56756 -3.11815 0
M  V30 884 C 97.1614 2.0573 -3.7143 0
M  V30 885 O 98.1854 1.66637 -3.14818 0
M  V30 886 O 97.0444 2.77603 -4.70743 0
M  V30 887 H 94.1384 0.450321 -0.693643 0
M  V30 888 H 96.6844 0.206219 -1.68442 0
M  V30 889 H 95.4564 0.803533 -3.82961 0
M  V30 890 H 95.0794 2.3898 -3.17765 0
M  V30 891 N 96.0765 1.50051 0.48192 0
M  V30 892 C 97.0235 1.68122 1.58125 0
M  V30 893 C 97.9935 0.522545 1.57666 0
M  V30 894 O 99.1785 0.751844 1.75362 0
M  V30 895 C 96.3185 1.77142 2.96167 0
M  V30 896 C 95.4315 3.0444 3.06497 0
M  V30 897 C 94.5665 3.04321 4.35387 0
M  V30 898 C 93.6055 4.26118 4.3942 0
M  V30 899 N 92.7425 4.238 5.59766 0
M  V30 900 H 97.5825 2.6198 1.42022 0
M  V30 901 H 95.1195 1.29877 0.690687 0
M  V30 902 H 97.0775 1.80352 3.76203 0
M  V30 903 H 95.7075 0.867329 3.1093 0
M  V30 904 H 94.7595 3.10752 2.19402 0
M  V30 905 H 96.0715 3.94426 3.05336 0
M  V30 906 H 95.2255 3.062 5.23762 0
M  V30 907 H 93.9645 2.12147 4.39141 0
M  V30 908 H 92.9695 4.24463 3.49444 0
M  V30 909 H 94.1945 5.19507 4.37366 0
M  V30 910 H 92.1405 3.34474 5.64326 0
M  V30 911 H 92.0575 5.07542 5.60301 0
M  V30 912 H 93.3255 4.2981 6.50295 0
M  V30 913 N 97.5546 -0.734337 1.39446 0
M  V30 914 C 98.8036 -1.48937 1.36017 0
M  V30 915 C 99.1166 -1.95557 -0.0409005 0
M  V30 916 O 100.323 -2.70779 -0.19778 0
M  V30 917 C 98.7786 -2.69125 2.38955 0
M  V30 918 C 98.3866 -2.29452 3.8478 0
M  V30 919 C 100.131 -3.46944 2.44603 0
M  V30 920 C 98.0376 -3.46366 4.79358 0
M  V30 921 H 96.9676 -0.559296 0.505672 0
M  V30 922 H 99.6186 -0.800983 1.65095 0
M  V30 923 H 98.0006 -3.40041 2.02948 0
M  V30 924 H 99.1746 -1.66077 4.29831 0
M  V30 925 H 97.4896 -1.64723 3.82433 0
M  V30 926 H 100.087 -4.33907 3.12456 0
M  V30 927 H 100.43 -3.89454 1.47076 0
M  V30 928 H 100.963 -2.83056 2.79507 0
M  V30 929 H 97.7016 -3.08905 5.78151 0
M  V30 930 H 97.2216 -4.08719 4.38986 0
M  V30 931 H 98.9006 -4.12691 4.98292 0
M  V30 932 N 99.0327 -1.24633 -0.964593 0
M  V30 933 C 100.261 -1.11501 -1.74285 0
M  V30 934 C 100.676 0.332165 -1.85855 0
M  V30 935 O 100.033 1.22903 -1.34911 0
M  V30 936 C 100.084 -1.75258 -3.16175 0
M  V30 937 O 99.8047 -3.14318 -3.05182 0
M  V30 938 C 101.306 -1.67776 -4.10324 0
M  V30 939 H 98.5257 -0.389407 -0.546446 0
M  V30 940 H 101.07 -1.64801 -1.21083 0
M  V30 941 H 99.2247 -1.25954 -3.66353 0
M  V30 942 H 99.6387 -3.4551 -3.94618 0
M  V30 943 H 101.113 -2.17064 -5.0753 0
M  V30 944 H 101.59 -0.639584 -4.34518 0
M  V30 945 H 102.196 -2.16522 -3.66058 0
M  V30 946 N 100.511 1.16574 -1.06058 0
M  V30 947 C 101.757 1.87324 -0.777022 0
M  V30 948 C 102.09 1.81351 0.694645 0
M  V30 949 O 101.365 1.22753 1.50871 0
M  V30 950 C 101.648 3.36991 -1.26922 0
M  V30 951 C 101.501 3.51667 -2.80447 0
M  V30 952 C 102.82 4.3131 -0.87521 0
M  V30 953 H 99.9388 0.680191 -0.28374 0
M  V30 954 H 102.581 1.37036 -1.3161 0
M  V30 955 H 100.731 3.79949 -0.81063 0
M  V30 956 H 102.403 3.17664 -3.34495 0
M  V30 957 H 100.646 2.93656 -3.19294 0
M  V30 958 H 101.317 4.56766 -3.0995 0
M  V30 959 H 103.793 3.9624 -1.27014 0
M  V30 960 H 102.669 5.34545 -1.2471 0
M  V30 961 H 102.93 4.41552 0.220071 0
M  V30 962 N 101.989 0.842826 1.3317 0
M  V30 963 C 102.939 0.250877 2.26616 0
M  V30 964 C 103.923 -0.596427 1.49437 0
M  V30 965 O 105.115 -0.447747 1.71243 0
M  V30 966 C 102.244 -0.569779 3.38539 0
M  V30 967 C 101.33 0.289254 4.23112 0
M  V30 968 N 101.721 1.36987 4.86897 0
M  V30 969 C 100.019 0.0769631 4.45934 0
M  V30 970 C 100.72 1.89737 5.49886 0
M  V30 971 N 99.6959 1.19827 5.30229 0
M  V30 972 H 103.498 1.07718 2.73448 0
M  V30 973 H 101.012 0.687693 1.47121 0
M  V30 974 H 103.009 -1.01018 4.04476 0
M  V30 975 H 101.669 -1.39401 2.93253 0
M  V30 976 H 102.68 1.75277 4.87338 0
M  V30 977 H 99.3569 -0.713507 4.11358 0
M  V30 978 H 100.747 2.80253 6.10662 0
M  V30 979 N 103.467 -1.45747 0.599634 0
M  V30 980 C 104.714 -2.02292 0.0917284 0
M  V30 981 C 105.042 -1.46906 -1.27472 0
M  V30 982 O 104.297 -0.630652 -1.8526 0
M  V30 983 C 104.596 -3.57399 -0.00602758 0
M  V30 984 C 104.262 -4.31902 1.29503 0
M  V30 985 C 102.924 -4.51974 1.65144 0
M  V30 986 C 105.276 -4.74551 2.15525 0
M  V30 987 C 102.604 -5.11949 2.86574 0
M  V30 988 C 104.956 -5.35868 3.36196 0
M  V30 989 C 103.62 -5.54165 3.72099 0
M  V30 990 H 102.89 -0.740239 0.0335658 0
M  V30 991 H 105.537 -1.7491 0.779661 0
M  V30 992 H 103.842 -3.84014 -0.777183 0
M  V30 993 H 105.539 -3.98846 -0.415038 0
M  V30 994 H 102.129 -4.16588 1.00761 0
M  V30 995 H 106.313 -4.58784 1.8929 0
M  V30 996 H 101.569 -5.24305 3.14507 0
M  V30 997 H 105.743 -5.6787 4.03109 0
M  V30 998 H 103.37 -6.00406 4.6628 0
M  V30 999 N 104.945 -0.338344 -1.53925 0
M  V30 1000 C 106.194 0.260732 -2.00008 0
M  V30 1001 C 106.507 1.52073 -1.23017 0
M  V30 1002 O 107.713 2.19672 -1.5955 0
M  V30 1003 C 106.169 0.51515 -3.56194 0
M  V30 1004 C 105.777 -0.728645 -4.42035 0
M  V30 1005 C 107.521 1.07337 -4.10706 0
M  V30 1006 C 105.428 -0.445315 -5.89721 0
M  V30 1007 H 104.358 0.101205 -0.747177 0
M  V30 1008 H 107.009 -0.452866 -1.77824 0
M  V30 1009 H 105.391 1.28932 -3.74423 0
M  V30 1010 H 106.565 -1.50352 -4.35581 0
M  V30 1011 H 104.88 -1.20813 -3.98489 0
M  V30 1012 H 107.477 1.30022 -5.18651 0
M  V30 1013 H 107.82 2.0273 -3.63602 0
M  V30 1014 H 108.353 0.360034 -3.96167 0
M  V30 1015 H 105.092 -1.36883 -6.41049 0
M  V30 1016 H 104.612 0.291569 -5.99091 0
M  V30 1017 H 106.291 -0.0606218 -6.46972 0
M  V30 1018 N 106.423 1.57458 -0.0668435 0
M  V30 1019 C 107.371 2.13639 0.919851 0
M  V30 1020 C 108.365 1.07204 1.31163 0
M  V30 1021 O 109.571 1.25591 1.28945 0
M  V30 1022 H 105.946 0.683048 0.314562 0
M  V30 1023 H 107.917 2.95415 0.421047 0
M  V30 1024 C 106.666 2.70892 2.17975 0
M  V30 1025 H 105.989 3.5246 1.88711 0
M  V30 1026 H 107.429 3.13803 2.85138 0
M  V30 1027 C 105.888 1.65414 2.93496 0
M  V30 1028 O 106.418 1.07619 3.87015 0
M  V30 1029 N 104.624 1.36564 2.56512 0
M  V30 1030 H 104.171 1.83751 1.80536 0
M  V30 1031 H 104.129 0.66223 3.07347 0
M  V30 1032 N 107.901 -0.206675 1.56239 0
M  V30 1033 C 109.317 -0.557025 1.49564 0
M  V30 1034 C 109.517 -1.86424 0.764735 0
M  V30 1035 O 108.573 -2.50584 0.310491 0
M  V30 1036 C 109.886 -0.622478 2.94186 0
M  V30 1037 C 111.434 -0.712099 3.04792 0
M  V30 1038 C 111.909 -0.808767 4.50803 0
M  V30 1039 N 113.4 -0.8726 4.54907 0
M  V30 1040 C 114.135 -0.967365 5.65181 0
M  V30 1041 N 113.631 -1.02515 6.85173 0
M  V30 1042 N 115.424 -1.00366 5.53067 0
M  V30 1043 H 107.575 0.650943 2.02179 0
M  V30 1044 H 109.838 0.230387 0.919579 0
M  V30 1045 H 109.544 0.268727 3.50672 0
M  V30 1046 H 109.418 -1.4811 3.46905 0
M  V30 1047 H 111.805 -1.59374 2.48363 0
M  V30 1048 H 111.886 0.172489 2.55218 0
M  V30 1049 H 111.53 0.0684754 5.07854 0
M  V30 1050 H 111.46 -1.70899 4.98098 0
M  V30 1051 H 113.951 -0.837657 3.68499 0
M  V30 1052 H 114.264 -1.09765 7.64965 0
M  V30 1053 H 112.609 -0.994026 6.87855 0
M  V30 1054 H 115.8 -0.95527 4.58249 0
M  V30 1055 H 115.973 -1.07405 6.39037 0
M  V30 1056 N 109.379 -1.50304 -0.473955 0
M  V30 1057 C 110.656 -1.51667 -1.23518 0
M  V30 1058 C 111.036 -0.259701 -2.09496 0
M  V30 1059 O 110.384 0.756986 -2.15597 0
M  V30 1060 C 110.594 -2.81082 -2.06868 0
M  V30 1061 C 111.942 -3.31631 -2.65153 0
M  V30 1062 O 112.966 -2.82384 -2.17113 0
M  V30 1063 O 111.825 -4.17471 -3.52675 0
M  V30 1064 H 108.919 -0.60822 -0.560355 0
M  V30 1065 H 111.465 -1.62592 -0.486011 0
M  V30 1066 H 110.237 -3.64041 -1.4349 0
M  V30 1067 H 109.86 -2.73146 -2.88924 0
M  V30 1068 N 110.857 0.726932 -1.39834 0
M  V30 1069 C 112.105 1.4837 -1.37225 0
M  V30 1070 C 112.426 1.94979 0.0284857 0
M  V30 1071 O 111.696 1.69555 0.981213 0
M  V30 1072 H 110.276 0.55043 -0.505011 0
M  V30 1073 H 112.938 0.862468 -1.74778 0
M  V30 1074 H 112.034 2.36198 -2.04003 0
M  V30 1075 N 112.336 1.25143 0.95797 0
M  V30 1076 C 113.246 1.06968 2.08794 0
M  V30 1077 C 114.262 0.00773911 1.73998 0
M  V30 1078 O 115.438 0.207972 2.00323 0
M  V30 1079 C 112.503 0.68691 3.39827 0
M  V30 1080 C 111.564 1.82641 3.88511 0
M  V30 1081 C 110.797 1.46181 5.1329 0
M  V30 1082 O 111.02 0.355971 5.69288 0
M  V30 1083 O 109.954 2.29085 5.566 0
M  V30 1084 H 113.78 2.01723 2.27027 0
M  V30 1085 H 111.365 1.04051 1.07209 0
M  V30 1086 H 113.247 0.485417 4.18595 0
M  V30 1087 H 111.922 -0.231417 3.22872 0
M  V30 1088 H 110.829 2.08274 3.10762 0
M  V30 1089 H 112.162 2.72386 4.09959 0
M  V30 1090 N 113.814 -1.1601 1.06675 0
M  V30 1091 C 115.042 -1.90527 0.806667 0
M  V30 1092 C 115.457 -1.77643 -0.639396 0
M  V30 1093 O 114.814 -1.12369 -1.43803 0
M  V30 1094 C 114.865 -3.41106 1.19705 0
M  V30 1095 O 114.586 -3.53608 2.58636 0
M  V30 1096 C 116.087 -4.32663 0.965266 0
M  V30 1097 H 113.307 -0.604053 0.292166 0
M  V30 1098 H 115.851 -1.47026 1.4214 0
M  V30 1099 H 114.006 -3.82296 0.626774 0
M  V30 1100 H 114.42 -4.47011 2.74375 0
M  V30 1101 H 115.894 -5.36763 1.288 0
M  V30 1102 H 116.371 -4.39089 -0.0987936 0
M  V30 1103 H 116.977 -3.97206 1.52011 0
M  V30 1104 N 115.292 -0.849877 -1.32721 0
M  V30 1105 C 116.222 -0.306308 -2.31482 0
M  V30 1106 C 117.203 0.591952 -1.59468 0
M  V30 1107 O 118.388 0.513199 -1.87296 0
M  V30 1108 C 115.518 0.510204 -3.43532 0
M  V30 1109 C 114.472 -0.293209 -4.26994 0
M  V30 1110 C 113.798 0.647743 -5.30762 0
M  V30 1111 C 115.098 -1.51634 -4.99804 0
M  V30 1112 H 116.792 -1.13153 -2.77195 0
M  V30 1113 H 114.338 -0.545553 -1.33266 0
M  V30 1114 H 116.291 0.900856 -4.11658 0
M  V30 1115 H 115.015 1.36874 -2.96535 0
M  V30 1116 H 113.674 -0.665555 -3.60508 0
M  V30 1117 H 113.322 1.50299 -4.8002 0
M  V30 1118 H 113.022 0.11422 -5.87489 0
M  V30 1119 H 114.546 1.03567 -6.01753 0
M  V30 1120 H 115.96 -1.19824 -5.60638 0
M  V30 1121 H 114.357 -1.98745 -5.66234 0
M  V30 1122 H 115.427 -2.28018 -4.27943 0
M  V30 1123 N 116.77 1.45427 -0.607355 0
M  V30 1124 C 117.998 2.06614 -0.108814 0
M  V30 1125 C 118.413 1.45204 1.2067 0
M  V30 1126 O 117.77 0.566132 1.73497 0
M  V30 1127 C 117.821 3.61481 0.0375347 0
M  V30 1128 O 117.542 4.20598 -1.22593 0
M  V30 1129 C 119.043 4.39652 0.567561 0
M  V30 1130 H 116.263 0.66747 -0.0687351 0
M  V30 1131 H 118.807 1.86675 -0.835022 0
M  V30 1132 H 116.962 3.80762 0.714068 0
M  V30 1133 H 117.376 5.1377 -1.05547 0
M  V30 1134 H 118.85 5.48518 0.61905 0
M  V30 1135 H 119.327 4.09417 1.58978 0
M  V30 1136 H 119.933 4.25234 -0.0749202 0
M  V30 1137 N 118.248 0.346503 1.53744 0
M  V30 1138 C 119.476 -0.25041 2.05379 0
M  V30 1139 C 119.891 -1.43979 1.22129 0
M  V30 1140 O 119.248 -1.80677 0.257321 0
M  V30 1141 C 119.299 -0.662575 3.55376 0
M  V30 1142 O 119.02 0.479515 4.35468 0
M  V30 1143 C 120.521 -1.31989 4.23195 0
M  V30 1144 H 117.741 -0.0478198 0.669294 0
M  V30 1145 H 120.285 0.499346 1.9831 0
M  V30 1146 H 118.44 -1.36227 3.62658 0
M  V30 1147 H 118.854 0.15037 5.24284 0
M  V30 1148 H 120.328 -1.55902 5.29527 0
M  V30 1149 H 120.805 -2.27436 3.75725 0
M  V30 1150 H 121.411 -0.662154 4.20114 0
M  V30 1151 N 119.726 -1.57421 0.075193 0
M  V30 1152 C 120.673 -2.12915 -0.890843 0
M  V30 1153 C 121.643 -1.04252 -1.29309 0
M  V30 1154 O 122.828 -1.31933 -1.37834 0
M  V30 1155 C 119.968 -2.69795 -2.15186 0
M  V30 1156 C 119.081 -3.92624 -1.80194 0
M  V30 1157 C 118.216 -4.37736 -3.00933 0
M  V30 1158 C 117.255 -5.53205 -2.61974 0
M  V30 1159 N 116.392 -5.9326 -3.75483 0
M  V30 1160 H 121.232 -2.95156 -0.410735 0
M  V30 1161 H 118.769 -1.45854 -0.191086 0
M  V30 1162 H 120.727 -3.00883 -2.89008 0
M  V30 1163 H 119.357 -1.90313 -2.60731 0
M  V30 1164 H 118.409 -3.67977 -0.964218 0
M  V30 1165 H 119.721 -4.76482 -1.47534 0
M  V30 1166 H 118.875 -4.70503 -3.8303 0
M  V30 1167 H 117.614 -3.52739 -3.36789 0
M  V30 1168 H 116.619 -5.20086 -1.783 0
M  V30 1169 H 117.844 -6.39936 -2.27284 0
M  V30 1170 H 115.79 -5.11212 -4.11094 0
M  V30 1171 H 115.707 -6.71865 -3.46602 0
M  V30 1172 H 116.975 -6.30651 -4.58148 0
M  V30 1173 N 121.204 0.198386 -1.56346 0
M  V30 1174 C 122.452 0.91747 -1.80075 0
M  V30 1175 C 122.773 1.83929 -0.647692 0
M  V30 1176 O 122.043 1.93029 0.334166 0
M  V30 1177 H 120.623 0.341774 -0.664228 0
M  V30 1178 H 123.285 0.204684 -1.93822 0
M  V30 1179 H 122.381 1.51055 -2.7311 0
M  V30 1180 N 122.682 1.50554 0.465978 0
M  V30 1181 C 123.629 1.6979 1.56333 0
M  V30 1182 C 124.599 0.539239 1.57103 0
M  V30 1183 O 125.784 0.770401 1.74555 0
M  V30 1184 C 122.924 1.80273 2.94271 0
M  V30 1185 C 122.037 3.07674 3.0325 0
M  V30 1186 C 121.172 3.08922 4.32135 0
M  V30 1187 C 120.211 4.30755 4.34875 0
M  V30 1188 N 119.348 4.29714 5.55239 0
M  V30 1189 H 124.188 2.63472 1.39235 0
M  V30 1190 H 121.725 1.30602 0.676873 0
M  V30 1191 H 123.683 1.84332 3.74269 0
M  V30 1192 H 122.313 0.900258 3.09992 0
M  V30 1193 H 121.365 3.13062 2.16094 0
M  V30 1194 H 122.677 3.97642 3.01135 0
M  V30 1195 H 121.831 3.11738 5.20485 0
M  V30 1196 H 120.57 2.16792 4.36866 0
M  V30 1197 H 119.575 4.28146 3.44922 0
M  V30 1198 H 120.8 5.24117 4.31831 0
M  V30 1199 H 118.746 3.4044 5.60746 0
M  V30 1200 H 118.663 5.13456 5.54886 0
M  V30 1201 H 119.931 4.36683 6.457 0
M  V30 1202 N 124.16 -0.719506 1.40217 0
M  V30 1203 C 125.406 -1.48152 1.38488 0
M  V30 1204 C 125.739 -1.94195 -0.0141867 0
M  V30 1205 O 125.014 -1.67884 -0.982096 0
M  V30 1206 C 125.297 -2.71035 2.37091 0
M  V30 1207 C 125.15 -2.30912 3.86005 0
M  V30 1208 C 126.469 -3.73182 2.33288 0
M  V30 1209 H 123.588 -0.537395 0.504357 0
M  V30 1210 H 126.23 -0.821472 1.71324 0
M  V30 1211 H 124.38 -3.27352 2.0922 0
M  V30 1212 H 126.052 -1.80107 4.24687 0
M  V30 1213 H 124.295 -1.62958 4.02029 0
M  V30 1214 H 124.966 -3.18978 4.50508 0
M  V30 1215 H 127.442 -3.26485 2.57966 0
M  V30 1216 H 126.318 -4.56806 3.04334 0
M  V30 1217 H 126.579 -4.21202 1.34317 0
M  V30 1218 N 125.638 -1.25649 -0.95132 0
M  V30 1219 C 126.886 -1.10375 -1.69298 0
M  V30 1220 C 127.207 0.355339 -1.91735 0
M  V30 1221 O 126.477 1.25188 -1.50681 0
M  V30 1222 H 125.057 -0.405461 -0.627384 0
M  V30 1223 H 127.719 -1.57823 -1.14358 0
M  V30 1224 H 126.815 -1.61465 -2.67087 0
M  V30 1225 N 127.117 1.15442 -1.07289 0
M  V30 1226 C 128.394 1.82306 -0.708792 0
M  V30 1227 C 128.774 1.94991 0.808807 0
M  V30 1228 O 128.122 1.50085 1.72298 0
M  V30 1229 C 128.332 3.18695 -1.42247 0
M  V30 1230 C 129.68 3.94341 -1.57417 0
M  V30 1231 O 130.704 3.28247 -1.38319 0
M  V30 1232 O 129.563 5.12839 -1.88834 0
M  V30 1233 H 126.657 0.787628 -0.252132 0
M  V30 1234 H 129.203 1.22559 -1.17377 0
M  V30 1235 H 127.975 3.04557 -2.45684 0
M  V30 1236 H 127.598 3.86128 -0.948223 0
M  V30 1237 N 128.595 0.856903 1.32268 0
M  V30 1238 C 129.82 0.474569 2.01897 0
M  V30 1239 C 130.245 -0.921766 1.63967 0
M  V30 1240 O 129.603 -1.60589 0.84148 0
M  V30 1241 C 129.651 0.623799 3.55164 0
M  V30 1242 O 128.755 -0.342459 4.10976 0
M  V30 1243 H 128.096 0.190422 0.63611 0
M  V30 1244 H 130.626 1.15672 1.68764 0
M  V30 1245 H 130.636 0.512169 4.04773 0
M  V30 1246 H 129.311 1.64202 3.82113 0
M  V30 1247 H 127.888 -0.18688 3.72431 0
M  V30 1248 N 130.073 -1.45103 0.615059 0
M  V30 1249 C 131.003 -2.33339 -0.0865619 0
M  V30 1250 C 131.984 -1.4727 -0.851209 0
M  V30 1251 O 133.169 -1.76026 -0.820281 0
M  V30 1252 C 130.299 -3.30095 -1.07956 0
M  V30 1253 C 129.253 -4.25858 -0.427628 0
M  V30 1254 C 128.579 -5.12361 -1.5294 0
M  V30 1255 C 129.879 -5.18165 0.655944 0
M  V30 1256 H 131.573 -2.92254 0.650224 0
M  V30 1257 H 129.119 -1.40532 0.314138 0
M  V30 1258 H 131.072 -3.90698 -1.57901 0
M  V30 1259 H 129.796 -2.69355 -1.84703 0
M  V30 1260 H 128.455 -3.66564 0.0510292 0
M  V30 1261 H 128.103 -4.47984 -2.28734 0
M  V30 1262 H 127.803 -5.77238 -1.09865 0
M  V30 1263 H 129.327 -5.75833 -2.03098 0
M  V30 1264 H 130.741 -5.72796 0.240257 0
M  V30 1265 H 129.138 -5.91559 1.00888 0
M  V30 1266 H 130.208 -4.60144 1.52957 0
M  V30 1267 N 131.551 -0.354651 -1.53558 0
M  V30 1268 C 132.481 0.489091 -2.2832 0
M  V30 1269 C 133.462 1.09324 -1.30316 0
M  V30 1270 O 134.647 1.11255 -1.59173 0
M  V30 1271 C 131.777 1.63456 -3.0643 0
M  V30 1272 C 130.731 1.1582 -4.12031 0
M  V30 1273 C 130.057 2.39305 -4.7816 0
M  V30 1274 C 131.357 0.250731 -5.21698 0
M  V30 1275 H 133.051 -0.134614 -2.99097 0
M  V30 1276 H 130.597 -0.0661826 -1.43848 0
M  V30 1277 H 132.55 2.23136 -3.57475 0
M  V30 1278 H 131.274 2.28533 -2.33325 0
M  V30 1279 H 129.933 0.584146 -3.61916 0
M  V30 1280 H 129.581 3.02814 -4.01637 0
M  V30 1281 H 129.281 2.08109 -5.49513 0
M  V30 1282 H 130.805 2.99691 -5.31994 0
M  V30 1283 H 132.219 0.754695 -5.68311 0
M  V30 1284 H 130.616 0.0301468 -6.00092 0
M  V30 1285 H 131.686 -0.710125 -4.79672 0
M  V30 1286 N 133.029 1.57378 -0.0835403 0
M  V30 1287 C 134.306 1.85363 0.624507 0
M  V30 1288 C 134.686 0.978239 1.87066 0
M  V30 1289 O 134.034 0.0475908 2.2845 0
M  V30 1290 C 134.244 3.35795 0.950947 0
M  V30 1291 C 135.592 4.03581 1.31939 0
M  V30 1292 O 136.616 3.40609 1.04232 0
M  V30 1293 O 135.475 5.14672 1.83779 0
M  V30 1294 H 132.569 0.766162 0.311329 0
M  V30 1295 H 135.115 1.69307 -0.115362 0
M  V30 1296 H 133.887 3.91244 0.0663899 0
M  V30 1297 H 133.51 3.57154 1.74719 0
M  V30 1298 N 134.507 -0.190092 1.56449 0
M  V30 1299 C 135.753 -0.911052 1.81184 0
M  V30 1300 C 136.086 -1.82699 0.658396 0
M  V30 1301 O 135.361 -1.91491 -0.340775 0
M  V30 1302 C 135.644 -1.72297 3.16205 0
M  V30 1303 C 135.497 -0.831419 4.42049 0
M  V30 1304 C 136.816 -2.69454 3.47969 0
M  V30 1305 H 133.935 -0.32977 0.659106 0
M  V30 1306 H 136.577 -0.178169 1.89163 0
M  V30 1307 H 134.727 -2.34778 3.09534 0
M  V30 1308 H 136.399 -0.220929 4.60771 0
M  V30 1309 H 134.642 -0.138406 4.33579 0
M  V30 1310 H 135.313 -1.43461 5.33032 0
M  V30 1311 H 137.789 -2.17104 3.54972 0
M  V30 1312 H 136.665 -3.23342 4.43555 0
M  V30 1313 H 136.926 -3.48744 2.71717 0
M  V30 1314 N 135.985 -1.50799 -0.457987 0
M  V30 1315 C 137.231 -1.62683 -1.21088 0
M  V30 1316 C 137.564 -0.332268 -1.91336 0
M  V30 1317 O 136.839 0.667043 -1.82704 0
M  V30 1318 C 137.122 -2.81615 -2.24422 0
M  V30 1319 C 136.975 -4.20989 -1.58392 0
M  V30 1320 C 138.294 -2.96085 -3.2561 0
M  V30 1321 H 135.413 -0.592087 -0.438864 0
M  V30 1322 H 138.055 -1.83225 -0.50286 0
M  V30 1323 H 136.205 -2.64231 -2.84806 0
M  V30 1324 H 137.877 -4.49994 -1.01504 0
M  V30 1325 H 136.12 -4.24641 -0.886704 0
M  V30 1326 H 136.791 -5.0016 -2.33547 0
M  V30 1327 H 139.267 -3.12042 -2.75262 0
M  V30 1328 H 138.143 -3.80902 -3.95228 0
M  V30 1329 H 138.404 -2.0726 -3.90507 0
M  V30 1330 N 137.463 0.71206 -1.40597 0
M  V30 1331 C 138.709 1.47416 -1.39271 0
M  V30 1332 C 139.042 1.942 0.00388791 0
M  V30 1333 O 138.317 1.68403 0.973179 0
M  V30 1334 C 138.6 2.69774 -2.38525 0
M  V30 1335 C 138.453 2.28861 -3.87224 0
M  V30 1336 C 139.772 3.71939 -2.35264 0
M  V30 1337 H 136.891 0.534713 -0.5072 0
M  V30 1338 H 139.533 0.812375 -1.71757 0
M  V30 1339 H 137.683 3.26238 -2.10953 0
M  V30 1340 H 139.355 1.77852 -4.25636 0
M  V30 1341 H 137.598 1.60824 -4.02887 0
M  V30 1342 H 138.269 3.16584 -4.52193 0
M  V30 1343 H 140.745 3.25113 -2.59694 0
M  V30 1344 H 139.621 4.55186 -3.06753 0
M  V30 1345 H 139.882 4.20484 -1.36549 0
M  V30 1346 N 138.941 1.26152 0.944643 0
M  V30 1347 C 139.851 1.09176 2.07648 0
M  V30 1348 C 140.867 0.0261935 1.7398 0
M  V30 1349 O 142.043 0.229208 2.00091 0
M  V30 1350 C 139.108 0.722915 3.39079 0
M  V30 1351 C 138.169 1.86752 3.86552 0
M  V30 1352 C 137.402 1.51617 5.11711 0
M  V30 1353 O 137.625 0.416331 5.68879 0
M  V30 1354 O 136.559 2.34975 5.54139 0
M  V30 1355 H 140.385 2.0412 2.24875 0
M  V30 1356 H 137.97 1.05182 1.061 0
M  V30 1357 H 139.852 0.529787 4.18056 0
M  V30 1358 H 138.527 -0.197159 3.23099 0
M  V30 1359 H 137.434 2.11558 3.08535 0
M  V30 1360 H 138.767 2.76719 4.07047 0
M  V30 1361 N 140.419 -1.14872 1.07899 0
M  V30 1362 C 141.367 -2.21857 0.698727 0
M  V30 1363 C 142.361 -1.66845 -0.293086 0
M  V30 1364 O 143.567 -1.79321 -0.156204 0
M  V30 1365 H 139.942 -0.722691 0.207899 0
M  V30 1366 H 141.913 -2.51205 1.61054 0
M  V30 1367 C 140.662 -3.47498 0.11858 0
M  V30 1368 H 139.985 -3.90154 0.872914 0
M  V30 1369 H 141.425 -4.23858 -0.109759 0
M  V30 1370 C 139.884 -3.16947 -1.1422 0
M  V30 1371 O 140.414 -3.3426 -2.22785 0
M  V30 1372 N 138.62 -2.70946 -1.05055 0
M  V30 1373 H 138.167 -2.57058 -0.167038 0
M  V30 1374 H 138.125 -2.50879 -1.89491 0
M  V30 1375 N 141.898 -0.863906 -1.31812 0
M  V30 1376 C 142.846 -0.30422 -2.30602 0
M  V30 1377 C 143.84 0.577419 -1.59255 0
M  V30 1378 O 145.046 0.464194 -1.73912 0
M  V30 1379 H 141.421 -0.0796877 -0.747766 0
M  V30 1380 H 143.392 -1.15148 -2.75288 0
M  V30 1381 C 142.141 0.484617 -3.44306 0
M  V30 1382 H 141.464 -0.18451 -3.99374 0
M  V30 1383 H 142.904 0.841664 -4.15562 0
M  V30 1384 C 141.363 1.6735 -2.92396 0
M  V30 1385 O 141.893 2.77273 -2.90659 0
M  V30 1386 N 140.099 1.50362 -2.48676 0
M  V30 1387 H 139.646 0.609402 -2.50288 0
M  V30 1388 H 139.604 2.30051 -2.14299 0
M  V30 1389 N 143.376 1.44774 -0.622745 0
M  V30 1390 C 144.306 2.33382 0.0741861 0
M  V30 1391 C 145.287 1.47719 0.843387 0
M  V30 1392 O 146.472 1.76458 0.810934 0
M  V30 1393 C 143.602 3.30663 1.06204 0
M  V30 1394 C 142.556 4.26079 0.405037 0
M  V30 1395 C 141.882 5.13165 1.5022 0
M  V30 1396 C 143.182 5.1781 -0.683414 0
M  V30 1397 H 144.876 2.91905 -0.665713 0
M  V30 1398 H 142.422 1.40363 -0.321587 0
M  V30 1399 H 144.375 3.9153 1.55827 0
M  V30 1400 H 143.099 2.70331 1.83272 0
M  V30 1401 H 141.758 3.66532 -0.0704683 0
M  V30 1402 H 141.406 4.49191 2.26355 0
M  V30 1403 H 141.106 5.77812 1.06803 0
M  V30 1404 H 142.63 5.76902 2.00041 0
M  V30 1405 H 144.044 5.72661 -0.270631 0
M  V30 1406 H 142.441 5.91015 -1.04023 0
M  V30 1407 H 143.511 4.59326 -1.55395 0
M  V30 1408 N 144.854 0.36279 1.53368 0
M  V30 1409 C 146.131 -0.284021 1.93527 0
M  V30 1410 C 146.511 -1.66628 1.29608 0
M  V30 1411 O 145.859 -2.23942 0.45413 0
M  V30 1412 C 146.069 -0.337028 3.47369 0
M  V30 1413 C 147.417 -0.578708 4.20638 0
M  V30 1414 O 148.441 -0.418352 3.53735 0
M  V30 1415 O 147.3 -0.89074 5.39192 0
M  V30 1416 H 144.394 -0.169743 0.809393 0
M  V30 1417 H 146.94 0.41537 1.64538 0
M  V30 1418 H 145.712 0.632217 3.86159 0
M  V30 1419 H 145.335 -1.08243 3.82582 0
M  V30 1420 N 146.332 -1.57332 0.0918853 0
M  V30 1421 C 147.581 -1.93412 -0.572249 0
M  V30 1422 C 147.894 -0.975515 -1.69538 0
M  V30 1423 O 149.1 -1.22991 -2.42045 0
M  V30 1424 C 147.556 -3.43648 -1.0693 0
M  V30 1425 C 147.164 -4.47994 0.0239049 0
M  V30 1426 C 148.908 -3.88695 -1.70635 0
M  V30 1427 C 146.815 -5.89381 -0.488319 0
M  V30 1428 H 145.745 -0.721939 -0.217532 0
M  V30 1429 H 148.396 -1.82735 0.167369 0
M  V30 1430 H 146.778 -3.49466 -1.8625 0
M  V30 1431 H 147.952 -4.53815 0.799277 0
M  V30 1432 H 146.267 -4.12536 0.565946 0
M  V30 1433 H 148.864 -4.91725 -2.10025 0
M  V30 1434 H 149.207 -3.27166 -2.57426 0
M  V30 1435 H 149.74 -3.85564 -0.979023 0
M  V30 1436 H 146.479 -6.54602 0.342906 0
M  V30 1437 H 145.999 -5.87037 -1.23077 0
M  V30 1438 H 147.678 -6.39863 -0.958317 0
M  V30 1439 N 147.81 0.181792 -1.56548 0
M  V30 1440 C 149.087 0.926765 -1.72251 0
M  V30 1441 C 149.467 2.00831 -0.650386 0
M  V30 1442 O 148.815 2.26008 0.336521 0
M  V30 1443 C 149.025 1.50106 -3.1507 0
M  V30 1444 C 150.373 1.97805 -3.75711 0
M  V30 1445 O 151.397 1.59922 -3.18282 0
M  V30 1446 O 150.256 2.67555 -4.76525 0
M  V30 1447 H 147.35 0.435506 -0.703039 0
M  V30 1448 H 149.896 0.170443 -1.68842 0
M  V30 1449 H 148.668 0.72212 -3.84579 0
M  V30 1450 H 148.291 2.32186 -3.22763 0
M  V30 1451 N 149.288 1.51039 0.449983 0
M  V30 1452 C 150.536 1.62759 1.19808 0
M  V30 1453 C 150.857 0.339981 1.92013 0
M  V30 1454 O 150.127 -0.643606 1.85026 0
M  V30 1455 H 148.707 0.599811 0.445237 0
M  V30 1456 H 151.369 1.87914 0.517138 0
M  V30 1457 H 150.465 2.44911 1.93455 0
M  V30 1458 N 150.766 -0.704594 1.40972 0
M  V30 1459 C 152.013 -1.46458 1.39844 0
M  V30 1460 C 152.341 -1.94499 0.00447594 0
M  V30 1461 O 151.596 -1.69275 -0.982057 0
M  V30 1462 C 151.895 -2.698 2.34399 0
M  V30 1463 C 151.561 -2.40464 3.81429 0
M  V30 1464 C 150.223 -2.32174 4.21484 0
M  V30 1465 C 152.575 -2.16086 4.74296 0
M  V30 1466 C 149.903 -1.97589 5.52427 0
M  V30 1467 C 152.255 -1.83011 6.05549 0
M  V30 1468 C 150.919 -1.7321 6.44635 0
M  V30 1469 H 150.189 -0.535927 0.511725 0
M  V30 1470 H 152.836 -0.806124 1.73706 0
M  V30 1471 H 151.141 -3.40536 1.93759 0
M  V30 1472 H 152.838 -3.27919 2.30804 0
M  V30 1473 H 149.428 -2.47808 3.49699 0
M  V30 1474 H 153.612 -2.2144 4.4416 0
M  V30 1475 H 148.868 -1.88547 5.81601 0
M  V30 1476 H 153.042 -1.63164 6.77016 0
M  V30 1477 H 150.669 -1.46179 7.46013 0
M  V30 1478 N 152.244 -1.26651 -0.937939 0
M  V30 1479 C 153.492 -1.12165 -1.68118 0
M  V30 1480 C 153.813 0.334983 -1.92101 0
M  V30 1481 O 153.083 1.23583 -1.52 0
M  V30 1482 H 151.663 -0.412093 -0.623048 0
M  V30 1483 H 154.325 -1.59027 -1.12678 0
M  V30 1484 H 153.421 -1.64289 -2.6536 0
M  V30 1485 N 153.722 1.14298 -1.08507 0
M  V30 1486 C 154.685 2.17607 -0.719711 0
M  V30 1487 C 155.685 1.58907 0.245997 0
M  V30 1488 O 156.875 1.74181 0.0254081 0
M  V30 1489 C 154.007 3.40842 -0.0627695 0
M  V30 1490 H 155.2 2.51443 -1.63452 0
M  V30 1491 H 152.753 1.28963 -0.88307 0
M  V30 1492 H 153.488 3.12587 0.863716 0
M  V30 1493 H 153.273 3.84713 -0.757504 0
M  V30 1494 H 154.763 4.17221 0.177786 0
M  V30 1495 N 155.201 0.870884 1.31352 0
M  V30 1496 C 156.441 0.488783 1.9847 0
M  V30 1497 C 156.805 -0.941536 1.67329 0
M  V30 1498 O 158.006 -1.42903 2.27667 0
M  V30 1499 C 156.277 0.739688 3.49662 0
M  V30 1500 S 157.836 0.457582 4.36408 0
M  V30 1501 H 154.654 0.18242 0.6872 0
M  V30 1502 H 157.256 1.12711 1.59739 0
M  V30 1503 H 155.96 1.77944 3.69816 0
M  V30 1504 H 155.491 0.0883905 3.93301 0
M  V30 1505 H 157.506 -0.709752 4.91098 0
M  V30 1506 N 156.679 -1.44442 0.630414 0
M  V30 1507 C 157.589 -2.34476 -0.0761693 0
M  V30 1508 C 158.605 -1.52576 -0.836449 0
M  V30 1509 O 159.781 -1.85307 -0.788874 0
M  V30 1510 C 156.846 -3.30545 -1.04599 0
M  V30 1511 C 155.907 -4.28352 -0.28516 0
M  V30 1512 C 155.14 -5.19831 -1.20878 0
M  V30 1513 O 155.363 -5.15223 -2.44747 0
M  V30 1514 O 154.297 -5.97892 -0.693491 0
M  V30 1515 H 158.123 -2.96345 0.664324 0
M  V30 1516 H 155.708 -1.44203 0.39061 0
M  V30 1517 H 157.59 -3.89681 -1.60396 0
M  V30 1518 H 156.265 -2.7121 -1.76711 0
M  V30 1519 H 155.172 -3.72764 0.315837 0
M  V30 1520 H 156.505 -4.90605 0.395924 0
M  V30 1521 N 158.157 -0.370918 -1.53173 0
M  V30 1522 C 159.405 0.216673 -2.00935 0
M  V30 1523 C 159.726 1.48845 -1.25977 0
M  V30 1524 O 158.996 1.92286 -0.374551 0
M  V30 1525 H 157.576 0.0830565 -0.742368 0
M  V30 1526 H 160.238 -0.49838 -1.8842 0
M  V30 1527 H 159.334 0.439893 -3.08984 0
M  V30 1528 N 159.635 1.57281 -0.100228 0
M  V30 1529 C 160.863 1.98879 0.570509 0
M  V30 1530 C 161.278 0.979476 1.61405 0
M  V30 1531 O 160.635 -0.0302288 1.82475 0
M  V30 1532 C 160.686 3.4052 1.2136 0
M  V30 1533 O 160.407 4.37588 0.211786 0
M  V30 1534 C 161.908 3.97149 1.96945 0
M  V30 1535 H 159.128 0.653428 0.152555 0
M  V30 1536 H 161.672 2.03697 -0.18103 0
M  V30 1537 H 159.827 3.367 1.91603 0
M  V30 1538 H 160.241 5.20118 0.676607 0
M  V30 1539 H 161.715 4.98393 2.37294 0
M  V30 1540 H 162.192 3.3525 2.83733 0
M  V30 1541 H 162.798 4.04458 1.31506 0
M  V30 1542 N 161.113 -0.173488 1.56642 0
M  V30 1543 C 162.043 -1.2171 1.99271 0
M  V30 1544 C 163.024 -1.46289 0.867959 0
M  V30 1545 O 164.209 -1.5766 1.13388 0
M  V30 1546 C 161.339 -2.55651 2.35074 0
M  V30 1547 C 160.293 -2.45645 3.50489 0
M  V30 1548 C 159.619 -3.84056 3.72028 0
M  V30 1549 C 160.919 -1.96302 4.84007 0
M  V30 1550 H 162.613 -0.86275 2.867 0
M  V30 1551 H 160.159 -0.413571 1.37933 0
M  V30 1552 H 162.112 -3.2886 2.63494 0
M  V30 1553 H 160.836 -2.92869 1.44552 0
M  V30 1554 H 159.495 -1.7489 3.22194 0
M  V30 1555 H 159.143 -4.18664 2.788 0
M  V30 1556 H 158.843 -3.7823 4.49684 0
M  V30 1557 H 160.367 -4.58854 4.02846 0
M  V30 1558 H 161.781 -2.59284 5.11317 0
M  V30 1559 H 160.178 -2.01429 5.65284 0
M  V30 1560 H 161.248 -0.917226 4.76146 0
M  V30 1561 N 162.591 -1.51276 -0.441967 0
M  V30 1562 C 163.554 -1.7167 -1.51862 0
M  V30 1563 C 164.554 -0.586793 -1.49711 0
M  V30 1564 O 165.744 -0.854276 -1.51815 0
M  V30 1565 C 162.876 -1.76889 -2.91416 0
M  V30 1566 H 164.069 -2.67754 -1.35084 0
M  V30 1567 H 161.622 -1.41196 -0.670333 0
M  V30 1568 H 162.357 -0.826026 -3.13604 0
M  V30 1569 H 162.142 -2.59001 -2.94382 0
M  V30 1570 H 163.632 -1.94522 -3.69528 0
M  V30 1571 N 164.069 0.697108 -1.41344 0
M  V30 1572 C 165.309 1.46939 -1.42085 0
M  V30 1573 C 165.673 1.9198 -0.0280397 0
M  V30 1574 O 166.874 2.6865 0.0897504 0
M  V30 1575 C 165.145 2.64985 -2.39828 0
M  V30 1576 S 166.704 3.54147 -2.59085 0
M  V30 1577 H 163.522 0.502146 -0.503359 0
M  V30 1578 H 166.124 0.813546 -1.77769 0
M  V30 1579 H 164.828 2.30098 -3.39828 0
M  V30 1580 H 164.359 3.35464 -2.05493 0
M  V30 1581 H 166.374 4.60137 -1.85711 0
M  V30 1582 N 165.547 1.27147 0.931209 0
M  V30 1583 C 166.772 1.16191 1.71797 0
M  V30 1584 C 167.197 -0.278004 1.86034 0
M  V30 1585 O 166.555 -1.20137 1.35782 0
M  V30 1586 C 166.603 1.84673 3.09723 0
M  V30 1587 O 165.707 1.14231 3.96264 0
M  V30 1588 H 165.048 0.404303 0.526721 0
M  V30 1589 H 167.578 1.68152 1.1656 0
M  V30 1590 H 167.588 1.91893 3.60057 0
M  V30 1591 H 166.263 2.89421 2.98677 0
M  V30 1592 H 164.84 1.15056 3.54706 0
M  V30 1593 N 167.025 -1.13721 1.09112 0
M  V30 1594 C 168.253 -1.88773 0.846899 0
M  V30 1595 C 168.668 -1.7896 -0.601572 0
M  V30 1596 O 168.025 -1.15394 -1.41388 0
M  V30 1597 C 168.076 -3.3849 1.26913 0
M  V30 1598 O 167.797 -3.48043 2.66079 0
M  V30 1599 C 169.298 -4.30518 1.05682 0
M  V30 1600 H 166.518 -0.59772 0.304914 0
M  V30 1601 H 169.062 -1.43977 1.45227 0
M  V30 1602 H 167.217 -3.80881 0.707723 0
M  V30 1603 H 167.631 -4.4109 2.83795 0
M  V30 1604 H 169.105 -5.3391 1.40156 0
M  V30 1605 H 169.582 -4.392 -0.00563416 0
M  V30 1606 H 170.188 -3.93893 1.60402 0
M  V30 1607 N 168.503 -0.877838 -1.30888 0
M  V30 1608 C 169.743 -0.499301 -1.98208 0
M  V30 1609 C 170.107 0.932649 -1.67826 0
M  V30 1610 O 171.308 1.41694 -2.28421 0
M  V30 1611 C 169.579 -0.758221 -3.49265 0
M  V30 1612 S 171.138 -0.480719 -4.36159 0
M  V30 1613 H 167.956 -0.186062 -0.686223 0
M  V30 1614 H 170.558 -1.13556 -1.59139 0
M  V30 1615 H 169.262 -1.79903 -3.68867 0
M  V30 1616 H 168.793 -0.109247 -3.93248 0
M  V30 1617 H 170.808 0.683698 -4.91467 0
M  V30 1618 N 169.982 1.44106 -0.638065 0
M  V30 1619 C 170.932 2.27843 0.0847285 0
M  V30 1620 C 171.916 1.39055 0.809471 0
M  V30 1621 O 173.108 1.62808 0.694435 0
M  V30 1622 C 170.237 3.26497 1.06089 0
M  V30 1623 C 169.323 4.22772 0.33541 0
M  V30 1624 N 169.714 5.01737 -0.639787 0
M  V30 1625 C 168.012 4.42227 0.578921 0
M  V30 1626 C 168.713 5.71792 -1.06904 0
M  V30 1627 N 167.689 5.42079 -0.406395 0
M  V30 1628 H 171.491 2.86305 -0.663814 0
M  V30 1629 H 169.005 1.55627 -0.464122 0
M  V30 1630 H 171.002 3.8525 1.59337 0
M  V30 1631 H 169.662 2.69595 1.80966 0
M  V30 1632 H 170.673 5.07799 -1.01789 0
M  V30 1633 H 167.35 3.96415 1.31003 0
M  V30 1634 H 168.74 6.45205 -1.8751 0
M  V30 1635 N 171.46 0.379036 1.52974 0
M  V30 1636 C 172.39 -0.452706 2.29069 0
M  V30 1637 C 173.371 -1.07237 1.32039 0
M  V30 1638 O 174.556 -1.08708 1.60923 0
M  V30 1639 C 171.686 -1.5856 3.08992 0
M  V30 1640 C 170.64 -1.0925 4.13822 0
M  V30 1641 C 169.966 -2.31668 4.81907 0
M  V30 1642 C 171.266 -0.167702 5.22031 0
M  V30 1643 H 172.96 0.182181 2.98845 0
M  V30 1644 H 170.506 0.0890592 1.43724 0
M  V30 1645 H 172.459 -2.1742 3.6098 0
M  V30 1646 H 171.183 -2.24792 2.36931 0
M  V30 1647 H 169.842 -0.526494 3.628 0
M  V30 1648 H 169.49 -2.96386 4.06404 0
M  V30 1649 H 169.19 -1.9934 5.52754 0
M  V30 1650 H 170.714 -2.91189 5.36695 0
M  V30 1651 H 172.128 -0.664186 5.6944 0
M  V30 1652 H 170.525 0.0653265 6.00064 0
M  V30 1653 H 171.595 0.786347 4.78482 0
M  V30 1654 N 172.938 -1.57226 0.108567 0
M  V30 1655 C 174.187 -1.94008 -0.551703 0
M  V30 1656 C 174.5 -0.993442 -1.68494 0
M  V30 1657 O 175.706 -1.25551 -2.40726 0
M  V30 1658 C 174.162 -3.44763 -1.03279 0
M  V30 1659 C 173.77 -4.47943 0.0714193 0
M  V30 1660 C 175.514 -3.90483 -1.66503 0
M  V30 1661 C 173.421 -5.89865 -0.425779 0
M  V30 1662 H 172.351 -0.724206 -0.209863 0
M  V30 1663 H 175.002 -1.82547 0.186741 0
M  V30 1664 H 173.384 -3.51422 -1.82533 0
M  V30 1665 H 174.558 -4.52942 0.847365 0
M  V30 1666 H 172.873 -4.11913 0.609669 0
M  V30 1667 H 175.47 -4.93925 -2.04798 0
M  V30 1668 H 175.813 -3.29877 -2.53942 0
M  V30 1669 H 176.346 -3.86581 -0.938074 0
M  V30 1670 H 173.085 -6.54202 0.412316 0
M  V30 1671 H 172.605 -5.88309 -1.16843 0
M  V30 1672 H 174.284 -6.40844 -0.890397 0
M  V30 1673 N 174.416 0.165178 -1.56732 0
M  V30 1674 C 175.663 0.880807 -1.8234 0
M  V30 1675 C 175.991 1.81977 -0.686621 0
M  V30 1676 O 175.246 1.92971 0.325697 0
M  V30 1677 C 175.545 1.70405 -3.1416 0
M  V30 1678 C 175.211 0.913475 -4.4155 0
M  V30 1679 C 173.873 0.695303 -4.7615 0
M  V30 1680 C 176.225 0.359349 -5.1996 0
M  V30 1681 C 173.553 -0.0879947 -5.86634 0
M  V30 1682 C 175.905 -0.410893 -6.31264 0
M  V30 1683 C 174.569 -0.639808 -6.64427 0
M  V30 1684 H 173.839 0.32231 -0.667231 0
M  V30 1685 H 176.486 0.145402 -1.90947 0
M  V30 1686 H 174.791 2.50903 -3.00923 0
M  V30 1687 H 176.488 2.26091 -3.31186 0
M  V30 1688 H 173.078 1.09357 -4.14414 0
M  V30 1689 H 177.262 0.515228 -4.93618 0
M  V30 1690 H 172.518 -0.27503 -6.10781 0
M  V30 1691 H 176.692 -0.847494 -6.91224 0
M  V30 1692 H 174.319 -1.24864 -7.49875 0
M  V30 1693 N 175.894 1.51508 0.433938 0
M  V30 1694 C 176.804 1.75917 1.5521 0
M  V30 1695 C 177.82 0.643545 1.61662 0
M  V30 1696 O 178.996 0.926183 1.7884 0
M  V30 1697 C 176.061 1.88213 2.91164 0
M  V30 1698 C 175.122 3.12074 2.94802 0
M  V30 1699 C 174.355 3.23774 4.24271 0
M  V30 1700 O 174.578 2.4133 5.16833 0
M  V30 1701 O 173.512 4.16774 4.34262 0
M  V30 1702 H 177.338 2.70777 1.37527 0
M  V30 1703 H 174.923 1.36051 0.617293 0
M  V30 1704 H 176.805 1.98267 3.71845 0
M  V30 1705 H 175.48 0.965413 3.08968 0
M  V30 1706 H 174.387 3.07497 2.13065 0
M  V30 1707 H 175.72 4.03446 2.81943 0
M  V30 1708 N 177.372 -0.689602 1.41712 0
M  V30 1709 C 178.649 -1.44457 1.31877 0
M  V30 1710 C 179.029 -2.11039 -0.0508537 0
M  V30 1711 O 178.377 -2.02138 -1.06547 0
M  V30 1712 C 178.587 -2.45913 2.47645 0
M  V30 1713 C 179.935 -3.10991 2.89084 0
M  V30 1714 O 180.959 -2.56238 2.47428 0
M  V30 1715 O 179.818 -4.10174 3.61137 0
M  V30 1716 H 176.912 -0.64362 0.519309 0
M  V30 1717 H 179.458 -0.719576 1.53689 0
M  V30 1718 H 178.23 -1.95409 3.39015 0
M  V30 1719 H 177.853 -3.25913 2.27742 0
M  V30 1720 N 178.85 -1.27639 -0.924453 0
M  V30 1721 C 179.8 -1.07295 -2.01176 0
M  V30 1722 C 180.784 5.77352e-05 -1.609 0
M  V30 1723 O 181.976 -0.218855 -1.75642 0
M  V30 1724 C 179.105 -0.725592 -3.35544 0
M  V30 1725 C 178.191 -1.83691 -3.82254 0
M  V30 1726 N 178.582 -3.07697 -4.01443 0
M  V30 1727 C 176.88 -1.72433 -4.11319 0
M  V30 1728 C 177.581 -3.80037 -4.40394 0
M  V30 1729 N 176.557 -3.0782 -4.48049 0
M  V30 1730 H 180.359 -2.01399 -2.14046 0
M  V30 1731 H 177.873 -1.18401 -1.11153 0
M  V30 1732 H 179.87 -0.560959 -4.13109 0
M  V30 1733 H 178.53 0.207782 -3.24034 0
M  V30 1734 H 179.541 -3.43424 -3.8766 0
M  V30 1735 H 176.218 -0.862005 -4.08504 0
M  V30 1736 H 177.608 -4.86632 -4.63291 0
M  V30 1737 N 180.328 1.1314 -1.09713 0
M  V30 1738 C 181.577 1.83838 -0.829851 0
M  V30 1739 C 181.89 1.84599 0.646728 0
M  V30 1740 O 183.096 2.51218 1.02965 0
M  V30 1741 C 181.552 3.30069 -1.43466 0
M  V30 1742 C 181.16 3.37688 -2.94399 0
M  V30 1743 C 182.904 4.05788 -1.24645 0
M  V30 1744 C 180.811 4.78209 -3.47952 0
M  V30 1745 H 179.741 0.68877 -0.306777 0
M  V30 1746 H 182.392 1.27448 -1.3202 0
M  V30 1747 H 180.774 3.8628 -0.871996 0
M  V30 1748 H 181.948 2.91456 -3.56918 0
M  V30 1749 H 180.263 2.75436 -3.12289 0
M  V30 1750 H 182.86 5.09535 -1.62107 0
M  V30 1751 H 183.203 4.15878 -0.187357 0
M  V30 1752 H 183.736 3.55915 -1.77678 0
M  V30 1753 H 180.475 4.73311 -4.53495 0
M  V30 1754 H 179.995 5.24924 -2.90198 0
M  V30 1755 H 181.674 5.47133 -3.45332 0
M  V30 1756 N 181.806 0.884767 1.30421 0
M  V30 1757 C 183.036 0.517293 2.00019 0
M  V30 1758 C 183.444 -0.898632 1.66497 0
M  V30 1759 O 182.787 -1.60245 0.898181 0
M  V30 1760 C 182.849 0.612025 3.54252 0
M  V30 1761 C 182.513 1.99222 4.1129 0
M  V30 1762 C 183.51 2.9616 4.273 0
M  V30 1763 C 181.195 2.29755 4.46674 0
M  V30 1764 C 183.189 4.21764 4.77906 0
M  V30 1765 C 180.876 3.55606 4.96979 0
M  V30 1766 C 181.874 4.51425 5.12547 0
M  V30 1767 O 181.562 5.75043 5.61766 0
M  V30 1768 H 181.294 0.198529 0.64619 0
M  V30 1769 H 183.848 1.1919 1.67281 0
M  V30 1770 H 182.078 -0.119561 3.86515 0
M  V30 1771 H 183.767 0.255859 4.05093 0
M  V30 1772 H 184.533 2.73882 4.00267 0
M  V30 1773 H 180.412 1.55942 4.33824 0
M  V30 1774 H 183.956 4.96561 4.89972 0
M  V30 1775 H 179.853 3.7772 5.23448 0
M  V30 1776 H 180.621 5.77422 5.80109 0
M  V30 1777 N 183.284 -1.43765 0.645699 0
M  V30 1778 C 184.194 -2.34544 -0.0512957 0
M  V30 1779 C 185.21 -1.53455 -0.82022 0
M  V30 1780 O 186.386 -1.86133 -0.769176 0
M  V30 1781 C 183.451 -3.31636 -1.01087 0
M  V30 1782 C 182.512 -4.2863 -0.239712 0
M  V30 1783 C 181.745 -5.21084 -1.15358 0
M  V30 1784 O 181.968 -5.1779 -2.39269 0
M  V30 1785 O 180.902 -5.98593 -0.630038 0
M  V30 1786 H 184.728 -2.95624 0.695718 0
M  V30 1787 H 182.313 -1.43781 0.405882 0
M  V30 1788 H 184.195 -3.9136 -1.56254 0
M  V30 1789 H 182.87 -2.73069 -1.73824 0
M  V30 1790 H 181.777 -3.72408 0.355356 0
M  V30 1791 H 183.11 -4.90157 0.447936 0
M  V30 1792 N 184.763 -0.387143 -1.52771 0
M  V30 1793 C 185.71 0.449048 -2.26389 0
M  V30 1794 C 186.68 1.05961 -1.27912 0
M  V30 1795 O 187.865 1.08804 -1.56737 0
M  V30 1796 C 185.005 1.57155 -3.0724 0
M  V30 1797 C 184.118 0.984066 -4.20643 0
M  V30 1798 C 183.253 2.07745 -4.88892 0
M  V30 1799 C 182.292 1.46574 -5.94292 0
M  V30 1800 N 181.429 2.49834 -6.56146 0
M  V30 1801 H 186.269 -0.185205 -2.97424 0
M  V30 1802 H 183.806 -0.103164 -1.46738 0
M  V30 1803 H 185.764 2.23309 -3.52405 0
M  V30 1804 H 184.394 2.17615 -2.38419 0
M  V30 1805 H 183.446 0.212193 -3.79808 0
M  V30 1806 H 184.758 0.497029 -4.96318 0
M  V30 1807 H 183.912 2.81673 -5.3735 0
M  V30 1808 H 182.651 2.59807 -4.12737 0
M  V30 1809 H 181.656 0.711696 -5.45174 0
M  V30 1810 H 182.881 0.953088 -6.72379 0
M  V30 1811 H 180.827 3.0107 -5.82832 0
M  V30 1812 H 180.744 2.05879 -7.27427 0
M  V30 1813 H 182.012 3.23399 -7.09249 0
M  V30 1814 N 186.241 1.57166 -0.116904 0
M  V30 1815 C 187.171 2.18222 0.830759 0
M  V30 1816 C 188.152 1.12167 1.27877 0
M  V30 1817 O 189.337 1.40394 1.34176 0
M  V30 1818 C 186.467 2.77996 2.08172 0
M  V30 1819 C 185.421 3.89614 1.77157 0
M  V30 1820 C 184.747 4.36187 3.09265 0
M  V30 1821 C 186.047 5.1181 1.04151 0
M  V30 1822 H 187.741 2.97664 0.321992 0
M  V30 1823 H 185.287 1.4318 0.153434 0
M  V30 1824 H 187.24 3.19366 2.74924 0
M  V30 1825 H 185.964 1.9584 2.6137 0
M  V30 1826 H 184.623 3.48816 1.12796 0
M  V30 1827 H 184.271 3.50893 3.60393 0
M  V30 1828 H 183.971 5.11455 2.89288 0
M  V30 1829 H 185.495 4.80207 3.77139 0
M  V30 1830 H 186.909 5.50214 1.61052 0
M  V30 1831 H 185.306 5.92648 0.942762 0
M  V30 1832 H 186.376 4.84892 0.0279022 0
M  V30 1833 N 187.719 -0.156864 1.56817 0
M  V30 1834 C 188.996 -0.899244 1.73704 0
M  V30 1835 C 189.376 -1.99771 0.682254 0
M  V30 1836 O 188.724 -2.26515 -0.300522 0
M  V30 1837 C 188.934 -1.45075 3.17418 0
M  V30 1838 C 190.282 -1.91802 3.7881 0
M  V30 1839 O 191.306 -1.54838 3.20786 0
M  V30 1840 O 190.165 -2.5994 4.80722 0
M  V30 1841 H 187.259 -0.424267 0.709878 0
M  V30 1842 H 189.805 -0.143561 1.69092 0
M  V30 1843 H 188.577 -0.660846 3.85679 0
M  V30 1844 H 188.2 -2.27021 3.26416 0
M  V30 1845 N 189.197 -1.51736 -0.425897 0
M  V30 1846 C 190.16 -1.73271 -1.50032 0
M  V30 1847 C 191.16 -0.602639 -1.4908 0
M  V30 1848 O 192.35 -0.87033 -1.509 0
M  V30 1849 C 189.482 -1.79969 -2.89523 0
M  V30 1850 H 190.675 -2.69172 -1.32237 0
M  V30 1851 H 188.228 -1.41899 -0.65532 0
M  V30 1852 H 188.963 -0.859241 -3.1271 0
M  V30 1853 H 188.748 -2.62109 -2.91619 0
M  V30 1854 H 190.238 -1.9843 -3.67444 0
M  V30 1855 N 190.675 0.682077 -1.42076 0
M  V30 1856 C 191.924 1.43786 -1.41451 0
M  V30 1857 C 192.237 1.95574 -0.0317074 0
M  V30 1858 O 193.443 2.71326 0.0971462 0
M  V30 1859 C 191.899 2.60071 -2.48779 0
M  V30 1860 C 191.507 2.15013 -3.93031 0
M  V30 1861 C 193.251 3.37626 -2.57311 0
M  V30 1862 C 191.158 3.28336 -4.91883 0
M  V30 1863 H 190.088 0.540143 -0.526082 0
M  V30 1864 H 192.739 0.739157 -1.67955 0
M  V30 1865 H 191.121 3.32275 -2.15429 0
M  V30 1866 H 192.295 1.5001 -4.35699 0
M  V30 1867 H 190.61 1.50416 -3.88284 0
M  V30 1868 H 193.207 4.22012 -3.28345 0
M  V30 1869 H 193.55 3.83727 -1.61429 0
M  V30 1870 H 194.083 2.72488 -2.89819 0
M  V30 1871 H 190.822 2.87234 -5.89217 0
M  V30 1872 H 190.342 3.92145 -4.53853 0
M  V30 1873 H 192.021 3.93913 -5.13265 0
M  V30 1874 N 192.153 1.28127 0.917671 0
M  V30 1875 C 193.381 1.17892 1.70026 0
M  V30 1876 C 193.796 -0.262958 1.8696 0
M  V30 1877 O 193.153 -1.17811 1.3938 0
M  V30 1878 C 193.204 1.86872 3.09453 0
M  V30 1879 O 192.925 3.25428 2.93306 0
M  V30 1880 C 194.426 1.8289 4.03815 0
M  V30 1881 H 191.646 0.40942 0.531617 0
M  V30 1882 H 194.19 1.69181 1.14883 0
M  V30 1883 H 192.345 1.39464 3.61426 0
M  V30 1884 H 192.759 3.59918 3.81523 0
M  V30 1885 H 194.233 2.35751 4.99125 0
M  V30 1886 H 194.71 0.800412 4.31845 0
M  V30 1887 H 195.316 2.29959 3.57769 0
M  V30 1888 N 193.631 -1.12557 1.10312 0
M  V30 1889 C 194.908 -1.80363 0.756878 0
M  V30 1890 C 195.288 -1.97067 -0.756824 0
M  V30 1891 O 194.636 -1.54601 -1.68259 0
M  V30 1892 C 194.846 -3.14812 1.50647 0
M  V30 1893 C 196.194 -3.90029 1.67817 0
M  V30 1894 O 197.218 -3.24464 1.46974 0
M  V30 1895 O 196.077 -5.07652 2.02365 0
M  V30 1896 H 193.171 -0.780667 0.272926 0
M  V30 1897 H 195.717 -1.19404 1.20586 0
M  V30 1898 H 194.489 -2.97936 2.53672 0
M  V30 1899 H 194.112 -3.83478 1.05026 0
M  V30 1900 N 195.109 -0.891671 -1.2995 0
M  V30 1901 C 196.019 -0.367691 -2.31701 0
M  V30 1902 C 197.035 0.533486 -1.6562 0
M  V30 1903 O 198.211 0.424997 -1.96865 0
M  V30 1904 C 195.276 0.403406 -3.44345 0
M  V30 1905 C 194.337 -0.528328 -4.26037 0
M  V30 1906 C 193.57 0.206063 -5.33302 0
M  V30 1907 O 193.793 1.43119 -5.52153 0
M  V30 1908 O 192.727 -0.447281 -6.00236 0
M  V30 1909 H 196.553 -1.21163 -2.78484 0
M  V30 1910 H 194.138 -0.655725 -1.34241 0
M  V30 1911 H 196.02 0.839753 -4.12948 0
M  V30 1912 H 194.695 1.22354 -2.99685 0
M  V30 1913 H 193.602 -1.01362 -3.60106 0
M  V30 1914 H 194.935 -1.31465 -4.74318 0
M  V30 1915 N 196.587 1.43421 -0.653314 0
M  V30 1916 C 197.497 2.34568 0.0388565 0
M  V30 1917 C 198.513 1.53888 0.81207 0
M  V30 1918 O 199.689 1.86539 0.759294 0
M  V30 1919 C 196.754 3.32167 0.993269 0
M  V30 1920 C 195.815 4.28751 0.216977 0
M  V30 1921 C 195.048 5.21688 1.12593 0
M  V30 1922 O 195.271 5.19052 2.36519 0
M  V30 1923 O 194.205 5.98919 0.598284 0
M  V30 1924 H 198.031 2.95251 -0.711386 0
M  V30 1925 H 195.616 1.43564 -0.413502 0
M  V30 1926 H 197.498 3.92183 1.54176 0
M  V30 1927 H 196.173 2.73987 1.72374 0
M  V30 1928 H 195.08 3.72215 -0.375101 0
M  V30 1929 H 196.413 4.89913 -0.473924 0
M  V30 1930 N 198.065 0.39524 1.52563 0
M  V30 1931 C 199.013 -0.451859 2.28169 0
M  V30 1932 C 200.007 -1.05792 1.32304 0
M  V30 1933 O 201.213 -0.997718 1.49818 0
M  V30 1934 H 197.588 -0.164481 0.733792 0
M  V30 1935 H 199.559 0.207199 2.9768 0
M  V30 1936 C 198.308 -1.56385 3.10546 0
M  V30 1937 H 197.631 -1.10682 3.84174 0
M  V30 1938 H 199.071 -2.13067 3.66577 0
M  V30 1939 C 197.53 -2.52328 2.23231 0
M  V30 1940 O 198.06 -3.5588 1.86312 0
M  V30 1941 N 196.266 -2.22209 1.87274 0
M  V30 1942 H 195.813 -1.38033 2.17496 0
M  V30 1943 H 195.771 -2.86652 1.29143 0
M  V30 1944 N 199.544 -1.57102 0.125237 0
M  V30 1945 C 200.821 -1.86953 -0.575142 0
M  V30 1946 C 201.201 -1.02749 -1.84407 0
M  V30 1947 O 200.549 -0.108144 -2.28244 0
M  V30 1948 C 200.759 -3.38198 -0.861583 0
M  V30 1949 C 202.107 -4.06937 -1.21192 0
M  V30 1950 O 203.131 -3.43252 -0.951645 0
M  V30 1951 O 201.99 -5.19364 -1.70068 0
M  V30 1952 H 199.084 -0.774147 -0.290906 0
M  V30 1953 H 201.63 -1.68942 0.160211 0
M  V30 1954 H 200.402 -3.91282 0.0373647 0
M  V30 1955 H 200.025 -3.61661 -1.65188 0
M  V30 1956 N 201.022 0.148545 -1.56898 0
M  V30 1957 C 201.955 1.21293 -1.93296 0
M  V30 1958 C 202.933 1.41637 -0.798599 0
M  V30 1959 O 204.117 1.56275 -1.05406 0
M  V30 1960 C 201.244 2.5721 -2.20365 0
M  V30 1961 C 200.29 2.53469 -3.4301 0
M  V30 1962 S 201.123 2.00315 -4.96623 0
M  V30 1963 C 202.279 3.37964 -5.26812 0
M  V30 1964 H 202.512 0.902393 -2.83274 0
M  V30 1965 H 200.045 0.354094 -1.50285 0
M  V30 1966 H 202.003 3.35427 -2.36641 0
M  V30 1967 H 200.664 2.85454 -1.31054 0
M  V30 1968 H 199.857 3.53518 -3.59223 0
M  V30 1969 H 199.459 1.83359 -3.25968 0
M  V30 1970 H 201.751 4.34066 -5.20185 0
M  V30 1971 H 202.694 3.26606 -6.28279 0
M  V30 1972 H 203.102 3.35028 -4.54331 0
M  V30 1973 N 202.5 1.5196 0.417844 0
M  V30 1974 C 203.43 1.77634 1.51554 0
M  V30 1975 C 204.411 0.626918 1.58126 0
M  V30 1976 O 205.596 0.871632 1.7354 0
M  V30 1977 C 202.726 1.91911 2.8946 0
M  V30 1978 C 201.68 3.07463 2.97743 0
M  V30 1979 C 201.006 3.06951 4.37819 0
M  V30 1980 C 202.306 4.47082 2.70027 0
M  V30 1981 H 204 2.6955 1.3032 0
M  V30 1982 H 201.546 1.29706 0.625492 0
M  V30 1983 H 203.499 2.08455 3.6623 0
M  V30 1984 H 202.223 0.966598 3.11969 0
M  V30 1985 H 200.882 2.90656 2.23416 0
M  V30 1986 H 200.53 2.09438 4.57323 0
M  V30 1987 H 200.23 3.84556 4.44286 0
M  V30 1988 H 201.754 3.25613 5.16535 0
M  V30 1989 H 203.168 4.6414 3.36522 0
M  V30 1990 H 201.565 5.2654 2.87881 0
M  V30 1991 H 202.635 4.55777 1.65514 0
M  V30 1992 N 203.978 -0.674533 1.42435 0
M  V30 1993 C 205.255 -1.4305 1.33402 0
M  V30 1994 C 205.635 -2.11081 -0.0284674 0
M  V30 1995 O 204.983 -2.03257 -1.04397 0
M  V30 1996 C 205.193 -2.43272 2.50239 0
M  V30 1997 C 206.541 -3.07907 2.92367 0
M  V30 1998 O 207.565 -2.53599 2.50132 0
M  V30 1999 O 206.424 -4.0632 3.65467 0
M  V30 2000 H 203.518 -0.638076 0.526106 0
M  V30 2001 H 206.064 -0.703235 1.54443 0
M  V30 2002 H 204.836 -1.91803 3.41068 0
M  V30 2003 H 204.459 -3.23479 2.31186 0
M  V30 2004 N 205.456 -1.28612 -0.910864 0
M  V30 2005 C 206.386 -1.15326 -2.03032 0
M  V30 2006 C 207.367 -0.0502924 -1.70026 0
M  V30 2007 O 208.552 -0.227797 -1.92859 0
M  V30 2008 C 205.682 -0.817343 -3.37545 0
M  V30 2009 C 204.636 -1.8754 -3.84724 0
M  V30 2010 C 203.962 -1.39305 -5.16235 0
M  V30 2011 C 205.262 -3.28244 -4.06267 0
M  V30 2012 H 206.956 -2.08975 -2.14406 0
M  V30 2013 H 204.502 -1.00612 -1.03021 0
M  V30 2014 H 206.455 -0.711151 -4.15356 0
M  V30 2015 H 205.179 0.154846 -3.26233 0
M  V30 2016 H 203.838 -1.97079 -3.09121 0
M  V30 2017 H 203.486 -0.409846 -5.01328 0
M  V30 2018 H 203.186 -2.10057 -5.48771 0
M  V30 2019 H 204.71 -1.30014 -5.96598 0
M  V30 2020 H 206.124 -3.21611 -4.74594 0
M  V30 2021 H 204.521 -3.96855 -4.5014 0
M  V30 2022 H 205.591 -3.72048 -3.10979 0
M  V30 2023 N 206.934 1.1197 -1.10907 0
M  V30 2024 C 207.897 2.16031 -0.765707 0
M  V30 2025 C 208.897 1.59393 0.212235 0
M  V30 2026 O 210.087 1.74196 -0.0115441 0
M  V30 2027 C 207.219 3.40632 -0.135053 0
M  V30 2028 H 208.412 2.47919 -1.68748 0
M  V30 2029 H 205.965 1.27061 -0.910226 0
M  V30 2030 H 206.7 3.14348 0.797218 0
M  V30 2031 H 206.485 3.8302 -0.838937 0
M  V30 2032 H 207.975 4.17505 0.0892469 0
M  V30 2033 N 208.412 0.89855 1.29475 0
M  V30 2034 C 209.642 0.538479 1.99459 0
M  V30 2035 C 210.05 -0.880922 1.67441 0
M  V30 2036 O 209.393 -1.59283 0.915127 0
M  V30 2037 C 209.455 0.649564 3.53583 0
M  V30 2038 C 209.119 2.03573 4.09154 0
M  V30 2039 C 210.116 3.00675 4.24135 0
M  V30 2040 C 207.801 2.3448 4.44212 0
M  V30 2041 C 209.795 4.26809 4.73405 0
M  V30 2042 C 207.482 3.60857 4.93179 0
M  V30 2043 C 208.48 4.56836 5.0773 0
M  V30 2044 O 208.168 5.80969 5.55635 0
M  V30 2045 H 207.9 0.205372 0.644048 0
M  V30 2046 H 210.454 1.20958 1.66007 0
M  V30 2047 H 208.684 -0.0785592 3.8662 0
M  V30 2048 H 210.373 0.29881 4.04799 0
M  V30 2049 H 211.139 2.78112 3.97339 0
M  V30 2050 H 207.018 1.60534 4.32145 0
M  V30 2051 H 210.562 5.0173 4.84678 0
M  V30 2052 H 206.459 3.83251 5.19412 0
M  V30 2053 H 207.227 5.83542 5.73952 0
M  V30 2054 N 209.89 -1.43072 0.660911 0
M  V30 2055 C 211.138 -2.01323 0.177094 0
M  V30 2056 C 211.459 -1.5245 -1.2159 0
M  V30 2057 O 210.729 -0.740322 -1.81373 0
M  V30 2058 H 209.309 -0.744382 0.0624804 0
M  V30 2059 H 211.971 -1.75179 0.854305 0
M  V30 2060 H 211.067 -3.11649 0.167641 0
M  V30 2061 N 211.368 -0.403325 -1.52352 0
M  V30 2062 C 212.298 0.416205 -2.29761 0
M  V30 2063 C 213.279 1.05123 -1.33728 0
M  V30 2064 O 214.464 1.06134 -1.62632 0
M  V30 2065 C 211.594 1.53624 -3.11475 0
M  V30 2066 C 210.548 1.02653 -4.15507 0
M  V30 2067 C 209.874 2.23971 -4.85532 0
M  V30 2068 C 211.174 0.08463 -5.22231 0
M  V30 2069 H 212.868 -0.229701 -2.98518 0
M  V30 2070 H 210.414 -0.111913 -1.43564 0
M  V30 2071 H 212.367 2.1165 -3.64393 0
M  V30 2072 H 211.091 2.20994 -2.40477 0
M  V30 2073 H 209.75 0.46871 -3.63591 0
M  V30 2074 H 209.398 2.89883 -4.11068 0
M  V30 2075 H 209.098 1.90521 -5.55856 0
M  V30 2076 H 210.622 2.82614 -5.41259 0
M  V30 2077 H 212.036 0.573509 -5.70424 0
M  V30 2078 H 210.433 -0.160783 -5.99885 0
M  V30 2079 H 211.503 -0.86237 -4.7717 0
M  V30 2080 N 212.846 1.57033 -0.133567 0
M  V30 2081 C 214.074 2.00044 0.528195 0
M  V30 2082 C 214.489 1.01349 1.59291 0
M  V30 2083 O 213.846 0.00848369 1.82498 0
M  V30 2084 C 213.897 3.43018 1.1411 0
M  V30 2085 O 213.618 4.37939 0.11892 0
M  V30 2086 C 215.119 4.01237 1.88477 0
M  V30 2087 H 212.339 0.656517 0.138661 0
M  V30 2088 H 214.883 2.03267 -0.224196 0
M  V30 2089 H 213.038 3.40688 1.84418 0
M  V30 2090 H 213.452 5.21436 0.56613 0
M  V30 2091 H 214.926 5.03314 2.26669 0
M  V30 2092 H 215.403 3.41193 2.76558 0
M  V30 2093 H 216.009 4.07156 1.22898 0
M  V30 2094 N 214.325 -0.140222 1.56975 0
M  V30 2095 C 215.602 -0.880769 1.74648 0
M  V30 2096 C 215.982 -1.99036 0.703404 0
M  V30 2097 O 215.33 -2.26821 -0.27648 0
M  V30 2098 C 215.54 -1.417 3.18939 0
M  V30 2099 C 216.888 -1.87774 3.80823 0
M  V30 2100 O 217.912 -1.51427 3.2241 0
M  V30 2101 O 216.771 -2.54827 4.83452 0
M  V30 2102 H 213.865 -0.416713 0.714338 0
M  V30 2103 H 216.411 -0.125618 1.69234 0
M  V30 2104 H 215.183 -0.619902 3.86359 0
M  V30 2105 H 214.806 -2.23546 3.28805 0
M  V30 2106 N 215.803 -1.52179 -0.40978 0
M  V30 2107 C 217.219 -1.40968 -0.74835 0
M  V30 2108 C 217.419 -0.513657 -1.94843 0
M  V30 2109 O 216.475 0.0208026 -2.52491 0
M  V30 2110 C 217.788 -2.83483 -1.0029 0
M  V30 2111 C 219.336 -2.92821 -1.10565 0
M  V30 2112 C 219.811 -4.36303 -1.39296 0
M  V30 2113 N 221.302 -4.39535 -1.46162 0
M  V30 2114 C 222.037 -5.47614 -1.70018 0
M  V30 2115 N 221.533 -6.65812 -1.91483 0
M  V30 2116 N 223.326 -5.35129 -1.72027 0
M  V30 2117 H 215.477 -2.0897 0.380186 0
M  V30 2118 H 217.74 -0.94185 0.107805 0
M  V30 2119 H 217.446 -3.51168 -0.193461 0
M  V30 2120 H 217.32 -3.24487 -1.92323 0
M  V30 2121 H 219.707 -2.25318 -1.90568 0
M  V30 2122 H 219.788 -2.55276 -0.16369 0
M  V30 2123 H 219.432 -5.04366 -0.598109 0
M  V30 2124 H 219.362 -4.71385 -2.34743 0
M  V30 2125 H 221.853 -3.54332 -1.31367 0
M  V30 2126 H 222.166 -7.43964 -2.09134 0
M  V30 2127 H 220.511 -6.68879 -1.88749 0
M  V30 2128 H 223.702 -4.41764 -1.54796 0
M  V30 2129 H 223.875 -6.19433 -1.9028 0
M  V30 2130 N 217.281 0.66697 -1.42791 0
M  V30 2131 C 218.506 1.46004 -1.47301 0
M  V30 2132 C 218.931 1.87894 -0.0880317 0
M  V30 2133 O 218.289 1.56502 0.915253 0
M  V30 2134 C 218.337 2.68031 -2.41229 0
M  V30 2135 O 217.441 3.6659 -1.88906 0
M  V30 2136 H 216.782 0.43832 -0.49877 0
M  V30 2137 H 219.312 0.817391 -1.87563 0
M  V30 2138 H 219.322 3.1601 -2.58073 0
M  V30 2139 H 217.997 2.36883 -3.41847 0
M  V30 2140 H 216.574 3.25661 -1.81656 0
M  V30 2141 N 218.759 1.29093 0.90403 0
M  V30 2142 C 220.175 1.07011 1.1841 0
M  V30 2143 C 220.375 -0.181358 2.00682 0
M  V30 2144 O 219.431 -0.880331 2.36657 0
M  V30 2145 C 220.744 2.32311 1.90924 0
M  V30 2146 C 222.292 2.37587 2.03768 0
M  V30 2147 C 222.767 3.62679 2.79693 0
M  V30 2148 N 224.258 3.63376 2.87249 0
M  V30 2149 C 224.993 4.56848 3.46522 0
M  V30 2150 N 224.489 5.60648 4.06996 0
M  V30 2151 N 226.282 4.44426 3.44154 0
M  V30 2152 H 218.433 2.09412 0.354993 0
M  V30 2153 H 220.696 0.922181 0.219742 0
M  V30 2154 H 220.402 3.23536 1.37905 0
M  V30 2155 H 220.276 2.39483 2.91424 0
M  V30 2156 H 222.663 1.46853 2.55965 0
M  V30 2157 H 222.744 2.34403 1.02415 0
M  V30 2158 H 222.388 4.53762 2.28173 0
M  V30 2159 H 222.318 3.63119 3.81381 0
M  V30 2160 H 224.809 2.88321 2.44293 0
M  V30 2161 H 225.122 6.28101 4.50232 0
M  V30 2162 H 223.467 5.64463 4.05471 0
M  V30 2163 H 226.658 3.62529 2.96126 0
M  V30 2164 H 226.831 5.17457 3.90054 0
M  V30 2165 N 220.237 -1.11381 1.11499 0
M  V30 2166 C 221.167 -2.19509 0.796125 0
M  V30 2167 C 222.148 -1.68458 -0.235796 0
M  V30 2168 O 223.333 -1.93947 -0.0991344 0
M  V30 2169 C 220.463 -3.46475 0.239205 0
M  V30 2170 C 219.417 -4.10744 1.20307 0
M  V30 2171 C 218.743 -5.32293 0.50683 0
M  V30 2172 C 220.043 -4.55597 2.55399 0
M  V30 2173 H 221.737 -2.46439 1.70024 0
M  V30 2174 H 219.283 -1.18446 0.818935 0
M  V30 2175 H 221.236 -4.214 0.00392006 0
M  V30 2176 H 219.96 -3.19006 -0.700206 0
M  V30 2177 H 218.619 -3.37813 1.42399 0
M  V30 2178 H 218.267 -5.01095 -0.437408 0
M  V30 2179 H 217.967 -5.76243 1.1497 0
M  V30 2180 H 219.491 -6.09956 0.280351 0
M  V30 2181 H 220.905 -5.21841 2.37391 0
M  V30 2182 H 219.302 -5.10363 3.15673 0
M  V30 2183 H 220.372 -3.69013 3.14575 0
M  V30 2184 N 221.715 -0.905404 -1.28997 0
M  V30 2185 C 222.963 -0.533192 -1.9494 0
M  V30 2186 C 223.284 0.924618 -1.71685 0
M  V30 2187 O 222.554 1.65268 -1.05183 0
M  V30 2188 H 221.134 -0.194194 -0.721317 0
M  V30 2189 H 223.796 -1.15294 -1.57141 0
M  V30 2190 H 222.892 -0.72059 -3.03667 0
M  V30 2191 N 223.193 1.4272 -0.668489 0
M  V30 2192 C 224.433 2.03497 -0.19194 0
M  V30 2193 C 224.797 1.51684 1.17712 0
M  V30 2194 O 225.998 2.04205 1.74796 0
M  V30 2195 C 224.269 3.56734 -0.218032 0
M  V30 2196 S 225.828 4.38395 0.188438 0
M  V30 2197 H 222.646 0.706542 -0.0794959 0
M  V30 2198 H 225.248 1.74563 -0.880235 0
M  V30 2199 H 223.952 3.91943 -1.2169 0
M  V30 2200 H 223.483 3.90333 0.490303 0
M  V30 2201 H 225.498 4.75345 1.42345 0
M  V30 2202 N 224.671 0.411399 1.52136 0
M  V30 2203 C 225.603 -0.448386 2.24771 0
M  V30 2204 C 226.616 -1.00828 1.27818 0
M  V30 2205 O 227.805 -0.906841 1.53749 0
M  V30 2206 C 224.905 -1.63636 2.96777 0
M  V30 2207 C 224.078 -1.19995 4.20618 0
M  V30 2208 C 223.137 -2.25509 4.75428 0
M  V30 2209 O 222.163 -1.86007 5.3795 0
M  V30 2210 N 223.365 -3.577 4.57199 0
M  V30 2211 H 226.13 0.174025 2.99194 0
M  V30 2212 H 223.691 0.238897 1.60128 0
M  V30 2213 H 225.683 -2.33793 3.30338 0
M  V30 2214 H 224.253 -2.16465 2.25526 0
M  V30 2215 H 223.473 -0.326421 3.92846 0
M  V30 2216 H 224.761 -0.885365 5.01038 0
M  V30 2217 H 224.159 -3.92543 4.07341 0
M  V30 2218 H 222.716 -4.23827 4.95191 0
M  V30 2219 N 226.149 -1.5696 0.141893 0
M  V30 2220 C 227.398 -1.95135 -0.510427 0
M  V30 2221 C 227.711 -1.02896 -1.66348 0
M  V30 2222 O 228.917 -1.30629 -2.38009 0
M  V30 2223 C 227.373 -3.46876 -0.959427 0
M  V30 2224 C 226.981 -4.47691 0.166419 0
M  V30 2225 C 228.725 -3.93927 -1.58183 0
M  V30 2226 C 226.632 -5.90636 -0.300565 0
M  V30 2227 H 225.562 -0.728494 -0.194454 0
M  V30 2228 H 228.213 -1.8211 0.22542 0
M  V30 2229 H 226.595 -3.55215 -1.75038 0
M  V30 2230 H 227.769 -4.51043 0.94325 0
M  V30 2231 H 226.084 -4.10527 0.696905 0
M  V30 2232 H 228.681 -4.98158 -1.94275 0
M  V30 2233 H 229.024 -3.3519 -2.46888 0
M  V30 2234 H 229.557 -3.88484 -0.855863 0
M  V30 2235 H 226.296 -6.5318 0.550989 0
M  V30 2236 H 225.816 -5.90655 -1.04338 0
M  V30 2237 H 227.495 -6.42588 -0.754265 0
M  V30 2238 N 227.627 0.131896 -1.57047 0
M  V30 2239 C 228.867 0.847972 -1.85981 0
M  V30 2240 C 229.231 1.77655 -0.7282 0
M  V30 2241 O 230.432 2.53322 -0.898968 0
M  V30 2242 C 228.703 1.58919 -3.20124 0
M  V30 2243 S 230.262 2.34862 -3.70655 0
M  V30 2244 H 227.08 0.283273 -0.652133 0
M  V30 2245 H 229.682 0.107057 -1.95207 0
M  V30 2246 H 228.386 0.898771 -4.00438 0
M  V30 2247 H 227.917 2.37073 -3.13942 0
M  V30 2248 H 229.932 3.60344 -3.41126 0
M  V30 2249 N 229.106 1.52395 0.401703 0
M  V30 2250 C 230.036 1.79231 1.49661 0
M  V30 2251 C 231.017 0.643654 1.57452 0
M  V30 2252 O 232.202 0.889989 1.72606 0
M  V30 2253 C 229.332 1.94971 2.87409 0
M  V30 2254 C 228.286 3.10604 2.94465 0
M  V30 2255 C 227.612 3.11577 4.34538 0
M  V30 2256 C 228.912 4.49921 2.6527 0
M  V30 2257 H 230.606 2.70917 1.27454 0
M  V30 2258 H 228.152 1.30362 0.6117 0
M  V30 2259 H 230.105 2.12328 3.63999 0
M  V30 2260 H 228.829 0.999632 3.10926 0
M  V30 2261 H 227.488 2.93009 2.20321 0
M  V30 2262 H 227.136 2.14277 4.55076 0
M  V30 2263 H 226.836 3.89247 4.40183 0
M  V30 2264 H 228.36 3.31073 5.13053 0
M  V30 2265 H 229.774 4.67683 3.31581 0
M  V30 2266 H 228.171 5.29564 2.82281 0
M  V30 2267 H 229.241 4.57507 1.60671 0
M  V30 2268 N 230.584 -0.659388 1.43143 0
M  V30 2269 C 231.812 -1.44723 1.47861 0
M  V30 2270 C 232.227 -1.88563 0.0945886 0
M  V30 2271 O 231.584 -1.59108 -0.893915 0
M  V30 2272 C 231.635 -2.68627 2.41913 0
M  V30 2273 O 231.356 -2.26623 3.74932 0
M  V30 2274 C 232.857 -3.62045 2.55809 0
M  V30 2275 H 230.077 -0.444801 0.502387 0
M  V30 2276 H 232.621 -0.808916 1.87821 0
M  V30 2277 H 230.776 -3.28613 2.05164 0
M  V30 2278 H 231.19 -3.06745 4.2545 0
M  V30 2279 H 232.664 -4.45666 3.25708 0
M  V30 2280 H 233.141 -4.08981 1.60099 0
M  V30 2281 H 233.747 -3.07944 2.93344 0
M  V30 2282 N 232.062 -1.29571 -0.897171 0
M  V30 2283 C 233.009 -1.14916 -2.00158 0
M  V30 2284 C 233.979 -0.0418149 -1.66047 0
M  V30 2285 O 235.164 -0.209793 -1.89643 0
M  V30 2286 C 232.304 -0.834307 -3.34863 0
M  V30 2287 C 231.417 -2.02234 -3.8174 0
M  V30 2288 C 230.552 -1.64664 -5.05034 0
M  V30 2289 C 229.591 -2.80033 -5.44286 0
M  V30 2290 N 228.728 -2.42843 -6.58765 0
M  V30 2291 H 233.568 -2.09403 -2.12025 0
M  V30 2292 H 231.105 -1.042 -1.0383 0
M  V30 2293 H 233.063 -0.632436 -4.12379 0
M  V30 2294 H 231.693 0.0736656 -3.22716 0
M  V30 2295 H 230.745 -2.33583 -3.00238 0
M  V30 2296 H 232.057 -2.88673 -4.06779 0
M  V30 2297 H 231.211 -1.4078 -5.9014 0
M  V30 2298 H 229.95 -0.753766 -4.8184 0
M  V30 2299 H 228.955 -3.04596 -4.57713 0
M  V30 2300 H 230.18 -3.69989 -5.6946 0
M  V30 2301 H 228.126 -1.56046 -6.3717 0
M  V30 2302 H 228.043 -3.22815 -6.83613 0
M  V30 2303 H 229.311 -2.22285 -7.47134 0
M  V30 2304 N 233.54 1.10788 -1.12088 0
M  V30 2305 C 234.765 1.87002 -0.896949 0
M  V30 2306 C 235.19 1.79933 0.548261 0
M  V30 2307 O 234.548 1.16662 1.38779 0
M  V30 2308 C 234.596 3.3349 -1.37174 0
M  V30 2309 O 233.7 4.08745 -0.547831 0
M  V30 2310 H 233.041 0.580397 -0.322545 0
M  V30 2311 H 235.571 1.39996 -1.49206 0
M  V30 2312 H 235.581 3.84339 -1.36922 0
M  V30 2313 H 234.256 3.37951 -2.42408 0
M  V30 2314 H 232.833 3.6776 -0.617034 0
M  V30 2315 N 235.018 0.912232 1.28515 0
M  V30 2316 C 235.951 0.343928 2.25593 0
M  V30 2317 C 236.929 -0.550994 1.5298 0
M  V30 2318 O 238.113 -0.494991 1.81885 0
M  V30 2319 C 235.24 -0.508525 3.34861 0
M  V30 2320 C 234.286 0.320808 4.25292 0
M  V30 2321 S 235.119 1.72658 5.06902 0
M  V30 2322 C 236.275 0.881394 6.19663 0
M  V30 2323 H 236.508 1.16674 2.73449 0
M  V30 2324 H 234.041 0.713384 1.36931 0
M  V30 2325 H 235.999 -0.994539 3.9827 0
M  V30 2326 H 234.66 -1.30571 2.85675 0
M  V30 2327 H 233.853 -0.330941 5.02912 0
M  V30 2328 H 233.455 0.74042 3.66598 0
M  V30 2329 H 235.747 0.110359 6.7741 0
M  V30 2330 H 236.69 1.63009 6.89082 0
M  V30 2331 H 237.098 0.430239 5.62858 0
M  V30 2332 N 236.496 -1.42363 0.676048 0
M  V30 2333 C 237.773 -1.95183 0.127726 0
M  V30 2334 C 238.153 -1.61641 -1.35777 0
M  V30 2335 O 237.501 -0.913216 -2.09458 0
M  V30 2336 C 237.711 -3.46721 0.398199 0
M  V30 2337 C 239.059 -4.23427 0.315383 0
M  V30 2338 O 240.083 -3.54649 0.332016 0
M  V30 2339 O 238.942 -5.45888 0.25865 0
M  V30 2340 H 236.036 -0.826992 0.00359427 0
M  V30 2341 H 238.582 -1.52184 0.750864 0
M  V30 2342 H 237.354 -3.64344 1.4272 0
M  V30 2343 H 236.977 -3.96769 -0.256885 0
M  V30 2344 N 237.974 -0.419461 -1.51915 0
M  V30 2345 C 238.922 0.415502 -2.28859 0
M  V30 2346 C 239.916 1.03674 -1.3397 0
M  V30 2347 O 241.122 0.973757 -1.51387 0
M  V30 2348 H 237.497 0.152786 -0.736315 0
M  V30 2349 H 239.468 -0.254531 -2.97312 0
M  V30 2350 C 238.217 1.51425 -3.12995 0
M  V30 2351 H 237.54 1.04556 -3.85886 0
M  V30 2352 H 238.98 2.07208 -3.6992 0
M  V30 2353 C 237.439 2.48745 -2.27217 0
M  V30 2354 O 237.969 3.52871 -1.9195 0
M  V30 2355 N 236.175 2.19202 -1.90785 0
M  V30 2356 H 235.722 1.34556 -2.19664 0
M  V30 2357 H 235.68 2.84561 -1.33687 0
M  V30 2358 N 239.452 1.56882 -0.150215 0
M  V30 2359 C 240.385 2.12712 0.826358 0
M  V30 2360 C 241.363 1.05154 1.24022 0
M  V30 2361 O 242.547 1.33004 1.33575 0
M  V30 2362 C 239.674 2.64945 2.11002 0
M  V30 2363 C 238.72 3.8468 1.84183 0
M  V30 2364 S 239.553 5.25502 1.02995 0
M  V30 2365 C 240.709 5.81125 2.32474 0
M  V30 2366 H 240.942 2.95214 0.351598 0
M  V30 2367 H 238.475 1.54267 0.0641211 0
M  V30 2368 H 240.433 2.95689 2.84742 0
M  V30 2369 H 239.094 1.82568 2.55593 0
M  V30 2370 H 238.287 4.19482 2.79375 0
M  V30 2371 H 237.889 3.54714 1.1855 0
M  V30 2372 H 240.181 5.92753 3.281 0
M  V30 2373 H 241.124 6.78625 2.02171 0
M  V30 2374 H 241.532 5.09392 2.43269 0
M  V30 2375 N 240.93 -0.123565 1.57115 0
M  V30 2376 C 242.158 -0.846461 1.88793 0
M  V30 2377 C 242.573 -1.73652 0.740976 0
M  V30 2378 O 241.93 -1.80207 -0.288393 0
M  V30 2379 C 241.981 -1.6837 3.19897 0
M  V30 2380 O 241.702 -0.829477 4.30176 0
M  V30 2381 C 243.203 -2.51214 3.65248 0
M  V30 2382 H 240.423 -0.243573 0.625231 0
M  V30 2383 H 242.967 -0.109324 2.04208 0
M  V30 2384 H 241.122 -2.37364 3.06165 0
M  V30 2385 H 241.536 -1.40651 5.0529 0
M  V30 2386 H 243.01 -3.05497 4.59756 0
M  V30 2387 H 243.487 -3.28359 2.9168 0
M  V30 2388 H 244.093 -1.8747 3.81752 0
M  V30 2389 N 242.408 -1.52605 -0.393616 0
M  V30 2390 C 243.654 -1.67672 -1.14079 0
M  V30 2391 C 243.987 -0.413121 -1.89755 0
M  V30 2392 O 243.262 0.588952 -1.85369 0
M  V30 2393 C 243.545 -2.9088 -2.12276 0
M  V30 2394 C 243.398 -4.27329 -1.40394 0
M  V30 2395 C 244.717 -3.09628 -3.12759 0
M  V30 2396 H 241.836 -0.610168 -0.413356 0
M  V30 2397 H 244.478 -1.85193 -0.424696 0
M  V30 2398 H 242.628 -2.76073 -2.73342 0
M  V30 2399 H 244.3 -4.53894 -0.82327 0
M  V30 2400 H 242.543 -4.2802 -0.705801 0
M  V30 2401 H 243.214 -5.09615 -2.12123 0
M  V30 2402 H 245.69 -3.23436 -2.61779 0
M  V30 2403 H 244.566 -3.97322 -3.78717 0
M  V30 2404 H 244.827 -2.23637 -3.81365 0
M  V30 2405 N 243.887 0.651787 -1.4349 0
M  V30 2406 C 245.303 0.96762 -1.26922 0
M  V30 2407 C 245.503 2.00602 -0.189982 0
M  V30 2408 O 244.559 2.48793 0.431107 0
M  V30 2409 C 245.872 1.45052 -2.63401 0
M  V30 2410 C 247.42 1.5671 -2.70945 0
M  V30 2411 C 247.895 2.0839 -4.07845 0
M  V30 2412 N 249.386 2.1569 -4.09917 0
M  V30 2413 C 250.121 2.56804 -5.12679 0
M  V30 2414 N 249.617 2.97203 -6.25813 0
M  V30 2415 N 251.41 2.56756 -5.00033 0
M  V30 2416 H 243.561 -0.0353158 -2.12371 0
M  V30 2417 H 245.824 0.0467858 -0.946845 0
M  V30 2418 H 245.53 0.761926 -3.43348 0
M  V30 2419 H 245.404 2.42529 -2.88894 0
M  V30 2420 H 247.791 2.2467 -1.9133 0
M  V30 2421 H 247.872 0.57662 -2.49216 0
M  V30 2422 H 247.516 1.41031 -4.87927 0
M  V30 2423 H 247.446 3.08271 -4.26938 0
M  V30 2424 H 249.937 1.87237 -3.28254 0
M  V30 2425 H 250.25 3.27328 -7.00055 0
M  V30 2426 H 248.595 2.95004 -6.29283 0
M  V30 2427 H 251.786 2.24572 -4.10713 0
M  V30 2428 H 251.959 2.88475 -5.80247 0
M  V30 2429 N 245.365 1.30045 0.890287 0
M  V30 2430 C 246.611 1.18737 1.64406 0
M  V30 2431 C 246.944 -0.258525 1.92472 0
M  V30 2432 O 246.219 -1.18562 1.54186 0
M  V30 2433 C 246.502 2.01087 2.98724 0
M  V30 2434 C 246.355 3.53867 2.77665 0
M  V30 2435 C 247.674 1.84457 3.9958 0
M  V30 2436 H 244.793 0.432698 0.596608 0
M  V30 2437 H 247.435 1.5962 1.0306 0
M  V30 2438 H 245.585 1.66349 3.51084 0
M  V30 2439 H 247.257 3.98637 2.32133 0
M  V30 2440 H 245.5 3.78318 2.12269 0
M  V30 2441 H 246.171 4.06772 3.7315 0
M  V30 2442 H 248.647 2.14817 3.56361 0
M  V30 2443 H 247.523 2.44411 4.91482 0
M  V30 2444 H 247.784 0.802276 4.3476 0
M  V30 2445 N 246.843 -1.10192 1.12674 0
M  V30 2446 C 248.254 -1.63707 0.897604 0
M  V30 2447 C 248.605 -1.87812 -0.567546 0
M  V30 2448 O 247.73 -1.62196 -1.43253 0
M  V30 2449 C 248.325 -2.974 1.62292 0
M  V30 2450 C 246.884 -3.47772 1.43986 0
M  V30 2451 C 246.031 -2.22332 1.65722 0
M  V30 2452 H 248.982 -0.936587 1.28116 0
M  V30 2453 H 249.003 -3.64986 1.07541 0
M  V30 2454 H 248.515 -2.79824 2.68924 0
M  V30 2455 H 246.616 -3.70487 0.396206 0
M  V30 2456 H 246.729 -4.25723 2.19765 0
M  V30 2457 H 245.093 -2.30599 1.08149 0
M  V30 2458 H 245.876 -2.07285 2.73657 0
M  V30 2459 N 248.321 -0.919034 -1.28029 0
M  V30 2460 C 249.231 -0.416756 -2.30869 0
M  V30 2461 C 250.247 0.498235 -1.66714 0
M  V30 2462 O 251.423 0.383144 -1.97722 0
M  V30 2463 C 248.488 0.330274 -3.45123 0
M  V30 2464 C 247.549 -0.618578 -4.2482 0
M  V30 2465 C 246.782 0.0928959 -5.33619 0
M  V30 2466 O 247.005 1.31375 -5.55065 0
M  V30 2467 O 245.939 -0.574499 -5.99152 0
M  V30 2468 H 249.765 -1.27043 -2.75851 0
M  V30 2469 H 247.35 -0.684052 -1.3282 0
M  V30 2470 H 249.232 0.751972 -4.14636 0
M  V30 2471 H 247.907 1.1597 -3.02213 0
M  V30 2472 H 246.814 -1.08978 -3.57875 0
M  V30 2473 H 248.147 -1.41497 -4.71423 0
M  V30 2474 N 249.799 1.42003 -0.683588 0
M  V30 2475 C 251.027 2.05746 -0.218182 0
M  V30 2476 C 251.442 1.51396 1.12804 0
M  V30 2477 O 250.799 0.657303 1.70252 0
M  V30 2478 C 250.85 3.61171 -0.154131 0
M  V30 2479 O 250.571 4.13508 -1.44716 0
M  V30 2480 C 252.072 4.42042 0.333713 0
M  V30 2481 H 249.292 0.662888 -0.10402 0
M  V30 2482 H 251.836 1.81987 -0.9328 0
M  V30 2483 H 249.991 3.84012 0.511231 0
M  V30 2484 H 250.405 5.07453 -1.32632 0
M  V30 2485 H 251.879 5.51028 0.327423 0
M  V30 2486 H 252.356 4.17269 1.37053 0
M  V30 2487 H 252.962 4.24239 -0.300222 0
M  V30 2488 N 251.277 0.427512 1.51691 0
M  V30 2489 C 252.523 -0.142439 2.02299 0
M  V30 2490 C 252.856 -1.43214 1.31162 0
M  V30 2491 O 252.131 -1.89833 0.423511 0
M  V30 2492 C 252.414 -0.371301 3.58181 0
M  V30 2493 C 252.267 0.936358 4.39946 0
M  V30 2494 C 253.586 -1.14542 4.24933 0
M  V30 2495 H 250.705 -0.0502937 0.735282 0
M  V30 2496 H 253.347 0.564584 1.81418 0
M  V30 2497 H 251.497 -0.973559 3.76104 0
M  V30 2498 H 253.169 1.57184 4.33694 0
M  V30 2499 H 251.412 1.5432 4.05423 0
M  V30 2500 H 252.083 0.730388 5.47147 0
M  V30 2501 H 254.559 -0.635362 4.11221 0
M  V30 2502 H 253.435 -1.27431 5.33903 0
M  V30 2503 H 253.696 -2.17093 3.85127 0
M  V30 2504 N 252.755 -1.56801 0.158532 0
M  V30 2505 C 253.718 -2.16138 -0.762705 0
M  V30 2506 C 254.718 -1.1061 -1.16713 0
M  V30 2507 O 255.908 -1.36191 -1.08617 0
M  V30 2508 C 253.04 -2.73386 -2.03649 0
M  V30 2509 H 254.233 -2.98886 -0.246354 0
M  V30 2510 H 251.786 -1.56035 -0.0909744 0
M  V30 2511 H 252.521 -1.94335 -2.59623 0
M  V30 2512 H 252.306 -3.50601 -1.75559 0
M  V30 2513 H 253.796 -3.19065 -2.6942 0
M  V30 2514 N 254.233 0.115231 -1.57178 0
M  V30 2515 C 255.51 0.852873 -1.76027 0
M  V30 2516 C 255.89 1.97892 -0.73498 0
M  V30 2517 O 255.238 2.27232 0.24036 0
M  V30 2518 C 255.448 1.36608 -3.21153 0
M  V30 2519 C 256.796 1.81692 -3.83762 0
M  V30 2520 O 257.82 1.46278 -3.24779 0
M  V30 2521 O 256.679 2.47104 -4.87444 0
M  V30 2522 H 253.773 0.405296 -0.720877 0
M  V30 2523 H 256.319 0.0986785 -1.69413 0
M  V30 2524 H 255.091 0.558357 -3.87296 0
M  V30 2525 H 254.714 2.18287 -3.3232 0
M  V30 2526 N 255.711 1.52812 0.385517 0
M  V30 2527 C 256.674 1.77188 1.45386 0
M  V30 2528 C 257.674 0.641953 1.4743 0
M  V30 2529 O 258.864 0.910033 1.4854 0
M  V30 2530 C 255.996 1.87582 2.8465 0
M  V30 2531 H 257.189 2.72583 1.25054 0
M  V30 2532 H 254.742 1.43586 0.617467 0
M  V30 2533 H 255.477 0.941849 3.10322 0
M  V30 2534 H 255.262 2.69748 2.84567 0
M  V30 2535 H 256.752 2.08102 3.62054 0
M  V30 2536 N 257.189 -0.644168 1.43834 0
M  V30 2537 C 258.605 -0.960875 1.27434 0
M  V30 2538 C 258.805 -2.00499 0.200618 0
M  V30 2539 O 257.861 -2.49018 -0.417906 0
M  V30 2540 C 259.174 -1.43653 2.64167 0
M  V30 2541 C 260.722 -1.55271 2.71772 0
M  V30 2542 C 261.197 -2.06224 4.08944 0
M  V30 2543 N 262.688 -2.13513 4.11055 0
M  V30 2544 C 263.423 -2.54081 5.14033 0
M  V30 2545 N 262.919 -2.9388 6.27381 0
M  V30 2546 N 264.712 -2.54101 5.01387 0
M  V30 2547 H 256.863 0.0465779 2.12349 0
M  V30 2548 H 259.126 -0.0417638 0.94708 0
M  V30 2549 H 258.832 -0.743706 3.43747 0
M  V30 2550 H 258.706 -2.40993 2.90176 0
M  V30 2551 H 261.093 -2.23653 1.92519 0
M  V30 2552 H 261.174 -0.563395 2.49519 0
M  V30 2553 H 260.818 -1.38441 4.88668 0
M  V30 2554 H 260.748 -3.06003 4.28567 0
M  V30 2555 H 263.239 -1.85493 3.29242 0
M  V30 2556 H 263.552 -3.2361 7.01781 0
M  V30 2557 H 261.897 -2.91663 6.30839 0
M  V30 2558 H 265.088 -2.22391 4.11898 0
M  V30 2559 H 265.261 -2.85394 5.81768 0
M  V30 2560 N 258.668 -1.30515 -0.883378 0
M  V30 2561 C 259.6 -1.12846 -1.99496 0
M  V30 2562 C 260.613 -0.0712571 -1.62644 0
M  V30 2563 O 261.802 -0.317432 -1.75655 0
M  V30 2564 C 258.902 -0.699123 -3.3161 0
M  V30 2565 C 258.075 -1.83842 -3.96889 0
M  V30 2566 C 257.134 -1.39737 -5.07307 0
M  V30 2567 O 256.16 -2.10485 -5.28852 0
M  V30 2568 N 257.362 -0.277279 -5.79837 0
M  V30 2569 H 260.127 -2.08585 -2.15203 0
M  V30 2570 H 257.688 -1.22672 -1.05656 0
M  V30 2571 H 259.68 -0.387044 -4.02845 0
M  V30 2572 H 258.25 0.166276 -3.12157 0
M  V30 2573 H 257.47 -2.31853 -3.18807 0
M  V30 2574 H 258.758 -2.60187 -4.37241 0
M  V30 2575 H 258.156 0.3122 -5.64838 0
M  V30 2576 H 256.713 -0.0246623 -6.51795 0
M  V30 2577 N 260.146 1.09593 -1.13257 0
M  V30 2578 C 261.371 1.8604 -0.916732 0
M  V30 2579 C 261.796 1.80504 0.529146 0
M  V30 2580 O 261.154 1.18127 1.37534 0
M  V30 2581 C 261.202 3.32017 -1.40703 0
M  V30 2582 O 260.306 4.08141 -0.591153 0
M  V30 2583 H 259.647 0.576943 -0.328683 0
M  V30 2584 H 262.177 1.38405 -1.50682 0
M  V30 2585 H 262.187 3.82865 -1.4099 0
M  V30 2586 H 260.862 3.35361 -2.45979 0
M  V30 2587 H 259.439 3.67084 -0.656005 0
M  V30 2588 N 261.624 0.925811 1.2754 0
M  V30 2589 C 262.873 0.561084 1.93739 0
M  V30 2590 C 263.186 -0.901685 1.73577 0
M  V30 2591 O 264.392 -1.37511 2.34101 0
M  V30 2592 C 262.848 0.952668 3.47062 0
M  V30 2593 C 262.456 2.43599 3.75983 0
M  V30 2594 C 264.2 0.659103 4.19352 0
M  V30 2595 C 262.107 2.76707 5.22673 0
M  V30 2596 H 261.037 0.206122 0.725279 0
M  V30 2597 H 263.688 1.12637 1.44863 0
M  V30 2598 H 262.07 0.316053 3.94737 0
M  V30 2599 H 263.244 3.12035 3.39073 0
M  V30 2600 H 261.559 2.70125 3.16893 0
M  V30 2601 H 264.156 0.882985 5.27359 0
M  V30 2602 H 264.499 -0.403607 4.14339 0
M  V30 2603 H 265.032 1.25473 3.77494 0
M  V30 2604 H 261.771 3.8188 5.32774 0
M  V30 2605 H 261.291 2.12919 5.60737 0
M  V30 2606 H 262.97 2.6435 5.90532 0
M  V30 2607 N 263.102 -1.41638 0.69111 0
M  V30 2608 C 264.379 -1.95036 0.148421 0
M  V30 2609 C 264.759 -1.63072 -1.34055 0
M  V30 2610 O 264.107 -0.93538 -2.08478 0
M  V30 2611 C 264.317 -3.46279 0.434951 0
M  V30 2612 C 265.665 -4.23069 0.360275 0
M  V30 2613 O 266.689 -3.54277 0.369613 0
M  V30 2614 O 265.548 -5.45583 0.316534 0
M  V30 2615 H 262.642 -0.826908 0.0123654 0
M  V30 2616 H 265.188 -1.5138 0.766963 0
M  V30 2617 H 263.96 -3.6281 1.46576 0
M  V30 2618 H 263.583 -3.97019 -0.214787 0
M  V30 2619 N 264.58 -0.43555 -1.51462 0
M  V30 2620 C 265.826 0.131709 -2.02372 0
M  V30 2621 C 266.159 1.42516 -1.3192 0
M  V30 2622 O 265.434 1.89606 -0.433573 0
M  V30 2623 C 265.717 0.352301 -3.58373 0
M  V30 2624 C 265.57 -0.959676 -4.39443 0
M  V30 2625 C 266.889 1.12286 -4.25535 0
M  V30 2626 H 264.008 0.0463936 -0.735538 0
M  V30 2627 H 266.65 -0.574197 -1.81116 0
M  V30 2628 H 264.8 0.9536 -3.76615 0
M  V30 2629 H 266.472 -1.59482 -4.32855 0
M  V30 2630 H 264.715 -1.56468 -4.04599 0
M  V30 2631 H 265.386 -0.759394 -5.46752 0
M  V30 2632 H 267.862 0.613545 -4.11552 0
M  V30 2633 H 266.738 1.24598 -5.34571 0
M  V30 2634 H 266.999 2.15048 -3.86273 0
M  V30 2635 N 266.058 1.56714 -0.166846 0
M  V30 2636 C 267.306 1.96358 0.478305 0
M  V30 2637 C 267.627 1.0537 1.6408 0
M  V30 2638 O 266.897 0.119154 1.95537 0
M  V30 2639 H 265.477 0.725065 0.179692 0
M  V30 2640 H 268.139 1.93329 -0.246985 0
M  V30 2641 H 267.235 3.00547 0.841292 0
M  V30 2642 N 267.536 -0.106894 1.57237 0
M  V30 2643 C 268.483 -1.13049 2.01217 0
M  V30 2644 C 269.453 -1.40471 0.886403 0
M  V30 2645 O 270.638 -1.52133 1.15153 0
M  V30 2646 C 267.778 -2.4487 2.43172 0
M  V30 2647 C 266.891 -2.24281 3.69218 0
M  V30 2648 C 266.026 -3.49417 4.00101 0
M  V30 2649 C 265.065 -3.24038 5.19294 0
M  V30 2650 N 264.202 -4.41409 5.45988 0
M  V30 2651 H 269.042 -0.748456 2.88448 0
M  V30 2652 H 266.579 -0.358054 1.42676 0
M  V30 2653 H 268.537 -3.21786 2.65537 0
M  V30 2654 H 267.167 -2.80944 1.58967 0
M  V30 2655 H 266.219 -1.38224 3.54398 0
M  V30 2656 H 267.531 -2.01512 4.56283 0
M  V30 2657 H 266.685 -4.34746 4.2318 0
M  V30 2658 H 265.424 -3.75229 3.11535 0
M  V30 2659 H 264.429 -2.37102 4.96047 0
M  V30 2660 H 265.654 -2.99584 6.09447 0
M  V30 2661 H 263.6 -4.67319 4.60379 0
M  V30 2662 H 263.517 -4.21788 6.274 0
M  V30 2663 H 264.785 -5.27836 5.73593 0
M  V30 2664 N 269.014 -1.53014 -0.377408 0
M  V30 2665 C 270.242 -1.72515 -1.14219 0
M  V30 2666 C 270.657 -0.448735 -1.8339 0
M  V30 2667 O 270.014 0.577592 -1.73119 0
M  V30 2668 C 270.065 -2.8826 -2.18148 0
M  V30 2669 O 269.786 -4.10962 -1.51795 0
M  V30 2670 C 271.287 -3.19536 -3.07264 0
M  V30 2671 H 268.507 -0.577301 -0.342001 0
M  V30 2672 H 271.051 -1.99712 -0.439935 0
M  V30 2673 H 269.206 -2.63492 -2.83991 0
M  V30 2674 H 269.62 -4.75693 -2.20945 0
M  V30 2675 H 271.094 -4.03959 -3.76193 0
M  V30 2676 H 271.571 -2.34403 -3.71419 0
M  V30 2677 H 272.177 -3.46186 -2.47053 0
M  V30 2678 N 270.492 0.636531 -1.44174 0
M  V30 2679 C 271.717 1.42847 -1.50364 0
M  V30 2680 C 272.142 1.87665 -0.127867 0
M  V30 2681 O 271.5 1.58408 0.88185 0
M  V30 2682 C 271.548 2.62854 -2.4686 0
M  V30 2683 O 270.652 3.62501 -1.9664 0
M  V30 2684 H 269.993 0.427642 -0.507955 0
M  V30 2685 H 272.523 0.777422 -1.89255 0
M  V30 2686 H 272.533 3.10465 -2.64718 0
M  V30 2687 H 271.208 2.29578 -3.46795 0
M  V30 2688 H 269.785 3.21735 -1.88523 0
M  V30 2689 O 272.009 1.41421 0.779892 0
M  V30 2690 H 272.7 1.31013 1.42672 0
M  V30 END ATOM
M  V30 BEGIN BOND
M  V30 END BOND
M  V30 END CTAB
M  END
$$$$
