drugbank_target|A0A0H2WWQ9 Penicillin-binding protein 2 (DB04147)
 OpenBabel12092120483D

  0  0  0     0  0            999 V3000
M  V30 BEGIN CTAB
M  V30 COUNTS 11168 11286 0 0 0
M  V30 BEGIN ATOM
M  V30 1 H -0.908 1.98254 -0.117106 0
M  V30 2 N 0 1.576 0 0
M  V30 3 C 0.933 2.03868 1.02534 0
M  V30 4 C 1.911 0.928543 1.3348 0
M  V30 5 O 3.095 1.19667 1.45644 0
M  V30 6 C 0.222 2.43627 2.35294 0
M  V30 7 C -0.732 3.65373 2.2001 0
M  V30 8 S 0.101 5.13292 1.52614 0
M  V30 9 C 1.257 5.56322 2.86805 0
M  V30 10 H 1.49 2.90518 0.631377 0
M  V30 11 H -0.977 1.52953 0.210867 0
M  V30 12 H 0.981 2.67203 3.11629 0
M  V30 13 H -0.358 1.57376 2.7183 0
M  V30 14 H -1.165 3.90944 3.18086 0
M  V30 15 H -1.563 3.418 1.51819 0
M  V30 16 H 0.729 5.58782 3.83104 0
M  V30 17 H 1.672 6.56266 2.65933 0
M  V30 18 H 2.08 4.83886 2.90714 0
M  V30 19 N 1.4781 -0.272755 1.55222 0
M  V30 20 C 2.7061 -1.02255 1.79865 0
M  V30 21 C 3.1211 -1.79924 0.572088 0
M  V30 22 O 2.4781 -1.76638 -0.458842 0
M  V30 23 C 2.5291 -1.98094 3.02392 0
M  V30 24 O 2.2501 -1.23572 4.20311 0
M  V30 25 C 3.7511 -2.84884 3.39641 0
M  V30 26 H 0.9711 -0.302057 0.599168 0
M  V30 27 H 3.5151 -0.303465 2.02236 0
M  V30 28 H 1.6701 -2.65465 2.82147 0
M  V30 29 H 2.0841 -1.88172 4.89583 0
M  V30 30 H 3.5581 -3.47927 4.28545 0
M  V30 31 H 4.0351 -3.54665 2.59055 0
M  V30 32 H 4.6411 -2.23003 3.62146 0
M  V30 33 N 2.9562 -1.48159 -0.537278 0
M  V30 34 C 3.8662 -1.64807 -1.6696 0
M  V30 35 C 4.8822 -0.530651 -1.65711 0
M  V30 36 O 6.0582 -0.800784 -1.84796 0
M  V30 37 C 3.1232 -1.67708 -3.03438 0
M  V30 38 C 2.1842 -2.91025 -3.156 0
M  V30 39 C 1.4172 -2.93778 -4.45567 0
M  V30 40 O 1.6402 -2.05153 -5.3223 0
M  V30 41 O 0.5742 -3.85868 -4.61941 0
M  V30 42 H 4.4002 -2.6066 -1.55853 0
M  V30 43 H 1.9852 -1.31475 -0.709549 0
M  V30 44 H 3.8672 -1.7218 -3.84619 0
M  V30 45 H 2.5422 -0.750278 -3.14885 0
M  V30 46 H 1.4492 -2.92089 -2.33741 0
M  V30 47 H 2.7822 -3.83065 -3.09066 0
M  V30 48 N 4.4343 0.785586 -1.36625 0
M  V30 49 C 5.3823 1.91978 -1.31329 0
M  V30 50 C 6.3763 1.68162 -0.204416 0
M  V30 51 O 7.5823 1.76122 -0.371645 0
M  V30 52 H 3.9573 0.631087 -0.408942 0
M  V30 53 H 5.9283 1.93562 -2.27104 0
M  V30 54 C 4.6773 3.29055 -1.12329 0
M  V30 55 H 4.0003 3.4795 -1.96903 0
M  V30 56 H 5.4403 4.08756 -1.12671 0
M  V30 57 C 3.8993 3.36461 0.171861 0
M  V30 58 O 4.4293 3.84576 1.16035 0
M  V30 59 N 2.6353 2.89782 0.217846 0
M  V30 60 H 2.1823 2.50819 -0.587183 0
M  V30 61 H 2.1403 2.95119 1.08408 0
M  V30 62 N 5.9124 1.20967 1.01018 0
M  V30 63 C 6.8594 0.964281 2.09691 0
M  V30 64 C 7.8294 -0.107853 1.65749 0
M  V30 65 O 9.0144 0.0381987 1.90762 0
M  V30 66 C 6.1544 0.52943 3.41015 0
M  V30 67 C 5.2674 1.67043 3.98398 0
M  V30 68 C 4.4024 1.18525 5.17808 0
M  V30 69 C 3.4414 2.29892 5.67288 0
M  V30 70 N 2.5784 1.82546 6.77954 0
M  V30 71 H 7.4184 1.89463 2.30017 0
M  V30 72 H 4.9554 0.944289 1.1279 0
M  V30 73 H 6.9134 0.258588 4.16398 0
M  V30 74 H 5.5434 -0.363919 3.20742 0
M  V30 75 H 4.5954 2.05603 3.20049 0
M  V30 76 H 5.9074 2.50877 4.31117 0
M  V30 77 H 5.0614 0.870762 6.00419 0
M  V30 78 H 3.8004 0.316887 4.86669 0
M  V30 79 H 2.8054 2.6215 4.83278 0
M  V30 80 H 4.0304 3.17216 6.00459 0
M  V30 81 H 1.9764 0.980454 6.48632 0
M  V30 82 H 1.8934 2.59956 7.09901 0
M  V30 83 H 3.1614 1.54115 7.64113 0
M  V30 84 N 7.3905 -1.2043 1.01659 0
M  V30 85 C 8.6385 -1.89423 0.704522 0
M  V30 86 C 8.9595 -1.79231 -0.768197 0
M  V30 87 O 8.2295 -1.1947 -1.55254 0
M  V30 88 H 6.8095 -0.701178 0.257602 0
M  V30 89 H 9.4715 -1.4626 1.28818 0
M  V30 90 H 8.5675 -2.96052 0.987916 0
M  V30 91 N 8.8686 -0.792821 -1.36206 0
M  V30 92 C 10.0936 -0.377701 -2.03932 0
M  V30 93 C 10.5186 0.998947 -1.59382 0
M  V30 94 O 9.8766 1.64421 -0.763903 0
M  V30 95 C 9.9246 -0.453635 -3.57735 0
M  V30 96 O 9.0286 0.538151 -4.08874 0
M  V30 97 H 8.3696 -0.159855 -0.644471 0
M  V30 98 H 10.8996 -1.07488 -1.7409 0
M  V30 99 H 10.9096 -0.318464 -4.06755 0
M  V30 100 H 9.5846 -1.45784 -3.89512 0
M  V30 101 H 8.1616 0.364359 -3.71116 0
M  V30 102 N 10.3467 1.47872 -0.545128 0
M  V30 103 C 11.5717 2.07391 -0.0190611 0
M  V30 104 C 11.9967 1.39688 1.25971 0
M  V30 105 O 11.3547 0.467816 1.7516 0
M  V30 106 C 11.4027 3.60188 0.172335 0
M  V30 107 O 10.5067 3.9339 1.23766 0
M  V30 108 H 9.8477 0.662411 -0.0459059 0
M  V30 109 H 12.3777 1.90066 -0.757365 0
M  V30 110 H 12.3877 4.06129 0.390305 0
M  V30 111 H 11.0627 4.08865 -0.761725 0
M  V30 112 H 9.6397 3.5921 1.00114 0
M  V30 113 N 11.8248 0.280983 1.55075 0
M  V30 114 C 12.7568 -0.637268 2.20163 0
M  V30 115 C 13.7698 -1.11298 1.18813 0
M  V30 116 O 14.9588 -1.03388 1.4551 0
M  V30 117 C 12.0588 -1.88199 2.81841 0
M  V30 118 C 11.2318 -1.55211 4.08936 0
M  V30 119 C 10.2908 -2.64991 4.54606 0
M  V30 120 O 9.3168 -2.30929 5.2025 0
M  V30 121 N 10.5188 -3.95161 4.25238 0
M  V30 122 H 13.2838 -0.0801694 2.99593 0
M  V30 123 H 10.8448 0.102329 1.61576 0
M  V30 124 H 12.8368 -2.60948 3.09335 0
M  V30 125 H 11.4068 -2.34799 2.06369 0
M  V30 126 H 10.6268 -0.658185 3.88666 0
M  V30 127 H 11.9148 -1.30681 4.91732 0
M  V30 128 H 11.3128 -4.25653 3.72607 0
M  V30 129 H 9.8698 -4.6427 4.5749 0
M  V30 130 N 13.3029 -1.57598 0.00835791 0
M  V30 131 C 14.7139 -1.7892 -0.53333 0
M  V30 132 C 15.0649 -0.916609 -1.73473 0
M  V30 133 O 14.1899 -0.121336 -2.1606 0
M  V30 134 C 14.7849 -3.24488 -0.974313 0
M  V30 135 C 13.3439 -3.46878 -1.46125 0
M  V30 136 C 12.4909 -2.74157 -0.416302 0
M  V30 137 H 15.4419 -1.56958 0.234495 0
M  V30 138 H 15.4629 -3.3306 -1.83988 0
M  V30 139 H 14.9749 -3.87972 -0.099718 0
M  V30 140 H 13.0759 -2.8862 -2.35646 0
M  V30 141 H 13.1889 -4.55572 -1.48295 0
M  V30 142 H 11.5529 -2.39022 -0.87981 0
M  V30 143 H 12.3359 -3.40345 0.44947 0
M  V30 144 N 14.781 0.264519 -1.55364 0
M  V30 145 C 15.728 1.32717 -1.88825 0
M  V30 146 C 16.698 1.48675 -0.740605 0
M  V30 147 O 17.883 1.62945 -0.992657 0
M  V30 148 C 15.023 2.68089 -2.17307 0
M  V30 149 C 14.136 2.60284 -3.44785 0
M  V30 150 C 13.271 3.87892 -3.62924 0
M  V30 151 C 12.31 3.74631 -4.84064 0
M  V30 152 N 11.447 4.94092 -4.98816 0
M  V30 153 H 16.287 1.03481 -2.79456 0
M  V30 154 H 13.824 0.499757 -1.3835 0
M  V30 155 H 15.782 3.46864 -2.31821 0
M  V30 156 H 14.412 2.95509 -1.299 0
M  V30 157 H 13.464 1.73173 -3.38697 0
M  V30 158 H 14.776 2.46388 -4.33698 0
M  V30 159 H 13.93 4.75109 -3.77302 0
M  V30 160 H 12.669 4.04664 -2.7221 0
M  V30 161 H 11.674 2.85797 -4.69681 0
M  V30 162 H 12.899 3.5937 -5.76221 0
M  V30 163 H 10.845 5.11259 -4.11036 0
M  V30 164 H 10.762 4.8276 -5.81789 0
M  V30 165 H 12.03 5.82857 -5.17588 0
M  V30 166 N 16.2591 1.48442 0.529413 0
M  V30 167 C 17.2061 1.63007 1.63394 0
M  V30 168 C 18.1761 0.47212 1.59249 0
M  V30 169 O 19.3611 0.695673 1.77666 0
M  V30 170 C 16.5011 1.6763 3.01653 0
M  V30 171 C 15.6141 2.94535 3.16027 0
M  V30 172 C 14.7491 2.90316 4.44849 0
M  V30 173 C 13.7881 4.11923 4.52754 0
M  V30 174 N 12.9251 4.05777 5.72965 0
M  V30 175 H 17.7651 2.5733 1.50285 0
M  V30 176 H 15.3021 1.27613 0.731656 0
M  V30 177 H 17.2601 1.68292 3.81751 0
M  V30 178 H 15.8901 0.76797 3.13532 0
M  V30 179 H 14.9421 3.03615 2.29177 0
M  V30 180 H 16.2541 3.84512 3.17729 0
M  V30 181 H 15.4081 2.89382 5.33238 0
M  V30 182 H 14.1471 1.98068 4.45668 0
M  V30 183 H 13.1521 4.13131 3.62771 0
M  V30 184 H 14.3771 5.0533 4.53672 0
M  V30 185 H 12.3231 3.16351 5.74681 0
M  V30 186 H 12.2401 4.8946 5.76164 0
M  V30 187 H 13.5081 4.08904 6.6364 0
M  V30 188 N 17.7372 -0.778329 1.37039 0
M  V30 189 C 18.6852 -1.91278 1.32345 0
M  V30 190 C 19.6792 -1.68051 0.213331 0
M  V30 191 O 20.8852 -1.75922 0.38098 0
M  V30 192 H 17.2602 -0.628909 0.412283 0
M  V30 193 H 19.2312 -1.92355 2.28127 0
M  V30 194 C 17.9802 -3.28455 1.14073 0
M  V30 195 H 17.3032 -3.46901 1.98746 0
M  V30 196 H 18.7432 -4.08152 1.14837 0
M  V30 197 C 17.2022 -3.36548 -0.154015 0
M  V30 198 O 17.7322 -3.85186 -1.13993 0
M  V30 199 N 15.9382 -2.89894 -0.202475 0
M  V30 200 H 15.4852 -2.50504 0.600476 0
M  V30 201 H 15.4432 -2.9569 -1.06841 0
M  V30 202 N 19.2153 -1.21501 -1.00376 0
M  V30 203 C 20.4633 -1.03095 -1.73827 0
M  V30 204 C 20.7843 0.436341 -1.90055 0
M  V30 205 O 20.0543 1.31466 -1.45236 0
M  V30 206 H 18.6343 -0.378487 -0.644016 0
M  V30 207 H 21.2963 -1.52831 -1.20949 0
M  V30 208 H 20.3923 -1.49991 -2.73695 0
M  V30 209 N 20.6934 1.19889 -1.02296 0
M  V30 210 C 21.6414 2.24938 -0.592081 0
M  V30 211 C 22.6354 1.65257 0.372357 0
M  V30 212 O 23.8414 1.78371 0.241583 0
M  V30 213 H 20.2164 0.731787 -0.173182 0
M  V30 214 H 22.1874 2.58603 -1.48885 0
M  V30 215 C 20.9364 3.47668 0.047351 0
M  V30 216 H 20.2594 3.93875 -0.685772 0
M  V30 217 H 21.6994 4.22852 0.311862 0
M  V30 218 C 20.1584 3.11136 1.29212 0
M  V30 219 O 20.6884 3.2325 2.38479 0
M  V30 220 N 18.8944 2.65625 1.17863 0
M  V30 221 H 18.4414 2.55968 0.289493 0
M  V30 222 H 18.3994 2.41553 2.01245 0
M  V30 223 N 22.1715 0.800033 1.35784 0
M  V30 224 C 23.1195 0.193851 2.31791 0
M  V30 225 C 24.1135 -0.652744 1.56319 0
M  V30 226 O 25.3195 -0.546641 1.71499 0
M  V30 227 H 21.6945 0.04392 0.750716 0
M  V30 228 H 23.6655 1.01883 2.80468 0
M  V30 229 C 22.4145 -0.648338 3.41602 0
M  V30 230 H 21.7375 -0.00624665 3.998 0
M  V30 231 H 23.1775 -1.03898 4.11073 0
M  V30 232 C 21.6365 -1.8111 2.84079 0
M  V30 233 O 22.1665 -2.90825 2.77099 0
M  V30 234 N 20.3725 -1.62056 2.41218 0
M  V30 235 H 19.9195 -0.728123 2.47095 0
M  V30 236 H 19.8775 -2.40013 2.03079 0
M  V30 237 N 23.6496 -1.47581 0.552962 0
M  V30 238 C 24.8976 -2.02082 0.0272703 0
M  V30 239 C 25.2186 -1.4301 -1.32563 0
M  V30 240 O 24.4886 -0.603745 -1.86365 0
M  V30 241 H 23.0686 -0.746966 0.00709182 0
M  V30 242 H 25.7306 -1.81033 0.722008 0
M  V30 243 H 24.8266 -3.12034 -0.0639951 0
M  V30 244 N 25.1277 -0.289203 -1.54924 0
M  V30 245 C 26.3757 0.322879 -1.99504 0
M  V30 246 C 26.6967 1.55313 -1.1791 0
M  V30 247 O 25.9667 1.94001 -0.272097 0
M  V30 248 H 24.5467 0.122291 -0.736922 0
M  V30 249 H 27.2087 -0.397802 -1.90797 0
M  V30 250 H 26.3047 0.603061 -3.06218 0
M  V30 251 N 26.6058 1.57591 -0.0167156 0
M  V30 252 C 27.5528 2.09462 0.969251 0
M  V30 253 C 28.5228 0.99381 1.33089 0
M  V30 254 O 29.7078 1.26726 1.42636 0
M  V30 255 C 26.8478 2.61622 2.25051 0
M  V30 256 C 25.9608 3.85666 1.94642 0
M  V30 257 C 25.0958 4.26266 3.16972 0
M  V30 258 C 24.1348 5.43101 2.82326 0
M  V30 259 N 23.2718 5.78915 3.97243 0
M  V30 260 H 28.1118 2.93428 0.519997 0
M  V30 261 H 25.6488 1.45044 0.245087 0
M  V30 262 H 27.6068 2.89949 2.99976 0
M  V30 263 H 26.2368 1.80505 2.67615 0
M  V30 264 H 25.2888 3.64145 1.10013 0
M  V30 265 H 26.6008 4.70678 1.65117 0
M  V30 266 H 25.7548 4.55963 4.00228 0
M  V30 267 H 24.4938 3.39996 3.49648 0
M  V30 268 H 23.4988 5.1311 1.97479 0
M  V30 269 H 24.7238 6.3106 2.50879 0
M  V30 270 H 22.6698 4.95602 4.29785 0
M  V30 271 H 22.5868 6.58539 3.71299 0
M  V30 272 H 23.8548 6.13212 4.81239 0
M  V30 273 N 28.0839 -0.256276 1.55502 0
M  V30 274 C 29.3089 -1.00766 1.81276 0
M  V30 275 C 29.7339 -1.78524 0.59252 0
M  V30 276 O 29.0919 -1.75413 -0.45827 0
M  V30 277 C 29.1399 -1.92869 3.04687 0
M  V30 278 O 28.2439 -3.019 2.80945 0
M  V30 279 H 27.5849 -0.287224 0.598664 0
M  V30 280 H 30.1149 -0.280109 2.02674 0
M  V30 281 H 30.1249 -2.34511 3.33869 0
M  V30 282 H 28.7999 -1.35689 3.93143 0
M  V30 283 H 27.3769 -2.64454 2.62904 0
M  V30 284 N 29.562 -1.4872 -0.521534 0
M  V30 285 C 30.51 -1.64328 -1.64618 0
M  V30 286 C 31.504 -0.50953 -1.61555 0
M  V30 287 O 32.71 -0.688525 -1.66311 0
M  V30 288 H 29.085 -0.517805 -0.545328 0
M  V30 289 H 31.056 -2.58767 -1.48601 0
M  V30 290 C 29.805 -1.70805 -3.02855 0
M  V30 291 H 29.128 -2.5741 -3.05909 0
M  V30 292 H 30.568 -1.85766 -3.81139 0
M  V30 293 C 29.027 -0.448479 -3.33902 0
M  V30 294 O 29.557 0.434928 -3.99339 0
M  V30 295 N 27.763 -0.317616 -2.88859 0
M  V30 296 H 27.31 -1.03748 -2.35784 0
M  V30 297 H 27.268 0.524113 -3.10001 0
M  V30 298 N 31.0401 0.771051 -1.3745 0
M  V30 299 C 32.2651 1.56529 -1.36065 0
M  V30 300 C 32.6901 1.88029 0.0515859 0
M  V30 301 O 32.0481 1.49282 1.02882 0
M  V30 302 C 32.0961 2.85187 -2.20683 0
M  V30 303 O 31.2001 3.79593 -1.61193 0
M  V30 304 H 30.5411 0.47411 -0.464883 0
M  V30 305 H 33.0711 0.954269 -1.80983 0
M  V30 306 H 33.0811 3.34283 -2.33921 0
M  V30 307 H 31.7561 2.61588 -3.23334 0
M  V30 308 H 30.3331 3.38239 -1.56999 0
M  V30 309 N 32.5182 1.22032 0.997298 0
M  V30 310 C 33.4652 0.986467 2.08656 0
M  V30 311 C 34.4352 -0.0902671 1.65855 0
M  V30 312 O 35.6202 0.0584294 1.90711 0
M  V30 313 C 32.7602 0.565569 3.40434 0
M  V30 314 C 31.8732 1.71259 3.96604 0
M  V30 315 C 31.0082 1.24011 5.16522 0
M  V30 316 C 30.0472 2.35896 5.64818 0
M  V30 317 N 29.1842 1.89726 6.7598 0
M  V30 318 H 34.0242 1.91892 2.27994 0
M  V30 319 H 31.5612 0.956199 1.11782 0
M  V30 320 H 33.5192 0.302738 4.161 0
M  V30 321 H 32.1492 -0.329879 3.2111 0
M  V30 322 H 31.2012 2.08986 3.17851 0
M  V30 323 H 32.5132 2.55436 4.28432 0
M  V30 324 H 31.6672 0.934395 5.99461 0
M  V30 325 H 30.4062 0.368487 4.86306 0
M  V30 326 H 29.4112 2.67261 4.8047 0
M  V30 327 H 30.6362 3.23567 5.97061 0
M  V30 328 H 28.5822 1.0492 6.47555 0
M  V30 329 H 28.4992 2.67471 7.07103 0
M  V30 330 H 29.7672 1.62211 7.62435 0
M  V30 331 N 33.9963 -1.19345 1.0293 0
M  V30 332 C 34.9433 -2.2258 0.610464 0
M  V30 333 C 35.9133 -1.6179 -0.375946 0
M  V30 334 O 37.0983 -1.88844 -0.272511 0
M  V30 335 C 34.2383 -3.45085 -0.0321473 0
M  V30 336 C 33.3513 -4.20258 1.00035 0
M  V30 337 C 32.4863 -5.3019 0.32746 0
M  V30 338 C 31.5253 -5.97121 1.34584 0
M  V30 339 N 30.6623 -6.98615 0.698726 0
M  V30 340 H 35.5023 -2.57764 1.49538 0
M  V30 341 H 33.0393 -1.26644 0.748311 0
M  V30 342 H 34.9973 -4.15061 -0.421966 0
M  V30 343 H 33.6273 -3.10555 -0.88064 0
M  V30 344 H 32.6793 -3.49223 1.50823 0
M  V30 345 H 33.9913 -4.66175 1.77433 0
M  V30 346 H 33.1453 -6.06587 -0.11718 0
M  V30 347 H 31.8843 -4.85345 -0.478713 0
M  V30 348 H 30.8893 -5.19474 1.80074 0
M  V30 349 H 32.1143 -6.4405 2.15352 0
M  V30 350 H 30.0603 -6.55942 -0.0873471 0
M  V30 351 H 29.9773 -7.42724 1.41058 0
M  V30 352 H 31.2453 -7.79004 0.278102 0
M  V30 353 N 35.4744 -0.807222 -1.35358 0
M  V30 354 C 36.4224 -0.20614 -2.31685 0
M  V30 355 C 37.4164 0.644445 -1.56663 0
M  V30 356 O 38.6224 0.537538 -1.71786 0
M  V30 357 H 34.9974 -0.0479006 -0.750473 0
M  V30 358 H 36.9684 -1.03369 -2.79924 0
M  V30 359 C 35.7174 0.630212 -3.41941 0
M  V30 360 H 35.0404 -0.0149558 -3.99797 0
M  V30 361 H 36.4804 1.01716 -4.11619 0
M  V30 362 C 34.9394 1.79601 -2.85035 0
M  V30 363 O 35.4694 2.89351 -2.78637 0
M  V30 364 N 33.6754 1.60774 -2.42074 0
M  V30 365 H 33.2224 0.715009 -2.47478 0
M  V30 366 H 33.1804 2.38933 -2.04349 0
M  V30 367 N 36.9525 1.47285 -0.560781 0
M  V30 368 C 38.3685 1.58065 -0.22081 0
M  V30 369 C 38.5685 1.55892 1.27671 0
M  V30 370 O 37.6245 1.46422 2.0571 0
M  V30 371 C 38.9375 2.88418 -0.850625 0
M  V30 372 C 40.4855 3.02009 -0.822184 0
M  V30 373 C 40.9605 4.35066 -1.43113 0
M  V30 374 N 42.4515 4.41711 -1.39448 0
M  V30 375 C 43.1865 5.43237 -1.83525 0
M  V30 376 N 42.6825 6.51555 -2.35474 0
M  V30 377 N 44.4755 5.34304 -1.74574 0
M  V30 378 H 36.6265 1.46941 -1.53369 0
M  V30 379 H 38.8895 0.699558 -0.639783 0
M  V30 380 H 38.5955 2.95755 -1.9032 0
M  V30 381 H 38.4695 3.75612 -0.345773 0
M  V30 382 H 40.8565 2.94266 0.221714 0
M  V30 383 H 40.9375 2.16347 -1.36483 0
M  V30 384 H 40.5815 4.43565 -2.47412 0
M  V30 385 H 40.5115 5.19465 -0.863899 0
M  V30 386 H 43.0025 3.64027 -1.01452 0
M  V30 387 H 43.3155 7.25203 -2.67021 0
M  V30 388 H 41.6605 6.52435 -2.39487 0
M  V30 389 H 44.8515 4.48581 -1.33763 0
M  V30 390 H 45.0245 6.13288 -2.09242 0
M  V30 391 N 38.4306 0.297415 1.54768 0
M  V30 392 C 39.3786 -0.596051 2.24833 0
M  V30 393 C 40.3726 -1.13992 1.25308 0
M  V30 394 O 41.5786 -1.09098 1.4317 0
M  V30 395 H 37.9536 -0.210814 0.721846 0
M  V30 396 H 39.9246 0.0174667 2.98395 0
M  V30 397 C 38.6736 -1.75818 2.99972 0
M  V30 398 H 37.9966 -1.3489 3.76357 0
M  V30 399 H 39.4366 -2.35949 3.52284 0
M  V30 400 C 37.8956 -2.66014 2.06732 0
M  V30 401 O 38.4256 -3.67009 1.63302 0
M  V30 402 N 36.6316 -2.33669 1.72763 0
M  V30 403 H 36.1786 -1.51586 2.08277 0
M  V30 404 H 36.1366 -2.94285 1.10652 0
M  V30 405 N 39.9087 -1.5758 0.0250728 0
M  V30 406 C 41.1547 -1.91917 -0.655413 0
M  V30 407 C 41.4877 -0.901433 -1.72011 0
M  V30 408 O 40.7627 0.0764069 -1.9435 0
M  V30 409 C 41.0457 -3.36751 -1.27558 0
M  V30 410 C 40.8987 -4.49258 -0.220719 0
M  V30 411 C 42.2177 -3.81469 -2.19475 0
M  V30 412 H 39.3367 -0.697925 -0.23679 0
M  V30 413 H 41.9787 -1.89825 0.0815036 0
M  V30 414 H 40.1287 -3.38664 -1.90365 0
M  V30 415 H 41.8007 -4.59478 0.409601 0
M  V30 416 H 40.0437 -4.31415 0.454264 0
M  V30 417 H 40.7147 -5.47618 -0.694175 0
M  V30 418 H 43.1907 -3.81266 -1.66659 0
M  V30 419 H 42.0667 -4.83512 -2.59822 0
M  V30 420 H 42.3277 -3.16744 -3.08424 0
M  V30 421 N 41.3868 0.248026 -1.55636 0
M  V30 422 C 42.3338 1.30707 -1.90222 0
M  V30 423 C 43.3038 1.47881 -0.756332 0
M  V30 424 O 44.4888 1.61883 -1.00988 0
M  V30 425 C 41.6288 2.65769 -2.20138 0
M  V30 426 C 40.7418 2.56612 -3.47526 0
M  V30 427 C 39.8768 3.8402 -3.67017 0
M  V30 428 C 38.9158 3.69476 -4.8801 0
M  V30 429 N 38.0528 4.88774 -5.04029 0
M  V30 430 H 42.8928 1.00512 -2.80538 0
M  V30 431 H 40.4298 0.485055 -1.38873 0
M  V30 432 H 42.3878 3.44386 -2.35487 0
M  V30 433 H 41.0178 2.94115 -1.33027 0
M  V30 434 H 40.0698 1.69571 -3.40514 0
M  V30 435 H 41.3818 2.41774 -4.36287 0
M  V30 436 H 40.5358 4.7108 -3.8232 0
M  V30 437 H 39.2748 4.01754 -2.76487 0
M  V30 438 H 38.2798 2.80799 -4.72686 0
M  V30 439 H 39.5048 3.53238 -5.8 0
M  V30 440 H 37.4508 5.0687 -4.16435 0
M  V30 441 H 37.3678 4.76562 -5.86877 0
M  V30 442 H 38.6358 5.77335 -5.23741 0
M  V30 443 N 42.8649 1.48995 0.513639 0
M  V30 444 C 44.2809 1.35478 0.843682 0
M  V30 445 C 44.4809 0.378213 1.97919 0
M  V30 446 O 43.5369 -0.194689 2.51748 0
M  V30 447 C 44.8499 2.75901 1.1958 0
M  V30 448 C 46.3979 2.84509 1.30474 0
M  V30 449 C 46.8729 4.25671 1.69021 0
M  V30 450 N 48.3639 4.28422 1.76094 0
M  V30 451 C 49.0989 5.34601 2.07338 0
M  V30 452 N 48.5949 6.5104 2.36894 0
M  V30 453 N 50.3879 5.22007 2.08483 0
M  V30 454 H 42.5389 2.11092 -0.235328 0
M  V30 455 H 44.8019 0.947039 -0.0426669 0
M  V30 456 H 44.5079 3.49001 0.434913 0
M  V30 457 H 44.3819 3.10467 2.1422 0
M  V30 458 H 46.7689 2.11655 2.05637 0
M  V30 459 H 46.8499 2.53542 0.339155 0
M  V30 460 H 46.4939 4.99048 0.944135 0
M  V30 461 H 46.4239 4.54094 2.66658 0
M  V30 462 H 48.9149 3.44441 1.55464 0
M  V30 463 H 49.2279 7.2779 2.59887 0
M  V30 464 H 47.5729 6.54287 2.34378 0
M  V30 465 H 50.7639 4.30051 1.84861 0
M  V30 466 H 50.9369 6.04854 2.325 0
M  V30 467 N 44.343 -0.763751 1.37857 0
M  V30 468 C 45.571 -1.55293 1.36718 0
M  V30 469 C 45.986 -1.88745 -0.0455434 0
M  V30 470 O 45.343 -1.52039 -1.00947 0
M  V30 471 C 45.394 -2.85831 2.2132 0
M  V30 472 O 45.115 -2.5381 3.57089 0
M  V30 473 C 46.616 -3.80023 2.28249 0
M  V30 474 H 43.836 -0.480841 0.468009 0
M  V30 475 H 46.38 -0.946009 1.81303 0
M  V30 476 H 44.535 -3.42926 1.80223 0
M  V30 477 H 44.949 -3.37459 4.01524 0
M  V30 478 H 46.423 -4.68599 2.91752 0
M  V30 479 H 46.9 -4.1973 1.2932 0
M  V30 480 H 47.506 -3.28855 2.69693 0
M  V30 481 N 45.8211 -1.22559 -0.990812 0
M  V30 482 C 47.0701 -1.04553 -1.72486 0
M  V30 483 C 47.3831 0.419349 -1.91052 0
M  V30 484 O 48.5891 0.719121 -2.61803 0
M  V30 485 C 47.0451 -1.82231 -3.10355 0
M  V30 486 C 46.6531 -3.32981 -2.99713 0
M  V30 487 C 48.3971 -1.7268 -3.87791 0
M  V30 488 C 46.3041 -4.03091 -4.32748 0
M  V30 489 H 45.2341 -0.387614 -0.646739 0
M  V30 490 H 47.8851 -1.46429 -1.10593 0
M  V30 491 H 46.2671 -1.33155 -3.72942 0
M  V30 492 H 47.4411 -3.89466 -2.46278 0
M  V30 493 H 45.7561 -3.43231 -2.35758 0
M  V30 494 H 48.3531 -2.22381 -4.86262 0
M  V30 495 H 48.6961 -0.687607 -4.10582 0
M  V30 496 H 49.2291 -2.1931 -3.31885 0
M  V30 497 H 45.9681 -5.07273 -4.15156 0
M  V30 498 H 45.4881 -3.51394 -4.86089 0
M  V30 499 H 47.1671 -4.08804 -5.01486 0
M  V30 500 N 47.2992 1.18797 -1.03562 0
M  V30 501 C 48.5482 1.87978 -0.731235 0
M  V30 502 C 48.8612 1.80911 0.743671 0
M  V30 503 O 50.0672 2.45407 1.16137 0
M  V30 504 C 48.5232 3.3721 -1.25768 0
M  V30 505 C 48.1312 3.52818 -2.76085 0
M  V30 506 C 49.8752 4.11825 -1.0296 0
M  V30 507 C 47.7822 4.9598 -3.22114 0
M  V30 508 H 46.7122 0.704063 -0.269835 0
M  V30 509 H 49.3632 1.34266 -1.25079 0
M  V30 510 H 47.7452 3.90359 -0.666011 0
M  V30 511 H 48.9192 3.09965 -3.40966 0
M  V30 512 H 47.2342 2.91602 -2.97249 0
M  V30 513 H 49.8312 5.17411 -1.34869 0
M  V30 514 H 50.1742 4.16287 0.0333546 0
M  V30 515 H 50.7072 3.64833 -1.58562 0
M  V30 516 H 47.4462 4.96684 -4.27768 0
M  V30 517 H 46.9662 5.39569 -2.61965 0
M  V30 518 H 48.6452 5.6467 -3.15844 0
M  V30 519 N 48.7773 0.814389 1.34928 0
M  V30 520 C 49.7243 0.22822 2.29669 0
M  V30 521 C 50.6943 -0.642164 1.53184 0
M  V30 522 O 51.8793 -0.585605 1.81591 0
M  V30 523 C 49.0193 -0.61089 3.3965 0
M  V30 524 C 48.1323 0.280792 4.31086 0
M  V30 525 C 47.2673 -0.567067 5.28165 0
M  V30 526 C 46.3063 0.324531 6.11239 0
M  V30 527 N 45.4433 -0.483756 7.00431 0
M  V30 528 H 50.2833 1.04153 2.79206 0
M  V30 529 H 47.8203 0.525133 1.37407 0
M  V30 530 H 49.7783 -1.11263 4.0209 0
M  V30 531 H 48.4083 -1.38939 2.91369 0
M  V30 532 H 47.4603 0.900688 3.69583 0
M  V30 533 H 48.7723 0.966723 4.89342 0
M  V30 534 H 47.9263 -1.13363 5.96015 0
M  V30 535 H 46.6653 -1.28654 4.70425 0
M  V30 536 H 45.6703 0.903298 5.42329 0
M  V30 537 H 46.8953 1.04198 6.71059 0
M  V30 538 H 44.8413 -1.18706 6.45171 0
M  V30 539 H 44.7583 0.143965 7.55863 0
M  V30 540 H 46.0263 -1.03334 7.7262 0
M  V30 541 N 50.2554 -1.46986 0.568584 0
M  V30 542 C 51.5044 -2.01646 0.0465894 0
M  V30 543 C 51.8174 -1.44721 -1.31587 0
M  V30 544 O 53.0234 -1.91113 -1.92842 0
M  V30 545 C 51.4794 -3.59885 0.032752 0
M  V30 546 C 51.0874 -4.25804 1.39266 0
M  V30 547 C 52.8314 -4.22255 -0.436038 0
M  V30 548 C 50.7384 -5.76081 1.33732 0
M  V30 549 H 49.6684 -0.753876 0.013647 0
M  V30 550 H 52.3194 -1.68864 0.718131 0
M  V30 551 H 50.7014 -3.8968 -0.704669 0
M  V30 552 H 51.8754 -4.07637 2.1487 0
M  V30 553 H 50.1904 -3.7547 1.80032 0
M  V30 554 H 52.7874 -5.32394 -0.49602 0
M  V30 555 H 53.1304 -3.90212 -1.45053 0
M  V30 556 H 53.6634 -3.97033 0.246877 0
M  V30 557 H 50.4024 -6.12761 2.32817 0
M  V30 558 H 49.9224 -5.96553 0.623267 0
M  V30 559 H 51.6014 -6.38518 1.0442 0
M  V30 560 N 51.7335 -0.305618 -1.54608 0
M  V30 561 C 52.9825 0.303098 -1.9941 0
M  V30 562 C 53.2955 1.54648 -1.19764 0
M  V30 563 O 54.5015 2.23007 -1.54855 0
M  V30 564 C 52.9575 0.590588 -3.55021 0
M  V30 565 C 52.5655 -0.634719 -4.43481 0
M  V30 566 C 54.3095 1.16025 -4.08336 0
M  V30 567 C 52.2165 -0.320126 -5.90533 0
M  V30 568 H 51.1465 0.117031 -0.744862 0
M  V30 569 H 53.7975 -0.415045 -1.78745 0
M  V30 570 H 52.1795 1.36845 -3.71604 0
M  V30 571 H 53.3535 -1.41079 -4.38672 0
M  V30 572 H 51.6685 -1.12333 -4.00962 0
M  V30 573 H 54.2655 1.40994 -5.15776 0
M  V30 574 H 54.6085 2.10397 -3.5922 0
M  V30 575 H 55.1415 0.443985 -3.95315 0
M  V30 576 H 51.8805 -1.23254 -6.43808 0
M  V30 577 H 51.4005 0.418579 -5.98338 0
M  V30 578 H 53.0795 0.0766241 -6.46955 0
M  V30 579 N 53.2116 1.57565 -0.0334293 0
M  V30 580 C 54.4596 1.91598 0.642999 0
M  V30 581 C 54.7806 0.910847 1.7242 0
M  V30 582 O 54.0506 -0.0469931 1.95844 0
M  V30 583 H 52.6306 0.707228 0.240496 0
M  V30 584 H 55.2926 1.94726 -0.0822488 0
M  V30 585 H 54.3886 2.92336 1.09298 0
M  V30 586 N 54.6897 -0.239769 1.55765 0
M  V30 587 C 55.9367 -0.966801 1.7793 0
M  V30 588 C 56.2647 -1.85046 0.599015 0
M  V30 589 O 55.5197 -1.91197 -0.417395 0
M  V30 590 C 55.8187 -1.852 3.05672 0
M  V30 591 C 55.4847 -1.1231 4.36689 0
M  V30 592 C 54.1467 -0.921689 4.72291 0
M  V30 593 C 56.4987 -0.607019 5.17653 0
M  V30 594 C 53.8267 -0.191996 5.86386 0
M  V30 595 C 56.1787 0.109241 6.32506 0
M  V30 596 C 54.8427 0.322073 6.66723 0
M  V30 597 H 54.1127 -0.353778 0.651093 0
M  V30 598 H 56.7597 -0.23634 1.90036 0
M  V30 599 H 55.0647 -2.64975 2.8861 0
M  V30 600 H 56.7617 -2.41635 3.20021 0
M  V30 601 H 53.3517 -1.29004 4.08725 0
M  V30 602 H 57.5357 -0.750153 4.90598 0
M  V30 603 H 52.7917 -0.0166949 6.11398 0
M  V30 604 H 56.9657 0.516737 6.9448 0
M  V30 605 H 54.5927 0.88944 7.54979 0
M  V30 606 N 56.1678 -1.49265 -0.50573 0
M  V30 607 C 57.1008 -1.60183 -1.62532 0
M  V30 608 C 58.0788 -0.451107 -1.56217 0
M  V30 609 O 59.2628 -0.666016 -1.76342 0
M  V30 610 C 56.3898 -1.55238 -3.01029 0
M  V30 611 C 55.4358 -2.7545 -3.25621 0
M  V30 612 S 56.2688 -4.37174 -3.09256 0
M  V30 613 C 57.4248 -4.34866 -4.50158 0
M  V30 614 H 57.6578 -2.54894 -1.53025 0
M  V30 615 H 55.1908 -1.38098 -0.690535 0
M  V30 616 H 57.1488 -1.53071 -3.80893 0
M  V30 617 H 55.8098 -0.618238 -3.07956 0
M  V30 618 H 55.0028 -2.68197 -4.26716 0
M  V30 619 H 54.6048 -2.75005 -2.53472 0
M  V30 620 H 56.8968 -4.06295 -5.42154 0
M  V30 621 H 57.8398 -5.36223 -4.62462 0
M  V30 622 H 58.2478 -3.65007 -4.30616 0
M  V30 623 N 57.6459 0.756429 -1.3826 0
M  V30 624 C 58.8949 1.51082 -1.3363 0
M  V30 625 C 59.2079 1.95467 0.0720068 0
M  V30 626 O 60.4139 2.7043 0.240834 0
M  V30 627 C 58.8699 2.72893 -2.34644 0
M  V30 628 C 58.4779 2.35544 -3.81081 0
M  V30 629 C 60.2219 3.50791 -2.39052 0
M  V30 630 C 58.1289 3.53948 -4.73787 0
M  V30 631 H 57.0589 0.56727 -0.49671 0
M  V30 632 H 59.7099 0.827147 -1.638 0
M  V30 633 H 58.0919 3.43227 -1.97513 0
M  V30 634 H 59.2659 1.72894 -4.27135 0
M  V30 635 H 57.5809 1.70786 -3.79764 0
M  V30 636 H 60.1779 4.38823 -3.05513 0
M  V30 637 H 60.5209 3.91745 -1.40861 0
M  V30 638 H 61.0539 2.87467 -2.74968 0
M  V30 639 H 57.7929 3.18064 -5.73163 0
M  V30 640 H 57.3129 4.15651 -4.32428 0
M  V30 641 H 58.9919 4.20566 -4.91663 0
M  V30 642 N 59.124 1.23083 0.984299 0
M  V30 643 C 60.373 1.05466 1.71929 0
M  V30 644 C 60.686 -0.409211 1.91272 0
M  V30 645 O 61.892 -0.705226 2.62181 0
M  V30 646 C 60.348 1.83874 3.09384 0
M  V30 647 C 59.956 3.34566 2.97943 0
M  V30 648 C 61.7 1.74734 3.8687 0
M  V30 649 C 59.607 4.05381 4.30605 0
M  V30 650 H 58.537 0.391039 0.644674 0
M  V30 651 H 61.188 1.47013 1.09815 0
M  V30 652 H 59.57 1.35131 3.72231 0
M  V30 653 H 60.744 3.90767 2.44209 0
M  V30 654 H 59.059 3.44476 2.33934 0
M  V30 655 H 61.656 2.24957 4.85076 0
M  V30 656 H 61.999 0.709372 4.10212 0
M  V30 657 H 62.532 2.21067 3.30717 0
M  V30 658 H 59.271 5.09467 4.1246 0
M  V30 659 H 58.791 3.53967 4.84218 0
M  V30 660 H 60.47 4.11458 4.99311 0
M  V30 661 N 60.6021 -1.18246 1.0419 0
M  V30 662 C 61.5651 -2.20128 0.638452 0
M  V30 663 C 62.5651 -1.57885 -0.304805 0
M  V30 664 O 63.7551 -1.73967 -0.0900369 0
M  V30 665 C 60.8871 -3.4084 -0.0637751 0
M  V30 666 H 62.0801 -2.57336 1.54007 0
M  V30 667 H 59.6331 -1.32152 0.834598 0
M  V30 668 H 60.3681 -3.09166 -0.979136 0
M  V30 669 H 60.1531 -3.8726 0.614198 0
M  V30 670 H 61.6431 -4.16274 -0.332512 0
M  V30 671 N 62.0802 -0.821533 -1.34494 0
M  V30 672 C 63.3272 -0.408946 -1.98328 0
M  V30 673 C 63.6552 1.02764 -1.65136 0
M  V30 674 O 62.9102 1.73026 -0.914349 0
M  V30 675 C 63.2092 -0.556512 -3.53041 0
M  V30 676 C 62.8752 -1.95861 -4.0614 0
M  V30 677 C 61.5372 -2.34217 -4.20352 0
M  V30 678 C 63.8892 -2.87523 -4.34718 0
M  V30 679 C 61.2172 -3.63572 -4.6047 0
M  V30 680 C 63.5692 -4.1634 -4.76281 0
M  V30 681 C 62.2332 -4.54675 -4.88699 0
M  V30 682 H 61.5032 -0.149644 -0.725732 0
M  V30 683 H 64.1502 -1.04521 -1.6046 0
M  V30 684 H 62.4552 0.163148 -3.9146 0
M  V30 685 H 64.1522 -0.217826 -4.00408 0
M  V30 686 H 60.7422 -1.65066 -3.95539 0
M  V30 687 H 64.9262 -2.59133 -4.23277 0
M  V30 688 H 60.1822 -3.93101 -4.68275 0
M  V30 689 H 64.3562 -4.87455 -4.97354 0
M  V30 690 H 61.9832 -5.54959 -5.19542 0
M  V30 691 N 63.5583 1.46682 -0.576371 0
M  V30 692 C 64.8053 2.02412 -0.0595339 0
M  V30 693 C 65.1333 1.44859 1.29793 0
M  V30 694 O 64.3883 0.601099 1.8624 0
M  V30 695 C 64.6873 3.57345 0.062886 0
M  V30 696 C 64.3533 4.33908 -1.22616 0
M  V30 697 C 63.0153 4.54544 -1.57933 0
M  V30 698 C 65.3673 4.77919 -2.07948 0
M  V30 699 C 62.6953 5.16444 -2.78393 0
M  V30 700 C 65.0473 5.41149 -3.27629 0
M  V30 701 C 63.7113 5.60014 -3.63236 0
M  V30 702 H 62.9813 0.74068 -0.021785 0
M  V30 703 H 65.6283 1.76128 -0.751735 0
M  V30 704 H 63.9333 3.82729 0.838178 0
M  V30 705 H 65.6303 3.98136 0.478439 0
M  V30 706 H 62.2203 4.18138 -0.941202 0
M  V30 707 H 66.4043 4.61738 -1.81967 0
M  V30 708 H 61.6603 5.29242 -3.06126 0
M  V30 709 H 65.8343 5.74211 -3.94023 0
M  V30 710 H 63.4613 6.07748 -4.56669 0
M  V30 711 N 65.0364 0.313813 1.54444 0
M  V30 712 C 66.2824 -0.292108 2.00685 0
M  V30 713 C 66.6154 -1.52548 1.20177 0
M  V30 714 O 65.8904 -1.92452 0.281531 0
M  V30 715 C 66.1734 -0.635968 3.5444 0
M  V30 716 C 66.0264 0.607437 4.4568 0
M  V30 717 C 67.3454 -1.45747 4.15266 0
M  V30 718 H 64.4644 -0.104697 0.729526 0
M  V30 719 H 67.1064 0.428457 1.85106 0
M  V30 720 H 65.2564 -1.24986 3.67846 0
M  V30 721 H 66.9284 1.24581 4.44159 0
M  V30 722 H 65.1714 1.23822 4.15753 0
M  V30 723 H 65.8424 0.322515 5.51057 0
M  V30 724 H 68.3184 -0.938645 4.05375 0
M  V30 725 H 67.1944 -1.66683 5.2298 0
M  V30 726 H 67.4554 -2.45063 3.67963 0
M  V30 727 N 66.5145 -1.57545 0.0417849 0
M  V30 728 C 67.7605 -1.92601 -0.635021 0
M  V30 729 C 68.0935 -0.919627 -1.71045 0
M  V30 730 O 67.3685 0.0557892 -1.9442 0
M  V30 731 C 67.6515 -3.38085 -1.23979 0
M  V30 732 C 67.5045 -4.49467 -0.173057 0
M  V30 733 C 68.8235 -3.83776 -2.15416 0
M  V30 734 H 65.9425 -0.700397 -0.229374 0
M  V30 735 H 68.5845 -1.89728 0.101633 0
M  V30 736 H 66.7345 -3.40664 -1.86762 0
M  V30 737 H 68.4065 -4.59018 0.458312 0
M  V30 738 H 66.6495 -4.30909 0.499996 0
M  V30 739 H 67.3205 -5.48323 -0.636054 0
M  V30 740 H 69.7965 -3.83013 -1.62605 0
M  V30 741 H 68.6725 -4.8624 -2.54679 0
M  V30 742 H 68.9335 -3.19998 -3.05047 0
M  V30 743 N 67.9926 0.231505 -1.5589 0
M  V30 744 C 68.9226 1.29022 -1.94617 0
M  V30 745 C 69.9036 1.4941 -0.813067 0
M  V30 746 O 71.0886 1.6176 -1.07459 0
M  V30 747 C 68.2186 2.64199 -2.25424 0
M  V30 748 C 67.1726 2.58484 -3.41131 0
M  V30 749 C 66.4986 3.97599 -3.57518 0
M  V30 750 C 67.7986 2.1413 -4.76388 0
M  V30 751 H 69.4926 0.968563 -2.83301 0
M  V30 752 H 67.0386 0.464479 -1.36303 0
M  V30 753 H 68.9916 3.38413 -2.51107 0
M  V30 754 H 67.7156 2.98032 -1.33583 0
M  V30 755 H 66.3746 1.86727 -3.15481 0
M  V30 756 H 66.0226 4.28723 -2.6307 0
M  V30 757 H 65.7226 3.94659 -4.35337 0
M  V30 758 H 67.2466 4.7349 -3.85538 0
M  V30 759 H 68.6606 2.78083 -5.01341 0
M  V30 760 H 67.0576 2.2227 -5.57419 0
M  V30 761 H 68.1276 1.09331 -4.72414 0
M  V30 762 N 69.4707 1.49531 0.497807 0
M  V30 763 C 70.4007 1.6935 1.60757 0
M  V30 764 C 71.3817 0.542218 1.61227 0
M  V30 765 O 72.5667 0.778417 1.77917 0
M  V30 766 C 69.6967 1.76298 2.99226 0
M  V30 767 C 68.6507 2.91248 3.13622 0
M  V30 768 C 67.9767 2.83312 4.53474 0
M  V30 769 C 69.2767 4.3214 2.93346 0
M  V30 770 H 70.9707 2.62263 1.44425 0
M  V30 771 H 68.5167 1.26208 0.693367 0
M  V30 772 H 70.4697 1.88749 3.76765 0
M  V30 773 H 69.1937 0.799871 3.16654 0
M  V30 774 H 67.8527 2.78404 2.38509 0
M  V30 775 H 67.5007 1.84902 4.67782 0
M  V30 776 H 67.2007 3.60465 4.64046 0
M  V30 777 H 68.7247 2.97775 5.33069 0
M  V30 778 H 70.1387 4.45649 3.60652 0
M  V30 779 H 68.5357 5.1054 3.15387 0
M  V30 780 H 69.6057 4.46363 1.89441 0
M  V30 781 N 70.9488 -0.749086 1.3866 0
M  V30 782 C 71.8788 -1.8764 1.38973 0
M  V30 783 C 72.8598 -1.68178 0.255004 0
M  V30 784 O 74.0448 -1.88704 0.458754 0
M  V30 785 C 71.1748 -3.25222 1.21851 0
M  V30 786 C 70.1288 -3.59295 2.32575 0
M  V30 787 C 69.4548 -4.95663 2.00555 0
M  V30 788 C 70.7548 -3.63709 3.7485 0
M  V30 789 H 72.4488 -1.87635 2.3331 0
M  V30 790 H 69.9948 -0.901329 1.12303 0
M  V30 791 H 71.9478 -4.03746 1.20695 0
M  V30 792 H 70.6718 -3.25719 0.239775 0
M  V30 793 H 69.3308 -2.83093 2.32925 0
M  V30 794 H 68.9788 -4.92724 1.01154 0
M  V30 795 H 68.6788 -5.19429 2.74714 0
M  V30 796 H 70.2028 -5.7656 2.01024 0
M  V30 797 H 71.6168 -4.32338 3.76506 0
M  V30 798 H 70.0138 -3.98986 4.48252 0
M  V30 799 H 71.0838 -2.63834 4.06841 0
M  V30 800 N 72.4269 -1.23603 -0.977757 0
M  V30 801 C 73.6749 -1.06759 -1.71601 0
M  V30 802 C 73.9959 0.395929 -1.90938 0
M  V30 803 O 73.2659 1.28356 -1.47992 0
M  V30 804 H 71.8459 -0.392062 -0.635843 0
M  V30 805 H 74.5079 -1.55362 -1.1768 0
M  V30 806 H 73.6039 -1.55763 -2.70452 0
M  V30 807 N 73.905 1.17692 -1.04816 0
M  V30 808 C 75.154 1.87192 -0.751132 0
M  V30 809 C 75.467 1.8169 0.724441 0
M  V30 810 O 76.673 2.46625 1.13527 0
M  V30 811 C 75.129 3.35857 -1.29338 0
M  V30 812 C 74.737 3.4987 -2.79812 0
M  V30 813 C 76.481 4.10709 -1.07322 0
M  V30 814 C 74.388 4.92536 -3.27356 0
M  V30 815 H 73.318 0.701162 -0.277288 0
M  V30 816 H 75.969 1.32932 -1.26496 0
M  V30 817 H 74.351 3.89631 -0.707376 0
M  V30 818 H 75.525 3.06332 -3.44235 0
M  V30 819 H 73.84 2.88433 -3.00325 0
M  V30 820 H 76.437 5.15952 -1.4035 0
M  V30 821 H 76.78 4.16299 -0.0108001 0
M  V30 822 H 77.313 3.6313 -1.62423 0
M  V30 823 H 74.052 4.92119 -4.33012 0
M  V30 824 H 73.572 5.3676 -2.67673 0
M  V30 825 H 75.251 5.61288 -3.21815 0
M  V30 826 N 75.3831 0.828654 1.34056 0
M  V30 827 C 76.3131 0.269443 2.3194 0
M  V30 828 C 77.2941 -0.617247 1.58506 0
M  V30 829 O 78.4791 -0.542931 1.86456 0
M  V30 830 C 75.6091 -0.564793 3.42677 0
M  V30 831 C 74.5631 0.225241 4.27407 0
M  V30 832 C 73.8891 -0.7321 5.29664 0
M  V30 833 C 75.1891 1.43663 5.02154 0
M  V30 834 H 76.8831 1.08728 2.7896 0
M  V30 835 H 74.4291 0.524283 1.34117 0
M  V30 836 H 76.3821 -0.966233 4.10173 0
M  V30 837 H 75.1061 -1.41574 2.9432 0
M  V30 838 H 73.7651 0.608117 3.61521 0
M  V30 839 H 73.4131 -1.57916 4.77568 0
M  V30 840 H 73.1131 -0.20767 5.87233 0
M  V30 841 H 74.6371 -1.13128 6.00029 0
M  V30 842 H 76.0511 1.1089 5.62473 0
M  V30 843 H 74.4481 1.89711 5.69324 0
M  V30 844 H 75.5181 2.21181 4.31517 0
M  V30 845 N 76.8612 -1.46375 0.584142 0
M  V30 846 C 77.7912 -2.33103 -0.136037 0
M  V30 847 C 78.7722 -1.45431 -0.882255 0
M  V30 848 O 79.9572 -1.74246 -0.857434 0
M  V30 849 C 77.0872 -3.27731 -1.14933 0
M  V30 850 C 76.0412 -4.24855 -0.517862 0
M  V30 851 C 75.3672 -5.09001 -1.63773 0
M  V30 852 C 76.6672 -5.19439 0.545886 0
M  V30 853 H 78.3612 -2.93568 0.588086 0
M  V30 854 H 75.9072 -1.41166 0.284259 0
M  V30 855 H 77.8602 -3.87261 -1.66153 0
M  V30 856 H 76.5842 -2.65377 -1.90375 0
M  V30 857 H 75.2432 -3.6659 -0.0267361 0
M  V30 858 H 74.8912 -4.43031 -2.38185 0
M  V30 859 H 74.5912 -5.74777 -1.22085 0
M  V30 860 H 76.1152 -5.71396 -2.15266 0
M  V30 861 H 77.5292 -5.73177 0.118704 0
M  V30 862 H 75.9262 -5.93566 0.88317 0
M  V30 863 H 76.9962 -4.63285 1.43162 0
M  V30 864 N 78.3393 -0.321999 -1.54275 0
M  V30 865 C 79.5863 0.281044 -2.0054 0
M  V30 866 C 79.9143 1.52265 -1.21019 0
M  V30 867 O 79.1693 1.93687 -0.279982 0
M  V30 868 C 79.4683 0.661769 -3.5122 0
M  V30 869 C 79.1343 -0.480482 -4.48333 0
M  V30 870 C 77.7963 -0.794005 -4.74604 0
M  V30 871 C 80.1483 -1.24783 -5.06042 0
M  V30 872 C 77.4763 -1.87763 -5.55844 0
M  V30 873 C 79.8283 -2.32153 -5.88462 0
M  V30 874 C 78.4923 -2.64089 -6.13036 0
M  V30 875 H 77.7623 0.102841 -0.733829 0
M  V30 876 H 80.4093 -0.445453 -1.86247 0
M  V30 877 H 78.7143 1.46867 -3.63232 0
M  V30 878 H 80.4113 1.13989 -3.84457 0
M  V30 879 H 77.0013 -0.226039 -4.28004 0
M  V30 880 H 81.1853 -1.01887 -4.85729 0
M  V30 881 H 76.4413 -2.12954 -5.73115 0
M  V30 882 H 80.6153 -2.92057 -6.32199 0
M  V30 883 H 78.2423 -3.48185 -6.75775 0
M  V30 884 N 79.8174 1.5752 -0.0501392 0
M  V30 885 C 80.7804 2.1037 0.909786 0
M  V30 886 C 81.7804 1.02308 1.24056 0
M  V30 887 O 82.9704 1.28385 1.17741 0
M  V30 888 C 80.1024 2.58708 2.21998 0
M  V30 889 H 81.2954 2.96479 0.451665 0
M  V30 890 H 78.8484 1.55038 0.198248 0
M  V30 891 H 79.5834 1.75989 2.72394 0
M  V30 892 H 79.3684 3.37675 1.99295 0
M  V30 893 H 80.8584 2.99747 2.9076 0
M  V30 894 N 81.2955 -0.223234 1.56011 0
M  V30 895 C 82.5255 -0.963413 1.82762 0
M  V30 896 C 82.9335 -1.78516 0.626804 0
M  V30 897 O 82.2765 -1.78974 -0.414014 0
M  V30 898 C 82.3385 -1.93126 3.0322 0
M  V30 899 C 82.0025 -1.2942 4.38291 0
M  V30 900 C 82.9995 -0.684916 5.15369 0
M  V30 901 C 80.6845 -1.30647 4.85012 0
M  V30 902 C 82.6785 -0.0963971 6.37327 0
M  V30 903 C 80.3655 -0.71411 6.06913 0
M  V30 904 C 81.3635 -0.110123 6.82911 0
M  V30 905 O 81.0515 0.47303 8.02507 0
M  V30 906 H 80.7835 -0.288011 0.611576 0
M  V30 907 H 83.3375 -0.244103 2.03944 0
M  V30 908 H 81.5675 -2.68952 2.77852 0
M  V30 909 H 83.2565 -2.53685 3.16857 0
M  V30 910 H 84.0225 -0.667774 4.80381 0
M  V30 911 H 79.9015 -1.76598 4.25833 0
M  V30 912 H 83.4455 0.375657 6.96588 0
M  V30 913 H 79.3425 -0.728659 6.41374 0
M  V30 914 H 80.1105 0.367186 8.17676 0
M  V30 915 N 82.7736 -1.49793 -0.48987 0
M  V30 916 C 84.0036 -1.6333 -1.26518 0
M  V30 917 C 84.4116 -0.308392 -1.8667 0
M  V30 918 O 83.7546 0.717512 -1.69108 0
M  V30 919 C 83.8166 -2.6522 -2.4269 0
M  V30 920 C 83.4806 -4.09279 -2.03321 0
M  V30 921 C 84.4776 -4.95738 -1.56652 0
M  V30 922 C 82.1626 -4.55082 -2.12616 0
M  V30 923 C 84.1566 -6.26041 -1.19795 0
M  V30 924 C 81.8436 -5.85396 -1.75371 0
M  V30 925 C 82.8416 -6.707 -1.29036 0
M  V30 926 O 82.5296 -7.98584 -0.92299 0
M  V30 927 H 82.2616 -0.552502 -0.389509 0
M  V30 928 H 84.8156 -1.96642 -0.593381 0
M  V30 929 H 83.0456 -2.27112 -3.12981 0
M  V30 930 H 84.7346 -2.68171 -3.04695 0
M  V30 931 H 85.5006 -4.61575 -1.48908 0
M  V30 932 H 81.3796 -3.88844 -2.47631 0
M  V30 933 H 84.9236 -6.92578 -0.835582 0
M  V30 934 H 80.8206 -6.19085 -1.82768 0
M  V30 935 H 81.5886 -8.11692 -1.05349 0
M  V30 936 N 84.2517 0.741722 -1.39055 0
M  V30 937 C 85.2147 1.83733 -1.37021 0
M  V30 938 C 86.2147 1.58542 -0.268534 0
M  V30 939 O 87.4047 1.66067 -0.526076 0
M  V30 940 C 84.5367 3.2141 -1.13617 0
M  V30 941 H 85.7297 1.86941 -2.34506 0
M  V30 942 H 83.2827 0.944676 -1.24521 0
M  V30 943 H 84.0177 3.23865 -0.167863 0
M  V30 944 H 83.8027 3.4109 -1.93391 0
M  V30 945 H 85.2927 4.01477 -1.14918 0
M  V30 946 N 85.7298 1.2412 0.971189 0
M  V30 947 C 86.9758 1.09048 1.71698 0
M  V30 948 C 87.3308 -0.367442 1.88859 0
M  V30 949 O 86.6238 -1.26792 1.43646 0
M  V30 950 C 86.8178 1.75983 3.11071 0
M  V30 951 C 86.6468 3.28133 3.07504 0
M  V30 952 C 85.4168 3.97331 3.1218 0
M  V30 953 C 87.6148 4.24773 2.89952 0
M  V30 954 N 85.5968 5.3639 2.98596 0
M  V30 955 C 86.9678 5.50806 2.84627 0
M  V30 956 C 89.0228 4.15392 2.74506 0
M  V30 957 C 87.7258 6.68533 2.65437 0
M  V30 958 C 89.7518 5.32793 2.56682 0
M  V30 959 C 89.1138 6.57756 2.52063 0
M  V30 960 H 85.2128 0.453632 0.636979 0
M  V30 961 H 87.7968 1.56983 1.15171 0
M  V30 962 H 85.9678 1.30566 3.65796 0
M  V30 963 H 87.6998 1.53803 3.74335 0
M  V30 964 H 84.4548 3.48473 3.20724 0
M  V30 965 H 84.8788 6.09321 2.95054 0
M  V30 966 H 89.5208 3.19543 2.76861 0
M  V30 967 H 87.2388 7.64509 2.61825 0
M  V30 968 H 90.8248 5.27383 2.4568 0
M  V30 969 H 89.7048 7.4707 2.38446 0
M  V30 970 N 87.2079 -1.17134 1.05439 0
M  V30 971 C 88.1549 -2.21235 0.657539 0
M  V30 972 C 89.1249 -1.62551 -0.341543 0
M  V30 973 O 90.3099 -1.89379 -0.232393 0
M  V30 974 C 87.4499 -3.45076 0.0410575 0
M  V30 975 C 86.5629 -4.18042 1.08927 0
M  V30 976 C 85.6979 -5.29376 0.439848 0
M  V30 977 C 84.7369 -5.94132 1.4722 0
M  V30 978 N 83.8739 -6.96975 0.846756 0
M  V30 979 H 88.7139 -2.54534 1.54972 0
M  V30 980 H 86.2509 -1.25028 0.775006 0
M  V30 981 H 88.2089 -4.15862 -0.33383 0
M  V30 982 H 86.8389 -3.12353 -0.814568 0
M  V30 983 H 85.8909 -3.45945 1.58196 0
M  V30 984 H 87.2029 -4.62306 1.87282 0
M  V30 985 H 86.3569 -6.06699 0.0115125 0
M  V30 986 H 85.0959 -4.86251 -0.375656 0
M  V30 987 H 84.1009 -5.15538 1.91052 0
M  V30 988 H 85.3259 -6.39337 2.28965 0
M  V30 989 H 83.2719 -6.5598 0.0518075 0
M  V30 990 H 83.1889 -7.39565 1.5678 0
M  V30 991 H 84.4569 -7.78239 0.443277 0
M  V30 992 N 88.686 -0.835752 -1.33615 0
M  V30 993 C 89.649 -0.272 -2.2758 0
M  V30 994 C 90.649 0.557487 -1.50827 0
M  V30 995 O 91.839 0.37173 -1.70188 0
M  V30 996 C 88.971 0.617173 -3.35267 0
M  V30 997 H 90.164 -1.10111 -2.78954 0
M  V30 998 H 87.717 -0.608594 -1.43965 0
M  V30 999 H 88.452 1.46884 -2.89129 0
M  V30 1000 H 88.237 0.0237066 -3.92093 0
M  V30 1001 H 89.727 1.005 -4.05326 0
M  V30 1002 N 90.1641 1.46063 -0.591896 0
M  V30 1003 C 91.5751 1.85944 -0.167822 0
M  V30 1004 C 91.9261 1.49429 1.27143 0
M  V30 1005 O 91.0511 0.913515 1.96173 0
M  V30 1006 C 91.6461 3.37489 -0.297794 0
M  V30 1007 C 90.2051 3.76332 0.0714732 0
M  V30 1008 C 89.3521 2.7006 -0.629509 0
M  V30 1009 H 92.3031 1.37087 -0.799555 0
M  V30 1010 H 92.3241 3.77532 0.474349 0
M  V30 1011 H 91.8361 3.64034 -1.3454 0
M  V30 1012 H 89.9371 3.55405 1.11886 0
M  V30 1013 H 90.0501 4.78088 -0.311245 0
M  V30 1014 H 88.4141 2.54607 -0.0687867 0
M  V30 1015 H 89.1971 2.99444 -1.67894 0
M  V30 1016 N 91.6422 0.330177 1.54103 0
M  V30 1017 C 92.6052 -0.520144 2.2322 0
M  V30 1018 C 93.6052 -1.03828 1.22786 0
M  V30 1019 O 94.7952 -0.929652 1.4732 0
M  V30 1020 C 91.9272 -1.72317 2.94142 0
M  V30 1021 H 93.1202 0.0841605 2.99782 0
M  V30 1022 H 90.6732 0.0813433 1.56088 0
M  V30 1023 H 91.4082 -2.36653 2.21734 0
M  V30 1024 H 91.1932 -1.35898 3.67796 0
M  V30 1025 H 92.6832 -2.3266 3.46784 0
M  V30 1026 N 93.1203 -1.57491 0.0584922 0
M  V30 1027 C 94.3673 -1.92978 -0.613648 0
M  V30 1028 C 94.6953 -0.937461 -1.70417 0
M  V30 1029 O 93.9503 0.049078 -1.95638 0
M  V30 1030 C 94.2493 -3.3513 -1.24188 0
M  V30 1031 C 93.9153 -4.50037 -0.278826 0
M  V30 1032 C 92.5773 -4.81198 -0.0138447 0
M  V30 1033 C 94.9293 -5.19807 0.380777 0
M  V30 1034 C 92.2573 -5.79473 0.918052 0
M  V30 1035 C 94.6093 -6.19079 1.30091 0
M  V30 1036 C 93.2733 -6.48665 1.57449 0
M  V30 1037 H 92.5433 -0.706157 -0.22455 0
M  V30 1038 H 95.1903 -1.91082 0.126533 0
M  V30 1039 H 93.4953 -3.33429 -2.05749 0
M  V30 1040 H 95.1923 -3.59871 -1.769 0
M  V30 1041 H 91.7823 -4.25726 -0.495539 0
M  V30 1042 H 95.9663 -4.95939 0.189158 0
M  V30 1043 H 91.2223 -6.00727 1.1374 0
M  V30 1044 H 95.3963 -6.7225 1.81804 0
M  V30 1045 H 93.0233 -7.24628 2.29822 0
M  V30 1046 N 94.5984 0.214957 -1.56127 0
M  V30 1047 C 95.8264 0.955092 -1.83536 0
M  V30 1048 C 96.2414 1.77677 -0.638472 0
M  V30 1049 O 95.5984 1.78219 0.392968 0
M  V30 1050 C 95.6494 1.86734 -3.09536 0
M  V30 1051 O 95.3704 1.07887 -4.24608 0
M  V30 1052 C 96.8714 2.72082 -3.4998 0
M  V30 1053 H 94.0914 0.279611 -0.609966 0
M  V30 1054 H 96.6354 0.228197 -2.03223 0
M  V30 1055 H 94.7904 2.5481 -2.91806 0
M  V30 1056 H 95.2044 1.69872 -4.9623 0
M  V30 1057 H 96.6784 3.31782 -4.41163 0
M  V30 1058 H 97.1554 3.44806 -2.7204 0
M  V30 1059 H 97.7614 2.09409 -3.70173 0
M  V30 1060 N 96.0765 1.50051 0.48192 0
M  V30 1061 C 96.9865 1.7089 1.60728 0
M  V30 1062 C 98.0025 0.591788 1.63627 0
M  V30 1063 O 99.1785 0.868817 1.81696 0
M  V30 1064 C 96.2435 1.78855 2.97005 0
M  V30 1065 C 95.3045 3.02537 3.04581 0
M  V30 1066 C 94.5375 3.10112 4.34357 0
M  V30 1067 O 94.7605 2.24765 5.24249 0
M  V30 1068 O 93.6945 4.02747 4.47301 0
M  V30 1069 H 97.5205 2.66264 1.46072 0
M  V30 1070 H 95.1055 1.34018 0.660264 0
M  V30 1071 H 96.9875 1.86336 3.77964 0
M  V30 1072 H 95.6625 0.866628 3.11883 0
M  V30 1073 H 94.5695 3.00563 2.22739 0
M  V30 1074 H 95.9025 3.94272 2.94636 0
M  V30 1075 N 97.5546 -0.734337 1.39446 0
M  V30 1076 C 98.5176 -1.83004 1.37994 0
M  V30 1077 C 99.5176 -1.58397 0.276938 0
M  V30 1078 O 100.708 -1.65785 0.534875 0
M  V30 1079 C 97.8396 -3.20802 1.1532 0
M  V30 1080 H 99.0326 -1.85694 2.35494 0
M  V30 1081 H 96.5856 -0.938059 1.25021 0
M  V30 1082 H 97.3206 -3.23772 0.185036 0
M  V30 1083 H 97.1056 -3.4006 1.95197 0
M  V30 1084 H 98.5956 -4.00862 1.17046 0
M  V30 1085 N 99.0327 -1.24633 -0.964593 0
M  V30 1086 C 99.9797 -1.04144 -2.05968 0
M  V30 1087 C 100.95 0.046262 -1.66036 0
M  V30 1088 O 102.135 -0.108972 -1.90489 0
M  V30 1089 C 99.2747 -0.65563 -3.38815 0
M  V30 1090 C 98.3877 -1.81714 -3.91923 0
M  V30 1091 C 97.5227 -1.37662 -5.13052 0
M  V30 1092 C 96.5617 -2.50788 -5.58365 0
M  V30 1093 N 95.6987 -2.07582 -6.70712 0
M  V30 1094 H 100.539 -1.9787 -2.22827 0
M  V30 1095 H 98.0757 -0.9855 -1.09208 0
M  V30 1096 H 100.034 -0.412954 -4.15151 0
M  V30 1097 H 98.6637 0.244627 -3.21872 0
M  V30 1098 H 97.7157 -2.1734 -3.12198 0
M  V30 1099 H 99.0277 -2.66705 -4.21509 0
M  V30 1100 H 98.1817 -1.093 -5.96773 0
M  V30 1101 H 96.9207 -0.497293 -4.85158 0
M  V30 1102 H 95.9257 -2.79906 -4.73215 0
M  V30 1103 H 97.1507 -3.39283 -5.88272 0
M  V30 1104 H 95.0967 -1.22051 -6.44546 0
M  V30 1105 H 95.0137 -2.86125 -6.99763 0
M  V30 1106 H 96.2817 -1.82369 -7.57867 0
M  V30 1107 N 100.511 1.16574 -1.06058 0
M  V30 1108 C 101.441 2.23057 -0.690488 0
M  V30 1109 C 102.422 1.67141 0.315901 0
M  V30 1110 O 103.607 1.93253 0.191556 0
M  V30 1111 C 100.737 3.47222 -0.073625 0
M  V30 1112 C 99.6908 4.16016 -1.00573 0
M  V30 1113 C 99.0168 5.34104 -0.252289 0
M  V30 1114 C 100.317 4.67264 -2.33371 0
M  V30 1115 H 102.011 2.54271 -1.58072 0
M  V30 1116 H 99.5568 1.22218 -0.76149 0
M  V30 1117 H 101.51 4.20939 0.19714 0
M  V30 1118 H 100.234 3.15302 0.85161 0
M  V30 1119 H 98.8928 3.44223 -1.2612 0
M  V30 1120 H 98.5408 4.98437 0.675988 0
M  V30 1121 H 98.2408 5.81072 -0.873455 0
M  V30 1122 H 99.7648 6.10599 0.0109857 0
M  V30 1123 H 101.179 5.32573 -2.12223 0
M  V30 1124 H 99.5758 5.24843 -2.90963 0
M  V30 1125 H 100.646 3.83602 -2.96611 0
M  V30 1126 N 101.989 0.842826 1.3317 0
M  V30 1127 C 102.921 0.236245 2.27979 0
M  V30 1128 C 103.934 -0.585282 1.51915 0
M  V30 1129 O 105.123 -0.411705 1.73687 0
M  V30 1130 C 102.223 -0.685717 3.3189 0
M  V30 1131 C 101.396 0.0973448 4.37292 0
M  V30 1132 C 100.455 -0.748565 5.20848 0
M  V30 1133 O 99.4809 -0.186339 5.68895 0
M  V30 1134 N 100.683 -2.06527 5.42519 0
M  V30 1135 H 103.448 1.05088 2.80672 0
M  V30 1136 H 101.009 0.701667 1.45905 0
M  V30 1137 H 103.001 -1.25669 3.84694 0
M  V30 1138 H 101.571 -1.40105 2.79445 0
M  V30 1139 H 100.791 0.849706 3.84933 0
M  V30 1140 H 102.079 0.635643 5.04814 0
M  V30 1141 H 101.477 -2.54554 5.05192 0
M  V30 1142 H 100.034 -2.58464 5.98364 0
M  V30 1143 N 103.467 -1.45747 0.599634 0
M  V30 1144 C 104.744 -1.95585 0.0240846 0
M  V30 1145 C 105.124 -1.54217 -1.44154 0
M  V30 1146 O 104.472 -0.800903 -2.14004 0
M  V30 1147 C 104.682 -3.48344 0.21385 0
M  V30 1148 C 106.03 -4.24504 0.0904902 0
M  V30 1149 O 107.054 -3.55911 0.143558 0
M  V30 1150 O 105.913 -5.46491 -0.0310766 0
M  V30 1151 H 103.007 -0.82602 -0.0402478 0
M  V30 1152 H 105.553 -1.55951 0.669139 0
M  V30 1153 H 104.325 -3.71397 1.23206 0
M  V30 1154 H 103.948 -3.9485 -0.466842 0
M  V30 1155 N 104.945 -0.338344 -1.53925 0
M  V30 1156 C 106.356 0.146651 -1.86123 0
M  V30 1157 C 106.707 1.5042 -1.2597 0
M  V30 1158 O 105.832 2.08723 -0.571294 0
M  V30 1159 C 106.427 0.272879 -3.37699 0
M  V30 1160 C 104.986 0.702103 -3.69794 0
M  V30 1161 C 104.133 -0.167304 -2.76795 0
M  V30 1162 H 107.084 -0.558123 -1.48562 0
M  V30 1163 H 107.105 1.10128 -3.64214 0
M  V30 1164 H 106.617 -0.715307 -3.81451 0
M  V30 1165 H 104.718 1.6995 -3.31584 0
M  V30 1166 H 104.831 0.495604 -4.7653 0
M  V30 1167 H 103.195 0.359527 -2.5215 0
M  V30 1168 H 103.978 -1.15253 -3.23375 0
M  V30 1169 N 106.423 1.57458 -0.0668435 0
M  V30 1170 C 107.672 1.92477 0.602947 0
M  V30 1171 C 107.985 0.948419 1.71068 0
M  V30 1172 O 109.191 1.19124 2.43971 0
M  V30 1173 C 107.647 3.41903 1.12383 0
M  V30 1174 C 107.255 4.47975 0.04737 0
M  V30 1175 C 108.999 3.85931 1.76797 0
M  V30 1176 C 106.906 5.88529 0.582022 0
M  V30 1177 H 105.836 0.718387 0.22899 0
M  V30 1178 H 108.487 1.82978 -0.138276 0
M  V30 1179 H 106.869 3.46459 1.91787 0
M  V30 1180 H 108.043 4.55029 -0.726978 0
M  V30 1181 H 106.358 4.13384 -0.500243 0
M  V30 1182 H 108.955 4.88322 2.17821 0
M  V30 1183 H 109.298 3.23029 2.62599 0
M  V30 1184 H 109.831 3.83958 1.04024 0
M  V30 1185 H 106.57 6.55065 -0.238721 0
M  V30 1186 H 106.09 5.85004 1.324 0
M  V30 1187 H 107.769 6.38258 1.05999 0
M  V30 1188 N 107.901 -0.206675 1.56239 0
M  V30 1189 C 109.312 -0.772383 1.69974 0
M  V30 1190 C 109.663 -1.84353 0.671436 0
M  V30 1191 O 108.788 -2.15695 -0.174491 0
M  V30 1192 C 109.383 -1.40779 3.08167 0
M  V30 1193 C 107.942 -1.92072 3.23706 0
M  V30 1194 C 107.089 -0.786347 2.65917 0
M  V30 1195 H 110.04 0.0182223 1.5869 0
M  V30 1196 H 110.061 -2.27696 3.04852 0
M  V30 1197 H 109.573 -0.627958 3.82986 0
M  V30 1198 H 107.674 -2.7281 2.53782 0
M  V30 1199 H 107.787 -2.09046 4.31087 0
M  V30 1200 H 106.151 -1.1976 2.24788 0
M  V30 1201 H 106.934 -0.0189416 3.43295 0
M  V30 1202 N 109.379 -1.50304 -0.473955 0
M  V30 1203 C 110.342 -1.6841 -1.55469 0
M  V30 1204 C 111.342 -0.554905 -1.50922 0
M  V30 1205 O 112.532 -0.821882 -1.53593 0
M  V30 1206 C 109.664 -1.70667 -2.95102 0
M  V30 1207 H 110.857 -2.64828 -1.40733 0
M  V30 1208 H 108.41 -1.39742 -0.700132 0
M  V30 1209 H 109.145 -0.75932 -3.15285 0
M  V30 1210 H 108.93 -2.52698 -2.9981 0
M  V30 1211 H 110.42 -1.8664 -3.73571 0
M  V30 1212 N 110.857 0.726932 -1.39834 0
M  V30 1213 C 111.804 1.841 -1.39197 0
M  V30 1214 C 112.774 1.642 -0.250502 0
M  V30 1215 O 113.959 1.85494 -0.446846 0
M  V30 1216 C 111.099 3.21697 -1.24919 0
M  V30 1217 C 110.212 3.53247 -2.48678 0
M  V30 1218 C 109.347 4.80289 -2.26928 0
M  V30 1219 C 108.386 5.04707 -3.4632 0
M  V30 1220 N 107.523 6.22956 -3.23836 0
M  V30 1221 H 112.363 1.83979 -2.34427 0
M  V30 1222 H 109.9 0.898876 -1.16442 0
M  V30 1223 H 111.858 4.01137 -1.1465 0
M  V30 1224 H 110.488 3.21076 -0.333153 0
M  V30 1225 H 109.54 2.68447 -2.69519 0
M  V30 1226 H 110.852 3.67205 -3.37582 0
M  V30 1227 H 110.006 5.67725 -2.13947 0
M  V30 1228 H 108.745 4.68519 -1.35431 0
M  V30 1229 H 107.75 4.1573 -3.5979 0
M  V30 1230 H 108.975 5.18357 -4.38729 0
M  V30 1231 H 106.921 6.12459 -2.35011 0
M  V30 1232 H 106.838 6.37539 -4.063 0
M  V30 1233 H 108.106 7.1321 -3.14566 0
M  V30 1234 N 112.336 1.25143 0.95797 0
M  V30 1235 C 113.585 1.0909 1.69654 0
M  V30 1236 C 113.898 -0.368548 1.92097 0
M  V30 1237 O 115.104 -0.649455 2.63618 0
M  V30 1238 C 113.56 1.90395 3.05414 0
M  V30 1239 C 113.168 3.4081 2.90779 0
M  V30 1240 C 114.912 1.82901 3.83076 0
M  V30 1241 C 112.819 4.14423 4.21909 0
M  V30 1242 H 111.749 0.404625 0.636235 0
M  V30 1243 H 114.4 1.4931 1.06672 0
M  V30 1244 H 112.782 1.42996 3.69281 0
M  V30 1245 H 113.956 3.95859 2.35865 0
M  V30 1246 H 112.271 3.49361 2.26575 0
M  V30 1247 H 114.868 2.35196 4.80195 0
M  V30 1248 H 115.211 0.796224 4.08615 0
M  V30 1249 H 115.744 2.28033 3.25954 0
M  V30 1250 H 112.483 5.18102 4.01561 0
M  V30 1251 H 112.003 3.64159 4.76601 0
M  V30 1252 H 113.682 4.21956 4.90471 0
M  V30 1253 N 113.814 -1.1601 1.06675 0
M  V30 1254 C 115.044 -1.90251 0.805497 0
M  V30 1255 C 115.452 -1.77891 -0.64431 0
M  V30 1256 O 114.795 -1.12383 -1.45313 0
M  V30 1257 C 114.857 -3.41419 1.12576 0
M  V30 1258 C 114.521 -3.77564 2.57477 0
M  V30 1259 C 115.518 -3.79161 3.55715 0
M  V30 1260 C 113.203 -4.08079 2.92877 0
M  V30 1261 C 115.197 -4.10767 4.8739 0
M  V30 1262 C 112.884 -4.39351 4.24751 0
M  V30 1263 C 113.882 -4.40675 5.21818 0
M  V30 1264 O 113.57 -4.71202 6.51325 0
M  V30 1265 H 113.302 -0.610018 0.291297 0
M  V30 1266 H 115.856 -1.47958 1.4247 0
M  V30 1267 H 114.086 -3.84079 0.449503 0
M  V30 1268 H 115.775 -3.9694 0.84814 0
M  V30 1269 H 116.541 -3.55693 3.29708 0
M  V30 1270 H 112.42 -4.06211 2.17976 0
M  V30 1271 H 115.964 -4.11715 5.63148 0
M  V30 1272 H 111.861 -4.62285 4.50514 0
M  V30 1273 H 112.629 -4.88996 6.56373 0
M  V30 1274 N 115.292 -0.849877 -1.32721 0
M  V30 1275 C 116.569 -0.372405 -1.92022 0
M  V30 1276 C 116.949 1.1435 -1.77447 0
M  V30 1277 O 116.297 1.96296 -1.16962 0
M  V30 1278 C 116.507 -0.831482 -3.3895 0
M  V30 1279 C 117.855 -0.845882 -4.16089 0
M  V30 1280 O 118.879 -0.775806 -3.47649 0
M  V30 1281 O 117.738 -0.943753 -5.38289 0
M  V30 1282 H 114.832 -0.107667 -0.819961 0
M  V30 1283 H 117.378 -0.93646 -1.41522 0
M  V30 1284 H 116.15 -1.87448 -3.4348 0
M  V30 1285 H 115.773 -0.24461 -3.96847 0
M  V30 1286 N 116.77 1.45427 -0.607355 0
M  V30 1287 C 117.717 2.3053 0.111625 0
M  V30 1288 C 118.687 1.4209 0.860216 0
M  V30 1289 O 119.872 1.71019 0.845998 0
M  V30 1290 C 117.012 3.26992 1.10319 0
M  V30 1291 C 116.125 4.30535 0.355493 0
M  V30 1292 C 115.26 5.14105 1.33676 0
M  V30 1293 C 114.299 6.09376 0.576862 0
M  V30 1294 N 113.436 6.85727 1.5074 0
M  V30 1295 H 118.276 2.91477 -0.620093 0
M  V30 1296 H 115.813 1.43631 -0.317594 0
M  V30 1297 H 117.771 3.81385 1.6912 0
M  V30 1298 H 116.401 2.67799 1.80232 0
M  V30 1299 H 115.453 3.78805 -0.348023 0
M  V30 1300 H 116.765 4.98235 -0.237423 0
M  V30 1301 H 115.919 5.72897 1.99684 0
M  V30 1302 H 114.658 4.46423 1.9636 0
M  V30 1303 H 113.663 5.49715 -0.0968519 0
M  V30 1304 H 114.888 6.79085 -0.0449341 0
M  V30 1305 H 112.834 6.20735 2.12189 0
M  V30 1306 H 112.751 7.49778 0.967913 0
M  V30 1307 H 114.019 7.4906 2.15706 0
M  V30 1308 N 118.248 0.346503 1.53744 0
M  V30 1309 C 119.196 -0.52422 2.26616 0
M  V30 1310 C 120.19 -1.09948 1.28871 0
M  V30 1311 O 121.396 -1.04488 1.46568 0
M  V30 1312 H 117.771 -0.187743 0.728187 0
M  V30 1313 H 119.742 0.11239 2.98188 0
M  V30 1314 C 118.491 -1.66186 3.05414 0
M  V30 1315 H 117.814 -1.22848 3.80458 0
M  V30 1316 H 119.254 -2.24622 3.59612 0
M  V30 1317 C 117.713 -2.59302 2.1509 0
M  V30 1318 O 118.243 -3.61628 1.74895 0
M  V30 1319 N 116.449 -2.28055 1.8011 0
M  V30 1320 H 115.996 -1.44883 2.12994 0
M  V30 1321 H 115.954 -2.90615 1.19958 0
M  V30 1322 N 119.726 -1.57421 0.075193 0
M  V30 1323 C 120.974 -1.93236 -0.591974 0
M  V30 1324 C 121.295 -0.956241 -1.69944 0
M  V30 1325 O 120.565 -0.00494792 -1.95899 0
M  V30 1326 H 119.145 -0.713355 -0.22166 0
M  V30 1327 H 121.807 -1.9444 0.133848 0
M  V30 1328 H 120.903 -2.95131 -1.01509 0
M  V30 1329 N 121.204 0.198386 -1.56346 0
M  V30 1330 C 122.114 1.2664 -1.97483 0
M  V30 1331 C 123.13 1.49989 -0.882002 0
M  V30 1332 O 124.306 1.62668 -1.18748 0
M  V30 1333 C 121.371 2.59141 -2.30319 0
M  V30 1334 C 120.432 2.43892 -3.53292 0
M  V30 1335 C 119.665 3.70074 -3.84553 0
M  V30 1336 O 119.888 4.74101 -3.1715 0
M  V30 1337 O 118.822 3.658 -4.7799 0
M  V30 1338 H 122.648 0.947304 -2.88548 0
M  V30 1339 H 120.233 0.403123 -1.43859 0
M  V30 1340 H 122.115 3.37352 -2.5253 0
M  V30 1341 H 120.79 2.90684 -1.42423 0
M  V30 1342 H 119.697 1.63803 -3.36332 0
M  V30 1343 H 121.03 2.17282 -4.41644 0
M  V30 1344 N 122.682 1.50554 0.465978 0
M  V30 1345 C 123.612 1.72722 1.57128 0
M  V30 1346 C 124.593 0.576294 1.6004 0
M  V30 1347 O 125.778 0.81598 1.76225 0
M  V30 1348 C 122.908 1.82605 2.95419 0
M  V30 1349 C 121.862 2.97835 3.07373 0
M  V30 1350 C 121.188 2.92867 4.47363 0
M  V30 1351 C 122.488 4.38265 2.84114 0
M  V30 1352 H 124.182 2.65267 1.38829 0
M  V30 1353 H 121.728 1.2765 0.666441 0
M  V30 1354 H 123.681 1.96698 3.72677 0
M  V30 1355 H 122.405 0.866858 3.14886 0
M  V30 1356 H 121.064 2.83401 2.3255 0
M  V30 1357 H 120.712 1.94783 4.63755 0
M  V30 1358 H 120.412 3.70227 4.56296 0
M  V30 1359 H 121.936 3.09015 5.26633 0
M  V30 1360 H 123.35 4.53198 3.51118 0
M  V30 1361 H 121.747 5.17115 3.04487 0
M  V30 1362 H 122.817 4.50281 1.7993 0
M  V30 1363 N 124.16 -0.719506 1.40217 0
M  V30 1364 C 125.406 -1.48152 1.38488 0
M  V30 1365 C 125.739 -1.94195 -0.0141867 0
M  V30 1366 O 125.014 -1.67884 -0.982096 0
M  V30 1367 C 125.297 -2.71035 2.37091 0
M  V30 1368 C 125.15 -2.30912 3.86005 0
M  V30 1369 C 126.469 -3.73182 2.33288 0
M  V30 1370 H 123.588 -0.537395 0.504357 0
M  V30 1371 H 126.23 -0.821472 1.71324 0
M  V30 1372 H 124.38 -3.27352 2.0922 0
M  V30 1373 H 126.052 -1.80107 4.24687 0
M  V30 1374 H 124.295 -1.62958 4.02029 0
M  V30 1375 H 124.966 -3.18978 4.50508 0
M  V30 1376 H 127.442 -3.26485 2.57966 0
M  V30 1377 H 126.318 -4.56806 3.04334 0
M  V30 1378 H 126.579 -4.21202 1.34317 0
M  V30 1379 N 125.638 -1.25649 -0.95132 0
M  V30 1380 C 126.585 -1.06323 -2.04851 0
M  V30 1381 C 127.555 0.0286491 -1.66075 0
M  V30 1382 O 128.74 -0.12917 -1.90362 0
M  V30 1383 C 125.88 -0.691529 -3.381 0
M  V30 1384 C 124.993 -1.85861 -3.89974 0
M  V30 1385 C 124.128 -1.43096 -5.11563 0
M  V30 1386 C 123.167 -2.56696 -5.55674 0
M  V30 1387 N 122.304 -2.14684 -6.68472 0
M  V30 1388 H 127.144 -2.00222 -2.20715 0
M  V30 1389 H 124.681 -0.997027 -1.08156 0
M  V30 1390 H 126.639 -0.456963 -4.1469 0
M  V30 1391 H 125.269 0.210474 -3.22113 0
M  V30 1392 H 124.321 -2.20639 -3.09875 0
M  V30 1393 H 125.633 -2.71161 -4.18657 0
M  V30 1394 H 124.787 -1.15624 -5.9558 0
M  V30 1395 H 123.526 -0.548722 -4.84603 0
M  V30 1396 H 122.531 -2.84909 -4.7022 0
M  V30 1397 H 123.756 -3.45503 -5.8464 0
M  V30 1398 H 121.702 -1.28881 -6.43215 0
M  V30 1399 H 121.619 -2.9353 -6.96689 0
M  V30 1400 H 122.887 -1.90397 -7.5589 0
M  V30 1401 N 127.117 1.15442 -1.07289 0
M  V30 1402 C 128.345 1.90096 -0.81676 0
M  V30 1403 C 128.76 1.7798 0.629966 0
M  V30 1404 O 128.117 1.1313 1.43206 0
M  V30 1405 C 128.168 3.40466 -1.21512 0
M  V30 1406 O 127.889 3.52232 -2.60508 0
M  V30 1407 C 129.39 4.32145 -0.988198 0
M  V30 1408 H 126.61 0.602495 -0.295366 0
M  V30 1409 H 129.154 1.4627 -1.42918 0
M  V30 1410 H 127.309 3.81958 -0.647039 0
M  V30 1411 H 127.723 4.45549 -2.76742 0
M  V30 1412 H 129.197 5.36072 -1.31645 0
M  V30 1413 H 129.674 4.39135 0.0755063 0
M  V30 1414 H 130.28 3.96395 -1.54115 0
M  V30 1415 N 128.595 0.856903 1.32268 0
M  V30 1416 C 129.525 0.31858 2.31316 0
M  V30 1417 C 130.506 -0.583487 1.59779 0
M  V30 1418 O 131.691 -0.503259 1.87566 0
M  V30 1419 C 128.821 -0.491979 3.43798 0
M  V30 1420 C 127.775 0.315849 4.26833 0
M  V30 1421 C 127.101 -0.619586 5.31098 0
M  V30 1422 C 128.401 1.54282 4.98993 0
M  V30 1423 H 130.095 1.14621 2.76591 0
M  V30 1424 H 127.641 0.552613 1.32974 0
M  V30 1425 H 129.594 -0.879012 4.1213 0
M  V30 1426 H 128.318 -1.35299 2.97257 0
M  V30 1427 H 126.977 0.684664 3.6015 0
M  V30 1428 H 126.625 -1.47751 4.8081 0
M  V30 1429 H 126.325 -0.0830621 5.87541 0
M  V30 1430 H 127.849 -1.00375 6.02293 0
M  V30 1431 H 129.263 1.22796 5.59995 0
M  V30 1432 H 127.66 2.01745 5.65172 0
M  V30 1433 H 128.73 2.30285 4.26728 0
M  V30 1434 N 130.073 -1.45103 0.615059 0
M  V30 1435 C 131.35 -1.95549 0.0448276 0
M  V30 1436 C 131.73 -1.55737 -1.4251 0
M  V30 1437 O 131.078 -0.823556 -2.13143 0
M  V30 1438 C 131.288 -3.48098 0.250785 0
M  V30 1439 C 132.636 -4.24384 0.135509 0
M  V30 1440 O 133.66 -3.55738 0.181299 0
M  V30 1441 O 132.519 -5.46493 0.0268878 0
M  V30 1442 H 129.613 -0.8264 -0.0314845 0
M  V30 1443 H 132.159 -1.55232 0.685642 0
M  V30 1444 H 130.931 -3.7007 1.27139 0
M  V30 1445 H 130.554 -3.95323 -0.424937 0
M  V30 1446 N 131.551 -0.354651 -1.53558 0
M  V30 1447 C 132.499 0.512195 -2.26891 0
M  V30 1448 C 133.493 1.09263 -1.29452 0
M  V30 1449 O 134.699 1.03709 -1.47121 0
M  V30 1450 H 131.074 0.183878 -0.729173 0
M  V30 1451 H 133.045 -0.128202 -2.98124 0
M  V30 1452 C 131.794 1.64563 -3.06291 0
M  V30 1453 H 131.117 1.20829 -3.81104 0
M  V30 1454 H 132.557 2.22711 -3.60799 0
M  V30 1455 C 131.016 2.58158 -2.16462 0
M  V30 1456 O 131.546 3.60695 -1.76811 0
M  V30 1457 N 129.752 2.27096 -1.81317 0
M  V30 1458 H 129.299 1.43751 -2.1376 0
M  V30 1459 H 129.257 2.89975 -1.21498 0
M  V30 1460 N 133.029 1.57378 -0.0835403 0
M  V30 1461 C 134.277 1.93547 0.581718 0
M  V30 1462 C 134.598 0.96524 1.69435 0
M  V30 1463 O 133.868 0.0153369 1.95894 0
M  V30 1464 H 132.448 0.714521 0.217874 0
M  V30 1465 H 135.11 1.94366 -0.144158 0
M  V30 1466 H 134.206 2.95665 0.999423 0
M  V30 1467 N 134.507 -0.190092 1.56449 0
M  V30 1468 C 135.439 -1.25973 1.91477 0
M  V30 1469 C 136.452 -1.41452 0.805931 0
M  V30 1470 O 137.641 -1.41789 1.08435 0
M  V30 1471 C 134.741 -2.63117 2.13594 0
M  V30 1472 C 133.914 -2.69182 3.4476 0
M  V30 1473 C 132.973 -3.87557 3.5593 0
M  V30 1474 O 131.999 -3.74427 4.28711 0
M  V30 1475 N 133.201 -5.03224 2.89388 0
M  V30 1476 H 135.966 -0.962394 2.83828 0
M  V30 1477 H 133.527 -0.379981 1.57378 0
M  V30 1478 H 135.519 -3.40742 2.1835 0
M  V30 1479 H 134.089 -2.85319 1.27719 0
M  V30 1480 H 133.309 -1.77793 3.51828 0
M  V30 1481 H 134.597 -2.70229 4.31107 0
M  V30 1482 H 133.995 -5.16791 2.30094 0
M  V30 1483 H 132.552 -5.78778 2.99764 0
M  V30 1484 N 135.985 -1.50799 -0.457987 0
M  V30 1485 C 137.401 -1.38515 -0.792819 0
M  V30 1486 C 137.601 -0.451409 -1.96379 0
M  V30 1487 O 136.657 0.10112 -2.52297 0
M  V30 1488 C 137.97 -2.80149 -1.09258 0
M  V30 1489 C 139.518 -2.89156 -1.19825 0
M  V30 1490 C 139.993 -4.31651 -1.53106 0
M  V30 1491 N 141.484 -4.34662 -1.60072 0
M  V30 1492 C 142.219 -5.41928 -1.87354 0
M  V30 1493 N 141.715 -6.59384 -2.12568 0
M  V30 1494 N 143.508 -5.29385 -1.88965 0
M  V30 1495 H 135.659 -2.10073 0.313511 0
M  V30 1496 H 137.922 -0.944803 0.0777862 0
M  V30 1497 H 137.628 -3.50374 -0.305084 0
M  V30 1498 H 137.502 -3.18204 -2.02549 0
M  V30 1499 H 139.889 -2.19141 -1.97639 0
M  V30 1500 H 139.97 -2.54626 -0.244821 0
M  V30 1501 H 139.614 -5.02208 -0.758266 0
M  V30 1502 H 139.544 -4.63678 -2.49621 0
M  V30 1503 H 142.035 -3.49973 -1.42573 0
M  V30 1504 H 142.348 -7.36934 -2.32696 0
M  V30 1505 H 140.693 -6.62535 -2.09933 0
M  V30 1506 H 143.884 -4.36616 -1.68772 0
M  V30 1507 H 144.057 -6.13066 -2.09891 0
M  V30 1508 N 137.463 0.71206 -1.40597 0
M  V30 1509 C 138.413 1.81783 -1.37619 0
M  V30 1510 C 139.397 1.58896 -0.253162 0
M  V30 1511 O 140.589 1.70009 -0.492547 0
M  V30 1512 C 137.718 3.19944 -1.24462 0
M  V30 1513 C 136.804 3.48582 -2.4156 0
M  V30 1514 N 137.195 3.48016 -3.67041 0
M  V30 1515 C 135.493 3.79056 -2.35016 0
M  V30 1516 C 136.194 3.75096 -4.44609 0
M  V30 1517 N 135.17 3.94022 -3.74497 0
M  V30 1518 H 138.972 1.79683 -2.32575 0
M  V30 1519 H 136.486 0.91134 -1.34419 0
M  V30 1520 H 138.483 3.99133 -1.20411 0
M  V30 1521 H 137.143 3.23267 -0.304762 0
M  V30 1522 H 138.154 3.28782 -4.00153 0
M  V30 1523 H 134.831 3.89848 -1.49415 0
M  V30 1524 H 136.221 3.80934 -5.53479 0
M  V30 1525 N 138.941 1.26152 0.944643 0
M  V30 1526 C 139.851 1.09176 2.07648 0
M  V30 1527 C 140.867 0.0261935 1.7398 0
M  V30 1528 O 142.043 0.229208 2.00091 0
M  V30 1529 C 139.108 0.722915 3.39079 0
M  V30 1530 C 138.169 1.86752 3.86552 0
M  V30 1531 C 137.402 1.51617 5.11711 0
M  V30 1532 O 137.625 0.416331 5.68879 0
M  V30 1533 O 136.559 2.34975 5.54139 0
M  V30 1534 H 140.385 2.0412 2.24875 0
M  V30 1535 H 137.97 1.05182 1.061 0
M  V30 1536 H 139.852 0.529787 4.18056 0
M  V30 1537 H 138.527 -0.197159 3.23099 0
M  V30 1538 H 137.434 2.11558 3.08535 0
M  V30 1539 H 138.767 2.76719 4.07047 0
M  V30 1540 N 140.419 -1.14872 1.07899 0
M  V30 1541 C 141.369 -2.17809 0.674027 0
M  V30 1542 C 142.353 -1.58008 -0.303699 0
M  V30 1543 O 143.545 -1.76616 -0.11654 0
M  V30 1544 C 140.674 -3.43208 0.0793318 0
M  V30 1545 C 139.76 -4.10051 1.08253 0
M  V30 1546 N 140.151 -4.52296 2.2641 0
M  V30 1547 C 138.449 -4.36469 0.917124 0
M  V30 1548 C 139.15 -5.04199 2.901 0
M  V30 1549 N 138.126 -4.98088 2.17736 0
M  V30 1550 H 141.928 -2.48207 1.57386 0
M  V30 1551 H 139.442 -1.315 0.952976 0
M  V30 1552 H 141.439 -4.16272 -0.228719 0
M  V30 1553 H 140.099 -3.14291 -0.815551 0
M  V30 1554 H 141.11 -4.45504 2.64096 0
M  V30 1555 H 137.787 -4.17432 0.0756078 0
M  V30 1556 H 139.177 -5.46802 3.90458 0
M  V30 1557 N 141.898 -0.863906 -1.31812 0
M  V30 1558 C 143.144 -0.472535 -1.97218 0
M  V30 1559 C 143.477 0.971394 -1.68159 0
M  V30 1560 O 142.752 1.68309 -0.974798 0
M  V30 1561 C 143.035 -0.723054 -3.52766 0
M  V30 1562 C 142.888 -2.21608 -3.91421 0
M  V30 1563 C 144.207 -0.185522 -4.39709 0
M  V30 1564 H 141.326 -0.173158 -0.71637 0
M  V30 1565 H 143.968 -1.08403 -1.56041 0
M  V30 1566 H 142.118 -0.202577 -3.87971 0
M  V30 1567 H 143.79 -2.80334 -3.66347 0
M  V30 1568 H 142.033 -2.691 -3.40246 0
M  V30 1569 H 142.704 -2.34203 -4.99853 0
M  V30 1570 H 145.18 -0.630726 -4.11292 0
M  V30 1571 H 144.056 -0.390306 -5.47511 0
M  V30 1572 H 144.317 0.912229 -4.32586 0
M  V30 1573 N 143.376 1.44774 -0.622745 0
M  V30 1574 C 144.324 2.32387 0.0994683 0
M  V30 1575 C 145.318 1.46859 0.844326 0
M  V30 1576 O 146.524 1.63254 0.758174 0
M  V30 1577 H 142.899 0.750273 0.0509291 0
M  V30 1578 H 144.87 2.91062 -0.65767 0
M  V30 1579 C 143.619 3.30723 1.07319 0
M  V30 1580 H 142.942 3.96541 0.509462 0
M  V30 1581 H 144.382 3.94725 1.54817 0
M  V30 1582 C 142.841 2.59021 2.15429 0
M  V30 1583 O 143.371 2.38286 3.23393 0
M  V30 1584 N 141.577 2.189 1.91131 0
M  V30 1585 H 141.124 2.35964 1.03337 0
M  V30 1586 H 141.082 1.71251 2.63668 0
M  V30 1587 N 144.854 0.36279 1.53368 0
M  V30 1588 C 145.784 -0.476976 2.28576 0
M  V30 1589 C 146.765 -1.08631 1.30894 0
M  V30 1590 O 147.95 -1.10409 1.59761 0
M  V30 1591 C 145.08 -1.61828 3.07293 0
M  V30 1592 C 144.034 -1.13633 4.1264 0
M  V30 1593 C 143.36 -2.36766 4.79423 0
M  V30 1594 C 144.66 -0.223061 5.21823 0
M  V30 1595 H 146.354 0.150474 2.99022 0
M  V30 1596 H 143.9 0.0738103 1.43811 0
M  V30 1597 H 145.853 -2.21237 3.58653 0
M  V30 1598 H 144.577 -2.27292 2.34533 0
M  V30 1599 H 143.236 -0.564945 3.62221 0
M  V30 1600 H 142.884 -3.0068 4.03238 0
M  V30 1601 H 142.584 -2.05192 5.50609 0
M  V30 1602 H 144.108 -2.96865 5.33576 0
M  V30 1603 H 145.522 -0.724545 5.68703 0
M  V30 1604 H 143.919 0.001678 6.001 0
M  V30 1605 H 144.989 0.735553 4.79289 0
M  V30 1606 N 146.332 -1.57332 0.0918853 0
M  V30 1607 C 147.279 -2.13847 -0.868211 0
M  V30 1608 C 148.249 -1.05618 -1.28196 0
M  V30 1609 O 149.434 -1.33387 -1.36427 0
M  V30 1610 C 146.574 -2.72062 -2.12312 0
M  V30 1611 C 145.687 -3.94514 -1.7602 0
M  V30 1612 C 144.822 -4.40903 -2.96273 0
M  V30 1613 C 143.861 -5.55953 -2.56092 0
M  V30 1614 N 142.998 -5.97209 -3.69169 0
M  V30 1615 H 147.838 -2.95575 -0.379406 0
M  V30 1616 H 145.375 -1.46048 -0.175606 0
M  V30 1617 H 147.333 -3.03931 -2.858 0
M  V30 1618 H 145.963 -1.93068 -2.58698 0
M  V30 1619 H 145.015 -3.68979 -0.925135 0
M  V30 1620 H 146.327 -4.7802 -1.42472 0
M  V30 1621 H 145.481 -4.74539 -3.78018 0
M  V30 1622 H 144.22 -3.56291 -3.33029 0
M  V30 1623 H 143.225 -5.21948 -1.72773 0
M  V30 1624 H 144.45 -6.42311 -2.20484 0
M  V30 1625 H 142.396 -5.15543 -4.05649 0
M  V30 1626 H 142.313 -6.75504 -3.39456 0
M  V30 1627 H 143.581 -6.35475 -4.51434 0
M  V30 1628 N 147.81 0.181792 -1.56548 0
M  V30 1629 C 149.087 0.926765 -1.72251 0
M  V30 1630 C 149.467 2.00831 -0.650386 0
M  V30 1631 O 148.815 2.26008 0.336521 0
M  V30 1632 C 149.025 1.50106 -3.1507 0
M  V30 1633 C 150.373 1.97805 -3.75711 0
M  V30 1634 O 151.397 1.59922 -3.18282 0
M  V30 1635 O 150.256 2.67555 -4.76525 0
M  V30 1636 H 147.35 0.435506 -0.703039 0
M  V30 1637 H 149.896 0.170443 -1.68842 0
M  V30 1638 H 148.668 0.72212 -3.84579 0
M  V30 1639 H 148.291 2.32186 -3.22763 0
M  V30 1640 N 149.288 1.51039 0.449983 0
M  V30 1641 C 150.534 1.63322 1.20223 0
M  V30 1642 C 150.867 0.34241 1.91158 0
M  V30 1643 O 150.142 -0.657344 1.83055 0
M  V30 1644 C 150.425 2.82801 2.22925 0
M  V30 1645 C 150.278 4.21823 1.56157 0
M  V30 1646 C 151.597 2.97807 3.24035 0
M  V30 1647 H 148.716 0.594407 0.435718 0
M  V30 1648 H 151.358 1.83489 0.493136 0
M  V30 1649 H 149.508 2.65738 2.834 0
M  V30 1650 H 151.18 4.50526 0.991162 0
M  V30 1651 H 149.423 4.25105 0.864172 0
M  V30 1652 H 150.094 5.01391 2.30891 0
M  V30 1653 H 152.57 3.13497 2.73603 0
M  V30 1654 H 151.446 3.82992 3.93202 0
M  V30 1655 H 151.707 2.09328 3.89402 0
M  V30 1656 N 150.766 -0.704594 1.40972 0
M  V30 1657 C 152.177 -1.28418 1.3552 0
M  V30 1658 C 152.528 -1.96171 0.0339434 0
M  V30 1659 O 151.653 -1.98231 -0.867944 0
M  V30 1660 C 152.248 -2.33528 2.45459 0
M  V30 1661 C 150.807 -2.87085 2.43433 0
M  V30 1662 C 149.954 -1.61007 2.2577 0
M  V30 1663 H 152.905 -0.499963 1.50619 0
M  V30 1664 H 152.926 -3.14619 2.13998 0
M  V30 1665 H 152.438 -1.84187 3.41609 0
M  V30 1666 H 150.539 -3.40626 1.51013 0
M  V30 1667 H 150.652 -3.3813 3.39419 0
M  V30 1668 H 149.016 -1.86482 1.73483 0
M  V30 1669 H 149.799 -1.13675 3.23933 0
M  V30 1670 N 152.244 -1.26651 -0.937939 0
M  V30 1671 C 153.191 -1.0849 -2.03712 0
M  V30 1672 C 154.161 0.011033 -1.66096 0
M  V30 1673 O 155.346 -0.149353 -1.90215 0
M  V30 1674 C 152.486 -0.72735 -3.37348 0
M  V30 1675 C 151.599 -1.89986 -3.87981 0
M  V30 1676 C 150.734 -1.48513 -5.10017 0
M  V30 1677 C 149.773 -2.62575 -5.5292 0
M  V30 1678 N 148.91 -2.21762 -6.66158 0
M  V30 1679 H 153.75 -2.02551 -2.18579 0
M  V30 1680 H 151.287 -1.00844 -1.07093 0
M  V30 1681 H 153.245 -0.50092 -4.14182 0
M  V30 1682 H 151.875 0.176298 -3.22318 0
M  V30 1683 H 150.927 -2.23913 -3.07518 0
M  V30 1684 H 152.239 -2.75586 -4.15757 0
M  V30 1685 H 151.393 -1.21934 -5.94321 0
M  V30 1686 H 150.132 -0.60009 -4.83994 0
M  V30 1687 H 149.137 -2.8988 -4.67172 0
M  V30 1688 H 150.362 -3.51685 -5.80943 0
M  V30 1689 H 148.308 -1.35696 -6.41812 0
M  V30 1690 H 148.225 -3.00903 -6.93537 0
M  V30 1691 H 149.493 -1.98403 -7.53828 0
M  V30 1692 N 153.722 1.14298 -1.08507 0
M  V30 1693 C 154.947 1.8976 -0.837001 0
M  V30 1694 C 155.372 1.78097 0.605228 0
M  V30 1695 O 154.73 1.12188 1.4242 0
M  V30 1696 C 154.778 3.37685 -1.26495 0
M  V30 1697 O 153.882 4.10281 -0.417514 0
M  V30 1698 H 153.223 0.590365 -0.303917 0
M  V30 1699 H 155.753 1.44672 -1.44676 0
M  V30 1700 H 155.763 3.88501 -1.24625 0
M  V30 1701 H 154.438 3.45492 -2.31534 0
M  V30 1702 H 153.015 3.69536 -0.499722 0
M  V30 1703 N 155.201 0.870884 1.31352 0
M  V30 1704 C 156.134 0.271983 2.26573 0
M  V30 1705 C 157.112 -0.599385 1.51149 0
M  V30 1706 O 158.296 -0.552605 1.80218 0
M  V30 1707 C 155.423 -0.614801 3.33073 0
M  V30 1708 C 154.469 0.185342 4.26097 0
M  V30 1709 S 155.302 1.56444 5.12138 0
M  V30 1710 C 156.458 0.683807 6.22153 0
M  V30 1711 H 156.691 1.07916 2.77023 0
M  V30 1712 H 154.224 0.669459 1.39132 0
M  V30 1713 H 156.182 -1.12074 3.94905 0
M  V30 1714 H 154.843 -1.39593 2.81376 0
M  V30 1715 H 154.036 -0.490771 5.01605 0
M  V30 1716 H 153.638 0.623415 3.68768 0
M  V30 1717 H 155.93 -0.10521 6.77418 0
M  V30 1718 H 156.873 1.41004 6.93919 0
M  V30 1719 H 157.281 0.250952 5.63942 0
M  V30 1720 N 156.679 -1.44442 0.630414 0
M  V30 1721 C 157.626 -2.30678 -0.0749355 0
M  V30 1722 C 158.596 -1.4344 -0.837502 0
M  V30 1723 O 159.781 -1.72343 -0.818684 0
M  V30 1724 C 156.921 -3.28706 -1.05103 0
M  V30 1725 C 156.034 -4.31046 -0.286954 0
M  V30 1726 C 155.169 -5.16167 -1.2548 0
M  V30 1727 C 154.208 -6.10216 -0.479843 0
M  V30 1728 N 153.345 -6.88039 -1.39811 0
M  V30 1729 H 158.185 -2.90454 0.666386 0
M  V30 1730 H 155.722 -1.43107 0.340404 0
M  V30 1731 H 157.68 -3.84027 -1.63031 0
M  V30 1732 H 156.31 -2.70632 -1.75949 0
M  V30 1733 H 155.362 -3.78203 0.408243 0
M  V30 1734 H 156.674 -4.97794 0.316657 0
M  V30 1735 H 155.828 -5.76002 -1.90544 0
M  V30 1736 H 154.567 -4.49491 -1.89233 0
M  V30 1737 H 153.572 -5.49491 0.184295 0
M  V30 1738 H 154.797 -6.78928 0.152965 0
M  V30 1739 H 152.743 -6.24032 -2.02287 0
M  V30 1740 H 152.66 -7.51223 -0.848508 0
M  V30 1741 H 153.928 -7.52397 -2.03762 0
M  V30 1742 N 158.157 -0.370918 -1.53173 0
M  V30 1743 C 159.434 0.273754 -1.93675 0
M  V30 1744 C 159.814 1.65938 -1.3049 0
M  V30 1745 O 159.162 2.23698 -0.465999 0
M  V30 1746 C 159.372 0.318602 -3.47543 0
M  V30 1747 C 160.72 0.556392 -4.20939 0
M  V30 1748 O 161.744 0.399587 -3.53952 0
M  V30 1749 O 160.603 0.862133 -5.39657 0
M  V30 1750 H 157.697 0.165448 -0.810281 0
M  V30 1751 H 160.243 -0.42409 -1.64315 0
M  V30 1752 H 159.015 -0.652687 -3.85818 0
M  V30 1753 H 158.638 1.06212 -3.83151 0
M  V30 1754 N 159.635 1.57281 -0.100228 0
M  V30 1755 C 160.598 2.13158 0.842398 0
M  V30 1756 C 161.598 1.06202 1.20738 0
M  V30 1757 O 162.788 1.32066 1.13597 0
M  V30 1758 C 159.92 2.65639 2.13655 0
M  V30 1759 H 161.113 2.97766 0.357114 0
M  V30 1760 H 158.666 1.5559 0.148823 0
M  V30 1761 H 159.401 1.84566 2.66657 0
M  V30 1762 H 159.186 3.43844 1.88451 0
M  V30 1763 H 160.676 3.08846 2.81077 0
M  V30 1764 N 161.113 -0.173488 1.56642 0
M  V30 1765 C 162.359 -0.891784 1.8214 0
M  V30 1766 C 162.692 -1.8199 0.677736 0
M  V30 1767 O 161.967 -1.91842 -0.320446 0
M  V30 1768 C 162.25 -1.68933 3.18015 0
M  V30 1769 C 162.103 -0.784487 4.42906 0
M  V30 1770 C 163.422 -2.65748 3.50808 0
M  V30 1771 H 160.541 -0.322761 0.662567 0
M  V30 1772 H 163.183 -0.158095 1.89341 0
M  V30 1773 H 161.333 -2.31482 3.12007 0
M  V30 1774 H 163.005 -0.172046 4.60979 0
M  V30 1775 H 161.248 -0.0924117 4.33702 0
M  V30 1776 H 161.919 -1.37799 5.34524 0
M  V30 1777 H 164.395 -2.13327 3.57255 0
M  V30 1778 H 163.271 -3.18619 4.4696 0
M  V30 1779 H 163.532 -3.45842 2.75401 0
M  V30 1780 N 162.591 -1.51276 -0.441967 0
M  V30 1781 C 163.521 -1.752 -1.54361 0
M  V30 1782 C 164.502 -0.601682 -1.59103 0
M  V30 1783 O 165.687 -0.843913 -1.74905 0
M  V30 1784 C 162.817 -1.87282 -2.92477 0
M  V30 1785 C 161.771 -3.02687 -3.02596 0
M  V30 1786 C 161.097 -2.99947 -4.42647 0
M  V30 1787 C 162.397 -4.4273 -2.77106 0
M  V30 1788 H 164.091 -2.67442 -1.34592 0
M  V30 1789 H 161.637 -1.28694 -0.646048 0
M  V30 1790 H 163.59 -2.02602 -3.695 0
M  V30 1791 H 162.314 -0.916844 -3.13467 0
M  V30 1792 H 160.973 -2.87065 -2.28012 0
M  V30 1793 H 160.621 -2.02136 -4.60597 0
M  V30 1794 H 160.321 -3.77439 -4.50348 0
M  V30 1795 H 161.845 -3.17354 -5.2165 0
M  V30 1796 H 163.259 -4.58727 -3.43864 0
M  V30 1797 H 161.656 -5.21893 -2.96222 0
M  V30 1798 H 162.726 -4.53087 -1.72744 0
M  V30 1799 N 164.069 0.697108 -1.41344 0
M  V30 1800 C 165.032 1.79281 -1.42797 0
M  V30 1801 C 166.032 1.57607 -0.318837 0
M  V30 1802 O 167.222 1.64309 -0.578642 0
M  V30 1803 C 164.354 3.17632 -1.23785 0
M  V30 1804 H 165.547 1.79385 -2.40335 0
M  V30 1805 H 163.1 0.904582 -1.27464 0
M  V30 1806 H 163.835 3.23167 -0.270814 0
M  V30 1807 H 163.62 3.34765 -2.04144 0
M  V30 1808 H 165.11 3.97617 -1.27633 0
M  V30 1809 N 165.547 1.27147 0.931209 0
M  V30 1810 C 166.775 1.16082 1.71267 0
M  V30 1811 C 167.19 -0.282772 1.8667 0
M  V30 1812 O 166.547 -1.19283 1.38122 0
M  V30 1813 C 166.598 1.8358 3.11417 0
M  V30 1814 O 166.319 3.22299 2.96741 0
M  V30 1815 C 167.82 1.78597 4.05732 0
M  V30 1816 H 165.04 0.403758 0.535929 0
M  V30 1817 H 167.584 1.67953 1.16671 0
M  V30 1818 H 165.739 1.35623 3.62885 0
M  V30 1819 H 166.153 3.55851 3.85319 0
M  V30 1820 H 167.627 2.30444 5.01597 0
M  V30 1821 H 168.104 0.754564 4.3267 0
M  V30 1822 H 168.71 2.26152 3.60188 0
M  V30 1823 N 167.025 -1.13721 1.09112 0
M  V30 1824 C 167.935 -2.22638 0.73957 0
M  V30 1825 C 168.951 -1.72091 -0.257068 0
M  V30 1826 O 170.127 -2.01155 -0.0992154 0
M  V30 1827 C 167.192 -3.46322 0.16191 0
M  V30 1828 C 166.253 -4.11775 1.21408 0
M  V30 1829 C 165.486 -5.29555 0.663891 0
M  V30 1830 O 165.709 -5.68077 -0.514274 0
M  V30 1831 O 164.643 -5.84973 1.41738 0
M  V30 1832 H 168.469 -2.55074 1.64836 0
M  V30 1833 H 166.054 -1.21791 0.865289 0
M  V30 1834 H 167.936 -4.21107 -0.157073 0
M  V30 1835 H 166.611 -3.15593 -0.719932 0
M  V30 1836 H 165.518 -3.3883 1.58571 0
M  V30 1837 H 166.851 -4.46627 2.06845 0
M  V30 1838 N 168.503 -0.877838 -1.30888 0
M  V30 1839 C 169.78 -0.413052 -1.91189 0
M  V30 1840 C 170.16 1.1056 -1.79832 0
M  V30 1841 O 169.508 1.93771 -1.21099 0
M  V30 1842 C 169.718 -0.903191 -3.3711 0
M  V30 1843 C 171.066 -0.93395 -4.14201 0
M  V30 1844 O 172.09 -0.849373 -3.45925 0
M  V30 1845 O 170.949 -1.05772 -5.36167 0
M  V30 1846 H 168.043 -0.125035 -0.817493 0
M  V30 1847 H 170.589 -0.966269 -1.39504 0
M  V30 1848 H 169.361 -1.94692 -3.39427 0
M  V30 1849 H 168.984 -0.328732 -3.96239 0
M  V30 1850 N 169.982 1.44106 -0.638065 0
M  V30 1851 C 170.93 2.3248 0.0748149 0
M  V30 1852 C 171.924 1.47746 0.828702 0
M  V30 1853 O 173.13 1.64049 0.740816 0
M  V30 1854 H 169.505 0.750771 0.0429686 0
M  V30 1855 H 171.476 2.90348 -0.688504 0
M  V30 1856 C 170.225 3.31843 1.03805 0
M  V30 1857 H 169.548 3.97059 0.467375 0
M  V30 1858 H 170.988 3.96345 1.50622 0
M  V30 1859 C 169.447 2.61291 2.1267 0
M  V30 1860 O 169.977 2.41702 3.20847 0
M  V30 1861 N 168.183 2.20915 1.88798 0
M  V30 1862 H 167.73 2.37047 1.00829 0
M  V30 1863 H 167.688 1.74038 2.61836 0
M  V30 1864 N 171.46 0.379036 1.52974 0
M  V30 1865 C 172.876 0.0285448 1.59574 0
M  V30 1866 C 173.076 -1.45542 1.39355 0
M  V30 1867 O 172.132 -2.2187 1.20541 0
M  V30 1868 C 173.445 0.496535 2.96572 0
M  V30 1869 C 174.993 0.451909 3.0972 0
M  V30 1870 C 175.468 0.895924 4.49152 0
M  V30 1871 N 176.959 0.851522 4.55306 0
M  V30 1872 C 177.694 1.16661 5.61407 0
M  V30 1873 N 177.19 1.55166 6.752 0
M  V30 1874 N 178.983 1.08853 5.51459 0
M  V30 1875 H 171.134 1.34525 1.64367 0
M  V30 1876 H 173.397 0.550733 0.771619 0
M  V30 1877 H 173.103 1.53258 3.16552 0
M  V30 1878 H 172.977 -0.109802 3.7704 0
M  V30 1879 H 175.364 -0.575029 2.89443 0
M  V30 1880 H 175.445 1.09392 2.3123 0
M  V30 1881 H 175.089 1.92104 4.70168 0
M  V30 1882 H 175.019 0.23103 5.26093 0
M  V30 1883 H 177.51 0.568038 3.73606 0
M  V30 1884 H 177.823 1.776 7.52116 0
M  V30 1885 H 176.168 1.59044 6.76557 0
M  V30 1886 H 179.359 0.786803 4.6144 0
M  V30 1887 H 179.532 1.33742 6.34048 0
M  V30 1888 N 172.938 -1.57226 0.108567 0
M  V30 1889 C 174.185 -1.94833 -0.551943 0
M  V30 1890 C 174.513 -0.991204 -1.67348 0
M  V30 1891 O 173.768 -0.0131878 -1.95696 0
M  V30 1892 C 174.067 -3.38911 -1.13463 0
M  V30 1893 C 173.733 -4.50696 -0.135509 0
M  V30 1894 C 172.395 -4.80998 0.139252 0
M  V30 1895 C 174.747 -5.18333 0.545957 0
M  V30 1896 C 172.075 -5.76259 1.10194 0
M  V30 1897 C 174.427 -6.14627 1.49721 0
M  V30 1898 C 173.091 -6.43327 1.78006 0
M  V30 1899 H 172.361 -0.712944 -0.20197 0
M  V30 1900 H 175.008 -1.90582 0.18726 0
M  V30 1901 H 173.313 -3.39805 -1.95037 0
M  V30 1902 H 175.01 -3.65317 -1.65362 0
M  V30 1903 H 171.6 -4.27087 -0.359846 0
M  V30 1904 H 175.784 -4.95087 0.346842 0
M  V30 1905 H 171.04 -5.96804 1.32795 0
M  V30 1906 H 175.214 -6.66126 2.03099 0
M  V30 1907 H 172.841 -7.1695 2.52759 0
M  V30 1908 N 174.416 0.165178 -1.56732 0
M  V30 1909 C 175.646 0.894919 -1.86212 0
M  V30 1910 C 176.054 1.76066 -0.692627 0
M  V30 1911 O 175.397 1.80387 0.347303 0
M  V30 1912 C 175.459 1.8174 -3.10179 0
M  V30 1913 C 175.123 1.13064 -4.42793 0
M  V30 1914 C 176.12 0.493169 -5.17556 0
M  V30 1915 C 173.805 1.12556 -4.89527 0
M  V30 1916 C 175.799 -0.140209 -6.37246 0
M  V30 1917 C 173.486 0.488366 -6.09145 0
M  V30 1918 C 174.484 -0.143411 -6.82849 0
M  V30 1919 O 174.172 -0.77055 -8.00199 0
M  V30 1920 H 173.904 0.265114 -0.621844 0
M  V30 1921 H 176.458 0.168242 -2.0471 0
M  V30 1922 H 174.688 2.58455 -2.87642 0
M  V30 1923 H 176.377 2.4175 -3.26055 0
M  V30 1924 H 177.143 0.489023 -4.82528 0
M  V30 1925 H 173.022 1.60672 -4.32094 0
M  V30 1926 H 176.566 -0.633932 -6.94714 0
M  V30 1927 H 172.463 0.490116 -6.43637 0
M  V30 1928 H 173.231 -0.670408 -8.1575 0
M  V30 1929 N 175.894 1.51508 0.433938 0
M  V30 1930 C 176.804 1.75917 1.5521 0
M  V30 1931 C 177.82 0.643545 1.61662 0
M  V30 1932 O 178.996 0.926183 1.7884 0
M  V30 1933 C 176.061 1.88213 2.91164 0
M  V30 1934 C 175.122 3.12074 2.94802 0
M  V30 1935 C 174.355 3.23774 4.24271 0
M  V30 1936 O 174.578 2.4133 5.16833 0
M  V30 1937 O 173.512 4.16774 4.34262 0
M  V30 1938 H 177.338 2.70777 1.37527 0
M  V30 1939 H 174.923 1.36051 0.617293 0
M  V30 1940 H 176.805 1.98267 3.71845 0
M  V30 1941 H 175.48 0.965413 3.08968 0
M  V30 1942 H 174.387 3.07497 2.13065 0
M  V30 1943 H 175.72 4.03446 2.81943 0
M  V30 1944 N 177.372 -0.689602 1.41712 0
M  V30 1945 C 178.322 -1.79571 1.40493 0
M  V30 1946 C 179.306 -1.58473 0.278409 0
M  V30 1947 O 180.498 -1.69204 0.519532 0
M  V30 1948 C 177.627 -3.17923 1.29536 0
M  V30 1949 C 176.713 -3.44695 2.47075 0
M  V30 1950 N 177.104 -3.42132 3.72531 0
M  V30 1951 C 175.402 -3.75269 2.41017 0
M  V30 1952 C 176.103 -3.67976 4.50521 0
M  V30 1953 N 175.079 -3.88014 3.80718 0
M  V30 1954 H 178.881 -1.75961 2.35404 0
M  V30 1955 H 176.395 -0.889839 1.35851 0
M  V30 1956 H 178.392 -3.97167 1.26745 0
M  V30 1957 H 177.052 -3.22741 0.356153 0
M  V30 1958 H 178.063 -3.22375 4.05333 0
M  V30 1959 H 174.74 -3.87421 1.55599 0
M  V30 1960 H 176.13 -3.7208 5.59469 0
M  V30 1961 N 178.85 -1.27639 -0.924453 0
M  V30 1962 C 180.098 -1.13941 -1.66918 0
M  V30 1963 C 180.419 0.314589 -1.92446 0
M  V30 1964 O 179.689 1.21964 -1.53303 0
M  V30 1965 H 178.269 -0.418678 -0.618642 0
M  V30 1966 H 180.931 -1.60213 -1.10985 0
M  V30 1967 H 180.027 -1.67094 -2.63602 0
M  V30 1968 N 180.328 1.1314 -1.09713 0
M  V30 1969 C 181.291 2.16831 -0.742751 0
M  V30 1970 C 182.291 1.59159 0.229129 0
M  V30 1971 O 183.481 1.74199 0.00693237 0
M  V30 1972 C 180.613 3.40756 -0.0989168 0
M  V30 1973 H 181.806 2.49695 -1.66109 0
M  V30 1974 H 179.359 1.2802 -0.896699 0
M  V30 1975 H 180.094 3.13485 0.830514 0
M  V30 1976 H 179.879 3.83888 -0.798265 0
M  V30 1977 H 181.369 4.17386 0.133524 0
M  V30 1978 N 181.806 0.884767 1.30421 0
M  V30 1979 C 182.736 0.367574 2.30589 0
M  V30 1980 C 183.717 -0.549464 1.60981 0
M  V30 1981 O 184.902 -0.46336 1.88591 0
M  V30 1982 C 182.032 -0.418944 3.44764 0
M  V30 1983 C 180.986 0.406316 4.26067 0
M  V30 1984 C 180.312 -0.506793 5.32293 0
M  V30 1985 C 181.612 1.64832 4.95608 0
M  V30 1986 H 183.306 1.20462 2.74097 0
M  V30 1987 H 180.852 0.580695 1.31772 0
M  V30 1988 H 182.805 -0.791395 4.13902 0
M  V30 1989 H 181.529 -1.28964 3.0006 0
M  V30 1990 H 180.188 0.760903 3.58617 0
M  V30 1991 H 179.836 -1.37519 4.83836 0
M  V30 1992 H 179.536 0.0415828 5.87585 0
M  V30 1993 H 181.06 -0.875764 6.04287 0
M  V30 1994 H 182.474 1.34646 5.57264 0
M  V30 1995 H 180.871 2.13688 5.60765 0
M  V30 1996 H 181.941 2.39284 4.21748 0
M  V30 1997 N 183.284 -1.43765 0.645699 0
M  V30 1998 C 184.561 -1.9541 0.0862963 0
M  V30 1999 C 184.941 -1.58725 -1.39175 0
M  V30 2000 O 184.289 -0.868581 -2.11348 0
M  V30 2001 C 184.499 -3.47488 0.324565 0
M  V30 2002 C 185.847 -4.24001 0.225497 0
M  V30 2003 O 186.871 -3.55274 0.256715 0
M  V30 2004 O 185.73 -5.46313 0.142801 0
M  V30 2005 H 182.824 -0.826882 -0.0139483 0
M  V30 2006 H 185.37 -1.53743 0.718415 0
M  V30 2007 H 184.142 -3.67289 1.3496 0
M  V30 2008 H 183.765 -3.96135 -0.340987 0
M  V30 2009 N 184.763 -0.387143 -1.52771 0
M  V30 2010 C 185.993 0.195585 -2.05672 0
M  V30 2011 C 186.401 1.41241 -1.25887 0
M  V30 2012 O 185.744 1.81265 -0.298081 0
M  V30 2013 C 185.806 0.632327 -3.53895 0
M  V30 2014 C 185.47 -0.470739 -4.54569 0
M  V30 2015 C 186.467 -1.32746 -5.02667 0
M  V30 2016 C 184.152 -0.637151 -4.98243 0
M  V30 2017 C 186.146 -2.33574 -5.93061 0
M  V30 2018 C 183.833 -1.64877 -5.88438 0
M  V30 2019 C 184.831 -2.49649 -6.35739 0
M  V30 2020 O 184.519 -3.49082 -7.24153 0
M  V30 2021 H 184.251 0.033658 -0.675162 0
M  V30 2022 H 186.805 -0.550221 -1.97893 0
M  V30 2023 H 185.035 1.43008 -3.59285 0
M  V30 2024 H 186.724 1.14048 -3.89548 0
M  V30 2025 H 187.49 -1.21019 -4.69659 0
M  V30 2026 H 183.369 0.0129567 -4.60998 0
M  V30 2027 H 186.913 -2.99777 -6.29904 0
M  V30 2028 H 182.81 -1.76643 -6.2086 0
M  V30 2029 H 183.578 -3.45065 -7.42208 0
M  V30 2030 N 186.241 1.57166 -0.116904 0
M  V30 2031 C 187.188 2.15202 0.83408 0
M  V30 2032 C 188.158 1.07644 1.26499 0
M  V30 2033 O 189.343 1.35541 1.34288 0
M  V30 2034 C 186.483 2.75405 2.07957 0
M  V30 2035 C 185.596 3.97264 1.69721 0
M  V30 2036 C 184.731 4.45561 2.89221 0
M  V30 2037 C 183.77 5.59956 2.47215 0
M  V30 2038 N 182.907 6.03006 3.59622 0
M  V30 2039 H 187.747 2.96141 0.332335 0
M  V30 2040 H 185.284 1.46309 0.152349 0
M  V30 2041 H 187.242 3.08439 2.80929 0
M  V30 2042 H 185.872 1.97159 2.55594 0
M  V30 2043 H 184.924 3.70404 0.866316 0
M  V30 2044 H 186.236 4.80226 1.34849 0
M  V30 2045 H 185.39 4.80493 3.7042 0
M  V30 2046 H 184.129 3.61544 3.27318 0
M  V30 2047 H 183.134 5.2463 1.64448 0
M  V30 2048 H 184.359 6.45738 2.10238 0
M  V30 2049 H 182.305 5.21931 3.97396 0
M  V30 2050 H 182.222 6.80819 3.28667 0
M  V30 2051 H 183.49 6.42576 4.41267 0
M  V30 2052 N 187.719 -0.156864 1.56817 0
M  V30 2053 C 189.135 -0.50916 1.5126 0
M  V30 2054 C 189.335 -1.83897 0.823658 0
M  V30 2055 O 188.391 -2.49469 0.390055 0
M  V30 2056 C 189.704 -0.52857 2.96018 0
M  V30 2057 C 191.252 -0.614771 3.06903 0
M  V30 2058 C 191.727 -0.664938 4.53147 0
M  V30 2059 N 193.218 -0.727433 4.57452 0
M  V30 2060 C 193.953 -0.787067 5.67973 0
M  V30 2061 N 193.449 -0.806649 6.88088 0
M  V30 2062 N 195.242 -0.827195 5.5598 0
M  V30 2063 H 187.393 0.714935 2.00006 0
M  V30 2064 H 189.656 0.259526 0.911784 0
M  V30 2065 H 189.362 0.380154 3.49639 0
M  V30 2066 H 189.236 -1.36998 3.51442 0
M  V30 2067 H 191.623 -1.51392 2.53307 0
M  V30 2068 H 191.704 0.253597 2.5454 0
M  V30 2069 H 191.348 0.230011 5.07379 0
M  V30 2070 H 191.278 -1.54966 5.03282 0
M  V30 2071 H 193.769 -0.719998 3.70978 0
M  V30 2072 H 194.082 -0.853727 7.6807 0
M  V30 2073 H 192.427 -0.774687 6.90669 0
M  V30 2074 H 195.618 -0.808998 4.61056 0
M  V30 2075 H 195.791 -0.870206 6.4213 0
M  V30 2076 N 189.197 -1.51736 -0.425897 0
M  V30 2077 C 190.127 -1.76827 -1.52494 0
M  V30 2078 C 191.108 -0.618524 -1.58456 0
M  V30 2079 O 192.293 -0.862416 -1.74 0
M  V30 2080 C 189.423 -1.90374 -2.90474 0
M  V30 2081 C 188.377 -3.0588 -2.99369 0
M  V30 2082 C 187.703 -3.04625 -4.3944 0
M  V30 2083 C 189.003 -4.45644 -2.72394 0
M  V30 2084 H 190.697 -2.68855 -1.31748 0
M  V30 2085 H 188.243 -1.29372 -0.632362 0
M  V30 2086 H 190.196 -2.0651 -3.6733 0
M  V30 2087 H 188.92 -0.95004 -3.12477 0
M  V30 2088 H 187.579 -2.89467 -2.24954 0
M  V30 2089 H 187.227 -2.0701 -4.58428 0
M  V30 2090 H 186.927 -3.82195 -4.46319 0
M  V30 2091 H 188.451 -3.22869 -5.18255 0
M  V30 2092 H 189.865 -4.62348 -3.38979 0
M  V30 2093 H 188.262 -5.25006 -2.9067 0
M  V30 2094 H 189.332 -4.54893 -1.67929 0
M  V30 2095 N 190.675 0.682077 -1.42076 0
M  V30 2096 C 191.922 1.44215 -1.42156 0
M  V30 2097 C 192.25 1.94468 -0.0354186 0
M  V30 2098 O 191.505 1.70816 0.955002 0
M  V30 2099 C 191.804 2.66036 -2.38662 0
M  V30 2100 C 191.47 2.34366 -3.85206 0
M  V30 2101 C 190.132 2.25439 -4.25124 0
M  V30 2102 C 192.484 2.08513 -4.77673 0
M  V30 2103 C 189.812 1.88775 -5.55501 0
M  V30 2104 C 192.164 1.73354 -6.08384 0
M  V30 2105 C 190.828 1.62933 -6.47309 0
M  V30 2106 H 190.098 0.527718 -0.520187 0
M  V30 2107 H 192.745 0.778387 -1.74967 0
M  V30 2108 H 191.05 3.3741 -1.99152 0
M  V30 2109 H 192.747 3.24205 -2.35991 0
M  V30 2110 H 189.337 2.42213 -3.53597 0
M  V30 2111 H 193.521 2.14346 -4.47626 0
M  V30 2112 H 188.777 1.7927 -5.84527 0
M  V30 2113 H 192.951 1.52373 -6.79526 0
M  V30 2114 H 190.578 1.34292 -7.48244 0
M  V30 2115 N 192.153 1.28127 0.917671 0
M  V30 2116 C 193.401 1.14825 1.66312 0
M  V30 2117 C 193.722 -0.304379 1.9261 0
M  V30 2118 O 192.992 -1.21149 1.53947 0
M  V30 2119 H 191.572 0.421953 0.616413 0
M  V30 2120 H 194.234 1.608 1.10134 0
M  V30 2121 H 193.33 1.68489 2.62712 0
M  V30 2122 N 193.631 -1.12557 1.10312 0
M  V30 2123 C 194.594 -2.16434 0.75424 0
M  V30 2124 C 195.594 -1.59278 -0.220685 0
M  V30 2125 O 196.784 -1.742 0.00230591 0
M  V30 2126 C 193.916 -3.40699 0.116987 0
M  V30 2127 H 195.109 -2.48811 1.67431 0
M  V30 2128 H 192.662 -1.27542 0.903475 0
M  V30 2129 H 193.397 -3.13921 -0.813877 0
M  V30 2130 H 193.182 -3.83459 0.818613 0
M  V30 2131 H 194.672 -4.17451 -0.111387 0
M  V30 2132 N 195.109 -0.891671 -1.2995 0
M  V30 2133 C 196.358 -0.509521 -1.95158 0
M  V30 2134 C 196.671 0.947388 -1.71125 0
M  V30 2135 O 197.877 1.43669 -2.30372 0
M  V30 2136 C 196.333 -0.860315 -3.49466 0
M  V30 2137 C 195.941 -2.33545 -3.8231 0
M  V30 2138 C 197.685 -0.547687 -4.20952 0
M  V30 2139 C 195.592 -2.62752 -5.29826 0
M  V30 2140 H 194.522 -0.18682 -0.730489 0
M  V30 2141 H 197.173 -1.08756 -1.47798 0
M  V30 2142 H 195.555 -0.211285 -3.95436 0
M  V30 2143 H 196.729 -3.02936 -3.47227 0
M  V30 2144 H 195.044 -2.61629 -3.23944 0
M  V30 2145 H 197.641 -0.742854 -5.29515 0
M  V30 2146 H 197.984 0.51332 -4.13123 0
M  V30 2147 H 198.517 -1.1542 -3.80688 0
M  V30 2148 H 195.256 -3.6762 -5.42712 0
M  V30 2149 H 194.776 -1.97977 -5.66185 0
M  V30 2150 H 196.455 -2.48601 -5.97333 0
M  V30 2151 N 196.587 1.43421 -0.653314 0
M  V30 2152 C 197.835 2.01414 -0.166415 0
M  V30 2153 C 198.156 1.51803 1.22397 0
M  V30 2154 O 197.426 0.730693 1.81763 0
M  V30 2155 H 196.006 0.744703 -0.0585319 0
M  V30 2156 H 198.668 1.75629 -0.845003 0
M  V30 2157 H 197.764 3.11734 -0.151111 0
M  V30 2158 N 198.065 0.39524 1.52563 0
M  V30 2159 C 199.012 -0.437036 2.26624 0
M  V30 2160 C 199.982 -1.05281 1.28472 0
M  V30 2161 O 201.167 -1.07971 1.57311 0
M  V30 2162 C 198.307 -1.55524 3.08069 0
M  V30 2163 C 197.42 -0.961745 4.21158 0
M  V30 2164 C 196.555 -2.05149 4.89987 0
M  V30 2165 C 195.594 -1.4342 5.95061 0
M  V30 2166 N 194.731 -2.46351 6.57462 0
M  V30 2167 H 199.571 0.200976 2.97322 0
M  V30 2168 H 197.108 0.110944 1.46681 0
M  V30 2169 H 199.066 -2.21437 3.53584 0
M  V30 2170 H 197.696 -2.16348 2.3957 0
M  V30 2171 H 196.748 -0.192048 3.79915 0
M  V30 2172 H 198.06 -0.470701 4.96574 0
M  V30 2173 H 197.214 -2.78819 5.38837 0
M  V30 2174 H 195.953 -2.57615 4.14109 0
M  V30 2175 H 194.958 -0.682774 5.45544 0
M  V30 2176 H 196.183 -0.917416 6.72875 0
M  V30 2177 H 194.129 -2.97975 5.8442 0
M  V30 2178 H 194.046 -2.02019 7.28508 0
M  V30 2179 H 195.314 -3.19633 7.10954 0
M  V30 2180 N 199.544 -1.57102 0.125237 0
M  V30 2181 C 200.492 -2.16905 -0.839927 0
M  V30 2182 C 201.486 -1.11998 -1.27094 0
M  V30 2183 O 202.692 -1.3029 -1.24195 0
M  V30 2184 H 199.067 -0.694252 -0.288995 0
M  V30 2185 H 201.038 -2.96774 -0.311115 0
M  V30 2186 C 199.787 -2.78795 -2.07771 0
M  V30 2187 H 199.11 -3.59221 -1.755 0
M  V30 2188 H 200.55 -3.2417 -2.73295 0
M  V30 2189 C 199.009 -1.76193 -2.87155 0
M  V30 2190 O 199.539 -1.21909 -3.82755 0
M  V30 2191 N 197.745 -1.45991 -2.51267 0
M  V30 2192 H 197.292 -1.90325 -1.73592 0
M  V30 2193 H 197.25 -0.775844 -3.04677 0
M  V30 2194 N 201.022 0.148545 -1.56898 0
M  V30 2195 C 201.952 1.18524 -2.01182 0
M  V30 2196 C 202.933 1.4489 -0.891123 0
M  V30 2197 O 204.118 1.55836 -1.15882 0
M  V30 2198 C 201.248 2.51879 -2.39112 0
M  V30 2199 C 200.202 2.40038 -3.54353 0
M  V30 2200 C 199.528 3.78089 -3.78091 0
M  V30 2201 C 200.828 1.88577 -4.87069 0
M  V30 2202 H 202.522 0.817029 -2.88036 0
M  V30 2203 H 200.068 0.391575 -1.38574 0
M  V30 2204 H 202.021 3.24627 -2.68692 0
M  V30 2205 H 200.745 2.90532 -1.49193 0
M  V30 2206 H 199.404 1.69742 -3.24936 0
M  V30 2207 H 199.052 4.14175 -2.85426 0
M  V30 2208 H 198.752 3.71028 -4.55645 0
M  V30 2209 H 200.276 4.52387 -4.10095 0
M  V30 2210 H 201.69 2.51117 -5.15377 0
M  V30 2211 H 200.087 1.9241 -5.68417 0
M  V30 2212 H 201.157 0.84136 -4.77545 0
M  V30 2213 N 202.5 1.5196 0.417844 0
M  V30 2214 C 203.728 1.69426 1.18753 0
M  V30 2215 C 204.143 0.399955 1.84515 0
M  V30 2216 O 203.5 -0.623288 1.71527 0
M  V30 2217 C 203.551 2.82375 2.25714 0
M  V30 2218 O 203.272 4.06793 1.62638 0
M  V30 2219 C 204.773 3.11277 3.15628 0
M  V30 2220 H 201.993 0.568031 0.357186 0
M  V30 2221 H 204.537 1.98475 0.49273 0
M  V30 2222 H 202.692 2.5587 2.90877 0
M  V30 2223 H 203.106 4.69667 2.3348 0
M  V30 2224 H 204.58 3.93843 3.86771 0
M  V30 2225 H 205.057 2.24473 3.77503 0
M  V30 2226 H 205.663 3.39515 2.56144 0
M  V30 2227 N 203.978 -0.674533 1.42435 0
M  V30 2228 C 205.226 -1.43175 1.42637 0
M  V30 2229 C 205.547 -1.94951 0.0438992 0
M  V30 2230 O 204.817 -1.7308 -0.917607 0
M  V30 2231 H 203.397 -0.531307 0.525092 0
M  V30 2232 H 206.059 -0.797006 1.77859 0
M  V30 2233 H 205.155 -2.28463 2.12629 0
M  V30 2234 N 205.456 -1.28612 -0.910864 0
M  V30 2235 C 206.704 -1.15705 -1.65701 0
M  V30 2236 C 207.025 0.29416 -1.92769 0
M  V30 2237 O 206.295 1.20331 -1.54588 0
M  V30 2238 H 204.875 -0.425216 -0.614167 0
M  V30 2239 H 207.537 -1.61381 -1.0928 0
M  V30 2240 H 206.633 -1.6988 -2.61815 0
M  V30 2241 N 206.934 1.1197 -1.10907 0
M  V30 2242 C 208.181 1.83588 -0.854507 0
M  V30 2243 C 208.509 1.84357 0.6199 0
M  V30 2244 O 207.764 1.28809 1.47332 0
M  V30 2245 C 208.063 3.30749 -1.35425 0
M  V30 2246 C 207.729 3.50146 -2.84093 0
M  V30 2247 C 206.391 3.55148 -3.2469 0
M  V30 2248 C 208.743 3.56857 -3.79872 0
M  V30 2249 C 206.071 3.6441 -4.59806 0
M  V30 2250 C 208.423 3.6765 -5.14797 0
M  V30 2251 C 207.087 3.7091 -5.54961 0
M  V30 2252 H 206.357 0.671795 -0.312686 0
M  V30 2253 H 209.004 1.32091 -1.38652 0
M  V30 2254 H 207.309 3.84703 -0.742361 0
M  V30 2255 H 209.006 3.8464 -1.1337 0
M  V30 2256 H 205.596 3.46919 -2.51685 0
M  V30 2257 H 209.78 3.52258 -3.49611 0
M  V30 2258 H 205.036 3.65208 -4.9034 0
M  V30 2259 H 209.21 3.71786 -5.88853 0
M  V30 2260 H 206.837 3.7784 -6.59652 0
M  V30 2261 N 208.412 0.89855 1.29475 0
M  V30 2262 C 209.66 0.522847 1.9522 0
M  V30 2263 C 209.981 -0.93371 1.71192 0
M  V30 2264 O 209.251 -1.65823 1.04305 0
M  V30 2265 H 207.831 0.190366 0.722336 0
M  V30 2266 H 210.493 1.14459 1.5775 0
M  V30 2267 H 209.589 0.704476 3.04045 0
M  V30 2268 N 209.89 -1.43072 0.660911 0
M  V30 2269 C 211.115 -2.06584 0.183805 0
M  V30 2270 C 211.54 -1.49257 -1.14472 0
M  V30 2271 O 210.898 -0.605528 -1.70889 0
M  V30 2272 C 210.946 -3.60418 0.114434 0
M  V30 2273 O 210.05 -4.01981 -0.921137 0
M  V30 2274 H 209.391 -0.656669 0.0983994 0
M  V30 2275 H 211.921 -1.83447 0.906006 0
M  V30 2276 H 211.931 -4.07946 -0.0663394 0
M  V30 2277 H 210.606 -4.01519 1.08422 0
M  V30 2278 H 209.183 -3.66029 -0.71253 0
M  V30 2279 N 211.368 -0.403325 -1.52352 0
M  V30 2280 C 212.278 0.432009 -2.30588 0
M  V30 2281 C 213.294 1.05884 -1.38075 0
M  V30 2282 O 214.47 1.06161 -1.71148 0
M  V30 2283 C 211.535 1.53669 -3.10784 0
M  V30 2284 C 210.596 0.933525 -4.19027 0
M  V30 2285 C 209.829 1.98557 -4.9539 0
M  V30 2286 O 210.052 3.20283 -4.71991 0
M  V30 2287 O 208.986 1.59504 -5.80381 0
M  V30 2288 H 212.812 -0.205739 -3.03002 0
M  V30 2289 H 210.397 -0.166675 -1.48467 0
M  V30 2290 H 212.279 2.17814 -3.60742 0
M  V30 2291 H 210.954 2.15915 -2.41169 0
M  V30 2292 H 209.861 0.254954 -3.7323 0
M  V30 2293 H 211.194 0.35508 -4.90918 0
M  V30 2294 N 212.846 1.57033 -0.133567 0
M  V30 2295 C 214.094 1.953 0.519848 0
M  V30 2296 C 214.415 1.01866 1.66278 0
M  V30 2297 O 213.685 0.0776513 1.95746 0
M  V30 2298 H 212.265 0.721091 0.195032 0
M  V30 2299 H 214.927 1.93809 -0.205921 0
M  V30 2300 H 214.023 2.98695 0.904854 0
M  V30 2301 N 214.325 -0.140222 1.56975 0
M  V30 2302 C 215.288 -1.15689 1.97861 0
M  V30 2303 C 216.288 -1.3549 0.865974 0
M  V30 2304 O 217.478 -1.32367 1.13246 0
M  V30 2305 C 214.61 -2.51582 2.30042 0
M  V30 2306 H 215.803 -0.805971 2.88867 0
M  V30 2307 H 213.356 -0.383801 1.51515 0
M  V30 2308 H 214.091 -2.91632 1.41849 0
M  V30 2309 H 213.876 -2.38569 3.11171 0
M  V30 2310 H 215.366 -3.24792 2.62488 0
M  V30 2311 N 215.803 -1.52179 -0.40978 0
M  V30 2312 C 217.028 -1.70347 -1.18308 0
M  V30 2313 C 217.453 -0.411887 -1.83535 0
M  V30 2314 O 216.811 0.630587 -1.6998 0
M  V30 2315 C 216.859 -2.83977 -2.22238 0
M  V30 2316 O 215.963 -2.495 -3.28365 0
M  V30 2317 H 215.304 -0.567103 -0.345384 0
M  V30 2318 H 217.834 -1.98879 -0.480445 0
M  V30 2319 H 217.844 -3.0887 -2.66577 0
M  V30 2320 H 216.519 -3.77685 -1.74146 0
M  V30 2321 H 215.096 -2.35277 -2.89308 0
M  V30 2322 N 217.281 0.66697 -1.42791 0
M  V30 2323 C 218.509 1.45505 -1.47091 0
M  V30 2324 C 218.924 1.8861 -0.0845873 0
M  V30 2325 O 218.281 1.58632 0.90234 0
M  V30 2326 C 218.332 2.69906 -2.40485 0
M  V30 2327 O 218.053 2.28608 -3.73725 0
M  V30 2328 C 219.554 3.63396 -2.53886 0
M  V30 2329 H 216.774 0.447459 -0.500022 0
M  V30 2330 H 219.318 0.818866 -1.8739 0
M  V30 2331 H 217.473 3.29696 -2.03419 0
M  V30 2332 H 217.887 3.08997 -4.23817 0
M  V30 2333 H 219.361 4.47387 -3.2334 0
M  V30 2334 H 219.838 4.09824 -1.57927 0
M  V30 2335 H 220.444 3.09495 -2.91706 0
M  V30 2336 N 218.759 1.29093 0.90403 0
M  V30 2337 C 219.689 1.16401 2.02418 0
M  V30 2338 C 220.67 0.0593085 1.69997 0
M  V30 2339 O 221.855 0.238021 1.92736 0
M  V30 2340 C 218.985 0.835233 3.37107 0
M  V30 2341 C 217.939 1.89578 3.83724 0
M  V30 2342 C 217.265 1.42041 5.15489 0
M  V30 2343 C 218.565 3.30394 4.04521 0
M  V30 2344 H 220.259 2.10109 2.13295 0
M  V30 2345 H 217.805 1.01157 1.02486 0
M  V30 2346 H 219.758 0.733169 4.14973 0
M  V30 2347 H 218.482 -0.137543 3.2631 0
M  V30 2348 H 217.141 1.98715 3.08071 0
M  V30 2349 H 216.789 0.436426 5.01103 0
M  V30 2350 H 216.489 2.12964 5.4765 0
M  V30 2351 H 218.013 1.33176 5.959 0
M  V30 2352 H 219.427 3.24123 4.72882 0
M  V30 2353 H 217.824 3.99237 4.48029 0
M  V30 2354 H 218.894 3.73692 3.09002 0
M  V30 2355 N 220.237 -1.11381 1.11499 0
M  V30 2356 C 221.465 -1.86934 0.88675 0
M  V30 2357 C 221.88 -1.80195 -0.563476 0
M  V30 2358 O 221.237 -1.18367 -1.38908 0
M  V30 2359 C 221.288 -3.35722 1.34064 0
M  V30 2360 O 221.009 -3.4232 2.73401 0
M  V30 2361 C 222.51 -4.2818 1.14791 0
M  V30 2362 H 219.73 -0.591117 0.317523 0
M  V30 2363 H 222.274 -1.40865 1.48248 0
M  V30 2364 H 220.429 -3.79294 0.788355 0
M  V30 2365 H 220.843 -4.34971 2.93087 0
M  V30 2366 H 222.317 -5.30817 1.5145 0
M  V30 2367 H 222.794 -4.39113 0.0875279 0
M  V30 2368 H 223.4 -3.90402 1.68721 0
M  V30 2369 N 221.715 -0.905404 -1.28997 0
M  V30 2370 C 222.647 -0.344748 -2.26592 0
M  V30 2371 C 223.66 0.512135 -1.54535 0
M  V30 2372 O 224.849 0.328368 -1.75454 0
M  V30 2373 C 221.949 0.526587 -3.34784 0
M  V30 2374 C 221.122 -0.305871 -4.36329 0
M  V30 2375 C 220.181 0.499209 -5.23827 0
M  V30 2376 O 219.207 -0.0853004 -5.69136 0
M  V30 2377 N 220.409 1.80408 -5.51755 0
M  V30 2378 H 223.174 -1.18359 -2.75338 0
M  V30 2379 H 220.735 -0.770481 -1.42391 0
M  V30 2380 H 222.727 1.07171 -3.90252 0
M  V30 2381 H 221.297 1.26613 -2.85811 0
M  V30 2382 H 220.517 -1.0324 -3.80441 0
M  V30 2383 H 221.805 -0.875773 -5.01206 0
M  V30 2384 H 221.203 2.3016 -5.16762 0
M  V30 2385 H 219.76 2.29621 -6.10014 0
M  V30 2386 N 223.193 1.4272 -0.668489 0
M  V30 2387 C 224.125 2.2914 0.052613 0
M  V30 2388 C 225.138 1.43339 0.771857 0
M  V30 2389 O 226.327 1.67123 0.627067 0
M  V30 2390 C 223.427 3.20618 1.09804 0
M  V30 2391 C 222.6 4.35039 0.45389 0
M  V30 2392 C 221.659 5.07282 1.39825 0
M  V30 2393 O 220.685 5.62024 0.900978 0
M  V30 2394 N 221.887 5.12206 2.73176 0
M  V30 2395 H 224.652 2.91668 -0.689209 0
M  V30 2396 H 222.213 1.53577 -0.512422 0
M  V30 2397 H 224.205 3.65815 1.73094 0
M  V30 2398 H 222.775 2.59585 1.74167 0
M  V30 2399 H 221.995 3.92567 -0.358396 0
M  V30 2400 H 223.283 5.088 0.00486972 0
M  V30 2401 H 222.681 4.6913 3.16122 0
M  V30 2402 H 221.238 5.61069 3.31729 0
M  V30 2403 N 224.671 0.411399 1.52136 0
M  V30 2404 C 225.917 -0.163888 2.02137 0
M  V30 2405 C 226.25 -1.44597 1.29636 0
M  V30 2406 O 225.525 -1.90272 0.403353 0
M  V30 2407 C 225.808 -0.40927 3.57767 0
M  V30 2408 C 225.661 0.889643 4.40914 0
M  V30 2409 C 226.98 -1.19042 4.23694 0
M  V30 2410 H 224.099 -0.0580896 0.734707 0
M  V30 2411 H 226.741 0.54531 1.82007 0
M  V30 2412 H 224.891 -1.0134 3.7505 0
M  V30 2413 H 226.563 1.52575 4.35337 0
M  V30 2414 H 224.806 1.50011 4.07037 0
M  V30 2415 H 225.477 0.672314 5.4789 0
M  V30 2416 H 227.953 -0.678942 4.10524 0
M  V30 2417 H 226.829 -1.33086 5.32522 0
M  V30 2418 H 227.09 -2.21166 3.82803 0
M  V30 2419 N 226.149 -1.5696 0.141893 0
M  V30 2420 C 227.395 -1.9625 -0.511248 0
M  V30 2421 C 227.728 -1.02654 -1.64851 0
M  V30 2422 O 227.003 -0.0679676 -1.94381 0
M  V30 2423 C 227.286 -3.45285 -1.02227 0
M  V30 2424 C 227.139 -4.49658 0.113138 0
M  V30 2425 C 228.458 -3.96698 -1.90574 0
M  V30 2426 H 225.577 -0.713567 -0.184367 0
M  V30 2427 H 228.219 -1.88698 0.222087 0
M  V30 2428 H 226.369 -3.51852 -1.64719 0
M  V30 2429 H 228.041 -4.55174 0.749302 0
M  V30 2430 H 226.284 -4.26857 0.773026 0
M  V30 2431 H 226.955 -5.51258 -0.286053 0
M  V30 2432 H 229.431 -3.92578 -1.37918 0
M  V30 2433 H 228.307 -5.01453 -2.2324 0
M  V30 2434 H 228.568 -3.3875 -2.84079 0
M  V30 2435 N 227.627 0.131896 -1.57047 0
M  V30 2436 C 228.574 1.16236 -1.99393 0
M  V30 2437 C 229.544 1.41863 -0.863943 0
M  V30 2438 O 230.729 1.53946 -1.12718 0
M  V30 2439 C 227.869 2.48708 -2.39245 0
M  V30 2440 C 226.982 2.30127 -3.65603 0
M  V30 2441 C 226.117 3.55738 -3.94492 0
M  V30 2442 C 225.156 3.32259 -5.14073 0
M  V30 2443 N 224.293 4.50039 -5.38896 0
M  V30 2444 H 229.133 0.794251 -2.87221 0
M  V30 2445 H 226.67 0.380707 -1.42088 0
M  V30 2446 H 228.628 3.25969 -2.60384 0
M  V30 2447 H 227.258 2.83437 -1.54478 0
M  V30 2448 H 226.31 1.43845 -3.52154 0
M  V30 2449 H 227.622 2.08746 -4.5302 0
M  V30 2450 H 226.776 4.41423 -4.1621 0
M  V30 2451 H 225.515 3.80138 -3.05526 0
M  V30 2452 H 224.52 2.44963 -4.92212 0
M  V30 2453 H 225.745 3.09242 -6.04604 0
M  V30 2454 H 223.691 4.74584 -4.52886 0
M  V30 2455 H 223.608 4.31716 -6.2061 0
M  V30 2456 H 224.876 5.36895 -5.65123 0
M  V30 2457 N 229.106 1.52395 0.401703 0
M  V30 2458 C 230.383 1.57387 1.16141 0
M  V30 2459 C 230.763 0.359359 2.08019 0
M  V30 2460 O 230.111 -0.65326 2.18963 0
M  V30 2461 C 230.321 2.90631 1.93221 0
M  V30 2462 C 231.669 3.43904 2.49028 0
M  V30 2463 O 232.693 2.92421 2.03393 0
M  V30 2464 O 231.552 4.33823 3.32356 0
M  V30 2465 H 228.646 0.634262 0.530698 0
M  V30 2466 H 231.192 1.64725 0.407883 0
M  V30 2467 H 229.964 3.70473 1.25958 0
M  V30 2468 H 229.587 2.8662 2.75563 0
M  V30 2469 N 230.584 -0.659388 1.43143 0
M  V30 2470 C 231.547 -1.75432 1.47501 0
M  V30 2471 C 232.547 -1.56707 0.360512 0
M  V30 2472 O 233.737 -1.62717 0.622002 0
M  V30 2473 C 230.869 -3.14239 1.32162 0
M  V30 2474 H 232.062 -1.7295 2.45006 0
M  V30 2475 H 229.615 -0.870469 1.29817 0
M  V30 2476 H 230.35 -3.22336 0.356401 0
M  V30 2477 H 230.135 -3.29235 2.12948 0
M  V30 2478 H 231.625 -3.94094 1.3813 0
M  V30 2479 N 232.062 -1.29571 -0.897171 0
M  V30 2480 C 233.309 -1.17689 -1.6479 0
M  V30 2481 C 233.637 0.27107 -1.92602 0
M  V30 2482 O 232.892 1.21193 -1.53658 0
M  V30 2483 C 233.191 -1.9382 -3.00281 0
M  V30 2484 C 232.857 -3.43522 -2.92068 0
M  V30 2485 C 231.519 -3.84348 -2.89535 0
M  V30 2486 C 233.871 -4.38906 -2.81089 0
M  V30 2487 C 231.199 -5.18869 -2.73846 0
M  V30 2488 C 233.551 -5.73521 -2.66939 0
M  V30 2489 C 232.215 -6.13601 -2.62774 0
M  V30 2490 H 231.485 -0.430654 -0.603008 0
M  V30 2491 H 234.132 -1.60536 -1.04404 0
M  V30 2492 H 232.437 -1.4357 -3.64547 0
M  V30 2493 H 234.134 -1.82028 -3.57305 0
M  V30 2494 H 230.724 -3.11072 -2.94842 0
M  V30 2495 H 234.908 -4.08315 -2.82121 0
M  V30 2496 H 230.164 -5.4903 -2.69027 0
M  V30 2497 H 234.338 -6.47078 -2.57416 0
M  V30 2498 H 231.965 -7.17786 -2.50375 0
M  V30 2499 N 233.54 1.10788 -1.12088 0
M  V30 2500 C 234.47 2.19083 -0.807755 0
M  V30 2501 C 235.451 1.6858 0.226859 0
M  V30 2502 O 236.636 1.93997 0.0888475 0
M  V30 2503 C 233.766 3.46344 -0.257576 0
M  V30 2504 C 232.72 4.101 -1.22483 0
M  V30 2505 C 232.046 5.32016 -0.535052 0
M  V30 2506 C 233.346 4.54236 -2.57811 0
M  V30 2507 H 235.04 2.45534 -1.71328 0
M  V30 2508 H 232.586 1.1801 -0.825205 0
M  V30 2509 H 234.539 4.21392 -0.0262679 0
M  V30 2510 H 233.263 3.19373 0.683278 0
M  V30 2511 H 231.922 3.37054 -1.44189 0
M  V30 2512 H 231.57 5.01319 0.410827 0
M  V30 2513 H 231.27 5.75625 -1.18024 0
M  V30 2514 H 232.794 6.09799 -0.312695 0
M  V30 2515 H 234.208 5.20575 -2.40155 0
M  V30 2516 H 232.605 5.08682 -3.18375 0
M  V30 2517 H 233.675 3.6734 -3.16528 0
M  V30 2518 N 235.018 0.912232 1.28515 0
M  V30 2519 C 236.243 0.559774 1.99703 0
M  V30 2520 C 236.668 -0.851393 1.67729 0
M  V30 2521 O 236.026 -1.56875 0.908834 0
M  V30 2522 C 236.074 0.773874 3.52198 0
M  V30 2523 O 235.178 -0.167842 4.12058 0
M  V30 2524 H 234.519 0.21723 0.627461 0
M  V30 2525 H 237.049 1.22725 1.63706 0
M  V30 2526 H 237.059 0.683386 4.02236 0
M  V30 2527 H 235.734 1.80261 3.74805 0
M  V30 2528 H 234.311 -0.0287509 3.72889 0
M  V30 2529 N 236.496 -1.42363 0.676048 0
M  V30 2530 C 237.428 -2.29164 -0.0404605 0
M  V30 2531 C 238.441 -1.43747 -0.764245 0
M  V30 2532 O 239.63 -1.67453 -0.618195 0
M  V30 2533 C 236.73 -3.21196 -1.08103 0
M  V30 2534 C 235.903 -4.35273 -0.430812 0
M  V30 2535 C 234.962 -5.08017 -1.37133 0
M  V30 2536 O 233.988 -5.62494 -0.87116 0
M  V30 2537 N 235.19 -5.13647 -2.70456 0
M  V30 2538 H 237.955 -2.91298 0.704667 0
M  V30 2539 H 235.516 -1.53303 0.520559 0
M  V30 2540 H 237.508 -3.66728 -1.71152 0
M  V30 2541 H 236.078 -2.60505 -1.72788 0
M  V30 2542 H 235.298 -3.92372 0.379209 0
M  V30 2543 H 236.586 -5.08795 0.0221132 0
M  V30 2544 H 235.984 -4.708 -3.1363 0
M  V30 2545 H 234.541 -5.62821 -3.28749 0
M  V30 2546 N 237.974 -0.419461 -1.51915 0
M  V30 2547 C 238.924 0.418496 -2.24126 0
M  V30 2548 C 239.908 1.00495 -1.25656 0
M  V30 2549 O 241.1 0.926058 -1.50842 0
M  V30 2550 C 238.229 1.52899 -3.07371 0
M  V30 2551 C 237.315 0.952797 -4.13258 0
M  V30 2552 N 237.706 0.104175 -5.05693 0
M  V30 2553 C 236.004 1.22224 -4.28926 0
M  V30 2554 C 236.705 -0.21752 -5.81293 0
M  V30 2555 N 235.681 0.394293 -5.42168 0
M  V30 2556 H 239.483 -0.236048 -2.92951 0
M  V30 2557 H 236.997 -0.230481 -1.60756 0
M  V30 2558 H 238.994 2.14199 -3.57665 0
M  V30 2559 H 237.654 2.18605 -2.40088 0
M  V30 2560 H 238.665 -0.260924 -5.17242 0
M  V30 2561 H 235.342 1.87812 -3.72871 0
M  V30 2562 H 236.732 -0.906992 -6.6575 0
M  V30 2563 N 239.452 1.56882 -0.150215 0
M  V30 2564 C 240.399 2.16922 0.788244 0
M  V30 2565 C 241.369 1.10303 1.24187 0
M  V30 2566 O 242.554 1.38359 1.31383 0
M  V30 2567 C 239.694 2.79754 2.02068 0
M  V30 2568 C 238.807 4.00775 1.61257 0
M  V30 2569 C 237.942 4.51595 2.79705 0
M  V30 2570 C 236.981 5.65074 2.35282 0
M  V30 2571 N 236.118 6.10499 3.4675 0
M  V30 2572 H 240.958 2.96779 0.269444 0
M  V30 2573 H 238.495 1.46599 0.12128 0
M  V30 2574 H 240.453 3.14329 2.74323 0
M  V30 2575 H 239.083 2.02536 2.51354 0
M  V30 2576 H 238.135 3.72158 0.787553 0
M  V30 2577 H 239.447 4.82978 1.24633 0
M  V30 2578 H 238.601 4.88242 3.60145 0
M  V30 2579 H 237.34 3.68406 3.19576 0
M  V30 2580 H 236.345 5.28 1.53283 0
M  V30 2581 H 237.57 6.50052 1.96493 0
M  V30 2582 H 235.516 5.30243 3.86236 0
M  V30 2583 H 235.433 6.87637 3.14152 0
M  V30 2584 H 236.701 6.51791 4.27537 0
M  V30 2585 N 240.93 -0.123565 1.57115 0
M  V30 2586 C 242.155 -0.850398 1.89164 0
M  V30 2587 C 242.58 -1.7286 0.741688 0
M  V30 2588 O 241.938 -1.78665 -0.307958 0
M  V30 2589 C 241.986 -1.66353 3.19936 0
M  V30 2590 O 241.09 -2.77004 3.0552 0
M  V30 2591 H 240.431 -0.235454 0.620852 0
M  V30 2592 H 242.961 -0.107335 2.04318 0
M  V30 2593 H 242.971 -2.05372 3.52543 0
M  V30 2594 H 241.646 -1.01881 4.03228 0
M  V30 2595 H 240.223 -2.41221 2.84371 0
M  V30 2596 N 242.408 -1.52605 -0.393616 0
M  V30 2597 C 243.657 -1.66649 -1.13627 0
M  V30 2598 C 243.97 -0.410364 -1.91247 0
M  V30 2599 O 245.176 -0.430854 -2.68059 0
M  V30 2600 C 243.632 -2.9449 -2.06891 0
M  V30 2601 C 243.24 -4.27266 -1.34714 0
M  V30 2602 C 244.984 -3.17899 -2.81319 0
M  V30 2603 C 242.891 -5.46217 -2.26717 0
M  V30 2604 H 241.821 -0.62084 -0.427871 0
M  V30 2605 H 244.472 -1.791 -0.399428 0
M  V30 2606 H 242.854 -2.75774 -2.84191 0
M  V30 2607 H 244.028 -4.56518 -0.626714 0
M  V30 2608 H 242.343 -4.10081 -0.722643 0
M  V30 2609 H 244.94 -4.03949 -3.50328 0
M  V30 2610 H 245.283 -2.32777 -3.45139 0
M  V30 2611 H 245.816 -3.37159 -2.11113 0
M  V30 2612 H 242.555 -6.33733 -1.67521 0
M  V30 2613 H 242.075 -5.21283 -2.96689 0
M  V30 2614 H 243.754 -5.7991 -2.86903 0
M  V30 2615 N 243.887 0.651787 -1.4349 0
M  V30 2616 C 245.135 1.40888 -1.44897 0
M  V30 2617 C 245.456 1.94856 -0.0749086 0
M  V30 2618 O 244.726 1.74518 0.889956 0
M  V30 2619 H 243.306 0.522887 -0.533478 0
M  V30 2620 H 245.968 0.768609 -1.79104 0
M  V30 2621 H 245.064 2.25052 -2.16236 0
M  V30 2622 N 245.365 1.30045 0.890287 0
M  V30 2623 C 246.781 1.08261 1.17268 0
M  V30 2624 C 246.981 -0.160063 2.00863 0
M  V30 2625 O 246.037 -0.855181 2.37577 0
M  V30 2626 C 247.35 2.34323 1.8845 0
M  V30 2627 C 248.898 2.39735 2.01237 0
M  V30 2628 C 249.373 3.65625 2.7583 0
M  V30 2629 N 250.864 3.66402 2.83379 0
M  V30 2630 C 251.599 4.60498 3.41657 0
M  V30 2631 N 251.095 5.64933 4.01026 0
M  V30 2632 N 252.888 4.48051 3.39421 0
M  V30 2633 H 245.039 2.09777 0.332762 0
M  V30 2634 H 247.302 0.92446 0.209948 0
M  V30 2635 H 247.008 3.2498 1.34465 0
M  V30 2636 H 246.882 2.4256 2.88867 0
M  V30 2637 H 249.269 1.4956 2.54393 0
M  V30 2638 H 249.35 2.35476 0.999232 0
M  V30 2639 H 248.994 4.56156 2.23347 0
M  V30 2640 H 248.924 3.67144 3.77509 0
M  V30 2641 H 251.415 2.90896 2.41222 0
M  V30 2642 H 251.728 6.32841 4.43545 0
M  V30 2643 H 250.073 5.68732 3.99461 0
M  V30 2644 H 253.264 3.65649 2.92264 0
M  V30 2645 H 253.437 5.21565 3.84544 0
M  V30 2646 N 246.843 -1.10192 1.12674 0
M  V30 2647 C 247.79 -2.16606 0.796906 0
M  V30 2648 C 248.76 -1.64394 -0.237476 0
M  V30 2649 O 249.945 -1.90474 -0.111484 0
M  V30 2650 C 247.085 -3.44116 0.26043 0
M  V30 2651 C 246.198 -4.10268 1.35293 0
M  V30 2652 C 245.333 -5.25507 0.775621 0
M  V30 2653 C 244.372 -5.83567 1.84706 0
M  V30 2654 N 243.509 -6.90179 1.28829 0
M  V30 2655 H 248.349 -2.44163 1.70846 0
M  V30 2656 H 245.886 -1.19846 0.85295 0
M  V30 2657 H 247.844 -4.17143 -0.0686814 0
M  V30 2658 H 246.474 -3.16901 -0.614274 0
M  V30 2659 H 245.526 -3.35184 1.79877 0
M  V30 2660 H 246.838 -4.4946 2.16303 0
M  V30 2661 H 245.992 -6.05398 0.397327 0
M  V30 2662 H 244.731 -4.87656 -0.0656581 0
M  V30 2663 H 243.736 -5.02344 2.23452 0
M  V30 2664 H 244.961 -6.23482 2.69161 0
M  V30 2665 H 242.907 -6.54322 0.468881 0
M  V30 2666 H 242.824 -7.28097 2.03497 0
M  V30 2667 H 244.092 -7.73844 0.937311 0
M  V30 2668 N 248.321 -0.919034 -1.28029 0
M  V30 2669 C 249.284 -0.416182 -2.2539 0
M  V30 2670 C 250.284 0.460438 -1.54067 0
M  V30 2671 O 251.474 0.262744 -1.72207 0
M  V30 2672 C 248.606 0.402707 -3.38513 0
M  V30 2673 H 249.799 -1.27629 -2.71387 0
M  V30 2674 H 247.352 -0.698919 -1.39803 0
M  V30 2675 H 248.087 1.282 -2.97885 0
M  V30 2676 H 247.872 -0.225698 -3.9145 0
M  V30 2677 H 249.362 0.745191 -4.10897 0
M  V30 2678 N 249.799 1.42003 -0.683588 0
M  V30 2679 C 250.731 2.29183 0.0283068 0
M  V30 2680 C 251.744 1.4415 0.756611 0
M  V30 2681 O 252.933 1.67779 0.609306 0
M  V30 2682 C 250.033 3.21765 1.06398 0
M  V30 2683 C 249.206 4.35496 0.407723 0
M  V30 2684 C 248.265 5.08737 1.34437 0
M  V30 2685 O 247.291 5.62948 0.841318 0
M  V30 2686 N 248.493 5.15075 2.67728 0
M  V30 2687 H 251.258 2.9092 -0.720105 0
M  V30 2688 H 248.819 1.53025 -0.528682 0
M  V30 2689 H 250.811 3.6763 1.69204 0
M  V30 2690 H 249.381 2.61418 1.71404 0
M  V30 2691 H 248.601 3.92165 -0.400012 0
M  V30 2692 H 249.889 5.08776 -0.0490956 0
M  V30 2693 H 249.287 4.72457 3.11129 0
M  V30 2694 H 247.844 5.64556 3.2576 0
M  V30 2695 N 251.277 0.427512 1.51691 0
M  V30 2696 C 252.187 -0.39527 2.31246 0
M  V30 2697 C 253.203 -1.03674 1.39742 0
M  V30 2698 O 254.379 -1.03425 1.72816 0
M  V30 2699 C 251.444 -1.48706 3.13189 0
M  V30 2700 C 250.505 -0.866743 4.20459 0
M  V30 2701 C 249.738 -1.90651 4.98486 0
M  V30 2702 O 249.961 -3.12733 4.77026 0
M  V30 2703 O 248.895 -1.5025 5.82845 0
M  V30 2704 H 252.721 0.253918 3.02637 0
M  V30 2705 H 250.306 0.190274 1.48183 0
M  V30 2706 H 252.188 -2.12047 3.64162 0
M  V30 2707 H 250.863 -2.12051 2.44573 0
M  V30 2708 H 249.77 -0.195544 3.73589 0
M  V30 2709 H 251.103 -0.276934 4.9142 0
M  V30 2710 N 252.755 -1.56801 0.158532 0
M  V30 2711 C 253.718 -2.16138 -0.762705 0
M  V30 2712 C 254.718 -1.1061 -1.16713 0
M  V30 2713 O 255.908 -1.36191 -1.08617 0
M  V30 2714 C 253.04 -2.73386 -2.03649 0
M  V30 2715 H 254.233 -2.98886 -0.246354 0
M  V30 2716 H 251.786 -1.56035 -0.0909744 0
M  V30 2717 H 252.521 -1.94335 -2.59623 0
M  V30 2718 H 252.306 -3.50601 -1.75559 0
M  V30 2719 H 253.796 -3.19065 -2.6942 0
M  V30 2720 N 254.233 0.115231 -1.57178 0
M  V30 2721 C 255.463 0.835224 -1.88964 0
M  V30 2722 C 255.871 1.73774 -0.74829 0
M  V30 2723 O 255.214 1.81401 0.289739 0
M  V30 2724 C 255.276 1.7178 -3.15804 0
M  V30 2725 C 254.94 0.989198 -4.46166 0
M  V30 2726 C 255.937 0.328263 -5.18863 0
M  V30 2727 C 253.622 0.969256 -4.9286 0
M  V30 2728 C 255.616 -0.342873 -6.36477 0
M  V30 2729 C 253.303 0.294324 -6.10391 0
M  V30 2730 C 254.301 -0.360582 -6.82048 0
M  V30 2731 O 253.989 -1.02474 -7.97342 0
M  V30 2732 H 253.721 0.245197 -0.629964 0
M  V30 2733 H 256.275 0.10303 -2.05141 0
M  V30 2734 H 254.505 2.49173 -2.95719 0
M  V30 2735 H 256.194 2.31255 -3.33581 0
M  V30 2736 H 256.96 0.335263 -4.8384 0
M  V30 2737 H 252.839 1.46844 -4.36987 0
M  V30 2738 H 256.383 -0.854629 -6.92345 0
M  V30 2739 H 252.28 0.285099 -6.4487 0
M  V30 2740 H 253.048 -0.929594 -8.13204 0
M  V30 2741 N 255.711 1.52812 0.385517 0
M  V30 2742 C 256.641 1.80808 1.47752 0
M  V30 2743 C 257.622 0.660318 1.5676 0
M  V30 2744 O 258.807 0.908246 1.71652 0
M  V30 2745 C 255.937 1.98008 2.85324 0
M  V30 2746 C 254.891 3.13709 2.91154 0
M  V30 2747 C 254.217 3.16169 4.31209 0
M  V30 2748 C 255.517 4.52709 2.60483 0
M  V30 2749 H 257.211 2.72253 1.24573 0
M  V30 2750 H 254.757 1.31003 0.597839 0
M  V30 2751 H 256.71 2.16176 3.61726 0
M  V30 2752 H 255.434 1.03255 3.09848 0
M  V30 2753 H 254.093 2.95329 2.17201 0
M  V30 2754 H 253.741 2.19092 4.52778 0
M  V30 2755 H 253.441 3.93894 4.36029 0
M  V30 2756 H 254.965 3.36496 5.09512 0
M  V30 2757 H 256.379 4.71173 3.26602 0
M  V30 2758 H 254.776 5.32528 2.76648 0
M  V30 2759 H 255.846 4.59186 1.55809 0
M  V30 2760 N 257.189 -0.644168 1.43834 0
M  V30 2761 C 258.414 -1.43642 1.49605 0
M  V30 2762 C 258.839 -1.8773 0.117913 0
M  V30 2763 O 258.197 -1.57938 -0.890239 0
M  V30 2764 C 258.245 -2.6416 2.45463 0
M  V30 2765 O 257.349 -3.63538 1.94714 0
M  V30 2766 H 256.69 -0.430329 0.50568 0
M  V30 2767 H 259.22 -0.787448 1.8884 0
M  V30 2768 H 259.23 -3.11864 2.63068 0
M  V30 2769 H 257.905 -2.31414 3.45572 0
M  V30 2770 H 256.482 -3.2273 1.86814 0
M  V30 2771 N 258.668 -1.30515 -0.883378 0
M  V30 2772 C 259.898 -1.22182 -1.66599 0
M  V30 2773 C 260.306 0.217507 -1.87946 0
M  V30 2774 O 259.649 1.1554 -1.42815 0
M  V30 2775 C 259.711 -1.88146 -3.06335 0
M  V30 2776 C 259.375 -3.37476 -3.08154 0
M  V30 2777 C 260.372 -4.33443 -2.87094 0
M  V30 2778 C 258.057 -3.7895 -3.29701 0
M  V30 2779 C 260.051 -5.68858 -2.8754 0
M  V30 2780 C 257.738 -5.14482 -3.29776 0
M  V30 2781 C 258.736 -6.09246 -3.0872 0
M  V30 2782 O 258.424 -7.42302 -3.08615 0
M  V30 2783 H 258.156 -0.423898 -0.52658 0
M  V30 2784 H 260.71 -1.72703 -1.11188 0
M  V30 2785 H 258.94 -1.32157 -3.63416 0
M  V30 2786 H 260.629 -1.7391 -3.66756 0
M  V30 2787 H 261.395 -4.02733 -2.70243 0
M  V30 2788 H 257.274 -3.05631 -3.45124 0
M  V30 2789 H 260.818 -6.428 -2.71024 0
M  V30 2790 H 256.715 -5.44832 -3.46163 0
M  V30 2791 H 257.483 -7.5131 -3.24769 0
M  V30 2792 N 260.146 1.09593 -1.13257 0
M  V30 2793 C 261.562 1.33775 -0.870423 0
M  V30 2794 C 261.762 1.95327 0.494926 0
M  V30 2795 O 260.818 2.19853 1.2418 0
M  V30 2796 C 262.131 2.25106 -1.99369 0
M  V30 2797 C 263.679 2.3862 -2.02558 0
M  V30 2798 C 264.154 3.33285 -3.14142 0
M  V30 2799 N 265.645 3.40857 -3.13641 0
M  V30 2800 C 266.38 4.14101 -3.96621 0
M  V30 2801 N 265.876 4.90157 -4.8961 0
M  V30 2802 N 267.669 4.09808 -3.84726 0
M  V30 2803 H 259.82 0.680136 -2.01216 0
M  V30 2804 H 262.083 0.362133 -0.876107 0
M  V30 2805 H 261.789 1.87103 -2.97801 0
M  V30 2806 H 261.663 3.25481 -1.90635 0
M  V30 2807 H 264.05 2.75887 -1.0474 0
M  V30 2808 H 264.131 1.38028 -2.15364 0
M  V30 2809 H 263.775 2.96741 -4.12198 0
M  V30 2810 H 263.705 4.33776 -2.98574 0
M  V30 2811 H 266.196 2.86624 -2.46282 0
M  V30 2812 H 266.509 5.4347 -5.49418 0
M  V30 2813 H 264.854 4.89251 -4.93617 0
M  V30 2814 H 268.045 3.4949 -3.11408 0
M  V30 2815 H 268.218 4.66629 -4.49623 0
M  V30 2816 N 261.624 0.925811 1.2754 0
M  V30 2817 C 262.554 0.440748 2.29303 0
M  V30 2818 C 263.535 -0.497971 1.62648 0
M  V30 2819 O 264.72 -0.403126 1.8997 0
M  V30 2820 C 261.85 -0.309048 3.45922 0
M  V30 2821 C 260.804 0.54166 4.24559 0
M  V30 2822 C 260.13 -0.337191 5.33636 0
M  V30 2823 C 261.43 1.80516 4.90114 0
M  V30 2824 H 263.124 1.29121 2.70126 0
M  V30 2825 H 260.67 0.622323 1.29858 0
M  V30 2826 H 262.623 -0.659315 4.1621 0
M  V30 2827 H 261.347 -1.19352 3.04011 0
M  V30 2828 H 260.006 0.874609 3.56014 0
M  V30 2829 H 259.654 -1.22056 4.87966 0
M  V30 2830 H 259.354 0.228497 5.87156 0
M  V30 2831 H 260.878 -0.683072 6.06767 0
M  V30 2832 H 262.292 1.52307 5.52698 0
M  V30 2833 H 260.689 2.3142 5.53683 0
M  V30 2834 H 261.759 2.52581 4.13921 0
M  V30 2835 N 263.102 -1.41638 0.69111 0
M  V30 2836 C 264.012 -2.34588 0.0233487 0
M  V30 2837 C 265.028 -1.55987 -0.770984 0
M  V30 2838 O 266.204 -1.88486 -0.709569 0
M  V30 2839 C 263.269 -3.34684 -0.904851 0
M  V30 2840 C 262.33 -4.29176 -0.103225 0
M  V30 2841 C 261.563 -5.2449 -0.987216 0
M  V30 2842 O 261.786 -5.2514 -2.22674 0
M  V30 2843 O 260.72 -6.00295 -0.439281 0
M  V30 2844 H 264.546 -2.93261 0.789416 0
M  V30 2845 H 262.131 -1.42417 0.45142 0
M  V30 2846 H 264.013 -3.96133 -1.43724 0
M  V30 2847 H 262.688 -2.78461 -1.65049 0
M  V30 2848 H 261.595 -3.71089 0.473655 0
M  V30 2849 H 262.928 -4.88484 0.60365 0
M  V30 2850 N 264.58 -0.43555 -1.51462 0
M  V30 2851 C 265.512 0.41257 -2.25456 0
M  V30 2852 C 266.525 0.987822 -1.29406 0
M  V30 2853 O 267.714 0.882266 -1.55172 0
M  V30 2854 C 264.814 1.58894 -2.99342 0
M  V30 2855 C 263.987 1.13288 -4.22474 0
M  V30 2856 C 263.046 2.17917 -4.78956 0
M  V30 2857 O 262.072 1.77425 -5.40841 0
M  V30 2858 N 263.274 3.50382 -4.62832 0
M  V30 2859 H 266.039 -0.221603 -2.9888 0
M  V30 2860 H 263.6 -0.264342 -1.59727 0
M  V30 2861 H 265.592 2.28508 -3.34015 0
M  V30 2862 H 264.162 2.12849 -2.28941 0
M  V30 2863 H 263.382 0.263881 -3.93316 0
M  V30 2864 H 264.67 0.805542 -5.02383 0
M  V30 2865 H 264.068 3.86013 -4.13534 0
M  V30 2866 H 262.625 4.15895 -5.01871 0
M  V30 2867 N 266.058 1.56714 -0.166846 0
M  V30 2868 C 266.968 2.21331 0.777791 0
M  V30 2869 C 267.984 1.20358 1.25658 0
M  V30 2870 O 269.16 1.53005 1.30964 0
M  V30 2871 C 266.225 2.83787 1.99163 0
M  V30 2872 C 265.286 3.99947 1.56016 0
M  V30 2873 C 264.519 4.59415 2.71613 0
M  V30 2874 O 264.742 4.17769 3.88362 0
M  V30 2875 O 263.676 5.49359 2.45945 0
M  V30 2876 H 267.502 3.02605 0.257636 0
M  V30 2877 H 265.087 1.49275 0.0611393 0
M  V30 2878 H 266.969 3.23405 2.70161 0
M  V30 2879 H 265.644 2.05513 2.50092 0
M  V30 2880 H 264.551 3.65007 0.819809 0
M  V30 2881 H 265.884 4.79801 1.09782 0
M  V30 2882 N 267.536 -0.106894 1.57237 0
M  V30 2883 C 268.766 -0.825191 1.89405 0
M  V30 2884 C 269.174 -1.73374 0.757496 0
M  V30 2885 O 268.517 -1.81552 -0.280115 0
M  V30 2886 C 268.579 -1.70102 3.1671 0
M  V30 2887 C 268.243 -0.965523 4.46684 0
M  V30 2888 C 269.24 -0.300741 5.19029 0
M  V30 2889 C 266.925 -0.943105 4.93367 0
M  V30 2890 C 268.919 0.376622 6.36286 0
M  V30 2891 C 266.606 -0.261949 6.10538 0
M  V30 2892 C 267.604 0.396748 6.81847 0
M  V30 2893 O 267.292 1.06701 7.96787 0
M  V30 2894 H 267.024 -0.241852 0.631255 0
M  V30 2895 H 269.578 -0.0921491 2.05193 0
M  V30 2896 H 267.808 -2.47601 2.97036 0
M  V30 2897 H 269.497 -2.29483 3.34802 0
M  V30 2898 H 270.263 -0.309599 4.84011 0
M  V30 2899 H 266.142 -1.44524 4.3776 0
M  V30 2900 H 269.686 0.891334 6.91882 0
M  V30 2901 H 265.583 -0.250896 6.45012 0
M  V30 2902 H 266.351 0.972707 8.127 0
M  V30 2903 N 269.014 -1.53014 -0.377408 0
M  V30 2904 C 270.239 -1.72818 -1.14668 0
M  V30 2905 C 270.664 -0.450725 -1.8262 0
M  V30 2906 O 270.022 0.59439 -1.7128 0
M  V30 2907 C 270.07 -2.88627 -2.16164 0
M  V30 2908 O 269.174 -2.56409 -3.22998 0
M  V30 2909 H 268.515 -0.574301 -0.333278 0
M  V30 2910 H 271.045 -1.99853 -0.438152 0
M  V30 2911 H 271.055 -3.14455 -2.59966 0
M  V30 2912 H 269.73 -3.81294 -1.66095 0
M  V30 2913 H 268.307 -2.4136 -2.84253 0
M  V30 2914 N 270.492 0.636531 -1.44174 0
M  V30 2915 C 271.439 1.74875 -1.50624 0
M  V30 2916 C 272.409 1.62275 -0.35442 0
M  V30 2917 O 273.594 1.82276 -0.563908 0
M  V30 2918 C 270.734 3.13102 -1.45125 0
M  V30 2919 C 269.847 3.36717 -2.7064 0
M  V30 2920 C 268.982 4.64885 -2.57013 0
M  V30 2921 C 268.021 4.8166 -3.77717 0
M  V30 2922 N 267.158 6.01101 -3.62798 0
M  V30 2923 H 271.998 1.68697 -2.45653 0
M  V30 2924 H 269.535 0.823004 -1.21922 0
M  V30 2925 H 271.493 3.93034 -1.39929 0
M  V30 2926 H 270.123 3.18308 -0.536671 0
M  V30 2927 H 269.175 2.50763 -2.86046 0
M  V30 2928 H 270.487 3.44993 -3.60252 0
M  V30 2929 H 269.641 5.52969 -2.49619 0
M  V30 2930 H 268.38 4.58957 -1.64953 0
M  V30 2931 H 267.385 3.92007 -3.85501 0
M  V30 2932 H 268.61 4.89406 -4.70807 0
M  V30 2933 H 266.556 5.96273 -2.73486 0
M  V30 2934 H 266.473 6.10409 -4.46023 0
M  V30 2935 H 267.741 6.91761 -3.59286 0
M  V30 2936 N 271.97 1.30982 0.876444 0
M  V30 2937 C 273.247 1.10942 1.61094 0
M  V30 2938 C 273.627 -0.338223 2.08373 0
M  V30 2939 O 272.975 -1.33122 1.85717 0
M  V30 2940 C 273.185 2.11789 2.77392 0
M  V30 2941 C 274.533 2.43965 3.47514 0
M  V30 2942 O 275.557 2.10166 2.87591 0
M  V30 2943 O 274.416 3.01817 4.55597 0
M  V30 2944 H 271.51 0.42667 0.708436 0
M  V30 2945 H 274.056 1.42438 0.922474 0
M  V30 2946 H 272.828 3.09194 2.39823 0
M  V30 2947 H 272.451 1.81161 3.5393 0
M  V30 2948 N 273.449 -1.08991 1.13837 0
M  V30 2949 C 274.726 -1.77863 0.813876 0
M  V30 2950 C 275.106 -1.99375 -0.693746 0
M  V30 2951 O 274.454 -1.59875 -1.63255 0
M  V30 2952 C 274.664 -3.0986 1.60586 0
M  V30 2953 C 276.012 -3.84493 1.8014 0
M  V30 2954 O 277.036 -3.19624 1.57222 0
M  V30 2955 O 275.895 -5.00957 2.18413 0
M  V30 2956 H 272.989 -0.771589 0.297624 0
M  V30 2957 H 275.535 -1.15507 1.24323 0
M  V30 2958 H 274.307 -2.89715 2.63022 0
M  V30 2959 H 273.93 -3.79942 1.17173 0
M  V30 2960 N 274.927 -0.932562 -1.27047 0
M  V30 2961 C 276.176 -0.571351 -1.93439 0
M  V30 2962 C 276.489 0.892467 -1.74053 0
M  V30 2963 O 277.695 1.36267 -2.34826 0
M  V30 2964 C 276.151 -0.97106 -3.46552 0
M  V30 2965 C 275.759 -2.4559 -3.74686 0
M  V30 2966 C 277.503 -0.681333 -4.18997 0
M  V30 2967 C 275.41 -2.79475 -5.21198 0
M  V30 2968 H 274.34 -0.209966 -0.724176 0
M  V30 2969 H 276.991 -1.13403 -1.44263 0
M  V30 2970 H 275.373 -0.336983 -3.94564 0
M  V30 2971 H 276.547 -3.13829 -3.37414 0
M  V30 2972 H 274.862 -2.71802 -3.15456 0
M  V30 2973 H 277.459 -0.910939 -5.26883 0
M  V30 2974 H 277.802 0.381628 -4.14547 0
M  V30 2975 H 278.335 -1.27473 -3.76823 0
M  V30 2976 H 275.074 -3.847 -5.30741 0
M  V30 2977 H 274.594 -2.1589 -5.596 0
M  V30 2978 H 276.273 -2.67478 -5.89122 0
M  V30 2979 N 276.405 1.4127 -0.698611 0
M  V30 2980 C 277.652 2.0118 -0.230865 0
M  V30 2981 C 277.98 1.55338 1.17049 0
M  V30 2982 O 277.235 0.756775 1.80475 0
M  V30 2983 C 277.534 3.56592 -0.240192 0
M  V30 2984 C 277.2 4.21955 -1.58948 0
M  V30 2985 C 275.862 4.39524 -1.95887 0
M  V30 2986 C 278.214 4.58576 -2.47704 0
M  V30 2987 C 275.542 4.90992 -3.2116 0
M  V30 2988 C 277.894 5.11435 -3.72313 0
M  V30 2989 C 276.558 5.27215 -4.0939 0
M  V30 2990 H 275.828 0.736169 -0.0844796 0
M  V30 2991 H 278.475 1.69124 -0.8983 0
M  V30 2992 H 276.78 3.88456 0.510797 0
M  V30 2993 H 278.477 4.00758 0.139296 0
M  V30 2994 H 275.067 4.08657 -1.29219 0
M  V30 2995 H 279.251 4.44654 -2.20445 0
M  V30 2996 H 274.507 5.01393 -3.49878 0
M  V30 2997 H 278.681 5.38752 -4.4127 0
M  V30 2998 H 276.308 5.66859 -5.06533 0
M  V30 2999 N 277.883 0.443576 1.51229 0
M  V30 3000 C 278.815 -0.400608 2.25672 0
M  V30 3001 C 279.828 -0.980945 1.29928 0
M  V30 3002 O 281.017 -0.874024 1.55638 0
M  V30 3003 C 278.117 -1.57304 3.00181 0
M  V30 3004 C 277.29 -1.11046 4.23069 0
M  V30 3005 C 276.349 -2.15374 4.80105 0
M  V30 3006 O 275.375 -1.74554 5.41774 0
M  V30 3007 N 276.577 -3.47922 4.64683 0
M  V30 3008 H 279.342 0.23745 2.98758 0
M  V30 3009 H 276.903 0.272809 1.59585 0
M  V30 3010 H 278.895 -2.26733 3.35223 0
M  V30 3011 H 277.465 -2.11632 2.30066 0
M  V30 3012 H 276.685 -0.243019 3.9345 0
M  V30 3013 H 277.973 -0.778888 5.02803 0
M  V30 3014 H 277.371 -3.83815 4.15575 0
M  V30 3015 H 275.928 -4.13228 5.0407 0
M  V30 3016 N 279.361 -1.56624 0.175154 0
M  V30 3017 C 280.607 -1.9729 -0.469506 0
M  V30 3018 C 280.94 -1.06128 -1.62636 0
M  V30 3019 O 280.215 -0.109183 -1.94193 0
M  V30 3020 C 280.498 -3.47375 -0.948804 0
M  V30 3021 C 280.351 -4.49317 0.208491 0
M  V30 3022 C 281.67 -4.00652 -1.82116 0
M  V30 3023 H 278.789 -0.717317 -0.16919 0
M  V30 3024 H 281.431 -1.88184 0.262062 0
M  V30 3025 H 279.581 -3.55267 -1.57219 0
M  V30 3026 H 281.253 -4.53482 0.845682 0
M  V30 3027 H 279.496 -4.25121 0.863395 0
M  V30 3028 H 280.167 -5.51741 -0.169059 0
M  V30 3029 H 282.643 -3.95416 -1.2956 0
M  V30 3030 H 281.519 -5.06075 -2.12554 0
M  V30 3031 H 281.78 -3.44699 -2.7683 0
M  V30 3032 N 280.839 0.0985539 -1.57292 0
M  V30 3033 C 282.069 0.815135 -1.8984 0
M  V30 3034 C 282.477 1.7297 -0.766679 0
M  V30 3035 O 281.82 1.81698 0.270483 0
M  V30 3036 C 281.882 1.6842 -3.17608 0
M  V30 3037 C 281.546 0.94182 -4.4719 0
M  V30 3038 C 282.543 0.273212 -5.19182 0
M  V30 3039 C 280.228 0.916927 -4.9386 0
M  V30 3040 C 282.222 -0.410361 -6.36078 0
M  V30 3041 C 279.909 0.229567 -6.10669 0
M  V30 3042 C 280.907 -0.432902 -6.81627 0
M  V30 3043 O 280.595 -1.10925 -7.9621 0
M  V30 3044 H 280.327 0.238501 -0.632529 0
M  V30 3045 H 282.881 0.0812659 -2.05239 0
M  V30 3046 H 281.111 2.46022 -2.98345 0
M  V30 3047 H 282.8 2.27704 -3.36015 0
M  V30 3048 H 283.566 0.283927 -4.84168 0
M  V30 3049 H 279.445 1.42201 -4.3852 0
M  V30 3050 H 282.989 -0.928013 -6.914 0
M  V30 3051 H 278.886 0.216686 -6.45136 0
M  V30 3052 H 279.654 -1.01579 -8.12172 0
M  V30 3053 N 282.317 1.53212 0.369288 0
M  V30 3054 C 283.247 1.82365 1.45826 0
M  V30 3055 C 284.228 0.676907 1.56051 0
M  V30 3056 O 285.413 0.926401 1.70679 0
M  V30 3057 C 282.543 2.01023 2.83208 0
M  V30 3058 C 281.497 3.1678 2.8781 0
M  V30 3059 C 280.823 3.20724 4.27832 0
M  V30 3060 C 282.123 4.55447 2.55667 0
M  V30 3061 H 283.817 2.73559 1.21678 0
M  V30 3062 H 281.363 1.3163 0.583911 0
M  V30 3063 H 283.316 2.20001 3.59413 0
M  V30 3064 H 282.04 1.06536 3.08736 0
M  V30 3065 H 280.699 2.97616 2.14056 0
M  V30 3066 H 280.347 2.23882 4.50429 0
M  V30 3067 H 280.047 3.98496 4.31827 0
M  V30 3068 H 281.571 3.41881 5.05915 0
M  V30 3069 H 282.985 4.74611 3.21586 0
M  V30 3070 H 281.382 5.35432 2.70984 0
M  V30 3071 H 282.452 4.60812 1.5093 0
M  V30 3072 N 283.795 -0.628877 1.44509 0
M  V30 3073 C 284.743 -1.76193 1.51852 0
M  V30 3074 C 285.737 -1.64849 0.390042 0
M  V30 3075 O 286.943 -1.709 0.565082 0
M  V30 3076 H 283.318 -0.581728 0.476547 0
M  V30 3077 H 285.289 -1.67123 2.47209 0
M  V30 3078 C 284.038 -3.14533 1.48204 0
M  V30 3079 H 283.361 -3.23911 2.34354 0
M  V30 3080 H 284.801 -3.93701 1.57402 0
M  V30 3081 C 283.26 -3.36287 0.203142 0
M  V30 3082 O 283.79 -3.9509 -0.725745 0
M  V30 3083 N 281.996 -2.90408 0.105563 0
M  V30 3084 H 281.543 -2.42739 0.862301 0
M  V30 3085 H 281.501 -3.05339 -0.749371 0
M  V30 3086 N 285.273 -1.31445 -0.869486 0
M  V30 3087 C 286.22 -1.19135 -1.97675 0
M  V30 3088 C 287.19 -0.0770266 -1.65921 0
M  V30 3089 O 288.375 -0.249972 -1.89155 0
M  V30 3090 C 285.515 -0.905149 -3.33018 0
M  V30 3091 C 284.628 -2.10285 -3.77365 0
M  V30 3092 C 283.763 -1.75339 -5.01427 0
M  V30 3093 C 282.802 -2.91515 -5.38224 0
M  V30 3094 N 281.939 -2.56762 -6.53466 0
M  V30 3095 H 286.779 -2.13853 -2.07535 0
M  V30 3096 H 284.316 -1.06379 -1.01597 0
M  V30 3097 H 286.274 -0.719765 -4.10944 0
M  V30 3098 H 284.904 0.00519624 -3.228 0
M  V30 3099 H 283.956 -2.39899 -2.95216 0
M  V30 3100 H 285.268 -2.97237 -4.00564 0
M  V30 3101 H 284.422 -1.53266 -5.87022 0
M  V30 3102 H 283.161 -0.855801 -4.80133 0
M  V30 3103 H 282.166 -3.14237 -4.51149 0
M  V30 3104 H 283.391 -3.81985 -5.61484 0
M  V30 3105 H 281.337 -1.69526 -6.33717 0
M  V30 3106 H 281.254 -3.37243 -6.76612 0
M  V30 3107 H 282.522 -2.38083 -7.42251 0
M  V30 3108 N 286.751 1.08385 -1.14413 0
M  V30 3109 C 288 1.80153 -0.907076 0
M  V30 3110 C 288.313 1.87176 0.567851 0
M  V30 3111 O 289.519 2.55359 0.922172 0
M  V30 3112 C 287.975 3.23687 -1.57336 0
M  V30 3113 C 287.583 3.24897 -3.08457 0
M  V30 3114 C 289.327 4.00136 -1.41744 0
M  V30 3115 C 287.234 4.6302 -3.67921 0
M  V30 3116 H 286.164 0.675139 -0.335714 0
M  V30 3117 H 288.815 1.21733 -1.37307 0
M  V30 3118 H 287.197 3.82234 -1.03505 0
M  V30 3119 H 288.371 2.76055 -3.68958 0
M  V30 3120 H 286.686 2.61943 -3.2369 0
M  V30 3121 H 289.283 5.02201 -1.83572 0
M  V30 3122 H 289.626 4.14709 -0.363576 0
M  V30 3123 H 290.159 3.48058 -1.92614 0
M  V30 3124 H 286.898 4.5365 -4.73161 0
M  V30 3125 H 286.418 5.12143 -3.12201 0
M  V30 3126 H 288.097 5.31994 -3.68227 0
M  V30 3127 N 288.23 0.939286 1.26551 0
M  V30 3128 C 289.46 0.601663 1.97645 0
M  V30 3129 C 289.868 -0.827206 1.70159 0
M  V30 3130 O 289.211 -1.56291 0.965338 0
M  V30 3131 C 289.273 0.761725 3.51337 0
M  V30 3132 C 288.937 2.16487 4.0247 0
M  V30 3133 C 289.934 3.14016 4.14355 0
M  V30 3134 C 287.619 2.48494 4.36527 0
M  V30 3135 C 289.613 4.41654 4.59587 0
M  V30 3136 C 287.3 3.76364 4.81449 0
M  V30 3137 C 288.298 4.72758 4.92939 0
M  V30 3138 O 287.986 5.98352 5.36871 0
M  V30 3139 H 287.718 0.225758 0.637189 0
M  V30 3140 H 290.272 1.26178 1.62075 0
M  V30 3141 H 288.502 0.0444808 3.86674 0
M  V30 3142 H 290.191 0.427442 4.03643 0
M  V30 3143 H 290.957 2.90613 3.8829 0
M  V30 3144 H 286.836 1.74202 4.26819 0
M  V30 3145 H 290.38 5.16896 4.68471 0
M  V30 3146 H 286.277 3.99582 5.06956 0
M  V30 3147 H 287.045 6.01507 5.55096 0
M  V30 3148 N 289.708 -1.40897 0.706093 0
M  V30 3149 C 290.938 -2.05075 0.250523 0
M  V30 3150 C 291.346 -1.53275 -1.10921 0
M  V30 3151 O 290.689 -0.680281 -1.7064 0
M  V30 3152 C 290.751 -3.59219 0.142178 0
M  V30 3153 C 290.415 -4.33864 1.43566 0
M  V30 3154 C 291.412 -4.62448 2.37566 0
M  V30 3155 C 289.097 -4.72946 1.69195 0
M  V30 3156 C 291.091 -5.29088 3.5545 0
M  V30 3157 C 288.778 -5.3932 2.87362 0
M  V30 3158 C 289.776 -5.6732 3.80312 0
M  V30 3159 O 289.464 -6.32325 4.96408 0
M  V30 3160 H 289.196 -0.666645 0.112074 0
M  V30 3161 H 291.75 -1.81467 0.962239 0
M  V30 3162 H 289.98 -3.81609 -0.6254 0
M  V30 3163 H 291.669 -4.0495 -0.277584 0
M  V30 3164 H 292.435 -4.32727 2.19027 0
M  V30 3165 H 288.314 -4.50527 0.977042 0
M  V30 3166 H 291.858 -5.50859 4.28018 0
M  V30 3167 H 287.755 -5.68461 3.05814 0
M  V30 3168 H 288.523 -6.50821 4.9636 0
M  V30 3169 N 291.186 -0.45159 -1.50991 0
M  V30 3170 C 292.411 0.110667 -2.07105 0
M  V30 3171 C 292.836 1.3446 -1.31538 0
M  V30 3172 O 292.194 1.77743 -0.357365 0
M  V30 3173 C 292.242 0.397238 -3.58405 0
M  V30 3174 O 291.346 1.48124 -3.84881 0
M  V30 3175 H 290.687 -0.00439271 -0.663985 0
M  V30 3176 H 293.217 -0.637026 -1.9443 0
M  V30 3177 H 293.227 0.64351 -4.02893 0
M  V30 3178 H 291.902 -0.504553 -4.12828 0
M  V30 3179 H 290.479 1.22381 -3.52246 0
M  V30 3180 N 292.664 1.56529 -0.183458 0
M  V30 3181 C 293.941 1.88959 0.50536 0
M  V30 3182 C 294.321 1.09523 1.80466 0
M  V30 3183 O 293.669 0.19278 2.27685 0
M  V30 3184 C 293.879 3.41162 0.73547 0
M  V30 3185 C 295.227 4.11155 1.06005 0
M  V30 3186 O 296.251 3.46548 0.823594 0
M  V30 3187 O 295.11 5.25318 1.50675 0
M  V30 3188 H 292.204 0.78441 0.261973 0
M  V30 3189 H 294.75 1.68231 -0.222802 0
M  V30 3190 H 293.522 3.90874 -0.182561 0
M  V30 3191 H 293.145 3.67543 1.51651 0
M  V30 3192 N 294.142 -0.090211 1.57342 0
M  V30 3193 C 295.39 -0.791241 1.85967 0
M  V30 3194 C 295.711 -1.7903 0.772859 0
M  V30 3195 O 294.981 -1.94872 -0.200398 0
M  V30 3196 H 293.561 -0.295205 0.686195 0
M  V30 3197 H 296.223 -0.0706782 1.94772 0
M  V30 3198 H 295.319 -1.31882 2.82867 0
M  V30 3199 N 295.62 -1.53406 -0.361157 0
M  V30 3200 C 296.866 -1.70054 -1.10496 0
M  V30 3201 C 297.199 -0.453278 -1.88836 0
M  V30 3202 O 296.474 0.5495 -1.86576 0
M  V30 3203 C 296.757 -2.95317 -2.06058 0
M  V30 3204 C 296.61 -4.3021 -1.31298 0
M  V30 3205 C 297.929 -3.16193 -3.06121 0
M  V30 3206 H 295.048 -0.618799 -0.400321 0
M  V30 3207 H 297.69 -1.86052 -0.385318 0
M  V30 3208 H 295.84 -2.81809 -2.67425 0
M  V30 3209 H 297.512 -4.55538 -0.726807 0
M  V30 3210 H 295.755 -4.29421 -0.614853 0
M  V30 3211 H 296.426 -5.14 -2.01265 0
M  V30 3212 H 298.902 -3.28916 -2.5486 0
M  V30 3213 H 297.778 -4.05266 -3.70204 0
M  V30 3214 H 298.039 -2.31676 -3.76535 0
M  V30 3215 N 297.098 0.621204 -1.44841 0
M  V30 3216 C 298.326 1.40752 -1.51646 0
M  V30 3217 C 298.741 1.88246 -0.144549 0
M  V30 3218 O 298.098 1.61422 0.851416 0
M  V30 3219 C 298.149 2.62119 -2.4895 0
M  V30 3220 O 297.87 2.16602 -3.80808 0
M  V30 3221 C 299.371 3.55135 -2.65319 0
M  V30 3222 H 296.591 0.431325 -0.514004 0
M  V30 3223 H 299.135 0.758835 -1.899 0
M  V30 3224 H 297.29 3.23058 -2.13805 0
M  V30 3225 H 297.704 2.95358 -4.33433 0
M  V30 3226 H 299.178 4.36874 -3.37409 0
M  V30 3227 H 299.655 4.04592 -1.70886 0
M  V30 3228 H 300.261 3.00058 -3.01405 0
M  V30 3229 N 298.576 1.31904 0.862503 0
M  V30 3230 C 299.824 1.21776 1.61292 0
M  V30 3231 C 300.145 -0.222413 1.93727 0
M  V30 3232 O 299.415 -1.1451 1.58947 0
M  V30 3233 H 297.995 0.447717 0.597962 0
M  V30 3234 H 300.657 1.65326 1.03215 0
M  V30 3235 H 299.753 1.7948 2.5533 0
M  V30 3236 N 300.054 -1.07777 1.14986 0
M  V30 3237 C 301.303 -1.79669 0.916617 0
M  V30 3238 C 301.616 -1.87474 -0.557917 0
M  V30 3239 O 302.822 -2.55845 -0.908617 0
M  V30 3240 C 301.278 -3.22848 1.59051 0
M  V30 3241 C 300.886 -3.23257 3.10176 0
M  V30 3242 C 302.63 -3.99379 1.43864 0
M  V30 3243 C 300.537 -4.61063 3.70372 0
M  V30 3244 H 299.467 -0.673349 0.33929 0
M  V30 3245 H 302.118 -1.21003 1.37951 0
M  V30 3246 H 300.5 -3.8168 1.0553 0
M  V30 3247 H 301.674 -2.74095 3.70417 0
M  V30 3248 H 299.989 -2.60222 3.25074 0
M  V30 3249 H 302.586 -5.0122 1.86232 0
M  V30 3250 H 302.929 -4.14511 0.385564 0
M  V30 3251 H 303.462 -3.47032 1.94457 0
M  V30 3252 H 300.201 -4.51135 4.7556 0
M  V30 3253 H 299.721 -5.1048 3.14913 0
M  V30 3254 H 301.4 -5.30034 3.71043 0
M  V30 3255 N 301.532 -0.945985 -1.26051 0
M  V30 3256 C 302.479 -0.45809 -2.26208 0
M  V30 3257 C 303.449 0.484816 -1.58867 0
M  V30 3258 O 304.634 0.399969 -1.86561 0
M  V30 3259 C 301.774 0.266131 -3.44072 0
M  V30 3260 C 300.887 -0.713005 -4.26075 0
M  V30 3261 C 300.022 0.0329013 -5.3119 0
M  V30 3262 C 299.061 -0.93774 -6.04874 0
M  V30 3263 N 298.198 -0.223274 -7.01745 0
M  V30 3264 H 303.038 -1.3171 -2.67313 0
M  V30 3265 H 300.575 -0.66069 -1.31428 0
M  V30 3266 H 302.533 0.702514 -4.11243 0
M  V30 3267 H 301.163 1.08925 -3.03867 0
M  V30 3268 H 300.215 -1.26789 -3.58648 0
M  V30 3269 H 301.527 -1.45406 -4.77136 0
M  V30 3270 H 300.681 0.528335 -6.04395 0
M  V30 3271 H 299.42 0.806801 -4.8098 0
M  V30 3272 H 298.425 -1.44425 -5.30492 0
M  V30 3273 H 299.65 -1.71172 -6.57173 0
M  V30 3274 H 297.596 0.532046 -6.53839 0
M  V30 3275 H 297.513 -0.90357 -7.50581 0
M  V30 3276 H 298.781 0.250907 -7.79096 0
M  V30 3277 N 303.011 1.40521 -0.713556 0
M  V30 3278 C 303.974 2.29098 -0.0684347 0
M  V30 3279 C 304.974 1.45268 0.689472 0
M  V30 3280 O 306.164 1.66205 0.521677 0
M  V30 3281 C 303.296 3.28446 0.913024 0
M  V30 3282 H 304.489 2.87645 -0.84855 0
M  V30 3283 H 302.042 1.48809 -0.47809 0
M  V30 3284 H 302.777 2.74913 1.72027 0
M  V30 3285 H 302.562 3.90327 0.372472 0
M  V30 3286 H 304.052 3.94777 1.36165 0
M  V30 3287 N 304.489 0.459591 1.5075 0
M  V30 3288 C 305.452 -0.329093 2.26825 0
M  V30 3289 C 306.452 -0.930481 1.31144 0
M  V30 3290 O 307.642 -0.801453 1.54669 0
M  V30 3291 C 304.774 -1.46768 3.07688 0
M  V30 3292 H 305.967 0.337924 2.9799 0
M  V30 3293 H 303.52 0.213336 1.54837 0
M  V30 3294 H 304.255 -2.17009 2.40993 0
M  V30 3295 H 304.04 -1.04238 3.77991 0
M  V30 3296 H 305.53 -2.02433 3.65254 0
M  V30 3297 N 305.967 -1.56429 0.191757 0
M  V30 3298 C 306.93 -2.17707 -0.716688 0
M  V30 3299 C 307.93 -1.13061 -1.14341 0
M  V30 3300 O 309.12 -1.38464 -1.05704 0
M  V30 3301 C 306.252 -2.77644 -1.97804 0
M  V30 3302 H 307.445 -2.99342 -0.1829 0
M  V30 3303 H 304.998 -1.56193 -0.0578566 0
M  V30 3304 H 305.733 -1.99799 -2.55443 0
M  V30 3305 H 305.518 -3.54246 -1.68083 0
M  V30 3306 H 307.008 -3.24708 -2.62592 0
M  V30 3307 N 307.445 0.0818655 -1.57387 0
M  V30 3308 C 308.392 1.09834 -2.0299 0
M  V30 3309 C 309.362 1.39043 -0.908639 0
M  V30 3310 O 310.547 1.50282 -1.17559 0
M  V30 3311 C 307.687 2.40971 -2.47037 0
M  V30 3312 C 306.8 2.18379 -3.7274 0
M  V30 3313 C 305.935 3.43008 -4.0561 0
M  V30 3314 C 304.974 3.15736 -5.24383 0
M  V30 3315 N 304.111 4.32667 -5.52941 0
M  V30 3316 H 308.951 0.702472 -2.89602 0
M  V30 3317 H 306.488 0.33531 -1.43227 0
M  V30 3318 H 308.446 3.1752 -2.70623 0
M  V30 3319 H 307.076 2.78379 -1.63417 0
M  V30 3320 H 306.128 1.32569 -3.56552 0
M  V30 3321 H 307.44 1.94227 -4.59431 0
M  V30 3322 H 306.594 4.27958 -4.30043 0
M  V30 3323 H 305.333 3.70225 -3.17466 0
M  V30 3324 H 304.338 2.2918 -4.99757 0
M  V30 3325 H 305.563 2.8985 -6.14136 0
M  V30 3326 H 303.509 4.59935 -4.67756 0
M  V30 3327 H 303.426 4.11753 -6.34031 0
M  V30 3328 H 304.694 5.18644 -5.81918 0
M  V30 3329 N 308.923 1.53595 0.353017 0
M  V30 3330 C 310.153 1.74058 1.11299 0
M  V30 3331 C 310.561 0.475205 1.83135 0
M  V30 3332 O 309.904 -0.562344 1.74881 0
M  V30 3333 C 309.966 2.85994 2.17825 0
M  V30 3334 C 309.63 4.25923 1.65647 0
M  V30 3335 C 310.627 5.07829 1.11383 0
M  V30 3336 C 308.312 4.72377 1.7078 0
M  V30 3337 C 310.306 6.34285 0.629439 0
M  V30 3338 C 307.993 5.98808 1.21953 0
M  V30 3339 C 308.991 6.79594 0.681265 0
M  V30 3340 O 308.679 8.03651 0.200248 0
M  V30 3341 H 308.411 0.585327 0.338183 0
M  V30 3342 H 310.965 2.01186 0.413927 0
M  V30 3343 H 309.195 2.54368 2.91262 0
M  V30 3344 H 310.884 2.94515 2.79313 0
M  V30 3345 H 311.65 4.73107 1.06746 0
M  V30 3346 H 307.529 4.0956 2.11617 0
M  V30 3347 H 311.073 6.97288 0.208636 0
M  V30 3348 H 306.97 6.33026 1.26287 0
M  V30 3349 H 307.738 8.1788 0.318416 0
M  V30 3350 N 310.401 -0.613514 1.45168 0
M  V30 3351 C 311.631 -1.39743 1.52169 0
M  V30 3352 C 312.039 -1.88596 0.151086 0
M  V30 3353 O 311.382 -1.6251 -0.856521 0
M  V30 3354 C 311.444 -2.64035 2.43979 0
M  V30 3355 C 311.108 -2.36861 3.90827 0
M  V30 3356 C 312.105 -1.97591 4.80889 0
M  V30 3357 C 309.79 -2.49956 4.35692 0
M  V30 3358 C 311.784 -1.71768 6.1382 0
M  V30 3359 C 309.471 -2.23747 5.68665 0
M  V30 3360 C 310.469 -1.84714 6.57548 0
M  V30 3361 O 310.157 -1.58809 7.88058 0
M  V30 3362 H 309.889 -0.434382 0.517966 0
M  V30 3363 H 312.443 -0.75587 1.90986 0
M  V30 3364 H 310.673 -3.3089 2.00122 0
M  V30 3365 H 312.362 -3.26069 2.41731 0
M  V30 3366 H 313.128 -1.87015 4.47493 0
M  V30 3367 H 309.007 -2.79305 3.66756 0
M  V30 3368 H 312.551 -1.41227 6.83155 0
M  V30 3369 H 308.448 -2.33938 6.01617 0
M  V30 3370 H 309.216 -1.7291 8.00028 0
M  V30 3371 N 311.879 -1.3236 -0.855495 0
M  V30 3372 C 313.126 -1.22872 -1.60962 0
M  V30 3373 C 313.454 0.209658 -1.93367 0
M  V30 3374 O 312.709 1.16243 -1.57436 0
M  V30 3375 C 313.008 -2.03275 -2.93963 0
M  V30 3376 C 312.674 -3.5264 -2.80991 0
M  V30 3377 C 311.336 -3.93364 -2.7716 0
M  V30 3378 C 313.688 -4.47626 -2.66983 0
M  V30 3379 C 311.016 -5.27319 -2.572 0
M  V30 3380 C 313.368 -5.81723 -2.48558 0
M  V30 3381 C 312.032 -6.2165 -2.4312 0
M  V30 3382 H 311.302 -0.44962 -0.589001 0
M  V30 3383 H 313.949 -1.63777 -0.992442 0
M  V30 3384 H 312.254 -1.55095 -3.59795 0
M  V30 3385 H 313.951 -1.93303 -3.51333 0
M  V30 3386 H 310.541 -3.20295 -2.84797 0
M  V30 3387 H 314.725 -4.17084 -2.68988 0
M  V30 3388 H 309.981 -5.57311 -2.51424 0
M  V30 3389 H 314.155 -6.5494 -2.36699 0
M  V30 3390 H 311.782 -7.25388 -2.27412 0
M  V30 3391 N 313.357 1.07166 -1.15556 0
M  V30 3392 C 314.305 2.16517 -0.8499 0
M  V30 3393 C 315.299 1.68468 0.177454 0
M  V30 3394 O 316.505 1.79971 0.0323026 0
M  V30 3395 H 312.88 0.706652 -0.25719 0
M  V30 3396 H 314.851 2.39514 -1.77976 0
M  V30 3397 C 313.6 3.45855 -0.357682 0
M  V30 3398 H 312.923 3.83214 -1.13961 0
M  V30 3399 H 314.363 4.23607 -0.182489 0
M  V30 3400 C 312.822 3.24062 0.921152 0
M  V30 3401 O 313.352 3.48813 1.9923 0
M  V30 3402 N 311.558 2.77539 0.86141 0
M  V30 3403 H 311.105 2.57598 -0.0104408 0
M  V30 3404 H 311.063 2.63337 1.71758 0
M  V30 3405 N 314.835 0.952656 1.25548 0
M  V30 3406 C 315.782 0.47008 2.25962 0
M  V30 3407 C 316.752 -0.476384 1.59122 0
M  V30 3408 O 317.937 -0.39007 1.8677 0
M  V30 3409 C 315.077 -0.247881 3.44209 0
M  V30 3410 C 314.19 0.735591 4.25691 0
M  V30 3411 C 313.325 -0.0047306 5.312 0
M  V30 3412 C 312.364 0.969805 6.04368 0
M  V30 3413 N 311.501 0.260486 7.01617 0
M  V30 3414 H 316.341 1.33126 2.66611 0
M  V30 3415 H 313.878 0.66765 1.31076 0
M  V30 3416 H 315.836 -0.680695 4.1161 0
M  V30 3417 H 314.466 -1.07312 3.0444 0
M  V30 3418 H 313.518 1.28689 3.57971 0
M  V30 3419 H 314.83 1.47934 4.76358 0
M  V30 3420 H 313.984 -0.496275 6.04667 0
M  V30 3421 H 312.723 -0.781282 4.81401 0
M  V30 3422 H 311.728 1.47237 5.29718 0
M  V30 3423 H 312.953 1.74655 6.56256 0
M  V30 3424 H 310.899 -0.497364 6.54112 0
M  V30 3425 H 310.816 0.943362 7.50091 0
M  V30 3426 H 312.084 -0.209587 7.79218 0
M  V30 3427 N 316.313 -1.40141 0.720998 0
M  V30 3428 C 317.59 -1.94677 0.189757 0
M  V30 3429 C 317.97 -1.65879 -1.30566 0
M  V30 3430 O 317.318 -0.979391 -2.06447 0
M  V30 3431 C 317.528 -3.45279 0.508304 0
M  V30 3432 C 318.876 -4.22209 0.449934 0
M  V30 3433 O 319.9 -3.53413 0.444677 0
M  V30 3434 O 318.759 -5.44788 0.432189 0
M  V30 3435 H 315.853 -0.826459 0.0299026 0
M  V30 3436 H 318.399 -1.49719 0.7989 0
M  V30 3437 H 317.171 -3.59619 1.54239 0
M  V30 3438 H 316.794 -3.97386 -0.130525 0
M  V30 3439 N 317.792 -0.46758 -1.50504 0
M  V30 3440 C 318.722 0.318381 -2.31319 0
M  V30 3441 C 319.703 0.993564 -1.38066 0
M  V30 3442 O 320.888 0.991411 -1.66987 0
M  V30 3443 C 318.018 1.40275 -3.17711 0
M  V30 3444 C 316.972 0.849373 -4.19487 0
M  V30 3445 C 316.298 2.03177 -4.94594 0
M  V30 3446 C 317.598 -0.136942 -5.2212 0
M  V30 3447 H 319.292 -0.356106 -2.97275 0
M  V30 3448 H 316.838 -0.172703 -1.42961 0
M  V30 3449 H 318.791 1.96004 -3.73042 0
M  V30 3450 H 317.515 2.10596 -2.49634 0
M  V30 3451 H 316.174 0.314076 -3.65252 0
M  V30 3452 H 315.822 2.72187 -4.22993 0
M  V30 3453 H 315.522 1.66774 -5.63436 0
M  V30 3454 H 317.046 2.59403 -5.52759 0
M  V30 3455 H 318.46 0.331056 -5.72343 0
M  V30 3456 H 316.857 -0.41507 -5.98663 0
M  V30 3457 H 317.927 -1.06398 -4.73083 0
M  V30 3458 N 319.27 1.56325 -0.20005 0
M  V30 3459 C 320.217 2.1932 0.718833 0
M  V30 3460 C 321.187 1.14198 1.20615 0
M  V30 3461 O 322.372 1.42469 1.26914 0
M  V30 3462 C 319.512 2.86041 1.93066 0
M  V30 3463 C 318.625 4.05702 1.48425 0
M  V30 3464 C 317.76 4.60266 2.65196 0
M  V30 3465 C 316.799 5.72273 2.17185 0
M  V30 3466 N 315.936 6.21221 3.27152 0
M  V30 3467 H 320.776 2.97486 0.17489 0
M  V30 3468 H 318.313 1.46911 0.0745794 0
M  V30 3469 H 320.271 3.22897 2.64184 0
M  V30 3470 H 318.901 2.1043 2.44783 0
M  V30 3471 H 317.953 3.74475 0.668755 0
M  V30 3472 H 319.265 4.86699 1.09204 0
M  V30 3473 H 318.419 4.99453 3.4443 0
M  V30 3474 H 317.158 3.78386 3.07693 0
M  V30 3475 H 316.163 5.3261 1.36407 0
M  V30 3476 H 317.388 6.55974 1.75713 0
M  V30 3477 H 315.334 5.42263 3.69171 0
M  V30 3478 H 315.251 6.97284 2.92116 0
M  V30 3479 H 316.519 6.65063 4.06585 0
M  V30 3480 N 320.748 -0.0735177 1.57428 0
M  V30 3481 C 322.025 -0.805903 1.78226 0
M  V30 3482 C 322.405 -1.95874 0.787189 0
M  V30 3483 O 321.753 -2.2779 -0.180029 0
M  V30 3484 C 321.963 -1.28045 3.24662 0
M  V30 3485 C 323.311 -1.71453 3.88444 0
M  V30 3486 O 324.335 -1.37616 3.28543 0
M  V30 3487 O 323.194 -2.34093 4.93825 0
M  V30 3488 H 320.288 -0.386041 0.73137 0
M  V30 3489 H 322.834 -0.0537269 1.69615 0
M  V30 3490 H 321.606 -0.455476 3.8864 0
M  V30 3491 H 321.229 -2.094 3.37991 0
M  V30 3492 N 322.226 -1.5378 -0.344866 0
M  V30 3493 C 323.156 -1.84662 -1.42906 0
M  V30 3494 C 324.137 -0.701648 -1.54955 0
M  V30 3495 O 325.322 -0.953438 -1.69184 0
M  V30 3496 C 322.452 -2.05503 -2.79974 0
M  V30 3497 C 321.406 -3.21318 -2.82734 0
M  V30 3498 C 320.732 -3.2749 -4.22675 0
M  V30 3499 C 322.032 -4.59456 -2.48389 0
M  V30 3500 H 323.726 -2.75461 -1.17311 0
M  V30 3501 H 321.272 -1.32542 -0.562896 0
M  V30 3502 H 323.225 -2.25691 -3.55867 0
M  V30 3503 H 321.949 -1.11434 -3.07002 0
M  V30 3504 H 320.608 -3.00984 -2.09294 0
M  V30 3505 H 320.256 -2.31019 -4.4681 0
M  V30 3506 H 319.956 -4.05316 -4.25433 0
M  V30 3507 H 321.48 -3.49887 -5.00412 0
M  V30 3508 H 322.894 -4.79667 -3.13995 0
M  V30 3509 H 321.291 -5.39675 -2.62432 0
M  V30 3510 H 322.361 -4.63155 -1.4358 0
M  V30 3511 N 323.704 0.605807 -1.45491 0
M  V30 3512 C 324.652 1.73754 -1.54636 0
M  V30 3513 C 325.646 1.64207 -0.416219 0
M  V30 3514 O 326.852 1.69979 -0.592199 0
M  V30 3515 H 323.227 0.574073 -0.485741 0
M  V30 3516 H 325.198 1.63169 -2.49837 0
M  V30 3517 C 323.947 3.12135 -1.53189 0
M  V30 3518 H 323.27 3.20141 -2.39478 0
M  V30 3519 H 324.71 3.91147 -1.63645 0
M  V30 3520 C 323.169 3.35921 -0.256616 0
M  V30 3521 O 323.699 3.96194 0.662798 0
M  V30 3522 N 321.905 2.90204 -0.151751 0
M  V30 3523 H 321.452 2.41336 -0.90081 0
M  V30 3524 H 321.41 3.06492 0.700699 0
M  V30 3525 N 325.182 1.32811 0.848464 0
M  V30 3526 C 326.112 1.24882 1.97299 0
M  V30 3527 C 327.093 0.131357 1.69592 0
M  V30 3528 O 328.278 0.319553 1.91553 0
M  V30 3529 C 325.408 0.97746 3.33261 0
M  V30 3530 C 324.362 2.05682 3.75338 0
M  V30 3531 C 323.688 1.63777 5.09 0
M  V30 3532 C 324.988 3.47254 3.90144 0
M  V30 3533 H 326.682 2.18966 2.04191 0
M  V30 3534 H 324.228 1.05413 0.981029 0
M  V30 3535 H 326.181 0.908513 4.1149 0
M  V30 3536 H 324.905 0.000980011 3.266 0
M  V30 3537 H 323.564 2.11603 2.99366 0
M  V30 3538 H 323.212 0.648569 4.98801 0
M  V30 3539 H 322.912 2.36 5.38124 0
M  V30 3540 H 324.436 1.5833 5.89715 0
M  V30 3541 H 325.85 3.43888 4.58709 0
M  V30 3542 H 324.247 4.1788 4.30693 0
M  V30 3543 H 325.317 3.86462 2.92874 0
M  V30 3544 N 326.66 -1.06551 1.16123 0
M  V30 3545 C 327.623 -2.12132 0.867906 0
M  V30 3546 C 328.623 -1.60224 -0.135944 0
M  V30 3547 O 329.813 -1.73943 0.0946422 0
M  V30 3548 C 326.945 -3.396 0.297419 0
M  V30 3549 H 328.138 -2.39586 1.80385 0
M  V30 3550 H 325.691 -1.22574 0.969812 0
M  V30 3551 H 326.426 -3.17794 -0.64633 0
M  V30 3552 H 326.211 -3.78581 1.02073 0
M  V30 3553 H 327.701 -4.17455 0.110052 0
M  V30 3554 N 328.138 -0.959301 -1.25041 0
M  V30 3555 C 329.048 -0.489994 -2.29426 0
M  V30 3556 C 330.064 0.444944 -1.68215 0
M  V30 3557 O 331.24 0.320046 -1.98841 0
M  V30 3558 C 328.305 0.220309 -3.45999 0
M  V30 3559 C 327.366 -0.753418 -4.22637 0
M  V30 3560 C 326.599 -0.076918 -5.33645 0
M  V30 3561 O 326.822 1.13649 -5.58963 0
M  V30 3562 O 325.756 -0.764824 -5.97021 0
M  V30 3563 H 329.582 -1.35755 -2.71669 0
M  V30 3564 H 327.167 -0.725961 -1.30576 0
M  V30 3565 H 329.049 0.619677 -4.16819 0
M  V30 3566 H 327.724 1.06296 -3.0575 0
M  V30 3567 H 326.631 -1.20308 -3.54227 0
M  V30 3568 H 327.964 -1.56423 -4.66683 0
M  V30 3569 N 329.616 1.39756 -0.72842 0
M  V30 3570 C 330.526 2.34444 -0.0855374 0
M  V30 3571 C 331.542 1.57976 0.729356 0
M  V30 3572 O 332.718 1.90301 0.659346 0
M  V30 3573 C 329.783 3.36965 0.815798 0
M  V30 3574 C 328.844 4.29299 -0.0105996 0
M  V30 3575 C 328.077 5.26923 0.84781 0
M  V30 3576 O 328.3 5.30859 2.08673 0
M  V30 3577 O 327.234 6.01249 0.279969 0
M  V30 3578 H 331.06 2.91065 -0.866892 0
M  V30 3579 H 328.645 1.4117 -0.48902 0
M  V30 3580 H 330.527 3.99804 1.33171 0
M  V30 3581 H 329.202 2.82739 1.57608 0
M  V30 3582 H 328.109 3.69703 -0.571877 0
M  V30 3583 H 329.442 4.86712 -0.73295 0
M  V30 3584 N 331.094 0.475555 1.50254 0
M  V30 3585 C 332.057 -0.305016 2.27161 0
M  V30 3586 C 333.057 -0.916519 1.32123 0
M  V30 3587 O 334.247 -0.785003 1.5551 0
M  V30 3588 C 331.379 -1.43496 3.09227 0
M  V30 3589 H 332.572 0.369511 2.97615 0
M  V30 3590 H 330.125 0.229747 1.54602 0
M  V30 3591 H 330.86 -2.14441 2.43281 0
M  V30 3592 H 330.645 -1.00223 3.79075 0
M  V30 3593 H 332.135 -1.98548 3.67381 0
M  V30 3594 N 332.573 -1.56217 0.208337 0
M  V30 3595 C 333.803 -2.02043 -0.431523 0
M  V30 3596 C 334.211 -1.08755 -1.54819 0
M  V30 3597 O 333.554 -0.0870009 -1.83494 0
M  V30 3598 C 333.616 -3.44239 -1.03633 0
M  V30 3599 C 333.28 -4.56965 -0.0567502 0
M  V30 3600 C 334.277 -5.14624 0.738773 0
M  V30 3601 C 331.962 -5.02266 0.0581736 0
M  V30 3602 C 333.956 -6.16045 1.63605 0
M  V30 3603 C 331.643 -6.03528 0.959001 0
M  V30 3604 C 332.641 -6.60293 1.7465 0
M  V30 3605 O 332.329 -7.59586 2.6322 0
M  V30 3606 H 332.061 -0.666772 -0.111313 0
M  V30 3607 H 334.615 -2.02919 0.318277 0
M  V30 3608 H 332.845 -3.40391 -1.83497 0
M  V30 3609 H 334.534 -3.73793 -1.58221 0
M  V30 3610 H 335.3 -4.80483 0.660364 0
M  V30 3611 H 331.179 -4.57771 -0.544633 0
M  V30 3612 H 334.723 -6.60279 2.25116 0
M  V30 3613 H 330.62 -6.37092 1.03848 0
M  V30 3614 H 331.388 -7.77057 2.57148 0
M  V30 3615 N 334.051 0.0651679 -1.57465 0
M  V30 3616 C 334.981 1.07693 -2.07182 0
M  V30 3617 C 335.962 1.39962 -0.966673 0
M  V30 3618 O 337.147 1.49475 -1.2398 0
M  V30 3619 C 334.277 2.3885 -2.52127 0
M  V30 3620 C 333.231 2.20917 -3.66579 0
M  V30 3621 C 332.557 3.57515 -3.97601 0
M  V30 3622 C 333.857 1.62493 -4.9638 0
M  V30 3623 H 335.551 0.663199 -2.91962 0
M  V30 3624 H 333.097 0.317569 -1.40455 0
M  V30 3625 H 335.05 3.09928 -2.85522 0
M  V30 3626 H 333.774 2.82215 -1.64384 0
M  V30 3627 H 332.433 1.52279 -3.33477 0
M  V30 3628 H 332.081 3.98463 -3.06979 0
M  V30 3629 H 331.781 3.46353 -4.74672 0
M  V30 3630 H 333.305 4.30013 -4.33499 0
M  V30 3631 H 334.719 2.23445 -5.27963 0
M  V30 3632 H 333.116 1.62009 -5.77818 0
M  V30 3633 H 334.186 0.587041 -4.81333 0
M  V30 3634 N 335.529 1.53961 0.336706 0
M  V30 3635 C 336.492 1.81724 1.39675 0
M  V30 3636 C 337.492 0.688532 1.45313 0
M  V30 3637 O 338.682 0.956829 1.45569 0
M  V30 3638 C 335.814 1.96543 2.78538 0
M  V30 3639 H 337.007 2.76424 1.16318 0
M  V30 3640 H 334.56 1.45478 0.571474 0
M  V30 3641 H 335.295 1.0401 3.07168 0
M  V30 3642 H 335.08 2.78665 2.75841 0
M  V30 3643 H 336.57 2.19516 3.5525 0
M  V30 3644 N 337.007 -0.598083 1.45811 0
M  V30 3645 C 338.255 -1.35413 1.50026 0
M  V30 3646 C 338.576 -1.94444 0.147177 0
M  V30 3647 O 337.846 -1.77701 -0.824571 0
M  V30 3648 H 336.426 -0.502727 0.552517 0
M  V30 3649 H 339.088 -0.701606 1.81834 0
M  V30 3650 H 338.184 -2.16871 2.2444 0
M  V30 3651 N 338.485 -1.33259 -0.841409 0
M  V30 3652 C 339.415 -1.25926 -1.96634 0
M  V30 3653 C 340.396 -0.140349 -1.6952 0
M  V30 3654 O 341.581 -0.329707 -1.91381 0
M  V30 3655 C 338.711 -0.99512 -3.32738 0
M  V30 3656 C 337.665 -2.0767 -3.74242 0
M  V30 3657 C 336.991 -1.66474 -5.08125 0
M  V30 3658 C 338.291 -3.49318 -3.88297 0
M  V30 3659 H 339.985 -2.20046 -2.03027 0
M  V30 3660 H 337.531 -1.05931 -0.975425 0
M  V30 3661 H 339.484 -0.930323 -4.11002 0
M  V30 3662 H 338.208 -0.0183004 -3.26595 0
M  V30 3663 H 336.867 -2.13187 -2.98239 0
M  V30 3664 H 336.515 -0.675012 -4.9845 0
M  V30 3665 H 336.215 -2.3885 -5.36865 0
M  V30 3666 H 337.739 -1.61455 -5.88867 0
M  V30 3667 H 339.153 -3.46316 -4.56879 0
M  V30 3668 H 337.55 -4.20158 -4.28471 0
M  V30 3669 H 338.62 -3.8801 -2.9082 0
M  V30 3670 N 339.963 1.05934 -1.16686 0
M  V30 3671 C 341.374 1.60263 -0.957745 0
M  V30 3672 C 341.725 1.89789 0.49745 0
M  V30 3673 O 340.85 1.67401 1.37135 0
M  V30 3674 C 341.445 2.91172 -1.73218 0
M  V30 3675 C 340.004 3.42188 -1.56794 0
M  V30 3676 C 339.151 2.16028 -1.73859 0
M  V30 3677 H 342.102 0.888392 -1.31504 0
M  V30 3678 H 342.123 3.60744 -1.21014 0
M  V30 3679 H 341.635 2.6965 -2.79124 0
M  V30 3680 H 339.736 3.68762 -0.533437 0
M  V30 3681 H 339.849 4.17273 -2.35414 0
M  V30 3682 H 338.213 2.26426 -1.16633 0
M  V30 3683 H 338.996 1.96985 -2.81161 0
M  V30 3684 N 341.441 0.965919 1.2453 0
M  V30 3685 C 342.373 0.452465 2.2469 0
M  V30 3686 C 343.386 -0.437821 1.56802 0
M  V30 3687 O 344.575 -0.244283 1.76821 0
M  V30 3688 C 341.675 -0.366258 3.36915 0
M  V30 3689 C 340.848 0.513701 4.34373 0
M  V30 3690 C 339.907 -0.248716 5.25612 0
M  V30 3691 O 338.933 0.356745 5.68081 0
M  V30 3692 N 340.135 -1.53877 5.59734 0
M  V30 3693 H 342.9 1.31361 2.69378 0
M  V30 3694 H 340.461 0.837541 1.38553 0
M  V30 3695 H 342.453 -0.884297 3.94921 0
M  V30 3696 H 341.023 -1.12832 2.91526 0
M  V30 3697 H 340.243 1.21273 3.75082 0
M  V30 3698 H 341.531 1.11391 4.96457 0
M  V30 3699 H 340.929 -2.05243 5.27154 0
M  V30 3700 H 339.486 -2.00254 6.20275 0
M  V30 3701 N 342.919 -1.39368 0.735821 0
M  V30 3702 C 344.165 -2.00794 0.284544 0
M  V30 3703 C 344.498 -1.58255 -1.12557 0
M  V30 3704 O 343.773 -0.811819 -1.76748 0
M  V30 3705 C 344.056 -3.58011 0.387337 0
M  V30 3706 C 343.909 -4.10566 1.83728 0
M  V30 3707 C 345.228 -4.395 -0.22975 0
M  V30 3708 H 342.347 -0.729501 0.104866 0
M  V30 3709 H 344.989 -1.65564 0.93213 0
M  V30 3710 H 343.139 -3.88154 -0.164006 0
M  V30 3711 H 344.811 -3.91139 2.44556 0
M  V30 3712 H 343.054 -3.64095 2.35833 0
M  V30 3713 H 343.725 -5.19702 1.86047 0
M  V30 3714 H 346.201 -4.15406 0.240257 0
M  V30 3715 H 345.077 -5.48752 -0.127485 0
M  V30 3716 H 345.338 -4.22062 -1.3159 0
M  V30 3717 N 344.397 -0.483516 -1.5 0
M  V30 3718 C 345.808 -0.0314176 -1.86674 0
M  V30 3719 C 346.159 1.37728 -1.39733 0
M  V30 3720 O 345.284 2.02327 -0.767635 0
M  V30 3721 C 345.879 -0.0502376 -3.38763 0
M  V30 3722 C 344.438 0.346442 -3.74802 0
M  V30 3723 C 343.585 -0.430366 -2.7394 0
M  V30 3724 H 346.536 -0.697182 -1.42566 0
M  V30 3725 H 346.557 0.749116 -3.73053 0
M  V30 3726 H 346.069 -1.07563 -3.72897 0
M  V30 3727 H 344.17 1.37572 -3.46273 0
M  V30 3728 H 344.283 0.0391486 -4.79084 0
M  V30 3729 H 342.647 0.117557 -2.54429 0
M  V30 3730 H 343.43 -1.4555 -3.10918 0
M  V30 3731 N 345.875 1.56104 -0.216619 0
M  V30 3732 C 346.823 2.21434 0.712036 0
M  V30 3733 C 347.817 1.19218 1.20348 0
M  V30 3734 O 349.023 1.3731 1.16387 0
M  V30 3735 H 345.398 0.70992 0.248026 0
M  V30 3736 H 347.369 2.98083 0.137558 0
M  V30 3737 C 346.118 2.90434 1.91163 0
M  V30 3738 H 345.441 3.68842 1.54258 0
M  V30 3739 H 346.881 3.39552 2.5393 0
M  V30 3740 C 345.34 1.92635 2.76394 0
M  V30 3741 O 345.87 1.44017 3.74996 0
M  V30 3742 N 344.076 1.60392 2.42328 0
M  V30 3743 H 343.623 2.00122 1.622 0
M  V30 3744 H 343.581 0.952159 2.99635 0
M  V30 3745 N 347.353 -0.0568162 1.57498 0
M  V30 3746 C 348.301 -1.08452 2.05769 0
M  V30 3747 C 349.295 -1.39164 0.965903 0
M  V30 3748 O 350.501 -1.38395 1.15095 0
M  V30 3749 H 346.876 -0.367148 0.656282 0
M  V30 3750 H 348.847 -0.651368 2.91204 0
M  V30 3751 C 347.596 -2.38543 2.52968 0
M  V30 3752 H 346.919 -2.15765 3.36579 0
M  V30 3753 H 348.359 -3.08863 2.90481 0
M  V30 3754 C 346.818 -3.05562 1.41893 0
M  V30 3755 O 347.348 -3.94262 0.769442 0
M  V30 3756 N 345.554 -2.6643 1.16032 0
M  V30 3757 H 345.101 -1.94387 1.6903 0
M  V30 3758 H 345.059 -3.11593 0.419219 0
M  V30 3759 N 348.832 -1.54138 -0.328536 0
M  V30 3760 C 350.062 -1.75807 -1.08516 0
M  V30 3761 C 350.47 -0.50428 -1.82356 0
M  V30 3762 O 349.813 0.534451 -1.75754 0
M  V30 3763 C 349.875 -2.89423 -2.13248 0
M  V30 3764 C 349.539 -4.28504 -1.5885 0
M  V30 3765 C 350.536 -5.09536 -1.03289 0
M  V30 3766 C 348.221 -4.75034 -1.63243 0
M  V30 3767 C 350.215 -6.35206 -0.52845 0
M  V30 3768 C 347.902 -6.00672 -1.12411 0
M  V30 3769 C 348.9 -6.80592 -0.573062 0
M  V30 3770 O 348.588 -8.03867 -0.0723692 0
M  V30 3771 H 348.32 -0.590633 -0.328829 0
M  V30 3772 H 350.874 -2.01819 -0.381868 0
M  V30 3773 H 349.104 -2.5897 -2.87178 0
M  V30 3774 H 350.793 -2.98921 -2.74592 0
M  V30 3775 H 351.559 -4.74745 -0.99206 0
M  V30 3776 H 347.438 -4.12875 -2.05074 0
M  V30 3777 H 350.982 -6.97532 -0.0976774 0
M  V30 3778 H 346.879 -6.34955 -1.162 0
M  V30 3779 H 347.647 -8.18283 -0.188258 0
M  V30 3780 N 350.31 0.590341 -1.46126 0
M  V30 3781 C 351.258 1.72105 -1.5647 0
M  V30 3782 C 352.252 1.63756 -0.433612 0
M  V30 3783 O 353.458 1.69342 -0.610194 0
M  V30 3784 H 349.833 0.568889 -0.491802 0
M  V30 3785 H 351.804 1.6051 -2.51553 0
M  V30 3786 C 350.553 3.10493 -1.56491 0
M  V30 3787 H 349.876 3.17583 -2.4286 0
M  V30 3788 H 351.316 3.8939 -1.67785 0
M  V30 3789 C 349.775 3.3563 -0.292231 0
M  V30 3790 O 350.305 3.96875 0.620739 0
M  V30 3791 N 348.511 2.90026 -0.182523 0
M  V30 3792 H 348.058 2.40367 -0.926356 0
M  V30 3793 H 348.016 3.07218 0.668152 0
M  V30 3794 N 351.788 1.33704 0.83433 0
M  V30 3795 C 353.037 1.24763 1.58484 0
M  V30 3796 C 353.35 -0.183775 1.94735 0
M  V30 3797 O 354.556 -0.395234 2.68608 0
M  V30 3798 C 353.012 2.18638 2.85876 0
M  V30 3799 C 352.62 3.66974 2.56971 0
M  V30 3800 C 354.364 2.18581 3.63899 0
M  V30 3801 C 352.271 4.5275 3.80488 0
M  V30 3802 H 351.201 0.463425 0.594772 0
M  V30 3803 H 353.852 1.58797 0.919551 0
M  V30 3804 H 352.234 1.77542 3.5397 0
M  V30 3805 H 353.408 4.16538 1.9706 0
M  V30 3806 H 351.723 3.69366 1.92244 0
M  V30 3807 H 354.32 2.79894 4.55591 0
M  V30 3808 H 354.663 1.18207 3.99165 0
M  V30 3809 H 355.196 2.58062 3.02735 0
M  V30 3810 H 351.935 5.54017 3.5035 0
M  V30 3811 H 351.455 4.07927 4.39722 0
M  V30 3812 H 353.134 4.66784 4.4802 0
M  V30 3813 N 353.266 -1.05314 1.17247 0
M  V30 3814 C 354.496 -1.81707 0.983166 0
M  V30 3815 C 354.904 -1.83222 -0.471822 0
M  V30 3816 O 354.247 -1.25721 -1.3394 0
M  V30 3817 C 354.309 -3.29134 1.44606 0
M  V30 3818 C 353.973 -3.51304 2.92292 0
M  V30 3819 C 354.97 -3.4353 3.90235 0
M  V30 3820 C 352.655 -3.78306 3.30439 0
M  V30 3821 C 354.649 -3.62442 5.24323 0
M  V30 3822 C 352.336 -3.96866 4.64694 0
M  V30 3823 C 353.334 -3.88933 5.61445 0
M  V30 3824 O 353.022 -4.06976 6.93272 0
M  V30 3825 H 352.754 -0.579476 0.348114 0
M  V30 3826 H 355.308 -1.33705 1.55924 0
M  V30 3827 H 353.538 -3.78046 0.813537 0
M  V30 3828 H 355.227 -3.87049 1.22262 0
M  V30 3829 H 355.993 -3.22648 3.62109 0
M  V30 3830 H 351.872 -3.83585 2.55702 0
M  V30 3831 H 355.416 -3.56165 5.99827 0
M  V30 3832 H 351.313 -4.1724 4.92525 0
M  V30 3833 H 352.081 -4.24209 6.99992 0
M  V30 3834 N 354.744 -0.972509 -1.24016 0
M  V30 3835 C 356.021 -0.553733 -1.87598 0
M  V30 3836 C 356.401 0.969158 -1.87538 0
M  V30 3837 O 355.749 1.84255 -1.35139 0
M  V30 3838 C 355.959 -1.15076 -3.29482 0
M  V30 3839 C 357.307 -1.23862 -4.06132 0
M  V30 3840 O 358.331 -1.10363 -3.38672 0
M  V30 3841 O 357.19 -1.45252 -5.26844 0
M  V30 3842 H 354.284 -0.185331 -0.805966 0
M  V30 3843 H 356.83 -1.06709 -1.31952 0
M  V30 3844 H 355.602 -2.19333 -3.2405 0
M  V30 3845 H 355.225 -0.621746 -3.92709 0
M  V30 3846 N 356.222 1.38976 -0.743202 0
M  V30 3847 C 357.172 2.27843 -0.084513 0
M  V30 3848 C 358.156 1.44677 0.704094 0
M  V30 3849 O 359.348 1.67511 0.571755 0
M  V30 3850 C 356.477 3.33466 0.815781 0
M  V30 3851 C 355.563 4.24095 0.0208844 0
M  V30 3852 N 355.954 4.95609 -1.0102 0
M  V30 3853 C 354.252 4.45303 0.249293 0
M  V30 3854 C 354.953 5.62287 -1.49024 0
M  V30 3855 N 353.929 5.37571 -0.807377 0
M  V30 3856 H 357.731 2.80593 -0.87436 0
M  V30 3857 H 355.245 1.51755 -0.578283 0
M  V30 3858 H 357.242 3.96008 1.30321 0
M  V30 3859 H 355.902 2.82276 1.6047 0
M  V30 3860 H 356.913 4.98849 -1.39176 0
M  V30 3861 H 353.59 4.0504 1.01237 0
M  V30 3862 H 354.98 6.29519 -2.34853 0
M  V30 3863 N 357.7 0.491464 1.49741 0
M  V30 3864 C 359.111 0.0413169 1.86654 0
M  V30 3865 C 359.462 -1.36985 1.40462 0
M  V30 3866 O 358.587 -2.01917 0.778354 0
M  V30 3867 C 359.182 0.0682023 3.38731 0
M  V30 3868 C 357.741 -0.32656 3.74981 0
M  V30 3869 C 356.888 0.444888 2.73708 0
M  V30 3870 H 359.839 0.704733 1.42194 0
M  V30 3871 H 359.86 -0.729322 3.73445 0
M  V30 3872 H 359.372 1.09539 3.72321 0
M  V30 3873 H 357.473 -1.35734 3.46997 0
M  V30 3874 H 357.586 -0.013741 4.79098 0
M  V30 3875 H 355.95 -0.104062 2.54487 0
M  V30 3876 H 356.733 1.47197 3.10142 0
M  V30 3877 N 359.178 -1.55987 0.224894 0
M  V30 3878 C 360.125 -2.20436 -0.68385 0
M  V30 3879 C 361.095 -1.16102 -1.18783 0
M  V30 3880 O 362.28 -1.4447 -1.24632 0
M  V30 3881 C 359.42 -2.89076 -1.88491 0
M  V30 3882 C 358.533 -4.08012 -1.41951 0
M  V30 3883 C 357.668 -4.64426 -2.5784 0
M  V30 3884 C 356.707 -5.75656 -2.08053 0
M  V30 3885 N 355.844 -6.26347 -3.17227 0
M  V30 3886 H 360.684 -2.97727 -0.12754 0
M  V30 3887 H 358.221 -1.47011 -0.0511978 0
M  V30 3888 H 360.179 -3.27059 -2.59014 0
M  V30 3889 H 358.809 -2.14298 -2.41405 0
M  V30 3890 H 357.861 -3.75492 -0.609095 0
M  V30 3891 H 359.173 -4.88375 -1.01447 0
M  V30 3892 H 358.327 -5.04869 -3.3644 0
M  V30 3893 H 357.066 -3.83233 -3.01635 0
M  V30 3894 H 356.071 -5.34712 -1.27916 0
M  V30 3895 H 357.296 -6.58686 -1.65255 0
M  V30 3896 H 355.242 -5.48067 -3.60497 0
M  V30 3897 H 355.159 -7.01843 -2.80986 0
M  V30 3898 H 356.427 -6.71447 -3.95953 0
M  V30 3899 N 360.656 0.0484629 -1.57525 0
M  V30 3900 C 361.619 1.03956 -2.04269 0
M  V30 3901 C 362.619 1.30211 -0.943496 0
M  V30 3902 O 363.809 1.25539 -1.20771 0
M  V30 3903 C 360.941 2.37742 -2.44319 0
M  V30 3904 H 362.134 0.636182 -2.93075 0
M  V30 3905 H 359.687 0.294811 -1.53494 0
M  V30 3906 H 360.422 2.82866 -1.5861 0
M  V30 3907 H 360.207 2.20021 -3.24551 0
M  V30 3908 H 361.697 3.08936 -2.80978 0
M  V30 3909 N 362.134 1.5431 0.320358 0
M  V30 3910 C 363.097 1.83195 1.3774 0
M  V30 3911 C 364.097 0.703906 1.44575 0
M  V30 3912 O 365.287 0.972214 1.44546 0
M  V30 3913 C 362.419 1.99487 2.76438 0
M  V30 3914 H 363.612 2.77642 1.1338 0
M  V30 3915 H 361.165 1.46076 0.556012 0
M  V30 3916 H 361.9 1.07262 3.06048 0
M  V30 3917 H 361.685 2.81575 2.7287 0
M  V30 3918 H 363.175 2.23271 3.52902 0
M  V30 3919 N 363.613 -0.582584 1.46437 0
M  V30 3920 C 364.523 -1.71949 1.59595 0
M  V30 3921 C 365.539 -1.67264 0.479443 0
M  V30 3922 O 366.715 -1.87171 0.743579 0
M  V30 3923 C 363.78 -3.08452 1.58298 0
M  V30 3924 C 362.841 -3.244 2.81182 0
M  V30 3925 C 362.074 -4.54391 2.79937 0
M  V30 3926 O 362.297 -5.38287 1.8869 0
M  V30 3927 O 361.231 -4.73588 3.71481 0
M  V30 3928 H 365.057 -1.63795 2.55744 0
M  V30 3929 H 362.642 -0.749643 1.29231 0
M  V30 3930 H 364.524 -3.89732 1.60271 0
M  V30 3931 H 363.199 -3.17043 0.653094 0
M  V30 3932 H 362.106 -2.42613 2.84763 0
M  V30 3933 H 363.439 -3.20699 3.7338 0
M  V30 3934 N 365.091 -1.34144 -0.827227 0
M  V30 3935 C 366.368 -1.16844 -1.56865 0
M  V30 3936 C 366.748 0.260654 -2.09485 0
M  V30 3937 O 366.096 1.26138 -1.9053 0
M  V30 3938 C 366.306 -2.21939 -2.6934 0
M  V30 3939 C 367.654 -2.56695 -3.3822 0
M  V30 3940 O 368.678 -2.20695 -2.79593 0
M  V30 3941 O 367.537 -3.18518 -4.44082 0
M  V30 3942 H 364.631 -0.452669 -0.692112 0
M  V30 3943 H 367.177 -1.45763 -0.868973 0
M  V30 3944 H 365.949 -3.17882 -2.28182 0
M  V30 3945 H 365.572 -1.94172 -3.46962 0
M  V30 3946 N 366.569 1.04691 -1.17803 0
M  V30 3947 C 367.985 1.29963 -0.926379 0
M  V30 3948 C 368.185 1.97251 0.411635 0
M  V30 3949 O 367.241 2.24922 1.14744 0
M  V30 3950 C 368.554 2.16447 -2.08737 0
M  V30 3951 C 370.102 2.29814 -2.12496 0
M  V30 3952 C 370.577 3.19661 -3.27995 0
M  V30 3953 N 372.068 3.27247 -3.27816 0
M  V30 3954 C 372.803 3.96906 -4.13827 0
M  V30 3955 N 372.299 4.6895 -5.09959 0
M  V30 3956 N 374.092 3.93122 -4.01761 0
M  V30 3957 H 366.243 0.594182 -2.0392 0
M  V30 3958 H 368.506 0.324649 -0.890678 0
M  V30 3959 H 368.212 1.74304 -3.05469 0
M  V30 3960 H 368.086 3.17103 -2.04268 0
M  V30 3961 H 370.473 2.71196 -1.16347 0
M  V30 3962 H 370.554 1.2877 -2.21025 0
M  V30 3963 H 370.198 2.78991 -4.24413 0
M  V30 3964 H 370.128 4.20722 -3.16703 0
M  V30 3965 H 372.619 2.75921 -2.58217 0
M  V30 3966 H 372.932 5.19679 -5.71974 0
M  V30 3967 H 371.277 4.67875 -5.13924 0
M  V30 3968 H 374.468 3.35967 -3.2595 0
M  V30 3969 H 374.641 4.47139 -4.6901 0
M  V30 3970 N 368.047 0.979072 1.23499 0
M  V30 3971 C 368.994 0.517904 2.24914 0
M  V30 3972 C 369.964 -0.442525 1.60097 0
M  V30 3973 O 371.149 -0.350365 1.87556 0
M  V30 3974 C 368.289 -0.174813 3.44657 0
M  V30 3975 C 367.402 0.825721 4.24035 0
M  V30 3976 C 366.537 0.107946 5.3109 0
M  V30 3977 C 365.576 1.09778 6.02175 0
M  V30 3978 N 364.713 0.40925 7.00906 0
M  V30 3979 H 369.553 1.38751 2.63727 0
M  V30 3980 H 367.09 0.695303 1.2963 0
M  V30 3981 H 369.048 -0.593233 4.12961 0
M  V30 3982 H 367.678 -1.0083 3.06648 0
M  V30 3983 H 366.73 1.36253 3.55161 0
M  V30 3984 H 368.042 1.58005 4.73113 0
M  V30 3985 H 367.196 -0.367904 6.05583 0
M  V30 3986 H 365.935 -0.678994 4.8295 0
M  V30 3987 H 364.94 1.5844 5.26476 0
M  V30 3988 H 366.165 1.88536 6.52404 0
M  V30 3989 H 364.111 -0.358506 6.5502 0
M  V30 3990 H 364.028 1.10226 7.47921 0
M  V30 3991 H 365.296 -0.0442557 7.79487 0
M  V30 3992 N 369.525 -1.3858 0.750561 0
M  V30 3993 C 370.473 -2.32339 0.110162 0
M  V30 3994 C 371.467 -1.53864 -0.708674 0
M  V30 3995 O 372.673 -1.69417 -0.608112 0
M  V30 3996 H 369.048 -0.751812 0.0168275 0
M  V30 3997 H 371.019 -2.83959 0.917053 0
M  V30 3998 C 369.768 -3.39043 -0.771067 0
M  V30 3999 H 369.091 -3.99517 -0.150374 0
M  V30 4000 H 370.531 -4.07061 -1.1865 0
M  V30 4001 C 368.99 -2.77365 -1.91234 0
M  V30 4002 O 369.52 -2.66434 -3.00626 0
M  V30 4003 N 367.726 -2.35219 -1.70646 0
M  V30 4004 H 367.273 -2.4431 -0.81673 0
M  V30 4005 H 367.231 -1.94294 -2.47178 0
M  V30 4006 N 371.003 -0.499398 -1.49478 0
M  V30 4007 C 372.231 0.0425456 -2.06856 0
M  V30 4008 C 372.646 1.30964 -1.35992 0
M  V30 4009 O 372.003 1.77172 -0.437762 0
M  V30 4010 C 372.054 0.301735 -3.60239 0
M  V30 4011 O 371.775 -0.915127 -4.28436 0
M  V30 4012 C 373.276 0.887499 -4.34325 0
M  V30 4013 H 370.496 -0.0197482 -0.670709 0
M  V30 4014 H 373.04 -0.696297 -1.92281 0
M  V30 4015 H 371.195 0.990556 -3.74522 0
M  V30 4016 H 371.609 -0.676993 -5.20113 0
M  V30 4017 H 373.083 1.01845 -5.42523 0
M  V30 4018 H 373.56 1.88488 -3.96698 0
M  V30 4019 H 374.166 0.236196 -4.24644 0
M  V30 4020 N 372.481 1.55866 -0.233164 0
M  V30 4021 C 373.727 1.98897 0.395959 0
M  V30 4022 C 374.06 1.12091 1.58585 0
M  V30 4023 O 373.335 0.181182 1.93654 0
M  V30 4024 C 373.618 3.50658 0.819224 0
M  V30 4025 C 373.471 4.48233 -0.375109 0
M  V30 4026 C 374.79 4.07135 1.67121 0
M  V30 4027 H 371.909 0.723102 0.142451 0
M  V30 4028 H 374.551 1.87082 -0.331725 0
M  V30 4029 H 372.701 3.60857 1.43925 0
M  V30 4030 H 374.373 4.50031 -1.01341 0
M  V30 4031 H 372.616 4.21624 -1.02058 0
M  V30 4032 H 373.287 5.51988 -0.0358328 0
M  V30 4033 H 375.763 3.99952 1.14795 0
M  V30 4034 H 374.639 5.13615 1.93625 0
M  V30 4035 H 374.9 3.54736 2.63846 0
M  V30 4036 N 373.959 -0.0401083 1.57549 0
M  V30 4037 C 374.889 -1.04384 2.08869 0
M  V30 4038 C 375.87 -1.38407 0.988817 0
M  V30 4039 O 377.055 -1.47483 1.26342 0
M  V30 4040 C 374.185 -2.34808 2.55895 0
M  V30 4041 C 373.139 -2.15057 3.70047 0
M  V30 4042 C 372.465 -3.51145 4.03239 0
M  V30 4043 C 373.765 -1.54576 4.98902 0
M  V30 4044 H 375.459 -0.616666 2.92981 0
M  V30 4045 H 373.005 -0.295184 1.40942 0
M  V30 4046 H 374.958 -3.05346 2.90417 0
M  V30 4047 H 373.682 -2.79565 1.68853 0
M  V30 4048 H 372.341 -1.46954 3.35857 0
M  V30 4049 H 371.989 -3.93529 3.13279 0
M  V30 4050 H 371.689 -3.38758 4.80122 0
M  V30 4051 H 373.213 -4.23062 4.40285 0
M  V30 4052 H 374.627 -2.15017 5.31451 0
M  V30 4053 H 373.024 -1.52796 5.80322 0
M  V30 4054 H 374.094 -0.51039 4.82206 0
M  V30 4055 N 375.437 -1.54477 -0.31217 0
M  V30 4056 C 376.667 -1.76948 -1.06645 0
M  V30 4057 C 377.075 -0.523593 -1.81811 0
M  V30 4058 O 376.418 0.51578 -1.76311 0
M  V30 4059 C 376.48 -2.91668 -2.10166 0
M  V30 4060 C 376.144 -4.30165 -1.54296 0
M  V30 4061 C 377.141 -5.10603 -0.978793 0
M  V30 4062 C 374.826 -4.76738 -1.58196 0
M  V30 4063 C 376.82 -6.3573 -0.461048 0
M  V30 4064 C 374.507 -6.01831 -1.06034 0
M  V30 4065 C 375.505 -6.81161 -0.500844 0
M  V30 4066 O 375.193 -8.03899 0.0128958 0
M  V30 4067 H 374.925 -0.594088 -0.322546 0
M  V30 4068 H 377.479 -2.02213 -0.360441 0
M  V30 4069 H 375.709 -2.62001 -2.84416 0
M  V30 4070 H 377.398 -3.01817 -2.71406 0
M  V30 4071 H 378.164 -4.75771 -0.941651 0
M  V30 4072 H 374.043 -4.15027 -2.00683 0
M  V30 4073 H 377.587 -6.97596 -0.0236894 0
M  V30 4074 H 373.484 -6.36152 -1.09459 0
M  V30 4075 H 374.252 -8.18437 -0.101457 0
M  V30 4076 N 376.915 0.57481 -1.46744 0
M  V30 4077 C 377.845 1.69337 -1.60771 0
M  V30 4078 C 378.826 1.63825 -0.457736 0
M  V30 4079 O 380.011 1.8172 -0.684947 0
M  V30 4080 C 377.141 3.0798 -1.60517 0
M  V30 4081 C 376.095 3.28327 -2.74564 0
M  V30 4082 C 375.421 4.67578 -2.59373 0
M  V30 4083 C 376.721 3.15398 -4.16319 0
M  V30 4084 H 378.415 1.57853 -2.54407 0
M  V30 4085 H 375.961 0.75799 -1.22436 0
M  V30 4086 H 377.914 3.86061 -1.68923 0
M  V30 4087 H 376.638 3.20381 -0.634305 0
M  V30 4088 H 375.297 2.52649 -2.65639 0
M  V30 4089 H 374.945 4.76755 -1.60353 0
M  V30 4090 H 374.645 4.82144 -3.35873 0
M  V30 4091 H 376.169 5.47817 -2.69682 0
M  V30 4092 H 377.583 3.83315 -4.26313 0
M  V30 4093 H 375.98 3.41482 -4.93468 0
M  V30 4094 H 377.05 2.12372 -4.3592 0
M  V30 4095 N 378.394 1.34581 0.820102 0
M  V30 4096 C 379.327 1.20735 1.93644 0
M  V30 4097 C 380.305 0.0983343 1.62302 0
M  V30 4098 O 381.489 0.263997 1.86642 0
M  V30 4099 C 378.616 0.856037 3.27704 0
M  V30 4100 C 377.662 1.97521 3.78005 0
M  V30 4101 S 378.495 3.58906 3.97425 0
M  V30 4102 C 379.651 3.25822 5.34407 0
M  V30 4103 H 379.884 2.15231 2.05093 0
M  V30 4104 H 377.417 1.1964 0.97599 0
M  V30 4105 H 379.375 0.660133 4.05157 0
M  V30 4106 H 378.036 -0.0706253 3.14021 0
M  V30 4107 H 377.229 1.68321 4.75062 0
M  V30 4108 H 376.831 2.12875 3.07507 0
M  V30 4109 H 379.123 2.77812 6.17922 0
M  V30 4110 H 380.066 4.22029 5.68592 0
M  V30 4111 H 380.474 2.61932 5.00052 0
M  V30 4112 N 379.872 -1.04064 1.18357 0
M  V30 4113 C 380.822 -2.10393 0.878561 0
M  V30 4114 C 381.806 -1.60183 -0.151713 0
M  V30 4115 O 382.998 -1.76923 0.0523303 0
M  V30 4116 C 380.127 -3.4089 0.406096 0
M  V30 4117 C 379.213 -3.97866 1.46844 0
M  V30 4118 N 379.604 -4.28657 2.68489 0
M  V30 4119 C 377.902 -4.2574 1.32896 0
M  V30 4120 C 378.603 -4.74253 3.36836 0
M  V30 4121 N 377.579 -4.75068 2.64219 0
M  V30 4122 H 381.381 -2.32076 1.80327 0
M  V30 4123 H 378.895 -1.21818 1.07397 0
M  V30 4124 H 380.892 -4.16557 0.169088 0
M  V30 4125 H 379.552 -3.20633 -0.512275 0
M  V30 4126 H 380.563 -4.18304 3.05356 0
M  V30 4127 H 377.24 -4.1481 0.473134 0
M  V30 4128 H 378.63 -5.07096 4.40798 0
M  V30 4129 N 381.35 -0.985608 -1.22978 0
M  V30 4130 C 382.58 -0.674603 -1.95276 0
M  V30 4131 C 382.988 0.763483 -1.73111 0
M  V30 4132 O 382.331 1.52601 -1.02268 0
M  V30 4133 C 382.393 -0.891597 -3.48268 0
M  V30 4134 C 382.057 -2.31275 -3.94158 0
M  V30 4135 C 383.054 -3.29179 -4.02415 0
M  V30 4136 C 380.739 -2.64524 -4.27004 0
M  V30 4137 C 382.733 -4.58407 -4.42879 0
M  V30 4138 C 380.42 -3.93974 -4.67149 0
M  V30 4139 C 381.418 -4.90727 -4.75053 0
M  V30 4140 O 381.106 -6.17865 -5.14294 0
M  V30 4141 H 380.838 -0.249251 -0.628371 0
M  V30 4142 H 383.392 -1.32106 -1.5728 0
M  V30 4143 H 381.622 -0.187962 -3.86243 0
M  V30 4144 H 383.311 -0.576957 -4.01779 0
M  V30 4145 H 384.077 -3.04823 -3.77237 0
M  V30 4146 H 379.956 -1.89923 -4.2006 0
M  V30 4147 H 383.5 -5.33926 -4.48964 0
M  V30 4148 H 379.397 -4.18122 -4.91777 0
M  V30 4149 H 380.165 -6.21694 -5.32389 0
M  V30 4150 N 382.828 1.3818 -0.7579 0
M  V30 4151 C 383.778 2.27741 -0.108674 0
M  V30 4152 C 384.762 1.45415 0.688709 0
M  V30 4153 O 385.954 1.68108 0.553956 0
M  V30 4154 C 383.083 3.34313 0.780367 0
M  V30 4155 C 382.169 4.24093 -0.0240977 0
M  V30 4156 N 382.56 4.9451 -1.06271 0
M  V30 4157 C 380.858 4.45542 0.202049 0
M  V30 4158 C 381.559 5.60675 -1.54979 0
M  V30 4159 N 380.535 5.36684 -0.864348 0
M  V30 4160 H 384.337 2.79649 -0.904071 0
M  V30 4161 H 381.851 1.51133 -0.594346 0
M  V30 4162 H 383.848 3.97368 1.26114 0
M  V30 4163 H 382.508 2.83962 1.57467 0
M  V30 4164 H 383.519 4.97345 -1.44459 0
M  V30 4165 H 380.196 4.06091 0.96935 0
M  V30 4166 H 381.586 6.26992 -2.41517 0
M  V30 4167 N 384.306 0.507319 1.49211 0
M  V30 4168 C 385.253 -0.267728 2.29242 0
M  V30 4169 C 386.223 -0.954609 1.35928 0
M  V30 4170 O 387.408 -0.960046 1.64887 0
M  V30 4171 C 384.548 -1.32243 3.18756 0
M  V30 4172 C 383.661 -0.64669 4.27132 0
M  V30 4173 C 382.796 -1.68238 5.03855 0
M  V30 4174 C 381.835 -0.98885 6.0406 0
M  V30 4175 N 380.972 -1.96903 6.73924 0
M  V30 4176 H 385.812 0.420968 2.95012 0
M  V30 4177 H 383.349 0.219443 1.45454 0
M  V30 4178 H 385.307 -1.94599 3.69036 0
M  V30 4179 H 383.937 -1.97981 2.54958 0
M  V30 4180 H 382.989 0.0902926 3.80293 0
M  V30 4181 H 384.301 -0.101058 4.98698 0
M  V30 4182 H 383.455 -2.38081 5.58034 0
M  V30 4183 H 382.194 -2.26187 4.32077 0
M  V30 4184 H 381.199 -0.276222 5.49106 0
M  V30 4185 H 382.424 -0.415767 6.77826 0
M  V30 4186 H 380.37 -2.53803 6.04913 0
M  V30 4187 H 380.287 -1.47423 7.41487 0
M  V30 4188 H 381.555 -2.66015 7.32705 0
M  V30 4189 N 385.784 -1.5574 0.241426 0
M  V30 4190 C 387.2 -1.59196 -0.113548 0
M  V30 4191 C 387.4 -1.25852 -1.57364 0
M  V30 4192 O 386.456 -1.00322 -2.31715 0
M  V30 4193 C 387.769 -2.99814 0.230695 0
M  V30 4194 C 389.317 -3.12513 0.174547 0
M  V30 4195 C 389.792 -4.55342 0.492744 0
M  V30 4196 N 391.283 -4.61076 0.443043 0
M  V30 4197 C 392.018 -5.6956 0.662484 0
M  V30 4198 N 391.514 -6.86328 0.944761 0
M  V30 4199 N 393.307 -5.58957 0.593564 0
M  V30 4200 H 385.458 -1.75685 1.19368 0
M  V30 4201 H 387.721 -0.81756 0.479896 0
M  V30 4202 H 387.427 -3.28932 1.24485 0
M  V30 4203 H 387.301 -3.74568 -0.444833 0
M  V30 4204 H 389.688 -2.83179 -0.830277 0
M  V30 4205 H 389.769 -2.40045 0.883845 0
M  V30 4206 H 389.413 -4.85396 1.4951 0
M  V30 4207 H 389.343 -5.26062 -0.23797 0
M  V30 4208 H 391.834 -3.77179 0.233374 0
M  V30 4209 H 392.147 -7.64935 1.09977 0
M  V30 4210 H 390.492 -6.88025 0.982175 0
M  V30 4211 H 393.683 -4.66611 0.373123 0
M  V30 4212 H 393.856 -6.43433 0.767981 0
M  V30 4213 N 387.262 0.0317525 -1.57568 0
M  V30 4214 C 388.511 0.722131 -1.8833 0
M  V30 4215 C 388.824 1.76664 -0.839587 0
M  V30 4216 O 390.03 2.50942 -1.03635 0
M  V30 4217 C 388.486 1.33544 -3.34207 0
M  V30 4218 C 388.094 0.327415 -4.46802 0
M  V30 4219 C 389.838 2.00585 -3.7412 0
M  V30 4220 C 387.745 0.948915 -5.83738 0
M  V30 4221 H 386.675 0.273466 -0.702661 0
M  V30 4222 H 389.326 -0.0235811 -1.83485 0
M  V30 4223 H 387.708 2.13077 -3.33788 0
M  V30 4224 H 388.882 -0.441006 -4.58685 0
M  V30 4225 H 387.197 -0.240758 -4.15703 0
M  V30 4226 H 389.794 2.47932 -4.73744 0
M  V30 4227 H 390.137 2.82285 -3.05975 0
M  V30 4228 H 390.67 1.27831 -3.76702 0
M  V30 4229 H 387.409 0.171387 -6.55276 0
M  V30 4230 H 386.929 1.68724 -5.7558 0
M  V30 4231 H 388.608 1.45705 -6.3038 0
M  V30 4232 N 388.74 1.54641 0.303973 0
M  V30 4233 C 389.968 1.77768 1.05858 0
M  V30 4234 C 390.383 0.535722 1.8104 0
M  V30 4235 O 389.74 -0.494337 1.75677 0
M  V30 4236 C 389.791 2.9834 2.04146 0
M  V30 4237 O 389.512 4.17736 1.32015 0
M  V30 4238 C 391.013 3.33832 2.91669 0
M  V30 4239 H 388.233 0.592961 0.314067 0
M  V30 4240 H 390.777 2.01583 0.344149 0
M  V30 4241 H 388.932 2.76742 2.71096 0
M  V30 4242 H 389.346 4.85693 1.97998 0
M  V30 4243 H 390.82 4.21448 3.56491 0
M  V30 4244 H 391.297 2.51857 3.59812 0
M  V30 4245 H 391.903 3.57579 2.30254 0
M  V30 4246 N 390.218 -0.567019 1.47046 0
M  V30 4247 C 391.495 -1.3276 1.43646 0
M  V30 4248 C 391.875 -2.1071 0.128186 0
M  V30 4249 O 391.223 -2.10441 -0.890326 0
M  V30 4250 C 391.433 -2.2404 2.67595 0
M  V30 4251 C 392.781 -2.85372 3.14401 0
M  V30 4252 O 393.805 -2.34346 2.68254 0
M  V30 4253 O 392.664 -3.78091 3.946 0
M  V30 4254 H 389.758 -0.597293 0.571988 0
M  V30 4255 H 392.304 -0.586735 1.59234 0
M  V30 4256 H 391.076 -1.65975 3.54356 0
M  V30 4257 H 390.699 -3.05439 2.54544 0
M  V30 4258 N 391.696 -1.35014 -0.812953 0
M  V30 4259 C 392.643 -1.27412 -1.92444 0
M  V30 4260 C 393.613 -0.14733 -1.65445 0
M  V30 4261 O 394.798 -0.329974 -1.87925 0
M  V30 4262 C 391.938 -1.04558 -3.28879 0
M  V30 4263 C 391.051 -2.26101 -3.68106 0
M  V30 4264 C 390.186 -1.96449 -4.9354 0
M  V30 4265 C 389.225 -3.14081 -5.25376 0
M  V30 4266 N 388.362 -2.84246 -6.41988 0
M  V30 4267 H 393.202 -2.22463 -1.98278 0
M  V30 4268 H 390.739 -1.10593 -0.969933 0
M  V30 4269 H 392.697 -0.893413 -4.07522 0
M  V30 4270 H 391.327 -0.131719 -3.22531 0
M  V30 4271 H 390.379 -2.52204 -2.84775 0
M  V30 4272 H 391.691 -3.13959 -3.87597 0
M  V30 4273 H 390.845 -1.78026 -5.79993 0
M  V30 4274 H 389.584 -1.05867 -4.76071 0
M  V30 4275 H 388.589 -3.33089 -4.37415 0
M  V30 4276 H 389.814 -4.05455 -5.44778 0
M  V30 4277 H 387.76 -1.96252 -6.25956 0
M  V30 4278 H 387.677 -3.65637 -6.61699 0
M  V30 4279 H 388.945 -2.6935 -7.31485 0
M  V30 4280 N 393.175 1.03435 -1.18907 0
M  V30 4281 C 394.107 2.1165 -0.879595 0
M  V30 4282 C 395.12 1.62316 0.125439 0
M  V30 4283 O 396.309 1.78201 -0.103245 0
M  V30 4284 C 393.409 3.37622 -0.294042 0
M  V30 4285 C 392.582 4.16166 -1.34629 0
M  V30 4286 C 391.641 5.20457 -0.775274 0
M  V30 4287 O 390.667 5.50379 -1.4516 0
M  V30 4288 N 391.869 5.78949 0.424126 0
M  V30 4289 H 394.634 2.38791 -1.81105 0
M  V30 4290 H 392.195 1.19681 -1.09032 0
M  V30 4291 H 394.187 4.04572 0.101679 0
M  V30 4292 H 392.757 3.07873 0.541575 0
M  V30 4293 H 391.977 3.44444 -1.91707 0
M  V30 4294 H 393.265 4.65432 -2.05549 0
M  V30 4295 H 392.663 5.56948 0.991209 0
M  V30 4296 H 391.22 6.47334 0.761691 0
M  V30 4297 N 394.653 0.992116 1.22453 0
M  V30 4298 C 395.899 0.678177 1.91761 0
M  V30 4299 C 396.254 -0.781141 1.75829 0
M  V30 4300 O 395.547 -1.55747 1.11595 0
M  V30 4301 C 395.741 1.01832 3.42586 0
M  V30 4302 C 395.57 2.50916 3.73191 0
M  V30 4303 C 394.34 3.17308 3.93248 0
M  V30 4304 C 396.538 3.49032 3.77732 0
M  V30 4305 N 394.52 4.55876 4.11157 0
M  V30 4306 C 395.891 4.73055 4.00773 0
M  V30 4307 C 397.946 3.43349 3.60577 0
M  V30 4308 C 396.649 5.92089 4.0844 0
M  V30 4309 C 398.675 4.61759 3.69503 0
M  V30 4310 C 398.037 5.84582 3.92993 0
M  V30 4311 H 394.136 0.299425 0.722405 0
M  V30 4312 H 396.72 1.27197 1.47408 0
M  V30 4313 H 394.891 0.453118 3.85748 0
M  V30 4314 H 396.623 0.660454 3.99274 0
M  V30 4315 H 393.378 2.67778 3.9063 0
M  V30 4316 H 393.802 5.27748 4.24042 0
M  V30 4317 H 398.444 2.49408 3.41402 0
M  V30 4318 H 396.162 6.86435 4.26418 0
M  V30 4319 H 399.748 4.58951 3.57569 0
M  V30 4320 H 398.628 6.74676 3.99728 0
M  V30 4321 N 396.131 -1.37776 0.765217 0
M  V30 4322 C 397.041 -2.34135 0.147666 0
M  V30 4323 C 398.057 -1.59854 -0.687215 0
M  V30 4324 O 399.233 -1.91983 -0.608659 0
M  V30 4325 C 396.298 -3.3901 -0.72617 0
M  V30 4326 C 395.359 -4.2912 0.124417 0
M  V30 4327 C 394.592 -5.28986 -0.707807 0
M  V30 4328 O 394.815 -5.36205 -1.94525 0
M  V30 4329 O 393.749 -6.01779 -0.12046 0
M  V30 4330 H 397.575 -2.88664 0.943758 0
M  V30 4331 H 395.16 -1.39824 0.526277 0
M  V30 4332 H 397.042 -4.03195 -1.22524 0
M  V30 4333 H 395.717 -2.86819 -1.50056 0
M  V30 4334 H 394.624 -3.68057 0.669696 0
M  V30 4335 H 395.957 -4.84598 0.861736 0
M  V30 4336 N 397.609 -0.515225 -1.4894 0
M  V30 4337 C 398.886 0.0879088 -1.95402 0
M  V30 4338 C 399.266 1.52745 -1.45712 0
M  V30 4339 O 398.614 2.18238 -0.677093 0
M  V30 4340 C 398.824 -0.0141055 -3.48997 0
M  V30 4341 C 400.172 0.152646 -4.24326 0
M  V30 4342 O 401.196 0.0604025 -3.56149 0
M  V30 4343 O 400.055 0.34384 -5.45417 0
M  V30 4344 H 397.149 0.0874636 -0.822362 0
M  V30 4345 H 399.695 -0.578775 -1.59525 0
M  V30 4346 H 398.467 -1.01745 -3.77841 0
M  V30 4347 H 398.09 0.692091 -3.9153 0
M  V30 4348 N 399.087 1.5561 -0.249682 0
M  V30 4349 C 400.05 2.20217 0.635394 0
M  V30 4350 C 401.05 1.17227 1.10066 0
M  V30 4351 O 402.24 1.42292 1.00492 0
M  V30 4352 C 399.372 2.84794 1.87363 0
M  V30 4353 H 400.565 2.99814 0.0716752 0
M  V30 4354 H 398.118 1.563 -0.000153234 0
M  V30 4355 H 398.853 2.09142 2.47851 0
M  V30 4356 H 398.638 3.60241 1.5482 0
M  V30 4357 H 400.128 3.3423 2.5036 0
M  V30 4358 N 400.565 -0.0233959 1.57583 0
M  V30 4359 C 401.512 -1.02224 2.06927 0
M  V30 4360 C 402.482 -1.35575 0.959617 0
M  V30 4361 O 403.667 -1.45815 1.23055 0
M  V30 4362 C 400.807 -2.31636 2.5581 0
M  V30 4363 C 399.92 -2.04394 3.80588 0
M  V30 4364 C 399.055 -3.27717 4.18061 0
M  V30 4365 C 398.094 -2.96056 5.3574 0
M  V30 4366 N 397.231 -4.11847 5.68618 0
M  V30 4367 H 402.071 -0.594504 2.9201 0
M  V30 4368 H 399.608 -0.281921 1.44373 0
M  V30 4369 H 401.566 -3.07258 2.82221 0
M  V30 4370 H 400.196 -2.72122 1.73636 0
M  V30 4371 H 399.248 -1.19244 3.61227 0
M  V30 4372 H 400.56 -1.77042 4.66323 0
M  V30 4373 H 399.714 -4.11702 4.4563 0
M  V30 4374 H 398.453 -3.58188 3.30988 0
M  V30 4375 H 397.458 -2.10474 5.07918 0
M  V30 4376 H 398.683 -2.66857 6.24471 0
M  V30 4377 H 396.629 -4.42258 4.84504 0
M  V30 4378 H 396.546 -3.87938 6.48876 0
M  V30 4379 H 397.814 -4.96689 6.00766 0
M  V30 4380 N 402.043 -1.548 -0.295768 0
M  V30 4381 C 402.99 -1.86113 -1.36494 0
M  V30 4382 C 403.96 -0.7105 -1.50137 0
M  V30 4383 O 405.145 -0.959626 -1.64912 0
M  V30 4384 C 402.285 -2.11861 -2.72413 0
M  V30 4385 C 401.398 -3.39471 -2.67177 0
M  V30 4386 C 400.533 -3.55035 -3.95125 0
M  V30 4387 C 399.572 -4.76418 -3.84308 0
M  V30 4388 N 398.709 -4.8876 -5.04042 0
M  V30 4389 H 403.549 -2.77314 -1.09091 0
M  V30 4390 H 401.086 -1.37315 -0.52753 0
M  V30 4391 H 403.044 -2.24786 -3.51464 0
M  V30 4392 H 401.674 -1.2392 -2.98066 0
M  V30 4393 H 400.726 -3.35139 -1.79962 0
M  V30 4394 H 402.038 -4.28646 -2.55076 0
M  V30 4395 H 401.192 -3.67653 -4.82614 0
M  V30 4396 H 399.931 -2.64002 -4.10066 0
M  V30 4397 H 398.936 -4.63827 -2.95202 0
M  V30 4398 H 400.161 -5.68863 -3.70906 0
M  V30 4399 H 398.107 -4.00652 -5.19436 0
M  V30 4400 H 398.024 -5.71945 -4.94384 0
M  V30 4401 H 399.292 -5.0574 -5.93167 0
M  V30 4402 N 403.521 0.559213 -1.47345 0
M  V30 4403 C 404.77 1.31281 -1.53128 0
M  V30 4404 C 405.083 1.94602 -0.197344 0
M  V30 4405 O 406.289 2.71173 -0.133154 0
M  V30 4406 C 404.745 2.38051 -2.69925 0
M  V30 4407 C 404.353 1.8093 -4.0984 0
M  V30 4408 C 406.097 3.14604 -2.84999 0
M  V30 4409 C 404.004 2.85468 -5.1794 0
M  V30 4410 H 402.934 0.493614 -0.569966 0
M  V30 4411 H 405.585 0.594155 -1.73615 0
M  V30 4412 H 403.967 3.12822 -2.42814 0
M  V30 4413 H 405.141 1.12544 -4.46845 0
M  V30 4414 H 403.456 1.16967 -3.99634 0
M  V30 4415 H 406.053 3.92666 -3.62929 0
M  V30 4416 H 406.396 3.68665 -1.93369 0
M  V30 4417 H 406.929 2.46945 -3.1187 0
M  V30 4418 H 403.668 2.36264 -6.1144 0
M  V30 4419 H 403.188 3.52269 -4.85455 0
M  V30 4420 H 404.867 3.48996 -5.44803 0
M  V30 4421 N 404.999 1.35443 0.805782 0
M  V30 4422 C 406.276 1.19325 1.54987 0
M  V30 4423 C 406.656 -0.227294 2.09873 0
M  V30 4424 O 406.004 -1.2309 1.92512 0
M  V30 4425 C 406.214 2.26196 2.65775 0
M  V30 4426 C 407.562 2.62043 3.34094 0
M  V30 4427 O 408.586 2.25115 2.76046 0
M  V30 4428 O 407.445 3.25542 4.38958 0
M  V30 4429 H 404.539 0.463623 0.684823 0
M  V30 4430 H 407.085 1.47127 0.845674 0
M  V30 4431 H 405.857 3.21471 2.23096 0
M  V30 4432 H 405.48 1.99667 3.43829 0
M  V30 4433 N 406.477 -1.02803 1.19454 0
M  V30 4434 C 407.407 -2.12999 0.956758 0
M  V30 4435 C 408.388 -1.69743 -0.110188 0
M  V30 4436 O 409.573 -1.94148 0.0450038 0
M  V30 4437 C 406.703 -3.43746 0.495553 0
M  V30 4438 C 405.657 -4.00688 1.50443 0
M  V30 4439 C 404.983 -5.27067 0.900275 0
M  V30 4440 C 406.283 -4.35397 2.8849 0
M  V30 4441 H 407.977 -2.33148 1.87836 0
M  V30 4442 H 405.523 -1.12045 0.904539 0
M  V30 4443 H 407.476 -4.2021 0.316493 0
M  V30 4444 H 406.2 -3.23321 -0.461646 0
M  V30 4445 H 404.859 -3.2632 1.67065 0
M  V30 4446 H 404.507 -5.02959 -0.064503 0
M  V30 4447 H 404.207 -5.66127 1.57397 0
M  V30 4448 H 405.731 -6.06196 0.73203 0
M  V30 4449 H 407.145 -5.02795 2.75446 0
M  V30 4450 H 405.542 -4.85541 3.52661 0
M  V30 4451 H 406.612 -3.44662 3.41081 0
M  V30 4452 N 407.956 -0.998596 -1.21925 0
M  V30 4453 C 408.903 -0.553621 -2.24062 0
M  V30 4454 C 409.873 0.416999 -1.6078 0
M  V30 4455 O 411.058 0.320482 -1.88089 0
M  V30 4456 C 408.198 0.119959 -3.44891 0
M  V30 4457 C 407.311 -0.893077 -4.22668 0
M  V30 4458 C 406.446 -0.192424 -5.30851 0
M  V30 4459 C 405.485 -1.19344 -6.00353 0
M  V30 4460 N 404.622 -0.520707 -7.00166 0
M  V30 4461 H 409.462 -1.4293 -2.61486 0
M  V30 4462 H 406.999 -0.715838 -1.28507 0
M  V30 4463 H 408.957 0.527459 -4.13852 0
M  V30 4464 H 407.587 0.959389 -3.08214 0
M  V30 4465 H 406.639 -1.41886 -3.52948 0
M  V30 4466 H 407.951 -1.65512 -4.70539 0
M  V30 4467 H 407.105 0.271515 -6.06092 0
M  V30 4468 H 405.844 0.602075 -4.83969 0
M  V30 4469 H 404.849 -1.66795 -5.23889 0
M  V30 4470 H 406.074 -1.98891 -6.49322 0
M  V30 4471 H 404.02 0.254252 -6.55507 0
M  V30 4472 H 403.937 -1.2211 -7.46073 0
M  V30 4473 H 405.205 -0.0797596 -7.79459 0
M  V30 4474 N 409.434 1.37368 -0.772513 0
M  V30 4475 C 410.397 2.28601 -0.165541 0
M  V30 4476 C 411.397 1.48062 0.627238 0
M  V30 4477 O 412.587 1.68268 0.450715 0
M  V30 4478 C 409.719 3.32023 0.772897 0
M  V30 4479 H 410.912 2.83787 -0.969787 0
M  V30 4480 H 408.465 1.46647 -0.540775 0
M  V30 4481 H 409.2 2.81962 1.60212 0
M  V30 4482 H 408.985 3.91555 0.206585 0
M  V30 4483 H 410.475 4.00197 1.19298 0
M  V30 4484 N 410.912 0.523116 1.48665 0
M  V30 4485 C 411.86 -0.256859 2.31177 0
M  V30 4486 C 412.854 -0.94199 1.40794 0
M  V30 4487 O 414.06 -0.867157 1.57735 0
M  V30 4488 H 410.435 -0.1017 0.745091 0
M  V30 4489 H 412.406 0.458739 2.94853 0
M  V30 4490 C 411.155 -1.29503 3.22683 0
M  V30 4491 H 410.478 -0.777248 3.92172 0
M  V30 4492 H 411.918 -1.81233 3.83315 0
M  V30 4493 C 410.377 -2.32501 2.43813 0
M  V30 4494 O 410.907 -3.3881 2.15803 0
M  V30 4495 N 409.113 -2.05538 2.05432 0
M  V30 4496 H 408.66 -1.19104 2.28412 0
M  V30 4497 H 408.618 -2.74676 1.52973 0
M  V30 4498 N 412.39 -1.55475 0.257931 0
M  V30 4499 C 413.32 -2.24815 -0.630912 0
M  V30 4500 C 414.301 -1.23224 -1.17259 0
M  V30 4501 O 415.486 -1.51904 -1.20991 0
M  V30 4502 C 412.616 -2.95609 -1.82298 0
M  V30 4503 C 411.57 -4.03982 -1.41359 0
M  V30 4504 C 410.896 -4.6226 -2.68738 0
M  V30 4505 C 412.196 -5.19109 -0.57648 0
M  V30 4506 H 413.89 -2.99354 -0.0526878 0
M  V30 4507 H 411.436 -1.4398 -0.023901 0
M  V30 4508 H 413.389 -3.42822 -2.45054 0
M  V30 4509 H 412.113 -2.18577 -2.42676 0
M  V30 4510 H 410.772 -3.57555 -0.809324 0
M  V30 4511 H 410.42 -3.81915 -3.27338 0
M  V30 4512 H 410.12 -5.35424 -2.42065 0
M  V30 4513 H 411.644 -5.12212 -3.32372 0
M  V30 4514 H 413.058 -5.62479 -1.10861 0
M  V30 4515 H 411.455 -5.98729 -0.405351 0
M  V30 4516 H 412.525 -4.83174 0.408776 0
M  V30 4517 N 413.868 0.0150385 -1.57593 0
M  V30 4518 C 415.114 0.704043 -1.90187 0
M  V30 4519 C 415.447 1.74249 -0.857366 0
M  V30 4520 O 414.722 1.94092 0.125843 0
M  V30 4521 C 415.005 1.36087 -3.33395 0
M  V30 4522 C 414.858 0.334981 -4.48551 0
M  V30 4523 C 416.177 2.29112 -3.7576 0
M  V30 4524 H 413.296 0.254475 -0.691673 0
M  V30 4525 H 415.938 -0.0331678 -1.89971 0
M  V30 4526 H 414.088 1.98922 -3.3371 0
M  V30 4527 H 415.76 -0.292534 -4.60372 0
M  V30 4528 H 414.003 -0.344325 -4.32431 0
M  V30 4529 H 414.674 0.833316 -5.45674 0
M  V30 4530 H 417.15 1.76308 -3.76902 0
M  V30 4531 H 416.026 2.72043 -4.76743 0
M  V30 4532 H 416.287 3.16385 -3.08793 0
M  V30 4533 N 415.346 1.54954 0.287554 0
M  V30 4534 C 416.294 1.87606 1.37502 0
M  V30 4535 C 417.288 0.751001 1.51843 0
M  V30 4536 O 418.494 0.935169 1.53801 0
M  V30 4537 H 414.869 0.595231 0.459569 0
M  V30 4538 H 416.84 2.78477 1.07206 0
M  V30 4539 C 415.589 2.15183 2.73115 0
M  V30 4540 H 414.912 3.01234 2.62866 0
M  V30 4541 H 416.352 2.4196 3.48183 0
M  V30 4542 C 414.811 0.954686 3.2309 0
M  V30 4543 O 415.341 0.181949 4.01288 0
M  V30 4544 N 413.547 0.756368 2.80584 0
M  V30 4545 H 413.094 1.38643 2.17108 0
M  V30 4546 H 413.052 -0.0430391 3.14371 0
M  V30 4547 N 416.824 -0.551391 1.4764 0
M  V30 4548 C 418.24 -0.877887 1.33287 0
M  V30 4549 C 418.44 -1.98817 0.327721 0
M  V30 4550 O 417.496 -2.51171 -0.258695 0
M  V30 4551 C 418.809 -1.26563 2.72768 0
M  V30 4552 C 420.357 -1.37673 2.81097 0
M  V30 4553 C 420.832 -1.79799 4.21232 0
M  V30 4554 N 422.323 -1.8694 4.23802 0
M  V30 4555 C 423.058 -2.20876 5.29151 0
M  V30 4556 N 422.554 -2.53386 6.448 0
M  V30 4557 N 424.347 -2.217 5.16532 0
M  V30 4558 H 416.498 0.18153 2.11623 0
M  V30 4559 H 418.761 0.0185514 0.947818 0
M  V30 4560 H 418.467 -0.523591 3.47781 0
M  V30 4561 H 418.341 -2.22052 3.04915 0
M  V30 4562 H 420.728 -2.10956 2.06353 0
M  V30 4563 H 420.809 -0.40357 2.52596 0
M  V30 4564 H 420.453 -1.07083 4.96483 0
M  V30 4565 H 420.383 -2.78128 4.4716 0
M  V30 4566 H 422.874 -1.64179 3.40373 0
M  V30 4567 H 423.187 -2.78325 7.20941 0
M  V30 4568 H 421.532 -2.50953 6.48111 0
M  V30 4569 H 424.723 -1.95745 4.25207 0
M  V30 4570 H 424.896 -2.47818 5.98741 0
M  V30 4571 N 418.302 -1.35869 -0.798587 0
M  V30 4572 C 419.53 -1.32722 -1.58722 0
M  V30 4573 C 419.945 0.0935631 -1.88568 0
M  V30 4574 O 419.302 1.04784 -1.49421 0
M  V30 4575 C 419.353 -2.13974 -2.91371 0
M  V30 4576 O 419.074 -3.50514 -2.62815 0
M  V30 4577 C 420.575 -2.18504 -3.85708 0
M  V30 4578 H 417.795 -0.45562 -0.492596 0
M  V30 4579 H 420.339 -1.78837 -0.991843 0
M  V30 4580 H 418.494 -1.71438 -3.47402 0
M  V30 4581 H 418.908 -3.92806 -3.47568 0
M  V30 4582 H 420.382 -2.79732 -4.75872 0
M  V30 4583 H 420.859 -1.18597 -4.22885 0
M  V30 4584 H 421.465 -2.61236 -3.35612 0
M  V30 4585 N 419.78 1.02168 -1.19998 0
M  V30 4586 C 421.191 1.57135 -1.00825 0
M  V30 4587 C 421.542 1.91276 0.436818 0
M  V30 4588 O 420.667 1.71679 1.3174 0
M  V30 4589 C 421.262 2.85514 -1.82393 0
M  V30 4590 C 419.821 3.37027 -1.67601 0
M  V30 4591 C 418.968 2.10388 -1.80644 0
M  V30 4592 H 421.919 0.846106 -1.34264 0
M  V30 4593 H 421.94 3.56711 -1.32429 0
M  V30 4594 H 421.452 2.60634 -2.87561 0
M  V30 4595 H 419.553 3.66878 -0.650485 0
M  V30 4596 H 419.666 4.09572 -2.4857 0
M  V30 4597 H 418.03 2.22601 -1.23778 0
M  V30 4598 H 418.813 1.8794 -2.87286 0
M  V30 4599 N 421.258 1.00505 1.21394 0
M  V30 4600 C 422.168 0.574806 2.27449 0
M  V30 4601 C 423.184 -0.382206 1.6975 0
M  V30 4602 O 424.36 -0.246027 1.99892 0
M  V30 4603 C 421.425 -0.0917414 3.46579 0
M  V30 4604 C 420.486 0.909758 4.1955 0
M  V30 4605 C 419.719 0.274924 5.32991 0
M  V30 4606 O 419.942 -0.928254 5.62796 0
M  V30 4607 O 418.876 0.985877 5.93771 0
M  V30 4608 H 422.702 1.45744 2.66444 0
M  V30 4609 H 420.287 0.773923 1.27792 0
M  V30 4610 H 422.169 -0.464551 4.18832 0
M  V30 4611 H 420.844 -0.948755 3.09484 0
M  V30 4612 H 419.751 1.33372 3.49518 0
M  V30 4613 H 421.084 1.73636 4.60555 0
M  V30 4614 N 422.737 -1.36956 0.779787 0
M  V30 4615 C 423.647 -2.33965 0.172491 0
M  V30 4616 C 424.663 -1.60574 -0.670222 0
M  V30 4617 O 425.839 -1.92617 -0.588263 0
M  V30 4618 C 422.904 -3.39761 -0.690173 0
M  V30 4619 C 421.965 -4.28964 0.169924 0
M  V30 4620 C 421.198 -5.29707 -0.651662 0
M  V30 4621 O 421.421 -5.38238 -1.88827 0
M  V30 4622 O 420.355 -6.01873 -0.0566264 0
M  V30 4623 H 424.181 -2.87647 0.974321 0
M  V30 4624 H 421.766 -1.39258 0.541078 0
M  V30 4625 H 423.648 -4.04471 -1.1824 0
M  V30 4626 H 422.323 -2.88394 -1.47006 0
M  V30 4627 H 421.23 -3.67326 0.708696 0
M  V30 4628 H 422.563 -4.83656 0.913085 0
M  V30 4629 N 424.215 -0.530993 -1.48385 0
M  V30 4630 C 425.631 -0.188919 -1.58478 0
M  V30 4631 C 425.831 1.30786 -1.53288 0
M  V30 4632 O 424.887 2.08619 -1.42248 0
M  V30 4633 C 426.2 -0.792343 -2.90073 0
M  V30 4634 C 427.748 -0.76117 -3.03604 0
M  V30 4635 C 428.223 -1.34319 -4.37861 0
M  V30 4636 N 429.714 -1.3052 -4.44431 0
M  V30 4637 C 430.449 -1.72543 -5.46824 0
M  V30 4638 N 429.945 -2.22299 -6.56167 0
M  V30 4639 N 431.738 -1.63773 -5.37712 0
M  V30 4640 H 423.889 -1.50377 -1.50002 0
M  V30 4641 H 426.152 -0.625559 -0.712306 0
M  V30 4642 H 425.858 -1.84323 -2.99529 0
M  V30 4643 H 425.732 -0.270026 -3.76232 0
M  V30 4644 H 428.119 0.280957 -2.93759 0
M  V30 4645 H 428.2 -1.32097 -2.19053 0
M  V30 4646 H 427.844 -2.38425 -4.4846 0
M  V30 4647 H 427.774 -0.759064 -5.21101 0
M  V30 4648 H 430.265 -0.940973 -3.65997 0
M  V30 4649 H 430.578 -2.52356 -7.30436 0
M  V30 4650 H 428.923 -2.26293 -6.57127 0
M  V30 4651 H 432.114 -1.24698 -4.51185 0
M  V30 4652 H 432.287 -1.96844 -6.17379 0
M  V30 4653 N 425.693 1.55336 -0.266172 0
M  V30 4654 C 426.625 2.19544 0.658247 0
M  V30 4655 C 427.638 1.17746 1.12427 0
M  V30 4656 O 428.827 1.44517 1.04772 0
M  V30 4657 C 425.927 2.80032 1.9088 0
M  V30 4658 C 425.1 4.07436 1.59106 0
M  V30 4659 C 424.159 4.52056 2.69317 0
M  V30 4660 O 423.185 5.18023 2.35883 0
M  V30 4661 N 424.387 4.21448 3.99201 0
M  V30 4662 H 427.152 2.99503 0.108754 0
M  V30 4663 H 424.713 1.61667 -0.0869059 0
M  V30 4664 H 426.705 3.06831 2.63888 0
M  V30 4665 H 425.275 2.04119 2.36758 0
M  V30 4666 H 424.495 3.88021 0.695243 0
M  V30 4667 H 425.783 4.90462 1.35367 0
M  V30 4668 H 425.181 3.68528 4.29189 0
M  V30 4669 H 423.738 4.53039 4.68614 0
M  V30 4670 N 427.171 -0.0066808 1.57599 0
M  V30 4671 C 428.119 -1.01851 2.09115 0
M  V30 4672 C 429.113 -1.36021 1.00969 0
M  V30 4673 O 430.319 -1.34663 1.19439 0
M  V30 4674 H 426.694 -0.346083 0.667631 0
M  V30 4675 H 428.665 -0.558394 2.93129 0
M  V30 4676 C 427.414 -2.30374 2.60429 0
M  V30 4677 H 426.737 -2.04947 3.43273 0
M  V30 4678 H 428.177 -2.99466 3.00161 0
M  V30 4679 C 426.636 -3.00893 1.51542 0
M  V30 4680 O 427.166 -3.91614 0.894484 0
M  V30 4681 N 425.372 -2.62603 1.2445 0
M  V30 4682 H 424.919 -1.88911 1.75129 0
M  V30 4683 H 424.877 -3.10101 0.518137 0
M  V30 4684 N 428.649 -1.55105 -0.279332 0
M  V30 4685 C 429.898 -1.74618 -1.00952 0
M  V30 4686 C 430.211 -0.551096 -1.87676 0
M  V30 4687 O 431.417 -0.628507 -2.64125 0
M  V30 4688 C 429.873 -3.09025 -1.84476 0
M  V30 4689 C 429.481 -4.36081 -1.0265 0
M  V30 4690 C 431.225 -3.37891 -2.56963 0
M  V30 4691 C 429.132 -5.6153 -1.85576 0
M  V30 4692 H 428.062 -0.650868 -0.38064 0
M  V30 4693 H 430.713 -1.81569 -0.265475 0
M  V30 4694 H 429.095 -2.96095 -2.62952 0
M  V30 4695 H 430.269 -4.59909 -0.286354 0
M  V30 4696 H 428.584 -4.14312 -0.416464 0
M  V30 4697 H 431.181 -4.28822 -3.19399 0
M  V30 4698 H 431.524 -2.57737 -3.26921 0
M  V30 4699 H 432.057 -3.5189 -1.85522 0
M  V30 4700 H 428.796 -6.44413 -1.2005 0
M  V30 4701 H 428.316 -5.41854 -2.57204 0
M  V30 4702 H 429.995 -5.99594 -2.43096 0
M  V30 4703 N 430.127 0.543554 -1.4793 0
M  V30 4704 C 431.404 1.30458 -1.4574 0
M  V30 4705 C 431.784 2.1048 -0.161692 0
M  V30 4706 O 431.132 2.11831 0.856734 0
M  V30 4707 C 431.342 2.19754 -2.71126 0
M  V30 4708 C 432.69 2.80334 -3.18901 0
M  V30 4709 O 433.714 2.30049 -2.71948 0
M  V30 4710 O 432.573 3.71766 -4.00565 0
M  V30 4711 H 429.667 0.588117 -0.581418 0
M  V30 4712 H 432.213 0.561328 -1.60147 0
M  V30 4713 H 430.985 1.60316 -3.56952 0
M  V30 4714 H 430.608 3.01351 -2.59371 0
M  V30 4715 N 431.605 1.3629 0.791371 0
M  V30 4716 C 432.833 1.33562 1.58016 0
M  V30 4717 C 433.248 -0.0835616 1.88615 0
M  V30 4718 O 432.605 -1.0399 1.49974 0
M  V30 4719 C 432.656 2.15517 2.90232 0
M  V30 4720 O 432.377 3.51902 2.60953 0
M  V30 4721 C 433.878 2.20546 3.84544 0
M  V30 4722 H 431.098 0.458226 0.490173 0
M  V30 4723 H 433.642 1.79361 0.982345 0
M  V30 4724 H 431.797 1.73278 3.46487 0
M  V30 4725 H 432.211 3.94644 3.4548 0
M  V30 4726 H 433.685 2.82252 4.74382 0
M  V30 4727 H 434.162 1.20838 4.2225 0
M  V30 4728 H 434.768 2.63013 3.34222 0
M  V30 4729 N 433.083 -1.0153 1.20538 0
M  V30 4730 C 434.031 -2.12215 0.952235 0
M  V30 4731 C 435.025 -1.69123 -0.0968735 0
M  V30 4732 O 436.231 -1.7992 0.0536006 0
M  V30 4733 H 432.606 -0.693576 0.290613 0
M  V30 4734 H 434.577 -2.3075 1.89201 0
M  V30 4735 C 433.326 -3.43755 0.522287 0
M  V30 4736 H 432.649 -3.7734 1.32115 0
M  V30 4737 H 434.089 -4.22254 0.384389 0
M  V30 4738 C 432.548 -3.28088 -0.765489 0
M  V30 4739 O 433.078 -3.57921 -1.8236 0
M  V30 4740 N 431.284 -2.81333 -0.728011 0
M  V30 4741 H 430.831 -2.57255 0.133332 0
M  V30 4742 H 430.789 -2.71232 -1.58999 0
M  V30 4743 N 434.561 -1.01147 -1.20859 0
M  V30 4744 C 435.493 -0.535546 -2.22855 0
M  V30 4745 C 436.506 0.379323 -1.58319 0
M  V30 4746 O 437.695 0.178489 -1.77605 0
M  V30 4747 C 434.795 0.240962 -3.38042 0
M  V30 4748 C 433.968 -0.674562 -4.32167 0
M  V30 4749 C 433.027 0.053467 -5.26173 0
M  V30 4750 O 432.053 -0.567339 -5.66366 0
M  V30 4751 N 433.255 1.32997 -5.65059 0
M  V30 4752 H 436.02 -1.41268 -2.64317 0
M  V30 4753 H 433.581 -0.888386 -1.35349 0
M  V30 4754 H 435.573 0.737115 -3.97931 0
M  V30 4755 H 434.143 1.01935 -2.95513 0
M  V30 4756 H 433.363 -1.35111 -3.70322 0
M  V30 4757 H 434.651 -1.2974 -4.91981 0
M  V30 4758 H 434.049 1.85536 -5.34409 0
M  V30 4759 H 432.606 1.77095 -6.2728 0
M  V30 4760 N 436.039 1.36541 -0.78704 0
M  V30 4761 C 437.316 1.9355 -0.282424 0
M  V30 4762 C 437.696 1.71919 1.22503 0
M  V30 4763 O 437.044 1.07677 2.01539 0
M  V30 4764 C 437.254 3.4246 -0.672462 0
M  V30 4765 C 438.602 4.19582 -0.650863 0
M  V30 4766 O 439.626 3.50889 -0.612789 0
M  V30 4767 O 438.485 5.42106 -0.691623 0
M  V30 4768 H 435.579 0.824091 -0.0693 0
M  V30 4769 H 438.125 1.45736 -0.869423 0
M  V30 4770 H 436.897 3.51851 -1.71221 0
M  V30 4771 H 436.52 3.97556 -0.0592211 0
M  V30 4772 N 437.518 0.538854 1.48102 0
M  V30 4773 C 438.743 0.0102694 2.07397 0
M  V30 4774 C 439.168 -1.26562 1.39153 0
M  V30 4775 O 438.526 -1.75357 0.460387 0
M  V30 4776 C 438.574 -0.187602 3.60112 0
M  V30 4777 O 437.678 -1.25432 3.92862 0
M  V30 4778 H 437.019 0.0430975 0.6626 0
M  V30 4779 H 439.549 0.749301 1.90385 0
M  V30 4780 H 439.559 -0.407517 4.0596 0
M  V30 4781 H 438.234 0.744386 4.09184 0
M  V30 4782 H 436.811 -1.01636 3.58782 0
M  V30 4783 N 438.996 -1.55193 0.274407 0
M  V30 4784 C 439.906 -2.26164 -0.623473 0
M  V30 4785 C 440.922 -1.28729 -1.17068 0
M  V30 4786 O 442.098 -1.61663 -1.20112 0
M  V30 4787 C 439.163 -2.96833 -1.7914 0
M  V30 4788 C 438.224 -4.09745 -1.28093 0
M  V30 4789 C 437.457 -4.77034 -2.3932 0
M  V30 4790 O 437.68 -4.4353 -3.5866 0
M  V30 4791 O 436.614 -5.64996 -2.07516 0
M  V30 4792 H 440.44 -3.03661 -0.0485661 0
M  V30 4793 H 438.025 -1.49341 0.0418382 0
M  V30 4794 H 439.907 -3.41248 -2.4724 0
M  V30 4795 H 438.582 -2.22253 -2.35341 0
M  V30 4796 H 437.489 -3.69787 -0.566416 0
M  V30 4797 H 438.822 -4.86224 -0.764683 0
M  V30 4798 N 440.474 -0.00167713 -1.576 0
M  V30 4799 C 441.704 0.692754 -1.94639 0
M  V30 4800 C 442.112 1.67744 -0.87513 0
M  V30 4801 O 441.455 1.8305 0.154382 0
M  V30 4802 C 441.517 1.47881 -3.27676 0
M  V30 4803 C 441.181 0.655518 -4.52274 0
M  V30 4804 C 442.178 -0.0575214 -5.19868 0
M  V30 4805 C 439.863 0.600994 -4.98692 0
M  V30 4806 C 441.857 -0.814052 -6.3218 0
M  V30 4807 C 439.544 -0.15926 -6.10892 0
M  V30 4808 C 440.542 -0.865515 -6.77494 0
M  V30 4809 O 440.23 -1.61336 -7.87544 0
M  V30 4810 H 439.962 0.197792 -0.646417 0
M  V30 4811 H 442.516 -0.049423 -2.05341 0
M  V30 4812 H 440.746 2.2655 -3.13388 0
M  V30 4813 H 442.435 2.05874 -3.49816 0
M  V30 4814 H 443.201 -0.0245611 -4.84994 0
M  V30 4815 H 439.08 1.14025 -4.46676 0
M  V30 4816 H 442.624 -1.36584 -6.84098 0
M  V30 4817 H 438.521 -0.194035 -6.45208 0
M  V30 4818 H 439.289 -1.53025 -8.04068 0
M  V30 4819 N 441.952 1.55251 0.271103 0
M  V30 4820 C 442.9 1.89054 1.35504 0
M  V30 4821 C 443.894 0.767064 1.51038 0
M  V30 4822 O 445.1 0.951429 1.528 0
M  V30 4823 H 441.475 0.600072 0.45323 0
M  V30 4824 H 443.446 2.79598 1.04247 0
M  V30 4825 C 442.195 2.18068 2.70817 0
M  V30 4826 H 441.518 3.04005 2.59656 0
M  V30 4827 H 442.958 2.4564 3.45597 0
M  V30 4828 C 441.417 0.988901 3.2206 0
M  V30 4829 O 441.947 0.224501 4.01072 0
M  V30 4830 N 440.153 0.786085 2.79766 0
M  V30 4831 H 439.7 1.40937 2.15626 0
M  V30 4832 H 439.658 -0.00969349 3.14399 0
M  V30 4833 N 443.43 -0.535701 1.48216 0
M  V30 4834 C 444.655 -1.32149 1.59848 0
M  V30 4835 C 445.08 -1.86338 0.256842 0
M  V30 4836 O 444.438 -1.64107 -0.770632 0
M  V30 4837 C 444.486 -2.45224 2.64381 0
M  V30 4838 O 443.59 -3.48093 2.21144 0
M  V30 4839 H 442.931 -0.391634 0.536208 0
M  V30 4840 H 445.461 -0.645202 1.94161 0
M  V30 4841 H 445.471 -2.91491 2.85476 0
M  V30 4842 H 444.146 -2.05143 3.61786 0
M  V30 4843 H 442.723 -3.07984 2.10239 0
M  V30 4844 N 444.908 -1.36708 -0.784132 0
M  V30 4845 C 446.138 -1.34203 -1.57077 0
M  V30 4846 C 446.546 0.0774945 -1.89041 0
M  V30 4847 O 445.889 1.04628 -1.50992 0
M  V30 4848 C 445.951 -2.10351 -2.91535 0
M  V30 4849 C 445.615 -3.59405 -2.82272 0
M  V30 4850 C 446.612 -4.53545 -2.54151 0
M  V30 4851 C 444.297 -4.02362 -3.00683 0
M  V30 4852 C 446.291 -5.8862 -2.44551 0
M  V30 4853 C 443.978 -5.37526 -2.90704 0
M  V30 4854 C 444.976 -6.30468 -2.62677 0
M  V30 4855 O 444.664 -7.63149 -2.52702 0
M  V30 4856 H 444.396 -0.461791 -0.493685 0
M  V30 4857 H 446.95 -1.80475 -0.980712 0
M  V30 4858 H 445.18 -1.5875 -3.52612 0
M  V30 4859 H 446.869 -2.00636 -3.52845 0
M  V30 4860 H 447.635 -4.21669 -2.39625 0
M  V30 4861 H 443.514 -3.30389 -3.21503 0
M  V30 4862 H 447.058 -6.61133 -2.22596 0
M  V30 4863 H 442.955 -5.69008 -3.04795 0
M  V30 4864 H 443.723 -7.73331 -2.68144 0
M  V30 4865 N 446.386 1.0089 -1.21074 0
M  V30 4866 C 447.632 1.74866 -1.02712 0
M  V30 4867 C 447.965 1.89178 0.438787 0
M  V30 4868 O 447.24 1.42325 1.32567 0
M  V30 4869 C 447.523 3.16347 -1.72036 0
M  V30 4870 C 447.376 3.09782 -3.26121 0
M  V30 4871 C 448.695 4.15187 -1.45973 0
M  V30 4872 H 445.814 0.634736 -0.374539 0
M  V30 4873 H 448.456 1.17646 -1.49196 0
M  V30 4874 H 446.606 3.65201 -1.32517 0
M  V30 4875 H 448.278 2.68673 -3.74983 0
M  V30 4876 H 446.521 2.46982 -3.56626 0
M  V30 4877 H 447.192 4.09829 -3.6979 0
M  V30 4878 H 449.668 3.75022 -1.80272 0
M  V30 4879 H 448.544 5.12331 -1.96999 0
M  V30 4880 H 448.805 4.40386 -0.388924 0
M  V30 4881 N 447.864 1.01787 1.20321 0
M  V30 4882 C 448.812 0.58254 2.25187 0
M  V30 4883 C 449.806 -0.379359 1.65098 0
M  V30 4884 O 451.012 -0.249142 1.78267 0
M  V30 4885 H 447.387 0.170078 0.732514 0
M  V30 4886 H 449.358 1.47788 2.59232 0
M  V30 4887 C 448.107 -0.0620885 3.47645 0
M  V30 4888 H 447.43 0.669069 3.94162 0
M  V30 4889 H 448.87 -0.329784 4.22716 0
M  V30 4890 C 447.329 -1.3053 3.10586 0
M  V30 4891 O 447.859 -2.39848 3.22236 0
M  V30 4892 N 446.065 -1.18988 2.65123 0
M  V30 4893 H 445.612 -0.300341 2.55843 0
M  V30 4894 H 445.57 -2.02267 2.40698 0
M  V30 4895 N 449.342 -1.36122 0.79427 0
M  V30 4896 C 450.589 -1.99111 0.368905 0
M  V30 4897 C 450.917 -1.63032 -1.0607 0
M  V30 4898 O 450.172 -0.879303 -1.74833 0
M  V30 4899 C 450.471 -3.5409 0.48527 0
M  V30 4900 C 450.137 -4.10003 1.87638 0
M  V30 4901 C 448.799 -4.24986 2.257 0
M  V30 4902 C 451.151 -4.40423 2.78706 0
M  V30 4903 C 448.479 -4.67701 3.54221 0
M  V30 4904 C 450.831 -4.84573 4.0666 0
M  V30 4905 C 449.495 -4.97761 4.44737 0
M  V30 4906 H 448.765 -0.7286 0.134992 0
M  V30 4907 H 451.412 -1.62534 1.01267 0
M  V30 4908 H 449.717 -3.91052 -0.241984 0
M  V30 4909 H 451.414 -4.00766 0.137109 0
M  V30 4910 H 448.004 -3.98784 1.57064 0
M  V30 4911 H 452.188 -4.28412 2.50553 0
M  V30 4912 H 447.444 -4.761 3.83587 0
M  V30 4913 H 451.618 -5.07074 4.77336 0
M  V30 4914 H 449.245 -5.30618 5.44379 0
M  V30 4915 N 450.82 -0.546701 -1.47814 0
M  V30 4916 C 452.066 -0.0187684 -2.02791 0
M  V30 4917 C 452.399 1.32338 -1.42128 0
M  V30 4918 O 451.674 1.85867 -0.573023 0
M  V30 4919 C 451.957 0.0854985 -3.59998 0
M  V30 4920 C 451.81 -1.283 -4.31114 0
M  V30 4921 C 453.129 0.80412 -4.32691 0
M  V30 4922 H 450.248 -0.0082946 -0.736953 0
M  V30 4923 H 452.89 -0.706962 -1.76358 0
M  V30 4924 H 451.04 0.671609 -3.82651 0
M  V30 4925 H 452.712 -1.91151 -4.19832 0
M  V30 4926 H 450.955 -1.86049 -3.91878 0
M  V30 4927 H 451.626 -1.16287 -5.39612 0
M  V30 4928 H 454.102 0.306576 -4.14969 0
M  V30 4929 H 452.978 0.846011 -5.42341 0
M  V30 4930 H 453.239 1.85802 -4.01161 0
M  V30 4931 N 452.299 1.55045 -0.282633 0
M  V30 4932 C 453.246 2.22822 0.601566 0
M  V30 4933 C 454.216 1.20431 1.14392 0
M  V30 4934 O 455.401 1.48996 1.19184 0
M  V30 4935 C 452.541 2.95873 1.77632 0
M  V30 4936 C 451.654 4.12999 1.26711 0
M  V30 4937 C 450.789 4.73676 2.40426 0
M  V30 4938 C 449.828 5.82981 1.86545 0
M  V30 4939 N 448.965 6.3769 2.93762 0
M  V30 4940 H 453.805 2.97995 0.0169528 0
M  V30 4941 H 451.342 1.471 -0.00339964 0
M  V30 4942 H 453.3 3.36447 2.46697 0
M  V30 4943 H 451.93 2.2311 2.33285 0
M  V30 4944 H 450.982 3.77494 0.469314 0
M  V30 4945 H 452.294 4.91803 0.832518 0
M  V30 4946 H 451.448 5.17008 3.17471 0
M  V30 4947 H 450.187 3.94164 2.87203 0
M  V30 4948 H 449.192 5.39092 1.07983 0
M  V30 4949 H 450.417 6.64366 1.40694 0
M  V30 4950 H 448.363 5.61069 3.39908 0
M  V30 4951 H 448.28 7.11788 2.54744 0
M  V30 4952 H 449.548 6.8568 3.7076 0
M  V30 4953 N 453.777 0.010035 1.57597 0
M  V30 4954 C 455.002 -0.687021 1.95691 0
M  V30 4955 C 455.427 -1.65952 0.885519 0
M  V30 4956 O 454.785 -1.80633 -0.15543 0
M  V30 4957 C 454.833 -1.3864 3.32884 0
M  V30 4958 O 453.937 -2.50115 3.27897 0
M  V30 4959 H 453.278 -0.181989 0.638573 0
M  V30 4960 H 455.808 0.0662122 2.04493 0
M  V30 4961 H 455.818 -1.74754 3.6868 0
M  V30 4962 H 454.493 -0.673411 4.10412 0
M  V30 4963 H 453.07 -2.16253 3.03791 0
M  V30 4964 N 455.255 -1.55392 -0.262866 0
M  V30 4965 C 456.165 -1.92077 -1.34698 0
M  V30 4966 C 457.181 -0.819227 -1.53508 0
M  V30 4967 O 458.357 -1.11921 -1.67439 0
M  V30 4968 C 455.422 -2.19407 -2.68443 0
M  V30 4969 C 454.483 -3.42905 -2.58292 0
M  V30 4970 C 453.716 -3.68921 -3.85659 0
M  V30 4971 O 453.939 -2.97275 -4.8681 0
M  V30 4972 O 452.873 -4.62455 -3.85252 0
M  V30 4973 H 456.699 -2.84384 -1.06581 0
M  V30 4974 H 454.284 -1.42069 -0.462264 0
M  V30 4975 H 456.166 -2.38365 -3.47506 0
M  V30 4976 H 454.841 -1.30282 -2.96325 0
M  V30 4977 H 453.748 -3.29272 -1.7757 0
M  V30 4978 H 455.081 -4.32282 -2.35358 0
M  V30 4979 N 456.733 0.527833 -1.48498 0
M  V30 4980 C 457.663 1.64136 -1.66077 0
M  V30 4981 C 458.644 1.62286 -0.509625 0
M  V30 4982 O 459.829 1.79449 -0.742413 0
M  V30 4983 C 456.959 3.02717 -1.70234 0
M  V30 4984 C 455.913 3.19426 -2.8487 0
M  V30 4985 C 455.239 4.5909 -2.74118 0
M  V30 4986 C 456.539 3.01993 -4.26142 0
M  V30 4987 H 458.233 1.4968 -2.593 0
M  V30 4988 H 455.779 0.718654 -1.24785 0
M  V30 4989 H 457.732 3.80491 -1.8112 0
M  V30 4990 H 456.456 3.18201 -0.735911 0
M  V30 4991 H 455.115 2.4407 -2.73542 0
M  V30 4992 H 454.763 4.71413 -1.7544 0
M  V30 4993 H 454.463 4.71214 -3.51042 0
M  V30 4994 H 455.987 5.3896 -2.86974 0
M  V30 4995 H 457.401 3.69558 -4.38292 0
M  V30 4996 H 455.798 3.2561 -5.04082 0
M  V30 4997 H 456.868 1.98396 -4.42456 0
M  V30 4998 N 458.211 1.37122 0.776871 0
M  V30 4999 C 459.144 1.26835 1.89705 0
M  V30 5000 C 460.122 0.14992 1.61907 0
M  V30 5001 O 461.306 0.323242 1.85708 0
M  V30 5002 C 458.433 0.95986 3.24814 0
M  V30 5003 C 457.479 2.09447 3.7153 0
M  V30 5004 S 458.312 3.71368 3.85806 0
M  V30 5005 C 459.468 3.42659 5.23771 0
M  V30 5006 H 459.701 2.21647 1.98141 0
M  V30 5007 H 457.234 1.22685 0.937433 0
M  V30 5008 H 459.192 0.788696 4.02852 0
M  V30 5009 H 457.853 0.0293137 3.14086 0
M  V30 5010 H 457.046 1.8335 4.69467 0
M  V30 5011 H 456.648 2.2255 3.00578 0
M  V30 5012 H 458.94 2.9733 6.0877 0
M  V30 5013 H 459.883 4.39905 5.54878 0
M  V30 5014 H 460.291 2.77708 4.91466 0
M  V30 5015 N 459.689 -1.00246 1.21608 0
M  V30 5016 C 460.637 -2.11193 0.97469 0
M  V30 5017 C 461.631 -1.69216 -0.0789303 0
M  V30 5018 O 462.837 -1.79853 0.0726806 0
M  V30 5019 H 459.212 -0.690455 0.297953 0
M  V30 5020 H 461.183 -2.2873 1.91638 0
M  V30 5021 C 459.932 -3.43182 0.558717 0
M  V30 5022 H 459.255 -3.75918 1.3611 0
M  V30 5023 H 460.695 -4.21823 0.429154 0
M  V30 5024 C 459.154 -3.28882 -0.730648 0
M  V30 5025 O 459.684 -3.59835 -1.78554 0
M  V30 5026 N 457.89 -2.8209 -0.698131 0
M  V30 5027 H 457.437 -2.57099 0.16061 0
M  V30 5028 H 457.395 -2.72903 -1.56113 0
M  V30 5029 N 461.167 -1.02423 -1.1978 0
M  V30 5030 C 462.115 -0.594474 -2.24875 0
M  V30 5031 C 463.109 0.370598 -1.65296 0
M  V30 5032 O 464.315 0.239684 -1.78397 0
M  V30 5033 H 460.69 -0.173961 -0.731602 0
M  V30 5034 H 462.661 -1.4916 -2.58445 0
M  V30 5035 C 461.41 0.0436512 -3.47673 0
M  V30 5036 H 460.733 -0.689963 -3.93801 0
M  V30 5037 H 462.173 0.307362 -4.22884 0
M  V30 5038 C 460.632 1.28881 -3.11274 0
M  V30 5039 O 461.162 2.38135 -3.23503 0
M  V30 5040 N 459.368 1.1758 -2.6575 0
M  V30 5041 H 458.915 0.286769 -2.55999 0
M  V30 5042 H 458.873 2.00988 -2.41767 0
M  V30 5043 N 462.645 1.35699 -0.801477 0
M  V30 5044 C 463.592 2.29876 -0.206294 0
M  V30 5045 C 464.562 1.52565 0.656752 0
M  V30 5046 O 465.747 1.81024 0.602906 0
M  V30 5047 C 462.887 3.39052 0.643272 0
M  V30 5048 C 462 4.31335 -0.239644 0
M  V30 5049 C 461.135 5.27599 0.61744 0
M  V30 5050 C 460.174 6.11521 -0.26619 0
M  V30 5051 N 459.311 6.99938 0.550571 0
M  V30 5052 H 464.151 2.80187 -1.01484 0
M  V30 5053 H 461.688 1.37902 -0.511997 0
M  V30 5054 H 463.646 4.0101 1.15094 0
M  V30 5055 H 462.276 2.9003 1.41713 0
M  V30 5056 H 461.328 3.70426 -0.865381 0
M  V30 5057 H 462.64 4.90243 -0.919985 0
M  V30 5058 H 461.794 5.94906 1.19045 0
M  V30 5059 H 460.533 4.69176 1.33137 0
M  V30 5060 H 459.538 5.43166 -0.851507 0
M  V30 5061 H 460.763 6.72022 -0.9779 0
M  V30 5062 H 458.709 6.44008 1.24856 0
M  V30 5063 H 458.626 7.55966 -0.071832 0
M  V30 5064 H 459.894 7.71599 1.10702 0
M  V30 5065 N 464.123 0.554532 1.47522 0
M  V30 5066 C 465.086 -0.184174 2.28459 0
M  V30 5067 C 466.086 -0.845195 1.36796 0
M  V30 5068 O 467.276 -0.701467 1.59452 0
M  V30 5069 C 464.408 -1.26903 3.16399 0
M  V30 5070 H 465.601 0.526751 2.95238 0
M  V30 5071 H 463.154 0.311375 1.53167 0
M  V30 5072 H 463.889 -2.01244 2.54306 0
M  V30 5073 H 463.674 -0.799883 3.83854 0
M  V30 5074 H 465.164 -1.78794 3.77389 0
M  V30 5075 N 465.601 -1.54893 0.290851 0
M  V30 5076 C 466.848 -1.99933 -0.321391 0
M  V30 5077 C 467.176 -1.17927 -1.54672 0
M  V30 5078 O 466.431 -0.240902 -1.94212 0
M  V30 5079 C 466.73 -3.49815 -0.732397 0
M  V30 5080 C 466.396 -4.4921 0.390056 0
M  V30 5081 C 465.058 -4.76107 0.698223 0
M  V30 5082 C 467.41 -5.08453 1.14562 0
M  V30 5083 C 464.738 -5.59514 1.76526 0
M  V30 5084 C 467.09 -5.9302 2.2025 0
M  V30 5085 C 465.754 -6.18232 2.51684 0
M  V30 5086 H 465.024 -0.731608 -0.117605 0
M  V30 5087 H 467.671 -1.87107 0.407839 0
M  V30 5088 H 465.976 -3.60199 -1.54155 0
M  V30 5089 H 467.673 -3.82083 -1.21712 0
M  V30 5090 H 464.263 -4.28372 0.13976 0
M  V30 5091 H 468.447 -4.87683 0.920801 0
M  V30 5092 H 463.703 -5.77289 2.01364 0
M  V30 5093 H 467.877 -6.37955 2.7926 0
M  V30 5094 H 465.504 -6.82653 3.34499 0
M  V30 5095 N 467.08 -0.0183926 -1.57589 0
M  V30 5096 C 468.027 0.967022 -2.09565 0
M  V30 5097 C 468.997 1.32983 -0.995225 0
M  V30 5098 O 470.182 1.42501 -1.26878 0
M  V30 5099 C 467.322 2.24772 -2.61861 0
M  V30 5100 C 466.435 1.94232 -3.85873 0
M  V30 5101 C 465.57 3.16518 -4.26603 0
M  V30 5102 C 464.609 2.81748 -5.43401 0
M  V30 5103 N 463.746 3.96626 -5.79338 0
M  V30 5104 H 468.586 0.516874 -2.93483 0
M  V30 5105 H 466.123 0.243544 -1.4507 0
M  V30 5106 H 468.081 2.99667 -2.90268 0
M  V30 5107 H 466.711 2.67423 -1.8079 0
M  V30 5108 H 465.763 1.09625 -3.64262 0
M  V30 5109 H 467.075 1.64616 -4.70853 0
M  V30 5110 H 466.229 3.99743 -4.56389 0
M  V30 5111 H 464.968 3.49286 -3.40368 0
M  V30 5112 H 463.973 1.96933 -5.1332 0
M  V30 5113 H 465.198 2.50207 -6.31327 0
M  V30 5114 H 463.144 4.29257 -4.96059 0
M  V30 5115 H 463.061 3.70598 -6.58933 0
M  V30 5116 H 464.329 4.80586 -6.13724 0
M  V30 5117 N 468.558 1.5553 0.254621 0
M  V30 5118 C 469.835 1.6774 1.00611 0
M  V30 5119 C 470.215 0.555993 2.03647 0
M  V30 5120 O 469.563 -0.441583 2.24193 0
M  V30 5121 C 469.773 3.07725 1.6464 0
M  V30 5122 C 471.121 3.66074 2.15116 0
M  V30 5123 O 472.145 3.10476 1.74595 0
M  V30 5124 O 471.004 4.63526 2.89493 0
M  V30 5125 H 468.098 0.681958 0.467828 0
M  V30 5126 H 470.644 1.67863 0.24902 0
M  V30 5127 H 469.416 3.80792 0.900734 0
M  V30 5128 H 469.039 3.1158 2.46989 0
M  V30 5129 N 470.036 -0.519951 1.48776 0
M  V30 5130 C 470.946 -1.65025 1.66745 0
M  V30 5131 C 471.962 -1.6508 0.549954 0
M  V30 5132 O 473.138 -1.83848 0.822295 0
M  V30 5133 C 470.203 -3.0146 1.71238 0
M  V30 5134 C 469.264 -3.12182 2.94688 0
M  V30 5135 C 468.497 -4.42109 2.98958 0
M  V30 5136 O 468.72 -5.29799 2.1135 0
M  V30 5137 O 467.654 -4.57406 3.91233 0
M  V30 5138 H 471.48 -1.52801 2.62461 0
M  V30 5139 H 469.065 -0.694157 1.32294 0
M  V30 5140 H 470.947 -3.82584 1.76657 0
M  V30 5141 H 469.622 -3.13988 0.786975 0
M  V30 5142 H 468.529 -2.30316 2.94797 0
M  V30 5143 H 469.862 -3.04574 3.86646 0
M  V30 5144 N 471.514 -1.37532 -0.769588 0
M  V30 5145 C 472.462 -1.33561 -1.90432 0
M  V30 5146 C 473.456 -0.224027 -1.67912 0
M  V30 5147 O 474.662 -0.392174 -1.75676 0
M  V30 5148 H 471.037 -0.416279 -0.626271 0
M  V30 5149 H 473.008 -2.29348 -1.90899 0
M  V30 5150 C 471.757 -1.16162 -3.27722 0
M  V30 5151 H 471.08 -2.00951 -3.45628 0
M  V30 5152 H 472.52 -1.17434 -4.07413 0
M  V30 5153 C 470.979 0.132583 -3.36639 0
M  V30 5154 O 471.509 1.11539 -3.85904 0
M  V30 5155 N 469.715 0.184013 -2.90017 0
M  V30 5156 H 469.262 -0.616415 -2.50116 0
M  V30 5157 H 469.22 1.04956 -2.96364 0
M  V30 5158 N 472.992 0.995999 -1.22138 0
M  V30 5159 C 473.922 2.10387 -1.01289 0
M  V30 5160 C 474.903 1.69975 0.0651454 0
M  V30 5161 O 476.088 1.9396 -0.0964628 0
M  V30 5162 C 473.218 3.42312 -0.586517 0
M  V30 5163 C 472.172 3.96558 -1.61014 0
M  V30 5164 C 471.498 5.24494 -1.0397 0
M  V30 5165 C 472.798 4.27595 -2.99933 0
M  V30 5166 H 474.492 2.28086 -1.93951 0
M  V30 5167 H 472.038 1.09607 -0.933928 0
M  V30 5168 H 473.991 4.19223 -0.427793 0
M  V30 5169 H 472.715 3.24431 0.375761 0
M  V30 5170 H 471.374 3.21776 -1.75658 0
M  V30 5171 H 471.022 5.02953 -0.0688703 0
M  V30 5172 H 470.722 5.61755 -1.72352 0
M  V30 5173 H 472.246 6.04042 -0.892494 0
M  V30 5174 H 473.66 4.95315 -2.8868 0
M  V30 5175 H 472.057 4.76021 -3.6541 0
M  V30 5176 H 473.127 3.35498 -3.50099 0
M  V30 5177 N 474.47 1.03057 1.19235 0
M  V30 5178 C 475.718 0.726581 1.88587 0
M  V30 5179 C 476.039 -0.747227 1.80115 0
M  V30 5180 O 475.309 -1.53849 1.21274 0
M  V30 5181 H 473.889 0.265768 0.698124 0
M  V30 5182 H 476.551 1.30516 1.44746 0
M  V30 5183 H 475.647 1.0224 2.94879 0
M  V30 5184 N 475.948 -1.35272 0.808662 0
M  V30 5185 C 476.896 -2.31663 0.208606 0
M  V30 5186 C 477.89 -1.56731 -0.642778 0
M  V30 5187 O 479.096 -1.71843 -0.53571 0
M  V30 5188 H 475.471 -0.750421 0.0486993 0
M  V30 5189 H 477.442 -2.79814 1.03666 0
M  V30 5190 C 476.191 -3.42008 -0.626573 0
M  V30 5191 H 475.514 -3.99795 0.0192103 0
M  V30 5192 H 476.954 -4.11727 -1.01278 0
M  V30 5193 C 475.413 -2.85226 -1.79298 0
M  V30 5194 O 475.943 -2.78945 -2.89055 0
M  V30 5195 N 474.149 -2.42245 -1.60516 0
M  V30 5196 H 473.696 -2.47554 -0.712375 0
M  V30 5197 H 473.654 -2.04603 -2.38715 0
M  V30 5198 N 477.426 -0.562348 -1.47226 0
M  V30 5199 C 478.672 -0.0402761 -2.0276 0
M  V30 5200 C 479.005 1.30823 -1.43523 0
M  V30 5201 O 478.28 1.85249 -0.592705 0
M  V30 5202 C 478.563 0.047311 -3.60069 0
M  V30 5203 C 478.416 -1.32865 -4.29729 0
M  V30 5204 C 479.735 0.758182 -4.3352 0
M  V30 5205 H 476.854 -0.0161105 -0.736824 0
M  V30 5206 H 479.496 -0.725628 -1.75598 0
M  V30 5207 H 477.646 0.630986 -3.83342 0
M  V30 5208 H 479.318 -1.95593 -4.17781 0
M  V30 5209 H 477.561 -1.90195 -3.89882 0
M  V30 5210 H 478.232 -1.22004 -5.38349 0
M  V30 5211 H 480.708 0.262546 -4.15271 0
M  V30 5212 H 479.584 0.78844 -5.43208 0
M  V30 5213 H 479.845 1.81537 -4.03109 0
M  V30 5214 N 478.904 1.54736 -0.299062 0
M  V30 5215 C 479.834 2.26409 0.571085 0
M  V30 5216 C 480.815 1.2629 1.13951 0
M  V30 5217 O 482 1.55059 1.16921 0
M  V30 5218 C 479.13 3.00338 1.74396 0
M  V30 5219 C 478.084 4.07588 1.30599 0
M  V30 5220 C 477.41 4.69222 2.56387 0
M  V30 5221 C 478.71 5.20455 0.438645 0
M  V30 5222 H 480.404 2.99388 -0.0266991 0
M  V30 5223 H 477.95 1.43993 -0.0142812 0
M  V30 5224 H 479.903 3.49198 2.35878 0
M  V30 5225 H 478.627 2.24934 2.36796 0
M  V30 5226 H 477.286 3.59575 0.71424 0
M  V30 5227 H 476.934 3.9046 3.17097 0
M  V30 5228 H 476.634 5.41653 2.27784 0
M  V30 5229 H 478.158 5.20844 3.18675 0
M  V30 5230 H 479.572 5.65221 0.959085 0
M  V30 5231 H 477.969 5.99594 0.246466 0
M  V30 5232 H 479.039 4.8192 -0.536738 0
M  V30 5233 N 480.382 0.0267497 1.57577 0
M  V30 5234 C 481.314 -0.984594 2.06974 0
M  V30 5235 C 482.327 -1.29032 0.992705 0
M  V30 5236 O 483.516 -1.25539 1.26895 0
M  V30 5237 C 480.616 -2.31262 2.47732 0
M  V30 5238 C 479.789 -2.1924 3.78487 0
M  V30 5239 C 478.848 -3.34956 4.05821 0
M  V30 5240 O 477.874 -3.11948 4.76106 0
M  V30 5241 N 479.076 -4.58672 3.55809 0
M  V30 5242 H 481.841 -0.563143 2.94362 0
M  V30 5243 H 479.402 -0.160061 1.61107 0
M  V30 5244 H 481.394 -3.07496 2.63112 0
M  V30 5245 H 479.964 -2.65056 1.65723 0
M  V30 5246 H 479.184 -1.27747 3.72927 0
M  V30 5247 H 480.472 -2.08409 4.64158 0
M  V30 5248 H 479.87 -4.8026 2.98942 0
M  V30 5249 H 478.427 -5.32083 3.76472 0
M  V30 5250 N 481.861 -1.55662 -0.24637 0
M  V30 5251 C 483.086 -1.81914 -0.996093 0
M  V30 5252 C 483.511 -0.603875 -1.78143 0
M  V30 5253 O 482.869 0.447091 -1.75701 0
M  V30 5254 C 482.917 -3.05908 -1.90925 0
M  V30 5255 O 482.021 -2.82861 -3.00105 0
M  V30 5256 H 481.362 -0.600481 -0.283406 0
M  V30 5257 H 483.892 -2.02848 -0.267199 0
M  V30 5258 H 483.902 -3.35356 -2.3238 0
M  V30 5259 H 482.577 -3.93999 -1.33183 0
M  V30 5260 H 481.154 -2.64583 -2.62775 0
M  V30 5261 N 483.339 0.512053 -1.4905 0
M  V30 5262 C 484.587 1.26436 -1.57665 0
M  V30 5263 C 484.908 1.93255 -0.260293 0
M  V30 5264 O 484.178 1.82206 0.719564 0
M  V30 5265 H 482.758 0.469658 -0.580888 0
M  V30 5266 H 485.42 0.594398 -1.85615 0
M  V30 5267 H 484.516 2.03417 -2.36702 0
M  V30 5268 N 484.817 1.37938 0.762283 0
M  V30 5269 C 486.066 1.32989 1.51647 0
M  V30 5270 C 486.379 -0.0802922 1.95435 0
M  V30 5271 O 487.585 -0.252295 2.70325 0
M  V30 5272 C 486.041 2.33485 2.73885 0
M  V30 5273 C 485.649 3.80079 2.37157 0
M  V30 5274 C 487.393 2.37563 3.51801 0
M  V30 5275 C 485.3 4.72283 3.55954 0
M  V30 5276 H 484.23 0.494301 0.56937 0
M  V30 5277 H 486.881 1.63448 0.834083 0
M  V30 5278 H 485.263 1.96056 3.44061 0
M  V30 5279 H 486.437 4.26398 1.74704 0
M  V30 5280 H 484.752 3.79037 1.72395 0
M  V30 5281 H 487.349 3.0365 4.40114 0
M  V30 5282 H 487.692 1.39199 3.92338 0
M  V30 5283 H 488.225 2.73747 2.8863 0
M  V30 5284 H 484.964 5.7181 3.2049 0
M  V30 5285 H 484.484 4.30663 4.1748 0
M  V30 5286 H 486.163 4.89876 4.22647 0
M  V30 5287 N 486.295 -0.989507 1.22664 0
M  V30 5288 C 487.242 -2.08024 0.999733 0
M  V30 5289 C 488.212 -1.65909 -0.0797047 0
M  V30 5290 O 489.397 -1.90669 0.0705715 0
M  V30 5291 C 486.537 -3.40067 0.587234 0
M  V30 5292 C 485.65 -3.95505 1.73781 0
M  V30 5293 C 484.785 -5.15722 1.27297 0
M  V30 5294 C 483.824 -5.63305 2.39488 0
M  V30 5295 N 482.961 -6.74758 1.94026 0
M  V30 5296 H 487.801 -2.26768 1.9334 0
M  V30 5297 H 485.338 -1.11171 0.963297 0
M  V30 5298 H 487.296 -4.15899 0.329227 0
M  V30 5299 H 485.926 -3.21314 -0.309426 0
M  V30 5300 H 484.978 -3.16513 2.11006 0
M  V30 5301 H 486.29 -4.26797 2.58158 0
M  V30 5302 H 485.444 -5.98854 0.972546 0
M  V30 5303 H 484.183 -4.86061 0.399445 0
M  V30 5304 H 483.188 -4.78759 2.70315 0
M  V30 5305 H 484.413 -5.94988 3.27362 0
M  V30 5306 H 482.359 -6.46874 1.09041 0
M  V30 5307 H 482.276 -7.05386 2.71968 0
M  V30 5308 H 483.544 -7.61387 1.67062 0
M  V30 5309 N 487.773 -1.03688 -1.18687 0
M  V30 5310 C 489.022 -0.733235 -1.879 0
M  V30 5311 C 489.335 0.741745 -1.8099 0
M  V30 5312 O 490.541 1.15875 -2.4553 0
M  V30 5313 C 488.997 -1.26127 -3.37076 0
M  V30 5314 C 488.605 -2.76461 -3.52524 0
M  V30 5315 C 490.349 -1.03398 -4.11715 0
M  V30 5316 C 488.256 -3.22642 -4.95637 0
M  V30 5317 H 487.186 -0.270584 -0.703776 0
M  V30 5318 H 489.837 -1.25222 -1.34133 0
M  V30 5319 H 488.219 -0.670165 -3.90288 0
M  V30 5320 H 489.393 -3.41296 -3.09602 0
M  V30 5321 H 487.708 -2.97559 -2.91286 0
M  V30 5322 H 490.305 -1.3542 -5.17267 0
M  V30 5323 H 490.648 0.0289246 -4.1629 0
M  V30 5324 H 491.181 -1.5895 -3.64664 0
M  V30 5325 H 487.92 -4.28296 -4.96228 0
M  V30 5326 H 487.44 -2.62539 -5.39289 0
M  V30 5327 H 489.119 -3.16444 -5.64333 0
M  V30 5328 N 489.251 1.34841 -0.815825 0
M  V30 5329 C 490.481 2.02436 -0.412695 0
M  V30 5330 C 490.889 1.61604 0.983906 0
M  V30 5331 O 490.232 0.813729 1.64694 0
M  V30 5332 C 490.294 3.56953 -0.427182 0
M  V30 5333 C 489.958 4.21083 -1.77589 0
M  V30 5334 C 490.955 4.42107 -2.73564 0
M  V30 5335 C 488.64 4.58006 -2.06243 0
M  V30 5336 C 490.634 4.99169 -3.9637 0
M  V30 5337 C 488.321 5.1478 -3.2931 0
M  V30 5338 C 489.319 5.35304 -4.24191 0
M  V30 5339 O 489.007 5.90878 -5.45086 0
M  V30 5340 H 488.739 0.655631 -0.164695 0
M  V30 5341 H 491.293 1.73246 -1.1034 0
M  V30 5342 H 489.523 3.85372 0.320175 0
M  V30 5343 H 491.212 4.05875 -0.0450875 0
M  V30 5344 H 491.978 4.13953 -2.52721 0
M  V30 5345 H 487.857 4.41339 -1.33196 0
M  V30 5346 H 491.401 5.15105 -4.70439 0
M  V30 5347 H 487.298 5.42362 -3.5002 0
M  V30 5348 H 488.066 6.0932 -5.46508 0
M  V30 5349 N 490.729 0.570148 1.46925 0
M  V30 5350 C 491.957 0.0561966 2.06824 0
M  V30 5351 C 492.372 -1.24326 1.42086 0
M  V30 5352 O 491.729 -1.74882 0.521794 0
M  V30 5353 C 491.78 -0.129517 3.61268 0
M  V30 5354 O 491.501 1.1185 4.23581 0
M  V30 5355 C 493.002 -0.679266 4.38065 0
M  V30 5356 H 490.222 0.0517261 0.669003 0
M  V30 5357 H 492.766 0.787243 1.8874 0
M  V30 5358 H 490.921 -0.810739 3.78822 0
M  V30 5359 H 491.335 0.924375 5.1629 0
M  V30 5360 H 492.809 -0.758445 5.46765 0
M  V30 5361 H 493.286 -1.69346 4.05239 0
M  V30 5362 H 493.892 -0.0333237 4.25287 0
M  V30 5363 N 492.207 -1.54576 0.307264 0
M  V30 5364 C 493.155 -2.25208 -0.581723 0
M  V30 5365 C 494.149 -1.26031 -1.13192 0
M  V30 5366 O 495.355 -1.43862 -1.08184 0
M  V30 5367 H 491.73 -0.723173 -0.206214 0
M  V30 5368 H 493.701 -2.98378 0.0364663 0
M  V30 5369 C 492.45 -3.01086 -1.73904 0
M  V30 5370 H 491.773 -3.77208 -1.32491 0
M  V30 5371 H 493.213 -3.5378 -2.33701 0
M  V30 5372 C 491.672 -2.08422 -2.64692 0
M  V30 5373 O 492.202 -1.65636 -3.65961 0
M  V30 5374 N 490.408 -1.74247 -2.32564 0
M  V30 5375 H 489.955 -2.09238 -1.50257 0
M  V30 5376 H 489.913 -1.12524 -2.93574 0
M  V30 5377 N 493.685 -0.035106 -1.57561 0
M  V30 5378 C 494.618 0.979673 -2.06101 0
M  V30 5379 C 495.596 1.31378 -0.958046 0
M  V30 5380 O 496.78 1.42942 -1.22881 0
M  V30 5381 C 493.907 2.29809 -2.48808 0
M  V30 5382 C 492.953 2.11817 -3.70184 0
M  V30 5383 S 493.786 1.41143 -5.16565 0
M  V30 5384 C 494.942 2.74341 -5.62572 0
M  V30 5385 H 495.175 0.566506 -2.91853 0
M  V30 5386 H 492.708 0.176744 -1.53385 0
M  V30 5387 H 494.666 3.056 -2.74078 0
M  V30 5388 H 493.327 2.68257 -1.63392 0
M  V30 5389 H 492.52 3.09299 -3.97933 0
M  V30 5390 H 492.122 1.44168 -3.45097 0
M  V30 5391 H 494.414 3.70562 -5.67177 0
M  V30 5392 H 495.357 2.51249 -6.62027 0
M  V30 5393 H 495.765 2.79863 -4.90242 0
M  V30 5394 N 495.163 1.55791 0.238111 0
M  V30 5395 C 496.44 1.68798 0.98826 0
M  V30 5396 C 496.82 0.577562 2.03045 0
M  V30 5397 O 496.168 -0.41778 2.24648 0
M  V30 5398 C 496.378 3.09454 1.61367 0
M  V30 5399 C 497.726 3.68335 2.11221 0
M  V30 5400 O 498.75 3.1231 1.71292 0
M  V30 5401 O 497.609 4.6657 2.84561 0
M  V30 5402 H 494.703 0.686881 0.460568 0
M  V30 5403 H 497.249 1.68118 0.231202 0
M  V30 5404 H 496.021 3.81726 0.860295 0
M  V30 5405 H 495.644 3.14182 2.4367 0
M  V30 5406 N 496.642 -0.504142 1.49319 0
M  V30 5407 C 497.589 -1.60603 1.65756 0
M  V30 5408 C 498.559 -1.58425 0.499082 0
M  V30 5409 O 499.744 -1.76459 0.725728 0
M  V30 5410 C 496.884 -2.98764 1.72726 0
M  V30 5411 C 495.997 -3.10982 2.99857 0
M  V30 5412 C 495.132 -4.39857 2.97824 0
M  V30 5413 C 494.171 -4.45697 4.19548 0
M  V30 5414 N 493.308 -5.65995 4.15444 0
M  V30 5415 H 498.148 -1.45895 2.59843 0
M  V30 5416 H 495.685 -0.709891 1.28837 0
M  V30 5417 H 497.643 -3.78839 1.74747 0
M  V30 5418 H 496.273 -3.12183 0.821075 0
M  V30 5419 H 495.325 -2.23991 3.07461 0
M  V30 5420 H 496.637 -3.11157 3.89849 0
M  V30 5421 H 495.791 -5.2825 2.98391 0
M  V30 5422 H 494.53 -4.42242 2.05604 0
M  V30 5423 H 493.535 -3.55707 4.19229 0
M  V30 5424 H 494.76 -4.4503 5.12957 0
M  V30 5425 H 492.706 -5.69229 3.26059 0
M  V30 5426 H 492.623 -5.67773 4.99169 0
M  V30 5427 H 493.891 -6.56604 4.20109 0
M  V30 5428 N 498.12 -1.38341 -0.754957 0
M  V30 5429 C 499.397 -1.24995 -1.50451 0
M  V30 5430 C 499.777 0.149244 -2.10572 0
M  V30 5431 O 499.125 1.15861 -1.96948 0
M  V30 5432 C 499.335 -2.35904 -2.57197 0
M  V30 5433 C 500.683 -2.74262 -3.24138 0
M  V30 5434 O 501.707 -2.35205 -2.67501 0
M  V30 5435 O 500.566 -3.4161 -4.26574 0
M  V30 5436 H 497.66 -0.48872 -0.667144 0
M  V30 5437 H 500.206 -1.50165 -0.790486 0
M  V30 5438 H 498.978 -3.2953 -2.11011 0
M  V30 5439 H 498.601 -2.12291 -3.36182 0
M  V30 5440 N 499.598 0.982988 -1.23187 0
M  V30 5441 C 500.844 1.72648 -1.06398 0
M  V30 5442 C 501.177 1.90066 0.398561 0
M  V30 5443 O 500.452 1.45105 1.29518 0
M  V30 5444 C 500.735 3.12627 -1.78707 0
M  V30 5445 C 500.588 3.02795 -3.32618 0
M  V30 5446 C 501.907 4.11997 -1.54747 0
M  V30 5447 H 499.026 0.626649 -0.387918 0
M  V30 5448 H 501.668 1.14455 -1.51658 0
M  V30 5449 H 499.818 3.62308 -1.40234 0
M  V30 5450 H 501.49 2.60659 -3.80598 0
M  V30 5451 H 499.733 2.39362 -3.61785 0
M  V30 5452 H 500.404 4.01893 -3.78399 0
M  V30 5453 H 502.88 3.71114 -1.88186 0
M  V30 5454 H 501.756 5.08037 -2.07821 0
M  V30 5455 H 502.017 4.39462 -0.482249 0
M  V30 5456 N 501.076 1.04316 1.18135 0
M  V30 5457 C 502.008 0.594444 2.21357 0
M  V30 5458 C 503.021 -0.337215 1.59269 0
M  V30 5459 O 504.21 -0.131337 1.78016 0
M  V30 5460 C 501.31 -0.151251 3.38562 0
M  V30 5461 C 500.483 0.788907 4.30227 0
M  V30 5462 C 499.542 0.0860572 5.2613 0
M  V30 5463 O 498.568 0.717302 5.64662 0
M  V30 5464 N 499.77 -1.17969 5.68387 0
M  V30 5465 H 502.535 1.48227 2.60478 0
M  V30 5466 H 500.096 0.92396 1.32946 0
M  V30 5467 H 502.088 -0.631352 3.99745 0
M  V30 5468 H 500.658 -0.940639 2.98112 0
M  V30 5469 H 499.878 1.44882 3.6661 0
M  V30 5470 H 501.166 1.42738 4.88368 0
M  V30 5471 H 500.564 -1.71302 5.3914 0
M  V30 5472 H 499.121 -1.60402 6.31755 0
M  V30 5473 N 502.554 -1.34406 0.822964 0
M  V30 5474 C 503.501 -2.29519 0.24284 0
M  V30 5475 C 504.471 -1.5359 -0.632397 0
M  V30 5476 O 505.656 -1.8196 -0.57403 0
M  V30 5477 C 502.796 -3.40032 -0.58925 0
M  V30 5478 C 501.909 -4.30899 0.308236 0
M  V30 5479 C 501.044 -5.28515 -0.533425 0
M  V30 5480 C 500.083 -6.1102 0.363444 0
M  V30 5481 N 499.22 -7.00725 -0.439147 0
M  V30 5482 H 504.06 -2.78537 1.05929 0
M  V30 5483 H 501.597 -1.3707 0.533872 0
M  V30 5484 H 503.555 -4.0279 -1.087 0
M  V30 5485 H 502.185 -2.92248 -1.37081 0
M  V30 5486 H 501.237 -3.69002 0.924203 0
M  V30 5487 H 502.549 -4.88717 0.997862 0
M  V30 5488 H 501.703 -5.96725 -1.09565 0
M  V30 5489 H 500.442 -4.71235 -1.25656 0
M  V30 5490 H 499.447 -5.41743 0.937812 0
M  V30 5491 H 500.672 -6.70381 1.08469 0
M  V30 5492 H 498.618 -6.45913 -1.14595 0
M  V30 5493 H 498.535 -7.55756 0.19209 0
M  V30 5494 H 499.803 -7.73263 -0.984124 0
M  V30 5495 N 504.032 -0.577932 -1.46621 0
M  V30 5496 C 505.26 -0.0671642 -2.06791 0
M  V30 5497 C 505.675 1.23571 -1.42743 0
M  V30 5498 O 505.032 1.74602 -0.531062 0
M  V30 5499 C 505.083 0.110357 -3.61332 0
M  V30 5500 O 504.804 -1.14095 -4.22982 0
M  V30 5501 C 506.305 0.656025 -4.38419 0
M  V30 5502 H 503.525 -0.0552732 -0.66872 0
M  V30 5503 H 506.069 -0.797242 -1.8832 0
M  V30 5504 H 504.224 0.790637 -3.79246 0
M  V30 5505 H 504.638 -0.951742 -5.15793 0
M  V30 5506 H 506.112 0.729438 -5.47159 0
M  V30 5507 H 506.589 1.67195 -4.06131 0
M  V30 5508 H 507.195 0.0107692 -4.25299 0
M  V30 5509 N 505.51 1.54411 -0.315457 0
M  V30 5510 C 506.44 2.27002 0.547039 0
M  V30 5511 C 507.421 1.27492 1.12605 0
M  V30 5512 O 508.606 1.5629 1.15269 0
M  V30 5513 C 505.736 3.02171 1.71201 0
M  V30 5514 C 504.69 4.0895 1.26268 0
M  V30 5515 C 504.016 4.71915 2.51396 0
M  V30 5516 C 505.316 5.20891 0.383419 0
M  V30 5517 H 507.01 2.99343 -0.0584517 0
M  V30 5518 H 504.556 1.4397 -0.0295527 0
M  V30 5519 H 506.509 3.51681 2.32161 0
M  V30 5520 H 505.233 2.27433 2.34397 0
M  V30 5521 H 503.892 3.60312 0.676062 0
M  V30 5522 H 503.54 3.93801 3.12937 0
M  V30 5523 H 503.24 5.44039 2.22026 0
M  V30 5524 H 504.764 5.24195 3.13133 0
M  V30 5525 H 506.178 5.66206 0.899082 0
M  V30 5526 H 504.575 5.99821 0.182857 0
M  V30 5527 H 505.645 4.81324 -0.587821 0
M  V30 5528 N 506.988 0.0434614 1.5754 0
M  V30 5529 C 507.92 -0.962586 2.08007 0
M  V30 5530 C 508.933 -1.27972 1.00634 0
M  V30 5531 O 510.122 -1.24186 1.28219 0
M  V30 5532 C 507.222 -2.28621 2.50171 0
M  V30 5533 C 506.395 -2.15214 3.80791 0
M  V30 5534 C 505.454 -3.30633 4.09351 0
M  V30 5535 O 504.48 -3.0688 4.79388 0
M  V30 5536 N 505.682 -4.54873 3.60654 0
M  V30 5537 H 508.447 -0.531891 2.94942 0
M  V30 5538 H 506.008 -0.142965 1.61268 0
M  V30 5539 H 508 -3.04689 2.66359 0
M  V30 5540 H 506.57 -2.63283 1.68525 0
M  V30 5541 H 505.79 -1.23785 3.74261 0
M  V30 5542 H 507.078 -2.03475 4.66343 0
M  V30 5543 H 506.476 -4.77063 3.04019 0
M  V30 5544 H 505.033 -5.2806 3.82094 0
M  V30 5545 N 508.466 -1.55915 -0.229846 0
M  V30 5546 C 509.414 -1.9258 -1.30444 0
M  V30 5547 C 510.408 -0.806839 -1.48951 0
M  V30 5548 O 511.614 -0.991606 -1.50224 0
M  V30 5549 H 507.989 -0.611878 -0.437161 0
M  V30 5550 H 509.96 -2.82264 -0.96797 0
M  V30 5551 C 508.709 -2.25171 -2.6494 0
M  V30 5552 H 508.032 -3.10782 -2.51504 0
M  V30 5553 H 509.472 -2.54716 -3.38963 0
M  V30 5554 C 507.931 -1.07394 -3.19324 0
M  V30 5555 O 508.461 -0.330759 -4.00336 0
M  V30 5556 N 506.667 -0.859984 -2.77584 0
M  V30 5557 H 506.214 -1.46605 -2.11813 0
M  V30 5558 H 506.172 -0.0736671 -3.14314 0
M  V30 5559 N 509.944 0.496216 -1.49584 0
M  V30 5560 C 511.221 1.25755 -1.49816 0
M  V30 5561 C 511.601 2.09859 -0.228572 0
M  V30 5562 O 510.949 2.14449 0.788908 0
M  V30 5563 C 511.159 2.11017 -2.7798 0
M  V30 5564 C 512.507 2.70047 -3.27658 0
M  V30 5565 O 513.531 2.21281 -2.79129 0
M  V30 5566 O 512.39 3.58834 -4.1219 0
M  V30 5567 H 509.484 0.569322 -0.599834 0
M  V30 5568 H 512.03 0.510094 -1.61852 0
M  V30 5569 H 510.802 1.48879 -3.61871 0
M  V30 5570 H 510.425 2.92947 -2.68827 0
M  V30 5571 N 511.423 1.38739 0.74761 0
M  V30 5572 C 512.669 1.35475 1.50912 0
M  V30 5573 C 513.002 -0.0533093 1.94127 0
M  V30 5574 O 512.277 -1.01572 1.65871 0
M  V30 5575 C 512.56 2.31582 2.75757 0
M  V30 5576 C 512.413 3.81274 2.38642 0
M  V30 5577 C 513.732 2.25722 3.77806 0
M  V30 5578 H 510.851 0.493427 0.547447 0
M  V30 5579 H 513.493 1.69634 0.855823 0
M  V30 5580 H 511.643 2.02582 3.31501 0
M  V30 5581 H 513.315 4.20972 1.88626 0
M  V30 5582 H 511.558 3.98664 1.71025 0
M  V30 5583 H 512.229 4.4399 3.27989 0
M  V30 5584 H 514.705 2.51336 3.31616 0
M  V30 5585 H 513.581 2.95069 4.62845 0
M  V30 5586 H 513.842 1.25803 4.23823 0
M  V30 5587 N 512.901 -0.976442 1.23707 0
M  V30 5588 C 514.178 -1.69296 0.979699 0
M  V30 5589 C 514.558 -2.0508 -0.500555 0
M  V30 5590 O 513.906 -1.74708 -1.47273 0
M  V30 5591 C 514.116 -2.93143 1.89389 0
M  V30 5592 C 515.464 -3.65572 2.15968 0
M  V30 5593 O 516.488 -3.03184 1.86971 0
M  V30 5594 O 515.347 -4.77859 2.65167 0
M  V30 5595 H 512.441 -0.739708 0.369812 0
M  V30 5596 H 514.987 -1.03131 1.34767 0
M  V30 5597 H 513.759 -2.63327 2.89439 0
M  V30 5598 H 513.382 -3.67044 1.52854 0
M  V30 5599 N 514.379 -1.04941 -1.1758 0
M  V30 5600 C 515.327 -0.64204 -2.23563 0
M  V30 5601 C 516.321 0.335453 -1.66045 0
M  V30 5602 O 517.527 0.20179 -1.78865 0
M  V30 5603 H 513.902 -0.18944 -0.727748 0
M  V30 5604 H 515.873 -1.54609 -2.55223 0
M  V30 5605 C 514.622 -0.0301051 -3.47687 0
M  V30 5606 H 513.945 -0.773339 -3.92249 0
M  V30 5607 H 515.385 0.217592 -4.23441 0
M  V30 5608 C 513.844 1.2225 -3.13937 0
M  V30 5609 O 514.374 2.3122 -3.28482 0
M  V30 5610 N 512.58 1.11917 -2.68185 0
M  V30 5611 H 512.127 0.232403 -2.5655 0
M  V30 5612 H 512.085 1.95814 -2.45976 0
M  V30 5613 N 515.857 1.33968 -0.830081 0
M  V30 5614 C 517.105 1.97672 -0.420734 0
M  V30 5615 C 517.426 1.66111 1.02138 0
M  V30 5616 O 516.696 0.955503 1.71017 0
M  V30 5617 H 515.276 0.73125 -0.152587 0
M  V30 5618 H 517.938 1.63483 -1.0611 0
M  V30 5619 H 517.034 3.07294 -0.545588 0
M  V30 5620 N 517.335 0.585699 1.46312 0
M  V30 5621 C 518.56 0.0762461 2.0726 0
M  V30 5622 C 518.985 -1.22071 1.43109 0
M  V30 5623 O 518.343 -1.73804 0.515942 0
M  V30 5624 C 518.391 -0.0729404 3.60526 0
M  V30 5625 O 517.495 -1.1287 3.96654 0
M  V30 5626 H 516.836 0.0641558 0.660893 0
M  V30 5627 H 519.366 0.809492 1.87905 0
M  V30 5628 H 519.376 -0.278158 4.07051 0
M  V30 5629 H 518.051 0.874188 4.06609 0
M  V30 5630 H 516.628 -0.901703 3.61834 0
M  V30 5631 N 518.813 -1.54241 0.323641 0
M  V30 5632 C 520.06 -2.0057 -0.27891 0
M  V30 5633 C 520.388 -1.21181 -1.52136 0
M  V30 5634 O 519.643 -0.282043 -1.93657 0
M  V30 5635 C 519.942 -3.5129 -0.658031 0
M  V30 5636 C 519.608 -4.48281 0.485252 0
M  V30 5637 C 518.27 -4.74519 0.799055 0
M  V30 5638 C 520.622 -5.05909 1.25322 0
M  V30 5639 C 517.95 -5.55643 1.88354 0
M  V30 5640 C 520.302 -5.88215 2.32779 0
M  V30 5641 C 518.966 -6.12755 2.64741 0
M  V30 5642 H 518.236 -0.733938 -0.10206 0
M  V30 5643 H 520.883 -1.862 0.447435 0
M  V30 5644 H 519.188 -3.63388 -1.4648 0
M  V30 5645 H 520.885 -3.84578 -1.1358 0
M  V30 5646 H 517.475 -4.27979 0.230593 0
M  V30 5647 H 521.659 -4.8562 1.02404 0
M  V30 5648 H 516.915 -5.72888 2.13564 0
M  V30 5649 H 521.089 -6.31888 2.92729 0
M  V30 5650 H 518.716 -6.75404 3.48904 0
M  V30 5651 N 520.291 -0.0518155 -1.57515 0
M  V30 5652 C 521.521 0.63048 -1.96745 0
M  V30 5653 C 521.929 1.64875 -0.928054 0
M  V30 5654 O 521.272 1.83449 0.0960678 0
M  V30 5655 C 521.334 1.37381 -3.32215 0
M  V30 5656 C 520.998 0.511298 -4.54131 0
M  V30 5657 C 521.995 -0.222884 -5.19422 0
M  V30 5658 C 519.68 0.442035 -5.00351 0
M  V30 5659 C 521.674 -1.01476 -6.2927 0
M  V30 5660 C 519.361 -0.35353 -6.10077 0
M  V30 5661 C 520.359 -1.08062 -6.74397 0
M  V30 5662 O 520.047 -1.8631 -7.82013 0
M  V30 5663 H 519.779 0.177126 -0.652382 0
M  V30 5664 H 522.333 -0.114726 -2.05079 0
M  V30 5665 H 520.563 2.16466 -3.20436 0
M  V30 5666 H 522.252 1.9464 -3.56188 0
M  V30 5667 H 523.018 -0.178846 -4.8467 0
M  V30 5668 H 518.897 0.997562 -4.50077 0
M  V30 5669 H 522.441 -1.58279 -6.79407 0
M  V30 5670 H 518.338 -0.399205 -6.44264 0
M  V30 5671 H 519.106 -1.78528 -7.98793 0
M  V30 5672 N 521.769 1.56035 0.221574 0
M  V30 5673 C 522.716 1.92413 1.27459 0
M  V30 5674 C 523.686 0.781323 1.46576 0
M  V30 5675 O 524.871 1.03721 1.60145 0
M  V30 5676 C 522.011 2.24617 2.61995 0
M  V30 5677 C 521.124 3.51831 2.50677 0
M  V30 5678 C 520.259 3.73482 3.77736 0
M  V30 5679 C 519.298 4.94211 3.6114 0
M  V30 5680 N 518.435 5.12252 4.80148 0
M  V30 5681 H 523.275 2.82203 0.957355 0
M  V30 5682 H 520.812 1.39676 0.461415 0
M  V30 5683 H 522.77 2.41298 3.40339 0
M  V30 5684 H 521.4 1.38 2.91815 0
M  V30 5685 H 520.452 3.43343 1.63767 0
M  V30 5686 H 521.764 4.40328 2.34334 0
M  V30 5687 H 520.918 3.9026 4.64523 0
M  V30 5688 H 519.657 2.83266 3.97003 0
M  V30 5689 H 518.662 4.77384 2.72736 0
M  V30 5690 H 519.887 5.85912 3.43343 0
M  V30 5691 H 517.833 4.24978 4.99729 0
M  V30 5692 H 517.75 5.94881 4.66532 0
M  V30 5693 H 519.018 5.33465 5.68362 0
M  V30 5694 N 523.247 -0.488276 1.49845 0
M  V30 5695 C 524.195 -1.60917 1.67954 0
M  V30 5696 C 525.189 -1.6038 0.54539 0
M  V30 5697 O 526.395 -1.64736 0.7254 0
M  V30 5698 H 522.77 -0.533658 0.529824 0
M  V30 5699 H 524.741 -1.428 2.62013 0
M  V30 5700 C 523.49 -2.98975 1.77509 0
M  V30 5701 H 522.813 -3.00099 2.6416 0
M  V30 5702 H 524.253 -3.76906 1.9421 0
M  V30 5703 C 522.712 -3.3282 0.522745 0
M  V30 5704 O 523.242 -4.00208 -0.345866 0
M  V30 5705 N 521.448 -2.8808 0.381882 0
M  V30 5706 H 520.995 -2.33415 1.08974 0
M  V30 5707 H 520.953 -3.11091 -0.454929 0
M  V30 5708 N 524.725 -1.39134 -0.740242 0
M  V30 5709 C 525.672 -1.37434 -1.8542 0
M  V30 5710 C 526.642 -0.234822 -1.64432 0
M  V30 5711 O 527.827 -0.429125 -1.85912 0
M  V30 5712 C 524.967 -1.21844 -3.22875 0
M  V30 5713 C 524.08 -2.45296 -3.55603 0
M  V30 5714 C 523.215 -2.22334 -4.82432 0
M  V30 5715 C 522.254 -3.41488 -5.07988 0
M  V30 5716 N 521.391 -3.17877 -6.26018 0
M  V30 5717 H 526.231 -2.3266 -1.86207 0
M  V30 5718 H 523.768 -1.15578 -0.909946 0
M  V30 5719 H 525.726 -1.10818 -4.02213 0
M  V30 5720 H 524.356 -0.3025 -3.21379 0
M  V30 5721 H 523.408 -2.66945 -2.71006 0
M  V30 5722 H 524.72 -3.34063 -3.7041 0
M  V30 5723 H 523.874 -2.0852 -5.69741 0
M  V30 5724 H 522.613 -1.30954 -4.6979 0
M  V30 5725 H 521.618 -3.55807 -4.19144 0
M  V30 5726 H 522.843 -4.33763 -5.22519 0
M  V30 5727 H 520.789 -2.29156 -6.14673 0
M  V30 5728 H 520.706 -4.00198 -6.41387 0
M  V30 5729 H 521.974 -3.07746 -7.16179 0
M  V30 5730 N 526.204 0.969867 -1.24223 0
M  V30 5731 C 527.481 1.68774 -0.988664 0
M  V30 5732 C 527.861 2.05342 0.489673 0
M  V30 5733 O 527.209 1.75486 1.46345 0
M  V30 5734 C 527.419 2.92135 -1.90941 0
M  V30 5735 C 528.767 3.64422 -2.17903 0
M  V30 5736 O 529.791 3.02188 -1.88576 0
M  V30 5737 O 528.65 4.76446 -2.67697 0
M  V30 5738 H 525.744 0.737736 -0.37373 0
M  V30 5739 H 528.29 1.02415 -1.35312 0
M  V30 5740 H 527.062 2.61788 -2.90831 0
M  V30 5741 H 526.685 3.66228 -1.54798 0
M  V30 5742 N 527.682 1.05563 1.17022 0
M  V30 5743 C 528.614 0.617888 2.20714 0
M  V30 5744 C 529.627 -0.320303 1.59618 0
M  V30 5745 O 530.816 -0.112449 1.78145 0
M  V30 5746 C 527.916 -0.115333 3.38704 0
M  V30 5747 C 527.089 0.834493 4.29366 0
M  V30 5748 C 526.148 0.141855 5.26009 0
M  V30 5749 O 525.174 0.777151 5.6387 0
M  V30 5750 N 526.376 -1.11934 5.69606 0
M  V30 5751 H 529.141 1.50981 2.58892 0
M  V30 5752 H 526.702 0.938008 1.31958 0
M  V30 5753 H 528.694 -0.588918 4.00392 0
M  V30 5754 H 527.264 -0.908967 2.99093 0
M  V30 5755 H 526.484 1.48762 3.65053 0
M  V30 5756 H 527.772 1.4791 4.86827 0
M  V30 5757 H 527.17 -1.65574 5.40927 0
M  V30 5758 H 525.727 -1.53692 6.33421 0
M  V30 5759 N 529.16 -1.33526 0.837174 0
M  V30 5760 C 530.092 -2.28077 0.226579 0
M  V30 5761 C 531.105 -1.51666 -0.591717 0
M  V30 5762 O 532.294 -1.73511 -0.419064 0
M  V30 5763 C 529.394 -3.31597 -0.69978 0
M  V30 5764 C 528.567 -4.37329 0.0788067 0
M  V30 5765 C 527.626 -5.20526 -0.770637 0
M  V30 5766 O 526.652 -5.68811 -0.210453 0
M  V30 5767 N 527.854 -5.41639 -2.08825 0
M  V30 5768 H 530.619 -2.81115 1.03897 0
M  V30 5769 H 528.18 -1.46201 0.695476 0
M  V30 5770 H 530.172 -3.84158 -1.27298 0
M  V30 5771 H 528.742 -2.78848 -1.41288 0
M  V30 5772 H 527.962 -3.8529 0.833381 0
M  V30 5773 H 529.25 -5.05079 0.614238 0
M  V30 5774 H 528.648 -5.04108 -2.56693 0
M  V30 5775 H 527.205 -5.97263 -2.60998 0
M  V30 5776 N 530.638 -0.59345 -1.46 0
M  V30 5777 C 531.884 -0.0832754 -2.02629 0
M  V30 5778 C 532.217 1.27749 -1.46266 0
M  V30 5779 O 531.492 1.8395 -0.631866 0
M  V30 5780 C 531.775 -0.0290756 -3.60088 0
M  V30 5781 C 531.628 -1.41951 -4.26814 0
M  V30 5782 C 532.947 0.666055 -4.35031 0
M  V30 5783 H 530.066 -0.031736 -0.736316 0
M  V30 5784 H 532.708 -0.762711 -1.74019 0
M  V30 5785 H 530.858 0.549532 -3.84594 0
M  V30 5786 H 532.53 -2.04411 -4.13538 0
M  V30 5787 H 530.773 -1.98422 -3.8576 0
M  V30 5788 H 531.444 -1.33395 -5.3564 0
M  V30 5789 H 533.92 0.174401 -4.15734 0
M  V30 5790 H 532.796 0.673041 -5.44758 0
M  V30 5791 H 533.057 1.72946 -4.06869 0
M  V30 5792 N 532.116 1.54067 -0.331816 0
M  V30 5793 C 533.364 2.00319 0.267739 0
M  V30 5794 C 533.685 1.22148 1.52003 0
M  V30 5795 O 532.955 0.325494 1.93177 0
M  V30 5796 H 531.535 0.740014 0.101922 0
M  V30 5797 H 534.197 1.89628 -0.450267 0
M  V30 5798 H 533.293 3.07765 0.518385 0
M  V30 5799 N 533.594 0.0601682 1.57485 0
M  V30 5800 C 534.557 -0.896373 2.10945 0
M  V30 5801 C 535.557 -1.23402 1.03095 0
M  V30 5802 O 536.747 -1.16921 1.29132 0
M  V30 5803 C 533.879 -2.20346 2.60116 0
M  V30 5804 H 535.072 -0.432778 2.96761 0
M  V30 5805 H 532.625 -0.188372 1.55161 0
M  V30 5806 H 533.36 -2.71268 1.7772 0
M  V30 5807 H 533.145 -1.9714 3.38937 0
M  V30 5808 H 534.635 -2.88846 3.01592 0
M  V30 5809 N 535.072 -1.5615 -0.213296 0
M  V30 5810 C 536.3 -1.83638 -0.953139 0
M  V30 5811 C 536.715 -0.640362 -1.77609 0
M  V30 5812 O 536.072 0.391071 -1.78261 0
M  V30 5813 C 536.123 -3.09735 -1.86405 0
M  V30 5814 O 535.844 -4.24723 -1.07435 0
M  V30 5815 C 537.345 -3.5027 -2.71709 0
M  V30 5816 H 534.565 -0.610263 -0.278962 0
M  V30 5817 H 537.109 -2.03247 -0.226035 0
M  V30 5818 H 535.264 -2.92077 -2.545 0
M  V30 5819 H 535.678 -4.9641 -1.69343 0
M  V30 5820 H 537.152 -4.41515 -3.31313 0
M  V30 5821 H 537.629 -2.72406 -3.44516 0
M  V30 5822 H 538.235 -3.70396 -2.09015 0
M  V30 5823 N 536.55 0.480323 -1.50102 0
M  V30 5824 C 537.799 1.22979 -1.59872 0
M  V30 5825 C 538.112 1.93282 -0.30022 0
M  V30 5826 O 539.318 2.70086 -0.276709 0
M  V30 5827 C 537.774 2.23408 -2.82164 0
M  V30 5828 C 537.382 1.5895 -4.18854 0
M  V30 5829 C 539.126 2.99055 -3.01275 0
M  V30 5830 C 537.033 2.57611 -5.32344 0
M  V30 5831 H 535.963 0.462707 -0.59533 0
M  V30 5832 H 538.614 0.501291 -1.7652 0
M  V30 5833 H 536.996 2.99511 -2.59055 0
M  V30 5834 H 538.17 0.887 -4.52182 0
M  V30 5835 H 536.485 0.956191 -4.05273 0
M  V30 5836 H 539.082 3.72876 -3.83233 0
M  V30 5837 H 539.425 3.57897 -2.12639 0
M  V30 5838 H 539.958 2.30066 -3.24522 0
M  V30 5839 H 536.697 2.03521 -6.23105 0
M  V30 5840 H 536.217 3.26041 -5.03445 0
M  V30 5841 H 537.896 3.19627 -5.62537 0
M  V30 5842 N 538.028 1.39524 0.732853 0
M  V30 5843 C 538.958 1.41153 1.86005 0
M  V30 5844 C 539.939 0.274614 1.67869 0
M  V30 5845 O 541.124 0.480745 1.88155 0
M  V30 5846 C 538.254 1.25638 3.23778 0
M  V30 5847 C 537.208 2.36752 3.56556 0
M  V30 5848 C 536.534 2.06326 4.93289 0
M  V30 5849 C 537.834 3.79069 3.5931 0
M  V30 5850 H 539.528 2.35484 1.84899 0
M  V30 5851 H 537.074 1.13348 0.888162 0
M  V30 5852 H 539.027 1.25398 4.0231 0
M  V30 5853 H 537.751 0.277772 3.25417 0
M  V30 5854 H 536.41 2.36213 2.80355 0
M  V30 5855 H 536.058 1.06897 4.9151 0
M  V30 5856 H 535.758 2.80757 5.16187 0
M  V30 5857 H 537.282 2.07739 5.74175 0
M  V30 5858 H 538.696 3.81526 4.27914 0
M  V30 5859 H 537.093 4.52878 3.93728 0
M  V30 5860 H 538.163 4.09893 2.59068 0
M  V30 5861 N 539.506 -0.963266 1.24736 0
M  V30 5862 C 540.783 -1.68248 0.9976 0
M  V30 5863 C 541.163 -2.05599 -0.478776 0
M  V30 5864 O 540.511 -1.7626 -1.45412 0
M  V30 5865 C 540.721 -2.91118 1.92487 0
M  V30 5866 C 542.069 -3.63261 2.19833 0
M  V30 5867 O 543.093 -3.01184 1.90176 0
M  V30 5868 O 541.952 -4.75019 2.7022 0
M  V30 5869 H 539.046 -0.735744 0.377637 0
M  V30 5870 H 541.592 -1.01696 1.35853 0
M  V30 5871 H 540.364 -2.60242 2.92215 0
M  V30 5872 H 539.987 -3.65402 1.56738 0
M  V30 5873 N 540.985 -1.06182 -1.16461 0
M  V30 5874 C 542.21 -0.798599 -1.91408 0
M  V30 5875 C 542.635 0.640987 -1.76842 0
M  V30 5876 O 541.993 1.44652 -1.09296 0
M  V30 5877 C 542.041 -1.19665 -3.40165 0
M  V30 5878 O 541.145 -0.334768 -4.11039 0
M  V30 5879 H 540.486 -0.291961 -0.596368 0
M  V30 5880 H 543.016 -1.41732 -1.47557 0
M  V30 5881 H 543.026 -1.16772 -3.90933 0
M  V30 5882 H 541.701 -2.24526 -3.50087 0
M  V30 5883 H 540.278 -0.425168 -3.70468 0
M  V30 5884 N 542.463 1.3308 -0.844243 0
M  V30 5885 C 543.41 2.29104 -0.279323 0
M  V30 5886 C 544.38 1.54577 0.607882 0
M  V30 5887 O 545.565 1.8285 0.545009 0
M  V30 5888 C 542.705 3.40927 0.53508 0
M  V30 5889 C 541.818 4.30354 -0.376749 0
M  V30 5890 C 540.953 5.29297 0.449276 0
M  V30 5891 C 539.992 6.10365 -0.460606 0
M  V30 5892 N 539.129 7.01335 0.327612 0
M  V30 5893 H 543.969 2.76817 -1.10346 0
M  V30 5894 H 541.506 1.36203 -0.555611 0
M  V30 5895 H 543.464 4.04469 1.02278 0
M  V30 5896 H 542.094 2.94391 1.32414 0
M  V30 5897 H 541.146 3.67485 -0.982791 0
M  V30 5898 H 542.458 4.87067 -1.07549 0
M  V30 5899 H 541.612 5.98392 1.00058 0
M  V30 5900 H 540.351 4.73174 1.18143 0
M  V30 5901 H 539.356 5.40182 -1.02388 0
M  V30 5902 H 540.581 6.68571 -1.1912 0
M  V30 5903 H 538.527 6.47655 1.04305 0
M  V30 5904 H 538.444 7.55355 -0.3123 0
M  V30 5905 H 539.712 7.74731 0.86098 0
M  V30 5906 N 543.941 0.601185 1.45683 0
M  V30 5907 C 545.169 0.100054 2.06658 0
M  V30 5908 C 545.584 -1.21285 1.44691 0
M  V30 5909 O 544.941 -1.73735 0.558772 0
M  V30 5910 C 544.992 -0.0528579 3.61461 0
M  V30 5911 O 544.713 1.20809 4.21114 0
M  V30 5912 C 546.214 -0.586193 4.39407 0
M  V30 5913 H 543.434 0.065905 0.667756 0
M  V30 5914 H 545.978 0.827101 1.87028 0
M  V30 5915 H 544.133 -0.730203 3.80456 0
M  V30 5916 H 544.547 1.03368 5.14213 0
M  V30 5917 H 546.021 -0.642297 5.4825 0
M  V30 5918 H 546.498 -1.60713 4.0874 0
M  V30 5919 H 547.104 0.0568935 4.25262 0
M  V30 5920 N 545.419 -1.53889 0.339982 0
M  V30 5921 C 546.667 -2.00458 -0.257112 0
M  V30 5922 C 546.988 -1.22953 -1.51353 0
M  V30 5923 O 546.258 -0.335734 -1.93002 0
M  V30 5924 H 544.838 -0.740544 -0.0979965 0
M  V30 5925 H 547.5 -1.89386 0.460317 0
M  V30 5926 H 546.596 -3.08035 -0.502057 0
M  V30 5927 N 546.897 -0.0685191 -1.57451 0
M  V30 5928 C 548.145 0.60016 -1.92983 0
M  V30 5929 C 548.466 1.70348 -0.949028 0
M  V30 5930 O 547.736 1.959 0.00335647 0
M  V30 5931 H 546.316 0.224682 -0.712409 0
M  V30 5932 H 548.978 -0.125605 -1.94495 0
M  V30 5933 H 548.074 1.02759 -2.94698 0
M  V30 5934 N 548.375 1.56261 0.205012 0
M  V30 5935 C 549.305 1.96779 1.257 0
M  V30 5936 C 550.286 0.838309 1.48008 0
M  V30 5937 O 551.471 1.10189 1.59913 0
M  V30 5938 C 548.601 2.29876 2.60335 0
M  V30 5939 C 547.555 3.45469 2.52656 0
M  V30 5940 C 546.881 3.64215 3.91473 0
M  V30 5941 C 548.181 4.79954 2.06014 0
M  V30 5942 H 549.875 2.84904 0.920338 0
M  V30 5943 H 547.421 1.37072 0.441277 0
M  V30 5944 H 549.374 2.56814 3.34102 0
M  V30 5945 H 548.098 1.38622 2.95722 0
M  V30 5946 H 546.757 3.18605 1.81345 0
M  V30 5947 H 546.405 2.70309 4.24196 0
M  V30 5948 H 546.105 4.41973 3.87213 0
M  V30 5949 H 547.629 3.93519 4.66878 0
M  V30 5950 H 549.043 5.05989 2.69533 0
M  V30 5951 H 547.44 5.61111 2.12777 0
M  V30 5952 H 548.51 4.74201 1.01297 0
M  V30 5953 N 549.853 -0.472356 1.50355 0
M  V30 5954 C 551.099 -1.22634 1.6152 0
M  V30 5955 C 551.432 -1.91645 0.313995 0
M  V30 5956 O 550.707 -1.82059 -0.684446 0
M  V30 5957 C 550.99 -2.27099 2.7946 0
M  V30 5958 C 550.843 -1.62402 4.19459 0
M  V30 5959 C 552.162 -3.28421 2.92964 0
M  V30 5960 H 549.281 -0.444494 0.587873 0
M  V30 5961 H 551.923 -0.520321 1.82737 0
M  V30 5962 H 550.073 -2.87314 2.61501 0
M  V30 5963 H 551.745 -1.05793 4.49005 0
M  V30 5964 H 549.988 -0.927184 4.23776 0
M  V30 5965 H 550.659 -2.38309 4.97909 0
M  V30 5966 H 553.135 -2.78227 3.09401 0
M  V30 5967 H 552.011 -3.98845 3.77113 0
M  V30 5968 H 552.272 -3.92467 2.03525 0
M  V30 5969 N 551.331 -1.39911 -0.725443 0
M  V30 5970 C 552.294 -1.39156 -1.82121 0
M  V30 5971 C 553.294 -0.287018 -1.58218 0
M  V30 5972 O 554.484 -0.545421 -1.65441 0
M  V30 5973 C 551.616 -1.1736 -3.20062 0
M  V30 5974 H 552.809 -2.36672 -1.84191 0
M  V30 5975 H 550.362 -1.25615 -0.930079 0
M  V30 5976 H 551.097 -0.205648 -3.23647 0
M  V30 5977 H 550.882 -1.97358 -3.3881 0
M  V30 5978 H 552.372 -1.19596 -4.00108 0
M  V30 5979 N 552.809 0.956637 -1.25245 0
M  V30 5980 C 554.058 1.69537 -1.0927 0
M  V30 5981 C 554.371 1.92136 0.366503 0
M  V30 5982 O 555.577 2.63687 0.64665 0
M  V30 5983 C 554.033 3.05211 -1.9072 0
M  V30 5984 C 553.641 2.90416 -3.41119 0
M  V30 5985 C 555.385 3.82882 -1.83308 0
M  V30 5986 C 553.292 4.21468 -4.14872 0
M  V30 5987 H 552.222 0.635804 -0.405302 0
M  V30 5988 H 554.873 1.06513 -1.49423 0
M  V30 5989 H 553.255 3.69128 -1.43389 0
M  V30 5990 H 554.429 2.35444 -3.9611 0
M  V30 5991 H 552.744 2.26203 -3.49602 0
M  V30 5992 H 555.341 4.79944 -2.35706 0
M  V30 5993 H 555.684 4.0853 -0.800572 0
M  V30 5994 H 556.217 3.25711 -2.28379 0
M  V30 5995 H 552.956 4.01009 -5.18529 0
M  V30 5996 H 552.476 4.76213 -3.64665 0
M  V30 5997 H 554.155 4.90022 -4.22478 0
M  V30 5998 N 554.287 1.06798 1.15896 0
M  V30 5999 C 555.512 0.808739 1.90982 0
M  V30 6000 C 555.937 -0.6316 1.77179 0
M  V30 6001 O 555.295 -1.4407 1.10061 0
M  V30 6002 C 555.343 1.21468 3.39526 0
M  V30 6003 O 554.447 0.356562 4.10856 0
M  V30 6004 H 553.788 0.29512 0.594811 0
M  V30 6005 H 556.318 1.42513 1.46804 0
M  V30 6006 H 556.328 1.18844 3.90308 0
M  V30 6007 H 555.003 2.26379 3.48891 0
M  V30 6008 H 553.58 0.444808 3.70238 0
M  V30 6009 N 555.766 -1.3263 0.851289 0
M  V30 6010 C 557.014 -1.96978 0.452128 0
M  V30 6011 C 557.335 -1.67715 -0.99482 0
M  V30 6012 O 556.605 -0.98259 -1.69476 0
M  V30 6013 H 555.185 -0.72873 0.164202 0
M  V30 6014 H 557.847 -1.61774 1.08698 0
M  V30 6015 H 556.943 -3.06387 0.594407 0
M  V30 6016 N 557.244 -0.608902 -1.45362 0
M  V30 6017 C 558.492 -0.104401 -2.0183 0
M  V30 6018 C 558.813 1.27007 -1.47967 0
M  V30 6019 O 558.083 1.83924 -0.674455 0
M  V30 6020 H 556.663 -0.0356042 -0.746151 0
M  V30 6021 H 559.325 -0.790596 -1.78145 0
M  V30 6022 H 558.421 -0.0551793 -3.12051 0
M  V30 6023 N 558.722 1.53707 -0.348139 0
M  V30 6024 C 560.138 1.596 0.00361134 0
M  V30 6025 C 560.338 1.36394 1.4832 0
M  V30 6026 O 559.394 1.16046 2.24253 0
M  V30 6027 C 560.707 2.97512 -0.436682 0
M  V30 6028 C 562.255 3.10568 -0.389416 0
M  V30 6029 C 562.73 4.50866 -0.805249 0
M  V30 6030 N 564.221 4.56929 -0.759616 0
M  V30 6031 C 564.956 5.63643 -1.05327 0
M  V30 6032 N 564.452 6.78189 -1.41531 0
M  V30 6033 N 566.245 5.5354 -0.977207 0
M  V30 6034 H 558.396 1.67044 -1.31187 0
M  V30 6035 H 560.659 0.782559 -0.535075 0
M  V30 6036 H 560.365 3.19575 -1.46849 0
M  V30 6037 H 560.239 3.76742 0.185744 0
M  V30 6038 H 562.626 2.88226 0.633228 0
M  V30 6039 H 562.707 2.33387 -1.04711 0
M  V30 6040 H 562.351 4.73943 -1.82593 0
M  V30 6041 H 562.281 5.26452 -0.124989 0
M  V30 6042 H 564.772 3.74675 -0.49265 0
M  V30 6043 H 565.085 7.55541 -1.62411 0
M  V30 6044 H 563.43 6.79624 -1.45381 0
M  V30 6045 H 566.621 4.62932 -0.693675 0
M  V30 6046 H 566.794 6.36614 -1.2094 0
M  V30 6047 N 560.2 0.0768682 1.57412 0
M  V30 6048 C 561.477 -0.632359 1.85096 0
M  V30 6049 C 561.857 -1.87479 0.9703 0
M  V30 6050 O 561.205 -2.28469 0.0379062 0
M  V30 6051 C 561.415 -0.965174 3.35388 0
M  V30 6052 C 562.763 -1.33648 4.03018 0
M  V30 6053 O 563.787 -1.05675 3.40164 0
M  V30 6054 O 562.646 -1.85959 5.13889 0
M  V30 6055 H 559.74 -0.314574 0.764835 0
M  V30 6056 H 562.286 0.108184 1.69355 0
M  V30 6057 H 561.058 -0.0829745 3.91212 0
M  V30 6058 H 560.681 -1.76231 3.5641 0
M  V30 6059 N 561.678 -1.56367 -0.196722 0
M  V30 6060 C 562.925 -1.80529 -0.917366 0
M  V30 6061 C 563.253 -0.649817 -1.83324 0
M  V30 6062 O 562.508 0.36451 -1.92275 0
M  V30 6063 C 562.807 -3.10663 -1.767 0
M  V30 6064 C 562.473 -4.3962 -1.00225 0
M  V30 6065 C 561.135 -4.74653 -0.791095 0
M  V30 6066 C 563.487 -5.1913 -0.464035 0
M  V30 6067 C 560.815 -5.86692 -0.0302155 0
M  V30 6068 C 563.167 -6.31964 0.283625 0
M  V30 6069 C 561.831 -6.65581 0.505813 0
M  V30 6070 H 561.101 -0.660602 -0.335688 0
M  V30 6071 H 563.748 -1.90615 -0.183844 0
M  V30 6072 H 562.053 -2.95807 -2.56915 0
M  V30 6073 H 563.75 -3.26563 -2.32718 0
M  V30 6074 H 560.34 -4.12127 -1.17684 0
M  V30 6075 H 564.524 -4.9248 -0.614575 0
M  V30 6076 H 559.78 -6.11211 0.151917 0
M  V30 6077 H 563.954 -6.92791 0.708057 0
M  V30 6078 H 561.581 -7.52239 1.0973 0
M  V30 6079 N 563.156 0.464375 -1.50603 0
M  V30 6080 C 564.103 1.56152 -1.69956 0
M  V30 6081 C 565.073 1.57046 -0.54091 0
M  V30 6082 O 566.258 1.74473 -0.772258 0
M  V30 6083 C 563.398 2.94079 -1.80586 0
M  V30 6084 C 562.511 3.02923 -3.07996 0
M  V30 6085 C 561.646 4.31806 -3.09382 0
M  V30 6086 C 560.685 4.34417 -4.31218 0
M  V30 6087 N 559.822 5.54782 -4.30304 0
M  V30 6088 H 564.662 1.38955 -2.6362 0
M  V30 6089 H 562.199 0.675482 -1.30674 0
M  V30 6090 H 564.157 3.74073 -1.8473 0
M  V30 6091 H 562.787 3.09896 -0.903556 0
M  V30 6092 H 561.839 2.1576 -3.13292 0
M  V30 6093 H 563.151 3.00712 -3.97962 0
M  V30 6094 H 562.305 5.20153 -3.12292 0
M  V30 6095 H 561.044 4.36636 -2.17257 0
M  V30 6096 H 560.049 3.44467 -4.28512 0
M  V30 6097 H 561.274 4.31273 -5.24576 0
M  V30 6098 H 559.22 5.60384 -3.41037 0
M  V30 6099 H 559.137 5.54339 -5.14047 0
M  V30 6100 H 560.405 6.45235 -4.3737 0
M  V30 6101 N 564.634 1.40294 0.718013 0
M  V30 6102 C 565.911 1.2894 1.47084 0
M  V30 6103 C 566.291 -0.0933625 2.10893 0
M  V30 6104 O 565.639 -1.10598 1.99951 0
M  V30 6105 C 565.849 2.4264 2.50852 0
M  V30 6106 C 567.197 2.8276 3.16752 0
M  V30 6107 O 568.221 2.42215 2.61171 0
M  V30 6108 O 567.08 3.528 4.17366 0
M  V30 6109 H 564.174 0.506236 0.653952 0
M  V30 6110 H 566.72 1.52208 0.750394 0
M  V30 6111 H 565.492 3.35009 2.022 0
M  V30 6112 H 565.115 2.21129 3.30435 0
M  V30 6113 N 566.112 -0.949982 1.2575 0
M  V30 6114 C 567.358 -1.69766 1.10938 0
M  V30 6115 C 567.691 -1.91056 -0.348028 0
M  V30 6116 O 566.966 -1.48488 -1.25625 0
M  V30 6117 C 567.249 -3.07779 1.86933 0
M  V30 6118 C 567.102 -2.9387 3.4053 0
M  V30 6119 C 568.421 -4.07749 1.65616 0
M  V30 6120 H 565.54 -0.616144 0.404396 0
M  V30 6121 H 568.182 -1.10394 1.54639 0
M  V30 6122 H 566.332 -3.58462 1.4979 0
M  V30 6123 H 568.004 -2.50476 3.87375 0
M  V30 6124 H 566.247 -2.29686 3.68004 0
M  V30 6125 H 566.918 -3.91719 3.88922 0
M  V30 6126 H 569.394 -3.65994 1.97959 0
M  V30 6127 H 568.27 -5.02348 2.21218 0
M  V30 6128 H 568.531 -4.38029 0.598595 0
M  V30 6129 N 567.59 -1.07411 -1.15328 0
M  V30 6130 C 568.836 -0.798831 -1.86404 0
M  V30 6131 C 569.169 0.673433 -1.8215 0
M  V30 6132 O 568.444 1.49428 -1.24505 0
M  V30 6133 C 568.727 -1.30846 -3.35487 0
M  V30 6134 C 568.58 -2.84532 -3.4837 0
M  V30 6135 C 569.899 -0.925486 -4.30259 0
M  V30 6136 H 567.018 -0.291659 -0.676834 0
M  V30 6137 H 569.66 -1.332 -1.35491 0
M  V30 6138 H 567.81 -0.854916 -3.78977 0
M  V30 6139 H 569.482 -3.3818 -3.13739 0
M  V30 6140 H 567.725 -3.22699 -2.8991 0
M  V30 6141 H 568.396 -3.15259 -4.53118 0
M  V30 6142 H 570.872 -1.3163 -3.94731 0
M  V30 6143 H 569.748 -1.3094 -5.33053 0
M  V30 6144 H 570.009 0.168525 -4.41779 0
M  V30 6145 N 569.068 1.32177 -0.85831 0
M  V30 6146 C 570.016 2.30729 -0.294442 0
M  V30 6147 C 571.01 1.59009 0.584165 0
M  V30 6148 O 572.216 1.73713 0.471562 0
M  V30 6149 H 568.591 0.748097 -0.0765171 0
M  V30 6150 H 570.562 2.75774 -1.1398 0
M  V30 6151 C 569.311 3.44098 0.499208 0
M  V30 6152 H 568.634 3.99449 -0.167579 0
M  V30 6153 H 570.074 4.15202 0.859273 0
M  V30 6154 C 568.533 2.91684 1.68588 0
M  V30 6155 O 569.063 2.89481 2.78503 0
M  V30 6156 N 567.269 2.48036 1.51415 0
M  V30 6157 H 566.816 2.50027 0.620006 0
M  V30 6158 H 566.774 2.13322 2.30957 0
M  V30 6159 N 570.547 0.616602 1.45037 0
M  V30 6160 C 571.963 0.280994 1.57107 0
M  V30 6161 C 572.163 -1.21627 1.60653 0
M  V30 6162 O 571.219 -1.9997 1.54169 0
M  V30 6163 C 572.532 0.960116 2.8496 0
M  V30 6164 C 574.08 0.936884 2.98649 0
M  V30 6165 C 574.555 1.59619 4.29285 0
M  V30 6166 N 576.046 1.5621 4.36065 0
M  V30 6167 C 576.781 2.04131 5.35834 0
M  V30 6168 N 576.277 2.60177 6.4209 0
M  V30 6169 N 578.07 1.94845 5.27249 0
M  V30 6170 H 570.221 1.58867 1.40979 0
M  V30 6171 H 572.484 0.666024 0.674623 0
M  V30 6172 H 572.19 2.01473 2.88273 0
M  V30 6173 H 572.064 0.488921 3.74018 0
M  V30 6174 H 574.451 -0.109209 2.94898 0
M  V30 6175 H 574.532 1.44643 2.10979 0
M  V30 6176 H 574.176 2.64166 4.33796 0
M  V30 6177 H 574.106 1.06159 5.15789 0
M  V30 6178 H 576.597 1.15276 3.59889 0
M  V30 6179 H 576.91 2.94513 7.1448 0
M  V30 6180 H 575.255 2.64221 6.42816 0
M  V30 6181 H 578.446 1.50792 4.43147 0
M  V30 6182 H 578.619 2.32504 6.04852 0
M  V30 6183 N 572.025 -1.5352 0.356285 0
M  V30 6184 C 572.973 -2.26945 -0.50978 0
M  V30 6185 C 573.967 -1.29569 -1.09125 0
M  V30 6186 O 575.173 -1.47231 -1.03552 0
M  V30 6187 H 571.548 -0.729368 -0.183102 0
M  V30 6188 H 573.519 -2.98111 0.131374 0
M  V30 6189 C 572.268 -3.06466 -1.64237 0
M  V30 6190 H 571.591 -3.81233 -1.20423 0
M  V30 6191 H 573.031 -3.61035 -2.22327 0
M  V30 6192 C 571.49 -2.16737 -2.57928 0
M  V30 6193 O 572.02 -1.77195 -3.60507 0
M  V30 6194 N 570.226 -1.81558 -2.26903 0
M  V30 6195 H 569.773 -2.13913 -1.43524 0
M  V30 6196 H 569.731 -1.21806 -2.89846 0
M  V30 6197 N 573.503 -0.0852151 -1.57369 0
M  V30 6198 C 574.435 0.907099 -2.10486 0
M  V30 6199 C 575.448 1.25259 -1.03991 0
M  V30 6200 O 576.637 1.20743 -1.31467 0
M  V30 6201 C 573.737 2.21908 -2.56145 0
M  V30 6202 C 572.91 2.05042 -3.86363 0
M  V30 6203 C 571.969 3.19664 -4.17973 0
M  V30 6204 O 570.995 2.94062 -4.87356 0
M  V30 6205 N 572.197 4.45151 -3.72587 0
M  V30 6206 H 574.962 0.453505 -2.96249 0
M  V30 6207 H 572.523 0.100157 -1.6159 0
M  V30 6208 H 574.515 2.97519 -2.74343 0
M  V30 6209 H 573.085 2.58723 -1.75446 0
M  V30 6210 H 572.305 1.13819 -3.77411 0
M  V30 6211 H 573.593 1.91039 -4.71574 0
M  V30 6212 H 572.991 4.68834 -3.16561 0
M  V30 6213 H 571.548 5.17744 -3.9596 0
M  V30 6214 N 574.981 1.5647 0.188427 0
M  V30 6215 C 575.944 1.9421 1.21718 0
M  V30 6216 C 576.944 0.823901 1.38089 0
M  V30 6217 O 578.134 1.09122 1.35787 0
M  V30 6218 C 575.266 2.22197 2.58537 0
M  V30 6219 H 576.459 2.86252 0.894418 0
M  V30 6220 H 574.012 1.50263 0.430211 0
M  V30 6221 H 574.747 1.32814 2.95856 0
M  V30 6222 H 574.532 3.03688 2.48025 0
M  V30 6223 H 576.022 2.52376 3.3271 0
M  V30 6224 N 576.459 -0.456382 1.50847 0
M  V30 6225 C 577.687 -1.23026 1.66349 0
M  V30 6226 C 578.102 -1.85473 0.352868 0
M  V30 6227 O 577.459 -1.69885 -0.666739 0
M  V30 6228 C 577.51 -2.32827 2.76539 0
M  V30 6229 O 577.231 -1.72938 4.02522 0
M  V30 6230 C 578.732 -3.23448 3.03144 0
M  V30 6231 H 575.952 -0.371527 0.558756 0
M  V30 6232 H 578.496 -0.543082 1.97157 0
M  V30 6233 H 576.651 -2.97294 2.48384 0
M  V30 6234 H 577.065 -2.45357 4.63573 0
M  V30 6235 H 578.539 -3.96669 3.83872 0
M  V30 6236 H 579.016 -3.83094 2.14793 0
M  V30 6237 H 579.622 -2.64702 3.32886 0
M  V30 6238 N 577.937 -1.40673 -0.710563 0
M  V30 6239 C 579.214 -1.29718 -1.46398 0
M  V30 6240 C 579.594 0.082177 -2.1094 0
M  V30 6241 O 578.942 1.09536 -2.00534 0
M  V30 6242 C 579.152 -2.43967 -2.49562 0
M  V30 6243 C 580.5 -2.84436 -3.15248 0
M  V30 6244 O 581.524 -2.43597 -2.59883 0
M  V30 6245 O 580.383 -3.55008 -4.1549 0
M  V30 6246 H 577.477 -0.509697 -0.651258 0
M  V30 6247 H 580.023 -1.52603 -0.742312 0
M  V30 6248 H 578.795 -3.36076 -2.0042 0
M  V30 6249 H 578.418 -2.22879 -3.29258 0
M  V30 6250 N 579.415 0.9433 -1.26252 0
M  V30 6251 C 580.826 1.50404 -1.10614 0
M  V30 6252 C 581.177 1.93666 0.31429 0
M  V30 6253 O 580.302 1.79709 1.20555 0
M  V30 6254 C 580.897 2.73336 -2.00182 0
M  V30 6255 C 579.456 3.25686 -1.88695 0
M  V30 6256 C 578.603 1.98474 -1.93658 0
M  V30 6257 H 581.554 0.759006 -1.39373 0
M  V30 6258 H 581.575 3.47567 -1.54847 0
M  V30 6259 H 581.087 2.41818 -3.03555 0
M  V30 6260 H 579.188 3.61998 -0.882489 0
M  V30 6261 H 579.301 3.92935 -2.74115 0
M  V30 6262 H 577.665 2.14278 -1.37684 0
M  V30 6263 H 578.448 1.6929 -2.98657 0
M  V30 6264 N 580.893 1.08022 1.14757 0
M  V30 6265 C 581.843 0.676345 2.17737 0
M  V30 6266 C 582.827 -0.302018 1.5804 0
M  V30 6267 O 584.019 -0.11466 1.76628 0
M  V30 6268 C 581.148 0.082984 3.432 0
M  V30 6269 C 580.234 1.0869 4.09936 0
M  V30 6270 N 580.625 2.26891 4.52055 0
M  V30 6271 C 578.923 0.921768 4.36371 0
M  V30 6272 C 579.624 2.90636 5.0389 0
M  V30 6273 N 578.6 2.18266 4.97856 0
M  V30 6274 H 582.402 1.5765 2.4804 0
M  V30 6275 H 579.916 0.954374 1.31398 0
M  V30 6276 H 581.913 -0.224289 4.16296 0
M  V30 6277 H 580.573 -0.812206 3.14378 0
M  V30 6278 H 581.584 2.6457 4.45223 0
M  V30 6279 H 578.261 0.0800499 4.17423 0
M  V30 6280 H 579.651 3.9104 5.46386 0
M  V30 6281 N 582.371 -1.3172 0.865308 0
M  V30 6282 C 583.782 -1.79104 0.527126 0
M  V30 6283 C 584.133 -1.7135 -0.955695 0
M  V30 6284 O 583.258 -1.27845 -1.74598 0
M  V30 6285 C 583.853 -3.25207 0.950061 0
M  V30 6286 C 582.412 -3.70504 0.663611 0
M  V30 6287 C 581.559 -2.52605 1.14395 0
M  V30 6288 H 584.51 -1.18868 1.05148 0
M  V30 6289 H 584.531 -3.79535 0.270805 0
M  V30 6290 H 584.043 -3.30818 2.02931 0
M  V30 6291 H 582.144 -3.70398 -0.404474 0
M  V30 6292 H 582.257 -4.62845 1.23737 0
M  V30 6293 H 580.621 -2.4838 0.563859 0
M  V30 6294 H 581.404 -2.60964 2.23053 0
M  V30 6295 N 583.85 -0.624285 -1.44708 0
M  V30 6296 C 585.077 -0.132919 -2.06473 0
M  V30 6297 C 585.493 1.18967 -1.46602 0
M  V30 6298 O 584.85 1.72824 -0.586341 0
M  V30 6299 C 584.901 -0.00465418 -3.615 0
M  V30 6300 O 584.622 -1.27494 -4.19138 0
M  V30 6301 C 586.123 0.516213 -4.40284 0
M  V30 6302 H 583.343 -0.0765201 -0.666623 0
M  V30 6303 H 585.887 -0.856751 -1.85688 0
M  V30 6304 H 584.042 0.669583 -3.8157 0
M  V30 6305 H 584.456 -1.11536 -5.12504 0
M  V30 6306 H 585.93 0.554994 -5.49203 0
M  V30 6307 H 586.407 1.5419 -4.11245 0
M  V30 6308 H 587.013 -0.124542 -4.25118 0
M  V30 6309 N 585.328 1.53329 -0.364422 0
M  V30 6310 C 586.576 2.00842 0.225189 0
M  V30 6311 C 586.897 1.25345 1.49378 0
M  V30 6312 O 586.167 0.366396 1.92443 0
M  V30 6313 H 584.747 0.742009 0.0862027 0
M  V30 6314 H 587.409 1.8863 -0.490389 0
M  V30 6315 H 586.505 3.08795 0.452987 0
M  V30 6316 N 586.806 0.0935595 1.57322 0
M  V30 6317 C 588.031 -0.582324 1.99057 0
M  V30 6318 C 588.456 -1.61025 0.972242 0
M  V30 6319 O 587.814 -1.81202 -0.0594622 0
M  V30 6320 C 587.862 -1.20799 3.39765 0
M  V30 6321 O 586.966 -2.32382 3.40694 0
M  V30 6322 H 586.307 -0.147884 0.647323 0
M  V30 6323 H 588.837 0.174516 2.03854 0
M  V30 6324 H 588.847 -1.54966 3.77425 0
M  V30 6325 H 587.522 -0.454914 4.13405 0
M  V30 6326 H 586.099 -1.99845 3.14827 0
M  V30 6327 N 588.284 -1.56567 -0.180126 0
M  V30 6328 C 589.509 -1.85975 -0.918041 0
M  V30 6329 C 589.934 -0.678888 -1.75422 0
M  V30 6330 O 589.292 0.372168 -1.77439 0
M  V30 6331 C 589.34 -3.13731 -1.77779 0
M  V30 6332 O 588.444 -2.95335 -2.87838 0
M  V30 6333 H 587.785 -0.61196 -0.257683 0
M  V30 6334 H 590.315 -2.03798 -0.180923 0
M  V30 6335 H 590.325 -3.4491 -2.17948 0
M  V30 6336 H 589 -3.99293 -1.16352 0
M  V30 6337 H 587.577 -2.7549 -2.51316 0
M  V30 6338 N 589.762 0.448376 -1.51087 0
M  V30 6339 C 590.692 1.55102 -1.74544 0
M  V30 6340 C 591.673 1.59357 -0.594932 0
M  V30 6341 O 592.858 1.75261 -0.836491 0
M  V30 6342 C 589.988 2.93268 -1.86041 0
M  V30 6343 C 588.942 3.03877 -3.01402 0
M  V30 6344 C 588.268 4.43914 -2.98068 0
M  V30 6345 C 589.568 2.7898 -4.41551 0
M  V30 6346 H 591.262 1.35724 -2.66869 0
M  V30 6347 H 588.808 0.651498 -1.28419 0
M  V30 6348 H 590.761 3.70356 -2.01034 0
M  V30 6349 H 589.485 3.13853 -0.903548 0
M  V30 6350 H 588.144 2.29227 -2.86096 0
M  V30 6351 H 587.792 4.6145 -2.00182 0
M  V30 6352 H 587.492 4.51944 -3.75527 0
M  V30 6353 H 589.016 5.22991 -3.1514 0
M  V30 6354 H 590.43 3.45805 -4.57265 0
M  V30 6355 H 588.827 2.98431 -5.20633 0
M  V30 6356 H 589.897 1.74663 -4.5235 0
M  V30 6357 N 591.24 1.41047 0.703093 0
M  V30 6358 C 592.187 1.42302 1.81711 0
M  V30 6359 C 593.157 0.278336 1.63751 0
M  V30 6360 O 594.342 0.478266 1.84709 0
M  V30 6361 C 591.482 1.30362 3.19531 0
M  V30 6362 C 590.595 2.54638 3.48975 0
M  V30 6363 C 589.73 2.35047 4.76368 0
M  V30 6364 C 588.769 3.54837 4.98756 0
M  V30 6365 N 587.906 3.34363 6.1737 0
M  V30 6366 H 592.746 2.37516 1.79973 0
M  V30 6367 H 590.283 1.1795 0.878983 0
M  V30 6368 H 592.241 1.21443 3.99134 0
M  V30 6369 H 590.871 0.387602 3.20464 0
M  V30 6370 H 589.923 2.74037 2.63833 0
M  V30 6371 H 591.235 3.43766 3.61423 0
M  V30 6372 H 590.389 2.23552 5.64012 0
M  V30 6373 H 589.128 1.43363 4.66153 0
M  V30 6374 H 588.133 3.66795 4.09563 0
M  V30 6375 H 589.358 4.47464 5.10835 0
M  V30 6376 H 587.304 2.45373 6.08382 0
M  V30 6377 H 587.221 4.17063 6.30551 0
M  V30 6378 H 588.489 3.26626 7.07768 0
M  V30 6379 N 592.718 -0.936591 1.26751 0
M  V30 6380 C 594.129 -1.49816 1.1141 0
M  V30 6381 C 594.48 -1.9383 -0.304015 0
M  V30 6382 O 593.605 -1.80346 -1.196 0
M  V30 6383 C 594.2 -2.72271 2.01629 0
M  V30 6384 C 592.759 -3.2468 1.9042 0
M  V30 6385 C 591.906 -1.97444 1.94708 0
M  V30 6386 H 594.857 -0.751604 1.39773 0
M  V30 6387 H 594.878 -3.46741 1.56688 0
M  V30 6388 H 594.39 -2.40205 3.04833 0
M  V30 6389 H 592.491 -3.61525 0.901674 0
M  V30 6390 H 592.604 -3.91476 2.76195 0
M  V30 6391 H 590.968 -2.13545 1.38818 0
M  V30 6392 H 591.751 -1.67703 2.9955 0
M  V30 6393 N 594.196 -1.08629 -1.14182 0
M  V30 6394 C 595.443 -0.817345 -1.85272 0
M  V30 6395 C 595.771 0.656917 -1.83071 0
M  V30 6396 O 595.026 1.49897 -1.25815 0
M  V30 6397 C 595.325 -1.28734 -3.3341 0
M  V30 6398 C 594.991 -2.76981 -3.55798 0
M  V30 6399 C 593.653 -3.17469 -3.61617 0
M  V30 6400 C 596.005 -3.72605 -3.64438 0
M  V30 6401 C 593.333 -4.52371 -3.736 0
M  V30 6402 C 595.685 -5.07286 -3.77947 0
M  V30 6403 C 594.349 -5.47376 -3.82016 0
M  V30 6404 H 593.619 -0.299088 -0.677958 0
M  V30 6405 H 596.266 -1.35962 -1.34857 0
M  V30 6406 H 594.571 -0.664702 -3.8612 0
M  V30 6407 H 596.268 -1.05598 -3.86846 0
M  V30 6408 H 592.858 -2.44644 -3.51919 0
M  V30 6409 H 597.042 -3.42443 -3.5923 0
M  V30 6410 H 592.298 -4.82882 -3.75013 0
M  V30 6411 H 596.472 -5.81243 -3.83575 0
M  V30 6412 H 594.099 -6.51906 -3.91054 0
M  V30 6413 N 595.674 1.31259 -0.872281 0
M  V30 6414 C 596.604 2.30929 -0.345554 0
M  V30 6415 C 597.585 1.60449 0.5648 0
M  V30 6416 O 598.77 1.8814 0.481335 0
M  V30 6417 C 595.9 3.44348 0.451823 0
M  V30 6418 C 594.854 4.26435 -0.365641 0
M  V30 6419 C 594.18 5.31785 0.557562 0
M  V30 6420 C 595.48 4.97159 -1.60095 0
M  V30 6421 H 597.174 2.75234 -1.17841 0
M  V30 6422 H 594.72 1.3232 -0.568094 0
M  V30 6423 H 596.673 4.13128 0.830854 0
M  V30 6424 H 595.397 2.98816 1.31821 0
M  V30 6425 H 594.056 3.59326 -0.726649 0
M  V30 6426 H 593.704 4.82502 1.4213 0
M  V30 6427 H 593.404 5.87598 0.0144878 0
M  V30 6428 H 594.928 6.03424 0.933387 0
M  V30 6429 H 596.342 5.58523 -1.29323 0
M  V30 6430 H 594.739 5.62779 -2.08327 0
M  V30 6431 H 595.809 4.24012 -2.35249 0
M  V30 6432 N 597.152 0.631951 1.44375 0
M  V30 6433 C 598.115 -0.0628142 2.29114 0
M  V30 6434 C 599.115 -0.771494 1.41084 0
M  V30 6435 O 600.305 -0.615959 1.62947 0
M  V30 6436 C 597.437 -1.09953 3.22681 0
M  V30 6437 H 598.63 0.682509 2.92031 0
M  V30 6438 H 596.183 0.392128 1.51301 0
M  V30 6439 H 596.918 -1.87481 2.64616 0
M  V30 6440 H 596.703 -0.595286 3.87555 0
M  V30 6441 H 598.193 -1.58538 3.86336 0
M  V30 6442 N 598.631 -1.53133 0.372548 0
M  V30 6443 C 599.861 -2.05476 -0.215202 0
M  V30 6444 C 600.269 -1.24534 -1.42436 0
M  V30 6445 O 599.612 -0.280771 -1.81542 0
M  V30 6446 C 599.674 -3.53276 -0.666068 0
M  V30 6447 C 599.338 -4.54998 0.427342 0
M  V30 6448 C 600.335 -5.03911 1.27944 0
M  V30 6449 C 598.02 -4.98828 0.589579 0
M  V30 6450 C 600.014 -5.95263 2.27905 0
M  V30 6451 C 597.701 -5.89984 1.59255 0
M  V30 6452 C 598.699 -6.38093 2.43571 0
M  V30 6453 O 598.387 -7.27451 3.42156 0
M  V30 6454 H 598.119 -0.67481 -0.040099 0
M  V30 6455 H 600.673 -1.98409 0.531312 0
M  V30 6456 H 598.903 -3.57904 -1.4643 0
M  V30 6457 H 600.592 -3.88442 -1.1776 0
M  V30 6458 H 601.358 -4.70792 1.16532 0
M  V30 6459 H 597.237 -4.60965 -0.0569456 0
M  V30 6460 H 600.781 -6.32736 2.93753 0
M  V30 6461 H 596.678 -6.22518 1.70711 0
M  V30 6462 H 597.446 -7.45467 3.37967 0
M  V30 6463 N 600.109 -0.101901 -1.5727 0
M  V30 6464 C 601.357 0.559091 -1.94213 0
M  V30 6465 C 601.678 1.68297 -0.984948 0
M  V30 6466 O 600.948 1.95863 -0.0381975 0
M  V30 6467 H 599.528 0.20952 -0.717015 0
M  V30 6468 H 602.19 -0.166831 -1.94185 0
M  V30 6469 H 601.286 0.96485 -2.96811 0
M  V30 6470 N 601.587 1.56661 0.17182 0
M  V30 6471 C 602.998 1.71652 0.734329 0
M  V30 6472 C 603.349 0.712335 1.82812 0
M  V30 6473 O 602.474 -0.126401 2.16031 0
M  V30 6474 C 603.069 3.11226 1.3388 0
M  V30 6475 C 601.628 3.27904 1.84813 0
M  V30 6476 C 600.775 2.67603 0.726917 0
M  V30 6477 H 603.726 1.5861 -0.0535665 0
M  V30 6478 H 603.747 3.09849 2.20849 0
M  V30 6479 H 603.259 3.8429 0.54249 0
M  V30 6480 H 601.36 2.59796 2.6709 0
M  V30 6481 H 601.473 4.35637 1.99392 0
M  V30 6482 H 599.837 2.274 1.14723 0
M  V30 6483 H 600.62 3.43252 -0.0575334 0
M  V30 6484 N 603.065 -0.440357 1.51323 0
M  V30 6485 C 604.028 -1.51679 1.71832 0
M  V30 6486 C 605.028 -1.49648 0.588386 0
M  V30 6487 O 606.218 -1.51724 0.855891 0
M  V30 6488 C 603.35 -2.91228 1.77199 0
M  V30 6489 H 604.543 -1.34799 2.67898 0
M  V30 6490 H 602.096 -0.66883 1.41267 0
M  V30 6491 H 602.831 -3.13516 0.829363 0
M  V30 6492 H 602.616 -2.94107 2.59314 0
M  V30 6493 H 604.106 -3.69321 1.94915 0
M  V30 6494 N 604.543 -1.41418 -0.695603 0
M  V30 6495 C 605.792 -1.40073 -1.4513 0
M  V30 6496 C 606.105 -0.0130439 -1.95596 0
M  V30 6497 O 607.311 0.123032 -2.71221 0
M  V30 6498 C 605.767 -2.46286 -2.62433 0
M  V30 6499 C 605.375 -3.90962 -2.18753 0
M  V30 6500 C 607.119 -2.54077 -3.40066 0
M  V30 6501 C 605.026 -4.88728 -3.33015 0
M  V30 6502 H 603.956 -0.520903 -0.545138 0
M  V30 6503 H 606.607 -1.67242 -0.75515 0
M  V30 6504 H 604.989 -2.12248 -3.34315 0
M  V30 6505 H 606.163 -4.34248 -1.54161 0
M  V30 6506 H 604.478 -3.86831 -1.54114 0
M  V30 6507 H 607.075 -3.24303 -4.25125 0
M  V30 6508 H 607.418 -1.5776 -3.8525 0
M  V30 6509 H 607.951 -2.87206 -2.75241 0
M  V30 6510 H 604.69 -5.86449 -2.92844 0
M  V30 6511 H 604.21 -4.50091 -3.96457 0
M  V30 6512 H 605.889 -5.09483 -3.98793 0
M  V30 6513 N 606.021 0.929856 -1.27246 0
M  V30 6514 C 606.931 2.0636 -1.11592 0
M  V30 6515 C 607.947 1.73938 -0.046496 0
M  V30 6516 O 609.123 1.9981 -0.252544 0
M  V30 6517 C 606.188 3.38213 -0.762437 0
M  V30 6518 C 605.249 3.84346 -1.9125 0
M  V30 6519 C 604.482 5.09906 -1.57579 0
M  V30 6520 O 604.705 5.68354 -0.482694 0
M  V30 6521 O 603.639 5.51359 -2.41426 0
M  V30 6522 H 607.465 2.22478 -2.0673 0
M  V30 6523 H 605.05 1.04865 -1.06413 0
M  V30 6524 H 606.932 4.1741 -0.57854 0
M  V30 6525 H 605.607 3.23307 0.159439 0
M  V30 6526 H 604.514 3.06045 -2.15144 0
M  V30 6527 H 605.847 4.0379 -2.81451 0
M  V30 6528 N 607.499 1.09233 1.13605 0
M  V30 6529 C 608.447 0.724572 2.21027 0
M  V30 6530 C 609.441 -0.273595 1.67176 0
M  V30 6531 O 610.647 -0.135266 1.79491 0
M  V30 6532 H 607.022 0.216319 0.720215 0
M  V30 6533 H 608.993 1.63975 2.49309 0
M  V30 6534 C 607.742 0.159126 3.47336 0
M  V30 6535 H 607.065 0.918387 3.89109 0
M  V30 6536 H 608.505 -0.0602851 4.23957 0
M  V30 6537 C 606.964 -1.10514 3.18258 0
M  V30 6538 O 607.494 -2.18869 3.36837 0
M  V30 6539 N 605.7 -1.01886 2.72154 0
M  V30 6540 H 605.247 -0.137027 2.57235 0
M  V30 6541 H 605.205 -1.8655 2.53074 0
M  V30 6542 N 608.977 -1.30795 0.87923 0
M  V30 6543 C 609.91 -2.26396 0.286404 0
M  V30 6544 C 610.888 -1.51528 -0.589748 0
M  V30 6545 O 612.072 -1.80566 -0.541119 0
M  V30 6546 C 609.199 -3.33458 -0.593581 0
M  V30 6547 C 608.245 -4.2597 0.21247 0
M  V30 6548 S 609.078 -5.11132 1.59702 0
M  V30 6549 C 610.234 -6.21705 0.723408 0
M  V30 6550 H 610.467 -2.7633 1.09677 0
M  V30 6551 H 608 -1.38703 0.678305 0
M  V30 6552 H 609.958 -3.9561 -1.09557 0
M  V30 6553 H 608.619 -2.82259 -1.37799 0
M  V30 6554 H 607.812 -5.01907 -0.458822 0
M  V30 6555 H 607.414 -3.68363 0.646883 0
M  V30 6556 H 609.706 -6.77472 -0.0620739 0
M  V30 6557 H 610.649 -6.93007 1.4542 0
M  V30 6558 H 611.057 -5.63771 0.286855 0
M  V30 6559 N 610.455 -0.639598 -1.44038 0
M  V30 6560 C 611.402 0.0602458 -2.30721 0
M  V30 6561 C 612.372 0.828352 -1.43971 0
M  V30 6562 O 613.557 0.807693 -1.72861 0
M  V30 6563 C 610.697 1.03008 -3.29368 0
M  V30 6564 C 609.81 0.259502 -4.3122 0
M  V30 6565 C 608.945 1.22191 -5.16955 0
M  V30 6566 C 607.984 0.440978 -6.10509 0
M  V30 6567 N 607.121 1.35428 -6.88915 0
M  V30 6568 H 611.961 -0.684867 -2.90023 0
M  V30 6569 H 609.498 -0.349509 -1.42888 0
M  V30 6570 H 611.456 1.60583 -3.85057 0
M  V30 6571 H 610.086 1.74222 -2.71747 0
M  V30 6572 H 609.138 -0.432317 -3.77935 0
M  V30 6573 H 610.45 -0.348347 -4.97582 0
M  V30 6574 H 609.604 1.86873 -5.77203 0
M  V30 6575 H 608.343 1.86367 -4.50687 0
M  V30 6576 H 607.348 -0.219279 -5.49363 0
M  V30 6577 H 608.573 -0.196192 -6.78817 0
M  V30 6578 H 606.519 1.9831 -6.25307 0
M  V30 6579 H 606.436 0.800657 -7.51748 0
M  V30 6580 H 607.704 1.98967 -7.53679 0
M  V30 6581 N 611.933 1.52934 -0.380664 0
M  V30 6582 C 613.179 2.02443 0.197089 0
M  V30 6583 C 613.534 1.26249 1.45186 0
M  V30 6584 O 612.827 0.351964 1.8834 0
M  V30 6585 C 613.021 3.5349 0.527199 0
M  V30 6586 C 612.85 4.44312 -0.694027 0
M  V30 6587 C 611.62 4.90582 -1.21068 0
M  V30 6588 C 613.818 4.8995 -1.56377 0
M  V30 6589 N 611.8 5.65451 -2.39036 0
M  V30 6590 C 613.171 5.63313 -2.58995 0
M  V30 6591 C 615.226 4.72002 -1.58488 0
M  V30 6592 C 613.929 6.20635 -3.63599 0
M  V30 6593 C 615.955 5.30201 -2.61995 0
M  V30 6594 C 615.317 6.03463 -3.63335 0
M  V30 6595 H 611.416 0.781241 0.0344357 0
M  V30 6596 H 614 1.87387 -0.528609 0
M  V30 6597 H 612.171 3.68677 1.22196 0
M  V30 6598 H 613.903 3.89707 1.09135 0
M  V30 6599 H 610.658 4.67249 -0.772995 0
M  V30 6600 H 611.082 6.07541 -2.98701 0
M  V30 6601 H 615.724 4.14873 -0.814891 0
M  V30 6602 H 613.442 6.76852 -4.41472 0
M  V30 6603 H 617.028 5.182 -2.645 0
M  V30 6604 H 615.908 6.47693 -4.42113 0
M  V30 6605 N 613.412 0.11024 1.57214 0
M  V30 6606 C 614.375 -0.828808 2.1369 0
M  V30 6607 C 615.375 -1.20059 1.06969 0
M  V30 6608 O 616.565 -1.12754 1.32786 0
M  V30 6609 C 613.697 -2.11959 2.66994 0
M  V30 6610 H 614.89 -0.338146 2.97988 0
M  V30 6611 H 612.443 -0.138913 1.55681 0
M  V30 6612 H 613.178 -2.65476 1.8626 0
M  V30 6613 H 612.963 -1.86258 3.45037 0
M  V30 6614 H 614.453 -2.79105 3.10629 0
M  V30 6615 N 614.89 -1.56749 -0.16351 0
M  V30 6616 C 616.118 -1.86577 -0.894233 0
M  V30 6617 C 616.533 -0.696543 -1.75481 0
M  V30 6618 O 615.89 0.334161 -1.79415 0
M  V30 6619 C 615.941 -3.15508 -1.76456 0
M  V30 6620 O 615.662 -4.27926 -0.938685 0
M  V30 6621 C 617.163 -3.58737 -2.60428 0
M  V30 6622 H 614.383 -0.618829 -0.259405 0
M  V30 6623 H 616.927 -2.03863 -0.161259 0
M  V30 6624 H 615.082 -3.00025 -2.45079 0
M  V30 6625 H 615.496 -5.01546 -1.53465 0
M  V30 6626 H 616.97 -4.51832 -3.17099 0
M  V30 6627 H 617.447 -2.83229 -3.35675 0
M  V30 6628 H 618.053 -3.76858 -1.97125 0
M  V30 6629 N 616.368 0.432326 -1.51554 0
M  V30 6630 C 617.316 1.54572 -1.73811 0
M  V30 6631 C 618.31 1.58246 -0.604539 0
M  V30 6632 O 619.516 1.6193 -0.786041 0
M  V30 6633 H 615.891 0.513626 -0.549265 0
M  V30 6634 H 617.862 1.32977 -2.67132 0
M  V30 6635 C 616.611 2.92181 -1.88483 0
M  V30 6636 H 615.934 2.90088 -2.75116 0
M  V30 6637 H 617.374 3.69439 -2.08065 0
M  V30 6638 C 615.833 3.3065 -0.645909 0
M  V30 6639 O 616.363 4.01216 0.197093 0
M  V30 6640 N 614.569 2.86464 -0.488538 0
M  V30 6641 H 614.116 2.29209 -1.17562 0
M  V30 6642 H 614.074 3.12565 0.339156 0
M  V30 6643 N 617.846 1.41785 0.688094 0
M  V30 6644 C 618.796 1.40684 1.79421 0
M  V30 6645 C 619.78 0.280096 1.58443 0
M  V30 6646 O 620.972 0.521332 1.69148 0
M  V30 6647 C 618.101 1.29874 3.17785 0
M  V30 6648 C 617.187 2.47442 3.44432 0
M  V30 6649 N 617.578 3.72895 3.41736 0
M  V30 6650 C 615.876 2.41416 3.75013 0
M  V30 6651 C 616.577 4.50912 3.67496 0
M  V30 6652 N 615.553 3.81131 3.87608 0
M  V30 6653 H 619.355 2.35591 1.7571 0
M  V30 6654 H 616.869 1.35946 0.888393 0
M  V30 6655 H 618.866 1.27168 3.97031 0
M  V30 6656 H 617.526 0.359587 3.22703 0
M  V30 6657 H 618.537 4.05676 3.21943 0
M  V30 6658 H 615.214 1.56011 3.87256 0
M  V30 6659 H 616.604 5.59865 3.71484 0
M  V30 6660 N 619.324 -0.923095 1.27737 0
M  V30 6661 C 620.287 -2.00587 1.10894 0
M  V30 6662 C 621.287 -1.60718 0.0514927 0
M  V30 6663 O 622.477 -1.71658 0.296481 0
M  V30 6664 C 619.609 -3.33829 0.690717 0
M  V30 6665 H 620.802 -2.16959 2.07048 0
M  V30 6666 H 618.355 -1.10451 1.1059 0
M  V30 6667 H 619.09 -3.23157 -0.272 0
M  V30 6668 H 618.875 -3.64125 1.45448 0
M  V30 6669 H 620.365 -4.13336 0.595252 0
M  V30 6670 N 620.802 -1.09834 -1.13024 0
M  V30 6671 C 622.051 -0.831806 -1.83749 0
M  V30 6672 C 622.364 0.644763 -1.84668 0
M  V30 6673 O 623.57 1.02697 -2.51327 0
M  V30 6674 C 622.026 -1.43817 -3.29916 0
M  V30 6675 C 621.634 -2.94759 -3.37374 0
M  V30 6676 C 623.378 -1.25077 -4.05655 0
M  V30 6677 C 621.285 -3.48461 -4.77838 0
M  V30 6678 H 620.215 -0.30751 -0.688443 0
M  V30 6679 H 622.866 -1.32156 -1.27307 0
M  V30 6680 H 621.248 -0.876106 -3.86187 0
M  V30 6681 H 622.422 -3.57228 -2.91076 0
M  V30 6682 H 620.737 -3.12581 -2.75103 0
M  V30 6683 H 623.334 -1.62649 -5.09362 0
M  V30 6684 H 623.677 -0.191782 -4.15858 0
M  V30 6685 H 624.21 -1.78057 -3.55725 0
M  V30 6686 H 620.949 -4.53998 -4.72828 0
M  V30 6687 H 620.469 -2.90757 -5.24615 0
M  V30 6688 H 622.148 -3.45914 -5.46766 0
M  V30 6689 N 622.28 1.30327 -0.886154 0
M  V30 6690 C 623.212 2.27079 -0.311072 0
M  V30 6691 C 624.225 1.53758 0.53502 0
M  V30 6692 O 625.414 1.74947 0.354378 0
M  V30 6693 C 622.514 3.33965 0.576228 0
M  V30 6694 C 621.687 4.36735 -0.241064 0
M  V30 6695 C 620.746 5.23028 0.576916 0
M  V30 6696 O 619.772 5.692 -0.000802231 0
M  V30 6697 N 620.974 5.49016 1.88579 0
M  V30 6698 H 623.739 2.77065 -1.14259 0
M  V30 6699 H 621.3 1.43519 -0.749258 0
M  V30 6700 H 623.292 3.88618 1.12953 0
M  V30 6701 H 621.862 2.839 1.30842 0
M  V30 6702 H 621.082 3.81932 -0.975805 0
M  V30 6703 H 622.37 5.02451 -0.801272 0
M  V30 6704 H 621.768 5.13288 2.37806 0
M  V30 6705 H 620.325 6.06539 2.38651 0
M  V30 6706 N 623.758 0.647228 1.43697 0
M  V30 6707 C 625.035 0.0883758 1.954 0
M  V30 6708 C 625.415 -1.39006 1.58873 0
M  V30 6709 O 624.763 -2.11255 0.87083 0
M  V30 6710 C 624.973 0.328263 3.47453 0
M  V30 6711 C 626.321 0.230009 4.23977 0
M  V30 6712 O 627.345 0.260496 3.55246 0
M  V30 6713 O 626.204 0.148615 5.46298 0
M  V30 6714 H 623.298 -0.0130683 0.826897 0
M  V30 6715 H 625.844 0.72005 1.53666 0
M  V30 6716 H 624.616 1.3535 3.67146 0
M  V30 6717 H 624.239 -0.336772 3.96171 0
M  V30 6718 N 625.236 -1.5273 0.388769 0
M  V30 6719 C 626.146 -2.30165 -0.453993 0
M  V30 6720 C 627.162 -1.37058 -1.07197 0
M  V30 6721 O 628.338 -1.70127 -1.0779 0
M  V30 6722 C 625.403 -3.09303 -1.56628 0
M  V30 6723 C 624.464 -4.18117 -0.973467 0
M  V30 6724 C 623.697 -4.93472 -2.03275 0
M  V30 6725 O 623.92 -4.68913 -3.24772 0
M  V30 6726 O 622.854 -5.78833 -1.65034 0
M  V30 6727 H 626.68 -3.03185 0.176816 0
M  V30 6728 H 624.265 -1.4862 0.152501 0
M  V30 6729 H 626.147 -3.58648 -2.21246 0
M  V30 6730 H 624.822 -2.39098 -2.18206 0
M  V30 6731 H 623.729 -3.7297 -0.290556 0
M  V30 6732 H 625.062 -4.90556 -0.401908 0
M  V30 6733 N 626.714 -0.118576 -1.57153 0
M  V30 6734 C 627.939 0.550582 -1.99958 0
M  V30 6735 C 628.364 1.59458 -0.997736 0
M  V30 6736 O 627.722 1.81274 0.0306269 0
M  V30 6737 C 627.77 1.15379 -3.41643 0
M  V30 6738 O 626.874 2.26932 -3.44348 0
M  V30 6739 H 626.215 0.137567 -0.649593 0
M  V30 6740 H 628.745 -0.206926 -2.03551 0
M  V30 6741 H 628.755 1.48942 -3.79843 0
M  V30 6742 H 627.43 0.389087 -4.14076 0
M  V30 6743 H 626.007 1.94812 -3.17967 0
M  V30 6744 N 628.193 1.56834 0.155195 0
M  V30 6745 C 629.418 1.87412 0.888337 0
M  V30 6746 C 629.843 0.70671 1.74319 0
M  V30 6747 O 629.201 -0.343892 1.78009 0
M  V30 6748 C 629.249 3.1652 1.72765 0
M  V30 6749 O 628.353 2.99877 2.83103 0
M  V30 6750 H 627.694 0.615983 0.247914 0
M  V30 6751 H 630.224 2.04061 0.148478 0
M  V30 6752 H 630.234 3.48334 2.12433 0
M  V30 6753 H 628.909 4.01094 1.09985 0
M  V30 6754 H 627.486 2.79453 2.46902 0
M  V30 6755 N 629.671 -0.424282 1.51781 0
M  V30 6756 C 630.901 -1.19297 1.68677 0
M  V30 6757 C 631.309 -1.85152 0.389258 0
M  V30 6758 O 630.652 -1.72067 -0.643311 0
M  V30 6759 C 630.714 -2.30929 2.75521 0
M  V30 6760 C 630.378 -1.85335 4.17732 0
M  V30 6761 C 631.375 -1.34951 5.0208 0
M  V30 6762 C 629.06 -1.92629 4.63896 0
M  V30 6763 C 631.054 -0.924636 6.30658 0
M  V30 6764 C 628.741 -1.49754 5.92467 0
M  V30 6765 C 629.739 -0.997543 6.75676 0
M  V30 6766 O 629.427 -0.57492 8.01842 0
M  V30 6767 H 629.159 -0.36512 0.568914 0
M  V30 6768 H 631.713 -0.507327 1.99036 0
M  V30 6769 H 629.943 -3.02811 2.40505 0
M  V30 6770 H 631.632 -2.92748 2.81165 0
M  V30 6771 H 632.398 -1.287 4.67612 0
M  V30 6772 H 628.277 -2.30491 3.99243 0
M  V30 6773 H 631.821 -0.533682 6.95556 0
M  V30 6774 H 627.718 -1.55679 6.26446 0
M  V30 6775 H 628.486 -0.699597 8.15505 0
M  V30 6776 N 631.149 -1.42148 -0.680565 0
M  V30 6777 C 632.081 -1.41119 -1.80605 0
M  V30 6778 C 633.094 -0.311099 -1.598 0
M  V30 6779 O 634.283 -0.573813 -1.69026 0
M  V30 6780 C 631.383 -1.18204 -3.17618 0
M  V30 6781 C 630.556 -2.40537 -3.65322 0
M  V30 6782 C 629.615 -2.13254 -4.8105 0
M  V30 6783 O 628.641 -2.8641 -4.91892 0
M  V30 6784 N 629.843 -1.13208 -5.69354 0
M  V30 6785 H 632.608 -2.38128 -1.81975 0
M  V30 6786 H 630.169 -1.36953 -0.863446 0
M  V30 6787 H 632.161 -0.97878 -3.92686 0
M  V30 6788 H 630.731 -0.29738 -3.11182 0
M  V30 6789 H 629.951 -2.76468 -2.80996 0
M  V30 6790 H 631.239 -3.22012 -3.93936 0
M  V30 6791 H 630.637 -0.526893 -5.63241 0
M  V30 6792 H 629.194 -0.988699 -6.44258 0
M  V30 6793 N 632.627 0.916307 -1.28225 0
M  V30 6794 C 633.873 1.66765 -1.154 0
M  V30 6795 C 634.206 1.91912 0.297251 0
M  V30 6796 O 633.481 1.51766 1.21644 0
M  V30 6797 C 633.764 3.02715 -1.95028 0
M  V30 6798 C 633.617 2.84738 -3.48201 0
M  V30 6799 C 634.936 4.03215 -1.76369 0
M  V30 6800 H 632.055 0.605205 -0.42059 0
M  V30 6801 H 634.697 1.06255 -1.57512 0
M  V30 6802 H 632.847 3.54365 -1.59242 0
M  V30 6803 H 634.519 2.40118 -3.9388 0
M  V30 6804 H 632.762 2.19848 -3.73964 0
M  V30 6805 H 633.433 3.8127 -3.99171 0
M  V30 6806 H 635.909 3.60617 -2.07593 0
M  V30 6807 H 634.785 4.96306 -2.34459 0
M  V30 6808 H 635.046 4.36288 -0.71452 0
M  V30 6809 N 634.105 1.10431 1.1244 0
M  V30 6810 C 635.382 0.758797 1.80282 0
M  V30 6811 C 635.762 -0.754727 1.97147 0
M  V30 6812 O 635.11 -1.68094 1.54779 0
M  V30 6813 C 635.32 1.50982 3.14651 0
M  V30 6814 C 636.668 1.68232 3.8985 0
M  V30 6815 O 637.692 1.47319 3.24308 0
M  V30 6816 O 636.551 2.02905 5.07437 0
M  V30 6817 H 633.645 0.273756 0.780376 0
M  V30 6818 H 636.191 1.20713 1.19275 0
M  V30 6819 H 634.963 2.53989 2.97666 0
M  V30 6820 H 634.586 1.05435 3.83366 0
M  V30 6821 N 635.583 -1.29855 0.893053 0
M  V30 6822 C 636.831 -1.9544 0.514566 0
M  V30 6823 C 637.152 -1.70795 -0.940959 0
M  V30 6824 O 636.422 -1.03601 -1.66264 0
M  V30 6825 H 635.002 -0.723137 0.187302 0
M  V30 6826 H 637.664 -1.58234 1.13789 0
M  V30 6827 H 636.76 -3.04341 0.691581 0
M  V30 6828 N 637.061 -0.65484 -1.43351 0
M  V30 6829 C 638.286 -0.175046 -2.0666 0
M  V30 6830 C 638.711 1.15104 -1.4877 0
M  V30 6831 O 638.069 1.71144 -0.598279 0
M  V30 6832 C 638.117 -0.0991544 -3.60464 0
M  V30 6833 O 637.221 0.938169 -4.01587 0
M  V30 6834 H 636.562 -0.0956148 -0.65708 0
M  V30 6835 H 639.092 -0.898222 -1.83829 0
M  V30 6836 H 639.102 0.083632 -4.07914 0
M  V30 6837 H 637.777 -1.06719 -4.01975 0
M  V30 6838 H 636.354 0.72804 -3.65724 0
M  V30 6839 N 638.539 1.52521 -0.396863 0
M  V30 6840 C 639.767 2.06091 0.18275 0
M  V30 6841 C 640.182 1.26796 1.39886 0
M  V30 6842 O 639.539 0.316585 1.79733 0
M  V30 6843 C 639.59 3.57362 0.545377 0
M  V30 6844 O 639.311 4.33656 -0.622428 0
M  V30 6845 C 640.812 4.27305 1.18004 0
M  V30 6846 H 638.032 0.670504 0.025789 0
M  V30 6847 H 640.576 1.96561 -0.564276 0
M  V30 6848 H 638.731 3.66941 1.2423 0
M  V30 6849 H 639.145 5.23507 -0.322662 0
M  V30 6850 H 640.619 5.34366 1.38408 0
M  V30 6851 H 641.096 3.83 2.1496 0
M  V30 6852 H 641.702 4.22064 0.523671 0
M  V30 6853 N 640.017 0.126909 1.57088 0
M  V30 6854 C 641.264 -0.529168 1.95464 0
M  V30 6855 C 641.592 -1.6618 1.01067 0
M  V30 6856 O 640.847 -1.95667 0.0360254 0
M  V30 6857 C 641.146 -1.095 3.40212 0
M  V30 6858 C 640.812 -0.0829015 4.50824 0
M  V30 6859 C 639.474 0.195377 4.80803 0
M  V30 6860 C 641.826 0.606411 5.1766 0
M  V30 6861 C 639.154 1.16912 5.74933 0
M  V30 6862 C 641.506 1.56884 6.12838 0
M  V30 6863 C 640.17 1.85502 6.41206 0
M  V30 6864 H 639.44 -0.193636 0.715252 0
M  V30 6865 H 642.087 0.209489 1.90351 0
M  V30 6866 H 640.392 -1.91058 3.42059 0
M  V30 6867 H 642.089 -1.61087 3.67222 0
M  V30 6868 H 638.679 -0.309979 4.27478 0
M  V30 6869 H 642.863 0.404597 4.94648 0
M  V30 6870 H 638.119 1.3975 5.95214 0
M  V30 6871 H 642.293 2.10859 6.6371 0
M  V30 6872 H 639.92 2.61109 7.13951 0
M  V30 6873 N 641.495 -1.56914 -0.146875 0
M  V30 6874 C 642.911 -1.51582 -0.499518 0
M  V30 6875 C 643.111 -0.83535 -1.83369 0
M  V30 6876 O 642.167 -0.405932 -2.49216 0
M  V30 6877 C 643.48 -2.96349 -0.509711 0
M  V30 6878 C 645.028 -3.07288 -0.595217 0
M  V30 6879 C 645.503 -4.53562 -0.636071 0
M  V30 6880 N 646.994 -4.57906 -0.69829 0
M  V30 6881 C 647.729 -5.68462 -0.750886 0
M  V30 6882 N 647.225 -6.88588 -0.76282 0
M  V30 6883 N 649.018 -5.56496 -0.791777 0
M  V30 6884 H 641.169 -1.99547 0.727656 0
M  V30 6885 H 643.432 -0.910113 0.265327 0
M  V30 6886 H 643.138 -3.4939 0.402409 0
M  V30 6887 H 643.012 -3.52307 -1.34758 0
M  V30 6888 H 645.399 -2.54266 -1.49776 0
M  V30 6889 H 645.48 -2.54373 0.2698 0
M  V30 6890 H 645.124 -5.07222 0.262313 0
M  V30 6891 H 645.054 -5.04259 -1.51758 0
M  V30 6892 H 647.545 -3.71429 -0.696362 0
M  V30 6893 H 647.858 -7.68598 -0.804804 0
M  V30 6894 H 646.203 -6.91148 -0.730694 0
M  V30 6895 H 649.394 -4.61562 -0.779624 0
M  V30 6896 H 649.567 -6.42671 -0.829301 0
M  V30 6897 N 642.974 0.416227 -1.52004 0
M  V30 6898 C 643.922 1.5272 -1.7544 0
M  V30 6899 C 644.916 1.57596 -0.621289 0
M  V30 6900 O 646.122 1.61087 -0.803172 0
M  V30 6901 H 642.497 0.507772 -0.554682 0
M  V30 6902 H 644.468 1.30136 -2.68528 0
M  V30 6903 C 643.217 2.90165 -1.91571 0
M  V30 6904 H 642.54 2.87154 -2.78178 0
M  V30 6905 H 643.98 3.67211 -2.11972 0
M  V30 6906 C 642.439 3.29947 -0.680942 0
M  V30 6907 O 642.969 4.01403 0.154527 0
M  V30 6908 N 641.175 2.8593 -0.518894 0
M  V30 6909 H 640.722 2.2795 -1.19986 0
M  V30 6910 H 640.68 3.12907 0.305985 0
M  V30 6911 N 644.452 1.42507 0.673017 0
M  V30 6912 C 645.682 1.46261 1.45916 0
M  V30 6913 C 646.09 0.0729724 1.89059 0
M  V30 6914 O 645.433 -0.922987 1.58829 0
M  V30 6915 C 645.495 2.32853 2.73898 0
M  V30 6916 C 645.159 3.80699 2.52819 0
M  V30 6917 C 646.156 4.72307 2.17306 0
M  V30 6918 C 643.841 4.24983 2.67758 0
M  V30 6919 C 645.835 6.06192 1.97003 0
M  V30 6920 C 643.522 5.58927 2.4707 0
M  V30 6921 C 644.52 6.49348 2.11746 0
M  V30 6922 O 644.208 7.80817 1.91259 0
M  V30 6923 H 643.94 0.499561 0.455428 0
M  V30 6924 H 646.494 1.87697 0.834196 0
M  V30 6925 H 644.724 1.86268 3.38882 0
M  V30 6926 H 646.413 2.28041 3.35786 0
M  V30 6927 H 647.179 4.39378 2.05359 0
M  V30 6928 H 643.058 3.54893 2.94231 0
M  V30 6929 H 646.602 6.76731 1.69355 0
M  V30 6930 H 642.499 5.91429 2.58615 0
M  V30 6931 H 643.267 7.92194 2.05843 0
M  V30 6932 N 645.93 -0.909495 1.28709 0
M  V30 6933 C 647.207 -1.63865 1.06806 0
M  V30 6934 C 647.587 -2.07445 -0.391143 0
M  V30 6935 O 646.935 -1.82269 -1.37805 0
M  V30 6936 C 647.145 -2.82692 2.04661 0
M  V30 6937 C 648.493 -3.5361 2.35042 0
M  V30 6938 O 649.517 -2.92847 2.02779 0
M  V30 6939 O 648.376 -4.63131 2.90124 0
M  V30 6940 H 645.47 -0.719065 0.408502 0
M  V30 6941 H 648.016 -0.958424 1.40044 0
M  V30 6942 H 646.788 -2.47614 3.0299 0
M  V30 6943 H 646.411 -3.58426 1.72095 0
M  V30 6944 N 647.408 -1.11026 -1.11852 0
M  V30 6945 C 648.636 -0.878818 -1.87308 0
M  V30 6946 C 649.051 0.57111 -1.79955 0
M  V30 6947 O 648.408 1.39409 -1.17777 0
M  V30 6948 C 648.459 -1.3264 -3.36287 0
M  V30 6949 O 648.18 -2.71948 -3.43476 0
M  V30 6950 C 649.681 -1.12974 -4.28663 0
M  V30 6951 H 646.901 -0.315015 -0.592458 0
M  V30 6952 H 649.445 -1.47649 -1.41492 0
M  V30 6953 H 647.6 -0.772269 -3.79625 0
M  V30 6954 H 648.014 -2.91241 -4.3621 0
M  V30 6955 H 649.488 -1.49198 -5.31454 0
M  V30 6956 H 649.965 -0.0689127 -4.39146 0
M  V30 6957 H 650.571 -1.67064 -3.91113 0
M  V30 6958 N 648.886 1.2938 -0.899927 0
M  V30 6959 C 649.833 2.27713 -0.376243 0
M  V30 6960 C 650.803 1.57016 0.541774 0
M  V30 6961 O 651.988 1.84997 0.466966 0
M  V30 6962 C 649.128 3.42889 0.39 0
M  V30 6963 C 648.241 4.28369 -0.558938 0
M  V30 6964 C 647.376 5.30726 0.224379 0
M  V30 6965 C 646.415 6.07862 -0.719068 0
M  V30 6966 N 645.552 7.02094 0.0298569 0
M  V30 6967 H 650.392 2.71888 -1.21988 0
M  V30 6968 H 647.929 1.33724 -0.612879 0
M  V30 6969 H 649.887 4.08443 0.850314 0
M  V30 6970 H 648.517 2.99743 1.19809 0
M  V30 6971 H 647.569 3.62986 -1.13777 0
M  V30 6972 H 648.881 4.82068 -1.2811 0
M  V30 6973 H 648.035 6.02098 0.745881 0
M  V30 6974 H 646.774 4.77759 0.979674 0
M  V30 6975 H 645.779 5.35353 -1.25207 0
M  V30 6976 H 647.004 6.62917 -1.4737 0
M  V30 6977 H 644.95 6.51496 0.767415 0
M  V30 6978 H 644.867 7.5335 -0.632391 0
M  V30 6979 H 646.135 7.77685 0.531615 0
M  V30 6980 N 650.364 0.662433 1.43002 0
M  V30 6981 C 651.589 0.186003 2.06564 0
M  V30 6982 C 652.014 -1.14314 1.49379 0
M  V30 6983 O 651.372 -1.70824 0.607346 0
M  V30 6984 C 651.42 0.118269 3.60406 0
M  V30 6985 O 650.524 -0.916859 4.02079 0
M  V30 6986 H 649.865 0.0990981 0.656563 0
M  V30 6987 H 652.395 0.907958 1.8335 0
M  V30 6988 H 652.405 -0.0619981 4.07953 0
M  V30 6989 H 651.08 1.08849 4.01403 0
M  V30 6990 H 649.657 -0.708635 3.66105 0
M  V30 6991 N 651.842 -1.52309 0.404946 0
M  V30 6992 C 652.792 -2.23717 -0.439864 0
M  V30 6993 C 653.776 -1.24692 -1.0169 0
M  V30 6994 O 654.968 -1.49951 -0.940409 0
M  V30 6995 C 652.097 -3.05898 -1.55825 0
M  V30 6996 C 651.183 -4.12331 -0.992188 0
M  V30 6997 N 651.574 -5.0557 -0.152424 0
M  V30 6998 C 649.872 -4.2774 -1.26312 0
M  V30 6999 C 650.573 -5.81474 0.162041 0
M  V30 7000 N 649.549 -5.41767 -0.44601 0
M  V30 7001 H 653.351 -2.93162 0.208084 0
M  V30 7002 H 650.865 -1.60969 0.215131 0
M  V30 7003 H 652.862 -3.55605 -2.17603 0
M  V30 7004 H 651.522 -2.37991 -2.20886 0
M  V30 7005 H 652.533 -5.17468 0.211556 0
M  V30 7006 H 649.21 -3.71062 -1.91362 0
M  V30 7007 H 650.6 -6.66585 0.843423 0
M  V30 7008 N 653.32 -0.135238 -1.57019 0
M  V30 7009 C 654.568 0.51777 -1.95355 0
M  V30 7010 C 654.889 1.6617 -1.02042 0
M  V30 7011 O 654.159 1.95738 -0.0797343 0
M  V30 7012 H 652.739 0.194264 -0.721298 0
M  V30 7013 H 655.401 -0.207983 -1.93787 0
M  V30 7014 H 654.497 0.901675 -2.98791 0
M  V30 7015 N 654.798 1.5699 0.138552 0
M  V30 7016 C 656.026 1.87976 0.864437 0
M  V30 7017 C 656.441 0.724372 1.74351 0
M  V30 7018 O 655.798 -0.305575 1.79924 0
M  V30 7019 C 655.849 3.18276 1.71414 0
M  V30 7020 O 655.57 4.29365 0.870487 0
M  V30 7021 C 657.071 3.62834 2.54688 0
M  V30 7022 H 654.291 0.622878 0.249528 0
M  V30 7023 H 656.835 2.04094 0.128805 0
M  V30 7024 H 654.99 3.03886 2.40274 0
M  V30 7025 H 655.404 5.03924 1.45466 0
M  V30 7026 H 656.878 4.5682 3.0987 0
M  V30 7027 H 657.355 2.88533 3.31127 0
M  V30 7028 H 657.961 3.79946 1.91105 0
M  V30 7029 N 656.276 -0.40816 1.52223 0
M  V30 7030 C 657.522 -1.15673 1.66576 0
M  V30 7031 C 657.855 -1.90141 0.394996 0
M  V30 7032 O 657.13 -1.84798 -0.606613 0
M  V30 7033 C 657.413 -2.15042 2.88841 0
M  V30 7034 C 657.266 -1.44465 4.25969 0
M  V30 7035 C 658.585 -3.15699 3.0663 0
M  V30 7036 H 655.704 -0.41916 0.606196 0
M  V30 7037 H 658.346 -0.442348 1.84779 0
M  V30 7038 H 656.496 -2.75964 2.73452 0
M  V30 7039 H 658.168 -0.866544 4.53088 0
M  V30 7040 H 656.411 -0.746612 4.27327 0
M  V30 7041 H 657.082 -2.16976 5.07568 0
M  V30 7042 H 659.558 -2.64854 3.20923 0
M  V30 7043 H 658.434 -3.82491 3.9369 0
M  V30 7044 H 658.695 -3.83481 2.19987 0
M  V30 7045 N 657.755 -1.42862 -0.66545 0
M  V30 7046 C 658.98 -1.47456 -1.45848 0
M  V30 7047 C 659.405 -0.0900312 -1.87884 0
M  V30 7048 O 658.763 0.913587 -1.56599 0
M  V30 7049 C 658.811 -2.41514 -2.67774 0
M  V30 7050 O 657.915 -1.89296 -3.66389 0
M  V30 7051 H 657.256 -0.499236 -0.437789 0
M  V30 7052 H 659.786 -1.8765 -0.815394 0
M  V30 7053 H 659.796 -2.58409 -3.15735 0
M  V30 7054 H 658.471 -3.42099 -2.36519 0
M  V30 7055 H 657.048 -1.82003 -3.25468 0
M  V30 7056 N 659.233 0.902656 -1.29189 0
M  V30 7057 C 660.482 1.6475 -1.16362 0
M  V30 7058 C 660.795 1.93517 0.284682 0
M  V30 7059 O 662.001 2.66192 0.534229 0
M  V30 7060 C 660.457 2.96848 -2.03493 0
M  V30 7061 C 660.065 2.75687 -3.5313 0
M  V30 7062 C 661.809 3.74762 -1.99383 0
M  V30 7063 C 659.716 4.03492 -4.32375 0
M  V30 7064 H 658.646 0.618041 -0.431904 0
M  V30 7065 H 661.297 1.0008 -1.53806 0
M  V30 7066 H 659.679 3.62715 -1.58916 0
M  V30 7067 H 660.853 2.18431 -4.05739 0
M  V30 7068 H 659.168 2.11171 -3.58881 0
M  V30 7069 H 661.765 4.69515 -2.5585 0
M  V30 7070 H 662.108 4.04767 -0.973123 0
M  V30 7071 H 662.641 3.15732 -2.41988 0
M  V30 7072 H 659.38 3.78656 -5.3507 0
M  V30 7073 H 658.9 4.60318 -3.84535 0
M  V30 7074 H 660.579 4.71662 -4.42881 0
M  V30 7075 N 660.711 1.11618 1.11262 0
M  V30 7076 C 661.941 0.88745 1.86569 0
M  V30 7077 C 662.349 -0.56636 1.80524 0
M  V30 7078 O 661.692 -1.40289 1.18594 0
M  V30 7079 C 661.754 1.27313 3.36202 0
M  V30 7080 C 661.418 2.73649 3.66013 0
M  V30 7081 C 662.415 3.71863 3.63337 0
M  V30 7082 C 660.1 3.10342 3.9496 0
M  V30 7083 C 662.094 5.04788 3.89188 0
M  V30 7084 C 659.781 4.43451 4.20469 0
M  V30 7085 C 660.779 5.40484 4.17572 0
M  V30 7086 O 660.467 6.71195 4.42439 0
M  V30 7087 H 660.199 0.317543 0.596777 0
M  V30 7088 H 662.753 1.48768 1.41624 0
M  V30 7089 H 660.983 0.616062 3.81761 0
M  V30 7090 H 662.672 1.01991 3.92877 0
M  V30 7091 H 663.438 3.44861 3.41022 0
M  V30 7092 H 659.317 2.35431 3.9635 0
M  V30 7093 H 662.861 5.80516 3.86842 0
M  V30 7094 H 658.758 4.70187 4.42261 0
M  V30 7095 H 659.526 6.77012 4.59997 0
M  V30 7096 N 662.189 -1.289 0.906776 0
M  V30 7097 C 663.466 -1.90221 0.455537 0
M  V30 7098 C 663.846 -1.82251 -1.06527 0
M  V30 7099 O 663.194 -1.25385 -1.91026 0
M  V30 7100 C 663.404 -3.35015 0.97806 0
M  V30 7101 C 664.752 -4.12018 1.02598 0
M  V30 7102 O 665.776 -3.43947 0.926218 0
M  V30 7103 O 664.635 -5.33677 1.17689 0
M  V30 7104 H 661.729 -0.814505 0.143214 0
M  V30 7105 H 664.275 -1.37317 0.997104 0
M  V30 7106 H 663.047 -3.35006 2.02204 0
M  V30 7107 H 662.67 -3.95408 0.416914 0
M  V30 7108 N 663.667 -0.670007 -1.42649 0
M  V30 7109 C 664.63 0.00204659 -2.292 0
M  V30 7110 C 665.63 0.733817 -1.4308 0
M  V30 7111 O 666.82 0.57254 -1.64522 0
M  V30 7112 C 663.952 1.01359 -3.25483 0
M  V30 7113 H 665.145 -0.759696 -2.90118 0
M  V30 7114 H 662.698 -0.432105 -1.50208 0
M  V30 7115 H 663.433 1.80399 -2.69493 0
M  V30 7116 H 663.218 0.492323 -3.88997 0
M  V30 7117 H 664.708 1.4824 -3.90403 0
M  V30 7118 N 665.145 1.52092 -0.413018 0
M  V30 7119 C 666.075 2.30021 0.401567 0
M  V30 7120 C 667.056 1.34395 1.04269 0
M  V30 7121 O 668.241 1.63304 1.05097 0
M  V30 7122 C 665.371 3.12447 1.51638 0
M  V30 7123 C 664.325 4.16153 1.00005 0
M  V30 7124 C 663.651 4.86948 2.20875 0
M  V30 7125 C 664.951 5.22275 0.0513757 0
M  V30 7126 H 666.645 2.98365 -0.248704 0
M  V30 7127 H 664.191 1.4349 -0.121052 0
M  V30 7128 H 666.144 3.65733 2.09326 0
M  V30 7129 H 664.868 2.41879 2.19458 0
M  V30 7130 H 663.527 3.63882 0.445549 0
M  V30 7131 H 663.175 4.12905 2.8726 0
M  V30 7132 H 662.875 5.57057 1.86978 0
M  V30 7133 H 664.399 5.43048 2.79162 0
M  V30 7134 H 665.813 5.70778 0.537176 0
M  V30 7135 H 664.21 5.9977 -0.198977 0
M  V30 7136 H 665.28 4.76611 -0.892736 0
M  V30 7137 N 666.623 0.143563 1.56945 0
M  V30 7138 C 668.039 -0.212877 1.58174 0
M  V30 7139 C 668.239 -1.64926 1.15766 0
M  V30 7140 O 667.295 -2.37535 0.856361 0
M  V30 7141 C 668.608 0.0427573 3.0067 0
M  V30 7142 C 670.156 -0.0212221 3.12993 0
M  V30 7143 C 670.631 0.207036 4.57532 0
M  V30 7144 N 672.122 0.153845 4.62944 0
M  V30 7145 C 672.857 0.305018 5.72588 0
M  V30 7146 N 672.353 0.513722 6.90893 0
M  V30 7147 N 674.146 0.242862 5.61575 0
M  V30 7148 H 666.297 1.08148 1.82805 0
M  V30 7149 H 668.56 0.427831 0.84597 0
M  V30 7150 H 668.266 1.03672 3.36073 0
M  V30 7151 H 668.14 -0.678195 3.71053 0
M  V30 7152 H 670.527 -1.00574 2.77433 0
M  V30 7153 H 670.608 0.732004 2.45103 0
M  V30 7154 H 670.252 1.18863 4.93795 0
M  V30 7155 H 670.182 -0.566473 5.23544 0
M  V30 7156 H 672.673 -0.00294866 3.779 0
M  V30 7157 H 672.986 0.619273 7.70315 0
M  V30 7158 H 671.331 0.550001 6.9282 0
M  V30 7159 H 674.522 0.0806015 4.68031 0
M  V30 7160 H 674.695 0.364112 6.46976 0
M  V30 7161 N 668.101 -1.57061 -0.130224 0
M  V30 7162 C 669.033 -1.96147 -1.18571 0
M  V30 7163 C 670.046 -0.859347 -1.38272 0
M  V30 7164 O 671.235 -1.13769 -1.37545 0
M  V30 7165 C 668.335 -2.23484 -2.54771 0
M  V30 7166 C 667.508 -3.54786 -2.55824 0
M  V30 7167 C 666.567 -3.70467 -3.73686 0
M  V30 7168 O 665.593 -4.42693 -3.57787 0
M  V30 7169 N 666.795 -3.08389 -4.91809 0
M  V30 7170 H 669.56 -2.87295 -0.853333 0
M  V30 7171 H 667.121 -1.58714 -0.319621 0
M  V30 7172 H 669.113 -2.312 -3.32158 0
M  V30 7173 H 667.683 -1.38518 -2.80235 0
M  V30 7174 H 666.903 -3.5836 -1.64232 0
M  V30 7175 H 668.191 -4.4111 -2.53573 0
M  V30 7176 H 667.589 -2.49656 -5.0763 0
M  V30 7177 H 666.146 -3.21642 -5.66912 0
M  V30 7178 N 669.579 0.400081 -1.52437 0
M  V30 7179 C 670.804 1.17221 -1.71096 0
M  V30 7180 C 671.229 1.83269 -0.423565 0
M  V30 7181 O 670.587 1.70378 0.619751 0
M  V30 7182 C 670.635 2.20425 -2.85386 0
M  V30 7183 O 669.739 3.26769 -2.51586 0
M  V30 7184 H 669.08 0.341766 -0.569291 0
M  V30 7185 H 671.61 0.467772 -1.99181 0
M  V30 7186 H 671.62 2.64605 -3.10561 0
M  V30 7187 H 670.295 1.71737 -3.78786 0
M  V30 7188 H 668.872 2.87804 -2.37114 0
M  V30 7189 N 671.057 1.43213 0.657864 0
M  V30 7190 C 672.304 1.44584 1.41781 0
M  V30 7191 C 672.632 0.0684208 1.9438 0
M  V30 7192 O 671.887 -0.925872 1.72413 0
M  V30 7193 C 672.186 2.43143 2.61947 0
M  V30 7194 C 671.852 3.89128 2.27794 0
M  V30 7195 C 670.514 4.28889 2.18191 0
M  V30 7196 C 672.866 4.81144 2.00375 0
M  V30 7197 C 670.194 5.58625 1.79319 0
M  V30 7198 C 672.546 6.11239 1.63003 0
M  V30 7199 C 671.21 6.49981 1.51922 0
M  V30 7200 H 670.48 0.529069 0.518813 0
M  V30 7201 H 673.127 1.76263 0.748577 0
M  V30 7202 H 671.432 2.04851 3.33981 0
M  V30 7203 H 673.129 2.4146 3.20153 0
M  V30 7204 H 669.719 3.57657 2.36176 0
M  V30 7205 H 673.903 4.512 2.06718 0
M  V30 7206 H 669.159 5.87486 1.69323 0
M  V30 7207 H 673.333 6.82014 1.40817 0
M  V30 7208 H 670.96 7.50416 1.21572 0
M  V30 7209 N 672.536 -0.895792 1.29666 0
M  V30 7210 C 673.484 -2.02173 1.15017 0
M  V30 7211 C 674.478 -1.69276 0.0647651 0
M  V30 7212 O 675.684 -1.7859 0.224846 0
M  V30 7213 H 672.059 -0.662719 0.355397 0
M  V30 7214 H 674.03 -2.11666 2.10334 0
M  V30 7215 C 672.779 -3.37212 0.847555 0
M  V30 7216 H 672.102 -3.6303 1.67479 0
M  V30 7217 H 673.542 -4.16668 0.785106 0
M  V30 7218 C 672.001 -3.33891 -0.44929 0
M  V30 7219 O 672.531 -3.73673 -1.47415 0
M  V30 7220 N 670.737 -2.86991 -0.456547 0
M  V30 7221 H 670.284 -2.54813 0.377925 0
M  V30 7222 H 670.242 -2.85152 -1.32423 0
M  V30 7223 N 674.014 -1.12206 -1.10668 0
M  V30 7224 C 675.263 -0.870595 -1.81944 0
M  V30 7225 C 675.576 0.605447 -1.85994 0
M  V30 7226 O 676.782 0.973433 -2.53449 0
M  V30 7227 C 675.238 -1.50783 -3.26791 0
M  V30 7228 C 674.846 -3.01849 -3.31046 0
M  V30 7229 C 676.59 -1.33653 -4.02911 0
M  V30 7230 C 674.497 -3.58518 -4.70339 0
M  V30 7231 H 673.427 -0.322043 -0.681765 0
M  V30 7232 H 676.078 -1.34827 -1.24475 0
M  V30 7233 H 674.46 -0.957825 -3.84242 0
M  V30 7234 H 675.634 -3.63321 -2.83433 0
M  V30 7235 H 673.949 -3.18346 -2.68411 0
M  V30 7236 H 676.546 -1.73416 -5.05797 0
M  V30 7237 H 676.889 -0.279949 -4.15358 0
M  V30 7238 H 677.422 -1.85562 -3.51868 0
M  V30 7239 H 674.161 -4.63925 -4.63091 0
M  V30 7240 H 673.681 -3.01819 -5.18329 0
M  V30 7241 H 675.36 -3.57434 -5.39305 0
M  V30 7242 N 675.492 1.28418 -0.913599 0
M  V30 7243 C 676.903 1.77024 -0.593237 0
M  V30 7244 C 677.254 1.74779 0.891441 0
M  V30 7245 O 676.379 1.34237 1.69733 0
M  V30 7246 C 676.974 3.21456 -1.07011 0
M  V30 7247 C 675.533 3.67786 -0.800664 0
M  V30 7248 C 674.68 2.48185 -1.23691 0
M  V30 7249 H 677.631 1.14883 -1.09487 0
M  V30 7250 H 677.652 3.78269 -0.411481 0
M  V30 7251 H 677.164 3.23058 -2.1507 0
M  V30 7252 H 675.265 3.71644 0.266725 0
M  V30 7253 H 675.378 4.57934 -1.4083 0
M  V30 7254 H 673.742 2.46116 -0.655655 0
M  V30 7255 H 674.525 2.52506 -2.32585 0
M  V30 7256 N 676.97 0.677563 1.42291 0
M  V30 7257 C 677.933 0.0101085 2.29198 0
M  V30 7258 C 678.933 -0.726219 1.43467 0
M  V30 7259 O 680.123 -0.563807 1.64824 0
M  V30 7260 C 677.255 -0.996316 3.26016 0
M  V30 7261 H 678.448 0.775071 2.89711 0
M  V30 7262 H 676.001 0.440065 1.49977 0
M  V30 7263 H 676.736 -1.78967 2.70446 0
M  V30 7264 H 676.521 -0.471687 3.89253 0
M  V30 7265 H 678.011 -1.46167 3.91184 0
M  V30 7266 N 678.448 -1.51871 0.421078 0
M  V30 7267 C 679.378 -2.30231 -0.389363 0
M  V30 7268 C 680.359 -1.34946 -1.03555 0
M  V30 7269 O 681.544 -1.63859 -1.04229 0
M  V30 7270 C 678.674 -3.13247 -1.49979 0
M  V30 7271 C 677.628 -4.16677 -0.977966 0
M  V30 7272 C 676.954 -4.88112 -2.1829 0
M  V30 7273 C 678.254 -5.22295 -0.0236775 0
M  V30 7274 H 679.948 -2.98229 0.264524 0
M  V30 7275 H 677.494 -1.43424 0.12866 0
M  V30 7276 H 679.447 -3.66838 -2.07383 0
M  V30 7277 H 678.171 -2.4304 -2.18173 0
M  V30 7278 H 676.83 -3.64114 -0.426245 0
M  V30 7279 H 676.478 -4.14423 -2.85066 0
M  V30 7280 H 676.178 -5.58041 -1.84021 0
M  V30 7281 H 677.702 -5.44521 -2.76278 0
M  V30 7282 H 679.116 -5.71055 -0.506899 0
M  V30 7283 H 677.513 -5.99656 0.230782 0
M  V30 7284 H 678.583 -4.76131 0.917999 0
M  V30 7285 N 679.926 -0.151884 -1.56866 0
M  V30 7286 C 680.873 0.785936 -2.17006 0
M  V30 7287 C 681.843 1.2407 -1.10435 0
M  V30 7288 O 683.028 1.31235 -1.38499 0
M  V30 7289 C 680.168 2.01771 -2.79969 0
M  V30 7290 C 679.281 1.6083 -4.00946 0
M  V30 7291 C 678.416 2.79224 -4.51893 0
M  V30 7292 C 677.455 2.3468 -5.65324 0
M  V30 7293 N 676.592 3.461 -6.10867 0
M  V30 7294 H 681.432 0.266286 -2.96808 0
M  V30 7295 H 678.969 0.11972 -1.46612 0
M  V30 7296 H 680.927 2.73989 -3.14621 0
M  V30 7297 H 679.557 2.51139 -2.02803 0
M  V30 7298 H 678.609 0.783592 -3.72242 0
M  V30 7299 H 679.921 1.24119 -4.83111 0
M  V30 7300 H 679.075 3.59625 -4.88625 0
M  V30 7301 H 677.814 3.19183 -3.68746 0
M  V30 7302 H 676.819 1.52721 -5.28163 0
M  V30 7303 H 678.044 1.95801 -6.5026 0
M  V30 7304 H 675.99 3.85671 -5.30654 0
M  V30 7305 H 675.907 3.1342 -6.87971 0
M  V30 7306 H 677.175 4.26844 -6.52246 0
M  V30 7307 N 681.404 1.57128 0.121893 0
M  V30 7308 C 682.367 1.99197 1.13372 0
M  V30 7309 C 683.367 0.881728 1.3447 0
M  V30 7310 O 684.557 1.14783 1.31036 0
M  V30 7311 C 681.689 2.32963 2.4888 0
M  V30 7312 H 682.882 2.89788 0.772204 0
M  V30 7313 H 680.435 1.51952 0.366093 0
M  V30 7314 H 681.17 1.45243 2.89957 0
M  V30 7315 H 680.955 3.13934 2.34921 0
M  V30 7316 H 682.445 2.66261 3.21706 0
M  V30 7317 N 682.882 -0.391992 1.52647 0
M  V30 7318 C 684.128 -1.13563 1.68745 0
M  V30 7319 C 684.483 -1.87745 0.420685 0
M  V30 7320 O 683.776 -1.82434 -0.585529 0
M  V30 7321 C 683.97 -2.14401 2.85949 0
M  V30 7322 C 683.799 -1.50124 4.23902 0
M  V30 7323 C 682.569 -1.2666 4.89168 0
M  V30 7324 C 684.767 -0.952933 5.05395 0
M  V30 7325 N 682.749 -0.584555 6.11111 0
M  V30 7326 C 684.12 -0.398784 6.18716 0
M  V30 7327 C 686.175 -0.849053 4.90607 0
M  V30 7328 C 684.878 0.249084 7.18869 0
M  V30 7329 C 686.904 -0.215011 5.91009 0
M  V30 7330 C 686.266 0.328382 7.03634 0
M  V30 7331 H 682.365 -0.401628 0.670984 0
M  V30 7332 H 684.949 -0.425585 1.89992 0
M  V30 7333 H 683.12 -2.82746 2.66288 0
M  V30 7334 H 684.852 -2.8125 2.90999 0
M  V30 7335 H 681.607 -1.54078 4.47836 0
M  V30 7336 H 682.031 -0.259663 6.76502 0
M  V30 7337 H 686.673 -1.25497 4.03745 0
M  V30 7338 H 684.391 0.667019 8.05342 0
M  V30 7339 H 687.977 -0.135921 5.81641 0
M  V30 7340 H 686.857 0.811257 7.79992 0
M  V30 7341 N 684.36 -1.4356 -0.65026 0
M  V30 7342 C 685.292 -1.44918 -1.77571 0
M  V30 7343 C 686.305 -0.344925 -1.59104 0
M  V30 7344 O 687.494 -0.609537 -1.6777 0
M  V30 7345 C 684.594 -1.24914 -3.15039 0
M  V30 7346 C 683.767 -2.48232 -3.60138 0
M  V30 7347 C 682.826 -2.23409 -4.76419 0
M  V30 7348 O 681.852 -2.9678 -4.85706 0
M  V30 7349 N 683.054 -1.25259 -5.66825 0
M  V30 7350 H 685.819 -2.41935 -1.76883 0
M  V30 7351 H 683.38 -1.38754 -0.834202 0
M  V30 7352 H 685.372 -1.06185 -3.90521 0
M  V30 7353 H 683.942 -0.363319 -3.10481 0
M  V30 7354 H 683.162 -2.82366 -2.75069 0
M  V30 7355 H 684.45 -3.30296 -3.87017 0
M  V30 7356 H 683.848 -0.646246 -5.61997 0
M  V30 7357 H 682.405 -1.12513 -6.42016 0
M  V30 7358 N 685.838 0.888903 -1.30139 0
M  V30 7359 C 687.063 1.67884 -1.21777 0
M  V30 7360 C 687.488 1.86848 0.216689 0
M  V30 7361 O 686.846 1.39659 1.15608 0
M  V30 7362 C 686.894 3.03483 -1.94757 0
M  V30 7363 O 685.998 3.92294 -1.27198 0
M  V30 7364 H 685.339 0.513144 -0.421402 0
M  V30 7365 H 687.869 1.10968 -1.71893 0
M  V30 7366 H 687.879 3.53553 -2.03627 0
M  V30 7367 H 686.554 2.89 -2.99085 0
M  V30 7368 H 685.131 3.50732 -1.26655 0
M  V30 7369 N 687.317 1.12792 1.10072 0
M  V30 7370 C 688.563 0.886857 1.82381 0
M  V30 7371 C 688.896 -0.58576 1.85155 0
M  V30 7372 O 688.171 -1.43317 1.31493 0
M  V30 7373 C 688.454 1.46703 3.28862 0
M  V30 7374 C 688.307 3.00829 3.34398 0
M  V30 7375 C 689.626 1.12971 4.25353 0
M  V30 7376 H 686.745 0.32362 0.662148 0
M  V30 7377 H 689.387 1.39513 1.28982 0
M  V30 7378 H 687.537 1.03476 3.74466 0
M  V30 7379 H 689.209 3.52764 2.97247 0
M  V30 7380 H 687.452 3.36164 2.74183 0
M  V30 7381 H 688.123 3.36519 4.3756 0
M  V30 7382 H 690.599 1.50313 3.88001 0
M  V30 7383 H 689.475 1.56223 5.26199 0
M  V30 7384 H 689.736 0.0424452 4.4208 0
M  V30 7385 N 688.795 -1.27931 0.920396 0
M  V30 7386 C 689.742 -2.27085 0.412422 0
M  V30 7387 C 690.712 -1.57858 -0.516725 0
M  V30 7388 O 691.897 -1.85717 -0.437475 0
M  V30 7389 C 689.037 -3.43466 -0.335399 0
M  V30 7390 C 688.15 -4.27425 0.627017 0
M  V30 7391 C 687.285 -5.31016 -0.139916 0
M  V30 7392 C 686.324 -6.06641 0.815683 0
M  V30 7393 N 685.461 -7.02052 0.0818439 0
M  V30 7394 H 690.301 -2.69913 1.26298 0
M  V30 7395 H 687.838 -1.32732 0.634076 0
M  V30 7396 H 689.796 -4.09744 -0.785226 0
M  V30 7397 H 688.426 -3.01611 -1.15025 0
M  V30 7398 H 687.478 -3.6113 1.19537 0
M  V30 7399 H 688.79 -4.79969 1.35763 0
M  V30 7400 H 687.944 -6.03208 -0.649998 0
M  V30 7401 H 686.683 -4.79257 -0.903543 0
M  V30 7402 H 685.688 -5.33294 1.33708 0
M  V30 7403 H 686.913 -6.60489 1.57897 0
M  V30 7404 H 684.859 -6.52634 -0.663671 0
M  V30 7405 H 684.776 -7.52249 0.752163 0
M  V30 7406 H 686.044 -7.78432 -0.407825 0
M  V30 7407 N 690.273 -0.685099 -1.4193 0
M  V30 7408 C 691.205 0.0258679 -2.29185 0
M  V30 7409 C 692.218 0.755076 -1.44231 0
M  V30 7410 O 693.407 0.60752 -1.67844 0
M  V30 7411 C 690.507 1.06055 -3.21878 0
M  V30 7412 C 689.68 0.403088 -4.35539 0
M  V30 7413 C 688.739 1.33895 -5.0888 0
M  V30 7414 O 687.765 0.835326 -5.63037 0
M  V30 7415 N 688.967 2.6718 -5.15359 0
M  V30 7416 H 691.732 -0.723201 -2.90843 0
M  V30 7417 H 689.293 -0.53031 -1.52968 0
M  V30 7418 H 691.285 1.68813 -3.6781 0
M  V30 7419 H 689.855 1.71126 -2.616 0
M  V30 7420 H 689.075 -0.404185 -3.92122 0
M  V30 7421 H 690.363 -0.0545098 -5.08771 0
M  V30 7422 H 689.761 3.10626 -4.72788 0
M  V30 7423 H 688.318 3.25159 -5.64903 0
M  V30 7424 N 691.751 1.51645 -0.429126 0
M  V30 7425 C 692.699 2.29119 0.400921 0
M  V30 7426 C 693.693 1.34628 1.02819 0
M  V30 7427 O 694.899 1.52004 0.964098 0
M  V30 7428 H 691.274 0.737273 0.148095 0
M  V30 7429 H 693.245 2.97144 -0.273457 0
M  V30 7430 C 691.994 3.13953 1.49429 0
M  V30 7431 H 691.317 3.86544 1.02097 0
M  V30 7432 H 692.757 3.71232 2.04849 0
M  V30 7433 C 691.216 2.28796 2.47293 0
M  V30 7434 O 691.746 1.94193 3.51642 0
M  V30 7435 N 689.952 1.92177 2.17982 0
M  V30 7436 H 689.499 2.20517 1.33154 0
M  V30 7437 H 689.457 1.35497 2.83704 0
M  V30 7438 N 693.229 0.160201 1.56784 0
M  V30 7439 C 694.192 -0.760405 2.16219 0
M  V30 7440 C 695.192 -1.16595 1.10735 0
M  V30 7441 O 696.382 -1.08472 1.36306 0
M  V30 7442 C 693.514 -2.03358 2.73603 0
M  V30 7443 H 694.707 -0.243173 2.98912 0
M  V30 7444 H 692.26 -0.0893139 1.56045 0
M  V30 7445 H 692.995 -2.59416 1.94612 0
M  V30 7446 H 692.78 -1.75186 3.50788 0
M  V30 7447 H 694.27 -2.69081 3.19351 0
M  V30 7448 N 694.707 -1.5719 -0.113559 0
M  V30 7449 C 695.955 -1.84772 -0.818761 0
M  V30 7450 C 696.276 -0.746196 -1.80158 0
M  V30 7451 O 695.546 0.229305 -1.94553 0
M  V30 7452 H 694.126 -0.681737 -0.305359 0
M  V30 7453 H 696.788 -1.94645 -0.0995845 0
M  V30 7454 H 695.884 -2.80878 -1.36067 0
M  V30 7455 N 696.185 0.383891 -1.52853 0
M  V30 7456 C 697.133 1.48965 -1.7864 0
M  V30 7457 C 698.127 1.56242 -0.654577 0
M  V30 7458 O 699.333 1.59347 -0.83716 0
M  V30 7459 H 695.708 0.495892 -0.565328 0
M  V30 7460 H 697.679 1.24411 -2.71228 0
M  V30 7461 C 696.428 2.86036 -1.97683 0
M  V30 7462 H 695.751 2.81188 -2.84206 0
M  V30 7463 H 697.191 3.62632 -2.19713 0
M  V30 7464 C 695.65 3.28428 -0.750776 0
M  V30 7465 O 696.18 4.0164 0.0693491 0
M  V30 7466 N 694.386 2.84765 -0.579427 0
M  V30 7467 H 693.933 2.25353 -1.24795 0
M  V30 7468 H 693.891 3.13486 0.239544 0
M  V30 7469 N 697.663 1.43903 0.642637 0
M  V30 7470 C 698.94 1.36556 1.40043 0
M  V30 7471 C 699.32 0.0185588 2.11092 0
M  V30 7472 O 698.668 -0.998438 2.05532 0
M  V30 7473 C 698.878 2.55596 2.37638 0
M  V30 7474 C 700.226 2.99153 3.01318 0
M  V30 7475 O 701.25 2.55719 2.47965 0
M  V30 7476 O 700.109 3.74427 3.98078 0
M  V30 7477 H 697.203 0.540189 0.626198 0
M  V30 7478 H 699.749 1.55971 0.668657 0
M  V30 7479 H 698.521 3.45256 1.84158 0
M  V30 7480 H 698.144 2.38334 3.18249 0
M  V30 7481 N 699.141 -0.881989 1.30609 0
M  V30 7482 C 700.104 -1.96957 1.1722 0
M  V30 7483 C 701.104 -1.60472 0.102598 0
M  V30 7484 O 702.294 -1.70628 0.350943 0
M  V30 7485 C 699.426 -3.31463 0.796572 0
M  V30 7486 H 700.619 -2.10262 2.13846 0
M  V30 7487 H 698.172 -1.06877 1.14048 0
M  V30 7488 H 698.907 -3.23859 -0.169053 0
M  V30 7489 H 698.692 -3.59314 1.56959 0
M  V30 7490 H 700.182 -4.11233 0.72645 0
M  V30 7491 N 700.619 -1.13374 -1.09472 0
M  V30 7492 C 702.03 -0.90801 -1.63132 0
M  V30 7493 C 702.381 0.555576 -1.8817 0
M  V30 7494 O 701.506 1.42218 -1.63104 0
M  V30 7495 C 702.101 -1.64182 -2.96361 0
M  V30 7496 C 700.66 -1.46197 -3.46848 0
M  V30 7497 C 699.807 -1.67134 -2.21273 0
M  V30 7498 H 702.758 -1.2871 -0.928411 0
M  V30 7499 H 702.779 -1.09863 -3.64294 0
M  V30 7500 H 702.291 -2.707 -2.78106 0
M  V30 7501 H 700.392 -0.419788 -3.70228 0
M  V30 7502 H 700.505 -2.22472 -4.24315 0
M  V30 7503 H 698.869 -1.09616 -2.29905 0
M  V30 7504 H 699.652 -2.74971 -2.05538 0
M  V30 7505 N 702.098 1.27442 -0.927168 0
M  V30 7506 C 703.045 2.26863 -0.424459 0
M  V30 7507 C 704.015 1.5813 0.508346 0
M  V30 7508 O 705.2 1.85946 0.42762 0
M  V30 7509 C 702.34 3.43639 0.31718 0
M  V30 7510 C 701.453 4.27087 -0.649675 0
M  V30 7511 C 700.588 5.31082 0.111753 0
M  V30 7512 C 699.627 6.062 -0.847843 0
M  V30 7513 N 698.764 7.01999 -0.119074 0
M  V30 7514 H 703.604 2.69239 -1.27728 0
M  V30 7515 H 701.141 1.32394 -0.641106 0
M  V30 7516 H 703.099 4.10155 0.763486 0
M  V30 7517 H 701.729 3.02217 1.13424 0
M  V30 7518 H 700.781 3.60491 -1.21451 0
M  V30 7519 H 702.093 4.79242 -1.38307 0
M  V30 7520 H 701.247 6.03544 0.618 0
M  V30 7521 H 699.986 4.7973 0.878114 0
M  V30 7522 H 698.991 5.32577 -1.36534 0
M  V30 7523 H 700.216 6.59642 -1.61398 0
M  V30 7524 H 698.162 6.52977 0.629051 0
M  V30 7525 H 698.079 7.5184 -0.792046 0
M  V30 7526 H 699.347 7.78638 0.366537 0
M  V30 7527 N 703.576 0.692616 1.41565 0
M  V30 7528 C 704.523 0.0254264 2.30786 0
M  V30 7529 C 705.493 -0.774347 1.46946 0
M  V30 7530 O 706.678 -0.742981 1.7574 0
M  V30 7531 C 703.818 -0.907123 3.32964 0
M  V30 7532 C 702.931 -0.0992784 4.31886 0
M  V30 7533 C 702.066 -1.0292 5.21134 0
M  V30 7534 C 701.105 -0.214088 6.11725 0
M  V30 7535 N 700.242 -1.09766 6.93467 0
M  V30 7536 H 705.082 0.792036 2.87282 0
M  V30 7537 H 702.619 0.4023 1.41492 0
M  V30 7538 H 704.577 -1.46181 3.90752 0
M  V30 7539 H 703.207 -1.64016 2.78026 0
M  V30 7540 H 702.259 0.572287 3.76071 0
M  V30 7541 H 703.571 0.532782 4.95946 0
M  V30 7542 H 702.725 -1.65321 5.83741 0
M  V30 7543 H 701.464 -1.69512 4.57293 0
M  V30 7544 H 700.469 0.42302 5.4817 0
M  V30 7545 H 701.694 0.447995 6.77621 0
M  V30 7546 H 699.64 -1.74965 6.32237 0
M  V30 7547 H 699.557 -0.521099 7.54202 0
M  V30 7548 H 700.825 -1.70858 7.60544 0
M  V30 7549 N 705.054 -1.51416 0.437162 0
M  V30 7550 C 706.301 -2.02086 -0.129364 0
M  V30 7551 C 706.629 -1.32133 -1.42728 0
M  V30 7552 O 705.884 -0.424916 -1.91031 0
M  V30 7553 C 706.183 -3.55203 -0.39564 0
M  V30 7554 C 705.849 -4.43447 0.81644 0
M  V30 7555 C 704.511 -4.67285 1.14884 0
M  V30 7556 C 706.863 -4.95219 1.62503 0
M  V30 7557 C 704.191 -5.40141 2.29052 0
M  V30 7558 C 706.543 -5.69327 2.7577 0
M  V30 7559 C 705.207 -5.91429 3.09464 0
M  V30 7560 H 704.477 -0.739486 -0.0473375 0
M  V30 7561 H 707.124 -1.82368 0.584321 0
M  V30 7562 H 705.429 -3.73252 -1.19121 0
M  V30 7563 H 707.126 -3.91944 -0.847399 0
M  V30 7564 H 703.716 -4.2509 0.547422 0
M  V30 7565 H 707.9 -4.76686 1.38144 0
M  V30 7566 H 703.156 -5.55468 2.55471 0
M  V30 7567 H 707.33 -6.08433 3.38795 0
M  V30 7568 H 704.957 -6.47662 3.98042 0
M  V30 7569 N 706.532 -0.168513 -1.56696 0
M  V30 7570 C 707.495 0.748928 -2.16619 0
M  V30 7571 C 708.495 1.16007 -1.11351 0
M  V30 7572 O 709.685 1.07748 -1.3688 0
M  V30 7573 C 706.817 2.01904 -2.74677 0
M  V30 7574 H 708.01 0.227317 -2.99037 0
M  V30 7575 H 705.563 0.0810372 -1.5609 0
M  V30 7576 H 706.298 2.58381 -1.95985 0
M  V30 7577 H 706.083 1.73323 -3.51712 0
M  V30 7578 H 707.573 2.67383 -3.20774 0
M  V30 7579 N 708.01 1.57248 0.105221 0
M  V30 7580 C 708.973 2.00388 1.11252 0
M  V30 7581 C 709.973 0.89594 1.33527 0
M  V30 7582 O 711.163 1.16166 1.29811 0
M  V30 7583 C 708.295 2.35589 2.46395 0
M  V30 7584 H 709.488 2.90591 0.741424 0
M  V30 7585 H 707.041 1.52332 0.349956 0
M  V30 7586 H 707.776 1.4831 2.884 0
M  V30 7587 H 707.561 3.16408 2.31578 0
M  V30 7588 H 709.051 2.69658 3.18864 0
M  V30 7589 N 709.488 -0.375779 1.53054 0
M  V30 7590 C 710.435 -1.45978 1.78771 0
M  V30 7591 C 711.405 -1.53625 0.631552 0
M  V30 7592 O 712.59 -1.69674 0.872667 0
M  V30 7593 C 709.73 -2.8305 1.97425 0
M  V30 7594 C 708.843 -2.84451 3.25134 0
M  V30 7595 C 707.978 -4.13034 3.34031 0
M  V30 7596 C 707.017 -4.08536 4.55812 0
M  V30 7597 N 706.154 -5.2875 4.61918 0
M  V30 7598 H 710.994 -1.23349 2.71273 0
M  V30 7599 H 708.531 -0.598147 1.3439 0
M  V30 7600 H 710.489 -3.62666 2.06225 0
M  V30 7601 H 709.119 -3.04101 1.0827 0
M  V30 7602 H 708.171 -1.97127 3.25338 0
M  V30 7603 H 709.483 -2.76998 4.14818 0
M  V30 7604 H 708.637 -5.0106 3.42087 0
M  V30 7605 H 707.376 -4.23226 2.42345 0
M  V30 7606 H 706.381 -3.18897 4.47867 0
M  V30 7607 H 707.606 -3.99955 5.48828 0
M  V30 7608 H 705.552 -5.39547 3.73129 0
M  V30 7609 H 705.469 -5.23426 5.45492 0
M  V30 7610 H 706.737 -6.18637 4.74245 0
M  V30 7611 N 710.966 -1.44241 -0.634997 0
M  V30 7612 C 711.896 -1.53632 -1.7584 0
M  V30 7613 C 712.877 -0.389603 -1.65578 0
M  V30 7614 O 714.062 -0.609219 -1.84397 0
M  V30 7615 C 711.192 -1.47644 -3.14354 0
M  V30 7616 C 710.146 -2.60752 -3.394 0
M  V30 7617 C 709.472 -2.39817 -4.77904 0
M  V30 7618 C 710.772 -4.02921 -3.32343 0
M  V30 7619 H 712.466 -2.47662 -1.68238 0
M  V30 7620 H 710.012 -1.19197 -0.807969 0
M  V30 7621 H 711.965 -1.52815 -3.92716 0
M  V30 7622 H 710.689 -0.501284 -3.2273 0
M  V30 7623 H 709.348 -2.54965 -2.63417 0
M  V30 7624 H 708.996 -1.40502 -4.82978 0
M  V30 7625 H 708.696 -3.15649 -4.9562 0
M  V30 7626 H 710.22 -2.46799 -5.585 0
M  V30 7627 H 711.634 -4.10098 -4.00615 0
M  V30 7628 H 710.031 -4.78925 -3.61595 0
M  V30 7629 H 711.101 -4.26766 -2.30215 0
M  V30 7630 N 712.444 0.87505 -1.31075 0
M  V30 7631 C 713.692 1.62447 -1.20231 0
M  V30 7632 C 714.013 1.93506 0.240888 0
M  V30 7633 O 713.283 1.57847 1.16022 0
M  V30 7634 H 711.863 0.602207 -0.441991 0
M  V30 7635 H 714.525 1.04788 -1.64334 0
M  V30 7636 H 713.621 2.57031 -1.77036 0
M  V30 7637 N 713.922 1.13953 1.08869 0
M  V30 7638 C 714.852 0.844824 2.17681 0
M  V30 7639 C 715.833 -0.198213 1.68941 0
M  V30 7640 O 717.018 -0.0559073 1.9412 0
M  V30 7641 C 714.148 0.316325 3.45856 0
M  V30 7642 C 713.102 1.29426 4.07962 0
M  V30 7643 C 712.428 0.625275 5.31031 0
M  V30 7644 C 713.728 2.65484 4.49795 0
M  V30 7645 H 715.422 1.75471 2.42591 0
M  V30 7646 H 712.968 0.845116 1.16592 0
M  V30 7647 H 714.921 0.0977876 4.21287 0
M  V30 7648 H 713.645 -0.628972 3.20486 0
M  V30 7649 H 712.304 1.49889 3.34558 0
M  V30 7650 H 711.952 -0.325678 5.01945 0
M  V30 7651 H 711.652 1.27777 5.73539 0
M  V30 7652 H 713.176 0.416152 6.0918 0
M  V30 7653 H 714.59 2.48957 5.16424 0
M  V30 7654 H 712.987 3.26963 5.03205 0
M  V30 7655 H 714.057 3.22717 3.61914 0
M  V30 7656 N 715.4 -1.26948 0.933913 0
M  V30 7657 C 716.348 -2.2862 0.428463 0
M  V30 7658 C 717.342 -1.62144 -0.490464 0
M  V30 7659 O 718.548 -1.76167 -0.36948 0
M  V30 7660 H 714.923 -0.742363 0.120003 0
M  V30 7661 H 716.894 -2.68659 1.29865 0
M  V30 7662 C 715.643 -3.46423 -0.29774 0
M  V30 7663 H 714.966 -3.97792 0.400183 0
M  V30 7664 H 716.406 -4.19505 -0.615736 0
M  V30 7665 C 714.865 -3.01017 -1.51295 0
M  V30 7666 O 715.395 -3.05226 -2.61151 0
M  V30 7667 N 713.601 -2.56442 -1.36696 0
M  V30 7668 H 713.148 -2.53217 -0.473178 0
M  V30 7669 H 713.106 -2.26424 -2.18127 0
M  V30 7670 N 716.879 -0.700114 -1.41195 0
M  V30 7671 C 718.109 -0.241828 -2.0518 0
M  V30 7672 C 718.517 1.1157 -1.52803 0
M  V30 7673 O 717.86 1.70926 -0.673042 0
M  V30 7674 C 717.922 -0.12695 -3.59276 0
M  V30 7675 C 717.586 -1.41725 -4.34469 0
M  V30 7676 C 718.583 -2.35604 -4.63451 0
M  V30 7677 C 716.268 -1.67189 -4.73659 0
M  V30 7678 C 718.262 -3.53204 -5.3059 0
M  V30 7679 C 715.949 -2.85073 -5.40534 0
M  V30 7680 C 716.947 -3.77904 -5.68927 0
M  V30 7681 O 716.635 -4.93723 -6.34424 0
M  V30 7682 H 716.367 -0.109247 -0.667114 0
M  V30 7683 H 718.921 -0.954538 -1.81873 0
M  V30 7684 H 717.151 0.641571 -3.81341 0
M  V30 7685 H 718.84 0.294748 -4.04828 0
M  V30 7686 H 719.606 -2.1719 -4.33651 0
M  V30 7687 H 715.485 -0.957935 -4.50937 0
M  V30 7688 H 719.029 -4.25679 -5.52669 0
M  V30 7689 H 714.926 -3.03402 -5.69752 0
M  V30 7690 H 715.694 -4.93597 -6.5292 0
M  V30 7691 N 718.357 1.51182 -0.445186 0
M  V30 7692 C 719.267 2.31692 0.368255 0
M  V30 7693 C 720.283 1.40942 1.02036 0
M  V30 7694 O 721.459 1.74011 1.01401 0
M  V30 7695 C 718.524 3.14903 1.45041 0
M  V30 7696 C 717.585 4.21442 0.817615 0
M  V30 7697 C 716.818 5.00677 1.8482 0
M  V30 7698 O 717.041 4.80644 3.07145 0
M  V30 7699 O 715.975 5.84559 1.43438 0
M  V30 7700 H 719.801 3.0232 -0.289219 0
M  V30 7701 H 717.386 1.47951 -0.207555 0
M  V30 7702 H 719.268 3.66612 2.07783 0
M  V30 7703 H 717.943 2.47031 2.09182 0
M  V30 7704 H 716.85 3.73791 0.151931 0
M  V30 7705 H 718.183 4.9171 0.219564 0
M  V30 7706 N 719.835 0.176821 1.56605 0
M  V30 7707 C 721.083 -0.465793 1.96659 0
M  V30 7708 C 721.404 -1.63406 1.06412 0
M  V30 7709 O 720.674 -1.95457 0.131603 0
M  V30 7710 H 719.254 -0.175072 0.726195 0
M  V30 7711 H 721.916 0.25929 1.93168 0
M  V30 7712 H 721.012 -0.822138 3.01077 0
M  V30 7713 N 721.313 -1.57302 -0.09688 0
M  V30 7714 C 722.59 -1.7701 -0.832272 0
M  V30 7715 C 722.97 -0.758025 -1.97021 0
M  V30 7716 O 722.318 0.213824 -2.27497 0
M  V30 7717 C 722.528 -3.22725 -1.32851 0
M  V30 7718 C 723.876 -3.85856 -1.772 0
M  V30 7719 O 724.9 -3.26464 -1.42478 0
M  V30 7720 O 723.759 -4.90295 -2.41398 0
M  V30 7721 H 720.853 -0.725558 -0.396856 0
M  V30 7722 H 723.399 -1.69516 -0.0789005 0
M  V30 7723 H 722.171 -3.87921 -0.51312 0
M  V30 7724 H 721.794 -3.34845 -2.14394 0
M  V30 7725 N 722.791 0.367657 -1.53252 0
M  V30 7726 C 724.04 1.10782 -1.68554 0
M  V30 7727 C 724.353 1.90523 -0.442765 0
M  V30 7728 O 725.559 2.6729 -0.47629 0
M  V30 7729 C 724.015 2.01863 -2.97959 0
M  V30 7730 C 723.623 1.27443 -4.29491 0
M  V30 7731 C 725.367 2.75883 -3.22628 0
M  V30 7732 C 723.274 2.17414 -5.49987 0
M  V30 7733 H 722.204 0.417272 -0.628013 0
M  V30 7734 H 724.855 0.368971 -1.79752 0
M  V30 7735 H 723.237 2.7947 -2.80558 0
M  V30 7736 H 724.411 0.549138 -4.57516 0
M  V30 7737 H 722.726 0.652935 -4.11249 0
M  V30 7738 H 725.323 3.43421 -4.09837 0
M  V30 7739 H 725.666 3.41138 -2.38601 0
M  V30 7740 H 726.199 2.0536 -3.40693 0
M  V30 7741 H 722.938 1.5674 -6.36485 0
M  V30 7742 H 722.458 2.87799 -5.26243 0
M  V30 7743 H 724.137 2.77019 -5.84696 0
M  V30 7744 N 724.269 1.44576 0.627338 0
M  V30 7745 C 725.517 1.47267 1.38408 0
M  V30 7746 C 725.838 0.107971 1.94701 0
M  V30 7747 O 725.108 -0.860206 1.76004 0
M  V30 7748 H 723.688 0.542276 0.513756 0
M  V30 7749 H 726.35 1.80383 0.738099 0
M  V30 7750 H 725.446 2.20025 2.21349 0
M  V30 7751 N 725.747 -0.868086 1.31537 0
M  V30 7752 C 727.158 -1.437 1.19195 0
M  V30 7753 C 727.509 -1.95169 -0.200842 0
M  V30 7754 O 726.634 -1.86432 -1.09872 0
M  V30 7755 C 727.229 -2.612 2.15778 0
M  V30 7756 C 725.788 -3.1413 2.07363 0
M  V30 7757 C 724.935 -1.86845 2.049 0
M  V30 7758 H 727.886 -0.676457 1.43561 0
M  V30 7759 H 727.907 -3.37948 1.74847 0
M  V30 7760 H 727.419 -2.23709 3.17137 0
M  V30 7761 H 725.52 -3.56238 1.09204 0
M  V30 7762 H 725.633 -3.76285 2.96557 0
M  V30 7763 H 723.997 -2.05886 1.49943 0
M  V30 7764 H 724.78 -1.51589 3.08019 0
M  V30 7765 N 727.225 -1.14528 -1.08264 0
M  V30 7766 C 728.45 -0.938381 -1.84957 0
M  V30 7767 C 728.875 0.508044 -1.81109 0
M  V30 7768 O 728.233 1.36146 -1.19724 0
M  V30 7769 C 728.281 -1.44568 -3.30352 0
M  V30 7770 O 727.385 -0.638745 -4.07423 0
M  V30 7771 H 726.726 -0.335394 -0.573068 0
M  V30 7772 H 729.256 -1.52287 -1.36637 0
M  V30 7773 H 729.266 -1.45449 -3.81194 0
M  V30 7774 H 727.941 -2.49876 -3.32468 0
M  V30 7775 H 726.518 -0.698801 -3.66294 0
M  V30 7776 N 728.703 1.26451 -0.940633 0
M  V30 7777 C 729.613 2.30128 -0.455881 0
M  V30 7778 C 730.629 1.67536 0.469867 0
M  V30 7779 O 731.805 1.98344 0.349529 0
M  V30 7780 C 728.87 3.45634 0.271648 0
M  V30 7781 C 727.931 4.23709 -0.690594 0
M  V30 7782 C 727.164 5.337 0.00231047 0
M  V30 7783 O 727.387 5.57215 1.21935 0
M  V30 7784 O 726.321 5.98091 -0.676111 0
M  V30 7785 H 730.147 2.73655 -1.31707 0
M  V30 7786 H 727.732 1.3164 -0.706497 0
M  V30 7787 H 729.614 4.15853 0.681486 0
M  V30 7788 H 728.289 3.04138 1.10824 0
M  V30 7789 H 727.196 3.55974 -1.15037 0
M  V30 7790 H 728.529 4.68953 -1.49478 0
M  V30 7791 N 730.181 0.707592 1.40822 0
M  V30 7792 C 731.427 0.244031 2.01326 0
M  V30 7793 C 731.76 -1.15722 1.55955 0
M  V30 7794 O 731.035 -1.78347 0.776044 0
M  V30 7795 C 731.318 0.315128 3.58718 0
M  V30 7796 C 731.171 1.75419 4.14184 0
M  V30 7797 C 732.49 -0.318251 4.38948 0
M  V30 7798 H 729.609 0.0901471 0.731466 0
M  V30 7799 H 732.251 0.898584 1.67408 0
M  V30 7800 H 730.401 -0.242176 3.87744 0
M  V30 7801 H 732.073 2.36626 3.95987 0
M  V30 7802 H 730.316 2.28449 3.68773 0
M  V30 7803 H 730.987 1.75538 5.23345 0
M  V30 7804 H 733.463 0.156514 4.15806 0
M  V30 7805 H 732.339 -0.238019 5.48384 0
M  V30 7806 H 732.6 -1.40067 4.19325 0
M  V30 7807 N 731.66 -1.50943 0.453197 0
M  V30 7808 C 732.59 -2.31005 -0.34044 0
M  V30 7809 C 733.571 -1.37112 -1.00669 0
M  V30 7810 O 734.756 -1.66033 -1.0073 0
M  V30 7811 C 731.886 -3.16358 -1.433 0
M  V30 7812 C 730.84 -4.18658 -0.889363 0
M  V30 7813 C 730.166 -4.92633 -2.07887 0
M  V30 7814 C 731.466 -5.22227 0.0871142 0
M  V30 7815 H 733.16 -2.97601 0.327723 0
M  V30 7816 H 730.706 -1.43119 0.159054 0
M  V30 7817 H 732.659 -3.71155 -1.99555 0
M  V30 7818 H 731.383 -2.47613 -2.12968 0
M  V30 7819 H 730.042 -3.64936 -0.348915 0
M  V30 7820 H 729.69 -4.20376 -2.76211 0
M  V30 7821 H 729.39 -5.61819 -1.72143 0
M  V30 7822 H 730.914 -5.50258 -2.64666 0
M  V30 7823 H 732.328 -5.72001 -0.385656 0
M  V30 7824 H 730.725 -5.99032 0.357926 0
M  V30 7825 H 731.795 -4.74077 1.01879 0
M  V30 7826 N 733.138 -0.185124 -1.56509 0
M  V30 7827 C 734.386 0.455357 -1.96903 0
M  V30 7828 C 734.707 1.62839 -1.07277 0
M  V30 7829 O 733.977 1.95385 -0.141966 0
M  V30 7830 H 732.557 0.171218 -0.727113 0
M  V30 7831 H 735.219 -0.26953 -1.93027 0
M  V30 7832 H 734.315 0.80616 -3.01509 0
M  V30 7833 N 734.616 1.57351 0.0885366 0
M  V30 7834 C 735.864 1.86051 0.789262 0
M  V30 7835 C 736.185 0.774763 1.78948 0
M  V30 7836 O 735.455 -0.198324 1.94894 0
M  V30 7837 H 734.035 0.686508 0.294475 0
M  V30 7838 H 736.697 1.94779 0.0686055 0
M  V30 7839 H 735.793 2.83007 1.31581 0
M  V30 7840 N 736.094 -0.359525 1.53444 0
M  V30 7841 C 737.319 -1.12644 1.74144 0
M  V30 7842 C 737.744 -1.82082 0.472007 0
M  V30 7843 O 737.102 -1.71962 -0.57436 0
M  V30 7844 C 737.15 -2.12781 2.9113 0
M  V30 7845 O 736.254 -3.19984 2.60162 0
M  V30 7846 H 735.595 -0.326553 0.578152 0
M  V30 7847 H 738.125 -0.414798 2.00351 0
M  V30 7848 H 738.135 -2.56278 3.17467 0
M  V30 7849 H 736.81 -1.61634 3.83207 0
M  V30 7850 H 735.387 -2.81417 2.44661 0
M  V30 7851 N 737.572 -1.44907 -0.619662 0
M  V30 7852 C 738.535 -1.52282 -1.71297 0
M  V30 7853 C 739.535 -0.40359 -1.55653 0
M  V30 7854 O 740.725 -0.666638 -1.6094 0
M  V30 7855 C 737.857 -1.40778 -3.10474 0
M  V30 7856 H 739.05 -2.49683 -1.66128 0
M  V30 7857 H 736.603 -1.32168 -0.834339 0
M  V30 7858 H 737.338 -0.445156 -3.2123 0
M  V30 7859 H 737.123 -2.21947 -3.23237 0
M  V30 7860 H 738.613 -1.48946 -3.90135 0
M  V30 7861 N 739.05 0.861098 -1.31996 0
M  V30 7862 C 740.275 1.65264 -1.2531 0
M  V30 7863 C 740.7 1.87265 0.177007 0
M  V30 7864 O 740.058 1.4208 1.12619 0
M  V30 7865 C 740.106 2.99284 -2.0115 0
M  V30 7866 O 739.21 3.89508 -1.3549 0
M  V30 7867 H 738.551 0.50409 -0.432192 0
M  V30 7868 H 741.081 1.07297 -1.74208 0
M  V30 7869 H 741.091 3.49154 -2.11081 0
M  V30 7870 H 739.766 2.82591 -3.05148 0
M  V30 7871 H 738.343 3.47966 -1.34066 0
M  V30 7872 N 740.528 1.15101 1.07655 0
M  V30 7873 C 741.438 0.858869 2.18313 0
M  V30 7874 C 742.454 -0.163641 1.73229 0
M  V30 7875 O 743.63 0.00969541 2.01398 0
M  V30 7876 C 740.695 0.34893 3.4494 0
M  V30 7877 C 739.756 1.43495 4.04608 0
M  V30 7878 C 738.989 0.949253 5.2519 0
M  V30 7879 O 739.212 -0.20636 5.70027 0
M  V30 7880 O 738.146 1.73161 5.76454 0
M  V30 7881 H 741.972 1.78386 2.45788 0
M  V30 7882 H 739.557 0.929876 1.16934 0
M  V30 7883 H 741.439 0.070851 4.2134 0
M  V30 7884 H 740.114 -0.548237 3.19024 0
M  V30 7885 H 739.021 1.7666 3.29761 0
M  V30 7886 H 740.354 2.30692 4.3479 0
M  V30 7887 N 742.006 -1.2595 0.947325 0
M  V30 7888 C 743.253 -1.93463 0.598178 0
M  V30 7889 C 743.581 -1.74271 -0.863705 0
M  V30 7890 O 742.836 -1.07684 -1.63409 0
M  V30 7891 C 743.135 -3.46034 0.894158 0
M  V30 7892 C 742.801 -3.85373 2.3409 0
M  V30 7893 C 741.463 -3.95823 2.73637 0
M  V30 7894 C 743.815 -4.04986 3.2808 0
M  V30 7895 C 741.143 -4.23288 4.06257 0
M  V30 7896 C 743.495 -4.3394 4.60303 0
M  V30 7897 C 742.159 -4.42606 4.99656 0
M  V30 7898 H 741.429 -0.707933 0.218889 0
M  V30 7899 H 744.076 -1.4964 1.19499 0
M  V30 7900 H 742.381 -3.9121 0.214874 0
M  V30 7901 H 744.078 -3.96445 0.602698 0
M  V30 7902 H 740.668 -3.7779 2.02417 0
M  V30 7903 H 744.852 -3.96333 2.9872 0
M  V30 7904 H 740.108 -4.28211 4.36401 0
M  V30 7905 H 744.282 -4.48061 5.33118 0
M  V30 7906 H 741.909 -4.63641 6.02446 0
M  V30 7907 N 743.484 -0.715051 -1.40445 0
M  V30 7908 C 744.709 -0.26254 -2.05732 0
M  V30 7909 C 745.134 1.08691 -1.53519 0
M  V30 7910 O 744.492 1.68453 -0.670328 0
M  V30 7911 C 744.54 -0.25195 -3.59719 0
M  V30 7912 O 743.644 0.766998 -4.05205 0
M  V30 7913 H 742.985 -0.123398 -0.652433 0
M  V30 7914 H 745.515 -0.975382 -1.79854 0
M  V30 7915 H 745.525 -0.0894537 -4.07902 0
M  V30 7916 H 744.2 -1.23672 -3.97087 0
M  V30 7917 H 742.777 0.572269 -3.68483 0
M  V30 7918 N 744.962 1.50701 -0.461195 0
M  V30 7919 C 746.373 1.867 -0.00370227 0
M  V30 7920 C 746.724 1.37673 1.39787 0
M  V30 7921 O 745.849 0.737515 2.03445 0
M  V30 7922 C 746.444 3.388 5.75786e-05 0
M  V30 7923 C 745.003 3.74247 0.402044 0
M  V30 7924 C 744.15 2.74549 -0.389652 0
M  V30 7925 H 747.101 1.43585 -0.675942 0
M  V30 7926 H 747.122 3.719 0.804414 0
M  V30 7927 H 746.634 3.74452 -1.02015 0
M  V30 7928 H 744.735 3.44192 1.42697 0
M  V30 7929 H 744.848 4.78973 0.110265 0
M  V30 7930 H 743.212 2.54226 0.155314 0
M  V30 7931 H 743.995 3.13044 -1.40919 0
M  V30 7932 N 746.441 0.193421 1.56409 0
M  V30 7933 C 747.669 -0.451438 2.01915 0
M  V30 7934 C 748.084 -1.55306 1.07357 0
M  V30 7935 O 747.441 -1.82333 0.0781512 0
M  V30 7936 C 747.492 -1.00931 3.47124 0
M  V30 7937 O 747.213 0.0483623 4.38073 0
M  V30 7938 C 748.714 -1.73021 4.0814 0
M  V30 7939 H 745.934 -0.113495 0.661332 0
M  V30 7940 H 748.478 0.301636 2.02263 0
M  V30 7941 H 746.633 -1.71277 3.47481 0
M  V30 7942 H 747.047 -0.366644 5.23217 0
M  V30 7943 H 748.521 -2.07289 5.11601 0
M  V30 7944 H 748.998 -2.6333 3.51502 0
M  V30 7945 H 749.604 -1.07264 4.11551 0
M  V30 7946 N 747.919 -1.57396 -0.0801906 0
M  V30 7947 C 748.851 -1.9982 -1.12271 0
M  V30 7948 C 749.864 -0.902902 -1.35468 0
M  V30 7949 O 751.053 -1.18088 -1.33856 0
M  V30 7950 C 748.153 -2.31476 -2.47532 0
M  V30 7951 C 747.326 -3.62745 -2.44407 0
M  V30 7952 C 746.385 -3.82168 -3.6171 0
M  V30 7953 O 745.411 -4.53852 -3.43522 0
M  V30 7954 N 746.613 -3.2388 -4.81749 0
M  V30 7955 H 749.378 -2.89864 -0.761501 0
M  V30 7956 H 746.939 -1.5965 -0.268965 0
M  V30 7957 H 748.931 -2.4165 -3.24634 0
M  V30 7958 H 747.501 -1.47364 -2.75686 0
M  V30 7959 H 746.721 -3.63403 -1.52747 0
M  V30 7960 H 748.009 -4.48954 -2.39412 0
M  V30 7961 H 747.407 -2.6568 -4.9943 0
M  V30 7962 H 745.964 -3.39515 -5.56392 0
M  V30 7963 N 749.397 0.351382 -1.53633 0
M  V30 7964 C 750.327 1.43688 -1.84055 0
M  V30 7965 C 751.308 1.55251 -0.695073 0
M  V30 7966 O 752.493 1.69587 -0.946257 0
M  V30 7967 C 749.623 2.80843 -2.04315 0
M  V30 7968 C 748.577 2.84094 -3.20117 0
M  V30 7969 C 747.903 4.2406 -3.25696 0
M  V30 7970 C 749.203 2.50334 -4.58399 0
M  V30 7971 H 750.897 1.18478 -2.74961 0
M  V30 7972 H 748.443 0.568509 -1.32303 0
M  V30 7973 H 750.396 3.56821 -2.2418 0
M  V30 7974 H 749.12 3.07471 -1.10132 0
M  V30 7975 H 747.779 2.10568 -3.00094 0
M  V30 7976 H 747.427 4.47785 -2.29123 0
M  V30 7977 H 747.127 4.27147 -4.03509 0
M  V30 7978 H 748.651 5.0189 -3.47762 0
M  V30 7979 H 750.065 3.16025 -4.78332 0
M  V30 7980 H 748.462 2.64717 -5.38558 0
M  V30 7981 H 749.532 1.45542 -4.62543 0
M  V30 7982 N 750.875 1.45233 0.611969 0
M  V30 7983 C 751.838 1.53189 1.70487 0
M  V30 7984 C 752.838 0.411839 1.55437 0
M  V30 7985 O 754.028 0.675164 1.60584 0
M  V30 7986 C 751.16 1.42422 3.09723 0
M  V30 7987 H 752.353 2.5056 1.64802 0
M  V30 7988 H 749.906 1.32609 0.827318 0
M  V30 7989 H 750.641 0.462185 3.2099 0
M  V30 7990 H 750.426 2.23658 3.22055 0
M  V30 7991 H 751.916 1.51012 3.89339 0
M  V30 7992 N 752.353 -0.854086 1.3245 0
M  V30 7993 C 753.578 -1.64597 1.26185 0
M  V30 7994 C 754.003 -1.87357 -0.167074 0
M  V30 7995 O 753.361 -1.42675 -1.11864 0
M  V30 7996 C 753.409 -2.98213 2.02734 0
M  V30 7997 O 752.513 -3.88784 1.37554 0
M  V30 7998 H 751.854 -0.50179 0.434859 0
M  V30 7999 H 754.384 -1.06372 1.74775 0
M  V30 8000 H 754.394 -3.4803 2.1293 0
M  V30 8001 H 753.069 -2.80969 3.06642 0
M  V30 8002 H 751.646 -3.4725 1.3591 0
M  V30 8003 N 753.831 -1.1567 -1.07043 0
M  V30 8004 C 754.794 -0.858906 -2.12498 0
M  V30 8005 C 755.794 0.142735 -1.60165 0
M  V30 8006 O 756.984 -0.0872678 -1.73981 0
M  V30 8007 C 754.116 -0.283021 -3.39723 0
M  V30 8008 H 755.309 -1.79368 -2.40348 0
M  V30 8009 H 752.862 -0.964608 -1.22984 0
M  V30 8010 H 753.597 0.659796 -3.17517 0
M  V30 8011 H 753.382 -1.00467 -3.7901 0
M  V30 8012 H 754.872 -0.0923543 -4.17498 0
M  V30 8013 N 755.309 1.25446 -0.953992 0
M  V30 8014 C 756.556 1.93143 -0.608429 0
M  V30 8015 C 756.884 1.74727 0.854451 0
M  V30 8016 O 756.139 1.0855 1.62836 0
M  V30 8017 C 756.438 3.45555 -0.912496 0
M  V30 8018 C 756.104 3.84126 -2.36131 0
M  V30 8019 C 754.766 3.94367 -2.75732 0
M  V30 8020 C 757.118 4.0324 -3.30223 0
M  V30 8021 C 754.446 4.21127 -4.08496 0
M  V30 8022 C 756.798 4.31493 -4.62598 0
M  V30 8023 C 755.462 4.3995 -5.01996 0
M  V30 8024 H 754.732 0.706762 -0.22264 0
M  V30 8025 H 757.379 1.49005 -1.20291 0
M  V30 8026 H 755.684 3.91091 -0.235618 0
M  V30 8027 H 757.381 3.9612 -0.623714 0
M  V30 8028 H 753.971 3.76711 -2.04418 0
M  V30 8029 H 758.155 3.94744 -3.00817 0
M  V30 8030 H 753.411 4.2589 -4.38665 0
M  V30 8031 H 757.585 4.45227 -5.35486 0
M  V30 8032 H 755.212 4.60439 -6.04896 0
M  V30 8033 N 756.787 0.722489 1.40064 0
M  V30 8034 C 757.75 0.0830209 2.2905 0
M  V30 8035 C 758.75 -0.680208 1.45705 0
M  V30 8036 O 759.94 -0.511084 1.66534 0
M  V30 8037 C 757.072 -0.892092 3.29021 0
M  V30 8038 H 758.265 0.866848 2.87099 0
M  V30 8039 H 755.818 0.487556 1.48501 0
M  V30 8040 H 756.553 -1.70273 2.76003 0
M  V30 8041 H 756.338 -0.34761 3.90556 0
M  V30 8042 H 757.828 -1.33648 3.95636 0
M  V30 8043 N 758.265 -1.50454 0.469181 0
M  V30 8044 C 759.228 -2.2703 -0.314643 0
M  V30 8045 C 760.228 -1.31734 -0.922111 0
M  V30 8046 O 761.418 -1.55176 -0.791588 0
M  V30 8047 C 758.55 -3.08616 -1.44806 0
M  V30 8048 H 759.743 -2.97769 0.356892 0
M  V30 8049 H 757.296 -1.54698 0.223191 0
M  V30 8050 H 758.031 -2.42369 -2.1547 0
M  V30 8051 H 757.816 -3.78647 -1.01829 0
M  V30 8052 H 759.306 -3.66536 -2.00103 0
M  V30 8053 N 759.743 -0.201713 -1.56304 0
M  V30 8054 C 760.992 0.435557 -1.96941 0
M  V30 8055 C 761.305 1.62299 -1.09172 0
M  V30 8056 O 762.511 2.32849 -1.3962 0
M  V30 8057 C 760.967 0.826298 -3.50286 0
M  V30 8058 C 760.575 -0.337216 -4.46729 0
M  V30 8059 C 762.319 1.43028 -3.99679 0
M  V30 8060 C 760.226 0.0748539 -5.91353 0
M  V30 8061 H 759.156 0.1665 -0.735387 0
M  V30 8062 H 761.807 -0.294781 -1.81117 0
M  V30 8063 H 760.189 1.61349 -3.61639 0
M  V30 8064 H 761.363 -1.11476 -4.47113 0
M  V30 8065 H 759.678 -0.853126 -4.07567 0
M  V30 8066 H 762.275 1.75115 -5.05212 0
M  V30 8067 H 762.618 2.33911 -3.44371 0
M  V30 8068 H 763.151 0.706924 -3.91468 0
M  V30 8069 H 759.89 -0.799957 -6.506 0
M  V30 8070 H 759.41 0.817122 -5.94208 0
M  V30 8071 H 761.089 0.508389 -6.45 0
M  V30 8072 N 761.222 1.57436 0.0718424 0
M  V30 8073 C 762.185 2.02703 1.06977 0
M  V30 8074 C 763.185 0.924062 1.31597 0
M  V30 8075 O 764.375 1.18894 1.27318 0
M  V30 8076 C 761.507 2.40763 2.41342 0
M  V30 8077 H 762.7 2.92098 0.679619 0
M  V30 8078 H 760.253 1.5304 0.317565 0
M  V30 8079 H 760.988 1.54394 2.8519 0
M  V30 8080 H 760.773 3.21249 2.24814 0
M  V30 8081 H 762.263 2.76361 3.13073 0
M  V30 8082 N 762.7 -0.34323 1.53817 0
M  V30 8083 C 763.648 -1.44176 1.82527 0
M  V30 8084 C 764.642 -1.54452 0.695772 0
M  V30 8085 O 765.848 -1.57072 0.879114 0
M  V30 8086 H 762.223 -0.480729 0.578277 0
M  V30 8087 H 764.194 -1.17176 2.74431 0
M  V30 8088 C 762.943 -2.80695 2.05197 0
M  V30 8089 H 762.266 -2.73554 2.91561 0
M  V30 8090 H 763.706 -3.56679 2.29251 0
M  V30 8091 C 762.165 -3.26322 0.837589 0
M  V30 8092 O 762.695 -4.01683 0.0371631 0
M  V30 8093 N 760.901 -2.83128 0.654724 0
M  V30 8094 H 760.448 -2.21965 1.30725 0
M  V30 8095 H 760.406 -3.14011 -0.156345 0
M  V30 8096 N 764.178 -1.45556 -0.604258 0
M  V30 8097 C 765.426 -1.4945 -1.36048 0
M  V30 8098 C 765.747 -0.138933 -1.94504 0
M  V30 8099 O 765.017 0.832097 -1.7735 0
M  V30 8100 H 763.597 -0.550381 -0.505064 0
M  V30 8101 H 766.259 -1.81535 -0.709308 0
M  V30 8102 H 765.355 -2.23519 -2.17821 0
M  V30 8103 N 765.656 0.84705 -1.32902 0
M  V30 8104 C 766.904 1.5986 -1.2365 0
M  V30 8105 C 767.225 1.93974 0.199789 0
M  V30 8106 O 766.495 1.60273 1.12648 0
M  V30 8107 H 765.075 0.592696 -0.454665 0
M  V30 8108 H 767.737 1.01278 -1.66519 0
M  V30 8109 H 766.833 2.53218 -1.82448 0
M  V30 8110 N 767.134 1.16236 1.06428 0
M  V30 8111 C 768.362 0.967184 1.82902 0
M  V30 8112 C 768.777 -0.484601 1.82475 0
M  V30 8113 O 768.134 -1.33631 1.24294 0
M  V30 8114 C 768.185 1.48534 3.29576 0
M  V30 8115 O 767.906 2.88026 3.3011 0
M  V30 8116 C 769.407 1.33298 4.22784 0
M  V30 8117 H 766.627 0.342923 0.576754 0
M  V30 8118 H 769.171 1.54232 1.34286 0
M  V30 8119 H 767.326 0.952513 3.75508 0
M  V30 8120 H 767.74 3.11721 4.21818 0
M  V30 8121 H 769.214 1.74385 5.23731 0
M  V30 8122 H 769.691 0.278356 4.38317 0
M  V30 8123 H 770.297 1.85535 3.82697 0
M  V30 8124 N 768.612 -1.24939 0.960631 0
M  V30 8125 C 769.842 -1.96595 0.635123 0
M  V30 8126 C 770.25 -1.71538 -0.798206 0
M  V30 8127 O 769.593 -0.991727 -1.5463 0
M  V30 8128 C 769.655 -3.49994 0.821248 0
M  V30 8129 C 769.319 -3.98738 2.23287 0
M  V30 8130 C 770.316 -4.08965 3.21004 0
M  V30 8131 C 768.001 -4.32247 2.55867 0
M  V30 8132 C 769.995 -4.52025 4.49391 0
M  V30 8133 C 767.682 -4.74991 3.84482 0
M  V30 8134 C 768.68 -4.84844 4.81056 0
M  V30 8135 O 768.368 -5.26638 6.07378 0
M  V30 8136 H 768.1 -0.633265 0.23654 0
M  V30 8137 H 770.654 -1.5991 1.28911 0
M  V30 8138 H 768.884 -3.86543 0.110105 0
M  V30 8139 H 770.573 -4.02859 0.495892 0
M  V30 8140 H 771.339 -3.83302 2.97161 0
M  V30 8141 H 767.218 -4.23801 1.81421 0
M  V30 8142 H 770.762 -4.5963 5.24773 0
M  V30 8143 H 766.659 -5.00101 4.08129 0
M  V30 8144 H 767.427 -5.44807 6.10842 0
M  V30 8145 N 770.09 -0.729906 -1.39679 0
M  V30 8146 C 771.038 -0.0756589 -2.32477 0
M  V30 8147 C 772.032 0.731438 -1.52795 0
M  V30 8148 O 773.238 0.633195 -1.68495 0
M  V30 8149 H 769.613 -0.00566492 -0.751979 0
M  V30 8150 H 771.584 -0.874797 -2.85289 0
M  V30 8151 C 770.333 0.821313 -3.37861 0
M  V30 8152 H 769.656 0.209666 -3.9925 0
M  V30 8153 H 771.096 1.24679 -4.05254 0
M  V30 8154 C 769.555 1.9533 -2.74495 0
M  V30 8155 O 770.085 3.04548 -2.61942 0
M  V30 8156 N 768.291 1.74119 -2.3266 0
M  V30 8157 H 767.838 0.852908 -2.4307 0
M  V30 8158 H 767.796 2.50036 -1.90603 0
M  V30 8159 N 771.568 1.50203 -0.477153 0
M  V30 8160 C 772.516 2.30278 0.327826 0
M  V30 8161 C 773.51 1.37831 0.984839 0
M  V30 8162 O 774.716 1.54994 0.915251 0
M  V30 8163 H 771.091 0.741612 0.124564 0
M  V30 8164 H 773.062 2.96124 -0.367853 0
M  V30 8165 C 771.811 3.18548 1.39365 0
M  V30 8166 H 771.134 3.89596 0.897475 0
M  V30 8167 H 772.574 3.77561 1.92934 0
M  V30 8168 C 771.033 2.36548 2.39889 0
M  V30 8169 O 771.563 2.05282 3.45286 0
M  V30 8170 N 769.769 1.99015 2.11758 0
M  V30 8171 H 769.316 2.24641 1.26071 0
M  V30 8172 H 769.274 1.44454 2.7925 0
M  V30 8173 N 773.046 0.209999 1.56195 0
M  V30 8174 C 774.009 -0.691232 2.18528 0
M  V30 8175 C 775.009 -1.13013 1.14388 0
M  V30 8176 O 776.199 -1.04081 1.39688 0
M  V30 8177 C 773.331 -1.94551 2.79934 0
M  V30 8178 H 774.524 -0.147953 2.99535 0
M  V30 8179 H 772.077 -0.0396243 1.5625 0
M  V30 8180 H 772.812 -2.53094 2.02766 0
M  V30 8181 H 772.597 -1.63938 3.56184 0
M  V30 8182 H 774.087 -2.58785 3.2775 0
M  V30 8183 N 774.524 -1.57472 -0.0634922 0
M  V30 8184 C 775.474 -2.00709 -1.08166 0
M  V30 8185 C 776.458 -0.890498 -1.34011 0
M  V30 8186 O 777.65 -1.15441 -1.34173 0
M  V30 8187 C 774.779 -2.46148 -2.39303 0
M  V30 8188 C 773.865 -3.64559 -2.16697 0
M  V30 8189 N 774.256 -4.78459 -1.64043 0
M  V30 8190 C 772.554 -3.71269 -2.47135 0
M  V30 8191 C 773.255 -5.60268 -1.56445 0
M  V30 8192 N 772.231 -5.04357 -2.02792 0
M  V30 8193 H 776.033 -2.86208 -0.668016 0
M  V30 8194 H 773.547 -1.60133 -0.270426 0
M  V30 8195 H 775.544 -2.75367 -3.13016 0
M  V30 8196 H 774.204 -1.62041 -2.81377 0
M  V30 8197 H 775.215 -5.00587 -1.32791 0
M  V30 8198 H 771.892 -2.97891 -2.92518 0
M  V30 8199 H 773.282 -6.6172 -1.16519 0
M  V30 8200 N 776.003 0.335068 -1.53997 0
M  V30 8201 C 777.228 1.09859 -1.75914 0
M  V30 8202 C 777.653 1.81308 -0.500915 0
M  V30 8203 O 777.011 1.72854 0.54693 0
M  V30 8204 C 777.059 2.08122 -2.94478 0
M  V30 8205 O 776.163 3.15805 -2.65219 0
M  V30 8206 H 775.504 0.317313 -0.583274 0
M  V30 8207 H 778.034 0.382872 -2.00986 0
M  V30 8208 H 778.044 2.51195 -3.21504 0
M  V30 8209 H 776.719 1.55517 -3.8573 0
M  V30 8210 H 775.296 2.77489 -2.49107 0
M  V30 8211 N 777.481 1.45874 0.596531 0
M  V30 8212 C 778.73 1.49737 1.35135 0
M  V30 8213 C 779.043 0.147755 1.95041 0
M  V30 8214 O 780.249 0.0640984 2.71424 0
M  V30 8215 C 778.705 2.6378 2.44843 0
M  V30 8216 C 778.313 4.05102 1.91301 0
M  V30 8217 C 780.057 2.769 3.21755 0
M  V30 8218 C 777.964 5.10508 2.98557 0
M  V30 8219 H 776.894 0.557219 0.507959 0
M  V30 8220 H 779.545 1.72046 0.638147 0
M  V30 8221 H 777.927 2.34774 3.189 0
M  V30 8222 H 779.101 4.43836 1.2388 0
M  V30 8223 H 777.416 3.96528 1.271 0
M  V30 8224 H 780.013 3.52819 4.01775 0
M  V30 8225 H 780.356 1.83924 3.73467 0
M  V30 8226 H 780.889 3.05485 2.54802 0
M  V30 8227 H 777.628 6.0523 2.51749 0
M  V30 8228 H 777.148 4.76332 3.6451 0
M  V30 8229 H 778.827 5.35745 3.62748 0
M  V30 8230 N 778.959 -0.83999 1.33349 0
M  V30 8231 C 779.891 -1.95678 1.19344 0
M  V30 8232 C 780.904 -1.62322 0.124692 0
M  V30 8233 O 782.093 -1.74516 0.375012 0
M  V30 8234 C 779.193 -3.29133 0.807771 0
M  V30 8235 C 778.366 -3.9063 1.96792 0
M  V30 8236 C 777.425 -5.02438 1.56341 0
M  V30 8237 O 776.451 -5.21646 2.27759 0
M  V30 8238 N 777.653 -5.78612 0.467767 0
M  V30 8239 H 780.418 -2.08229 2.15548 0
M  V30 8240 H 777.979 -1.01566 1.26079 0
M  V30 8241 H 779.971 -4.01355 0.519282 0
M  V30 8242 H 778.541 -3.12535 -0.063555 0
M  V30 8243 H 777.761 -3.11011 2.4221 0
M  V30 8244 H 779.049 -4.2845 2.74422 0
M  V30 8245 H 778.447 -5.65559 -0.126324 0
M  V30 8246 H 777.004 -6.51362 0.238945 0
M  V30 8247 N 780.437 -1.16799 -1.0581 0
M  V30 8248 C 781.384 -0.87902 -2.13405 0
M  V30 8249 C 782.354 0.174541 -1.6518 0
M  V30 8250 O 783.539 0.0386843 -1.90761 0
M  V30 8251 C 780.679 -0.391616 -3.42871 0
M  V30 8252 C 779.792 -1.50857 -4.04804 0
M  V30 8253 C 778.927 -0.975682 -5.22163 0
M  V30 8254 C 777.966 -2.06851 -5.76089 0
M  V30 8255 N 777.103 -1.55085 -6.84758 0
M  V30 8256 H 781.943 -1.80043 -2.37463 0
M  V30 8257 H 779.48 -0.898083 -1.16503 0
M  V30 8258 H 781.438 -0.0906247 -4.17102 0
M  V30 8259 H 780.068 0.49284 -3.19016 0
M  V30 8260 H 779.12 -1.92542 -3.28073 0
M  V30 8261 H 780.432 -2.33305 -4.40874 0
M  V30 8262 H 779.586 -0.628165 -6.03439 0
M  V30 8263 H 778.325 -0.120566 -4.87551 0
M  V30 8264 H 777.33 -2.42467 -4.93447 0
M  V30 8265 H 778.555 -2.92768 -6.12751 0
M  V30 8266 H 776.501 -0.718345 -6.52055 0
M  V30 8267 H 776.418 -2.31145 -7.19797 0
M  V30 8268 H 777.686 -1.23206 -7.69702 0
M  V30 8269 N 781.915 1.24427 -0.967243 0
M  V30 8270 C 783.161 1.92772 -0.629812 0
M  V30 8271 C 783.494 1.75436 0.832827 0
M  V30 8272 O 782.769 1.10716 1.59913 0
M  V30 8273 C 783.052 3.45798 -1.00477 0
M  V30 8274 C 782.905 3.72304 -2.52407 0
M  V30 8275 C 784.224 4.36787 -0.538999 0
M  V30 8276 H 781.343 0.700099 -0.230282 0
M  V30 8277 H 783.985 1.46805 -1.20616 0
M  V30 8278 H 782.135 3.8508 -0.514336 0
M  V30 8279 H 783.807 3.42584 -3.08924 0
M  V30 8280 H 782.05 3.17472 -2.95625 0
M  V30 8281 H 782.721 4.7937 -2.73693 0
M  V30 8282 H 785.197 4.04877 -0.959874 0
M  V30 8283 H 784.073 5.4259 -0.829926 0
M  V30 8284 H 784.334 4.38527 0.560923 0
M  V30 8285 N 783.393 0.737304 1.3929 0
M  V30 8286 C 784.639 0.286681 2.00763 0
M  V30 8287 C 784.972 -1.12388 1.58375 0
M  V30 8288 O 784.247 -1.76661 0.813699 0
M  V30 8289 C 784.53 0.391147 3.57969 0
M  V30 8290 C 784.383 1.84165 4.1037 0
M  V30 8291 C 785.702 -0.225072 4.39524 0
M  V30 8292 H 782.821 0.105642 0.729389 0
M  V30 8293 H 785.463 0.933892 1.65464 0
M  V30 8294 H 783.613 -0.159875 3.88171 0
M  V30 8295 H 785.285 2.44972 3.90879 0
M  V30 8296 H 783.528 2.3622 3.63844 0
M  V30 8297 H 784.199 1.866 5.19504 0
M  V30 8298 H 786.675 0.244677 4.1538 0
M  V30 8299 H 785.551 -0.121646 5.48765 0
M  V30 8300 H 785.812 -1.31141 4.22202 0
M  V30 8301 N 784.871 -1.49948 0.485112 0
M  V30 8302 C 786.099 -2.06806 -0.0622824 0
M  V30 8303 C 786.514 -1.34736 -1.32256 0
M  V30 8304 O 785.871 -0.420836 -1.77582 0
M  V30 8305 C 785.922 -3.59934 -0.336096 0
M  V30 8306 O 785.643 -4.29289 0.874203 0
M  V30 8307 C 787.144 -4.33459 -0.928903 0
M  V30 8308 H 784.364 -0.670867 0.0133472 0
M  V30 8309 H 786.908 -1.92937 0.677917 0
M  V30 8310 H 785.063 -3.7356 -1.02625 0
M  V30 8311 H 785.477 -5.20735 0.627332 0
M  V30 8312 H 786.951 -5.41527 -1.07017 0
M  V30 8313 H 787.428 -3.94881 -1.92265 0
M  V30 8314 H 788.034 -4.24399 -0.276705 0
M  V30 8315 N 786.349 -0.21828 -1.56081 0
M  V30 8316 C 787.765 0.137168 -1.59009 0
M  V30 8317 C 787.965 1.59215 -1.23503 0
M  V30 8318 O 787.021 2.33178 -0.968716 0
M  V30 8319 C 788.334 -0.186162 -3.00123 0
M  V30 8320 C 789.882 -0.128135 -3.12738 0
M  V30 8321 C 790.357 -0.425094 -4.56023 0
M  V30 8322 N 791.848 -0.374547 -4.61683 0
M  V30 8323 C 792.583 -0.57786 -5.70481 0
M  V30 8324 N 792.079 -0.842771 -6.87655 0
M  V30 8325 N 793.872 -0.510521 -5.59777 0
M  V30 8326 H 786.023 -1.16746 -1.77437 0
M  V30 8327 H 788.286 -0.467706 -0.824594 0
M  V30 8328 H 787.992 -1.19589 -3.30744 0
M  V30 8329 H 787.866 0.500388 -3.73866 0
M  V30 8330 H 790.253 0.872224 -2.81915 0
M  V30 8331 H 790.334 -0.848112 -2.41331 0
M  V30 8332 H 789.978 -1.42288 -4.87562 0
M  V30 8333 H 789.908 0.316038 -5.25651 0
M  V30 8334 H 792.399 -0.177356 -3.77484 0
M  V30 8335 H 792.712 -0.986095 -7.66483 0
M  V30 8336 H 791.057 -0.879929 -6.89407 0
M  V30 8337 H 794.248 -0.303813 -4.67113 0
M  V30 8338 H 794.421 -0.672378 -6.44502 0
M  V30 8339 N 787.827 1.57504 0.0551401 0
M  V30 8340 C 789.104 1.79155 0.785048 0
M  V30 8341 C 789.484 0.809995 1.94942 0
M  V30 8342 O 788.832 -0.153432 2.27984 0
M  V30 8343 C 789.042 3.26134 1.24247 0
M  V30 8344 C 790.39 3.90419 1.66908 0
M  V30 8345 O 791.414 3.30126 1.33772 0
M  V30 8346 O 790.273 4.96523 2.28314 0
M  V30 8347 H 787.367 0.735825 0.377479 0
M  V30 8348 H 789.913 1.69666 0.0339285 0
M  V30 8349 H 788.685 3.89145 0.410089 0
M  V30 8350 H 788.308 3.40411 2.05441 0
M  V30 8351 N 789.305 -0.326896 1.54172 0
M  V30 8352 C 790.553 -1.06313 1.71878 0
M  V30 8353 C 790.874 -1.88652 0.493498 0
M  V30 8354 O 790.144 -1.89608 -0.492522 0
M  V30 8355 H 788.724 -0.39549 0.633716 0
M  V30 8356 H 791.386 -0.364139 1.91468 0
M  V30 8357 H 790.482 -1.73105 2.59694 0
M  V30 8358 N 790.784 -1.46188 -0.588786 0
M  V30 8359 C 791.694 -1.58865 -1.72624 0
M  V30 8360 C 792.71 -0.472348 -1.67466 0
M  V30 8361 O 793.886 -0.735638 -1.87484 0
M  V30 8362 C 790.951 -1.56989 -3.0912 0
M  V30 8363 C 790.012 -2.79804 -3.25589 0
M  V30 8364 C 789.245 -2.78009 -4.55573 0
M  V30 8365 O 789.468 -1.86406 -5.39082 0
M  V30 8366 O 788.402 -3.6947 -4.75159 0
M  V30 8367 H 792.228 -2.55047 -1.64878 0
M  V30 8368 H 789.813 -1.28912 -0.755115 0
M  V30 8369 H 791.695 -1.58618 -3.90408 0
M  V30 8370 H 790.37 -0.639648 -3.17317 0
M  V30 8371 H 789.277 -2.83732 -2.43818 0
M  V30 8372 H 790.61 -3.72017 -3.22279 0
M  V30 8373 N 792.262 0.832906 -1.33792 0
M  V30 8374 C 793.49 1.62048 -1.28639 0
M  V30 8375 C 793.905 1.88269 0.141522 0
M  V30 8376 O 793.262 1.46706 1.08553 0
M  V30 8377 C 793.313 2.96722 -2.0649 0
M  V30 8378 O 793.034 2.7165 -3.43712 0
M  V30 8379 C 794.535 3.91144 -2.08617 0
M  V30 8380 H 791.755 0.504032 -0.442937 0
M  V30 8381 H 794.299 1.03704 -1.76255 0
M  V30 8382 H 792.454 3.51652 -1.62541 0
M  V30 8383 H 792.868 3.57453 -3.83833 0
M  V30 8384 H 794.342 4.82837 -2.67531 0
M  V30 8385 H 794.819 4.25766 -1.07796 0
M  V30 8386 H 795.425 3.42152 -2.52611 0
M  V30 8387 N 793.74 1.17359 1.05189 0
M  V30 8388 C 794.989 0.956412 1.77583 0
M  V30 8389 C 795.302 -0.516018 1.88671 0
M  V30 8390 O 796.508 -0.851401 2.57805 0
M  V30 8391 C 794.964 1.66203 3.19225 0
M  V30 8392 C 794.572 3.17299 3.16267 0
M  V30 8393 C 796.316 1.52725 3.96075 0
M  V30 8394 C 794.223 3.8055 4.52698 0
M  V30 8395 H 793.153 0.354204 0.665624 0
M  V30 8396 H 795.804 1.40612 1.17901 0
M  V30 8397 H 794.186 1.14006 3.79234 0
M  V30 8398 H 795.36 3.76431 2.65776 0
M  V30 8399 H 793.675 3.3079 2.52917 0
M  V30 8400 H 796.272 1.97351 4.96947 0
M  V30 8401 H 796.615 0.477803 4.13549 0
M  V30 8402 H 797.148 2.02139 3.42614 0
M  V30 8403 H 793.887 4.85492 4.4043 0
M  V30 8404 H 793.407 3.26206 5.03339 0
M  V30 8405 H 795.086 3.82757 5.21638 0
M  V30 8406 N 795.218 -1.23913 0.973828 0
M  V30 8407 C 796.128 -2.28838 0.516735 0
M  V30 8408 C 797.144 -1.68723 -0.425282 0
M  V30 8409 O 798.32 -1.99201 -0.296819 0
M  V30 8410 C 795.385 -3.46233 -0.179914 0
M  V30 8411 C 794.446 -4.21729 0.80269 0
M  V30 8412 C 793.679 -5.33518 0.139191 0
M  V30 8413 O 793.902 -5.60252 -1.07118 0
M  V30 8414 O 792.836 -5.96088 0.834447 0
M  V30 8415 H 796.662 -2.70067 1.38916 0
M  V30 8416 H 794.247 -1.2972 0.74115 0
M  V30 8417 H 796.129 -4.17514 -0.570991 0
M  V30 8418 H 794.804 -3.06969 -1.02721 0
M  V30 8419 H 793.711 -3.52799 1.24434 0
M  V30 8420 H 795.044 -4.64825 1.61859 0
M  V30 8421 N 796.696 -0.74468 -1.38897 0
M  V30 8422 C 797.926 -0.306982 -2.04307 0
M  V30 8423 C 798.334 1.06652 -1.56275 0
M  V30 8424 O 797.677 1.68699 -0.72708 0
M  V30 8425 C 797.739 -0.241186 -3.5869 0
M  V30 8426 C 797.403 -1.55476 -4.2974 0
M  V30 8427 C 798.4 -2.50229 -4.55721 0
M  V30 8428 C 796.085 -1.82173 -4.68101 0
M  V30 8429 C 798.079 -3.69905 -5.19085 0
M  V30 8430 C 795.766 -3.02125 -5.31191 0
M  V30 8431 C 796.764 -3.95812 -5.56616 0
M  V30 8432 O 796.452 -5.13656 -6.18395 0
M  V30 8433 H 796.184 -0.130416 -0.663301 0
M  V30 8434 H 798.738 -1.01192 -1.78744 0
M  V30 8435 H 796.968 0.519925 -3.83189 0
M  V30 8436 H 798.657 0.165806 -4.05561 0
M  V30 8437 H 799.423 -2.30877 -4.26522 0
M  V30 8438 H 795.302 -1.10091 -4.47662 0
M  V30 8439 H 798.846 -4.43047 -5.38846 0
M  V30 8440 H 794.743 -3.21374 -5.59811 0
M  V30 8441 H 795.511 -5.14119 -6.36886 0
M  V30 8442 N 798.174 1.49689 -0.493057 0
M  V30 8443 C 799.451 1.9525 0.116907 0
M  V30 8444 C 799.831 1.43429 1.54892 0
M  V30 8445 O 799.179 0.644621 2.19219 0
M  V30 8446 C 799.389 3.4898 0.037705 0
M  V30 8447 C 800.737 4.24052 0.215621 0
M  V30 8448 O 801.761 3.5602 0.113266 0
M  V30 8449 O 800.62 5.44847 0.42477 0
M  V30 8450 H 797.714 0.820973 0.099662 0
M  V30 8451 H 800.26 1.60367 -0.555029 0
M  V30 8452 H 799.032 3.79309 -0.961251 0
M  V30 8453 H 798.655 3.9046 0.750137 0
M  V30 8454 N 799.652 0.226554 1.55963 0
M  V30 8455 C 800.602 -0.694986 2.1715 0
M  V30 8456 C 801.586 -1.15394 1.12129 0
M  V30 8457 O 802.778 -1.1071 1.38102 0
M  V30 8458 C 799.907 -1.9007 2.85882 0
M  V30 8459 C 798.993 -1.46119 3.98133 0
M  V30 8460 N 799.384 -0.734584 5.00437 0
M  V30 8461 C 797.682 -1.74809 4.10314 0
M  V30 8462 C 798.383 -0.509773 5.79462 0
M  V30 8463 N 797.359 -1.06796 5.33006 0
M  V30 8464 H 801.161 -0.131469 2.93606 0
M  V30 8465 H 798.675 0.0280165 1.62376 0
M  V30 8466 H 800.672 -2.57169 3.28131 0
M  V30 8467 H 799.332 -2.46864 2.10923 0
M  V30 8468 H 800.343 -0.386757 5.16454 0
M  V30 8469 H 797.02 -2.32887 3.46511 0
M  V30 8470 H 798.41 0.0688847 6.71865 0
M  V30 8471 N 801.13 -1.57531 -0.0467866 0
M  V30 8472 C 802.358 -1.92696 -0.753371 0
M  V30 8473 C 802.773 -0.824792 -1.69831 0
M  V30 8474 O 802.13 0.200155 -1.81399 0
M  V30 8475 C 802.181 -3.27728 -1.52566 0
M  V30 8476 O 801.902 -4.3371 -0.618674 0
M  V30 8477 C 803.403 -3.77066 -2.33101 0
M  V30 8478 H 800.623 -0.636367 -0.212788 0
M  V30 8479 H 803.167 -2.04498 -0.00959361 0
M  V30 8480 H 801.322 -3.17378 -2.22148 0
M  V30 8481 H 801.736 -5.11548 -1.15839 0
M  V30 8482 H 803.21 -4.74109 -2.82709 0
M  V30 8483 H 803.687 -3.07348 -3.13741 0
M  V30 8484 H 804.293 -3.90442 -1.68628 0
M  V30 8485 N 802.608 0.318715 -1.54344 0
M  V30 8486 C 803.833 1.07987 -1.77069 0
M  V30 8487 C 804.258 1.80766 -0.520117 0
M  V30 8488 O 803.616 1.73424 0.528566 0
M  V30 8489 C 803.664 2.04987 -2.96669 0
M  V30 8490 O 802.768 3.12974 -2.68554 0
M  V30 8491 H 802.109 0.311109 -0.586606 0
M  V30 8492 H 804.639 0.361533 -2.0138 0
M  V30 8493 H 804.649 2.47771 -3.2415 0
M  V30 8494 H 803.324 1.51417 -3.87357 0
M  V30 8495 H 801.901 2.74831 -2.52037 0
M  V30 8496 N 804.086 1.46499 0.581025 0
M  V30 8497 C 805.036 1.53606 1.68491 0
M  V30 8498 C 806.02 0.396853 1.55929 0
M  V30 8499 O 807.212 0.645366 1.64815 0
M  V30 8500 C 804.341 1.53089 3.07276 0
M  V30 8501 C 803.427 2.72309 3.25128 0
M  V30 8502 N 803.818 3.97216 3.13134 0
M  V30 8503 C 802.116 2.68568 3.56072 0
M  V30 8504 C 802.817 4.7693 3.33036 0
M  V30 8505 N 801.793 4.08833 3.58269 0
M  V30 8506 H 805.595 2.47976 1.5775 0
M  V30 8507 H 803.109 1.42161 0.785104 0
M  V30 8508 H 805.106 1.56268 3.86505 0
M  V30 8509 H 803.766 0.597969 3.19146 0
M  V30 8510 H 804.777 4.28439 2.90964 0
M  V30 8511 H 801.454 1.84307 3.74616 0
M  V30 8512 H 802.844 5.85879 3.28932 0
M  V30 8513 N 805.565 -0.825799 1.34232 0
M  V30 8514 C 806.512 -1.93651 1.2557 0
M  V30 8515 C 807.482 -1.65578 0.131536 0
M  V30 8516 O 808.667 -1.88231 0.312027 0
M  V30 8517 C 805.807 -3.29862 1.01415 0
M  V30 8518 C 804.92 -3.70247 2.22579 0
M  V30 8519 C 804.055 -4.95392 1.91731 0
M  V30 8520 C 803.094 -5.28349 3.09053 0
M  V30 8521 N 802.231 -6.44671 2.78107 0
M  V30 8522 H 807.071 -2.00392 2.20561 0
M  V30 8523 H 804.608 -0.980441 1.09662 0
M  V30 8524 H 806.566 -4.08356 0.854485 0
M  V30 8525 H 805.196 -3.22642 0.100936 0
M  V30 8526 H 804.248 -2.87169 2.49476 0
M  V30 8527 H 805.56 -3.90575 3.10246 0
M  V30 8528 H 804.714 -5.81665 1.72484 0
M  V30 8529 H 803.453 -4.77059 1.0132 0
M  V30 8530 H 802.458 -4.40574 3.289 0
M  V30 8531 H 803.683 -5.48622 4.00239 0
M  V30 8532 H 801.629 -6.278 1.9027 0
M  V30 8533 H 801.546 -6.65158 3.59306 0
M  V30 8534 H 802.814 -7.34022 2.62358 0
M  V30 8535 N 807.043 -1.17915 -1.04565 0
M  V30 8536 C 808.006 -0.903787 -2.10628 0
M  V30 8537 C 809.006 0.10873 -1.60432 0
M  V30 8538 O 810.196 -0.124152 -1.73757 0
M  V30 8539 C 807.328 -0.355017 -3.39046 0
M  V30 8540 H 808.521 -1.84425 -2.3649 0
M  V30 8541 H 806.074 -0.990477 -1.2091 0
M  V30 8542 H 806.809 0.592297 -3.18845 0
M  V30 8543 H 806.594 -1.08484 -3.76794 0
M  V30 8544 H 808.084 -0.180891 -4.17208 0
M  V30 8545 N 808.521 1.23394 -0.980386 0
M  V30 8546 C 809.454 2.23404 -0.465404 0
M  V30 8547 C 810.432 1.55735 0.467471 0
M  V30 8548 O 811.616 1.84295 0.395921 0
M  V30 8549 C 808.743 3.3712 0.32672 0
M  V30 8550 C 807.789 4.22935 -0.550296 0
M  V30 8551 S 808.622 4.96824 -1.99814 0
M  V30 8552 C 809.778 6.13991 -1.21516 0
M  V30 8553 H 810.011 2.6674 -1.31289 0
M  V30 8554 H 807.544 1.32874 -0.78638 0
M  V30 8555 H 809.502 4.03065 0.777738 0
M  V30 8556 H 808.163 2.92317 1.14933 0
M  V30 8557 H 807.356 5.03966 0.0585298 0
M  V30 8558 H 806.958 3.62058 -0.937558 0
M  V30 8559 H 809.25 6.75822 -0.476476 0
M  V30 8560 H 810.193 6.7926 -2.0003 0
M  V30 8561 H 810.601 5.59708 -0.733949 0
M  V30 8562 N 809.999 0.752036 1.385 0
M  V30 8563 C 811.224 0.316993 2.04963 0
M  V30 8564 C 811.649 -1.04582 1.56346 0
M  V30 8565 O 811.007 -1.66616 0.714755 0
M  V30 8566 C 811.055 0.347235 3.58924 0
M  V30 8567 O 810.159 -0.659296 4.07096 0
M  V30 8568 H 809.5 0.140652 0.648932 0
M  V30 8569 H 812.03 1.02272 1.77205 0
M  V30 8570 H 812.04 0.19757 4.07521 0
M  V30 8571 H 810.715 1.34157 3.93668 0
M  V30 8572 H 809.292 -0.474371 3.6987 0
M  V30 8573 N 811.477 -1.49425 0.500989 0
M  V30 8574 C 812.754 -1.9531 -0.106551 0
M  V30 8575 C 813.134 -1.44248 -1.54129 0
M  V30 8576 O 812.482 -0.656237 -2.18874 0
M  V30 8577 C 812.692 -3.48995 -0.0191972 0
M  V30 8578 C 814.04 -4.24161 -0.193129 0
M  V30 8579 O 815.064 -3.56075 -0.0943843 0
M  V30 8580 O 813.923 -5.45064 -0.395869 0
M  V30 8581 H 811.017 -0.82149 -0.0953068 0
M  V30 8582 H 813.563 -1.6007 0.563526 0
M  V30 8583 H 812.335 -3.78794 0.981353 0
M  V30 8584 H 811.958 -3.90852 -0.72942 0
M  V30 8585 N 812.955 -0.234822 -1.55841 0
M  V30 8586 C 814.185 0.397168 -2.02746 0
M  V30 8587 C 814.593 1.52951 -1.11367 0
M  V30 8588 O 813.936 1.8332 -0.118133 0
M  V30 8589 C 813.998 0.977748 -3.45948 0
M  V30 8590 C 813.662 -0.0208193 -4.56995 0
M  V30 8591 C 814.659 -0.826015 -5.13296 0
M  V30 8592 C 812.344 -0.143416 -5.02095 0
M  V30 8593 C 814.338 -1.74038 -6.1318 0
M  V30 8594 C 812.025 -1.0613 -6.01814 0
M  V30 8595 C 813.023 -1.85832 -6.57233 0
M  V30 8596 O 812.711 -2.76075 -7.55008 0
M  V30 8597 H 812.443 0.0999802 -0.668566 0
M  V30 8598 H 814.997 -0.352673 -2.0235 0
M  V30 8599 H 813.227 1.77693 -3.43456 0
M  V30 8600 H 814.916 1.51854 -3.76424 0
M  V30 8601 H 815.682 -0.741822 -4.79293 0
M  V30 8602 H 811.561 0.466857 -4.5863 0
M  V30 8603 H 815.105 -2.36291 -6.56363 0
M  V30 8604 H 811.002 -1.14646 -6.35237 0
M  V30 8605 H 811.77 -2.703 -7.7258 0
M  V30 8606 N 814.433 1.57553 0.0384317 0
M  V30 8607 C 815.661 1.93093 0.743141 0
M  V30 8608 C 816.076 0.833787 1.69391 0
M  V30 8609 O 815.433 -0.190532 1.81503 0
M  V30 8610 C 815.484 3.28533 1.50826 0
M  V30 8611 O 815.205 4.34032 0.595665 0
M  V30 8612 C 816.706 3.78297 2.31098 0
M  V30 8613 H 813.926 0.637486 0.20941 0
M  V30 8614 H 816.47 2.045 -0.00125154 0
M  V30 8615 H 814.625 3.18552 2.20462 0
M  V30 8616 H 815.039 5.12155 1.13124 0
M  V30 8617 H 816.513 4.75602 2.80191 0
M  V30 8618 H 816.99 3.09008 3.12107 0
M  V30 8619 H 817.596 3.91331 1.66555 0
M  V30 8620 N 815.911 -0.310526 1.54511 0
M  V30 8621 C 816.874 -1.3657 1.84068 0
M  V30 8622 C 817.874 -1.44123 0.713097 0
M  V30 8623 O 819.064 -1.43924 0.981399 0
M  V30 8624 C 816.196 -2.75162 2.01243 0
M  V30 8625 H 817.389 -1.1161 2.78358 0
M  V30 8626 H 814.942 -0.546699 1.46427 0
M  V30 8627 H 815.677 -3.05359 1.09208 0
M  V30 8628 H 815.462 -2.71071 2.83307 0
M  V30 8629 H 816.952 -3.51473 2.25514 0
M  V30 8630 N 817.389 -1.46805 -0.573248 0
M  V30 8631 C 818.619 -1.55965 -1.35494 0
M  V30 8632 C 819.027 -0.203038 -1.88107 0
M  V30 8633 O 818.37 0.81138 -1.6481 0
M  V30 8634 C 818.432 -2.51168 -2.57206 0
M  V30 8635 C 818.096 -3.97211 -2.25993 0
M  V30 8636 C 819.093 -4.86155 -1.84254 0
M  V30 8637 C 816.778 -4.42419 -2.37846 0
M  V30 8638 C 818.772 -6.18323 -1.54776 0
M  V30 8639 C 816.459 -5.74619 -2.0798 0
M  V30 8640 C 817.457 -6.62392 -1.66511 0
M  V30 8641 O 817.145 -7.92137 -1.37016 0
M  V30 8642 H 816.877 -0.529748 -0.419932 0
M  V30 8643 H 819.431 -1.92998 -0.702914 0
M  V30 8644 H 817.661 -2.09171 -3.25245 0
M  V30 8645 H 819.35 -2.50631 -3.19279 0
M  V30 8646 H 820.116 -4.52481 -1.74603 0
M  V30 8647 H 815.995 -3.74319 -2.69085 0
M  V30 8648 H 819.539 -6.8679 -1.22334 0
M  V30 8649 H 815.436 -6.0784 -2.17258 0
M  V30 8650 H 816.204 -8.04492 -1.50782 0
M  V30 8651 N 818.867 0.818669 -1.34668 0
M  V30 8652 C 819.8 1.93516 -1.20941 0
M  V30 8653 C 820.778 1.62292 -0.100061 0
M  V30 8654 O 821.962 1.86614 -0.265983 0
M  V30 8655 C 819.089 3.27612 -0.859524 0
M  V30 8656 C 818.135 3.77794 -1.97923 0
M  V30 8657 S 818.968 3.97043 -3.59329 0
M  V30 8658 C 820.124 5.3406 -3.2639 0
M  V30 8659 H 820.357 2.04864 -2.15449 0
M  V30 8660 H 817.89 0.974716 -1.19744 0
M  V30 8661 H 819.848 4.05087 -0.664444 0
M  V30 8662 H 818.509 3.14028 0.0672835 0
M  V30 8663 H 817.702 4.74883 -1.68827 0
M  V30 8664 H 817.304 3.0728 -2.13202 0
M  V30 8665 H 819.596 6.17626 -2.78469 0
M  V30 8666 H 820.539 5.68143 -4.22634 0
M  V30 8667 H 820.947 4.99773 -2.62464 0
M  V30 8668 N 820.346 1.18468 1.03938 0
M  V30 8669 C 821.276 0.936389 2.13902 0
M  V30 8670 C 822.257 -0.126381 1.6963 0
M  V30 8671 O 823.442 0.0264757 1.94182 0
M  V30 8672 C 820.572 0.462729 3.44204 0
M  V30 8673 C 819.526 1.46613 4.02105 0
M  V30 8674 C 818.852 0.84994 5.27902 0
M  V30 8675 C 820.152 2.84323 4.3813 0
M  V30 8676 H 821.846 1.85602 2.3493 0
M  V30 8677 H 819.392 0.893806 1.12903 0
M  V30 8678 H 821.345 0.276382 4.20493 0
M  V30 8679 H 820.069 -0.492477 3.22866 0
M  V30 8680 H 818.728 1.63944 3.27899 0
M  V30 8681 H 818.376 -0.112493 5.02874 0
M  V30 8682 H 818.076 1.51988 5.67603 0
M  V30 8683 H 819.6 0.674152 6.06867 0
M  V30 8684 H 821.014 2.70636 5.054 0
M  V30 8685 H 819.411 3.48012 4.88884 0
M  V30 8686 H 820.481 3.37776 3.47901 0
M  V30 8687 N 821.824 -1.22873 0.986916 0
M  V30 8688 C 822.787 -2.2281 0.537442 0
M  V30 8689 C 823.787 -1.56331 -0.37646 0
M  V30 8690 O 824.977 -1.73376 -0.169247 0
M  V30 8691 C 822.109 -3.40195 -0.219082 0
M  V30 8692 H 823.302 -2.64089 1.42116 0
M  V30 8693 H 820.855 -1.35819 0.773488 0
M  V30 8694 H 821.59 -3.04381 -1.11905 0
M  V30 8695 H 821.375 -3.89657 0.437026 0
M  V30 8696 H 822.865 -4.14326 -0.521926 0
M  V30 8697 N 823.302 -0.75937 -1.38099 0
M  V30 8698 C 824.212 -0.13774 -2.34195 0
M  V30 8699 C 825.228 0.693985 -1.59561 0
M  V30 8700 O 826.404 0.616792 -1.91723 0
M  V30 8701 C 823.469 0.740535 -3.38699 0
M  V30 8702 C 822.53 -0.106225 -4.29169 0
M  V30 8703 C 821.763 0.730225 -5.28681 0
M  V30 8704 O 821.986 1.96796 -5.35376 0
M  V30 8705 O 820.92 0.145969 -6.01723 0
M  V30 8706 H 824.746 -0.931512 -2.89061 0
M  V30 8707 H 822.331 -0.520345 -1.40046 0
M  V30 8708 H 824.213 1.24232 -4.02672 0
M  V30 8709 H 822.888 1.51271 -2.8618 0
M  V30 8710 H 821.795 -0.654088 -3.68337 0
M  V30 8711 H 823.128 -0.841186 -4.84959 0
M  V30 8712 N 824.78 1.49157 -0.508906 0
M  V30 8713 C 825.713 2.26056 0.312103 0
M  V30 8714 C 826.691 1.30982 0.963456 0
M  V30 8715 O 827.875 1.60286 0.992002 0
M  V30 8716 C 825.002 3.06555 1.4402 0
M  V30 8717 C 824.048 4.16844 0.902414 0
M  V30 8718 S 824.881 5.35076 -0.213087 0
M  V30 8719 C 826.037 6.19132 0.917985 0
M  V30 8720 H 826.27 2.95343 -0.340559 0
M  V30 8721 H 823.803 1.51569 -0.294331 0
M  V30 8722 H 825.761 3.53517 2.08653 0
M  V30 8723 H 824.422 2.36722 2.0645 0
M  V30 8724 H 823.615 4.72714 1.74806 0
M  V30 8725 H 823.217 3.72513 0.333156 0
M  V30 8726 H 825.509 6.52556 1.82145 0
M  V30 8727 H 826.452 7.06982 0.397724 0
M  V30 8728 H 826.86 5.51839 1.18889 0
M  V30 8729 N 826.258 0.243083 1.55714 0
M  V30 8730 C 827.188 -0.652336 2.24203 0
M  V30 8731 C 828.169 -1.1843 1.221 0
M  V30 8732 O 829.354 -1.22435 1.50743 0
M  V30 8733 C 826.484 -1.85111 2.93856 0
M  V30 8734 C 825.438 -1.45208 4.02615 0
M  V30 8735 C 824.764 -2.73137 4.59674 0
M  V30 8736 C 826.064 -0.625988 5.18535 0
M  V30 8737 H 827.758 -0.0812504 2.9929 0
M  V30 8738 H 825.304 -0.0376388 1.43951 0
M  V30 8739 H 827.257 -2.48314 3.40468 0
M  V30 8740 H 825.981 -2.44751 2.16251 0
M  V30 8741 H 824.64 -0.843406 3.56766 0
M  V30 8742 H 824.288 -3.30967 3.78774 0
M  V30 8743 H 823.988 -2.47163 5.33089 0
M  V30 8744 H 825.512 -3.37245 5.09017 0
M  V30 8745 H 826.926 -1.16223 5.61396 0
M  V30 8746 H 825.323 -0.462465 5.98315 0
M  V30 8747 H 826.393 0.362652 4.83542 0
M  V30 8748 N 827.736 -1.57571 -0.0300757 0
M  V30 8749 C 828.683 -2.06492 -1.03101 0
M  V30 8750 C 829.653 -0.953862 -1.3598 0
M  V30 8751 O 830.838 -1.22436 -1.46335 0
M  V30 8752 C 827.978 -2.54826 -2.32718 0
M  V30 8753 C 827.091 -3.79718 -2.06006 0
M  V30 8754 C 826.226 -4.16668 -3.29487 0
M  V30 8755 C 825.265 -5.3448 -2.98324 0
M  V30 8756 N 824.402 -5.66867 -4.14254 0
M  V30 8757 H 829.242 -2.91755 -0.606877 0
M  V30 8758 H 826.779 -1.44252 -0.288038 0
M  V30 8759 H 828.737 -2.80916 -3.08451 0
M  V30 8760 H 827.367 -1.72481 -2.72856 0
M  V30 8761 H 826.419 -3.60718 -1.20774 0
M  V30 8762 H 827.731 -4.65569 -1.79017 0
M  V30 8763 H 826.885 -4.43881 -4.13588 0
M  V30 8764 H 825.624 -3.29466 -3.59588 0
M  V30 8765 H 824.629 -5.07021 -2.12625 0
M  V30 8766 H 825.854 -6.23334 -2.69502 0
M  V30 8767 H 823.8 -4.82625 -4.44308 0
M  V30 8768 H 823.717 -6.47226 -3.90685 0
M  V30 8769 H 824.985 -5.98656 -4.99231 0
M  V30 8770 N 829.214 0.302327 -1.54673 0
M  V30 8771 C 830.462 1.03565 -1.73547 0
M  V30 8772 C 830.783 1.87843 -0.523448 0
M  V30 8773 O 830.053 1.90367 0.462295 0
M  V30 8774 H 828.633 0.385358 -0.639928 0
M  V30 8775 H 831.295 0.333632 -1.92023 0
M  V30 8776 H 830.391 1.68952 -2.62415 0
M  V30 8777 N 830.692 1.47107 0.565454 0
M  V30 8778 C 831.92 1.56909 1.3486 0
M  V30 8779 C 832.335 0.216312 1.87557 0
M  V30 8780 O 831.692 -0.789168 1.64555 0
M  V30 8781 C 831.743 2.58776 2.52423 0
M  V30 8782 O 831.464 3.888 2.01906 0
M  V30 8783 C 832.965 2.78683 3.44747 0
M  V30 8784 H 830.185 0.530096 0.411387 0
M  V30 8785 H 832.729 1.92658 0.685782 0
M  V30 8786 H 830.884 2.25983 3.1466 0
M  V30 8787 H 831.298 4.44393 2.78595 0
M  V30 8788 H 832.772 3.53842 4.23674 0
M  V30 8789 H 833.249 1.86208 3.97773 0
M  V30 8790 H 833.855 3.12641 2.88333 0
M  V30 8791 N 832.17 -0.811516 1.35101 0
M  V30 8792 C 833.417 -1.56835 1.28098 0
M  V30 8793 C 833.745 -1.93951 -0.14597 0
M  V30 8794 O 833 -1.61173 -1.11004 0
M  V30 8795 C 833.299 -2.87121 2.1283 0
M  V30 8796 C 832.965 -2.69245 3.61688 0
M  V30 8797 C 831.627 -2.64078 4.02264 0
M  V30 8798 C 833.979 -2.52122 4.56162 0
M  V30 8799 C 831.307 -2.39724 5.3549 0
M  V30 8800 C 833.659 -2.29298 5.89581 0
M  V30 8801 C 832.323 -2.2255 6.29307 0
M  V30 8802 H 831.593 -0.5739 0.468742 0
M  V30 8803 H 834.24 -0.93806 1.66951 0
M  V30 8804 H 832.545 -3.54502 1.66841 0
M  V30 8805 H 834.242 -3.44788 2.0475 0
M  V30 8806 H 830.832 -2.74112 3.29485 0
M  V30 8807 H 835.016 -2.5513 4.25702 0
M  V30 8808 H 830.272 -2.32965 5.65276 0
M  V30 8809 H 834.446 -2.15038 6.62368 0
M  V30 8810 H 832.073 -2.0344 7.32473 0
M  V30 8811 N 833.648 -1.19017 -1.03309 0
M  V30 8812 C 834.595 -0.924088 -2.11493 0
M  V30 8813 C 835.565 0.139464 -1.65513 0
M  V30 8814 O 836.75 -0.00178761 -1.908 0
M  V30 8815 C 833.89 -0.464255 -3.41963 0
M  V30 8816 C 833.003 -1.5941 -4.01513 0
M  V30 8817 C 832.138 -1.08622 -5.19976 0
M  V30 8818 C 831.177 -2.19024 -5.71572 0
M  V30 8819 N 830.314 -1.69575 -6.81314 0
M  V30 8820 H 835.154 -1.85039 -2.33591 0
M  V30 8821 H 832.691 -0.922593 -1.14572 0
M  V30 8822 H 834.649 -0.179078 -4.16815 0
M  V30 8823 H 833.279 0.425062 -3.19989 0
M  V30 8824 H 832.331 -1.99458 -3.23915 0
M  V30 8825 H 833.643 -2.42604 -4.35826 0
M  V30 8826 H 832.797 -0.756022 -6.01971 0
M  V30 8827 H 831.536 -0.223955 -4.87186 0
M  V30 8828 H 830.541 -2.5288 -4.88193 0
M  V30 8829 H 831.766 -3.05699 -6.06403 0
M  V30 8830 H 829.712 -0.856494 -6.50385 0
M  V30 8831 H 829.629 -2.46361 -7.14732 0
M  V30 8832 H 830.897 -1.39505 -7.66915 0
M  V30 8833 N 835.127 1.22348 -0.993418 0
M  V30 8834 C 836.538 1.72893 -0.704616 0
M  V30 8835 C 836.889 1.80095 0.778483 0
M  V30 8836 O 836.014 1.4476 1.60853 0
M  V30 8837 C 836.609 3.14 -1.27237 0
M  V30 8838 C 835.168 3.61949 -1.03294 0
M  V30 8839 C 834.315 2.39816 -1.39225 0
M  V30 8840 H 837.266 1.07688 -1.16572 0
M  V30 8841 H 837.287 3.74886 -0.651212 0
M  V30 8842 H 836.799 3.08727 -2.3518 0
M  V30 8843 H 834.9 3.72588 0.0298329 0
M  V30 8844 H 835.013 4.48051 -1.69668 0
M  V30 8845 H 833.377 2.41448 -0.810849 0
M  V30 8846 H 834.16 2.37203 -2.48172 0
M  V30 8847 N 836.605 0.766683 1.37694 0
M  V30 8848 C 837.835 0.339446 2.03792 0
M  V30 8849 C 838.243 -1.04153 1.57952 0
M  V30 8850 O 837.586 -1.67521 0.753826 0
M  V30 8851 C 837.648 0.29822 3.58261 0
M  V30 8852 C 837.312 1.62293 4.27212 0
M  V30 8853 C 838.309 2.57447 4.51682 0
M  V30 8854 C 835.994 1.89597 4.65143 0
M  V30 8855 C 837.988 3.78117 5.13134 0
M  V30 8856 C 835.675 3.10538 5.26317 0
M  V30 8857 C 836.673 4.04617 5.50249 0
M  V30 8858 O 836.361 5.23429 6.10145 0
M  V30 8859 H 836.093 0.140952 0.661142 0
M  V30 8860 H 838.647 1.04022 1.77111 0
M  V30 8861 H 836.877 -0.458897 3.83967 0
M  V30 8862 H 838.566 -0.101263 4.05774 0
M  V30 8863 H 839.332 2.37633 4.22795 0
M  V30 8864 H 835.211 1.17199 4.45854 0
M  V30 8865 H 838.755 4.51563 5.3173 0
M  V30 8866 H 834.652 3.3024 5.54628 0
M  V30 8867 H 835.42 5.24187 6.28626 0
M  V30 8868 N 838.083 -1.48885 0.516809 0
M  V30 8869 C 839.331 -2.02088 -0.0220166 0
M  V30 8870 C 839.652 -1.39735 -1.36011 0
M  V30 8871 O 838.922 -0.558119 -1.87781 0
M  V30 8872 H 837.502 -0.746917 -0.0111255 0
M  V30 8873 H 840.164 -1.8274 0.677647 0
M  V30 8874 H 839.26 -3.11786 -0.140067 0
M  V30 8875 N 839.561 -0.251338 -1.55583 0
M  V30 8876 C 840.786 0.379136 -2.03905 0
M  V30 8877 C 841.211 1.50428 -1.12929 0
M  V30 8878 O 840.569 1.80882 -0.123114 0
M  V30 8879 C 840.617 0.86009 -3.50193 0
M  V30 8880 O 839.721 1.96932 -3.62342 0
M  V30 8881 H 839.062 0.0820183 -0.658915 0
M  V30 8882 H 841.592 -0.378692 -2.01065 0
M  V30 8883 H 841.602 1.16214 -3.91099 0
M  V30 8884 H 840.277 0.0367559 -4.15884 0
M  V30 8885 H 838.854 1.67163 -3.33333 0
M  V30 8886 N 841.039 1.57585 0.0217189 0
M  V30 8887 C 842.002 2.06004 1.00474 0
M  V30 8888 C 843.002 0.965461 1.2859 0
M  V30 8889 O 844.192 1.22884 1.23471 0
M  V30 8890 C 841.324 2.48319 2.33561 0
M  V30 8891 H 842.517 2.94112 0.586346 0
M  V30 8892 H 840.07 1.53973 0.268716 0
M  V30 8893 H 840.805 1.63389 2.80133 0
M  V30 8894 H 840.59 3.28239 2.1448 0
M  V30 8895 H 842.08 2.86181 3.04122 0
M  V30 8896 N 842.517 -0.29412 1.54831 0
M  V30 8897 C 843.747 -1.04572 1.7818 0
M  V30 8898 C 844.155 -1.81187 0.544776 0
M  V30 8899 O 843.498 -1.769 -0.495169 0
M  V30 8900 C 843.56 -2.06748 2.94101 0
M  V30 8901 C 843.224 -1.49265 4.31936 0
M  V30 8902 C 844.221 -0.919136 5.11711 0
M  V30 8903 C 841.906 -1.52621 4.78552 0
M  V30 8904 C 843.9 -0.386824 6.36225 0
M  V30 8905 C 841.587 -0.990031 6.03027 0
M  V30 8906 C 842.585 -0.421315 6.81699 0
M  V30 8907 O 842.273 0.106713 8.03829 0
M  V30 8908 H 842.005 -0.31559 0.597812 0
M  V30 8909 H 844.559 -0.336817 2.0262 0
M  V30 8910 H 842.789 -2.81339 2.65303 0
M  V30 8911 H 844.478 -2.67865 3.04964 0
M  V30 8912 H 845.244 -0.886062 4.76837 0
M  V30 8913 H 841.123 -1.95826 4.17341 0
M  V30 8914 H 844.667 0.0577248 6.97576 0
M  V30 8915 H 840.564 -1.02027 6.37386 0
M  V30 8916 H 841.332 -0.00593526 8.185 0
M  V30 8917 N 843.995 -1.47404 -0.557645 0
M  V30 8918 C 845.243 -1.53703 -1.31224 0
M  V30 8919 C 845.564 -0.200742 -1.93964 0
M  V30 8920 O 844.834 0.775253 -1.79907 0
M  V30 8921 H 843.414 -0.566171 -0.487299 0
M  V30 8922 H 846.076 -1.83699 -0.651195 0
M  V30 8923 H 845.172 -2.30335 -2.10599 0
M  V30 8924 N 845.473 0.80434 -1.35529 0
M  V30 8925 C 846.423 1.90565 -1.25175 0
M  V30 8926 C 847.407 1.60232 -0.146512 0
M  V30 8927 O 848.599 1.72918 -0.377943 0
M  V30 8928 C 845.728 3.2754 -1.02823 0
M  V30 8929 C 844.814 3.63932 -2.17748 0
M  V30 8930 N 845.205 3.71744 -3.42986 0
M  V30 8931 C 843.503 3.93901 -2.09184 0
M  V30 8932 C 844.204 4.03944 -4.18574 0
M  V30 8933 N 843.18 4.18146 -3.47355 0
M  V30 8934 H 846.982 1.9481 -2.20059 0
M  V30 8935 H 844.496 0.99905 -1.28034 0
M  V30 8936 H 846.493 4.06281 -0.934941 0
M  V30 8937 H 845.153 3.2458 -0.0882551 0
M  V30 8938 H 846.164 3.54765 -3.77309 0
M  V30 8939 H 842.841 3.98954 -1.23054 0
M  V30 8940 H 844.231 4.17036 -5.26811 0
M  V30 8941 N 846.951 1.19563 1.02676 0
M  V30 8942 C 848.199 0.997593 1.75763 0
M  V30 8943 C 848.52 -0.47253 1.89188 0
M  V30 8944 O 847.79 -1.34214 1.42701 0
M  V30 8945 H 846.37 0.366128 0.651122 0
M  V30 8946 H 849.032 1.50495 1.23844 0
M  V30 8947 H 848.128 1.44741 2.76508 0
M  V30 8948 N 848.429 -1.21819 0.999893 0
M  V30 8949 C 849.675 -1.91035 0.680701 0
M  V30 8950 C 850.008 -1.77582 -0.786021 0
M  V30 8951 O 849.283 -1.14917 -1.56921 0
M  V30 8952 C 849.566 -3.43013 1.0961 0
M  V30 8953 C 849.419 -3.65481 2.6219 0
M  V30 8954 C 850.738 -4.35204 0.654616 0
M  V30 8955 H 847.857 -0.693748 0.248763 0
M  V30 8956 H 850.499 -1.43555 1.24466 0
M  V30 8957 H 848.649 -3.83581 0.616253 0
M  V30 8958 H 850.321 -3.34273 3.17899 0
M  V30 8959 H 848.564 -3.09522 3.03938 0
M  V30 8960 H 849.235 -4.71945 2.86307 0
M  V30 8961 H 851.711 -4.0219 1.06688 0
M  V30 8962 H 850.587 -5.40198 0.973492 0
M  V30 8963 H 850.848 -4.3986 -0.444458 0
M  V30 8964 N 849.908 -0.773975 -1.37286 0
M  V30 8965 C 851.133 -0.349561 -2.04433 0
M  V30 8966 C 851.558 1.02082 -1.5799 0
M  V30 8967 O 850.916 1.65458 -0.741172 0
M  V30 8968 C 850.964 -0.404292 -3.58326 0
M  V30 8969 O 850.068 0.594447 -4.08093 0
M  V30 8970 H 849.409 -0.150959 -0.646612 0
M  V30 8971 H 851.939 -1.05079 -1.75555 0
M  V30 8972 H 851.949 -0.262378 -4.07155 0
M  V30 8973 H 850.624 -1.40403 -3.91484 0
M  V30 8974 H 849.201 0.415468 -3.70578 0
M  V30 8975 N 851.386 1.48609 -0.524698 0
M  V30 8976 C 852.634 2.02097 0.0112991 0
M  V30 8977 C 852.955 1.40455 1.35268 0
M  V30 8978 O 852.225 0.56807 1.87483 0
M  V30 8979 H 850.805 0.746966 0.00716426 0
M  V30 8980 H 853.467 1.82378 -0.687329 0
M  V30 8981 H 852.563 3.11855 0.123531 0
M  V30 8982 N 852.864 0.259585 1.55447 0
M  V30 8983 C 854.11 -0.362143 1.9954 0
M  V30 8984 C 854.443 -1.5666 1.14767 0
M  V30 8985 O 853.718 -1.93319 0.214025 0
M  V30 8986 C 854.001 -0.759588 3.51998 0
M  V30 8987 C 853.854 0.451134 4.47532 0
M  V30 8988 C 855.173 -1.60186 4.09913 0
M  V30 8989 H 852.292 -0.130157 0.725416 0
M  V30 8990 H 854.934 0.363431 1.86492 0
M  V30 8991 H 853.084 -1.3778 3.63248 0
M  V30 8992 H 854.756 1.08965 4.48246 0
M  V30 8993 H 852.999 1.092 4.19831 0
M  V30 8994 H 853.67 0.129518 5.51848 0
M  V30 8995 H 856.146 -1.0799 4.01842 0
M  V30 8996 H 855.022 -1.84879 5.16828 0
M  V30 8997 H 855.283 -2.57787 3.59163 0
M  V30 8998 N 854.342 -1.57594 -0.0133615 0
M  V30 8999 C 855.29 -2.08682 -1.02736 0
M  V30 9000 C 856.284 -1.00391 -1.36448 0
M  V30 9001 O 857.49 -1.18868 -1.35168 0
M  V30 9002 H 853.865 -0.666158 -0.34891 0
M  V30 9003 H 855.836 -2.9289 -0.570815 0
M  V30 9004 C 854.585 -2.5945 -2.31476 0
M  V30 9005 H 853.908 -3.42401 -2.06401 0
M  V30 9006 H 855.348 -2.98888 -3.00735 0
M  V30 9007 C 853.807 -1.50266 -3.01533 0
M  V30 9008 O 854.337 -0.877875 -3.9199 0
M  V30 9009 N 852.543 -1.23336 -2.63129 0
M  V30 9010 H 852.09 -1.74327 -1.89652 0
M  V30 9011 H 852.048 -0.504987 -3.10318 0
M  V30 9012 N 855.82 0.285905 -1.54985 0
M  V30 9013 C 856.753 1.37817 -1.81884 0
M  V30 9014 C 857.731 1.4811 -0.670988 0
M  V30 9015 O 858.915 1.64936 -0.912595 0
M  V30 9016 C 856.042 2.75587 -1.969 0
M  V30 9017 C 855.088 2.82643 -3.19398 0
M  V30 9018 S 855.921 2.43199 -4.7709 0
M  V30 9019 C 857.077 3.82969 -4.95061 0
M  V30 9020 H 857.31 1.14794 -2.74244 0
M  V30 9021 H 854.843 0.484843 -1.4659 0
M  V30 9022 H 856.801 3.54932 -2.06236 0
M  V30 9023 H 855.462 2.9587 -1.05451 0
M  V30 9024 H 854.655 3.8373 -3.26753 0
M  V30 9025 H 854.257 2.11306 -3.08586 0
M  V30 9026 H 856.549 4.78117 -4.80011 0
M  V30 9027 H 857.492 3.80575 -5.97133 0
M  V30 9028 H 857.9 3.73673 -4.23118 0
M  V30 9029 N 857.298 1.47698 0.54982 0
M  V30 9030 C 858.546 1.54397 1.30407 0
M  V30 9031 C 858.867 0.211026 1.93855 0
M  V30 9032 O 858.137 -0.765701 1.80316 0
M  V30 9033 H 856.717 0.568747 0.484289 0
M  V30 9034 H 859.379 1.84042 0.641444 0
M  V30 9035 H 858.475 2.31449 2.09375 0
M  V30 9036 N 858.776 -0.797141 1.35954 0
M  V30 9037 C 859.739 -1.89104 1.29508 0
M  V30 9038 C 860.739 -1.59495 0.204444 0
M  V30 9039 O 861.929 -1.68051 0.458746 0
M  V30 9040 C 859.061 -3.25726 1.00576 0
M  V30 9041 H 860.254 -1.96237 2.26785 0
M  V30 9042 H 857.807 -0.994075 1.20614 0
M  V30 9043 H 858.542 -3.24279 0.0372519 0
M  V30 9044 H 858.327 -3.48604 1.79492 0
M  V30 9045 H 859.817 -4.0578 0.986508 0
M  V30 9046 N 860.254 -1.20106 -1.0204 0
M  V30 9047 C 861.201 -0.946468 -2.10501 0
M  V30 9048 C 862.171 0.121902 -1.65652 0
M  V30 9049 O 863.356 -0.0220244 -1.90787 0
M  V30 9050 C 860.496 -0.500499 -3.41451 0
M  V30 9051 C 859.609 -1.63659 -3.998 0
M  V30 9052 C 858.744 -1.14131 -5.18794 0
M  V30 9053 C 857.783 -2.25074 -5.69217 0
M  V30 9054 N 856.92 -1.76791 -6.79477 0
M  V30 9055 H 861.76 -1.87506 -2.31615 0
M  V30 9056 H 859.297 -0.934693 -1.13587 0
M  V30 9057 H 861.255 -0.223276 -4.16602 0
M  V30 9058 H 859.885 0.391099 -3.20422 0
M  V30 9059 H 858.937 -2.02882 -3.21781 0
M  V30 9060 H 860.249 -2.47213 -4.33229 0
M  V30 9061 H 859.403 -0.819826 -6.01135 0
M  V30 9062 H 858.142 -0.275615 -4.86921 0
M  V30 9063 H 857.147 -2.58043 -4.85483 0
M  V30 9064 H 858.372 -3.12114 -6.03127 0
M  V30 9065 H 856.318 -0.925428 -6.4944 0
M  V30 9066 H 856.235 -2.53928 -7.12079 0
M  V30 9067 H 857.503 -1.47631 -7.65392 0
M  V30 9068 N 861.732 1.21287 -1.00634 0
M  V30 9069 C 862.96 1.94385 -0.708678 0
M  V30 9070 C 863.375 1.7416 0.728957 0
M  V30 9071 O 862.732 1.04906 1.49335 0
M  V30 9072 C 862.783 3.46755 -1.02193 0
M  V30 9073 O 862.504 3.6631 -2.40309 0
M  V30 9074 C 864.005 4.37014 -0.743867 0
M  V30 9075 H 861.225 0.618136 -0.261052 0
M  V30 9076 H 863.769 1.54067 -1.34475 0
M  V30 9077 H 861.924 3.8499 -0.431441 0
M  V30 9078 H 862.338 4.60393 -2.51274 0
M  V30 9079 H 863.812 5.42621 -1.01321 0
M  V30 9080 H 864.289 4.38017 0.322084 0
M  V30 9081 H 864.895 4.04426 -1.31603 0
M  V30 9082 N 863.21 0.781244 1.36873 0
M  V30 9083 C 864.458 0.349198 1.9906 0
M  V30 9084 C 864.779 -1.0806 1.62321 0
M  V30 9085 O 864.049 -1.74351 0.893229 0
M  V30 9086 H 862.629 0.126126 0.736275 0
M  V30 9087 H 865.291 1.00148 1.67202 0
M  V30 9088 H 864.387 0.434451 3.09061 0
M  V30 9089 N 864.689 -1.48329 0.532571 0
M  V30 9090 C 865.917 -2.069 0.00354299 0
M  V30 9091 C 866.332 -1.38876 -1.27902 0
M  V30 9092 O 865.689 -0.477119 -1.76153 0
M  V30 9093 C 865.74 -3.60821 -0.221416 0
M  V30 9094 O 865.461 -4.26291 1.01034 0
M  V30 9095 C 866.962 -4.36194 -0.790531 0
M  V30 9096 H 864.182 -0.670103 0.0346836 0
M  V30 9097 H 866.726 -1.90682 0.738955 0
M  V30 9098 H 864.881 -3.76636 -0.906884 0
M  V30 9099 H 865.295 -5.18475 0.792683 0
M  V30 9100 H 866.769 -5.44657 -0.897347 0
M  V30 9101 H 867.246 -4.00798 -1.79605 0
M  V30 9102 H 867.852 -4.25064 -0.141546 0
M  V30 9103 N 866.167 -0.267825 -1.55308 0
M  V30 9104 C 867.415 0.350343 -1.9904 0
M  V30 9105 C 867.736 1.56924 -1.15758 0
M  V30 9106 O 867.006 1.94358 -0.245336 0
M  V30 9107 H 865.586 0.132435 -0.735167 0
M  V30 9108 H 868.248 -0.371471 -1.91327 0
M  V30 9109 H 867.344 0.645203 -3.05358 0
M  V30 9110 N 867.645 1.57599 0.00500368 0
M  V30 9111 C 868.873 1.94626 0.702016 0
M  V30 9112 C 869.288 0.86953 1.67585 0
M  V30 9113 O 868.645 -0.15199 1.81866 0
M  V30 9114 C 868.696 3.31658 1.43824 0
M  V30 9115 O 868.417 4.35197 0.503467 0
M  V30 9116 C 869.918 3.83114 2.23021 0
M  V30 9117 H 867.138 0.641785 0.195841 0
M  V30 9118 H 869.682 2.04451 -0.0446287 0
M  V30 9119 H 867.837 3.23156 2.13655 0
M  V30 9120 H 868.251 5.1444 1.02235 0
M  V30 9121 H 869.725 4.81438 2.7004 0
M  V30 9122 H 870.202 3.15559 3.05482 0
M  V30 9123 H 870.808 3.94775 1.58216 0
M  V30 9124 N 869.123 -0.277682 1.55134 0
M  V30 9125 C 870.353 -1.02677 1.79279 0
M  V30 9126 C 870.761 -1.80599 0.563962 0
M  V30 9127 O 870.104 -1.77416 -0.476378 0
M  V30 9128 C 870.166 -2.03617 2.96277 0
M  V30 9129 C 869.83 -1.44676 4.33495 0
M  V30 9130 C 870.827 -0.864811 5.12657 0
M  V30 9131 C 868.512 -1.47537 4.80144 0
M  V30 9132 C 870.506 -0.319322 6.366 0
M  V30 9133 C 868.193 -0.926016 6.04043 0
M  V30 9134 C 869.191 -0.348988 6.82108 0
M  V30 9135 O 868.879 0.191964 8.03671 0
M  V30 9136 H 868.611 -0.309232 0.601125 0
M  V30 9137 H 871.165 -0.315308 2.02965 0
M  V30 9138 H 869.395 -2.78509 2.68272 0
M  V30 9139 H 871.084 -2.64616 3.07788 0
M  V30 9140 H 871.85 -0.835438 4.7775 0
M  V30 9141 H 867.729 -1.91389 4.19394 0
M  V30 9142 H 871.273 0.131709 6.97476 0
M  V30 9143 H 867.17 -0.952613 6.38432 0
M  V30 9144 H 867.938 0.0808779 8.1846 0
M  V30 9145 N 870.601 -1.47988 -0.541979 0
M  V30 9146 C 871.849 -1.55086 -1.29587 0
M  V30 9147 C 872.17 -0.221304 -1.9374 0
M  V30 9148 O 871.44 0.756128 -1.80719 0
M  V30 9149 H 870.02 -0.571307 -0.481266 0
M  V30 9150 H 872.682 -1.8438 -0.631675 0
M  V30 9151 H 871.778 -2.32556 -2.08144 0
M  V30 9152 N 872.079 0.78992 -1.36375 0
M  V30 9153 C 873.042 1.88414 -1.30509 0
M  V30 9154 C 874.042 1.59384 -0.2129 0
M  V30 9155 O 875.232 1.67805 -0.467651 0
M  V30 9156 C 872.364 3.25188 -1.02302 0
M  V30 9157 H 873.557 1.95031 -2.27822 0
M  V30 9158 H 871.11 0.987664 -1.2114 0
M  V30 9159 H 871.845 3.24254 -0.0544486 0
M  V30 9160 H 871.63 3.47647 -1.81338 0
M  V30 9161 H 873.12 4.05252 -1.00801 0
M  V30 9162 N 873.557 1.20646 1.01402 0
M  V30 9163 C 874.467 0.973385 2.13453 0
M  V30 9164 C 875.483 -0.0715865 1.73853 0
M  V30 9165 O 876.659 0.116438 2.01063 0
M  V30 9166 C 873.724 0.531285 3.42605 0
M  V30 9167 C 872.785 1.64741 3.96433 0
M  V30 9168 C 872.018 1.22631 5.1942 0
M  V30 9169 O 872.241 0.0960891 5.70319 0
M  V30 9170 O 871.175 2.03474 5.66465 0
M  V30 9171 H 875.001 1.91164 2.35987 0
M  V30 9172 H 872.586 0.990553 1.11841 0
M  V30 9173 H 874.468 0.294095 4.20373 0
M  V30 9174 H 873.143 -0.378358 3.21481 0
M  V30 9175 H 872.05 1.93891 3.19933 0
M  V30 9176 H 873.383 2.53415 4.2195 0
M  V30 9177 N 875.035 -1.20752 1.01276 0
M  V30 9178 C 876.263 -1.94006 0.718976 0
M  V30 9179 C 876.678 -1.74544 -0.719711 0
M  V30 9180 O 876.035 -1.05697 -1.48776 0
M  V30 9181 C 876.086 -3.46208 1.04031 0
M  V30 9182 O 875.807 -3.65031 2.42248 0
M  V30 9183 C 877.308 -4.36614 0.767032 0
M  V30 9184 H 874.528 -0.616743 0.264327 0
M  V30 9185 H 877.072 -1.53352 1.3529 0
M  V30 9186 H 875.227 -3.84756 0.451852 0
M  V30 9187 H 875.641 -4.59054 2.53712 0
M  V30 9188 H 877.115 -5.42076 1.04198 0
M  V30 9189 H 877.592 -4.38182 -0.298851 0
M  V30 9190 H 878.198 -4.03723 1.33746 0
M  V30 9191 N 876.513 -0.788492 -1.36457 0
M  V30 9192 C 877.743 -0.371825 -2.03227 0
M  V30 9193 C 878.151 1.01627 -1.59589 0
M  V30 9194 O 877.494 1.663 -0.780382 0
M  V30 9195 C 877.556 -0.355179 -3.57741 0
M  V30 9196 C 877.22 -1.69069 -4.24576 0
M  V30 9197 C 878.217 -2.64601 -4.47529 0
M  V30 9198 C 875.902 -1.96973 -4.62068 0
M  V30 9199 C 877.896 -3.86232 -5.07054 0
M  V30 9200 C 875.583 -3.18872 -5.2131 0
M  V30 9201 C 876.581 -4.1332 -5.43742 0
M  V30 9202 O 876.269 -5.3307 -6.0174 0
M  V30 9203 H 876.001 -0.151452 -0.658816 0
M  V30 9204 H 878.555 -1.06827 -1.75434 0
M  V30 9205 H 876.785 0.397753 -3.84649 0
M  V30 9206 H 878.474 0.0366955 -4.05883 0
M  V30 9207 H 879.24 -2.44329 -4.18961 0
M  V30 9208 H 875.119 -1.24277 -4.43933 0
M  V30 9209 H 878.663 -4.59965 -5.24478 0
M  V30 9210 H 874.56 -3.39022 -5.49304 0
M  V30 9211 H 875.328 -5.34121 -6.20207 0
M  V30 9212 N 877.991 1.48044 -0.54043 0
M  V30 9213 C 879.216 2.07396 -0.0124765 0
M  V30 9214 C 879.641 1.39288 1.26414 0
M  V30 9215 O 878.999 0.462252 1.75308 0
M  V30 9216 C 879.047 3.60131 0.18377 0
M  V30 9217 O 878.151 3.92995 1.25014 0
M  V30 9218 H 877.492 0.662554 -0.0438026 0
M  V30 9219 H 880.022 1.90306 -0.751327 0
M  V30 9220 H 880.032 4.06003 0.403197 0
M  V30 9221 H 878.707 4.09105 -0.74874 0
M  V30 9222 H 877.284 3.5889 1.01254 0
M  V30 9223 N 879.47 0.276058 1.55163 0
M  V30 9224 C 880.402 -0.644254 2.19959 0
M  V30 9225 C 881.415 -1.11675 1.18459 0
M  V30 9226 O 882.604 -1.0385 1.45181 0
M  V30 9227 C 879.704 -1.89093 2.81242 0
M  V30 9228 C 878.877 -1.56509 4.08441 0
M  V30 9229 C 877.936 -2.66433 4.53762 0
M  V30 9230 O 876.962 -2.32579 5.19515 0
M  V30 9231 N 878.164 -3.96509 4.23982 0
M  V30 9232 H 880.929 -0.0896808 2.99566 0
M  V30 9233 H 878.49 0.0971981 1.61608 0
M  V30 9234 H 880.482 -2.61929 3.08505 0
M  V30 9235 H 879.052 -2.35453 2.05622 0
M  V30 9236 H 878.272 -0.670522 3.88455 0
M  V30 9237 H 879.56 -1.32242 4.91314 0
M  V30 9238 H 878.958 -4.26834 3.71254 0
M  V30 9239 H 877.515 -4.6572 4.56014 0
M  V30 9240 N 880.948 -1.576 0.00335426 0
M  V30 9241 C 882.178 -1.94713 -0.690682 0
M  V30 9242 C 882.586 -0.876915 -1.67651 0
M  V30 9243 O 881.929 0.152434 -1.83066 0
M  V30 9244 C 881.991 -3.27833 -1.47532 0
M  V30 9245 C 881.655 -4.52344 -0.650704 0
M  V30 9246 C 882.652 -5.19862 0.0630537 0
M  V30 9247 C 880.337 -4.98755 -0.595687 0
M  V30 9248 C 882.331 -6.32093 0.820779 0
M  V30 9249 C 880.018 -6.10875 0.165761 0
M  V30 9250 C 881.016 -6.77401 0.872724 0
M  V30 9251 O 880.704 -7.87372 1.62174 0
M  V30 9252 H 880.436 -0.646627 -0.197104 0
M  V30 9253 H 882.99 -2.05335 0.0516082 0
M  V30 9254 H 881.22 -3.13628 -2.26217 0
M  V30 9255 H 882.909 -3.50034 -2.05501 0
M  V30 9256 H 883.675 -4.84991 0.0297223 0
M  V30 9257 H 879.554 -4.46797 -1.13549 0
M  V30 9258 H 883.098 -6.83953 1.37312 0
M  V30 9259 H 878.995 -6.45187 0.200901 0
M  V30 9260 H 879.763 -8.03905 1.5388 0
M  V30 9261 N 882.426 0.269451 -1.5528 0
M  V30 9262 C 883.374 1.35303 -1.89198 0
M  V30 9263 C 884.368 1.50956 -0.768671 0
M  V30 9264 O 885.574 1.52699 -0.953054 0
M  V30 9265 H 881.949 0.452591 -0.600554 0
M  V30 9266 H 883.92 1.03949 -2.79709 0
M  V30 9267 C 882.669 2.70585 -2.18356 0
M  V30 9268 H 881.992 2.59332 -3.04281 0
M  V30 9269 H 883.432 3.45335 -2.46007 0
M  V30 9270 C 881.891 3.21954 -0.992327 0
M  V30 9271 O 882.421 4.01048 -0.228769 0
M  V30 9272 N 880.627 2.79682 -0.789062 0
M  V30 9273 H 880.174 2.15475 -1.41167 0
M  V30 9274 H 880.132 3.14399 0.00634776 0
M  V30 9275 N 883.904 1.48273 0.534124 0
M  V30 9276 C 884.834 1.6538 1.64839 0
M  V30 9277 C 885.815 0.502741 1.62501 0
M  V30 9278 O 887 0.734799 1.79762 0
M  V30 9279 C 884.13 1.68949 3.03436 0
M  V30 9280 C 883.084 2.83513 3.20631 0
M  V30 9281 C 882.41 2.72169 4.60248 0
M  V30 9282 C 883.71 4.24858 3.03797 0
M  V30 9283 H 885.404 2.58663 1.50777 0
M  V30 9284 H 882.95 1.24479 0.723937 0
M  V30 9285 H 884.903 1.79505 3.81256 0
M  V30 9286 H 883.627 0.722415 3.1851 0
M  V30 9287 H 882.286 2.72505 2.45227 0
M  V30 9288 H 881.934 1.7344 4.72152 0
M  V30 9289 H 881.634 3.49042 4.72698 0
M  V30 9290 H 883.158 2.84687 5.40172 0
M  V30 9291 H 884.572 4.36721 3.71413 0
M  V30 9292 H 882.969 5.02697 3.27743 0
M  V30 9293 H 884.039 4.41611 2.0027 0
M  V30 9294 N 885.382 -0.782676 1.36792 0
M  V30 9295 C 886.793 -1.35828 1.28092 0
M  V30 9296 C 887.144 -1.96052 -0.076315 0
M  V30 9297 O 886.269 -1.93042 -0.977935 0
M  V30 9298 C 886.864 -2.46949 2.31952 0
M  V30 9299 C 885.423 -3.00307 2.2692 0
M  V30 9300 C 884.57 -1.73436 2.16368 0
M  V30 9301 H 887.521 -0.583788 1.47572 0
M  V30 9302 H 887.542 -3.26144 1.95986 0
M  V30 9303 H 887.054 -2.03087 3.30722 0
M  V30 9304 H 885.155 -3.48571 1.31639 0
M  V30 9305 H 885.268 -3.56663 3.19887 0
M  V30 9306 H 883.632 -1.95934 1.62733 0
M  V30 9307 H 884.415 -1.31693 3.17036 0
M  V30 9308 N 886.86 -1.21182 -1.00761 0
M  V30 9309 C 888.137 -0.936297 -1.71735 0
M  V30 9310 C 888.517 0.552585 -2.03739 0
M  V30 9311 O 887.865 1.51672 -1.70903 0
M  V30 9312 C 888.075 -1.81867 -2.97868 0
M  V30 9313 C 889.423 -2.06594 -3.7095 0
M  V30 9314 O 890.447 -1.79194 -3.07844 0
M  V30 9315 O 889.306 -2.5292 -4.84452 0
M  V30 9316 H 886.4 -0.350867 -0.74888 0
M  V30 9317 H 888.946 -1.32098 -1.06527 0
M  V30 9318 H 887.718 -2.82643 -2.70607 0
M  V30 9319 H 887.341 -1.43463 -3.70815 0
M  V30 9320 N 888.338 1.20213 -1.01915 0
M  V30 9321 C 889.286 2.25125 -0.584936 0
M  V30 9322 C 890.28 1.65138 0.377602 0
M  V30 9323 O 891.486 1.78294 0.247245 0
M  V30 9324 H 887.861 0.732333 -0.170858 0
M  V30 9325 H 889.832 2.59075 -1.48063 0
M  V30 9326 C 888.581 3.47651 0.058389 0
M  V30 9327 H 887.904 3.9409 -0.673263 0
M  V30 9328 H 889.344 4.2275 0.325285 0
M  V30 9329 C 887.803 3.10725 1.30199 0
M  V30 9330 O 888.333 3.22491 2.39505 0
M  V30 9331 N 886.539 2.6525 1.18706 0
M  V30 9332 H 886.086 2.55875 0.297618 0
M  V30 9333 H 886.044 2.40913 2.02011 0
M  V30 9334 N 889.816 0.795718 1.36037 0
M  V30 9335 C 890.779 0.204318 2.28287 0
M  V30 9336 C 891.779 -0.602017 1.49105 0
M  V30 9337 O 892.969 -0.422089 1.69009 0
M  V30 9338 C 890.101 -0.716431 3.33287 0
M  V30 9339 H 891.294 1.01781 2.821 0
M  V30 9340 H 888.847 0.565588 1.45708 0
M  V30 9341 H 889.582 -1.55403 2.84641 0
M  V30 9342 H 889.367 -0.140096 3.9185 0
M  V30 9343 H 890.857 -1.12488 4.02164 0
M  V30 9344 N 891.294 -1.47756 0.548274 0
M  V30 9345 C 892.257 -2.28379 -0.193857 0
M  V30 9346 C 893.257 -1.36436 -0.850986 0
M  V30 9347 O 894.447 -1.59154 -0.70822 0
M  V30 9348 C 891.579 -3.15858 -1.28243 0
M  V30 9349 H 892.772 -2.95458 0.514231 0
M  V30 9350 H 890.325 -1.53298 0.304879 0
M  V30 9351 H 891.06 -2.5345 -2.0232 0
M  V30 9352 H 890.845 -3.83512 -0.816148 0
M  V30 9353 H 892.335 -3.76627 -1.80393 0
M  V30 9354 N 892.772 -0.284283 -1.55015 0
M  V30 9355 C 893.719 0.599194 -2.22886 0
M  V30 9356 C 894.689 1.14264 -1.20553 0
M  V30 9357 O 895.874 1.19025 -1.49123 0
M  V30 9358 C 893.014 1.77317 -2.96062 0
M  V30 9359 C 892.127 1.26271 -4.13134 0
M  V30 9360 C 891.262 2.39922 -4.73931 0
M  V30 9361 C 890.301 1.85925 -5.8318 0
M  V30 9362 N 889.438 2.93084 -6.38002 0
M  V30 9363 H 894.278 0.0137816 -2.97997 0
M  V30 9364 H 891.815 -0.00496503 -1.47099 0
M  V30 9365 H 893.773 2.46339 -3.36709 0
M  V30 9366 H 892.403 2.33047 -2.23358 0
M  V30 9367 H 891.455 0.465296 -3.77544 0
M  V30 9368 H 892.767 0.827284 -4.91892 0
M  V30 9369 H 891.921 3.1692 -5.17346 0
M  V30 9370 H 890.66 2.86784 -3.9447 0
M  V30 9371 H 889.665 1.07409 -5.39206 0
M  V30 9372 H 890.89 1.39987 -6.64515 0
M  V30 9373 H 888.836 3.3931 -5.61431 0
M  V30 9374 H 888.753 2.53986 -7.12058 0
M  V30 9375 H 890.021 3.7003 -6.86075 0
M  V30 9376 N 894.251 1.57596 -0.0117121 0
M  V30 9377 C 895.528 1.82323 0.708356 0
M  V30 9378 C 895.908 0.891947 1.91331 0
M  V30 9379 O 895.256 -0.0565984 2.2843 0
M  V30 9380 C 895.466 3.31111 1.10303 0
M  V30 9381 C 896.814 3.97147 1.50199 0
M  V30 9382 O 897.838 3.35503 1.1965 0
M  V30 9383 O 896.697 5.0576 2.07049 0
M  V30 9384 H 893.791 0.751173 0.345931 0
M  V30 9385 H 896.337 1.69657 -0.0380632 0
M  V30 9386 H 895.109 3.90534 0.24467 0
M  V30 9387 H 894.732 3.48818 1.90818 0
M  V30 9388 N 895.729 -0.261212 1.5542 0
M  V30 9389 C 896.975 -0.992699 1.76843 0
M  V30 9390 C 897.308 -1.8551 0.574428 0
M  V30 9391 O 896.583 -1.89739 -0.427713 0
M  V30 9392 C 896.866 -1.86532 3.08022 0
M  V30 9393 C 896.719 -1.03206 4.378 0
M  V30 9394 C 898.038 -2.85036 3.35324 0
M  V30 9395 H 895.157 -0.359473 0.643388 0
M  V30 9396 H 897.799 -0.264214 1.88154 0
M  V30 9397 H 895.949 -2.48644 2.9851 0
M  V30 9398 H 897.621 -0.430743 4.59285 0
M  V30 9399 H 895.864 -0.335911 4.32497 0
M  V30 9400 H 896.535 -1.6761 5.25938 0
M  V30 9401 H 899.011 -2.3306 3.44706 0
M  V30 9402 H 897.887 -3.43226 4.28354 0
M  V30 9403 H 898.148 -3.60768 2.55537 0
M  V30 9404 N 897.207 -1.48554 -0.526253 0
M  V30 9405 C 898.453 -1.57972 -1.28127 0
M  V30 9406 C 898.808 -0.251973 -1.90743 0
M  V30 9407 O 898.101 0.745524 -1.76501 0
M  V30 9408 C 898.295 -2.65739 -2.38993 0
M  V30 9409 C 898.124 -4.08864 -1.87244 0
M  V30 9410 C 896.894 -4.75959 -1.6968 0
M  V30 9411 C 899.092 -4.94912 -1.39882 0
M  V30 9412 N 897.074 -6.03486 -1.12596 0
M  V30 9413 C 898.445 -6.12714 -0.947696 0
M  V30 9414 C 900.5 -4.81107 -1.2822 0
M  V30 9415 C 899.203 -7.18234 -0.391507 0
M  V30 9416 C 901.229 -5.86752 -0.740001 0
M  V30 9417 C 900.591 -7.03765 -0.298968 0
M  V30 9418 H 896.69 -0.632588 -0.459735 0
M  V30 9419 H 899.274 -1.85452 -0.59294 0
M  V30 9420 H 897.445 -2.40075 -3.05317 0
M  V30 9421 H 899.177 -2.64821 -3.06026 0
M  V30 9422 H 895.932 -4.32351 -1.93312 0
M  V30 9423 H 896.356 -6.71509 -0.860541 0
M  V30 9424 H 900.998 -3.90978 -1.60922 0
M  V30 9425 H 898.716 -8.08083 -0.0521685 0
M  V30 9426 H 902.302 -5.78125 -0.652889 0
M  V30 9427 H 901.182 -7.84117 0.114052 0
M  V30 9428 N 898.685 0.775411 -1.37205 0
M  V30 9429 C 899.934 1.52909 -1.31536 0
M  V30 9430 C 900.247 1.9535 0.0989374 0
M  V30 9431 O 901.453 2.70072 0.278079 0
M  V30 9432 C 899.909 2.761 -2.30861 0
M  V30 9433 C 899.517 2.40773 -3.77799 0
M  V30 9434 C 901.261 3.54052 -2.34195 0
M  V30 9435 C 899.168 3.60444 -4.68865 0
M  V30 9436 H 898.098 0.574061 -0.488845 0
M  V30 9437 H 900.749 0.849642 -1.62645 0
M  V30 9438 H 899.131 3.45916 -1.92764 0
M  V30 9439 H 900.305 1.78764 -4.24712 0
M  V30 9440 H 898.62 1.76004 -3.77375 0
M  V30 9441 H 901.217 4.42992 -2.99437 0
M  V30 9442 H 901.56 3.93649 -1.35449 0
M  V30 9443 H 902.093 2.91229 -2.7098 0
M  V30 9444 H 898.832 3.25932 -5.68725 0
M  V30 9445 H 898.352 4.21571 -4.26659 0
M  V30 9446 H 900.031 4.27302 -4.85821 0
M  V30 9447 N 900.163 1.21714 1.00117 0
M  V30 9448 C 901.111 0.976937 2.11089 0
M  V30 9449 C 902.105 -0.0771295 1.69224 0
M  V30 9450 O 903.311 0.0745945 1.79845 0
M  V30 9451 H 899.686 0.298687 0.690138 0
M  V30 9452 H 901.657 1.91881 2.28526 0
M  V30 9453 C 900.406 0.562369 3.43122 0
M  V30 9454 H 899.729 1.36509 3.75773 0
M  V30 9455 H 901.169 0.433642 4.21777 0
M  V30 9456 C 899.628 -0.727148 3.28959 0
M  V30 9457 O 900.158 -1.78171 3.60025 0
M  V30 9458 N 898.364 -0.695129 2.82164 0
M  V30 9459 H 897.911 0.163346 2.57082 0
M  V30 9460 H 897.869 -1.55822 2.73069 0
M  V30 9461 N 901.641 -1.19671 1.02551 0
M  V30 9462 C 902.889 -1.88894 0.71858 0
M  V30 9463 C 903.21 -1.79797 -0.754856 0
M  V30 9464 O 902.48 -1.20621 -1.54362 0
M  V30 9465 H 901.06 -0.699244 0.262806 0
M  V30 9466 H 903.722 -1.45298 1.29902 0
M  V30 9467 H 902.818 -2.95309 1.00989 0
M  V30 9468 N 903.119 -0.802921 -1.35613 0
M  V30 9469 C 904.366 -0.381576 -1.98872 0
M  V30 9470 C 904.694 1.0503 -1.63704 0
M  V30 9471 O 903.949 1.7427 -0.890418 0
M  V30 9472 C 904.248 -0.507806 -3.53774 0
M  V30 9473 C 903.914 -1.90245 -4.088 0
M  V30 9474 C 902.576 -2.28401 -4.2354 0
M  V30 9475 C 904.928 -2.81504 -4.3864 0
M  V30 9476 C 902.256 -3.57192 -4.65436 0
M  V30 9477 C 904.608 -4.09737 -4.81973 0
M  V30 9478 C 903.272 -4.47897 -4.94919 0
M  V30 9479 H 902.542 -0.139629 -0.727726 0
M  V30 9480 H 905.189 -1.023 -1.61886 0
M  V30 9481 H 903.494 0.21708 -3.91198 0
M  V30 9482 H 905.191 -0.162625 -4.0067 0
M  V30 9483 H 901.781 -1.596 -3.97776 0
M  V30 9484 H 905.965 -2.53276 -4.26808 0
M  V30 9485 H 901.221 -3.86611 -4.73648 0
M  V30 9486 H 905.395 -4.80555 -5.04024 0
M  V30 9487 H 903.022 -5.47747 -5.27141 0
M  V30 9488 N 904.597 1.47463 -0.556102 0
M  V30 9489 C 905.825 2.06868 -0.0364585 0
M  V30 9490 C 906.24 1.40893 1.25677 0
M  V30 9491 O 905.597 0.505083 1.75371 0
M  V30 9492 C 905.648 3.61128 0.163984 0
M  V30 9493 O 905.369 4.24629 -1.07803 0
M  V30 9494 C 906.87 4.37397 0.721036 0
M  V30 9495 H 904.09 0.669466 -0.0453399 0
M  V30 9496 H 906.634 1.89482 -0.769198 0
M  V30 9497 H 904.789 3.78031 0.84685 0
M  V30 9498 H 905.203 5.17149 -0.875067 0
M  V30 9499 H 906.677 5.46016 0.810584 0
M  V30 9500 H 907.154 4.03604 1.73206 0
M  V30 9501 H 907.76 4.25236 0.073904 0
M  V30 9502 N 906.075 0.2925 1.54862 0
M  V30 9503 C 907.486 -0.201841 1.85606 0
M  V30 9504 C 907.837 -1.54093 1.21449 0
M  V30 9505 O 906.962 -2.10327 0.509079 0
M  V30 9506 C 907.557 -0.373011 3.3674 0
M  V30 9507 C 906.116 -0.811574 3.67547 0
M  V30 9508 C 905.263 0.0850583 2.7717 0
M  V30 9509 H 908.214 0.513774 1.50153 0
M  V30 9510 H 908.235 -1.20892 3.60785 0
M  V30 9511 H 907.747 0.601751 3.83407 0
M  V30 9512 H 905.848 -1.79719 3.26392 0
M  V30 9513 H 905.961 -0.636853 4.74848 0
M  V30 9514 H 904.325 -0.434224 2.50971 0
M  V30 9515 H 905.108 1.05602 3.26654 0
M  V30 9516 N 907.553 -1.57587 0.0200696 0
M  V30 9517 C 908.485 -2.06555 -0.993359 0
M  V30 9518 C 909.498 -0.987227 -1.29451 0
M  V30 9519 O 910.687 -1.26361 -1.26075 0
M  V30 9520 C 907.787 -2.4675 -2.3231 0
M  V30 9521 C 906.96 -3.77554 -2.20843 0
M  V30 9522 C 906.019 -4.04397 -3.36674 0
M  V30 9523 O 905.045 -4.7478 -3.13963 0
M  V30 9524 N 906.247 -3.53861 -4.60176 0
M  V30 9525 H 909.012 -2.9412 -0.575617 0
M  V30 9526 H 906.573 -1.61038 -0.166889 0
M  V30 9527 H 908.565 -2.61806 -3.08609 0
M  V30 9528 H 907.135 -1.64598 -2.65756 0
M  V30 9529 H 906.355 -3.72382 -1.29327 0
M  V30 9530 H 907.643 -4.63271 -2.10375 0
M  V30 9531 H 907.041 -2.96904 -4.81523 0
M  V30 9532 H 905.598 -3.74213 -5.33674 0
M  V30 9533 N 909.032 0.252966 -1.55557 0
M  V30 9534 C 910.262 0.998115 -1.8089 0
M  V30 9535 C 910.67 1.79679 -0.592623 0
M  V30 9536 O 910.013 1.78151 0.448093 0
M  V30 9537 C 910.075 1.98878 -2.99479 0
M  V30 9538 C 909.739 1.37761 -4.35742 0
M  V30 9539 C 910.736 0.783142 -5.13968 0
M  V30 9540 C 908.421 1.39879 -4.8243 0
M  V30 9541 C 910.415 0.218004 -6.37027 0
M  V30 9542 C 908.102 0.829801 -6.0544 0
M  V30 9543 C 909.1 0.240426 -6.82577 0
M  V30 9544 O 908.788 -0.319797 -8.03264 0
M  V30 9545 H 908.52 0.29963 -0.605969 0
M  V30 9546 H 911.074 0.282978 -2.03441 0
M  V30 9547 H 909.304 2.74206 -2.72669 0
M  V30 9548 H 910.993 2.59686 -3.11959 0
M  V30 9549 H 911.759 0.759326 -4.79019 0
M  V30 9550 H 907.638 1.84692 -4.22386 0
M  V30 9551 H 911.182 -0.242654 -6.97178 0
M  V30 9552 H 907.079 0.850924 -6.39867 0
M  V30 9553 H 907.847 -0.211078 -8.18228 0
M  V30 9554 N 910.51 1.48831 0.518367 0
M  V30 9555 C 911.738 1.6112 1.298 0
M  V30 9556 C 912.153 0.275872 1.86774 0
M  V30 9557 O 911.51 -0.736416 1.66983 0
M  V30 9558 C 911.561 2.66675 2.44063 0
M  V30 9559 O 911.282 3.95027 1.89434 0
M  V30 9560 C 912.783 2.8951 3.35706 0
M  V30 9561 H 910.003 0.542916 0.394314 0
M  V30 9562 H 912.547 1.94743 0.624142 0
M  V30 9563 H 910.702 2.35879 3.07311 0
M  V30 9564 H 911.116 4.53031 2.64316 0
M  V30 9565 H 912.59 3.67142 4.12202 0
M  V30 9566 H 913.067 1.98768 3.91648 0
M  V30 9567 H 913.673 3.21656 2.7824 0
M  V30 9568 N 911.988 -0.768124 1.37614 0
M  V30 9569 C 912.921 -1.88894 1.2804 0
M  V30 9570 C 913.899 -1.61809 0.160226 0
M  V30 9571 O 915.083 -1.85498 0.33506 0
M  V30 9572 C 912.21 -3.24197 0.980523 0
M  V30 9573 C 911.256 -3.70188 2.11808 0
M  V30 9574 S 912.089 -3.83433 3.73817 0
M  V30 9575 C 913.245 -5.21578 3.45987 0
M  V30 9576 H 913.478 -1.96726 2.22904 0
M  V30 9577 H 911.011 -0.929602 1.23279 0
M  V30 9578 H 912.969 -4.02342 0.814331 0
M  V30 9579 H 911.63 -3.14061 0.0493122 0
M  V30 9580 H 910.823 -4.6829 1.86335 0
M  V30 9581 H 910.425 -2.99155 2.2446 0
M  V30 9582 H 912.717 -6.06865 3.012 0
M  V30 9583 H 913.66 -5.52065 4.43429 0
M  V30 9584 H 914.068 -4.89687 2.80832 0
M  V30 9585 N 913.466 -1.22244 -0.994698 0
M  V30 9586 C 914.691 -1.07299 -1.77487 0
M  V30 9587 C 915.116 0.372302 -1.84379 0
M  V30 9588 O 914.474 1.2689 -1.29494 0
M  V30 9589 C 914.522 -1.68675 -3.18718 0
M  V30 9590 O 913.626 -0.939202 -4.01563 0
M  V30 9591 H 912.967 -0.376979 -0.546611 0
M  V30 9592 H 915.497 -1.62003 -1.24965 0
M  V30 9593 H 915.507 -1.73324 -3.69354 0
M  V30 9594 H 914.182 -2.73849 -3.13017 0
M  V30 9595 H 912.759 -0.968583 -3.60101 0
M  V30 9596 N 914.944 1.19125 -1.03184 0
M  V30 9597 C 916.19 1.89163 -0.731111 0
M  V30 9598 C 916.523 1.79604 0.738662 0
M  V30 9599 O 915.798 1.19037 1.53819 0
M  V30 9600 C 916.081 3.39986 -1.18666 0
M  V30 9601 C 915.934 3.58401 -2.71788 0
M  V30 9602 C 917.253 4.33316 -0.769772 0
M  V30 9603 H 914.372 0.686908 -0.267069 0
M  V30 9604 H 917.014 1.40205 -1.28229 0
M  V30 9605 H 915.164 3.81813 -0.717736 0
M  V30 9606 H 916.836 3.25727 -3.26649 0
M  V30 9607 H 915.079 3.01355 -3.12038 0
M  V30 9608 H 915.75 4.64189 -2.98719 0
M  V30 9609 H 918.226 3.9922 -1.17314 0
M  V30 9610 H 917.102 5.37427 -1.11637 0
M  V30 9611 H 917.363 4.40884 0.327681 0
M  V30 9612 N 916.422 0.810101 1.35185 0
M  V30 9613 C 917.668 0.401839 1.99391 0
M  V30 9614 C 918.023 -1.02059 1.63101 0
M  V30 9615 O 917.316 -1.69889 0.8859 0
M  V30 9616 C 917.51 0.526561 3.535 0
M  V30 9617 C 917.339 1.95956 4.04761 0
M  V30 9618 C 916.109 2.58869 4.33953 0
M  V30 9619 C 918.307 2.92459 4.23051 0
M  V30 9620 N 916.289 3.93542 4.71166 0
M  V30 9621 C 917.66 4.12011 4.633 0
M  V30 9622 C 919.715 2.89244 4.05268 0
M  V30 9623 C 918.418 5.28784 4.87627 0
M  V30 9624 C 920.444 4.05223 4.30753 0
M  V30 9625 C 919.806 5.23524 4.71277 0
M  V30 9626 H 915.905 0.194886 0.757327 0
M  V30 9627 H 918.489 1.05209 1.63827 0
M  V30 9628 H 916.66 -0.0937151 3.88287 0
M  V30 9629 H 918.392 0.0925434 4.04594 0
M  V30 9630 H 915.147 2.10198 4.24398 0
M  V30 9631 H 915.571 4.62889 4.94027 0
M  V30 9632 H 920.213 1.98932 3.73076 0
M  V30 9633 H 917.931 6.19666 5.18691 0
M  V30 9634 H 921.517 4.04121 4.18542 0
M  V30 9635 H 920.397 6.11776 4.90612 0
M  V30 9636 N 917.9 -1.47166 0.563914 0
M  V30 9637 C 918.833 -2.27058 -0.227989 0
M  V30 9638 C 919.811 -1.34468 -0.914179 0
M  V30 9639 O 920.995 -1.63857 -0.931829 0
M  V30 9640 C 918.122 -3.11689 -1.32543 0
M  V30 9641 C 917.168 -4.19906 -0.747084 0
M  V30 9642 S 918.001 -5.33916 0.41153 0
M  V30 9643 C 919.157 -6.22112 -0.687566 0
M  V30 9644 H 919.39 -2.93876 0.449939 0
M  V30 9645 H 916.923 -1.50372 0.350382 0
M  V30 9646 H 918.881 -3.61017 -1.95389 0
M  V30 9647 H 917.542 -2.44221 -1.97522 0
M  V30 9648 H 916.735 -4.78876 -1.57141 0
M  V30 9649 H 916.337 -3.73493 -0.194671 0
M  V30 9650 H 918.629 -6.58867 -1.578 0
M  V30 9651 H 919.572 -7.07971 -0.135058 0
M  V30 9652 H 919.98 -5.55871 -0.983255 0
M  V30 9653 N 919.378 -0.300708 -1.54705 0
M  V30 9654 C 920.626 0.308044 -1.99739 0
M  V30 9655 C 920.947 1.54433 -1.19061 0
M  V30 9656 O 920.217 1.93794 -0.286507 0
M  V30 9657 H 918.797 0.116811 -0.73781 0
M  V30 9658 H 921.459 -0.41197 -1.90496 0
M  V30 9659 H 920.555 0.580287 -3.06658 0
M  V30 9660 N 920.856 1.57574 -0.0284266 0
M  V30 9661 C 922.103 1.91772 0.650364 0
M  V30 9662 C 922.431 0.904769 1.72175 0
M  V30 9663 O 921.686 -0.0864038 1.95509 0
M  V30 9664 C 921.985 3.32699 1.3056 0
M  V30 9665 C 921.651 4.49423 0.364658 0
M  V30 9666 C 920.313 4.81084 0.105672 0
M  V30 9667 C 922.665 5.20439 -0.28151 0
M  V30 9668 C 919.993 5.81119 -0.8073 0
M  V30 9669 C 922.345 6.21449 -1.18253 0
M  V30 9670 C 921.009 6.51551 -1.45042 0
M  V30 9671 H 920.279 0.701744 0.237985 0
M  V30 9672 H 922.926 1.91288 -0.0900448 0
M  V30 9673 H 921.231 3.29441 2.12075 0
M  V30 9674 H 922.928 3.5643 1.83736 0
M  V30 9675 H 919.518 4.24703 0.576692 0
M  V30 9676 H 923.702 4.9621 -0.0944806 0
M  V30 9677 H 918.958 6.02788 -1.02256 0
M  V30 9678 H 923.132 6.75597 -1.68942 0
M  V30 9679 H 920.759 7.28882 -2.15951 0
M  V30 9680 N 922.334 -0.244713 1.55689 0
M  V30 9681 C 923.559 -0.994157 1.8202 0
M  V30 9682 C 923.984 -1.78079 0.60577 0
M  V30 9683 O 923.342 -1.75748 -0.445221 0
M  V30 9684 C 923.39 -1.90599 3.06111 0
M  V30 9685 O 922.494 -2.99804 2.8318 0
M  V30 9686 H 921.835 -0.282767 0.600782 0
M  V30 9687 H 924.365 -0.26504 2.02876 0
M  V30 9688 H 924.375 -2.32023 3.35603 0
M  V30 9689 H 923.05 -1.32763 3.9414 0
M  V30 9690 H 921.627 -2.62493 2.64862 0
M  V30 9691 N 923.813 -1.49104 -0.510467 0
M  V30 9692 C 924.76 -1.65074 -1.61305 0
M  V30 9693 C 925.73 -0.492362 -1.58635 0
M  V30 9694 O 926.915 -0.718241 -1.76765 0
M  V30 9695 C 924.055 -1.71457 -2.99493 0
M  V30 9696 C 923.168 -2.98536 -3.12251 0
M  V30 9697 C 922.303 -2.95957 -4.41116 0
M  V30 9698 C 921.342 -4.17655 -4.47471 0
M  V30 9699 N 920.479 -4.13041 -5.67751 0
M  V30 9700 H 925.319 -2.59222 -1.46996 0
M  V30 9701 H 922.856 -1.28535 -0.715346 0
M  V30 9702 H 924.814 -1.7314 -3.79577 0
M  V30 9703 H 923.444 -0.807834 -3.12528 0
M  V30 9704 H 922.496 -3.06509 -2.25292 0
M  V30 9705 H 923.808 -3.88527 -3.12807 0
M  V30 9706 H 922.962 -2.96149 -5.2951 0
M  V30 9707 H 921.701 -2.03728 -4.4311 0
M  V30 9708 H 920.706 -4.17717 -3.57481 0
M  V30 9709 H 921.931 -5.11066 -4.472 0
M  V30 9710 H 919.877 -3.23643 -5.70606 0
M  V30 9711 H 919.794 -4.96757 -5.69884 0
M  V30 9712 H 921.062 -4.17322 -6.58379 0
M  V30 9713 N 925.291 0.760815 -1.38019 0
M  V30 9714 C 926.537 1.52198 -1.34028 0
M  V30 9715 C 926.87 1.94067 0.0718309 0
M  V30 9716 O 926.145 1.64895 1.0315 0
M  V30 9717 C 926.428 2.77954 -2.2894 0
M  V30 9718 C 926.281 2.42269 -3.7898 0
M  V30 9719 C 927.6 3.79943 -2.22107 0
M  V30 9720 H 924.719 0.552131 -0.488181 0
M  V30 9721 H 927.361 0.871971 -1.6881 0
M  V30 9722 H 925.511 3.33419 -1.9941 0
M  V30 9723 H 927.183 1.92635 -4.19153 0
M  V30 9724 H 925.426 1.74822 -3.97014 0
M  V30 9725 H 926.097 3.32211 -4.4084 0
M  V30 9726 H 928.573 3.34 -2.4816 0
M  V30 9727 H 927.449 4.6564 -2.90639 0
M  V30 9728 H 927.71 4.25004 -1.21753 0
M  V30 9729 N 926.769 1.22769 0.988202 0
M  V30 9730 C 927.716 1.00195 2.07917 0
M  V30 9731 C 928.686 -0.0779391 1.65917 0
M  V30 9732 O 929.871 0.0726005 1.90662 0
M  V30 9733 C 927.011 0.590853 3.40004 0
M  V30 9734 C 926.124 1.74202 3.9532 0
M  V30 9735 C 925.259 1.27846 5.15586 0
M  V30 9736 C 924.298 2.40087 5.63049 0
M  V30 9737 N 923.435 1.94744 6.74551 0
M  V30 9738 H 928.275 1.93581 2.26562 0
M  V30 9739 H 925.812 0.96448 1.11068 0
M  V30 9740 H 927.77 0.333653 4.15864 0
M  V30 9741 H 926.4 -0.306007 3.21346 0
M  V30 9742 H 925.452 2.11342 3.16289 0
M  V30 9743 H 926.764 2.58612 4.26522 0
M  V30 9744 H 925.918 0.978919 5.9875 0
M  V30 9745 H 924.657 0.404617 4.86019 0
M  V30 9746 H 923.662 2.70824 4.78471 0
M  V30 9747 H 924.887 3.27995 5.9464 0
M  V30 9748 H 922.833 1.09729 6.46758 0
M  V30 9749 H 922.75 2.72718 7.05096 0
M  V30 9750 H 924.018 1.67873 7.61209 0
M  V30 9751 N 928.247 -1.18576 1.03814 0
M  V30 9752 C 929.179 -2.21607 0.585055 0
M  V30 9753 C 930.192 -1.59125 -0.343963 0
M  V30 9754 O 931.381 -1.77959 -0.138882 0
M  V30 9755 C 928.481 -3.38495 -0.165602 0
M  V30 9756 C 927.654 -4.30557 0.770662 0
M  V30 9757 C 926.713 -5.26161 0.0637534 0
M  V30 9758 O 925.739 -5.64961 0.693359 0
M  V30 9759 N 926.941 -5.67882 -1.20377 0
M  V30 9760 H 929.706 -2.61104 1.47121 0
M  V30 9761 H 927.267 -1.33336 0.918316 0
M  V30 9762 H 929.259 -3.99474 -0.648292 0
M  V30 9763 H 927.829 -2.97711 -0.953268 0
M  V30 9764 H 927.049 -3.67221 1.43326 0
M  V30 9765 H 928.337 -4.88969 1.40667 0
M  V30 9766 H 927.735 -5.38409 -1.73586 0
M  V30 9767 H 926.292 -6.31069 -1.63079 0
M  V30 9768 N 929.725 -0.817259 -1.34754 0
M  V30 9769 C 930.955 -0.414849 -2.02392 0
M  V30 9770 C 931.363 0.982186 -1.61709 0
M  V30 9771 O 930.706 1.64607 -0.815481 0
M  V30 9772 C 930.768 -0.430981 -3.56907 0
M  V30 9773 C 930.432 -1.78037 -4.20894 0
M  V30 9774 C 931.429 -2.74034 -4.41816 0
M  V30 9775 C 929.114 -2.0673 -4.57786 0
M  V30 9776 C 931.108 -3.96901 -4.98747 0
M  V30 9777 C 928.795 -3.29858 -5.14429 0
M  V30 9778 C 929.793 -4.24761 -5.34853 0
M  V30 9779 O 929.481 -5.45714 -5.90298 0
M  V30 9780 H 929.213 -0.165392 -0.655455 0
M  V30 9781 H 931.767 -1.10524 -1.73129 0
M  V30 9782 H 929.997 0.316074 -3.85406 0
M  V30 9783 H 931.686 -0.0494067 -4.0587 0
M  V30 9784 H 932.452 -2.53161 -4.13684 0
M  V30 9785 H 928.331 -1.33666 -4.41197 0
M  V30 9786 H 931.875 -4.70987 -5.14604 0
M  V30 9787 H 927.772 -3.50597 -5.41989 0
M  V30 9788 H 928.54 -5.47157 -6.08738 0
M  V30 9789 N 931.203 1.46865 -0.571711 0
M  V30 9790 C 932.451 2.0203 -0.0530022 0
M  V30 9791 C 932.772 1.44687 1.30731 0
M  V30 9792 O 932.042 0.627429 1.85581 0
M  V30 9793 H 930.622 0.746815 -0.0166035 0
M  V30 9794 H 933.284 1.80099 -0.745003 0
M  V30 9795 H 932.38 3.12091 0.0242538 0
M  V30 9796 N 932.681 0.308908 1.54543 0
M  V30 9797 C 933.591 -0.572939 2.27496 0
M  V30 9798 C 934.607 -1.14171 1.31305 0
M  V30 9799 O 935.783 -1.16481 1.64299 0
M  V30 9800 C 932.848 -1.72483 3.0075 0
M  V30 9801 C 931.909 -1.18934 4.12496 0
M  V30 9802 C 931.142 -2.28634 4.82247 0
M  V30 9803 O 931.365 -3.48691 4.5141 0
M  V30 9804 O 930.299 -1.94879 5.69478 0
M  V30 9805 H 934.125 0.0190877 3.03694 0
M  V30 9806 H 931.71 0.0750943 1.49211 0
M  V30 9807 H 933.592 -2.39578 3.46671 0
M  V30 9808 H 932.267 -2.30332 2.2744 0
M  V30 9809 H 931.174 -0.483904 3.70957 0
M  V30 9810 H 932.507 -0.656185 4.87806 0
M  V30 9811 N 934.159 -1.57557 0.0367827 0
M  V30 9812 C 935.107 -2.11844 -0.960454 0
M  V30 9813 C 936.101 -1.04681 -1.33185 0
M  V30 9814 O 937.307 -1.23108 -1.31318 0
M  V30 9815 H 933.682 -0.676921 -0.32754 0
M  V30 9816 H 935.653 -2.94557 -0.477346 0
M  V30 9817 C 934.402 -2.66683 -2.23105 0
M  V30 9818 H 933.725 -3.48795 -1.95403 0
M  V30 9819 H 935.165 -3.08305 -2.91074 0
M  V30 9820 C 933.624 -1.59782 -2.96599 0
M  V30 9821 O 934.154 -1.00214 -3.88999 0
M  V30 9822 N 932.36 -1.31644 -2.59072 0
M  V30 9823 H 931.907 -1.80272 -1.8401 0
M  V30 9824 H 931.865 -0.603457 -3.08554 0
M  V30 9825 N 935.637 0.236453 -1.55816 0
M  V30 9826 C 936.862 0.98449 -1.82545 0
M  V30 9827 C 937.287 1.77755 -0.615206 0
M  V30 9828 O 936.645 1.75982 0.435895 0
M  V30 9829 C 936.693 1.88973 -3.07118 0
M  V30 9830 O 935.797 2.98298 -2.84766 0
M  V30 9831 H 935.138 0.279577 -0.602273 0
M  V30 9832 H 937.668 0.254277 -2.03014 0
M  V30 9833 H 937.678 2.3024 -3.36829 0
M  V30 9834 H 936.353 1.30671 -3.94839 0
M  V30 9835 H 934.93 2.61085 -2.6625 0
M  V30 9836 N 937.115 1.49373 0.502552 0
M  V30 9837 C 938.362 1.58781 1.25678 0
M  V30 9838 C 938.69 0.273819 1.92563 0
M  V30 9839 O 937.945 -0.738141 1.81246 0
M  V30 9840 C 938.244 2.69508 2.34735 0
M  V30 9841 C 937.91 4.11057 1.85318 0
M  V30 9842 C 936.572 4.49578 1.7156 0
M  V30 9843 C 938.924 4.99653 1.48312 0
M  V30 9844 C 936.252 5.74469 1.19172 0
M  V30 9845 C 938.604 6.2506 0.97377 0
M  V30 9846 C 937.268 6.62412 0.822573 0
M  V30 9847 H 936.538 0.581021 0.459887 0
M  V30 9848 H 939.185 1.83197 0.557767 0
M  V30 9849 H 937.49 2.39057 3.10418 0
M  V30 9850 H 939.187 2.73997 2.92791 0
M  V30 9851 H 935.777 3.80651 1.96985 0
M  V30 9852 H 939.961 4.70549 1.57789 0
M  V30 9853 H 935.217 6.0211 1.06176 0
M  V30 9854 H 939.391 6.93089 0.678233 0
M  V30 9855 H 937.018 7.59069 0.414453 0
M  V30 9856 N 938.594 -0.753485 1.38421 0
M  V30 9857 C 939.84 -1.51485 1.34834 0
M  V30 9858 C 940.173 -1.94102 -0.0615381 0
M  V30 9859 O 939.448 -1.65439 -1.02274 0
M  V30 9860 C 939.731 -2.76736 2.30411 0
M  V30 9861 C 939.584 -2.40256 3.80259 0
M  V30 9862 C 940.903 -3.7876 2.24119 0
M  V30 9863 H 938.022 -0.549534 0.491102 0
M  V30 9864 H 940.664 -0.863006 1.6927 0
M  V30 9865 H 938.814 -3.32357 2.01175 0
M  V30 9866 H 940.486 -1.90409 4.20169 0
M  V30 9867 H 938.729 -1.72714 3.97935 0
M  V30 9868 H 939.4 -3.29869 4.42595 0
M  V30 9869 H 941.876 -3.32679 2.49928 0
M  V30 9870 H 940.752 -4.64092 2.93104 0
M  V30 9871 H 941.013 -4.24352 1.24006 0
M  V30 9872 N 940.072 -1.23292 -0.981677 0
M  V30 9873 C 941.32 -1.06214 -1.71939 0
M  V30 9874 C 941.641 0.401989 -1.90812 0
M  V30 9875 O 940.911 1.28825 -1.47584 0
M  V30 9876 H 939.491 -0.390042 -0.637084 0
M  V30 9877 H 942.153 -1.54988 -1.18173 0
M  V30 9878 H 941.249 -1.54904 -2.70945 0
M  V30 9879 N 941.55 1.18024 -1.04442 0
M  V30 9880 C 942.5 2.19714 -0.609069 0
M  V30 9881 C 943.484 1.57037 0.350473 0
M  V30 9882 O 944.676 1.76192 0.16892 0
M  V30 9883 C 941.805 3.43293 0.0225911 0
M  V30 9884 C 940.891 4.13084 -0.960325 0
M  V30 9885 N 941.282 4.58819 -2.12883 0
M  V30 9886 C 939.58 4.38999 -0.787146 0
M  V30 9887 C 940.281 5.12589 -2.75004 0
M  V30 9888 N 939.257 5.04333 -2.02853 0
M  V30 9889 H 943.059 2.5277 -1.49948 0
M  V30 9890 H 940.573 1.34271 -0.913517 0
M  V30 9891 H 942.57 4.1541 0.352196 0
M  V30 9892 H 941.23 3.11731 0.908495 0
M  V30 9893 H 942.241 4.53148 -2.50754 0
M  V30 9894 H 938.918 4.17472 0.048348 0
M  V30 9895 H 940.308 5.58152 -3.74053 0
M  V30 9896 N 943.028 0.824394 1.34319 0
M  V30 9897 C 944.253 0.425194 2.02995 0
M  V30 9898 C 944.678 -0.961476 1.6167 0
M  V30 9899 O 944.036 -1.62593 0.80207 0
M  V30 9900 C 944.084 0.537004 3.56579 0
M  V30 9901 O 943.188 -0.442576 4.10018 0
M  V30 9902 H 942.529 0.174853 0.640564 0
M  V30 9903 H 945.059 1.11522 1.71534 0
M  V30 9904 H 945.069 0.413311 4.05901 0
M  V30 9905 H 943.744 1.54836 3.86004 0
M  V30 9906 H 942.321 -0.277644 3.71865 0
M  V30 9907 N 944.506 -1.46559 0.579492 0
M  V30 9908 C 945.438 -2.28383 -0.19337 0
M  V30 9909 C 946.451 -1.38324 -0.858511 0
M  V30 9910 O 947.64 -1.62952 -0.728615 0
M  V30 9911 C 944.74 -3.13262 -1.29306 0
M  V30 9912 C 943.913 -4.31426 -0.720459 0
M  V30 9913 C 942.972 -4.97728 -1.70744 0
M  V30 9914 O 941.998 -5.55423 -1.24476 0
M  V30 9915 N 943.2 -4.94445 -3.04146 0
M  V30 9916 H 945.965 -2.95353 0.508611 0
M  V30 9917 H 943.526 -1.56436 0.417046 0
M  V30 9918 H 945.518 -3.54483 -1.95254 0
M  V30 9919 H 944.088 -2.48388 -1.89795 0
M  V30 9920 H 943.308 -3.94028 0.116398 0
M  V30 9921 H 944.596 -5.07808 -0.31763 0
M  V30 9922 H 943.994 -4.4881 -3.44363 0
M  V30 9923 H 942.551 -5.39616 -3.65592 0
M  V30 9924 N 945.984 -0.3171 -1.54377 0
M  V30 9925 C 946.916 0.58571 -2.2159 0
M  V30 9926 C 947.929 1.08495 -1.21378 0
M  V30 9927 O 949.118 0.999638 -1.47883 0
M  V30 9928 C 946.218 1.8157 -2.86156 0
M  V30 9929 C 945.391 1.45625 -4.12447 0
M  V30 9930 C 944.45 2.54308 -4.60667 0
M  V30 9931 O 943.476 2.18724 -5.25498 0
M  V30 9932 N 944.678 3.85129 -4.34345 0
M  V30 9933 H 947.443 0.0102247 -2.99698 0
M  V30 9934 H 945.004 -0.140011 -1.61293 0
M  V30 9935 H 946.996 2.53657 -3.15341 0
M  V30 9936 H 945.566 2.29919 -2.11793 0
M  V30 9937 H 944.786 0.567294 -3.90097 0
M  V30 9938 H 946.074 1.19169 -4.94648 0
M  V30 9939 H 945.472 4.16841 -3.8244 0
M  V30 9940 H 944.029 4.53466 -4.68201 0
M  V30 9941 N 947.462 1.57535 -0.0451378 0
M  V30 9942 C 948.372 2.14653 0.946646 0
M  V30 9943 C 949.388 1.10279 1.3459 0
M  V30 9944 O 950.564 1.42417 1.42405 0
M  V30 9945 C 947.629 2.67533 2.20515 0
M  V30 9946 C 946.69 3.86682 1.86481 0
M  V30 9947 C 945.923 4.37031 3.06332 0
M  V30 9948 O 946.146 3.86481 4.1951 0
M  V30 9949 O 945.08 5.28691 2.87697 0
M  V30 9950 H 948.906 2.99706 0.49091 0
M  V30 9951 H 946.491 1.48355 0.17641 0
M  V30 9952 H 948.373 3.01542 2.94365 0
M  V30 9953 H 947.048 1.85554 2.65238 0
M  V30 9954 H 945.955 3.57573 1.09966 0
M  V30 9955 H 947.288 4.69873 1.46562 0
M  V30 9956 N 948.94 -0.228186 1.55939 0
M  V30 9957 C 950.17 -0.969211 1.82455 0
M  V30 9958 C 950.578 -1.78714 0.621133 0
M  V30 9959 O 949.921 -1.78841 -0.419694 0
M  V30 9960 C 949.983 -1.94088 3.02605 0
M  V30 9961 C 949.647 -1.30811 4.37878 0
M  V30 9962 C 950.644 -0.701275 5.15149 0
M  V30 9963 C 948.329 -1.32187 4.84595 0
M  V30 9964 C 950.323 -0.116631 6.37293 0
M  V30 9965 C 948.01 -0.733375 6.06683 0
M  V30 9966 C 949.008 -0.131804 6.82873 0
M  V30 9967 O 948.696 0.447549 8.02653 0
M  V30 9968 H 948.428 -0.289951 0.610659 0
M  V30 9969 H 950.982 -0.250576 2.03866 0
M  V30 9970 H 949.212 -2.69833 2.76996 0
M  V30 9971 H 950.901 -2.5469 3.1605 0
M  V30 9972 H 951.667 -0.683022 4.80166 0
M  V30 9973 H 947.546 -1.77949 4.25271 0
M  V30 9974 H 951.09 0.353539 6.96704 0
M  V30 9975 H 946.987 -0.749019 6.4114 0
M  V30 9976 H 947.755 0.341224 8.17788 0
M  V30 9977 N 950.418 -1.49637 -0.494624 0
M  V30 9978 C 951.829 -1.52573 -1.07603 0
M  V30 9979 C 952.18 -0.315591 -1.93645 0
M  V30 9980 O 951.305 0.573966 -2.08649 0
M  V30 9981 C 951.9 -2.7648 -1.95817 0
M  V30 9982 C 950.459 -2.82173 -2.49109 0
M  V30 9983 C 949.606 -2.4657 -1.2688 0
M  V30 9984 H 952.557 -1.56242 -0.278251 0
M  V30 9985 H 952.578 -2.57003 -2.80588 0
M  V30 9986 H 952.09 -3.64538 -1.33167 0
M  V30 9987 H 950.191 -1.9841 -3.15379 0
M  V30 9988 H 950.304 -3.84501 -2.85825 0
M  V30 9989 H 948.668 -1.98489 -1.59607 0
M  V30 9990 H 949.451 -3.3691 -0.659281 0
M  V30 9991 N 951.896 0.746133 -1.38819 0
M  V30 9992 C 952.828 1.86991 -1.3254 0
M  V30 9993 C 953.841 1.61077 -0.236216 0
M  V30 9994 O 955.03 1.71518 -0.494341 0
M  V30 9995 C 952.13 3.22786 -1.03258 0
M  V30 9996 C 951.303 3.76145 -2.23234 0
M  V30 9997 C 950.362 4.90474 -1.90581 0
M  V30 9998 O 949.388 5.04717 -2.63153 0
M  V30 9999 N 950.59 5.74015 -0.86525 0
M  V30 10000 H 953.355 1.92885 -2.2938 0
M  V30 10001 H 950.916 0.926392 -1.32776 0
M  V30 10002 H 952.908 3.96824 -0.794533 0
M  V30 10003 H 951.478 3.12231 -0.151895 0
M  V30 10004 H 950.698 2.93587 -2.63059 0
M  V30 10005 H 951.986 4.08528 -3.03285 0
M  V30 10006 H 951.384 5.65086 -0.263577 0
M  V30 10007 H 949.941 6.48168 -0.687087 0
M  V30 10008 N 953.375 1.23811 0.975125 0
M  V30 10009 C 954.622 1.07336 1.71712 0
M  V30 10010 C 954.95 -0.388954 1.90571 0
M  V30 10011 O 954.205 -1.30409 1.45918 0
M  V30 10012 C 954.504 1.74994 3.11628 0
M  V30 10013 C 954.17 3.24918 3.12632 0
M  V30 10014 C 952.832 3.65822 3.12614 0
M  V30 10015 C 955.184 4.20797 3.07538 0
M  V30 10016 C 952.512 5.01054 3.05224 0
M  V30 10017 C 954.864 5.56027 3.0169 0
M  V30 10018 C 953.528 5.96287 2.99996 0
M  V30 10019 H 952.798 0.392771 0.62834 0
M  V30 10020 H 955.445 1.53815 1.14075 0
M  V30 10021 H 953.75 1.20889 3.72684 0
M  V30 10022 H 955.447 1.5972 3.67819 0
M  V30 10023 H 952.037 2.92359 3.13407 0
M  V30 10024 H 956.221 3.902 3.06688 0
M  V30 10025 H 951.477 5.31454 3.02268 0
M  V30 10026 H 955.651 6.3003 2.96706 0
M  V30 10027 H 953.278 7.01037 2.94025 0
M  V30 10028 N 954.853 -1.17469 1.05066 0
M  V30 10029 C 955.783 -2.23635 0.671552 0
M  V30 10030 C 956.764 -1.66867 -0.33006 0
M  V30 10031 O 957.949 -1.93084 -0.207933 0
M  V30 10032 C 955.079 -3.47272 0.0441845 0
M  V30 10033 C 954.033 -4.16854 0.97042 0
M  V30 10034 C 953.359 -5.34299 0.206998 0
M  V30 10035 C 954.659 -4.69225 2.29401 0
M  V30 10036 H 956.353 -2.55602 1.55911 0
M  V30 10037 H 953.899 -1.2286 0.751101 0
M  V30 10038 H 955.852 -4.20756 -0.23282 0
M  V30 10039 H 954.576 -3.14568 -0.878311 0
M  V30 10040 H 953.235 -3.4528 1.23197 0
M  V30 10041 H 952.883 -4.97846 -0.718222 0
M  V30 10042 H 952.583 -5.81792 0.82416 0
M  V30 10043 H 954.107 -6.10568 -0.0627525 0
M  V30 10044 H 955.521 -5.34353 2.077 0
M  V30 10045 H 953.918 -5.27291 2.86503 0
M  V30 10046 H 954.988 -3.86102 2.93348 0
M  V30 10047 N 956.331 -0.831506 -1.3388 0
M  V30 10048 C 957.561 -0.436292 -2.01941 0
M  V30 10049 C 957.969 0.964979 -1.62741 0
M  V30 10050 O 957.312 1.63733 -0.832894 0
M  V30 10051 C 957.374 -0.468811 -3.5643 0
M  V30 10052 C 957.038 -1.82491 -4.18982 0
M  V30 10053 C 958.035 -2.78705 -4.38885 0
M  V30 10054 C 955.72 -2.11574 -4.55568 0
M  V30 10055 C 957.714 -4.02168 -4.94509 0
M  V30 10056 C 955.401 -3.35296 -5.10901 0
M  V30 10057 C 956.399 -4.3041 -5.30317 0
M  V30 10058 O 956.087 -5.51944 -5.84477 0
M  V30 10059 H 955.819 -0.172335 -0.653664 0
M  V30 10060 H 958.373 -1.12354 -1.71947 0
M  V30 10061 H 956.603 0.275179 -3.8572 0
M  V30 10062 H 958.292 -0.0924518 -4.05795 0
M  V30 10063 H 959.058 -2.57534 -4.10976 0
M  V30 10064 H 954.937 -1.38338 -4.39754 0
M  V30 10065 H 958.481 -4.76418 -5.09579 0
M  V30 10066 H 954.378 -3.56326 -5.3824 0
M  V30 10067 H 955.146 -5.53582 -6.029 0
M  V30 10068 N 957.809 1.4625 -0.587256 0
M  V30 10069 C 958.719 2.34147 0.145744 0
M  V30 10070 C 959.735 1.50026 0.881376 0
M  V30 10071 O 960.911 1.82884 0.843539 0
M  V30 10072 C 957.976 3.27294 1.14366 0
M  V30 10073 C 957.037 4.27317 0.412199 0
M  V30 10074 C 956.27 5.16013 1.36257 0
M  V30 10075 O 956.493 5.0773 2.59934 0
M  V30 10076 O 955.427 5.95569 0.870681 0
M  V30 10077 H 959.253 2.98187 -0.576055 0
M  V30 10078 H 956.838 1.45299 -0.347628 0
M  V30 10079 H 958.72 3.84747 1.71894 0
M  V30 10080 H 957.395 2.65845 1.84684 0
M  V30 10081 H 956.302 3.73538 -0.205036 0
M  V30 10082 H 957.635 4.91564 -0.250104 0
M  V30 10083 N 959.287 0.325282 1.54207 0
M  V30 10084 C 960.235 -0.5554 2.25872 0
M  V30 10085 C 961.229 -1.11714 1.27344 0
M  V30 10086 O 962.435 -1.06498 1.45115 0
M  V30 10087 H 958.81 -0.19776 0.725531 0
M  V30 10088 H 960.781 0.0712858 2.98315 0
M  V30 10089 C 959.53 -1.70379 3.03095 0
M  V30 10090 H 958.853 -1.2808 3.78729 0
M  V30 10091 H 960.293 -2.29556 3.56483 0
M  V30 10092 C 958.752 -2.62242 2.11496 0
M  V30 10093 O 959.282 -3.64003 1.69895 0
M  V30 10094 N 957.488 -2.30515 1.7695 0
M  V30 10095 H 957.035 -1.47805 2.10978 0
M  V30 10096 H 956.993 -2.92241 1.15942 0
M  V30 10097 N 960.765 -1.57509 0.0534917 0
M  V30 10098 C 962.011 -1.93068 -0.62069 0
M  V30 10099 C 962.344 -0.932313 -1.70357 0
M  V30 10100 O 961.619 0.0413393 -1.94456 0
M  V30 10101 C 961.902 -3.38997 -1.21463 0
M  V30 10102 C 961.755 -4.49583 -0.13965 0
M  V30 10103 C 963.074 -3.85366 -2.12558 0
M  V30 10104 H 960.193 -0.702083 -0.224163 0
M  V30 10105 H 962.835 -1.89647 0.115729 0
M  V30 10106 H 960.985 -3.42043 -1.84226 0
M  V30 10107 H 962.657 -4.58664 0.492411 0
M  V30 10108 H 960.9 -4.30525 0.532006 0
M  V30 10109 H 961.571 -5.48781 -0.595287 0
M  V30 10110 H 964.047 -3.8421 -1.59755 0
M  V30 10111 H 962.923 -4.8812 -2.51058 0
M  V30 10112 H 963.184 -3.22256 -3.02661 0
M  V30 10113 N 962.243 0.219913 -1.56058 0
M  V30 10114 C 963.176 1.29978 -1.87566 0
M  V30 10115 C 964.154 1.45131 -0.733203 0
M  V30 10116 O 965.338 1.60917 -0.981729 0
M  V30 10117 C 962.465 2.66988 -2.08411 0
M  V30 10118 C 961.511 2.68842 -3.31099 0
M  V30 10119 S 962.344 2.22745 -4.86975 0
M  V30 10120 C 963.5 3.61627 -5.10859 0
M  V30 10121 H 963.733 1.03059 -2.78866 0
M  V30 10122 H 961.266 0.422233 -1.48514 0
M  V30 10123 H 963.224 3.45866 -2.21104 0
M  V30 10124 H 961.885 2.91131 -1.17905 0
M  V30 10125 H 961.078 3.69526 -3.42734 0
M  V30 10126 H 960.68 1.98028 -3.17271 0
M  V30 10127 H 962.972 4.57328 -4.99857 0
M  V30 10128 H 963.915 3.54906 -6.12737 0
M  V30 10129 H 964.323 3.55391 -4.38586 0
M  V30 10130 N 963.721 1.49897 0.486681 0
M  V30 10131 C 964.946 1.64106 1.26823 0
M  V30 10132 C 965.371 0.317967 1.85393 0
M  V30 10133 O 964.729 -0.71626 1.66551 0
M  V30 10134 C 964.777 2.72301 2.36399 0
M  V30 10135 O 963.881 2.32469 3.40634 0
M  V30 10136 H 963.222 0.548794 0.373793 0
M  V30 10137 H 965.752 1.96177 0.581017 0
M  V30 10138 H 965.762 2.94906 2.81948 0
M  V30 10139 H 964.437 3.68335 1.93137 0
M  V30 10140 H 963.014 2.20251 3.00905 0
M  V30 10141 N 965.199 -0.738761 1.39212 0
M  V30 10142 C 966.146 -1.85273 1.37631 0
M  V30 10143 C 967.116 -1.64407 0.236572 0
M  V30 10144 O 968.301 -1.85866 0.431104 0
M  V30 10145 C 965.441 -3.22745 1.22188 0
M  V30 10146 C 964.554 -3.55342 2.45674 0
M  V30 10147 C 963.689 -4.82195 2.22847 0
M  V30 10148 C 962.728 -5.07625 3.42029 0
M  V30 10149 N 961.865 -6.25679 3.18543 0
M  V30 10150 H 966.705 -1.85959 2.32859 0
M  V30 10151 H 964.242 -0.908716 1.15675 0
M  V30 10152 H 966.2 -4.02095 1.11245 0
M  V30 10153 H 964.83 -3.21347 0.30592 0
M  V30 10154 H 963.882 -2.70722 2.67233 0
M  V30 10155 H 965.194 -3.70054 3.34457 0
M  V30 10156 H 964.348 -5.69518 2.09126 0
M  V30 10157 H 963.087 -4.6965 1.31454 0
M  V30 10158 H 962.092 -4.18765 3.56253 0
M  V30 10159 H 963.317 -5.22058 4.34319 0
M  V30 10160 H 961.263 -6.14429 2.2981 0
M  V30 10161 H 961.18 -6.40961 4.0088 0
M  V30 10162 H 962.448 -7.15851 3.08508 0
M  V30 10163 N 966.677 -1.24326 -0.968545 0
M  V30 10164 C 967.926 -1.07647 -1.70572 0
M  V30 10165 C 968.239 0.384821 -1.91777 0
M  V30 10166 O 969.445 0.671782 -2.63058 0
M  V30 10167 C 967.901 -1.87799 -3.07017 0
M  V30 10168 C 967.509 -3.38333 -2.93658 0
M  V30 10169 C 969.253 -1.79647 -3.84613 0
M  V30 10170 C 967.16 -4.10831 -4.25407 0
M  V30 10171 H 966.09 -0.399216 -0.639642 0
M  V30 10172 H 968.741 -1.484 -1.07934 0
M  V30 10173 H 967.123 -1.3986 -3.7048 0
M  V30 10174 H 968.297 -3.93845 -2.39213 0
M  V30 10175 H 966.612 -3.47427 -2.29528 0
M  V30 10176 H 969.209 -2.31116 -4.82172 0
M  V30 10177 H 969.552 -0.761553 -4.09275 0
M  V30 10178 H 970.085 -2.25261 -3.27875 0
M  V30 10179 H 966.824 -5.14679 -4.05939 0
M  V30 10180 H 966.344 -3.60105 -4.79671 0
M  V30 10181 H 968.023 -4.17783 -4.94031 0
M  V30 10182 N 968.156 1.1691 -1.05688 0
M  V30 10183 C 969.381 1.91745 -0.790478 0
M  V30 10184 C 969.806 1.76568 0.648478 0
M  V30 10185 O 969.164 1.08682 1.45114 0
M  V30 10186 C 969.212 3.4067 -1.18222 0
M  V30 10187 O 968.316 4.11177 -0.317341 0
M  V30 10188 H 967.657 0.5976 -0.28943 0
M  V30 10189 H 970.187 1.48157 -1.41105 0
M  V30 10190 H 970.197 3.91424 -1.15114 0
M  V30 10191 H 968.872 3.51036 -2.2304 0
M  V30 10192 H 967.449 3.70645 -0.409459 0
M  V30 10193 N 969.634 0.838594 1.33437 0
M  V30 10194 C 970.859 0.446701 2.02532 0
M  V30 10195 C 971.284 -0.944275 1.62681 0
M  V30 10196 O 970.642 -1.61733 0.81927 0
M  V30 10197 C 970.69 0.574794 3.55989 0
M  V30 10198 O 969.794 -0.399063 4.10465 0
M  V30 10199 H 969.135 0.181637 0.638674 0
M  V30 10200 H 971.665 1.13335 1.70342 0
M  V30 10201 H 971.675 0.456339 4.0544 0
M  V30 10202 H 970.35 1.58921 3.8434 0
M  V30 10203 H 968.927 -0.238187 3.72139 0
M  V30 10204 N 971.112 -1.45937 0.595003 0
M  V30 10205 C 972.528 -1.57507 0.257641 0
M  V30 10206 C 972.728 -1.58829 -1.23998 0
M  V30 10207 O 971.784 -1.51183 -2.02237 0
M  V30 10208 C 973.097 -2.86354 0.917708 0
M  V30 10209 C 974.645 -3.00007 0.892446 0
M  V30 10210 C 975.12 -4.31607 1.53229 0
M  V30 10211 N 976.611 -4.38336 1.49719 0
M  V30 10212 C 977.346 -5.38805 1.96154 0
M  V30 10213 N 976.842 -6.45882 2.50617 0
M  V30 10214 N 978.635 -5.30084 1.86997 0
M  V30 10215 H 970.786 -1.43322 1.56756 0
M  V30 10216 H 973.049 -0.684436 0.655936 0
M  V30 10217 H 972.755 -2.91233 1.97171 0
M  V30 10218 H 972.629 -3.74703 0.433344 0
M  V30 10219 H 975.016 -2.94703 -0.152975 0
M  V30 10220 H 975.097 -2.13103 1.41495 0
M  V30 10221 H 974.741 -4.3767 2.57697 0
M  V30 10222 H 974.671 -5.17308 0.984903 0
M  V30 10223 H 977.162 -3.6156 1.09921 0
M  V30 10224 H 977.475 -7.18774 2.83874 0
M  V30 10225 H 975.82 -6.46668 2.54649 0
M  V30 10226 H 979.011 -4.45337 1.44196 0
M  V30 10227 H 979.184 -6.08237 2.23499 0
M  V30 10228 N 972.59 -0.333456 -1.54032 0
M  V30 10229 C 973.867 0.320902 -1.9295 0
M  V30 10230 C 974.247 1.69071 -1.26405 0
M  V30 10231 O 973.595 2.24768 -0.411311 0
M  V30 10232 C 973.805 0.403257 -3.46662 0
M  V30 10233 C 975.153 0.658875 -4.19457 0
M  V30 10234 O 976.177 0.485781 -3.52872 0
M  V30 10235 O 975.036 0.993475 -5.37394 0
M  V30 10236 H 972.13 0.185158 -0.806006 0
M  V30 10237 H 974.676 -0.383895 -1.65301 0
M  V30 10238 H 973.448 -0.558409 -3.87295 0
M  V30 10239 H 973.071 1.15524 -3.80447 0
M  V30 10240 N 974.068 1.57479 -0.061844 0
M  V30 10241 C 975.316 1.92727 0.608336 0
M  V30 10242 C 975.637 0.941799 1.70749 0
M  V30 10243 O 974.907 -0.0116608 1.95897 0
M  V30 10244 H 973.487 0.71145 0.2277 0
M  V30 10245 H 976.149 1.94546 -0.117359 0
M  V30 10246 H 975.245 2.9426 1.04007 0
M  V30 10247 N 975.546 -0.211634 1.56173 0
M  V30 10248 C 976.456 -1.2831 1.96402 0
M  V30 10249 C 977.472 -1.50731 0.869254 0
M  V30 10250 O 978.648 -1.63669 1.17365 0
M  V30 10251 C 975.713 -2.61084 2.28114 0
M  V30 10252 C 974.774 -2.46879 3.51211 0
M  V30 10253 C 974.007 -3.73321 3.81401 0
M  V30 10254 O 974.23 -4.76773 3.13119 0
M  V30 10255 O 973.164 -3.69839 4.74871 0
M  V30 10256 H 976.99 -0.971733 2.87734 0
M  V30 10257 H 974.575 -0.415305 1.43512 0
M  V30 10258 H 976.457 -3.39481 2.49661 0
M  V30 10259 H 975.132 -2.91881 1.39954 0
M  V30 10260 H 974.039 -1.66648 3.34932 0
M  V30 10261 H 975.372 -2.21018 4.39786 0
M  V30 10262 N 977.024 -1.50153 -0.478725 0
M  V30 10263 C 978.301 -1.51274 -1.23999 0
M  V30 10264 C 978.681 -0.253048 -2.09578 0
M  V30 10265 O 978.029 0.763827 -2.15355 0
M  V30 10266 C 978.239 -2.80423 -2.07759 0
M  V30 10267 C 979.587 -3.30788 -2.66204 0
M  V30 10268 O 980.611 -2.81693 -2.18008 0
M  V30 10269 O 979.47 -4.1635 -3.53999 0
M  V30 10270 H 976.564 -0.606438 -0.562283 0
M  V30 10271 H 979.11 -1.62436 -0.491171 0
M  V30 10272 H 977.882 -3.63584 -1.44645 0
M  V30 10273 H 977.505 -2.72228 -2.89789 0
M  V30 10274 N 978.502 0.731368 -1.39602 0
M  V30 10275 C 979.749 1.491 -1.37024 0
M  V30 10276 C 980.077 1.94473 0.0326423 0
M  V30 10277 O 979.332 1.6737 1.01418 0
M  V30 10278 C 979.631 2.74224 -2.29208 0
M  V30 10279 C 979.297 2.477 -3.7677 0
M  V30 10280 C 977.959 2.40175 -4.16976 0
M  V30 10281 C 980.311 2.25098 -4.70086 0
M  V30 10282 C 977.639 2.08095 -5.48556 0
M  V30 10283 C 979.991 1.94534 -6.01946 0
M  V30 10284 C 978.655 1.85481 -6.41212 0
M  V30 10285 H 977.925 0.545595 -0.501405 0
M  V30 10286 H 980.572 0.839127 -1.72136 0
M  V30 10287 H 978.877 3.44171 -1.87225 0
M  V30 10288 H 980.574 3.32264 -2.24504 0
M  V30 10289 H 977.164 2.54436 -3.44906 0
M  V30 10290 H 981.348 2.29876 -4.39853 0
M  V30 10291 H 976.604 1.99611 -5.77897 0
M  V30 10292 H 980.778 1.76054 -6.73779 0
M  V30 10293 H 978.405 1.60389 -7.43088 0
M  V30 10294 N 979.98 1.24838 0.961938 0
M  V30 10295 C 980.927 1.04582 2.05745 0
M  V30 10296 C 981.897 -0.0427281 1.66045 0
M  V30 10297 O 983.082 0.113026 1.90465 0
M  V30 10298 C 980.222 0.66284 3.38675 0
M  V30 10299 C 979.335 1.82548 3.91536 0
M  V30 10300 C 978.47 1.38753 5.12758 0
M  V30 10301 C 977.509 2.51976 5.5783 0
M  V30 10302 N 976.646 2.09009 6.70268 0
M  V30 10303 H 981.486 1.98343 2.22405 0
M  V30 10304 H 979.023 0.987822 1.08998 0
M  V30 10305 H 980.981 0.421788 4.15062 0
M  V30 10306 H 979.611 -0.237776 3.21923 0
M  V30 10307 H 978.663 2.18004 3.11735 0
M  V30 10308 H 979.975 2.67601 4.20941 0
M  V30 10309 H 979.129 1.1057 5.96539 0
M  V30 10310 H 977.868 0.507618 4.85051 0
M  V30 10311 H 976.873 2.80912 4.72619 0
M  V30 10312 H 978.098 3.40534 5.87549 0
M  V30 10313 H 976.044 1.23423 6.44285 0
M  V30 10314 H 975.961 2.87613 6.99153 0
M  V30 10315 H 977.229 1.83981 7.57477 0
M  V30 10316 N 981.458 -1.16348 1.06306 0
M  V30 10317 C 982.874 -1.38873 0.786543 0
M  V30 10318 C 983.074 -1.91915 -0.614061 0
M  V30 10319 O 982.13 -2.11804 -1.3746 0
M  V30 10320 C 983.443 -2.36936 1.85154 0
M  V30 10321 C 984.991 -2.5062 1.87506 0
M  V30 10322 C 985.466 -3.51965 2.9306 0
M  V30 10323 N 986.957 -3.59492 2.92095 0
M  V30 10324 C 987.692 -4.37699 3.70415 0
M  V30 10325 N 987.188 -5.19327 4.58553 0
M  V30 10326 N 988.981 -4.32683 3.58806 0
M  V30 10327 H 981.132 -0.802542 1.96655 0
M  V30 10328 H 983.395 -0.415304 0.852189 0
M  V30 10329 H 983.101 -2.05056 2.85736 0
M  V30 10330 H 982.975 -3.36585 1.70267 0
M  V30 10331 H 985.362 -2.81804 0.875827 0
M  V30 10332 H 985.443 -1.51006 2.06472 0
M  V30 10333 H 985.087 -3.21518 3.93177 0
M  V30 10334 H 985.017 -4.51309 2.71344 0
M  V30 10335 H 987.508 -3.01222 2.28197 0
M  V30 10336 H 987.821 -5.76216 5.1497 0
M  V30 10337 H 986.166 -5.1867 4.62608 0
M  V30 10338 H 989.357 -3.67971 2.89335 0
M  V30 10339 H 989.53 -4.93386 4.20088 0
M  V30 10340 N 982.937 -0.845659 -1.3299 0
M  V30 10341 C 984.348 -0.50048 -1.79867 0
M  V30 10342 C 984.699 0.981027 -1.69913 0
M  V30 10343 O 983.824 1.76477 -1.25239 0
M  V30 10344 C 984.419 -0.901679 -3.26581 0
M  V30 10345 C 982.978 -0.608536 -3.71448 0
M  V30 10346 C 982.125 -1.10632 -2.54275 0
M  V30 10347 H 985.076 -1.03372 -1.20416 0
M  V30 10348 H 985.097 -0.214433 -3.79895 0
M  V30 10349 H 984.609 -1.97998 -3.33794 0
M  V30 10350 H 982.71 0.459416 -3.69757 0
M  V30 10351 H 982.823 -1.16853 -4.64631 0
M  V30 10352 H 981.187 -0.526925 -2.4919 0
M  V30 10353 H 981.97 -2.19154 -2.64247 0
M  V30 10354 N 984.415 1.45619 -0.602734 0
M  V30 10355 C 985.64 2.07157 -0.100429 0
M  V30 10356 C 986.065 1.44524 1.20393 0
M  V30 10357 O 985.423 0.536191 1.7319 0
M  V30 10358 C 985.471 3.60587 0.0308604 0
M  V30 10359 O 984.575 3.97944 1.08234 0
M  V30 10360 H 983.916 0.6601 -0.0718643 0
M  V30 10361 H 986.446 1.86948 -0.831366 0
M  V30 10362 H 986.456 4.07348 0.230634 0
M  V30 10363 H 985.131 4.05561 -0.921581 0
M  V30 10364 H 983.708 3.62862 0.859414 0
M  V30 10365 N 985.893 0.34162 1.53853 0
M  V30 10366 C 987.118 -0.259608 2.05769 0
M  V30 10367 C 987.543 -1.43588 1.21507 0
M  V30 10368 O 986.901 -1.79856 0.228364 0
M  V30 10369 C 986.949 -0.654455 3.54611 0
M  V30 10370 O 986.053 -1.75472 3.73207 0
M  V30 10371 H 985.394 -0.0434621 0.662576 0
M  V30 10372 H 987.924 0.495274 1.98515 0
M  V30 10373 H 987.934 -0.932142 3.97209 0
M  V30 10374 H 986.609 0.205779 4.15391 0
M  V30 10375 H 985.186 -1.47444 3.42512 0
M  V30 10376 N 987.371 -1.57444 0.0701946 0
M  V30 10377 C 988.617 -1.93716 -0.600178 0
M  V30 10378 C 988.95 -0.950329 -1.69359 0
M  V30 10379 O 988.225 0.0207123 -1.94489 0
M  V30 10380 C 988.508 -3.40266 -1.17861 0
M  V30 10381 C 988.361 -4.49706 -0.0919575 0
M  V30 10382 C 989.68 -3.87599 -2.08459 0
M  V30 10383 H 986.799 -0.704421 -0.216704 0
M  V30 10384 H 989.441 -1.89514 0.135838 0
M  V30 10385 H 987.591 -3.43977 -1.80587 0
M  V30 10386 H 989.263 -4.58116 0.541031 0
M  V30 10387 H 987.506 -4.29937 0.577639 0
M  V30 10388 H 988.177 -5.49381 -0.537048 0
M  V30 10389 H 990.653 -3.85883 -1.5567 0
M  V30 10390 H 989.529 -4.90755 -2.45867 0
M  V30 10391 H 989.79 -3.25448 -2.99226 0
M  V30 10392 N 988.849 0.203349 -1.56283 0
M  V30 10393 C 990.074 0.945548 -1.84592 0
M  V30 10394 C 990.499 1.7641 -0.652772 0
M  V30 10395 O 989.857 1.76867 0.398468 0
M  V30 10396 C 989.905 1.82416 -3.11057 0
M  V30 10397 O 989.009 2.92191 -2.9103 0
M  V30 10398 H 988.35 0.266739 -0.608068 0
M  V30 10399 H 990.88 0.211158 -2.03507 0
M  V30 10400 H 990.89 2.23044 -3.41636 0
M  V30 10401 H 989.565 1.22267 -3.97522 0
M  V30 10402 H 988.142 2.55378 -2.71728 0
M  V30 10403 N 990.327 1.50405 0.470755 0
M  V30 10404 C 991.575 1.61092 1.2204 0
M  V30 10405 C 991.896 0.313487 1.92464 0
M  V30 10406 O 991.166 -0.669043 1.84121 0
M  V30 10407 H 989.746 0.593618 0.45346 0
M  V30 10408 H 992.408 1.87184 0.542985 0
M  V30 10409 H 991.504 2.42222 1.96812 0
M  V30 10410 N 991.805 -0.723954 1.39988 0
M  V30 10411 C 993.03 -1.5182 1.41299 0
M  V30 10412 C 993.455 -1.88096 0.0122636 0
M  V30 10413 O 992.813 -1.52687 -0.977559 0
M  V30 10414 C 992.861 -2.77532 2.30235 0
M  V30 10415 O 991.965 -3.73903 1.73984 0
M  V30 10416 H 991.306 -0.458058 0.480707 0
M  V30 10417 H 993.836 -0.892291 1.84118 0
M  V30 10418 H 993.846 -3.2615 2.45132 0
M  V30 10419 H 992.521 -2.50462 3.32026 0
M  V30 10420 H 991.098 -3.32715 1.68389 0
M  V30 10421 N 993.283 -1.25346 -0.955304 0
M  V30 10422 C 994.532 -1.0945 -1.69421 0
M  V30 10423 C 994.845 0.364459 -1.92175 0
M  V30 10424 O 996.051 0.643843 -2.63755 0
M  V30 10425 C 994.507 -1.91045 -3.05008 0
M  V30 10426 C 994.115 -3.41428 -2.90053 0
M  V30 10427 C 995.859 -1.83716 -3.82686 0
M  V30 10428 C 993.766 -4.1532 -4.21026 0
M  V30 10429 H 992.696 -0.405978 -0.635372 0
M  V30 10430 H 995.347 -1.49536 -1.06354 0
M  V30 10431 H 993.729 -1.43781 -3.68975 0
M  V30 10432 H 994.903 -3.9636 -2.35022 0
M  V30 10433 H 993.218 -3.49842 -2.25831 0
M  V30 10434 H 995.815 -2.36217 -4.79693 0
M  V30 10435 H 996.158 -0.804919 -4.08444 0
M  V30 10436 H 996.691 -2.28726 -3.25468 0
M  V30 10437 H 993.43 -5.18955 -4.00457 0
M  V30 10438 H 992.95 -3.65172 -4.75825 0
M  V30 10439 H 994.629 -4.22999 -4.89572 0
M  V30 10440 N 994.761 1.15782 -1.06922 0
M  V30 10441 C 996.172 1.68062 -0.813144 0
M  V30 10442 C 996.523 1.84681 0.662374 0
M  V30 10443 O 995.648 1.54696 1.51321 0
M  V30 10444 C 996.243 3.05273 -1.46949 0
M  V30 10445 C 994.802 3.54647 -1.26104 0
M  V30 10446 C 993.949 2.30477 -1.54194 0
M  V30 10447 H 996.9 1.00056 -1.23185 0
M  V30 10448 H 996.921 3.69986 -0.888308 0
M  V30 10449 H 996.433 2.93145 -2.54337 0
M  V30 10450 H 994.534 3.72024 -0.20718 0
M  V30 10451 H 994.647 4.36354 -1.97819 0
M  V30 10452 H 993.011 2.35803 -0.96276 0
M  V30 10453 H 993.794 2.2094 -2.62755 0
M  V30 10454 N 996.239 0.8527 1.3254 0
M  V30 10455 C 997.464 0.468157 2.02047 0
M  V30 10456 C 997.889 -0.926967 1.63673 0
M  V30 10457 O 997.247 -1.60855 0.836378 0
M  V30 10458 C 997.295 0.612519 3.5536 0
M  V30 10459 O 996.399 -0.355506 4.10865 0
M  V30 10460 H 995.74 0.188401 0.636711 0
M  V30 10461 H 998.27 1.15135 1.6913 0
M  V30 10462 H 998.28 0.499315 4.04933 0
M  V30 10463 H 996.955 1.62988 3.82632 0
M  V30 10464 H 995.532 -0.198703 3.7237 0
M  V30 10465 N 997.718 -1.45297 0.610449 0
M  V30 10466 C 998.967 -2.0143 0.104323 0
M  V30 10467 C 999.28 -1.48431 -1.27388 0
M  V30 10468 O 1000.49 -1.96558 -1.87289 0
M  V30 10469 C 998.942 -3.59644 0.135812 0
M  V30 10470 C 998.55 -4.2164 1.51405 0
M  V30 10471 C 1000.29 -4.2333 -0.314922 0
M  V30 10472 C 998.201 -5.72015 1.50176 0
M  V30 10473 H 997.131 -0.753176 0.035233 0
M  V30 10474 H 999.782 -1.66738 0.7662 0
M  V30 10475 H 998.164 -3.91538 -0.592773 0
M  V30 10476 H 999.338 -4.01315 2.26457 0
M  V30 10477 H 997.653 -3.70159 1.90712 0
M  V30 10478 H 1000.25 -5.33597 -0.343335 0
M  V30 10479 H 1000.59 -3.94206 -1.33817 0
M  V30 10480 H 1001.13 -3.96163 0.360489 0
M  V30 10481 H 997.865 -6.05842 2.50271 0
M  V30 10482 H 997.385 -5.94523 0.793869 0
M  V30 10483 H 999.064 -6.35266 1.22665 0
M  V30 10484 N 999.196 -0.349774 -1.5367 0
M  V30 10485 C 1000.14 0.519396 -2.26727 0
M  V30 10486 C 1001.14 1.09673 -1.29105 0
M  V30 10487 O 1002.34 1.04176 -1.46791 0
M  V30 10488 H 998.719 0.186192 -0.728585 0
M  V30 10489 H 1000.69 -0.118736 -2.98164 0
M  V30 10490 C 999.439 1.65535 -3.05767 0
M  V30 10491 H 998.762 1.22038 -3.80719 0
M  V30 10492 H 1000.2 2.23856 -3.6009 0
M  V30 10493 C 998.661 2.58844 -2.15642 0
M  V30 10494 O 999.191 3.61254 -1.75665 0
M  V30 10495 N 997.397 2.27671 -1.80595 0
M  V30 10496 H 996.944 1.44429 -2.13302 0
M  V30 10497 H 996.902 2.90359 -1.20577 0
M  V30 10498 N 1000.67 1.57404 -0.0785433 0
M  V30 10499 C 1001.92 1.94031 0.589896 0
M  V30 10500 C 1002.25 0.959297 1.68852 0
M  V30 10501 O 1001.53 -0.0103978 1.94497 0
M  V30 10502 C 1001.81 3.40886 1.16055 0
M  V30 10503 C 1001.66 4.49748 0.0681072 0
M  V30 10504 C 1002.98 3.88699 2.06401 0
M  V30 10505 H 1000.1 0.70556 0.212965 0
M  V30 10506 H 1002.74 1.89439 -0.145886 0
M  V30 10507 H 1000.89 3.4493 1.78761 0
M  V30 10508 H 1002.57 4.57823 -0.565318 0
M  V30 10509 H 1000.81 4.29625 -0.600431 0
M  V30 10510 H 1001.48 5.49658 0.507906 0
M  V30 10511 H 1003.96 3.86703 1.53622 0
M  V30 10512 H 1002.83 4.92052 2.43261 0
M  V30 10513 H 1003.09 3.2703 2.97496 0
M  V30 10514 N 1002.15 -0.195058 1.56388 0
M  V30 10515 C 1003.38 -0.935745 1.85091 0
M  V30 10516 C 1003.8 -1.76061 0.662118 0
M  V30 10517 O 1003.16 -1.77076 -0.389083 0
M  V30 10518 C 1003.21 -1.80764 3.1202 0
M  V30 10519 O 1002.31 -2.90643 2.92575 0
M  V30 10520 H 1001.65 -0.26351 0.609474 0
M  V30 10521 H 1004.18 -0.200362 2.03617 0
M  V30 10522 H 1004.19 -2.21229 3.42815 0
M  V30 10523 H 1002.87 -1.20157 3.98165 0
M  V30 10524 H 1001.44 -2.53934 2.73079 0
M  V30 10525 N 1003.63 -1.50653 -0.462772 0
M  V30 10526 C 1004.88 -1.61737 -1.21184 0
M  V30 10527 C 1005.2 -0.32369 -1.92295 0
M  V30 10528 O 1004.47 0.659269 -1.84473 0
M  V30 10529 H 1003.05 -0.596015 -0.450306 0
M  V30 10530 H 1005.71 -1.87469 -0.533051 0
M  V30 10531 H 1004.81 -2.43262 -1.95525 0
M  V30 10532 N 1005.11 0.71652 -1.4037 0
M  V30 10533 C 1006.33 1.51069 -1.42102 0
M  V30 10534 C 1006.76 1.88087 -0.0222387 0
M  V30 10535 O 1006.12 1.53204 0.969448 0
M  V30 10536 C 1006.16 2.76307 -2.31704 0
M  V30 10537 O 1005.27 3.72975 -1.75964 0
M  V30 10538 H 1004.61 0.455502 -0.483129 0
M  V30 10539 H 1007.14 0.882514 -1.84588 0
M  V30 10540 H 1007.15 3.24846 -2.46859 0
M  V30 10541 H 1005.82 2.48698 -3.3335 0
M  V30 10542 H 1004.4 3.31818 -1.70151 0
M  V30 10543 N 1006.59 1.25851 0.948643 0
M  V30 10544 C 1007.52 1.02549 2.04979 0
M  V30 10545 C 1008.53 -0.0115923 1.62796 0
M  V30 10546 O 1009.72 0.227643 1.77042 0
M  V30 10547 C 1006.82 0.529486 3.34738 0
M  V30 10548 C 1005.99 1.6341 4.05729 0
M  V30 10549 C 1005.05 1.13743 5.1376 0
M  V30 10550 O 1004.08 1.83303 5.38877 0
M  V30 10551 N 1005.28 -0.0181151 5.80497 0
M  V30 10552 H 1008.05 1.97365 2.25537 0
M  V30 10553 H 1005.61 1.17137 1.11761 0
M  V30 10554 H 1007.6 0.181566 4.04293 0
M  V30 10555 H 1006.17 -0.324893 3.10907 0
M  V30 10556 H 1005.39 2.15331 3.30191 0
M  V30 10557 H 1006.68 2.37603 4.49914 0
M  V30 10558 H 1006.07 -0.599198 5.62518 0
M  V30 10559 H 1004.63 -0.307019 6.51077 0
M  V30 10560 N 1008.06 -1.15214 1.07534 0
M  V30 10561 C 1009.34 -1.82155 0.71267 0
M  V30 10562 C 1009.72 -1.95163 -0.804655 0
M  V30 10563 O 1009.07 -1.50451 -1.71979 0
M  V30 10564 C 1009.28 -3.18392 1.42925 0
M  V30 10565 C 1010.63 -3.94005 1.58256 0
M  V30 10566 O 1011.65 -3.27952 1.39018 0
M  V30 10567 O 1010.51 -5.12436 1.89925 0
M  V30 10568 H 1007.6 -0.78709 0.253808 0
M  V30 10569 H 1010.15 -1.22309 1.17638 0
M  V30 10570 H 1008.92 -3.04034 2.46331 0
M  V30 10571 H 1008.55 -3.85925 0.956439 0
M  V30 10572 N 1009.54 -0.859717 -1.32086 0
M  V30 10573 C 1010.49 -0.296897 -2.30697 0
M  V30 10574 C 1011.48 0.582473 -1.59071 0
M  V30 10575 O 1012.69 0.469713 -1.73763 0
M  V30 10576 H 1009.07 -0.0773132 -0.748015 0
M  V30 10577 H 1011.04 -1.14273 -2.75652 0
M  V30 10578 C 1009.79 0.495546 -3.44151 0
M  V30 10579 H 1009.11 -0.171829 -3.99431 0
M  V30 10580 H 1010.55 0.854854 -4.15293 0
M  V30 10581 C 1009.01 1.68278 -2.91863 0
M  V30 10582 O 1009.54 2.78194 -2.89777 0
M  V30 10583 N 1007.74 1.51151 -2.48197 0
M  V30 10584 H 1007.29 0.617345 -2.50093 0
M  V30 10585 H 1007.25 2.3073 -2.13567 0
M  V30 10586 N 1011.02 1.44971 -0.618145 0
M  V30 10587 C 1011.97 2.32354 0.106846 0
M  V30 10588 C 1012.96 1.4659 0.848984 0
M  V30 10589 O 1014.17 1.63012 0.763354 0
M  V30 10590 H 1010.54 0.750108 0.0533109 0
M  V30 10591 H 1012.51 2.9127 -0.648426 0
M  V30 10592 C 1011.26 3.30381 1.08368 0
M  V30 10593 H 1010.59 3.96377 0.52205 0
M  V30 10594 H 1012.03 3.94231 1.56069 0
M  V30 10595 C 1010.49 2.58336 2.1625 0
M  V30 10596 O 1011.02 2.37258 3.24148 0
M  V30 10597 N 1009.22 2.18292 1.91825 0
M  V30 10598 H 1008.77 2.35635 1.04086 0
M  V30 10599 H 1008.73 1.70413 2.6421 0
M  V30 10600 N 1012.5 0.357919 1.53482 0
M  V30 10601 C 1013.73 -0.23514 2.05559 0
M  V30 10602 C 1014.14 -1.43068 1.23195 0
M  V30 10603 O 1013.5 -1.80481 0.270741 0
M  V30 10604 C 1013.55 -0.636147 3.55859 0
M  V30 10605 O 1013.27 0.511864 4.35099 0
M  V30 10606 C 1014.77 -1.28841 4.24164 0
M  V30 10607 H 1011.99 -0.0428446 0.669631 0
M  V30 10608 H 1014.54 0.51407 1.97933 0
M  V30 10609 H 1012.69 -1.33528 3.63661 0
M  V30 10610 H 1013.1 0.189328 5.24158 0
M  V30 10611 H 1014.58 -1.51962 5.30671 0
M  V30 10612 H 1015.06 -2.24638 3.77405 0
M  V30 10613 H 1015.66 -0.630914 4.20594 0
M  V30 10614 N 1013.98 -1.5736 0.0868897 0
M  V30 10615 C 1015.2 -1.98388 -0.587349 0
M  V30 10616 C 1015.62 -0.965757 -1.6223 0
M  V30 10617 O 1014.98 0.0456981 -1.82443 0
M  V30 10618 C 1015.03 -3.39479 -1.24242 0
M  V30 10619 O 1014.75 -4.37393 -0.248878 0
M  V30 10620 C 1016.25 -3.95465 -2.00305 0
M  V30 10621 H 1013.47 -0.652111 -0.15809 0
M  V30 10622 H 1016.01 -2.03843 0.163754 0
M  V30 10623 H 1014.17 -3.35063 -1.94451 0
M  V30 10624 H 1014.58 -5.19525 -0.720678 0
M  V30 10625 H 1016.06 -4.96363 -2.41511 0
M  V30 10626 H 1016.53 -3.32832 -2.86565 0
M  V30 10627 H 1017.14 -4.03328 -1.34931 0
M  V30 10628 N 1015.45 0.186762 -1.56489 0
M  V30 10629 C 1016.4 1.25084 -1.96104 0
M  V30 10630 C 1017.4 1.4667 -0.847609 0
M  V30 10631 O 1018.6 1.47432 -1.03266 0
M  V30 10632 H 1014.98 0.420121 -0.623701 0
M  V30 10633 H 1016.95 0.889761 -2.84826 0
M  V30 10634 C 1015.7 2.5863 -2.32392 0
M  V30 10635 H 1015.02 2.42838 -3.176 0
M  V30 10636 H 1016.46 3.3181 -2.63967 0
M  V30 10637 C 1014.92 3.16241 -1.16159 0
M  V30 10638 O 1015.45 3.99272 -0.441034 0
M  V30 10639 N 1013.66 2.75106 -0.936206 0
M  V30 10640 H 1013.2 2.0769 -1.5239 0
M  V30 10641 H 1013.16 3.13991 -0.160317 0
M  V30 10642 N 1016.93 1.50896 0.454776 0
M  V30 10643 C 1018.35 1.38684 0.78987 0
M  V30 10644 C 1018.55 0.455587 1.96282 0
M  V30 10645 O 1017.6 -0.0957503 2.52318 0
M  V30 10646 C 1018.92 2.80381 1.08661 0
M  V30 10647 C 1020.47 2.8941 1.19209 0
M  V30 10648 C 1020.94 4.31976 1.52187 0
M  V30 10649 N 1022.43 4.35002 1.59146 0
M  V30 10650 C 1023.17 5.42326 1.862 0
M  V30 10651 N 1022.66 6.59835 2.11164 0
M  V30 10652 N 1024.46 5.29786 1.87838 0
M  V30 10653 H 1016.61 2.10006 -0.317981 0
M  V30 10654 H 1018.87 0.944636 -0.0797969 0
M  V30 10655 H 1018.58 3.50438 0.297626 0
M  V30 10656 H 1018.45 3.18634 2.01872 0
M  V30 10657 H 1020.84 2.19561 1.97173 0
M  V30 10658 H 1020.92 2.54677 0.239401 0
M  V30 10659 H 1020.56 5.02368 0.747576 0
M  V30 10660 H 1020.49 4.64208 2.48633 0
M  V30 10661 H 1022.98 3.50276 1.41828 0
M  V30 10662 H 1023.3 7.37428 2.31128 0
M  V30 10663 H 1021.64 6.62981 2.08522 0
M  V30 10664 H 1024.83 4.36974 1.67843 0
M  V30 10665 H 1025 6.13511 2.08585 0
M  V30 10666 N 1018.41 -0.709066 1.40748 0
M  V30 10667 C 1019.64 -1.50313 1.42901 0
M  V30 10668 C 1020.06 -1.88072 0.032213 0
M  V30 10669 O 1019.42 -1.53716 -0.96131 0
M  V30 10670 C 1019.47 -2.75074 2.33166 0
M  V30 10671 O 1018.57 -3.72036 1.7794 0
M  V30 10672 H 1017.91 -0.452934 0.485538 0
M  V30 10673 H 1020.44 -0.872712 1.85054 0
M  V30 10674 H 1020.45 -3.23532 2.48578 0
M  V30 10675 H 1019.13 -2.46927 3.34664 0
M  V30 10676 H 1017.7 -3.30911 1.71908 0
M  V30 10677 N 1019.89 -1.26353 -0.941956 0
M  V30 10678 C 1021.12 -1.14626 -1.72245 0
M  V30 10679 C 1021.53 0.298588 -1.86424 0
M  V30 10680 O 1020.89 1.2045 -1.37106 0
M  V30 10681 C 1020.94 -1.80933 -3.12963 0
M  V30 10682 O 1020.66 -3.19771 -2.99463 0
M  V30 10683 C 1022.16 -1.7515 -4.07231 0
M  V30 10684 H 1019.38 -0.3992 -0.539333 0
M  V30 10685 H 1021.93 -1.66958 -1.1809 0
M  V30 10686 H 1020.08 -1.32541 -3.64021 0
M  V30 10687 H 1020.5 -3.52571 -3.88322 0
M  V30 10688 H 1021.97 -2.26183 -5.03533 0
M  V30 10689 H 1022.45 -0.717855 -4.33294 0
M  V30 10690 H 1023.05 -2.2309 -3.62093 0
M  V30 10691 N 1021.37 1.14642 -1.08144 0
M  V30 10692 C 1022.32 2.17665 -0.678661 0
M  V30 10693 C 1023.3 1.58072 0.300336 0
M  V30 10694 O 1024.49 1.7664 0.112781 0
M  V30 10695 C 1021.62 3.43191 -0.0866362 0
M  V30 10696 C 1020.71 4.0982 -1.09126 0
M  V30 10697 N 1021.1 4.51814 -2.27372 0
M  V30 10698 C 1019.4 4.36272 -0.926411 0
M  V30 10699 C 1020.1 5.03581 -2.91172 0
M  V30 10700 N 1019.07 4.97624 -2.18795 0
M  V30 10701 H 1022.88 2.47872 -1.57914 0
M  V30 10702 H 1020.39 1.31296 -0.955772 0
M  V30 10703 H 1022.39 4.1632 0.219859 0
M  V30 10704 H 1021.05 3.14464 0.80886 0
M  V30 10705 H 1022.06 4.44941 -2.65044 0
M  V30 10706 H 1018.74 4.17414 -0.084492 0
M  V30 10707 H 1020.13 5.45969 -3.91621 0
M  V30 10708 N 1022.85 0.866709 1.31628 0
M  V30 10709 C 1024.09 0.475086 1.96437 0
M  V30 10710 C 1024.41 -0.975179 1.68865 0
M  V30 10711 O 1023.68 -1.68317 1.0023 0
M  V30 10712 H 1022.26 0.172695 0.726764 0
M  V30 10713 H 1024.93 1.10578 1.60494 0
M  V30 10714 H 1024.02 0.630123 3.05673 0
M  V30 10715 N 1024.32 -1.44642 0.625825 0
M  V30 10716 C 1025.57 -2.01695 0.127948 0
M  V30 10717 C 1025.89 -1.49439 -1.25271 0
M  V30 10718 O 1025.16 -0.695873 -1.83124 0
M  V30 10719 H 1023.74 -0.745685 0.0443096 0
M  V30 10720 H 1026.4 -1.7721 0.811332 0
M  V30 10721 H 1025.5 -3.11966 0.0915933 0
M  V30 10722 N 1025.8 -0.366053 -1.5329 0
M  V30 10723 C 1027.03 0.226839 -2.06156 0
M  V30 10724 C 1027.45 1.41637 -1.23776 0
M  V30 10725 O 1026.81 1.7947 -0.256948 0
M  V30 10726 C 1026.86 0.597956 -3.55608 0
M  V30 10727 O 1025.96 1.69512 -3.75951 0
M  V30 10728 H 1025.3 0.0329156 -0.663184 0
M  V30 10729 H 1027.83 -0.526793 -1.97702 0
M  V30 10730 H 1027.84 0.868831 -3.98642 0
M  V30 10731 H 1026.52 -0.271838 -4.15011 0
M  V30 10732 H 1025.09 1.41976 -3.44815 0
M  V30 10733 N 1027.28 1.57312 -0.0952337 0
M  V30 10734 C 1028.56 1.85822 0.610715 0
M  V30 10735 C 1028.94 0.992114 1.86334 0
M  V30 10736 O 1028.28 0.0645669 2.28409 0
M  V30 10737 C 1028.49 3.36492 0.925967 0
M  V30 10738 C 1029.84 4.0455 1.28936 0
M  V30 10739 O 1030.87 3.41374 1.01698 0
M  V30 10740 O 1029.73 5.16024 1.79949 0
M  V30 10741 H 1026.82 0.768454 0.305626 0
M  V30 10742 H 1029.37 1.69217 -0.127941 0
M  V30 10743 H 1028.14 3.91282 0.0373127 0
M  V30 10744 H 1027.76 3.58443 1.7206 0
M  V30 10745 N 1028.76 -0.17846 1.56586 0
M  V30 10746 C 1029.99 -0.911996 1.85715 0
M  V30 10747 C 1030.4 -1.76138 0.679766 0
M  V30 10748 O 1029.76 -1.79088 -0.351266 0
M  V30 10749 C 1029.81 -1.79459 3.1381 0
M  V30 10750 O 1029.53 -0.979476 4.2701 0
M  V30 10751 C 1031.03 -2.6384 3.56235 0
M  V30 10752 H 1028.25 -0.265299 0.616326 0
M  V30 10753 H 1030.79 -0.180704 2.037 0
M  V30 10754 H 1028.95 -2.4793 2.97673 0
M  V30 10755 H 1029.36 -1.58244 5.00059 0
M  V30 10756 H 1030.84 -3.21396 4.48786 0
M  V30 10757 H 1031.31 -3.38363 2.80013 0
M  V30 10758 H 1031.92 -2.00712 3.7496 0
M  V30 10759 N 1030.24 -1.51135 -0.446768 0
M  V30 10760 C 1031.46 -1.67411 -1.22427 0
M  V30 10761 C 1031.89 -0.367009 -1.84485 0
M  V30 10762 O 1031.24 0.67185 -1.68392 0
M  V30 10763 C 1031.29 -2.78473 -2.29096 0
M  V30 10764 O 1030.4 -2.41419 -3.34351 0
M  V30 10765 H 1029.74 -0.558512 -0.359111 0
M  V30 10766 H 1032.27 -1.97648 -0.5288 0
M  V30 10767 H 1032.28 -3.02277 -2.7403 0
M  V30 10768 H 1030.95 -3.73326 -1.83304 0
M  V30 10769 H 1029.53 -2.28152 -2.9496 0
M  V30 10770 N 1031.71 0.701592 -1.41122 0
M  V30 10771 C 1032.68 1.79733 -1.42227 0
M  V30 10772 C 1033.68 1.57708 -0.313831 0
M  V30 10773 O 1034.87 1.64492 -0.573423 0
M  V30 10774 C 1032 3.18024 -1.22775 0
M  V30 10775 H 1033.19 1.80148 -2.39764 0
M  V30 10776 H 1030.74 0.908624 -1.27176 0
M  V30 10777 H 1031.48 3.23252 -0.260552 0
M  V30 10778 H 1031.26 3.35411 -2.0308 0
M  V30 10779 H 1032.75 3.98021 -1.2637 0
M  V30 10780 N 1033.19 1.2685 0.935242 0
M  V30 10781 C 1034.14 1.08746 2.05614 0
M  V30 10782 C 1035.13 0.012681 1.69395 0
M  V30 10783 O 1036.34 0.169822 1.79197 0
M  V30 10784 H 1032.71 0.33485 0.673335 0
M  V30 10785 H 1034.69 2.03725 2.18033 0
M  V30 10786 C 1033.43 0.74346 3.39659 0
M  V30 10787 H 1032.76 1.56236 3.68008 0
M  V30 10788 H 1034.2 0.656607 4.18885 0
M  V30 10789 C 1032.66 -0.551751 3.32351 0
M  V30 10790 O 1033.19 -1.58836 3.68963 0
M  V30 10791 N 1031.39 -0.544583 2.85452 0
M  V30 10792 H 1030.94 0.29939 2.55854 0
M  V30 10793 H 1030.9 -1.41129 2.80945 0
M  V30 10794 N 1034.67 -1.14067 1.0875 0
M  V30 10795 C 1035.9 -1.89582 0.841038 0
M  V30 10796 C 1036.32 -1.78226 -0.601436 0
M  V30 10797 O 1035.68 -1.12491 -1.42181 0
M  V30 10798 C 1035.73 -3.37415 1.27213 0
M  V30 10799 O 1034.83 -4.10191 0.426246 0
M  V30 10800 H 1034.17 -0.589716 0.305173 0
M  V30 10801 H 1036.7 -1.44364 1.44984 0
M  V30 10802 H 1036.71 -3.88234 1.25451 0
M  V30 10803 H 1035.39 -3.44999 2.32268 0
M  V30 10804 H 1033.96 -3.69429 0.507585 0
M  V30 10805 N 1036.15 -0.873678 -1.31166 0
M  V30 10806 C 1037.37 -0.500242 -2.01277 0
M  V30 10807 C 1037.8 0.900811 -1.65127 0
M  V30 10808 O 1037.16 1.59504 -0.861862 0
M  V30 10809 C 1037.2 -0.668976 -3.5434 0
M  V30 10810 O 1036.31 0.290096 -4.11378 0
M  V30 10811 H 1035.65 -0.198507 -0.633633 0
M  V30 10812 H 1038.18 -1.17811 -1.67277 0
M  V30 10813 H 1038.19 -0.563673 -4.04088 0
M  V30 10814 H 1036.86 -1.69055 -3.79991 0
M  V30 10815 H 1035.44 0.139437 -3.72639 0
M  V30 10816 N 1037.63 1.44308 -0.633487 0
M  V30 10817 C 1038.87 2.01624 -0.138643 0
M  V30 10818 C 1039.2 1.50101 1.24477 0
M  V30 10819 O 1038.47 0.705575 1.82752 0
M  V30 10820 H 1037.05 0.745439 -0.0482636 0
M  V30 10821 H 1039.71 1.76777 -0.820719 0
M  V30 10822 H 1038.8 3.11913 -0.108136 0
M  V30 10823 N 1039.1 0.374177 1.53094 0
M  V30 10824 C 1040.33 -0.213325 2.05797 0
M  V30 10825 C 1040.75 -1.41753 1.24706 0
M  V30 10826 O 1040.1 -1.80183 0.289868 0
M  V30 10827 C 1040.16 -0.598367 3.56513 0
M  V30 10828 O 1039.88 0.557983 4.34532 0
M  V30 10829 C 1041.38 -1.24334 4.25507 0
M  V30 10830 H 1038.6 -0.0357398 0.670048 0
M  V30 10831 H 1041.14 0.535035 1.97377 0
M  V30 10832 H 1039.3 -1.29663 3.65056 0
M  V30 10833 H 1039.71 0.244911 5.23928 0
M  V30 10834 H 1041.18 -1.46325 5.32253 0
M  V30 10835 H 1041.66 -2.20622 3.79766 0
M  V30 10836 H 1042.27 -0.586269 4.2124 0
M  V30 10837 N 1040.58 -1.57259 0.103575 0
M  V30 10838 C 1041.55 -2.13337 -0.837859 0
M  V30 10839 C 1042.55 -1.06459 -1.20512 0
M  V30 10840 O 1043.74 -1.32307 -1.13316 0
M  V30 10841 C 1040.87 -2.66093 -2.13089 0
M  V30 10842 H 1042.06 -2.97842 -0.350775 0
M  V30 10843 H 1039.61 -1.55621 -0.145511 0
M  V30 10844 H 1040.35 -1.85133 -2.66264 0
M  V30 10845 H 1040.13 -3.44244 -1.87719 0
M  V30 10846 H 1041.62 -3.09443 -2.80419 0
M  V30 10847 N 1042.06 0.170153 -1.56679 0
M  V30 10848 C 1042.99 1.23525 -1.93066 0
M  V30 10849 C 1044.01 1.40414 -0.823879 0
M  V30 10850 O 1045.19 1.40396 -1.10232 0
M  V30 10851 C 1042.29 2.60376 -2.16928 0
M  V30 10852 C 1041.47 2.6477 -3.4816 0
M  V30 10853 C 1040.53 3.82993 -3.60837 0
M  V30 10854 O 1039.55 3.68937 -4.33444 0
M  V30 10855 N 1040.75 4.99498 -2.95773 0
M  V30 10856 H 1043.52 0.926172 -2.8503 0
M  V30 10857 H 1041.08 0.359909 -1.57849 0
M  V30 10858 H 1043.07 3.37934 -2.22672 0
M  V30 10859 H 1041.64 2.83669 -1.31342 0
M  V30 10860 H 1040.86 1.73298 -3.54064 0
M  V30 10861 H 1042.15 2.64717 -4.34514 0
M  V30 10862 H 1041.55 5.13819 -2.36657 0
M  V30 10863 H 1040.11 5.74914 -3.07111 0
M  V30 10864 N 1043.54 1.5137 0.438746 0
M  V30 10865 C 1044.76 1.68058 1.21537 0
M  V30 10866 C 1045.19 0.376787 1.84288 0
M  V30 10867 O 1044.55 -0.662911 1.68746 0
M  V30 10868 C 1044.59 2.79684 2.27616 0
M  V30 10869 O 1043.7 2.43189 3.33066 0
M  V30 10870 H 1043.04 0.560408 0.356144 0
M  V30 10871 H 1045.57 1.97926 0.518311 0
M  V30 10872 H 1045.58 3.03726 2.72423 0
M  V30 10873 H 1044.25 3.74293 1.81321 0
M  V30 10874 H 1042.83 2.29713 2.93746 0
M  V30 10875 N 1045.02 -0.694098 1.41492 0
M  V30 10876 C 1045.96 -1.82932 1.43662 0
M  V30 10877 C 1046.96 -1.66455 0.31449 0
M  V30 10878 O 1048.16 -1.73298 0.486589 0
M  V30 10879 H 1044.54 -0.602847 0.449533 0
M  V30 10880 H 1046.51 -1.78218 2.39334 0
M  V30 10881 C 1045.26 -3.20962 1.33712 0
M  V30 10882 H 1044.58 -3.34257 2.19345 0
M  V30 10883 H 1046.02 -4.00467 1.39291 0
M  V30 10884 C 1044.48 -3.36863 0.0496332 0
M  V30 10885 O 1045.01 -3.91371 -0.905093 0
M  V30 10886 N 1043.22 -2.90588 -0.0269299 0
M  V30 10887 H 1042.76 -2.46417 0.750752 0
M  V30 10888 H 1042.72 -3.01605 -0.887781 0
M  V30 10889 N 1046.49 -1.27344 -0.928501 0
M  V30 10890 C 1047.44 -1.09835 -2.05034 0
M  V30 10891 C 1048.44 -0.0216643 -1.69386 0
M  V30 10892 O 1049.64 -0.179323 -1.79105 0
M  V30 10893 H 1046.02 -0.338416 -0.671549 0
M  V30 10894 H 1047.99 -2.04879 -2.1695 0
M  V30 10895 C 1046.74 -0.761462 -3.3926 0
M  V30 10896 H 1046.06 -1.58186 -3.67175 0
M  V30 10897 H 1047.5 -0.678812 -4.18531 0
M  V30 10898 C 1045.96 0.534118 -3.32639 0
M  V30 10899 O 1046.49 1.56877 -3.69801 0
M  V30 10900 N 1044.7 0.529437 -2.85736 0
M  V30 10901 H 1044.24 -0.312954 -2.55692 0
M  V30 10902 H 1044.2 1.39637 -2.81689 0
M  V30 10903 N 1047.97 1.13488 -1.09353 0
M  V30 10904 C 1048.92 2.20949 -0.726923 0
M  V30 10905 C 1049.91 1.67205 0.271816 0
M  V30 10906 O 1051.12 1.79505 0.133356 0
M  V30 10907 H 1047.5 0.719985 -0.217086 0
M  V30 10908 H 1049.47 2.49134 -1.6424 0
M  V30 10909 C 1048.22 3.47319 -0.162822 0
M  V30 10910 H 1047.54 3.89011 -0.922527 0
M  V30 10911 H 1048.98 4.23963 0.0557734 0
M  V30 10912 C 1047.44 3.18376 1.10175 0
M  V30 10913 O 1047.97 3.3707 2.18511 0
M  V30 10914 N 1046.17 2.72262 1.01597 0
M  V30 10915 H 1045.72 2.5725 0.134289 0
M  V30 10916 H 1045.68 2.53272 1.86281 0
M  V30 10917 N 1049.45 0.880621 1.30701 0
M  V30 10918 C 1050.68 0.511682 2.00473 0
M  V30 10919 C 1051.09 -0.898684 1.6604 0
M  V30 10920 O 1050.45 -1.59035 0.895218 0
M  V30 10921 C 1050.5 0.671723 3.55204 0
M  V30 10922 O 1050.22 2.02656 3.8841 0
M  V30 10923 C 1051.72 0.3052 4.42248 0
M  V30 10924 H 1048.94 0.198231 0.64105 0
M  V30 10925 H 1051.49 1.18472 1.66687 0
M  V30 10926 H 1049.64 0.0461066 3.87373 0
M  V30 10927 H 1050.06 2.04202 4.83117 0
M  V30 10928 H 1051.53 0.468095 5.50012 0
M  V30 10929 H 1052.01 -0.756456 4.32637 0
M  V30 10930 H 1052.61 0.906959 4.15517 0
M  V30 10931 N 1050.93 -1.4397 0.641131 0
M  V30 10932 C 1052.35 -1.56607 0.30762 0
M  V30 10933 C 1052.55 -1.62694 -1.18882 0
M  V30 10934 O 1051.6 -1.57541 -1.97325 0
M  V30 10935 C 1052.91 -2.83289 1.00834 0
M  V30 10936 C 1054.46 -2.97016 0.98744 0
M  V30 10937 C 1054.94 -4.26514 1.66882 0
M  V30 10938 N 1056.43 -4.33351 1.63589 0
M  V30 10939 C 1057.16 -5.32292 2.13196 0
M  V30 10940 N 1056.66 -6.37582 2.71038 0
M  V30 10941 N 1058.45 -5.23866 2.03766 0
M  V30 10942 H 1050.6 -1.38262 1.61237 0
M  V30 10943 H 1052.87 -0.663221 0.677378 0
M  V30 10944 H 1052.57 -2.84812 2.06337 0
M  V30 10945 H 1052.45 -3.73134 0.552333 0
M  V30 10946 H 1054.83 -2.95041 -0.0591395 0
M  V30 10947 H 1054.91 -2.08493 1.48203 0
M  V30 10948 H 1054.56 -4.2925 2.71491 0
M  V30 10949 H 1054.49 -5.13912 1.14898 0
M  V30 10950 H 1056.98 -3.5788 1.21368 0
M  V30 10951 H 1057.29 -7.09378 3.06597 0
M  V30 10952 H 1055.64 -6.38239 2.75093 0
M  V30 10953 H 1058.83 -4.40524 1.58291 0
M  V30 10954 H 1059 -6.00819 2.42737 0
M  V30 10955 N 1052.41 -0.382291 -1.52893 0
M  V30 10956 C 1053.63 0.204961 -2.06385 0
M  V30 10957 C 1054.06 1.40316 -1.25271 0
M  V30 10958 O 1053.42 1.79187 -0.275969 0
M  V30 10959 C 1053.46 0.560205 -3.56222 0
M  V30 10960 O 1052.57 1.65515 -3.77728 0
M  V30 10961 H 1051.91 0.0258798 -0.663495 0
M  V30 10962 H 1054.44 -0.547733 -1.97132 0
M  V30 10963 H 1054.45 0.826501 -3.99541 0
M  V30 10964 H 1053.12 -0.31584 -4.14699 0
M  V30 10965 H 1051.7 1.38311 -3.46301 0
M  V30 10966 N 1053.89 1.57202 -0.111913 0
M  V30 10967 C 1054.82 2.11995 0.871242 0
M  V30 10968 C 1055.83 1.06102 1.23475 0
M  V30 10969 O 1057.02 1.33497 1.18494 0
M  V30 10970 C 1054.12 2.59874 2.17528 0
M  V30 10971 C 1053.29 3.89788 1.98455 0
M  V30 10972 C 1052.35 4.23339 3.12523 0
M  V30 10973 O 1051.38 4.92277 2.85748 0
M  V30 10974 N 1052.58 3.80089 4.38762 0
M  V30 10975 H 1055.34 2.96976 0.403157 0
M  V30 10976 H 1052.91 1.61737 0.0727159 0
M  V30 10977 H 1054.9 2.79354 2.9282 0
M  V30 10978 H 1053.47 1.79812 2.55707 0
M  V30 10979 H 1052.69 3.79288 1.07396 0
M  V30 10980 H 1053.98 4.74748 1.83007 0
M  V30 10981 H 1053.37 3.24473 4.63394 0
M  V30 10982 H 1051.93 4.04691 5.10949 0
M  V30 10983 N 1055.36 -0.161842 1.56767 0
M  V30 10984 C 1056.3 -1.22499 1.93718 0
M  V30 10985 C 1057.31 -1.39975 0.831314 0
M  V30 10986 O 1058.5 -1.3981 1.10975 0
M  V30 10987 C 1055.6 -2.59222 2.18306 0
M  V30 10988 C 1054.77 -2.6292 3.4956 0
M  V30 10989 C 1053.83 -3.81074 3.62863 0
M  V30 10990 O 1052.86 -3.66633 4.35395 0
M  V30 10991 N 1054.06 -4.97923 2.98418 0
M  V30 10992 H 1056.82 -0.911043 2.85517 0
M  V30 10993 H 1054.38 -0.351533 1.58038 0
M  V30 10994 H 1056.38 -3.36749 2.24461 0
M  V30 10995 H 1054.95 -2.82969 1.32844 0
M  V30 10996 H 1054.17 -1.71418 3.54978 0
M  V30 10997 H 1055.45 -2.62409 4.35911 0
M  V30 10998 H 1054.85 -5.12557 2.39378 0
M  V30 10999 H 1053.41 -5.73277 3.10155 0
M  V30 11000 N 1056.84 -1.516 -0.430713 0
M  V30 11001 C 1058.07 -1.687 -1.20644 0
M  V30 11002 C 1058.49 -0.386555 -1.84085 0
M  V30 11003 O 1057.85 0.653952 -1.69095 0
M  V30 11004 C 1057.9 -2.80887 -2.2613 0
M  V30 11005 O 1057 -2.44952 -3.31772 0
M  V30 11006 H 1056.34 -0.562289 -0.353167 0
M  V30 11007 H 1058.87 -1.98198 -0.507807 0
M  V30 11008 H 1058.88 -3.05167 -2.70809 0
M  V30 11009 H 1057.56 -3.75249 -1.79334 0
M  V30 11010 H 1056.13 -2.31267 -2.92523 0
M  V30 11011 N 1058.32 0.686584 -1.41858 0
M  V30 11012 C 1059.74 0.998283 -1.24525 0
M  V30 11013 C 1059.94 2.01006 -0.141007 0
M  V30 11014 O 1058.99 2.47667 0.491648 0
M  V30 11015 C 1060.3 1.51432 -2.59786 0
M  V30 11016 C 1061.85 1.6327 -2.67043 0
M  V30 11017 C 1062.33 2.18274 -4.02642 0
M  V30 11018 N 1063.82 2.25622 -4.04535 0
M  V30 11019 C 1064.55 2.69229 -5.06264 0
M  V30 11020 N 1064.05 3.12375 -6.1838 0
M  V30 11021 N 1065.84 2.68873 -4.93623 0
M  V30 11022 H 1057.99 0.0164825 -2.12394 0
M  V30 11023 H 1060.26 0.0698613 -0.945422 0
M  V30 11024 H 1059.96 0.845426 -3.41388 0
M  V30 11025 H 1059.84 2.49502 -2.82894 0
M  V30 11026 H 1062.22 2.29269 -1.85794 0
M  V30 11027 H 1062.3 0.637221 -2.47736 0
M  V30 11028 H 1061.95 1.52887 -4.84343 0
M  V30 11029 H 1061.88 3.18591 -4.19294 0
M  V30 11030 H 1064.37 1.95186 -3.23591 0
M  V30 11031 H 1064.68 3.44301 -6.91864 0
M  V30 11032 H 1063.03 3.10262 -6.21902 0
M  V30 11033 H 1066.22 2.34521 -4.05114 0
M  V30 11034 H 1066.39 3.02539 -5.7304 0
M  V30 11035 N 1059.8 1.27835 0.921735 0
M  V30 11036 C 1060.75 1.1092 2.04449 0
M  V30 11037 C 1061.74 0.0306469 1.69372 0
M  V30 11038 O 1062.95 0.188818 1.79007 0
M  V30 11039 H 1059.32 0.341973 0.669745 0
M  V30 11040 H 1061.29 2.06026 2.1586 0
M  V30 11041 C 1060.04 0.779443 3.38851 0
M  V30 11042 H 1059.36 1.60131 3.66331 0
M  V30 11043 H 1060.8 0.700999 4.18165 0
M  V30 11044 C 1059.26 -0.51647 3.32918 0
M  V30 11045 O 1059.79 -1.54914 3.70627 0
M  V30 11046 N 1058 -0.514276 2.86013 0
M  V30 11047 H 1057.55 0.32651 2.55522 0
M  V30 11048 H 1057.5 -1.38141 2.82426 0
M  V30 11049 N 1061.28 -1.12907 1.09954 0
M  V30 11050 C 1062.5 -1.88679 0.861099 0
M  V30 11051 C 1062.93 -1.78853 -0.582499 0
M  V30 11052 O 1062.28 -1.13992 -1.4098 0
M  V30 11053 C 1062.33 -3.36047 1.30785 0
M  V30 11054 O 1061.44 -4.09716 0.469728 0
M  V30 11055 H 1060.78 -0.586447 0.31141 0
M  V30 11056 H 1063.31 -1.42818 1.46507 0
M  V30 11057 H 1063.32 -3.86882 1.29562 0
M  V30 11058 H 1061.99 -3.42516 2.35914 0
M  V30 11059 H 1060.57 -3.6887 0.54674 0
M  V30 11060 N 1062.75 -0.88754 -1.30232 0
M  V30 11061 C 1064 -0.506277 -1.95656 0
M  V30 11062 C 1064.32 0.948191 -1.70395 0
M  V30 11063 O 1063.59 1.66701 -1.02895 0
M  V30 11064 H 1062.17 -0.184235 -0.723924 0
M  V30 11065 H 1064.83 -1.13118 -1.58715 0
M  V30 11066 H 1063.93 -0.678673 -3.04632 0
M  V30 11067 N 1064.23 1.43628 -0.648757 0
M  V30 11068 C 1065.48 2.01465 -0.16002 0
M  V30 11069 C 1065.8 1.51413 1.22878 0
M  V30 11070 O 1065.07 0.724919 1.81994 0
M  V30 11071 H 1063.65 0.744885 -0.0561672 0
M  V30 11072 H 1066.31 1.75897 -0.839422 0
M  V30 11073 H 1065.41 3.1178 -0.141213 0
M  V30 11074 N 1065.71 0.390394 1.52688 0
M  V30 11075 C 1066.64 -0.43567 2.294 0
M  V30 11076 C 1067.62 -1.06253 1.32832 0
M  V30 11077 O 1068.81 -1.07509 1.61726 0
M  V30 11078 C 1065.94 -1.56259 3.10162 0
M  V30 11079 C 1064.89 -1.06172 4.14622 0
M  V30 11080 C 1064.22 -2.2808 4.83615 0
M  V30 11081 C 1065.52 -0.128902 5.22141 0
M  V30 11082 H 1067.21 0.204384 2.98702 0
M  V30 11083 H 1064.76 0.0997377 1.43654 0
M  V30 11084 H 1066.71 -2.14732 3.62585 0
M  V30 11085 H 1065.43 -2.23025 2.38595 0
M  V30 11086 H 1064.09 -0.499518 3.63181 0
M  V30 11087 H 1063.74 -2.93358 4.08595 0
M  V30 11088 H 1063.44 -1.95227 5.5422 0
M  V30 11089 H 1064.96 -2.87193 5.38844 0
M  V30 11090 H 1066.38 -0.621849 5.69917 0
M  V30 11091 H 1064.78 0.109919 5.99999 0
M  V30 11092 H 1065.85 0.821884 4.77884 0
M  V30 11093 N 1067.19 -1.57141 0.120249 0
M  V30 11094 C 1068.42 -1.99589 -0.545136 0
M  V30 11095 C 1068.83 -0.999951 -1.60145 0
M  V30 11096 O 1068.19 0.00698897 -1.82499 0
M  V30 11097 C 1068.24 -3.42038 -1.17014 0
M  V30 11098 O 1067.96 -4.37822 -0.156044 0
M  V30 11099 C 1069.46 -3.99625 -1.91872 0
M  V30 11100 H 1066.68 -0.655318 -0.144222 0
M  V30 11101 H 1069.23 -2.0345 0.206955 0
M  V30 11102 H 1067.38 -3.39113 -1.873 0
M  V30 11103 H 1067.79 -5.20937 -0.610317 0
M  V30 11104 H 1069.27 -5.01374 -2.30928 0
M  V30 11105 H 1069.75 -3.38836 -2.7944 0
M  V30 11106 H 1070.35 -4.061 -1.26345 0
M  V30 11107 N 1068.67 0.153526 -1.5685 0
M  V30 11108 C 1069.91 0.865519 -1.82629 0
M  V30 11109 C 1070.24 1.81999 -0.700105 0
M  V30 11110 O 1069.51 1.93907 0.278744 0
M  V30 11111 H 1068.09 0.32261 -0.673745 0
M  V30 11112 H 1070.75 0.149088 -1.94329 0
M  V30 11113 H 1069.84 1.43171 -2.77324 0
M  V30 11114 N 1070.14 1.51827 0.422667 0
M  V30 11115 C 1071.39 1.6445 1.16786 0
M  V30 11116 C 1071.71 0.373792 1.91995 0
M  V30 11117 O 1072.91 0.379621 2.68833 0
M  V30 11118 C 1071.37 2.90488 2.12473 0
M  V30 11119 C 1070.98 4.24617 1.42844 0
M  V30 11120 C 1072.72 3.12472 2.87335 0
M  V30 11121 C 1070.63 5.41791 2.371 0
M  V30 11122 H 1069.56 0.612561 0.439641 0
M  V30 11123 H 1072.21 1.78305 0.433534 0
M  V30 11124 H 1070.59 2.703 2.89402 0
M  V30 11125 H 1071.76 4.55239 0.71372 0
M  V30 11126 H 1070.08 4.08628 0.800769 0
M  V30 11127 H 1072.68 3.9719 3.57973 0
M  V30 11128 H 1073.02 2.26148 3.49518 0
M  V30 11129 H 1073.55 3.33069 2.17509 0
M  V30 11130 H 1070.29 6.3042 1.79584 0
M  V30 11131 H 1069.81 5.15526 3.06583 0
M  V30 11132 H 1071.49 5.74329 2.97918 0
M  V30 11133 N 1071.62 -0.679052 1.4222 0
M  V30 11134 C 1072.87 -1.43912 1.42463 0
M  V30 11135 C 1073.2 -1.9446 0.0395574 0
M  V30 11136 O 1072.45 -1.71019 -0.951365 0
M  V30 11137 C 1072.75 -2.65528 2.39227 0
M  V30 11138 C 1072.42 -2.33545 3.85704 0
M  V30 11139 C 1071.08 -2.24534 4.25603 0
M  V30 11140 C 1073.43 -2.07496 4.78116 0
M  V30 11141 C 1070.76 -1.87592 5.55901 0
M  V30 11142 C 1073.11 -1.72059 6.08752 0
M  V30 11143 C 1071.78 -1.61555 6.47654 0
M  V30 11144 H 1071.05 -0.52661 0.521309 0
M  V30 11145 H 1073.69 -0.774661 1.75132 0
M  V30 11146 H 1072 -3.36985 1.9987 0
M  V30 11147 H 1073.69 -3.23702 2.36681 0
M  V30 11148 H 1070.28 -2.4146 3.54112 0
M  V30 11149 H 1074.47 -2.13393 4.48082 0
M  V30 11150 H 1069.72 -1.78026 5.84908 0
M  V30 11151 H 1073.9 -1.50926 6.79849 0
M  V30 11152 H 1071.53 -1.32699 7.48529 0
M  V30 11153 N 1073.1 -1.28322 -0.914942 0
M  V30 11154 C 1074.05 -1.12003 -2.03858 0
M  V30 11155 C 1075.04 -0.0396287 -1.69354 0
M  V30 11156 O 1076.25 -0.198309 -1.78904 0
M  V30 11157 H 1072.62 -0.34552 -0.667922 0
M  V30 11158 H 1074.59 -2.07168 -2.14765 0
M  V30 11159 C 1073.34 -0.797402 -3.38433 0
M  V30 11160 H 1072.67 -1.62071 -3.65476 0
M  V30 11161 H 1074.11 -0.723165 -4.17787 0
M  V30 11162 C 1072.57 0.498807 -3.33187 0
M  V30 11163 O 1073.1 1.52946 -3.71444 0
M  V30 11164 N 1071.3 0.499101 -2.86282 0
M  V30 11165 H 1070.85 -0.340056 -2.55346 0
M  V30 11166 H 1070.81 1.36641 -2.83155 0
M  V30 11167 O 1074.62 1.04977 -1.22727 0
M  V30 11168 H 1075.31 1.66219 -0.994539 0
M  V30 END ATOM
M  V30 BEGIN BOND
M  V30 END BOND
M  V30 END CTAB
M  END
$$$$
