drugbank_drug|DB06081 >Caplacizumab<<<
 OpenBabel12092119123D

  0  0  0     0  0            999 V3000
M  V30 BEGIN CTAB
M  V30 COUNTS 3861 3900 0 0 0
M  V30 BEGIN ATOM
M  V30 1 H -0.908 1.98254 -0.117106 0
M  V30 2 N 0 1.576 0 0
M  V30 3 C 0.91 2.11853 1.00774 0
M  V30 4 C 1.926 1.06379 1.37693 0
M  V30 5 O 3.102 1.3828 1.46426 0
M  V30 6 C 0.167 2.61108 2.28087 0
M  V30 7 C -0.772 3.81183 1.9748 0
M  V30 8 C -1.539 4.28079 3.18723 0
M  V30 9 O -1.316 3.74307 4.30407 0
M  V30 10 O -2.382 5.20234 3.02721 0
M  V30 11 H 1.444 2.98177 0.576547 0
M  V30 12 H -0.971 1.47789 0.218828 0
M  V30 13 H 0.911 2.92987 3.0288 0
M  V30 14 H -0.414 1.77881 2.70444 0
M  V30 15 H -1.507 3.54277 1.20162 0
M  V30 16 H -0.174 4.65482 1.5996 0
M  V30 17 N 1.4781 -0.272755 1.55222 0
M  V30 18 C 2.7241 -1.00581 1.761 0
M  V30 19 C 3.0571 -1.85932 0.560625 0
M  V30 20 O 2.3321 -1.89416 -0.441801 0
M  V30 21 C 2.6151 -1.88816 3.06628 0
M  V30 22 C 2.4681 -1.06457 4.37021 0
M  V30 23 C 3.7871 -2.8752 3.33197 0
M  V30 24 H 0.9061 -0.364244 0.640699 0
M  V30 25 H 3.5481 -0.278189 1.87952 0
M  V30 26 H 1.6981 -2.50856 2.96654 0
M  V30 27 H 3.3701 -0.464863 4.58952 0
M  V30 28 H 1.6131 -0.368043 4.32236 0
M  V30 29 H 2.2841 -1.71514 5.24678 0
M  V30 30 H 4.7601 -2.35615 3.42965 0
M  V30 31 H 3.6361 -3.46399 4.25792 0
M  V30 32 H 3.8971 -3.62657 2.52849 0
M  V30 33 N 2.9562 -1.48159 -0.537278 0
M  V30 34 C 3.8882 -1.58218 -1.65831 0
M  V30 35 C 4.9012 -0.466948 -1.5596 0
M  V30 36 O 6.0902 -0.73747 -1.62553 0
M  V30 37 C 3.1902 -1.48906 -3.04434 0
M  V30 38 C 2.3632 -2.75343 -3.3986 0
M  V30 39 C 1.4222 -2.59588 -4.57712 0
M  V30 40 O 0.4482 -3.33457 -4.61297 0
M  V30 41 N 1.6502 -1.68724 -5.55439 0
M  V30 42 H 4.4152 -2.54891 -1.57641 0
M  V30 43 H 1.9762 -1.4479 -0.724386 0
M  V30 44 H 3.9682 -1.36072 -3.81139 0
M  V30 45 H 2.5382 -0.602368 -3.06741 0
M  V30 46 H 1.7582 -3.02795 -2.52406 0
M  V30 47 H 3.0462 -3.5924 -3.60311 0
M  V30 48 H 2.4442 -1.07898 -5.55315 0
M  V30 49 H 1.0012 -1.61832 -6.3139 0
M  V30 50 N 4.4343 0.785586 -1.36625 0
M  V30 51 C 5.3643 1.91259 -1.33949 0
M  V30 52 C 6.3453 1.68795 -0.210325 0
M  V30 53 O 7.5303 1.89854 -0.408561 0
M  V30 54 C 4.6603 3.28339 -1.13186 0
M  V30 55 C 3.6143 3.65335 -2.22967 0
M  V30 56 C 2.9403 5.00806 -1.87342 0
M  V30 57 C 4.2403 3.7352 -3.65075 0
M  V30 58 H 5.9343 1.93755 -2.28253 0
M  V30 59 H 3.4803 0.930788 -1.09874 0
M  V30 60 H 5.4333 4.06804 -1.09948 0
M  V30 61 H 4.1573 3.2624 -0.153332 0
M  V30 62 H 2.8163 2.89169 -2.25337 0
M  V30 63 H 2.4643 4.95233 -0.880545 0
M  V30 64 H 2.1643 5.26529 -2.60846 0
M  V30 65 H 3.6883 5.81687 -1.85667 0
M  V30 66 H 5.1023 4.42168 -3.64911 0
M  V30 67 H 3.4993 4.10731 -4.37516 0
M  V30 68 H 4.5693 2.74527 -3.99703 0
M  V30 69 N 5.9124 1.20967 1.01018 0
M  V30 70 C 7.1584 1.02526 1.74975 0
M  V30 71 C 7.4914 -0.4408 1.89131 0
M  V30 72 O 6.7664 -1.32718 1.42184 0
M  V30 73 C 7.0494 1.71699 3.1653 0
M  V30 74 C 6.9024 3.25791 3.10129 0
M  V30 75 C 8.2214 1.45531 4.15342 0
M  V30 76 H 5.3404 0.373863 0.635134 0
M  V30 77 H 7.9824 1.49071 1.17805 0
M  V30 78 H 6.1324 1.32128 3.65341 0
M  V30 79 H 7.8044 3.74697 2.69072 0
M  V30 80 H 6.0474 3.56363 2.47362 0
M  V30 81 H 6.7184 3.69353 4.10222 0
M  V30 82 H 9.1944 1.79872 3.75213 0
M  V30 83 H 8.0704 1.96453 5.1254 0
M  V30 84 H 8.3314 0.384237 4.40427 0
M  V30 85 N 7.3905 -1.2043 1.01659 0
M  V30 86 C 8.3005 -2.2689 0.596484 0
M  V30 87 C 9.3165 -1.70107 -0.36599 0
M  V30 88 O 10.4925 -2.00117 -0.226942 0
M  V30 89 C 7.5575 -3.4665 -0.0586659 0
M  V30 90 C 6.6185 -4.18662 0.949751 0
M  V30 91 C 5.8515 -5.32705 0.32577 0
M  V30 92 O 6.0745 -5.63656 -0.874509 0
M  V30 93 O 5.0085 -5.92803 1.04249 0
M  V30 94 H 8.8345 -2.65041 1.4828 0
M  V30 95 H 6.4195 -1.27048 0.786082 0
M  V30 96 H 8.3015 -4.19256 -0.424564 0
M  V30 97 H 6.9765 -3.10375 -0.91918 0
M  V30 98 H 5.8835 -3.48229 1.36702 0
M  V30 99 H 7.2165 -4.58878 1.78023 0
M  V30 100 N 8.8686 -0.792821 -1.36206 0
M  V30 101 C 10.0936 -0.377701 -2.03932 0
M  V30 102 C 10.5186 0.998947 -1.59382 0
M  V30 103 O 9.8766 1.64421 -0.763903 0
M  V30 104 C 9.9246 -0.453635 -3.57735 0
M  V30 105 O 9.0286 0.538151 -4.08874 0
M  V30 106 H 8.3696 -0.159855 -0.644471 0
M  V30 107 H 10.8996 -1.07488 -1.7409 0
M  V30 108 H 10.9096 -0.318464 -4.06755 0
M  V30 109 H 9.5846 -1.45784 -3.89512 0
M  V30 110 H 8.1616 0.364359 -3.71116 0
M  V30 111 N 10.3467 1.47872 -0.545128 0
M  V30 112 C 11.5947 2.02093 -0.016553 0
M  V30 113 C 11.9157 1.42305 1.3332 0
M  V30 114 O 11.1857 0.593853 1.86682 0
M  V30 115 H 9.7657 0.746993 -0.00313038 0
M  V30 116 H 12.4277 1.81414 -0.712397 0
M  V30 117 H 11.5237 3.11996 0.0805422 0
M  V30 118 N 11.8248 0.280983 1.55075 0
M  V30 119 C 13.0728 -0.333455 1.9933 0
M  V30 120 C 13.3938 -1.55937 1.17085 0
M  V30 121 O 12.6638 -1.94143 0.261805 0
M  V30 122 H 11.2438 -0.126197 0.736263 0
M  V30 123 H 13.9058 0.387678 1.91005 0
M  V30 124 H 13.0018 -0.619292 3.05894 0
M  V30 125 N 13.3029 -1.57598 0.00835791 0
M  V30 126 C 14.5509 -1.90551 -0.6734 0
M  V30 127 C 14.8719 -0.883301 -1.73847 0
M  V30 128 O 14.1419 0.0781442 -1.95744 0
M  V30 129 H 12.7219 -0.703312 -0.251717 0
M  V30 130 H 15.3839 -1.94833 0.0512592 0
M  V30 131 H 14.4799 -2.9056 -1.13935 0
M  V30 132 N 14.781 0.264519 -1.55364 0
M  V30 133 C 15.711 1.33121 -1.91836 0
M  V30 134 C 16.692 1.51101 -0.781192 0
M  V30 135 O 17.877 1.64003 -1.04003 0
M  V30 136 C 15.007 2.68921 -2.19769 0
M  V30 137 C 13.961 2.65661 -3.35571 0
M  V30 138 C 13.287 4.05093 -3.49004 0
M  V30 139 C 14.587 2.24187 -4.71739 0
M  V30 140 H 16.281 1.02844 -2.81182 0
M  V30 141 H 13.827 0.493286 -1.35287 0
M  V30 142 H 15.78 3.43663 -2.43872 0
M  V30 143 H 14.504 3.00799 -1.27231 0
M  V30 144 H 13.163 1.93377 -3.1145 0
M  V30 145 H 12.811 4.34206 -2.53917 0
M  V30 146 H 12.511 4.03804 -4.26868 0
M  V30 147 H 14.035 4.81561 -3.75408 0
M  V30 148 H 15.449 2.88654 -4.9533 0
M  V30 149 H 13.846 2.34044 -5.52579 0
M  V30 150 H 14.916 1.19327 -4.69988 0
M  V30 151 N 16.2591 1.48442 0.529413 0
M  V30 152 C 17.5051 1.5672 1.28711 0
M  V30 153 C 17.8381 0.2406 1.92704 0
M  V30 154 O 17.1131 -0.753454 1.79313 0
M  V30 155 C 17.3961 2.70587 2.37603 0
M  V30 156 C 17.2491 4.12953 1.78297 0
M  V30 157 C 18.5681 2.80212 3.39366 0
M  V30 158 H 15.6871 0.570474 0.466613 0
M  V30 159 H 18.3291 1.80617 0.589706 0
M  V30 160 H 16.4791 2.50342 2.97088 0
M  V30 161 H 18.1511 4.44639 1.22858 0
M  V30 162 H 16.3941 4.19927 1.0883 0
M  V30 163 H 17.0651 4.88448 2.57144 0
M  V30 164 H 19.5411 2.98553 2.89836 0
M  V30 165 H 18.4171 3.61611 4.12951 0
M  V30 166 H 18.6781 1.88393 3.99951 0
M  V30 167 N 17.7372 -0.778329 1.37039 0
M  V30 168 C 18.6692 -1.90034 1.2814 0
M  V30 169 C 19.6822 -1.61585 0.198558 0
M  V30 170 O 20.8712 -1.72625 0.454175 0
M  V30 171 C 17.9712 -3.25108 0.956968 0
M  V30 172 C 17.1442 -3.81253 2.14394 0
M  V30 173 C 16.2032 -4.94789 1.79082 0
M  V30 174 O 15.2292 -5.10721 2.51301 0
M  V30 175 N 16.4312 -5.75878 0.731043 0
M  V30 176 H 19.1962 -1.98186 2.24816 0
M  V30 177 H 16.7572 -0.957129 1.30578 0
M  V30 178 H 18.7492 -3.9857 0.701701 0
M  V30 179 H 17.3192 -3.125 0.0789812 0
M  V30 180 H 16.5392 -2.99647 2.56135 0
M  V30 181 H 17.8272 -4.15495 2.93668 0
M  V30 182 H 17.2252 -5.65547 0.131618 0
M  V30 183 H 15.7822 -6.49596 0.535622 0
M  V30 184 N 19.2153 -1.21501 -1.00376 0
M  V30 185 C 20.6263 -1.03146 -1.55621 0
M  V30 186 C 20.9773 0.408375 -1.91903 0
M  V30 187 O 20.1023 1.29177 -1.73616 0
M  V30 188 C 20.6973 -1.86612 -2.82775 0
M  V30 189 C 19.2563 -1.72586 -3.34501 0
M  V30 190 C 18.4033 -1.83747 -2.07683 0
M  V30 191 H 21.3543 -1.35505 -0.826081 0
M  V30 192 H 21.3753 -1.3771 -3.54706 0
M  V30 193 H 20.8873 -2.91399 -2.56336 0
M  V30 194 H 18.9883 -0.704877 -3.65872 0
M  V30 195 H 19.1013 -2.54623 -4.05837 0
M  V30 196 H 17.4653 -1.27069 -2.20739 0
M  V30 197 H 18.2483 -2.90044 -1.83655 0
M  V30 198 N 20.6934 1.19889 -1.02296 0
M  V30 199 C 21.9414 1.89046 -0.714558 0
M  V30 200 C 22.2624 1.79636 0.758681 0
M  V30 201 O 21.5324 1.20292 1.54618 0
M  V30 202 H 20.1124 0.699802 -0.261317 0
M  V30 203 H 22.7744 1.45574 -1.29592 0
M  V30 204 H 21.8704 2.95524 -1.0036 0
M  V30 205 N 22.1715 0.800033 1.35784 0
M  V30 206 C 23.4195 0.376597 1.9856 0
M  V30 207 C 23.7405 -1.05812 1.63795 0
M  V30 208 O 23.0105 -1.73103 0.917171 0
M  V30 209 H 21.5905 0.136261 0.734467 0
M  V30 210 H 24.2525 1.02442 1.65806 0
M  V30 211 H 23.3485 0.477002 3.08433 0
M  V30 212 N 23.6496 -1.47581 0.552962 0
M  V30 213 C 24.8746 -2.07378 0.0300593 0
M  V30 214 C 25.2996 -1.40355 -1.25229 0
M  V30 215 O 24.6576 -0.477099 -1.7491 0
M  V30 216 C 24.7056 -3.60274 -0.153231 0
M  V30 217 O 23.8096 -3.94041 -1.21678 0
M  V30 218 H 23.1506 -0.662158 0.0494182 0
M  V30 219 H 25.6806 -1.89662 0.767434 0
M  V30 220 H 25.6906 -4.0633 -0.368761 0
M  V30 221 H 24.3656 -4.08455 0.783397 0
M  V30 222 H 22.9426 -3.59735 -0.982079 0
M  V30 223 N 25.1277 -0.289203 -1.54924 0
M  V30 224 C 26.0577 0.58549 -2.2604 0
M  V30 225 C 27.0387 1.14753 -1.25562 0
M  V30 226 O 28.2237 1.17906 -1.54311 0
M  V30 227 C 25.3537 1.76305 -2.99222 0
M  V30 228 C 24.3077 1.33191 -4.06748 0
M  V30 229 C 23.6337 2.5937 -4.6758 0
M  V30 230 C 24.9337 0.471775 -5.20165 0
M  V30 231 H 26.6277 -0.00763532 -2.99399 0
M  V30 232 H 24.1737 -0.00511229 -1.43999 0
M  V30 233 H 26.1267 2.38097 -3.47689 0
M  V30 234 H 24.8507 2.38223 -2.23422 0
M  V30 235 H 23.5097 0.737121 -3.59113 0
M  V30 236 H 23.1577 3.19576 -3.88433 0
M  V30 237 H 22.8577 2.31228 -5.40192 0
M  V30 238 H 24.3817 3.21985 -5.18804 0
M  V30 239 H 25.7957 0.995056 -5.64599 0
M  V30 240 H 24.1927 0.284639 -5.99425 0
M  V30 241 H 25.2627 -0.506041 -4.82252 0
M  V30 242 N 26.6058 1.57591 -0.0167156 0
M  V30 243 C 28.0218 1.55946 0.339557 0
M  V30 244 C 28.2218 1.02109 1.73713 0
M  V30 245 O 27.2778 0.662303 2.43659 0
M  V30 246 C 28.5908 3.00037 0.199499 0
M  V30 247 C 30.1388 3.11805 0.273193 0
M  V30 248 C 30.6138 4.57713 0.162068 0
M  V30 249 N 32.1048 4.6268 0.219444 0
M  V30 250 C 32.8398 5.73185 0.157054 0
M  V30 251 N 32.3358 6.92786 0.0442936 0
M  V30 252 N 34.1288 5.61707 0.21014 0
M  V30 253 H 26.2798 1.90921 -0.930758 0
M  V30 254 H 28.5428 0.877674 -0.358319 0
M  V30 255 H 28.2488 3.4333 -0.76273 0
M  V30 256 H 28.1228 3.64387 0.974786 0
M  V30 257 H 30.5098 2.68433 1.22587 0
M  V30 258 H 30.5908 2.50201 -0.532256 0
M  V30 259 H 30.2348 5.01763 -0.78714 0
M  V30 260 H 30.1648 5.17283 0.986222 0
M  V30 261 H 32.6558 3.76649 0.307246 0
M  V30 262 H 32.9688 7.728 0.00304069 0
M  V30 263 H 31.3138 6.94999 0.00968457 0
M  V30 264 H 34.5048 4.6716 0.296546 0
M  V30 265 H 34.6778 6.47807 0.158054 0
M  V30 266 N 28.0839 -0.256276 1.55502 0
M  V30 267 C 29.0139 -1.32102 1.92539 0
M  V30 268 C 29.9949 -1.50684 0.789194 0
M  V30 269 O 31.1799 -1.63449 1.04872 0
M  V30 270 C 28.3099 -2.67752 2.21192 0
M  V30 271 C 27.2639 -2.63878 3.36975 0
M  V30 272 C 26.5899 -4.03236 3.51147 0
M  V30 273 C 27.8899 -2.21682 4.72921 0
M  V30 274 H 29.5839 -1.01351 2.81724 0
M  V30 275 H 27.1299 -0.486105 1.35547 0
M  V30 276 H 29.0829 -3.42365 2.45691 0
M  V30 277 H 27.8069 -3.0012 1.28824 0
M  V30 278 H 26.4659 -1.91722 3.12471 0
M  V30 279 H 26.1139 -4.32854 2.56216 0
M  V30 280 H 25.8139 -4.01535 4.29003 0
M  V30 281 H 27.3379 -4.79563 3.77957 0
M  V30 282 H 28.7519 -2.86023 4.96854 0
M  V30 283 H 27.1489 -2.3111 5.53812 0
M  V30 284 H 28.2189 -1.16833 4.70615 0
M  V30 285 N 29.562 -1.4872 -0.521534 0
M  V30 286 C 30.787 -1.61101 -1.30618 0
M  V30 287 C 31.212 -0.274611 -1.86085 0
M  V30 288 O 30.57 0.754937 -1.64834 0
M  V30 289 C 30.618 -2.66709 -2.4269 0
M  V30 290 O 29.722 -2.24456 -3.45967 0
M  V30 291 H 29.063 -0.539921 -0.386499 0
M  V30 292 H 31.593 -1.94767 -0.626645 0
M  V30 293 H 31.603 -2.88245 -2.88754 0
M  V30 294 H 30.278 -3.63727 -2.01682 0
M  V30 295 H 28.855 -2.13168 -3.05964 0
M  V30 296 N 31.0401 0.771051 -1.3745 0
M  V30 297 C 32.2801 1.54264 -1.34096 0
M  V30 298 C 32.6441 1.91858 0.0737639 0
M  V30 299 O 33.8451 2.67797 0.23203 0
M  V30 300 C 32.1161 2.77326 -2.25445 0
M  V30 301 S 33.6751 3.67383 -2.39948 0
M  V30 302 H 30.4931 0.528122 -0.476034 0
M  V30 303 H 33.0951 0.906633 -1.73206 0
M  V30 304 H 31.7991 2.47788 -3.27153 0
M  V30 305 H 31.3301 3.45886 -1.87421 0
M  V30 306 H 33.3451 4.69334 -1.61059 0
M  V30 307 N 32.5182 1.22032 0.997298 0
M  V30 308 C 33.4812 0.987909 2.06816 0
M  V30 309 C 34.4812 -0.0440084 1.6074 0
M  V30 310 O 35.6712 0.194053 1.73116 0
M  V30 311 C 32.8032 0.49132 3.37341 0
M  V30 312 H 33.9962 1.93803 2.28868 0
M  V30 313 H 31.5492 1.03838 1.16822 0
M  V30 314 H 32.2842 -0.463364 3.20973 0
M  V30 315 H 32.0692 1.23575 3.72118 0
M  V30 316 H 33.5592 0.348824 4.16141 0
M  V30 317 N 33.9963 -1.19345 1.0293 0
M  V30 318 C 34.9593 -2.20793 0.615069 0
M  V30 319 C 35.9593 -1.57553 -0.321533 0
M  V30 320 O 37.1493 -1.73862 -0.108483 0
M  V30 321 C 34.2813 -3.40754 -0.0999222 0
M  V30 322 H 35.4743 -2.58955 1.51269 0
M  V30 323 H 33.0273 -1.3303 0.820534 0
M  V30 324 H 33.7623 -3.0811 -1.01187 0
M  V30 325 H 33.5473 -3.87889 0.57309 0
M  V30 326 H 35.0373 -4.15898 -0.376645 0
M  V30 327 N 35.4744 -0.807222 -1.35358 0
M  V30 328 C 36.6994 -0.399309 -2.0352 0
M  V30 329 C 37.1244 0.981986 -1.60433 0
M  V30 330 O 36.4824 1.63601 -0.781299 0
M  V30 331 C 36.5304 -0.491552 -3.57234 0
M  V30 332 O 35.6344 0.494754 -4.09421 0
M  V30 333 H 34.9754 -0.166682 -0.642739 0
M  V30 334 H 37.5054 -1.09328 -1.72941 0
M  V30 335 H 37.5154 -0.361588 -4.06395 0
M  V30 336 H 36.1904 -1.49907 -3.87944 0
M  V30 337 H 34.7674 0.324977 -3.71481 0
M  V30 338 N 36.9525 1.47285 -0.560781 0
M  V30 339 C 38.2005 2.02064 -0.0379868 0
M  V30 340 C 38.5215 1.43711 1.31803 0
M  V30 341 O 37.7915 0.61362 1.86042 0
M  V30 342 H 36.3715 0.746918 -0.0110531 0
M  V30 343 H 39.0335 1.80648 -0.731598 0
M  V30 344 H 38.1295 3.12064 0.0474463 0
M  V30 345 N 38.4306 0.297415 1.54768 0
M  V30 346 C 39.8466 -0.0560823 1.59501 0
M  V30 347 C 40.0466 -1.52725 1.31444 0
M  V30 348 O 39.1026 -2.27947 1.08611 0
M  V30 349 C 40.4156 0.338631 2.98787 0
M  V30 350 C 41.9636 0.287097 3.11681 0
M  V30 351 C 42.4386 0.656579 4.53269 0
M  V30 352 N 43.9296 0.608977 4.59179 0
M  V30 353 C 44.6646 0.867385 5.66802 0
M  V30 354 N 44.1606 1.19157 6.82476 0
M  V30 355 N 45.9536 0.794687 5.56454 0
M  V30 356 H 38.1046 1.25624 1.71267 0
M  V30 357 H 40.3676 0.509057 0.799728 0
M  V30 358 H 40.0736 1.36263 3.2423 0
M  V30 359 H 39.9476 -0.309508 3.75928 0
M  V30 360 H 42.3346 -0.727649 2.85988 0
M  V30 361 H 42.4156 0.969809 2.36703 0
M  V30 362 H 42.0596 1.66912 4.7969 0
M  V30 363 H 41.9896 -0.0481649 5.26578 0
M  V30 364 H 44.4806 0.369198 3.76092 0
M  V30 365 H 44.7936 1.37482 7.60473 0
M  V30 366 H 43.1386 1.22958 6.84037 0
M  V30 367 H 46.3296 0.541098 4.64962 0
M  V30 368 H 46.5026 0.999445 6.40246 0
M  V30 369 N 39.9087 -1.5758 0.0250728 0
M  V30 370 C 41.1367 -1.9593 -0.664747 0
M  V30 371 C 41.5517 -0.901352 -1.65895 0
M  V30 372 O 40.9087 0.117255 -1.82123 0
M  V30 373 C 40.9597 -3.34342 -1.37468 0
M  V30 374 O 40.6807 -4.36079 -0.420324 0
M  V30 375 C 42.1817 -3.873 -2.1567 0
M  V30 376 H 39.4017 -0.645405 -0.183557 0
M  V30 377 H 41.9457 -2.04329 0.0836372 0
M  V30 378 H 40.1007 -3.27175 -2.0745 0
M  V30 379 H 40.5147 -5.16297 -0.923991 0
M  V30 380 H 41.9887 -4.86504 -2.60803 0
M  V30 381 H 42.4657 -3.21331 -2.99405 0
M  V30 382 H 43.0717 -3.97723 -1.50654 0
M  V30 383 N 41.3868 0.248026 -1.55636 0
M  V30 384 C 42.6338 0.976224 -1.77415 0
M  V30 385 C 42.9618 1.85361 -0.589193 0
M  V30 386 O 42.2168 1.90973 0.427529 0
M  V30 387 C 42.5158 1.86819 -3.04686 0
M  V30 388 C 42.1818 1.14625 -4.36087 0
M  V30 389 C 40.8438 0.946723 -4.71795 0
M  V30 390 C 43.1958 0.634463 -5.17324 0
M  V30 391 C 40.5238 0.223091 -5.86276 0
M  V30 392 C 42.8758 -0.0756959 -6.32555 0
M  V30 393 C 41.5398 -0.286711 -6.66884 0
M  V30 394 H 40.8098 0.357226 -0.649208 0
M  V30 395 H 43.4568 0.246415 -1.89908 0
M  V30 396 H 41.7618 2.66502 -2.872 0
M  V30 397 H 43.4588 2.43329 -3.18735 0
M  V30 398 H 40.0488 1.3117 -4.08035 0
M  V30 399 H 44.2328 0.77616 -4.90193 0
M  V30 400 H 39.4888 0.0491185 -6.1138 0
M  V30 401 H 43.6628 -0.479899 -6.94745 0
M  V30 402 H 41.2898 -0.849389 -7.5544 0
M  V30 403 N 42.8649 1.48995 0.513639 0
M  V30 404 C 44.0899 1.61792 1.29762 0
M  V30 405 C 44.5149 0.284475 1.85936 0
M  V30 406 O 43.8729 -0.746185 1.65232 0
M  V30 407 C 43.9209 2.67993 2.41272 0
M  V30 408 O 43.0249 2.26287 3.44772 0
M  V30 409 H 42.3659 0.541963 0.38363 0
M  V30 410 H 44.8959 1.95097 0.616307 0
M  V30 411 H 44.9059 2.89772 2.87221 0
M  V30 412 H 43.5809 3.64791 1.9975 0
M  V30 413 H 42.1579 2.14788 3.04829 0
M  V30 414 N 44.343 -0.763751 1.37857 0
M  V30 415 C 45.573 -1.55067 1.3652 0
M  V30 416 C 45.981 -1.89135 -0.0494227 0
M  V30 417 O 45.324 -1.52529 -1.02375 0
M  V30 418 C 45.386 -2.8838 2.14656 0
M  V30 419 C 45.05 -2.76905 3.63555 0
M  V30 420 C 46.047 -2.4739 4.57268 0
M  V30 421 C 43.732 -2.94676 4.06781 0
M  V30 422 C 45.726 -2.35786 5.92186 0
M  V30 423 C 43.413 -2.82692 5.41782 0
M  V30 424 C 44.411 -2.53289 6.34298 0
M  V30 425 O 44.099 -2.41345 7.66817 0
M  V30 426 H 43.831 -0.486776 0.469069 0
M  V30 427 H 46.385 -0.953812 1.81911 0
M  V30 428 H 44.615 -3.50217 1.63967 0
M  V30 429 H 46.304 -3.49828 2.05852 0
M  V30 430 H 47.07 -2.33339 4.2518 0
M  V30 431 H 42.949 -3.16563 3.35126 0
M  V30 432 H 46.493 -2.12757 6.64365 0
M  V30 433 H 42.39 -2.96314 5.7347 0
M  V30 434 H 43.158 -2.56634 7.77226 0
M  V30 435 N 45.8211 -1.22559 -0.990812 0
M  V30 436 C 46.7691 -0.994798 -2.10253 0
M  V30 437 C 47.7631 0.0627798 -1.69284 0
M  V30 438 O 48.9691 -0.0898392 -1.79776 0
M  V30 439 H 45.3441 -0.304527 -0.687581 0
M  V30 440 H 47.3151 -1.93812 -2.26891 0
M  V30 441 C 46.0641 -0.591439 -3.42633 0
M  V30 442 H 45.3871 -1.3969 -3.74602 0
M  V30 443 H 46.8271 -0.469385 -4.21394 0
M  V30 444 C 45.2861 0.699232 -3.29564 0
M  V30 445 O 45.8161 1.75112 -3.61523 0
M  V30 446 N 44.0221 0.671182 -2.82743 0
M  V30 447 H 43.5691 -0.185136 -2.56934 0
M  V30 448 H 43.5271 1.53502 -2.7438 0
M  V30 449 N 47.2992 1.18797 -1.03562 0
M  V30 450 C 48.7102 1.70322 -0.764676 0
M  V30 451 C 49.0612 1.82708 0.714996 0
M  V30 452 O 48.1862 1.50299 1.55689 0
M  V30 453 C 48.7812 3.09356 -1.38145 0
M  V30 454 C 47.3402 3.58114 -1.15895 0
M  V30 455 C 46.4872 2.34798 -1.4753 0
M  V30 456 H 49.4382 1.03543 -1.20268 0
M  V30 457 H 49.4592 3.72378 -0.781977 0
M  V30 458 H 48.9712 3.00309 -2.45837 0
M  V30 459 H 47.0722 3.72464 -0.100544 0
M  V30 460 H 47.1852 4.4184 -1.8524 0
M  V30 461 H 45.5492 2.38464 -0.894829 0
M  V30 462 H 46.3322 2.28375 -2.56319 0
M  V30 463 N 48.7773 0.814389 1.34928 0
M  V30 464 C 49.7103 0.175641 2.27523 0
M  V30 465 C 50.6883 -0.662953 1.48471 0
M  V30 466 O 51.8723 -0.628545 1.77712 0
M  V30 467 C 48.9993 -0.755516 3.30166 0
M  V30 468 C 48.0453 0.00445305 4.265 0
M  V30 469 S 48.8783 1.34582 5.18313 0
M  V30 470 C 50.0343 0.419315 6.24494 0
M  V30 471 H 50.2673 0.960691 2.8135 0
M  V30 472 H 47.8003 0.609846 1.41846 0
M  V30 473 H 49.7583 -1.28723 3.89796 0
M  V30 474 H 48.4193 -1.51402 2.75202 0
M  V30 475 H 47.6123 -0.703077 4.99072 0
M  V30 476 H 47.2143 0.466447 3.7108 0
M  V30 477 H 49.5063 -0.392432 6.76362 0
M  V30 478 H 50.4493 1.11446 6.99275 0
M  V30 479 H 50.8573 0.0115389 5.64499 0
M  V30 480 N 50.2554 -1.46986 0.568584 0
M  V30 481 C 51.5034 -2.02041 0.0487022 0
M  V30 482 C 51.8244 -1.44408 -1.31039 0
M  V30 483 O 51.0944 -0.623477 -1.85714 0
M  V30 484 H 49.6744 -0.746849 0.015014 0
M  V30 485 H 52.3364 -1.80257 0.741168 0
M  V30 486 H 51.4324 -3.12085 -0.0308961 0
M  V30 487 N 51.7335 -0.305618 -1.54608 0
M  V30 488 C 52.9795 0.295595 -2.01241 0
M  V30 489 C 53.3345 1.51171 -1.19018 0
M  V30 490 O 52.6275 1.89832 -0.259684 0
M  V30 491 C 52.8215 0.698983 -3.50498 0
M  V30 492 C 52.6505 -0.476491 -4.47168 0
M  V30 493 C 51.4205 -0.969963 -4.95903 0
M  V30 494 C 53.6185 -1.32294 -4.96994 0
M  V30 495 N 51.6005 -2.11172 -5.76437 0
M  V30 496 C 52.9715 -2.31212 -5.75275 0
M  V30 497 C 55.0265 -1.35278 -4.7917 0
M  V30 498 C 53.7295 -3.32896 -6.37631 0
M  V30 499 C 55.7555 -2.35823 -5.42348 0
M  V30 500 C 55.1175 -3.33469 -6.20466 0
M  V30 501 H 51.2165 0.0724992 -0.778632 0
M  V30 502 H 53.8005 -0.436583 -1.89742 0
M  V30 503 H 51.9715 1.40032 -3.62278 0
M  V30 504 H 53.7035 1.28013 -3.8392 0
M  V30 505 H 50.4585 -0.544178 -4.70463 0
M  V30 506 H 50.8825 -2.68714 -6.21387 0
M  V30 507 H 55.5245 -0.61157 -4.18354 0
M  V30 508 H 53.2425 -4.07933 -6.97579 0
M  V30 509 H 56.8285 -2.38911 -5.30484 0
M  V30 510 H 55.7085 -4.09996 -6.68485 0
M  V30 511 N 53.2116 1.57565 -0.0334293 0
M  V30 512 C 54.4586 1.91978 0.644272 0
M  V30 513 C 54.7866 0.910231 1.71887 0
M  V30 514 O 54.0416 -0.0801961 1.95536 0
M  V30 515 C 54.3406 3.33112 1.29504 0
M  V30 516 C 54.0066 4.49537 0.350388 0
M  V30 517 C 52.6686 4.81115 0.0903974 0
M  V30 518 C 55.0206 5.20347 -0.298032 0
M  V30 519 C 52.3486 5.8086 -0.825746 0
M  V30 520 C 54.7006 6.2107 -1.20226 0
M  V30 521 C 53.3646 6.51088 -1.4711 0
M  V30 522 H 52.6346 0.702496 0.235756 0
M  V30 523 H 55.2816 1.91259 -0.0961176 0
M  V30 524 H 53.5866 3.30113 2.11028 0
M  V30 525 H 55.2836 3.57011 1.82603 0
M  V30 526 H 51.8736 4.24883 0.563205 0
M  V30 527 H 56.0576 4.96178 -0.110234 0
M  V30 528 H 51.3136 6.02461 -1.04169 0
M  V30 529 H 55.4876 6.75057 -1.71086 0
M  V30 530 H 53.1146 7.28193 -2.18264 0
M  V30 531 N 54.6897 -0.239769 1.55765 0
M  V30 532 C 56.1057 -0.588624 1.48349 0
M  V30 533 C 56.3057 -1.88005 0.72502 0
M  V30 534 O 55.3617 -2.51186 0.257269 0
M  V30 535 C 56.6747 -0.68474 2.928 0
M  V30 536 C 58.2227 -0.77659 3.03213 0
M  V30 537 C 58.6977 -0.904207 4.48986 0
M  V30 538 N 60.1887 -0.968896 4.52953 0
M  V30 539 C 60.9237 -1.08703 5.63002 0
M  V30 540 N 60.4197 -1.17026 6.82845 0
M  V30 541 N 62.2127 -1.12074 5.50814 0
M  V30 542 H 54.3637 0.607911 2.03515 0
M  V30 543 H 56.6267 0.21083 0.924259 0
M  V30 544 H 56.3327 0.194284 3.51163 0
M  V30 545 H 56.2067 -1.55435 3.43686 0
M  V30 546 H 58.5937 -1.64606 2.44926 0
M  V30 547 H 58.6747 0.118315 2.55526 0
M  V30 548 H 58.3187 -0.0392633 5.07885 0
M  V30 549 H 58.2487 -1.81426 4.9436 0
M  V30 550 H 60.7397 -0.915633 3.6664 0
M  V30 551 H 61.0527 -1.25966 7.62465 0
M  V30 552 H 59.3977 -1.13971 6.85591 0
M  V30 553 H 62.5887 -1.05226 4.5612 0
M  V30 554 H 62.7617 -1.20936 6.36615 0
M  V30 555 N 56.1678 -1.49265 -0.50573 0
M  V30 556 C 57.0998 -1.617 -1.62437 0
M  V30 557 C 58.1128 -0.499924 -1.54934 0
M  V30 558 O 59.3018 -0.771785 -1.60953 0
M  V30 559 C 56.4018 -1.5533 -3.01207 0
M  V30 560 C 55.5748 -2.8249 -3.33943 0
M  V30 561 C 54.6338 -2.69238 -4.52103 0
M  V30 562 O 53.6598 -3.43167 -4.5412 0
M  V30 563 N 54.8618 -1.80468 -5.51735 0
M  V30 564 H 57.6268 -2.58177 -1.52199 0
M  V30 565 H 55.1878 -1.46294 -0.693511 0
M  V30 566 H 57.1798 -1.44125 -3.78167 0
M  V30 567 H 55.7498 -0.667297 -3.05395 0
M  V30 568 H 54.9698 -3.08081 -2.45926 0
M  V30 569 H 56.2578 -3.66802 -3.5261 0
M  V30 570 H 55.6558 -1.19653 -5.52901 0
M  V30 571 H 54.2128 -1.75188 -6.27816 0
M  V30 572 N 57.6459 0.756429 -1.3826 0
M  V30 573 C 58.6089 1.85176 -1.35065 0
M  V30 574 C 59.6089 1.58818 -0.251703 0
M  V30 575 O 60.7989 1.66615 -0.508433 0
M  V30 576 C 57.9309 3.22596 -1.10201 0
M  V30 577 H 59.1239 1.89417 -2.3251 0
M  V30 578 H 56.6769 0.95783 -1.23512 0
M  V30 579 H 57.4119 3.24025 -0.133504 0
M  V30 580 H 57.1969 3.43122 -1.89762 0
M  V30 581 H 58.6869 4.02673 -1.10654 0
M  V30 582 N 59.124 1.23083 0.984299 0
M  V30 583 C 60.535 1.05609 1.5396 0
M  V30 584 C 60.886 -0.377793 1.92528 0
M  V30 585 O 60.011 -1.26398 1.75649 0
M  V30 586 C 60.606 1.91087 2.7977 0
M  V30 587 C 59.165 1.77885 3.31713 0
M  V30 588 C 58.312 1.87028 2.04733 0
M  V30 589 H 61.263 1.36802 0.804419 0
M  V30 590 H 61.284 1.43336 3.5247 0
M  V30 591 H 60.796 2.9544 2.51668 0
M  V30 592 H 58.897 0.762995 3.64704 0
M  V30 593 H 59.01 2.61047 4.01735 0
M  V30 594 H 57.374 1.30565 2.18689 0
M  V30 595 H 58.157 2.92929 1.79017 0
M  V30 596 N 60.6021 -1.18246 1.0419 0
M  V30 597 C 61.8501 -1.87886 0.744543 0
M  V30 598 C 62.1711 -1.8082 -0.730006 0
M  V30 599 O 61.4411 -1.22736 -1.52685 0
M  V30 600 H 60.0211 -0.695556 0.272417 0
M  V30 601 H 62.6831 -1.43494 1.31892 0
M  V30 602 H 61.7791 -2.9389 1.05049 0
M  V30 603 N 62.0802 -0.821533 -1.34494 0
M  V30 604 C 63.0272 -0.240397 -2.29545 0
M  V30 605 C 63.9972 0.634031 -1.53523 0
M  V30 606 O 65.1822 0.575966 -1.81899 0
M  V30 607 C 62.3222 0.592869 -3.39969 0
M  V30 608 C 61.4352 -0.30365 -4.30932 0
M  V30 609 C 60.5702 0.539049 -5.28458 0
M  V30 610 C 59.6092 -0.356942 -6.11058 0
M  V30 611 N 58.7462 0.446603 -7.00678 0
M  V30 612 H 63.5862 -1.05632 -2.7865 0
M  V30 613 H 61.1232 -0.532413 -1.37127 0
M  V30 614 H 63.0812 1.09129 -4.02675 0
M  V30 615 H 61.7112 1.37392 -2.92102 0
M  V30 616 H 60.7632 -0.920276 -3.691 0
M  V30 617 H 62.0752 -0.992661 -4.88823 0
M  V30 618 H 61.2292 1.102 -5.96608 0
M  V30 619 H 59.9682 1.26157 -4.71101 0
M  V30 620 H 58.9732 -0.932047 -5.41842 0
M  V30 621 H 60.1982 -1.07755 -6.70497 0
M  V30 622 H 58.1442 1.15282 -6.45791 0
M  V30 623 H 58.0612 -0.184048 -7.55776 0
M  V30 624 H 59.3292 0.992352 -7.73158 0
M  V30 625 N 63.5583 1.46682 -0.576371 0
M  V30 626 C 64.8063 2.02013 -0.0594163 0
M  V30 627 C 65.1273 1.45101 1.30271 0
M  V30 628 O 64.3973 0.633317 1.8538 0
M  V30 629 H 62.9773 0.746759 -0.0189745 0
M  V30 630 H 65.6393 1.79862 -0.750717 0
M  V30 631 H 64.7353 3.12097 0.014345 0
M  V30 632 N 65.0364 0.313813 1.54444 0
M  V30 633 C 66.4524 -0.0391619 1.59552 0
M  V30 634 C 66.6524 -1.51322 1.33056 0
M  V30 635 O 65.7084 -2.26782 1.11022 0
M  V30 636 C 67.0214 0.370302 2.98411 0
M  V30 637 C 68.5694 0.320139 3.11358 0
M  V30 638 C 69.0444 0.704617 4.52547 0
M  V30 639 N 70.5354 0.657645 4.58508 0
M  V30 640 C 71.2704 0.927453 5.6585 0
M  V30 641 N 70.7664 1.26389 6.81174 0
M  V30 642 N 72.5594 0.853662 5.5558 0
M  V30 643 H 64.7104 1.27433 1.69925 0
M  V30 644 H 66.9734 0.517511 0.794284 0
M  V30 645 H 66.6794 1.39694 3.22767 0
M  V30 646 H 66.5534 -0.269619 3.76235 0
M  V30 647 H 68.9404 -0.697275 2.86744 0
M  V30 648 H 69.0214 0.99486 2.35661 0
M  V30 649 H 68.6654 1.7199 4.77893 0
M  V30 650 H 68.5954 0.00768843 5.26599 0
M  V30 651 H 71.0864 0.409067 3.75679 0
M  V30 652 H 71.3994 1.4554 7.58972 0
M  V30 653 H 69.7444 1.30206 6.82694 0
M  V30 654 H 72.9354 0.590383 4.64362 0
M  V30 655 H 73.1084 1.0673 6.3915 0
M  V30 656 N 66.5145 -1.57545 0.0417849 0
M  V30 657 C 67.4245 -2.14451 -0.951213 0
M  V30 658 C 68.4405 -1.09992 -1.34825 0
M  V30 659 O 69.6165 -1.42114 -1.42708 0
M  V30 660 C 66.6815 -2.67063 -2.21084 0
M  V30 661 C 65.7425 -3.86284 -1.87304 0
M  V30 662 C 64.9755 -4.36378 -3.07261 0
M  V30 663 O 65.1985 -3.85587 -4.20332 0
M  V30 664 O 64.1325 -5.28077 -2.88822 0
M  V30 665 H 67.9585 -2.99601 -0.497287 0
M  V30 666 H 65.5435 -1.48317 -0.179567 0
M  V30 667 H 67.4255 -3.00914 -2.95006 0
M  V30 668 H 66.1005 -1.84989 -2.65633 0
M  V30 669 H 65.0075 -3.57338 -1.10727 0
M  V30 670 H 66.3405 -4.6956 -1.47562 0
M  V30 671 N 67.9926 0.231505 -1.5589 0
M  V30 672 C 68.9226 1.29022 -1.94617 0
M  V30 673 C 69.9036 1.4941 -0.813067 0
M  V30 674 O 71.0886 1.6176 -1.07459 0
M  V30 675 C 68.2186 2.64199 -2.25424 0
M  V30 676 C 67.1726 2.58484 -3.41131 0
M  V30 677 C 66.4986 3.97599 -3.57518 0
M  V30 678 C 67.7986 2.1413 -4.76388 0
M  V30 679 H 69.4926 0.968563 -2.83301 0
M  V30 680 H 67.0386 0.464479 -1.36303 0
M  V30 681 H 68.9916 3.38413 -2.51107 0
M  V30 682 H 67.7156 2.98032 -1.33583 0
M  V30 683 H 66.3746 1.86727 -3.15481 0
M  V30 684 H 66.0226 4.28723 -2.6307 0
M  V30 685 H 65.7226 3.94659 -4.35337 0
M  V30 686 H 67.2466 4.7349 -3.85538 0
M  V30 687 H 68.6606 2.78083 -5.01341 0
M  V30 688 H 67.0576 2.2227 -5.57419 0
M  V30 689 H 68.1276 1.09331 -4.72414 0
M  V30 690 N 69.4707 1.49531 0.497807 0
M  V30 691 C 70.7167 1.59415 1.25358 0
M  V30 692 C 71.0497 0.281422 1.9215 0
M  V30 693 O 70.3247 -0.715249 1.80871 0
M  V30 694 C 70.6077 2.75566 2.3181 0
M  V30 695 C 70.4607 4.16642 1.69498 0
M  V30 696 C 71.7797 2.87347 3.33346 0
M  V30 697 H 68.8987 0.580244 0.454408 0
M  V30 698 H 71.5407 1.81827 0.551262 0
M  V30 699 H 69.6907 2.56587 2.91711 0
M  V30 700 H 71.3627 4.47145 1.13399 0
M  V30 701 H 69.6057 4.22141 0.998978 0
M  V30 702 H 70.2767 4.93792 2.46725 0
M  V30 703 H 72.7527 3.04634 2.83438 0
M  V30 704 H 71.6287 3.70289 4.05188 0
M  V30 705 H 71.8897 1.96834 3.95865 0
M  V30 706 N 70.9488 -0.749086 1.3866 0
M  V30 707 C 71.9118 -1.84457 1.36045 0
M  V30 708 C 72.9118 -1.58682 0.260122 0
M  V30 709 O 74.1018 -1.66343 0.517261 0
M  V30 710 C 71.2338 -3.22008 1.11911 0
M  V30 711 H 72.4268 -1.88182 2.33512 0
M  V30 712 H 69.9798 -0.951266 1.24019 0
M  V30 713 H 70.7148 -3.2395 0.150686 0
M  V30 714 H 70.4998 -3.42111 1.91579 0
M  V30 715 H 71.9898 -4.0208 1.12788 0
M  V30 716 N 72.4269 -1.23603 -0.977757 0
M  V30 717 C 73.3899 -1.02069 -2.05218 0
M  V30 718 C 74.3899 0.0184305 -1.60789 0
M  V30 719 O 75.5799 -0.221569 -1.72785 0
M  V30 720 C 72.7119 -0.544926 -3.36517 0
M  V30 721 H 73.9049 -1.9742 -2.25755 0
M  V30 722 H 71.4579 -1.05684 -1.15155 0
M  V30 723 H 72.1929 0.412241 -3.21669 0
M  V30 724 H 71.9779 -1.2948 -3.70105 0
M  V30 725 H 73.4679 -0.414985 -4.15533 0
M  V30 726 N 73.905 1.17692 -1.04816 0
M  V30 727 C 75.154 1.87192 -0.751132 0
M  V30 728 C 75.467 1.8169 0.724441 0
M  V30 729 O 76.673 2.46625 1.13527 0
M  V30 730 C 75.129 3.35857 -1.29338 0
M  V30 731 C 74.737 3.4987 -2.79812 0
M  V30 732 C 76.481 4.10709 -1.07322 0
M  V30 733 C 74.388 4.92536 -3.27356 0
M  V30 734 H 73.318 0.701162 -0.277288 0
M  V30 735 H 75.969 1.32932 -1.26496 0
M  V30 736 H 74.351 3.89631 -0.707376 0
M  V30 737 H 75.525 3.06332 -3.44235 0
M  V30 738 H 73.84 2.88433 -3.00325 0
M  V30 739 H 76.437 5.15952 -1.4035 0
M  V30 740 H 76.78 4.16299 -0.0108001 0
M  V30 741 H 77.313 3.6313 -1.62423 0
M  V30 742 H 74.052 4.92119 -4.33012 0
M  V30 743 H 73.572 5.3676 -2.67673 0
M  V30 744 H 75.251 5.61288 -3.21815 0
M  V30 745 N 75.3831 0.828654 1.34056 0
M  V30 746 C 76.6081 0.431637 2.02859 0
M  V30 747 C 77.0331 -0.956339 1.61975 0
M  V30 748 O 76.3911 -1.62338 0.807228 0
M  V30 749 C 76.4391 0.548323 3.56407 0
M  V30 750 O 75.5431 -0.429556 4.10157 0
M  V30 751 H 74.8841 0.176886 0.640006 0
M  V30 752 H 77.4141 1.12066 1.71179 0
M  V30 753 H 77.4241 0.426196 4.05768 0
M  V30 754 H 76.0991 1.5606 3.8551 0
M  V30 755 H 74.6761 -0.265836 3.71951 0
M  V30 756 N 76.8612 -1.46375 0.584142 0
M  V30 757 C 78.2772 -1.57694 0.245929 0
M  V30 758 C 78.4772 -1.57903 -1.25175 0
M  V30 759 O 77.5332 -1.49676 -2.03355 0
M  V30 760 C 78.8462 -2.87028 0.896402 0
M  V30 761 C 80.3942 -3.00662 0.870127 0
M  V30 762 C 80.8692 -4.32734 1.50017 0
M  V30 763 N 82.3602 -4.39436 1.46458 0
M  V30 764 C 83.0952 -5.40248 1.92144 0
M  V30 765 N 82.5912 -6.47726 2.4581 0
M  V30 766 N 84.3842 -5.31459 1.83052 0
M  V30 767 H 76.5352 -1.44483 1.55687 0
M  V30 768 H 78.7982 -0.689291 0.650831 0
M  V30 769 H 78.5042 -2.9269 1.95002 0
M  V30 770 H 78.3782 -3.75014 0.405486 0
M  V30 771 H 80.7652 -2.94581 -0.174871 0
M  V30 772 H 80.8462 -2.14148 1.39908 0
M  V30 773 H 80.4902 -4.39573 2.54437 0
M  V30 774 H 80.4202 -5.18025 0.946432 0
M  V30 775 H 82.9112 -3.62367 1.07231 0
M  V30 776 H 83.2242 -7.20863 2.78525 0
M  V30 777 H 81.5692 -6.48542 2.49836 0
M  V30 778 H 84.7602 -4.46396 1.40883 0
M  V30 779 H 84.9332 -6.09881 2.18973 0
M  V30 780 N 78.3393 -0.321999 -1.54275 0
M  V30 781 C 79.5673 0.283052 -2.04955 0
M  V30 782 C 79.9823 1.45904 -1.19823 0
M  V30 783 O 79.3393 1.81063 -0.228545 0
M  V30 784 C 79.3903 0.719028 -3.54277 0
M  V30 785 O 79.1113 -0.410175 -4.36176 0
M  V30 786 C 80.6123 1.38705 -4.21041 0
M  V30 787 H 77.8323 0.0584616 -0.668448 0
M  V30 788 H 80.3763 -0.467734 -1.99079 0
M  V30 789 H 78.5313 1.41979 -3.60445 0
M  V30 790 H 78.9453 -0.0669416 -5.24457 0
M  V30 791 H 80.4193 1.64306 -5.2698 0
M  V30 792 H 80.8963 2.33385 -3.72059 0
M  V30 793 H 81.5023 0.728906 -4.19007 0
M  V30 794 N 79.8174 1.5752 -0.0501392 0
M  V30 795 C 81.0654 1.9227 0.622642 0
M  V30 796 C 81.3864 0.929083 1.71444 0
M  V30 797 O 80.6564 -0.0262186 1.95882 0
M  V30 798 H 79.2364 0.709739 0.232981 0
M  V30 799 H 81.8984 1.94628 -0.102898 0
M  V30 800 H 80.9944 2.93479 1.06191 0
M  V30 801 N 81.2955 -0.223234 1.56011 0
M  V30 802 C 82.5435 -0.946003 1.78592 0
M  V30 803 C 82.8645 -1.84936 0.618349 0
M  V30 804 O 82.1345 -1.92473 -0.364833 0
M  V30 805 H 80.7145 -0.352298 0.658707 0
M  V30 806 H 83.3765 -0.235494 1.93472 0
M  V30 807 H 82.4725 -1.55381 2.70672 0
M  V30 808 N 82.7736 -1.49793 -0.48987 0
M  V30 809 C 83.9986 -1.63836 -1.27172 0
M  V30 810 C 84.4236 -0.31402 -1.8546 0
M  V30 811 O 83.7816 0.719803 -1.66399 0
M  V30 812 C 83.8296 -2.71797 -2.36978 0
M  V30 813 O 82.9336 -2.31744 -3.41128 0
M  V30 814 H 82.2746 -0.547997 -0.37496 0
M  V30 815 H 84.8046 -1.96053 -0.585191 0
M  V30 816 H 84.8146 -2.94305 -2.82575 0
M  V30 817 H 83.4896 -3.67923 -1.93921 0
M  V30 818 H 82.0666 -2.1961 -3.01373 0
M  V30 819 N 84.2517 0.741722 -1.39055 0
M  V30 820 C 85.4797 1.53098 -1.39171 0
M  V30 821 C 85.8947 1.88794 0.0155099 0
M  V30 822 O 85.2517 1.53626 0.985159 0
M  V30 823 C 85.3027 2.82274 -2.2584 0
M  V30 824 O 85.0237 2.48097 -3.61081 0
M  V30 825 C 86.5247 3.76343 -2.34266 0
M  V30 826 H 83.7447 0.473335 -0.4756 0
M  V30 827 H 86.2887 0.917045 -1.82785 0
M  V30 828 H 84.4437 3.40015 -1.85656 0
M  V30 829 H 84.8577 3.31029 -4.06842 0
M  V30 830 H 86.3317 4.63898 -2.9917 0
M  V30 831 H 86.8087 4.17619 -1.35982 0
M  V30 832 H 87.4147 3.24523 -2.74891 0
M  V30 833 N 85.7298 1.2412 0.971189 0
M  V30 834 C 86.9598 1.10415 1.7462 0
M  V30 835 C 87.3678 -0.346462 1.86001 0
M  V30 836 O 86.7108 -1.25104 1.34517 0
M  V30 837 C 86.7728 1.66596 3.18568 0
M  V30 838 C 86.4368 3.15446 3.3067 0
M  V30 839 C 87.4338 4.12636 3.16271 0
M  V30 840 C 85.1188 3.55337 3.55022 0
M  V30 841 C 87.1128 5.47699 3.26044 0
M  V30 842 C 84.7998 4.90542 3.64434 0
M  V30 843 C 85.7978 5.86532 3.49956 0
M  V30 844 O 85.4858 7.19279 3.59017 0
M  V30 845 H 85.2178 0.386616 0.55453 0
M  V30 846 H 87.7718 1.64633 1.22821 0
M  V30 847 H 86.0018 1.06808 3.71657 0
M  V30 848 H 87.6908 1.48232 3.77865 0
M  V30 849 H 88.4568 3.8316 2.97344 0
M  V30 850 H 84.3358 2.8113 3.65359 0
M  V30 851 H 87.8798 6.22603 3.14661 0
M  V30 852 H 83.7768 5.19691 3.82873 0
M  V30 853 H 84.5448 7.27153 3.75754 0
M  V30 854 N 87.2079 -1.17134 1.05439 0
M  V30 855 C 88.4379 -1.91094 0.785274 0
M  V30 856 C 88.8459 -1.77198 -0.663142 0
M  V30 857 O 88.1889 -1.10835 -1.46497 0
M  V30 858 C 88.2509 -3.42594 1.08949 0
M  V30 859 C 87.9149 -3.80274 2.53458 0
M  V30 860 C 88.9119 -3.82912 3.51673 0
M  V30 861 C 86.5969 -4.11162 2.88532 0
M  V30 862 C 88.5909 -4.15913 4.83006 0
M  V30 863 C 86.2779 -4.43831 4.20068 0
M  V30 864 C 87.2759 -4.46185 5.17115 0
M  V30 865 O 86.9639 -4.78083 6.46291 0
M  V30 866 H 86.6959 -0.613073 0.284811 0
M  V30 867 H 89.2499 -1.49461 1.40893 0
M  V30 868 H 87.4799 -3.84534 0.408741 0
M  V30 869 H 89.1689 -3.97817 0.805991 0
M  V30 870 H 89.9349 -3.5917 3.25917 0
M  V30 871 H 85.8139 -4.085 2.13656 0
M  V30 872 H 89.3579 -4.17665 5.5875 0
M  V30 873 H 85.2549 -4.67037 4.45586 0
M  V30 874 H 86.0229 -4.9593 6.51149 0
M  V30 875 N 88.686 -0.835752 -1.33615 0
M  V30 876 C 90.097 -0.487099 -1.80234 0
M  V30 877 C 90.448 0.993627 -1.69179 0
M  V30 878 O 89.573 1.77403 -1.23924 0
M  V30 879 C 90.168 -0.877385 -3.27242 0
M  V30 880 C 88.727 -0.580915 -3.7189 0
M  V30 881 C 87.874 -1.0874 -2.5509 0
M  V30 882 H 90.825 -1.02474 -1.2118 0
M  V30 883 H 90.846 -0.186195 -3.80044 0
M  V30 884 H 90.358 -1.95512 -3.35256 0
M  V30 885 H 88.459 0.486881 -3.69405 0
M  V30 886 H 88.572 -1.13396 -4.65487 0
M  V30 887 H 86.936 -0.508392 -2.49575 0
M  V30 888 H 87.719 -2.17184 -2.65868 0
M  V30 889 N 90.1641 1.46063 -0.591896 0
M  V30 890 C 91.4411 1.95595 -0.0137119 0
M  V30 891 C 91.8211 1.5345 1.4497 0
M  V30 892 O 91.1691 0.789543 2.14426 0
M  V30 893 C 91.3791 3.48453 -0.195373 0
M  V30 894 C 92.7271 4.24546 -0.0679765 0
M  V30 895 O 93.7511 3.55982 -0.124681 0
M  V30 896 O 92.6101 5.46467 0.0600579 0
M  V30 897 H 89.7041 0.825795 0.0446279 0
M  V30 898 H 92.2501 1.56303 -0.660859 0
M  V30 899 H 91.0221 3.72045 -1.21235 0
M  V30 900 H 90.6451 3.94597 0.487775 0
M  V30 901 N 91.6422 0.330177 1.54103 0
M  V30 902 C 92.8672 -0.274893 2.0557 0
M  V30 903 C 93.2922 -1.44487 1.20437 0
M  V30 904 O 92.6502 -1.80021 0.214991 0
M  V30 905 C 92.6982 -0.68079 3.54115 0
M  V30 906 O 91.8022 -1.7824 3.71893 0
M  V30 907 H 91.1432 -0.0483849 0.662235 0
M  V30 908 H 93.6732 0.480508 1.98878 0
M  V30 909 H 93.6832 -0.961635 3.96505 0
M  V30 910 H 92.3582 0.174903 4.15532 0
M  V30 911 H 90.9352 -1.49985 3.41407 0
M  V30 912 N 93.1203 -1.57491 0.0584922 0
M  V30 913 C 94.3663 -1.93264 -0.614558 0
M  V30 914 C 94.6993 -0.937717 -1.7006 0
M  V30 915 O 93.9743 0.0351652 -1.94468 0
M  V30 916 C 94.2573 -3.3938 -1.20386 0
M  V30 917 C 94.1103 -4.49625 -0.125375 0
M  V30 918 C 95.4293 -3.86039 -2.11334 0
M  V30 919 H 92.5483 -0.702791 -0.221933 0
M  V30 920 H 95.1903 -1.8961 0.12175 0
M  V30 921 H 93.3403 -3.42626 -1.83139 0
M  V30 922 H 95.0123 -4.58506 0.506971 0
M  V30 923 H 93.2553 -4.30354 0.545672 0
M  V30 924 H 93.9263 -5.48967 -0.577861 0
M  V30 925 H 96.4023 -3.84716 -1.58534 0
M  V30 926 H 95.2783 -4.88914 -2.49507 0
M  V30 927 H 95.5393 -3.23215 -3.01636 0
M  V30 928 N 94.5984 0.214957 -1.56127 0
M  V30 929 C 95.5084 1.28727 -1.96129 0
M  V30 930 C 96.5244 1.50916 -0.866044 0
M  V30 931 O 97.7004 1.63918 -1.17016 0
M  V30 932 C 94.7654 2.61569 -2.27558 0
M  V30 933 C 93.8264 2.47625 -3.50685 0
M  V30 934 C 93.0594 3.74132 -3.80606 0
M  V30 935 O 93.2824 4.77438 -3.12104 0
M  V30 936 O 92.2164 3.70849 -4.74083 0
M  V30 937 H 96.0424 0.977855 -2.87527 0
M  V30 938 H 93.6274 0.418358 -1.43423 0
M  V30 939 H 95.5094 3.40012 -2.48938 0
M  V30 940 H 94.1844 2.92178 -1.39332 0
M  V30 941 H 93.0914 1.67361 -3.34576 0
M  V30 942 H 94.4244 2.21954 -4.39315 0
M  V30 943 N 96.0765 1.50051 0.48192 0
M  V30 944 C 97.3245 1.60181 1.23234 0
M  V30 945 C 97.6455 0.299176 1.92691 0
M  V30 946 O 96.9155 -0.682708 1.83619 0
M  V30 947 H 95.4955 0.590232 0.457859 0
M  V30 948 H 98.1575 1.86775 0.556881 0
M  V30 949 H 97.2535 2.40753 1.98607 0
M  V30 950 N 97.5546 -0.734337 1.39446 0
M  V30 951 C 98.9706 -1.03997 1.21065 0
M  V30 952 C 99.1706 -2.01369 0.0727019 0
M  V30 953 O 98.2266 -2.45856 -0.575426 0
M  V30 954 C 99.5396 -1.60163 2.54496 0
M  V30 955 C 101.088 -1.7224 2.61347 0
M  V30 956 C 101.563 -2.31814 3.95002 0
M  V30 957 N 103.054 -2.39223 3.96644 0
M  V30 958 C 103.789 -2.86258 4.96834 0
M  V30 959 N 103.285 -3.33184 6.07421 0
M  V30 960 N 105.078 -2.85473 4.84213 0
M  V30 961 H 97.2286 -0.0885624 2.12215 0
M  V30 962 H 99.4916 -0.10191 0.942506 0
M  V30 963 H 99.1976 -0.960811 3.38321 0
M  V30 964 H 99.0716 -2.5896 2.74262 0
M  V30 965 H 101.459 -2.35443 1.77906 0
M  V30 966 H 101.54 -0.720939 2.4543 0
M  V30 967 H 101.184 -1.69238 4.78875 0
M  V30 968 H 101.114 -3.32638 4.08239 0
M  V30 969 H 103.605 -2.06057 3.16779 0
M  V30 970 H 103.918 -3.67586 6.7978 0
M  V30 971 H 102.263 -3.31191 6.11013 0
M  V30 972 H 105.454 -2.48136 3.96921 0
M  V30 973 H 105.627 -3.21814 5.62441 0
M  V30 974 N 99.0327 -1.24633 -0.964593 0
M  V30 975 C 100.28 -1.08788 -1.70796 0
M  V30 976 C 100.608 0.372783 -1.90894 0
M  V30 977 O 99.8627 1.29167 -1.47018 0
M  V30 978 C 100.162 -1.7763 -3.10133 0
M  V30 979 C 99.8277 -3.27557 -3.09866 0
M  V30 980 C 98.4897 -3.6846 -3.09501 0
M  V30 981 C 100.842 -4.23389 -3.03959 0
M  V30 982 C 98.1697 -5.03624 -3.00965 0
M  V30 983 C 100.522 -5.58565 -2.96965 0
M  V30 984 C 99.1857 -5.98809 -2.9493 0
M  V30 985 H 98.4557 -0.398084 -0.624988 0
M  V30 986 H 101.103 -1.54777 -1.12767 0
M  V30 987 H 99.4077 -1.24044 -3.71645 0
M  V30 988 H 101.105 -1.62832 -3.66451 0
M  V30 989 H 97.6947 -2.95006 -3.10917 0
M  V30 990 H 101.879 -3.92787 -3.03368 0
M  V30 991 H 97.1347 -5.33998 -2.97752 0
M  V30 992 H 101.309 -6.32523 -2.91354 0
M  V30 993 H 98.9357 -7.03505 -2.88071 0
M  V30 994 N 100.511 1.16574 -1.06058 0
M  V30 995 C 101.739 1.90952 -0.796552 0
M  V30 996 C 102.154 1.77302 0.648808 0
M  V30 997 O 101.511 1.11605 1.44397 0
M  V30 998 C 101.562 3.41736 -1.17894 0
M  V30 999 O 101.283 3.54975 -2.56758 0
M  V30 1000 C 102.784 4.33169 -0.942308 0
M  V30 1001 H 100.004 0.605594 -0.288959 0
M  V30 1002 H 102.548 1.47777 -1.41358 0
M  V30 1003 H 100.703 3.82623 -0.606491 0
M  V30 1004 H 101.117 4.4846 -2.72 0
M  V30 1005 H 102.591 5.37439 -1.25952 0
M  V30 1006 H 103.068 4.3903 0.122078 0
M  V30 1007 H 103.674 3.98007 -1.49902 0
M  V30 1008 N 101.989 0.842826 1.3317 0
M  V30 1009 C 103.238 0.436738 1.96915 0
M  V30 1010 C 103.551 -1.01025 1.67491 0
M  V30 1011 O 104.757 -1.5212 2.24881 0
M  V30 1012 C 103.213 0.730021 3.52418 0
M  V30 1013 C 102.821 2.19195 3.90714 0
M  V30 1014 C 104.565 0.391076 4.22695 0
M  V30 1015 C 102.472 2.42907 5.39212 0
M  V30 1016 H 101.402 0.15958 0.736919 0
M  V30 1017 H 104.053 1.03196 1.51733 0
M  V30 1018 H 102.435 0.0643755 3.95948 0
M  V30 1019 H 103.609 2.8984 3.58231 0
M  V30 1020 H 101.924 2.49425 3.33431 0
M  V30 1021 H 104.521 0.545817 5.31907 0
M  V30 1022 H 104.864 -0.666294 4.10933 0
M  V30 1023 H 105.397 1.01212 3.84709 0
M  V30 1024 H 102.136 3.47224 5.55982 0
M  V30 1025 H 101.656 1.76827 5.73142 0
M  V30 1026 H 103.335 2.2626 6.06148 0
M  V30 1027 N 103.467 -1.45747 0.599634 0
M  V30 1028 C 104.692 -2.07178 0.0960198 0
M  V30 1029 C 105.117 -1.44268 -1.207 0
M  V30 1030 O 104.475 -0.532503 -1.73303 0
M  V30 1031 C 104.523 -3.60579 -0.0385348 0
M  V30 1032 O 103.627 -3.97713 -1.0908 0
M  V30 1033 H 102.968 -0.660251 0.0704593 0
M  V30 1034 H 105.498 -1.87124 0.827385 0
M  V30 1035 H 105.508 -4.07298 -0.239304 0
M  V30 1036 H 104.183 -4.05756 0.912947 0
M  V30 1037 H 102.76 -3.62678 -0.867135 0
M  V30 1038 N 104.945 -0.338344 -1.53925 0
M  V30 1039 C 106.361 0.0137736 -1.59594 0
M  V30 1040 C 106.561 1.49186 -1.35447 0
M  V30 1041 O 105.617 2.24987 -1.14616 0
M  V30 1042 C 106.93 -0.41773 -2.97784 0
M  V30 1043 C 108.478 -0.369633 -3.1081 0
M  V30 1044 C 108.953 -0.776524 -4.51369 0
M  V30 1045 N 110.444 -0.730506 -4.57403 0
M  V30 1046 C 111.179 -1.01736 -5.64303 0
M  V30 1047 N 110.675 -1.3721 -6.79077 0
M  V30 1048 N 112.468 -0.941942 -5.54151 0
M  V30 1049 H 104.619 -1.3012 -1.67876 0
M  V30 1050 H 106.882 -0.530082 -0.78595 0
M  V30 1051 H 106.588 -1.44811 -3.20504 0
M  V30 1052 H 106.462 0.209729 -3.76616 0
M  V30 1053 H 108.849 0.651568 -2.87817 0
M  V30 1054 H 108.93 -1.03223 -2.34049 0
M  V30 1055 H 108.574 -1.79571 -4.75096 0
M  V30 1056 H 108.504 -0.0914649 -5.26521 0
M  V30 1057 H 110.995 -0.468783 -3.74981 0
M  V30 1058 H 111.308 -1.57597 -7.5656 0
M  V30 1059 H 109.653 -1.4105 -6.80536 0
M  V30 1060 H 112.844 -0.664184 -4.63364 0
M  V30 1061 H 113.017 -1.16884 -6.37371 0
M  V30 1062 N 106.423 1.57458 -0.0668435 0
M  V30 1063 C 107.7 1.8469 0.644132 0
M  V30 1064 C 108.08 0.958343 1.88093 0
M  V30 1065 O 107.428 0.0233579 2.28488 0
M  V30 1066 C 107.638 3.34767 0.986509 0
M  V30 1067 C 108.986 4.02159 1.36212 0
M  V30 1068 O 110.01 3.39484 1.07839 0
M  V30 1069 O 108.869 5.12694 1.89227 0
M  V30 1070 H 105.963 0.762816 0.319437 0
M  V30 1071 H 108.509 1.6942 -0.0973986 0
M  V30 1072 H 107.281 3.91151 0.107883 0
M  V30 1073 H 106.904 3.55281 1.78497 0
M  V30 1074 N 107.901 -0.206675 1.56239 0
M  V30 1075 C 108.849 -1.27571 1.94495 0
M  V30 1076 C 109.843 -1.47737 0.828862 0
M  V30 1077 O 111.049 -1.48735 1.0138 0
M  V30 1078 H 107.424 -0.428029 0.6183 0
M  V30 1079 H 109.395 -0.925961 2.8367 0
M  V30 1080 C 108.144 -2.61568 2.29079 0
M  V30 1081 H 107.467 -2.46863 3.14482 0
M  V30 1082 H 108.907 -3.35144 2.5972 0
M  V30 1083 C 107.366 -3.17695 1.12123 0
M  V30 1084 O 107.896 -3.99801 0.390153 0
M  V30 1085 N 106.102 -2.76276 0.901097 0
M  V30 1086 H 105.649 -2.09613 1.49733 0
M  V30 1087 H 105.607 -3.1417 0.120319 0
M  V30 1088 N 109.379 -1.50304 -0.473955 0
M  V30 1089 C 110.342 -1.6841 -1.55469 0
M  V30 1090 C 111.342 -0.554905 -1.50922 0
M  V30 1091 O 112.532 -0.821882 -1.53593 0
M  V30 1092 C 109.664 -1.70667 -2.95102 0
M  V30 1093 H 110.857 -2.64828 -1.40733 0
M  V30 1094 H 108.41 -1.39742 -0.700132 0
M  V30 1095 H 109.145 -0.75932 -3.15285 0
M  V30 1096 H 108.93 -2.52698 -2.9981 0
M  V30 1097 H 110.42 -1.8664 -3.73571 0
M  V30 1098 N 110.857 0.726932 -1.39834 0
M  V30 1099 C 111.804 1.841 -1.39197 0
M  V30 1100 C 112.774 1.642 -0.250502 0
M  V30 1101 O 113.959 1.85494 -0.446846 0
M  V30 1102 C 111.099 3.21697 -1.24919 0
M  V30 1103 C 110.212 3.53247 -2.48678 0
M  V30 1104 C 109.347 4.80289 -2.26928 0
M  V30 1105 C 108.386 5.04707 -3.4632 0
M  V30 1106 N 107.523 6.22956 -3.23836 0
M  V30 1107 H 112.363 1.83979 -2.34427 0
M  V30 1108 H 109.9 0.898876 -1.16442 0
M  V30 1109 H 111.858 4.01137 -1.1465 0
M  V30 1110 H 110.488 3.21076 -0.333153 0
M  V30 1111 H 109.54 2.68447 -2.69519 0
M  V30 1112 H 110.852 3.67205 -3.37582 0
M  V30 1113 H 110.006 5.67725 -2.13947 0
M  V30 1114 H 108.745 4.68519 -1.35431 0
M  V30 1115 H 107.75 4.1573 -3.5979 0
M  V30 1116 H 108.975 5.18357 -4.38729 0
M  V30 1117 H 106.921 6.12459 -2.35011 0
M  V30 1118 H 106.838 6.37539 -4.063 0
M  V30 1119 H 108.106 7.1321 -3.14566 0
M  V30 1120 N 112.336 1.25143 0.95797 0
M  V30 1121 C 113.752 1.01892 1.22842 0
M  V30 1122 C 113.952 -0.266311 1.99732 0
M  V30 1123 O 113.008 -0.979913 2.3271 0
M  V30 1124 C 114.321 2.24004 2.00606 0
M  V30 1125 C 115.869 2.28731 2.13662 0
M  V30 1126 C 116.344 3.5049 2.94823 0
M  V30 1127 N 117.835 3.50866 3.02403 0
M  V30 1128 C 118.57 4.4174 3.65586 0
M  V30 1129 N 118.066 5.42882 4.30408 0
M  V30 1130 N 119.859 4.29429 3.62694 0
M  V30 1131 H 112.01 2.07718 0.443493 0
M  V30 1132 H 114.273 0.912031 0.258657 0
M  V30 1133 H 113.979 3.17395 1.51503 0
M  V30 1134 H 113.853 2.26907 3.01319 0
M  V30 1135 H 116.24 1.35865 2.61963 0
M  V30 1136 H 116.321 2.29848 1.12265 0
M  V30 1137 H 115.965 4.43676 2.47213 0
M  V30 1138 H 115.895 3.46617 3.96439 0
M  V30 1139 H 118.386 2.777 2.56302 0
M  V30 1140 H 118.699 6.0844 4.76467 0
M  V30 1141 H 117.044 5.46758 4.29047 0
M  V30 1142 H 120.235 3.49643 3.11236 0
M  V30 1143 H 120.408 5.00448 4.1165 0
M  V30 1144 N 113.814 -1.1601 1.06675 0
M  V30 1145 C 114.747 -2.1947 0.625168 0
M  V30 1146 C 115.725 -1.58699 -0.354041 0
M  V30 1147 O 116.909 -1.86669 -0.262098 0
M  V30 1148 C 114.036 -3.38598 -0.0829593 0
M  V30 1149 C 113.082 -4.1787 0.853611 0
M  V30 1150 S 113.915 -4.81135 2.35094 0
M  V30 1151 C 115.071 -6.03639 1.65441 0
M  V30 1152 H 115.304 -2.56587 1.50168 0
M  V30 1153 H 112.837 -1.26862 0.880078 0
M  V30 1154 H 114.795 -4.07621 -0.485288 0
M  V30 1155 H 113.456 -2.99839 -0.935716 0
M  V30 1156 H 112.649 -5.03078 0.304755 0
M  V30 1157 H 112.251 -3.54361 1.196 0
M  V30 1158 H 114.543 -6.70632 0.962201 0
M  V30 1159 H 115.486 -6.63081 2.48454 0
M  V30 1160 H 115.894 -5.52965 1.13534 0
M  V30 1161 N 115.292 -0.849877 -1.32721 0
M  V30 1162 C 116.538 -0.451591 -1.97708 0
M  V30 1163 C 116.871 0.989175 -1.6712 0
M  V30 1164 O 116.146 1.69334 -0.956891 0
M  V30 1165 C 116.429 -0.685598 -3.53513 0
M  V30 1166 C 116.282 -2.17444 -3.93749 0
M  V30 1167 C 117.601 -0.138874 -4.39881 0
M  V30 1168 H 114.72 -0.16555 -0.718166 0
M  V30 1169 H 117.362 -1.06742 -1.57182 0
M  V30 1170 H 115.512 -0.161416 -3.88165 0
M  V30 1171 H 117.184 -2.76433 -3.693 0
M  V30 1172 H 115.427 -2.65476 -3.43081 0
M  V30 1173 H 116.098 -2.28888 -5.02309 0
M  V30 1174 H 118.574 -0.587068 -4.11938 0
M  V30 1175 H 117.45 -0.332213 -5.47894 0
M  V30 1176 H 117.711 0.95806 -4.31594 0
M  V30 1177 N 116.77 1.45427 -0.607355 0
M  V30 1178 C 118 2.06314 -0.108656 0
M  V30 1179 C 118.408 1.45269 1.21217 0
M  V30 1180 O 117.751 0.561115 1.74921 0
M  V30 1181 C 117.813 3.59345 0.105618 0
M  V30 1182 C 117.477 4.42723 -1.13337 0
M  V30 1183 C 118.474 4.77715 -2.05145 0
M  V30 1184 C 116.159 4.83478 -1.36213 0
M  V30 1185 C 118.153 5.52317 -3.18158 0
M  V30 1186 C 115.84 5.57835 -2.49527 0
M  V30 1187 C 116.838 5.92171 -3.40327 0
M  V30 1188 O 116.526 6.65019 -4.51669 0
M  V30 1189 H 116.258 0.672782 -0.0658842 0
M  V30 1190 H 118.812 1.87664 -0.834945 0
M  V30 1191 H 117.042 3.76394 0.886796 0
M  V30 1192 H 118.731 4.02076 0.555886 0
M  V30 1193 H 119.497 4.46787 -1.88697 0
M  V30 1194 H 115.376 4.56188 -0.664362 0
M  V30 1195 H 118.92 5.79036 -3.89054 0
M  V30 1196 H 114.817 5.88177 -2.65928 0
M  V30 1197 H 115.585 6.83469 -4.50348 0
M  V30 1198 N 118.248 0.346503 1.53744 0
M  V30 1199 C 119.178 -0.501193 2.28058 0
M  V30 1200 C 120.159 -1.10014 1.29734 0
M  V30 1201 O 121.344 -1.12097 1.58581 0
M  V30 1202 C 118.474 -1.65078 3.05559 0
M  V30 1203 C 117.428 -1.18003 4.11411 0
M  V30 1204 C 116.754 -2.41837 4.76884 0
M  V30 1205 C 118.054 -0.278394 5.21558 0
M  V30 1206 H 119.748 0.11875 2.99164 0
M  V30 1207 H 117.294 0.0585531 1.43881 0
M  V30 1208 H 119.247 -2.25028 3.56287 0
M  V30 1209 H 117.971 -2.29767 2.32109 0
M  V30 1210 H 116.63 -0.603331 3.61601 0
M  V30 1211 H 116.278 -3.0494 4.00026 0
M  V30 1212 H 115.978 -2.1102 5.48402 0
M  V30 1213 H 117.502 -3.02508 5.30397 0
M  V30 1214 H 118.916 -0.784823 5.67903 0
M  V30 1215 H 117.313 -0.0619707 6.00068 0
M  V30 1216 H 118.383 0.684677 4.80042 0
M  V30 1217 N 119.726 -1.57421 0.075193 0
M  V30 1218 C 120.658 -2.09904 -0.920483 0
M  V30 1219 C 121.671 -1.03191 -1.25918 0
M  V30 1220 O 122.86 -1.30695 -1.21577 0
M  V30 1221 C 119.96 -2.54726 -2.23534 0
M  V30 1222 C 119.133 -3.8505 -2.07498 0
M  V30 1223 C 118.192 -4.15929 -3.22319 0
M  V30 1224 O 117.218 -4.85474 -2.9716 0
M  V30 1225 N 118.42 -3.69745 -4.47514 0
M  V30 1226 H 121.185 -2.95954 -0.472359 0
M  V30 1227 H 118.746 -1.61523 -0.110444 0
M  V30 1228 H 120.738 -2.72443 -2.9926 0
M  V30 1229 H 119.308 -1.73795 -2.59835 0
M  V30 1230 H 118.528 -3.76679 -1.16219 0
M  V30 1231 H 119.816 -4.70348 -1.94038 0
M  V30 1232 H 119.214 -3.13569 -4.7084 0
M  V30 1233 H 117.771 -3.92655 -5.20255 0
M  V30 1234 N 121.204 0.198386 -1.56346 0
M  V30 1235 C 122.137 1.27381 -1.89339 0
M  V30 1236 C 123.115 1.44106 -0.753134 0
M  V30 1237 O 124.299 1.59549 -1.00381 0
M  V30 1238 C 121.426 2.6409 -2.12071 0
M  V30 1239 C 120.472 2.64253 -3.34772 0
M  V30 1240 S 121.305 2.16013 -4.89999 0
M  V30 1241 C 122.461 3.54553 -5.15794 0
M  V30 1242 H 122.694 0.992058 -2.8026 0
M  V30 1243 H 120.227 0.401726 -1.49082 0
M  V30 1244 H 122.185 3.42786 -2.2585 0
M  V30 1245 H 120.846 2.89478 -1.21906 0
M  V30 1246 H 120.039 3.64768 -3.47794 0
M  V30 1247 H 119.641 1.93637 -3.1997 0
M  V30 1248 H 121.933 4.50396 -5.06112 0
M  V30 1249 H 122.876 3.46428 -6.1757 0
M  V30 1250 H 123.284 3.49313 -4.43442 0
M  V30 1251 N 122.682 1.50554 0.465978 0
M  V30 1252 C 123.63 1.70324 1.58406 0
M  V30 1253 C 124.624 0.569139 1.59553 0
M  V30 1254 O 125.83 0.749776 1.63641 0
M  V30 1255 H 122.205 0.537688 0.525734 0
M  V30 1256 H 124.176 2.64104 1.38894 0
M  V30 1257 C 122.925 1.81928 2.96307 0
M  V30 1258 H 122.248 2.68586 2.96144 0
M  V30 1259 H 123.688 1.99784 3.73982 0
M  V30 1260 C 122.147 0.572095 3.32007 0
M  V30 1261 O 122.677 -0.286416 4.00678 0
M  V30 1262 N 120.883 0.424606 2.87481 0
M  V30 1263 H 120.43 1.12427 2.31771 0
M  V30 1264 H 120.388 -0.408697 3.11732 0
M  V30 1265 N 124.16 -0.719506 1.40217 0
M  V30 1266 C 125.385 -1.51371 1.4178 0
M  V30 1267 C 125.81 -1.88091 0.0182355 0
M  V30 1268 O 125.168 -1.52997 -0.972707 0
M  V30 1269 C 125.216 -2.768 2.31115 0
M  V30 1270 O 124.32 -3.73349 1.7517 0
M  V30 1271 H 123.661 -0.456529 0.482159 0
M  V30 1272 H 126.191 -0.88644 1.844 0
M  V30 1273 H 126.201 -3.25371 2.46167 0
M  V30 1274 H 124.876 -2.49407 3.3282 0
M  V30 1275 H 123.453 -3.32179 1.69444 0
M  V30 1276 N 125.638 -1.25649 -0.95132 0
M  V30 1277 C 126.568 -1.08808 -2.06599 0
M  V30 1278 C 127.549 0.00382547 -1.701 0
M  V30 1279 O 128.734 -0.166325 -1.93486 0
M  V30 1280 C 125.864 -0.709542 -3.39975 0
M  V30 1281 C 124.818 -1.75206 -3.90496 0
M  V30 1282 C 124.144 -1.22811 -5.20405 0
M  V30 1283 C 125.444 -3.15153 -4.16504 0
M  V30 1284 H 127.138 -2.02048 -2.20946 0
M  V30 1285 H 124.684 -0.972835 -1.06169 0
M  V30 1286 H 126.637 -0.578649 -4.17408 0
M  V30 1287 H 125.361 0.258556 -3.25575 0
M  V30 1288 H 124.02 -1.87145 -3.15234 0
M  V30 1289 H 123.668 -0.250145 -5.02378 0
M  V30 1290 H 123.368 -1.92492 -5.55176 0
M  V30 1291 H 124.892 -1.10968 -6.00432 0
M  V30 1292 H 126.306 -3.06349 -4.84586 0
M  V30 1293 H 124.703 -3.82333 -4.62538 0
M  V30 1294 H 125.773 -3.61966 -3.22658 0
M  V30 1295 N 127.117 1.15442 -1.07289 0
M  V30 1296 C 128.533 1.38201 -0.798288 0
M  V30 1297 C 128.733 1.92429 0.597769 0
M  V30 1298 O 127.789 2.12962 1.3566 0
M  V30 1299 C 129.102 2.35357 -1.87156 0
M  V30 1300 C 130.65 2.49021 -1.89624 0
M  V30 1301 C 131.125 3.49468 -2.96034 0
M  V30 1302 N 132.616 3.57003 -2.95132 0
M  V30 1303 C 133.351 4.34543 -3.74112 0
M  V30 1304 N 132.847 5.15421 -4.6294 0
M  V30 1305 N 134.64 4.29625 -3.62462 0
M  V30 1306 H 126.791 0.78584 -1.97328 0
M  V30 1307 H 129.054 0.408065 -0.855679 0
M  V30 1308 H 128.76 2.02626 -2.87464 0
M  V30 1309 H 128.634 3.35129 -1.73114 0
M  V30 1310 H 131.021 2.81051 -0.899687 0
M  V30 1311 H 131.102 1.4925 -2.07745 0
M  V30 1312 H 130.746 3.18173 -3.95889 0
M  V30 1313 H 130.676 4.48992 -2.75161 0
M  V30 1314 H 133.167 2.99276 -2.30743 0
M  V30 1315 H 133.48 5.7183 -5.19837 0
M  V30 1316 H 131.825 5.14729 -4.66989 0
M  V30 1317 H 135.016 3.65505 -2.92444 0
M  V30 1318 H 135.189 4.89807 -4.24256 0
M  V30 1319 N 128.595 0.856903 1.32268 0
M  V30 1320 C 129.558 0.308171 2.27119 0
M  V30 1321 C 130.558 -0.533421 1.51695 0
M  V30 1322 O 131.748 -0.344607 1.70757 0
M  V30 1323 C 128.88 -0.563757 3.36206 0
M  V30 1324 H 130.073 1.14535 2.77167 0
M  V30 1325 H 127.626 0.631421 1.42978 0
M  V30 1326 H 128.361 -1.42266 2.91429 0
M  V30 1327 H 128.146 0.0386749 3.92081 0
M  V30 1328 H 129.636 -0.940386 4.06874 0
M  V30 1329 N 130.073 -1.45103 0.615059 0
M  V30 1330 C 130.983 -2.34382 -0.101034 0
M  V30 1331 C 131.999 -1.51681 -0.852585 0
M  V30 1332 O 133.175 -1.8446 -0.808484 0
M  V30 1333 C 130.24 -3.29417 -1.08099 0
M  V30 1334 C 129.301 -4.28025 -0.330577 0
M  V30 1335 C 128.534 -5.1852 -1.26385 0
M  V30 1336 O 128.757 -5.12598 -2.50198 0
M  V30 1337 O 127.691 -5.97122 -0.756866 0
M  V30 1338 H 131.517 -2.97033 0.632855 0
M  V30 1339 H 129.102 -1.4461 0.375293 0
M  V30 1340 H 130.984 -3.87958 -1.6452 0
M  V30 1341 H 129.659 -2.69321 -1.79577 0
M  V30 1342 H 128.566 -3.73078 0.276283 0
M  V30 1343 H 129.899 -4.90997 0.343866 0
M  V30 1344 N 131.551 -0.354651 -1.53558 0
M  V30 1345 C 132.828 0.294281 -1.93374 0
M  V30 1346 C 133.208 1.67313 -1.28723 0
M  V30 1347 O 132.556 2.24179 -0.442247 0
M  V30 1348 C 132.766 0.355445 -3.47185 0
M  V30 1349 C 134.114 0.601007 -4.20325 0
M  V30 1350 O 135.138 0.437106 -3.53508 0
M  V30 1351 O 133.997 0.919322 -5.38712 0
M  V30 1352 H 131.091 0.174033 -0.808481 0
M  V30 1353 H 133.637 -0.406638 -1.64756 0
M  V30 1354 H 132.409 -0.611729 -3.86489 0
M  V30 1355 H 132.032 1.1027 -3.82003 0
M  V30 1356 N 133.029 1.57378 -0.0835403 0
M  V30 1357 C 134.257 1.98263 0.59157 0
M  V30 1358 C 134.672 0.962302 1.62435 0
M  V30 1359 O 134.029 -0.049581 1.82433 0
M  V30 1360 C 134.08 3.39214 1.24965 0
M  V30 1361 O 133.801 4.37339 0.258186 0
M  V30 1362 C 135.302 3.95038 2.01147 0
M  V30 1363 H 132.522 0.651773 0.159477 0
M  V30 1364 H 135.066 2.03878 -0.159415 0
M  V30 1365 H 133.221 3.34649 1.95164 0
M  V30 1366 H 133.635 5.19371 0.731734 0
M  V30 1367 H 135.109 4.95848 2.42567 0
M  V30 1368 H 135.586 3.32222 2.87272 0
M  V30 1369 H 136.192 4.0304 1.35789 0
M  V30 1370 N 134.507 -0.190092 1.56449 0
M  V30 1371 C 135.47 -1.21925 1.9408 0
M  V30 1372 C 136.47 -1.38176 0.822431 0
M  V30 1373 O 137.66 -1.35903 1.08977 0
M  V30 1374 C 134.792 -2.58773 2.21922 0
M  V30 1375 H 135.985 -0.897464 2.86157 0
M  V30 1376 H 133.538 -0.43181 1.50217 0
M  V30 1377 H 134.273 -2.95998 1.32499 0
M  V30 1378 H 134.058 -2.48348 3.03424 0
M  V30 1379 H 135.548 -3.32978 2.52022 0
M  V30 1380 N 135.985 -1.50799 -0.457987 0
M  V30 1381 C 137.231 -1.62683 -1.21088 0
M  V30 1382 C 137.564 -0.332268 -1.91336 0
M  V30 1383 O 136.839 0.667043 -1.82704 0
M  V30 1384 C 137.122 -2.81615 -2.24422 0
M  V30 1385 C 136.975 -4.20989 -1.58392 0
M  V30 1386 C 138.294 -2.96085 -3.2561 0
M  V30 1387 H 135.413 -0.592087 -0.438864 0
M  V30 1388 H 138.055 -1.83225 -0.50286 0
M  V30 1389 H 136.205 -2.64231 -2.84806 0
M  V30 1390 H 137.877 -4.49994 -1.01504 0
M  V30 1391 H 136.12 -4.24641 -0.886704 0
M  V30 1392 H 136.791 -5.0016 -2.33547 0
M  V30 1393 H 139.267 -3.12042 -2.75262 0
M  V30 1394 H 138.143 -3.80902 -3.95228 0
M  V30 1395 H 138.404 -2.0726 -3.90507 0
M  V30 1396 N 137.463 0.71206 -1.40597 0
M  V30 1397 C 138.693 1.49894 -1.42181 0
M  V30 1398 C 139.101 1.89189 -0.0208078 0
M  V30 1399 O 138.444 1.56223 0.966436 0
M  V30 1400 C 138.506 2.80215 -2.25211 0
M  V30 1401 C 138.17 2.63221 -3.73582 0
M  V30 1402 C 139.167 2.30249 -4.66135 0
M  V30 1403 C 136.852 2.79376 -4.17438 0
M  V30 1404 C 138.846 2.13645 -6.00529 0
M  V30 1405 C 136.533 2.6239 -5.51901 0
M  V30 1406 C 137.531 2.29573 -6.43262 0
M  V30 1407 O 137.219 2.12719 -7.75246 0
M  V30 1408 H 136.951 0.469031 -0.486812 0
M  V30 1409 H 139.505 0.88564 -1.85326 0
M  V30 1410 H 137.735 3.4389 -1.76852 0
M  V30 1411 H 139.424 3.41947 -2.18694 0
M  V30 1412 H 140.19 2.17398 -4.33547 0
M  V30 1413 H 136.069 3.03906 -3.46644 0
M  V30 1414 H 139.613 1.87953 -6.71803 0
M  V30 1415 H 135.51 2.74826 -5.84073 0
M  V30 1416 H 136.278 2.27611 -7.86216 0
M  V30 1417 N 138.941 1.26152 0.944643 0
M  V30 1418 C 140.171 1.14094 1.72239 0
M  V30 1419 C 140.579 -0.306931 1.86694 0
M  V30 1420 O 139.922 -1.22222 1.3714 0
M  V30 1421 C 139.984 1.73316 3.14963 0
M  V30 1422 C 139.648 3.2239 3.23904 0
M  V30 1423 C 140.645 4.19252 3.07447 0
M  V30 1424 C 138.33 3.62788 3.47405 0
M  V30 1425 C 140.324 5.54491 3.14353 0
M  V30 1426 C 138.011 4.98162 3.53947 0
M  V30 1427 C 139.009 5.93823 3.37436 0
M  V30 1428 O 138.697 7.26732 3.43679 0
M  V30 1429 H 138.429 0.398292 0.546205 0
M  V30 1430 H 140.983 1.67201 1.19301 0
M  V30 1431 H 139.213 1.14667 3.69308 0
M  V30 1432 H 140.902 1.56214 3.74636 0
M  V30 1433 H 141.668 3.8938 2.8915 0
M  V30 1434 H 137.547 2.88816 3.59313 0
M  V30 1435 H 141.091 6.29137 3.01384 0
M  V30 1436 H 136.988 5.27695 3.71763 0
M  V30 1437 H 137.756 7.3496 3.60245 0
M  V30 1438 N 140.419 -1.14872 1.07899 0
M  V30 1439 C 141.659 -1.8745 0.814965 0
M  V30 1440 C 142.023 -1.80758 -0.64733 0
M  V30 1441 O 143.224 -2.48422 -1.02664 0
M  V30 1442 C 141.495 -3.32286 1.31607 0
M  V30 1443 S 143.054 -4.22537 1.18357 0
M  V30 1444 H 139.872 -0.646833 0.295174 0
M  V30 1445 H 142.474 -1.38555 1.37923 0
M  V30 1446 H 141.178 -3.34703 2.37491 0
M  V30 1447 H 140.709 -3.86238 0.747261 0
M  V30 1448 H 142.724 -4.96044 0.124586 0
M  V30 1449 N 141.898 -0.863906 -1.31812 0
M  V30 1450 C 142.861 -0.320212 -2.26952 0
M  V30 1451 C 143.861 0.525369 -1.51975 0
M  V30 1452 O 145.051 0.335547 -1.70938 0
M  V30 1453 C 142.183 0.545919 -3.365 0
M  V30 1454 H 143.376 -1.16004 -2.76556 0
M  V30 1455 H 140.929 -0.638995 -1.42641 0
M  V30 1456 H 141.664 1.40718 -2.92179 0
M  V30 1457 H 141.449 -0.0594674 -3.92055 0
M  V30 1458 H 142.939 0.918796 -4.07367 0
M  V30 1459 N 143.376 1.44774 -0.622745 0
M  V30 1460 C 144.339 2.29069 0.0774015 0
M  V30 1461 C 145.339 1.4059 0.780461 0
M  V30 1462 O 146.529 1.62551 0.626322 0
M  V30 1463 C 143.661 3.21974 1.12006 0
M  V30 1464 H 144.854 2.92459 -0.663901 0
M  V30 1465 H 142.407 1.51548 -0.382486 0
M  V30 1466 H 143.142 2.63417 1.89162 0
M  V30 1467 H 142.927 3.87168 0.619951 0
M  V30 1468 H 144.417 3.85318 1.60995 0
M  V30 1469 N 144.854 0.36279 1.53368 0
M  V30 1470 C 145.817 -0.472679 2.24273 0
M  V30 1471 C 146.817 -1.012 1.24961 0
M  V30 1472 O 148.007 -0.898194 1.49259 0
M  V30 1473 C 145.139 -1.66039 2.97731 0
M  V30 1474 H 146.332 0.14773 2.99536 0
M  V30 1475 H 143.885 0.114434 1.55881 0
M  V30 1476 H 144.62 -2.31896 2.26704 0
M  V30 1477 H 144.405 -1.28066 3.70596 0
M  V30 1478 H 145.895 -2.25252 3.51641 0
M  V30 1479 N 146.332 -1.57332 0.0918853 0
M  V30 1480 C 147.58 -1.93853 -0.571446 0
M  V30 1481 C 147.901 -0.974212 -1.6892 0
M  V30 1482 O 147.171 -0.0257254 -1.95883 0
M  V30 1483 H 145.751 -0.715666 -0.214082 0
M  V30 1484 H 148.413 -1.94287 0.154464 0
M  V30 1485 H 147.509 -2.96191 -0.983729 0
M  V30 1486 N 147.81 0.181792 -1.56548 0
M  V30 1487 C 149.056 0.901431 -1.81665 0
M  V30 1488 C 149.389 1.82347 -0.668075 0
M  V30 1489 O 148.664 1.91669 0.330615 0
M  V30 1490 C 148.947 1.70618 -3.17115 0
M  V30 1491 C 148.8 0.807964 -4.42484 0
M  V30 1492 C 150.119 2.67605 -3.49393 0
M  V30 1493 H 147.238 0.32627 -0.660846 0
M  V30 1494 H 149.88 0.168134 -1.89255 0
M  V30 1495 H 148.03 2.33133 -3.10775 0
M  V30 1496 H 149.702 0.19649 -4.60881 0
M  V30 1497 H 147.945 0.115411 -4.33646 0
M  V30 1498 H 148.616 1.40632 -5.33785 0
M  V30 1499 H 151.092 2.15218 -3.56118 0
M  V30 1500 H 149.968 3.20985 -4.45264 0
M  V30 1501 H 150.229 3.47298 -2.73563 0
M  V30 1502 N 149.288 1.51039 0.449983 0
M  V30 1503 C 150.704 1.38934 0.785462 0
M  V30 1504 C 150.904 0.461817 1.96136 0
M  V30 1505 O 149.96 -0.0877389 2.52348 0
M  V30 1506 C 151.273 2.80724 1.0777 0
M  V30 1507 C 152.821 2.89787 1.1829 0
M  V30 1508 C 153.296 4.32457 1.50815 0
M  V30 1509 N 154.787 4.35505 1.57764 0
M  V30 1510 C 155.522 5.42914 1.84477 0
M  V30 1511 N 155.018 6.60502 2.09068 0
M  V30 1512 N 156.811 5.3038 1.86155 0
M  V30 1513 H 148.962 2.09904 -0.324647 0
M  V30 1514 H 151.225 0.944378 -0.0827957 0
M  V30 1515 H 150.931 3.50531 0.286498 0
M  V30 1516 H 150.805 3.19273 2.00859 0
M  V30 1517 H 153.192 2.20186 1.96474 0
M  V30 1518 H 153.273 2.54752 0.231314 0
M  V30 1519 H 152.917 5.02603 0.731622 0
M  V30 1520 H 152.847 4.64995 2.47158 0
M  V30 1521 H 155.338 3.50724 1.40715 0
M  V30 1522 H 155.651 7.38158 2.28785 0
M  V30 1523 H 153.996 6.63639 2.06416 0
M  V30 1524 H 157.187 4.37505 1.66454 0
M  V30 1525 H 157.36 6.1417 2.06637 0
M  V30 1526 N 150.766 -0.704594 1.40972 0
M  V30 1527 C 151.729 -1.80035 1.41845 0
M  V30 1528 C 152.729 -1.57774 0.310474 0
M  V30 1529 O 153.919 -1.64613 0.56992 0
M  V30 1530 C 151.051 -3.18284 1.22098 0
M  V30 1531 H 152.244 -1.80658 2.3938 0
M  V30 1532 H 149.797 -0.911329 1.26982 0
M  V30 1533 H 150.532 -3.23306 0.253672 0
M  V30 1534 H 150.317 -3.35843 2.02366 0
M  V30 1535 H 151.807 -3.98289 1.25522 0
M  V30 1536 N 152.244 -1.26651 -0.937939 0
M  V30 1537 C 153.154 -1.10276 -2.07066 0
M  V30 1538 C 154.17 -0.0354197 -1.73964 0
M  V30 1539 O 155.346 -0.239816 -1.99967 0
M  V30 1540 C 152.411 -0.740887 -3.38691 0
M  V30 1541 C 151.472 -1.88799 -3.85556 0
M  V30 1542 C 150.705 -1.54329 -5.10899 0
M  V30 1543 O 150.928 -0.446494 -5.6865 0
M  V30 1544 O 149.862 -2.37911 -5.52885 0
M  V30 1545 H 153.688 -2.05309 -2.23789 0
M  V30 1546 H 151.273 -1.05743 -1.0554 0
M  V30 1547 H 153.155 -0.55195 -4.1777 0
M  V30 1548 H 151.83 0.180022 -3.23199 0
M  V30 1549 H 150.737 -2.13191 -3.07409 0
M  V30 1550 H 152.07 -2.78874 -4.05574 0
M  V30 1551 N 153.722 1.14298 -1.08507 0
M  V30 1552 C 154.999 1.81544 -0.728088 0
M  V30 1553 C 155.379 1.95838 0.78808 0
M  V30 1554 O 154.727 1.51904 1.70697 0
M  V30 1555 C 154.937 3.17169 -1.45619 0
M  V30 1556 C 156.285 3.9265 -1.61591 0
M  V30 1557 O 157.309 3.26762 -1.41793 0
M  V30 1558 O 156.168 5.10807 -1.94263 0
M  V30 1559 H 153.262 0.78491 -0.260471 0
M  V30 1560 H 155.808 1.21307 -1.18671 0
M  V30 1561 H 154.58 3.01934 -2.489 0
M  V30 1562 H 154.203 3.851 -0.989124 0
M  V30 1563 N 155.201 0.870884 1.31352 0
M  V30 1564 C 156.449 0.48132 1.96285 0
M  V30 1565 C 156.77 -0.969813 1.69173 0
M  V30 1566 O 156.04 -1.67998 1.00764 0
M  V30 1567 H 154.62 0.175002 0.726212 0
M  V30 1568 H 157.282 1.11087 1.60143 0
M  V30 1569 H 156.378 0.639825 3.05471 0
M  V30 1570 N 156.679 -1.44442 0.630414 0
M  V30 1571 C 158.095 -1.56832 0.295973 0
M  V30 1572 C 158.295 -1.61806 -1.20088 0
M  V30 1573 O 157.351 -1.5607 -1.9849 0
M  V30 1574 C 158.664 -2.84031 0.987264 0
M  V30 1575 C 160.212 -2.97742 0.96534 0
M  V30 1576 C 160.687 -4.27743 1.63708 0
M  V30 1577 N 162.178 -4.34555 1.60364 0
M  V30 1578 C 162.913 -5.33862 2.09234 0
M  V30 1579 N 162.409 -6.39578 2.66292 0
M  V30 1580 N 164.202 -5.25366 1.99867 0
M  V30 1581 H 156.353 -1.39457 1.60205 0
M  V30 1582 H 158.616 -0.668237 0.672431 0
M  V30 1583 H 158.322 -2.86338 2.04215 0
M  V30 1584 H 158.196 -3.73534 0.524588 0
M  V30 1585 H 160.583 -2.94989 -0.0810639 0
M  V30 1586 H 160.664 -2.09589 1.4665 0
M  V30 1587 H 160.308 -4.31255 2.68293 0
M  V30 1588 H 160.238 -5.14752 1.11076 0
M  V30 1589 H 162.729 -3.58772 1.18705 0
M  V30 1590 H 163.042 -7.11637 3.01317 0
M  V30 1591 H 161.387 -6.40265 2.70343 0
M  V30 1592 H 164.578 -4.41688 1.55013 0
M  V30 1593 H 164.751 -6.02606 2.38265 0
M  V30 1594 N 158.157 -0.370918 -1.53173 0
M  V30 1595 C 159.403 0.217423 -2.01631 0
M  V30 1596 C 159.736 1.47983 -1.25756 0
M  V30 1597 O 159.011 1.91274 -0.352764 0
M  V30 1598 C 159.294 0.503982 -3.56556 0
M  V30 1599 C 159.147 -0.77243 -4.43118 0
M  V30 1600 C 160.466 1.30234 -4.20389 0
M  V30 1601 H 157.585 0.0775486 -0.732909 0
M  V30 1602 H 160.227 -0.496863 -1.83388 0
M  V30 1603 H 158.377 1.11248 -3.72231 0
M  V30 1604 H 160.049 -1.4098 -4.39229 0
M  V30 1605 H 158.292 -1.39167 -4.10871 0
M  V30 1606 H 158.963 -0.526815 -5.4948 0
M  V30 1607 H 161.439 0.787546 -4.08579 0
M  V30 1608 H 160.315 1.47158 -5.28806 0
M  V30 1609 H 160.576 2.31237 -3.76805 0
M  V30 1610 N 159.635 1.57281 -0.100228 0
M  V30 1611 C 161.051 1.57527 0.256416 0
M  V30 1612 C 161.251 1.11173 1.68056 0
M  V30 1613 O 160.307 0.79053 2.39806 0
M  V30 1614 C 161.62 3.00673 0.0401747 0
M  V30 1615 C 163.168 3.12815 0.107528 0
M  V30 1616 C 163.643 4.57929 -0.0807834 0
M  V30 1617 N 165.134 4.63193 -0.0261207 0
M  V30 1618 C 165.869 5.73212 -0.146999 0
M  V30 1619 N 165.365 6.92047 -0.322999 0
M  V30 1620 N 167.158 5.62031 -0.0879044 0
M  V30 1621 H 159.309 1.85718 -1.03065 0
M  V30 1622 H 161.572 0.857446 -0.404339 0
M  V30 1623 H 161.278 3.38804 -0.943649 0
M  V30 1624 H 161.152 3.69042 0.780262 0
M  V30 1625 H 163.539 2.74554 1.08186 0
M  V30 1626 H 163.62 2.47028 -0.664134 0
M  V30 1627 H 163.264 4.96886 -1.05201 0
M  V30 1628 H 163.194 5.21783 0.710635 0
M  V30 1629 H 165.685 3.77748 0.107161 0
M  V30 1630 H 165.998 7.7173 -0.406608 0
M  V30 1631 H 164.343 6.94074 -0.358733 0
M  V30 1632 H 167.534 4.68075 0.048498 0
M  V30 1633 H 167.707 6.47734 -0.185557 0
M  V30 1634 N 161.113 -0.173488 1.56642 0
M  V30 1635 C 162.341 -0.906095 1.86004 0
M  V30 1636 C 162.756 -1.75921 0.685355 0
M  V30 1637 O 162.113 -1.79198 -0.345578 0
M  V30 1638 C 162.164 -1.78462 3.14378 0
M  V30 1639 O 161.885 -0.965914 4.27319 0
M  V30 1640 C 163.386 -2.62707 3.57071 0
M  V30 1641 H 160.606 -0.263341 0.617165 0
M  V30 1642 H 163.15 -0.174236 2.03756 0
M  V30 1643 H 161.305 -2.46984 2.98459 0
M  V30 1644 H 161.719 -1.56655 5.00559 0
M  V30 1645 H 163.193 -3.19969 4.49804 0
M  V30 1646 H 163.67 -3.37472 2.81086 0
M  V30 1647 H 164.276 -1.99521 3.75595 0
M  V30 1648 N 162.591 -1.51276 -0.441967 0
M  V30 1649 C 163.521 -1.752 -1.54361 0
M  V30 1650 C 164.502 -0.601682 -1.59103 0
M  V30 1651 O 165.687 -0.843913 -1.74905 0
M  V30 1652 C 162.817 -1.87282 -2.92477 0
M  V30 1653 C 161.771 -3.02687 -3.02596 0
M  V30 1654 C 161.097 -2.99947 -4.42647 0
M  V30 1655 C 162.397 -4.4273 -2.77106 0
M  V30 1656 H 164.091 -2.67442 -1.34592 0
M  V30 1657 H 161.637 -1.28694 -0.646048 0
M  V30 1658 H 163.59 -2.02602 -3.695 0
M  V30 1659 H 162.314 -0.916844 -3.13467 0
M  V30 1660 H 160.973 -2.87065 -2.28012 0
M  V30 1661 H 160.621 -2.02136 -4.60597 0
M  V30 1662 H 160.321 -3.77439 -4.50348 0
M  V30 1663 H 161.845 -3.17354 -5.2165 0
M  V30 1664 H 163.259 -4.58727 -3.43864 0
M  V30 1665 H 161.656 -5.21893 -2.96222 0
M  V30 1666 H 162.726 -4.53087 -1.72744 0
M  V30 1667 N 164.069 0.697108 -1.41344 0
M  V30 1668 C 165.48 1.27697 -1.36199 0
M  V30 1669 C 165.831 1.9615 -0.0443463 0
M  V30 1670 O 164.956 1.98689 0.857419 0
M  V30 1671 C 165.551 2.32223 -2.46694 0
M  V30 1672 C 164.11 2.8579 -2.44952 0
M  V30 1673 C 163.257 1.59807 -2.26621 0
M  V30 1674 H 166.208 0.491968 -1.50882 0
M  V30 1675 H 166.229 3.1348 -2.15664 0
M  V30 1676 H 165.741 1.82373 -3.42581 0
M  V30 1677 H 163.842 3.3982 -1.52817 0
M  V30 1678 H 163.955 3.36325 -3.41207 0
M  V30 1679 H 162.319 1.8556 -1.7447 0
M  V30 1680 H 163.102 1.11956 -3.24532 0
M  V30 1681 N 165.547 1.27147 0.931209 0
M  V30 1682 C 166.772 1.16191 1.71797 0
M  V30 1683 C 167.197 -0.278004 1.86034 0
M  V30 1684 O 166.555 -1.20137 1.35782 0
M  V30 1685 C 166.603 1.84673 3.09723 0
M  V30 1686 O 165.707 1.14231 3.96264 0
M  V30 1687 H 165.048 0.404303 0.526721 0
M  V30 1688 H 167.578 1.68152 1.1656 0
M  V30 1689 H 167.588 1.91893 3.60057 0
M  V30 1690 H 166.263 2.89421 2.98677 0
M  V30 1691 H 164.84 1.15056 3.54706 0
M  V30 1692 N 167.025 -1.13721 1.09112 0
M  V30 1693 C 167.935 -2.22638 0.73957 0
M  V30 1694 C 168.951 -1.72091 -0.257068 0
M  V30 1695 O 170.127 -2.01155 -0.0992154 0
M  V30 1696 C 167.192 -3.46322 0.16191 0
M  V30 1697 C 166.253 -4.11775 1.21408 0
M  V30 1698 C 165.486 -5.29555 0.663891 0
M  V30 1699 O 165.709 -5.68077 -0.514274 0
M  V30 1700 O 164.643 -5.84973 1.41738 0
M  V30 1701 H 168.469 -2.55074 1.64836 0
M  V30 1702 H 166.054 -1.21791 0.865289 0
M  V30 1703 H 167.936 -4.21107 -0.157073 0
M  V30 1704 H 166.611 -3.15593 -0.719932 0
M  V30 1705 H 165.518 -3.3883 1.58571 0
M  V30 1706 H 166.851 -4.46627 2.06845 0
M  V30 1707 N 168.503 -0.877838 -1.30888 0
M  V30 1708 C 169.733 -0.506678 -2.00291 0
M  V30 1709 C 170.141 0.907449 -1.66018 0
M  V30 1710 O 169.484 1.60719 -0.88967 0
M  V30 1711 C 169.546 -0.59323 -3.54572 0
M  V30 1712 C 169.21 -1.97038 -4.12341 0
M  V30 1713 C 170.207 -2.93889 -4.28865 0
M  V30 1714 C 167.892 -2.27383 -4.47886 0
M  V30 1715 C 169.886 -4.19224 -4.80136 0
M  V30 1716 C 167.573 -3.52965 -4.98857 0
M  V30 1717 C 168.571 -4.48701 -5.14934 0
M  V30 1718 O 168.259 -5.72056 -5.64808 0
M  V30 1719 H 167.991 -0.1951 -0.647234 0
M  V30 1720 H 170.545 -1.18301 -1.6791 0
M  V30 1721 H 168.775 0.140057 -3.86446 0
M  V30 1722 H 170.464 -0.234372 -4.05223 0
M  V30 1723 H 171.23 -2.71756 -4.01714 0
M  V30 1724 H 167.109 -1.53639 -4.34645 0
M  V30 1725 H 170.653 -4.93956 -4.92599 0
M  V30 1726 H 166.55 -3.74939 -5.25443 0
M  V30 1727 H 167.318 -5.74337 -5.83163 0
M  V30 1728 N 169.982 1.44106 -0.638065 0
M  V30 1729 C 171.21 2.06336 -0.152615 0
M  V30 1730 C 171.625 1.47731 1.17563 0
M  V30 1731 O 170.982 0.602806 1.72257 0
M  V30 1732 C 171.033 3.61479 -0.0391491 0
M  V30 1733 O 170.754 4.17903 -1.31487 0
M  V30 1734 C 172.255 4.40757 0.474176 0
M  V30 1735 H 169.475 0.665862 -0.0828776 0
M  V30 1736 H 172.019 1.84862 -0.87443 0
M  V30 1737 H 170.174 3.82191 0.633142 0
M  V30 1738 H 170.588 5.11416 -1.16421 0
M  V30 1739 H 172.062 5.49707 0.502562 0
M  V30 1740 H 172.539 4.12697 1.50258 0
M  V30 1741 H 173.145 4.24979 -0.165102 0
M  V30 1742 N 171.46 0.379036 1.52974 0
M  V30 1743 C 172.707 -0.206421 2.01445 0
M  V30 1744 C 173.035 -1.47668 1.26587 0
M  V30 1745 O 172.29 -1.92514 0.351675 0
M  V30 1746 C 172.589 -0.53096 3.53434 0
M  V30 1747 C 172.255 0.646546 4.46241 0
M  V30 1748 C 170.917 0.969604 4.7133 0
M  V30 1749 C 173.269 1.43479 5.01062 0
M  V30 1750 C 170.597 2.08263 5.48492 0
M  V30 1751 C 172.949 2.53834 5.7944 0
M  V30 1752 C 171.613 2.86659 6.02812 0
M  V30 1753 H 170.883 -0.0755349 0.73714 0
M  V30 1754 H 173.53 0.514271 1.84465 0
M  V30 1755 H 171.835 -1.33285 3.68432 0
M  V30 1756 H 173.532 -0.996417 3.88423 0
M  V30 1757 H 170.122 0.384734 4.2687 0
M  V30 1758 H 174.306 1.19844 4.81613 0
M  V30 1759 H 169.562 2.34078 5.64816 0
M  V30 1760 H 173.736 3.15319 6.20924 0
M  V30 1761 H 171.363 3.73026 6.62387 0
M  V30 1762 N 172.938 -1.57226 0.108567 0
M  V30 1763 C 174.184 -1.95919 -0.546564 0
M  V30 1764 C 174.539 -0.990417 -1.6495 0
M  V30 1765 O 173.832 -0.0186593 -1.91591 0
M  V30 1766 C 174.026 -3.38911 -1.13463 0
M  V30 1767 C 173.855 -4.4961 -0.0901926 0
M  V30 1768 C 172.625 -5.04168 0.338008 0
M  V30 1769 C 174.823 -5.09693 0.686808 0
M  V30 1770 N 172.805 -5.98434 1.36931 0
M  V30 1771 C 174.176 -5.99804 1.56958 0
M  V30 1772 C 176.231 -4.92388 0.738846 0
M  V30 1773 C 174.934 -6.74463 2.49983 0
M  V30 1774 C 176.96 -5.67719 1.65676 0
M  V30 1775 C 176.322 -6.57507 2.52713 0
M  V30 1776 H 172.421 -0.763312 -0.169936 0
M  V30 1777 H 175.005 -1.93728 0.194264 0
M  V30 1778 H 173.176 -3.41769 -1.84522 0
M  V30 1779 H 174.908 -3.64752 -1.75322 0
M  V30 1780 H 171.663 -4.73571 -0.0523673 0
M  V30 1781 H 172.087 -6.5027 1.88356 0
M  V30 1782 H 176.729 -4.22724 0.080084 0
M  V30 1783 H 174.447 -7.4338 3.16878 0
M  V30 1784 H 178.033 -5.56338 1.70233 0
M  V30 1785 H 176.913 -7.14778 3.22586 0
M  V30 1786 N 174.416 0.165178 -1.56732 0
M  V30 1787 C 175.664 0.879068 -1.8198 0
M  V30 1788 C 175.985 1.82514 -0.686561 0
M  V30 1789 O 175.255 1.93694 0.293146 0
M  V30 1790 H 173.835 0.327608 -0.671329 0
M  V30 1791 H 176.497 0.163526 -1.94213 0
M  V30 1792 H 175.593 1.45228 -2.76252 0
M  V30 1793 N 175.894 1.51508 0.433938 0
M  V30 1794 C 176.826 1.69266 1.54537 0
M  V30 1795 C 177.839 0.573276 1.52373 0
M  V30 1796 O 179.028 0.847698 1.57087 0
M  V30 1797 C 176.128 1.69524 2.93453 0
M  V30 1798 C 175.301 2.98101 3.20085 0
M  V30 1799 C 174.36 2.90502 4.38742 0
M  V30 1800 O 173.386 3.64442 4.3723 0
M  V30 1801 N 174.588 2.06586 5.42496 0
M  V30 1802 H 177.353 2.65145 1.39708 0
M  V30 1803 H 174.914 1.49437 0.622922 0
M  V30 1804 H 176.906 1.62004 3.70859 0
M  V30 1805 H 175.476 0.812245 3.01863 0
M  V30 1806 H 174.696 3.19464 2.30947 0
M  V30 1807 H 175.984 3.83207 3.34708 0
M  V30 1808 H 175.382 1.45896 5.46563 0
M  V30 1809 H 173.939 2.04943 6.18742 0
M  V30 1810 N 177.372 -0.689602 1.41712 0
M  V30 1811 C 178.62 -1.4468 1.4111 0
M  V30 1812 C 178.941 -1.94986 0.0232196 0
M  V30 1813 O 178.211 -1.72097 -0.935913 0
M  V30 1814 H 176.791 -0.536847 0.519427 0
M  V30 1815 H 179.453 -0.815825 1.77004 0
M  V30 1816 H 178.549 -2.30706 2.10193 0
M  V30 1817 N 178.85 -1.27639 -0.924453 0
M  V30 1818 C 180.078 -1.16989 -1.70649 0
M  V30 1819 C 180.493 0.272869 -1.86818 0
M  V30 1820 O 179.85 1.18549 -1.38753 0
M  V30 1821 C 179.901 -1.85229 -3.10439 0
M  V30 1822 O 179.622 -3.23868 -2.95028 0
M  V30 1823 C 181.123 -1.80746 -4.04779 0
M  V30 1824 H 178.343 -0.406595 -0.53378 0
M  V30 1825 H 180.887 -1.68569 -1.15778 0
M  V30 1826 H 179.042 -1.37545 -3.6216 0
M  V30 1827 H 179.456 -3.57889 -3.83426 0
M  V30 1828 H 180.93 -2.33101 -5.00368 0
M  V30 1829 H 181.407 -0.777499 -4.32263 0
M  V30 1830 H 182.013 -2.28059 -3.58984 0
M  V30 1831 N 180.328 1.1314 -1.09713 0
M  V30 1832 C 181.26 2.18343 -0.697056 0
M  V30 1833 C 182.273 1.60669 0.262551 0
M  V30 1834 O 183.462 1.78435 0.0481527 0
M  V30 1835 C 180.562 3.38899 -0.00684728 0
M  V30 1836 C 179.735 4.26078 -0.988741 0
M  V30 1837 C 178.794 5.25155 -0.331394 0
M  V30 1838 O 177.82 5.60701 -0.979926 0
M  V30 1839 N 179.022 5.73271 0.913261 0
M  V30 1840 H 181.787 2.5328 -1.60216 0
M  V30 1841 H 179.348 1.28491 -0.984971 0
M  V30 1842 H 181.34 4.02255 0.444191 0
M  V30 1843 H 179.91 3.02175 0.800551 0
M  V30 1844 H 179.13 3.59453 -1.61826 0
M  V30 1845 H 180.418 4.81178 -1.65364 0
M  V30 1846 H 179.816 5.46544 1.45966 0
M  V30 1847 H 178.373 6.3855 1.30757 0
M  V30 1848 N 181.806 0.884767 1.30421 0
M  V30 1849 C 183.052 0.503851 1.96441 0
M  V30 1850 C 183.385 -0.944518 1.69684 0
M  V30 1851 O 182.66 -1.66737 1.00145 0
M  V30 1852 C 182.943 0.779085 3.51571 0
M  V30 1853 C 182.796 2.27807 3.87846 0
M  V30 1854 C 184.115 0.255452 4.39358 0
M  V30 1855 H 181.234 0.184533 0.713524 0
M  V30 1856 H 183.876 1.10872 1.54297 0
M  V30 1857 H 182.026 0.264274 3.876 0
M  V30 1858 H 183.698 2.86127 3.61841 0
M  V30 1859 H 181.941 2.74479 3.35922 0
M  V30 1860 H 182.612 2.42125 4.96064 0
M  V30 1861 H 185.088 0.696079 4.10236 0
M  V30 1862 H 183.964 0.477361 5.4682 0
M  V30 1863 H 184.225 -0.843293 4.33983 0
M  V30 1864 N 183.284 -1.43765 0.645699 0
M  V30 1865 C 184.512 -2.06253 0.163556 0
M  V30 1866 C 184.927 -1.48352 -1.16778 0
M  V30 1867 O 184.284 -0.611932 -1.71935 0
M  V30 1868 C 184.335 -3.61453 0.0583186 0
M  V30 1869 O 184.056 -4.172 1.33702 0
M  V30 1870 C 185.557 -4.41002 -0.450795 0
M  V30 1871 H 182.777 -0.665413 0.0864077 0
M  V30 1872 H 185.321 -1.84396 0.884222 0
M  V30 1873 H 183.476 -3.82522 -0.612865 0
M  V30 1874 H 183.89 -5.10791 1.19131 0
M  V30 1875 H 185.364 -5.49966 -0.473403 0
M  V30 1876 H 185.841 -4.13488 -1.48068 0
M  V30 1877 H 186.447 -4.24886 0.187637 0
M  V30 1878 N 184.763 -0.387143 -1.52771 0
M  V30 1879 C 186.009 0.196025 -2.0185 0
M  V30 1880 C 186.342 1.46641 -1.27319 0
M  V30 1881 O 185.617 1.90889 -0.373032 0
M  V30 1882 C 185.9 0.466136 -3.5707 0
M  V30 1883 C 185.753 -0.819385 -4.42274 0
M  V30 1884 C 187.072 1.25768 -4.21747 0
M  V30 1885 H 184.191 0.0697708 -0.73369 0
M  V30 1886 H 186.833 -0.516286 -1.82851 0
M  V30 1887 H 184.983 1.07293 -3.7339 0
M  V30 1888 H 186.655 -1.4563 -4.37709 0
M  V30 1889 H 184.898 -1.43517 -4.09372 0
M  V30 1890 H 185.569 -0.585065 -5.48891 0
M  V30 1891 H 188.045 0.744167 -4.09391 0
M  V30 1892 H 186.921 1.41541 -5.30337 0
M  V30 1893 H 187.182 2.27228 -3.79236 0
M  V30 1894 N 186.241 1.57166 -0.116904 0
M  V30 1895 C 187.466 1.999 0.55271 0
M  V30 1896 C 187.891 0.996039 1.59564 0
M  V30 1897 O 187.249 -0.032556 1.81271 0
M  V30 1898 C 187.297 3.4152 1.15742 0
M  V30 1899 O 186.401 3.44106 2.27299 0
M  V30 1900 H 185.742 0.649447 0.138258 0
M  V30 1901 H 188.272 2.03573 -0.204759 0
M  V30 1902 H 188.282 3.79684 1.49346 0
M  V30 1903 H 186.957 4.14034 0.393493 0
M  V30 1904 H 185.534 3.17759 1.9515 0
M  V30 1905 N 187.719 -0.156864 1.56817 0
M  V30 1906 C 188.944 -0.890331 1.87318 0
M  V30 1907 C 189.369 -1.74394 0.704855 0
M  V30 1908 O 188.727 -1.77972 -0.345786 0
M  V30 1909 C 188.775 -1.73102 3.16336 0
M  V30 1910 O 187.879 -2.83422 2.99576 0
M  V30 1911 H 187.22 -0.24857 0.615718 0
M  V30 1912 H 189.75 -0.150649 2.04045 0
M  V30 1913 H 189.76 -2.12803 3.48107 0
M  V30 1914 H 188.435 -1.10412 4.00976 0
M  V30 1915 H 187.012 -2.47199 2.7919 0
M  V30 1916 N 189.197 -1.51736 -0.425897 0
M  V30 1917 C 190.16 -1.73271 -1.50032 0
M  V30 1918 C 191.16 -0.602639 -1.4908 0
M  V30 1919 O 192.35 -0.87033 -1.509 0
M  V30 1920 C 189.482 -1.79969 -2.89523 0
M  V30 1921 H 190.675 -2.69172 -1.32237 0
M  V30 1922 H 188.228 -1.41899 -0.65532 0
M  V30 1923 H 188.963 -0.859241 -3.1271 0
M  V30 1924 H 188.748 -2.62109 -2.91619 0
M  V30 1925 H 190.238 -1.9843 -3.67444 0
M  V30 1926 N 190.675 0.682077 -1.42076 0
M  V30 1927 C 191.638 1.77756 -1.44691 0
M  V30 1928 C 192.638 1.5726 -0.335535 0
M  V30 1929 O 193.828 1.63686 -0.596037 0
M  V30 1930 C 190.96 3.16301 -1.27146 0
M  V30 1931 H 192.153 1.76826 -2.42224 0
M  V30 1932 H 189.706 0.891012 -1.28416 0
M  V30 1933 H 190.441 3.22862 -0.305075 0
M  V30 1934 H 190.226 3.32581 -2.07683 0
M  V30 1935 H 191.716 3.96241 -1.31843 0
M  V30 1936 N 192.153 1.28127 0.917671 0
M  V30 1937 C 193.116 1.11744 2.00115 0
M  V30 1938 C 194.116 0.0583052 1.60694 0
M  V30 1939 O 195.306 0.303755 1.71531 0
M  V30 1940 C 192.438 0.704862 3.33533 0
M  V30 1941 H 193.631 2.07966 2.16079 0
M  V30 1942 H 191.184 1.11058 1.09981 0
M  V30 1943 H 191.919 -0.258299 3.2327 0
M  V30 1944 H 191.704 1.4699 3.63505 0
M  V30 1945 H 193.194 0.612768 4.1308 0
M  V30 1946 N 193.631 -1.12557 1.10312 0
M  V30 1947 C 194.541 -2.21841 0.763142 0
M  V30 1948 C 195.557 -1.72354 -0.238801 0
M  V30 1949 O 196.733 -2.01249 -0.0778746 0
M  V30 1950 C 193.798 -3.46131 0.198632 0
M  V30 1951 C 192.859 -4.10464 1.25769 0
M  V30 1952 C 192.092 -5.28821 0.72002 0
M  V30 1953 O 192.315 -5.6859 -0.453993 0
M  V30 1954 O 191.249 -5.83437 1.47935 0
M  V30 1955 H 195.075 -2.53312 1.67532 0
M  V30 1956 H 192.66 -1.20867 0.878157 0
M  V30 1957 H 194.542 -4.2125 -0.112401 0
M  V30 1958 H 193.217 -3.16338 -0.686419 0
M  V30 1959 H 192.124 -3.3713 1.62156 0
M  V30 1960 H 193.457 -4.44408 2.11571 0
M  V30 1961 N 195.109 -0.891671 -1.2995 0
M  V30 1962 C 196.355 -0.514261 -1.96171 0
M  V30 1963 C 196.688 0.935506 -1.70182 0
M  V30 1964 O 195.963 1.66204 -1.01028 0
M  V30 1965 C 196.246 -0.797719 -3.51153 0
M  V30 1966 C 196.099 -2.2986 -3.86632 0
M  V30 1967 C 197.418 -0.278749 -4.39216 0
M  V30 1968 H 194.537 -0.188314 -0.712535 0
M  V30 1969 H 197.179 -1.11689 -1.53706 0
M  V30 1970 H 195.329 -0.284826 -3.87455 0
M  V30 1971 H 197.001 -2.88042 -3.60319 0
M  V30 1972 H 195.244 -2.76257 -3.34462 0
M  V30 1973 H 195.915 -2.44753 -4.94773 0
M  V30 1974 H 198.391 -0.717825 -4.09862 0
M  V30 1975 H 197.267 -0.506353 -5.46559 0
M  V30 1976 H 197.528 0.820266 -4.34424 0
M  V30 1977 N 196.587 1.43421 -0.653314 0
M  V30 1978 C 197.519 2.29071 0.0769134 0
M  V30 1979 C 198.532 1.42513 0.787017 0
M  V30 1980 O 199.721 1.66449 0.644757 0
M  V30 1981 C 196.821 3.19436 1.13199 0
M  V30 1982 C 195.994 4.34533 0.500006 0
M  V30 1983 C 195.053 5.05771 1.45198 0
M  V30 1984 O 194.079 5.61037 0.960538 0
M  V30 1985 N 195.281 5.0928 2.78594 0
M  V30 1986 H 198.046 2.92382 -0.658235 0
M  V30 1987 H 195.607 1.54112 -0.496104 0
M  V30 1988 H 197.599 3.63958 1.76964 0
M  V30 1989 H 196.169 2.57724 1.7691 0
M  V30 1990 H 195.389 3.92925 -0.316738 0
M  V30 1991 H 196.677 5.08766 0.0588345 0
M  V30 1992 H 196.075 4.65751 3.2108 0
M  V30 1993 H 194.632 5.57519 3.37662 0
M  V30 1994 N 198.065 0.39524 1.52563 0
M  V30 1995 C 198.995 -0.428384 2.29537 0
M  V30 1996 C 199.976 -1.05831 1.33169 0
M  V30 1997 O 201.161 -1.06995 1.62067 0
M  V30 1998 C 198.291 -1.55274 3.10656 0
M  V30 1999 C 197.245 -1.04855 4.14957 0
M  V30 2000 C 196.571 -2.26543 4.84337 0
M  V30 2001 C 197.871 -0.112324 5.22179 0
M  V30 2002 H 199.565 0.213867 2.98635 0
M  V30 2003 H 197.111 0.104298 1.43622 0
M  V30 2004 H 199.064 -2.1358 3.63265 0
M  V30 2005 H 197.788 -2.22266 2.39302 0
M  V30 2006 H 196.447 -0.487985 3.63338 0
M  V30 2007 H 196.095 -2.92059 4.09525 0
M  V30 2008 H 195.795 -1.93466 5.54837 0
M  V30 2009 H 197.319 -2.85481 5.39753 0
M  V30 2010 H 198.733 -0.603752 5.70112 0
M  V30 2011 H 197.13 0.128968 5.99961 0
M  V30 2012 H 198.2 0.837052 4.77621 0
M  V30 2013 N 199.544 -1.57102 0.125237 0
M  V30 2014 C 200.79 -1.95697 -0.532035 0
M  V30 2015 C 201.123 -1.009 -1.6593 0
M  V30 2016 O 200.398 -0.047347 -1.94442 0
M  V30 2017 C 200.681 -3.44181 -1.05884 0
M  V30 2018 C 200.534 -4.49752 0.0654392 0
M  V30 2019 C 201.853 -3.94655 -1.9477 0
M  V30 2020 H 198.972 -0.711571 -0.191925 0
M  V30 2021 H 201.614 -1.88923 0.20206 0
M  V30 2022 H 199.764 -3.50085 -1.68442 0
M  V30 2023 H 201.436 -4.55943 0.700982 0
M  V30 2024 H 199.679 -4.27653 0.727709 0
M  V30 2025 H 200.35 -5.50924 -0.344505 0
M  V30 2026 H 202.826 -3.91094 -1.42074 0
M  V30 2027 H 201.702 -4.99057 -2.28546 0
M  V30 2028 H 201.963 -3.35718 -2.87656 0
M  V30 2029 N 201.022 0.148545 -1.56898 0
M  V30 2030 C 201.932 1.20293 -2.01412 0
M  V30 2031 C 202.948 1.47107 -0.929273 0
M  V30 2032 O 204.124 1.58807 -1.23863 0
M  V30 2033 C 201.189 2.51682 -2.38447 0
M  V30 2034 C 200.25 2.32529 -3.60872 0
M  V30 2035 C 199.483 3.57653 -3.96132 0
M  V30 2036 O 199.706 4.63771 -3.32073 0
M  V30 2037 O 198.64 3.50408 -4.89385 0
M  V30 2038 H 202.466 0.855025 -2.91416 0
M  V30 2039 H 200.051 0.357151 -1.45068 0
M  V30 2040 H 201.933 3.29147 -2.63135 0
M  V30 2041 H 200.608 2.86006 -1.51599 0
M  V30 2042 H 199.515 1.53019 -3.41373 0
M  V30 2043 H 200.848 2.03121 -4.48333 0
M  V30 2044 N 202.5 1.5196 0.417844 0
M  V30 2045 C 203.725 1.69717 1.1921 0
M  V30 2046 C 204.15 0.402148 1.83751 0
M  V30 2047 O 203.508 -0.639593 1.69643 0
M  V30 2048 C 203.556 2.82794 2.2374 0
M  V30 2049 O 202.66 2.47756 3.29683 0
M  V30 2050 H 202.001 0.565263 0.348387 0
M  V30 2051 H 204.531 1.98621 0.490985 0
M  V30 2052 H 204.541 3.07452 2.68212 0
M  V30 2053 H 203.216 3.76756 1.76146 0
M  V30 2054 H 201.793 2.33739 2.90552 0
M  V30 2055 N 203.978 -0.674533 1.42435 0
M  V30 2056 C 205.226 -1.43175 1.42637 0
M  V30 2057 C 205.547 -1.94951 0.0438992 0
M  V30 2058 O 204.817 -1.7308 -0.917607 0
M  V30 2059 H 203.397 -0.531307 0.525092 0
M  V30 2060 H 206.059 -0.797006 1.77859 0
M  V30 2061 H 205.155 -2.28463 2.12629 0
M  V30 2062 N 205.456 -1.28612 -0.910864 0
M  V30 2063 C 206.704 -1.15705 -1.65701 0
M  V30 2064 C 207.025 0.29416 -1.92769 0
M  V30 2065 O 206.295 1.20331 -1.54588 0
M  V30 2066 H 204.875 -0.425216 -0.614167 0
M  V30 2067 H 207.537 -1.61381 -1.0928 0
M  V30 2068 H 206.633 -1.6988 -2.61815 0
M  V30 2069 N 206.934 1.1197 -1.10907 0
M  V30 2070 C 208.182 1.83225 -0.852819 0
M  V30 2071 C 208.503 1.84769 0.623341 0
M  V30 2072 O 207.773 1.3143 1.45269 0
M  V30 2073 H 206.353 0.67849 -0.312507 0
M  V30 2074 H 209.015 1.3556 -1.40033 0
M  V30 2075 H 208.111 2.87265 -1.22005 0
M  V30 2076 N 208.412 0.89855 1.29475 0
M  V30 2077 C 209.342 0.39201 2.30186 0
M  V30 2078 C 210.323 -0.532359 1.61555 0
M  V30 2079 O 211.508 -0.443331 1.89072 0
M  V30 2080 C 208.638 -0.382353 3.45189 0
M  V30 2081 C 207.592 0.451483 4.25612 0
M  V30 2082 C 206.918 -0.450307 5.328 0
M  V30 2083 C 208.218 1.70079 4.93832 0
M  V30 2084 H 209.912 1.23362 2.72804 0
M  V30 2085 H 207.458 0.594638 1.31149 0
M  V30 2086 H 209.411 -0.747451 4.14718 0
M  V30 2087 H 208.135 -1.25774 3.01411 0
M  V30 2088 H 206.794 0.798897 3.57789 0
M  V30 2089 H 206.442 -1.32379 4.85268 0
M  V30 2090 H 206.142 0.103902 5.87508 0
M  V30 2091 H 207.666 -0.811623 6.05182 0
M  V30 2092 H 209.08 1.40549 5.55805 0
M  V30 2093 H 207.477 2.19623 5.58467 0
M  V30 2094 H 208.547 2.43744 4.19186 0
M  V30 2095 N 209.89 -1.43072 0.660911 0
M  V30 2096 C 211.136 -2.0202 0.177708 0
M  V30 2097 C 211.469 -1.52066 -1.20787 0
M  V30 2098 O 210.744 -0.716987 -1.80802 0
M  V30 2099 C 211.027 -3.59561 0.197019 0
M  V30 2100 C 210.88 -4.19727 1.61706 0
M  V30 2101 C 212.199 -4.37664 -0.462396 0
M  V30 2102 H 209.318 -0.734034 0.0660494 0
M  V30 2103 H 211.96 -1.70272 0.843058 0
M  V30 2104 H 210.11 -3.86739 -0.369527 0
M  V30 2105 H 211.782 -4.03553 2.23479 0
M  V30 2106 H 210.025 -3.76084 2.16201 0
M  V30 2107 H 210.696 -5.28834 1.58237 0
M  V30 2108 H 213.172 -4.16095 0.0197215 0
M  V30 2109 H 212.048 -5.47305 -0.418188 0
M  V30 2110 H 212.309 -4.14493 -1.53778 0
M  V30 2111 N 211.368 -0.403325 -1.52352 0
M  V30 2112 C 212.3 0.4603 -2.2453 0
M  V30 2113 C 213.313 1.01505 -1.27282 0
M  V30 2114 O 214.502 0.914982 -1.53266 0
M  V30 2115 C 211.602 1.65208 -2.95905 0
M  V30 2116 C 210.775 1.22224 -4.19976 0
M  V30 2117 C 209.834 2.28028 -4.74226 0
M  V30 2118 O 208.86 1.88857 -5.36956 0
M  V30 2119 N 210.062 3.6012 -4.55295 0
M  V30 2120 H 212.827 -0.158156 -2.99282 0
M  V30 2121 H 210.388 -0.230402 -1.60252 0
M  V30 2122 H 212.38 2.35541 -3.29093 0
M  V30 2123 H 210.95 2.17658 -2.24374 0
M  V30 2124 H 210.17 0.34725 -3.92668 0
M  V30 2125 H 211.458 0.911924 -5.00561 0
M  V30 2126 H 210.856 3.94698 -4.05253 0
M  V30 2127 H 209.413 4.26447 -4.92936 0
M  V30 2128 N 212.846 1.57033 -0.133567 0
M  V30 2129 C 214.257 1.82593 0.389464 0
M  V30 2130 C 214.608 1.05156 1.6564 0
M  V30 2131 O 213.733 0.292644 2.14412 0
M  V30 2132 C 214.328 3.31204 0.713377 0
M  V30 2133 C 212.887 3.57393 1.18098 0
M  V30 2134 C 212.034 2.76598 0.197126 0
M  V30 2135 H 214.985 1.54598 -0.358481 0
M  V30 2136 H 215.006 3.46627 1.56939 0
M  V30 2137 H 214.518 3.87537 -0.2089 0
M  V30 2138 H 212.619 3.06433 2.11966 0
M  V30 2139 H 212.732 4.65915 1.11624 0
M  V30 2140 H 211.096 2.45257 0.687088 0
M  V30 2141 H 211.879 3.35697 -0.718504 0
M  V30 2142 N 214.325 -0.140222 1.56975 0
M  V30 2143 C 215.573 -0.850005 1.83356 0
M  V30 2144 C 215.894 -1.81399 0.71551 0
M  V30 2145 O 215.164 -1.94136 -0.262294 0
M  V30 2146 H 213.744 -0.316886 0.676456 0
M  V30 2147 H 216.406 -0.132608 1.94448 0
M  V30 2148 H 215.502 -1.40814 2.78528 0
M  V30 2149 N 215.803 -1.52179 -0.40978 0
M  V30 2150 C 217.051 -1.65878 -1.15451 0
M  V30 2151 C 217.372 -0.390771 -1.91044 0
M  V30 2152 O 216.642 0.594323 -1.86667 0
M  V30 2153 H 215.222 -0.611405 -0.429177 0
M  V30 2154 H 217.884 -1.89219 -0.467134 0
M  V30 2155 H 216.98 -2.49954 -1.86894 0
M  V30 2156 N 217.281 0.66697 -1.42791 0
M  V30 2157 C 218.506 1.46004 -1.47301 0
M  V30 2158 C 218.931 1.87894 -0.0880317 0
M  V30 2159 O 218.289 1.56502 0.915253 0
M  V30 2160 C 218.337 2.68031 -2.41229 0
M  V30 2161 O 217.441 3.6659 -1.88906 0
M  V30 2162 H 216.782 0.43832 -0.49877 0
M  V30 2163 H 219.312 0.817391 -1.87563 0
M  V30 2164 H 219.322 3.1601 -2.58073 0
M  V30 2165 H 217.997 2.36883 -3.41847 0
M  V30 2166 H 216.574 3.25661 -1.81656 0
M  V30 2167 N 218.759 1.29093 0.90403 0
M  V30 2168 C 219.689 1.16401 2.02418 0
M  V30 2169 C 220.67 0.0593085 1.69997 0
M  V30 2170 O 221.855 0.238021 1.92736 0
M  V30 2171 C 218.985 0.835233 3.37107 0
M  V30 2172 C 217.939 1.89578 3.83724 0
M  V30 2173 C 217.265 1.42041 5.15489 0
M  V30 2174 C 218.565 3.30394 4.04521 0
M  V30 2175 H 220.259 2.10109 2.13295 0
M  V30 2176 H 217.805 1.01157 1.02486 0
M  V30 2177 H 219.758 0.733169 4.14973 0
M  V30 2178 H 218.482 -0.137543 3.2631 0
M  V30 2179 H 217.141 1.98715 3.08071 0
M  V30 2180 H 216.789 0.436426 5.01103 0
M  V30 2181 H 216.489 2.12964 5.4765 0
M  V30 2182 H 218.013 1.33176 5.959 0
M  V30 2183 H 219.427 3.24123 4.72882 0
M  V30 2184 H 217.824 3.99237 4.48029 0
M  V30 2185 H 218.894 3.73692 3.09002 0
M  V30 2186 N 220.237 -1.11381 1.11499 0
M  V30 2187 C 221.653 -1.35143 0.849031 0
M  V30 2188 C 221.853 -1.94515 -0.525938 0
M  V30 2189 O 220.909 -2.1785 -1.27662 0
M  V30 2190 C 222.222 -2.28249 1.95762 0
M  V30 2191 C 223.77 -2.41812 1.98736 0
M  V30 2192 C 224.245 -3.3824 3.088 0
M  V30 2193 N 225.736 -3.45803 3.08179 0
M  V30 2194 C 226.471 -4.20358 3.89982 0
M  V30 2195 N 225.967 -4.97884 4.8175 0
M  V30 2196 N 227.76 -4.15877 3.78157 0
M  V30 2197 H 219.911 -0.712062 2.00109 0
M  V30 2198 H 222.174 -0.376025 0.870235 0
M  V30 2199 H 221.88 -1.91817 2.94787 0
M  V30 2200 H 221.754 -3.28473 1.85433 0
M  V30 2201 H 224.141 -2.77518 1.00338 0
M  V30 2202 H 224.222 -1.41437 2.13141 0
M  V30 2203 H 223.866 -3.03261 4.07425 0
M  V30 2204 H 223.796 -4.38471 2.91635 0
M  V30 2205 H 226.287 -2.90506 2.41691 0
M  V30 2206 H 226.6 -5.52142 5.40702 0
M  V30 2207 H 224.945 -4.97043 4.85771 0
M  V30 2208 H 228.136 -3.544 3.05808 0
M  V30 2209 H 228.309 -4.73723 4.42143 0
M  V30 2210 N 221.715 -0.905404 -1.28997 0
M  V30 2211 C 222.645 -0.404212 -2.29975 0
M  V30 2212 C 223.626 0.523784 -1.61835 0
M  V30 2213 O 224.811 0.433298 -1.89304 0
M  V30 2214 C 221.941 0.364042 -3.45387 0
M  V30 2215 C 220.895 -0.474048 -4.25367 0
M  V30 2216 C 220.221 0.422045 -5.33032 0
M  V30 2217 C 221.521 -1.72696 -4.92923 0
M  V30 2218 H 223.215 -1.24807 -2.72146 0
M  V30 2219 H 220.761 -0.601585 -1.30832 0
M  V30 2220 H 222.714 0.725447 -4.15109 0
M  V30 2221 H 221.438 1.24174 -3.02074 0
M  V30 2222 H 220.097 -0.81786 -3.57361 0
M  V30 2223 H 219.745 1.29804 -4.85963 0
M  V30 2224 H 219.445 -0.135057 -5.87445 0
M  V30 2225 H 220.969 0.779517 -6.05604 0
M  V30 2226 H 222.383 -1.43495 -5.55051 0
M  V30 2227 H 220.78 -2.22582 -5.57295 0
M  V30 2228 H 221.85 -2.45964 -4.17887 0
M  V30 2229 N 223.193 1.4272 -0.668489 0
M  V30 2230 C 224.418 2.06484 -0.194758 0
M  V30 2231 C 224.843 1.49862 1.13679 0
M  V30 2232 O 224.201 0.614582 1.70565 0
M  V30 2233 C 224.249 3.60353 -0.133546 0
M  V30 2234 O 223.353 4.02464 0.899806 0
M  V30 2235 H 222.694 0.656137 -0.10188 0
M  V30 2236 H 225.224 1.82964 -0.915722 0
M  V30 2237 H 225.234 4.07976 0.0447041 0
M  V30 2238 H 223.909 4.00938 -1.1055 0
M  V30 2239 H 222.486 3.66402 0.693109 0
M  V30 2240 N 224.671 0.411399 1.52136 0
M  V30 2241 C 225.911 -0.163143 2.03748 0
M  V30 2242 C 226.275 -1.42187 1.29022 0
M  V30 2243 O 227.476 -2.075 1.70872 0
M  V30 2244 C 225.747 -0.402651 3.55125 0
M  V30 2245 S 227.306 -0.944315 4.28519 0
M  V30 2246 H 224.124 -0.0439833 0.709638 0
M  V30 2247 H 226.726 0.56484 1.87163 0
M  V30 2248 H 225.43 0.520212 4.0709 0
M  V30 2249 H 224.961 -1.15844 3.75957 0
M  V30 2250 H 226.976 -2.22463 4.43536 0
M  V30 2251 N 226.149 -1.5696 0.141893 0
M  V30 2252 C 227.112 -2.15316 -0.785587 0
M  V30 2253 C 228.112 -1.09366 -1.1788 0
M  V30 2254 O 229.302 -1.35031 -1.10056 0
M  V30 2255 C 226.434 -2.71211 -2.06537 0
M  V30 2256 H 227.627 -2.98608 -0.278041 0
M  V30 2257 H 225.18 -1.5593 -0.107519 0
M  V30 2258 H 225.915 -1.91571 -2.6167 0
M  V30 2259 H 225.7 -3.4872 -1.79268 0
M  V30 2260 H 227.19 -3.16189 -2.72789 0
M  V30 2261 N 227.627 0.131896 -1.57047 0
M  V30 2262 C 228.59 1.14638 -1.98471 0
M  V30 2263 C 229.59 1.35029 -0.873148 0
M  V30 2264 O 230.78 1.31764 -1.13946 0
M  V30 2265 C 227.912 2.50358 -2.31373 0
M  V30 2266 H 229.105 0.79064 -2.8929 0
M  V30 2267 H 226.658 0.375761 -1.51716 0
M  V30 2268 H 227.393 2.90876 -1.43393 0
M  V30 2269 H 227.178 2.36915 -3.12432 0
M  V30 2270 H 228.668 3.23395 -2.64207 0
M  V30 2271 N 229.106 1.52395 0.401703 0
M  V30 2272 C 230.331 1.70972 1.17403 0
M  V30 2273 C 230.756 0.421615 1.83314 0
M  V30 2274 O 230.114 -0.621564 1.70312 0
M  V30 2275 C 230.162 2.85151 2.20728 0
M  V30 2276 O 229.266 2.51238 3.27037 0
M  V30 2277 H 228.607 0.568927 0.342372 0
M  V30 2278 H 231.137 1.99131 0.469891 0
M  V30 2279 H 231.147 3.10279 2.64936 0
M  V30 2280 H 229.822 3.78603 1.7214 0
M  V30 2281 H 228.399 2.36808 2.88057 0
M  V30 2282 N 230.584 -0.659388 1.43143 0
M  V30 2283 C 231.832 -1.41654 1.44147 0
M  V30 2284 C 232.153 -1.94893 0.0645739 0
M  V30 2285 O 231.423 -1.74044 -0.899198 0
M  V30 2286 H 230.003 -0.525708 0.530697 0
M  V30 2287 H 232.665 -0.778097 1.78694 0
M  V30 2288 H 231.761 -2.26195 2.1504 0
M  V30 2289 N 232.062 -1.29571 -0.897171 0
M  V30 2290 C 233.478 -1.07637 -1.17841 0
M  V30 2291 C 233.678 0.170713 -2.00776 0
M  V30 2292 O 232.734 0.867768 -2.3712 0
M  V30 2293 C 234.047 -2.3332 -1.8969 0
M  V30 2294 C 235.595 -2.38664 -2.02505 0
M  V30 2295 C 236.07 -3.64157 -2.77765 0
M  V30 2296 N 237.561 -3.64894 -2.85318 0
M  V30 2297 C 238.296 -4.58679 -3.44094 0
M  V30 2298 N 237.792 -5.62799 -4.04017 0
M  V30 2299 N 239.585 -4.46245 -3.41793 0
M  V30 2300 H 231.736 -2.09598 -0.343883 0
M  V30 2301 H 233.999 -0.923333 -0.214848 0
M  V30 2302 H 233.705 -3.24262 -1.36187 0
M  V30 2303 H 233.579 -2.41025 -2.9015 0
M  V30 2304 H 235.966 -1.48208 -2.55183 0
M  V30 2305 H 236.047 -2.34943 -1.01171 0
M  V30 2306 H 235.691 -4.54965 -2.25763 0
M  V30 2307 H 235.621 -3.65137 -3.7945 0
M  V30 2308 H 238.112 -2.89613 -2.42761 0
M  V30 2309 H 238.425 -6.3048 -4.46895 0
M  V30 2310 H 236.77 -5.66605 -4.02472 0
M  V30 2311 H 239.961 -3.64094 -2.94199 0
M  V30 2312 H 240.134 -5.19518 -3.87304 0
M  V30 2313 N 233.54 1.10788 -1.12088 0
M  V30 2314 C 234.768 1.86461 -0.896651 0
M  V30 2315 C 235.183 1.80492 0.553912 0
M  V30 2316 O 234.54 1.19102 1.38278 0
M  V30 2317 C 234.591 3.35006 -1.35843 0
M  V30 2318 O 234.312 3.40866 -2.75213 0
M  V30 2319 C 235.813 4.27565 -1.1706 0
M  V30 2320 H 233.033 0.589425 -0.320654 0
M  V30 2321 H 235.577 1.40076 -1.48993 0
M  V30 2322 H 233.732 3.7887 -0.808458 0
M  V30 2323 H 234.146 4.33411 -2.9539 0
M  V30 2324 H 235.62 5.30007 -1.54263 0
M  V30 2325 H 236.097 4.3906 -0.110814 0
M  V30 2326 H 236.703 3.89501 -1.70789 0
M  V30 2327 N 235.018 0.912232 1.28515 0
M  V30 2328 C 236.265 0.544599 1.95039 0
M  V30 2329 C 236.593 -0.911435 1.71823 0
M  V30 2330 O 235.848 -1.66317 1.03137 0
M  V30 2331 C 236.147 0.798392 3.48368 0
M  V30 2332 C 235.813 2.23374 3.91682 0
M  V30 2333 C 234.475 2.62617 4.03219 0
M  V30 2334 C 236.827 3.16786 4.13879 0
M  V30 2335 C 234.155 3.94429 4.3433 0
M  V30 2336 C 236.507 4.48161 4.46469 0
M  V30 2337 C 235.171 4.8726 4.56217 0
M  V30 2338 H 234.441 0.199283 0.7137 0
M  V30 2339 H 237.088 1.15327 1.52879 0
M  V30 2340 H 235.393 0.106908 3.91654 0
M  V30 2341 H 237.09 0.493141 3.97956 0
M  V30 2342 H 233.68 1.91922 3.83228 0
M  V30 2343 H 237.864 2.87677 4.0442 0
M  V30 2344 H 233.12 4.24426 4.40082 0
M  V30 2345 H 237.294 5.20559 4.62592 0
M  V30 2346 H 234.921 5.89431 4.80078 0
M  V30 2347 N 236.496 -1.42363 0.676048 0
M  V30 2348 C 237.721 -2.06377 0.205705 0
M  V30 2349 C 238.146 -1.50463 -1.12883 0
M  V30 2350 O 237.504 -0.623619 -1.70237 0
M  V30 2351 C 237.552 -3.60277 0.152655 0
M  V30 2352 O 236.656 -4.02935 -0.87845 0
M  V30 2353 H 235.997 -0.655588 0.105359 0
M  V30 2354 H 238.527 -1.82475 0.925412 0
M  V30 2355 H 238.537 -4.07993 -0.0230675 0
M  V30 2356 H 237.212 -4.00346 1.12675 0
M  V30 2357 H 235.789 -3.66764 -0.673668 0
M  V30 2358 N 237.974 -0.419461 -1.51915 0
M  V30 2359 C 239.204 0.151915 -2.06041 0
M  V30 2360 C 239.612 1.38539 -1.28855 0
M  V30 2361 O 238.955 1.80592 -0.336463 0
M  V30 2362 C 239.017 0.557119 -3.55157 0
M  V30 2363 C 238.681 -0.567054 -4.53468 0
M  V30 2364 C 239.678 -1.43379 -4.99738 0
M  V30 2365 C 237.363 -0.742693 -4.96779 0
M  V30 2366 C 239.357 -2.46102 -5.87973 0
M  V30 2367 C 237.044 -1.77322 -5.84808 0
M  V30 2368 C 238.042 -2.63078 -6.30301 0
M  V30 2369 O 237.73 -3.64364 -7.16585 0
M  V30 2370 H 237.462 0.0193293 -0.675724 0
M  V30 2371 H 240.016 -0.592073 -1.96682 0
M  V30 2372 H 238.246 1.35355 -3.62238 0
M  V30 2373 H 239.935 1.05759 -3.9188 0
M  V30 2374 H 240.701 -1.30954 -4.66986 0
M  V30 2375 H 236.58 -0.0848307 -4.60922 0
M  V30 2376 H 240.124 -3.13071 -6.23404 0
M  V30 2377 H 236.021 -1.89773 -6.16974 0
M  V30 2378 H 236.789 -3.60731 -7.34721 0
M  V30 2379 N 239.452 1.56882 -0.150215 0
M  V30 2380 C 240.4 2.18214 0.805313 0
M  V30 2381 C 241.394 1.14006 1.25296 0
M  V30 2382 O 242.6 1.3225 1.22107 0
M  V30 2383 H 238.975 0.698762 0.277913 0
M  V30 2384 H 240.946 2.97231 0.263862 0
M  V30 2385 C 239.695 2.82065 2.03309 0
M  V30 2386 H 239.018 3.61968 1.69763 0
M  V30 2387 H 240.458 3.28477 2.68103 0
M  V30 2388 C 238.917 1.80739 2.84315 0
M  V30 2389 O 239.447 1.27983 3.80767 0
M  V30 2390 N 237.653 1.4997 2.48913 0
M  V30 2391 H 237.2 1.93062 1.70542 0
M  V30 2392 H 237.158 0.824217 3.03404 0
M  V30 2393 N 240.93 -0.123565 1.57115 0
M  V30 2394 C 242.341 -0.681198 1.73829 0
M  V30 2395 C 242.692 -1.80535 0.768214 0
M  V30 2396 O 241.817 -2.16317 -0.0599103 0
M  V30 2397 C 242.412 -1.24246 3.15196 0
M  V30 2398 C 240.971 -1.74643 3.33432 0
M  V30 2399 C 240.118 -0.644284 2.69711 0
M  V30 2400 H 243.069 0.102315 1.5837 0
M  V30 2401 H 243.09 -2.11216 3.16493 0
M  V30 2402 H 242.602 -0.424062 3.85776 0
M  V30 2403 H 240.703 -2.58974 2.67886 0
M  V30 2404 H 240.816 -1.85902 4.41562 0
M  V30 2405 H 239.18 -1.07676 2.3082 0
M  V30 2406 H 239.963 0.163058 3.42913 0
M  V30 2407 N 242.408 -1.52605 -0.393616 0
M  V30 2408 C 243.341 -1.71798 -1.50202 0
M  V30 2409 C 244.319 -0.565743 -1.52441 0
M  V30 2410 O 245.503 -0.794987 -1.70916 0
M  V30 2411 C 242.63 -1.7714 -2.88685 0
M  V30 2412 C 241.676 -2.98845 -3.04292 0
M  V30 2413 S 242.509 -4.58909 -2.75976 0
M  V30 2414 C 243.665 -4.6706 -4.1666 0
M  V30 2415 H 243.898 -2.65542 -1.33696 0
M  V30 2416 H 241.431 -1.42839 -0.586195 0
M  V30 2417 H 243.389 -1.80903 -3.68489 0
M  V30 2418 H 242.05 -0.844969 -3.02521 0
M  V30 2419 H 241.243 -2.99111 -4.05646 0
M  V30 2420 H 240.845 -2.9305 -2.32374 0
M  V30 2421 H 243.137 -4.45391 -5.10523 0
M  V30 2422 H 244.08 -5.6905 -4.21412 0
M  V30 2423 H 244.488 -3.95944 -4.02354 0
M  V30 2424 N 243.887 0.651787 -1.4349 0
M  V30 2425 C 245.135 1.40888 -1.44897 0
M  V30 2426 C 245.456 1.94856 -0.0749086 0
M  V30 2427 O 244.726 1.74518 0.889956 0
M  V30 2428 H 243.306 0.522887 -0.533478 0
M  V30 2429 H 245.968 0.768609 -1.79104 0
M  V30 2430 H 245.064 2.25052 -2.16236 0
M  V30 2431 N 245.365 1.30045 0.890287 0
M  V30 2432 C 246.611 1.19747 1.64415 0
M  V30 2433 C 246.966 -0.246591 1.90813 0
M  V30 2434 O 246.259 -1.174 1.51419 0
M  V30 2435 C 246.453 1.95409 2.99249 0
M  V30 2436 C 246.282 3.47025 2.86013 0
M  V30 2437 C 245.052 4.1638 2.86279 0
M  V30 2438 C 247.25 4.42353 2.62351 0
M  V30 2439 N 245.232 5.54293 2.63879 0
M  V30 2440 C 246.603 5.67792 2.49022 0
M  V30 2441 C 248.658 4.32009 2.47533 0
M  V30 2442 C 247.361 6.8406 2.22383 0
M  V30 2443 C 249.387 5.48038 2.22279 0
M  V30 2444 C 248.749 6.72455 2.09722 0
M  V30 2445 H 244.848 0.493223 0.60684 0
M  V30 2446 H 247.432 1.6399 1.04954 0
M  V30 2447 H 245.603 1.53565 3.56752 0
M  V30 2448 H 247.335 1.77298 3.63796 0
M  V30 2449 H 244.09 3.68164 2.97913 0
M  V30 2450 H 244.514 6.26852 2.55706 0
M  V30 2451 H 249.156 3.36503 2.55979 0
M  V30 2452 H 246.874 7.79612 2.12675 0
M  V30 2453 H 250.46 5.41939 2.11643 0
M  V30 2454 H 249.34 7.60722 1.90453 0
M  V30 2455 N 246.843 -1.10192 1.12674 0
M  V30 2456 C 248.09 -1.82205 0.883606 0
M  V30 2457 C 248.418 -1.8532 -0.590492 0
M  V30 2458 O 247.673 -1.31137 -1.45264 0
M  V30 2459 C 247.972 -3.28552 1.4067 0
M  V30 2460 C 247.638 -3.45582 2.89627 0
M  V30 2461 C 246.3 -3.49937 3.30299 0
M  V30 2462 C 248.652 -3.50768 3.85501 0
M  V30 2463 C 245.98 -3.57049 4.65546 0
M  V30 2464 C 248.332 -3.59414 5.20581 0
M  V30 2465 C 246.996 -3.62034 5.60792 0
M  V30 2466 H 246.266 -0.666735 0.323334 0
M  V30 2467 H 248.913 -1.29868 1.40736 0
M  V30 2468 H 247.218 -3.83473 0.80347 0
M  V30 2469 H 248.915 -3.82788 1.19475 0
M  V30 2470 H 245.505 -3.42871 2.57172 0
M  V30 2471 H 249.689 -3.46651 3.55171 0
M  V30 2472 H 244.945 -3.57361 4.96088 0
M  V30 2473 H 249.119 -3.62371 5.94693 0
M  V30 2474 H 246.746 -3.67298 6.6558 0
M  V30 2475 N 248.321 -0.919034 -1.28029 0
M  V30 2476 C 249.737 -0.617972 -1.4715 0
M  V30 2477 C 249.937 0.835242 -1.83374 0
M  V30 2478 O 248.993 1.61388 -1.94191 0
M  V30 2479 C 250.306 -1.56041 -2.57044 0
M  V30 2480 C 251.854 -1.56769 -2.7091 0
M  V30 2481 C 252.329 -2.49688 -3.83953 0
M  V30 2482 N 253.82 -2.47845 -3.91314 0
M  V30 2483 C 254.555 -3.16437 -4.78179 0
M  V30 2484 N 254.051 -3.94376 -5.69596 0
M  V30 2485 N 255.844 -3.05498 -4.71834 0
M  V30 2486 H 247.995 -1.85866 -1.02798 0
M  V30 2487 H 250.258 -0.797506 -0.512531 0
M  V30 2488 H 249.964 -2.59671 -2.372 0
M  V30 2489 H 249.838 -1.29551 -3.54255 0
M  V30 2490 H 252.225 -0.538745 -2.90141 0
M  V30 2491 H 252.306 -1.87305 -1.74214 0
M  V30 2492 H 251.95 -3.52688 -3.65477 0
M  V30 2493 H 251.88 -2.16453 -4.80058 0
M  V30 2494 H 254.371 -1.91234 -3.25941 0
M  V30 2495 H 254.684 -4.43721 -6.32718 0
M  V30 2496 H 253.029 -3.98481 -5.69419 0
M  V30 2497 H 256.22 -2.44108 -3.99411 0
M  V30 2498 H 256.393 -3.59225 -5.39316 0
M  V30 2499 N 249.799 1.42003 -0.683588 0
M  V30 2500 C 250.731 2.29183 0.0283068 0
M  V30 2501 C 251.744 1.4415 0.756611 0
M  V30 2502 O 252.933 1.67779 0.609306 0
M  V30 2503 C 250.033 3.21765 1.06398 0
M  V30 2504 C 249.206 4.35496 0.407723 0
M  V30 2505 C 248.265 5.08737 1.34437 0
M  V30 2506 O 247.291 5.62948 0.841318 0
M  V30 2507 N 248.493 5.15075 2.67728 0
M  V30 2508 H 251.258 2.9092 -0.720105 0
M  V30 2509 H 248.819 1.53025 -0.528682 0
M  V30 2510 H 250.811 3.6763 1.69204 0
M  V30 2511 H 249.381 2.61418 1.71404 0
M  V30 2512 H 248.601 3.92165 -0.400012 0
M  V30 2513 H 249.889 5.08776 -0.0490956 0
M  V30 2514 H 249.287 4.72457 3.11129 0
M  V30 2515 H 247.844 5.64556 3.2576 0
M  V30 2516 N 251.277 0.427512 1.51691 0
M  V30 2517 C 252.24 -0.377132 2.26076 0
M  V30 2518 C 253.24 -0.958089 1.29141 0
M  V30 2519 O 254.43 -0.83408 1.52934 0
M  V30 2520 C 251.562 -1.53262 3.04506 0
M  V30 2521 H 252.755 0.27464 2.9864 0
M  V30 2522 H 250.308 0.180445 1.55255 0
M  V30 2523 H 251.043 -2.22072 2.36335 0
M  V30 2524 H 250.828 -1.12232 3.75694 0
M  V30 2525 H 252.318 -2.10135 3.60878 0
M  V30 2526 N 252.755 -1.56801 0.158532 0
M  V30 2527 C 254.166 -1.83189 -0.360366 0
M  V30 2528 C 254.517 -1.07778 -1.63946 0
M  V30 2529 O 253.642 -0.326718 -2.13919 0
M  V30 2530 C 254.237 -3.32297 -0.660595 0
M  V30 2531 C 252.796 -3.59227 -1.12398 0
M  V30 2532 C 251.943 -2.76877 -0.153097 0
M  V30 2533 H 254.894 -1.54008 0.383031 0
M  V30 2534 H 254.915 -3.4908 -1.51405 0
M  V30 2535 H 254.427 -3.87156 0.270527 0
M  V30 2536 H 252.528 -3.09766 -2.07064 0
M  V30 2537 H 252.641 -4.67632 -1.04197 0
M  V30 2538 H 251.005 -2.46319 -0.647983 0
M  V30 2539 H 251.788 -3.34511 0.77182 0
M  V30 2540 N 254.233 0.115231 -1.57178 0
M  V30 2541 C 255.481 0.820727 -1.84685 0
M  V30 2542 C 255.802 1.80237 -0.744279 0
M  V30 2543 O 255.072 1.94529 0.231375 0
M  V30 2544 H 253.652 0.306084 -0.681411 0
M  V30 2545 H 256.314 0.101656 -1.94635 0
M  V30 2546 H 255.41 1.36366 -2.80733 0
M  V30 2547 N 255.711 1.52812 0.385517 0
M  V30 2548 C 256.658 1.77838 1.47113 0
M  V30 2549 C 257.628 0.621757 1.54024 0
M  V30 2550 O 258.813 0.861846 1.70226 0
M  V30 2551 C 255.953 1.95618 2.84302 0
M  V30 2552 C 255.066 3.23316 2.86515 0
M  V30 2553 C 254.201 3.31394 4.15152 0
M  V30 2554 C 253.24 4.53201 4.1143 0
M  V30 2555 N 252.377 4.58542 5.3168 0
M  V30 2556 H 257.217 2.70482 1.25073 0
M  V30 2557 H 254.754 1.34006 0.606692 0
M  V30 2558 H 256.712 2.03912 3.63972 0
M  V30 2559 H 255.342 1.06331 3.04784 0
M  V30 2560 H 254.394 3.24076 1.99195 0
M  V30 2561 H 255.706 4.13045 2.79634 0
M  V30 2562 H 254.86 3.3889 5.03228 0
M  V30 2563 H 253.599 2.39645 4.24761 0
M  V30 2564 H 252.604 4.45827 3.21742 0
M  V30 2565 H 253.829 5.46271 4.03442 0
M  V30 2566 H 251.775 3.69686 5.41912 0
M  V30 2567 H 251.692 5.42148 5.26889 0
M  V30 2568 H 252.96 4.70296 6.21644 0
M  V30 2569 N 257.189 -0.644168 1.43834 0
M  V30 2570 C 258.437 -1.40117 1.45642 0
M  V30 2571 C 258.758 -1.94814 0.0852413 0
M  V30 2572 O 258.028 -1.74988 -0.880688 0
M  V30 2573 H 256.608 -0.52005 0.536243 0
M  V30 2574 H 259.27 -0.7591 1.7951 0
M  V30 2575 H 258.366 -2.23902 2.17427 0
M  V30 2576 N 258.668 -1.30515 -0.883378 0
M  V30 2577 C 260.084 -1.08881 -1.16692 0
M  V30 2578 C 260.284 0.149409 -2.00945 0
M  V30 2579 O 259.34 0.84257 -2.38027 0
M  V30 2580 C 260.653 -2.35319 -1.87204 0
M  V30 2581 C 262.201 -2.40799 -1.99962 0
M  V30 2582 C 262.676 -3.67083 -2.73887 0
M  V30 2583 N 264.167 -3.679 -2.81432 0
M  V30 2584 C 264.902 -4.62303 -3.3921 0
M  V30 2585 N 264.398 -5.67052 -3.98025 0
M  V30 2586 N 266.191 -4.49845 -3.3704 0
M  V30 2587 H 258.342 -2.09951 -0.321633 0
M  V30 2588 H 260.605 -0.92556 -0.205043 0
M  V30 2589 H 260.311 -3.25689 -1.3274 0
M  V30 2590 H 260.185 -2.44089 -2.87577 0
M  V30 2591 H 262.572 -1.50907 -2.53597 0
M  V30 2592 H 262.653 -2.36003 -0.98673 0
M  V30 2593 H 262.297 -4.57334 -2.20925 0
M  V30 2594 H 262.227 -3.69141 -3.75556 0
M  V30 2595 H 264.718 -2.92171 -2.39676 0
M  V30 2596 H 265.031 -6.35184 -4.40183 0
M  V30 2597 H 263.376 -5.70842 -3.96439 0
M  V30 2598 H 266.567 -3.67194 -2.90321 0
M  V30 2599 H 266.74 -5.23597 -3.81772 0
M  V30 2600 N 260.146 1.09593 -1.13257 0
M  V30 2601 C 261.056 2.19739 -0.821691 0
M  V30 2602 C 262.072 1.72926 0.19302 0
M  V30 2603 O 263.248 2.01385 0.0244895 0
M  V30 2604 C 260.313 3.45482 -0.290333 0
M  V30 2605 C 259.374 4.06985 -1.36607 0
M  V30 2606 C 258.607 5.26726 -0.859975 0
M  V30 2607 O 258.83 5.69594 0.303082 0
M  V30 2608 O 257.764 5.7931 -1.63351 0
M  V30 2609 H 261.59 2.48781 -1.74189 0
M  V30 2610 H 259.175 1.18496 -0.909894 0
M  V30 2611 H 261.057 4.214 0.000674022 0
M  V30 2612 H 259.732 3.18047 0.602306 0
M  V30 2613 H 258.639 3.32712 -1.71037 0
M  V30 2614 H 259.972 4.38643 -2.23279 0
M  V30 2615 N 261.624 0.925811 1.2754 0
M  V30 2616 C 262.554 0.440748 2.29303 0
M  V30 2617 C 263.535 -0.497971 1.62648 0
M  V30 2618 O 264.72 -0.403126 1.8997 0
M  V30 2619 C 261.85 -0.309048 3.45922 0
M  V30 2620 C 260.804 0.54166 4.24559 0
M  V30 2621 C 260.13 -0.337191 5.33636 0
M  V30 2622 C 261.43 1.80516 4.90114 0
M  V30 2623 H 263.124 1.29121 2.70126 0
M  V30 2624 H 260.67 0.622323 1.29858 0
M  V30 2625 H 262.623 -0.659315 4.1621 0
M  V30 2626 H 261.347 -1.19352 3.04011 0
M  V30 2627 H 260.006 0.874609 3.56014 0
M  V30 2628 H 259.654 -1.22056 4.87966 0
M  V30 2629 H 259.354 0.228497 5.87156 0
M  V30 2630 H 260.878 -0.683072 6.06767 0
M  V30 2631 H 262.292 1.52307 5.52698 0
M  V30 2632 H 260.689 2.3142 5.53683 0
M  V30 2633 H 261.759 2.52581 4.13921 0
M  V30 2634 N 263.102 -1.41638 0.69111 0
M  V30 2635 C 264.348 -2.01598 0.220519 0
M  V30 2636 C 264.681 -1.54594 -1.17535 0
M  V30 2637 O 263.956 -0.755177 -1.79241 0
M  V30 2638 C 264.239 -3.59062 0.273243 0
M  V30 2639 C 264.092 -4.16203 1.70573 0
M  V30 2640 C 265.411 -4.38546 -0.369457 0
M  V30 2641 H 262.53 -0.732468 0.0816045 0
M  V30 2642 H 265.172 -1.68445 0.878986 0
M  V30 2643 H 263.322 -3.87435 -0.287411 0
M  V30 2644 H 264.994 -3.98722 2.31989 0
M  V30 2645 H 263.237 -3.71414 2.2413 0
M  V30 2646 H 263.908 -5.25358 1.69419 0
M  V30 2647 H 266.384 -4.1596 0.107977 0
M  V30 2648 H 265.26 -5.48069 -0.302002 0
M  V30 2649 H 265.521 -4.17662 -1.44951 0
M  V30 2650 N 264.58 -0.43555 -1.51462 0
M  V30 2651 C 265.543 0.365137 -2.26273 0
M  V30 2652 C 266.543 0.951227 -1.29647 0
M  V30 2653 O 267.733 0.825958 -1.53374 0
M  V30 2654 C 264.865 1.51645 -3.05314 0
M  V30 2655 H 266.058 -0.290474 -2.9849 0
M  V30 2656 H 263.611 -0.188676 -1.55157 0
M  V30 2657 H 264.346 2.20816 -2.3751 0
M  V30 2658 H 264.131 1.10238 -3.76284 0
M  V30 2659 H 265.621 2.08218 -3.61987 0
M  V30 2660 N 266.058 1.56714 -0.166846 0
M  V30 2661 C 267.021 2.16539 0.751232 0
M  V30 2662 C 268.021 1.11228 1.16125 0
M  V30 2663 O 269.211 1.36765 1.07894 0
M  V30 2664 C 266.343 2.74462 2.02196 0
M  V30 2665 H 267.536 2.99013 0.230499 0
M  V30 2666 H 265.089 1.56081 0.0826982 0
M  V30 2667 H 265.824 1.95709 2.58589 0
M  V30 2668 H 265.609 3.51527 1.73698 0
M  V30 2669 H 267.099 3.20489 2.67725 0
M  V30 2670 N 267.536 -0.106894 1.57237 0
M  V30 2671 C 268.785 -0.811163 1.8467 0
M  V30 2672 C 269.098 -1.80469 0.754342 0
M  V30 2673 O 270.304 -2.55601 0.915439 0
M  V30 2674 C 268.76 -1.49337 3.27454 0
M  V30 2675 C 268.368 -0.540217 4.44731 0
M  V30 2676 C 270.112 -2.18206 3.64124 0
M  V30 2677 C 268.019 -1.22634 5.78545 0
M  V30 2678 H 266.949 -0.306679 0.688813 0
M  V30 2679 H 269.6 -0.0639887 1.83388 0
M  V30 2680 H 267.982 -2.2876 3.23241 0
M  V30 2681 H 269.156 0.221659 4.60267 0
M  V30 2682 H 267.471 0.042146 4.16379 0
M  V30 2683 H 270.068 -2.70253 4.61376 0
M  V30 2684 H 270.411 -2.96562 2.92158 0
M  V30 2685 H 270.944 -1.45658 3.70174 0
M  V30 2686 H 267.683 -0.483832 6.53712 0
M  V30 2687 H 267.203 -1.95993 5.66874 0
M  V30 2688 H 268.882 -1.75615 6.2271 0
M  V30 2689 N 269.014 -1.53014 -0.377408 0
M  V30 2690 C 270.239 -1.72818 -1.14668 0
M  V30 2691 C 270.664 -0.450725 -1.8262 0
M  V30 2692 O 270.022 0.59439 -1.7128 0
M  V30 2693 C 270.07 -2.88627 -2.16164 0
M  V30 2694 O 269.174 -2.56409 -3.22998 0
M  V30 2695 H 268.515 -0.574301 -0.333278 0
M  V30 2696 H 271.045 -1.99853 -0.438152 0
M  V30 2697 H 271.055 -3.14455 -2.59966 0
M  V30 2698 H 269.73 -3.81294 -1.66095 0
M  V30 2699 H 268.307 -2.4136 -2.84253 0
M  V30 2700 N 270.492 0.636531 -1.44174 0
M  V30 2701 C 271.908 0.954104 -1.27941 0
M  V30 2702 C 272.108 2.0039 -0.211248 0
M  V30 2703 O 271.164 2.49236 0.404695 0
M  V30 2704 C 272.477 1.4225 -2.64925 0
M  V30 2705 C 274.025 1.53827 -2.72592 0
M  V30 2706 C 274.5 2.04053 -4.10032 0
M  V30 2707 N 275.991 2.11331 -4.12182 0
M  V30 2708 C 276.726 2.51352 -5.15374 0
M  V30 2709 N 276.222 2.90549 -6.2893 0
M  V30 2710 N 278.015 2.51438 -5.02728 0
M  V30 2711 H 270.166 -0.0578386 -2.12321 0
M  V30 2712 H 272.429 0.0367406 -0.947288 0
M  V30 2713 H 272.135 0.725466 -3.44136 0
M  V30 2714 H 272.009 2.39451 -2.9145 0
M  V30 2715 H 274.396 2.22628 -1.93702 0
M  V30 2716 H 274.477 0.550154 -2.49814 0
M  V30 2717 H 274.121 1.35848 -4.89395 0
M  V30 2718 H 274.051 3.03726 -4.30184 0
M  V30 2719 H 276.542 1.83745 -3.30222 0
M  V30 2720 H 276.855 3.19884 -7.03487 0
M  V30 2721 H 275.2 2.88313 -6.32377 0
M  V30 2722 H 278.391 2.20203 -4.13072 0
M  V30 2723 H 278.564 2.82304 -5.83274 0
M  V30 2724 N 271.97 1.30982 0.876444 0
M  V30 2725 C 273.198 1.23242 1.6619 0
M  V30 2726 C 273.613 -0.203345 1.87702 0
M  V30 2727 O 272.97 -1.13317 1.43057 0
M  V30 2728 C 273.021 1.96623 3.03351 0
M  V30 2729 O 272.742 3.34594 2.82804 0
M  V30 2730 C 274.243 1.95644 3.97792 0
M  V30 2731 H 271.463 0.426126 0.518322 0
M  V30 2732 H 274.007 1.7275 1.09442 0
M  V30 2733 H 272.162 1.50892 3.56806 0
M  V30 2734 H 272.576 3.71873 3.69879 0
M  V30 2735 H 274.05 2.51511 4.91372 0
M  V30 2736 H 274.527 0.937395 4.2908 0
M  V30 2737 H 275.133 2.41225 3.50272 0
M  V30 2738 N 273.449 -1.08991 1.13837 0
M  V30 2739 C 274.697 -1.80899 0.901098 0
M  V30 2740 C 275.018 -1.86356 -0.574134 0
M  V30 2741 O 274.288 -1.35235 -1.41733 0
M  V30 2742 H 272.868 -0.669966 0.330386 0
M  V30 2743 H 275.53 -1.318 1.43578 0
M  V30 2744 H 274.626 -2.83929 1.29578 0
M  V30 2745 N 274.927 -0.932562 -1.27047 0
M  V30 2746 C 276.175 -0.574422 -1.93765 0
M  V30 2747 C 276.496 0.887993 -1.73608 0
M  V30 2748 O 275.766 1.62999 -1.08665 0
M  V30 2749 H 274.346 -0.209451 -0.717035 0
M  V30 2750 H 277.008 -1.18601 -1.5466 0
M  V30 2751 H 276.104 -0.784841 -3.02071 0
M  V30 2752 N 276.405 1.4127 -0.698611 0
M  V30 2753 C 277.63 2.06024 -0.238512 0
M  V30 2754 C 278.055 1.5224 1.10475 0
M  V30 2755 O 277.413 0.650623 1.69223 0
M  V30 2756 C 277.461 3.59988 -0.209952 0
M  V30 2757 O 276.565 4.04282 0.814235 0
M  V30 2758 H 275.906 0.653829 -0.115775 0
M  V30 2759 H 278.436 1.8098 -0.954326 0
M  V30 2760 H 278.446 4.07979 -0.0418436 0
M  V30 2761 H 277.121 3.98503 -1.1903 0
M  V30 2762 H 275.698 3.6779 0.615234 0
M  V30 2763 N 277.883 0.443576 1.51229 0
M  V30 2764 C 279.111 -0.11929 2.06556 0
M  V30 2765 C 279.526 -1.35921 1.31038 0
M  V30 2766 O 278.883 -1.78675 0.371704 0
M  V30 2767 C 278.934 -0.435228 3.5887 0
M  V30 2768 O 278.655 0.755486 4.31537 0
M  V30 2769 C 280.156 -1.04808 4.30732 0
M  V30 2770 H 277.376 -0.0051584 0.67098 0
M  V30 2771 H 279.92 0.624453 1.94733 0
M  V30 2772 H 278.075 -1.12887 3.70588 0
M  V30 2773 H 278.489 0.483491 5.22267 0
M  V30 2774 H 279.963 -1.2191 5.3837 0
M  V30 2775 H 280.44 -2.03081 3.89429 0
M  V30 2776 H 281.046 -0.393637 4.23474 0
M  V30 2777 N 279.361 -1.56624 0.175154 0
M  V30 2778 C 280.591 -2.01082 -0.474283 0
M  V30 2779 C 280.999 -1.05447 -1.57091 0
M  V30 2780 O 280.342 -0.0480595 -1.83637 0
M  V30 2781 C 280.404 -3.41963 -1.10911 0
M  V30 2782 C 280.068 -4.56742 -0.153666 0
M  V30 2783 C 281.065 -5.16076 0.629448 0
M  V30 2784 C 278.75 -5.02277 -0.0483776 0
M  V30 2785 C 280.744 -6.19377 1.50501 0
M  V30 2786 C 278.431 -6.05427 0.830768 0
M  V30 2787 C 279.429 -6.63849 1.60605 0
M  V30 2788 O 279.117 -7.64998 2.47049 0
M  V30 2789 H 278.849 -0.664261 -0.125432 0
M  V30 2790 H 281.403 -2.03549 0.275163 0
M  V30 2791 H 279.633 -3.36422 -1.90676 0
M  V30 2792 H 281.322 -3.70352 -1.66114 0
M  V30 2793 H 282.088 -4.81776 0.558297 0
M  V30 2794 H 277.967 -4.56513 -0.641611 0
M  V30 2795 H 281.511 -6.64906 2.1106 0
M  V30 2796 H 277.408 -6.39151 0.903107 0
M  V30 2797 H 278.176 -7.82336 2.40607 0
M  V30 2798 N 280.839 0.0985539 -1.57292 0
M  V30 2799 C 282.069 0.815135 -1.8984 0
M  V30 2800 C 282.477 1.7297 -0.766679 0
M  V30 2801 O 281.82 1.81698 0.270483 0
M  V30 2802 C 281.882 1.6842 -3.17608 0
M  V30 2803 C 281.546 0.94182 -4.4719 0
M  V30 2804 C 282.543 0.273212 -5.19182 0
M  V30 2805 C 280.228 0.916927 -4.9386 0
M  V30 2806 C 282.222 -0.410361 -6.36078 0
M  V30 2807 C 279.909 0.229567 -6.10669 0
M  V30 2808 C 280.907 -0.432902 -6.81627 0
M  V30 2809 O 280.595 -1.10925 -7.9621 0
M  V30 2810 H 280.327 0.238501 -0.632529 0
M  V30 2811 H 282.881 0.0812659 -2.05239 0
M  V30 2812 H 281.111 2.46022 -2.98345 0
M  V30 2813 H 282.8 2.27704 -3.36015 0
M  V30 2814 H 283.566 0.283927 -4.84168 0
M  V30 2815 H 279.445 1.42201 -4.3852 0
M  V30 2816 H 282.989 -0.928013 -6.914 0
M  V30 2817 H 278.886 0.216686 -6.45136 0
M  V30 2818 H 279.654 -1.01579 -8.12172 0
M  V30 2819 N 282.317 1.53212 0.369288 0
M  V30 2820 C 283.728 1.60943 0.946276 0
M  V30 2821 C 284.079 0.47452 1.90375 0
M  V30 2822 O 283.204 -0.399597 2.12679 0
M  V30 2823 C 283.799 2.91715 1.72302 0
M  V30 2824 C 282.358 3.01792 2.24941 0
M  V30 2825 C 281.505 2.56211 1.06072 0
M  V30 2826 H 284.456 1.58007 0.148198 0
M  V30 2827 H 284.477 2.79309 2.58393 0
M  V30 2828 H 283.989 3.74295 1.0259 0
M  V30 2829 H 282.09 2.23791 2.97906 0
M  V30 2830 H 282.203 4.06803 2.53077 0
M  V30 2831 H 280.567 2.10998 1.4266 0
M  V30 2832 H 281.35 3.41206 0.378639 0
M  V30 2833 N 283.795 -0.628877 1.44509 0
M  V30 2834 C 285.072 -1.38733 1.37886 0
M  V30 2835 C 285.452 -2.11065 0.0387008 0
M  V30 2836 O 284.8 -2.06476 -0.97878 0
M  V30 2837 C 285.01 -2.35188 2.57852 0
M  V30 2838 C 286.358 -2.9845 3.02014 0
M  V30 2839 O 287.382 -2.45513 2.58073 0
M  V30 2840 O 286.241 -3.94487 3.78209 0
M  V30 2841 H 283.335 -0.621015 0.54614 0
M  V30 2842 H 285.881 -0.653744 1.56602 0
M  V30 2843 H 284.653 -1.80855 3.46998 0
M  V30 2844 H 284.276 -3.1596 2.4136 0
M  V30 2845 N 285.273 -1.31445 -0.869486 0
M  V30 2846 C 286.498 -1.24256 -1.66058 0
M  V30 2847 C 286.923 0.188928 -1.87149 0
M  V30 2848 O 286.281 1.13522 -1.4136 0
M  V30 2849 C 286.329 -1.9924 -3.00559 0
M  V30 2850 O 285.433 -1.33007 -3.90362 0
M  V30 2851 H 284.774 -0.428973 -0.506831 0
M  V30 2852 H 287.304 -1.73521 -1.08404 0
M  V30 2853 H 287.314 -2.08854 -3.50491 0
M  V30 2854 H 285.989 -3.03342 -2.84528 0
M  V30 2855 H 284.566 -1.31848 -3.48813 0
M  V30 2856 N 286.751 1.08385 -1.14413 0
M  V30 2857 C 287.997 1.81044 -0.913834 0
M  V30 2858 C 288.33 1.86004 0.558209 0
M  V30 2859 O 287.605 1.33606 1.4135 0
M  V30 2860 C 287.888 3.26648 -1.51569 0
M  V30 2861 C 287.741 3.29895 -3.0576 0
M  V30 2862 C 289.06 4.23629 -1.19273 0
M  V30 2863 H 286.179 0.65727 -0.333414 0
M  V30 2864 H 288.821 1.26896 -1.41412 0
M  V30 2865 H 286.971 3.72889 -1.09023 0
M  V30 2866 H 288.643 2.91977 -3.57137 0
M  V30 2867 H 286.886 2.69163 -3.40197 0
M  V30 2868 H 287.557 4.32516 -3.42977 0
M  V30 2869 H 290.033 3.85727 -1.56057 0
M  V30 2870 H 288.909 5.23822 -1.64017 0
M  V30 2871 H 289.17 4.41968 -0.108068 0
M  V30 2872 N 288.23 0.939286 1.26551 0
M  V30 2873 C 289.14 0.453432 2.30176 0
M  V30 2874 C 290.156 -0.471649 1.67486 0
M  V30 2875 O 291.332 -0.35164 1.98306 0
M  V30 2876 C 288.397 -0.275326 3.45605 0
M  V30 2877 C 287.458 0.686084 4.23782 0
M  V30 2878 C 286.691 -0.00798994 5.33699 0
M  V30 2879 O 286.914 -1.22528 5.57085 0
M  V30 2880 O 285.848 0.669746 5.98162 0
M  V30 2881 H 289.674 1.31416 2.73795 0
M  V30 2882 H 287.259 0.705095 1.31715 0
M  V30 2883 H 289.141 -0.685911 4.1578 0
M  V30 2884 H 287.816 -1.11147 3.0402 0
M  V30 2885 H 286.723 1.14658 3.56096 0
M  V30 2886 H 288.056 1.48979 4.69112 0
M  V30 2887 N 289.708 -1.40897 0.706093 0
M  V30 2888 C 290.956 -2.00657 0.241054 0
M  V30 2889 C 291.277 -1.56241 -1.16678 0
M  V30 2890 O 290.547 -0.79765 -1.78926 0
M  V30 2891 H 289.127 -0.742018 0.0861308 0
M  V30 2892 H 291.789 -1.72372 0.909604 0
M  V30 2893 H 290.885 -3.10958 0.266705 0
M  V30 2894 N 291.186 -0.45159 -1.50991 0
M  V30 2895 C 292.602 -0.104647 -1.59257 0
M  V30 2896 C 292.802 1.38728 -1.4614 0
M  V30 2897 O 291.858 2.15866 -1.30989 0
M  V30 2898 C 293.171 -0.637468 -2.93865 0
M  V30 2899 C 294.719 -0.599166 -3.07212 0
M  V30 2900 C 295.194 -1.1092 -4.44366 0
M  V30 2901 N 296.685 -1.06778 -4.50725 0
M  V30 2902 C 297.42 -1.43314 -5.55201 0
M  V30 2903 N 296.916 -1.87204 -6.67028 0
M  V30 2904 N 298.709 -1.3504 -5.45638 0
M  V30 2905 H 290.86 -1.42214 -1.57762 0
M  V30 2906 H 293.123 -0.586921 -0.744465 0
M  V30 2907 H 292.829 -1.68187 -3.08879 0
M  V30 2908 H 292.703 -0.0702139 -3.77135 0
M  V30 2909 H 295.09 0.436277 -2.91857 0
M  V30 2910 H 295.171 -1.20299 -2.25747 0
M  V30 2911 H 294.815 -2.14318 -4.60467 0
M  V30 2912 H 294.745 -0.481773 -5.24392 0
M  V30 2913 H 297.236 -0.745643 -3.70471 0
M  V30 2914 H 297.549 -2.13282 -7.42786 0
M  V30 2915 H 295.894 -1.91142 -6.68199 0
M  V30 2916 H 299.085 -1.00607 -4.57161 0
M  V30 2917 H 299.258 -1.63841 -6.26945 0
M  V30 2918 N 292.664 1.56529 -0.183458 0
M  V30 2919 C 293.911 1.97244 0.458357 0
M  V30 2920 C 294.239 1.06992 1.62428 0
M  V30 2921 O 293.494 0.106542 1.9541 0
M  V30 2922 C 293.793 3.43939 0.971637 0
M  V30 2923 C 293.459 4.5083 -0.0796784 0
M  V30 2924 C 292.121 4.79786 -0.368584 0
M  V30 2925 C 294.473 5.15138 -0.792638 0
M  V30 2926 C 291.801 5.70345 -1.37563 0
M  V30 2927 C 294.153 6.06784 -1.78875 0
M  V30 2928 C 292.817 6.34102 -2.08497 0
M  V30 2929 H 292.087 0.721768 0.167725 0
M  V30 2930 H 294.734 1.89472 -0.277976 0
M  V30 2931 H 293.039 3.48724 1.78602 0
M  V30 2932 H 294.736 3.72791 1.47744 0
M  V30 2933 H 291.326 4.28317 0.155668 0
M  V30 2934 H 295.51 4.92868 -0.582659 0
M  V30 2935 H 290.766 5.89789 -1.61118 0
M  V30 2936 H 294.94 6.55677 -2.3465 0
M  V30 2937 H 292.567 7.04074 -2.86678 0
M  V30 2938 N 294.142 -0.090211 1.57342 0
M  V30 2939 C 295.37 -0.806224 1.90546 0
M  V30 2940 C 295.785 -1.72041 0.777644 0
M  V30 2941 O 295.142 -1.80778 -0.250103 0
M  V30 2942 C 295.193 -1.61546 3.23396 0
M  V30 2943 O 294.914 -0.738043 4.31839 0
M  V30 2944 C 296.415 -2.4341 3.70495 0
M  V30 2945 H 293.635 -0.230256 0.630257 0
M  V30 2946 H 296.179 -0.0659843 2.04394 0
M  V30 2947 H 294.334 -2.30816 3.11131 0
M  V30 2948 H 294.748 -1.29901 5.08159 0
M  V30 2949 H 296.222 -2.95676 4.66133 0
M  V30 2950 H 296.699 -3.22098 2.98579 0
M  V30 2951 H 297.305 -1.79331 3.85643 0
M  V30 2952 N 295.62 -1.53406 -0.361157 0
M  V30 2953 C 296.869 -1.69022 -1.10066 0
M  V30 2954 C 297.182 -0.450838 -1.90333 0
M  V30 2955 O 298.388 -0.487617 -2.67085 0
M  V30 2956 C 296.844 -2.98812 -2.00598 0
M  V30 2957 C 296.452 -4.30027 -1.25621 0
M  V30 2958 C 298.196 -3.23795 -2.74513 0
M  V30 2959 C 296.103 -5.50903 -2.1508 0
M  V30 2960 H 295.033 -0.629776 -0.414606 0
M  V30 2961 H 297.684 -1.79907 -0.361348 0
M  V30 2962 H 296.066 -2.8174 -2.78278 0
M  V30 2963 H 297.24 -4.57745 -0.529739 0
M  V30 2964 H 295.555 -4.11522 -0.635496 0
M  V30 2965 H 298.152 -4.11289 -3.41681 0
M  V30 2966 H 298.495 -2.40045 -3.40123 0
M  V30 2967 H 299.028 -3.41561 -2.03914 0
M  V30 2968 H 295.767 -6.37143 -1.54041 0
M  V30 2969 H 295.287 -5.27459 -2.85565 0
M  V30 2970 H 296.966 -5.85865 -2.74538 0
M  V30 2971 N 297.098 0.621204 -1.44841 0
M  V30 2972 C 298.323 1.41244 -1.51871 0
M  V30 2973 C 298.748 1.87519 -0.147764 0
M  V30 2974 O 298.106 1.59334 0.865 0
M  V30 2975 C 298.154 2.60221 -2.49634 0
M  V30 2976 O 297.258 3.60395 -2.00473 0
M  V30 2977 H 296.599 0.42223 -0.512463 0
M  V30 2978 H 299.129 0.757305 -1.90069 0
M  V30 2979 H 299.139 3.0764 -2.67996 0
M  V30 2980 H 297.814 2.25887 -3.4921 0
M  V30 2981 H 296.391 3.19717 -1.91925 0
M  V30 2982 N 298.576 1.31904 0.862503 0
M  V30 2983 C 299.992 1.10724 1.14945 0
M  V30 2984 C 300.192 -0.117421 2.01158 0
M  V30 2985 O 299.248 -0.804595 2.39338 0
M  V30 2986 C 300.561 2.38267 1.83437 0
M  V30 2987 C 302.109 2.43949 1.96106 0
M  V30 2988 C 302.584 3.71394 2.68013 0
M  V30 2989 N 304.075 3.72331 2.75543 0
M  V30 2990 C 304.81 4.67641 3.31812 0
M  V30 2991 N 304.306 5.73313 3.88953 0
M  V30 2992 N 306.099 4.5515 3.29841 0
M  V30 2993 H 298.25 2.10436 0.288191 0
M  V30 2994 H 300.513 0.928705 0.190292 0
M  V30 2995 H 300.219 3.27759 1.27542 0
M  V30 2996 H 300.093 2.48633 2.83657 0
M  V30 2997 H 302.48 1.54922 2.51164 0
M  V30 2998 H 302.561 2.37543 0.949059 0
M  V30 2999 H 302.205 4.60791 2.13621 0
M  V30 3000 H 302.135 3.75069 3.69636 0
M  V30 3001 H 304.626 2.95947 2.34997 0
M  V30 3002 H 304.939 6.42107 4.30022 0
M  V30 3003 H 303.284 5.77077 3.87308 0
M  V30 3004 H 306.475 3.71766 2.84443 0
M  V30 3005 H 306.648 5.29604 3.73394 0
M  V30 3006 N 300.054 -1.07777 1.14986 0
M  V30 3007 C 301.331 -1.7699 0.832695 0
M  V30 3008 C 301.711 -2.001 -0.672561 0
M  V30 3009 O 301.059 -1.61598 -1.6155 0
M  V30 3010 C 301.269 -3.08139 1.63863 0
M  V30 3011 C 302.617 -3.8256 1.84208 0
M  V30 3012 O 303.641 -3.17939 1.60603 0
M  V30 3013 O 302.5 -4.98612 2.23714 0
M  V30 3014 H 299.594 -0.768389 0.305791 0
M  V30 3015 H 302.14 -1.14182 1.25541 0
M  V30 3016 H 300.912 -2.86909 2.6608 0
M  V30 3017 H 300.535 -3.78678 1.21197 0
M  V30 3018 N 301.532 -0.945985 -1.26051 0
M  V30 3019 C 302.48 -0.450259 -2.282 0
M  V30 3020 C 303.474 0.47497 -1.62605 0
M  V30 3021 O 304.68 0.352653 -1.76512 0
M  V30 3022 H 301.055 -0.127081 -0.741184 0
M  V30 3023 H 303.026 -1.32422 -2.67408 0
M  V30 3024 C 301.775 0.26467 -3.46691 0
M  V30 3025 H 301.098 -0.438123 -3.97392 0
M  V30 3026 H 302.538 0.575678 -4.20074 0
M  V30 3027 C 300.997 1.48416 -3.02447 0
M  V30 3028 O 301.527 2.58227 -3.07704 0
M  V30 3029 N 299.733 1.34243 -2.57735 0
M  V30 3030 H 299.28 0.448994 -2.53657 0
M  V30 3031 H 299.238 2.15957 -2.28495 0
M  V30 3032 N 303.011 1.40521 -0.713556 0
M  V30 3033 C 303.974 2.29098 -0.0684347 0
M  V30 3034 C 304.974 1.45268 0.689472 0
M  V30 3035 O 306.164 1.66205 0.521677 0
M  V30 3036 C 303.296 3.28446 0.913024 0
M  V30 3037 H 304.489 2.87645 -0.84855 0
M  V30 3038 H 302.042 1.48809 -0.47809 0
M  V30 3039 H 302.777 2.74913 1.72027 0
M  V30 3040 H 302.562 3.90327 0.372472 0
M  V30 3041 H 304.052 3.94777 1.36165 0
M  V30 3042 N 304.489 0.459591 1.5075 0
M  V30 3043 C 305.436 -0.340524 2.28274 0
M  V30 3044 C 306.406 -0.997371 1.32822 0
M  V30 3045 O 307.591 -1.01202 1.61749 0
M  V30 3046 C 304.731 -1.42317 3.14388 0
M  V30 3047 C 303.844 -0.782251 4.24859 0
M  V30 3048 C 302.979 -1.84182 4.98247 0
M  V30 3049 C 302.018 -1.18053 6.00608 0
M  V30 3050 N 301.155 -2.18244 6.67319 0
M  V30 3051 H 305.995 0.326899 2.96202 0
M  V30 3052 H 303.532 0.173057 1.46078 0
M  V30 3053 H 305.49 -2.06241 3.62658 0
M  V30 3054 H 304.12 -2.05992 2.4853 0
M  V30 3055 H 303.172 -0.0307404 3.80388 0
M  V30 3056 H 304.484 -0.259663 4.98124 0
M  V30 3057 H 303.638 -2.55714 5.50177 0
M  V30 3058 H 302.377 -2.39819 4.24662 0
M  V30 3059 H 301.382 -0.450776 5.47949 0
M  V30 3060 H 302.607 -0.631202 6.7616 0
M  V30 3061 H 300.553 -2.72919 5.96533 0
M  V30 3062 H 300.47 -1.70938 7.36421 0
M  V30 3063 H 301.738 -2.89191 7.23871 0
M  V30 3064 N 305.967 -1.56429 0.191757 0
M  V30 3065 C 307.383 -1.58754 -0.164137 0
M  V30 3066 C 307.583 -1.20782 -1.61288 0
M  V30 3067 O 306.639 -0.928999 -2.34789 0
M  V30 3068 C 307.952 -3.00396 0.135195 0
M  V30 3069 C 309.5 -3.1291 0.0750351 0
M  V30 3070 C 309.975 -4.56679 0.347632 0
M  V30 3071 N 311.466 -4.62252 0.296131 0
M  V30 3072 C 312.201 -5.71379 0.480948 0
M  V30 3073 N 311.697 -6.88986 0.725933 0
M  V30 3074 N 313.49 -5.60563 0.415435 0
M  V30 3075 H 305.641 -1.79393 1.13718 0
M  V30 3076 H 307.904 -0.832414 0.453643 0
M  V30 3077 H 307.61 -3.32726 1.13958 0
M  V30 3078 H 307.484 -3.72963 -0.563773 0
M  V30 3079 H 309.871 -2.80394 -0.919948 0
M  V30 3080 H 309.952 -2.42736 0.807029 0
M  V30 3081 H 309.596 -4.89907 1.33992 0
M  V30 3082 H 309.526 -5.25039 -0.405212 0
M  V30 3083 H 312.017 -3.7773 0.113259 0
M  V30 3084 H 312.33 -7.68046 0.855857 0
M  V30 3085 H 310.675 -6.90801 0.762788 0
M  V30 3086 H 313.866 -4.67561 0.224486 0
M  V30 3087 H 314.039 -6.45551 0.562889 0
M  V30 3088 N 307.445 0.0818655 -1.57387 0
M  V30 3089 C 308.378 1.12986 -1.98266 0
M  V30 3090 C 309.356 1.38123 -0.857954 0
M  V30 3091 O 310.54 1.51663 -1.1194 0
M  V30 3092 C 307.667 2.47632 -2.31076 0
M  V30 3093 C 306.713 2.38693 -3.53452 0
M  V30 3094 S 307.546 1.79071 -5.04672 0
M  V30 3095 C 308.702 3.15316 -5.40673 0
M  V30 3096 H 308.935 0.781435 -2.86846 0
M  V30 3097 H 306.468 0.290034 -1.51651 0
M  V30 3098 H 308.426 3.25089 -2.50654 0
M  V30 3099 H 307.087 2.79638 -1.43043 0
M  V30 3100 H 306.28 3.37964 -3.73893 0
M  V30 3101 H 305.882 1.69369 -3.33452 0
M  V30 3102 H 308.174 4.11613 -5.38127 0
M  V30 3103 H 309.117 2.99664 -6.41566 0
M  V30 3104 H 309.525 3.15457 -4.68132 0
M  V30 3105 N 308.923 1.53595 0.353017 0
M  V30 3106 C 310.169 1.70638 1.09593 0
M  V30 3107 C 310.502 0.463286 1.88593 0
M  V30 3108 O 309.777 -0.539597 1.86865 0
M  V30 3109 C 310.06 2.96406 2.04489 0
M  V30 3110 C 309.913 4.30901 1.29014 0
M  V30 3111 C 311.232 3.17812 3.0444 0
M  V30 3112 H 308.351 0.620913 0.397034 0
M  V30 3113 H 310.993 1.86254 0.375446 0
M  V30 3114 H 309.143 2.83223 2.65927 0
M  V30 3115 H 310.815 4.55917 0.702638 0
M  V30 3116 H 309.058 4.29741 0.592071 0
M  V30 3117 H 309.729 5.1506 1.98537 0
M  V30 3118 H 312.205 3.30263 2.53112 0
M  V30 3119 H 311.081 4.07223 3.6805 0
M  V30 3120 H 311.342 2.33669 3.75301 0
M  V30 3121 N 310.401 -0.613514 1.45168 0
M  V30 3122 C 311.631 -1.39743 1.52169 0
M  V30 3123 C 312.039 -1.88596 0.151086 0
M  V30 3124 O 311.382 -1.6251 -0.856521 0
M  V30 3125 C 311.444 -2.64035 2.43979 0
M  V30 3126 C 311.108 -2.36861 3.90827 0
M  V30 3127 C 312.105 -1.97591 4.80889 0
M  V30 3128 C 309.79 -2.49956 4.35692 0
M  V30 3129 C 311.784 -1.71768 6.1382 0
M  V30 3130 C 309.471 -2.23747 5.68665 0
M  V30 3131 C 310.469 -1.84714 6.57548 0
M  V30 3132 O 310.157 -1.58809 7.88058 0
M  V30 3133 H 309.889 -0.434382 0.517966 0
M  V30 3134 H 312.443 -0.75587 1.90986 0
M  V30 3135 H 310.673 -3.3089 2.00122 0
M  V30 3136 H 312.362 -3.26069 2.41731 0
M  V30 3137 H 313.128 -1.87015 4.47493 0
M  V30 3138 H 309.007 -2.79305 3.66756 0
M  V30 3139 H 312.551 -1.41227 6.83155 0
M  V30 3140 H 308.448 -2.33938 6.01617 0
M  V30 3141 H 309.216 -1.7291 8.00028 0
M  V30 3142 N 311.879 -1.3236 -0.855495 0
M  V30 3143 C 312.809 -1.23833 -1.97958 0
M  V30 3144 C 313.79 -0.122361 -1.69659 0
M  V30 3145 O 314.975 -0.30939 -1.9172 0
M  V30 3146 C 312.105 -0.959772 -3.33775 0
M  V30 3147 C 311.059 -2.03689 -3.76424 0
M  V30 3148 C 310.385 -1.61075 -5.09862 0
M  V30 3149 C 311.685 -3.4518 -3.9198 0
M  V30 3150 H 313.379 -2.1788 -2.0535 0
M  V30 3151 H 310.925 -1.04891 -0.986605 0
M  V30 3152 H 312.878 -0.886678 -4.11966 0
M  V30 3153 H 311.602 0.0163404 -3.26596 0
M  V30 3154 H 310.261 -2.10012 -3.00484 0
M  V30 3155 H 309.909 -0.622107 -4.99138 0
M  V30 3156 H 309.609 -2.33143 -5.39368 0
M  V30 3157 H 311.133 -1.55201 -5.90546 0
M  V30 3158 H 312.547 -3.4145 -4.60526 0
M  V30 3159 H 310.944 -4.1559 -4.32903 0
M  V30 3160 H 312.014 -3.84903 -2.94919 0
M  V30 3161 N 313.357 1.07166 -1.15556 0
M  V30 3162 C 314.289 2.14341 -0.811815 0
M  V30 3163 C 315.302 1.61835 0.177015 0
M  V30 3164 O 316.491 1.78439 -0.0464996 0
M  V30 3165 C 313.591 3.38387 -0.186481 0
M  V30 3166 C 312.764 4.20238 -1.21321 0
M  V30 3167 C 311.823 5.2266 -0.609302 0
M  V30 3168 O 310.849 5.54719 -1.27576 0
M  V30 3169 N 312.051 5.77306 0.608099 0
M  V30 3170 H 314.816 2.44431 -1.73417 0
M  V30 3171 H 312.377 1.23089 -1.0517 0
M  V30 3172 H 314.369 4.04044 0.230339 0
M  V30 3173 H 312.939 3.05994 0.639249 0
M  V30 3174 H 312.159 3.50369 -1.80652 0
M  V30 3175 H 313.447 4.71736 -1.90638 0
M  V30 3176 H 312.845 5.53513 1.1679 0
M  V30 3177 H 311.402 6.44583 0.96725 0
M  V30 3178 N 314.835 0.952656 1.25548 0
M  V30 3179 C 315.768 0.415525 2.24385 0
M  V30 3180 C 316.746 -0.502046 1.54655 0
M  V30 3181 O 317.93 -0.436875 1.83368 0
M  V30 3182 C 315.057 -0.401734 3.36309 0
M  V30 3183 C 314.103 0.455949 4.24056 0
M  V30 3184 S 314.936 1.88698 5.01152 0
M  V30 3185 C 316.092 1.07809 6.16545 0
M  V30 3186 H 316.325 1.25315 2.69599 0
M  V30 3187 H 313.858 0.756587 1.34592 0
M  V30 3188 H 315.816 -0.867329 4.01233 0
M  V30 3189 H 314.477 -1.21416 2.89684 0
M  V30 3190 H 313.67 -0.170776 5.03711 0
M  V30 3191 H 313.272 0.856675 3.64056 0
M  V30 3192 H 315.564 0.325816 6.76716 0
M  V30 3193 H 316.507 1.84849 6.83547 0
M  V30 3194 H 316.915 0.60909 5.61204 0
M  V30 3195 N 316.313 -1.40141 0.720998 0
M  V30 3196 C 317.261 -2.3252 0.0608547 0
M  V30 3197 C 318.255 -1.52326 -0.741152 0
M  V30 3198 O 319.461 -1.68089 -0.643911 0
M  V30 3199 H 315.836 -0.751999 0.000876664 0
M  V30 3200 H 317.807 -2.8584 0.856614 0
M  V30 3201 C 316.556 -3.37331 -0.842809 0
M  V30 3202 H 315.879 -3.99108 -0.235084 0
M  V30 3203 H 317.319 -4.04452 -1.27257 0
M  V30 3204 C 315.778 -2.73246 -1.97074 0
M  V30 3205 O 316.308 -2.59998 -3.06209 0
M  V30 3206 N 314.514 -2.31547 -1.75597 0
M  V30 3207 H 314.061 -2.42522 -0.868368 0
M  V30 3208 H 314.019 -1.89007 -2.51244 0
M  V30 3209 N 317.792 -0.46758 -1.50504 0
M  V30 3210 C 319.017 0.0886943 -2.0721 0
M  V30 3211 C 319.442 1.33057 -1.32956 0
M  V30 3212 O 318.8 1.77354 -0.376197 0
M  V30 3213 C 318.848 0.359202 -3.58806 0
M  V30 3214 O 317.952 1.44034 -3.8643 0
M  V30 3215 H 317.293 -0.0114349 -0.663902 0
M  V30 3216 H 319.823 -0.657613 -1.93744 0
M  V30 3217 H 319.833 0.600742 -4.03553 0
M  V30 3218 H 318.508 -0.548311 -4.1227 0
M  V30 3219 H 317.085 1.18638 -3.53524 0
M  V30 3220 N 319.27 1.56325 -0.20005 0
M  V30 3221 C 320.2 2.22318 0.713916 0
M  V30 3222 C 321.181 1.18788 1.21752 0
M  V30 3223 O 322.366 1.47309 1.26545 0
M  V30 3224 C 319.496 2.88639 1.93144 0
M  V30 3225 C 318.45 3.98457 1.56255 0
M  V30 3226 C 317.776 4.51967 2.85709 0
M  V30 3227 C 319.076 5.16612 0.768747 0
M  V30 3228 H 320.77 2.98952 0.163755 0
M  V30 3229 H 318.316 1.43792 0.0773219 0
M  V30 3230 H 320.269 3.33491 2.57608 0
M  V30 3231 H 318.993 2.09419 2.50621 0
M  V30 3232 H 317.652 3.54305 0.941471 0
M  V30 3233 H 317.3 3.69503 3.41287 0
M  V30 3234 H 317 5.26071 2.6177 0
M  V30 3235 H 318.524 4.99523 3.51154 0
M  V30 3236 H 319.938 5.57977 1.3166 0
M  V30 3237 H 318.335 5.96812 0.627286 0
M  V30 3238 H 319.405 4.84358 -0.229168 0
M  V30 3239 N 320.748 -0.0735177 1.57428 0
M  V30 3240 C 322.164 -0.428264 1.53747 0
M  V30 3241 C 322.364 -1.79272 0.91998 0
M  V30 3242 O 321.42 -2.47051 0.521745 0
M  V30 3243 C 322.733 -0.370914 2.98404 0
M  V30 3244 C 324.281 -0.451224 3.0973 0
M  V30 3245 C 324.756 -0.4238 4.56035 0
M  V30 3246 N 326.247 -0.483925 4.60665 0
M  V30 3247 C 326.982 -0.484891 5.71346 0
M  V30 3248 N 326.478 -0.440775 6.91396 0
M  V30 3249 N 328.271 -0.531319 5.59583 0
M  V30 3250 H 320.422 0.819949 1.95935 0
M  V30 3251 H 322.685 0.307493 0.896745 0
M  V30 3252 H 322.391 0.564956 3.47133 0
M  V30 3253 H 322.265 -1.18176 3.5821 0
M  V30 3254 H 324.652 -1.37752 2.60976 0
M  V30 3255 H 324.733 0.388167 2.52838 0
M  V30 3256 H 324.377 0.498638 5.05446 0
M  V30 3257 H 324.307 -1.2807 5.10789 0
M  V30 3258 H 326.798 -0.522338 3.74273 0
M  V30 3259 H 327.111 -0.44539 7.71515 0
M  V30 3260 H 325.456 -0.40749 6.93804 0
M  V30 3261 H 328.647 -0.563464 4.64696 0
M  V30 3262 H 328.82 -0.528603 6.4584 0
M  V30 3263 N 322.226 -1.5378 -0.344866 0
M  V30 3264 C 323.189 -1.80981 -1.40637 0
M  V30 3265 C 324.189 -0.680816 -1.45676 0
M  V30 3266 O 325.379 -0.949095 -1.46075 0
M  V30 3267 C 322.511 -1.95063 -2.79577 0
M  V30 3268 H 323.704 -2.75803 -1.17783 0
M  V30 3269 H 321.257 -1.45173 -0.579181 0
M  V30 3270 H 321.992 -1.02379 -3.07716 0
M  V30 3271 H 321.777 -2.77198 -2.77315 0
M  V30 3272 H 323.267 -2.17629 -3.56409 0
M  V30 3273 N 323.704 0.605807 -1.45491 0
M  V30 3274 C 324.614 1.74466 -1.56839 0
M  V30 3275 C 325.63 1.68006 -0.452772 0
M  V30 3276 O 326.806 1.8833 -0.713708 0
M  V30 3277 C 323.871 3.10931 -1.53371 0
M  V30 3278 C 322.932 3.28832 -2.75986 0
M  V30 3279 C 322.165 4.58787 -2.72673 0
M  V30 3280 O 322.388 5.4122 -1.80102 0
M  V30 3281 O 321.322 4.79438 -3.63899 0
M  V30 3282 H 325.148 1.67843 -2.53106 0
M  V30 3283 H 322.733 0.770108 -1.28022 0
M  V30 3284 H 324.615 3.92233 -1.54051 0
M  V30 3285 H 323.29 3.18042 -0.602572 0
M  V30 3286 H 322.197 2.47112 -2.80867 0
M  V30 3287 H 323.53 3.26599 -3.68231 0
M  V30 3288 N 325.182 1.32811 0.848464 0
M  V30 3289 C 326.459 1.14334 1.58704 0
M  V30 3290 C 326.839 -0.293948 2.09043 0
M  V30 3291 O 326.187 -1.29153 1.88499 0
M  V30 3292 C 326.397 2.17626 2.72837 0
M  V30 3293 C 327.745 2.51282 3.42261 0
M  V30 3294 O 328.769 2.16219 2.83068 0
M  V30 3295 O 327.628 3.11413 4.49093 0
M  V30 3296 H 324.722 0.441601 0.699226 0
M  V30 3297 H 327.268 1.44362 0.892053 0
M  V30 3298 H 326.04 3.14211 2.3321 0
M  V30 3299 H 325.663 1.88628 3.50008 0
M  V30 3300 N 326.66 -1.06551 1.16123 0
M  V30 3301 C 327.888 -1.83005 0.965237 0
M  V30 3302 C 328.303 -1.82423 -0.486542 0
M  V30 3303 O 327.66 -1.24152 -1.33763 0
M  V30 3304 C 327.711 -3.29733 1.48183 0
M  V30 3305 O 327.432 -3.30416 2.87674 0
M  V30 3306 C 328.933 -4.22926 1.32848 0
M  V30 3307 H 326.153 -0.577118 0.342309 0
M  V30 3308 H 328.697 -1.3445 1.54089 0
M  V30 3309 H 326.852 -3.75609 0.948517 0
M  V30 3310 H 327.266 -4.22149 3.11272 0
M  V30 3311 H 328.74 -5.23916 1.73827 0
M  V30 3312 H 329.217 -4.38346 0.273692 0
M  V30 3313 H 329.823 -3.82894 1.85127 0
M  V30 3314 N 328.138 -0.959301 -1.25041 0
M  V30 3315 C 329.101 -0.487677 -2.23952 0
M  V30 3316 C 330.101 0.41119 -1.55454 0
M  V30 3317 O 331.291 0.207825 -1.72956 0
M  V30 3318 C 328.423 0.294807 -3.39623 0
M  V30 3319 H 329.616 -1.36198 -2.67189 0
M  V30 3320 H 327.169 -0.743042 -1.37508 0
M  V30 3321 H 327.904 1.18658 -3.01813 0
M  V30 3322 H 327.689 -0.35012 -3.90534 0
M  V30 3323 H 329.179 0.614089 -4.1306 0
M  V30 3324 N 329.616 1.39756 -0.72842 0
M  V30 3325 C 330.862 2.00942 -0.273892 0
M  V30 3326 C 331.195 1.57656 1.13394 0
M  V30 3327 O 330.47 0.802434 1.77176 0
M  V30 3328 C 330.753 3.58211 -0.368346 0
M  V30 3329 C 330.606 4.11534 -1.81548 0
M  V30 3330 C 331.925 4.39372 0.253054 0
M  V30 3331 H 329.044 0.730047 -0.100996 0
M  V30 3332 H 331.686 1.66056 -0.923337 0
M  V30 3333 H 329.836 3.88061 0.184588 0
M  V30 3334 H 331.508 3.92431 -2.42478 0
M  V30 3335 H 329.751 3.65341 -2.33898 0
M  V30 3336 H 330.422 5.20682 -1.83288 0
M  V30 3337 H 332.898 4.15527 -0.218224 0
M  V30 3338 H 331.774 5.48677 0.156585 0
M  V30 3339 H 332.035 4.21358 1.33826 0
M  V30 3340 N 331.094 0.475555 1.50254 0
M  V30 3341 C 332.324 -0.0753399 2.06463 0
M  V30 3342 C 332.732 -1.33661 1.33908 0
M  V30 3343 O 332.075 -1.79219 0.403257 0
M  V30 3344 C 332.137 -0.424921 3.5698 0
M  V30 3345 C 331.801 0.734965 4.51051 0
M  V30 3346 C 332.798 1.61827 4.94073 0
M  V30 3347 C 330.483 0.926557 4.9368 0
M  V30 3348 C 332.477 2.67754 5.78434 0
M  V30 3349 C 330.164 1.98904 5.77824 0
M  V30 3350 C 331.162 2.8629 6.20103 0
M  V30 3351 O 330.85 3.90708 7.02568 0
M  V30 3352 H 330.582 0.00576308 0.675975 0
M  V30 3353 H 333.136 0.664662 1.94349 0
M  V30 3354 H 331.366 -1.21817 3.67012 0
M  V30 3355 H 333.055 -0.911422 3.95535 0
M  V30 3356 H 333.821 1.48196 4.61804 0
M  V30 3357 H 329.7 0.25584 4.6029 0
M  V30 3358 H 333.244 3.35992 6.11355 0
M  V30 3359 H 329.141 2.12541 6.09505 0
M  V30 3360 H 329.909 3.87751 7.20827 0
M  V30 3361 N 332.573 -1.56217 0.208337 0
M  V30 3362 C 333.803 -2.02043 -0.431523 0
M  V30 3363 C 334.211 -1.08755 -1.54819 0
M  V30 3364 O 333.554 -0.0870009 -1.83494 0
M  V30 3365 C 333.616 -3.44239 -1.03633 0
M  V30 3366 C 333.28 -4.56965 -0.0567502 0
M  V30 3367 C 334.277 -5.14624 0.738773 0
M  V30 3368 C 331.962 -5.02266 0.0581736 0
M  V30 3369 C 333.956 -6.16045 1.63605 0
M  V30 3370 C 331.643 -6.03528 0.959001 0
M  V30 3371 C 332.641 -6.60293 1.7465 0
M  V30 3372 O 332.329 -7.59586 2.6322 0
M  V30 3373 H 332.061 -0.666772 -0.111313 0
M  V30 3374 H 334.615 -2.02919 0.318277 0
M  V30 3375 H 332.845 -3.40391 -1.83497 0
M  V30 3376 H 334.534 -3.73793 -1.58221 0
M  V30 3377 H 335.3 -4.80483 0.660364 0
M  V30 3378 H 331.179 -4.57771 -0.544633 0
M  V30 3379 H 334.723 -6.60279 2.25116 0
M  V30 3380 H 330.62 -6.37092 1.03848 0
M  V30 3381 H 331.388 -7.77057 2.57148 0
M  V30 3382 N 334.051 0.0651679 -1.57465 0
M  V30 3383 C 335.291 0.768329 -1.8941 0
M  V30 3384 C 335.655 1.74406 -0.802894 0
M  V30 3385 O 336.856 2.49281 -1.0056 0
M  V30 3386 C 335.127 1.45199 -3.26576 0
M  V30 3387 S 336.686 2.1893 -3.80283 0
M  V30 3388 H 333.504 0.255359 -0.663561 0
M  V30 3389 H 336.106 0.024167 -1.95485 0
M  V30 3390 H 334.81 0.728123 -4.03889 0
M  V30 3391 H 334.341 2.23545 -3.23715 0
M  V30 3392 H 336.356 3.45551 -3.56102 0
M  V30 3393 N 335.529 1.53961 0.336706 0
M  V30 3394 C 336.492 1.81724 1.39675 0
M  V30 3395 C 337.492 0.688532 1.45313 0
M  V30 3396 O 338.682 0.956829 1.45569 0
M  V30 3397 C 335.814 1.96543 2.78538 0
M  V30 3398 H 337.007 2.76424 1.16318 0
M  V30 3399 H 334.56 1.45478 0.571474 0
M  V30 3400 H 335.295 1.0401 3.07168 0
M  V30 3401 H 335.08 2.78665 2.75841 0
M  V30 3402 H 336.57 2.19516 3.5525 0
M  V30 3403 N 337.007 -0.598083 1.45811 0
M  V30 3404 C 337.97 -1.69018 1.54808 0
M  V30 3405 C 338.97 -1.55037 0.426652 0
M  V30 3406 O 340.16 -1.59932 0.690456 0
M  V30 3407 C 337.292 -3.0835 1.45371 0
M  V30 3408 H 338.485 -1.62403 2.52121 0
M  V30 3409 H 336.038 -0.814626 1.33392 0
M  V30 3410 H 336.773 -3.20534 0.492793 0
M  V30 3411 H 336.558 -3.19907 2.26721 0
M  V30 3412 H 338.048 -3.8788 1.54721 0
M  V30 3413 N 338.485 -1.33259 -0.841409 0
M  V30 3414 C 339.448 -1.23221 -1.9326 0
M  V30 3415 C 340.448 -0.151895 -1.60081 0
M  V30 3416 O 341.638 -0.403246 -1.69468 0
M  V30 3417 C 338.77 -0.898123 -3.28856 0
M  V30 3418 H 339.963 -2.2021 -2.03587 0
M  V30 3419 H 337.516 -1.17281 -1.03319 0
M  V30 3420 H 338.251 0.0693841 -3.24226 0
M  V30 3421 H 338.036 -1.67934 -3.54317 0
M  V30 3422 H 339.526 -0.852563 -4.08805 0
M  V30 3423 N 339.963 1.05934 -1.16686 0
M  V30 3424 C 341.211 1.78447 -0.948744 0
M  V30 3425 C 341.532 1.87813 0.524523 0
M  V30 3426 O 340.802 1.38945 1.38098 0
M  V30 3427 H 339.382 0.660971 -0.348033 0
M  V30 3428 H 342.044 1.27947 -1.47022 0
M  V30 3429 H 341.14 2.80394 -1.37061 0
M  V30 3430 N 341.441 0.965919 1.2453 0
M  V30 3431 C 342.687 0.62776 1.92839 0
M  V30 3432 C 343.02 -0.834694 1.75347 0
M  V30 3433 O 342.295 -1.60031 1.10546 0
M  V30 3434 C 342.578 1.00109 3.45905 0
M  V30 3435 C 342.431 2.52011 3.72573 0
M  V30 3436 C 343.75 0.53435 4.36844 0
M  V30 3437 H 340.869 0.229537 0.700344 0
M  V30 3438 H 343.511 1.2046 1.46933 0
M  V30 3439 H 341.661 0.510238 3.85135 0
M  V30 3440 H 343.333 3.08559 3.42912 0
M  V30 3441 H 341.576 2.95287 3.17786 0
M  V30 3442 H 342.247 2.73183 4.79661 0
M  V30 3443 H 344.723 0.955565 4.04979 0
M  V30 3444 H 343.599 0.824152 5.42678 0
M  V30 3445 H 343.86 -0.565589 4.38467 0
M  V30 3446 N 342.919 -1.39368 0.735821 0
M  V30 3447 C 344.335 -1.54204 0.411492 0
M  V30 3448 C 344.535 -1.70268 -1.07755 0
M  V30 3449 O 343.591 -1.70364 -1.86366 0
M  V30 3450 C 344.904 -2.75925 1.19523 0
M  V30 3451 C 346.452 -2.89761 1.18354 0
M  V30 3452 C 346.927 -4.14421 1.94986 0
M  V30 3453 N 348.418 -4.21462 1.92156 0
M  V30 3454 C 349.153 -5.16871 2.48258 0
M  V30 3455 N 348.649 -6.18063 3.13001 0
M  V30 3456 N 350.442 -5.09093 2.38287 0
M  V30 3457 H 342.593 -1.27189 1.70108 0
M  V30 3458 H 344.856 -0.616517 0.720147 0
M  V30 3459 H 344.562 -2.70401 2.24892 0
M  V30 3460 H 344.436 -3.68614 0.800222 0
M  V30 3461 H 346.823 -2.94777 0.137975 0
M  V30 3462 H 346.904 -1.98133 1.61793 0
M  V30 3463 H 346.548 -4.10166 2.99543 0
M  V30 3464 H 346.478 -5.05095 1.48953 0
M  V30 3465 H 348.969 -3.48979 1.44991 0
M  V30 3466 H 349.282 -6.87326 3.53275 0
M  V30 3467 H 347.627 -6.18448 3.17091 0
M  V30 3468 H 350.818 -4.28973 1.8735 0
M  V30 3469 H 350.991 -5.83272 2.82308 0
M  V30 3470 N 344.397 -0.483516 -1.5 0
M  V30 3471 C 345.36 0.292965 -2.2732 0
M  V30 3472 C 346.36 0.909499 -1.32608 0
M  V30 3473 O 347.55 0.776745 -1.55924 0
M  V30 3474 C 344.682 1.41854 -3.09984 0
M  V30 3475 H 345.875 -0.385289 -2.97415 0
M  V30 3476 H 343.428 -0.237942 -1.54478 0
M  V30 3477 H 344.163 2.13148 -2.44414 0
M  V30 3478 H 343.948 0.982114 -3.79601 0
M  V30 3479 H 345.438 1.96597 -3.68429 0
M  V30 3480 N 345.875 1.56104 -0.216619 0
M  V30 3481 C 346.785 2.23694 0.706982 0
M  V30 3482 C 347.801 1.24295 1.21765 0
M  V30 3483 O 348.977 1.57094 1.2603 0
M  V30 3484 C 346.042 2.8998 1.90033 0
M  V30 3485 C 345.103 4.04708 1.43213 0
M  V30 3486 C 344.336 4.67824 2.56859 0
M  V30 3487 O 344.559 4.29913 3.74874 0
M  V30 3488 O 343.493 5.56905 2.28343 0
M  V30 3489 H 347.319 3.03272 0.161235 0
M  V30 3490 H 344.904 1.49394 0.0136177 0
M  V30 3491 H 346.786 3.31837 2.59735 0
M  V30 3492 H 345.461 2.13365 2.43428 0
M  V30 3493 H 344.368 3.6743 0.70327 0
M  V30 3494 H 345.701 4.83051 0.944615 0
M  V30 3495 N 347.353 -0.0568162 1.57498 0
M  V30 3496 C 348.63 -0.786954 1.79071 0
M  V30 3497 C 349.01 -1.95028 0.80792 0
M  V30 3498 O 348.358 -2.27968 -0.155858 0
M  V30 3499 C 348.568 -1.24594 3.26002 0
M  V30 3500 C 349.916 -1.67323 3.90241 0
M  V30 3501 O 350.94 -1.34124 3.29984 0
M  V30 3502 O 349.799 -2.28842 4.9628 0
M  V30 3503 H 346.893 -0.378262 0.735423 0
M  V30 3504 H 349.439 -0.035734 1.69662 0
M  V30 3505 H 348.211 -0.41423 3.89101 0
M  V30 3506 H 347.834 -2.05803 3.40192 0
M  V30 3507 N 348.832 -1.54138 -0.328536 0
M  V30 3508 C 350.08 -1.71765 -1.06496 0
M  V30 3509 C 350.401 -0.49149 -1.88704 0
M  V30 3510 O 349.671 0.494539 -1.89555 0
M  V30 3511 H 348.251 -0.633295 -0.396164 0
M  V30 3512 H 350.913 -1.91429 -0.366176 0
M  V30 3513 H 350.009 -2.5951 -1.73381 0
M  V30 3514 N 350.31 0.590341 -1.46126 0
M  V30 3515 C 351.726 0.912917 -1.30912 0
M  V30 3516 C 351.926 1.99616 -0.274893 0
M  V30 3517 O 350.982 2.50397 0.325197 0
M  V30 3518 C 352.295 1.3375 -2.69317 0
M  V30 3519 C 353.843 1.45077 -2.77348 0
M  V30 3520 C 354.318 1.90904 -4.16317 0
M  V30 3521 N 355.809 1.9811 -4.18696 0
M  V30 3522 C 356.544 2.34828 -5.23109 0
M  V30 3523 N 356.04 2.70393 -6.37856 0
M  V30 3524 N 357.833 2.35317 -5.10473 0
M  V30 3525 H 349.984 -0.125358 -2.1203 0
M  V30 3526 H 352.247 0.00658481 -0.947977 0
M  V30 3527 H 351.953 0.615614 -3.4627 0
M  V30 3528 H 351.827 2.30058 -2.9892 0
M  V30 3529 H 354.214 2.16353 -2.00687 0
M  V30 3530 H 354.295 0.4704 -2.51438 0
M  V30 3531 H 353.939 1.20209 -4.9347 0
M  V30 3532 H 353.869 2.89886 -4.39629 0
M  V30 3533 H 356.36 1.73146 -3.359 0
M  V30 3534 H 356.673 2.97341 -7.13308 0
M  V30 3535 H 355.018 2.68048 -6.41229 0
M  V30 3536 H 358.209 2.0695 -4.19868 0
M  V30 3537 H 358.382 2.63605 -5.9196 0
M  V30 3538 N 351.788 1.33704 0.83433 0
M  V30 3539 C 353.034 1.25603 1.59222 0
M  V30 3540 C 353.367 -0.176659 1.93395 0
M  V30 3541 O 352.642 -1.11915 1.59076 0
M  V30 3542 C 352.925 2.13576 2.89926 0
M  V30 3543 C 352.778 3.65326 2.62406 0
M  V30 3544 C 354.097 2.01238 3.91397 0
M  V30 3545 H 351.216 0.457613 0.577719 0
M  V30 3546 H 353.858 1.63848 0.961972 0
M  V30 3547 H 352.008 1.8109 3.43713 0
M  V30 3548 H 353.68 4.08124 2.15017 0
M  V30 3549 H 351.923 3.8698 1.96033 0
M  V30 3550 H 352.594 4.22232 3.55562 0
M  V30 3551 H 355.07 2.29738 3.46929 0
M  V30 3552 H 353.946 2.65036 4.80673 0
M  V30 3553 H 354.207 0.985951 4.30966 0
M  V30 3554 N 353.266 -1.05314 1.17247 0
M  V30 3555 C 354.682 -1.30452 0.919473 0
M  V30 3556 C 354.882 -1.9703 -0.42209 0
M  V30 3557 O 353.938 -2.24311 -1.15935 0
M  V30 3558 C 355.251 -2.17551 2.07586 0
M  V30 3559 C 356.799 -2.30937 2.11275 0
M  V30 3560 C 357.274 -3.21396 3.26296 0
M  V30 3561 N 358.765 -3.28981 3.26076 0
M  V30 3562 C 359.5 -3.99095 4.11716 0
M  V30 3563 N 358.996 -4.71648 5.07465 0
M  V30 3564 N 360.789 -3.95247 3.9967 0
M  V30 3565 H 352.94 -0.604988 2.03602 0
M  V30 3566 H 355.203 -0.329368 0.888944 0
M  V30 3567 H 354.909 -1.75921 3.0454 0
M  V30 3568 H 354.783 -3.18182 2.02584 0
M  V30 3569 H 357.17 -2.71809 1.14907 0
M  V30 3570 H 357.251 -1.2994 2.20339 0
M  V30 3571 H 356.895 -2.81238 4.22927 0
M  V30 3572 H 356.825 -4.22395 3.14467 0
M  V30 3573 H 359.316 -2.77286 2.5675 0
M  V30 3574 H 359.629 -5.22705 5.6921 0
M  V30 3575 H 357.974 -4.70594 5.11435 0
M  V30 3576 H 361.165 -3.37691 3.24164 0
M  V30 3577 H 361.338 -4.4962 4.66632 0
M  V30 3578 N 354.744 -0.972509 -1.24016 0
M  V30 3579 C 355.972 -0.654803 -1.96265 0
M  V30 3580 C 356.387 0.776708 -1.72083 0
M  V30 3581 O 355.744 1.52171 -1.00748 0
M  V30 3582 C 355.795 -0.92592 -3.49441 0
M  V30 3583 O 355.516 -2.30116 -3.72798 0
M  V30 3584 C 357.017 -0.623068 -4.38899 0
M  V30 3585 H 354.237 -0.243907 -0.6251 0
M  V30 3586 H 356.781 -1.30175 -1.57717 0
M  V30 3587 H 354.936 -0.325108 -3.86033 0
M  V30 3588 H 355.35 -2.38483 -4.67147 0
M  V30 3589 H 356.824 -0.863189 -5.45209 0
M  V30 3590 H 357.301 0.442754 -4.36963 0
M  V30 3591 H 357.907 -1.204 -4.07902 0
M  V30 3592 N 356.222 1.38976 -0.743202 0
M  V30 3593 C 357.152 2.33171 -0.123873 0
M  V30 3594 C 358.133 1.54336 0.71516 0
M  V30 3595 O 359.318 1.82696 0.658467 0
M  V30 3596 C 356.448 3.38474 0.777978 0
M  V30 3597 C 355.402 4.27979 0.0424758 0
M  V30 3598 C 354.728 5.2405 1.06189 0
M  V30 3599 C 356.028 5.10155 -1.1198 0
M  V30 3600 H 357.722 2.85213 -0.910709 0
M  V30 3601 H 355.268 1.37133 -0.439388 0
M  V30 3602 H 357.221 4.03328 1.22084 0
M  V30 3603 H 355.945 2.84891 1.59702 0
M  V30 3604 H 354.604 3.64616 -0.380853 0
M  V30 3605 H 354.252 4.66758 1.87472 0
M  V30 3606 H 353.952 5.84785 0.574485 0
M  V30 3607 H 355.476 5.9178 1.50428 0
M  V30 3608 H 356.89 5.68307 -0.75499 0
M  V30 3609 H 355.287 5.80073 -1.53738 0
M  V30 3610 H 356.357 4.44504 -1.93764 0
M  V30 3611 N 357.7 0.491464 1.49741 0
M  V30 3612 C 359.111 0.0413169 1.86654 0
M  V30 3613 C 359.462 -1.36985 1.40462 0
M  V30 3614 O 358.587 -2.01917 0.778354 0
M  V30 3615 C 359.182 0.0682023 3.38731 0
M  V30 3616 C 357.741 -0.32656 3.74981 0
M  V30 3617 C 356.888 0.444888 2.73708 0
M  V30 3618 H 359.839 0.704733 1.42194 0
M  V30 3619 H 359.86 -0.729322 3.73445 0
M  V30 3620 H 359.372 1.09539 3.72321 0
M  V30 3621 H 357.473 -1.35734 3.46997 0
M  V30 3622 H 357.586 -0.013741 4.79098 0
M  V30 3623 H 355.95 -0.104062 2.54487 0
M  V30 3624 H 356.733 1.47197 3.10142 0
M  V30 3625 N 359.178 -1.55987 0.224894 0
M  V30 3626 C 360.403 -2.03232 -0.41369 0
M  V30 3627 C 360.828 -1.10359 -1.52323 0
M  V30 3628 O 360.186 -0.092395 -1.81064 0
M  V30 3629 C 360.234 -3.48682 -0.919405 0
M  V30 3630 O 359.338 -3.58947 -2.03054 0
M  V30 3631 H 358.679 -0.657428 -0.0931903 0
M  V30 3632 H 361.209 -2.01679 0.34451 0
M  V30 3633 H 361.219 -3.8907 -1.22835 0
M  V30 3634 H 359.894 -4.15761 -0.107339 0
M  V30 3635 H 358.471 -3.30448 -1.72796 0
M  V30 3636 N 360.656 0.0484629 -1.57525 0
M  V30 3637 C 361.566 1.07241 -2.08654 0
M  V30 3638 C 362.582 1.409 -1.02095 0
M  V30 3639 O 363.758 1.50609 -1.33712 0
M  V30 3640 C 360.823 2.36008 -2.5397 0
M  V30 3641 C 359.884 2.09108 -3.7493 0
M  V30 3642 C 359.117 3.31736 -4.18075 0
M  V30 3643 O 359.34 4.41714 -3.60895 0
M  V30 3644 O 358.274 3.18576 -5.10679 0
M  V30 3645 H 362.1 0.667965 -2.96263 0
M  V30 3646 H 359.685 0.26417 -1.47046 0
M  V30 3647 H 361.567 3.11747 -2.83535 0
M  V30 3648 H 360.242 2.75786 -1.69481 0
M  V30 3649 H 359.149 1.31 -3.50414 0
M  V30 3650 H 360.482 1.74198 -4.60343 0
M  V30 3651 N 362.134 1.5431 0.320358 0
M  V30 3652 C 363.364 1.7638 1.07582 0
M  V30 3653 C 363.772 0.513944 1.82086 0
M  V30 3654 O 363.115 -0.525123 1.76035 0
M  V30 3655 C 363.177 2.9055 2.1171 0
M  V30 3656 C 362.841 4.2934 1.56575 0
M  V30 3657 C 363.838 5.10077 1.00586 0
M  V30 3658 C 361.523 4.75893 1.60722 0
M  V30 3659 C 363.517 6.35477 0.494756 0
M  V30 3660 C 361.204 6.0126 1.09224 0
M  V30 3661 C 362.202 6.80886 0.53696 0
M  V30 3662 O 361.89 8.03894 0.0297371 0
M  V30 3663 H 361.622 0.592369 0.325692 0
M  V30 3664 H 364.176 2.02019 0.37116 0
M  V30 3665 H 362.406 2.60489 2.85801 0
M  V30 3666 H 364.095 3.00373 2.73003 0
M  V30 3667 H 364.861 4.75265 0.966869 0
M  V30 3668 H 360.74 4.13957 2.02882 0
M  V30 3669 H 364.284 6.97574 0.0606842 0
M  V30 3670 H 360.181 6.35562 1.12831 0
M  V30 3671 H 360.949 8.18372 0.14486 0
M  V30 3672 N 363.613 -0.582584 1.46437 0
M  V30 3673 C 364.841 -1.36682 1.55324 0
M  V30 3674 C 365.256 -1.87796 0.194409 0
M  V30 3675 O 364.613 -1.63623 -0.808318 0
M  V30 3676 C 364.664 -2.55426 2.55812 0
M  V30 3677 O 364.385 -2.0643 3.86417 0
M  V30 3678 C 365.886 -3.47976 2.74641 0
M  V30 3679 H 363.106 -0.417545 0.525259 0
M  V30 3680 H 365.65 -0.708219 1.91845 0
M  V30 3681 H 363.805 -3.17275 2.22295 0
M  V30 3682 H 364.219 -2.83762 4.41111 0
M  V30 3683 H 365.693 -4.27775 3.48874 0
M  V30 3684 H 366.17 -3.99919 1.81553 0
M  V30 3685 H 366.776 -2.91962 3.09255 0
M  V30 3686 N 365.091 -1.34144 -0.827227 0
M  V30 3687 C 366.338 -1.26258 -1.58319 0
M  V30 3688 C 366.666 0.168595 -1.93768 0
M  V30 3689 O 365.921 1.12877 -1.59866 0
M  V30 3690 C 366.22 -2.09464 -2.89585 0
M  V30 3691 C 365.886 -3.58521 -2.73448 0
M  V30 3692 C 364.548 -3.99155 -2.68754 0
M  V30 3693 C 366.9 -4.53189 -2.57428 0
M  V30 3694 C 364.228 -5.32656 -2.45957 0
M  V30 3695 C 366.58 -5.86864 -2.36163 0
M  V30 3696 C 365.244 -6.26667 -2.29879 0
M  V30 3697 H 364.514 -0.462013 -0.579332 0
M  V30 3698 H 367.161 -1.65845 -0.95748 0
M  V30 3699 H 365.466 -1.62692 -3.56425 0
M  V30 3700 H 367.163 -2.00712 -3.47154 0
M  V30 3701 H 363.753 -3.26264 -2.77939 0
M  V30 3702 H 367.937 -4.22696 -2.60081 0
M  V30 3703 H 363.193 -5.62519 -2.39546 0
M  V30 3704 H 367.367 -6.59813 -2.22754 0
M  V30 3705 H 364.994 -7.30049 -2.11975 0
M  V30 3706 N 366.569 1.04691 -1.17803 0
M  V30 3707 C 367.815 1.78181 -0.980977 0
M  V30 3708 C 368.17 1.86191 0.484825 0
M  V30 3709 O 367.463 1.35436 1.35527 0
M  V30 3710 C 367.657 3.21467 -1.56186 0
M  V30 3711 C 367.486 3.27422 -3.08261 0
M  V30 3712 C 366.256 3.36415 -3.77032 0
M  V30 3713 C 368.454 3.15947 -4.0581 0
M  V30 3714 N 366.436 3.31554 -5.16667 0
M  V30 3715 C 367.807 3.18514 -5.31929 0
M  V30 3716 C 369.862 2.99945 -3.97413 0
M  V30 3717 C 368.565 3.06723 -6.50625 0
M  V30 3718 C 370.591 2.89497 -5.15699 0
M  V30 3719 C 369.953 2.92702 -6.40706 0
M  V30 3720 H 366.052 0.6641 -0.412911 0
M  V30 3721 H 368.636 1.24762 -1.49474 0
M  V30 3722 H 366.807 3.73245 -1.07436 0
M  V30 3723 H 368.539 3.8322 -1.30093 0
M  V30 3724 H 365.294 3.41887 -3.27735 0
M  V30 3725 H 365.718 3.3258 -5.89678 0
M  V30 3726 H 370.36 2.96302 -3.01604 0
M  V30 3727 H 368.078 3.0912 -7.46639 0
M  V30 3728 H 371.664 2.78179 -5.10987 0
M  V30 3729 H 370.544 2.84697 -7.30696 0
M  V30 3730 N 368.047 0.979072 1.23499 0
M  V30 3731 C 369.295 0.645941 1.91499 0
M  V30 3732 C 369.616 -0.822948 1.76784 0
M  V30 3733 O 368.886 -1.58854 1.14639 0
M  V30 3734 H 367.466 0.235919 0.708767 0
M  V30 3735 H 370.128 1.2426 1.50152 0
M  V30 3736 H 369.224 0.896411 2.9895 0
M  V30 3737 N 369.525 -1.3858 0.750561 0
M  V30 3738 C 370.457 -2.29057 0.0810714 0
M  V30 3739 C 371.47 -1.47596 -0.686973 0
M  V30 3740 O 372.659 -1.70495 -0.528563 0
M  V30 3741 C 369.759 -3.26475 -0.909247 0
M  V30 3742 C 368.932 -4.36945 -0.199478 0
M  V30 3743 C 367.991 -5.14572 -1.10011 0
M  V30 3744 O 367.017 -5.66321 -0.57177 0
M  V30 3745 N 368.219 -5.27262 -2.42849 0
M  V30 3746 H 370.984 -2.87153 0.858087 0
M  V30 3747 H 368.545 -1.50328 0.60109 0
M  V30 3748 H 370.537 -3.75285 -1.51471 0
M  V30 3749 H 369.107 -2.69298 -1.58736 0
M  V30 3750 H 368.327 -3.8981 0.586664 0
M  V30 3751 H 369.615 -5.07963 0.291783 0
M  V30 3752 H 369.013 -4.86763 -2.88233 0
M  V30 3753 H 367.57 -5.79456 -2.98453 0
M  V30 3754 N 371.003 -0.499398 -1.49478 0
M  V30 3755 C 372.251 0.0455996 -2.02049 0
M  V30 3756 C 372.572 1.37633 -1.38138 0
M  V30 3757 O 371.842 1.8842 -0.536166 0
M  V30 3758 H 370.422 0.0198416 -0.746736 0
M  V30 3759 H 373.084 -0.656274 -1.83519 0
M  V30 3760 H 372.18 0.176445 -3.11601 0
M  V30 3761 N 372.481 1.55866 -0.233164 0
M  V30 3762 C 373.709 2.02998 0.399905 0
M  V30 3763 C 374.124 1.11274 1.52524 0
M  V30 3764 O 373.481 0.124528 1.82075 0
M  V30 3765 C 373.532 3.4958 0.920639 0
M  V30 3766 O 373.253 4.37808 -0.159834 0
M  V30 3767 C 374.754 4.12411 1.62578 0
M  V30 3768 H 371.974 0.664006 0.0966281 0
M  V30 3769 H 374.518 2.0143 -0.353013 0
M  V30 3770 H 372.673 3.51727 1.62379 0
M  V30 3771 H 373.087 5.23981 0.23337 0
M  V30 3772 H 374.561 5.16711 1.94201 0
M  V30 3773 H 375.038 3.5809 2.54299 0
M  V30 3774 H 375.644 4.14148 0.967553 0
M  V30 3775 N 373.959 -0.0401083 1.57549 0
M  V30 3776 C 374.891 -1.07149 2.02612 0
M  V30 3777 C 375.904 -1.33126 0.937085 0
M  V30 3778 O 377.093 -1.30808 1.21456 0
M  V30 3779 C 374.193 -2.41561 2.37701 0
M  V30 3780 C 373.366 -2.35096 3.68848 0
M  V30 3781 C 372.425 -3.51867 3.91249 0
M  V30 3782 O 371.451 -3.3186 4.62447 0
M  V30 3783 N 372.653 -4.73351 3.36035 0
M  V30 3784 H 375.418 -0.687485 2.91708 0
M  V30 3785 H 372.979 -0.228248 1.60283 0
M  V30 3786 H 374.971 -3.18379 2.49833 0
M  V30 3787 H 373.541 -2.71846 1.54332 0
M  V30 3788 H 372.761 -1.4345 3.67173 0
M  V30 3789 H 374.049 -2.27908 4.54901 0
M  V30 3790 H 373.447 -4.92507 2.78304 0
M  V30 3791 H 372.004 -5.47572 3.53565 0
M  V30 3792 N 375.437 -1.54477 -0.31217 0
M  V30 3793 C 376.683 -1.73483 -1.0503 0
M  V30 3794 C 377.016 -0.513125 -1.87298 0
M  V30 3795 O 376.291 0.489864 -1.8823 0
M  V30 3796 C 376.574 -3.01723 -1.96558 0
M  V30 3797 C 376.427 -4.3417 -1.17545 0
M  V30 3798 C 377.746 -3.25772 -2.95907 0
M  V30 3799 H 374.865 -0.631222 -0.380432 0
M  V30 3800 H 377.507 -1.87184 -0.325932 0
M  V30 3801 H 375.657 -2.90174 -2.58324 0
M  V30 3802 H 377.329 -4.5762 -0.581513 0
M  V30 3803 H 375.572 -4.31159 -0.477925 0
M  V30 3804 H 376.243 -5.20143 -1.84811 0
M  V30 3805 H 378.719 -3.36857 -2.44267 0
M  V30 3806 H 377.595 -4.16838 -3.57123 0
M  V30 3807 H 377.856 -2.43537 -3.68974 0
M  V30 3808 N 376.915 0.57481 -1.46744 0
M  V30 3809 C 378.143 1.35856 -1.56047 0
M  V30 3810 C 378.558 1.87691 -0.204365 0
M  V30 3811 O 377.915 1.64049 0.79963 0
M  V30 3812 C 377.966 2.54066 -2.57163 0
M  V30 3813 O 377.687 2.04377 -3.87507 0
M  V30 3814 C 379.188 3.46514 -2.76483 0
M  V30 3815 H 376.408 0.414754 -0.527466 0
M  V30 3816 H 378.952 0.698035 -1.92218 0
M  V30 3817 H 377.107 3.16092 -2.23974 0
M  V30 3818 H 377.521 2.81419 -4.4261 0
M  V30 3819 H 378.995 4.25919 -3.51137 0
M  V30 3820 H 379.472 3.98951 -1.83671 0
M  V30 3821 H 380.078 2.90318 -3.10799 0
M  V30 3822 N 378.394 1.34581 0.820102 0
M  V30 3823 C 379.64 1.27285 1.57881 0
M  V30 3824 C 379.973 -0.156137 1.93571 0
M  V30 3825 O 379.248 -1.10222 1.60254 0
M  V30 3826 C 379.531 2.16639 2.87645 0
M  V30 3827 C 379.384 3.68088 2.58517 0
M  V30 3828 C 380.703 2.05378 3.8924 0
M  V30 3829 H 377.822 0.463714 0.572833 0
M  V30 3830 H 380.464 1.64859 0.944539 0
M  V30 3831 H 378.614 1.84725 3.41773 0
M  V30 3832 H 380.286 4.10382 2.10676 0
M  V30 3833 H 378.529 3.89038 1.91917 0
M  V30 3834 H 379.2 4.2598 3.51063 0
M  V30 3835 H 381.676 2.33404 3.44473 0
M  V30 3836 H 380.552 2.7012 4.77835 0
M  V30 3837 H 380.813 1.0316 4.29896 0
M  V30 3838 N 379.872 -1.04064 1.18357 0
M  V30 3839 C 381.097 -1.81454 1.00445 0
M  V30 3840 C 381.522 -1.82823 -0.442423 0
M  V30 3841 O 380.88 -1.24555 -1.31741 0
M  V30 3842 C 380.928 -3.24925 1.56384 0
M  V30 3843 O 380.032 -4.04856 0.785209 0
M  V30 3844 H 379.373 -0.560604 0.355835 0
M  V30 3845 H 381.903 -1.31059 1.57114 0
M  V30 3846 H 381.913 -3.75702 1.59097 0
M  V30 3847 H 380.588 -3.23244 2.61699 0
M  V30 3848 H 379.165 -3.63537 0.830399 0
M  V30 3849 N 381.35 -0.985608 -1.22978 0
M  V30 3850 C 382.575 -0.675254 -1.961 0
M  V30 3851 C 383 0.752154 -1.72407 0
M  V30 3852 O 382.358 1.5131 -0.998751 0
M  V30 3853 C 382.406 -0.977899 -3.47087 0
M  V30 3854 O 381.51 -0.072685 -4.12336 0
M  V30 3855 H 380.851 -0.253443 -0.613728 0
M  V30 3856 H 383.381 -1.32061 -1.56272 0
M  V30 3857 H 383.391 -0.916739 -3.97567 0
M  V30 3858 H 382.066 -2.01807 -3.63657 0
M  V30 3859 H 380.643 -0.188703 -3.72422 0
M  V30 3860 O 382.867 1.34428 -0.895061 0
M  V30 3861 H 383.558 1.87018 -0.504368 0
M  V30 END ATOM
M  V30 BEGIN BOND
M  V30 END BOND
M  V30 END CTAB
M  END
$$$$
