drugbank_target|P04275 von Willebrand factor (DB00025; DB05202; DB06081; DB09108; DB09329; DB11606; DB11607; DB13998; DB13999)
 OpenBabel12092119463D

  0  0  0     0  0            999 V3000
M  V30 BEGIN CTAB
M  V30 COUNTS 42333 42795 0 0 0
M  V30 BEGIN ATOM
M  V30 1 H -0.908 1.98254 -0.117106 0
M  V30 2 N 0 1.576 0 0
M  V30 3 C 0.933 2.03868 1.02534 0
M  V30 4 C 1.911 0.928543 1.3348 0
M  V30 5 O 3.095 1.19667 1.45644 0
M  V30 6 C 0.222 2.43627 2.35294 0
M  V30 7 C -0.732 3.65373 2.2001 0
M  V30 8 S 0.101 5.13292 1.52614 0
M  V30 9 C 1.257 5.56322 2.86805 0
M  V30 10 H 1.49 2.90518 0.631377 0
M  V30 11 H -0.977 1.52953 0.210867 0
M  V30 12 H 0.981 2.67203 3.11629 0
M  V30 13 H -0.358 1.57376 2.7183 0
M  V30 14 H -1.165 3.90944 3.18086 0
M  V30 15 H -1.563 3.418 1.51819 0
M  V30 16 H 0.729 5.58782 3.83104 0
M  V30 17 H 1.672 6.56266 2.65933 0
M  V30 18 H 2.08 4.83886 2.90714 0
M  V30 19 N 1.4781 -0.272755 1.55222 0
M  V30 20 C 2.7271 -1.00211 1.75045 0
M  V30 21 C 3.0401 -1.87441 0.559046 0
M  V30 22 O 4.2461 -2.63856 0.639698 0
M  V30 23 C 2.7021 -1.83165 3.09804 0
M  V30 24 C 2.3101 -1.008 4.36513 0
M  V30 25 C 4.0541 -2.55529 3.38977 0
M  V30 26 C 1.9611 -1.83194 5.62311 0
M  V30 27 H 0.8911 -0.377878 0.652476 0
M  V30 28 H 3.5421 -0.257776 1.8168 0
M  V30 29 H 1.9241 -2.61694 2.97207 0
M  V30 30 H 3.0981 -0.266855 4.60027 0
M  V30 31 H 1.4131 -0.398897 4.14485 0
M  V30 32 H 4.0101 -3.17578 4.30172 0
M  V30 33 H 4.3531 -3.25825 2.59121 0
M  V30 34 H 4.8861 -1.84029 3.52673 0
M  V30 35 H 1.6251 -1.17318 6.44916 0
M  V30 36 H 1.1451 -2.54905 5.4294 0
M  V30 37 H 2.8241 -2.40552 6.00619 0
M  V30 38 N 2.9562 -1.48159 -0.537278 0
M  V30 39 C 4.3672 -1.49429 -1.11928 0
M  V30 40 C 4.7182 -0.26 -1.9447 0
M  V30 41 O 3.8432 0.633489 -2.0692 0
M  V30 42 C 4.4382 -2.70758 -2.03656 0
M  V30 43 C 2.9972 -2.74923 -2.57088 0
M  V30 44 C 2.1442 -2.42835 -1.3389 0
M  V30 45 H 5.0952 -1.55381 -0.322886 0
M  V30 46 H 5.1162 -2.48861 -2.87834 0
M  V30 47 H 4.6282 -3.60575 -1.43553 0
M  V30 48 H 2.7292 -1.89296 -3.20933 0
M  V30 49 H 2.8422 -3.76157 -2.9672 0
M  V30 50 H 1.2062 -1.93836 -1.65226 0
M  V30 51 H 1.9892 -3.34884 -0.755504 0
M  V30 52 N 4.4343 0.785586 -1.36625 0
M  V30 53 C 5.3973 1.87999 -1.31107 0
M  V30 54 C 6.3973 1.59316 -0.217959 0
M  V30 55 O 7.5873 1.67656 -0.472977 0
M  V30 56 C 4.7193 3.24861 -1.03334 0
M  V30 57 H 5.9123 1.94307 -2.2844 0
M  V30 58 H 3.4653 0.983813 -1.21453 0
M  V30 59 H 4.2003 3.24235 -0.0647432 0
M  V30 60 H 3.9853 3.4707 -1.82441 0
M  V30 61 H 5.4753 4.04929 -1.02088 0
M  V30 62 N 5.9124 1.20967 1.01018 0
M  V30 63 C 7.3284 0.965905 1.27053 0
M  V30 64 C 7.5284 -0.350785 1.98423 0
M  V30 65 O 6.5844 -1.07773 2.28344 0
M  V30 66 C 7.8974 2.15294 2.09926 0
M  V30 67 C 9.4454 2.19463 2.23171 0
M  V30 68 C 9.9204 3.3767 3.09424 0
M  V30 69 N 11.4114 3.37724 3.17012 0
M  V30 70 C 12.1464 4.25837 3.83993 0
M  V30 71 N 11.6424 5.24138 4.53047 0
M  V30 72 N 13.4354 4.1366 3.80581 0
M  V30 73 H 5.5864 2.0565 0.531194 0
M  V30 74 H 7.8494 0.90024 0.297106 0
M  V30 75 H 7.5554 3.10684 1.64828 0
M  V30 76 H 7.4294 2.13923 3.10672 0
M  V30 77 H 9.8164 1.24632 2.6749 0
M  V30 78 H 9.8974 2.2488 1.21912 0
M  V30 79 H 9.5414 4.32791 2.65808 0
M  V30 80 H 9.4714 3.29491 4.10784 0
M  V30 81 H 11.9624 2.6658 2.6785 0
M  V30 82 H 12.2754 5.87684 5.01844 0
M  V30 83 H 10.6204 5.28068 4.5185 0
M  V30 84 H 13.8114 3.36127 3.25785 0
M  V30 85 H 13.9844 4.82538 4.32505 0
M  V30 86 N 7.3905 -1.2043 1.01659 0
M  V30 87 C 8.6375 -1.89797 0.705917 0
M  V30 88 C 8.9655 -1.78848 -0.764439 0
M  V30 89 O 8.2205 -1.16694 -1.57102 0
M  V30 90 C 8.5195 -3.40464 1.08714 0
M  V30 91 C 8.1855 -3.71614 2.5537 0
M  V30 92 C 6.8475 -3.79826 2.95441 0
M  V30 93 C 9.1995 -3.85915 3.50313 0
M  V30 94 C 6.5275 -3.99797 4.29394 0
M  V30 95 C 8.8795 -4.07396 4.83954 0
M  V30 96 C 7.5435 -4.13837 5.23732 0
M  V30 97 H 6.8135 -0.694518 0.258313 0
M  V30 98 H 9.4605 -1.42691 1.27717 0
M  V30 99 H 7.7655 -3.89385 0.434309 0
M  V30 100 H 9.4625 -3.92433 0.824461 0
M  V30 101 H 6.0525 -3.65822 2.23321 0
M  V30 102 H 10.2365 -3.78926 3.20513 0
M  V30 103 H 5.4925 -4.03018 4.59768 0
M  V30 104 H 9.6665 -4.17404 5.57447 0
M  V30 105 H 7.2935 -4.29064 6.27541 0
M  V30 106 N 8.8686 -0.792821 -1.36206 0
M  V30 107 C 9.8316 -0.199459 -2.2833 0
M  V30 108 C 10.8316 0.605189 -1.48977 0
M  V30 109 O 12.0216 0.425685 -1.68919 0
M  V30 110 C 9.1536 0.723523 -3.33134 0
M  V30 111 H 10.3466 -1.01181 -2.82316 0
M  V30 112 H 7.8996 -0.562485 -1.45828 0
M  V30 113 H 8.6346 1.56008 -2.84309 0
M  V30 114 H 8.4196 0.148436 -3.91819 0
M  V30 115 H 9.9096 1.13344 -4.01924 0
M  V30 116 N 10.3467 1.47872 -0.545128 0
M  V30 117 C 11.5947 2.02093 -0.016553 0
M  V30 118 C 11.9157 1.42305 1.3332 0
M  V30 119 O 11.1857 0.593853 1.86682 0
M  V30 120 H 9.7657 0.746993 -0.00313038 0
M  V30 121 H 12.4277 1.81414 -0.712397 0
M  V30 122 H 11.5237 3.11996 0.0805422 0
M  V30 123 N 11.8248 0.280983 1.55075 0
M  V30 124 C 13.0708 -0.33461 2.00021 0
M  V30 125 C 13.4038 -1.55063 1.16915 0
M  V30 126 O 12.6788 -1.93006 0.240646 0
M  V30 127 C 12.9618 -0.711007 3.53011 0
M  V30 128 C 12.8148 0.512766 4.46868 0
M  V30 129 C 14.1338 -1.54522 4.12081 0
M  V30 130 H 11.2528 -0.120147 0.727141 0
M  V30 131 H 13.8948 0.389097 1.85973 0
M  V30 132 H 12.0448 -1.32761 3.65112 0
M  V30 133 H 13.7168 1.15131 4.46702 0
M  V30 134 H 11.9598 1.14975 4.18286 0
M  V30 135 H 12.6308 0.205556 5.51617 0
M  V30 136 H 15.1068 -1.02442 4.03293 0
M  V30 137 H 13.9828 -1.77739 5.19327 0
M  V30 138 H 14.2438 -2.52813 3.62682 0
M  V30 139 N 13.3029 -1.57598 0.00835791 0
M  V30 140 C 14.2329 -2.1198 -0.979113 0
M  V30 141 C 15.2139 -1.03091 -1.35301 0
M  V30 142 O 16.3989 -1.30818 -1.43528 0
M  V30 143 C 13.5289 -2.62995 -2.26828 0
M  V30 144 C 12.4829 -3.76485 -2.03576 0
M  V30 145 C 11.8089 -4.13846 -3.38579 0
M  V30 146 C 13.1089 -5.0342 -1.39161 0
M  V30 147 H 14.8029 -2.94738 -0.526281 0
M  V30 148 H 12.3489 -1.41783 -0.251704 0
M  V30 149 H 14.3019 -2.99669 -2.96271 0
M  V30 150 H 13.0259 -1.7737 -2.7424 0
M  V30 151 H 11.6849 -3.40217 -1.36557 0
M  V30 152 H 11.3329 -3.25232 -3.83709 0
M  V30 153 H 11.0329 -4.90312 -3.23834 0
M  V30 154 H 12.5569 -4.53086 -4.09323 0
M  V30 155 H 13.9709 -5.37812 -1.98573 0
M  V30 156 H 12.3679 -5.84746 -1.34878 0
M  V30 157 H 13.4379 -4.83548 -0.361868 0
M  V30 158 N 14.781 0.264519 -1.55364 0
M  V30 159 C 15.711 1.33121 -1.91836 0
M  V30 160 C 16.692 1.51101 -0.781192 0
M  V30 161 O 17.877 1.64003 -1.04003 0
M  V30 162 C 15.007 2.68921 -2.19769 0
M  V30 163 C 13.961 2.65661 -3.35571 0
M  V30 164 C 13.287 4.05093 -3.49004 0
M  V30 165 C 14.587 2.24187 -4.71739 0
M  V30 166 H 16.281 1.02844 -2.81182 0
M  V30 167 H 13.827 0.493286 -1.35287 0
M  V30 168 H 15.78 3.43663 -2.43872 0
M  V30 169 H 14.504 3.00799 -1.27231 0
M  V30 170 H 13.163 1.93377 -3.1145 0
M  V30 171 H 12.811 4.34206 -2.53917 0
M  V30 172 H 12.511 4.03804 -4.26868 0
M  V30 173 H 14.035 4.81561 -3.75408 0
M  V30 174 H 15.449 2.88654 -4.9533 0
M  V30 175 H 13.846 2.34044 -5.52579 0
M  V30 176 H 14.916 1.19327 -4.69988 0
M  V30 177 N 16.2591 1.48442 0.529413 0
M  V30 178 C 17.2221 1.62524 1.61612 0
M  V30 179 C 18.2221 0.498509 1.52877 0
M  V30 180 O 19.4121 0.76431 1.56537 0
M  V30 181 C 16.5441 1.59597 3.01233 0
M  V30 182 H 17.7371 2.59423 1.50465 0
M  V30 183 H 15.2901 1.37047 0.751514 0
M  V30 184 H 16.0251 0.641781 3.17886 0
M  V30 185 H 15.8101 2.41397 3.08982 0
M  V30 186 H 17.3001 1.72646 3.80241 0
M  V30 187 N 17.7372 -0.778329 1.37039 0
M  V30 188 C 18.6672 -1.90546 1.34962 0
M  V30 189 C 19.6482 -1.68681 0.219274 0
M  V30 190 O 20.8332 -1.89634 0.418624 0
M  V30 191 C 17.9632 -3.27734 1.14925 0
M  V30 192 C 16.9172 -3.64147 2.24902 0
M  V30 193 C 16.2432 -4.99806 1.89996 0
M  V30 194 C 17.5432 -3.71579 3.67051 0
M  V30 195 H 19.2372 -1.92541 2.29277 0
M  V30 196 H 16.7832 -0.924948 1.10366 0
M  V30 197 H 18.7362 -4.06215 1.12104 0
M  V30 198 H 17.4602 -3.26154 0.170631 0
M  V30 199 H 16.1192 -2.8797 2.26868 0
M  V30 200 H 15.7672 -4.94759 0.906796 0
M  V30 201 H 15.4672 -5.25139 2.63634 0
M  V30 202 H 16.9912 -5.80694 1.88749 0
M  V30 203 H 18.4052 -4.40227 3.67251 0
M  V30 204 H 16.8022 -4.08405 4.39688 0
M  V30 205 H 17.8722 -2.72404 4.01154 0
M  V30 206 N 19.2153 -1.21501 -1.00376 0
M  V30 207 C 20.1783 -0.976927 -2.07337 0
M  V30 208 C 21.1783 0.0525322 -1.60714 0
M  V30 209 O 22.3683 -0.184869 -1.73216 0
M  V30 210 C 19.5003 -0.473423 -3.37597 0
M  V30 211 H 20.6933 -1.92587 -2.29892 0
M  V30 212 H 18.2463 -1.03217 -1.17371 0
M  V30 213 H 18.9813 0.480379 -3.20722 0
M  V30 214 H 18.7663 -1.216 -3.72768 0
M  V30 215 H 20.2563 -0.32675 -4.1632 0
M  V30 216 N 20.6934 1.19889 -1.02296 0
M  V30 217 C 21.6234 2.25141 -0.619174 0
M  V30 218 C 22.6044 1.66051 0.368915 0
M  V30 219 O 23.7894 1.92546 0.252941 0
M  V30 220 C 20.9194 3.4728 0.0368783 0
M  V30 221 C 19.8734 4.19005 -0.872865 0
M  V30 222 C 19.1994 5.34637 -0.0822402 0
M  V30 223 C 20.4994 4.74452 -2.18387 0
M  V30 224 H 22.1934 2.59171 -1.49903 0
M  V30 225 H 19.7394 1.24579 -0.722222 0
M  V30 226 H 21.6924 4.20098 0.330958 0
M  V30 227 H 20.4164 3.12433 0.95149 0
M  V30 228 H 19.0754 3.48061 -1.15105 0
M  V30 229 H 18.7234 4.96034 0.83422 0
M  V30 230 H 18.4234 5.83557 -0.688149 0
M  V30 231 H 19.9474 6.10255 0.205238 0
M  V30 232 H 21.3614 5.39055 -1.95172 0
M  V30 233 H 19.7584 5.33834 -2.74119 0
M  V30 234 H 20.8284 3.92844 -2.84257 0
M  V30 235 N 22.1715 0.800033 1.35784 0
M  V30 236 C 23.4205 0.37387 1.98205 0
M  V30 237 C 23.7335 -1.06302 1.64193 0
M  V30 238 O 24.9395 -1.59198 2.19928 0
M  V30 239 C 23.3955 0.617532 3.54562 0
M  V30 240 C 23.0035 2.06654 3.9749 0
M  V30 241 C 24.7475 0.256401 4.23725 0
M  V30 242 C 22.6545 2.2563 5.46667 0
M  V30 243 H 21.5845 0.136055 0.741623 0
M  V30 244 H 24.2355 0.983166 1.54939 0
M  V30 245 H 22.6175 -0.0616248 3.95952 0
M  V30 246 H 23.7915 2.78296 3.67271 0
M  V30 247 H 22.1065 2.38691 3.41197 0
M  V30 248 H 24.7035 0.376318 5.33374 0
M  V30 249 H 25.0465 -0.796692 4.08606 0
M  V30 250 H 25.5795 0.889214 3.87734 0
M  V30 251 H 22.3185 3.2936 5.66747 0
M  V30 252 H 21.8385 1.58504 5.78478 0
M  V30 253 H 23.5175 2.06861 6.1304 0
M  V30 254 N 23.6496 -1.47581 0.552962 0
M  V30 255 C 24.5796 -2.32762 -0.185451 0
M  V30 256 C 25.5606 -1.43527 -0.912905 0
M  V30 257 O 26.7456 -1.72388 -0.894201 0
M  V30 258 C 23.8756 -3.25219 -1.21859 0
M  V30 259 C 22.8296 -4.23661 -0.607864 0
M  V30 260 C 22.1556 -5.05413 -1.74533 0
M  V30 261 C 23.4556 -5.20481 0.435582 0
M  V30 262 H 25.1496 -2.94749 0.525684 0
M  V30 263 H 22.6956 -1.41738 0.254251 0
M  V30 264 H 24.6486 -3.8365 -1.7433 0
M  V30 265 H 23.3726 -2.61279 -1.95961 0
M  V30 266 H 22.0316 -3.66451 -0.104489 0
M  V30 267 H 21.6796 -4.3788 -2.47529 0
M  V30 268 H 21.3796 -5.72059 -1.34249 0
M  V30 269 H 22.9036 -5.66701 -2.27338 0
M  V30 270 H 24.3176 -5.733 -0.00290157 0
M  V30 271 H 22.7146 -5.95305 0.757067 0
M  V30 272 H 23.7846 -4.66217 1.33303 0
M  V30 273 N 25.1277 -0.289203 -1.54924 0
M  V30 274 C 26.5387 0.205791 -1.85562 0
M  V30 275 C 26.8897 1.54351 -1.2112 0
M  V30 276 O 26.0147 2.10435 -0.504601 0
M  V30 277 C 26.6097 0.380177 -3.3666 0
M  V30 278 C 25.1687 0.819395 -3.67373 0
M  V30 279 C 24.3157 -0.079159 -2.77187 0
M  V30 280 H 27.2667 -0.510577 -1.50262 0
M  V30 281 H 27.2877 1.21659 -3.60526 0
M  V30 282 H 26.7997 -0.593589 -3.83534 0
M  V30 283 H 24.9007 1.80413 -3.26009 0
M  V30 284 H 25.0137 0.646957 -4.74712 0
M  V30 285 H 23.3777 0.439565 -2.50878 0
M  V30 286 H 24.1607 -1.04906 -3.26878 0
M  V30 287 N 26.6058 1.57591 -0.0167156 0
M  V30 288 C 27.8538 1.90906 0.663285 0
M  V30 289 C 28.1748 0.892509 1.73376 0
M  V30 290 O 27.4448 -0.0677623 1.95783 0
M  V30 291 H 26.0248 0.704637 0.247983 0
M  V30 292 H 28.6868 1.94803 -0.0615909 0
M  V30 293 H 27.7828 2.9116 1.12393 0
M  V30 294 N 28.0839 -0.256276 1.55502 0
M  V30 295 C 29.3119 -1.00342 1.8094 0
M  V30 296 C 29.7269 -1.79307 0.59114 0
M  V30 297 O 29.0839 -1.77114 -0.440081 0
M  V30 298 C 29.1349 -1.94875 3.04476 0
M  V30 299 O 28.8559 -1.19107 4.21598 0
M  V30 300 C 30.3569 -2.81266 3.42644 0
M  V30 301 H 27.5769 -0.295685 0.602338 0
M  V30 302 H 30.1209 -0.281998 2.02546 0
M  V30 303 H 28.2759 -2.62457 2.84947 0
M  V30 304 H 28.6899 -1.82969 4.91551 0
M  V30 305 H 30.1639 -3.43362 4.32211 0
M  V30 306 H 30.6409 -3.51897 2.62802 0
M  V30 307 H 31.2469 -2.1915 3.64491 0
M  V30 308 N 29.562 -1.4872 -0.521534 0
M  V30 309 C 30.492 -1.66771 -1.63431 0
M  V30 310 C 31.473 -0.516499 -1.62069 0
M  V30 311 O 32.658 -0.750013 -1.79132 0
M  V30 312 C 29.788 -1.71515 -3.01993 0
M  V30 313 C 28.742 -2.86222 -3.18216 0
M  V30 314 C 28.068 -2.76061 -4.57924 0
M  V30 315 C 29.368 -4.27419 -3.00184 0
M  V30 316 H 31.062 -2.59932 -1.48579 0
M  V30 317 H 28.608 -1.25089 -0.713358 0
M  V30 318 H 30.561 -1.82731 -3.7972 0
M  V30 319 H 29.285 -0.749393 -3.17886 0
M  V30 320 H 27.944 -2.74575 -2.42908 0
M  V30 321 H 27.592 -1.77437 -4.70665 0
M  V30 322 H 27.292 -3.53037 -4.69722 0
M  V30 323 H 28.816 -2.89256 -5.37739 0
M  V30 324 H 30.23 -4.39855 -3.67697 0
M  V30 325 H 28.627 -5.05458 -3.2347 0
M  V30 326 H 29.697 -4.43293 -1.96518 0
M  V30 327 N 31.0401 0.771051 -1.3745 0
M  V30 328 C 32.2801 1.54264 -1.34096 0
M  V30 329 C 32.6441 1.91858 0.0737639 0
M  V30 330 O 33.8451 2.67797 0.23203 0
M  V30 331 C 32.1161 2.77326 -2.25445 0
M  V30 332 S 33.6751 3.67383 -2.39948 0
M  V30 333 H 30.4931 0.528122 -0.476034 0
M  V30 334 H 33.0951 0.906633 -1.73206 0
M  V30 335 H 31.7991 2.47788 -3.27153 0
M  V30 336 H 31.3301 3.45886 -1.87421 0
M  V30 337 H 33.3451 4.69334 -1.61059 0
M  V30 338 N 32.5182 1.22032 0.997298 0
M  V30 339 C 33.4812 0.987909 2.06816 0
M  V30 340 C 34.4812 -0.0440084 1.6074 0
M  V30 341 O 35.6712 0.194053 1.73116 0
M  V30 342 C 32.8032 0.49132 3.37341 0
M  V30 343 H 33.9962 1.93803 2.28868 0
M  V30 344 H 31.5492 1.03838 1.16822 0
M  V30 345 H 32.2842 -0.463364 3.20973 0
M  V30 346 H 32.0692 1.23575 3.72118 0
M  V30 347 H 33.5592 0.348824 4.16141 0
M  V30 348 N 33.9963 -1.19345 1.0293 0
M  V30 349 C 34.9063 -2.26245 0.620515 0
M  V30 350 C 35.9223 -1.70486 -0.347928 0
M  V30 351 O 37.0983 -2.00347 -0.205704 0
M  V30 352 C 34.1633 -3.46693 -0.0218957 0
M  V30 353 C 33.2243 -4.17632 0.994102 0
M  V30 354 C 32.4573 -5.32329 0.382253 0
M  V30 355 O 32.6803 -5.64552 -0.814676 0
M  V30 356 O 31.6143 -5.91664 1.10531 0
M  V30 357 H 35.4403 -2.63453 1.51083 0
M  V30 358 H 33.0253 -1.26207 0.799513 0
M  V30 359 H 34.9073 -4.19683 -0.380072 0
M  V30 360 H 33.5823 -3.11333 -0.886209 0
M  V30 361 H 32.4893 -3.4676 1.40387 0
M  V30 362 H 33.8223 -4.56964 1.8288 0
M  V30 363 N 35.4744 -0.807222 -1.35358 0
M  V30 364 C 36.7224 -0.387122 -1.98358 0
M  V30 365 C 37.0434 1.04942 -1.64354 0
M  V30 366 O 36.3134 1.72615 -0.926339 0
M  V30 367 H 34.8934 -0.140154 -0.733734 0
M  V30 368 H 37.5554 -1.0332 -1.6526 0
M  V30 369 H 36.6514 -0.493352 -3.08176 0
M  V30 370 N 36.9525 1.47285 -0.560781 0
M  V30 371 C 38.1805 2.06855 -0.0430262 0
M  V30 372 C 38.5955 1.41291 1.25229 0
M  V30 373 O 37.9525 0.510648 1.7521 0
M  V30 374 C 38.0035 3.61178 0.152518 0
M  V30 375 O 37.7245 4.24285 -1.0915 0
M  V30 376 C 39.2255 4.37624 0.707145 0
M  V30 377 H 36.4455 0.669319 -0.0474652 0
M  V30 378 H 38.9895 1.89237 -0.77521 0
M  V30 379 H 37.1445 3.78298 0.834843 0
M  V30 380 H 37.5585 5.16868 -0.891482 0
M  V30 381 H 39.0325 5.46271 0.793244 0
M  V30 382 H 39.5095 4.04152 1.71923 0
M  V30 383 H 40.1155 4.25257 0.0604027 0
M  V30 384 N 38.4306 0.297415 1.54768 0
M  V30 385 C 39.8466 -0.0560823 1.59501 0
M  V30 386 C 40.0466 -1.52725 1.31444 0
M  V30 387 O 39.1026 -2.27947 1.08611 0
M  V30 388 C 40.4156 0.338631 2.98787 0
M  V30 389 C 41.9636 0.287097 3.11681 0
M  V30 390 C 42.4386 0.656579 4.53269 0
M  V30 391 N 43.9296 0.608977 4.59179 0
M  V30 392 C 44.6646 0.867385 5.66802 0
M  V30 393 N 44.1606 1.19157 6.82476 0
M  V30 394 N 45.9536 0.794687 5.56454 0
M  V30 395 H 38.1046 1.25624 1.71267 0
M  V30 396 H 40.3676 0.509057 0.799728 0
M  V30 397 H 40.0736 1.36263 3.2423 0
M  V30 398 H 39.9476 -0.309508 3.75928 0
M  V30 399 H 42.3346 -0.727649 2.85988 0
M  V30 400 H 42.4156 0.969809 2.36703 0
M  V30 401 H 42.0596 1.66912 4.7969 0
M  V30 402 H 41.9896 -0.0481649 5.26578 0
M  V30 403 H 44.4806 0.369198 3.76092 0
M  V30 404 H 44.7936 1.37482 7.60473 0
M  V30 405 H 43.1386 1.22958 6.84037 0
M  V30 406 H 46.3296 0.541098 4.64962 0
M  V30 407 H 46.5026 0.999445 6.40246 0
M  V30 408 N 39.9087 -1.5758 0.0250728 0
M  V30 409 C 41.1567 -1.91255 -0.653151 0
M  V30 410 C 41.4777 -0.901691 -1.729 0
M  V30 411 O 40.7477 0.0573785 -1.95816 0
M  V30 412 H 39.3277 -0.705942 -0.244243 0
M  V30 413 H 41.9897 -1.94767 0.0719209 0
M  V30 414 H 41.0857 -2.91752 -1.10847 0
M  V30 415 N 41.3868 0.248026 -1.55636 0
M  V30 416 C 42.8028 0.596483 -1.48035 0
M  V30 417 C 43.0028 1.88386 -0.715039 0
M  V30 418 O 42.0588 2.51319 -0.243944 0
M  V30 419 C 43.3718 0.700258 -2.92433 0
M  V30 420 C 44.9198 0.792659 -3.02797 0
M  V30 421 C 45.3948 0.928005 -4.485 0
M  V30 422 N 46.8858 0.992903 -4.52433 0
M  V30 423 C 47.6208 1.11687 -5.62418 0
M  V30 424 N 47.1168 1.20645 -6.82214 0
M  V30 425 N 48.9098 1.14994 -5.50212 0
M  V30 426 H 41.0608 -0.597109 -2.03834 0
M  V30 427 H 43.3238 -0.205925 -0.925364 0
M  V30 428 H 43.0298 -0.175658 -3.51261 0
M  V30 429 H 42.9038 1.57255 -3.42857 0
M  V30 430 H 45.2908 1.65903 -2.4405 0
M  V30 431 H 45.3718 -0.104762 -2.55585 0
M  V30 432 H 45.0158 0.0661971 -5.07857 0
M  V30 433 H 44.9458 1.84045 -4.93391 0
M  V30 434 H 47.4368 0.935064 -3.66149 0
M  V30 435 H 47.7498 1.30008 -7.61786 0
M  V30 436 H 46.0948 1.17605 -6.84977 0
M  V30 437 H 49.2858 1.07643 -4.55555 0
M  V30 438 H 49.4588 1.24311 -6.35965 0
M  V30 439 N 42.8649 1.48995 0.513639 0
M  V30 440 C 44.0899 1.61792 1.29762 0
M  V30 441 C 44.5149 0.284475 1.85936 0
M  V30 442 O 43.8729 -0.746185 1.65232 0
M  V30 443 C 43.9209 2.67993 2.41272 0
M  V30 444 O 43.0249 2.26287 3.44772 0
M  V30 445 H 42.3659 0.541963 0.38363 0
M  V30 446 H 44.8959 1.95097 0.616307 0
M  V30 447 H 44.9059 2.89772 2.87221 0
M  V30 448 H 43.5809 3.64791 1.9975 0
M  V30 449 H 42.1579 2.14788 3.04829 0
M  V30 450 N 44.343 -0.763751 1.37857 0
M  V30 451 C 45.568 -1.55805 1.36893 0
M  V30 452 C 45.993 -1.88054 -0.0416135 0
M  V30 453 O 45.351 -1.49825 -1.02089 0
M  V30 454 C 45.399 -2.84012 2.22192 0
M  V30 455 O 44.503 -3.78732 1.63204 0
M  V30 456 H 43.844 -0.471638 0.46739 0
M  V30 457 H 46.374 -0.944657 1.81487 0
M  V30 458 H 46.384 -3.33037 2.35691 0
M  V30 459 H 45.059 -2.59869 3.24716 0
M  V30 460 H 43.636 -3.37402 1.58791 0
M  V30 461 N 45.8211 -1.22559 -0.990812 0
M  V30 462 C 47.0491 -1.07779 -1.76611 0
M  V30 463 C 47.4641 0.371513 -1.85109 0
M  V30 464 O 46.8211 1.25737 -1.32274 0
M  V30 465 C 46.8721 -1.68512 -3.19822 0
M  V30 466 O 46.5931 -3.07774 -3.1178 0
M  V30 467 C 48.0941 -1.59035 -4.13791 0
M  V30 468 H 45.3141 -0.377729 -0.554583 0
M  V30 469 H 47.8581 -1.62195 -1.24551 0
M  V30 470 H 46.0131 -1.18154 -3.68942 0
M  V30 471 H 46.4271 -3.37062 -4.01858 0
M  V30 472 H 47.9011 -2.0625 -5.1202 0
M  V30 473 H 48.3781 -0.547273 -4.35777 0
M  V30 474 H 48.9841 -2.08709 -3.70568 0
M  V30 475 N 47.2992 1.18797 -1.03562 0
M  V30 476 C 48.2622 2.20464 -0.626769 0
M  V30 477 C 49.2622 1.57721 0.313173 0
M  V30 478 O 50.4522 1.73917 0.0992615 0
M  V30 479 C 47.5842 3.40802 0.0818498 0
M  V30 480 H 48.7772 2.58149 -1.5264 0
M  V30 481 H 46.3302 1.32593 -0.827578 0
M  V30 482 H 47.0652 3.08642 0.995518 0
M  V30 483 H 46.8502 3.8758 -0.593652 0
M  V30 484 H 48.3402 4.16092 0.354584 0
M  V30 485 N 48.7773 0.814389 1.34928 0
M  V30 486 C 50.1933 0.499084 1.51596 0
M  V30 487 C 50.3933 -0.978319 1.76157 0
M  V30 488 O 49.4493 -1.76309 1.80752 0
M  V30 489 C 50.7623 1.35121 2.68631 0
M  V30 490 C 52.3103 1.34746 2.82511 0
M  V30 491 C 52.7853 2.18388 4.0258 0
M  V30 492 N 54.2763 2.15966 4.09772 0
M  V30 493 C 55.0113 2.77437 5.01813 0
M  V30 494 N 54.5073 3.47866 5.99134 0
M  V30 495 N 56.3003 2.67037 4.94619 0
M  V30 496 H 48.4513 1.7711 1.17243 0
M  V30 497 H 50.7143 0.754256 0.574284 0
M  V30 498 H 50.4203 2.40001 2.57085 0
M  V30 499 H 50.2943 1.00991 3.63429 0
M  V30 500 H 52.6813 0.30648 2.93504 0
M  V30 501 H 52.7623 1.72869 1.88547 0
M  V30 502 H 52.4063 3.2253 3.92347 0
M  V30 503 H 52.3363 1.77621 4.9574 0
M  V30 504 H 54.8273 1.64729 3.40107 0
M  V30 505 H 55.1403 3.92038 6.65977 0
M  V30 506 H 53.4853 3.51972 5.99284 0
M  V30 507 H 56.6763 2.11597 4.17546 0
M  V30 508 H 56.8493 3.15232 5.66156 0
M  V30 509 N 50.2554 -1.46986 0.568584 0
M  V30 510 C 51.4954 -2.04336 0.0512999 0
M  V30 511 C 51.8594 -1.43214 -1.27881 0
M  V30 512 O 53.0604 -1.91679 -1.88448 0
M  V30 513 C 51.3314 -3.57389 -0.0282328 0
M  V30 514 S 52.8904 -4.36056 -0.489991 0
M  V30 515 H 49.7084 -0.71034 0.0306349 0
M  V30 516 H 52.3104 -1.80212 0.757891 0
M  V30 517 H 51.0144 -3.99395 0.944011 0
M  V30 518 H 50.5454 -3.86028 -0.75803 0
M  V30 519 H 52.5604 -4.6441 -1.74752 0
M  V30 520 N 51.7335 -0.305618 -1.54608 0
M  V30 521 C 52.9585 0.307562 -2.05107 0
M  V30 522 C 53.3835 1.46385 -1.18123 0
M  V30 523 O 52.7415 1.8034 -0.186324 0
M  V30 524 C 52.7895 0.73704 -3.52987 0
M  V30 525 O 51.8935 1.84134 -3.6901 0
M  V30 526 H 51.2345 0.0589143 -0.661381 0
M  V30 527 H 53.7645 -0.448807 -1.99617 0
M  V30 528 H 53.7745 1.02459 -3.94925 0
M  V30 529 H 52.4495 -0.108773 -4.15758 0
M  V30 530 H 51.0265 1.55398 -3.38978 0
M  V30 531 N 53.2116 1.57565 -0.0334293 0
M  V30 532 C 54.1416 2.13511 0.945265 0
M  V30 533 C 55.1226 1.05231 1.33643 0
M  V30 534 O 56.3076 1.33084 1.41429 0
M  V30 535 C 53.4376 2.6657 2.22616 0
M  V30 536 C 52.3916 3.79676 1.97561 0
M  V30 537 C 51.7176 4.1918 3.31952 0
M  V30 538 C 53.0176 5.0557 1.31135 0
M  V30 539 H 54.7116 2.95538 0.479325 0
M  V30 540 H 52.2576 1.42166 0.229115 0
M  V30 541 H 54.2106 3.04344 2.91466 0
M  V30 542 H 52.9346 1.8171 2.71384 0
M  V30 543 H 51.5936 3.42347 1.31127 0
M  V30 544 H 51.2416 3.31296 3.78487 0
M  V30 545 H 50.9416 4.95402 3.15992 0
M  V30 546 H 52.4656 4.59541 4.02063 0
M  V30 547 H 53.8796 5.40903 1.89992 0
M  V30 548 H 52.2766 5.86818 1.25559 0
M  V30 549 H 53.3466 4.84062 0.284894 0
M  V30 550 N 54.6897 -0.239769 1.55765 0
M  V30 551 C 55.9367 -0.966801 1.7793 0
M  V30 552 C 56.2647 -1.85046 0.599015 0
M  V30 553 O 55.5197 -1.91197 -0.417395 0
M  V30 554 C 55.8187 -1.852 3.05672 0
M  V30 555 C 55.4847 -1.1231 4.36689 0
M  V30 556 C 54.1467 -0.921689 4.72291 0
M  V30 557 C 56.4987 -0.607019 5.17653 0
M  V30 558 C 53.8267 -0.191996 5.86386 0
M  V30 559 C 56.1787 0.109241 6.32506 0
M  V30 560 C 54.8427 0.322073 6.66723 0
M  V30 561 H 54.1127 -0.353778 0.651093 0
M  V30 562 H 56.7597 -0.23634 1.90036 0
M  V30 563 H 55.0647 -2.64975 2.8861 0
M  V30 564 H 56.7617 -2.41635 3.20021 0
M  V30 565 H 53.3517 -1.29004 4.08725 0
M  V30 566 H 57.5357 -0.750153 4.90598 0
M  V30 567 H 52.7917 -0.0166949 6.11398 0
M  V30 568 H 56.9657 0.516737 6.9448 0
M  V30 569 H 54.5927 0.88944 7.54979 0
M  V30 570 N 56.1678 -1.49265 -0.50573 0
M  V30 571 C 57.4158 -1.582 -1.25766 0
M  V30 572 C 57.7368 -0.268482 -1.93143 0
M  V30 573 O 57.0068 0.711833 -1.8251 0
M  V30 574 H 55.5868 -0.582873 -0.467191 0
M  V30 575 H 58.2488 -1.85865 -0.586525 0
M  V30 576 H 57.3448 -2.37563 -2.02412 0
M  V30 577 N 57.6459 0.756429 -1.3826 0
M  V30 578 C 58.8709 1.55077 -1.37717 0
M  V30 579 C 59.2959 1.88073 0.03164 0
M  V30 580 O 58.6539 1.50364 1.01293 0
M  V30 581 C 58.7019 2.8283 -2.23695 0
M  V30 582 O 57.8059 3.77862 -1.6521 0
M  V30 583 H 57.1469 0.469152 -0.469885 0
M  V30 584 H 59.6769 0.935019 -1.81985 0
M  V30 585 H 59.6869 3.31783 -2.37453 0
M  V30 586 H 58.3619 2.58144 -3.2609 0
M  V30 587 H 56.9389 3.36555 -1.60578 0
M  V30 588 N 59.124 1.23083 0.984299 0
M  V30 589 C 60.401 0.9689 1.69917 0
M  V30 590 C 60.781 -0.513604 2.04757 0
M  V30 591 O 60.129 -1.48383 1.73767 0
M  V30 592 C 60.339 1.87518 2.94343 0
M  V30 593 C 61.687 2.13636 3.6694 0
M  V30 594 O 62.711 1.85036 3.04368 0
M  V30 595 O 61.57 2.62119 4.79537 0
M  V30 596 H 58.664 0.365095 0.742048 0
M  V30 597 H 61.21 1.34107 1.03987 0
M  V30 598 H 59.982 2.87756 2.65164 0
M  V30 599 H 59.605 1.50514 3.6801 0
M  V30 600 N 60.6021 -1.18246 1.0419 0
M  V30 601 C 61.8491 -1.88257 0.746017 0
M  V30 602 C 62.1771 -1.80429 -0.726331 0
M  V30 603 O 61.4321 -1.2 -1.54591 0
M  V30 604 C 61.7311 -3.38082 1.15911 0
M  V30 605 C 61.3971 -3.66114 2.63195 0
M  V30 606 C 60.0591 -3.73474 3.03432 0
M  V30 607 C 62.4111 -3.78398 3.5842 0
M  V30 608 C 59.7391 -3.90599 4.37778 0
M  V30 609 C 62.0911 -3.97039 4.92487 0
M  V30 610 C 60.7551 -4.02635 5.32392 0
M  V30 611 H 60.0251 -0.688883 0.272987 0
M  V30 612 H 62.6721 -1.3995 1.30715 0
M  V30 613 H 60.9771 -3.88377 0.516806 0
M  V30 614 H 62.6741 -3.90596 0.907516 0
M  V30 615 H 59.2641 -3.61003 2.3103 0
M  V30 616 H 63.4481 -3.72042 3.28479 0
M  V30 617 H 58.7041 -3.93175 4.68213 0
M  V30 618 H 62.8781 -4.05486 5.66175 0
M  V30 619 H 60.5051 -4.15657 6.36501 0
M  V30 620 N 62.0802 -0.821533 -1.34494 0
M  V30 621 C 63.3262 -0.409552 -1.98622 0
M  V30 622 C 63.6592 1.0244 -1.64984 0
M  V30 623 O 62.9342 1.71325 -0.920758 0
M  V30 624 C 63.2172 -0.610458 -3.54888 0
M  V30 625 C 63.0702 -2.09043 -3.98273 0
M  V30 626 C 64.3892 -0.0455379 -4.40076 0
M  V30 627 H 61.5082 -0.15028 -0.721516 0
M  V30 628 H 64.1502 -1.03384 -1.59411 0
M  V30 629 H 62.3002 -0.079044 -3.8842 0
M  V30 630 H 63.9722 -2.68537 -3.75081 0
M  V30 631 H 62.2152 -2.58139 -3.48635 0
M  V30 632 H 62.8862 -2.18182 -5.07051 0
M  V30 633 H 65.3622 -0.499557 -4.1309 0
M  V30 634 H 64.2382 -0.215922 -5.48475 0
M  V30 635 H 64.4992 1.04939 -4.29465 0
M  V30 636 N 63.5583 1.46682 -0.576371 0
M  V30 637 C 64.5063 2.31953 0.17335 0
M  V30 638 C 65.5003 1.44098 0.89062 0
M  V30 639 O 66.7063 1.60759 0.809728 0
M  V30 640 H 63.0813 0.748273 0.0747727 0
M  V30 641 H 65.0523 2.93007 -0.564738 0
M  V30 642 C 63.8013 3.27142 1.17786 0
M  V30 643 H 63.1243 3.94719 0.635361 0
M  V30 644 H 64.5643 3.896 1.67296 0
M  V30 645 C 63.0233 2.52036 2.23561 0
M  V30 646 O 63.5533 2.27877 3.3081 0
M  V30 647 N 61.7593 2.12709 1.97998 0
M  V30 648 H 61.3063 2.32557 1.10792 0
M  V30 649 H 61.2643 1.62776 2.68982 0
M  V30 650 N 65.0364 0.313813 1.54444 0
M  V30 651 C 66.2644 -0.293918 2.04802 0
M  V30 652 C 66.6794 -1.46537 1.19047 0
M  V30 653 O 66.0364 -1.81182 0.218939 0
M  V30 654 C 66.0874 -0.737806 3.53891 0
M  V30 655 O 65.8084 0.387038 4.36387 0
M  V30 656 C 67.3094 -1.40936 4.203 0
M  V30 657 H 64.5294 -0.0620057 0.668129 0
M  V30 658 H 67.0734 0.457169 1.99324 0
M  V30 659 H 65.2284 -1.43889 3.59687 0
M  V30 660 H 65.6424 0.0391274 5.24485 0
M  V30 661 H 67.1164 -1.67099 5.26101 0
M  V30 662 H 67.5934 -2.35355 3.70816 0
M  V30 663 H 68.1994 -0.751117 4.18615 0
M  V30 664 N 66.5145 -1.57545 0.0417849 0
M  V30 665 C 67.7615 -1.92317 -0.634082 0
M  V30 666 C 68.0895 -0.919334 -1.71402 0
M  V30 667 O 67.3445 0.0698253 -1.95575 0
M  V30 668 C 67.6435 -3.33794 -1.27735 0
M  V30 669 C 67.3095 -4.49716 -0.326543 0
M  V30 670 C 65.9715 -4.81156 -0.0648814 0
M  V30 671 C 68.3235 -5.20182 0.325623 0
M  V30 672 C 65.6515 -5.80414 0.856539 0
M  V30 673 C 68.0035 -6.20424 1.23518 0
M  V30 674 C 66.6675 -6.50298 1.5056 0
M  V30 675 H 65.9375 -0.703736 -0.232027 0
M  V30 676 H 68.5845 -1.91205 0.106259 0
M  V30 677 H 66.8895 -3.31228 -2.09274 0
M  V30 678 H 68.5865 -3.57975 -1.80707 0
M  V30 679 H 65.1765 -4.25176 -0.540665 0
M  V30 680 H 69.3605 -4.96112 0.136546 0
M  V30 681 H 64.6165 -6.019 1.07363 0
M  V30 682 H 68.7905 -6.74141 1.74664 0
M  V30 683 H 66.4175 -7.27025 2.22123 0
M  V30 684 N 67.9926 0.231505 -1.5589 0
M  V30 685 C 69.2696 0.981096 -1.69215 0
M  V30 686 C 69.6496 2.02799 -0.586164 0
M  V30 687 O 68.9976 2.24823 0.408253 0
M  V30 688 C 69.2076 1.60054 -3.10135 0
M  V30 689 C 70.5556 2.09658 -3.69227 0
M  V30 690 O 71.5796 1.69967 -3.13033 0
M  V30 691 O 70.4386 2.8258 -4.67772 0
M  V30 692 H 67.5326 0.457653 -0.688827 0
M  V30 693 H 70.0786 0.224073 -1.68214 0
M  V30 694 H 68.8506 0.844105 -3.82087 0
M  V30 695 H 68.4736 2.42336 -3.15212 0
M  V30 696 N 69.4707 1.49531 0.497807 0
M  V30 697 C 70.7187 1.58865 1.24926 0
M  V30 698 C 71.0397 0.278721 1.92998 0
M  V30 699 O 70.3097 -0.702144 1.82885 0
M  V30 700 H 68.8897 0.585343 0.464094 0
M  V30 701 H 71.5517 1.86174 0.57666 0
M  V30 702 H 70.6477 2.38633 2.01149 0
M  V30 703 N 70.9488 -0.749086 1.3866 0
M  V30 704 C 72.1738 -1.54344 1.38538 0
M  V30 705 C 72.5988 -1.88088 -0.0216655 0
M  V30 706 O 71.9568 -1.50899 -1.00494 0
M  V30 707 C 72.0048 -2.8164 2.25192 0
M  V30 708 O 71.1088 -3.7698 1.67212 0
M  V30 709 H 70.4498 -0.466654 0.472367 0
M  V30 710 H 72.9798 -0.925355 1.82478 0
M  V30 711 H 72.9898 -3.30519 2.3921 0
M  V30 712 H 71.6648 -2.56411 3.27454 0
M  V30 713 H 70.2418 -3.35699 1.6236 0
M  V30 714 N 72.4269 -1.23603 -0.977757 0
M  V30 715 C 73.3599 -0.962772 -2.06896 0
M  V30 716 C 74.3379 0.0998743 -1.62293 0
M  V30 717 O 75.5219 -0.0349421 -1.88468 0
M  V30 718 C 72.6489 -0.45095 -3.35685 0
M  V30 719 C 71.6949 -1.50061 -3.99229 0
M  V30 720 S 72.5279 -3.07884 -4.38142 0
M  V30 721 C 73.6839 -2.58378 -5.7008 0
M  V30 722 H 73.9169 -1.88677 -2.29757 0
M  V30 723 H 71.4499 -1.06876 -1.11431 0
M  V30 724 H 73.4079 -0.162261 -4.10179 0
M  V30 725 H 72.0689 0.452179 -3.10828 0
M  V30 726 H 71.2619 -1.09269 -4.92013 0
M  V30 727 H 70.8639 -1.73878 -3.31123 0
M  V30 728 H 73.1559 -2.00563 -6.47133 0
M  V30 729 H 74.0989 -3.49711 -6.15717 0
M  V30 730 H 74.5069 -1.99143 -5.28207 0
M  V30 731 N 73.905 1.17692 -1.04816 0
M  V30 732 C 75.135 1.91508 -0.775128 0
M  V30 733 C 75.543 1.76844 0.67253 0
M  V30 734 O 74.886 1.10057 1.47082 0
M  V30 735 C 74.948 3.43167 -1.0713 0
M  V30 736 C 74.612 3.81612 -2.51438 0
M  V30 737 C 75.609 3.84772 -3.49638 0
M  V30 738 C 73.294 4.12687 -2.86348 0
M  V30 739 C 75.288 4.18469 -4.80794 0
M  V30 740 C 72.975 4.46053 -4.17708 0
M  V30 741 C 73.973 4.48921 -5.14741 0
M  V30 742 O 73.661 4.81504 -6.43746 0
M  V30 743 H 73.393 0.614575 -0.281555 0
M  V30 744 H 75.947 1.50206 -1.40098 0
M  V30 745 H 74.177 3.84745 -0.388342 0
M  V30 746 H 75.866 3.98239 -0.784883 0
M  V30 747 H 76.632 3.60893 -3.24008 0
M  V30 748 H 72.511 4.09627 -2.11486 0
M  V30 749 H 76.055 4.20623 -5.56527 0
M  V30 750 H 71.952 4.69393 -4.43103 0
M  V30 751 H 72.72 4.99377 -6.4851 0
M  V30 752 N 75.3831 0.828654 1.34056 0
M  V30 753 C 76.6081 0.431637 2.02859 0
M  V30 754 C 77.0331 -0.956339 1.61975 0
M  V30 755 O 76.3911 -1.62338 0.807228 0
M  V30 756 C 76.4391 0.548323 3.56407 0
M  V30 757 O 75.5431 -0.429556 4.10157 0
M  V30 758 H 74.8841 0.176886 0.640006 0
M  V30 759 H 77.4141 1.12066 1.71179 0
M  V30 760 H 77.4241 0.426196 4.05768 0
M  V30 761 H 76.0991 1.5606 3.8551 0
M  V30 762 H 74.6761 -0.265836 3.71951 0
M  V30 763 N 76.8612 -1.46375 0.584142 0
M  V30 764 C 78.1082 -2.02378 0.0702675 0
M  V30 765 C 78.4362 -1.45545 -1.29023 0
M  V30 766 O 77.6912 -0.610967 -1.85918 0
M  V30 767 C 77.9902 -3.57373 -0.0439342 0
M  V30 768 C 77.6562 -4.33252 1.24915 0
M  V30 769 C 76.3182 -4.53701 1.60341 0
M  V30 770 C 78.6702 -4.7681 2.1048 0
M  V30 771 C 75.9982 -5.1496 2.81128 0
M  V30 772 C 78.3502 -5.39404 3.30494 0
M  V30 773 C 77.0142 -5.5808 3.66201 0
M  V30 774 H 76.2842 -0.740554 0.0257127 0
M  V30 775 H 78.9312 -1.75727 0.761065 0
M  V30 776 H 77.2362 -3.83169 -0.817869 0
M  V30 777 H 78.9332 -3.98384 -0.457318 0
M  V30 778 H 75.5232 -4.17633 0.963364 0
M  V30 779 H 79.7072 -4.60766 1.84414 0
M  V30 780 H 74.9632 -5.27611 3.08928 0
M  V30 781 H 79.1372 -5.72114 3.97063 0
M  V30 782 H 76.7642 -6.05318 4.59885 0
M  V30 783 N 78.3393 -0.321999 -1.54275 0
M  V30 784 C 79.3023 0.531975 -2.22941 0
M  V30 785 C 80.3023 1.04478 -1.22234 0
M  V30 786 O 81.4923 0.937452 -1.46825 0
M  V30 787 C 78.6243 1.73874 -2.93224 0
M  V30 788 H 79.8173 -0.0682612 -2.99822 0
M  V30 789 H 77.3703 -0.0730644 -1.56129 0
M  V30 790 H 78.1053 2.37825 -2.20476 0
M  V30 791 H 77.8903 1.37847 -3.6707 0
M  V30 792 H 79.3803 2.34496 -3.45545 0
M  V30 793 N 79.8174 1.5752 -0.0501392 0
M  V30 794 C 81.0654 1.9227 0.622642 0
M  V30 795 C 81.3864 0.929083 1.71444 0
M  V30 796 O 80.6564 -0.0262186 1.95882 0
M  V30 797 H 79.2364 0.709739 0.232981 0
M  V30 798 H 81.8984 1.94628 -0.102898 0
M  V30 799 H 80.9944 2.93479 1.06191 0
M  V30 800 N 81.2955 -0.223234 1.56011 0
M  V30 801 C 82.5255 -0.963413 1.82762 0
M  V30 802 C 82.9335 -1.78516 0.626804 0
M  V30 803 O 82.2765 -1.78974 -0.414014 0
M  V30 804 C 82.3385 -1.93126 3.0322 0
M  V30 805 C 82.0025 -1.2942 4.38291 0
M  V30 806 C 82.9995 -0.684916 5.15369 0
M  V30 807 C 80.6845 -1.30647 4.85012 0
M  V30 808 C 82.6785 -0.0963971 6.37327 0
M  V30 809 C 80.3655 -0.71411 6.06913 0
M  V30 810 C 81.3635 -0.110123 6.82911 0
M  V30 811 O 81.0515 0.47303 8.02507 0
M  V30 812 H 80.7835 -0.288011 0.611576 0
M  V30 813 H 83.3375 -0.244103 2.03944 0
M  V30 814 H 81.5675 -2.68952 2.77852 0
M  V30 815 H 83.2565 -2.53685 3.16857 0
M  V30 816 H 84.0225 -0.667774 4.80381 0
M  V30 817 H 79.9015 -1.76598 4.25833 0
M  V30 818 H 83.4455 0.375657 6.96588 0
M  V30 819 H 79.3425 -0.728659 6.41374 0
M  V30 820 H 80.1105 0.367186 8.17676 0
M  V30 821 N 82.7736 -1.49793 -0.48987 0
M  V30 822 C 84.0136 -1.61466 -1.25332 0
M  V30 823 C 84.3776 -0.299688 -1.89647 0
M  V30 824 O 85.5786 -0.291687 -2.67213 0
M  V30 825 C 83.8496 -2.74944 -2.28343 0
M  V30 826 S 85.4086 -3.06637 -3.13878 0
M  V30 827 H 82.2266 -0.569411 -0.425784 0
M  V30 828 H 84.8286 -1.875 -0.553541 0
M  V30 829 H 83.5326 -3.68994 -1.79643 0
M  V30 830 H 83.0636 -2.50938 -3.02975 0
M  V30 831 H 85.0786 -2.49015 -4.29192 0
M  V30 832 N 84.2517 0.741722 -1.39055 0
M  V30 833 C 85.4767 1.53607 -1.39354 0
M  V30 834 C 85.9017 1.88096 0.0116905 0
M  V30 835 O 85.2597 1.5143 0.996924 0
M  V30 836 C 85.3077 2.80441 -2.26682 0
M  V30 837 O 84.4117 3.76088 -1.69208 0
M  V30 838 H 83.7527 0.464142 -0.474835 0
M  V30 839 H 86.2827 0.915665 -1.82967 0
M  V30 840 H 86.2927 3.29246 -2.40959 0
M  V30 841 H 84.9677 2.5467 -3.2881 0
M  V30 842 H 83.5447 3.34833 -1.64138 0
M  V30 843 N 85.7298 1.2412 0.971189 0
M  V30 844 C 86.9598 1.10415 1.7462 0
M  V30 845 C 87.3678 -0.346462 1.86001 0
M  V30 846 O 86.7108 -1.25104 1.34517 0
M  V30 847 C 86.7728 1.66596 3.18568 0
M  V30 848 C 86.4368 3.15446 3.3067 0
M  V30 849 C 87.4338 4.12636 3.16271 0
M  V30 850 C 85.1188 3.55337 3.55022 0
M  V30 851 C 87.1128 5.47699 3.26044 0
M  V30 852 C 84.7998 4.90542 3.64434 0
M  V30 853 C 85.7978 5.86532 3.49956 0
M  V30 854 O 85.4858 7.19279 3.59017 0
M  V30 855 H 85.2178 0.386616 0.55453 0
M  V30 856 H 87.7718 1.64633 1.22821 0
M  V30 857 H 86.0018 1.06808 3.71657 0
M  V30 858 H 87.6908 1.48232 3.77865 0
M  V30 859 H 88.4568 3.8316 2.97344 0
M  V30 860 H 84.3358 2.8113 3.65359 0
M  V30 861 H 87.8798 6.22603 3.14661 0
M  V30 862 H 83.7768 5.19691 3.82873 0
M  V30 863 H 84.5448 7.27153 3.75754 0
M  V30 864 N 87.2079 -1.17134 1.05439 0
M  V30 865 C 88.1379 -2.2342 0.678649 0
M  V30 866 C 89.1189 -1.66971 -0.32476 0
M  V30 867 O 90.3039 -1.93149 -0.201802 0
M  V30 868 C 87.4339 -3.47256 0.0552099 0
M  V30 869 C 86.3879 -4.16543 0.98365 0
M  V30 870 C 85.7139 -5.34231 0.223961 0
M  V30 871 C 87.0139 -4.68495 2.3089 0
M  V30 872 H 88.7079 -2.55105 1.56722 0
M  V30 873 H 86.2539 -1.2262 0.754998 0
M  V30 874 H 88.2069 -4.20828 -0.21946 0
M  V30 875 H 86.9309 -3.14846 -0.868319 0
M  V30 876 H 85.5899 -3.44887 1.24293 0
M  V30 877 H 85.2379 -4.98071 -0.702412 0
M  V30 878 H 84.9379 -5.81527 0.842627 0
M  V30 879 H 86.4619 -6.10585 -0.0433671 0
M  V30 880 H 87.8759 -5.33691 2.09396 0
M  V30 881 H 86.2729 -5.26379 2.88176 0
M  V30 882 H 87.3429 -3.85169 2.94572 0
M  V30 883 N 88.686 -0.835752 -1.33615 0
M  V30 884 C 89.616 -0.281739 -2.31794 0
M  V30 885 C 90.597 0.608833 -1.58831 0
M  V30 886 O 91.782 0.533035 -1.86741 0
M  V30 887 C 88.912 0.546612 -3.42971 0
M  V30 888 C 87.866 -0.247904 -4.27281 0
M  V30 889 C 87.192 0.704001 -5.30045 0
M  V30 890 C 88.492 -1.46324 -5.01385 0
M  V30 891 H 90.186 -1.10206 -2.78379 0
M  V30 892 H 87.732 -0.531388 -1.33837 0
M  V30 893 H 89.685 0.944467 -4.1068 0
M  V30 894 H 88.409 1.40011 -2.95067 0
M  V30 895 H 87.068 -0.627281 -3.61194 0
M  V30 896 H 86.716 1.55381 -4.78399 0
M  V30 897 H 86.416 0.176524 -5.87335 0
M  V30 898 H 87.94 1.09944 -6.0062 0
M  V30 899 H 89.354 -1.13871 -5.61877 0
M  V30 900 H 87.751 -1.92728 -5.6831 0
M  V30 901 H 88.821 -2.23467 -4.30338 0
M  V30 902 N 90.1641 1.46063 -0.591896 0
M  V30 903 C 91.1271 2.28854 0.125973 0
M  V30 904 C 92.1271 1.38903 0.810107 0
M  V30 905 O 93.3171 1.61186 0.66066 0
M  V30 906 C 90.4491 3.19526 1.1881 0
M  V30 907 H 91.6421 2.93802 -0.601717 0
M  V30 908 H 89.1951 1.52325 -0.350254 0
M  V30 909 H 89.9301 2.59345 1.94707 0
M  V30 910 H 89.7151 3.85766 0.701936 0
M  V30 911 H 91.2051 3.81817 1.69132 0
M  V30 912 N 91.6422 0.330177 1.54103 0
M  V30 913 C 92.8902 -0.269871 2.0029 0
M  V30 914 C 93.2112 -1.52133 1.21986 0
M  V30 915 O 92.4812 -1.93212 0.323438 0
M  V30 916 H 91.0612 -0.10271 0.739905 0
M  V30 917 H 93.7232 0.448249 1.89675 0
M  V30 918 H 92.8192 -0.52166 3.07709 0
M  V30 919 N 93.1203 -1.57491 0.0584922 0
M  V30 920 C 94.3683 -1.92597 -0.612436 0
M  V30 921 C 94.6893 -0.938162 -1.70949 0
M  V30 922 O 93.9593 0.0158301 -1.95894 0
M  V30 923 H 92.5393 -0.710964 -0.229214 0
M  V30 924 H 95.2013 -1.94571 0.113218 0
M  V30 925 H 94.2973 -2.94038 -1.04633 0
M  V30 926 N 94.5984 0.214957 -1.56127 0
M  V30 927 C 95.8384 0.945364 -1.81224 0
M  V30 928 C 96.2024 1.81265 -0.633005 0
M  V30 929 O 97.4034 2.57731 -0.763423 0
M  V30 930 C 95.6744 1.75665 -3.1125 0
M  V30 931 S 97.2334 2.54179 -3.57685 0
M  V30 932 H 94.0514 0.317443 -0.6362 0
M  V30 933 H 96.6534 0.210381 -1.94365 0
M  V30 934 H 95.3574 1.10977 -3.9511 0
M  V30 935 H 94.8884 2.53381 -3.00934 0
M  V30 936 H 96.9034 3.7792 -3.21545 0
M  V30 937 N 96.0765 1.50051 0.48192 0
M  V30 938 C 97.0085 1.64263 1.59844 0
M  V30 939 C 98.0215 0.52451 1.54119 0
M  V30 940 O 99.2105 0.797293 1.59704 0
M  V30 941 C 96.3105 1.60102 2.98698 0
M  V30 942 C 95.4835 2.87767 3.29407 0
M  V30 943 C 94.5425 2.76397 4.47762 0
M  V30 944 O 93.5685 3.50348 4.48603 0
M  V30 945 N 94.7705 1.89222 5.48794 0
M  V30 946 H 97.5355 2.60566 1.48073 0
M  V30 947 H 95.0965 1.47379 0.670149 0
M  V30 948 H 97.0885 1.50123 3.75826 0
M  V30 949 H 95.6585 0.715798 3.04294 0
M  V30 950 H 94.8785 3.11954 2.40994 0
M  V30 951 H 96.1665 3.72365 3.4673 0
M  V30 952 H 95.5645 1.28434 5.50928 0
M  V30 953 H 94.1215 1.85154 6.24949 0
M  V30 954 N 97.5546 -0.734337 1.39446 0
M  V30 955 C 98.5016 -1.84835 1.38219 0
M  V30 956 C 99.4716 -1.64331 0.24179 0
M  V30 957 O 100.657 -1.85728 0.437002 0
M  V30 958 C 97.7966 -3.22355 1.23212 0
M  V30 959 C 96.9096 -3.5456 2.46801 0
M  V30 960 C 96.0446 -4.81485 2.24377 0
M  V30 961 C 95.0836 -5.06536 3.43639 0
M  V30 962 N 94.2206 -6.24665 3.20528 0
M  V30 963 H 99.0606 -1.85219 2.33448 0
M  V30 964 H 96.5976 -0.905039 1.15963 0
M  V30 965 H 98.5556 -4.0174 1.12522 0
M  V30 966 H 97.1856 -3.21248 0.316121 0
M  V30 967 H 96.2376 -2.69872 2.68092 0
M  V30 968 H 97.5496 -3.6899 3.3563 0
M  V30 969 H 96.7036 -5.68852 2.10933 0
M  V30 970 H 95.4426 -4.6923 1.32944 0
M  V30 971 H 94.4476 -4.17632 3.5758 0
M  V30 972 H 95.6726 -5.20676 4.35974 0
M  V30 973 H 93.6186 -6.13696 2.3176 0
M  V30 974 H 93.5356 -6.39685 4.02913 0
M  V30 975 H 94.8036 -7.14868 3.10779 0
M  V30 976 N 99.0327 -1.24633 -0.964593 0
M  V30 977 C 100.449 -1.01239 -1.2338 0
M  V30 978 C 100.649 0.2769 -1.99588 0
M  V30 979 O 99.7047 0.992241 -2.32187 0
M  V30 980 C 101.018 -2.22937 -2.01791 0
M  V30 981 C 102.566 -2.27594 -2.14872 0
M  V30 982 C 103.041 -3.48921 -2.96678 0
M  V30 983 N 104.532 -3.49257 -3.04259 0
M  V30 984 C 105.267 -4.39795 -3.67924 0
M  V30 985 N 104.763 -5.40591 -4.33281 0
M  V30 986 N 106.556 -4.275 -3.64966 0
M  V30 987 H 98.7067 -2.0748 -0.454502 0
M  V30 988 H 100.97 -0.910647 -0.26349 0
M  V30 989 H 100.676 -3.16587 -1.53184 0
M  V30 990 H 100.55 -2.25306 -3.02518 0
M  V30 991 H 102.937 -1.34473 -2.6268 0
M  V30 992 H 103.018 -2.2925 -1.13482 0
M  V30 993 H 102.662 -4.42359 -2.49562 0
M  V30 994 H 102.592 -3.4451 -3.98272 0
M  V30 995 H 105.083 -2.76337 -2.57771 0
M  V30 996 H 105.396 -6.05904 -4.79687 0
M  V30 997 H 103.741 -5.44475 -4.3194 0
M  V30 998 H 106.932 -3.47987 -3.13086 0
M  V30 999 H 107.105 -4.98258 -4.14298 0
M  V30 1000 N 100.511 1.16574 -1.06058 0
M  V30 1001 C 101.736 1.91493 -0.796562 0
M  V30 1002 C 102.161 1.76773 0.642868 0
M  V30 1003 O 101.519 1.09142 1.44768 0
M  V30 1004 C 101.567 3.40293 -1.19303 0
M  V30 1005 O 100.671 4.11074 -0.330394 0
M  V30 1006 H 100.012 0.596678 -0.291326 0
M  V30 1007 H 102.542 1.47708 -1.41575 0
M  V30 1008 H 102.552 3.91057 -1.16356 0
M  V30 1009 H 101.227 3.50326 -2.24153 0
M  V30 1010 H 99.8038 3.70513 -0.421225 0
M  V30 1011 N 101.989 0.842826 1.3317 0
M  V30 1012 C 103.236 0.440447 1.97652 0
M  V30 1013 C 103.564 -1.00123 1.6675 0
M  V30 1014 O 102.819 -1.7155 0.941761 0
M  V30 1015 C 103.118 0.612607 3.52111 0
M  V30 1016 C 102.784 2.02297 4.02972 0
M  V30 1017 C 101.446 2.40874 4.16573 0
M  V30 1018 C 103.798 2.94402 4.30089 0
M  V30 1019 C 101.126 3.70852 4.54627 0
M  V30 1020 C 103.478 4.23865 4.69597 0
M  V30 1021 C 102.142 4.62392 4.81404 0
M  V30 1022 H 101.412 0.161171 0.72326 0
M  V30 1023 H 104.059 1.07061 1.58777 0
M  V30 1024 H 102.364 -0.100849 3.9167 0
M  V30 1025 H 104.061 0.2815 4.00011 0
M  V30 1026 H 100.651 1.71338 3.92863 0
M  V30 1027 H 104.835 2.65835 4.19101 0
M  V30 1028 H 100.091 4.00501 4.61962 0
M  V30 1029 H 104.265 4.95306 4.89536 0
M  V30 1030 H 101.892 5.63154 5.10648 0
M  V30 1031 N 103.467 -1.45747 0.599634 0
M  V30 1032 C 104.692 -2.07178 0.0960198 0
M  V30 1033 C 105.117 -1.44268 -1.207 0
M  V30 1034 O 104.475 -0.532503 -1.73303 0
M  V30 1035 C 104.523 -3.60579 -0.0385348 0
M  V30 1036 O 103.627 -3.97713 -1.0908 0
M  V30 1037 H 102.968 -0.660251 0.0704593 0
M  V30 1038 H 105.498 -1.87124 0.827385 0
M  V30 1039 H 105.508 -4.07298 -0.239304 0
M  V30 1040 H 104.183 -4.05756 0.912947 0
M  V30 1041 H 102.76 -3.62678 -0.867135 0
M  V30 1042 N 104.945 -0.338344 -1.53925 0
M  V30 1043 C 106.194 0.260732 -2.00008 0
M  V30 1044 C 106.507 1.52073 -1.23017 0
M  V30 1045 O 107.713 2.19672 -1.5955 0
M  V30 1046 C 106.169 0.51515 -3.56194 0
M  V30 1047 C 105.777 -0.728645 -4.42035 0
M  V30 1048 C 107.521 1.07337 -4.10706 0
M  V30 1049 C 105.428 -0.445315 -5.89721 0
M  V30 1050 H 104.358 0.101205 -0.747177 0
M  V30 1051 H 107.009 -0.452866 -1.77824 0
M  V30 1052 H 105.391 1.28932 -3.74423 0
M  V30 1053 H 106.565 -1.50352 -4.35581 0
M  V30 1054 H 104.88 -1.20813 -3.98489 0
M  V30 1055 H 107.477 1.30022 -5.18651 0
M  V30 1056 H 107.82 2.0273 -3.63602 0
M  V30 1057 H 108.353 0.360034 -3.96167 0
M  V30 1058 H 105.092 -1.36883 -6.41049 0
M  V30 1059 H 104.612 0.291569 -5.99091 0
M  V30 1060 H 106.291 -0.0606218 -6.46972 0
M  V30 1061 N 106.423 1.57458 -0.0668435 0
M  V30 1062 C 107.672 1.92477 0.602947 0
M  V30 1063 C 107.985 0.948419 1.71068 0
M  V30 1064 O 109.191 1.19124 2.43971 0
M  V30 1065 C 107.647 3.41903 1.12383 0
M  V30 1066 C 107.255 4.47975 0.04737 0
M  V30 1067 C 108.999 3.85931 1.76797 0
M  V30 1068 C 106.906 5.88529 0.582022 0
M  V30 1069 H 105.836 0.718387 0.22899 0
M  V30 1070 H 108.487 1.82978 -0.138276 0
M  V30 1071 H 106.869 3.46459 1.91787 0
M  V30 1072 H 108.043 4.55029 -0.726978 0
M  V30 1073 H 106.358 4.13384 -0.500243 0
M  V30 1074 H 108.955 4.88322 2.17821 0
M  V30 1075 H 109.298 3.23029 2.62599 0
M  V30 1076 H 109.831 3.83958 1.04024 0
M  V30 1077 H 106.57 6.55065 -0.238721 0
M  V30 1078 H 106.09 5.85004 1.324 0
M  V30 1079 H 107.769 6.38258 1.05999 0
M  V30 1080 N 107.901 -0.206675 1.56239 0
M  V30 1081 C 109.149 -0.927007 1.79586 0
M  V30 1082 C 109.47 -1.8427 0.637929 0
M  V30 1083 O 108.74 -1.92849 -0.344398 0
M  V30 1084 H 107.32 -0.345292 0.662407 0
M  V30 1085 H 109.982 -0.21496 1.93711 0
M  V30 1086 H 109.078 -1.52501 2.72305 0
M  V30 1087 N 109.379 -1.50304 -0.473955 0
M  V30 1088 C 110.656 -1.51667 -1.23518 0
M  V30 1089 C 111.036 -0.259701 -2.09496 0
M  V30 1090 O 110.384 0.756986 -2.15597 0
M  V30 1091 C 110.594 -2.81082 -2.06868 0
M  V30 1092 C 111.942 -3.31631 -2.65153 0
M  V30 1093 O 112.966 -2.82384 -2.17113 0
M  V30 1094 O 111.825 -4.17471 -3.52675 0
M  V30 1095 H 108.919 -0.60822 -0.560355 0
M  V30 1096 H 111.465 -1.62592 -0.486011 0
M  V30 1097 H 110.237 -3.64041 -1.4349 0
M  V30 1098 H 109.86 -2.73146 -2.88924 0
M  V30 1099 N 110.857 0.726932 -1.39834 0
M  V30 1100 C 112.104 1.48664 -1.37496 0
M  V30 1101 C 112.432 1.94482 0.0264678 0
M  V30 1102 O 111.687 1.67692 1.00886 0
M  V30 1103 C 111.986 2.73495 -2.30077 0
M  V30 1104 C 111.652 2.46502 -3.77555 0
M  V30 1105 C 110.314 2.3885 -4.17737 0
M  V30 1106 C 112.666 2.23604 -4.70798 0
M  V30 1107 C 109.994 2.06352 -5.49214 0
M  V30 1108 C 112.346 1.92622 -6.02561 0
M  V30 1109 C 111.01 1.83444 -6.41798 0
M  V30 1110 H 110.28 0.544001 -0.503135 0
M  V30 1111 H 112.927 0.833657 -1.72402 0
M  V30 1112 H 111.232 3.43575 -1.88317 0
M  V30 1113 H 112.929 3.31549 -2.25558 0
M  V30 1114 H 109.519 2.5334 -3.45712 0
M  V30 1115 H 113.703 2.28479 -4.40581 0
M  V30 1116 H 108.959 1.97776 -5.78528 0
M  V30 1117 H 113.133 1.73914 -6.74334 0
M  V30 1118 H 110.76 1.58029 -7.43593 0
M  V30 1119 N 112.336 1.25143 0.95797 0
M  V30 1120 C 113.268 1.01023 2.05735 0
M  V30 1121 C 114.281 -0.0236902 1.62783 0
M  V30 1122 O 115.47 0.21448 1.77207 0
M  V30 1123 C 112.57 0.504595 3.35122 0
M  V30 1124 C 111.743 1.6039 4.06932 0
M  V30 1125 C 110.802 1.09922 5.14591 0
M  V30 1126 O 109.828 1.79293 5.40225 0
M  V30 1127 N 111.03 -0.0612545 5.80468 0
M  V30 1128 H 113.795 1.95683 2.26998 0
M  V30 1129 H 111.356 1.16303 1.12629 0
M  V30 1130 H 113.348 0.151516 4.04416 0
M  V30 1131 H 111.918 -0.347989 3.10657 0
M  V30 1132 H 111.138 2.12872 3.31782 0
M  V30 1133 H 112.426 2.34252 4.51667 0
M  V30 1134 H 111.824 -0.640985 5.62057 0
M  V30 1135 H 110.381 -0.355395 6.5083 0
M  V30 1136 N 113.814 -1.1601 1.06675 0
M  V30 1137 C 114.762 -2.22586 0.675157 0
M  V30 1138 C 115.756 -1.66525 -0.310766 0
M  V30 1139 O 116.962 -1.79145 -0.175215 0
M  V30 1140 H 113.337 -0.724855 0.200223 0
M  V30 1141 H 115.308 -2.52899 1.58381 0
M  V30 1142 C 114.057 -3.47604 0.0817162 0
M  V30 1143 H 113.38 -3.91058 0.831484 0
M  V30 1144 H 114.82 -4.23718 -0.154708 0
M  V30 1145 C 113.279 -3.15718 -1.17576 0
M  V30 1146 O 113.809 -3.31878 -2.26318 0
M  V30 1147 N 112.015 -2.69816 -1.07923 0
M  V30 1148 H 111.562 -2.56866 -0.194293 0
M  V30 1149 H 111.52 -2.48855 -1.92141 0
M  V30 1150 N 115.292 -0.849877 -1.32721 0
M  V30 1151 C 116.54 -0.450032 -1.97026 0
M  V30 1152 C 116.861 0.996604 -1.67609 0
M  V30 1153 O 116.131 1.6958 -0.980786 0
M  V30 1154 H 114.711 -0.163426 -0.728904 0
M  V30 1155 H 117.373 -1.08526 -1.6189 0
M  V30 1156 H 116.469 -0.591146 -3.0645 0
M  V30 1157 N 116.77 1.45427 -0.607355 0
M  V30 1158 C 117.717 2.3053 0.111625 0
M  V30 1159 C 118.687 1.4209 0.860216 0
M  V30 1160 O 119.872 1.71019 0.845998 0
M  V30 1161 C 117.012 3.26992 1.10319 0
M  V30 1162 C 116.125 4.30535 0.355493 0
M  V30 1163 C 115.26 5.14105 1.33676 0
M  V30 1164 C 114.299 6.09376 0.576862 0
M  V30 1165 N 113.436 6.85727 1.5074 0
M  V30 1166 H 118.276 2.91477 -0.620093 0
M  V30 1167 H 115.813 1.43631 -0.317594 0
M  V30 1168 H 117.771 3.81385 1.6912 0
M  V30 1169 H 116.401 2.67799 1.80232 0
M  V30 1170 H 115.453 3.78805 -0.348023 0
M  V30 1171 H 116.765 4.98235 -0.237423 0
M  V30 1172 H 115.919 5.72897 1.99684 0
M  V30 1173 H 114.658 4.46423 1.9636 0
M  V30 1174 H 113.663 5.49715 -0.0968519 0
M  V30 1175 H 114.888 6.79085 -0.0449341 0
M  V30 1176 H 112.834 6.20735 2.12189 0
M  V30 1177 H 112.751 7.49778 0.967913 0
M  V30 1178 H 114.019 7.4906 2.15706 0
M  V30 1179 N 118.248 0.346503 1.53744 0
M  V30 1180 C 119.664 -0.00530975 1.59599 0
M  V30 1181 C 119.864 -1.48465 1.36236 0
M  V30 1182 O 118.92 -2.24376 1.15808 0
M  V30 1183 C 120.233 0.433516 2.97559 0
M  V30 1184 C 121.781 0.386111 3.10609 0
M  V30 1185 C 122.256 0.800451 4.50951 0
M  V30 1186 N 123.747 0.754753 4.5701 0
M  V30 1187 C 124.482 1.04727 5.63755 0
M  V30 1188 N 123.978 1.4081 6.7834 0
M  V30 1189 N 125.771 0.971316 5.53644 0
M  V30 1190 H 117.922 1.31009 1.67184 0
M  V30 1191 H 120.185 0.534242 0.783128 0
M  V30 1192 H 119.891 1.46509 3.19731 0
M  V30 1193 H 119.765 -0.189753 3.76722 0
M  V30 1194 H 122.152 -0.636295 2.88158 0
M  V30 1195 H 122.233 1.04462 2.33498 0
M  V30 1196 H 121.877 1.82088 4.74137 0
M  V30 1197 H 121.807 0.119386 5.26465 0
M  V30 1198 H 124.298 0.488662 3.74727 0
M  V30 1199 H 124.611 1.61607 7.55714 0
M  V30 1200 H 122.956 1.44657 6.79779 0
M  V30 1201 H 126.147 0.688748 4.63005 0
M  V30 1202 H 126.32 1.20263 6.36742 0
M  V30 1203 N 119.726 -1.57421 0.075193 0
M  V30 1204 C 120.972 -1.93905 -0.594025 0
M  V30 1205 C 121.305 -0.955701 -1.69056 0
M  V30 1206 O 120.58 0.0145373 -1.94495 0
M  V30 1207 C 120.863 -3.40638 -1.1678 0
M  V30 1208 C 120.716 -4.49733 -0.0776792 0
M  V30 1209 C 122.035 -3.88259 -2.07228 0
M  V30 1210 H 119.154 -0.705105 -0.214466 0
M  V30 1211 H 121.796 -1.8947 0.141854 0
M  V30 1212 H 119.946 -3.44549 -1.79494 0
M  V30 1213 H 121.618 -4.57942 0.555573 0
M  V30 1214 H 119.861 -4.29751 0.591286 0
M  V30 1215 H 120.532 -5.49549 -0.519603 0
M  V30 1216 H 123.008 -3.86376 -1.54445 0
M  V30 1217 H 121.884 -4.91533 -2.44308 0
M  V30 1218 H 122.145 -3.26396 -2.98191 0
M  V30 1219 N 121.204 0.198386 -1.56346 0
M  V30 1220 C 122.429 0.939682 -1.84891 0
M  V30 1221 C 122.854 1.76202 -0.658369 0
M  V30 1222 O 122.212 1.76993 0.392851 0
M  V30 1223 C 122.26 1.81428 -3.11635 0
M  V30 1224 O 121.364 2.91265 -2.91956 0
M  V30 1225 H 120.705 0.264807 -0.608912 0
M  V30 1226 H 123.235 0.204695 -2.03573 0
M  V30 1227 H 123.245 2.21958 -3.42343 0
M  V30 1228 H 121.92 1.21004 -3.97908 0
M  V30 1229 H 120.497 2.54514 -2.72538 0
M  V30 1230 N 122.682 1.50554 0.465978 0
M  V30 1231 C 123.612 1.72722 1.57128 0
M  V30 1232 C 124.593 0.576294 1.6004 0
M  V30 1233 O 125.778 0.81598 1.76225 0
M  V30 1234 C 122.908 1.82605 2.95419 0
M  V30 1235 C 121.862 2.97835 3.07373 0
M  V30 1236 C 121.188 2.92867 4.47363 0
M  V30 1237 C 122.488 4.38265 2.84114 0
M  V30 1238 H 124.182 2.65267 1.38829 0
M  V30 1239 H 121.728 1.2765 0.666441 0
M  V30 1240 H 123.681 1.96698 3.72677 0
M  V30 1241 H 122.405 0.866858 3.14886 0
M  V30 1242 H 121.064 2.83401 2.3255 0
M  V30 1243 H 120.712 1.94783 4.63755 0
M  V30 1244 H 120.412 3.70227 4.56296 0
M  V30 1245 H 121.936 3.09015 5.26633 0
M  V30 1246 H 123.35 4.53198 3.51118 0
M  V30 1247 H 121.747 5.17115 3.04487 0
M  V30 1248 H 122.817 4.50281 1.7993 0
M  V30 1249 N 124.16 -0.719506 1.40217 0
M  V30 1250 C 125.385 -1.51371 1.4178 0
M  V30 1251 C 125.81 -1.88091 0.0182355 0
M  V30 1252 O 125.168 -1.52997 -0.972707 0
M  V30 1253 C 125.216 -2.768 2.31115 0
M  V30 1254 O 124.32 -3.73349 1.7517 0
M  V30 1255 H 123.661 -0.456529 0.482159 0
M  V30 1256 H 126.191 -0.88644 1.844 0
M  V30 1257 H 126.201 -3.25371 2.46167 0
M  V30 1258 H 124.876 -2.49407 3.3282 0
M  V30 1259 H 123.453 -3.32179 1.69444 0
M  V30 1260 N 125.638 -1.25649 -0.95132 0
M  V30 1261 C 126.884 -1.10757 -1.69884 0
M  V30 1262 C 127.217 0.350061 -1.91019 0
M  V30 1263 O 126.492 1.25783 -1.48354 0
M  V30 1264 C 126.775 -1.86606 -3.07978 0
M  V30 1265 C 126.628 -3.40217 -2.94232 0
M  V30 1266 C 127.947 -1.65182 -4.07925 0
M  V30 1267 H 125.066 -0.40374 -0.616574 0
M  V30 1268 H 127.708 -1.54521 -1.10558 0
M  V30 1269 H 125.858 -1.49409 -3.58621 0
M  V30 1270 H 127.53 -3.87108 -2.50889 0
M  V30 1271 H 125.773 -3.67759 -2.30078 0
M  V30 1272 H 126.444 -3.88505 -3.92133 0
M  V30 1273 H 128.92 -1.9757 -3.66204 0
M  V30 1274 H 127.796 -2.20683 -5.02583 0
M  V30 1275 H 128.057 -0.593933 -4.38092 0
M  V30 1276 N 127.117 1.15442 -1.07289 0
M  V30 1277 C 128.347 1.89821 -0.815576 0
M  V30 1278 C 128.755 1.7823 0.634867 0
M  V30 1279 O 128.098 1.13152 1.44715 0
M  V30 1280 C 128.16 3.40817 -1.14385 0
M  V30 1281 C 127.824 3.76193 -2.59476 0
M  V30 1282 C 128.821 3.77269 -3.57721 0
M  V30 1283 C 126.506 4.0652 -2.95037 0
M  V30 1284 C 128.5 4.08176 -4.89562 0
M  V30 1285 C 126.187 4.37092 -4.27076 0
M  V30 1286 C 127.185 4.37902 -5.24148 0
M  V30 1287 O 126.873 4.67741 -6.53815 0
M  V30 1288 H 126.605 0.608465 -0.294528 0
M  V30 1289 H 129.159 1.472 -1.43252 0
M  V30 1290 H 127.389 3.83835 -0.469865 0
M  V30 1291 H 129.078 3.96485 -0.869179 0
M  V30 1292 H 129.844 3.5394 -3.3159 0
M  V30 1293 H 125.723 4.05049 -2.20128 0
M  V30 1294 H 129.267 4.08723 -5.65324 0
M  V30 1295 H 125.164 4.59889 -4.5296 0
M  V30 1296 H 125.932 4.85509 -6.58957 0
M  V30 1297 N 128.595 0.856903 1.32268 0
M  V30 1298 C 129.525 0.31858 2.31316 0
M  V30 1299 C 130.506 -0.583487 1.59779 0
M  V30 1300 O 131.691 -0.503259 1.87566 0
M  V30 1301 C 128.821 -0.491979 3.43798 0
M  V30 1302 C 127.775 0.315849 4.26833 0
M  V30 1303 C 127.101 -0.619586 5.31098 0
M  V30 1304 C 128.401 1.54282 4.98993 0
M  V30 1305 H 130.095 1.14621 2.76591 0
M  V30 1306 H 127.641 0.552613 1.32974 0
M  V30 1307 H 129.594 -0.879012 4.1213 0
M  V30 1308 H 128.318 -1.35299 2.97257 0
M  V30 1309 H 126.977 0.684664 3.6015 0
M  V30 1310 H 126.625 -1.47751 4.8081 0
M  V30 1311 H 126.325 -0.0830621 5.87541 0
M  V30 1312 H 127.849 -1.00375 6.02293 0
M  V30 1313 H 129.263 1.22796 5.59995 0
M  V30 1314 H 127.66 2.01745 5.65172 0
M  V30 1315 H 128.73 2.30285 4.26728 0
M  V30 1316 N 130.073 -1.45103 0.615059 0
M  V30 1317 C 131.321 -2.01784 0.112955 0
M  V30 1318 C 131.642 -1.48504 -1.26378 0
M  V30 1319 O 130.912 -0.682245 -1.83636 0
M  V30 1320 H 129.492 -0.745993 0.0387668 0
M  V30 1321 H 132.154 -1.77808 0.798141 0
M  V30 1322 H 131.25 -3.12025 0.0684069 0
M  V30 1323 N 131.551 -0.354651 -1.53558 0
M  V30 1324 C 132.461 0.50515 -2.29097 0
M  V30 1325 C 133.477 1.10223 -1.34636 0
M  V30 1326 O 134.653 1.11553 -1.67684 0
M  V30 1327 C 131.718 1.63479 -3.05738 0
M  V30 1328 C 130.779 1.06636 -4.15845 0
M  V30 1329 C 130.012 2.14217 -4.88822 0
M  V30 1330 O 130.235 3.35137 -4.61562 0
M  V30 1331 O 129.169 1.77887 -5.75013 0
M  V30 1332 H 132.995 -0.109237 -3.03503 0
M  V30 1333 H 130.58 -0.119357 -1.48922 0
M  V30 1334 H 132.462 2.2918 -3.5363 0
M  V30 1335 H 131.137 2.23478 -2.34178 0
M  V30 1336 H 130.044 0.373565 -3.7223 0
M  V30 1337 H 131.377 0.511081 -4.89539 0
M  V30 1338 N 133.029 1.57378 -0.0835403 0
M  V30 1339 C 134.276 1.9393 0.58287 0
M  V30 1340 C 134.604 0.964455 1.68904 0
M  V30 1341 O 133.859 -0.0179474 1.95692 0
M  V30 1342 C 134.158 3.37063 1.1884 0
M  V30 1343 C 133.824 4.50424 0.207194 0
M  V30 1344 C 132.486 4.81159 -0.0627115 0
M  V30 1345 C 134.838 5.19136 -0.463426 0
M  V30 1346 C 132.166 5.77939 -1.01012 0
M  V30 1347 C 134.518 6.16931 -1.39924 0
M  V30 1348 C 133.182 6.46078 -1.67749 0
M  V30 1349 H 132.452 0.70964 0.213287 0
M  V30 1350 H 135.099 1.90856 -0.156916 0
M  V30 1351 H 133.404 3.3666 2.00418 0
M  V30 1352 H 135.101 3.6264 1.71153 0
M  V30 1353 H 131.691 4.2646 0.427747 0
M  V30 1354 H 135.875 4.95576 -0.268034 0
M  V30 1355 H 131.131 5.98842 -1.23283 0
M  V30 1356 H 135.305 6.69273 -1.92476 0
M  V30 1357 H 132.932 7.2088 -2.41321 0
M  V30 1358 N 134.507 -0.190092 1.56449 0
M  V30 1359 C 135.754 -0.909705 1.80916 0
M  V30 1360 C 136.082 -1.83047 0.657583 0
M  V30 1361 O 135.337 -1.92428 -0.356356 0
M  V30 1362 C 135.636 -1.75382 3.1141 0
M  V30 1363 C 135.302 -0.983606 4.40041 0
M  V30 1364 C 133.964 -0.770967 4.74984 0
M  V30 1365 C 136.316 -0.442024 5.19322 0
M  V30 1366 C 133.644 -0.0053448 5.867 0
M  V30 1367 C 135.996 0.310412 6.31838 0
M  V30 1368 C 134.66 0.534023 6.6536 0
M  V30 1369 H 133.93 -0.332885 0.662019 0
M  V30 1370 H 136.577 -0.175762 1.90692 0
M  V30 1371 H 134.882 -2.55659 2.96893 0
M  V30 1372 H 136.579 -2.31331 3.27547 0
M  V30 1373 H 133.169 -1.15936 4.12622 0
M  V30 1374 H 137.353 -0.593693 4.92736 0
M  V30 1375 H 132.609 0.177825 6.11141 0
M  V30 1376 H 136.783 0.737419 6.92485 0
M  V30 1377 H 134.41 1.12918 7.51767 0
M  V30 1378 N 135.985 -1.50799 -0.457987 0
M  V30 1379 C 137.262 -1.52968 -1.21902 0
M  V30 1380 C 137.642 -0.281906 -2.09209 0
M  V30 1381 O 136.99 0.734076 -2.16388 0
M  V30 1382 C 137.2 -2.8326 -2.03875 0
M  V30 1383 C 138.548 -3.34425 -2.6162 0
M  V30 1384 O 139.572 -2.8467 -2.14106 0
M  V30 1385 O 138.431 -4.21188 -3.48228 0
M  V30 1386 H 135.525 -0.614129 -0.553873 0
M  V30 1387 H 138.071 -1.63098 -0.468739 0
M  V30 1388 H 136.843 -3.65543 -1.39621 0
M  V30 1389 H 136.466 -2.76195 -2.8601 0
M  V30 1390 N 137.463 0.71206 -1.40597 0
M  V30 1391 C 138.712 1.46754 -1.38369 0
M  V30 1392 C 139.025 1.95598 0.0097839 0
M  V30 1393 O 140.231 2.71059 0.154677 0
M  V30 1394 C 138.687 2.65289 -2.43207 0
M  V30 1395 C 138.295 2.23301 -3.88382 0
M  V30 1396 C 140.039 3.43008 -2.50091 0
M  V30 1397 C 137.946 3.38696 -4.84808 0
M  V30 1398 H 136.876 0.55118 -0.514506 0
M  V30 1399 H 139.527 0.774616 -1.66349 0
M  V30 1400 H 137.909 3.36769 -2.08332 0
M  V30 1401 H 139.083 1.59218 -4.32419 0
M  V30 1402 H 137.398 1.58618 -3.85006 0
M  V30 1403 H 139.995 4.28881 -3.1932 0
M  V30 1404 H 140.338 3.87065 -1.53253 0
M  V30 1405 H 140.871 2.78574 -2.83974 0
M  V30 1406 H 137.61 2.99668 -5.82992 0
M  V30 1407 H 137.13 4.01683 -4.45433 0
M  V30 1408 H 138.809 4.04712 -5.04794 0
M  V30 1409 N 138.941 1.26152 0.944643 0
M  V30 1410 C 139.891 1.04081 2.02857 0
M  V30 1411 C 140.875 -0.0256555 1.6088 0
M  V30 1412 O 142.067 0.190884 1.75968 0
M  V30 1413 C 139.196 0.672118 3.36656 0
M  V30 1414 C 138.282 1.77586 3.85128 0
M  V30 1415 N 138.673 3.01272 4.06287 0
M  V30 1416 C 136.971 1.65867 4.1401 0
M  V30 1417 C 137.672 3.72983 4.46384 0
M  V30 1418 N 136.648 3.00653 4.52889 0
M  V30 1419 H 140.45 1.97968 2.17223 0
M  V30 1420 H 137.964 1.16618 1.13022 0
M  V30 1421 H 139.961 0.495166 4.13949 0
M  V30 1422 H 138.621 -0.259307 3.23663 0
M  V30 1423 H 139.632 3.37213 3.93075 0
M  V30 1424 H 136.309 0.796907 4.09824 0
M  V30 1425 H 137.699 4.792 4.70975 0
M  V30 1426 N 140.419 -1.14872 1.07899 0
M  V30 1427 C 141.349 -2.2193 0.725887 0
M  V30 1428 C 142.33 -1.67622 -0.28927 0
M  V30 1429 O 143.515 -1.93533 -0.160787 0
M  V30 1430 C 140.645 -3.47061 0.128856 0
M  V30 1431 C 139.599 -4.14363 1.07178 0
M  V30 1432 C 138.925 -5.33636 0.337229 0
M  V30 1433 C 140.225 -4.63492 2.40775 0
M  V30 1434 H 141.919 -2.51724 1.62097 0
M  V30 1435 H 139.465 -1.20991 0.780838 0
M  V30 1436 H 141.418 -4.21199 -0.130147 0
M  V30 1437 H 140.142 -3.16617 -0.80134 0
M  V30 1438 H 138.801 -3.42173 1.3158 0
M  V30 1439 H 138.449 -4.99449 -0.596606 0
M  V30 1440 H 138.149 -5.79609 0.965788 0
M  V30 1441 H 139.673 -6.10539 0.0861567 0
M  V30 1442 H 141.087 -5.2913 2.20669 0
M  V30 1443 H 139.484 -5.20148 2.99276 0
M  V30 1444 H 140.554 -3.78834 3.02676 0
M  V30 1445 N 141.898 -0.863906 -1.31812 0
M  V30 1446 C 143.145 -0.471836 -1.96926 0
M  V30 1447 C 143.473 0.974578 -1.68322 0
M  V30 1448 O 142.728 1.7003 -0.968933 0
M  V30 1449 C 143.027 -0.668547 -3.51091 0
M  V30 1450 C 142.693 -2.08683 -3.99703 0
M  V30 1451 C 141.355 -2.47471 -4.12688 0
M  V30 1452 C 143.707 -3.01207 -4.25351 0
M  V30 1453 C 141.035 -3.78037 -4.4867 0
M  V30 1454 C 143.387 -4.31282 -4.62794 0
M  V30 1455 C 142.051 -4.69992 -4.73987 0
M  V30 1456 H 141.321 -0.172657 -0.720604 0
M  V30 1457 H 143.968 -1.09573 -1.57054 0
M  V30 1458 H 142.273 0.0385252 -3.91781 0
M  V30 1459 H 143.97 -0.345102 -3.99512 0
M  V30 1460 H 140.56 -1.77566 -3.90087 0
M  V30 1461 H 144.744 -2.72469 -4.14819 0
M  V30 1462 H 140 -4.078 -4.55532 0
M  V30 1463 H 144.174 -5.03031 -4.81594 0
M  V30 1464 H 141.801 -5.71207 -5.01624 0
M  V30 1465 N 143.376 1.44774 -0.622745 0
M  V30 1466 C 144.622 2.0242 -0.124083 0
M  V30 1467 C 144.955 1.4881 1.24777 0
M  V30 1468 O 144.23 0.668799 1.8264 0
M  V30 1469 C 144.513 3.59957 -0.101619 0
M  V30 1470 C 144.366 4.23867 -1.50521 0
M  V30 1471 C 145.685 4.36284 0.578272 0
M  V30 1472 H 142.804 0.735528 -0.0465645 0
M  V30 1473 H 145.446 1.72447 -0.797617 0
M  V30 1474 H 143.596 3.85623 0.471934 0
M  V30 1475 H 145.268 4.09336 -2.12701 0
M  V30 1476 H 143.511 3.81684 -2.06154 0
M  V30 1477 H 144.182 5.32843 -1.4416 0
M  V30 1478 H 146.658 4.16001 0.0906057 0
M  V30 1479 H 145.534 5.46004 0.563149 0
M  V30 1480 H 145.795 4.10271 1.64713 0
M  V30 1481 N 144.854 0.36279 1.53368 0
M  V30 1482 C 145.802 -0.500155 2.27159 0
M  V30 1483 C 146.796 -1.08575 1.3003 0
M  V30 1484 O 148.002 -1.02927 1.47668 0
M  V30 1485 H 144.377 -0.180009 0.730138 0
M  V30 1486 H 146.348 0.14401 2.98052 0
M  V30 1487 C 145.097 -1.62937 3.07159 0
M  V30 1488 H 144.42 -1.18806 3.8174 0
M  V30 1489 H 145.86 -2.20795 3.61975 0
M  V30 1490 C 144.319 -2.57007 2.17829 0
M  V30 1491 O 144.849 -3.59752 1.78721 0
M  V30 1492 N 143.055 -2.26131 1.82518 0
M  V30 1493 H 142.602 -1.42616 2.14519 0
M  V30 1494 H 142.56 -2.89327 1.23034 0
M  V30 1495 N 146.332 -1.57332 0.0918853 0
M  V30 1496 C 147.58 -1.93853 -0.571446 0
M  V30 1497 C 147.901 -0.974212 -1.6892 0
M  V30 1498 O 147.171 -0.0257254 -1.95883 0
M  V30 1499 H 145.751 -0.715666 -0.214082 0
M  V30 1500 H 148.413 -1.94287 0.154464 0
M  V30 1501 H 147.509 -2.96191 -0.983729 0
M  V30 1502 N 147.81 0.181792 -1.56548 0
M  V30 1503 C 149.038 0.915947 -1.85521 0
M  V30 1504 C 149.453 1.76282 -0.676016 0
M  V30 1505 O 148.81 1.79012 0.355077 0
M  V30 1506 C 148.861 1.80126 -3.13427 0
M  V30 1507 O 148.582 0.988562 -4.26801 0
M  V30 1508 C 150.083 2.64597 -3.55673 0
M  V30 1509 H 147.303 0.26661 -0.61576 0
M  V30 1510 H 149.847 0.185039 -2.03661 0
M  V30 1511 H 148.002 2.48563 -2.97145 0
M  V30 1512 H 148.416 1.59308 -4.99721 0
M  V30 1513 H 149.89 3.2235 -4.48101 0
M  V30 1514 H 150.367 3.38958 -2.79292 0
M  V30 1515 H 150.973 2.0151 -3.74532 0
M  V30 1516 N 149.288 1.51039 0.449983 0
M  V30 1517 C 150.534 1.63322 1.20223 0
M  V30 1518 C 150.867 0.34241 1.91158 0
M  V30 1519 O 150.142 -0.657344 1.83055 0
M  V30 1520 C 150.425 2.82801 2.22925 0
M  V30 1521 C 150.278 4.21823 1.56157 0
M  V30 1522 C 151.597 2.97807 3.24035 0
M  V30 1523 H 148.716 0.594407 0.435718 0
M  V30 1524 H 151.358 1.83489 0.493136 0
M  V30 1525 H 149.508 2.65738 2.834 0
M  V30 1526 H 151.18 4.50526 0.991162 0
M  V30 1527 H 149.423 4.25105 0.864172 0
M  V30 1528 H 150.094 5.01391 2.30891 0
M  V30 1529 H 152.57 3.13497 2.73603 0
M  V30 1530 H 151.446 3.82992 3.93202 0
M  V30 1531 H 151.707 2.09328 3.89402 0
M  V30 1532 N 150.766 -0.704594 1.40972 0
M  V30 1533 C 151.994 -1.49354 1.43182 0
M  V30 1534 C 152.409 -1.88768 0.0345508 0
M  V30 1535 O 151.766 -1.56184 -0.944081 0
M  V30 1536 C 151.817 -2.76187 2.33244 0
M  V30 1537 O 151.538 -2.38436 3.67532 0
M  V30 1538 C 153.039 -3.7 2.44162 0
M  V30 1539 H 150.259 -0.460559 0.487982 0
M  V30 1540 H 152.803 -0.868261 1.85153 0
M  V30 1541 H 150.958 -3.34974 1.94606 0
M  V30 1542 H 151.372 -3.20126 4.15475 0
M  V30 1543 H 152.846 -4.55803 3.11364 0
M  V30 1544 H 153.323 -4.13867 1.47006 0
M  V30 1545 H 153.929 -3.17121 2.83398 0
M  V30 1546 N 152.244 -1.26651 -0.937939 0
M  V30 1547 C 153.176 -1.04283 -2.04102 0
M  V30 1548 C 154.189 -0.00221014 -1.628 0
M  V30 1549 O 155.378 -0.242645 -1.76843 0
M  V30 1550 C 152.478 -0.557846 -3.34277 0
M  V30 1551 C 151.651 -1.66843 -4.04329 0
M  V30 1552 C 150.71 -1.18095 -5.12777 0
M  V30 1553 O 149.736 -1.87865 -5.37304 0
M  V30 1554 N 150.938 -0.0311006 -5.80492 0
M  V30 1555 H 153.703 -1.9927 -2.23856 0
M  V30 1556 H 151.264 -1.1808 -1.10764 0
M  V30 1557 H 153.256 -0.215836 -4.04124 0
M  V30 1558 H 151.826 0.298523 -3.11171 0
M  V30 1559 H 151.046 -2.18123 -3.28353 0
M  V30 1560 H 152.334 -2.41408 -4.47883 0
M  V30 1561 H 151.732 0.551486 -5.63005 0
M  V30 1562 H 150.289 0.251809 -6.51313 0
M  V30 1563 N 153.722 1.14298 -1.08507 0
M  V30 1564 C 154.97 1.84993 -0.813763 0
M  V30 1565 C 155.291 1.83405 0.662393 0
M  V30 1566 O 154.561 1.28319 1.48024 0
M  V30 1567 H 153.141 0.684966 -0.298045 0
M  V30 1568 H 155.803 1.385 -1.37126 0
M  V30 1569 H 154.899 2.89788 -1.15884 0
M  V30 1570 N 155.201 0.870884 1.31352 0
M  V30 1571 C 156.478 0.402907 1.91405 0
M  V30 1572 C 156.858 -1.11512 1.79244 0
M  V30 1573 O 156.206 -1.94411 1.2007 0
M  V30 1574 C 156.416 0.885301 3.37585 0
M  V30 1575 C 157.764 0.911971 4.14691 0
M  V30 1576 O 158.788 0.831016 3.46371 0
M  V30 1577 O 157.647 1.02927 5.3672 0
M  V30 1578 H 154.741 0.120698 0.818145 0
M  V30 1579 H 157.287 0.958857 1.40014 0
M  V30 1580 H 156.059 1.92889 3.40455 0
M  V30 1581 H 155.682 0.307714 3.96407 0
M  V30 1582 N 156.679 -1.44442 0.630414 0
M  V30 1583 C 157.611 -2.2892 -0.113347 0
M  V30 1584 C 158.624 -1.41243 -0.80959 0
M  V30 1585 O 159.813 -1.65402 -0.671156 0
M  V30 1586 C 156.913 -3.17594 -1.18266 0
M  V30 1587 C 156.086 -4.33682 -0.569073 0
M  V30 1588 C 155.145 -5.03397 -1.53226 0
M  V30 1589 O 154.171 -5.59438 -1.04967 0
M  V30 1590 N 155.373 -5.04783 -2.86661 0
M  V30 1591 H 158.138 -2.93392 0.611636 0
M  V30 1592 H 155.699 -1.54881 0.471523 0
M  V30 1593 H 157.691 -3.61097 -1.82732 0
M  V30 1594 H 156.261 -2.54876 -1.80988 0
M  V30 1595 H 155.481 -3.9338 0.254187 0
M  V30 1596 H 156.769 -5.08608 -0.139767 0
M  V30 1597 H 156.167 -4.60584 -3.28449 0
M  V30 1598 H 154.724 -5.52077 -3.46489 0
M  V30 1599 N 158.157 -0.370918 -1.53173 0
M  V30 1600 C 159.573 -0.0200818 -1.59587 0
M  V30 1601 C 159.773 1.46279 -1.38581 0
M  V30 1602 O 158.829 2.22506 -1.19363 0
M  V30 1603 C 160.142 -0.4808 -2.96831 0
M  V30 1604 C 161.69 -0.435477 -3.09956 0
M  V30 1605 C 162.165 -0.872092 -4.4962 0
M  V30 1606 N 163.656 -0.827364 -4.55751 0
M  V30 1607 C 164.391 -1.13683 -5.62018 0
M  V30 1608 N 163.887 -1.51584 -6.76014 0
M  V30 1609 N 165.68 -1.05927 -5.52029 0
M  V30 1610 H 157.831 -1.33652 -1.65079 0
M  V30 1611 H 160.094 -0.546634 -0.774529 0
M  V30 1612 H 159.8 -1.51577 -3.1736 0
M  V30 1613 H 159.674 0.129796 -3.76977 0
M  V30 1614 H 162.061 0.590371 -2.89134 0
M  V30 1615 H 162.142 -1.08164 -2.31806 0
M  V30 1616 H 161.786 -1.89608 -4.71181 0
M  V30 1617 H 161.716 -0.203127 -5.26208 0
M  V30 1618 H 164.207 -0.548216 -3.73902 0
M  V30 1619 H 164.52 -1.73609 -7.53047 0
M  V30 1620 H 162.865 -1.55454 -6.77391 0
M  V30 1621 H 166.056 -0.762321 -4.61851 0
M  V30 1622 H 166.229 -1.30378 -6.34749 0
M  V30 1623 N 159.635 1.57281 -0.100228 0
M  V30 1624 C 160.881 1.94826 0.563101 0
M  V30 1625 C 161.214 0.982475 1.67514 0
M  V30 1626 O 160.489 0.0164069 1.94493 0
M  V30 1627 C 160.772 3.42453 1.11346 0
M  V30 1628 C 160.625 4.498 0.00612081 0
M  V30 1629 C 161.944 3.91506 2.01024 0
M  V30 1630 H 159.063 0.708428 0.203221 0
M  V30 1631 H 161.705 1.8922 -0.171979 0
M  V30 1632 H 159.855 3.47361 1.7399 0
M  V30 1633 H 161.527 4.57 -0.628357 0
M  V30 1634 H 159.77 4.28756 -0.659581 0
M  V30 1635 H 160.441 5.50306 0.432109 0
M  V30 1636 H 162.917 3.88784 1.48278 0
M  V30 1637 H 161.793 4.95358 2.36457 0
M  V30 1638 H 162.054 3.31099 2.92961 0
M  V30 1639 N 161.113 -0.173488 1.56642 0
M  V30 1640 C 162.338 -0.910149 1.86363 0
M  V30 1641 C 162.763 -1.75132 0.686318 0
M  V30 1642 O 162.121 -1.77595 -0.364643 0
M  V30 1643 C 162.169 -1.76447 3.14482 0
M  V30 1644 O 161.273 -2.86584 2.96553 0
M  V30 1645 H 160.614 -0.255086 0.613047 0
M  V30 1646 H 163.144 -0.172283 2.03873 0
M  V30 1647 H 163.154 -2.16483 3.45831 0
M  V30 1648 H 161.829 -1.14658 3.99783 0
M  V30 1649 H 160.406 -2.50146 2.76553 0
M  V30 1650 N 162.591 -1.51276 -0.441967 0
M  V30 1651 C 163.524 -1.66933 -1.55591 0
M  V30 1652 C 164.502 -0.516958 -1.54163 0
M  V30 1653 O 165.686 -0.740209 -1.73358 0
M  V30 1654 C 162.813 -1.67866 -2.94174 0
M  V30 1655 C 161.859 -2.89013 -3.13646 0
M  V30 1656 S 162.692 -4.49897 -2.90436 0
M  V30 1657 C 163.848 -4.53568 -4.31308 0
M  V30 1658 H 164.081 -2.61155 -1.42076 0
M  V30 1659 H 161.614 -1.40902 -0.631341 0
M  V30 1660 H 163.572 -1.69089 -3.74058 0
M  V30 1661 H 162.233 -0.748296 -3.05056 0
M  V30 1662 H 161.426 -2.86054 -4.14957 0
M  V30 1663 H 161.028 -2.85509 -2.4158 0
M  V30 1664 H 163.32 -4.28924 -5.24434 0
M  V30 1665 H 164.263 -5.55355 -4.39303 0
M  V30 1666 H 164.671 -3.82943 -4.14747 0
M  V30 1667 N 164.069 0.697108 -1.41344 0
M  V30 1668 C 165.48 1.27697 -1.36199 0
M  V30 1669 C 165.831 1.9615 -0.0443463 0
M  V30 1670 O 164.956 1.98689 0.857419 0
M  V30 1671 C 165.551 2.32223 -2.46694 0
M  V30 1672 C 164.11 2.8579 -2.44952 0
M  V30 1673 C 163.257 1.59807 -2.26621 0
M  V30 1674 H 166.208 0.491968 -1.50882 0
M  V30 1675 H 166.229 3.1348 -2.15664 0
M  V30 1676 H 165.741 1.82373 -3.42581 0
M  V30 1677 H 163.842 3.3982 -1.52817 0
M  V30 1678 H 163.955 3.36325 -3.41207 0
M  V30 1679 H 162.319 1.8556 -1.7447 0
M  V30 1680 H 163.102 1.11956 -3.24532 0
M  V30 1681 N 165.547 1.27147 0.931209 0
M  V30 1682 C 166.777 1.15914 1.71019 0
M  V30 1683 C 167.185 -0.287112 1.87009 0
M  V30 1684 O 166.528 -1.20761 1.38429 0
M  V30 1685 C 166.59 1.76647 3.13107 0
M  V30 1686 C 166.254 3.25807 3.20467 0
M  V30 1687 C 167.251 4.22489 3.02983 0
M  V30 1688 C 164.936 3.66452 3.43538 0
M  V30 1689 C 166.93 5.57794 3.08454 0
M  V30 1690 C 164.617 5.01888 3.48643 0
M  V30 1691 C 165.615 5.97369 3.31119 0
M  V30 1692 O 165.303 7.30337 3.35952 0
M  V30 1693 H 165.035 0.404062 0.54195 0
M  V30 1694 H 167.589 1.68457 1.17521 0
M  V30 1695 H 165.819 1.18578 3.68071 0
M  V30 1696 H 167.508 1.60179 3.72958 0
M  V30 1697 H 168.274 3.92425 2.85004 0
M  V30 1698 H 164.153 2.92611 3.5623 0
M  V30 1699 H 167.697 6.32298 2.94694 0
M  V30 1700 H 163.594 5.31609 3.66145 0
M  V30 1701 H 164.362 7.38739 3.5243 0
M  V30 1702 N 167.025 -1.13721 1.09112 0
M  V30 1703 C 167.988 -2.17222 0.731241 0
M  V30 1704 C 168.988 -1.59035 -0.237566 0
M  V30 1705 O 170.178 -1.74192 -0.0161704 0
M  V30 1706 C 167.31 -3.40804 0.0808443 0
M  V30 1707 H 168.503 -2.50573 1.64783 0
M  V30 1708 H 166.056 -1.28493 0.889897 0
M  V30 1709 H 166.791 -3.1304 -0.847127 0
M  V30 1710 H 166.576 -3.84306 0.777896 0
M  V30 1711 H 168.066 -4.1731 -0.155657 0
M  V30 1712 N 168.503 -0.877838 -1.30888 0
M  V30 1713 C 169.728 -0.506629 -2.01117 0
M  V30 1714 C 170.153 0.895564 -1.65412 0
M  V30 1715 O 169.511 1.5923 -0.866922 0
M  V30 1716 C 169.559 -0.680223 -3.54126 0
M  V30 1717 O 168.663 0.277033 -4.11468 0
M  V30 1718 H 168.004 -0.200518 -0.633 0
M  V30 1719 H 170.534 -1.18342 -1.66902 0
M  V30 1720 H 170.544 -0.5765 -4.03907 0
M  V30 1721 H 169.219 -1.70261 -3.79452 0
M  V30 1722 H 167.796 0.127606 -3.72682 0
M  V30 1723 N 169.982 1.44106 -0.638065 0
M  V30 1724 C 170.929 2.30715 0.062701 0
M  V30 1725 C 171.899 1.43882 0.829883 0
M  V30 1726 O 173.084 1.72775 0.809532 0
M  V30 1727 C 170.224 3.29258 1.03358 0
M  V30 1728 C 169.337 4.31192 0.26409 0
M  V30 1729 C 168.472 5.16825 1.22741 0
M  V30 1730 C 167.511 6.10462 0.447475 0
M  V30 1731 N 166.648 6.8877 1.36161 0
M  V30 1732 H 171.488 2.90096 -0.681781 0
M  V30 1733 H 169.025 1.42925 -0.347988 0
M  V30 1734 H 170.983 3.84886 1.60992 0
M  V30 1735 H 169.613 2.71562 1.74511 0
M  V30 1736 H 168.665 3.77981 -0.428295 0
M  V30 1737 H 169.977 4.97619 -0.343052 0
M  V30 1738 H 169.131 5.77004 1.87487 0
M  V30 1739 H 167.87 4.50488 1.86847 0
M  V30 1740 H 166.875 5.49386 -0.213433 0
M  V30 1741 H 168.1 6.78837 -0.188968 0
M  V30 1742 H 166.046 6.25096 1.98975 0
M  V30 1743 H 165.963 7.51663 0.808656 0
M  V30 1744 H 167.231 7.53467 1.99769 0
M  V30 1745 N 171.46 0.379036 1.52974 0
M  V30 1746 C 172.708 -0.206014 2.01047 0
M  V30 1747 C 173.029 -1.48175 1.26765 0
M  V30 1748 O 172.299 -1.92085 0.384743 0
M  V30 1749 H 170.879 -0.0791184 0.742798 0
M  V30 1750 H 173.541 0.508366 1.88153 0
M  V30 1751 H 172.637 -0.423501 3.09213 0
M  V30 1752 N 172.938 -1.57226 0.108567 0
M  V30 1753 C 173.868 -2.17778 -0.84232 0
M  V30 1754 C 174.849 -1.11487 -1.2847 0
M  V30 1755 O 176.034 -1.39681 -1.34918 0
M  V30 1756 C 173.164 -2.76888 -2.09644 0
M  V30 1757 C 172.118 -3.88669 -1.79221 0
M  V30 1758 C 171.444 -4.34541 -3.11574 0
M  V30 1759 C 172.744 -5.11251 -1.06864 0
M  V30 1760 H 174.438 -2.97489 -0.337774 0
M  V30 1761 H 171.984 -1.43097 -0.161025 0
M  V30 1762 H 173.937 -3.17904 -2.76614 0
M  V30 1763 H 172.661 -1.94451 -2.62405 0
M  V30 1764 H 171.32 -3.48213 -1.14644 0
M  V30 1765 H 170.968 -3.48977 -3.62249 0
M  V30 1766 H 170.668 -5.09914 -2.91996 0
M  V30 1767 H 172.192 -4.782 -3.7968 0
M  V30 1768 H 173.606 -5.49352 -1.63968 0
M  V30 1769 H 172.003 -5.9214 -0.974178 0
M  V30 1770 H 173.073 -4.8487 -0.0536168 0
M  V30 1771 N 174.416 0.165178 -1.56732 0
M  V30 1772 C 175.646 0.894919 -1.86212 0
M  V30 1773 C 176.054 1.76066 -0.692627 0
M  V30 1774 O 175.397 1.80387 0.347303 0
M  V30 1775 C 175.459 1.8174 -3.10179 0
M  V30 1776 C 175.123 1.13064 -4.42793 0
M  V30 1777 C 176.12 0.493169 -5.17556 0
M  V30 1778 C 173.805 1.12556 -4.89527 0
M  V30 1779 C 175.799 -0.140209 -6.37246 0
M  V30 1780 C 173.486 0.488366 -6.09145 0
M  V30 1781 C 174.484 -0.143411 -6.82849 0
M  V30 1782 O 174.172 -0.77055 -8.00199 0
M  V30 1783 H 173.904 0.265114 -0.621844 0
M  V30 1784 H 176.458 0.168242 -2.0471 0
M  V30 1785 H 174.688 2.58455 -2.87642 0
M  V30 1786 H 176.377 2.4175 -3.26055 0
M  V30 1787 H 177.143 0.489023 -4.82528 0
M  V30 1788 H 173.022 1.60672 -4.32094 0
M  V30 1789 H 176.566 -0.633932 -6.94714 0
M  V30 1790 H 172.463 0.490116 -6.43637 0
M  V30 1791 H 173.231 -0.670408 -8.1575 0
M  V30 1792 N 175.894 1.51508 0.433938 0
M  V30 1793 C 176.824 1.76016 1.53429 0
M  V30 1794 C 177.805 0.610112 1.58782 0
M  V30 1795 O 178.99 0.853177 1.74455 0
M  V30 1796 C 176.12 1.88831 2.9148 0
M  V30 1797 C 175.074 3.04288 3.00987 0
M  V30 1798 C 174.4 3.0229 4.4105 0
M  V30 1799 C 175.7 4.44193 2.74754 0
M  V30 1800 H 177.394 2.68152 1.33171 0
M  V30 1801 H 174.94 1.29035 0.639214 0
M  V30 1802 H 176.893 2.04559 3.6842 0
M  V30 1803 H 175.617 0.933455 3.12976 0
M  V30 1804 H 174.276 2.8827 2.26486 0
M  V30 1805 H 173.924 2.04576 4.59519 0
M  V30 1806 H 173.624 3.79822 4.4834 0
M  V30 1807 H 175.148 3.20116 5.1996 0
M  V30 1808 H 176.562 4.60544 3.41426 0
M  V30 1809 H 174.959 5.23457 2.9345 0
M  V30 1810 H 176.029 4.53996 1.70339 0
M  V30 1811 N 177.372 -0.689602 1.41712 0
M  V30 1812 C 178.282 -1.83314 1.46401 0
M  V30 1813 C 179.298 -1.7036 0.35405 0
M  V30 1814 O 180.474 -1.92171 0.602692 0
M  V30 1815 C 177.539 -3.19344 1.34982 0
M  V30 1816 C 176.6 -3.44363 2.56344 0
M  V30 1817 C 175.833 -4.73904 2.45461 0
M  V30 1818 O 176.056 -5.508 1.48241 0
M  V30 1819 O 174.99 -4.99839 3.35328 0
M  V30 1820 H 178.816 -1.82314 2.42889 0
M  V30 1821 H 176.401 -0.843438 1.23315 0
M  V30 1822 H 178.283 -4.00547 1.3092 0
M  V30 1823 H 176.958 -3.21014 0.41612 0
M  V30 1824 H 175.865 -2.63067 2.65982 0
M  V30 1825 H 177.198 -3.47512 3.48563 0
M  V30 1826 N 178.85 -1.27639 -0.924453 0
M  V30 1827 C 180.078 -1.16989 -1.70649 0
M  V30 1828 C 180.493 0.272869 -1.86818 0
M  V30 1829 O 179.85 1.18549 -1.38753 0
M  V30 1830 C 179.901 -1.85229 -3.10439 0
M  V30 1831 O 179.622 -3.23868 -2.95028 0
M  V30 1832 C 181.123 -1.80746 -4.04779 0
M  V30 1833 H 178.343 -0.406595 -0.53378 0
M  V30 1834 H 180.887 -1.68569 -1.15778 0
M  V30 1835 H 179.042 -1.37545 -3.6216 0
M  V30 1836 H 179.456 -3.57889 -3.83426 0
M  V30 1837 H 180.93 -2.33101 -5.00368 0
M  V30 1838 H 181.407 -0.777499 -4.32263 0
M  V30 1839 H 182.013 -2.28059 -3.58984 0
M  V30 1840 N 180.328 1.1314 -1.09713 0
M  V30 1841 C 181.238 2.22242 -0.751367 0
M  V30 1842 C 182.254 1.72224 0.247938 0
M  V30 1843 O 183.43 2.01205 0.0885463 0
M  V30 1844 C 180.495 3.46231 -0.180274 0
M  V30 1845 C 179.556 4.11125 -1.2359 0
M  V30 1846 C 178.789 5.29195 -0.691966 0
M  V30 1847 O 179.012 5.68342 0.48414 0
M  V30 1848 O 177.946 5.84214 -1.44838 0
M  V30 1849 H 181.772 2.54197 -1.66186 0
M  V30 1850 H 179.357 1.21331 -0.871735 0
M  V30 1851 H 181.239 4.21185 0.134739 0
M  V30 1852 H 179.914 3.1597 0.703185 0
M  V30 1853 H 178.821 3.37985 -1.60366 0
M  V30 1854 H 180.154 4.45524 -2.09211 0
M  V30 1855 N 181.806 0.884767 1.30421 0
M  V30 1856 C 182.769 0.356277 2.26414 0
M  V30 1857 C 183.769 -0.501124 1.52792 0
M  V30 1858 O 184.959 -0.30831 1.7145 0
M  V30 1859 C 182.091 -0.492316 3.37326 0
M  V30 1860 H 183.284 1.20389 2.74675 0
M  V30 1861 H 180.837 0.661607 1.41607 0
M  V30 1862 H 181.572 -1.36052 2.94381 0
M  V30 1863 H 181.357 0.121832 3.91911 0
M  V30 1864 H 182.847 -0.853871 4.08777 0
M  V30 1865 N 183.284 -1.43765 0.645699 0
M  V30 1866 C 184.532 -2.01499 0.155731 0
M  V30 1867 C 184.853 -1.51151 -1.232 0
M  V30 1868 O 184.123 -0.721044 -1.82148 0
M  V30 1869 H 182.703 -0.745003 0.0545817 0
M  V30 1870 H 185.365 -1.76075 0.835677 0
M  V30 1871 H 184.461 -3.1181 0.134577 0
M  V30 1872 N 184.763 -0.387143 -1.52771 0
M  V30 1873 C 185.993 0.195585 -2.05672 0
M  V30 1874 C 186.401 1.41241 -1.25887 0
M  V30 1875 O 185.744 1.81265 -0.298081 0
M  V30 1876 C 185.806 0.632327 -3.53895 0
M  V30 1877 C 185.47 -0.470739 -4.54569 0
M  V30 1878 C 186.467 -1.32746 -5.02667 0
M  V30 1879 C 184.152 -0.637151 -4.98243 0
M  V30 1880 C 186.146 -2.33574 -5.93061 0
M  V30 1881 C 183.833 -1.64877 -5.88438 0
M  V30 1882 C 184.831 -2.49649 -6.35739 0
M  V30 1883 O 184.519 -3.49082 -7.24153 0
M  V30 1884 H 184.251 0.033658 -0.675162 0
M  V30 1885 H 186.805 -0.550221 -1.97893 0
M  V30 1886 H 185.035 1.43008 -3.59285 0
M  V30 1887 H 186.724 1.14048 -3.89548 0
M  V30 1888 H 187.49 -1.21019 -4.69659 0
M  V30 1889 H 183.369 0.0129567 -4.60998 0
M  V30 1890 H 186.913 -2.99777 -6.29904 0
M  V30 1891 H 182.81 -1.76643 -6.2086 0
M  V30 1892 H 183.578 -3.45065 -7.42208 0
M  V30 1893 N 186.241 1.57166 -0.116904 0
M  V30 1894 C 187.471 1.99184 0.548586 0
M  V30 1895 C 187.879 0.995436 1.60897 0
M  V30 1896 O 187.222 -0.0201293 1.83689 0
M  V30 1897 C 187.284 3.37611 1.23526 0
M  V30 1898 C 186.948 4.55857 0.323077 0
M  V30 1899 C 187.945 5.18056 -0.437476 0
M  V30 1900 C 185.63 5.01751 0.234761 0
M  V30 1901 C 187.624 6.24536 -1.2741 0
M  V30 1902 C 185.311 6.08093 -0.605496 0
M  V30 1903 C 186.309 6.69352 -1.35856 0
M  V30 1904 O 185.997 7.7364 -2.18487 0
M  V30 1905 H 185.729 0.659148 0.149999 0
M  V30 1906 H 188.283 2.0443 -0.199428 0
M  V30 1907 H 186.513 3.29113 2.0303 0
M  V30 1908 H 188.202 3.63932 1.79745 0
M  V30 1909 H 188.968 4.83516 -0.379105 0
M  V30 1910 H 184.847 4.53817 0.810601 0
M  V30 1911 H 188.391 6.72281 -1.86237 0
M  V30 1912 H 184.288 6.42063 -0.665268 0
M  V30 1913 H 185.056 7.90727 -2.11406 0
M  V30 1914 N 187.719 -0.156864 1.56817 0
M  V30 1915 C 188.666 -1.19394 1.97519 0
M  V30 1916 C 189.636 -1.4322 0.841265 0
M  V30 1917 O 190.821 -1.55719 1.10255 0
M  V30 1918 C 187.961 -2.52483 2.35258 0
M  V30 1919 C 187.074 -2.35914 3.61896 0
M  V30 1920 C 186.209 -3.61969 3.88782 0
M  V30 1921 C 185.248 -3.40395 5.08722 0
M  V30 1922 N 184.385 -4.58556 5.31668 0
M  V30 1923 H 189.225 -0.839845 2.85921 0
M  V30 1924 H 186.762 -0.403264 1.41464 0
M  V30 1925 H 188.72 -3.30071 2.55165 0
M  V30 1926 H 187.35 -2.85859 1.49949 0
M  V30 1927 H 186.402 -1.49429 3.49821 0
M  V30 1928 H 187.714 -2.15926 4.49641 0
M  V30 1929 H 186.868 -4.47989 4.09135 0
M  V30 1930 H 185.607 -3.84951 2.9944 0
M  V30 1931 H 184.612 -2.52763 4.88253 0
M  V30 1932 H 185.837 -3.18822 5.99608 0
M  V30 1933 H 183.783 -4.81729 4.45279 0
M  V30 1934 H 183.7 -4.41535 6.13664 0
M  V30 1935 H 184.968 -5.45817 5.5651 0
M  V30 1936 N 189.197 -1.51736 -0.425897 0
M  V30 1937 C 190.127 -1.76827 -1.52494 0
M  V30 1938 C 191.108 -0.618524 -1.58456 0
M  V30 1939 O 192.293 -0.862416 -1.74 0
M  V30 1940 C 189.423 -1.90374 -2.90474 0
M  V30 1941 C 188.377 -3.0588 -2.99369 0
M  V30 1942 C 187.703 -3.04625 -4.3944 0
M  V30 1943 C 189.003 -4.45644 -2.72394 0
M  V30 1944 H 190.697 -2.68855 -1.31748 0
M  V30 1945 H 188.243 -1.29372 -0.632362 0
M  V30 1946 H 190.196 -2.0651 -3.6733 0
M  V30 1947 H 188.92 -0.95004 -3.12477 0
M  V30 1948 H 187.579 -2.89467 -2.24954 0
M  V30 1949 H 187.227 -2.0701 -4.58428 0
M  V30 1950 H 186.927 -3.82195 -4.46319 0
M  V30 1951 H 188.451 -3.22869 -5.18255 0
M  V30 1952 H 189.865 -4.62348 -3.38979 0
M  V30 1953 H 188.262 -5.25006 -2.9067 0
M  V30 1954 H 189.332 -4.54893 -1.67929 0
M  V30 1955 N 190.675 0.682077 -1.42076 0
M  V30 1956 C 191.9 1.47558 -1.45744 0
M  V30 1957 C 192.325 1.87977 -0.0680981 0
M  V30 1958 O 191.683 1.55522 0.9318 0
M  V30 1959 C 191.731 2.70575 -2.38373 0
M  V30 1960 O 190.835 3.68573 -1.85007 0
M  V30 1961 H 190.176 0.443585 -0.494093 0
M  V30 1962 H 192.706 0.837238 -1.86686 0
M  V30 1963 H 192.716 3.18729 -2.54707 0
M  V30 1964 H 191.391 2.40495 -3.39315 0
M  V30 1965 H 189.968 3.2757 -1.78192 0
M  V30 1966 N 192.153 1.28127 0.917671 0
M  V30 1967 C 193.401 1.14825 1.66312 0
M  V30 1968 C 193.722 -0.304379 1.9261 0
M  V30 1969 O 192.992 -1.21149 1.53947 0
M  V30 1970 H 191.572 0.421953 0.616413 0
M  V30 1971 H 194.234 1.608 1.10134 0
M  V30 1972 H 193.33 1.68489 2.62712 0
M  V30 1973 N 193.631 -1.12557 1.10312 0
M  V30 1974 C 194.541 -2.21841 0.763142 0
M  V30 1975 C 195.557 -1.72354 -0.238801 0
M  V30 1976 O 196.733 -2.01249 -0.0778746 0
M  V30 1977 C 193.798 -3.46131 0.198632 0
M  V30 1978 C 192.859 -4.10464 1.25769 0
M  V30 1979 C 192.092 -5.28821 0.72002 0
M  V30 1980 O 192.315 -5.6859 -0.453993 0
M  V30 1981 O 191.249 -5.83437 1.47935 0
M  V30 1982 H 195.075 -2.53312 1.67532 0
M  V30 1983 H 192.66 -1.20867 0.878157 0
M  V30 1984 H 194.542 -4.2125 -0.112401 0
M  V30 1985 H 193.217 -3.16338 -0.686419 0
M  V30 1986 H 192.124 -3.3713 1.62156 0
M  V30 1987 H 193.457 -4.44408 2.11571 0
M  V30 1988 N 195.109 -0.891671 -1.2995 0
M  V30 1989 C 196.072 -0.36828 -2.26222 0
M  V30 1990 C 197.072 0.493014 -1.53056 0
M  V30 1991 O 198.262 0.299213 -1.71611 0
M  V30 1992 C 195.394 0.47442 -3.37583 0
M  V30 1993 H 196.587 -1.21844 -2.74033 0
M  V30 1994 H 194.14 -0.669107 -1.41254 0
M  V30 1995 H 194.875 1.34489 -2.95099 0
M  V30 1996 H 194.66 -0.142615 -3.91841 0
M  V30 1997 H 196.15 0.83218 -4.09224 0
M  V30 1998 N 196.587 1.43421 -0.653314 0
M  V30 1999 C 197.817 2.05864 -0.174238 0
M  V30 2000 C 198.225 1.49052 1.16534 0
M  V30 2001 O 197.568 0.616481 1.73047 0
M  V30 2002 C 197.63 3.59499 -0.00875873 0
M  V30 2003 C 197.294 4.38893 -1.27364 0
M  V30 2004 C 198.291 4.70947 -2.20239 0
M  V30 2005 C 195.976 4.789 -1.51525 0
M  V30 2006 C 197.97 5.41916 -3.35568 0
M  V30 2007 C 195.657 5.49614 -2.67147 0
M  V30 2008 C 196.655 5.81044 -3.58994 0
M  V30 2009 O 196.343 6.50313 -4.72597 0
M  V30 2010 H 196.075 0.670345 -0.0872549 0
M  V30 2011 H 198.629 1.84913 -0.894226 0
M  V30 2012 H 196.859 3.79025 0.7666 0
M  V30 2013 H 198.548 4.0364 0.427687 0
M  V30 2014 H 199.314 4.40558 -2.02815 0
M  V30 2015 H 195.193 4.53843 -0.809158 0
M  V30 2016 H 198.737 5.66365 -4.07279 0
M  V30 2017 H 194.634 5.79419 -2.84505 0
M  V30 2018 H 195.402 6.68795 -4.71864 0
M  V30 2019 N 198.065 0.39524 1.52563 0
M  V30 2020 C 199.313 -0.184678 2.01254 0
M  V30 2021 C 199.634 -1.46822 1.28329 0
M  V30 2022 O 198.904 -1.91666 0.405094 0
M  V30 2023 H 197.484 -0.0712355 0.743596 0
M  V30 2024 H 200.146 0.528293 1.87603 0
M  V30 2025 H 199.242 -0.390681 3.09645 0
M  V30 2026 N 199.544 -1.57102 0.125237 0
M  V30 2027 C 200.791 -1.95407 -0.531248 0
M  V30 2028 C 201.119 -1.0089 -1.66287 0
M  V30 2029 O 200.374 -0.0339431 -1.95671 0
M  V30 2030 C 200.673 -3.40096 -1.09862 0
M  V30 2031 C 200.339 -4.50815 -0.0876989 0
M  V30 2032 C 199.001 -4.80824 0.19026 0
M  V30 2033 C 201.353 -5.17724 0.600902 0
M  V30 2034 C 198.681 -5.75058 1.163 0
M  V30 2035 C 201.033 -6.13005 1.56231 0
M  V30 2036 C 199.697 -6.41403 1.8482 0
M  V30 2037 H 198.967 -0.715046 -0.194397 0
M  V30 2038 H 201.614 -1.90373 0.207463 0
M  V30 2039 H 199.919 -3.41855 -1.91422 0
M  V30 2040 H 201.616 -3.6705 -1.61478 0
M  V30 2041 H 198.206 -4.27444 -0.314528 0
M  V30 2042 H 202.39 -4.94691 0.399333 0
M  V30 2043 H 197.646 -5.95362 1.39117 0
M  V30 2044 H 201.82 -6.63934 2.10153 0
M  V30 2045 H 199.447 -7.14229 2.60349 0
M  V30 2046 N 201.022 0.148545 -1.56898 0
M  V30 2047 C 202.268 0.862694 -1.83536 0
M  V30 2048 C 202.601 1.80889 -0.706604 0
M  V30 2049 O 201.876 1.92328 0.289885 0
M  V30 2050 C 202.159 1.63853 -3.20662 0
M  V30 2051 C 202.012 0.713925 -4.44098 0
M  V30 2052 C 203.331 2.60133 -3.54991 0
M  V30 2053 H 200.45 0.312179 -0.667618 0
M  V30 2054 H 203.092 0.127953 -1.89569 0
M  V30 2055 H 201.242 2.26489 -3.1565 0
M  V30 2056 H 202.914 0.098686 -4.61194 0
M  V30 2057 H 201.157 0.0234019 -4.33794 0
M  V30 2058 H 201.828 1.29278 -5.36648 0
M  V30 2059 H 204.304 2.07616 -3.60603 0
M  V30 2060 H 203.18 3.11468 -4.51972 0
M  V30 2061 H 203.441 3.41417 -2.80868 0
M  V30 2062 N 202.5 1.5196 0.417844 0
M  V30 2063 C 203.463 1.74065 1.49111 0
M  V30 2064 C 204.463 0.610537 1.48758 0
M  V30 2065 O 205.653 0.87832 1.50437 0
M  V30 2066 C 202.785 1.81502 2.88565 0
M  V30 2067 H 203.978 2.69869 1.30807 0
M  V30 2068 H 201.531 1.42244 0.647785 0
M  V30 2069 H 202.266 0.875813 3.1225 0
M  V30 2070 H 202.051 2.63651 2.90225 0
M  V30 2071 H 203.541 2.00376 3.66387 0
M  V30 2072 N 203.978 -0.674533 1.42435 0
M  V30 2073 C 205.394 -0.98769 1.25367 0
M  V30 2074 C 205.594 -2.00879 0.158044 0
M  V30 2075 O 204.65 -2.48075 -0.470633 0
M  V30 2076 C 205.963 -1.49224 2.6106 0
M  V30 2077 C 207.511 -1.61 2.68417 0
M  V30 2078 C 207.986 -2.14852 4.04478 0
M  V30 2079 N 209.477 -2.22185 4.06434 0
M  V30 2080 C 210.212 -2.64928 5.08528 0
M  V30 2081 N 209.708 -3.07121 6.21006 0
M  V30 2082 N 211.501 -2.64679 4.95885 0
M  V30 2083 H 203.652 0.00152503 2.124 0
M  V30 2084 H 205.915 -0.0618434 0.945981 0
M  V30 2085 H 205.621 -0.816453 3.42092 0
M  V30 2086 H 205.495 -2.47094 2.84999 0
M  V30 2087 H 207.882 -2.27686 1.87732 0
M  V30 2088 H 207.963 -0.616195 2.48267 0
M  V30 2089 H 207.607 -1.48775 4.85622 0
M  V30 2090 H 207.537 -3.15024 4.2198 0
M  V30 2091 H 210.028 -1.92435 3.25234 0
M  V30 2092 H 210.341 -3.38423 6.94759 0
M  V30 2093 H 208.686 -3.04978 6.24511 0
M  V30 2094 H 211.877 -2.31078 4.07088 0
M  V30 2095 H 212.05 -2.9767 5.75584 0
M  V30 2096 N 205.456 -1.28612 -0.910864 0
M  V30 2097 C 206.705 -1.15311 -1.65488 0
M  V30 2098 C 207.018 0.296999 -1.93332 0
M  V30 2099 O 208.224 0.551168 -2.65847 0
M  V30 2100 C 206.68 -2.01599 -2.98137 0
M  V30 2101 C 206.288 -3.51367 -2.7793 0
M  V30 2102 C 208.032 -1.96993 -3.76024 0
M  V30 2103 C 205.939 -4.29797 -4.06237 0
M  V30 2104 H 204.869 -0.42796 -0.620779 0
M  V30 2105 H 207.52 -1.53166 -1.01057 0
M  V30 2106 H 205.902 -1.56603 -3.63719 0
M  V30 2107 H 207.076 -4.0434 -2.21011 0
M  V30 2108 H 205.391 -3.57529 -2.13452 0
M  V30 2109 H 207.988 -2.52856 -4.71135 0
M  V30 2110 H 208.331 -0.94733 -4.05378 0
M  V30 2111 H 208.864 -2.39973 -3.17266 0
M  V30 2112 H 205.603 -5.32648 -3.82055 0
M  V30 2113 H 205.123 -3.81596 -4.62757 0
M  V30 2114 H 206.802 -4.39869 -4.74473 0
M  V30 2115 N 206.934 1.1197 -1.10907 0
M  V30 2116 C 208.211 1.79959 -0.766432 0
M  V30 2117 C 208.591 1.97466 0.746363 0
M  V30 2118 O 207.939 1.55491 1.67436 0
M  V30 2119 C 208.149 3.14009 -1.52314 0
M  V30 2120 C 209.497 3.89134 -1.69883 0
M  V30 2121 O 210.521 3.2368 -1.48692 0
M  V30 2122 O 209.38 5.06572 -2.05054 0
M  V30 2123 H 206.474 0.779208 -0.277062 0
M  V30 2124 H 209.02 1.18762 -1.21217 0
M  V30 2125 H 207.792 2.96587 -2.55249 0
M  V30 2126 H 207.415 3.82915 -1.07059 0
M  V30 2127 N 208.412 0.89855 1.29475 0
M  V30 2128 C 209.66 0.522847 1.9522 0
M  V30 2129 C 209.981 -0.93371 1.71192 0
M  V30 2130 O 209.251 -1.65823 1.04305 0
M  V30 2131 H 207.831 0.190366 0.722336 0
M  V30 2132 H 210.493 1.14459 1.5775 0
M  V30 2133 H 209.589 0.704476 3.04045 0
M  V30 2134 N 209.89 -1.43072 0.660911 0
M  V30 2135 C 211.115 -2.06584 0.183805 0
M  V30 2136 C 211.54 -1.49257 -1.14472 0
M  V30 2137 O 210.898 -0.605528 -1.70889 0
M  V30 2138 C 210.946 -3.60418 0.114434 0
M  V30 2139 O 210.05 -4.01981 -0.921137 0
M  V30 2140 H 209.391 -0.656669 0.0983994 0
M  V30 2141 H 211.921 -1.83447 0.906006 0
M  V30 2142 H 211.931 -4.07946 -0.0663394 0
M  V30 2143 H 210.606 -4.01519 1.08422 0
M  V30 2144 H 209.183 -3.66029 -0.71253 0
M  V30 2145 N 211.368 -0.403325 -1.52352 0
M  V30 2146 C 212.616 0.174003 -2.0135 0
M  V30 2147 C 212.937 1.46139 -1.29106 0
M  V30 2148 O 212.207 1.91448 -0.415253 0
M  V30 2149 H 210.787 0.0672911 -0.743963 0
M  V30 2150 H 213.449 -0.538235 -1.87321 0
M  V30 2151 H 212.545 0.374254 -3.09848 0
M  V30 2152 N 212.846 1.57033 -0.133567 0
M  V30 2153 C 213.794 2.17348 0.828412 0
M  V30 2154 C 214.788 1.12671 1.26498 0
M  V30 2155 O 215.994 1.30947 1.23502 0
M  V30 2156 H 212.369 0.695775 0.285309 0
M  V30 2157 H 214.34 2.96935 0.295372 0
M  V30 2158 C 213.089 2.79893 2.06289 0
M  V30 2159 H 212.412 3.60147 1.73592 0
M  V30 2160 H 213.852 3.25615 2.71572 0
M  V30 2161 C 212.311 1.77713 2.86216 0
M  V30 2162 O 212.841 1.23937 3.82103 0
M  V30 2163 N 211.047 1.47321 2.50489 0
M  V30 2164 H 210.594 1.91243 1.7258 0
M  V30 2165 H 210.552 0.79199 3.04261 0
M  V30 2166 N 214.325 -0.140222 1.56975 0
M  V30 2167 C 215.572 -0.851687 1.83719 0
M  V30 2168 C 215.9 -1.80862 0.715485 0
M  V30 2169 O 215.155 -1.93464 -0.294956 0
M  V30 2170 C 215.454 -1.65386 3.16832 0
M  V30 2171 C 215.12 -0.843112 4.42947 0
M  V30 2172 C 213.782 -0.619464 4.77196 0
M  V30 2173 C 216.134 -0.276582 5.20466 0
M  V30 2174 C 213.462 0.181312 5.8642 0
M  V30 2175 C 215.814 0.51127 6.30531 0
M  V30 2176 C 214.478 0.745432 6.63325 0
M  V30 2177 H 213.748 -0.311654 0.672274 0
M  V30 2178 H 216.395 -0.115006 1.91154 0
M  V30 2179 H 214.7 -2.46084 3.04877 0
M  V30 2180 H 216.397 -2.20793 3.34741 0
M  V30 2181 H 212.987 -1.0275 4.16101 0
M  V30 2182 H 217.171 -0.436632 4.94376 0
M  V30 2183 H 212.427 0.372165 6.10266 0
M  V30 2184 H 216.601 0.957354 6.89788 0
M  V30 2185 H 214.228 1.36778 7.47794 0
M  V30 2186 N 215.803 -1.52179 -0.40978 0
M  V30 2187 C 216.735 -1.71703 -1.51825 0
M  V30 2188 C 217.748 -0.597445 -1.51441 0
M  V30 2189 O 218.937 -0.872582 -1.55719 0
M  V30 2190 C 216.037 -1.74171 -2.90719 0
M  V30 2191 C 215.21 -3.03156 -3.15302 0
M  V30 2192 C 214.269 -2.97445 -4.34065 0
M  V30 2193 O 213.295 -3.71352 -4.31377 0
M  V30 2194 N 214.497 -2.15191 -5.39141 0
M  V30 2195 H 217.262 -2.67334 -1.35472 0
M  V30 2196 H 214.823 -1.50409 -0.599069 0
M  V30 2197 H 216.815 -1.67884 -3.68235 0
M  V30 2198 H 215.385 -0.860166 -3.00533 0
M  V30 2199 H 214.605 -3.23097 -2.25836 0
M  V30 2200 H 215.893 -3.88484 -3.28569 0
M  V30 2201 H 215.291 -1.54573 -5.44173 0
M  V30 2202 H 213.848 -2.1476 -6.15403 0
M  V30 2203 N 217.281 0.66697 -1.42791 0
M  V30 2204 C 218.527 1.4291 -1.43891 0
M  V30 2205 C 218.86 1.94114 -0.0578972 0
M  V30 2206 O 218.135 1.71414 0.91911 0
M  V30 2207 C 218.418 2.62049 -2.46987 0
M  V30 2208 C 218.271 2.16426 -3.94309 0
M  V30 2209 C 219.59 3.64266 -2.46978 0
M  V30 2210 H 216.709 0.518306 -0.523954 0
M  V30 2211 H 219.351 0.757321 -1.74255 0
M  V30 2212 H 217.501 3.19361 -2.21225 0
M  V30 2213 H 219.173 1.64221 -4.31079 0
M  V30 2214 H 217.416 1.47925 -4.078 0
M  V30 2215 H 218.087 3.02038 -4.62036 0
M  V30 2216 H 220.563 3.16686 -2.69906 0
M  V30 2217 H 219.439 4.45196 -3.21079 0
M  V30 2218 H 219.7 4.15927 -1.49857 0
M  V30 2219 N 218.759 1.29093 0.90403 0
M  V30 2220 C 219.689 1.16401 2.02418 0
M  V30 2221 C 220.67 0.0593085 1.69997 0
M  V30 2222 O 221.855 0.238021 1.92736 0
M  V30 2223 C 218.985 0.835233 3.37107 0
M  V30 2224 C 217.939 1.89578 3.83724 0
M  V30 2225 C 217.265 1.42041 5.15489 0
M  V30 2226 C 218.565 3.30394 4.04521 0
M  V30 2227 H 220.259 2.10109 2.13295 0
M  V30 2228 H 217.805 1.01157 1.02486 0
M  V30 2229 H 219.758 0.733169 4.14973 0
M  V30 2230 H 218.482 -0.137543 3.2631 0
M  V30 2231 H 217.141 1.98715 3.08071 0
M  V30 2232 H 216.789 0.436426 5.01103 0
M  V30 2233 H 216.489 2.12964 5.4765 0
M  V30 2234 H 218.013 1.33176 5.959 0
M  V30 2235 H 219.427 3.24123 4.72882 0
M  V30 2236 H 217.824 3.99237 4.48029 0
M  V30 2237 H 218.894 3.73692 3.09002 0
M  V30 2238 N 220.237 -1.11381 1.11499 0
M  V30 2239 C 221.167 -2.19509 0.796125 0
M  V30 2240 C 222.148 -1.68458 -0.235796 0
M  V30 2241 O 223.333 -1.93947 -0.0991344 0
M  V30 2242 C 220.463 -3.46475 0.239205 0
M  V30 2243 C 219.417 -4.10744 1.20307 0
M  V30 2244 C 218.743 -5.32293 0.50683 0
M  V30 2245 C 220.043 -4.55597 2.55399 0
M  V30 2246 H 221.737 -2.46439 1.70024 0
M  V30 2247 H 219.283 -1.18446 0.818935 0
M  V30 2248 H 221.236 -4.214 0.00392006 0
M  V30 2249 H 219.96 -3.19006 -0.700206 0
M  V30 2250 H 218.619 -3.37813 1.42399 0
M  V30 2251 H 218.267 -5.01095 -0.437408 0
M  V30 2252 H 217.967 -5.76243 1.1497 0
M  V30 2253 H 219.491 -6.09956 0.280351 0
M  V30 2254 H 220.905 -5.21841 2.37391 0
M  V30 2255 H 219.302 -5.10363 3.15673 0
M  V30 2256 H 220.372 -3.69013 3.14575 0
M  V30 2257 N 221.715 -0.905404 -1.28997 0
M  V30 2258 C 222.94 -0.549175 -1.99997 0
M  V30 2259 C 223.365 0.860276 -1.67275 0
M  V30 2260 O 222.723 1.57355 -0.900502 0
M  V30 2261 C 222.771 -0.755185 -3.52604 0
M  V30 2262 O 221.875 0.189692 -4.11964 0
M  V30 2263 H 221.216 -0.213899 -0.628604 0
M  V30 2264 H 223.746 -1.21856 -1.64354 0
M  V30 2265 H 223.756 -0.662045 -4.02593 0
M  V30 2266 H 222.431 -1.78271 -3.75755 0
M  V30 2267 H 221.008 0.0485257 -3.72868 0
M  V30 2268 N 223.193 1.4272 -0.668489 0
M  V30 2269 C 224.47 1.95248 -0.117373 0
M  V30 2270 C 224.85 1.60919 1.36632 0
M  V30 2271 O 224.198 0.902095 2.09939 0
M  V30 2272 C 224.408 3.46927 -0.379806 0
M  V30 2273 C 225.756 4.23588 -0.292923 0
M  V30 2274 O 226.78 3.5482 -0.313204 0
M  V30 2275 O 225.639 5.46017 -0.229697 0
M  V30 2276 H 222.733 0.827 0.00079152 0
M  V30 2277 H 225.279 1.52581 -0.742783 0
M  V30 2278 H 224.051 3.65096 -1.40786 0
M  V30 2279 H 223.674 3.96627 0.277923 0
M  V30 2280 N 224.671 0.411399 1.52136 0
M  V30 2281 C 226.087 0.0623865 1.59478 0
M  V30 2282 C 226.287 -1.42554 1.4241 0
M  V30 2283 O 225.343 -2.19263 1.2522 0
M  V30 2284 C 226.656 0.559331 2.95452 0
M  V30 2285 C 228.204 0.517503 3.08692 0
M  V30 2286 C 228.679 0.990994 4.4715 0
M  V30 2287 N 230.17 0.947908 4.53397 0
M  V30 2288 C 230.905 1.28544 5.58806 0
M  V30 2289 N 230.401 1.69454 6.71757 0
M  V30 2290 N 232.194 1.20526 5.49026 0
M  V30 2291 H 224.345 1.37982 1.61477 0
M  V30 2292 H 226.608 0.566977 0.759764 0
M  V30 2293 H 226.314 1.59938 3.1323 0
M  V30 2294 H 226.188 -0.0298014 3.77188 0
M  V30 2295 H 228.575 -0.513505 2.90598 0
M  V30 2296 H 228.656 1.14272 2.28857 0
M  V30 2297 H 228.3 2.02034 4.65988 0
M  V30 2298 H 228.23 0.34257 5.25485 0
M  V30 2299 H 230.721 0.647157 3.72317 0
M  V30 2300 H 231.034 1.93513 7.48179 0
M  V30 2301 H 229.379 1.73359 6.73032 0
M  V30 2302 H 232.57 0.884505 4.59667 0
M  V30 2303 H 232.743 1.47161 6.31069 0
M  V30 2304 N 226.149 -1.5696 0.141893 0
M  V30 2305 C 227.379 -2.00031 -0.516828 0
M  V30 2306 C 227.787 -1.02091 -1.59293 0
M  V30 2307 O 227.13 -0.00909657 -1.83698 0
M  V30 2308 C 227.192 -3.39534 -1.1814 0
M  V30 2309 C 226.856 -4.56313 -0.250513 0
M  V30 2310 C 227.853 -5.17295 0.519839 0
M  V30 2311 C 225.538 -5.02061 -0.154907 0
M  V30 2312 C 227.532 -6.2243 1.3733 0
M  V30 2313 C 225.219 -6.07053 0.702161 0
M  V30 2314 C 226.217 -6.67106 1.46487 0
M  V30 2315 O 225.905 -7.70066 2.30767 0
M  V30 2316 H 225.637 -0.661451 -0.139493 0
M  V30 2317 H 228.191 -2.04086 0.231926 0
M  V30 2318 H 226.421 -3.32302 -1.97769 0
M  V30 2319 H 228.11 -3.66745 -1.73933 0
M  V30 2320 H 228.876 -4.82852 0.45598 0
M  V30 2321 H 224.755 -4.5505 -0.7383 0
M  V30 2322 H 228.299 -6.69233 1.96909 0
M  V30 2323 H 224.196 -6.40923 0.76733 0
M  V30 2324 H 224.964 -7.87264 2.23959 0
M  V30 2325 N 227.627 0.131896 -1.57047 0
M  V30 2326 C 228.874 0.841932 -1.84168 0
M  V30 2327 C 229.202 1.8048 -0.725066 0
M  V30 2328 O 228.457 1.93618 0.284692 0
M  V30 2329 C 228.756 1.63703 -3.17704 0
M  V30 2330 C 228.422 0.81961 -4.43388 0
M  V30 2331 C 227.084 0.594148 -4.77518 0
M  V30 2332 C 229.436 0.248977 -5.20605 0
M  V30 2333 C 226.764 -0.212409 -5.86315 0
M  V30 2334 C 229.116 -0.544701 -6.30251 0
M  V30 2335 C 227.78 -0.780599 -6.6292 0
M  V30 2336 H 227.05 0.308085 -0.673917 0
M  V30 2337 H 229.697 0.104867 -1.91213 0
M  V30 2338 H 228.002 2.44464 -3.06177 0
M  V30 2339 H 229.699 2.19015 -3.35907 0
M  V30 2340 H 226.289 1.00542 -4.16641 0
M  V30 2341 H 230.473 0.410408 -4.946 0
M  V30 2342 H 225.729 -0.404524 -6.1006 0
M  V30 2343 H 229.903 -0.993922 -6.89271 0
M  V30 2344 H 227.53 -1.40742 -7.47058 0
M  V30 2345 N 229.106 1.52395 0.401703 0
M  V30 2346 C 230.054 1.7689 1.51039 0
M  V30 2347 C 231.048 0.636298 1.56996 0
M  V30 2348 O 232.254 0.818507 1.60314 0
M  V30 2349 H 228.629 0.559502 0.502456 0
M  V30 2350 H 230.6 2.69757 1.27568 0
M  V30 2351 C 229.349 1.94331 2.88324 0
M  V30 2352 H 228.672 2.80905 2.84486 0
M  V30 2353 H 230.112 2.15466 3.65172 0
M  V30 2354 C 228.571 0.712396 3.29282 0
M  V30 2355 O 229.101 -0.116218 4.01532 0
M  V30 2356 N 227.307 0.546154 2.85422 0
M  V30 2357 H 226.854 1.22156 2.26794 0
M  V30 2358 H 226.812 -0.276113 3.13185 0
M  V30 2359 N 230.584 -0.659388 1.43143 0
M  V30 2360 C 231.531 -1.77249 1.47822 0
M  V30 2361 C 232.501 -1.62818 0.328558 0
M  V30 2362 O 233.686 -1.83151 0.534838 0
M  V30 2363 C 230.826 -3.15371 1.40126 0
M  V30 2364 C 229.939 -3.4098 2.65249 0
M  V30 2365 C 229.074 -4.68915 2.49584 0
M  V30 2366 C 228.113 -4.87608 3.70006 0
M  V30 2367 N 227.25 -6.06796 3.53189 0
M  V30 2368 H 232.09 -1.72584 2.42938 0
M  V30 2369 H 229.627 -0.842297 1.20598 0
M  V30 2370 H 231.585 -3.9521 1.33659 0
M  V30 2371 H 230.215 -3.19121 0.485964 0
M  V30 2372 H 229.267 -2.55282 2.8202 0
M  V30 2373 H 230.579 -3.50681 3.54717 0
M  V30 2374 H 229.733 -5.56871 2.4079 0
M  V30 2375 H 228.472 -4.61524 1.5763 0
M  V30 2376 H 227.477 -3.9809 3.79215 0
M  V30 2377 H 228.702 -4.96834 4.62961 0
M  V30 2378 H 226.648 -6.00549 2.63965 0
M  V30 2379 H 226.565 -6.17428 4.36255 0
M  V30 2380 H 227.833 -6.9739 3.48236 0
M  V30 2381 N 232.062 -1.29571 -0.897171 0
M  V30 2382 C 233.29 -1.20583 -1.68129 0
M  V30 2383 C 233.705 0.233181 -1.87354 0
M  V30 2384 O 233.062 1.15579 -1.41236 0
M  V30 2385 C 233.113 -1.91772 -3.06441 0
M  V30 2386 O 232.834 -3.30053 -2.88091 0
M  V30 2387 C 234.335 -1.89291 -4.00854 0
M  V30 2388 H 231.555 -0.417826 -0.525036 0
M  V30 2389 H 234.099 -1.70987 -1.12177 0
M  V30 2390 H 232.254 -1.45196 -3.59161 0
M  V30 2391 H 232.668 -3.65942 -3.75748 0
M  V30 2392 H 234.142 -2.43662 -4.95311 0
M  V30 2393 H 234.619 -0.869014 -4.30517 0
M  V30 2394 H 235.225 -2.35622 -3.54066 0
M  V30 2395 N 233.54 1.10788 -1.12088 0
M  V30 2396 C 234.78 1.84297 -0.883974 0
M  V30 2397 C 235.144 1.83036 0.579797 0
M  V30 2398 O 236.345 2.52061 0.933734 0
M  V30 2399 C 234.616 3.27173 -1.43849 0
M  V30 2400 S 236.175 4.17853 -1.33957 0
M  V30 2401 H 232.993 0.635433 -0.318977 0
M  V30 2402 H 235.595 1.33341 -1.4297 0
M  V30 2403 H 234.299 3.25658 -2.49749 0
M  V30 2404 H 233.83 3.83198 -0.890096 0
M  V30 2405 H 235.845 4.95239 -0.308603 0
M  V30 2406 N 235.018 0.912232 1.28515 0
M  V30 2407 C 236.266 0.543523 1.94654 0
M  V30 2408 C 236.587 -0.9155 1.72173 0
M  V30 2409 O 235.857 -1.64708 1.06058 0
M  V30 2410 H 234.437 0.198017 0.720277 0
M  V30 2411 H 237.099 1.16126 1.56527 0
M  V30 2412 H 236.195 0.736684 3.03281 0
M  V30 2413 N 236.496 -1.42363 0.676048 0
M  V30 2414 C 237.426 -2.33497 0.0124832 0
M  V30 2415 C 238.407 -1.50748 -0.787981 0
M  V30 2416 O 239.592 -1.79346 -0.744884 0
M  V30 2417 C 236.722 -3.34377 -0.938582 0
M  V30 2418 C 235.676 -4.27289 -0.246622 0
M  V30 2419 C 235.002 -5.18386 -1.31071 0
M  V30 2420 C 236.302 -5.14916 0.875125 0
M  V30 2421 H 237.996 -2.89233 0.773593 0
M  V30 2422 H 235.542 -1.39073 0.37346 0
M  V30 2423 H 237.495 -3.97044 -1.41188 0
M  V30 2424 H 236.219 -2.76947 -1.73113 0
M  V30 2425 H 234.878 -3.66018 0.206456 0
M  V30 2426 H 234.526 -4.57282 -2.09528 0
M  V30 2427 H 234.226 -5.81378 -0.852839 0
M  V30 2428 H 235.75 -5.83929 -1.78492 0
M  V30 2429 H 237.164 -5.71262 0.482983 0
M  V30 2430 H 235.561 -5.86747 1.25887 0
M  V30 2431 H 236.631 -4.53242 1.72335 0
M  V30 2432 N 237.974 -0.419461 -1.51915 0
M  V30 2433 C 239.214 0.152336 -2.03832 0
M  V30 2434 C 239.578 1.41501 -1.29775 0
M  V30 2435 O 240.779 2.06591 -1.7197 0
M  V30 2436 C 239.05 0.383812 -3.55333 0
M  V30 2437 S 240.609 0.921577 -4.29013 0
M  V30 2438 H 237.427 0.0402193 -0.709862 0
M  V30 2439 H 240.029 -0.574758 -1.8686 0
M  V30 2440 H 238.733 -0.541794 -4.06808 0
M  V30 2441 H 238.264 1.13849 -3.76566 0
M  V30 2442 H 240.279 2.20108 -4.4471 0
M  V30 2443 N 239.452 1.56882 -0.150215 0
M  V30 2444 C 240.7 1.9584 0.499105 0
M  V30 2445 C 241.021 1.03623 1.65188 0
M  V30 2446 O 240.291 0.0984084 1.95653 0
M  V30 2447 H 238.871 0.723119 0.187373 0
M  V30 2448 H 241.533 1.9358 -0.226466 0
M  V30 2449 H 240.629 2.99638 0.873122 0
M  V30 2450 N 240.93 -0.123565 1.57115 0
M  V30 2451 C 241.878 -1.17082 2.00984 0
M  V30 2452 C 242.872 -1.43136 0.906009 0
M  V30 2453 O 244.078 -1.43152 1.09121 0
M  V30 2454 H 240.453 -0.394653 0.64012 0
M  V30 2455 H 242.424 -0.774292 2.88179 0
M  V30 2456 C 241.173 -2.49057 2.42623 0
M  V30 2457 H 240.496 -2.29846 3.27125 0
M  V30 2458 H 241.936 -3.20906 2.7712 0
M  V30 2459 C 240.395 -3.11305 1.28805 0
M  V30 2460 O 240.925 -3.97171 0.60153 0
M  V30 2461 N 239.131 -2.71111 1.04628 0
M  V30 2462 H 238.678 -2.01382 1.60634 0
M  V30 2463 H 238.636 -3.1309 0.286685 0
M  V30 2464 N 242.408 -1.52605 -0.393616 0
M  V30 2465 C 243.655 -1.67424 -1.1391 0
M  V30 2466 C 243.983 -0.411859 -1.90089 0
M  V30 2467 O 243.238 0.605626 -1.86093 0
M  V30 2468 C 243.537 -2.85721 -2.14705 0
M  V30 2469 C 243.203 -4.23342 -1.55218 0
M  V30 2470 C 241.865 -4.60771 -1.3872 0
M  V30 2471 C 244.217 -5.09041 -1.11924 0
M  V30 2472 C 241.545 -5.81563 -0.774689 0
M  V30 2473 C 243.897 -6.30452 -0.520853 0
M  V30 2474 C 242.561 -6.66617 -0.343134 0
M  V30 2475 H 241.831 -0.612648 -0.416826 0
M  V30 2476 H 244.478 -1.8674 -0.424315 0
M  V30 2477 H 242.783 -2.60803 -2.92385 0
M  V30 2478 H 244.48 -2.94382 -2.72288 0
M  V30 2479 H 241.07 -3.93855 -1.69045 0
M  V30 2480 H 245.254 -4.80695 -1.23473 0
M  V30 2481 H 240.51 -6.08196 -0.625154 0
M  V30 2482 H 244.684 -6.96175 -0.177065 0
M  V30 2483 H 242.311 -7.60083 0.133571 0
M  V30 2484 N 243.887 0.651787 -1.4349 0
M  V30 2485 C 244.835 1.78586 -1.49029 0
M  V30 2486 C 245.829 1.65448 -0.363767 0
M  V30 2487 O 247.035 1.71777 -0.537821 0
M  V30 2488 H 243.41 0.589236 -0.467231 0
M  V30 2489 H 245.381 1.71035 -2.44519 0
M  V30 2490 C 244.13 3.16851 -1.43181 0
M  V30 2491 H 243.453 3.27598 -2.29171 0
M  V30 2492 H 244.893 3.96156 -1.51118 0
M  V30 2493 C 243.352 3.36568 -0.149616 0
M  V30 2494 O 243.882 3.93885 0.788509 0
M  V30 2495 N 242.088 2.90539 -0.0593484 0
M  V30 2496 H 241.635 2.4408 -0.823575 0
M  V30 2497 H 241.593 3.04108 0.797853 0
M  V30 2498 N 245.365 1.30045 0.890287 0
M  V30 2499 C 246.614 1.17929 1.63633 0
M  V30 2500 C 246.927 -0.266204 1.9378 0
M  V30 2501 O 248.133 -0.508804 2.6669 0
M  V30 2502 C 246.589 2.06317 2.94892 0
M  V30 2503 C 246.197 3.55745 2.72305 0
M  V30 2504 C 247.941 2.0295 3.72843 0
M  V30 2505 C 245.848 4.36205 3.99348 0
M  V30 2506 H 244.778 0.437782 0.613892 0
M  V30 2507 H 247.429 1.54754 0.986075 0
M  V30 2508 H 245.811 1.6237 3.61182 0
M  V30 2509 H 246.985 4.07805 2.1455 0
M  V30 2510 H 245.3 3.6088 2.07737 0
M  V30 2511 H 247.897 2.60319 4.67053 0
M  V30 2512 H 248.24 1.0117 4.0382 0
M  V30 2513 H 248.773 2.4499 3.13408 0
M  V30 2514 H 245.512 5.38659 3.73533 0
M  V30 2515 H 245.032 3.8891 4.56628 0
M  V30 2516 H 246.711 4.47362 4.67415 0
M  V30 2517 N 246.843 -1.10192 1.12674 0
M  V30 2518 C 248.09 -1.82205 0.883606 0
M  V30 2519 C 248.418 -1.8532 -0.590492 0
M  V30 2520 O 247.673 -1.31137 -1.45264 0
M  V30 2521 C 247.972 -3.28552 1.4067 0
M  V30 2522 C 247.638 -3.45582 2.89627 0
M  V30 2523 C 246.3 -3.49937 3.30299 0
M  V30 2524 C 248.652 -3.50768 3.85501 0
M  V30 2525 C 245.98 -3.57049 4.65546 0
M  V30 2526 C 248.332 -3.59414 5.20581 0
M  V30 2527 C 246.996 -3.62034 5.60792 0
M  V30 2528 H 246.266 -0.666735 0.323334 0
M  V30 2529 H 248.913 -1.29868 1.40736 0
M  V30 2530 H 247.218 -3.83473 0.80347 0
M  V30 2531 H 248.915 -3.82788 1.19475 0
M  V30 2532 H 245.505 -3.42871 2.57172 0
M  V30 2533 H 249.689 -3.46651 3.55171 0
M  V30 2534 H 244.945 -3.57361 4.96088 0
M  V30 2535 H 249.119 -3.62371 5.94693 0
M  V30 2536 H 246.746 -3.67298 6.6558 0
M  V30 2537 N 248.321 -0.919034 -1.28029 0
M  V30 2538 C 249.284 -0.416182 -2.2539 0
M  V30 2539 C 250.284 0.460438 -1.54067 0
M  V30 2540 O 251.474 0.262744 -1.72207 0
M  V30 2541 C 248.606 0.402707 -3.38513 0
M  V30 2542 H 249.799 -1.27629 -2.71387 0
M  V30 2543 H 247.352 -0.698919 -1.39803 0
M  V30 2544 H 248.087 1.282 -2.97885 0
M  V30 2545 H 247.872 -0.225698 -3.9145 0
M  V30 2546 H 249.362 0.745191 -4.10897 0
M  V30 2547 N 249.799 1.42003 -0.683588 0
M  V30 2548 C 250.709 2.34597 -0.0109075 0
M  V30 2549 C 251.725 1.55576 0.779245 0
M  V30 2550 O 252.901 1.88107 0.719555 0
M  V30 2551 C 249.966 3.34199 0.922588 0
M  V30 2552 C 249.027 4.29115 0.125984 0
M  V30 2553 C 248.26 5.23959 1.01502 0
M  V30 2554 O 248.483 5.23952 2.25456 0
M  V30 2555 O 247.417 6.00053 0.47111 0
M  V30 2556 H 251.243 2.93675 -0.773853 0
M  V30 2557 H 248.828 1.42654 -0.443861 0
M  V30 2558 H 250.71 3.95365 1.45823 0
M  V30 2559 H 249.385 2.77582 1.66523 0
M  V30 2560 H 248.292 3.71335 -0.453969 0
M  V30 2561 H 249.625 4.88798 -0.577736 0
M  V30 2562 N 251.277 0.427512 1.51691 0
M  V30 2563 C 252.554 -0.201684 1.94557 0
M  V30 2564 C 252.934 -1.60981 1.36559 0
M  V30 2565 O 252.282 -2.21814 0.548702 0
M  V30 2566 C 252.492 -0.189394 3.48486 0
M  V30 2567 C 253.84 -0.39978 4.22714 0
M  V30 2568 O 254.864 -0.267945 3.55191 0
M  V30 2569 O 253.723 -0.661249 5.42485 0
M  V30 2570 H 250.817 -0.135261 0.815864 0
M  V30 2571 H 253.363 0.484782 1.62628 0
M  V30 2572 H 252.135 0.795431 3.8313 0
M  V30 2573 H 251.758 -0.919187 3.86829 0
M  V30 2574 N 252.755 -1.56801 0.158532 0
M  V30 2575 C 254.032 -1.88131 -0.535357 0
M  V30 2576 C 254.412 -1.06638 -1.82186 0
M  V30 2577 O 253.76 -0.156533 -2.27963 0
M  V30 2578 C 253.97 -3.39949 -0.789653 0
M  V30 2579 C 255.318 -4.09416 -1.12533 0
M  V30 2580 O 256.342 -3.45194 -0.878622 0
M  V30 2581 O 255.201 -5.22855 -1.59014 0
M  V30 2582 H 252.295 -0.780143 -0.27442 0
M  V30 2583 H 254.841 -1.68564 0.19601 0
M  V30 2584 H 253.613 -3.91115 0.120353 0
M  V30 2585 H 253.236 -3.65084 -1.57479 0
M  V30 2586 N 254.233 0.115231 -1.57178 0
M  V30 2587 C 255.48 0.822351 -1.8505 0
M  V30 2588 C 255.808 1.79701 -0.744168 0
M  V30 2589 O 255.063 1.93909 0.26414 0
M  V30 2590 C 255.362 1.60324 -3.19423 0
M  V30 2591 C 255.028 0.772536 -4.44233 0
M  V30 2592 C 253.69 0.543468 -4.78121 0
M  V30 2593 C 256.042 0.193746 -5.2084 0
M  V30 2594 C 253.37 -0.274583 -5.86057 0
M  V30 2595 C 255.722 -0.611517 -6.29637 0
M  V30 2596 C 254.386 -0.850867 -6.62055 0
M  V30 2597 H 253.656 0.30092 -0.677147 0
M  V30 2598 H 256.303 0.0845802 -1.91313 0
M  V30 2599 H 254.608 2.41203 -3.08753 0
M  V30 2600 H 256.305 2.1544 -3.38211 0
M  V30 2601 H 252.895 0.96117 -4.17683 0
M  V30 2602 H 257.079 0.357926 -4.95008 0
M  V30 2603 H 252.335 -0.469206 -6.09597 0
M  V30 2604 H 256.509 -1.06697 -6.88178 0
M  V30 2605 H 254.136 -1.48657 -7.45523 0
M  V30 2606 N 255.711 1.52812 0.385517 0
M  V30 2607 C 256.644 1.72592 1.49289 0
M  V30 2608 C 257.622 0.573819 1.52138 0
M  V30 2609 O 258.806 0.80404 1.70492 0
M  V30 2610 C 255.933 1.78669 2.87741 0
M  V30 2611 C 254.979 3.00455 3.02703 0
M  V30 2612 S 255.812 4.60366 2.73538 0
M  V30 2613 C 256.968 4.69263 4.14177 0
M  V30 2614 H 257.201 2.66248 1.32285 0
M  V30 2615 H 254.734 1.43148 0.578611 0
M  V30 2616 H 256.692 1.82855 3.67524 0
M  V30 2617 H 255.353 0.861 3.02069 0
M  V30 2618 H 254.546 3.01258 4.04054 0
M  V30 2619 H 254.148 2.94278 2.30817 0
M  V30 2620 H 256.44 4.48092 5.08153 0
M  V30 2621 H 257.383 5.71276 4.18388 0
M  V30 2622 H 257.791 3.98072 4.00249 0
M  V30 2623 N 257.189 -0.644168 1.43834 0
M  V30 2624 C 258.417 -1.43147 1.49387 0
M  V30 2625 C 258.832 -1.88452 0.114583 0
M  V30 2626 O 258.189 -1.60047 -0.876989 0
M  V30 2627 C 258.24 -2.66046 2.44748 0
M  V30 2628 O 257.961 -2.22633 3.77314 0
M  V30 2629 C 259.462 -3.59311 2.59635 0
M  V30 2630 H 256.682 -0.439447 0.507077 0
M  V30 2631 H 259.226 -0.78895 1.88669 0
M  V30 2632 H 257.381 -3.26418 2.08638 0
M  V30 2633 H 257.795 -3.02216 4.28679 0
M  V30 2634 H 259.269 -4.42187 3.30416 0
M  V30 2635 H 259.746 -4.07259 1.64427 0
M  V30 2636 H 260.352 -3.04816 2.96593 0
M  V30 2637 N 258.668 -1.30515 -0.883378 0
M  V30 2638 C 259.6 -1.12846 -1.99496 0
M  V30 2639 C 260.613 -0.0712571 -1.62644 0
M  V30 2640 O 261.802 -0.317432 -1.75655 0
M  V30 2641 C 258.902 -0.699123 -3.3161 0
M  V30 2642 C 258.075 -1.83842 -3.96889 0
M  V30 2643 C 257.134 -1.39737 -5.07307 0
M  V30 2644 O 256.16 -2.10485 -5.28852 0
M  V30 2645 N 257.362 -0.277279 -5.79837 0
M  V30 2646 H 260.127 -2.08585 -2.15203 0
M  V30 2647 H 257.688 -1.22672 -1.05656 0
M  V30 2648 H 259.68 -0.387044 -4.02845 0
M  V30 2649 H 258.25 0.166276 -3.12157 0
M  V30 2650 H 257.47 -2.31853 -3.18807 0
M  V30 2651 H 258.758 -2.60187 -4.37241 0
M  V30 2652 H 258.156 0.3122 -5.64838 0
M  V30 2653 H 256.713 -0.0246623 -6.51795 0
M  V30 2654 N 260.146 1.09593 -1.13257 0
M  V30 2655 C 261.056 2.19739 -0.821691 0
M  V30 2656 C 262.072 1.72926 0.19302 0
M  V30 2657 O 263.248 2.01385 0.0244895 0
M  V30 2658 C 260.313 3.45482 -0.290333 0
M  V30 2659 C 259.374 4.06985 -1.36607 0
M  V30 2660 C 258.607 5.26726 -0.859975 0
M  V30 2661 O 258.83 5.69594 0.303082 0
M  V30 2662 O 257.764 5.7931 -1.63351 0
M  V30 2663 H 261.59 2.48781 -1.74189 0
M  V30 2664 H 259.175 1.18496 -0.909894 0
M  V30 2665 H 261.057 4.214 0.000674022 0
M  V30 2666 H 259.732 3.18047 0.602306 0
M  V30 2667 H 258.639 3.32712 -1.71037 0
M  V30 2668 H 259.972 4.38643 -2.23279 0
M  V30 2669 N 261.624 0.925811 1.2754 0
M  V30 2670 C 262.872 0.564138 1.94067 0
M  V30 2671 C 263.193 -0.897188 1.73134 0
M  V30 2672 O 262.463 -1.63573 1.07799 0
M  V30 2673 H 261.043 0.205645 0.718136 0
M  V30 2674 H 263.705 1.1778 1.55287 0
M  V30 2675 H 262.801 0.76881 3.02483 0
M  V30 2676 N 263.102 -1.41638 0.69111 0
M  V30 2677 C 264.33 -2.05628 0.22909 0
M  V30 2678 C 264.745 -1.51992 -1.11999 0
M  V30 2679 O 264.102 -0.666322 -1.69901 0
M  V30 2680 C 264.153 -3.61084 0.173283 0
M  V30 2681 O 263.874 -4.12735 1.46907 0
M  V30 2682 C 265.375 -4.42213 -0.310266 0
M  V30 2683 H 262.595 -0.662327 0.107534 0
M  V30 2684 H 265.139 -1.81489 0.942438 0
M  V30 2685 H 263.294 -3.84278 -0.490858 0
M  V30 2686 H 263.708 -5.06743 1.35322 0
M  V30 2687 H 265.182 -5.51194 -0.298196 0
M  V30 2688 H 265.659 -4.1799 -1.34838 0
M  V30 2689 H 266.265 -4.24074 0.322716 0
M  V30 2690 N 264.58 -0.43555 -1.51462 0
M  V30 2691 C 265.51 0.367376 -2.30592 0
M  V30 2692 C 266.491 1.02263 -1.35928 0
M  V30 2693 O 267.676 1.02661 -1.64847 0
M  V30 2694 C 264.806 1.46983 -3.14664 0
M  V30 2695 C 263.76 0.938161 -4.17591 0
M  V30 2696 C 263.086 2.13622 -4.90173 0
M  V30 2697 C 264.386 -0.0261621 -5.22293 0
M  V30 2698 H 266.08 -0.292969 -2.97963 0
M  V30 2699 H 263.626 -0.14234 -1.43295 0
M  V30 2700 H 265.579 2.03873 -3.688 0
M  V30 2701 H 264.303 2.15843 -2.4511 0
M  V30 2702 H 262.962 0.391481 -3.64504 0
M  V30 2703 H 262.61 2.81098 -4.17124 0
M  V30 2704 H 262.31 1.78688 -5.59772 0
M  V30 2705 H 263.834 2.7107 -5.47132 0
M  V30 2706 H 265.248 0.452384 -5.71512 0
M  V30 2707 H 263.645 -0.287992 -5.99409 0
M  V30 2708 H 264.715 -0.963391 -4.75233 0
M  V30 2709 N 266.058 1.56714 -0.166846 0
M  V30 2710 C 267.286 2.0112 0.485644 0
M  V30 2711 C 267.701 1.04705 1.57106 0
M  V30 2712 O 267.058 0.0471923 1.82439 0
M  V30 2713 C 267.109 3.45361 1.06808 0
M  V30 2714 O 266.83 4.38092 0.0259995 0
M  V30 2715 C 268.331 4.05145 1.79924 0
M  V30 2716 H 265.551 0.65931 0.124704 0
M  V30 2717 H 268.095 2.02746 -0.267262 0
M  V30 2718 H 266.25 3.44524 1.7715 0
M  V30 2719 H 266.664 5.22519 0.455398 0
M  V30 2720 H 268.138 5.08009 2.15942 0
M  V30 2721 H 268.615 3.46982 2.69258 0
M  V30 2722 H 269.221 4.09672 1.14234 0
M  V30 2723 N 267.536 -0.106894 1.57237 0
M  V30 2724 C 268.761 -0.830287 1.90055 0
M  V30 2725 C 269.186 -1.72064 0.75998 0
M  V30 2726 O 268.544 -1.78982 -0.288991 0
M  V30 2727 C 268.592 -1.6295 3.21683 0
M  V30 2728 O 267.696 -2.73748 3.08441 0
M  V30 2729 H 267.037 -0.228855 0.623315 0
M  V30 2730 H 269.567 -0.085658 2.04421 0
M  V30 2731 H 269.577 -2.01621 3.54701 0
M  V30 2732 H 268.252 -0.975989 4.04286 0
M  V30 2733 H 266.829 -2.38192 2.86913 0
M  V30 2734 N 269.014 -1.53014 -0.377408 0
M  V30 2735 C 270.291 -1.59215 -1.13622 0
M  V30 2736 C 270.671 -0.392407 -2.07421 0
M  V30 2737 O 270.019 0.618342 -2.19975 0
M  V30 2738 C 270.229 -2.93669 -1.88573 0
M  V30 2739 C 271.577 -3.47822 -2.43526 0
M  V30 2740 O 272.601 -2.9562 -1.98715 0
M  V30 2741 O 271.46 -4.39055 -3.25412 0
M  V30 2742 H 268.554 -0.642625 -0.52054 0
M  V30 2743 H 271.1 -1.65353 -0.381625 0
M  V30 2744 H 269.872 -3.7243 -1.20048 0
M  V30 2745 H 269.495 -2.90968 -2.70968 0
M  V30 2746 N 270.492 0.636531 -1.44174 0
M  V30 2747 C 271.903 1.21806 -1.41493 0
M  V30 2748 C 272.254 1.95785 -0.1275 0
M  V30 2749 O 271.379 2.02147 0.772376 0
M  V30 2750 C 271.974 2.21551 -2.56321 0
M  V30 2751 C 270.533 2.75143 -2.56853 0
M  V30 2752 C 269.68 1.50052 -2.33195 0
M  V30 2753 H 272.631 0.427531 -1.52833 0
M  V30 2754 H 272.652 3.0405 -2.28765 0
M  V30 2755 H 272.164 1.67679 -3.50008 0
M  V30 2756 H 270.265 3.33033 -1.67093 0
M  V30 2757 H 270.378 3.2155 -3.55165 0
M  V30 2758 H 268.742 1.77993 -1.82183 0
M  V30 2759 H 269.525 0.980903 -3.28988 0
M  V30 2760 N 271.97 1.30982 0.876444 0
M  V30 2761 C 273.2 1.23063 1.65949 0
M  V30 2762 C 273.608 -0.207537 1.88058 0
M  V30 2763 O 272.951 -1.14781 1.43426 0
M  V30 2764 C 273.013 1.89768 3.05333 0
M  V30 2765 C 272.677 3.39106 3.0636 0
M  V30 2766 C 273.674 4.3496 2.84791 0
M  V30 2767 C 271.359 3.80693 3.27686 0
M  V30 2768 C 273.353 5.70375 2.84519 0
M  V30 2769 C 271.04 5.16223 3.27043 0
M  V30 2770 C 272.038 6.10875 3.05485 0
M  V30 2771 O 271.726 7.43928 3.04674 0
M  V30 2772 H 271.458 0.426685 0.524324 0
M  V30 2773 H 274.012 1.7329 1.10271 0
M  V30 2774 H 272.242 1.34082 3.6271 0
M  V30 2775 H 273.931 1.75853 3.65829 0
M  V30 2776 H 274.697 4.0416 2.68103 0
M  V30 2777 H 270.576 3.07457 3.43499 0
M  V30 2778 H 274.12 6.44228 2.67611 0
M  V30 2779 H 270.017 5.4666 3.43269 0
M  V30 2780 H 270.785 7.53022 3.2078 0
M  V30 2781 N 273.449 -1.08991 1.13837 0
M  V30 2782 C 274.726 -1.77863 0.813876 0
M  V30 2783 C 275.106 -1.99375 -0.693746 0
M  V30 2784 O 274.454 -1.59875 -1.63255 0
M  V30 2785 C 274.664 -3.0986 1.60586 0
M  V30 2786 C 276.012 -3.84493 1.8014 0
M  V30 2787 O 277.036 -3.19624 1.57222 0
M  V30 2788 O 275.895 -5.00957 2.18413 0
M  V30 2789 H 272.989 -0.771589 0.297624 0
M  V30 2790 H 275.535 -1.15507 1.24323 0
M  V30 2791 H 274.307 -2.89715 2.63022 0
M  V30 2792 H 273.93 -3.79942 1.17173 0
M  V30 2793 N 274.927 -0.932562 -1.27047 0
M  V30 2794 C 276.174 -0.575559 -1.94148 0
M  V30 2795 C 276.502 0.883984 -1.73251 0
M  V30 2796 O 275.757 1.64655 -1.0577 0
M  V30 2797 C 276.056 -0.853713 -3.47054 0
M  V30 2798 C 275.722 -2.29577 -3.88079 0
M  V30 2799 C 274.384 -2.68999 -3.9899 0
M  V30 2800 C 276.736 -3.23331 -4.08787 0
M  V30 2801 C 274.064 -4.01289 -4.28 0
M  V30 2802 C 276.416 -4.55207 -4.39282 0
M  V30 2803 C 275.08 -4.94457 -4.48407 0
M  V30 2804 H 274.35 -0.210612 -0.710439 0
M  V30 2805 H 276.997 -1.17744 -1.51025 0
M  V30 2806 H 275.302 -0.169204 -3.91434 0
M  V30 2807 H 276.999 -0.55639 -3.97121 0
M  V30 2808 H 273.589 -1.97994 -3.80127 0
M  V30 2809 H 277.773 -2.94074 -3.99793 0
M  V30 2810 H 273.029 -4.31374 -4.33275 0
M  V30 2811 H 277.203 -5.27852 -4.54252 0
M  V30 2812 H 274.83 -5.96994 -4.7064 0
M  V30 2813 N 276.405 1.4127 -0.698611 0
M  V30 2814 C 277.368 2.29158 -0.044132 0
M  V30 2815 C 278.368 1.44529 0.704841 0
M  V30 2816 O 279.558 1.65643 0.539276 0
M  V30 2817 C 276.69 3.27459 0.947809 0
M  V30 2818 H 277.883 2.88529 -0.817994 0
M  V30 2819 H 275.436 1.49307 -0.46228 0
M  V30 2820 H 276.171 2.73073 1.74933 0
M  V30 2821 H 275.956 3.8991 0.41385 0
M  V30 2822 H 277.446 3.93311 1.40344 0
M  V30 2823 N 277.883 0.443576 1.51229 0
M  V30 2824 C 278.831 -0.37904 2.29491 0
M  V30 2825 C 279.825 -1.0153 1.35603 0
M  V30 2826 O 281.031 -0.94955 1.52917 0
M  V30 2827 H 277.406 -0.141053 0.738653 0
M  V30 2828 H 279.377 0.301799 2.9687 0
M  V30 2829 C 278.126 -1.46426 3.15364 0
M  V30 2830 H 277.449 -0.984037 3.87501 0
M  V30 2831 H 278.889 -2.01297 3.7317 0
M  V30 2832 C 277.348 -2.45099 2.31146 0
M  V30 2833 O 277.878 -3.49773 1.9754 0
M  V30 2834 N 276.084 -2.16139 1.94249 0
M  V30 2835 H 275.631 -1.31044 2.21777 0
M  V30 2836 H 275.589 -2.82398 1.38198 0
M  V30 2837 N 279.361 -1.56624 0.175154 0
M  V30 2838 C 280.586 -2.01813 -0.478137 0
M  V30 2839 C 281.011 -1.05457 -1.55757 0
M  V30 2840 O 280.369 -0.0347439 -1.81267 0
M  V30 2841 C 280.417 -3.45581 -1.02987 0
M  V30 2842 O 279.521 -3.52305 -2.14371 0
M  V30 2843 H 278.862 -0.65413 -0.114059 0
M  V30 2844 H 281.392 -2.02673 0.280173 0
M  V30 2845 H 281.402 -3.84965 -1.35151 0
M  V30 2846 H 280.077 -4.1521 -0.239556 0
M  V30 2847 H 278.654 -3.24783 -1.83222 0
M  V30 2848 N 280.839 0.0985539 -1.57292 0
M  V30 2849 C 282.085 0.798769 -1.87059 0
M  V30 2850 C 282.44 1.76514 -0.76555 0
M  V30 2851 O 281.733 1.90181 0.232752 0
M  V30 2852 C 281.927 1.56927 -3.21105 0
M  V30 2853 C 281.756 0.679026 -4.44544 0
M  V30 2854 C 280.526 0.326071 -5.04247 0
M  V30 2855 C 282.724 -0.0124715 -5.14298 0
M  V30 2856 N 280.706 -0.572702 -6.11223 0
M  V30 2857 C 282.077 -0.769446 -6.15207 0
M  V30 2858 C 284.132 -0.0867545 -4.97824 0
M  V30 2859 C 282.835 -1.59376 -7.01421 0
M  V30 2860 C 284.861 -0.897955 -5.84543 0
M  V30 2861 C 284.223 -1.64306 -6.84969 0
M  V30 2862 H 280.322 0.268568 -0.734435 0
M  V30 2863 H 282.906 0.0614664 -1.94603 0
M  V30 2864 H 281.077 2.27748 -3.1462 0
M  V30 2865 H 282.809 2.21641 -3.38611 0
M  V30 2866 H 279.564 0.67295 -4.68795 0
M  V30 2867 H 279.988 -1.01454 -6.69355 0
M  V30 2868 H 284.63 0.474963 -4.20124 0
M  V30 2869 H 282.348 -2.16655 -7.78515 0
M  V30 2870 H 285.934 -0.958059 -5.73858 0
M  V30 2871 H 284.814 -2.26065 -7.50909 0
M  V30 2872 N 282.317 1.53212 0.369288 0
M  V30 2873 C 283.28 1.7872 1.43498 0
M  V30 2874 C 284.28 0.657554 1.46741 0
M  V30 2875 O 285.47 0.925736 1.47566 0
M  V30 2876 C 282.602 1.90591 2.82645 0
M  V30 2877 H 283.795 2.73894 1.22156 0
M  V30 2878 H 281.348 1.44233 0.602203 0
M  V30 2879 H 282.083 0.974709 3.09306 0
M  V30 2880 H 281.868 2.72751 2.8169 0
M  V30 2881 H 283.358 2.11931 3.59826 0
M  V30 2882 N 283.795 -0.628877 1.44509 0
M  V30 2883 C 284.725 -1.75187 1.54376 0
M  V30 2884 C 285.706 -1.65411 0.396618 0
M  V30 2885 O 286.891 -1.84137 0.617031 0
M  V30 2886 C 284.021 -3.13725 1.48976 0
M  V30 2887 C 282.975 -3.38291 2.62189 0
M  V30 2888 C 282.301 -4.76883 2.41841 0
M  V30 2889 C 283.601 -3.30632 4.04326 0
M  V30 2890 H 285.295 -1.67187 2.48373 0
M  V30 2891 H 282.841 -0.802909 1.19538 0
M  V30 2892 H 284.794 -3.92064 1.54478 0
M  V30 2893 H 283.518 -3.22515 0.514961 0
M  V30 2894 H 282.177 -2.62334 2.56079 0
M  V30 2895 H 281.825 -4.82378 1.42548 0
M  V30 2896 H 281.525 -4.94278 3.17747 0
M  V30 2897 H 283.049 -5.57449 2.49165 0
M  V30 2898 H 284.463 -3.98873 4.11793 0
M  V30 2899 H 282.86 -3.59561 4.80454 0
M  V30 2900 H 283.93 -2.28404 4.27738 0
M  V30 2901 N 285.273 -1.31445 -0.869486 0
M  V30 2902 C 286.498 -1.24256 -1.66058 0
M  V30 2903 C 286.923 0.188928 -1.87149 0
M  V30 2904 O 286.281 1.13522 -1.4136 0
M  V30 2905 C 286.329 -1.9924 -3.00559 0
M  V30 2906 O 285.433 -1.33007 -3.90362 0
M  V30 2907 H 284.774 -0.428973 -0.506831 0
M  V30 2908 H 287.304 -1.73521 -1.08404 0
M  V30 2909 H 287.314 -2.08854 -3.50491 0
M  V30 2910 H 285.989 -3.03342 -2.84528 0
M  V30 2911 H 284.566 -1.31848 -3.48813 0
M  V30 2912 N 286.751 1.08385 -1.14413 0
M  V30 2913 C 287.976 1.85057 -0.936413 0
M  V30 2914 C 288.401 1.81055 0.509971 0
M  V30 2915 O 287.759 1.1958 1.36273 0
M  V30 2916 C 287.807 3.30505 -1.44217 0
M  V30 2917 O 286.911 4.07491 -0.634409 0
M  V30 2918 H 286.252 0.573425 -0.334784 0
M  V30 2919 H 288.782 1.36799 -1.52142 0
M  V30 2920 H 288.792 3.81348 -1.45043 0
M  V30 2921 H 287.467 3.32734 -2.49522 0
M  V30 2922 H 286.044 3.66368 -0.694902 0
M  V30 2923 N 288.23 0.939286 1.26551 0
M  V30 2924 C 289.478 0.58469 1.93457 0
M  V30 2925 C 289.799 -0.878774 1.74076 0
M  V30 2926 O 289.069 -1.62421 1.09528 0
M  V30 2927 H 287.649 0.21325 0.715914 0
M  V30 2928 H 290.311 1.1942 1.54029 0
M  V30 2929 H 289.407 0.800849 3.0165 0
M  V30 2930 N 289.708 -1.40897 0.706093 0
M  V30 2931 C 290.618 -2.3455 0.0482286 0
M  V30 2932 C 291.634 -1.56796 -0.754396 0
M  V30 2933 O 292.81 -1.89228 -0.689538 0
M  V30 2934 C 289.875 -3.35625 -0.869303 0
M  V30 2935 C 288.936 -4.29261 -0.0576994 0
M  V30 2936 C 288.169 -5.25508 -0.931531 0
M  V30 2937 O 288.392 -5.27472 -2.17092 0
M  V30 2938 O 287.326 -6.00727 -0.375587 0
M  V30 2939 H 291.152 -2.92407 0.820476 0
M  V30 2940 H 288.737 -1.4193 0.4665 0
M  V30 2941 H 290.619 -3.97635 -1.39514 0
M  V30 2942 H 289.294 -2.80196 -1.62086 0
M  V30 2943 H 288.201 -3.70566 0.512988 0
M  V30 2944 H 289.534 -4.87817 0.655426 0
M  V30 2945 N 291.186 -0.45159 -1.50991 0
M  V30 2946 C 292.118 0.388634 -2.25881 0
M  V30 2947 C 293.131 0.974041 -1.30446 0
M  V30 2948 O 294.32 0.865758 -1.56099 0
M  V30 2949 C 291.42 1.5571 -3.01011 0
M  V30 2950 C 290.593 1.08801 -4.23652 0
M  V30 2951 C 289.652 2.12825 -4.8124 0
M  V30 2952 O 288.678 1.71678 -5.42693 0
M  V30 2953 N 289.88 3.45453 -4.66522 0
M  V30 2954 H 292.645 -0.25329 -2.98628 0
M  V30 2955 H 290.206 -0.281268 -1.59438 0
M  V30 2956 H 292.198 2.24952 -3.3642 0
M  V30 2957 H 290.768 2.10409 -2.31186 0
M  V30 2958 H 289.988 0.22215 -3.93574 0
M  V30 2959 H 291.276 0.752213 -5.03209 0
M  V30 2960 H 290.674 3.81605 -4.17605 0
M  V30 2961 H 289.231 4.10549 -5.06254 0
M  V30 2962 N 292.664 1.56529 -0.183458 0
M  V30 2963 C 293.91 1.98304 0.452466 0
M  V30 2964 C 294.265 1.06799 1.60037 0
M  V30 2965 O 293.558 0.110049 1.91284 0
M  V30 2966 C 293.752 3.43939 0.971637 0
M  V30 2967 C 293.581 4.49528 -0.124425 0
M  V30 2968 C 292.351 5.01981 -0.578168 0
M  V30 2969 C 294.549 5.05836 -0.929207 0
M  V30 2970 N 292.531 5.91219 -1.65327 0
M  V30 2971 C 293.902 5.91632 -1.85396 0
M  V30 2972 C 295.957 4.88302 -0.972929 0
M  V30 2973 C 294.66 6.61768 -2.81878 0
M  V30 2974 C 296.686 5.59168 -1.92574 0
M  V30 2975 C 296.048 6.44701 -2.83795 0
M  V30 2976 H 292.147 0.770551 0.133324 0
M  V30 2977 H 294.731 1.92581 -0.286473 0
M  V30 2978 H 292.902 3.50184 1.68006 0
M  V30 2979 H 294.634 3.72702 1.5772 0
M  V30 2980 H 291.389 4.73282 -0.173639 0
M  V30 2981 H 291.813 6.40543 -2.19167 0
M  V30 2982 H 296.455 4.21861 -0.28168 0
M  V30 2983 H 294.173 7.27415 -3.51984 0
M  V30 2984 H 297.759 5.47582 -1.96583 0
M  V30 2985 H 296.639 6.98573 -3.56322 0
M  V30 2986 N 294.142 -0.090211 1.57342 0
M  V30 2987 C 295.382 -0.798365 1.88163 0
M  V30 2988 C 295.746 -1.75662 0.775046 0
M  V30 2989 O 296.947 -2.50849 0.965816 0
M  V30 2990 C 295.218 -1.50376 3.24225 0
M  V30 2991 S 296.777 -2.24952 3.76752 0
M  V30 2992 H 293.595 -0.265883 0.659414 0
M  V30 2993 H 296.197 -0.055264 1.95422 0
M  V30 2994 H 294.901 -0.792286 4.0268 0
M  V30 2995 H 294.432 -2.28666 3.20118 0
M  V30 2996 H 296.447 -3.51173 3.5056 0
M  V30 2997 N 295.62 -1.53406 -0.361157 0
M  V30 2998 C 296.53 -1.83122 -1.4664 0
M  V30 2999 C 297.546 -0.719943 -1.58407 0
M  V30 3000 O 298.722 -1.01046 -1.74218 0
M  V30 3001 C 295.787 -2.01891 -2.81853 0
M  V30 3002 C 294.848 -3.25784 -2.79577 0
M  V30 3003 C 294.081 -3.43648 -4.0834 0
M  V30 3004 O 294.304 -2.65714 -5.0473 0
M  V30 3005 O 293.238 -4.37018 -4.13883 0
M  V30 3006 H 297.064 -2.7703 -1.24451 0
M  V30 3007 H 294.649 -1.38841 -0.551678 0
M  V30 3008 H 296.531 -2.15782 -3.61962 0
M  V30 3009 H 295.206 -1.11173 -3.0401 0
M  V30 3010 H 294.113 -3.17312 -1.98151 0
M  V30 3011 H 295.446 -4.16439 -2.62373 0
M  V30 3012 N 297.098 0.621204 -1.44841 0
M  V30 3013 C 298.514 0.94048 -1.28946 0
M  V30 3014 C 298.714 2.00154 -0.23249 0
M  V30 3015 O 297.77 2.49651 0.378237 0
M  V30 3016 C 299.083 1.39433 -2.66419 0
M  V30 3017 C 300.631 1.50927 -2.74208 0
M  V30 3018 C 301.106 1.99692 -4.12174 0
M  V30 3019 N 302.597 2.06947 -4.144 0
M  V30 3020 C 303.332 2.45871 -5.1801 0
M  V30 3021 N 302.828 2.83862 -6.31977 0
M  V30 3022 N 304.621 2.46092 -5.05366 0
M  V30 3023 H 296.772 -0.0803548 -2.12248 0
M  V30 3024 H 299.035 0.0266913 -0.947624 0
M  V30 3025 H 298.741 0.688925 -3.44887 0
M  V30 3026 H 298.615 2.36347 -2.93973 0
M  V30 3027 H 301.002 2.20561 -1.96053 0
M  V30 3028 H 301.083 0.523627 -2.50383 0
M  V30 3029 H 300.727 1.30649 -4.90809 0
M  V30 3030 H 300.657 2.99146 -4.33381 0
M  V30 3031 H 303.148 1.80232 -3.32152 0
M  V30 3032 H 303.461 3.12405 -7.0684 0
M  V30 3033 H 301.806 2.8159 -6.35399 0
M  V30 3034 H 304.997 2.1581 -4.15384 0
M  V30 3035 H 305.17 2.76102 -5.86235 0
M  V30 3036 N 298.576 1.31904 0.862503 0
M  V30 3037 C 299.539 1.20131 1.95195 0
M  V30 3038 C 300.539 0.126409 1.60302 0
M  V30 3039 O 301.729 0.376234 1.70089 0
M  V30 3040 C 298.861 0.845691 3.30244 0
M  V30 3041 H 300.054 2.16943 2.07064 0
M  V30 3042 H 297.607 1.15622 1.05172 0
M  V30 3043 H 298.342 -0.120957 3.24074 0
M  V30 3044 H 298.127 1.62276 3.56944 0
M  V30 3045 H 299.617 0.787418 4.10109 0
M  V30 3046 N 300.054 -1.07777 1.14986 0
M  V30 3047 C 301.279 -1.84558 0.946213 0
M  V30 3048 C 301.704 -1.81323 -0.500362 0
M  V30 3049 O 301.062 -1.20301 -1.35637 0
M  V30 3050 C 301.11 -3.29736 1.45968 0
M  V30 3051 O 300.214 -4.07149 0.65601 0
M  V30 3052 H 299.555 -0.571641 0.33782 0
M  V30 3053 H 302.085 -1.35991 1.52865 0
M  V30 3054 H 302.095 -3.80574 1.47063 0
M  V30 3055 H 300.77 -3.31406 2.51283 0
M  V30 3056 H 299.347 -3.65994 0.714322 0
M  V30 3057 N 301.532 -0.945985 -1.26051 0
M  V30 3058 C 302.943 -0.638096 -1.75457 0
M  V30 3059 C 303.294 0.846672 -1.76991 0
M  V30 3060 O 302.419 1.66262 -1.38513 0
M  V30 3061 C 303.014 -1.15157 -3.18629 0
M  V30 3062 C 301.573 -0.894004 -3.65629 0
M  V30 3063 C 300.72 -1.29967 -2.44957 0
M  V30 3064 H 303.671 -1.12376 -1.1206 0
M  V30 3065 H 303.692 -0.507615 -3.77099 0
M  V30 3066 H 303.204 -2.23222 -3.1748 0
M  V30 3067 H 301.305 0.172057 -3.72203 0
M  V30 3068 H 301.418 -1.52439 -4.54202 0
M  V30 3069 H 299.782 -0.718078 -2.44368 0
M  V30 3070 H 300.565 -2.38935 -2.46505 0
M  V30 3071 N 303.011 1.40521 -0.713556 0
M  V30 3072 C 304.422 1.83853 -0.324807 0
M  V30 3073 C 304.773 1.59667 1.14021 0
M  V30 3074 O 303.898 1.07649 1.87725 0
M  V30 3075 C 304.493 3.33751 -0.582746 0
M  V30 3076 C 303.052 3.75584 -0.247727 0
M  V30 3077 C 302.199 2.63753 -0.856121 0
M  V30 3078 H 305.15 1.29817 -0.91286 0
M  V30 3079 H 305.171 3.80194 0.152682 0
M  V30 3080 H 304.683 3.51322 -1.64908 0
M  V30 3081 H 302.784 3.63608 0.813624 0
M  V30 3082 H 302.897 4.7373 -0.715307 0
M  V30 3083 H 301.261 2.53108 -0.28432 0
M  V30 3084 H 302.044 2.84137 -1.92668 0
M  V30 3085 N 304.489 0.459591 1.5075 0
M  V30 3086 C 305.714 -0.0996819 2.0716 0
M  V30 3087 C 306.139 -1.33761 1.32249 0
M  V30 3088 O 305.497 -1.77551 0.366786 0
M  V30 3089 C 305.545 -0.378226 3.58611 0
M  V30 3090 O 304.649 -1.46081 3.85661 0
M  V30 3091 H 303.99 0.00791392 0.663953 0
M  V30 3092 H 306.52 0.647329 1.9409 0
M  V30 3093 H 306.53 -0.622135 4.03229 0
M  V30 3094 H 305.205 0.526439 4.12555 0
M  V30 3095 H 303.782 -1.20511 3.5289 0
M  V30 3096 N 305.967 -1.56429 0.191757 0
M  V30 3097 C 307.192 -2.02309 -0.456706 0
M  V30 3098 C 307.617 -1.07103 -1.5463 0
M  V30 3099 O 306.975 -0.0539677 -1.8122 0
M  V30 3100 C 307.023 -3.46654 -0.993159 0
M  V30 3101 O 306.127 -3.54559 -2.10622 0
M  V30 3102 H 305.468 -0.655303 -0.107114 0
M  V30 3103 H 307.998 -2.02364 0.301653 0
M  V30 3104 H 308.008 -3.86377 -1.31061 0
M  V30 3105 H 306.683 -4.1544 -0.195504 0
M  V30 3106 H 305.26 -3.26708 -1.79767 0
M  V30 3107 N 307.445 0.0818655 -1.57387 0
M  V30 3108 C 308.67 0.799946 -1.91352 0
M  V30 3109 C 309.095 1.70833 -0.787258 0
M  V30 3110 O 308.453 1.79419 0.26048 0
M  V30 3111 C 308.501 1.57812 -3.24234 0
M  V30 3112 O 307.605 2.68806 -3.12757 0
M  V30 3113 H 306.946 0.21891 -0.626877 0
M  V30 3114 H 309.476 0.0531256 -2.04531 0
M  V30 3115 H 309.486 1.95952 -3.57864 0
M  V30 3116 H 308.161 0.911548 -4.05788 0
M  V30 3117 H 306.738 2.33597 -2.90666 0
M  V30 3118 N 308.923 1.53595 0.353017 0
M  V30 3119 C 310.163 1.72094 1.10286 0
M  V30 3120 C 310.527 0.469217 1.86178 0
M  V30 3121 O 311.728 0.531083 2.63501 0
M  V30 3122 C 309.999 2.94386 2.02661 0
M  V30 3123 S 311.558 3.33651 2.84996 0
M  V30 3124 H 308.376 0.605433 0.372789 0
M  V30 3125 H 310.978 1.91722 0.38248 0
M  V30 3126 H 309.682 3.83669 1.45691 0
M  V30 3127 H 309.213 2.77197 2.79152 0
M  V30 3128 H 311.228 2.86645 4.0503 0
M  V30 3129 N 310.401 -0.613514 1.45168 0
M  V30 3130 C 311.349 -1.74572 1.53712 0
M  V30 3131 C 312.343 -1.64426 0.407505 0
M  V30 3132 O 313.549 -1.70291 0.583176 0
M  V30 3133 H 309.924 -0.576641 0.48269 0
M  V30 3134 H 311.895 -1.64492 2.48968 0
M  V30 3135 C 310.644 -3.12943 1.51532 0
M  V30 3136 H 309.967 -3.21407 2.37776 0
M  V30 3137 H 311.407 -3.9201 1.61569 0
M  V30 3138 C 309.866 -3.36053 0.238798 0
M  V30 3139 O 310.396 -3.95837 -0.6838 0
M  V30 3140 N 308.602 -2.9028 0.136359 0
M  V30 3141 H 308.149 -2.41811 0.887999 0
M  V30 3142 H 308.107 -3.06116 -0.716944 0
M  V30 3143 N 311.879 -1.3236 -0.855495 0
M  V30 3144 C 313.128 -1.22226 -1.60448 0
M  V30 3145 C 313.441 0.214733 -1.94418 0
M  V30 3146 O 314.647 0.437917 -2.67945 0
M  V30 3147 C 313.103 -2.14063 -2.89318 0
M  V30 3148 C 312.711 -3.62839 -2.62777 0
M  V30 3149 C 314.455 -2.12764 -3.67331 0
M  V30 3150 C 312.362 -4.4664 -3.87643 0
M  V30 3151 H 311.292 -0.453904 -0.602069 0
M  V30 3152 H 313.943 -1.57314 -0.944698 0
M  V30 3153 H 312.325 -1.71889 -3.5675 0
M  V30 3154 H 313.499 -4.1335 -2.03662 0
M  V30 3155 H 311.814 -3.66261 -1.98096 0
M  V30 3156 H 314.411 -2.72611 -4.59987 0
M  V30 3157 H 314.754 -1.11841 -4.00995 0
M  V30 3158 H 315.287 -2.53214 -3.06802 0
M  V30 3159 H 312.026 -5.48373 -3.5912 0
M  V30 3160 H 311.546 -4.0088 -4.46156 0
M  V30 3161 H 313.225 -4.59597 -4.55389 0
M  V30 3162 N 313.357 1.07166 -1.15556 0
M  V30 3163 C 314.582 1.84053 -0.955988 0
M  V30 3164 C 315.007 1.81586 0.490739 0
M  V30 3165 O 314.365 1.21018 1.34997 0
M  V30 3166 C 314.413 3.28957 -1.47714 0
M  V30 3167 O 313.517 4.06795 -0.677593 0
M  V30 3168 H 312.858 0.569842 -0.340847 0
M  V30 3169 H 315.388 1.35178 -1.53584 0
M  V30 3170 H 315.398 3.79788 -1.4908 0
M  V30 3171 H 314.073 3.30068 -2.53037 0
M  V30 3172 H 312.65 3.6561 -0.733721 0
M  V30 3173 N 314.835 0.952656 1.25548 0
M  V30 3174 C 316.06 0.623025 1.97821 0
M  V30 3175 C 316.485 -0.7976 1.70352 0
M  V30 3176 O 315.843 -1.53905 0.958283 0
M  V30 3177 C 315.891 0.885532 3.49558 0
M  V30 3178 O 314.995 -0.0366641 4.12384 0
M  V30 3179 H 314.336 0.237082 0.620232 0
M  V30 3180 H 316.866 1.27871 1.59719 0
M  V30 3181 H 316.876 0.811009 3.99858 0
M  V30 3182 H 315.551 1.92094 3.6888 0
M  V30 3183 H 314.128 0.0898954 3.72792 0
M  V30 3184 N 316.313 -1.40141 0.720998 0
M  V30 3185 C 317.561 -2.0039 0.262323 0
M  V30 3186 C 317.882 -1.57469 -1.15015 0
M  V30 3187 O 317.152 -0.816582 -1.78069 0
M  V30 3188 H 315.732 -0.741063 0.093996 0
M  V30 3189 H 318.394 -1.71398 0.927835 0
M  V30 3190 H 317.49 -3.10658 0.299671 0
M  V30 3191 N 317.792 -0.46758 -1.50504 0
M  V30 3192 C 318.702 0.33382 -2.32213 0
M  V30 3193 C 319.718 0.999323 -1.42441 0
M  V30 3194 O 320.894 0.988068 -1.75497 0
M  V30 3195 C 317.959 1.4035 -3.17022 0
M  V30 3196 C 317.02 0.754961 -4.2261 0
M  V30 3197 C 316.253 1.77367 -5.03365 0
M  V30 3198 O 316.476 2.99976 -4.8515 0
M  V30 3199 O 315.41 1.34744 -5.86624 0
M  V30 3200 H 319.236 -0.334067 -3.01857 0
M  V30 3201 H 316.821 -0.229496 -1.47627 0
M  V30 3202 H 318.703 2.02318 -3.69656 0
M  V30 3203 H 317.378 2.05492 -2.5011 0
M  V30 3204 H 316.285 0.0964244 -3.73976 0
M  V30 3205 H 317.618 0.146545 -4.91982 0
M  V30 3206 N 319.27 1.56325 -0.20005 0
M  V30 3207 C 320.203 2.15234 0.758267 0
M  V30 3208 C 321.181 1.09046 1.20614 0
M  V30 3209 O 322.365 1.37186 1.29276 0
M  V30 3210 C 319.492 2.71524 2.02466 0
M  V30 3211 C 318.538 3.90345 1.71852 0
M  V30 3212 S 319.371 5.28513 0.862249 0
M  V30 3213 C 320.527 5.88227 2.13868 0
M  V30 3214 H 320.76 2.96183 0.2575 0
M  V30 3215 H 318.293 1.54393 0.0150099 0
M  V30 3216 H 320.251 3.04598 2.75191 0
M  V30 3217 H 318.912 1.90607 2.49655 0
M  V30 3218 H 318.105 4.28158 2.65888 0
M  V30 3219 H 317.707 3.58306 1.07205 0
M  V30 3220 H 319.999 6.02891 3.09076 0
M  V30 3221 H 320.942 6.84714 1.80479 0
M  V30 3222 H 321.35 5.16874 2.2694 0
M  V30 3223 N 320.748 -0.0735177 1.57428 0
M  V30 3224 C 321.68 -1.11423 2.00294 0
M  V30 3225 C 322.693 -1.35084 0.908637 0
M  V30 3226 O 323.882 -1.33355 1.18654 0
M  V30 3227 C 320.982 -2.46548 2.32523 0
M  V30 3228 C 320.155 -2.42867 3.63778 0
M  V30 3229 C 319.214 -3.60087 3.83697 0
M  V30 3230 O 318.24 -3.41595 4.55304 0
M  V30 3231 N 319.442 -4.80372 3.25919 0
M  V30 3232 H 322.207 -0.749206 2.90184 0
M  V30 3233 H 319.768 -0.262195 1.59763 0
M  V30 3234 H 321.76 -3.23607 2.43024 0
M  V30 3235 H 320.33 -2.75059 1.48531 0
M  V30 3236 H 319.55 -1.51206 3.64047 0
M  V30 3237 H 320.838 -2.37506 4.49965 0
M  V30 3238 H 320.236 -4.983 2.67795 0
M  V30 3239 H 318.793 -5.54948 3.41871 0
M  V30 3240 N 322.226 -1.5378 -0.344866 0
M  V30 3241 C 323.173 -1.81676 -1.42346 0
M  V30 3242 C 324.143 -0.662376 -1.52321 0
M  V30 3243 O 325.328 -0.906675 -1.67881 0
M  V30 3244 C 322.468 -2.03087 -2.79015 0
M  V30 3245 C 321.581 -3.30799 -2.77842 0
M  V30 3246 C 320.716 -3.42285 -4.0622 0
M  V30 3247 C 319.755 -4.6395 -3.9927 0
M  V30 3248 N 318.892 -4.72477 -5.19336 0
M  V30 3249 H 323.732 -2.73703 -1.17858 0
M  V30 3250 H 321.269 -1.35568 -0.570949 0
M  V30 3251 H 323.227 -2.1349 -3.58438 0
M  V30 3252 H 321.857 -1.14375 -3.01858 0
M  V30 3253 H 320.909 -3.29244 -1.90533 0
M  V30 3254 H 322.221 -4.20314 -2.68584 0
M  V30 3255 H 321.375 -3.52113 -4.94066 0
M  V30 3256 H 320.114 -2.50823 -4.18258 0
M  V30 3257 H 319.119 -4.54201 -3.09809 0
M  V30 3258 H 320.344 -5.56775 -3.88817 0
M  V30 3259 H 318.29 -3.83924 -5.3192 0
M  V30 3260 H 318.207 -5.55927 -5.12329 0
M  V30 3261 H 319.475 -4.86613 -6.08957 0
M  V30 3262 N 323.704 0.605807 -1.45491 0
M  V30 3263 C 324.952 1.36207 -1.49305 0
M  V30 3264 C 325.273 1.94519 -0.136863 0
M  V30 3265 O 324.543 1.77261 0.833983 0
M  V30 3266 H 323.123 0.50565 -0.549843 0
M  V30 3267 H 325.785 0.711239 -1.81459 0
M  V30 3268 H 324.881 2.18058 -2.23287 0
M  V30 3269 N 325.182 1.32811 0.848464 0
M  V30 3270 C 326.112 1.24882 1.97299 0
M  V30 3271 C 327.093 0.131357 1.69592 0
M  V30 3272 O 328.278 0.319553 1.91553 0
M  V30 3273 C 325.408 0.97746 3.33261 0
M  V30 3274 C 324.362 2.05682 3.75338 0
M  V30 3275 C 323.688 1.63777 5.09 0
M  V30 3276 C 324.988 3.47254 3.90144 0
M  V30 3277 H 326.682 2.18966 2.04191 0
M  V30 3278 H 324.228 1.05413 0.981029 0
M  V30 3279 H 326.181 0.908513 4.1149 0
M  V30 3280 H 324.905 0.000980011 3.266 0
M  V30 3281 H 323.564 2.11603 2.99366 0
M  V30 3282 H 323.212 0.648569 4.98801 0
M  V30 3283 H 322.912 2.36 5.38124 0
M  V30 3284 H 324.436 1.5833 5.89715 0
M  V30 3285 H 325.85 3.43888 4.58709 0
M  V30 3286 H 324.247 4.1788 4.30693 0
M  V30 3287 H 325.317 3.86462 2.92874 0
M  V30 3288 N 326.66 -1.06551 1.16123 0
M  V30 3289 C 327.906 -1.79719 0.952505 0
M  V30 3290 C 328.261 -1.85396 -0.514385 0
M  V30 3291 O 327.554 -1.33263 -1.37665 0
M  V30 3292 C 327.748 -3.23911 1.51052 0
M  V30 3293 C 327.577 -3.32284 3.03013 0
M  V30 3294 C 326.347 -3.42371 3.71632 0
M  V30 3295 C 328.545 -3.22363 4.00732 0
M  V30 3296 N 326.527 -3.39732 5.11327 0
M  V30 3297 C 327.898 -3.26937 5.26794 0
M  V30 3298 C 329.953 -3.0623 3.92591 0
M  V30 3299 C 328.656 -3.17035 6.45663 0
M  V30 3300 C 330.682 -2.97665 5.11028 0
M  V30 3301 C 330.044 -3.02858 6.35969 0
M  V30 3302 H 326.143 -0.670585 0.402293 0
M  V30 3303 H 328.727 -1.27125 1.4747 0
M  V30 3304 H 326.898 -3.74907 1.01484 0
M  V30 3305 H 328.63 -3.85242 1.2398 0
M  V30 3306 H 325.385 -3.47058 3.22254 0
M  V30 3307 H 325.809 -3.41919 5.84312 0
M  V30 3308 H 330.451 -3.01063 2.96852 0
M  V30 3309 H 328.169 -3.2096 7.41627 0
M  V30 3310 H 331.755 -2.86273 5.06497 0
M  V30 3311 H 330.635 -2.96286 7.26075 0
M  V30 3312 N 328.138 -0.959301 -1.25041 0
M  V30 3313 C 329.048 -0.489994 -2.29426 0
M  V30 3314 C 330.064 0.444944 -1.68215 0
M  V30 3315 O 331.24 0.320046 -1.98841 0
M  V30 3316 C 328.305 0.220309 -3.45999 0
M  V30 3317 C 327.366 -0.753418 -4.22637 0
M  V30 3318 C 326.599 -0.076918 -5.33645 0
M  V30 3319 O 326.822 1.13649 -5.58963 0
M  V30 3320 O 325.756 -0.764824 -5.97021 0
M  V30 3321 H 329.582 -1.35755 -2.71669 0
M  V30 3322 H 327.167 -0.725961 -1.30576 0
M  V30 3323 H 329.049 0.619677 -4.16819 0
M  V30 3324 H 327.724 1.06296 -3.0575 0
M  V30 3325 H 326.631 -1.20308 -3.54227 0
M  V30 3326 H 327.964 -1.56423 -4.66683 0
M  V30 3327 N 329.616 1.39756 -0.72842 0
M  V30 3328 C 330.548 2.29157 -0.0446202 0
M  V30 3329 C 331.561 1.46484 0.710367 0
M  V30 3330 O 332.75 1.69632 0.55562 0
M  V30 3331 C 329.85 3.24987 0.961071 0
M  V30 3332 C 329.023 4.36572 0.268967 0
M  V30 3333 C 328.082 5.12756 1.18184 0
M  V30 3334 O 327.108 5.6534 0.661794 0
M  V30 3335 N 328.31 5.23331 2.51206 0
M  V30 3336 H 331.075 2.88482 -0.812295 0
M  V30 3337 H 328.636 1.51265 -0.577098 0
M  V30 3338 H 330.628 3.72827 1.57423 0
M  V30 3339 H 329.198 2.66739 1.63 0
M  V30 3340 H 328.418 3.90694 -0.524574 0
M  V30 3341 H 329.706 5.08363 -0.210934 0
M  V30 3342 H 329.104 4.82116 2.9594 0
M  V30 3343 H 327.661 5.74634 3.07634 0
M  V30 3344 N 331.094 0.475555 1.50254 0
M  V30 3345 C 332.334 -0.0765802 2.04256 0
M  V30 3346 C 332.698 -1.36587 1.34937 0
M  V30 3347 O 333.899 -2.00066 1.79519 0
M  V30 3348 C 332.17 -0.251668 3.56513 0
M  V30 3349 S 333.729 -0.761716 4.32138 0
M  V30 3350 H 330.547 -0.0138456 0.710865 0
M  V30 3351 H 333.149 0.643714 1.84598 0
M  V30 3352 H 331.853 0.692404 4.04517 0
M  V30 3353 H 331.384 -0.997946 3.80532 0
M  V30 3354 H 333.399 -2.03451 4.52573 0
M  V30 3355 N 332.573 -1.56217 0.208337 0
M  V30 3356 C 333.505 -2.1695 -0.739276 0
M  V30 3357 C 334.518 -1.13492 -1.1672 0
M  V30 3358 O 335.707 -1.40529 -1.10063 0
M  V30 3359 C 332.807 -2.72755 -2.01142 0
M  V30 3360 C 331.98 -4.0125 -1.74118 0
M  V30 3361 C 331.039 -4.41749 -2.85909 0
M  V30 3362 O 330.065 -5.08912 -2.54946 0
M  V30 3363 N 331.267 -4.06342 -4.14568 0
M  V30 3364 H 334.032 -2.98893 -0.219837 0
M  V30 3365 H 331.593 -1.61878 0.0268445 0
M  V30 3366 H 333.585 -2.96826 -2.75094 0
M  V30 3367 H 332.155 -1.95191 -2.4417 0
M  V30 3368 H 331.375 -3.85173 -0.838775 0
M  V30 3369 H 332.663 -4.851 -1.53477 0
M  V30 3370 H 332.061 -3.52345 -4.42571 0
M  V30 3371 H 330.618 -4.35335 -4.85105 0
M  V30 3372 N 334.051 0.0651679 -1.57465 0
M  V30 3373 C 334.981 1.07693 -2.07182 0
M  V30 3374 C 335.962 1.39962 -0.966673 0
M  V30 3375 O 337.147 1.49475 -1.2398 0
M  V30 3376 C 334.277 2.3885 -2.52127 0
M  V30 3377 C 333.231 2.20917 -3.66579 0
M  V30 3378 C 332.557 3.57515 -3.97601 0
M  V30 3379 C 333.857 1.62493 -4.9638 0
M  V30 3380 H 335.551 0.663199 -2.91962 0
M  V30 3381 H 333.097 0.317569 -1.40455 0
M  V30 3382 H 335.05 3.09928 -2.85522 0
M  V30 3383 H 333.774 2.82215 -1.64384 0
M  V30 3384 H 332.433 1.52279 -3.33477 0
M  V30 3385 H 332.081 3.98463 -3.06979 0
M  V30 3386 H 331.781 3.46353 -4.74672 0
M  V30 3387 H 333.305 4.30013 -4.33499 0
M  V30 3388 H 334.719 2.23445 -5.27963 0
M  V30 3389 H 333.116 1.62009 -5.77818 0
M  V30 3390 H 334.186 0.587041 -4.81333 0
M  V30 3391 N 335.529 1.53961 0.336706 0
M  V30 3392 C 336.459 1.85417 1.41925 0
M  V30 3393 C 337.44 0.709856 1.5458 0
M  V30 3394 O 338.625 0.962396 1.68676 0
M  V30 3395 C 335.755 2.06985 2.78881 0
M  V30 3396 C 334.709 3.22813 2.81026 0
M  V30 3397 C 334.035 3.29727 4.20932 0
M  V30 3398 C 335.335 4.60767 2.45949 0
M  V30 3399 H 337.029 2.76079 1.15848 0
M  V30 3400 H 334.575 1.32839 0.555859 0
M  V30 3401 H 336.528 2.27575 3.54665 0
M  V30 3402 H 335.252 1.13061 3.06406 0
M  V30 3403 H 333.911 3.0209 2.07695 0
M  V30 3404 H 333.559 2.33385 4.45579 0
M  V30 3405 H 333.259 4.07566 4.23277 0
M  V30 3406 H 334.783 3.52536 4.98549 0
M  V30 3407 H 336.197 4.81325 3.11446 0
M  V30 3408 H 334.594 5.4106 2.59566 0
M  V30 3409 H 335.664 4.6391 1.41122 0
M  V30 3410 N 337.007 -0.598083 1.45811 0
M  V30 3411 C 337.954 -1.7082 1.55207 0
M  V30 3412 C 338.924 -1.61278 0.39732 0
M  V30 3413 O 340.109 -1.80717 0.612038 0
M  V30 3414 C 337.249 -3.09144 1.53376 0
M  V30 3415 C 336.362 -3.29423 2.79472 0
M  V30 3416 C 335.497 -4.57907 2.69248 0
M  V30 3417 C 334.536 -4.71476 3.90354 0
M  V30 3418 N 333.673 -5.9127 3.78608 0
M  V30 3419 H 338.513 -1.62125 2.50039 0
M  V30 3420 H 336.05 -0.790389 1.24062 0
M  V30 3421 H 338.008 -3.89186 1.50301 0
M  V30 3422 H 336.638 -3.16773 0.620876 0
M  V30 3423 H 335.69 -2.43091 2.92594 0
M  V30 3424 H 337.002 -3.3532 3.69272 0
M  V30 3425 H 336.156 -5.46157 2.64192 0
M  V30 3426 H 334.895 -4.54423 1.77063 0
M  V30 3427 H 333.9 -3.81648 3.95759 0
M  V30 3428 H 335.125 -4.76751 4.83617 0
M  V30 3429 H 333.071 -5.88813 2.89199 0
M  V30 3430 H 332.988 -5.98369 4.6205 0
M  V30 3431 H 334.256 -6.81992 3.77501 0
M  V30 3432 N 338.485 -1.33259 -0.841409 0
M  V30 3433 C 339.71 -1.2775 -1.63385 0
M  V30 3434 C 340.135 0.149188 -1.87507 0
M  V30 3435 O 339.493 1.10498 -1.43736 0
M  V30 3436 C 339.541 -2.05571 -2.96265 0
M  V30 3437 O 338.645 -1.41257 -3.87453 0
M  V30 3438 H 337.986 -0.439627 -0.497618 0
M  V30 3439 H 340.516 -1.75782 -1.04699 0
M  V30 3440 H 340.526 -2.16241 -3.45982 0
M  V30 3441 H 339.201 -3.09309 -2.7803 0
M  V30 3442 H 337.778 -1.39217 -3.45938 0
M  V30 3443 N 339.963 1.05934 -1.16686 0
M  V30 3444 C 341.191 1.8249 -0.974929 0
M  V30 3445 C 341.606 1.82679 0.476861 0
M  V30 3446 O 340.963 1.2486 1.33103 0
M  V30 3447 C 341.014 3.28943 -1.49929 0
M  V30 3448 O 340.735 3.28886 -2.89423 0
M  V30 3449 C 342.236 4.22215 -1.35089 0
M  V30 3450 H 339.456 0.575295 -0.345365 0
M  V30 3451 H 342 1.33631 -1.548 0
M  V30 3452 H 340.155 3.751 -0.968423 0
M  V30 3453 H 340.569 4.20493 -3.13506 0
M  V30 3454 H 342.043 5.22987 -1.76603 0
M  V30 3455 H 342.52 4.38195 -0.296935 0
M  V30 3456 H 343.126 3.81907 -1.87155 0
M  V30 3457 N 341.441 0.965919 1.2453 0
M  V30 3458 C 342.666 0.643971 1.97149 0
M  V30 3459 C 343.091 -0.779487 1.71189 0
M  V30 3460 O 342.449 -1.5288 0.974553 0
M  V30 3461 C 342.497 0.922557 3.48599 0
M  V30 3462 O 341.601 0.00707672 4.12399 0
M  V30 3463 H 340.942 0.243647 0.617683 0
M  V30 3464 H 343.472 1.29558 1.58353 0
M  V30 3465 H 343.482 0.853373 3.98976 0
M  V30 3466 H 342.157 1.95996 3.66822 0
M  V30 3467 H 340.734 0.12943 3.72675 0
M  V30 3468 N 342.919 -1.39368 0.735821 0
M  V30 3469 C 344.165 -2.00794 0.284544 0
M  V30 3470 C 344.498 -1.58255 -1.12557 0
M  V30 3471 O 343.773 -0.811819 -1.76748 0
M  V30 3472 C 344.056 -3.58011 0.387337 0
M  V30 3473 C 343.909 -4.10566 1.83728 0
M  V30 3474 C 345.228 -4.395 -0.22975 0
M  V30 3475 H 342.347 -0.729501 0.104866 0
M  V30 3476 H 344.989 -1.65564 0.93213 0
M  V30 3477 H 343.139 -3.88154 -0.164006 0
M  V30 3478 H 344.811 -3.91139 2.44556 0
M  V30 3479 H 343.054 -3.64095 2.35833 0
M  V30 3480 H 343.725 -5.19702 1.86047 0
M  V30 3481 H 346.201 -4.15406 0.240257 0
M  V30 3482 H 345.077 -5.48752 -0.127485 0
M  V30 3483 H 345.338 -4.22062 -1.3159 0
M  V30 3484 N 344.397 -0.483516 -1.5 0
M  V30 3485 C 345.644 0.0671597 -2.02389 0
M  V30 3486 C 345.972 1.38597 -1.36459 0
M  V30 3487 O 345.227 1.89634 -0.483458 0
M  V30 3488 C 345.526 0.286226 -3.56252 0
M  V30 3489 C 345.192 -0.952416 -4.40726 0
M  V30 3490 C 343.854 -1.29199 -4.63531 0
M  V30 3491 C 346.206 -1.77655 -4.89988 0
M  V30 3492 C 343.534 -2.45553 -5.32842 0
M  V30 3493 C 345.886 -2.93147 -5.60578 0
M  V30 3494 C 344.55 -3.27505 -5.81633 0
M  V30 3495 H 343.82 0.0245755 -0.740592 0
M  V30 3496 H 346.467 -0.640124 -1.80485 0
M  V30 3497 H 344.772 1.07587 -3.76739 0
M  V30 3498 H 346.469 0.726473 -3.94365 0
M  V30 3499 H 343.059 -0.677881 -4.23205 0
M  V30 3500 H 347.243 -1.52737 -4.72213 0
M  V30 3501 H 342.499 -2.72431 -5.47349 0
M  V30 3502 H 346.673 -3.57344 -5.97727 0
M  V30 3503 H 344.3 -4.1777 -6.35116 0
M  V30 3504 N 345.875 1.56104 -0.216619 0
M  V30 3505 C 346.838 2.18819 0.681962 0
M  V30 3506 C 347.838 1.14866 1.12528 0
M  V30 3507 O 349.028 1.40128 1.03488 0
M  V30 3508 C 346.16 2.80756 1.93362 0
M  V30 3509 H 347.353 2.99595 0.135254 0
M  V30 3510 H 344.906 1.56265 0.0330003 0
M  V30 3511 H 345.641 2.03837 2.52232 0
M  V30 3512 H 345.426 3.56876 1.62426 0
M  V30 3513 H 346.916 3.28844 2.57393 0
M  V30 3514 N 347.353 -0.0568162 1.57498 0
M  V30 3515 C 348.769 -0.411933 1.54192 0
M  V30 3516 C 348.969 -1.78287 0.938942 0
M  V30 3517 O 348.025 -2.46483 0.547919 0
M  V30 3518 C 349.338 -0.339244 2.9878 0
M  V30 3519 C 350.886 -0.418348 3.10192 0
M  V30 3520 C 351.361 -0.375407 4.56459 0
M  V30 3521 N 352.852 -0.435038 4.61153 0
M  V30 3522 C 353.587 -0.424265 5.71828 0
M  V30 3523 N 353.083 -0.367418 6.91825 0
M  V30 3524 N 354.876 -0.471938 5.60115 0
M  V30 3525 H 347.027 0.840684 1.95055 0
M  V30 3526 H 349.29 0.316987 0.893433 0
M  V30 3527 H 348.996 0.601742 3.46514 0
M  V30 3528 H 348.87 -1.14371 3.59443 0
M  V30 3529 H 351.257 -1.34976 2.62422 0
M  V30 3530 H 351.338 0.414962 2.52412 0
M  V30 3531 H 350.982 0.552219 5.04889 0
M  V30 3532 H 350.912 -1.22645 5.12119 0
M  V30 3533 H 353.403 -0.482612 3.74806 0
M  V30 3534 H 353.716 -0.363535 7.71944 0
M  V30 3535 H 352.061 -0.333879 6.94198 0
M  V30 3536 H 355.252 -0.514145 4.65268 0
M  V30 3537 H 355.425 -0.460073 6.46365 0
M  V30 3538 N 348.832 -1.54138 -0.328536 0
M  V30 3539 C 350.072 -1.73827 -1.07534 0
M  V30 3540 C 350.436 -0.498777 -1.85408 0
M  V30 3541 O 351.637 -0.572937 -2.62623 0
M  V30 3542 C 349.908 -2.97573 -1.97952 0
M  V30 3543 S 351.467 -3.38143 -2.79652 0
M  V30 3544 H 348.285 -0.611287 -0.36311 0
M  V30 3545 H 350.887 -1.92306 -0.351931 0
M  V30 3546 H 349.591 -3.85939 -1.39569 0
M  V30 3547 H 349.122 -2.81603 -2.74706 0
M  V30 3548 H 351.137 -2.93052 -4.00418 0
M  V30 3549 N 350.31 0.590341 -1.46126 0
M  V30 3550 C 351.26 1.69466 -1.5253 0
M  V30 3551 C 352.244 1.56179 -0.386917 0
M  V30 3552 O 353.436 1.65223 -0.634858 0
M  V30 3553 C 350.565 3.08245 -1.5113 0
M  V30 3554 C 349.651 3.26856 -2.70233 0
M  V30 3555 N 350.042 3.15657 -3.95214 0
M  V30 3556 C 348.34 3.57775 -2.66296 0
M  V30 3557 C 349.041 3.36066 -4.74799 0
M  V30 3558 N 348.017 3.60865 -4.06543 0
M  V30 3559 H 351.819 1.59326 -2.46966 0
M  V30 3560 H 349.333 0.79414 -1.41659 0
M  V30 3561 H 351.33 3.87492 -1.53804 0
M  V30 3562 H 349.99 3.19521 -0.577636 0
M  V30 3563 H 351.001 2.93686 -4.26578 0
M  V30 3564 H 347.678 3.75782 -1.81918 0
M  V30 3565 H 349.068 3.32655 -5.83772 0
M  V30 3566 N 351.788 1.33704 0.83433 0
M  V30 3567 C 353.199 1.22813 1.4062 0
M  V30 3568 C 353.55 -0.151107 1.95617 0
M  V30 3569 O 352.675 -1.05092 1.89168 0
M  V30 3570 C 353.27 2.22355 2.55624 0
M  V30 3571 C 351.829 2.1529 3.08751 0
M  V30 3572 C 350.976 2.09589 1.8157 0
M  V30 3573 H 353.927 1.45236 0.639702 0
M  V30 3574 H 353.948 1.83391 3.33389 0
M  V30 3575 H 353.46 3.22728 2.15566 0
M  V30 3576 H 351.561 1.18235 3.53343 0
M  V30 3577 H 351.674 3.06038 3.68616 0
M  V30 3578 H 350.038 1.55134 2.02004 0
M  V30 3579 H 350.821 3.11777 1.43701 0
M  V30 3580 N 353.266 -1.05314 1.17247 0
M  V30 3581 C 354.196 -2.1498 0.911362 0
M  V30 3582 C 355.177 -1.69471 -0.146169 0
M  V30 3583 O 356.362 -1.942 0.003812 0
M  V30 3584 C 353.492 -3.4472 0.422528 0
M  V30 3585 C 352.446 -4.03789 1.4191 0
M  V30 3586 C 351.772 -5.28858 0.788274 0
M  V30 3587 C 353.072 -4.41418 2.7919 0
M  V30 3588 H 354.766 -2.3708 1.82848 0
M  V30 3589 H 352.312 -1.13938 0.880569 0
M  V30 3590 H 354.265 -4.20787 0.227289 0
M  V30 3591 H 352.989 -3.22269 -0.530123 0
M  V30 3592 H 351.648 -3.2979 1.60106 0
M  V30 3593 H 351.296 -5.02709 -0.171173 0
M  V30 3594 H 350.996 -5.69338 1.45353 0
M  V30 3595 H 352.52 -6.07612 0.603282 0
M  V30 3596 H 353.934 -5.08524 2.64719 0
M  V30 3597 H 352.331 -4.92913 3.42282 0
M  V30 3598 H 353.401 -3.51819 3.33693 0
M  V30 3599 N 354.744 -0.972509 -1.24016 0
M  V30 3600 C 355.99 -0.637978 -1.92504 0
M  V30 3601 C 356.323 0.825383 -1.75787 0
M  V30 3602 O 355.598 1.59442 -1.11393 0
M  V30 3603 C 355.881 -1.01942 -3.45369 0
M  V30 3604 C 355.734 -2.53983 -3.71231 0
M  V30 3605 C 357.053 -0.55751 -4.36555 0
M  V30 3606 H 354.172 -0.233248 -0.699117 0
M  V30 3607 H 356.814 -1.21238 -1.46292 0
M  V30 3608 H 354.964 -0.530656 -3.84859 0
M  V30 3609 H 356.636 -3.10374 -3.41271 0
M  V30 3610 H 354.879 -2.96968 -3.16216 0
M  V30 3611 H 355.55 -2.75723 -4.78206 0
M  V30 3612 H 358.026 -0.977029 -4.04467 0
M  V30 3613 H 356.902 -0.85292 -5.42233 0
M  V30 3614 H 357.163 0.542328 -4.38761 0
M  V30 3615 N 356.222 1.38976 -0.743202 0
M  V30 3616 C 357.499 1.94351 -0.220705 0
M  V30 3617 C 357.879 1.67935 1.2791 0
M  V30 3618 O 357.227 1.01211 2.04862 0
M  V30 3619 C 357.437 3.44426 -0.563171 0
M  V30 3620 C 358.785 4.2144 -0.517046 0
M  V30 3621 O 359.809 3.52661 -0.500846 0
M  V30 3622 O 358.668 5.44032 -0.518806 0
M  V30 3623 H 355.762 0.825879 -0.043047 0
M  V30 3624 H 358.308 1.48429 -0.822618 0
M  V30 3625 H 357.08 3.5712 -1.59941 0
M  V30 3626 H 356.703 3.97543 0.0672883 0
M  V30 3627 N 357.7 0.491464 1.49741 0
M  V30 3628 C 359.111 0.0413169 1.86654 0
M  V30 3629 C 359.462 -1.36985 1.40462 0
M  V30 3630 O 358.587 -2.01917 0.778354 0
M  V30 3631 C 359.182 0.0682023 3.38731 0
M  V30 3632 C 357.741 -0.32656 3.74981 0
M  V30 3633 C 356.888 0.444888 2.73708 0
M  V30 3634 H 359.839 0.704733 1.42194 0
M  V30 3635 H 359.86 -0.729322 3.73445 0
M  V30 3636 H 359.372 1.09539 3.72321 0
M  V30 3637 H 357.473 -1.35734 3.46997 0
M  V30 3638 H 357.586 -0.013741 4.79098 0
M  V30 3639 H 355.95 -0.104062 2.54487 0
M  V30 3640 H 356.733 1.47197 3.10142 0
M  V30 3641 N 359.178 -1.55987 0.224894 0
M  V30 3642 C 360.088 -2.24066 -0.69511 0
M  V30 3643 C 361.104 -1.24939 -1.21104 0
M  V30 3644 O 362.28 -1.5776 -1.25195 0
M  V30 3645 C 359.345 -2.90983 -1.88493 0
M  V30 3646 C 358.406 -4.05462 -1.41064 0
M  V30 3647 C 357.639 -4.69179 -2.54375 0
M  V30 3648 O 357.862 -4.31895 -3.72589 0
M  V30 3649 O 356.796 -5.58108 -2.25386 0
M  V30 3650 H 360.622 -3.03353 -0.145149 0
M  V30 3651 H 358.207 -1.49399 -0.00569476 0
M  V30 3652 H 360.089 -3.33209 -2.57972 0
M  V30 3653 H 358.764 -2.14653 -2.42293 0
M  V30 3654 H 357.671 -3.67798 -0.683774 0
M  V30 3655 H 359.004 -4.83545 -0.918985 0
M  V30 3656 N 360.656 0.0484629 -1.57525 0
M  V30 3657 C 362.067 0.597486 -1.76881 0
M  V30 3658 C 362.418 1.76664 -0.853475 0
M  V30 3659 O 361.543 2.16357 -0.0433656 0
M  V30 3660 C 362.138 1.09066 -3.20765 0
M  V30 3661 C 360.697 1.58535 -3.41385 0
M  V30 3662 C 359.844 0.514868 -2.72478 0
M  V30 3663 H 362.795 -0.177758 -1.57701 0
M  V30 3664 H 362.816 1.95875 -3.2621 0
M  V30 3665 H 362.328 0.239521 -3.8736 0
M  V30 3666 H 360.429 2.45898 -2.79937 0
M  V30 3667 H 360.542 1.64622 -4.49929 0
M  V30 3668 H 358.906 0.965407 -2.35695 0
M  V30 3669 H 359.689 -0.32648 -3.41744 0
M  V30 3670 N 362.134 1.5431 0.320358 0
M  V30 3671 C 363.381 1.72668 1.05792 0
M  V30 3672 C 363.709 0.502084 1.87908 0
M  V30 3673 O 362.964 -0.516149 1.88771 0
M  V30 3674 C 363.263 2.95639 2.00828 0
M  V30 3675 C 362.929 4.30265 1.34843 0
M  V30 3676 C 361.591 4.66865 1.16578 0
M  V30 3677 C 363.943 5.13801 0.875095 0
M  V30 3678 C 361.271 5.84597 0.496336 0
M  V30 3679 C 363.623 6.32219 0.219463 0
M  V30 3680 C 362.287 6.67495 0.0246915 0
M  V30 3681 H 361.557 0.631837 0.387121 0
M  V30 3682 H 364.204 1.88552 0.334735 0
M  V30 3683 H 362.509 2.74456 2.79609 0
M  V30 3684 H 364.206 3.07038 2.57932 0
M  V30 3685 H 360.796 4.01472 1.50061 0
M  V30 3686 H 364.98 4.86039 1.00398 0
M  V30 3687 H 360.236 6.10486 0.334264 0
M  V30 3688 H 364.41 6.96227 -0.155291 0
M  V30 3689 H 362.037 7.5858 -0.496065 0
M  V30 3690 N 363.613 -0.582584 1.46437 0
M  V30 3691 C 364.859 -1.34278 1.51978 0
M  V30 3692 C 365.192 -1.93446 0.170973 0
M  V30 3693 O 364.467 -1.76481 -0.817608 0
M  V30 3694 C 364.75 -2.47203 2.61845 0
M  V30 3695 C 364.603 -1.93069 4.06257 0
M  V30 3696 C 365.922 -3.49247 2.67795 0
M  V30 3697 H 363.041 -0.486876 0.553282 0
M  V30 3698 H 365.683 -0.654437 1.78374 0
M  V30 3699 H 363.833 -3.0592 2.39469 0
M  V30 3700 H 365.505 -1.38808 4.3992 0
M  V30 3701 H 363.748 -1.23898 4.1573 0
M  V30 3702 H 364.419 -2.74586 4.7886 0
M  V30 3703 H 366.895 -3.00411 2.8791 0
M  V30 3704 H 365.771 -4.25719 3.46489 0
M  V30 3705 H 366.032 -4.06482 1.73852 0
M  V30 3706 N 365.091 -1.34144 -0.827227 0
M  V30 3707 C 366.054 -1.25264 -1.91942 0
M  V30 3708 C 367.054 -0.168866 -1.59911 0
M  V30 3709 O 368.244 -0.421198 -1.69031 0
M  V30 3710 C 365.376 -0.932952 -3.27885 0
M  V30 3711 H 366.569 -2.22357 -2.0124 0
M  V30 3712 H 364.122 -1.1837 -1.0207 0
M  V30 3713 H 364.857 0.0349917 -3.24281 0
M  V30 3714 H 364.642 -1.71682 -3.52516 0
M  V30 3715 H 366.132 -0.895874 -4.07877 0
M  V30 3716 N 366.569 1.04691 -1.17803 0
M  V30 3717 C 367.499 2.14494 -0.92275 0
M  V30 3718 C 368.48 1.69546 0.137179 0
M  V30 3719 O 369.665 1.94195 -0.0141108 0
M  V30 3720 C 366.795 3.44491 -0.440803 0
M  V30 3721 C 365.749 4.03031 -1.4405 0
M  V30 3722 C 365.075 5.28432 -0.81631 0
M  V30 3723 C 366.375 4.39932 -2.81527 0
M  V30 3724 H 368.069 2.36107 -1.84103 0
M  V30 3725 H 365.615 1.1347 -0.886599 0
M  V30 3726 H 367.568 4.2066 -0.249602 0
M  V30 3727 H 366.292 3.22546 0.513025 0
M  V30 3728 H 364.951 3.28937 -1.61853 0
M  V30 3729 H 364.599 5.02792 0.144511 0
M  V30 3730 H 364.299 5.68559 -1.48371 0
M  V30 3731 H 365.823 6.07284 -0.635496 0
M  V30 3732 H 367.237 5.07113 -2.67412 0
M  V30 3733 H 365.634 4.9109 -3.44892 0
M  V30 3734 H 366.704 3.50045 -3.35554 0
M  V30 3735 N 368.047 0.979072 1.23499 0
M  V30 3736 C 369.287 0.655228 1.93613 0
M  V30 3737 C 369.651 -0.796336 1.74707 0
M  V30 3738 O 370.852 -1.23094 2.38959 0
M  V30 3739 C 369.123 1.03337 3.42135 0
M  V30 3740 S 370.682 0.825793 4.3096 0
M  V30 3741 H 367.5 0.240004 0.669267 0
M  V30 3742 H 370.102 1.25843 1.49612 0
M  V30 3743 H 368.806 2.08646 3.53405 0
M  V30 3744 H 368.337 0.421397 3.91137 0
M  V30 3745 H 370.352 -0.290991 4.95346 0
M  V30 3746 N 369.525 -1.3858 0.750561 0
M  V30 3747 C 370.435 -2.34278 0.122825 0
M  V30 3748 C 371.451 -1.59116 -0.704131 0
M  V30 3749 O 372.627 -1.91326 -0.628987 0
M  V30 3750 C 369.692 -3.38221 -0.762086 0
M  V30 3751 C 368.753 -4.29227 0.078896 0
M  V30 3752 C 367.986 -5.28205 -0.763874 0
M  V30 3753 O 368.209 -5.34112 -2.00201 0
M  V30 3754 O 367.143 -6.01618 -0.18428 0
M  V30 3755 H 370.969 -2.89649 0.913088 0
M  V30 3756 H 368.554 -1.40374 0.511417 0
M  V30 3757 H 370.436 -4.01872 -1.26793 0
M  V30 3758 H 369.111 -2.85211 -1.5309 0
M  V30 3759 H 368.018 -3.68747 0.630621 0
M  V30 3760 H 369.351 -4.85484 0.810289 0
M  V30 3761 N 371.003 -0.499398 -1.49478 0
M  V30 3762 C 371.95 0.279881 -2.29097 0
M  V30 3763 C 372.92 0.961805 -1.3542 0
M  V30 3764 O 374.105 0.968777 -1.64376 0
M  V30 3765 C 371.245 1.33932 -3.18051 0
M  V30 3766 C 370.358 0.669333 -4.26783 0
M  V30 3767 C 369.493 1.70907 -5.02955 0
M  V30 3768 C 368.532 1.02087 -6.03527 0
M  V30 3769 N 367.669 2.00474 -6.7287 0
M  V30 3770 H 372.509 -0.405317 -2.95231 0
M  V30 3771 H 370.046 -0.211726 -1.45568 0
M  V30 3772 H 372.004 1.96553 -3.67998 0
M  V30 3773 H 370.634 1.9933 -2.53904 0
M  V30 3774 H 369.686 -0.0701234 -3.80335 0
M  V30 3775 H 370.998 0.127503 -4.98637 0
M  V30 3776 H 370.152 2.41037 -5.56764 0
M  V30 3777 H 368.891 2.28476 -4.30871 0
M  V30 3778 H 367.896 0.305338 -5.48951 0
M  V30 3779 H 369.121 0.451708 -6.77596 0
M  V30 3780 H 367.067 2.57007 -6.03559 0
M  V30 3781 H 366.984 1.51353 -7.40694 0
M  V30 3782 H 368.252 2.69897 -7.31284 0
M  V30 3783 N 372.481 1.55866 -0.233164 0
M  V30 3784 C 373.709 2.02998 0.399905 0
M  V30 3785 C 374.124 1.11274 1.52524 0
M  V30 3786 O 373.481 0.124528 1.82075 0
M  V30 3787 C 373.532 3.4958 0.920639 0
M  V30 3788 O 373.253 4.37808 -0.159834 0
M  V30 3789 C 374.754 4.12411 1.62578 0
M  V30 3790 H 371.974 0.664006 0.0966281 0
M  V30 3791 H 374.518 2.0143 -0.353013 0
M  V30 3792 H 372.673 3.51727 1.62379 0
M  V30 3793 H 373.087 5.23981 0.23337 0
M  V30 3794 H 374.561 5.16711 1.94201 0
M  V30 3795 H 375.038 3.5809 2.54299 0
M  V30 3796 H 375.644 4.14148 0.967553 0
M  V30 3797 N 373.959 -0.0401083 1.57549 0
M  V30 3798 C 374.889 -1.04384 2.08869 0
M  V30 3799 C 375.87 -1.38407 0.988817 0
M  V30 3800 O 377.055 -1.47483 1.26342 0
M  V30 3801 C 374.185 -2.34808 2.55895 0
M  V30 3802 C 373.139 -2.15057 3.70047 0
M  V30 3803 C 372.465 -3.51145 4.03239 0
M  V30 3804 C 373.765 -1.54576 4.98902 0
M  V30 3805 H 375.459 -0.616666 2.92981 0
M  V30 3806 H 373.005 -0.295184 1.40942 0
M  V30 3807 H 374.958 -3.05346 2.90417 0
M  V30 3808 H 373.682 -2.79565 1.68853 0
M  V30 3809 H 372.341 -1.46954 3.35857 0
M  V30 3810 H 371.989 -3.93529 3.13279 0
M  V30 3811 H 371.689 -3.38758 4.80122 0
M  V30 3812 H 373.213 -4.23062 4.40285 0
M  V30 3813 H 374.627 -2.15017 5.31451 0
M  V30 3814 H 373.024 -1.52796 5.80322 0
M  V30 3815 H 374.094 -0.51039 4.82206 0
M  V30 3816 N 375.437 -1.54477 -0.31217 0
M  V30 3817 C 376.677 -1.74958 -1.05684 0
M  V30 3818 C 377.041 -0.518414 -1.84869 0
M  V30 3819 O 378.242 -0.600759 -2.62001 0
M  V30 3820 C 376.513 -2.99656 -1.94785 0
M  V30 3821 S 378.072 -3.4109 -2.76049 0
M  V30 3822 H 374.89 -0.615104 -0.356606 0
M  V30 3823 H 377.492 -1.92669 -0.331514 0
M  V30 3824 H 376.196 -3.87397 -1.35468 0
M  V30 3825 H 375.727 -2.845 -2.71704 0
M  V30 3826 H 377.742 -2.97283 -3.97287 0
M  V30 3827 N 376.915 0.57481 -1.46744 0
M  V30 3828 C 377.825 1.711 -1.60505 0
M  V30 3829 C 378.841 1.67008 -0.488307 0
M  V30 3830 O 380.017 1.86774 -0.753495 0
M  V30 3831 C 377.082 3.07608 -1.59932 0
M  V30 3832 C 376.143 3.22904 -2.82898 0
M  V30 3833 C 375.376 4.529 -2.82343 0
M  V30 3834 O 375.599 5.37278 -1.91542 0
M  V30 3835 O 374.533 4.71611 -3.73987 0
M  V30 3836 H 378.359 1.62436 -2.56609 0
M  V30 3837 H 375.944 0.742779 -1.29627 0
M  V30 3838 H 377.826 3.88877 -1.62336 0
M  V30 3839 H 376.501 3.16692 -0.669898 0
M  V30 3840 H 375.408 2.41099 -2.86046 0
M  V30 3841 H 376.741 3.18715 -3.75076 0
M  V30 3842 N 378.394 1.34581 0.820102 0
M  V30 3843 C 379.634 1.28448 1.58998 0
M  V30 3844 C 379.998 -0.142883 1.91468 0
M  V30 3845 O 381.199 -0.328422 2.66786 0
M  V30 3846 C 379.47 2.153 2.85273 0
M  V30 3847 S 381.029 2.26548 3.75794 0
M  V30 3848 H 377.847 0.456685 0.54494 0
M  V30 3849 H 380.449 1.69825 0.968487 0
M  V30 3850 H 379.153 3.18008 2.59421 0
M  V30 3851 H 378.684 1.7483 3.52417 0
M  V30 3852 H 380.699 1.44034 4.74835 0
M  V30 3853 N 379.872 -1.04064 1.18357 0
M  V30 3854 C 380.835 -2.10243 0.912707 0
M  V30 3855 C 381.835 -1.60477 -0.101928 0
M  V30 3856 O 383.025 -1.73703 0.131517 0
M  V30 3857 C 380.157 -3.38893 0.369387 0
M  V30 3858 H 381.35 -2.35706 1.85426 0
M  V30 3859 H 378.903 -1.20489 0.995594 0
M  V30 3860 H 379.638 -3.19094 -0.578776 0
M  V30 3861 H 379.423 -3.76331 1.1008 0
M  V30 3862 H 380.913 -4.17128 0.198575 0
M  V30 3863 N 381.35 -0.985608 -1.22978 0
M  V30 3864 C 382.598 -0.656087 -1.91154 0
M  V30 3865 C 382.919 0.813561 -1.77218 0
M  V30 3866 O 382.189 1.58244 -1.1548 0
M  V30 3867 H 380.769 -0.239674 -0.707506 0
M  V30 3868 H 383.431 -1.25054 -1.49491 0
M  V30 3869 H 382.527 -0.912253 -2.9847 0
M  V30 3870 N 382.828 1.3818 -0.7579 0
M  V30 3871 C 384.076 1.99624 -0.315361 0
M  V30 3872 C 384.397 1.60464 1.10799 0
M  V30 3873 O 383.667 0.863507 1.75842 0
M  V30 3874 H 382.247 0.73831 -0.113611 0
M  V30 3875 H 384.909 1.68878 -0.972952 0
M  V30 3876 H 384.005 3.09754 -0.381931 0
M  V30 3877 N 384.306 0.507319 1.49211 0
M  V30 3878 C 385.236 -0.256939 2.32082 0
M  V30 3879 C 386.217 -0.956609 1.40652 0
M  V30 3880 O 387.402 -0.946788 1.69557 0
M  V30 3881 C 384.532 -1.31802 3.21318 0
M  V30 3882 C 383.486 -0.737855 4.21592 0
M  V30 3883 C 382.812 -1.89992 4.99807 0
M  V30 3884 C 384.112 0.275325 5.21574 0
M  V30 3885 H 385.806 0.434798 2.96226 0
M  V30 3886 H 383.352 0.210546 1.42452 0
M  V30 3887 H 385.305 -1.86045 3.78107 0
M  V30 3888 H 384.029 -2.03903 2.5513 0
M  V30 3889 H 382.688 -0.217126 3.65956 0
M  V30 3890 H 382.336 -2.60877 4.30061 0
M  V30 3891 H 382.036 -1.51777 5.6766 0
M  V30 3892 H 383.56 -2.44657 5.59442 0
M  V30 3893 H 384.974 -0.179193 5.7302 0
M  V30 3894 H 383.371 0.573649 5.97352 0
M  V30 3895 H 384.441 1.18903 4.70096 0
M  V30 3896 N 385.784 -1.5574 0.241426 0
M  V30 3897 C 386.694 -2.2479 -0.671305 0
M  V30 3898 C 387.71 -1.26217 -1.19772 0
M  V30 3899 O 388.886 -1.59079 -1.23514 0
M  V30 3900 C 385.951 -2.92966 -1.85396 0
M  V30 3901 C 385.012 -4.06935 -1.36756 0
M  V30 3902 C 384.245 -4.71851 -2.49384 0
M  V30 3903 O 384.468 -4.35823 -3.67987 0
M  V30 3904 O 383.402 -5.60467 -2.19454 0
M  V30 3905 H 387.228 -3.0349 -0.112966 0
M  V30 3906 H 384.813 -1.49397 0.0101513 0
M  V30 3907 H 386.695 -3.35927 -2.54423 0
M  V30 3908 H 385.37 -2.17211 -2.40002 0
M  V30 3909 H 384.277 -3.68503 -0.644726 0
M  V30 3910 H 385.61 -4.84492 -0.867647 0
M  V30 3911 N 387.262 0.0317525 -1.57568 0
M  V30 3912 C 388.502 0.727979 -1.90997 0
M  V30 3913 C 388.866 1.72664 -0.839708 0
M  V30 3914 O 390.067 2.47092 -1.05825 0
M  V30 3915 C 388.338 1.38239 -3.29583 0
M  V30 3916 S 389.897 2.10814 -3.84841 0
M  V30 3917 H 386.715 0.241226 -0.668828 0
M  V30 3918 H 389.317 -0.0173037 -1.95492 0
M  V30 3919 H 388.021 0.642288 -4.05343 0
M  V30 3920 H 387.552 2.16628 -3.28384 0
M  V30 3921 H 389.567 3.3792 -3.63352 0
M  V30 3922 N 388.74 1.54641 0.303973 0
M  V30 3923 C 389.703 1.84646 1.35789 0
M  V30 3924 C 390.703 0.7192 1.4382 0
M  V30 3925 O 391.893 0.987491 1.43507 0
M  V30 3926 C 389.025 2.02407 2.74307 0
M  V30 3927 H 390.218 2.78829 1.10429 0
M  V30 3928 H 387.771 1.46658 0.540487 0
M  V30 3929 H 388.506 1.10502 3.04893 0
M  V30 3930 H 388.291 2.84453 2.69868 0
M  V30 3931 H 389.781 2.27002 3.50514 0
M  V30 3932 N 390.218 -0.567019 1.47046 0
M  V30 3933 C 391.458 -1.3355 1.54738 0
M  V30 3934 C 391.822 -1.90947 0.200772 0
M  V30 3935 O 393.023 -2.68367 0.152489 0
M  V30 3936 C 391.294 -2.42317 2.62712 0
M  V30 3937 S 392.853 -3.29383 2.89918 0
M  V30 3938 H 389.671 -0.454788 0.546525 0
M  V30 3939 H 392.273 -0.650191 1.84371 0
M  V30 3940 H 390.977 -1.98568 3.59164 0
M  V30 3941 H 390.508 -3.15601 2.34861 0
M  V30 3942 H 392.523 -4.41548 2.26384 0
M  V30 3943 N 391.696 -1.35014 -0.812953 0
M  V30 3944 C 393.107 -1.25035 -1.38648 0
M  V30 3945 C 393.458 0.119967 -1.95833 0
M  V30 3946 O 392.583 1.02069 -1.90816 0
M  V30 3947 C 393.178 -2.26394 -2.52054 0
M  V30 3948 C 391.737 -2.20175 -3.05287 0
M  V30 3949 C 390.884 -2.12451 -1.78213 0
M  V30 3950 H 393.835 -1.46235 -0.616516 0
M  V30 3951 H 393.856 -1.88672 -3.30429 0
M  V30 3952 H 393.368 -3.26116 -2.10404 0
M  V30 3953 H 391.469 -1.23841 -3.51417 0
M  V30 3954 H 391.582 -3.11863 -3.63701 0
M  V30 3955 H 389.946 -1.58328 -1.9951 0
M  V30 3956 H 390.729 -3.14024 -1.38723 0
M  V30 3957 N 393.175 1.03435 -1.18907 0
M  V30 3958 C 394.138 2.09756 -0.923844 0
M  V30 3959 C 395.138 1.60528 0.093416 0
M  V30 3960 O 396.328 1.73631 -0.140727 0
M  V30 3961 C 393.46 3.38692 -0.387354 0
M  V30 3962 H 394.653 2.34719 -1.86674 0
M  V30 3963 H 392.206 1.19959 -1.00197 0
M  V30 3964 H 392.941 3.19396 0.561845 0
M  V30 3965 H 392.726 3.75742 -1.12074 0
M  V30 3966 H 394.216 4.17016 -0.220694 0
M  V30 3967 N 394.653 0.992116 1.22453 0
M  V30 3968 C 395.583 0.561677 2.26644 0
M  V30 3969 C 396.564 -0.411055 1.65059 0
M  V30 3970 O 397.749 -0.301861 1.9184 0
M  V30 3971 C 394.879 -0.125247 3.47074 0
M  V30 3972 C 393.833 0.765948 4.21091 0
M  V30 3973 C 393.159 -0.0538484 5.34673 0
M  V30 3974 C 394.459 2.06242 4.79856 0
M  V30 3975 H 396.153 1.43259 2.62902 0
M  V30 3976 H 393.699 0.690283 1.26377 0
M  V30 3977 H 395.652 -0.437764 4.1912 0
M  V30 3978 H 394.376 -1.03069 3.0991 0
M  V30 3979 H 393.035 1.0621 3.50878 0
M  V30 3980 H 392.683 -0.960188 4.9375 0
M  V30 3981 H 392.383 0.539415 5.85119 0
M  V30 3982 H 393.907 -0.360477 6.09535 0
M  V30 3983 H 395.321 1.8139 5.43848 0
M  V30 3984 H 393.718 2.60444 5.40638 0
M  V30 3985 H 394.788 2.74167 3.99951 0
M  V30 3986 N 396.131 -1.37776 0.765217 0
M  V30 3987 C 397.061 -2.32945 0.160953 0
M  V30 3988 C 398.042 -1.55454 -0.690516 0
M  V30 3989 O 399.227 -1.83721 -0.629318 0
M  V30 3990 C 396.357 -3.39669 -0.724031 0
M  V30 3991 C 395.311 -4.27992 0.0256173 0
M  V30 3992 C 394.637 -5.25673 -0.978383 0
M  V30 3993 C 395.937 -5.08309 1.20082 0
M  V30 3994 H 397.631 -2.83728 0.955969 0
M  V30 3995 H 395.177 -1.36416 0.461149 0
M  V30 3996 H 397.13 -4.05219 -1.15652 0
M  V30 3997 H 395.854 -2.87396 -1.5515 0
M  V30 3998 H 394.513 -3.63964 0.438812 0
M  V30 3999 H 394.161 -4.69682 -1.80022 0
M  V30 4000 H 393.861 -5.85625 -0.481378 0
M  V30 4001 H 395.385 -5.94098 -1.40995 0
M  V30 4002 H 396.799 -5.67034 0.845307 0
M  V30 4003 H 395.196 -5.77554 1.62947 0
M  V30 4004 H 396.266 -4.41365 2.00811 0
M  V30 4005 N 397.609 -0.515225 -1.4894 0
M  V30 4006 C 398.519 0.259774 -2.33157 0
M  V30 4007 C 399.535 0.953501 -1.45548 0
M  V30 4008 O 400.711 0.931735 -1.78552 0
M  V30 4009 C 397.776 1.30193 -3.21326 0
M  V30 4010 C 396.837 0.620129 -4.24797 0
M  V30 4011 C 396.07 1.61263 -5.08753 0
M  V30 4012 O 396.293 2.84389 -4.94448 0
M  V30 4013 O 395.227 1.16013 -5.90614 0
M  V30 4014 H 399.053 -0.429932 -3.00641 0
M  V30 4015 H 396.638 -0.276346 -1.46822 0
M  V30 4016 H 398.52 1.90455 -3.75905 0
M  V30 4017 H 397.195 1.97431 -2.56521 0
M  V30 4018 H 396.102 -0.0226019 -3.74093 0
M  V30 4019 H 397.435 -0.0100493 -4.92199 0
M  V30 4020 N 399.087 1.5561 -0.249682 0
M  V30 4021 C 400.317 2.03116 0.377803 0
M  V30 4022 C 400.725 1.12822 1.51881 0
M  V30 4023 O 400.068 0.13562 1.83199 0
M  V30 4024 C 400.13 3.46866 0.944693 0
M  V30 4025 C 399.794 4.56955 -0.0644259 0
M  V30 4026 C 400.791 5.12485 -0.874957 0
M  V30 4027 C 398.476 5.01936 -0.19132 0
M  V30 4028 C 400.47 6.11491 -1.79881 0
M  V30 4029 C 398.157 6.00773 -1.11868 0
M  V30 4030 C 399.155 6.5543 -1.92095 0
M  V30 4031 O 398.843 7.5234 -2.83267 0
M  V30 4032 H 398.575 0.669489 0.0935961 0
M  V30 4033 H 401.129 2.02004 -0.371966 0
M  V30 4034 H 399.359 3.45136 1.74407 0
M  V30 4035 H 401.048 3.77856 1.48255 0
M  V30 4036 H 401.814 4.78564 -0.787523 0
M  V30 4037 H 397.693 4.59055 0.423072 0
M  V30 4038 H 401.237 6.54078 -2.42543 0
M  V30 4039 H 397.134 6.34114 -1.20703 0
M  V30 4040 H 397.902 7.69966 -2.7766 0
M  V30 4041 N 400.565 -0.0233959 1.57583 0
M  V30 4042 C 401.528 -1.00693 2.05897 0
M  V30 4043 C 402.528 -1.28693 0.964092 0
M  V30 4044 O 403.718 -1.23602 1.22753 0
M  V30 4045 C 400.85 -2.33825 2.4807 0
M  V30 4046 H 402.043 -0.589476 2.9405 0
M  V30 4047 H 399.596 -0.270354 1.53944 0
M  V30 4048 H 400.331 -2.80307 1.6309 0
M  V30 4049 H 400.116 -2.1483 3.2801 0
M  V30 4050 H 401.606 -3.04426 2.85857 0
M  V30 4051 N 402.043 -1.548 -0.295768 0
M  V30 4052 C 403.459 -1.4613 -0.641722 0
M  V30 4053 C 403.659 -0.656771 -1.90496 0
M  V30 4054 O 402.715 -0.166547 -2.5195 0
M  V30 4055 C 404.028 -2.90141 -0.789852 0
M  V30 4056 C 405.576 -3.00216 -0.885396 0
M  V30 4057 C 406.051 -4.45434 -1.06548 0
M  V30 4058 N 407.542 -4.49166 -1.13156 0
M  V30 4059 C 408.277 -5.58717 -1.28929 0
M  V30 4060 N 407.773 -6.78182 -1.41567 0
M  V30 4061 N 409.566 -5.46415 -1.31859 0
M  V30 4062 H 401.717 -2.05574 0.534147 0
M  V30 4063 H 403.98 -0.931259 0.177372 0
M  V30 4064 H 403.686 -3.51635 0.0675598 0
M  V30 4065 H 403.56 -3.37859 -1.67724 0
M  V30 4066 H 405.947 -2.38833 -1.73329 0
M  V30 4067 H 406.028 -2.55787 0.0261185 0
M  V30 4068 H 405.672 -5.07413 -0.222335 0
M  V30 4069 H 405.602 -4.87499 -1.9913 0
M  V30 4070 H 408.093 -3.631 -1.04721 0
M  V30 4071 H 408.406 -7.57428 -1.53372 0
M  V30 4072 H 406.751 -6.81037 -1.38613 0
M  V30 4073 H 409.942 -4.5203 -1.21601 0
M  V30 4074 H 410.115 -6.31841 -1.43808 0
M  V30 4075 N 403.521 0.559213 -1.47345 0
M  V30 4076 C 404.749 1.34194 -1.57479 0
M  V30 4077 C 405.164 1.87463 -0.224261 0
M  V30 4078 O 404.521 1.64888 0.782185 0
M  V30 4079 C 404.572 2.51324 -2.59843 0
M  V30 4080 O 404.293 2.00256 -3.89653 0
M  V30 4081 C 405.794 3.43563 -2.80142 0
M  V30 4082 H 403.014 0.409136 -0.531835 0
M  V30 4083 H 405.558 0.677609 -1.92947 0
M  V30 4084 H 403.713 3.13699 -2.27314 0
M  V30 4085 H 404.127 2.76708 -4.4557 0
M  V30 4086 H 405.601 4.2217 -3.55635 0
M  V30 4087 H 406.078 3.9698 -1.87892 0
M  V30 4088 H 406.684 2.87005 -3.1386 0
M  V30 4089 N 404.999 1.35443 0.805782 0
M  V30 4090 C 406.239 1.30127 1.57627 0
M  V30 4091 C 406.603 -0.122567 1.91608 0
M  V30 4092 O 407.804 -0.300107 2.67119 0
M  V30 4093 C 406.075 2.18314 2.82973 0
M  V30 4094 S 407.634 2.30521 3.7337 0
M  V30 4095 H 404.452 0.462439 0.540066 0
M  V30 4096 H 407.054 1.70843 0.95042 0
M  V30 4097 H 405.758 3.20741 2.56034 0
M  V30 4098 H 405.289 1.78558 3.50543 0
M  V30 4099 H 407.304 1.49062 4.73281 0
M  V30 4100 N 406.477 -1.02803 1.19454 0
M  V30 4101 C 407.44 -2.09264 0.934955 0
M  V30 4102 C 408.44 -1.60576 -0.0849015 0
M  V30 4103 O 409.63 -1.73554 0.149933 0
M  V30 4104 C 406.762 -3.38482 0.40531 0
M  V30 4105 H 407.955 -2.33726 1.87916 0
M  V30 4106 H 405.508 -1.19426 1.00832 0
M  V30 4107 H 406.243 -3.19689 -0.544899 0
M  V30 4108 H 406.028 -3.75142 1.14065 0
M  V30 4109 H 407.518 -4.16894 0.242806 0
M  V30 4110 N 407.956 -0.998596 -1.21925 0
M  V30 4111 C 408.888 -0.511879 -2.23411 0
M  V30 4112 C 409.901 0.396094 -1.57908 0
M  V30 4113 O 411.09 0.197316 -1.77406 0
M  V30 4114 C 408.19 0.276802 -3.37768 0
M  V30 4115 C 407.363 -0.628687 -4.32858 0
M  V30 4116 C 406.422 0.109272 -5.26087 0
M  V30 4117 O 405.448 -0.507237 -5.66935 0
M  V30 4118 N 406.65 1.38983 -5.63617 0
M  V30 4119 H 409.415 -1.38457 -2.658 0
M  V30 4120 H 406.976 -0.873981 -1.36283 0
M  V30 4121 H 408.968 0.77928 -3.97126 0
M  V30 4122 H 407.538 1.05063 -2.94415 0
M  V30 4123 H 406.758 -1.31175 -3.71735 0
M  V30 4124 H 408.046 -1.24514 -4.93329 0
M  V30 4125 H 407.444 1.91194 -5.32411 0
M  V30 4126 H 406.001 1.83739 -6.25367 0
M  V30 4127 N 409.434 1.37368 -0.772513 0
M  V30 4128 C 410.344 2.34053 -0.160081 0
M  V30 4129 C 411.36 1.60216 0.678728 0
M  V30 4130 O 412.536 1.92303 0.59847 0
M  V30 4131 C 409.601 3.3939 0.708182 0
M  V30 4132 C 408.662 4.29048 -0.147172 0
M  V30 4133 C 407.895 5.29354 0.679744 0
M  V30 4134 O 408.118 5.3723 1.91678 0
M  V30 4135 O 407.052 6.01835 0.0885444 0
M  V30 4136 H 410.878 2.88159 -0.959053 0
M  V30 4137 H 408.463 1.39543 -0.533685 0
M  V30 4138 H 410.345 4.03839 1.20384 0
M  V30 4139 H 409.02 2.8761 1.48533 0
M  V30 4140 H 407.927 3.67697 -0.689205 0
M  V30 4141 H 409.26 4.84134 -0.887423 0
M  V30 4142 N 410.912 0.523116 1.48665 0
M  V30 4143 C 412.16 -0.0134497 2.02096 0
M  V30 4144 C 412.481 -1.35418 1.40311 0
M  V30 4145 O 411.751 -1.87543 0.566074 0
M  V30 4146 H 410.331 -0.00795915 0.746958 0
M  V30 4147 H 412.993 0.685388 1.82451 0
M  V30 4148 H 412.089 -0.126849 3.11842 0
M  V30 4149 N 412.39 -1.55475 0.257931 0
M  V30 4150 C 413.323 -2.179 -0.677862 0
M  V30 4151 C 414.301 -1.13448 -1.16483 0
M  V30 4152 O 415.485 -1.41889 -1.24095 0
M  V30 4153 C 412.612 -2.78851 -1.92249 0
M  V30 4154 C 411.658 -3.96454 -1.57246 0
M  V30 4155 S 412.491 -5.31349 -0.665501 0
M  V30 4156 C 413.647 -5.9576 -1.91889 0
M  V30 4157 H 413.88 -2.96934 -0.147396 0
M  V30 4158 H 411.413 -1.54342 0.0423023 0
M  V30 4159 H 413.371 -3.14602 -2.63697 0
M  V30 4160 H 412.032 -1.99742 -2.42409 0
M  V30 4161 H 411.225 -4.37731 -2.49814 0
M  V30 4162 H 410.827 -3.62038 -0.938325 0
M  V30 4163 H 413.119 -6.13947 -2.86487 0
M  V30 4164 H 414.062 -6.9094 -1.54942 0
M  V30 4165 H 414.47 -5.2494 -2.076 0
M  V30 4166 N 413.868 0.0150385 -1.57593 0
M  V30 4167 C 415.114 0.704043 -1.90187 0
M  V30 4168 C 415.447 1.74249 -0.857366 0
M  V30 4169 O 414.722 1.94092 0.125843 0
M  V30 4170 C 415.005 1.36087 -3.33395 0
M  V30 4171 C 414.858 0.334981 -4.48551 0
M  V30 4172 C 416.177 2.29112 -3.7576 0
M  V30 4173 H 413.296 0.254475 -0.691673 0
M  V30 4174 H 415.938 -0.0331678 -1.89971 0
M  V30 4175 H 414.088 1.98922 -3.3371 0
M  V30 4176 H 415.76 -0.292534 -4.60372 0
M  V30 4177 H 414.003 -0.344325 -4.32431 0
M  V30 4178 H 414.674 0.833316 -5.45674 0
M  V30 4179 H 417.15 1.76308 -3.76902 0
M  V30 4180 H 416.026 2.72043 -4.76743 0
M  V30 4181 H 416.287 3.16385 -3.08793 0
M  V30 4182 N 415.346 1.54954 0.287554 0
M  V30 4183 C 416.276 1.89839 1.35954 0
M  V30 4184 C 417.257 0.758675 1.52244 0
M  V30 4185 O 418.442 1.01557 1.65529 0
M  V30 4186 C 415.572 2.15753 2.72154 0
M  V30 4187 C 414.526 3.3159 2.70614 0
M  V30 4188 C 413.852 3.42952 4.10229 0
M  V30 4189 C 415.152 4.68359 2.31165 0
M  V30 4190 H 416.846 2.79625 1.07007 0
M  V30 4191 H 414.392 1.3454 0.513316 0
M  V30 4192 H 416.345 2.38743 3.47246 0
M  V30 4193 H 415.069 1.22752 3.02654 0
M  V30 4194 H 413.728 3.08545 1.97979 0
M  V30 4195 H 413.376 2.47443 4.37928 0
M  V30 4196 H 413.076 4.20826 4.10097 0
M  V30 4197 H 414.6 3.68218 4.87081 0
M  V30 4198 H 416.014 4.9099 2.95976 0
M  V30 4199 H 414.411 5.49044 2.42221 0
M  V30 4200 H 415.481 4.68165 1.26291 0
M  V30 4201 N 416.824 -0.551391 1.4764 0
M  V30 4202 C 418.054 -1.33163 1.57959 0
M  V30 4203 C 418.462 -1.87785 0.23094 0
M  V30 4204 O 417.805 -1.65996 -0.786825 0
M  V30 4205 C 417.867 -2.53449 2.54958 0
M  V30 4206 C 417.531 -2.20071 4.00522 0
M  V30 4207 C 418.528 -1.77017 4.88836 0
M  V30 4208 C 416.213 -2.31252 4.45901 0
M  V30 4209 C 418.207 -1.4558 6.20552 0
M  V30 4210 C 415.894 -1.99427 5.77644 0
M  V30 4211 C 416.892 -1.56659 6.64791 0
M  V30 4212 O 416.58 -1.25242 7.94084 0
M  V30 4213 H 416.312 -0.412022 0.535923 0
M  V30 4214 H 418.866 -0.674186 1.9402 0
M  V30 4215 H 417.096 -3.22104 2.13976 0
M  V30 4216 H 418.785 -3.15523 2.55343 0
M  V30 4217 H 419.551 -1.67867 4.55023 0
M  V30 4218 H 415.43 -2.63498 3.78272 0
M  V30 4219 H 418.974 -1.12125 6.8853 0
M  V30 4220 H 414.871 -2.08211 6.10998 0
M  V30 4221 H 415.639 -1.38822 8.06642 0
M  V30 4222 N 418.302 -1.35869 -0.798587 0
M  V30 4223 C 419.55 -1.29332 -1.55298 0
M  V30 4224 C 419.871 0.129729 -1.94568 0
M  V30 4225 O 419.141 1.06796 -1.6423 0
M  V30 4226 H 417.721 -0.475737 -0.57592 0
M  V30 4227 H 420.383 -1.70062 -0.952093 0
M  V30 4228 H 419.479 -1.91458 -2.46476 0
M  V30 4229 N 419.78 1.02168 -1.19998 0
M  V30 4230 C 421.026 1.7606 -1.01855 0
M  V30 4231 C 421.381 1.87178 0.445222 0
M  V30 4232 O 420.674 1.3828 1.32624 0
M  V30 4233 C 420.868 3.18081 -1.62969 0
M  V30 4234 C 420.697 3.20809 -3.15137 0
M  V30 4235 C 419.467 3.28342 -3.84083 0
M  V30 4236 C 421.665 3.07268 -4.1242 0
M  V30 4237 N 419.647 3.2052 -5.23584 0
M  V30 4238 C 421.018 3.0716 -5.38566 0
M  V30 4239 C 423.073 2.91448 -4.03686 0
M  V30 4240 C 421.776 2.92853 -6.56985 0
M  V30 4241 C 423.802 2.78494 -5.21723 0
M  V30 4242 C 423.164 2.79046 -6.46771 0
M  V30 4243 H 419.263 0.655192 -0.426905 0
M  V30 4244 H 421.847 1.21564 -1.52087 0
M  V30 4245 H 420.018 3.70882 -1.15329 0
M  V30 4246 H 421.75 3.80375 -1.38192 0
M  V30 4247 H 418.505 3.34859 -3.34913 0
M  V30 4248 H 418.929 3.19997 -5.96599 0
M  V30 4249 H 423.571 2.89838 -3.07821 0
M  V30 4250 H 421.289 2.93213 -7.53028 0
M  V30 4251 H 424.875 2.67278 -5.16773 0
M  V30 4252 H 423.755 2.69134 -7.36571 0
M  V30 4253 N 421.258 1.00505 1.21394 0
M  V30 4254 C 422.486 0.706609 1.9446 0
M  V30 4255 C 422.901 -0.73081 1.74082 0
M  V30 4256 O 422.258 -1.49446 1.04747 0
M  V30 4257 C 422.309 1.01824 3.46863 0
M  V30 4258 O 422.03 2.39919 3.66566 0
M  V30 4259 C 423.531 0.739216 4.37093 0
M  V30 4260 H 420.751 0.260394 0.618414 0
M  V30 4261 H 423.295 1.34311 1.54211 0
M  V30 4262 H 421.45 0.427343 3.85036 0
M  V30 4263 H 421.864 2.50784 4.6066 0
M  V30 4264 H 423.338 1.00744 5.42729 0
M  V30 4265 H 423.815 -0.326746 4.37983 0
M  V30 4266 H 424.421 1.31173 4.04566 0
M  V30 4267 N 422.737 -1.36956 0.779787 0
M  V30 4268 C 424.014 -1.93697 0.272156 0
M  V30 4269 C 424.394 -1.71267 -1.23413 0
M  V30 4270 O 423.742 -1.06607 -2.02107 0
M  V30 4271 C 423.952 -3.42812 0.654291 0
M  V30 4272 C 425.3 -4.19921 0.628602 0
M  V30 4273 O 426.324 -3.51209 0.594172 0
M  V30 4274 O 425.183 -5.42465 0.662864 0
M  V30 4275 H 422.277 -0.824447 0.0649286 0
M  V30 4276 H 424.823 -1.46196 0.861682 0
M  V30 4277 H 423.595 -3.52754 1.69353 0
M  V30 4278 H 423.218 -3.97582 0.0381369 0
M  V30 4279 N 424.215 -0.530993 -1.48385 0
M  V30 4280 C 425.165 0.251092 -2.26613 0
M  V30 4281 C 426.149 0.908977 -1.32765 0
M  V30 4282 O 427.341 0.811616 -1.57295 0
M  V30 4283 C 424.47 1.29677 -3.17866 0
M  V30 4284 C 423.556 0.643627 -4.19188 0
M  V30 4285 N 423.947 -0.271223 -5.05072 0
M  V30 4286 C 422.245 0.900711 -4.3681 0
M  V30 4287 C 422.946 -0.648109 -5.78078 0
M  V30 4288 N 421.922 -0.00895987 -5.43599 0
M  V30 4289 H 425.724 -0.452702 -2.90393 0
M  V30 4290 H 423.238 -0.349091 -1.58604 0
M  V30 4291 H 425.235 1.87079 -3.72568 0
M  V30 4292 H 423.895 2.00193 -2.55642 0
M  V30 4293 H 424.906 -0.643883 -5.13882 0
M  V30 4294 H 421.583 1.59636 -3.85775 0
M  V30 4295 H 422.973 -1.39833 -6.57188 0
M  V30 4296 N 425.693 1.55336 -0.266172 0
M  V30 4297 C 426.918 2.04258 0.359661 0
M  V30 4298 C 427.343 1.14359 1.49344 0
M  V30 4299 O 426.701 0.140369 1.80756 0
M  V30 4300 C 426.749 3.50997 0.826635 0
M  V30 4301 O 425.853 3.64204 1.93466 0
M  V30 4302 H 425.194 0.659668 0.075727 0
M  V30 4303 H 427.724 2.00694 -0.39786 0
M  V30 4304 H 427.734 3.9219 1.12477 0
M  V30 4305 H 426.409 4.159 -0.00293032 0
M  V30 4306 H 424.986 3.34913 1.63974 0
M  V30 4307 N 427.171 -0.0066808 1.57599 0
M  V30 4308 C 428.134 -0.985035 2.06953 0
M  V30 4309 C 429.134 -1.27663 0.977687 0
M  V30 4310 O 430.324 -1.22293 1.24057 0
M  V30 4311 C 427.456 -2.3118 2.50536 0
M  V30 4312 H 428.649 -0.558255 2.94658 0
M  V30 4313 H 426.202 -0.254011 1.54222 0
M  V30 4314 H 426.937 -2.78561 1.66054 0
M  V30 4315 H 426.722 -2.11338 3.3027 0
M  V30 4316 H 428.212 -3.01377 2.8907 0
M  V30 4317 N 428.649 -1.55105 -0.279332 0
M  V30 4318 C 429.889 -1.7716 -1.01949 0
M  V30 4319 C 430.253 -0.557511 -1.83728 0
M  V30 4320 O 431.454 -0.656198 -2.60667 0
M  V30 4321 C 429.725 -3.0372 -1.88385 0
M  V30 4322 S 431.284 -3.46868 -2.68752 0
M  V30 4323 H 428.102 -0.62253 -0.343478 0
M  V30 4324 H 430.704 -1.93329 -0.290572 0
M  V30 4325 H 429.408 -3.90184 -1.2722 0
M  V30 4326 H 428.939 -2.902 -2.65608 0
M  V30 4327 H 430.954 -3.05643 -3.90892 0
M  V30 4328 N 430.127 0.543554 -1.4793 0
M  V30 4329 C 431.352 1.32995 -1.59145 0
M  V30 4330 C 431.777 1.86472 -0.246956 0
M  V30 4331 O 431.135 1.63696 0.779324 0
M  V30 4332 C 431.183 2.46623 -2.63077 0
M  V30 4333 O 430.287 3.49261 -2.19295 0
M  V30 4334 H 429.628 0.394472 -0.534124 0
M  V30 4335 H 432.158 0.655489 -1.93816 0
M  V30 4336 H 432.168 2.93001 -2.83926 0
M  V30 4337 H 430.843 2.07059 -3.60693 0
M  V30 4338 H 429.42 3.09094 -2.08603 0
M  V30 4339 N 431.605 1.3629 0.791371 0
M  V30 4340 C 433.016 1.27225 1.36641 0
M  V30 4341 C 433.367 -0.0887968 1.95999 0
M  V30 4342 O 432.492 -0.990207 1.92416 0
M  V30 4343 C 433.087 2.30375 2.48421 0
M  V30 4344 C 431.646 2.25004 3.01746 0
M  V30 4345 C 430.793 2.15259 1.7481 0
M  V30 4346 H 433.744 1.47198 0.593173 0
M  V30 4347 H 433.765 1.93905 3.27385 0
M  V30 4348 H 433.277 3.29422 2.05189 0
M  V30 4349 H 431.378 1.29417 3.49403 0
M  V30 4350 H 431.491 3.1761 3.58693 0
M  V30 4351 H 429.855 1.61482 1.96966 0
M  V30 4352 H 430.638 3.16191 1.33709 0
M  V30 4353 N 433.083 -1.0153 1.20538 0
M  V30 4354 C 434.329 -1.75408 1.01783 0
M  V30 4355 C 434.662 -1.88943 -0.448814 0
M  V30 4356 O 433.937 -1.4162 -1.33319 0
M  V30 4357 C 434.22 -3.17255 1.70356 0
M  V30 4358 C 434.073 -3.11508 3.24473 0
M  V30 4359 C 435.392 -4.15955 1.43769 0
M  V30 4360 H 432.511 -0.636713 0.371167 0
M  V30 4361 H 435.153 -1.18436 1.4857 0
M  V30 4362 H 433.303 -3.65898 1.30578 0
M  V30 4363 H 434.975 -2.70658 3.73553 0
M  V30 4364 H 433.218 -2.4887 3.55311 0
M  V30 4365 H 433.889 -4.11784 3.67611 0
M  V30 4366 H 436.365 -3.75973 1.7828 0
M  V30 4367 H 435.241 -5.13368 1.94279 0
M  V30 4368 H 435.502 -4.40586 0.365564 0
M  V30 4369 N 434.561 -1.01147 -1.20859 0
M  V30 4370 C 435.801 -0.706331 -1.91808 0
M  V30 4371 C 436.165 0.749736 -1.76757 0
M  V30 4372 O 437.366 1.16716 -2.42138 0
M  V30 4373 C 435.637 -1.12371 -3.39275 0
M  V30 4374 S 437.196 -0.939764 -4.28619 0
M  V30 4375 H 434.014 -0.257665 -0.662669 0
M  V30 4376 H 436.616 -1.29766 -1.46223 0
M  V30 4377 H 435.32 -2.17943 -3.47749 0
M  V30 4378 H 434.851 -0.524952 -3.89882 0
M  V30 4379 H 436.866 0.159556 -4.95943 0
M  V30 4380 N 436.039 1.36541 -0.78704 0
M  V30 4381 C 437.45 1.81873 -0.421807 0
M  V30 4382 C 437.801 1.65487 1.05397 0
M  V30 4383 O 436.926 1.17448 1.81755 0
M  V30 4384 C 437.521 3.30192 -0.758841 0
M  V30 4385 C 436.08 3.73743 -0.446468 0
M  V30 4386 C 435.227 2.58844 -0.994728 0
M  V30 4387 H 438.178 1.24796 -0.98039 0
M  V30 4388 H 438.199 3.80468 -0.0490648 0
M  V30 4389 H 437.711 3.42087 -1.83299 0
M  V30 4390 H 435.812 3.6741 0.619739 0
M  V30 4391 H 435.925 4.69272 -0.965415 0
M  V30 4392 H 434.289 2.51245 -0.418087 0
M  V30 4393 H 435.072 2.73525 -2.07458 0
M  V30 4394 N 437.518 0.538854 1.48102 0
M  V30 4395 C 438.481 -0.208395 2.28251 0
M  V30 4396 C 439.481 -0.859656 1.35892 0
M  V30 4397 O 440.671 -0.71834 1.58699 0
M  V30 4398 C 437.803 -1.30252 3.15035 0
M  V30 4399 H 438.996 0.495407 2.9578 0
M  V30 4400 H 436.549 0.295112 1.53489 0
M  V30 4401 H 437.284 -2.0393 2.52157 0
M  V30 4402 H 437.069 -0.840551 3.82985 0
M  V30 4403 H 438.559 -1.82787 3.75471 0
M  V30 4404 N 438.996 -1.55193 0.274407 0
M  V30 4405 C 440.244 -1.99187 -0.341902 0
M  V30 4406 C 440.565 -1.16422 -1.56431 0
M  V30 4407 O 439.835 -0.253573 -1.94252 0
M  V30 4408 H 438.415 -0.735721 -0.129317 0
M  V30 4409 H 441.077 -1.91168 0.379578 0
M  V30 4410 H 440.173 -3.05629 -0.632253 0
M  V30 4411 N 440.474 -0.00167713 -1.576 0
M  V30 4412 C 441.407 1.02317 -2.03977 0
M  V30 4413 C 442.385 1.33381 -0.929963 0
M  V30 4414 O 443.569 1.45517 -1.19822 0
M  V30 4415 C 440.696 2.35035 -2.43878 0
M  V30 4416 C 439.742 2.19621 -3.65607 0
M  V30 4417 S 440.575 1.52068 -5.13455 0
M  V30 4418 C 441.731 2.86212 -5.56627 0
M  V30 4419 H 441.964 0.628285 -2.90585 0
M  V30 4420 H 439.497 0.209239 -1.52976 0
M  V30 4421 H 441.455 3.11345 -2.67534 0
M  V30 4422 H 440.116 2.71663 -1.57665 0
M  V30 4423 H 439.309 3.1767 -3.91282 0
M  V30 4424 H 438.911 1.51455 -3.41961 0
M  V30 4425 H 441.203 3.82509 -5.59189 0
M  V30 4426 H 442.146 2.65235 -6.56549 0
M  V30 4427 H 442.554 2.90199 -4.84195 0
M  V30 4428 N 441.952 1.55251 0.271103 0
M  V30 4429 C 442.862 1.9136 1.35714 0
M  V30 4430 C 443.878 0.811075 1.5394 0
M  V30 4431 O 445.054 1.11031 1.6803 0
M  V30 4432 C 442.119 2.1798 2.69603 0
M  V30 4433 C 441.18 3.4153 2.60107 0
M  V30 4434 C 440.413 3.66871 3.8761 0
M  V30 4435 O 440.636 2.94689 4.8838 0
M  V30 4436 O 439.57 4.60405 3.87699 0
M  V30 4437 H 443.396 2.83815 1.08088 0
M  V30 4438 H 440.981 1.41821 0.469792 0
M  V30 4439 H 442.863 2.36518 3.48765 0
M  V30 4440 H 441.538 1.28708 2.97012 0
M  V30 4441 H 440.445 3.28325 1.79314 0
M  V30 4442 H 441.778 4.31027 2.37647 0
M  V30 4443 N 443.43 -0.535701 1.48216 0
M  V30 4444 C 444.66 -1.3148 1.59363 0
M  V30 4445 C 445.068 -1.8753 0.250844 0
M  V30 4446 O 444.411 -1.66821 -0.769174 0
M  V30 4447 C 444.473 -2.50731 2.57632 0
M  V30 4448 C 444.137 -2.15811 4.02833 0
M  V30 4449 C 445.134 -1.71822 4.90686 0
M  V30 4450 C 442.819 -2.26509 4.48329 0
M  V30 4451 C 444.813 -1.3899 6.22062 0
M  V30 4452 C 442.5 -1.93289 5.79726 0
M  V30 4453 C 443.498 -1.49599 6.66415 0
M  V30 4454 O 443.186 -1.16812 7.95368 0
M  V30 4455 H 442.918 -0.406315 0.540263 0
M  V30 4456 H 445.472 -0.653569 1.94725 0
M  V30 4457 H 443.702 -3.19817 2.1738 0
M  V30 4458 H 445.391 -3.12797 2.58675 0
M  V30 4459 H 446.157 -1.63031 4.56778 0
M  V30 4460 H 442.036 -2.59471 3.81045 0
M  V30 4461 H 445.58 -1.04816 6.89681 0
M  V30 4462 H 441.477 -2.01718 6.13172 0
M  V30 4463 H 442.245 -1.30259 8.08069 0
M  V30 4464 N 444.908 -1.36708 -0.784132 0
M  V30 4465 C 446.324 -1.17237 -1.08294 0
M  V30 4466 C 446.524 -5.93947e-05 -2.015 0
M  V30 4467 O 445.58 0.663686 -2.43622 0
M  V30 4468 C 446.893 -2.48557 -1.69233 0
M  V30 4469 C 448.441 -2.54968 -1.8155 0
M  V30 4470 C 448.916 -3.86388 -2.45904 0
M  V30 4471 N 450.407 -3.87762 -2.53367 0
M  V30 4472 C 451.142 -4.86191 -3.03983 0
M  V30 4473 N 450.638 -5.95015 -3.54866 0
M  V30 4474 N 452.431 -4.73606 -3.02743 0
M  V30 4475 H 444.582 -2.11758 -0.16501 0
M  V30 4476 H 446.845 -0.93822 -0.135822 0
M  V30 4477 H 446.551 -3.34638 -1.08215 0
M  V30 4478 H 446.425 -2.64748 -2.68679 0
M  V30 4479 H 448.812 -1.69302 -2.41704 0
M  V30 4480 H 448.893 -2.42672 -0.80895 0
M  V30 4481 H 448.537 -4.72462 -1.86392 0
M  V30 4482 H 448.467 -3.95982 -3.4714 0
M  V30 4483 H 450.958 -3.09145 -2.17343 0
M  V30 4484 H 451.271 -6.66086 -3.91854 0
M  V30 4485 H 449.616 -5.98676 -3.53003 0
M  V30 4486 H 452.807 -3.87717 -2.62284 0
M  V30 4487 H 452.98 -5.50473 -3.41881 0
M  V30 4488 N 446.386 1.0089 -1.21074 0
M  V30 4489 C 447.318 2.09737 -0.924291 0
M  V30 4490 C 448.331 1.62546 0.0909809 0
M  V30 4491 O 449.52 1.77942 -0.141021 0
M  V30 4492 C 446.62 3.36922 -0.36559 0
M  V30 4493 C 445.793 4.13216 -1.43426 0
M  V30 4494 C 444.852 5.18696 -0.885496 0
M  V30 4495 O 443.878 5.47176 -1.56801 0
M  V30 4496 N 445.08 5.79718 0.301227 0
M  V30 4497 H 447.845 2.34895 -1.8613 0
M  V30 4498 H 445.406 1.17341 -1.11546 0
M  V30 4499 H 447.398 4.04697 0.0158407 0
M  V30 4500 H 445.968 3.08952 0.476149 0
M  V30 4501 H 445.188 3.40301 -1.9897 0
M  V30 4502 H 446.476 4.60967 -2.15376 0
M  V30 4503 H 445.874 5.58926 0.872849 0
M  V30 4504 H 444.431 6.48804 0.624211 0
M  V30 4505 N 447.864 1.01787 1.20321 0
M  V30 4506 C 449.104 0.716493 1.91431 0
M  V30 4507 C 449.468 -0.740352 1.77152 0
M  V30 4508 O 450.669 -1.1543 2.42754 0
M  V30 4509 C 448.94 1.14169 3.38674 0
M  V30 4510 S 450.499 0.962482 4.28114 0
M  V30 4511 H 447.317 0.261175 0.661293 0
M  V30 4512 H 449.919 1.30539 1.45533 0
M  V30 4513 H 448.623 2.19784 3.46588 0
M  V30 4514 H 448.154 0.545621 3.89598 0
M  V30 4515 H 450.169 -0.133253 4.96021 0
M  V30 4516 N 449.342 -1.36122 0.79427 0
M  V30 4517 C 450.588 -1.99406 0.369452 0
M  V30 4518 C 450.921 -1.62886 -1.05743 0
M  V30 4519 O 450.196 -0.886053 -1.73145 0
M  V30 4520 C 450.479 -3.56046 0.538833 0
M  V30 4521 C 450.332 -4.02404 2.00976 0
M  V30 4522 C 451.651 -4.40079 -0.0431359 0
M  V30 4523 H 448.77 -0.724397 0.135712 0
M  V30 4524 H 451.412 -1.61461 1.00151 0
M  V30 4525 H 449.562 -3.885 0.000771004 0
M  V30 4526 H 451.234 -3.80415 2.60926 0
M  V30 4527 H 449.477 -3.53765 2.51063 0
M  V30 4528 H 450.148 -5.11344 2.07922 0
M  V30 4529 H 452.624 -4.14013 0.416228 0
M  V30 4530 H 451.5 -5.48799 0.105374 0
M  V30 4531 H 451.761 -4.27264 -1.13571 0
M  V30 4532 N 450.82 -0.546701 -1.47814 0
M  V30 4533 C 452.045 -0.021268 -2.07389 0
M  V30 4534 C 452.47 1.25822 -1.39822 0
M  V30 4535 O 451.828 1.75111 -0.46968 0
M  V30 4536 C 451.876 0.168502 -3.60206 0
M  V30 4537 O 450.98 1.23347 -3.93522 0
M  V30 4538 H 450.321 -0.0466108 -0.662362 0
M  V30 4539 H 452.851 -0.759387 -1.89985 0
M  V30 4540 H 452.861 0.385982 -4.0617 0
M  V30 4541 H 451.536 -0.766075 -4.08784 0
M  V30 4542 H 450.113 0.997319 -3.59316 0
M  V30 4543 N 452.299 1.55045 -0.282633 0
M  V30 4544 C 453.71 1.85473 0.213655 0
M  V30 4545 C 454.061 1.20465 1.54863 0
M  V30 4546 O 453.186 0.495676 2.10647 0
M  V30 4547 C 453.781 3.36496 0.394445 0
M  V30 4548 C 452.34 3.67022 0.834961 0
M  V30 4549 C 451.487 2.77218 -0.0674081 0
M  V30 4550 H 454.438 1.50478 -0.504202 0
M  V30 4551 H 454.459 3.60007 1.23186 0
M  V30 4552 H 453.971 3.83782 -0.577326 0
M  V30 4553 H 452.072 3.25241 1.81794 0
M  V30 4554 H 452.185 4.74433 0.667075 0
M  V30 4555 H 450.549 2.5069 0.450196 0
M  V30 4556 H 451.332 3.2732 -1.0352 0
M  V30 4557 N 453.777 0.010035 1.57597 0
M  V30 4558 C 455.017 -0.677084 1.9286 0
M  V30 4559 C 455.381 -1.70377 0.885192 0
M  V30 4560 O 456.582 -2.44199 1.12339 0
M  V30 4561 C 454.853 -1.29452 3.33132 0
M  V30 4562 S 456.412 -2.00537 3.90295 0
M  V30 4563 H 453.23 -0.223409 0.674989 0
M  V30 4564 H 455.832 0.0691289 1.95378 0
M  V30 4565 H 454.536 -0.534593 4.06903 0
M  V30 4566 H 454.067 -2.07845 3.34012 0
M  V30 4567 H 456.082 -3.28168 3.72183 0
M  V30 4568 N 455.255 -1.55392 -0.262866 0
M  V30 4569 C 456.218 -1.88181 -1.30846 0
M  V30 4570 C 457.218 -0.757079 -1.41862 0
M  V30 4571 O 458.408 -1.02519 -1.40838 0
M  V30 4572 C 455.54 -2.09609 -2.68844 0
M  V30 4573 H 456.733 -2.81659 -1.02997 0
M  V30 4574 H 454.286 -1.48039 -0.501414 0
M  V30 4575 H 455.021 -1.18547 -3.01856 0
M  V30 4576 H 454.806 -2.91508 -2.62231 0
M  V30 4577 H 456.296 -2.36215 -3.44372 0
M  V30 4578 N 456.733 0.527833 -1.48498 0
M  V30 4579 C 458.149 0.856571 -1.34666 0
M  V30 4580 C 458.349 1.98271 -0.35931 0
M  V30 4581 O 457.405 2.51551 0.218703 0
M  V30 4582 C 458.718 1.22207 -2.74747 0
M  V30 4583 C 460.266 1.33183 -2.83251 0
M  V30 4584 C 460.741 1.73075 -4.24039 0
M  V30 4585 N 462.232 1.80174 -4.26722 0
M  V30 4586 C 462.967 2.1243 -5.32598 0
M  V30 4587 N 462.463 2.43096 -6.4875 0
M  V30 4588 N 464.256 2.13454 -5.19994 0
M  V30 4589 H 456.407 -0.215174 -2.11307 0
M  V30 4590 H 458.67 -0.0336281 -0.947403 0
M  V30 4591 H 458.376 0.468195 -3.4857 0
M  V30 4592 H 458.25 2.17173 -3.08409 0
M  V30 4593 H 460.637 2.07647 -2.09683 0
M  V30 4594 H 460.718 0.363333 -2.53206 0
M  V30 4595 H 460.362 0.991712 -4.98124 0
M  V30 4596 H 460.292 2.70979 -4.51529 0
M  V30 4597 H 462.783 1.58744 -3.42942 0
M  V30 4598 H 463.096 2.6682 -7.25277 0
M  V30 4599 H 461.441 2.40611 -6.52021 0
M  V30 4600 H 464.632 1.88956 -4.28268 0
M  V30 4601 H 464.805 2.38261 -6.02608 0
M  V30 4602 N 458.211 1.37122 0.776871 0
M  V30 4603 C 459.439 1.3523 1.5659 0
M  V30 4604 C 459.854 -0.0635518 1.88693 0
M  V30 4605 O 459.211 -1.02394 1.51069 0
M  V30 4606 C 459.262 2.18583 2.8793 0
M  V30 4607 O 458.983 3.5465 2.57206 0
M  V30 4608 C 460.484 2.24612 3.82183 0
M  V30 4609 H 457.704 0.4634 0.485285 0
M  V30 4610 H 460.248 1.80392 0.963266 0
M  V30 4611 H 458.403 1.76943 3.4463 0
M  V30 4612 H 458.817 3.98286 3.41275 0
M  V30 4613 H 460.291 2.87267 4.71361 0
M  V30 4614 H 460.768 1.25309 4.20944 0
M  V30 4615 H 461.374 2.66543 3.31414 0
M  V30 4616 N 459.689 -1.00246 1.21608 0
M  V30 4617 C 460.929 -1.75589 1.04631 0
M  V30 4618 C 461.293 -1.87513 -0.412648 0
M  V30 4619 O 462.494 -2.59444 -0.703003 0
M  V30 4620 C 460.765 -3.12893 1.72722 0
M  V30 4621 S 462.324 -4.04095 1.71034 0
M  V30 4622 H 459.142 -0.604133 0.374892 0
M  V30 4623 H 461.744 -1.19927 1.54395 0
M  V30 4624 H 460.448 -3.0185 2.78055 0
M  V30 4625 H 459.979 -3.73628 1.23149 0
M  V30 4626 H 461.994 -4.9045 0.753231 0
M  V30 4627 N 461.167 -1.02423 -1.1978 0
M  V30 4628 C 462.099 -0.559152 -2.22275 0
M  V30 4629 C 463.112 0.36251 -1.58713 0
M  V30 4630 O 464.301 0.159641 -1.77785 0
M  V30 4631 C 461.401 0.205094 -3.38279 0
M  V30 4632 C 460.574 -0.720361 -4.31427 0
M  V30 4633 C 459.633 -0.00234368 -5.262 0
M  V30 4634 O 458.659 -0.627378 -5.65732 0
M  V30 4635 N 459.861 1.26996 -5.66438 0
M  V30 4636 H 462.626 -1.44064 -2.62804 0
M  V30 4637 H 460.187 -0.902692 -1.34399 0
M  V30 4638 H 462.179 0.694868 -3.9869 0
M  V30 4639 H 460.749 0.987947 -2.96578 0
M  V30 4640 H 459.969 -1.39031 -3.68869 0
M  V30 4641 H 461.257 -1.3495 -4.90577 0
M  V30 4642 H 460.655 1.79858 -5.36347 0
M  V30 4643 H 459.212 1.70432 -6.29123 0
M  V30 4644 N 462.645 1.35699 -0.801477 0
M  V30 4645 C 463.87 2.03687 -0.390678 0
M  V30 4646 C 464.295 1.60015 0.988778 0
M  V30 4647 O 463.653 0.774357 1.63931 0
M  V30 4648 C 463.701 3.57439 -0.476404 0
M  V30 4649 O 462.805 4.09208 0.512106 0
M  V30 4650 H 462.146 0.64344 -0.163956 0
M  V30 4651 H 464.676 1.73403 -1.08594 0
M  V30 4652 H 464.686 4.06544 -0.344357 0
M  V30 4653 H 463.361 3.88576 -1.48262 0
M  V30 4654 H 461.938 3.7134 0.340721 0
M  V30 4655 N 464.123 0.554532 1.47522 0
M  V30 4656 C 465.053 -0.182974 2.32782 0
M  V30 4657 C 466.034 -0.911377 1.43624 0
M  V30 4658 O 467.219 -0.892366 1.72483 0
M  V30 4659 C 464.349 -1.21513 3.25349 0
M  V30 4660 C 463.303 -0.603355 4.23726 0
M  V30 4661 C 462.629 -1.73995 5.05598 0
M  V30 4662 C 463.929 0.441121 5.20434 0
M  V30 4663 H 465.623 0.52882 2.94693 0
M  V30 4664 H 463.169 0.255759 1.41711 0
M  V30 4665 H 465.122 -1.73922 3.83835 0
M  V30 4666 H 463.846 -1.95683 2.61487 0
M  V30 4667 H 462.505 -0.10059 3.66462 0
M  V30 4668 H 462.153 -2.47063 4.38143 0
M  V30 4669 H 461.853 -1.3364 5.72201 0
M  V30 4670 H 463.377 -2.26735 5.66942 0
M  V30 4671 H 464.791 0.00319931 5.733 0
M  V30 4672 H 463.188 0.763402 5.95224 0
M  V30 4673 H 464.258 1.33799 4.66075 0
M  V30 4674 N 465.601 -1.54893 0.290851 0
M  V30 4675 C 466.551 -2.19838 -0.604599 0
M  V30 4676 C 467.535 -1.16805 -1.10659 0
M  V30 4677 O 468.727 -1.42562 -1.04905 0
M  V30 4678 C 465.856 -2.93497 -1.78086 0
M  V30 4679 C 464.942 -4.03835 -1.29531 0
M  V30 4680 N 465.333 -5.03047 -0.527024 0
M  V30 4681 C 463.631 -4.17192 -1.57693 0
M  V30 4682 C 464.332 -5.81074 -0.269728 0
M  V30 4683 N 463.308 -5.36966 -0.846651 0
M  V30 4684 H 467.11 -2.93898 -0.00995032 0
M  V30 4685 H 464.624 -1.62121 0.0951353 0
M  V30 4686 H 466.621 -3.38484 -2.43381 0
M  V30 4687 H 465.281 -2.2095 -2.37931 0
M  V30 4688 H 466.292 -5.17611 -0.172872 0
M  V30 4689 H 462.969 -3.55845 -2.18359 0
M  V30 4690 H 464.359 -6.71005 0.346643 0
M  V30 4691 N 467.08 -0.0183926 -1.57589 0
M  V30 4692 C 468.329 0.66185 -1.90532 0
M  V30 4693 C 468.642 1.73904 -0.895366 0
M  V30 4694 O 469.848 2.47518 -1.11566 0
M  V30 4695 C 468.304 1.22844 -3.38286 0
M  V30 4696 C 467.912 0.185103 -4.47617 0
M  V30 4697 C 469.656 1.88581 -3.80312 0
M  V30 4698 C 467.563 0.762723 -5.86461 0
M  V30 4699 H 466.493 0.250972 -0.711006 0
M  V30 4700 H 469.144 -0.0819435 -1.83317 0
M  V30 4701 H 467.526 2.0235 -3.40398 0
M  V30 4702 H 468.7 -0.58671 -4.5705 0
M  V30 4703 H 467.015 -0.372889 -4.14727 0
M  V30 4704 H 469.612 2.32735 -4.81392 0
M  V30 4705 H 469.955 2.72408 -3.14801 0
M  V30 4706 H 470.488 1.15782 -3.80578 0
M  V30 4707 H 467.227 -0.0371713 -6.55489 0
M  V30 4708 H 466.747 1.50327 -5.80656 0
M  V30 4709 H 468.426 1.25576 -6.34697 0
M  V30 4710 N 468.558 1.5553 0.254621 0
M  V30 4711 C 469.506 1.9048 1.33492 0
M  V30 4712 C 470.5 0.78304 1.50216 0
M  V30 4713 O 471.706 0.967582 1.51782 0
M  V30 4714 H 468.081 0.604846 0.44684 0
M  V30 4715 H 470.052 2.80688 1.01275 0
M  V30 4716 C 468.801 2.20928 2.68489 0
M  V30 4717 H 468.124 3.06742 2.56417 0
M  V30 4718 H 469.564 2.49291 3.42972 0
M  V30 4719 C 468.023 1.023 3.20993 0
M  V30 4720 O 468.553 0.267027 4.00811 0
M  V30 4721 N 466.759 0.815714 2.78917 0
M  V30 4722 H 466.306 1.43217 2.14119 0
M  V30 4723 H 466.264 0.0236532 3.14391 0
M  V30 4724 N 470.036 -0.519951 1.48776 0
M  V30 4725 C 470.946 -1.65025 1.66745 0
M  V30 4726 C 471.962 -1.6508 0.549954 0
M  V30 4727 O 473.138 -1.83848 0.822295 0
M  V30 4728 C 470.203 -3.0146 1.71238 0
M  V30 4729 C 469.264 -3.12182 2.94688 0
M  V30 4730 C 468.497 -4.42109 2.98958 0
M  V30 4731 O 468.72 -5.29799 2.1135 0
M  V30 4732 O 467.654 -4.57406 3.91233 0
M  V30 4733 H 471.48 -1.52801 2.62461 0
M  V30 4734 H 469.065 -0.694157 1.32294 0
M  V30 4735 H 470.947 -3.82584 1.76657 0
M  V30 4736 H 469.622 -3.13988 0.786975 0
M  V30 4737 H 468.529 -2.30316 2.94797 0
M  V30 4738 H 469.862 -3.04574 3.86646 0
M  V30 4739 N 471.514 -1.37532 -0.769588 0
M  V30 4740 C 472.447 -1.27839 -1.8903 0
M  V30 4741 C 473.425 -0.158504 -1.61826 0
M  V30 4742 O 474.609 -0.333086 -1.85534 0
M  V30 4743 C 471.736 -0.977072 -3.24301 0
M  V30 4744 C 470.782 -2.11414 -3.70414 0
M  V30 4745 S 471.615 -3.73409 -3.83831 0
M  V30 4746 C 472.771 -3.45432 -5.21946 0
M  V30 4747 H 473.004 -2.22694 -1.96963 0
M  V30 4748 H 470.537 -1.2318 -0.930914 0
M  V30 4749 H 472.495 -0.810049 -4.02428 0
M  V30 4750 H 471.156 -0.0459701 -3.14066 0
M  V30 4751 H 470.349 -1.85837 -4.68488 0
M  V30 4752 H 469.951 -2.24141 -2.99394 0
M  V30 4753 H 472.243 -3.00554 -6.07185 0
M  V30 4754 H 473.186 -4.42841 -5.52537 0
M  V30 4755 H 473.594 -2.80311 -4.89986 0
M  V30 4756 N 472.992 0.995999 -1.22138 0
M  V30 4757 C 474.232 1.75032 -1.05561 0
M  V30 4758 C 474.596 1.87729 0.402698 0
M  V30 4759 O 475.797 2.59813 0.689234 0
M  V30 4760 C 474.068 3.11973 -1.74379 0
M  V30 4761 S 475.627 4.03182 -1.73175 0
M  V30 4762 H 472.445 0.602137 -0.37809 0
M  V30 4763 H 475.047 1.19107 -1.55028 0
M  V30 4764 H 473.751 3.00371 -2.79652 0
M  V30 4765 H 473.282 3.7297 -1.25128 0
M  V30 4766 H 475.297 4.90043 -0.77923 0
M  V30 4767 N 474.47 1.03057 1.19235 0
M  V30 4768 C 475.402 0.570932 2.21975 0
M  V30 4769 C 476.415 -0.354088 1.58903 0
M  V30 4770 O 477.604 -0.150211 1.77867 0
M  V30 4771 C 474.704 -0.187152 3.38383 0
M  V30 4772 C 473.877 0.743231 4.31039 0
M  V30 4773 C 472.936 0.0302493 5.26191 0
M  V30 4774 O 471.962 0.657371 5.65391 0
M  V30 4775 N 473.164 -1.23991 5.67104 0
M  V30 4776 H 475.929 1.45456 2.62036 0
M  V30 4777 H 473.49 0.909807 1.33918 0
M  V30 4778 H 475.482 -0.673715 3.99053 0
M  V30 4779 H 474.052 -0.972205 2.97098 0
M  V30 4780 H 473.272 1.40985 3.68126 0
M  V30 4781 H 474.56 1.3755 4.89854 0
M  V30 4782 H 473.958 -1.77011 5.37293 0
M  V30 4783 H 472.515 -1.67093 6.30018 0
M  V30 4784 N 475.948 -1.35272 0.808662 0
M  V30 4785 C 476.858 -2.33546 0.222079 0
M  V30 4786 C 477.874 -1.6196 -0.636011 0
M  V30 4787 O 479.05 -1.93822 -0.547274 0
M  V30 4788 C 476.115 -3.41148 -0.61795 0
M  V30 4789 C 475.176 -4.28507 0.260875 0
M  V30 4790 C 474.409 -5.3097 -0.539156 0
M  V30 4791 O 474.632 -5.42123 -1.77367 0
M  V30 4792 O 473.566 -6.01858 0.0710526 0
M  V30 4793 H 477.392 -2.85515 1.03512 0
M  V30 4794 H 474.977 -1.38079 0.570495 0
M  V30 4795 H 476.859 -4.06889 -1.09634 0
M  V30 4796 H 475.534 -2.91447 -1.40855 0
M  V30 4797 H 474.441 -3.6574 0.786451 0
M  V30 4798 H 475.774 -4.81611 1.01547 0
M  V30 4799 N 477.426 -0.562348 -1.47226 0
M  V30 4800 C 478.842 -0.222492 -1.58042 0
M  V30 4801 C 479.042 1.27505 -1.56028 0
M  V30 4802 O 478.098 2.05555 -1.46641 0
M  V30 4803 C 479.411 -0.853694 -2.88327 0
M  V30 4804 C 480.959 -0.825397 -3.01921 0
M  V30 4805 C 481.434 -1.43576 -4.34914 0
M  V30 4806 N 482.925 -1.39918 -4.41562 0
M  V30 4807 C 483.66 -1.84103 -5.43041 0
M  V30 4808 N 483.156 -2.36167 -6.51304 0
M  V30 4809 N 484.949 -1.75142 -5.34118 0
M  V30 4810 H 477.1 -1.53525 -1.46778 0
M  V30 4811 H 479.363 -0.640527 -0.698877 0
M  V30 4812 H 479.069 -1.90635 -2.95552 0
M  V30 4813 H 478.943 -0.34977 -3.75575 0
M  V30 4814 H 481.33 0.218583 -2.94289 0
M  V30 4815 H 481.411 -1.36713 -2.16202 0
M  V30 4816 H 481.055 -2.47884 -4.43301 0
M  V30 4817 H 480.985 -0.869427 -5.19373 0
M  V30 4818 H 483.476 -1.0184 -3.63919 0
M  V30 4819 H 483.789 -2.67793 -7.24919 0
M  V30 4820 H 482.134 -2.40181 -6.52179 0
M  V30 4821 H 485.325 -1.34241 -4.48439 0
M  V30 4822 H 485.498 -2.09895 -6.13065 0
M  V30 4823 N 478.904 1.54736 -0.299062 0
M  V30 4824 C 480.144 2.0201 0.31168 0
M  V30 4825 C 480.508 1.18281 1.5124 0
M  V30 4826 O 481.709 1.55243 2.19438 0
M  V30 4827 C 479.98 3.5123 0.661227 0
M  V30 4828 S 481.539 4.20467 1.2551 0
M  V30 4829 H 478.357 0.704523 0.0957517 0
M  V30 4830 H 480.959 1.90791 -0.426482 0
M  V30 4831 H 479.663 4.09804 -0.221171 0
M  V30 4832 H 479.194 3.66481 1.43023 0
M  V30 4833 H 481.209 4.26083 2.54298 0
M  V30 4834 N 480.382 0.0267497 1.57577 0
M  V30 4835 C 481.628 -0.653371 1.91987 0
M  V30 4836 C 481.961 -1.71915 0.903263 0
M  V30 4837 O 481.236 -1.94358 -0.0743387 0
M  V30 4838 C 481.519 -1.272 3.36886 0
M  V30 4839 C 481.372 -0.215938 4.49281 0
M  V30 4840 C 482.691 -2.19069 3.81703 0
M  V30 4841 H 479.81 -0.236047 0.698177 0
M  V30 4842 H 482.452 0.0835236 1.89816 0
M  V30 4843 H 480.602 -1.90005 3.38866 0
M  V30 4844 H 482.274 0.41449 4.59434 0
M  V30 4845 H 480.517 0.458855 4.31366 0
M  V30 4846 H 481.188 -0.688347 5.47691 0
M  V30 4847 H 483.664 -1.66253 3.81444 0
M  V30 4848 H 482.54 -2.59307 4.83788 0
M  V30 4849 H 482.801 -3.08087 3.17072 0
M  V30 4850 N 481.861 -1.55662 -0.24637 0
M  V30 4851 C 483.138 -1.68272 -0.997198 0
M  V30 4852 C 483.518 -0.566785 -2.03349 0
M  V30 4853 O 482.866 0.429688 -2.24424 0
M  V30 4854 C 483.076 -3.08594 -1.63006 0
M  V30 4855 C 484.424 -3.6721 -2.13171 0
M  V30 4856 O 485.448 -3.11397 -1.72946 0
M  V30 4857 O 484.307 -4.65054 -2.87031 0
M  V30 4858 H 481.401 -0.684429 -0.464205 0
M  V30 4859 H 483.947 -1.67993 -0.240114 0
M  V30 4860 H 482.719 -3.81264 -0.880527 0
M  V30 4861 H 482.342 -3.12886 -2.45333 0
M  V30 4862 N 483.339 0.512053 -1.4905 0
M  V30 4863 C 484.587 1.26436 -1.57665 0
M  V30 4864 C 484.908 1.93255 -0.260293 0
M  V30 4865 O 484.178 1.82206 0.719564 0
M  V30 4866 H 482.758 0.469658 -0.580888 0
M  V30 4867 H 485.42 0.594398 -1.85615 0
M  V30 4868 H 484.516 2.03417 -2.36702 0
M  V30 4869 N 484.817 1.37938 0.762283 0
M  V30 4870 C 486.057 1.35076 1.53407 0
M  V30 4871 C 486.421 -0.061546 1.91901 0
M  V30 4872 O 487.622 -0.214973 2.67939 0
M  V30 4873 C 485.893 2.27206 2.75884 0
M  V30 4874 S 487.452 2.42283 3.65848 0
M  V30 4875 H 484.27 0.479387 0.52508 0
M  V30 4876 H 486.872 1.7378 0.895586 0
M  V30 4877 H 485.576 3.28724 2.457 0
M  V30 4878 H 485.107 1.8962 3.44685 0
M  V30 4879 H 487.122 1.64044 4.68299 0
M  V30 4880 N 486.295 -0.989507 1.22664 0
M  V30 4881 C 487.52 -1.77031 1.08051 0
M  V30 4882 C 487.945 -1.84535 -0.364483 0
M  V30 4883 O 487.303 -1.3003 -1.2634 0
M  V30 4884 C 487.351 -3.18 1.70024 0
M  V30 4885 O 486.455 -4.01161 0.956216 0
M  V30 4886 H 485.796 -0.545008 0.379292 0
M  V30 4887 H 488.326 -1.24277 1.62531 0
M  V30 4888 H 488.336 -3.68616 1.74888 0
M  V30 4889 H 487.011 -3.11853 2.75174 0
M  V30 4890 H 485.588 -3.59687 0.98384 0
M  V30 4891 N 487.773 -1.03688 -1.18687 0
M  V30 4892 C 489.013 -0.746858 -1.90267 0
M  V30 4893 C 489.377 0.712075 -1.78307 0
M  V30 4894 O 490.578 1.11553 -2.44559 0
M  V30 4895 C 488.849 -1.19543 -3.36815 0
M  V30 4896 S 490.408 -1.03047 -4.26529 0
M  V30 4897 H 487.226 -0.271663 -0.657054 0
M  V30 4898 H 489.828 -1.32838 -1.43437 0
M  V30 4899 H 488.532 -2.2527 -3.43047 0
M  V30 4900 H 488.063 -0.607533 -3.88681 0
M  V30 4901 H 490.078 0.0543232 -4.9617 0
M  V30 4902 N 489.251 1.34841 -0.815825 0
M  V30 4903 C 490.662 1.80937 -0.46029 0
M  V30 4904 C 491.013 1.67685 1.01863 0
M  V30 4905 O 490.138 1.21277 1.79223 0
M  V30 4906 C 490.733 3.28509 -0.828708 0
M  V30 4907 C 489.292 3.72712 -0.525644 0
M  V30 4908 C 488.439 2.56676 -1.04941 0
M  V30 4909 H 491.39 1.22688 -1.00664 0
M  V30 4910 H 491.411 3.80279 -0.129757 0
M  V30 4911 H 490.923 3.38122 -1.90513 0
M  V30 4912 H 489.024 3.68642 0.541666 0
M  V30 4913 H 489.137 4.67119 -1.06474 0
M  V30 4914 H 487.501 2.50302 -0.471286 0
M  V30 4915 H 488.284 2.69063 -2.13214 0
M  V30 4916 N 490.729 0.570148 1.46925 0
M  V30 4917 C 491.639 -0.173061 2.33961 0
M  V30 4918 C 492.655 -0.898825 1.48987 0
M  V30 4919 O 493.831 -0.864825 1.81887 0
M  V30 4920 C 490.896 -1.18177 3.25937 0
M  V30 4921 C 489.957 -0.462041 4.26806 0
M  V30 4922 C 489.19 -1.4227 5.14388 0
M  V30 4923 O 489.413 -2.65842 5.04662 0
M  V30 4924 O 488.347 -0.940127 5.94513 0
M  V30 4925 H 492.173 0.541216 2.98839 0
M  V30 4926 H 489.758 0.330647 1.45695 0
M  V30 4927 H 491.64 -1.76372 3.82715 0
M  V30 4928 H 490.315 -1.87774 2.63671 0
M  V30 4929 H 489.222 0.161429 3.73752 0
M  V30 4930 H 490.555 0.192719 4.91823 0
M  V30 4931 N 492.207 -1.54576 0.307264 0
M  V30 4932 C 493.455 -1.99867 -0.299574 0
M  V30 4933 C 493.776 -1.19714 -1.53927 0
M  V30 4934 O 493.046 -0.29472 -1.9367 0
M  V30 4935 H 491.626 -0.738299 -0.113683 0
M  V30 4936 H 494.288 -1.9032 0.420042 0
M  V30 4937 H 493.384 -3.06901 -0.567283 0
M  V30 4938 N 493.685 -0.035106 -1.57561 0
M  V30 4939 C 494.617 0.973604 -2.07494 0
M  V30 4940 C 495.63 1.28504 -0.999534 0
M  V30 4941 O 496.819 1.24864 -1.27559 0
M  V30 4942 C 493.919 2.29945 -2.48955 0
M  V30 4943 C 493.092 2.1723 -3.79644 0
M  V30 4944 C 492.151 3.328 -4.07592 0
M  V30 4945 O 491.177 3.09418 -4.77754 0
M  V30 4946 N 492.379 4.56779 -3.58236 0
M  V30 4947 H 495.144 0.547525 -2.94656 0
M  V30 4948 H 492.705 0.151515 -1.61189 0
M  V30 4949 H 494.697 3.06097 -2.64739 0
M  V30 4950 H 493.267 2.64173 -1.67126 0
M  V30 4951 H 492.487 1.25768 -3.73599 0
M  V30 4952 H 493.775 2.05945 -4.65257 0
M  V30 4953 H 493.173 4.78668 -3.01485 0
M  V30 4954 H 491.73 5.30079 -3.79288 0
M  V30 4955 N 495.163 1.55791 0.238111 0
M  V30 4956 C 496.093 1.94068 1.29846 0
M  V30 4957 C 497.074 0.806726 1.49753 0
M  V30 4958 O 498.259 1.06772 1.62214 0
M  V30 4959 C 495.389 2.24302 2.65153 0
M  V30 4960 C 494.343 3.40032 2.59927 0
M  V30 4961 C 493.669 3.55829 3.99111 0
M  V30 4962 C 494.969 4.75476 2.16148 0
M  V30 4963 H 496.663 2.82887 0.980563 0
M  V30 4964 H 494.209 1.36105 0.470253 0
M  V30 4965 H 496.162 2.4967 3.39475 0
M  V30 4966 H 494.886 1.32318 2.98596 0
M  V30 4967 H 493.545 3.14687 1.88063 0
M  V30 4968 H 493.193 2.6125 4.29834 0
M  V30 4969 H 492.893 4.3366 3.96501 0
M  V30 4970 H 494.417 3.83528 4.7512 0
M  V30 4971 H 495.831 5.00158 2.80205 0
M  V30 4972 H 494.228 5.56472 2.24631 0
M  V30 4973 H 495.298 4.71946 1.11333 0
M  V30 4974 N 496.642 -0.504142 1.49319 0
M  V30 4975 C 497.572 -1.61473 1.68667 0
M  V30 4976 C 498.553 -1.61455 0.535378 0
M  V30 4977 O 499.738 -1.78245 0.770868 0
M  V30 4978 C 496.868 -2.99971 1.75028 0
M  V30 4979 C 495.822 -3.14854 2.89916 0
M  V30 4980 C 495.148 -4.54671 2.81387 0
M  V30 4981 C 496.448 -2.95176 4.30893 0
M  V30 4982 H 498.142 -1.45535 2.61648 0
M  V30 4983 H 495.688 -0.698711 1.25913 0
M  V30 4984 H 497.641 -3.77562 1.8715 0
M  V30 4985 H 496.365 -3.1699 0.786441 0
M  V30 4986 H 495.024 -2.39687 2.77391 0
M  V30 4987 H 494.672 -4.68562 1.82917 0
M  V30 4988 H 494.372 -4.6557 3.58494 0
M  V30 4989 H 495.896 -5.34327 2.95512 0
M  V30 4990 H 497.31 -3.62538 4.44116 0
M  V30 4991 H 495.707 -3.17549 5.09198 0
M  V30 4992 H 496.777 -1.91332 4.45556 0
M  V30 4993 N 498.12 -1.38341 -0.754957 0
M  V30 4994 C 499.397 -1.24995 -1.50451 0
M  V30 4995 C 499.777 0.149244 -2.10572 0
M  V30 4996 O 499.125 1.15861 -1.96948 0
M  V30 4997 C 499.335 -2.35904 -2.57197 0
M  V30 4998 C 500.683 -2.74262 -3.24138 0
M  V30 4999 O 501.707 -2.35205 -2.67501 0
M  V30 5000 O 500.566 -3.4161 -4.26574 0
M  V30 5001 H 497.66 -0.48872 -0.667144 0
M  V30 5002 H 500.206 -1.50165 -0.790486 0
M  V30 5003 H 498.978 -3.2953 -2.11011 0
M  V30 5004 H 498.601 -2.12291 -3.36182 0
M  V30 5005 N 499.598 0.982988 -1.23187 0
M  V30 5006 C 500.508 2.10907 -1.02739 0
M  V30 5007 C 501.524 1.73979 0.0273188 0
M  V30 5008 O 502.7 2.00702 -0.16757 0
M  V30 5009 C 499.765 3.41142 -0.618304 0
M  V30 5010 C 498.826 3.92112 -1.74777 0
M  V30 5011 C 498.059 5.16131 -1.3581 0
M  V30 5012 O 498.282 5.6989 -0.241201 0
M  V30 5013 O 497.216 5.61103 -2.17824 0
M  V30 5014 H 501.042 2.31046 -1.97108 0
M  V30 5015 H 498.627 1.09284 -1.01869 0
M  V30 5016 H 500.509 4.19488 -0.400982 0
M  V30 5017 H 499.184 3.2234 0.296421 0
M  V30 5018 H 498.091 3.14895 -2.0197 0
M  V30 5019 H 499.424 4.15364 -2.64071 0
M  V30 5020 N 501.076 1.04316 1.18135 0
M  V30 5021 C 502.324 0.746542 1.87806 0
M  V30 5022 C 502.645 -0.728082 1.80898 0
M  V30 5023 O 501.915 -1.52554 1.22899 0
M  V30 5024 H 500.495 0.273157 0.695265 0
M  V30 5025 H 503.157 1.32044 1.43354 0
M  V30 5026 H 502.253 1.05362 2.93778 0
M  V30 5027 N 502.554 -1.34406 0.822964 0
M  V30 5028 C 503.484 -2.32052 0.259608 0
M  V30 5029 C 504.465 -1.58243 -0.623961 0
M  V30 5030 O 505.65 -1.86224 -0.55083 0
M  V30 5031 C 502.78 -3.42434 -0.579314 0
M  V30 5032 C 501.734 -4.27499 0.20712 0
M  V30 5033 C 501.06 -5.29349 -0.754547 0
M  V30 5034 C 502.36 -5.02758 1.41533 0
M  V30 5035 H 504.054 -2.79418 1.07545 0
M  V30 5036 H 501.6 -1.34338 0.518593 0
M  V30 5037 H 503.553 -4.0976 -0.983612 0
M  V30 5038 H 502.277 -2.93717 -1.4282 0
M  V30 5039 H 500.936 -3.61776 0.592787 0
M  V30 5040 H 500.584 -4.76895 -1.59939 0
M  V30 5041 H 500.284 -5.8714 -0.232561 0
M  V30 5042 H 501.808 -5.99544 -1.1567 0
M  V30 5043 H 503.222 -5.62938 1.08504 0
M  V30 5044 H 501.619 -5.70123 1.87296 0
M  V30 5045 H 502.689 -4.32451 2.1935 0
M  V30 5046 N 504.032 -0.577932 -1.46621 0
M  V30 5047 C 505.272 -0.0643097 -2.04299 0
M  V30 5048 C 505.636 1.26967 -1.44026 0
M  V30 5049 O 506.837 1.87224 -1.92875 0
M  V30 5050 C 505.108 0.00547588 -3.574 0
M  V30 5051 S 506.667 0.462216 -4.36359 0
M  V30 5052 H 503.485 -0.0351573 -0.71013 0
M  V30 5053 H 506.087 -0.76935 -1.79725 0
M  V30 5054 H 504.791 -0.969423 -3.98786 0
M  V30 5055 H 504.322 0.733435 -3.86503 0
M  V30 5056 H 506.337 1.71791 -4.65513 0
M  V30 5057 N 505.51 1.54411 -0.315457 0
M  V30 5058 C 506.756 2.00716 0.289972 0
M  V30 5059 C 507.089 1.2034 1.5242 0
M  V30 5060 O 506.364 0.283579 1.92422 0
M  V30 5061 C 506.647 3.54507 0.632196 0
M  V30 5062 C 506.5 4.45615 -0.61218 0
M  V30 5063 C 507.819 4.15421 1.45305 0
M  V30 5064 H 504.938 0.729637 0.10392 0
M  V30 5065 H 507.58 1.8506 -0.430427 0
M  V30 5066 H 505.73 3.67979 1.24595 0
M  V30 5067 H 507.402 4.44026 -1.25053 0
M  V30 5068 H 505.645 4.15621 -1.24264 0
M  V30 5069 H 506.316 5.51022 -0.328379 0
M  V30 5070 H 508.792 4.05474 0.934331 0
M  V30 5071 H 507.668 5.23157 1.66127 0
M  V30 5072 H 507.929 3.68223 2.44671 0
M  V30 5073 N 506.988 0.0434614 1.5754 0
M  V30 5074 C 507.898 -0.94893 2.14552 0
M  V30 5075 C 508.914 -1.34707 1.10136 0
M  V30 5076 O 510.09 -1.42557 1.42266 0
M  V30 5077 C 507.155 -2.208 2.67298 0
M  V30 5078 C 506.216 -1.86893 3.86484 0
M  V30 5079 C 505.449 -3.06797 4.36705 0
M  V30 5080 O 505.672 -4.19921 3.86034 0
M  V30 5081 O 504.606 -2.8826 5.28384 0
M  V30 5082 H 508.432 -0.494099 2.99654 0
M  V30 5083 H 506.017 -0.177989 1.48336 0
M  V30 5084 H 507.899 -2.94686 3.01228 0
M  V30 5085 H 506.574 -2.65436 1.85272 0
M  V30 5086 H 505.481 -1.10347 3.57455 0
M  V30 5087 H 506.814 -1.47062 4.69716 0
M  V30 5088 N 508.466 -1.55915 -0.229846 0
M  V30 5089 C 509.691 -1.8296 -0.976743 0
M  V30 5090 C 510.116 -0.622735 -1.77493 0
M  V30 5091 O 509.474 0.428431 -1.76165 0
M  V30 5092 C 509.522 -3.07916 -1.8767 0
M  V30 5093 O 508.626 -2.86028 -2.97088 0
M  V30 5094 H 507.967 -0.603453 -0.277021 0
M  V30 5095 H 510.497 -2.0312 -0.245669 0
M  V30 5096 H 510.507 -3.37802 -2.2881 0
M  V30 5097 H 509.182 -3.95389 -1.28996 0
M  V30 5098 H 507.759 -2.67355 -2.59954 0
M  V30 5099 N 509.944 0.496216 -1.49584 0
M  V30 5100 C 511.172 1.27394 -1.63029 0
M  V30 5101 C 511.587 1.86344 -0.303569 0
M  V30 5102 O 510.944 1.68057 0.711547 0
M  V30 5103 C 510.995 2.40077 -2.70269 0
M  V30 5104 O 510.716 1.83549 -3.97796 0
M  V30 5105 C 512.217 3.31372 -2.94462 0
M  V30 5106 H 509.437 0.386211 -0.54871 0
M  V30 5107 H 511.981 0.595163 -1.95648 0
M  V30 5108 H 510.136 3.03775 -2.40415 0
M  V30 5109 H 510.55 2.57561 -4.56905 0
M  V30 5110 H 512.024 4.06707 -3.73221 0
M  V30 5111 H 512.501 3.88654 -2.0456 0
M  V30 5112 H 513.107 2.73435 -3.25751 0
M  V30 5113 N 511.423 1.38739 0.74761 0
M  V30 5114 C 512.333 1.38696 1.89211 0
M  V30 5115 C 513.349 0.283303 1.71678 0
M  V30 5116 O 514.525 0.522713 1.94498 0
M  V30 5117 C 511.59 1.21662 3.24653 0
M  V30 5118 C 510.651 2.41886 3.54669 0
M  V30 5119 C 509.884 2.25655 4.83648 0
M  V30 5120 O 510.107 1.25339 5.56459 0
M  V30 5121 O 509.041 3.14372 5.13277 0
M  V30 5122 H 512.867 2.35143 1.92202 0
M  V30 5123 H 510.452 1.19721 0.893708 0
M  V30 5124 H 512.334 1.14246 4.05618 0
M  V30 5125 H 511.009 0.283024 3.2246 0
M  V30 5126 H 509.916 2.54877 2.73841 0
M  V30 5127 H 511.249 3.33895 3.61628 0
M  V30 5128 N 512.901 -0.976442 1.23707 0
M  V30 5129 C 514.141 -1.73331 1.08332 0
M  V30 5130 C 514.505 -1.88346 -0.372781 0
M  V30 5131 O 515.706 -2.60877 -0.647813 0
M  V30 5132 C 513.977 -3.09159 1.7932 0
M  V30 5133 S 515.536 -4.00376 1.79567 0
M  V30 5134 H 512.354 -0.596045 0.387622 0
M  V30 5135 H 514.956 -1.16625 1.56904 0
M  V30 5136 H 513.66 -2.95884 2.84395 0
M  V30 5137 H 513.191 -3.70932 1.31046 0
M  V30 5138 H 515.206 -4.88742 0.857094 0
M  V30 5139 N 514.379 -1.04941 -1.1758 0
M  V30 5140 C 515.79 -0.784501 -1.69418 0
M  V30 5141 C 516.141 0.693625 -1.8353 0
M  V30 5142 O 515.266 1.53925 -1.52106 0
M  V30 5143 C 515.861 -1.41746 -3.07723 0
M  V30 5144 C 514.42 -1.20066 -3.56737 0
M  V30 5145 C 513.567 -1.5026 -2.33061 0
M  V30 5146 H 516.518 -1.21469 -1.02133 0
M  V30 5147 H 516.539 -0.825381 -3.7144 0
M  V30 5148 H 516.051 -2.49325 -2.9742 0
M  V30 5149 H 514.152 -0.144006 -3.72322 0
M  V30 5150 H 514.265 -1.90384 -4.39648 0
M  V30 5151 H 512.629 -0.922598 -2.37403 0
M  V30 5152 H 513.412 -2.58967 -2.25368 0
M  V30 5153 N 515.857 1.33968 -0.830081 0
M  V30 5154 C 517.097 1.99879 -0.427521 0
M  V30 5155 C 517.461 1.64355 0.992546 0
M  V30 5156 O 518.662 2.23164 1.49837 0
M  V30 5157 C 516.933 3.51771 -0.631815 0
M  V30 5158 S 518.492 4.37608 -0.323168 0
M  V30 5159 H 515.31 0.692485 -0.161202 0
M  V30 5160 H 517.912 1.63129 -1.07745 0
M  V30 5161 H 516.616 3.75113 -1.66488 0
M  V30 5162 H 516.147 3.93386 0.0325936 0
M  V30 5163 H 518.162 4.88683 0.860432 0
M  V30 5164 N 517.335 0.585699 1.46312 0
M  V30 5165 C 518.581 0.0725284 2.0267 0
M  V30 5166 C 518.914 -1.28523 1.45586 0
M  V30 5167 O 518.189 -1.84283 0.622101 0
M  V30 5168 C 518.472 0.0099788 3.60099 0
M  V30 5169 C 518.325 1.39685 4.27561 0
M  V30 5170 C 519.644 -0.689117 4.34671 0
M  V30 5171 H 516.763 0.0278307 0.736474 0
M  V30 5172 H 519.405 0.753472 1.74421 0
M  V30 5173 H 517.555 -0.56992 3.84297 0
M  V30 5174 H 519.227 2.02215 4.14617 0
M  V30 5175 H 517.47 1.96374 3.86807 0
M  V30 5176 H 518.141 1.30553 5.36339 0
M  V30 5177 H 520.617 -0.196446 4.15636 0
M  V30 5178 H 519.493 -0.701921 5.44393 0
M  V30 5179 H 519.754 -1.75101 4.05946 0
M  V30 5180 N 518.813 -1.54241 0.323641 0
M  V30 5181 C 519.763 -2.21071 -0.557833 0
M  V30 5182 C 520.747 -1.19126 -1.08157 0
M  V30 5183 O 521.939 -1.44755 -1.01857 0
M  V30 5184 C 519.068 -2.97208 -1.71821 0
M  V30 5185 C 518.154 -4.06491 -1.20936 0
M  V30 5186 N 518.545 -5.04052 -0.420202 0
M  V30 5187 C 516.843 -4.20443 -1.48808 0
M  V30 5188 C 517.544 -5.81516 -0.146413 0
M  V30 5189 N 516.52 -5.38641 -0.732562 0
M  V30 5190 H 520.322 -2.93853 0.0523921 0
M  V30 5191 H 517.836 -1.61883 0.129502 0
M  V30 5192 H 519.833 -3.4357 -2.36146 0
M  V30 5193 H 518.493 -2.25947 -2.33191 0
M  V30 5194 H 519.504 -5.17862 -0.0630401 0
M  V30 5195 H 516.181 -3.60396 -2.10762 0
M  V30 5196 H 517.571 -6.70119 0.488895 0
M  V30 5197 N 520.291 -0.0518155 -1.57515 0
M  V30 5198 C 521.516 0.634896 -1.97443 0
M  V30 5199 C 521.941 1.63546 -0.929207 0
M  V30 5200 O 521.299 1.80981 0.107484 0
M  V30 5201 C 521.347 1.29765 -3.36442 0
M  V30 5202 O 520.451 2.41333 -3.34413 0
M  V30 5203 H 519.792 0.164994 -0.643174 0
M  V30 5204 H 522.322 -0.120407 -2.04245 0
M  V30 5205 H 522.332 1.64918 -3.73184 0
M  V30 5206 H 521.007 0.564361 -4.12053 0
M  V30 5207 H 519.584 2.08122 -3.09418 0
M  V30 5208 N 521.769 1.56035 0.221574 0
M  V30 5209 C 523.017 1.78693 0.944102 0
M  V30 5210 C 523.338 0.620317 1.8487 0
M  V30 5211 O 522.608 -0.362784 1.92512 0
M  V30 5212 H 521.188 0.659082 0.351597 0
M  V30 5213 H 523.85 1.93497 0.233435 0
M  V30 5214 H 522.946 2.70837 1.55093 0
M  V30 5215 N 523.247 -0.488276 1.49845 0
M  V30 5216 C 524.194 -1.58836 1.67451 0
M  V30 5217 C 525.164 -1.57886 0.515857 0
M  V30 5218 O 526.349 -1.75679 0.744403 0
M  V30 5219 C 523.489 -2.96915 1.75885 0
M  V30 5220 C 522.602 -3.07784 3.03138 0
M  V30 5221 C 521.737 -4.36673 3.02473 0
M  V30 5222 C 520.776 -4.41222 4.24252 0
M  V30 5223 N 519.913 -5.61557 4.21424 0
M  V30 5224 H 524.753 -1.43131 2.61376 0
M  V30 5225 H 522.29 -0.696186 1.29583 0
M  V30 5226 H 524.248 -3.76965 1.78755 0
M  V30 5227 H 522.878 -3.11295 0.85414 0
M  V30 5228 H 521.93 -2.20717 3.09819 0
M  V30 5229 H 523.242 -3.07005 3.93128 0
M  V30 5230 H 522.396 -5.25055 3.03977 0
M  V30 5231 H 521.135 -4.40037 2.10283 0
M  V30 5232 H 520.14 -3.5124 4.22978 0
M  V30 5233 H 521.365 -4.39564 5.17649 0
M  V30 5234 H 519.311 -5.65738 3.32078 0
M  V30 5235 H 519.228 -5.62447 5.05163 0
M  V30 5236 H 520.496 -6.52111 4.2705 0
M  V30 5237 N 524.725 -1.39134 -0.740242 0
M  V30 5238 C 526.141 -1.20623 -1.0451 0
M  V30 5239 C 526.341 -0.0641651 -2.01398 0
M  V30 5240 O 525.397 0.585843 -2.4561 0
M  V30 5241 C 526.71 -2.53815 -1.6124 0
M  V30 5242 C 528.258 -2.60615 -1.73346 0
M  V30 5243 C 528.733 -3.94015 -2.33486 0
M  V30 5244 N 530.224 -3.95627 -2.40902 0
M  V30 5245 C 530.959 -4.95616 -2.88361 0
M  V30 5246 N 530.455 -6.06003 -3.35756 0
M  V30 5247 N 532.248 -4.82998 -2.87523 0
M  V30 5248 H 524.399 -2.12176 -0.0975576 0
M  V30 5249 H 526.662 -0.942066 -0.105904 0
M  V30 5250 H 526.368 -3.37911 -0.975144 0
M  V30 5251 H 526.242 -2.73162 -2.6012 0
M  V30 5252 H 528.629 -1.76906 -2.36195 0
M  V30 5253 H 528.71 -2.45123 -0.731336 0
M  V30 5254 H 528.354 -4.78153 -1.71267 0
M  V30 5255 H 528.284 -4.06825 -3.34366 0
M  V30 5256 H 530.775 -3.15903 -2.07398 0
M  V30 5257 H 531.088 -6.78215 -3.70464 0
M  V30 5258 H 529.433 -6.09604 -3.33778 0
M  V30 5259 H 532.624 -3.95866 -2.49816 0
M  V30 5260 H 532.797 -5.61072 -3.24196 0
M  V30 5261 N 526.204 0.969867 -1.24223 0
M  V30 5262 C 527.434 1.74502 -1.106 0
M  V30 5263 C 527.842 1.86038 0.344483 0
M  V30 5264 O 527.185 1.3465 1.24961 0
M  V30 5265 C 527.247 3.18391 -1.66935 0
M  V30 5266 C 526.911 3.30334 -3.15798 0
M  V30 5267 C 527.908 3.15832 -4.12973 0
M  V30 5268 C 525.593 3.54644 -3.55715 0
M  V30 5269 C 527.587 3.25461 -5.48045 0
M  V30 5270 C 525.274 3.63912 -4.90929 0
M  V30 5271 C 526.272 3.49332 -5.86904 0
M  V30 5272 O 525.96 3.58251 -7.1966 0
M  V30 5273 H 525.692 0.554119 -0.387206 0
M  V30 5274 H 528.246 1.22646 -1.64764 0
M  V30 5275 H 526.476 3.71543 -1.07203 0
M  V30 5276 H 528.165 3.77707 -1.48634 0
M  V30 5277 H 528.931 2.96937 -3.83476 0
M  V30 5278 H 524.81 3.65059 -2.81519 0
M  V30 5279 H 528.354 3.13998 -6.22937 0
M  V30 5280 H 524.251 3.82319 -5.20098 0
M  V30 5281 H 525.019 3.7498 -7.27552 0
M  V30 5282 N 527.682 1.05563 1.17022 0
M  V30 5283 C 529.093 0.793475 1.69 0
M  V30 5284 C 529.444 -0.683882 1.83895 0
M  V30 5285 O 528.569 -1.53116 1.5292 0
M  V30 5286 C 529.164 1.43376 3.06967 0
M  V30 5287 C 527.723 1.21956 3.56095 0
M  V30 5288 C 526.87 1.51494 2.3226 0
M  V30 5289 H 529.821 1.22008 1.01487 0
M  V30 5290 H 529.842 0.845068 3.70997 0
M  V30 5291 H 529.354 2.50899 2.96093 0
M  V30 5292 H 527.455 0.163749 3.7224 0
M  V30 5293 H 527.568 1.92713 4.38633 0
M  V30 5294 H 525.932 0.935175 2.3691 0
M  V30 5295 H 526.715 2.60159 2.23992 0
M  V30 5296 N 529.16 -1.33526 0.837174 0
M  V30 5297 C 530.571 -1.80182 0.489017 0
M  V30 5298 C 530.922 -1.69285 -0.991826 0
M  V30 5299 O 530.047 -1.24113 -1.77271 0
M  V30 5300 C 530.642 -3.27149 0.880866 0
M  V30 5301 C 529.201 -3.71828 0.584872 0
M  V30 5302 C 528.348 -2.54974 1.09011 0
M  V30 5303 H 531.299 -1.21071 1.02603 0
M  V30 5304 H 531.32 -3.80024 0.190239 0
M  V30 5305 H 530.832 -3.35048 1.95869 0
M  V30 5306 H 528.933 -3.69457 -0.48295 0
M  V30 5307 H 529.046 -4.65366 1.13892 0
M  V30 5308 H 527.41 -2.4952 0.511047 0
M  V30 5309 H 528.193 -2.65637 2.17467 0
M  V30 5310 N 530.638 -0.59345 -1.46 0
M  V30 5311 C 531.886 -0.082988 -2.0193 0
M  V30 5312 C 532.207 1.28569 -1.46612 0
M  V30 5313 O 531.477 1.84629 -0.654909 0
M  V30 5314 H 530.057 -0.0276882 -0.746487 0
M  V30 5315 H 532.719 -0.771657 -1.78973 0
M  V30 5316 H 531.815 -0.022079 -3.12092 0
M  V30 5317 N 532.116 1.54067 -0.331816 0
M  V30 5318 C 533.344 2.05131 0.269996 0
M  V30 5319 C 533.759 1.20749 1.45138 0
M  V30 5320 O 533.116 0.240069 1.80914 0
M  V30 5321 C 533.167 3.54728 0.696456 0
M  V30 5322 O 532.888 4.35906 -0.43794 0
M  V30 5323 C 534.389 4.21916 1.36021 0
M  V30 5324 H 531.609 0.668807 0.0542042 0
M  V30 5325 H 534.153 1.98777 -0.4804 0
M  V30 5326 H 532.308 3.61342 1.39681 0
M  V30 5327 H 532.722 5.24404 -0.100334 0
M  V30 5328 H 534.196 5.28015 1.60947 0
M  V30 5329 H 534.673 3.73538 2.31011 0
M  V30 5330 H 535.279 4.19463 0.702212 0
M  V30 5331 N 533.594 0.0601682 1.57485 0
M  V30 5332 C 534.819 -0.624416 1.97777 0
M  V30 5333 C 535.244 -1.63051 0.937867 0
M  V30 5334 O 534.602 -1.81036 -0.0978845 0
M  V30 5335 C 534.65 -1.27979 3.37126 0
M  V30 5336 O 533.754 -2.39556 3.35688 0
M  V30 5337 H 533.095 -0.161581 0.64404 0
M  V30 5338 H 535.625 0.131237 2.04179 0
M  V30 5339 H 535.635 -1.62937 3.74053 0
M  V30 5340 H 534.31 -0.542501 4.12347 0
M  V30 5341 H 532.887 -2.06478 3.10517 0
M  V30 5342 N 535.072 -1.5615 -0.213296 0
M  V30 5343 C 536.002 -1.96109 -1.26742 0
M  V30 5344 C 536.983 -0.830448 -1.48451 0
M  V30 5345 O 538.168 -1.09339 -1.60495 0
M  V30 5346 C 535.298 -2.28492 -2.61551 0
M  V30 5347 C 534.252 -3.44124 -2.54485 0
M  V30 5348 C 533.578 -3.62134 -3.93399 0
M  V30 5349 C 534.878 -4.78855 -2.08556 0
M  V30 5350 H 536.572 -2.84412 -0.935434 0
M  V30 5351 H 534.118 -1.36836 -0.44854 0
M  V30 5352 H 536.071 -2.55039 -3.3546 0
M  V30 5353 H 534.795 -1.37052 -2.96453 0
M  V30 5354 H 533.454 -3.17639 -1.83033 0
M  V30 5355 H 533.102 -2.68055 -4.25623 0
M  V30 5356 H 532.802 -4.39913 -3.89551 0
M  V30 5357 H 534.326 -3.91038 -4.68958 0
M  V30 5358 H 535.74 -5.04552 -2.72213 0
M  V30 5359 H 534.137 -5.59975 -2.1575 0
M  V30 5360 H 535.207 -4.73657 -1.03811 0
M  V30 5361 N 536.55 0.480323 -1.50102 0
M  V30 5362 C 537.775 1.26126 -1.64642 0
M  V30 5363 C 538.2 1.85257 -0.325823 0
M  V30 5364 O 537.558 1.66854 0.709194 0
M  V30 5365 C 537.606 2.35243 -2.73301 0
M  V30 5366 O 536.71 3.39646 -2.33911 0
M  V30 5367 H 536.051 0.371463 -0.550374 0
M  V30 5368 H 538.581 0.572696 -1.96421 0
M  V30 5369 H 538.591 2.80695 -2.96098 0
M  V30 5370 H 537.266 1.91574 -3.6915 0
M  V30 5371 H 535.843 2.99969 -2.21525 0
M  V30 5372 N 538.028 1.39524 0.732853 0
M  V30 5373 C 539.444 1.21176 1.03868 0
M  V30 5374 C 539.644 0.0748448 2.01361 0
M  V30 5375 O 538.7 -0.57281 2.45917 0
M  V30 5376 C 540.013 2.54667 1.59892 0
M  V30 5377 C 541.561 2.6153 1.71962 0
M  V30 5378 C 542.036 3.95248 2.31394 0
M  V30 5379 N 543.527 3.96899 2.38801 0
M  V30 5380 C 544.262 4.97138 2.85729 0
M  V30 5381 N 543.758 6.07775 3.32537 0
M  V30 5382 N 545.551 4.84516 2.84957 0
M  V30 5383 H 537.702 2.12225 0.086304 0
M  V30 5384 H 539.965 0.942614 0.100907 0
M  V30 5385 H 539.671 3.38423 0.95721 0
M  V30 5386 H 539.545 2.74538 2.58668 0
M  V30 5387 H 541.932 1.78156 2.35254 0
M  V30 5388 H 542.013 2.45507 0.718327 0
M  V30 5389 H 541.657 4.79054 1.68729 0
M  V30 5390 H 541.587 4.08593 3.32204 0
M  V30 5391 H 544.078 3.16998 2.05719 0
M  V30 5392 H 544.391 6.8017 3.66862 0
M  V30 5393 H 542.736 6.11366 3.30541 0
M  V30 5394 H 545.927 3.97185 2.47713 0
M  V30 5395 H 546.1 5.62783 3.21215 0
M  V30 5396 N 539.506 -0.963266 1.24736 0
M  V30 5397 C 540.783 -1.68248 0.9976 0
M  V30 5398 C 541.163 -2.05599 -0.478776 0
M  V30 5399 O 540.511 -1.7626 -1.45412 0
M  V30 5400 C 540.721 -2.91118 1.92487 0
M  V30 5401 C 542.069 -3.63261 2.19833 0
M  V30 5402 O 543.093 -3.01184 1.90176 0
M  V30 5403 O 541.952 -4.75019 2.7022 0
M  V30 5404 H 539.046 -0.735744 0.377637 0
M  V30 5405 H 541.592 -1.01696 1.35853 0
M  V30 5406 H 540.364 -2.60242 2.92215 0
M  V30 5407 H 539.987 -3.65402 1.56738 0
M  V30 5408 N 540.985 -1.06182 -1.16461 0
M  V30 5409 C 542.225 -0.787048 -1.8864 0
M  V30 5410 C 542.589 0.674093 -1.79778 0
M  V30 5411 O 543.79 1.06341 -2.46871 0
M  V30 5412 C 542.061 -1.2666 -3.34203 0
M  V30 5413 S 543.62 -1.12071 -4.24247 0
M  V30 5414 H 540.438 -0.285539 -0.651144 0
M  V30 5415 H 543.04 -1.35851 -1.40587 0
M  V30 5416 H 541.744 -2.32496 -3.38192 0
M  V30 5417 H 541.275 -0.689841 -3.87304 0
M  V30 5418 H 543.29 -0.0509341 -4.96174 0
M  V30 5419 N 542.463 1.3308 -0.844243 0
M  V30 5420 C 543.411 2.31028 -0.269954 0
M  V30 5421 C 544.405 1.58381 0.600997 0
M  V30 5422 O 545.611 1.73203 0.48996 0
M  V30 5423 H 541.986 0.748866 -0.0685782 0
M  V30 5424 H 543.957 2.76967 -1.11049 0
M  V30 5425 C 542.706 3.43549 0.535676 0
M  V30 5426 H 542.029 3.99604 -0.125202 0
M  V30 5427 H 543.469 4.14267 0.903262 0
M  V30 5428 C 541.928 2.8988 1.71672 0
M  V30 5429 O 542.458 2.86511 2.81557 0
M  V30 5430 N 540.664 2.46416 1.54037 0
M  V30 5431 H 540.211 2.49356 0.64649 0
M  V30 5432 H 540.169 2.1086 2.33207 0
M  V30 5433 N 543.941 0.601185 1.45683 0
M  V30 5434 C 545.169 0.100054 2.06658 0
M  V30 5435 C 545.584 -1.21285 1.44691 0
M  V30 5436 O 544.941 -1.73735 0.558772 0
M  V30 5437 C 544.992 -0.0528579 3.61461 0
M  V30 5438 O 544.713 1.20809 4.21114 0
M  V30 5439 C 546.214 -0.586193 4.39407 0
M  V30 5440 H 543.434 0.065905 0.667756 0
M  V30 5441 H 545.978 0.827101 1.87028 0
M  V30 5442 H 544.133 -0.730203 3.80456 0
M  V30 5443 H 544.547 1.03368 5.14213 0
M  V30 5444 H 546.021 -0.642297 5.4825 0
M  V30 5445 H 546.498 -1.60713 4.0874 0
M  V30 5446 H 547.104 0.0568935 4.25262 0
M  V30 5447 N 545.419 -1.53889 0.339982 0
M  V30 5448 C 546.659 -2.02765 -0.258011 0
M  V30 5449 C 547.023 -1.22249 -1.48051 0
M  V30 5450 O 548.224 -1.61007 -2.15245 0
M  V30 5451 C 546.495 -3.5286 -0.567872 0
M  V30 5452 S 548.054 -4.23647 -1.14318 0
M  V30 5453 H 544.872 -0.706814 -0.0770389 0
M  V30 5454 H 547.474 -1.89594 0.476917 0
M  V30 5455 H 546.178 -4.09073 0.329745 0
M  V30 5456 H 545.709 -3.70144 -1.33256 0
M  V30 5457 H 547.724 -4.32676 -2.42911 0
M  V30 5458 N 546.897 -0.0685191 -1.57451 0
M  V30 5459 C 548.146 0.600898 -1.92541 0
M  V30 5460 C 548.459 1.70967 -0.950239 0
M  V30 5461 O 549.665 2.43844 -1.19384 0
M  V30 5462 C 548.121 1.12019 -3.42023 0
M  V30 5463 C 547.729 0.0426028 -4.4798 0
M  V30 5464 C 549.473 1.76386 -3.86119 0
M  V30 5465 C 547.38 0.575759 -5.88591 0
M  V30 5466 H 546.31 0.228225 -0.71863 0
M  V30 5467 H 548.961 -0.140223 -1.82963 0
M  V30 5468 H 547.343 1.91418 -3.46663 0
M  V30 5469 H 548.517 -0.73182 -4.54952 0
M  V30 5470 H 546.832 -0.504642 -4.13331 0
M  V30 5471 H 549.429 2.17302 -4.88553 0
M  V30 5472 H 549.772 2.62255 -3.23308 0
M  V30 5473 H 550.305 1.03615 -3.84069 0
M  V30 5474 H 547.044 -0.245691 -6.55039 0
M  V30 5475 H 546.564 1.31778 -5.85145 0
M  V30 5476 H 548.243 1.0532 -6.3837 0
M  V30 5477 N 548.375 1.56261 0.205012 0
M  V30 5478 C 549.615 1.81823 0.933806 0
M  V30 5479 C 549.979 0.644534 1.80858 0
M  V30 5480 O 551.18 0.779819 2.5724 0
M  V30 5481 C 549.451 3.12362 1.7368 0
M  V30 5482 S 551.01 3.59296 2.51897 0
M  V30 5483 H 547.828 0.638209 0.313386 0
M  V30 5484 H 550.43 1.94495 0.198001 0
M  V30 5485 H 549.134 3.95809 1.08459 0
M  V30 5486 H 548.665 3.02542 2.5146 0
M  V30 5487 H 550.68 3.23945 3.75864 0
M  V30 5488 N 549.853 -0.472356 1.50355 0
M  V30 5489 C 551.269 -0.806001 1.37753 0
M  V30 5490 C 551.469 -1.968 0.432649 0
M  V30 5491 O 550.525 -2.52189 -0.12519 0
M  V30 5492 C 551.838 -1.11926 2.79093 0
M  V30 5493 C 553.386 -1.22579 2.87999 0
M  V30 5494 C 553.861 -1.57218 4.3017 0
M  V30 5495 N 555.352 -1.64212 4.33115 0
M  V30 5496 C 556.087 -1.92517 5.40116 0
M  V30 5497 N 555.583 -2.1885 6.57325 0
M  V30 5498 N 557.376 -1.94008 5.27558 0
M  V30 5499 H 549.527 0.293451 2.10363 0
M  V30 5500 H 551.79 0.0687672 0.945503 0
M  V30 5501 H 551.496 -0.338504 3.50067 0
M  V30 5502 H 551.37 -2.05577 3.16256 0
M  V30 5503 H 553.757 -1.99722 2.17245 0
M  V30 5504 H 553.838 -0.269107 2.54381 0
M  V30 5505 H 553.482 -0.806154 5.01461 0
M  V30 5506 H 553.412 -2.54034 4.61275 0
M  V30 5507 H 555.903 -1.45906 3.48597 0
M  V30 5508 H 556.216 -2.39718 7.3468 0
M  V30 5509 H 554.561 -2.16245 6.60502 0
M  V30 5510 H 557.752 -1.72931 4.34986 0
M  V30 5511 H 557.925 -2.15731 6.11035 0
M  V30 5512 N 551.331 -1.39911 -0.725443 0
M  V30 5513 C 552.279 -1.39552 -1.86086 0
M  V30 5514 C 553.273 -0.277334 -1.67114 0
M  V30 5515 O 554.479 -0.447865 -1.74339 0
M  V30 5516 H 550.854 -0.435993 -0.612711 0
M  V30 5517 H 552.825 -2.35305 -1.83505 0
M  V30 5518 C 551.574 -1.26529 -3.2386 0
M  V30 5519 H 550.897 -2.11845 -3.3906 0
M  V30 5520 H 552.337 -1.30336 -4.03471 0
M  V30 5521 C 550.796 0.0254168 -3.3689 0
M  V30 5522 O 551.326 0.992048 -3.89257 0
M  V30 5523 N 549.532 0.0916528 -2.90455 0
M  V30 5524 H 549.079 -0.695675 -2.48028 0
M  V30 5525 H 549.037 0.954745 -2.99553 0
M  V30 5526 N 552.809 0.956637 -1.25245 0
M  V30 5527 C 554.034 1.74104 -1.12706 0
M  V30 5528 C 554.459 1.85436 0.315429 0
M  V30 5529 O 553.817 1.33334 1.22848 0
M  V30 5530 C 553.865 3.1338 -1.78396 0
M  V30 5531 O 552.969 3.98485 -1.06224 0
M  V30 5532 H 552.31 0.53476 -0.393609 0
M  V30 5533 H 554.84 1.19924 -1.65769 0
M  V30 5534 H 554.85 3.6385 -1.846 0
M  V30 5535 H 553.525 3.04448 -2.83345 0
M  V30 5536 H 552.102 3.56952 -1.07886 0
M  V30 5537 N 554.287 1.06798 1.15896 0
M  V30 5538 C 555.219 0.641263 2.20046 0
M  V30 5539 C 556.232 -0.303355 1.59949 0
M  V30 5540 O 557.421 -0.0935478 1.78255 0
M  V30 5541 C 554.521 -0.0794029 3.38807 0
M  V30 5542 C 553.694 0.879986 4.28457 0
M  V30 5543 C 552.753 0.197638 5.25829 0
M  V30 5544 O 551.779 0.836913 5.63014 0
M  V30 5545 N 552.981 -1.05886 5.70761 0
M  V30 5546 H 555.746 1.53718 2.57276 0
M  V30 5547 H 553.307 0.951951 1.30956 0
M  V30 5548 H 555.299 -0.546418 4.00994 0
M  V30 5549 H 553.869 -0.877193 3.0004 0
M  V30 5550 H 553.089 1.52625 3.63454 0
M  V30 5551 H 554.377 1.53065 4.8523 0
M  V30 5552 H 553.775 -1.59828 5.42652 0
M  V30 5553 H 552.332 -1.46965 6.35015 0
M  V30 5554 N 555.766 -1.3263 0.851289 0
M  V30 5555 C 557.012 -1.98061 0.462963 0
M  V30 5556 C 557.367 -1.66162 -0.969948 0
M  V30 5557 O 556.66 -0.937723 -1.67085 0
M  V30 5558 C 556.854 -3.51713 0.635015 0
M  V30 5559 C 556.683 -3.98544 2.0831 0
M  V30 5560 C 555.453 -4.25787 2.72091 0
M  V30 5561 C 557.651 -4.13858 3.0533 0
M  V30 5562 N 555.633 -4.58842 4.07845 0
M  V30 5563 C 557.004 -4.50412 4.26063 0
M  V30 5564 C 559.059 -3.96182 3.0157 0
M  V30 5565 C 557.762 -4.71136 5.43529 0
M  V30 5566 C 559.788 -4.18088 4.18278 0
M  V30 5567 C 559.15 -4.54956 5.37768 0
M  V30 5568 H 555.249 -0.750976 0.218082 0
M  V30 5569 H 557.833 -1.60514 1.10197 0
M  V30 5570 H 556.004 -3.88391 0.0257298 0
M  V30 5571 H 557.736 -4.04118 0.216915 0
M  V30 5572 H 554.491 -4.17734 2.23149 0
M  V30 5573 H 554.915 -4.7956 4.77862 0
M  V30 5574 H 559.557 -3.66783 2.1031 0
M  V30 5575 H 557.275 -4.9939 6.35323 0
M  V30 5576 H 560.861 -4.05918 4.168 0
M  V30 5577 H 559.741 -4.71567 6.26573 0
M  V30 5578 N 557.244 -0.608902 -1.45362 0
M  V30 5579 C 558.493 -0.10218 -2.01441 0
M  V30 5580 C 558.806 1.27546 -1.48295 0
M  V30 5581 O 560.012 1.87498 -1.96359 0
M  V30 5582 C 558.468 -0.131985 -3.59658 0
M  V30 5583 C 558.076 -1.50956 -4.21801 0
M  V30 5584 C 559.82 0.319427 -4.23296 0
M  V30 5585 C 557.727 -1.49568 -5.72174 0
M  V30 5586 H 556.657 -0.0344314 -0.753213 0
M  V30 5587 H 559.308 -0.764426 -1.6682 0
M  V30 5588 H 557.69 0.596939 -3.91475 0
M  V30 5589 H 558.864 -2.26029 -4.01556 0
M  V30 5590 H 557.179 -1.90318 -3.70362 0
M  V30 5591 H 559.776 0.349013 -5.3356 0
M  V30 5592 H 560.119 1.34237 -3.94064 0
M  V30 5593 H 560.652 -0.356273 -3.96201 0
M  V30 5594 H 557.391 -2.49626 -6.06108 0
M  V30 5595 H 556.911 -0.787542 -5.94607 0
M  V30 5596 H 558.59 -1.21989 -6.35396 0
M  V30 5597 N 558.722 1.53707 -0.348139 0
M  V30 5598 C 559.962 2.02899 0.247254 0
M  V30 5599 C 560.326 1.23033 1.47401 0
M  V30 5600 O 561.527 1.62146 2.14388 0
M  V30 5601 C 559.798 3.53156 0.549151 0
M  V30 5602 S 561.357 4.24247 1.1207 0
M  V30 5603 H 558.175 0.707213 0.0732894 0
M  V30 5604 H 560.777 1.89338 -0.486965 0
M  V30 5605 H 559.481 4.08893 -0.351435 0
M  V30 5606 H 559.012 3.70845 1.31291 0
M  V30 5607 H 561.027 4.33958 2.40613 0
M  V30 5608 N 560.2 0.0768682 1.57412 0
M  V30 5609 C 561.425 -0.603404 1.98428 0
M  V30 5610 C 561.85 -1.62047 0.955108 0
M  V30 5611 O 561.208 -1.81129 -0.0786778 0
M  V30 5612 C 561.256 -1.24396 3.38464 0
M  V30 5613 O 560.36 -2.35982 3.3821 0
M  V30 5614 H 559.701 -0.154741 0.645718 0
M  V30 5615 H 562.231 0.152885 2.04028 0
M  V30 5616 H 562.241 -1.5896 3.7576 0
M  V30 5617 H 560.916 -0.498735 4.12899 0
M  V30 5618 H 559.493 -2.03173 3.1269 0
M  V30 5619 N 561.678 -1.56367 -0.196722 0
M  V30 5620 C 562.626 -1.95304 -1.2633 0
M  V30 5621 C 563.62 -0.838252 -1.47206 0
M  V30 5622 O 564.826 -1.02325 -1.48087 0
M  V30 5623 H 561.201 -0.621013 -0.424083 0
M  V30 5624 H 563.172 -2.84254 -0.907879 0
M  V30 5625 C 561.921 -2.3074 -2.60104 0
M  V30 5626 H 561.244 -3.16047 -2.44856 0
M  V30 5627 H 562.684 -2.61849 -3.33484 0
M  V30 5628 C 561.143 -1.14143 -3.16975 0
M  V30 5629 O 561.673 -0.415602 -3.99544 0
M  V30 5630 N 559.879 -0.91867 -2.75697 0
M  V30 5631 H 559.426 -1.51065 -2.08656 0
M  V30 5632 H 559.384 -0.140321 -3.14087 0
M  V30 5633 N 563.156 0.464375 -1.50603 0
M  V30 5634 C 564.066 1.58723 -1.72754 0
M  V30 5635 C 565.082 1.62925 -0.610844 0
M  V30 5636 O 566.258 1.8067 -0.889963 0
M  V30 5637 C 563.323 2.94897 -1.82309 0
M  V30 5638 C 562.384 3.0103 -3.06071 0
M  V30 5639 C 561.617 4.30708 -3.1516 0
M  V30 5640 O 561.84 5.2159 -2.30868 0
M  V30 5641 O 560.774 4.42571 -4.0794 0
M  V30 5642 H 564.6 1.42954 -2.67951 0
M  V30 5643 H 562.185 0.644579 -1.3478 0
M  V30 5644 H 564.067 3.75764 -1.90735 0
M  V30 5645 H 562.742 3.10851 -0.902967 0
M  V30 5646 H 561.649 2.19217 -3.03142 0
M  V30 5647 H 562.982 2.90014 -3.97684 0
M  V30 5648 N 564.634 1.40294 0.718013 0
M  V30 5649 C 565.544 1.42678 1.86226 0
M  V30 5650 C 566.56 0.319655 1.71039 0
M  V30 5651 O 567.736 0.563852 1.93346 0
M  V30 5652 C 564.801 1.2852 3.21999 0
M  V30 5653 C 563.862 2.49354 3.49458 0
M  V30 5654 C 563.095 2.35863 4.78753 0
M  V30 5655 O 563.318 1.37114 5.53675 0
M  V30 5656 O 562.252 3.25189 5.06494 0
M  V30 5657 H 566.078 2.39167 1.87171 0
M  V30 5658 H 563.663 1.2159 0.868112 0
M  V30 5659 H 565.545 1.22824 4.03103 0
M  V30 5660 H 564.22 0.351359 3.21787 0
M  V30 5661 H 563.127 2.60628 2.68373 0
M  V30 5662 H 564.46 3.41491 3.54464 0
M  V30 5663 N 566.112 -0.949982 1.2575 0
M  V30 5664 C 567.352 -1.70994 1.11984 0
M  V30 5665 C 567.716 -1.89095 -0.332746 0
M  V30 5666 O 568.917 -2.62192 -0.592331 0
M  V30 5667 C 567.188 -3.05286 1.85837 0
M  V30 5668 S 568.747 -3.96477 1.88019 0
M  V30 5669 H 565.565 -0.587689 0.400178 0
M  V30 5670 H 568.167 -1.13271 1.59342 0
M  V30 5671 H 566.871 -2.89785 2.90608 0
M  V30 5672 H 566.402 -3.68069 1.38885 0
M  V30 5673 H 568.417 -4.86814 0.96057 0
M  V30 5674 N 567.59 -1.07411 -1.15328 0
M  V30 5675 C 569.001 -0.820261 -1.67716 0
M  V30 5676 C 569.352 0.654539 -1.8496 0
M  V30 5677 O 568.477 1.50664 -1.55337 0
M  V30 5678 C 569.072 -1.48242 -3.04647 0
M  V30 5679 C 567.631 -1.27606 -3.5411 0
M  V30 5680 C 566.778 -1.5517 -2.29821 0
M  V30 5681 H 569.729 -1.23608 -0.995332 0
M  V30 5682 H 569.75 -0.903984 -3.69606 0
M  V30 5683 H 569.262 -2.55578 -2.92064 0
M  V30 5684 H 567.363 -0.222948 -3.71932 0
M  V30 5685 H 567.476 -1.99667 -4.35511 0
M  V30 5686 H 565.84 -0.972747 -2.35393 0
M  V30 5687 H 566.623 -2.63689 -2.19824 0
M  V30 5688 N 569.068 1.32177 -0.85831 0
M  V30 5689 C 570.316 1.96735 -0.462568 0
M  V30 5690 C 570.637 1.6824 0.985911 0
M  V30 5691 O 569.907 0.991564 1.68952 0
M  V30 5692 H 568.487 0.727849 -0.168064 0
M  V30 5693 H 571.149 1.61195 -1.09554 0
M  V30 5694 H 570.245 3.06068 -0.610647 0
M  V30 5695 N 570.547 0.616602 1.45037 0
M  V30 5696 C 571.457 -0.0985401 2.34393 0
M  V30 5697 C 572.473 -0.850971 1.51771 0
M  V30 5698 O 573.649 -0.806521 1.84546 0
M  V30 5699 C 570.714 -1.07748 3.29532 0
M  V30 5700 C 569.775 -0.326022 4.2806 0
M  V30 5701 C 569.008 -1.25833 5.18654 0
M  V30 5702 O 569.231 -2.49652 5.12864 0
M  V30 5703 O 568.165 -0.750512 5.97203 0
M  V30 5704 H 571.991 0.636016 2.96966 0
M  V30 5705 H 569.576 0.376832 1.44569 0
M  V30 5706 H 571.458 -1.64107 3.88133 0
M  V30 5707 H 570.133 -1.79291 2.69512 0
M  V30 5708 H 569.04 0.280253 3.73049 0
M  V30 5709 H 570.373 0.349091 4.9096 0
M  V30 5710 N 572.025 -1.5352 0.356285 0
M  V30 5711 C 573.265 -2.03027 -0.23649 0
M  V30 5712 C 573.629 -1.23813 -1.46746 0
M  V30 5713 O 574.83 -1.63281 -2.13525 0
M  V30 5714 C 573.101 -3.53442 -0.530415 0
M  V30 5715 S 574.66 -4.24836 -1.09819 0
M  V30 5716 H 571.478 -0.707591 -0.0695378 0
M  V30 5717 H 574.08 -1.89077 0.496999 0
M  V30 5718 H 572.784 -4.087 0.373114 0
M  V30 5719 H 572.315 -3.71536 -1.29323 0
M  V30 5720 H 574.33 -4.35228 -2.38309 0
M  V30 5721 N 573.503 -0.0852151 -1.57369 0
M  V30 5722 C 574.433 0.874556 -2.16503 0
M  V30 5723 C 575.414 1.30111 -1.09568 0
M  V30 5724 O 576.599 1.36977 -1.37662 0
M  V30 5725 C 573.729 2.13731 -2.73745 0
M  V30 5726 C 572.683 1.84971 -3.85966 0
M  V30 5727 C 572.009 3.17991 -4.29867 0
M  V30 5728 C 573.309 1.14442 -5.09608 0
M  V30 5729 H 575.003 0.381899 -2.96954 0
M  V30 5730 H 572.549 0.18225 -1.42842 0
M  V30 5731 H 574.502 2.81302 -3.13763 0
M  V30 5732 H 573.226 2.65263 -1.90534 0
M  V30 5733 H 571.885 1.19801 -3.46473 0
M  V30 5734 H 571.533 3.6739 -3.4356 0
M  V30 5735 H 571.233 2.99534 -5.05523 0
M  V30 5736 H 572.757 3.86737 -4.72511 0
M  V30 5737 H 574.171 1.72105 -5.46857 0
M  V30 5738 H 572.568 1.06197 -5.90629 0
M  V30 5739 H 573.638 0.12559 -4.84737 0
M  V30 5740 N 574.981 1.5647 0.188427 0
M  V30 5741 C 576.227 1.81281 0.909124 0
M  V30 5742 C 576.56 0.66034 1.82628 0
M  V30 5743 O 575.835 -0.338737 1.91528 0
M  V30 5744 C 576.118 3.16388 1.7196 0
M  V30 5745 C 575.971 4.42137 0.826714 0
M  V30 5746 C 577.29 3.48256 2.69083 0
M  V30 5747 H 574.409 0.659457 0.329068 0
M  V30 5748 H 577.051 1.89182 0.176156 0
M  V30 5749 H 575.201 3.09784 2.34448 0
M  V30 5750 H 576.873 4.60794 0.216025 0
M  V30 5751 H 575.116 4.33594 0.133792 0
M  V30 5752 H 575.787 5.33184 1.42893 0
M  V30 5753 H 578.263 3.55203 2.16726 0
M  V30 5754 H 577.139 4.43899 3.2287 0
M  V30 5755 H 577.4 2.72088 3.48455 0
M  V30 5756 N 576.459 -0.456382 1.50847 0
M  V30 5757 C 577.687 -1.23026 1.66349 0
M  V30 5758 C 578.102 -1.85473 0.352868 0
M  V30 5759 O 577.459 -1.69885 -0.666739 0
M  V30 5760 C 577.51 -2.32827 2.76539 0
M  V30 5761 O 577.231 -1.72938 4.02522 0
M  V30 5762 C 578.732 -3.23448 3.03144 0
M  V30 5763 H 575.952 -0.371527 0.558756 0
M  V30 5764 H 578.496 -0.543082 1.97157 0
M  V30 5765 H 576.651 -2.97294 2.48384 0
M  V30 5766 H 577.065 -2.45357 4.63573 0
M  V30 5767 H 578.539 -3.96669 3.83872 0
M  V30 5768 H 579.016 -3.83094 2.14793 0
M  V30 5769 H 579.622 -2.64702 3.32886 0
M  V30 5770 N 577.937 -1.40673 -0.710563 0
M  V30 5771 C 579.185 -1.38947 -1.46759 0
M  V30 5772 C 579.506 0.00572879 -1.94999 0
M  V30 5773 O 578.776 0.961358 -1.70689 0
M  V30 5774 H 577.356 -0.5114 -0.544499 0
M  V30 5775 H 580.018 -1.75773 -0.842012 0
M  V30 5776 H 579.114 -2.06745 -2.33801 0
M  V30 5777 N 579.415 0.9433 -1.26252 0
M  V30 5778 C 580.347 2.04542 -1.03417 0
M  V30 5779 C 581.36 1.62799 0.0046911 0
M  V30 5780 O 582.549 1.76944 -0.235146 0
M  V30 5781 C 579.649 3.34511 -0.543671 0
M  V30 5782 C 578.822 4.05033 -1.65128 0
M  V30 5783 C 577.881 5.13273 -1.1592 0
M  V30 5784 O 576.907 5.38095 -1.85586 0
M  V30 5785 N 578.109 5.805 -0.00649279 0
M  V30 5786 H 580.874 2.24699 -1.98319 0
M  V30 5787 H 578.435 1.11264 -1.1761 0
M  V30 5788 H 580.427 4.04212 -0.198703 0
M  V30 5789 H 578.997 3.11042 0.311711 0
M  V30 5790 H 578.217 3.29275 -2.16729 0
M  V30 5791 H 579.505 4.48903 -2.39508 0
M  V30 5792 H 578.903 5.62767 0.575347 0
M  V30 5793 H 577.46 6.51201 0.279416 0
M  V30 5794 N 580.893 1.08022 1.14757 0
M  V30 5795 C 582.118 0.82895 1.90114 0
M  V30 5796 C 582.543 -0.612772 1.77839 0
M  V30 5797 O 581.901 -1.42895 1.11583 0
M  V30 5798 C 581.949 1.25062 3.38219 0
M  V30 5799 O 581.053 0.400119 4.10454 0
M  V30 5800 H 580.394 0.301412 0.591648 0
M  V30 5801 H 582.924 1.44062 1.45284 0
M  V30 5802 H 582.934 1.22977 3.89025 0
M  V30 5803 H 581.609 2.30067 3.46471 0
M  V30 5804 H 580.186 0.484052 3.69745 0
M  V30 5805 N 582.371 -1.3172 0.865308 0
M  V30 5806 C 583.321 -2.26157 0.289305 0
M  V30 5807 C 584.305 -1.50428 -0.570977 0
M  V30 5808 O 585.497 -1.71978 -0.418617 0
M  V30 5809 C 582.626 -3.39457 -0.512237 0
M  V30 5810 C 581.712 -4.22561 0.361028 0
M  V30 5811 N 582.103 -4.84501 1.45231 0
M  V30 5812 C 580.401 -4.45739 0.152641 0
M  V30 5813 C 581.102 -5.46586 1.99043 0
M  V30 5814 N 580.078 -5.28119 1.28809 0
M  V30 5815 H 583.88 -2.71581 1.12344 0
M  V30 5816 H 581.394 -1.45932 0.712565 0
M  V30 5817 H 583.391 -4.06133 -0.941379 0
M  V30 5818 H 582.051 -2.95577 -1.34404 0
M  V30 5819 H 583.062 -4.84293 1.83524 0
M  V30 5820 H 579.739 -4.1251 -0.643583 0
M  V30 5821 H 581.129 -6.05817 2.90577 0
M  V30 5822 N 583.85 -0.624285 -1.44708 0
M  V30 5823 C 585.096 -0.126051 -2.02107 0
M  V30 5824 C 585.425 1.2496 -1.49048 0
M  V30 5825 O 584.68 1.84163 -0.662005 0
M  V30 5826 C 584.979 -0.0546353 -3.57358 0
M  V30 5827 C 584.644 -1.36815 -4.29642 0
M  V30 5828 C 583.307 -1.72792 -4.49106 0
M  V30 5829 C 585.659 -2.23549 -4.70824 0
M  V30 5830 C 582.986 -2.95222 -5.07012 0
M  V30 5831 C 585.339 -3.45243 -5.30085 0
M  V30 5832 C 584.003 -3.81452 -5.47769 0
M  V30 5833 H 583.273 -0.0461252 -0.739563 0
M  V30 5834 H 585.92 -0.809236 -1.73562 0
M  V30 5835 H 584.225 0.711891 -3.85278 0
M  V30 5836 H 585.922 0.347282 -3.99493 0
M  V30 5837 H 582.512 -1.07817 -4.14817 0
M  V30 5838 H 586.696 -1.9705 -4.55505 0
M  V30 5839 H 581.952 -3.23361 -5.18891 0
M  V30 5840 H 586.125 -4.12689 -5.60946 0
M  V30 5841 H 583.753 -4.76403 -5.92405 0
M  V30 5842 N 585.328 1.53329 -0.364422 0
M  V30 5843 C 586.275 2.25698 0.482607 0
M  V30 5844 C 587.245 1.26325 1.07848 0
M  V30 5845 O 588.43 1.55104 1.11119 0
M  V30 5846 C 585.57 3.04873 1.61699 0
M  V30 5847 C 584.683 4.19135 1.0464 0
M  V30 5848 C 583.818 4.85754 2.14979 0
M  V30 5849 C 582.857 5.9205 1.5538 0
M  V30 5850 N 581.994 6.52365 2.59547 0
M  V30 5851 H 586.834 2.97666 -0.141032 0
M  V30 5852 H 584.371 1.46875 -0.0813692 0
M  V30 5853 H 586.329 3.49051 2.28516 0
M  V30 5854 H 584.959 2.35162 2.2113 0
M  V30 5855 H 584.011 3.79451 0.268553 0
M  V30 5856 H 585.323 4.95525 0.570653 0
M  V30 5857 H 584.477 5.3311 2.89619 0
M  V30 5858 H 583.216 4.08834 2.65906 0
M  V30 5859 H 582.221 5.44058 0.792549 0
M  V30 5860 H 583.446 6.7089 1.0528 0
M  V30 5861 H 581.392 5.78298 3.09689 0
M  V30 5862 H 581.309 7.2429 2.16655 0
M  V30 5863 H 582.577 7.0437 3.33892 0
M  V30 5864 N 586.806 0.0935595 1.57322 0
M  V30 5865 C 588.031 -0.582324 1.99057 0
M  V30 5866 C 588.456 -1.61025 0.972242 0
M  V30 5867 O 587.814 -1.81202 -0.0594622 0
M  V30 5868 C 587.862 -1.20799 3.39765 0
M  V30 5869 O 586.966 -2.32382 3.40694 0
M  V30 5870 H 586.307 -0.147884 0.647323 0
M  V30 5871 H 588.837 0.174516 2.03854 0
M  V30 5872 H 588.847 -1.54966 3.77425 0
M  V30 5873 H 587.522 -0.454914 4.13405 0
M  V30 5874 H 586.099 -1.99845 3.14827 0
M  V30 5875 N 588.284 -1.56567 -0.180126 0
M  V30 5876 C 589.531 -1.81492 -0.898167 0
M  V30 5877 C 589.859 -0.669225 -1.82624 0
M  V30 5878 O 589.114 0.344096 -1.92651 0
M  V30 5879 C 589.413 -3.1252 -1.73395 0
M  V30 5880 C 589.079 -4.40658 -0.955567 0
M  V30 5881 C 587.741 -4.75465 -0.740707 0
M  V30 5882 C 590.093 -5.19593 -0.408948 0
M  V30 5883 C 587.421 -5.86691 0.0320128 0
M  V30 5884 C 589.773 -6.31627 0.350638 0
M  V30 5885 C 588.437 -6.65007 0.576378 0
M  V30 5886 H 587.707 -0.664125 -0.328662 0
M  V30 5887 H 590.354 -1.908 -0.163616 0
M  V30 5888 H 588.659 -2.98515 -2.53763 0
M  V30 5889 H 590.356 -3.29013 -2.29241 0
M  V30 5890 H 586.946 -4.13352 -1.13306 0
M  V30 5891 H 591.13 -4.93104 -0.562307 0
M  V30 5892 H 586.386 -6.11016 0.216735 0
M  V30 5893 H 590.56 -6.92001 0.781497 0
M  V30 5894 H 588.187 -7.51033 1.17703 0
M  V30 5895 N 589.762 0.448376 -1.51087 0
M  V30 5896 C 591.039 1.20926 -1.53741 0
M  V30 5897 C 591.419 2.09025 -0.295222 0
M  V30 5898 O 590.767 2.16851 0.720283 0
M  V30 5899 C 590.977 2.02067 -2.84552 0
M  V30 5900 C 592.325 2.59486 -3.36084 0
M  V30 5901 O 593.349 2.12289 -2.86028 0
M  V30 5902 O 592.208 3.45539 -4.23397 0
M  V30 5903 H 589.302 0.549951 -0.617643 0
M  V30 5904 H 591.848 0.458344 -1.63393 0
M  V30 5905 H 590.62 1.37291 -3.66425 0
M  V30 5906 H 590.243 2.84246 -2.78011 0
M  V30 5907 N 591.24 1.41047 0.703093 0
M  V30 5908 C 592.188 1.42494 1.83843 0
M  V30 5909 C 593.182 0.303885 1.66652 0
M  V30 5910 O 594.388 0.475544 1.73605 0
M  V30 5911 H 590.763 0.445685 0.605697 0
M  V30 5912 H 592.734 2.38194 1.79739 0
M  V30 5913 C 591.483 1.31666 3.21807 0
M  V30 5914 H 590.806 2.17212 3.35647 0
M  V30 5915 H 592.246 1.36738 4.01346 0
M  V30 5916 C 590.705 0.0281828 3.36888 0
M  V30 5917 O 591.235 -0.929995 3.90786 0
M  V30 5918 N 589.441 -0.0454322 2.90564 0
M  V30 5919 H 588.988 0.735046 2.4689 0
M  V30 5920 H 588.946 -0.906968 3.01034 0
M  V30 5921 N 592.718 -0.936591 1.26751 0
M  V30 5922 C 594.134 -1.21095 1.03963 0
M  V30 5923 C 594.334 -2.00156 -0.232372 0
M  V30 5924 O 593.39 -2.3434 -0.940274 0
M  V30 5925 C 594.703 -1.96775 2.27377 0
M  V30 5926 C 596.251 -2.09749 2.32324 0
M  V30 5927 C 596.726 -2.88832 3.55443 0
M  V30 5928 N 598.217 -2.96404 3.55948 0
M  V30 5929 C 598.952 -3.58036 4.47881 0
M  V30 5930 N 598.448 -4.21132 5.50109 0
M  V30 5931 N 600.241 -3.55353 4.35523 0
M  V30 5932 H 592.392 -0.408173 2.08441 0
M  V30 5933 H 594.655 -0.243139 0.91629 0
M  V30 5934 H 594.361 -1.46094 3.19921 0
M  V30 5935 H 594.235 -2.97424 2.31989 0
M  V30 5936 H 596.622 -2.5962 1.40291 0
M  V30 5937 H 596.703 -1.08347 2.31721 0
M  V30 5938 H 596.347 -2.39647 4.47808 0
M  V30 5939 H 596.277 -3.90499 3.53296 0
M  V30 5940 H 598.768 -2.51552 2.82011 0
M  V30 5941 H 599.081 -4.66071 6.16439 0
M  V30 5942 H 597.426 -4.19705 5.53961 0
M  V30 5943 H 600.617 -3.05256 3.54875 0
M  V30 5944 H 600.79 -4.03097 5.07363 0
M  V30 5945 N 594.196 -1.08629 -1.14182 0
M  V30 5946 C 595.426 -0.837673 -1.88856 0
M  V30 5947 C 595.834 0.614024 -1.78959 0
M  V30 5948 O 595.177 1.43384 -1.14833 0
M  V30 5949 C 595.239 -1.18355 -3.39459 0
M  V30 5950 C 594.903 -2.63848 -3.73139 0
M  V30 5951 C 595.9 -3.62099 -3.73069 0
M  V30 5952 C 593.585 -2.99761 -4.03049 0
M  V30 5953 C 595.579 -4.94292 -4.02435 0
M  V30 5954 C 593.266 -4.32147 -4.32078 0
M  V30 5955 C 594.264 -5.29223 -4.31755 0
M  V30 5956 O 593.952 -6.59229 -4.60079 0
M  V30 5957 H 593.684 -0.301609 -0.604986 0
M  V30 5958 H 596.238 -1.44961 -1.45518 0
M  V30 5959 H 594.468 -0.514628 -3.8326 0
M  V30 5960 H 596.157 -0.915391 -3.95443 0
M  V30 5961 H 596.923 -3.35698 -3.50046 0
M  V30 5962 H 592.802 -2.2484 -4.02453 0
M  V30 5963 H 596.346 -5.70055 -4.02098 0
M  V30 5964 H 592.243 -4.58296 -4.54571 0
M  V30 5965 H 593.011 -6.64578 -4.77785 0
M  V30 5966 N 595.674 1.31259 -0.872281 0
M  V30 5967 C 596.921 1.96622 -0.484365 0
M  V30 5968 C 597.249 1.68939 0.963841 0
M  V30 5969 O 596.504 0.97974 1.6941 0
M  V30 5970 C 596.803 3.50659 -0.690889 0
M  V30 5971 C 596.469 3.98366 -2.11224 0
M  V30 5972 C 595.131 4.11104 -2.50094 0
M  V30 5973 C 597.483 4.23425 -3.0391 0
M  V30 5974 C 594.811 4.46254 -3.80887 0
M  V30 5975 C 597.163 4.60039 -4.3422 0
M  V30 5976 C 595.827 4.70984 -4.73001 0
M  V30 5977 H 595.097 0.71949 -0.177242 0
M  V30 5978 H 597.744 1.56353 -1.10571 0
M  V30 5979 H 596.049 3.91798 0.0135782 0
M  V30 5980 H 597.746 3.99284 -0.370534 0
M  V30 5981 H 594.336 3.88949 -1.80047 0
M  V30 5982 H 598.52 4.13075 -2.75104 0
M  V30 5983 H 593.776 4.52926 -4.10692 0
M  V30 5984 H 597.95 4.78381 -5.06088 0
M  V30 5985 H 595.577 4.97977 -5.7439 0
M  V30 5986 N 597.152 0.631951 1.44375 0
M  V30 5987 C 598.38 0.143867 2.06399 0
M  V30 5988 C 598.795 -1.18188 1.47231 0
M  V30 5989 O 598.152 -1.72511 0.595498 0
M  V30 5990 C 598.203 0.0238253 3.61492 0
M  V30 5991 O 597.924 1.29715 4.18456 0
M  V30 5992 C 599.425 -0.492856 4.40552 0
M  V30 5993 H 596.645 0.0800542 0.666207 0
M  V30 5994 H 599.189 0.866586 1.85231 0
M  V30 5995 H 597.344 -0.649338 3.81919 0
M  V30 5996 H 597.758 1.14252 5.11905 0
M  V30 5997 H 599.232 -0.525861 5.49489 0
M  V30 5998 H 599.709 -1.52006 4.12057 0
M  V30 5999 H 600.315 0.147085 4.25046 0
M  V30 6000 N 598.631 -1.53133 0.372548 0
M  V30 6001 C 599.878 -2.01356 -0.214959 0
M  V30 6002 C 600.206 -1.2596 -1.48204 0
M  V30 6003 O 599.461 -0.343511 -1.92662 0
M  V30 6004 C 599.76 -3.53206 -0.545938 0
M  V30 6005 C 599.426 -4.46511 0.627624 0
M  V30 6006 C 598.088 -4.71737 0.949615 0
M  V30 6007 C 600.44 -5.01666 1.41353 0
M  V30 6008 C 597.768 -5.4937 2.05936 0
M  V30 6009 C 600.12 -5.80511 2.51375 0
M  V30 6010 C 598.784 -6.04022 2.84101 0
M  V30 6011 H 598.054 -0.736813 -0.078659 0
M  V30 6012 H 600.701 -1.84682 0.506447 0
M  V30 6013 H 599.006 -3.67864 -1.34845 0
M  V30 6014 H 600.703 -3.87997 -1.01287 0
M  V30 6015 H 597.293 -4.27029 0.366635 0
M  V30 6016 H 601.477 -4.82117 1.17802 0
M  V30 6017 H 596.733 -5.65803 2.31682 0
M  V30 6018 H 600.907 -6.22255 3.12684 0
M  V30 6019 H 598.534 -6.63962 3.70214 0
M  V30 6020 N 600.109 -0.101901 -1.5727 0
M  V30 6021 C 601.334 0.571759 -1.99363 0
M  V30 6022 C 601.759 1.60507 -0.980768 0
M  V30 6023 O 601.117 1.81231 0.0498517 0
M  V30 6024 C 601.165 1.18996 -3.404 0
M  V30 6025 O 600.269 2.30572 -3.41922 0
M  V30 6026 H 599.61 0.144449 -0.648098 0
M  V30 6027 H 602.14 -0.185325 -2.03759 0
M  V30 6028 H 602.15 1.52962 -3.78241 0
M  V30 6029 H 600.825 0.432984 -4.1364 0
M  V30 6030 H 599.402 1.98173 -3.15883 0
M  V30 6031 N 601.587 1.56661 0.17182 0
M  V30 6032 C 602.835 1.81606 0.886774 0
M  V30 6033 C 603.156 0.678818 1.82803 0
M  V30 6034 O 602.426 -0.301354 1.93568 0
M  V30 6035 H 601.006 0.669934 0.330451 0
M  V30 6036 H 603.668 1.94142 0.171757 0
M  V30 6037 H 602.764 2.75634 1.46398 0
M  V30 6038 N 603.065 -0.440357 1.51323 0
M  V30 6039 C 604.314 -1.18697 1.63076 0
M  V30 6040 C 604.627 -1.92418 0.35136 0
M  V30 6041 O 605.833 -2.69258 0.348221 0
M  V30 6042 C 604.289 -2.15849 2.87988 0
M  V30 6043 C 603.897 -1.47789 4.22921 0
M  V30 6044 C 605.641 -2.90962 3.09098 0
M  V30 6045 C 603.548 -2.43407 5.38987 0
M  V30 6046 H 602.478 -0.44676 0.607389 0
M  V30 6047 H 605.129 -0.454313 1.77787 0
M  V30 6048 H 603.511 -2.92537 2.66905 0
M  V30 6049 H 604.685 -0.7668 4.54375 0
M  V30 6050 H 603 -0.848404 4.07665 0
M  V30 6051 H 605.597 -3.62584 3.92985 0
M  V30 6052 H 605.94 -3.52133 2.22053 0
M  V30 6053 H 606.473 -2.21381 3.30507 0
M  V30 6054 H 603.212 -1.86929 6.28282 0
M  V30 6055 H 602.732 -3.12579 5.11913 0
M  V30 6056 H 604.411 -3.046 5.70813 0
M  V30 6057 N 604.543 -1.41418 -0.695603 0
M  V30 6058 C 605.783 -1.42241 -1.46788 0
M  V30 6059 C 606.147 -0.0300827 -1.91976 0
M  V30 6060 O 607.348 0.0868914 -2.6866 0
M  V30 6061 C 605.619 -2.4011 -2.6473 0
M  V30 6062 S 607.178 -2.59462 -3.53871 0
M  V30 6063 H 603.996 -0.503893 -0.50161 0
M  V30 6064 H 606.598 -1.77855 -0.811654 0
M  V30 6065 H 605.302 -3.40073 -2.29736 0
M  V30 6066 H 604.833 -2.05849 -3.35246 0
M  V30 6067 H 606.848 -1.862 -4.59939 0
M  V30 6068 N 606.021 0.929856 -1.27246 0
M  V30 6069 C 606.953 2.03434 -1.0558 0
M  V30 6070 C 607.966 1.62795 -0.0125762 0
M  V30 6071 O 609.155 1.76685 -0.2539 0
M  V30 6072 C 606.255 3.33915 -0.57912 0
M  V30 6073 C 605.428 4.03259 -1.69415 0
M  V30 6074 C 604.487 5.12014 -1.21357 0
M  V30 6075 O 603.513 5.36097 -1.91282 0
M  V30 6076 N 604.715 5.8046 -0.0680622 0
M  V30 6077 H 607.48 2.22583 -2.00691 0
M  V30 6078 H 605.041 1.1001 -1.18783 0
M  V30 6079 H 607.033 4.03978 -0.241563 0
M  V30 6080 H 605.603 3.11355 0.278703 0
M  V30 6081 H 604.823 3.26958 -2.20209 0
M  V30 6082 H 606.111 4.46337 -2.44255 0
M  V30 6083 H 605.509 5.63345 0.515626 0
M  V30 6084 H 604.066 6.51461 0.210332 0
M  V30 6085 N 607.499 1.09233 1.13605 0
M  V30 6086 C 608.729 0.847677 1.88409 0
M  V30 6087 C 609.137 -0.604524 1.79282 0
M  V30 6088 O 608.48 -1.42773 1.15592 0
M  V30 6089 C 608.542 1.20153 3.38827 0
M  V30 6090 C 608.206 2.65824 3.71735 0
M  V30 6091 C 609.203 3.64072 3.71143 0
M  V30 6092 C 606.888 3.01894 4.01454 0
M  V30 6093 C 608.882 4.96419 3.99808 0
M  V30 6094 C 606.569 4.34433 4.29781 0
M  V30 6095 C 607.567 5.31505 4.28942 0
M  V30 6096 O 607.255 6.61659 4.56576 0
M  V30 6097 H 606.987 0.304813 0.603378 0
M  V30 6098 H 609.541 1.4573 1.44748 0
M  V30 6099 H 607.771 0.534946 3.82982 0
M  V30 6100 H 609.46 0.936349 3.94952 0
M  V30 6101 H 610.226 3.37549 3.4826 0
M  V30 6102 H 606.105 2.26971 4.01255 0
M  V30 6103 H 609.649 5.7218 3.99069 0
M  V30 6104 H 605.546 4.607 4.52135 0
M  V30 6105 H 606.314 6.67102 4.74254 0
M  V30 6106 N 608.977 -1.30795 0.87923 0
M  V30 6107 C 609.907 -2.30742 0.357796 0
M  V30 6108 C 610.888 -1.60747 -0.556283 0
M  V30 6109 O 612.073 -1.88393 -0.47135 0
M  V30 6110 C 609.203 -3.44583 -0.433555 0
M  V30 6111 C 608.157 -4.26235 0.388251 0
M  V30 6112 C 607.483 -5.32073 -0.529352 0
M  V30 6113 C 608.783 -4.96303 1.62729 0
M  V30 6114 H 610.477 -2.74605 1.19299 0
M  V30 6115 H 608.023 -1.32017 0.575104 0
M  V30 6116 H 609.976 -4.13563 -0.808934 0
M  V30 6117 H 608.7 -2.99511 -1.30234 0
M  V30 6118 H 607.359 -3.58936 0.745695 0
M  V30 6119 H 607.007 -4.83249 -1.39569 0
M  V30 6120 H 606.707 -5.87598 0.0166741 0
M  V30 6121 H 608.231 -6.0391 -0.901373 0
M  V30 6122 H 609.645 -5.5783 1.32283 0
M  V30 6123 H 608.042 -5.61666 2.11309 0
M  V30 6124 H 609.112 -4.22758 2.37494 0
M  V30 6125 N 610.455 -0.639598 -1.44038 0
M  V30 6126 C 611.385 0.0469443 -2.33453 0
M  V30 6127 C 612.366 0.82609 -1.48694 0
M  V30 6128 O 613.551 0.790285 -1.77393 0
M  V30 6129 C 610.681 1.02338 -3.3188 0
M  V30 6130 C 609.635 0.355284 -4.26523 0
M  V30 6131 C 608.961 1.44221 -5.14883 0
M  V30 6132 C 610.261 -0.743798 -5.16977 0
M  V30 6133 H 611.955 -0.699735 -2.91108 0
M  V30 6134 H 609.501 -0.337946 -1.39978 0
M  V30 6135 H 611.454 1.51247 -3.93322 0
M  V30 6136 H 610.178 1.80105 -2.72451 0
M  V30 6137 H 608.837 -0.113239 -3.66425 0
M  V30 6138 H 608.485 2.21097 -4.51802 0
M  V30 6139 H 608.185 1.00052 -5.79019 0
M  V30 6140 H 609.709 1.93295 -5.79197 0
M  V30 6141 H 611.123 -0.337444 -5.72306 0
M  V30 6142 H 609.52 -1.10914 -5.89761 0
M  V30 6143 H 610.59 -1.60745 -4.57481 0
M  V30 6144 N 611.933 1.52934 -0.380664 0
M  V30 6145 C 612.896 2.24809 0.446473 0
M  V30 6146 C 613.896 1.26133 0.997347 0
M  V30 6147 O 615.086 1.50297 0.880714 0
M  V30 6148 C 612.218 2.99649 1.62553 0
M  V30 6149 H 613.411 2.99343 -0.182677 0
M  V30 6150 H 610.964 1.55736 -0.132618 0
M  V30 6151 H 611.699 2.29395 2.29235 0
M  V30 6152 H 611.484 3.72066 1.23732 0
M  V30 6153 H 612.974 3.54246 2.21133 0
M  V30 6154 N 613.412 0.11024 1.57214 0
M  V30 6155 C 614.828 -0.24638 1.57687 0
M  V30 6156 C 615.028 -1.67344 1.12241 0
M  V30 6157 O 614.084 -2.39298 0.805783 0
M  V30 6158 C 615.397 -0.0210288 3.00693 0
M  V30 6159 C 616.945 -0.0876077 3.12877 0
M  V30 6160 C 617.42 0.10994 4.57868 0
M  V30 6161 N 618.911 0.0556135 4.63167 0
M  V30 6162 C 619.646 0.183495 5.73106 0
M  V30 6163 N 619.142 0.367058 6.91827 0
M  V30 6164 N 620.935 0.123689 5.61964 0
M  V30 6165 H 613.086 1.04246 1.85058 0
M  V30 6166 H 615.349 0.40979 0.854854 0
M  V30 6167 H 615.055 0.965203 3.38196 0
M  V30 6168 H 614.929 -0.756748 3.69531 0
M  V30 6169 H 617.316 -1.06436 2.75237 0
M  V30 6170 H 617.397 0.67985 2.466 0
M  V30 6171 H 617.041 1.08362 4.96206 0
M  V30 6172 H 616.971 -0.677397 5.22225 0
M  V30 6173 H 619.462 -0.0831062 3.77809 0
M  V30 6174 H 619.775 0.455739 7.71455 0
M  V30 6175 H 618.12 0.40292 6.93831 0
M  V30 6176 H 621.311 -0.0186928 4.68096 0
M  V30 6177 H 621.484 0.226797 6.47603 0
M  V30 6178 N 614.89 -1.56749 -0.16351 0
M  V30 6179 C 616.167 -1.73321 -0.906599 0
M  V30 6180 C 616.547 -0.673779 -2.00059 0
M  V30 6181 O 615.895 0.310121 -2.26386 0
M  V30 6182 C 616.105 -3.168 -1.46419 0
M  V30 6183 C 617.453 -3.77993 -1.93407 0
M  V30 6184 O 618.477 -3.20127 -1.56196 0
M  V30 6185 O 617.336 -4.79615 -2.61976 0
M  V30 6186 H 614.43 -0.708073 -0.427272 0
M  V30 6187 H 616.976 -1.69029 -0.150727 0
M  V30 6188 H 615.748 -3.85396 -0.677189 0
M  V30 6189 H 615.371 -3.2545 -2.28403 0
M  V30 6190 N 616.368 0.432326 -1.51554 0
M  V30 6191 C 617.608 1.19076 -1.66133 0
M  V30 6192 C 617.972 1.88364 -0.371873 0
M  V30 6193 O 619.173 2.65904 -0.39349 0
M  V30 6194 C 617.444 2.1768 -2.83461 0
M  V30 6195 S 619.003 3.01943 -3.18396 0
M  V30 6196 H 615.821 0.403735 -0.585251 0
M  V30 6197 H 618.423 0.481554 -1.89476 0
M  V30 6198 H 617.127 1.65424 -3.75583 0
M  V30 6199 H 616.658 2.93174 -2.62322 0
M  V30 6200 H 618.673 4.19373 -2.65219 0
M  V30 6201 N 617.846 1.41785 0.688094 0
M  V30 6202 C 618.778 1.40159 1.81351 0
M  V30 6203 C 619.791 0.30262 1.59963 0
M  V30 6204 O 620.98 0.564841 1.69327 0
M  V30 6205 C 618.08 1.16517 3.1824 0
M  V30 6206 C 617.253 2.38597 3.66593 0
M  V30 6207 C 616.312 2.10699 4.82174 0
M  V30 6208 O 615.338 2.83798 4.93404 0
M  V30 6209 N 616.54 1.10187 5.69947 0
M  V30 6210 H 619.305 2.3716 1.83236 0
M  V30 6211 H 616.866 1.36494 0.870697 0
M  V30 6212 H 618.858 0.957941 3.93199 0
M  V30 6213 H 617.428 0.280873 3.11336 0
M  V30 6214 H 616.648 2.74974 2.82459 0
M  V30 6215 H 617.936 3.19919 3.95638 0
M  V30 6216 H 617.334 0.497016 5.63512 0
M  V30 6217 H 615.891 0.954518 6.44773 0
M  V30 6218 N 619.324 -0.923095 1.27737 0
M  V30 6219 C 620.601 -1.64989 1.05062 0
M  V30 6220 C 620.981 -2.07018 -0.413124 0
M  V30 6221 O 620.329 -1.80797 -1.39731 0
M  V30 6222 C 620.539 -2.84847 2.01652 0
M  V30 6223 C 621.887 -3.56083 2.31279 0
M  V30 6224 O 622.911 -2.94981 1.99662 0
M  V30 6225 O 621.77 -4.66182 2.85196 0
M  V30 6226 H 618.864 -0.723357 0.400853 0
M  V30 6227 H 621.41 -0.973224 1.3902 0
M  V30 6228 H 620.182 -2.50814 3.00347 0
M  V30 6229 H 619.805 -3.60231 1.68284 0
M  V30 6230 N 620.802 -1.09834 -1.13024 0
M  V30 6231 C 621.752 -0.710899 -2.16634 0
M  V30 6232 C 622.736 0.276836 -1.58501 0
M  V30 6233 O 623.928 0.0865457 -1.76788 0
M  V30 6234 C 621.057 -0.137574 -3.43024 0
M  V30 6235 C 620.143 -1.15198 -4.08155 0
M  V30 6236 N 620.534 -2.34054 -4.48388 0
M  V30 6237 C 618.832 -0.991074 -4.34849 0
M  V30 6238 C 619.533 -2.98616 -4.99203 0
M  V30 6239 N 618.509 -2.26159 -4.94321 0
M  V30 6240 H 622.311 -1.61576 -2.455 0
M  V30 6241 H 619.825 -0.975158 -1.29863 0
M  V30 6242 H 621.822 0.158031 -4.166 0
M  V30 6243 H 620.482 0.762088 -3.1563 0
M  V30 6244 H 621.493 -2.7162 -4.40957 0
M  V30 6245 H 618.17 -0.146448 -4.17243 0
M  V30 6246 H 619.56 -3.99683 -5.40096 0
M  V30 6247 N 622.28 1.30327 -0.886154 0
M  V30 6248 C 623.505 2.0079 -0.519425 0
M  V30 6249 C 623.93 1.65979 0.885013 0
M  V30 6250 O 623.288 0.877043 1.58675 0
M  V30 6251 C 623.336 3.53686 -0.702758 0
M  V30 6252 O 622.44 4.11637 0.250828 0
M  V30 6253 H 621.781 0.63171 -0.204544 0
M  V30 6254 H 624.311 1.66145 -1.19402 0
M  V30 6255 H 624.321 4.03531 -0.602207 0
M  V30 6256 H 622.996 3.78361 -1.72673 0
M  V30 6257 H 621.573 3.72755 0.103873 0
M  V30 6258 N 623.758 0.647228 1.43697 0
M  V30 6259 C 625.005 0.158188 2.01881 0
M  V30 6260 C 625.333 -1.22573 1.51017 0
M  V30 6261 O 624.588 -1.83086 0.69122 0
M  V30 6262 C 624.887 0.111481 3.57226 0
M  V30 6263 C 624.553 1.43633 4.27411 0
M  V30 6264 C 623.215 1.79915 4.463 0
M  V30 6265 C 625.567 2.31011 4.67208 0
M  V30 6266 C 622.895 3.03251 5.02251 0
M  V30 6267 C 625.247 3.53633 5.24525 0
M  V30 6268 C 623.911 3.90118 5.41631 0
M  V30 6269 H 623.181 0.0578851 0.738736 0
M  V30 6270 H 625.828 0.836746 1.72252 0
M  V30 6271 H 624.133 -0.650507 3.86362 0
M  V30 6272 H 625.83 -0.283682 3.99995 0
M  V30 6273 H 622.42 1.14403 4.1305 0
M  V30 6274 H 626.604 2.04272 4.52313 0
M  V30 6275 H 621.86 3.31575 5.13681 0
M  V30 6276 H 626.034 4.21561 5.5431 0
M  V30 6277 H 623.661 4.85768 5.84751 0
M  V30 6278 N 625.236 -1.5273 0.388769 0
M  V30 6279 C 626.461 -2.0647 -0.19621 0
M  V30 6280 C 626.886 -1.25865 -1.39784 0
M  V30 6281 O 626.244 -0.283562 -1.79069 0
M  V30 6282 C 626.292 -3.56456 -0.5451 0
M  V30 6283 O 625.396 -3.78426 -1.63912 0
M  V30 6284 H 624.737 -0.663599 -0.023067 0
M  V30 6285 H 627.267 -1.96898 0.556084 0
M  V30 6286 H 627.277 -3.99888 -0.809557 0
M  V30 6287 H 625.952 -4.14561 0.333417 0
M  V30 6288 H 624.529 -3.46884 -1.36842 0
M  V30 6289 N 626.714 -0.118576 -1.57153 0
M  V30 6290 C 627.963 0.539339 -1.94355 0
M  V30 6291 C 628.276 1.67858 -1.00415 0
M  V30 6292 O 629.482 2.39922 -1.27081 0
M  V30 6293 C 627.938 1.01082 -3.45414 0
M  V30 6294 C 627.546 -0.0999402 -4.47889 0
M  V30 6295 C 629.29 1.64013 -3.91535 0
M  V30 6296 C 627.197 0.388212 -5.90124 0
M  V30 6297 H 626.127 0.205247 -0.725527 0
M  V30 6298 H 628.778 -0.19836 -1.82425 0
M  V30 6299 H 627.16 1.80292 -3.52577 0
M  V30 6300 H 628.334 -0.876189 -4.52393 0
M  V30 6301 H 626.649 -0.635885 -4.11516 0
M  V30 6302 H 629.246 2.01649 -4.95219 0
M  V30 6303 H 629.589 2.51836 -3.31488 0
M  V30 6304 H 630.122 0.913439 -3.87171 0
M  V30 6305 H 626.861 -0.453963 -6.53926 0
M  V30 6306 H 626.381 1.13095 -5.89041 0
M  V30 6307 H 628.06 0.849574 -6.41398 0
M  V30 6308 N 628.193 1.56834 0.155195 0
M  V30 6309 C 629.439 1.83169 0.870467 0
M  V30 6310 C 629.772 0.698929 1.81187 0
M  V30 6311 O 629.047 -0.298035 1.92203 0
M  V30 6312 C 629.33 3.19965 1.65211 0
M  V30 6313 C 629.183 4.43792 0.732744 0
M  V30 6314 C 630.502 3.53885 2.61636 0
M  V30 6315 H 627.621 0.666288 0.315006 0
M  V30 6316 H 630.263 1.89513 0.135988 0
M  V30 6317 H 628.413 3.14687 2.27825 0
M  V30 6318 H 630.085 4.61148 0.118236 0
M  V30 6319 H 628.328 4.3378 0.0417906 0
M  V30 6320 H 628.999 5.36095 1.31552 0
M  V30 6321 H 631.475 3.5972 2.09143 0
M  V30 6322 H 630.351 4.50648 3.13381 0
M  V30 6323 H 630.612 2.79418 3.42605 0
M  V30 6324 N 629.671 -0.424282 1.51781 0
M  V30 6325 C 630.92 -1.16961 1.64326 0
M  V30 6326 C 631.233 -1.92035 0.371749 0
M  V30 6327 O 632.439 -2.68873 0.37676 0
M  V30 6328 C 630.895 -2.12782 2.90262 0
M  V30 6329 C 630.503 -1.43295 4.24465 0
M  V30 6330 C 632.247 -2.87667 3.12166 0
M  V30 6331 C 630.154 -2.37676 5.41538 0
M  V30 6332 H 629.084 -0.440293 0.612093 0
M  V30 6333 H 631.735 -0.435431 1.78259 0
M  V30 6334 H 630.117 -2.8969 2.69992 0
M  V30 6335 H 631.291 -0.718564 4.55163 0
M  V30 6336 H 629.606 -0.805118 4.08542 0
M  V30 6337 H 632.203 -3.58395 3.96808 0
M  V30 6338 H 632.546 -3.49758 2.25776 0
M  V30 6339 H 633.079 -2.17863 3.32837 0
M  V30 6340 H 629.818 -1.80255 6.30229 0
M  V30 6341 H 629.338 -3.07132 5.15199 0
M  V30 6342 H 631.017 -2.98529 5.74012 0
M  V30 6343 N 631.149 -1.42148 -0.680565 0
M  V30 6344 C 632.059 -1.47565 -1.82378 0
M  V30 6345 C 633.075 -0.36489 -1.70131 0
M  V30 6346 O 634.251 -0.614916 -1.91783 0
M  V30 6347 C 631.316 -1.37013 -3.18478 0
M  V30 6348 C 630.377 -2.58532 -3.42724 0
M  V30 6349 C 629.61 -2.48473 -4.72331 0
M  V30 6350 O 629.833 -1.51745 -5.49845 0
M  V30 6351 O 628.767 -3.38503 -4.97694 0
M  V30 6352 H 632.593 -2.44045 -1.80764 0
M  V30 6353 H 630.178 -1.23849 -0.835569 0
M  V30 6354 H 632.06 -1.33468 -3.99705 0
M  V30 6355 H 630.735 -0.436552 -3.20743 0
M  V30 6356 H 629.642 -2.67652 -2.61368 0
M  V30 6357 H 630.975 -3.50769 -3.45286 0
M  V30 6358 N 632.627 0.916307 -1.28225 0
M  V30 6359 C 633.855 1.69901 -1.18073 0
M  V30 6360 C 634.27 1.86988 0.260968 0
M  V30 6361 O 633.627 1.39505 1.17663 0
M  V30 6362 C 633.678 3.09254 -1.87201 0
M  V30 6363 O 633.399 2.92959 -3.2574 0
M  V30 6364 C 634.9 4.0362 -1.83319 0
M  V30 6365 H 632.12 0.531181 -0.409985 0
M  V30 6366 H 634.664 1.14703 -1.69303 0
M  V30 6367 H 632.819 3.61277 -1.39848 0
M  V30 6368 H 633.233 3.81139 -3.60324 0
M  V30 6369 H 634.707 4.98873 -2.36282 0
M  V30 6370 H 635.184 4.3176 -0.805007 0
M  V30 6371 H 635.79 3.57524 -2.3034 0
M  V30 6372 N 634.105 1.10431 1.1244 0
M  V30 6373 C 635.351 0.847972 1.84221 0
M  V30 6374 C 635.684 -0.624903 1.83871 0
M  V30 6375 O 634.959 -1.46074 1.28423 0
M  V30 6376 C 635.242 1.39695 3.319 0
M  V30 6377 C 635.095 2.93668 3.40704 0
M  V30 6378 C 636.414 1.03924 4.27654 0
M  V30 6379 H 633.533 0.309502 0.668863 0
M  V30 6380 H 636.175 1.36745 1.31912 0
M  V30 6381 H 634.325 0.955095 3.76577 0
M  V30 6382 H 635.997 3.46379 3.04662 0
M  V30 6383 H 634.24 3.30272 2.81252 0
M  V30 6384 H 634.911 3.27162 4.446 0
M  V30 6385 H 637.387 1.42049 3.91102 0
M  V30 6386 H 636.263 1.45027 5.29394 0
M  V30 6387 H 636.524 -0.051336 4.4207 0
M  V30 6388 N 635.583 -1.29855 0.893053 0
M  V30 6389 C 636.515 -2.26911 0.32311 0
M  V30 6390 C 637.528 -1.54039 -0.526858 0
M  V30 6391 O 638.717 -1.75132 -0.345095 0
M  V30 6392 C 635.817 -3.34266 -0.558509 0
M  V30 6393 C 634.99 -4.36601 0.264222 0
M  V30 6394 C 634.049 -5.23326 -0.549171 0
M  V30 6395 O 633.075 -5.69192 0.0309883 0
M  V30 6396 N 634.277 -5.50008 -1.85664 0
M  V30 6397 H 637.042 -2.76455 1.15726 0
M  V30 6398 H 634.603 -1.4312 0.756859 0
M  V30 6399 H 636.595 -3.89211 -1.1089 0
M  V30 6400 H 635.165 -2.8459 -1.29334 0
M  V30 6401 H 634.385 -3.81409 0.996046 0
M  V30 6402 H 635.673 -5.02019 0.827906 0
M  V30 6403 H 635.071 -5.14542 -2.35081 0
M  V30 6404 H 633.628 -6.07796 -2.35431 0
M  V30 6405 N 637.061 -0.65484 -1.43351 0
M  V30 6406 C 638.301 -0.172514 -2.03671 0
M  V30 6407 C 638.665 1.19154 -1.50553 0
M  V30 6408 O 639.866 1.76737 -2.02528 0
M  V30 6409 C 638.137 -0.183982 -3.56926 0
M  V30 6410 S 639.696 0.230262 -4.38195 0
M  V30 6411 H 636.514 -0.0727503 -0.707268 0
M  V30 6412 H 639.116 -0.863537 -1.75395 0
M  V30 6413 H 637.82 -1.17945 -3.93087 0
M  V30 6414 H 637.351 0.527527 -3.89847 0
M  V30 6415 H 639.366 1.46874 -4.73965 0
M  V30 6416 N 638.539 1.52521 -0.396863 0
M  V30 6417 C 639.502 2.2527 0.422604 0
M  V30 6418 C 640.502 1.27184 0.983913 0
M  V30 6419 O 641.692 1.51222 0.864723 0
M  V30 6420 C 638.824 3.01356 1.59365 0
M  V30 6421 H 640.017 2.99133 -0.214416 0
M  V30 6422 H 637.57 1.55587 -0.149128 0
M  V30 6423 H 638.305 2.31813 2.26789 0
M  V30 6424 H 638.09 3.73357 1.19779 0
M  V30 6425 H 639.58 3.56571 2.17363 0
M  V30 6426 N 640.017 0.126909 1.57088 0
M  V30 6427 C 641.294 -0.573152 1.87014 0
M  V30 6428 C 641.674 -1.84297 1.02945 0
M  V30 6429 O 641.022 -2.28232 0.110573 0
M  V30 6430 C 641.232 -0.857984 3.38289 0
M  V30 6431 C 642.58 -1.20759 4.07066 0
M  V30 6432 O 643.604 -0.947992 3.43353 0
M  V30 6433 O 642.463 -1.69516 5.19545 0
M  V30 6434 H 639.557 -0.290082 0.774456 0
M  V30 6435 H 642.103 0.162008 1.68925 0
M  V30 6436 H 640.875 0.0415286 3.91278 0
M  V30 6437 H 640.498 -1.64803 3.61837 0
M  V30 6438 N 641.495 -1.56914 -0.146875 0
M  V30 6439 C 642.772 -1.74273 -0.888165 0
M  V30 6440 C 643.152 -0.69496 -1.99333 0
M  V30 6441 O 642.5 0.286093 -2.26702 0
M  V30 6442 C 642.71 -3.18336 -1.43051 0
M  V30 6443 C 644.058 -3.80024 -1.89387 0
M  V30 6444 O 645.082 -3.21765 -1.52792 0
M  V30 6445 O 643.941 -4.82367 -2.56874 0
M  V30 6446 H 641.035 -0.712565 -0.419738 0
M  V30 6447 H 643.581 -1.6918 -0.132791 0
M  V30 6448 H 642.353 -3.86092 -0.636274 0
M  V30 6449 H 641.976 -3.27854 -2.24938 0
M  V30 6450 N 642.974 0.416227 -1.52004 0
M  V30 6451 C 644.39 0.754319 -1.40649 0
M  V30 6452 C 644.59 1.95059 -0.505392 0
M  V30 6453 O 643.646 2.5248 0.0315057 0
M  V30 6454 C 644.959 1.0149 -2.83055 0
M  V30 6455 C 646.507 1.11805 -2.9235 0
M  V30 6456 C 646.982 1.41144 -4.35709 0
M  V30 6457 N 648.473 1.48024 -4.38911 0
M  V30 6458 C 649.208 1.72338 -5.46889 0
M  V30 6459 N 648.704 1.94303 -6.64995 0
M  V30 6460 N 650.497 1.74294 -5.34395 0
M  V30 6461 H 642.648 -0.371324 -2.09129 0
M  V30 6462 H 644.911 -0.103811 -0.942299 0
M  V30 6463 H 644.617 0.208345 -3.51082 0
M  V30 6464 H 644.491 1.93697 -3.23668 0
M  V30 6465 H 646.878 1.91521 -2.24508 0
M  V30 6466 H 646.959 0.17451 -2.55204 0
M  V30 6467 H 646.603 0.619484 -5.04108 0
M  V30 6468 H 646.533 2.36739 -4.70385 0
M  V30 6469 H 649.024 1.32868 -3.53772 0
M  V30 6470 H 649.337 2.12286 -7.43071 0
M  V30 6471 H 647.682 1.91582 -6.68073 0
M  V30 6472 H 650.873 1.56667 -4.41104 0
M  V30 6473 H 651.046 1.92904 -6.18621 0
M  V30 6474 N 644.452 1.42507 0.673017 0
M  V30 6475 C 645.729 1.33554 1.42908 0
M  V30 6476 C 646.109 -0.0262211 2.11084 0
M  V30 6477 O 645.457 -1.04181 2.03368 0
M  V30 6478 C 645.667 2.50498 2.43006 0
M  V30 6479 C 647.015 2.92694 3.07596 0
M  V30 6480 O 648.039 2.50401 2.53333 0
M  V30 6481 O 646.898 3.65899 4.05931 0
M  V30 6482 H 643.992 0.526785 0.637516 0
M  V30 6483 H 646.538 1.54518 0.701591 0
M  V30 6484 H 645.31 3.41272 1.9144 0
M  V30 6485 H 644.933 2.3153 3.23233 0
M  V30 6486 N 645.93 -0.909495 1.28709 0
M  V30 6487 C 646.893 -1.99399 1.13016 0
M  V30 6488 C 647.893 -1.60654 0.068536 0
M  V30 6489 O 649.083 -1.71334 0.314671 0
M  V30 6490 C 646.215 -3.33078 0.726085 0
M  V30 6491 H 647.408 -2.14751 2.09338 0
M  V30 6492 H 644.961 -1.09272 1.11756 0
M  V30 6493 H 645.696 -3.23428 -0.23771 0
M  V30 6494 H 645.481 -3.62562 1.49302 0
M  V30 6495 H 646.971 -4.12681 0.639058 0
M  V30 6496 N 647.408 -1.11026 -1.11852 0
M  V30 6497 C 648.654 -0.857729 -1.83768 0
M  V30 6498 C 648.987 0.615143 -1.842 0
M  V30 6499 O 648.262 1.45391 -1.29196 0
M  V30 6500 C 648.545 -1.41453 -3.31154 0
M  V30 6501 C 648.398 -2.95471 -3.39142 0
M  V30 6502 C 649.717 -1.0619 -4.27097 0
M  V30 6503 H 646.836 -0.313044 -0.667212 0
M  V30 6504 H 649.478 -1.37443 -1.31185 0
M  V30 6505 H 647.628 -0.975052 -3.76065 0
M  V30 6506 H 649.3 -3.4799 -3.02821 0
M  V30 6507 H 647.543 -3.31759 -2.79497 0
M  V30 6508 H 648.214 -3.29515 -4.42859 0
M  V30 6509 H 650.69 -1.44122 -3.90344 0
M  V30 6510 H 649.566 -1.47832 -5.28618 0
M  V30 6511 H 649.827 0.0278912 -4.42091 0
M  V30 6512 N 648.886 1.2938 -0.899927 0
M  V30 6513 C 650.126 1.97332 -0.532871 0
M  V30 6514 C 650.49 1.69385 0.904029 0
M  V30 6515 O 651.691 2.30793 1.37797 0
M  V30 6516 C 649.962 3.47927 -0.817393 0
M  V30 6517 S 651.521 4.3528 -0.55468 0
M  V30 6518 H 648.339 0.682966 -0.197683 0
M  V30 6519 H 650.941 1.57189 -1.16241 0
M  V30 6520 H 649.645 3.65761 -1.86138 0
M  V30 6521 H 649.176 3.93006 -0.175978 0
M  V30 6522 H 651.191 4.92557 0.600182 0
M  V30 6523 N 650.364 0.662433 1.43002 0
M  V30 6524 C 651.592 0.187615 2.06048 0
M  V30 6525 C 652.007 -1.15039 1.49705 0
M  V30 6526 O 651.364 -1.71209 0.631956 0
M  V30 6527 C 651.415 0.100498 3.6136 0
M  V30 6528 O 651.136 1.38562 4.15611 0
M  V30 6529 C 652.637 -0.399298 4.41498 0
M  V30 6530 H 649.857 0.0941675 0.664359 0
M  V30 6531 H 652.401 0.905681 1.83351 0
M  V30 6532 H 650.556 -0.568181 3.83211 0
M  V30 6533 H 650.97 1.25084 5.09366 0
M  V30 6534 H 652.444 -0.409187 5.50481 0
M  V30 6535 H 652.921 -1.43232 4.15188 0
M  V30 6536 H 653.527 0.23721 4.24638 0
M  V30 6537 N 651.842 -1.52309 0.404946 0
M  V30 6538 C 653.258 -1.59503 0.0556255 0
M  V30 6539 C 653.458 -1.41805 -1.43156 0
M  V30 6540 O 652.514 -1.2429 -2.19792 0
M  V30 6541 C 653.827 -2.95687 0.546801 0
M  V30 6542 C 655.375 -3.08909 0.504413 0
M  V30 6543 C 655.85 -4.47566 0.97203 0
M  V30 6544 N 657.341 -4.53795 0.928679 0
M  V30 6545 C 658.076 -5.59346 1.26174 0
M  V30 6546 N 657.572 -6.72469 1.66604 0
M  V30 6547 N 659.365 -5.49532 1.18198 0
M  V30 6548 H 651.516 -1.6206 1.37296 0
M  V30 6549 H 653.779 -0.762161 0.563751 0
M  V30 6550 H 653.485 -3.13905 1.58609 0
M  V30 6551 H 653.359 -3.77172 -0.0457905 0
M  V30 6552 H 655.746 -2.90378 -0.525819 0
M  V30 6553 H 655.827 -2.2934 1.13301 0
M  V30 6554 H 655.471 -4.6684 2.00057 0
M  V30 6555 H 655.401 -5.25625 0.320292 0
M  V30 6556 H 657.892 -3.72588 0.631369 0
M  V30 6557 H 658.205 -7.48993 1.9034 0
M  V30 6558 H 656.55 -6.73761 1.70504 0
M  V30 6559 H 659.741 -4.60038 0.865011 0
M  V30 6560 H 659.914 -6.31687 1.44485 0
M  V30 6561 N 653.32 -0.135238 -1.57019 0
M  V30 6562 C 654.545 0.529343 -2.00531 0
M  V30 6563 C 654.97 1.58391 -1.01459 0
M  V30 6564 O 654.328 1.81296 0.0113986 0
M  V30 6565 C 654.376 1.11748 -3.42848 0
M  V30 6566 O 653.48 2.23267 -3.46736 0
M  V30 6567 H 652.821 0.130669 -0.651016 0
M  V30 6568 H 655.351 -0.228503 -2.0332 0
M  V30 6569 H 655.361 1.44905 -3.81401 0
M  V30 6570 H 654.036 0.345147 -4.14465 0
M  V30 6571 H 652.613 1.91428 -3.20015 0
M  V30 6572 N 654.798 1.5699 0.138552 0
M  V30 6573 C 656.044 1.84081 0.85099 0
M  V30 6574 C 656.377 0.718107 1.80435 0
M  V30 6575 O 655.652 -0.277633 1.92508 0
M  V30 6576 C 655.935 3.21699 1.61808 0
M  V30 6577 C 655.788 4.44544 0.685633 0
M  V30 6578 C 657.107 3.5664 2.57868 0
M  V30 6579 H 654.226 0.669592 0.307922 0
M  V30 6580 H 656.868 1.89646 0.11588 0
M  V30 6581 H 655.018 3.17086 2.24474 0
M  V30 6582 H 656.69 4.61248 0.0693179 0
M  V30 6583 H 654.933 4.338 -0.00421993 0
M  V30 6584 H 655.604 5.3746 1.25858 0
M  V30 6585 H 658.08 3.61918 2.05316 0
M  V30 6586 H 656.956 4.53946 3.08584 0
M  V30 6587 H 657.217 2.83036 3.39622 0
M  V30 6588 N 656.276 -0.40816 1.52223 0
M  V30 6589 C 657.504 -1.17672 1.70179 0
M  V30 6590 C 657.919 -1.84257 0.411696 0
M  V30 6591 O 657.276 -1.7192 -0.612354 0
M  V30 6592 C 657.327 -2.23911 2.83806 0
M  V30 6593 O 657.048 -1.60044 4.0782 0
M  V30 6594 C 658.549 -3.1364 3.13281 0
M  V30 6595 H 655.769 -0.353562 0.570293 0
M  V30 6596 H 658.313 -0.480083 1.98785 0
M  V30 6597 H 656.468 -2.89242 2.57717 0
M  V30 6598 H 656.882 -2.30484 4.71145 0
M  V30 6599 H 658.356 -3.84255 3.96298 0
M  V30 6600 H 658.833 -3.76066 2.26872 0
M  V30 6601 H 659.439 -2.53977 3.41139 0
M  V30 6602 N 657.755 -1.42862 -0.66545 0
M  V30 6603 C 659.001 -1.44043 -1.42757 0
M  V30 6604 C 659.334 -0.0599629 -1.94107 0
M  V30 6605 O 658.609 0.917286 -1.71511 0
M  V30 6606 C 658.892 -2.47266 -2.61786 0
M  V30 6607 C 658.745 -3.94539 -2.16007 0
M  V30 6608 C 660.064 -2.47365 -3.64003 0
M  V30 6609 H 657.183 -0.524506 -0.517748 0
M  V30 6610 H 659.825 -1.74335 -0.755466 0
M  V30 6611 H 657.975 -2.21565 -3.19126 0
M  V30 6612 H 659.647 -4.31254 -1.63762 0
M  V30 6613 H 657.89 -4.07957 -1.47491 0
M  V30 6614 H 658.561 -4.62357 -3.01546 0
M  V30 6615 H 661.037 -2.70243 -3.16399 0
M  V30 6616 H 659.913 -3.21552 -4.44854 0
M  V30 6617 H 660.174 -1.50299 -4.15767 0
M  V30 6618 N 659.233 0.902656 -1.29189 0
M  V30 6619 C 660.649 1.18296 -1.07137 0
M  V30 6620 C 660.849 2.00701 0.179223 0
M  V30 6621 O 659.905 2.3675 0.877812 0
M  V30 6622 C 661.218 1.90677 -2.32514 0
M  V30 6623 C 662.766 2.03515 -2.37804 0
M  V30 6624 C 663.241 2.79307 -3.62976 0
M  V30 6625 N 664.732 2.86862 -3.63681 0
M  V30 6626 C 665.467 3.46035 -4.57217 0
M  V30 6627 N 664.963 4.06399 -5.61081 0
M  V30 6628 N 666.756 3.43681 -4.44792 0
M  V30 6629 H 658.907 0.352765 -2.0945 0
M  V30 6630 H 661.17 0.21876 -0.922414 0
M  V30 6631 H 660.876 1.3756 -3.23682 0
M  V30 6632 H 660.75 2.91169 -2.39793 0
M  V30 6633 H 663.137 2.55809 -1.47125 0
M  V30 6634 H 663.218 1.02166 -2.34512 0
M  V30 6635 H 662.862 2.2769 -4.54004 0
M  V30 6636 H 662.792 3.80995 -3.63525 0
M  V30 6637 H 665.283 2.43987 -2.88581 0
M  V30 6638 H 665.596 4.49564 -6.2858 0
M  V30 6639 H 663.941 4.0487 -5.64894 0
M  V30 6640 H 667.132 2.9574 -3.62843 0
M  V30 6641 H 667.305 3.89503 -5.17872 0
M  V30 6642 N 660.711 1.11618 1.11262 0
M  V30 6643 C 661.641 0.79846 2.19424 0
M  V30 6644 C 662.622 -0.234003 1.68483 0
M  V30 6645 O 663.807 -0.0970704 1.93957 0
M  V30 6646 C 660.937 0.242892 3.4645 0
M  V30 6647 C 659.891 1.20744 4.10615 0
M  V30 6648 C 659.217 0.512494 5.32238 0
M  V30 6649 C 660.517 2.55884 4.55325 0
M  V30 6650 H 662.211 1.70286 2.46258 0
M  V30 6651 H 659.757 0.820195 1.18359 0
M  V30 6652 H 661.71 0.00840447 4.21399 0
M  V30 6653 H 660.434 -0.696811 3.1908 0
M  V30 6654 H 659.093 1.42759 3.37662 0
M  V30 6655 H 658.741 -0.432075 5.01141 0
M  V30 6656 H 658.441 1.15583 5.7612 0
M  V30 6657 H 659.965 0.286842 6.09926 0
M  V30 6658 H 661.379 2.37946 5.21588 0
M  V30 6659 H 659.776 3.16216 5.10027 0
M  V30 6660 H 660.846 3.14968 3.68678 0
M  V30 6661 N 662.189 -1.289 0.906776 0
M  V30 6662 C 663.6 -1.77336 0.58384 0
M  V30 6663 C 663.951 -1.74304 -0.900697 0
M  V30 6664 O 663.076 -1.33335 -1.70443 0
M  V30 6665 C 663.671 -3.22019 1.05304 0
M  V30 6666 C 662.23 -3.68205 0.781148 0
M  V30 6667 C 661.377 -2.48837 1.22373 0
M  V30 6668 H 664.328 -1.15462 1.08877 0
M  V30 6669 H 664.349 -3.78481 0.391414 0
M  V30 6670 H 663.861 -3.24194 2.13353 0
M  V30 6671 H 661.962 -3.71497 -0.28643 0
M  V30 6672 H 662.075 -4.58675 1.384 0
M  V30 6673 H 660.439 -2.46461 0.642594 0
M  V30 6674 H 661.222 -2.53736 2.31242 0
M  V30 6675 N 663.667 -0.670007 -1.42649 0
M  V30 6676 C 664.915 -0.18991 -2.01206 0
M  V30 6677 C 665.236 1.20617 -1.53221 0
M  V30 6678 O 664.506 1.80898 -0.751856 0
M  V30 6679 H 663.086 -0.0672189 -0.743969 0
M  V30 6680 H 665.748 -0.865442 -1.74631 0
M  V30 6681 H 664.844 -0.187481 -3.11536 0
M  V30 6682 N 665.145 1.52092 -0.413018 0
M  V30 6683 C 666.075 2.30021 0.401567 0
M  V30 6684 C 667.056 1.34395 1.04269 0
M  V30 6685 O 668.241 1.63304 1.05097 0
M  V30 6686 C 665.371 3.12447 1.51638 0
M  V30 6687 C 664.325 4.16153 1.00005 0
M  V30 6688 C 663.651 4.86948 2.20875 0
M  V30 6689 C 664.951 5.22275 0.0513757 0
M  V30 6690 H 666.645 2.98365 -0.248704 0
M  V30 6691 H 664.191 1.4349 -0.121052 0
M  V30 6692 H 666.144 3.65733 2.09326 0
M  V30 6693 H 664.868 2.41879 2.19458 0
M  V30 6694 H 663.527 3.63882 0.445549 0
M  V30 6695 H 663.175 4.12905 2.8726 0
M  V30 6696 H 662.875 5.57057 1.86978 0
M  V30 6697 H 664.399 5.43048 2.79162 0
M  V30 6698 H 665.813 5.70778 0.537176 0
M  V30 6699 H 664.21 5.9977 -0.198977 0
M  V30 6700 H 665.28 4.76611 -0.892736 0
M  V30 6701 N 666.623 0.143563 1.56945 0
M  V30 6702 C 667.573 -0.809115 2.1316 0
M  V30 6703 C 668.557 -1.21176 1.05855 0
M  V30 6704 O 669.749 -1.17875 1.3204 0
M  V30 6705 C 666.878 -2.04957 2.75405 0
M  V30 6706 C 665.964 -1.67018 3.89828 0
M  V30 6707 N 666.355 -0.998822 4.9584 0
M  V30 6708 C 664.653 -1.96313 4.00471 0
M  V30 6709 C 665.354 -0.816217 5.75945 0
M  V30 6710 N 664.33 -1.349 5.26596 0
M  V30 6711 H 668.132 -0.286919 2.92496 0
M  V30 6712 H 665.646 -0.0580948 1.62296 0
M  V30 6713 H 667.643 -2.74201 3.14037 0
M  V30 6714 H 666.303 -2.57697 1.97541 0
M  V30 6715 H 667.314 -0.659975 5.13678 0
M  V30 6716 H 663.991 -2.50927 3.33679 0
M  V30 6717 H 665.381 -0.287353 6.71285 0
M  V30 6718 N 668.101 -1.57061 -0.130224 0
M  V30 6719 C 669.049 -2.00486 -1.17933 0
M  V30 6720 C 670.043 -0.899933 -1.43519 0
M  V30 6721 O 671.249 -1.08514 -1.43613 0
M  V30 6722 H 667.624 -0.638441 -0.397363 0
M  V30 6723 H 669.595 -2.87848 -0.786501 0
M  V30 6724 C 668.344 -2.41565 -2.50084 0
M  V30 6725 H 667.667 -3.26148 -2.31231 0
M  V30 6726 H 669.107 -2.75757 -3.22078 0
M  V30 6727 C 667.566 -1.27485 -3.11848 0
M  V30 6728 O 668.096 -0.584688 -3.97422 0
M  V30 6729 N 666.302 -1.03478 -2.71552 0
M  V30 6730 H 665.849 -1.59779 -2.02061 0
M  V30 6731 H 665.807 -0.27341 -3.13209 0
M  V30 6732 N 669.579 0.400081 -1.52437 0
M  V30 6733 C 670.804 1.17221 -1.71096 0
M  V30 6734 C 671.229 1.83269 -0.423565 0
M  V30 6735 O 670.587 1.70378 0.619751 0
M  V30 6736 C 670.635 2.20425 -2.85386 0
M  V30 6737 O 669.739 3.26769 -2.51586 0
M  V30 6738 H 669.08 0.341766 -0.569291 0
M  V30 6739 H 671.61 0.467772 -1.99181 0
M  V30 6740 H 671.62 2.64605 -3.10561 0
M  V30 6741 H 670.295 1.71737 -3.78786 0
M  V30 6742 H 668.872 2.87804 -2.37114 0
M  V30 6743 N 671.057 1.43213 0.657864 0
M  V30 6744 C 671.987 1.50815 1.78262 0
M  V30 6745 C 672.968 0.363211 1.66177 0
M  V30 6746 O 674.153 0.579806 1.85343 0
M  V30 6747 C 671.283 1.42625 3.16663 0
M  V30 6748 C 670.237 2.5532 3.43505 0
M  V30 6749 C 669.563 2.32184 4.81658 0
M  V30 6750 C 670.863 3.97583 3.38711 0
M  V30 6751 H 672.557 2.44954 1.72157 0
M  V30 6752 H 670.103 1.17896 0.82683 0
M  V30 6753 H 672.056 1.46548 3.95097 0
M  V30 6754 H 670.78 0.449877 3.23487 0
M  V30 6755 H 669.439 2.50742 2.6744 0
M  V30 6756 H 669.087 1.32801 4.85153 0
M  V30 6757 H 668.787 3.07724 5.00579 0
M  V30 6758 H 670.311 2.37883 5.62356 0
M  V30 6759 H 671.725 4.03673 4.07089 0
M  V30 6760 H 670.122 4.73112 3.69168 0
M  V30 6761 H 671.192 4.23049 2.36976 0
M  V30 6762 N 672.536 -0.895792 1.29666 0
M  V30 6763 C 673.782 -1.64908 1.18039 0
M  V30 6764 C 674.115 -1.9236 -0.266682 0
M  V30 6765 O 673.39 -1.53682 -1.19214 0
M  V30 6766 C 673.673 -2.99574 1.99819 0
M  V30 6767 C 673.526 -2.79163 3.52687 0
M  V30 6768 C 674.845 -4.00358 1.82761 0
M  V30 6769 H 671.964 -0.598437 0.430165 0
M  V30 6770 H 674.606 -1.03736 1.59182 0
M  V30 6771 H 672.756 -3.51786 1.64859 0
M  V30 6772 H 674.428 -2.33821 3.9765 0
M  V30 6773 H 672.671 -2.13871 3.77414 0
M  V30 6774 H 673.342 -3.74871 4.05186 0
M  V30 6775 H 675.818 -3.57268 2.13304 0
M  V30 6776 H 674.694 -4.92514 2.42325 0
M  V30 6777 H 674.955 -4.35096 0.783839 0
M  V30 6778 N 674.014 -1.12206 -1.10668 0
M  V30 6779 C 674.961 -0.787716 -2.16942 0
M  V30 6780 C 675.931 0.244442 -1.64291 0
M  V30 6781 O 677.116 0.119558 -1.90425 0
M  V30 6782 C 674.256 -0.24584 -3.44223 0
M  V30 6783 C 673.369 -1.33552 -4.10838 0
M  V30 6784 C 672.504 -0.753337 -5.25831 0
M  V30 6785 C 671.543 -1.82231 -5.84344 0
M  V30 6786 N 670.68 -1.25902 -6.90719 0
M  V30 6787 H 675.52 -1.69809 -2.44885 0
M  V30 6788 H 673.057 -0.847862 -1.20207 0
M  V30 6789 H 675.015 0.0863639 -4.17111 0
M  V30 6790 H 673.645 0.627702 -3.16638 0
M  V30 6791 H 672.697 -1.78454 -3.35944 0
M  V30 6792 H 674.009 -2.14396 -4.50373 0
M  V30 6793 H 673.163 -0.37166 -6.05561 0
M  V30 6794 H 671.902 0.0863297 -4.87624 0
M  V30 6795 H 670.907 -2.2132 -5.03287 0
M  V30 6796 H 672.132 -2.66515 -6.24617 0
M  V30 6797 H 670.078 -0.44114 -6.54515 0
M  V30 6798 H 669.995 -2.00408 -7.28953 0
M  V30 6799 H 671.263 -0.904498 -7.74235 0
M  V30 6800 N 675.492 1.28418 -0.913599 0
M  V30 6801 C 676.422 2.29713 -0.418847 0
M  V30 6802 C 677.403 1.62165 0.513469 0
M  V30 6803 O 678.588 1.89576 0.421235 0
M  V30 6804 C 675.718 3.45612 0.342042 0
M  V30 6805 C 674.672 4.25056 -0.501123 0
M  V30 6806 C 673.998 5.3329 0.388097 0
M  V30 6807 C 675.298 4.91814 -1.75831 0
M  V30 6808 H 676.992 2.71346 -1.26538 0
M  V30 6809 H 674.538 1.30446 -0.609903 0
M  V30 6810 H 676.491 4.15562 0.699 0
M  V30 6811 H 675.215 3.02858 1.22248 0
M  V30 6812 H 673.874 3.56833 -0.840598 0
M  V30 6813 H 673.522 4.8678 1.26707 0
M  V30 6814 H 673.222 5.87347 -0.172459 0
M  V30 6815 H 674.746 6.06088 0.74094 0
M  V30 6816 H 676.16 5.54126 -1.47026 0
M  V30 6817 H 674.557 5.55866 -2.26126 0
M  V30 6818 H 675.627 4.16313 -2.4862 0
M  V30 6819 N 676.97 0.677563 1.42291 0
M  V30 6820 C 677.917 0.000947061 2.308 0
M  V30 6821 C 678.887 -0.789889 1.46116 0
M  V30 6822 O 680.072 -0.761578 1.74942 0
M  V30 6823 C 677.212 -0.942387 3.31984 0
M  V30 6824 C 676.325 -0.14508 4.31756 0
M  V30 6825 C 675.46 -1.08442 5.20013 0
M  V30 6826 C 674.499 -0.278958 6.11464 0
M  V30 6827 N 673.636 -1.17115 6.92263 0
M  V30 6828 H 678.476 0.761521 2.88106 0
M  V30 6829 H 676.013 0.38727 1.41911 0
M  V30 6830 H 677.971 -1.50317 3.89179 0
M  V30 6831 H 676.601 -1.66956 2.76271 0
M  V30 6832 H 675.653 0.532368 3.76656 0
M  V30 6833 H 676.965 0.48015 4.96484 0
M  V30 6834 H 676.119 -1.71504 5.81955 0
M  V30 6835 H 674.858 -1.74353 4.55469 0
M  V30 6836 H 673.863 0.364856 5.48588 0
M  V30 6837 H 675.088 0.376099 6.78058 0
M  V30 6838 H 673.034 -1.81661 6.30345 0
M  V30 6839 H 672.951 -0.601063 7.53607 0
M  V30 6840 H 674.219 -1.78915 7.58689 0
M  V30 6841 N 678.448 -1.51871 0.421078 0
M  V30 6842 C 679.398 -2.24171 -0.416111 0
M  V30 6843 C 680.382 -1.25763 -1.00362 0
M  V30 6844 O 681.574 -1.5094 -0.924452 0
M  V30 6845 C 678.703 -3.07533 -1.52571 0
M  V30 6846 C 677.789 -4.1336 -0.948399 0
M  V30 6847 N 678.18 -5.05704 -0.0987933 0
M  V30 6848 C 676.478 -4.29055 -1.21768 0
M  V30 6849 C 677.179 -5.8127 0.223705 0
M  V30 6850 N 676.155 -5.4221 -0.388524 0
M  V30 6851 H 679.957 -2.92925 0.239166 0
M  V30 6852 H 677.471 -1.60732 0.232191 0
M  V30 6853 H 679.468 -3.57893 -2.13819 0
M  V30 6854 H 678.128 -2.4032 -2.18349 0
M  V30 6855 H 679.139 -5.17214 0.266428 0
M  V30 6856 H 675.816 -3.73071 -1.87416 0
M  V30 6857 H 677.206 -6.65653 0.914076 0
M  V30 6858 N 679.926 -0.151884 -1.56866 0
M  V30 6859 C 681.174 0.497021 -1.95893 0
M  V30 6860 C 681.495 1.65078 -1.03799 0
M  V30 6861 O 680.765 1.95642 -0.10049 0
M  V30 6862 H 679.345 0.186603 -0.723318 0
M  V30 6863 H 682.007 -0.228525 -1.93556 0
M  V30 6864 H 681.103 0.869933 -2.99731 0
M  V30 6865 N 681.404 1.57128 0.121893 0
M  V30 6866 C 682.367 1.99197 1.13372 0
M  V30 6867 C 683.367 0.881728 1.3447 0
M  V30 6868 O 684.557 1.14783 1.31036 0
M  V30 6869 C 681.689 2.32963 2.4888 0
M  V30 6870 H 682.882 2.89788 0.772204 0
M  V30 6871 H 680.435 1.51952 0.366093 0
M  V30 6872 H 681.17 1.45243 2.89957 0
M  V30 6873 H 680.955 3.13934 2.34921 0
M  V30 6874 H 682.445 2.66261 3.21706 0
M  V30 6875 N 682.882 -0.391992 1.52647 0
M  V30 6876 C 684.13 -1.13507 1.67214 0
M  V30 6877 C 684.451 -1.90575 0.41304 0
M  V30 6878 O 683.721 -1.87348 -0.572498 0
M  V30 6879 H 682.301 -0.422013 0.616372 0
M  V30 6880 H 684.963 -0.44502 1.89751 0
M  V30 6881 H 684.059 -1.83964 2.52118 0
M  V30 6882 N 684.36 -1.4356 -0.65026 0
M  V30 6883 C 685.606 -1.45549 -1.41221 0
M  V30 6884 C 685.939 -0.0805472 -1.94033 0
M  V30 6885 O 685.214 0.899043 -1.72475 0
M  V30 6886 C 685.497 -2.50028 -2.59148 0
M  V30 6887 C 685.35 -3.96808 -2.1181 0
M  V30 6888 C 686.669 -2.51212 -3.61359 0
M  V30 6889 H 683.788 -0.529967 -0.512156 0
M  V30 6890 H 686.43 -1.75127 -0.736933 0
M  V30 6891 H 684.58 -2.24937 -3.16758 0
M  V30 6892 H 686.252 -4.32966 -1.59178 0
M  V30 6893 H 684.495 -4.09498 -1.43156 0
M  V30 6894 H 685.166 -4.6553 -2.96625 0
M  V30 6895 H 687.642 -2.73583 -3.13515 0
M  V30 6896 H 686.518 -3.26252 -4.41419 0
M  V30 6897 H 686.779 -1.54701 -4.1415 0
M  V30 6898 N 685.838 0.888903 -1.30139 0
M  V30 6899 C 686.801 1.97576 -1.16174 0
M  V30 6900 C 687.801 1.60525 -0.094086 0
M  V30 6901 O 688.991 1.70812 -0.341889 0
M  V30 6902 C 686.123 3.3188 -0.778983 0
M  V30 6903 H 687.316 2.11393 -2.12728 0
M  V30 6904 H 684.869 1.0748 -1.1348 0
M  V30 6905 H 685.604 3.23765 0.186225 0
M  V30 6906 H 685.389 3.60141 -1.55051 0
M  V30 6907 H 686.879 4.11612 -0.704631 0
M  V30 6908 N 687.317 1.12792 1.10072 0
M  V30 6909 C 688.25 0.742921 2.15768 0
M  V30 6910 C 689.228 -0.267714 1.60381 0
M  V30 6911 O 690.412 -0.160782 1.87813 0
M  V30 6912 C 687.539 0.100244 3.38552 0
M  V30 6913 C 686.585 1.07831 4.12644 0
M  V30 6914 S 687.418 2.60765 4.6772 0
M  V30 6915 C 688.574 1.97838 5.9381 0
M  V30 6916 H 688.807 1.63822 2.48092 0
M  V30 6917 H 686.34 0.947385 1.21918 0
M  V30 6918 H 688.298 -0.264175 4.09649 0
M  V30 6919 H 686.959 -0.772223 3.04459 0
M  V30 6920 H 686.152 0.576325 5.00694 0
M  V30 6921 H 685.754 1.38586 3.47376 0
M  V30 6922 H 688.046 1.32341 6.64449 0
M  V30 6923 H 688.989 2.83943 6.48677 0
M  V30 6924 H 689.397 1.43267 5.46017 0
M  V30 6925 N 688.795 -1.27931 0.920396 0
M  V30 6926 C 690.072 -1.89728 0.475687 0
M  V30 6927 C 690.452 -1.8337 -1.04588 0
M  V30 6928 O 689.8 -1.27404 -1.89685 0
M  V30 6929 C 690.01 -3.33959 1.01354 0
M  V30 6930 C 691.358 -4.10907 1.06963 0
M  V30 6931 O 692.382 -3.42945 0.962646 0
M  V30 6932 O 691.241 -5.32399 1.23343 0
M  V30 6933 H 688.335 -0.81294 0.151845 0
M  V30 6934 H 690.881 -1.36252 1.01161 0
M  V30 6935 H 689.653 -3.32843 2.05746 0
M  V30 6936 H 689.276 -3.94944 0.458829 0
M  V30 6937 N 690.273 -0.685099 -1.4193 0
M  V30 6938 C 691.521 -0.21124 -2.00993 0
M  V30 6939 C 691.842 1.18985 -1.54491 0
M  V30 6940 O 691.112 1.8009 -0.771 0
M  V30 6941 H 689.692 -0.0751059 -0.743215 0
M  V30 6942 H 692.354 -0.883915 -1.73704 0
M  V30 6943 H 691.45 -0.220513 -3.1132 0
M  V30 6944 N 691.751 1.51645 -0.429126 0
M  V30 6945 C 692.683 2.25279 0.422124 0
M  V30 6946 C 693.696 1.28986 0.993299 0
M  V30 6947 O 694.885 1.54797 0.888836 0
M  V30 6948 C 691.985 2.98666 1.60162 0
M  V30 6949 C 691.158 4.2199 1.15078 0
M  V30 6950 C 690.217 4.78028 2.19946 0
M  V30 6951 O 689.243 5.40084 1.79716 0
M  V30 6952 N 690.445 4.61342 3.5234 0
M  V30 6953 H 693.21 2.98971 -0.208931 0
M  V30 6954 H 690.771 1.59838 -0.257568 0
M  V30 6955 H 692.763 3.33044 2.29922 0
M  V30 6956 H 691.333 2.28036 2.13818 0
M  V30 6957 H 690.553 3.932 0.280552 0
M  V30 6958 H 691.841 5.02037 0.826831 0
M  V30 6959 H 691.239 4.11894 3.87763 0
M  V30 6960 H 689.796 5.00104 4.18019 0
M  V30 6961 N 693.229 0.160201 1.56784 0
M  V30 6962 C 694.506 -0.533355 1.88188 0
M  V30 6963 C 694.886 -1.82072 1.06831 0
M  V30 6964 O 694.234 -2.27946 0.158959 0
M  V30 6965 C 694.444 -0.786034 3.40033 0
M  V30 6966 C 695.792 -1.12097 4.09536 0
M  V30 6967 O 696.816 -0.874949 3.45287 0
M  V30 6968 O 695.675 -1.58457 5.23023 0
M  V30 6969 H 692.769 -0.273589 0.780434 0
M  V30 6970 H 695.315 0.197803 1.68543 0
M  V30 6971 H 694.087 0.124515 3.91102 0
M  V30 6972 H 693.71 -1.57091 3.65251 0
M  V30 6973 N 694.707 -1.5719 -0.113559 0
M  V30 6974 C 695.953 -1.85412 -0.821597 0
M  V30 6975 C 696.286 -0.746722 -1.7927 0
M  V30 6976 O 695.561 0.246971 -1.92926 0
M  V30 6977 C 695.844 -3.24233 -1.56669 0
M  V30 6978 C 695.697 -4.45578 -0.614823 0
M  V30 6979 C 697.016 -3.60697 -2.52161 0
M  V30 6980 H 694.135 -0.674406 -0.29723 0
M  V30 6981 H 696.777 -1.89807 -0.085694 0
M  V30 6982 H 694.927 -3.20617 -2.19401 0
M  V30 6983 H 696.599 -4.613 0.00407137 0
M  V30 6984 H 694.842 -4.33738 0.0732332 0
M  V30 6985 H 695.513 -5.39395 -1.17292 0
M  V30 6986 H 697.989 -3.65139 -1.99532 0
M  V30 6987 H 696.865 -4.58798 -3.01323 0
M  V30 6988 H 697.126 -2.88403 -3.35076 0
M  V30 6989 N 696.185 0.383891 -1.52853 0
M  V30 6990 C 697.117 1.48889 -1.74255 0
M  V30 6991 C 698.13 1.50405 -0.623063 0
M  V30 6992 O 699.319 1.54215 -0.898887 0
M  V30 6993 C 696.419 2.87721 -1.79081 0
M  V30 6994 C 695.592 3.10111 -3.08464 0
M  V30 6995 C 694.651 4.28954 -3.0477 0
M  V30 6996 O 693.677 4.25012 -3.78621 0
M  V30 6997 N 694.879 5.35411 -2.24311 0
M  V30 6998 H 697.644 1.30915 -2.69595 0
M  V30 6999 H 695.205 0.573454 -1.51404 0
M  V30 7000 H 697.197 3.65333 -1.7411 0
M  V30 7001 H 695.767 2.99029 -0.911052 0
M  V30 7002 H 694.987 2.20319 -3.26884 0
M  V30 7003 H 696.275 3.21928 -3.94005 0
M  V30 7004 H 695.673 5.41471 -1.63787 0
M  V30 7005 H 694.23 6.1167 -2.25175 0
M  V30 7006 N 697.663 1.43903 0.642637 0
M  V30 7007 C 698.593 1.52697 1.76652 0
M  V30 7008 C 699.574 0.380816 1.65782 0
M  V30 7009 O 700.759 0.599432 1.84717 0
M  V30 7010 C 697.889 1.45975 3.15133 0
M  V30 7011 C 696.843 2.58949 3.40778 0
M  V30 7012 C 696.169 2.37279 4.79169 0
M  V30 7013 C 697.469 4.01153 3.34475 0
M  V30 7014 H 699.163 2.46766 1.69549 0
M  V30 7015 H 696.709 1.18767 0.814279 0
M  V30 7016 H 698.662 1.5073 3.93521 0
M  V30 7017 H 697.386 0.484162 3.22991 0
M  V30 7018 H 696.045 2.53564 2.64765 0
M  V30 7019 H 695.693 1.37939 4.83717 0
M  V30 7020 H 695.393 3.13016 4.97287 0
M  V30 7021 H 696.917 2.43834 5.59801 0
M  V30 7022 H 698.331 4.07968 4.02784 0
M  V30 7023 H 696.728 4.77001 3.64129 0
M  V30 7024 H 697.798 4.25539 2.32475 0
M  V30 7025 N 699.141 -0.881989 1.30609 0
M  V30 7026 C 700.552 -1.44956 1.17664 0
M  V30 7027 C 700.903 -1.94945 -0.221531 0
M  V30 7028 O 700.028 -1.85257 -1.11844 0
M  V30 7029 C 700.623 -2.63474 2.12995 0
M  V30 7030 C 699.182 -3.16312 2.04019 0
M  V30 7031 C 698.329 -1.89008 2.02907 0
M  V30 7032 H 701.28 -0.691645 1.42835 0
M  V30 7033 H 701.301 -3.39783 1.71253 0
M  V30 7034 H 700.813 -2.2706 3.14746 0
M  V30 7035 H 698.914 -3.57376 1.0542 0
M  V30 7036 H 699.027 -3.79409 2.9255 0
M  V30 7037 H 697.391 -2.07465 1.47751 0
M  V30 7038 H 698.174 -1.54848 3.06394 0
M  V30 7039 N 700.619 -1.13374 -1.09472 0
M  V30 7040 C 701.549 -0.833268 -2.18126 0
M  V30 7041 C 702.53 0.207169 -1.68834 0
M  V30 7042 O 703.715 0.0662012 -1.94087 0
M  V30 7043 C 700.845 -0.297979 -3.46019 0
M  V30 7044 C 699.799 -1.27261 -4.08642 0
M  V30 7045 C 699.125 -0.597104 -5.31356 0
M  V30 7046 C 700.425 -2.63095 -4.51197 0
M  V30 7047 H 702.119 -1.74182 -2.43518 0
M  V30 7048 H 699.665 -0.838921 -1.17039 0
M  V30 7049 H 701.618 -0.0754444 -4.21332 0
M  V30 7050 H 700.342 0.645959 -3.20148 0
M  V30 7051 H 699.001 -1.48113 -3.35348 0
M  V30 7052 H 698.649 0.352293 -5.01765 0
M  V30 7053 H 698.349 -1.24734 -5.74208 0
M  V30 7054 H 699.873 -0.38384 -6.09392 0
M  V30 7055 H 701.287 -2.46214 -5.17737 0
M  V30 7056 H 699.684 -3.2429 -5.04932 0
M  V30 7057 H 700.754 -3.20793 -3.6362 0
M  V30 7058 N 702.098 1.27442 -0.927168 0
M  V30 7059 C 703.028 2.29256 -0.443188 0
M  V30 7060 C 704.009 1.62701 0.49624 0
M  V30 7061 O 705.194 1.90013 0.401105 0
M  V30 7062 C 702.324 3.45955 0.305366 0
M  V30 7063 C 701.278 4.24501 -0.546178 0
M  V30 7064 C 700.604 5.33671 0.331512 0
M  V30 7065 C 701.904 4.89921 -1.81037 0
M  V30 7066 H 703.598 2.69988 -1.29409 0
M  V30 7067 H 701.144 1.29792 -0.623705 0
M  V30 7068 H 703.097 4.1628 0.654885 0
M  V30 7069 H 701.821 3.04138 1.19029 0
M  V30 7070 H 700.48 3.55921 -0.878398 0
M  V30 7071 H 700.128 4.88096 1.21537 0
M  V30 7072 H 699.828 5.87131 -0.234746 0
M  V30 7073 H 701.352 6.0684 0.676614 0
M  V30 7074 H 702.766 5.52536 -1.52895 0
M  V30 7075 H 701.163 5.53436 -2.32009 0
M  V30 7076 H 702.233 4.13652 -2.53021 0
M  V30 7077 N 703.576 0.692616 1.41565 0
M  V30 7078 C 704.523 0.0254264 2.30786 0
M  V30 7079 C 705.493 -0.774347 1.46946 0
M  V30 7080 O 706.678 -0.742981 1.7574 0
M  V30 7081 C 703.818 -0.907123 3.32964 0
M  V30 7082 C 702.931 -0.0992784 4.31886 0
M  V30 7083 C 702.066 -1.0292 5.21134 0
M  V30 7084 C 701.105 -0.214088 6.11725 0
M  V30 7085 N 700.242 -1.09766 6.93467 0
M  V30 7086 H 705.082 0.792036 2.87282 0
M  V30 7087 H 702.619 0.4023 1.41492 0
M  V30 7088 H 704.577 -1.46181 3.90752 0
M  V30 7089 H 703.207 -1.64016 2.78026 0
M  V30 7090 H 702.259 0.572287 3.76071 0
M  V30 7091 H 703.571 0.532782 4.95946 0
M  V30 7092 H 702.725 -1.65321 5.83741 0
M  V30 7093 H 701.464 -1.69512 4.57293 0
M  V30 7094 H 700.469 0.42302 5.4817 0
M  V30 7095 H 701.694 0.447995 6.77621 0
M  V30 7096 H 699.64 -1.74965 6.32237 0
M  V30 7097 H 699.557 -0.521099 7.54202 0
M  V30 7098 H 700.825 -1.70858 7.60544 0
M  V30 7099 N 705.054 -1.51416 0.437162 0
M  V30 7100 C 706.302 -2.01687 -0.129108 0
M  V30 7101 C 706.623 -1.32329 -1.43227 0
M  V30 7102 O 705.893 -0.457796 -1.90476 0
M  V30 7103 H 704.473 -0.745277 -0.0507023 0
M  V30 7104 H 707.135 -1.86075 0.579828 0
M  V30 7105 H 706.231 -3.10605 -0.305141 0
M  V30 7106 N 706.532 -0.168513 -1.56696 0
M  V30 7107 C 707.809 0.523367 -1.88468 0
M  V30 7108 C 708.189 1.81503 -1.07796 0
M  V30 7109 O 707.537 2.27859 -0.171045 0
M  V30 7110 C 707.747 0.767991 -3.40445 0
M  V30 7111 C 709.095 1.09924 -4.10124 0
M  V30 7112 O 710.119 0.856625 -3.45746 0
M  V30 7113 O 708.978 1.55681 -5.23856 0
M  V30 7114 H 706.072 0.269447 -0.781874 0
M  V30 7115 H 708.618 -0.206739 -1.68436 0
M  V30 7116 H 707.39 -0.145254 -3.9103 0
M  V30 7117 H 707.013 1.55151 -3.66079 0
M  V30 7118 N 708.01 1.57248 0.105221 0
M  V30 7119 C 708.94 2.04374 1.12931 0
M  V30 7120 C 709.921 0.93074 1.42377 0
M  V30 7121 O 711.106 1.20136 1.52581 0
M  V30 7122 C 708.236 2.45967 2.45189 0
M  V30 7123 C 707.19 3.60838 2.30174 0
M  V30 7124 C 706.516 3.88374 3.67518 0
M  V30 7125 C 707.816 4.92084 1.75073 0
M  V30 7126 H 709.51 2.9018 0.737287 0
M  V30 7127 H 707.056 1.39601 0.353211 0
M  V30 7128 H 709.009 2.77542 3.17094 0
M  V30 7129 H 707.733 1.57148 2.86308 0
M  V30 7130 H 706.392 3.29493 1.60716 0
M  V30 7131 H 706.04 2.96739 4.06147 0
M  V30 7132 H 705.74 4.65703 3.58321 0
M  V30 7133 H 707.264 4.22415 4.40906 0
M  V30 7134 H 708.678 5.22106 2.36809 0
M  V30 7135 H 707.075 5.73507 1.76662 0
M  V30 7136 H 708.145 4.79684 0.709347 0
M  V30 7137 N 709.488 -0.375779 1.53054 0
M  V30 7138 C 710.904 -0.716764 1.426 0
M  V30 7139 C 711.104 -1.93651 0.556931 0
M  V30 7140 O 710.16 -2.52475 0.0354461 0
M  V30 7141 C 711.473 -0.939499 2.85646 0
M  V30 7142 C 713.021 -1.04015 2.95212 0
M  V30 7143 C 713.496 -1.29543 4.39298 0
M  V30 7144 N 714.987 -1.36335 4.42682 0
M  V30 7145 C 715.722 -1.57778 5.51266 0
M  V30 7146 N 715.218 -1.76604 6.69913 0
M  V30 7147 N 717.011 -1.60065 5.38828 0
M  V30 7148 H 709.162 0.42664 2.08071 0
M  V30 7149 H 711.425 0.128758 0.939215 0
M  V30 7150 H 711.131 -0.115189 3.51511 0
M  V30 7151 H 711.005 -1.85048 3.2869 0
M  V30 7152 H 713.392 -1.85501 2.29507 0
M  V30 7153 H 713.473 -0.106785 2.55577 0
M  V30 7154 H 713.117 -0.485611 5.05573 0
M  V30 7155 H 713.047 -2.24184 4.76497 0
M  V30 7156 H 715.538 -1.23441 3.5717 0
M  V30 7157 H 715.851 -1.9251 7.48438 0
M  V30 7158 H 714.196 -1.73802 6.72917 0
M  V30 7159 H 717.387 -1.44917 4.45103 0
M  V30 7160 H 717.56 -1.76435 6.23518 0
M  V30 7161 N 710.966 -1.44241 -0.634997 0
M  V30 7162 C 712.215 -1.46102 -1.39058 0
M  V30 7163 C 712.528 -0.0959909 -1.95364 0
M  V30 7164 O 713.734 0.00788751 -2.71499 0
M  V30 7165 C 712.19 -2.57195 -2.51751 0
M  V30 7166 C 711.798 -3.99888 -2.01974 0
M  V30 7167 C 713.542 -2.68272 -3.28984 0
M  V30 7168 C 711.449 -5.02412 -3.11987 0
M  V30 7169 H 710.379 -0.543556 -0.522554 0
M  V30 7170 H 713.03 -1.70294 -0.683538 0
M  V30 7171 H 711.412 -2.26237 -3.25012 0
M  V30 7172 H 712.586 -4.40396 -1.35604 0
M  V30 7173 H 710.901 -3.93019 -1.37568 0
M  V30 7174 H 713.498 -3.42042 -4.10988 0
M  V30 7175 H 713.841 -1.73957 -3.78212 0
M  V30 7176 H 714.374 -2.98622 -2.62812 0
M  V30 7177 H 711.113 -5.98342 -2.67707 0
M  V30 7178 H 710.633 -4.66501 -3.77011 0
M  V30 7179 H 712.312 -5.25939 -3.76825 0
M  V30 7180 N 712.444 0.87505 -1.31075 0
M  V30 7181 C 713.376 1.98773 -1.14114 0
M  V30 7182 C 714.389 1.62595 -0.0816119 0
M  V30 7183 O 715.578 1.75449 -0.32861 0
M  V30 7184 C 712.678 3.31159 -0.720224 0
M  V30 7185 C 711.851 3.9571 -1.86366 0
M  V30 7186 C 710.91 5.06407 -1.42965 0
M  V30 7187 O 709.936 5.27501 -2.13848 0
M  V30 7188 N 711.138 5.79649 -0.314194 0
M  V30 7189 H 713.903 2.1387 -2.09951 0
M  V30 7190 H 711.464 1.04873 -1.23342 0
M  V30 7191 H 713.456 4.0259 -0.412687 0
M  V30 7192 H 712.026 3.12257 0.146396 0
M  V30 7193 H 711.246 3.17324 -2.33879 0
M  V30 7194 H 712.534 4.35576 -2.62966 0
M  V30 7195 H 711.932 5.65025 0.276228 0
M  V30 7196 H 710.489 6.51766 -0.0661641 0
M  V30 7197 N 713.922 1.13953 1.08869 0
M  V30 7198 C 714.872 0.790812 2.13846 0
M  V30 7199 C 715.856 -0.217819 1.59419 0
M  V30 7200 O 717.048 -0.0208723 1.76988 0
M  V30 7201 C 714.177 0.26479 3.42277 0
M  V30 7202 C 713.263 1.30267 4.03598 0
M  V30 7203 N 713.654 2.50535 4.39393 0
M  V30 7204 C 711.952 1.15178 4.30871 0
M  V30 7205 C 712.653 3.16938 4.87776 0
M  V30 7206 N 711.629 2.44349 4.85587 0
M  V30 7207 H 715.431 1.70577 2.39334 0
M  V30 7208 H 712.945 1.02268 1.26154 0
M  V30 7209 H 714.942 -0.00330398 4.169 0
M  V30 7210 H 713.602 -0.644419 3.18241 0
M  V30 7211 H 714.613 2.87798 4.30572 0
M  V30 7212 H 711.29 0.301204 4.16412 0
M  V30 7213 H 712.68 4.19453 5.2489 0
M  V30 7214 N 715.4 -1.26948 0.933913 0
M  V30 7215 C 716.628 -1.98186 0.59414 0
M  V30 7216 C 717.043 -1.69614 -0.829257 0
M  V30 7217 O 716.4 -0.960213 -1.55197 0
M  V30 7218 C 716.451 -3.52123 0.818026 0
M  V30 7219 O 716.172 -3.79698 2.18543 0
M  V30 7220 C 717.673 -4.40608 0.48781 0
M  V30 7221 H 714.893 -0.632305 0.224569 0
M  V30 7222 H 717.437 -1.61646 1.25263 0
M  V30 7223 H 715.592 -3.86851 0.206246 0
M  V30 7224 H 716.006 -4.7426 2.24005 0
M  V30 7225 H 717.48 -5.47606 0.695126 0
M  V30 7226 H 717.957 -4.35394 -0.576913 0
M  V30 7227 H 718.563 -4.11411 1.078 0
M  V30 7228 N 716.879 -0.700114 -1.41195 0
M  V30 7229 C 718.125 -0.233351 -2.01453 0
M  V30 7230 C 718.458 1.16548 -1.55339 0
M  V30 7231 O 717.733 1.78756 -0.766575 0
M  V30 7232 C 718.016 -0.2961 -3.58881 0
M  V30 7233 C 717.869 -1.7322 -4.15108 0
M  V30 7234 C 719.188 0.341525 -4.38773 0
M  V30 7235 H 716.307 -0.0862667 -0.731934 0
M  V30 7236 H 718.949 -0.889693 -1.67882 0
M  V30 7237 H 717.099 0.262736 -3.87611 0
M  V30 7238 H 718.771 -2.34523 -3.97236 0
M  V30 7239 H 717.014 -2.2649 -3.69979 0
M  V30 7240 H 717.685 -1.7276 -5.24269 0
M  V30 7241 H 720.161 -0.134461 -4.15883 0
M  V30 7242 H 719.037 0.267098 -5.4825 0
M  V30 7243 H 719.298 1.42289 -4.18577 0
M  V30 7244 N 718.357 1.51182 -0.445186 0
M  V30 7245 C 719.585 2.06568 0.117091 0
M  V30 7246 C 720 1.31182 1.35781 0
M  V30 7247 O 719.357 0.373605 1.78635 0
M  V30 7248 C 719.408 3.58917 0.431408 0
M  V30 7249 O 719.129 4.31456 -0.760078 0
M  V30 7250 C 720.63 4.30843 1.0435 0
M  V30 7251 H 717.85 0.670985 0.00444436 0
M  V30 7252 H 720.394 1.94666 -0.626525 0
M  V30 7253 H 718.549 3.70708 1.12493 0
M  V30 7254 H 718.963 5.22215 -0.489048 0
M  V30 7255 H 720.437 5.38499 1.21337 0
M  V30 7256 H 720.914 3.89644 2.02667 0
M  V30 7257 H 721.52 4.23516 0.38913 0
M  V30 7258 N 719.835 0.176821 1.56605 0
M  V30 7259 C 720.798 -0.737429 2.17013 0
M  V30 7260 C 721.798 -1.15414 1.11965 0
M  V30 7261 O 722.988 -1.0702 1.37449 0
M  V30 7262 C 720.12 -2.00445 2.75744 0
M  V30 7263 H 721.313 -0.211455 2.99154 0
M  V30 7264 H 718.866 -0.0727582 1.56131 0
M  V30 7265 H 719.601 -2.57338 1.97352 0
M  V30 7266 H 719.386 -1.71456 3.52626 0
M  V30 7267 H 720.876 -2.65679 3.22187 0
M  V30 7268 N 721.313 -1.57302 -0.09688 0
M  V30 7269 C 722.538 -1.9058 -0.818169 0
M  V30 7270 C 722.963 -0.770921 -1.71576 0
M  V30 7271 O 722.321 0.277588 -1.79162 0
M  V30 7272 C 722.369 -3.22714 -1.60898 0
M  V30 7273 O 721.473 -3.10178 -2.71779 0
M  V30 7274 H 720.814 -0.624759 -0.224882 0
M  V30 7275 H 723.344 -2.04471 -0.07264 0
M  V30 7276 H 723.354 -3.55978 -1.99358 0
M  V30 7277 H 722.029 -4.04899 -0.950227 0
M  V30 7278 H 720.606 -2.88424 -2.3636 0
M  V30 7279 N 722.791 0.367657 -1.53252 0
M  V30 7280 C 724.037 1.11216 -1.69584 0
M  V30 7281 C 724.37 1.89026 -0.445269 0
M  V30 7282 O 723.645 1.86342 0.557404 0
M  V30 7283 C 723.928 2.07308 -2.94441 0
M  V30 7284 C 723.781 1.3312 -4.2965 0
M  V30 7285 C 725.1 3.07459 -3.14892 0
M  V30 7286 H 722.219 0.40294 -0.617096 0
M  V30 7287 H 724.861 0.393201 -1.85887 0
M  V30 7288 H 723.011 2.68617 -2.80673 0
M  V30 7289 H 724.683 0.746111 -4.55226 0
M  V30 7290 H 722.926 0.633051 -4.29156 0
M  V30 7291 H 723.597 2.03443 -5.13142 0
M  V30 7292 H 726.073 2.56252 -3.27832 0
M  V30 7293 H 724.949 3.71919 -4.03693 0
M  V30 7294 H 725.21 3.77514 -2.30077 0
M  V30 7295 N 724.269 1.44576 0.627338 0
M  V30 7296 C 725.685 1.28546 0.945938 0
M  V30 7297 C 725.885 0.224003 2.00251 0
M  V30 7298 O 724.941 -0.388817 2.49488 0
M  V30 7299 C 726.254 2.65825 1.40561 0
M  V30 7300 C 727.802 2.73566 1.52088 0
M  V30 7301 C 728.277 4.11323 2.01438 0
M  V30 7302 N 729.768 4.13519 2.08702 0
M  V30 7303 C 730.503 5.16964 2.48065 0
M  V30 7304 N 729.999 6.30768 2.86538 0
M  V30 7305 N 731.792 5.04319 2.48232 0
M  V30 7306 H 723.943 2.1228 -0.0713567 0
M  V30 7307 H 726.206 0.947503 0.0307081 0
M  V30 7308 H 725.912 3.44591 0.703539 0
M  V30 7309 H 725.786 2.92969 2.37591 0
M  V30 7310 H 728.173 1.95116 2.21391 0
M  V30 7311 H 728.254 2.50159 0.534237 0
M  V30 7312 H 727.898 4.9025 1.32729 0
M  V30 7313 H 727.828 4.32109 3.0098 0
M  V30 7314 H 730.319 3.31385 1.81638 0
M  V30 7315 H 730.632 7.0551 3.15398 0
M  V30 7316 H 728.977 6.342 2.84281 0
M  V30 7317 H 732.168 4.14465 2.17569 0
M  V30 7318 H 732.341 5.85059 2.78585 0
M  V30 7319 N 725.747 -0.868086 1.31537 0
M  V30 7320 C 726.677 -1.99131 1.21939 0
M  V30 7321 C 727.658 -1.69768 0.106166 0
M  V30 7322 O 728.843 -1.92006 0.291081 0
M  V30 7323 C 725.973 -3.34676 0.927879 0
M  V30 7324 C 724.927 -3.7835 2.00088 0
M  V30 7325 C 724.253 -5.11375 1.56203 0
M  V30 7326 C 725.553 -3.95256 3.41424 0
M  V30 7327 H 727.247 -2.07419 2.15911 0
M  V30 7328 H 724.793 -0.996569 1.03945 0
M  V30 7329 H 726.746 -4.12793 0.847327 0
M  V30 7330 H 725.47 -3.26565 -0.0475042 0
M  V30 7331 H 724.129 -3.02474 2.07135 0
M  V30 7332 H 723.777 -4.99709 0.57445 0
M  V30 7333 H 723.477 -5.41568 2.27985 0
M  V30 7334 H 725.001 -5.92001 1.49558 0
M  V30 7335 H 726.415 -4.63764 3.3704 0
M  V30 7336 H 724.812 -4.36849 4.1144 0
M  V30 7337 H 725.882 -2.98579 3.82072 0
M  V30 7338 N 727.225 -1.14528 -1.08264 0
M  V30 7339 C 728.45 -0.938381 -1.84957 0
M  V30 7340 C 728.875 0.508044 -1.81109 0
M  V30 7341 O 728.233 1.36146 -1.19724 0
M  V30 7342 C 728.281 -1.44568 -3.30352 0
M  V30 7343 O 727.385 -0.638745 -4.07423 0
M  V30 7344 H 726.726 -0.335394 -0.573068 0
M  V30 7345 H 729.256 -1.52287 -1.36637 0
M  V30 7346 H 729.266 -1.45449 -3.81194 0
M  V30 7347 H 727.941 -2.49876 -3.32468 0
M  V30 7348 H 726.518 -0.698801 -3.66294 0
M  V30 7349 N 728.703 1.26451 -0.940633 0
M  V30 7350 C 729.933 1.97581 -0.603766 0
M  V30 7351 C 730.341 1.70246 0.825395 0
M  V30 7352 O 729.684 0.967001 1.56188 0
M  V30 7353 C 729.746 3.51256 -0.765463 0
M  V30 7354 C 729.41 4.0224 -2.16915 0
M  V30 7355 C 730.407 4.1402 -3.14457 0
M  V30 7356 C 728.092 4.36263 -2.48958 0
M  V30 7357 C 730.086 4.59117 -4.42143 0
M  V30 7358 C 727.773 4.81048 -3.76877 0
M  V30 7359 C 728.771 4.92436 -4.73282 0
M  V30 7360 O 728.459 5.36234 -5.98923 0
M  V30 7361 H 728.191 0.636948 -0.226436 0
M  V30 7362 H 730.745 1.61941 -1.2635 0
M  V30 7363 H 728.975 3.86669 -0.0485956 0
M  V30 7364 H 730.664 4.03597 -0.431738 0
M  V30 7365 H 731.43 3.87981 -2.91026 0
M  V30 7366 H 727.309 4.26634 -1.74656 0
M  V30 7367 H 730.853 4.6792 -5.17394 0
M  V30 7368 H 726.75 5.06531 -4.00121 0
M  V30 7369 H 727.518 5.54456 -6.02097 0
M  V30 7370 N 730.181 0.707592 1.40822 0
M  V30 7371 C 731.429 0.243189 2.00632 0
M  V30 7372 C 731.75 -1.16512 1.56365 0
M  V30 7373 O 731.02 -1.78841 0.799553 0
M  V30 7374 H 729.6 0.0869203 0.741926 0
M  V30 7375 H 732.262 0.911438 1.72275 0
M  V30 7376 H 731.358 0.270014 3.1093 0
M  V30 7377 N 731.66 -1.50943 0.453197 0
M  V30 7378 C 732.57 -2.31884 -0.355963 0
M  V30 7379 C 733.586 -1.41481 -1.01287 0
M  V30 7380 O 734.762 -1.74546 -1.00477 0
M  V30 7381 C 731.827 -3.15668 -1.43369 0
M  V30 7382 C 730.888 -4.2187 -0.795253 0
M  V30 7383 C 730.121 -5.0165 -1.82162 0
M  V30 7384 O 730.344 -4.82266 -3.04592 0
M  V30 7385 O 729.278 -5.85311 -1.40336 0
M  V30 7386 H 733.104 -3.02162 0.305248 0
M  V30 7387 H 730.689 -1.47839 0.215398 0
M  V30 7388 H 732.571 -3.67709 -2.05836 0
M  V30 7389 H 731.246 -2.48137 -2.07869 0
M  V30 7390 H 730.153 -3.73867 -0.132106 0
M  V30 7391 H 731.486 -4.9182 -0.193484 0
M  V30 7392 N 733.138 -0.185124 -1.56509 0
M  V30 7393 C 734.415 0.503348 -1.89013 0
M  V30 7394 C 734.795 1.80349 -1.09715 0
M  V30 7395 O 734.143 2.27665 -0.195203 0
M  V30 7396 C 734.353 0.731839 -3.41241 0
M  V30 7397 C 735.701 1.05568 -4.11267 0
M  V30 7398 O 736.725 0.819906 -3.46635 0
M  V30 7399 O 735.584 1.50116 -5.25478 0
M  V30 7400 H 732.678 0.261139 -0.784688 0
M  V30 7401 H 735.224 -0.224592 -1.68207 0
M  V30 7402 H 733.996 -0.18672 -3.90854 0
M  V30 7403 H 733.619 1.5126 -3.67704 0
M  V30 7404 N 734.616 1.57351 0.0885366 0
M  V30 7405 C 735.546 2.05561 1.10757 0
M  V30 7406 C 736.527 0.945789 1.41382 0
M  V30 7407 O 737.712 1.21747 1.51299 0
M  V30 7408 C 734.842 2.48554 2.42566 0
M  V30 7409 C 733.796 3.63259 2.26334 0
M  V30 7410 C 733.122 3.9225 3.63378 0
M  V30 7411 C 734.422 4.93913 1.69844 0
M  V30 7412 H 736.116 2.90946 0.706468 0
M  V30 7413 H 733.662 1.39968 0.338385 0
M  V30 7414 H 735.615 2.8089 3.14132 0
M  V30 7415 H 734.339 1.60176 2.84625 0
M  V30 7416 H 732.998 3.31179 1.57213 0
M  V30 7417 H 732.646 3.0103 4.02976 0
M  V30 7418 H 732.346 4.69478 3.53362 0
M  V30 7419 H 733.87 4.27067 4.36401 0
M  V30 7420 H 735.284 5.24588 2.31258 0
M  V30 7421 H 733.681 5.75349 1.70569 0
M  V30 7422 H 734.751 4.80409 0.65843 0
M  V30 7423 N 736.094 -0.359525 1.53444 0
M  V30 7424 C 737.026 -1.46098 1.76602 0
M  V30 7425 C 738.039 -1.49395 0.646912 0
M  V30 7426 O 739.228 -1.52765 0.923307 0
M  V30 7427 C 736.328 -2.84836 1.83635 0
M  V30 7428 C 735.501 -3.05164 3.13358 0
M  V30 7429 C 734.56 -4.24051 3.11556 0
M  V30 7430 O 733.586 -4.18935 3.85334 0
M  V30 7431 N 734.788 -5.31775 2.328 0
M  V30 7432 H 737.553 -1.2661 2.71643 0
M  V30 7433 H 735.114 -0.549294 1.52297 0
M  V30 7434 H 737.106 -3.62516 1.799 0
M  V30 7435 H 735.676 -2.97542 0.958509 0
M  V30 7436 H 734.896 -2.15091 3.30348 0
M  V30 7437 H 736.184 -3.15619 3.99076 0
M  V30 7438 H 735.582 -5.38796 1.7238 0
M  V30 7439 H 734.139 -6.0801 2.34877 0
M  V30 7440 N 737.572 -1.44907 -0.619662 0
M  V30 7441 C 738.505 -1.47133 -1.74434 0
M  V30 7442 C 739.483 -0.328933 -1.59238 0
M  V30 7443 O 740.667 -0.527632 -1.80965 0
M  V30 7444 C 737.794 -1.31491 -3.12134 0
M  V30 7445 C 736.84 -2.49441 -3.4595 0
M  V30 7446 S 737.673 -4.11945 -3.42142 0
M  V30 7447 C 738.829 -3.98747 -4.82443 0
M  V30 7448 H 739.062 -2.42295 -1.7228 0
M  V30 7449 H 736.595 -1.32343 -0.795276 0
M  V30 7450 H 738.553 -1.23153 -3.91591 0
M  V30 7451 H 737.214 -0.378203 -3.11815 0
M  V30 7452 H 736.407 -2.3439 -4.46181 0
M  V30 7453 H 736.009 -2.54577 -2.73982 0
M  V30 7454 H 738.301 -3.63145 -5.71954 0
M  V30 7455 H 739.244 -4.98848 -5.0255 0
M  V30 7456 H 739.652 -3.30608 -4.57557 0
M  V30 7457 N 739.05 0.861098 -1.31996 0
M  V30 7458 C 740.327 1.59788 -1.12814 0
M  V30 7459 C 740.707 2.08753 0.313882 0
M  V30 7460 O 740.055 1.87258 1.30946 0
M  V30 7461 C 740.265 2.74901 -2.15012 0
M  V30 7462 C 741.613 3.44643 -2.48004 0
M  V30 7463 O 742.637 2.85119 -2.13508 0
M  V30 7464 O 741.496 4.52044 -3.07113 0
M  V30 7465 H 738.59 0.703408 -0.434909 0
M  V30 7466 H 741.136 0.905788 -1.43505 0
M  V30 7467 H 739.908 2.36198 -3.11971 0
M  V30 7468 H 739.531 3.51792 -1.85279 0
M  V30 7469 N 740.528 1.15101 1.07655 0
M  V30 7470 C 741.774 0.935313 1.8062 0
M  V30 7471 C 742.129 -0.532052 1.84897 0
M  V30 7472 O 741.422 -1.3893 1.31943 0
M  V30 7473 C 741.616 1.47954 3.25337 0
M  V30 7474 C 741.445 2.99829 3.35161 0
M  V30 7475 C 740.215 3.68348 3.45902 0
M  V30 7476 C 742.413 3.97638 3.26173 0
M  V30 7477 N 740.395 5.08062 3.44596 0
M  V30 7478 C 741.766 5.23651 3.31949 0
M  V30 7479 C 743.821 3.89651 3.09962 0
M  V30 7480 C 742.524 6.42609 3.23182 0
M  V30 7481 C 744.55 5.08164 3.02528 0
M  V30 7482 C 743.912 6.3305 3.08913 0
M  V30 7483 H 740.011 0.395876 0.674393 0
M  V30 7484 H 742.595 1.4625 1.28526 0
M  V30 7485 H 740.766 0.979022 3.75859 0
M  V30 7486 H 742.498 1.20298 3.86407 0
M  V30 7487 H 739.253 3.18928 3.50117 0
M  V30 7488 H 739.677 5.81023 3.47479 0
M  V30 7489 H 744.319 2.93966 3.03881 0
M  V30 7490 H 742.037 7.38531 3.28022 0
M  V30 7491 H 745.623 5.03742 2.91093 0
M  V30 7492 H 744.503 7.23214 3.03201 0
M  V30 7493 N 742.006 -1.2595 0.947325 0
M  V30 7494 C 743.283 -1.88676 0.515824 0
M  V30 7495 C 743.663 -1.85547 -1.00675 0
M  V30 7496 O 743.011 -1.31399 -1.8694 0
M  V30 7497 C 743.221 -3.31734 1.08415 0
M  V30 7498 C 744.569 -4.08545 1.15654 0
M  V30 7499 O 745.593 -3.40826 1.03517 0
M  V30 7500 O 744.452 -5.29663 1.34608 0
M  V30 7501 H 741.546 -0.809537 0.169055 0
M  V30 7502 H 744.092 -1.34075 1.04029 0
M  V30 7503 H 742.864 -3.28404 2.1276 0
M  V30 7504 H 742.487 -3.93882 0.542499 0
M  V30 7505 N 743.484 -0.715051 -1.40445 0
M  V30 7506 C 744.732 -0.253826 -2.005 0
M  V30 7507 C 745.053 1.15681 -1.5698 0
M  V30 7508 O 744.323 1.78414 -0.809027 0
M  V30 7509 H 742.903 -0.0908537 -0.741454 0
M  V30 7510 H 745.565 -0.920561 -1.7179 0
M  V30 7511 H 744.661 -0.286499 -3.10782 0
M  V30 7512 N 744.962 1.50701 -0.461195 0
M  V30 7513 C 746.378 1.59187 -0.114786 0
M  V30 7514 C 746.578 1.4702 1.37794 0
M  V30 7515 O 745.634 1.32361 2.15027 0
M  V30 7516 C 746.947 2.93453 -0.656167 0
M  V30 7517 C 748.495 3.06824 -0.618715 0
M  V30 7518 C 748.97 4.4365 -1.13747 0
M  V30 7519 N 750.461 4.50035 -1.09646 0
M  V30 7520 C 751.196 5.54278 -1.46846 0
M  V30 7521 N 750.692 6.65822 -1.91448 0
M  V30 7522 N 752.485 5.44767 -1.38512 0
M  V30 7523 H 744.636 1.56853 -1.43216 0
M  V30 7524 H 746.899 0.740712 -0.59165 0
M  V30 7525 H 746.605 3.07802 -1.7015 0
M  V30 7526 H 746.479 3.77082 -0.0942261 0
M  V30 7527 H 748.866 2.92129 0.417685 0
M  V30 7528 H 748.947 2.24976 -1.21734 0
M  V30 7529 H 748.591 4.59093 -2.17245 0
M  V30 7530 H 748.521 5.24074 -0.515153 0
M  V30 7531 H 751.012 3.69988 -0.769217 0
M  V30 7532 H 751.325 7.41413 -2.18007 0
M  V30 7533 H 749.67 6.66968 -1.95393 0
M  V30 7534 H 752.861 4.56511 -1.03516 0
M  V30 7535 H 753.034 6.25889 -1.6783 0
M  V30 7536 N 746.441 0.193421 1.56409 0
M  V30 7537 C 747.689 -0.444908 1.97142 0
M  V30 7538 C 748.01 -1.62268 1.08139 0
M  V30 7539 O 747.28 -1.95307 0.152326 0
M  V30 7540 H 745.86 -0.16736 0.728011 0
M  V30 7541 H 748.522 0.279763 1.92882 0
M  V30 7542 H 747.618 -0.790159 3.01932 0
M  V30 7543 N 747.919 -1.57396 -0.0801906 0
M  V30 7544 C 749.335 -1.53564 -0.434778 0
M  V30 7545 C 749.535 -0.912372 -1.79661 0
M  V30 7546 O 748.591 -0.511268 -2.4727 0
M  V30 7547 C 749.904 -2.98244 -0.383561 0
M  V30 7548 C 751.452 -3.09536 -0.46435 0
M  V30 7549 C 751.927 -4.55851 -0.443128 0
M  V30 7550 N 753.418 -4.60456 -0.503448 0
M  V30 7551 C 754.153 -5.71135 -0.509106 0
M  V30 7552 N 753.649 -6.91203 -0.47008 0
M  V30 7553 N 755.442 -5.59353 -0.555035 0
M  V30 7554 H 747.593 -1.96281 0.811635 0
M  V30 7555 H 749.856 -0.898041 0.303689 0
M  V30 7556 H 749.562 -3.47369 0.550236 0
M  V30 7557 H 749.436 -3.57705 -1.19694 0
M  V30 7558 H 751.823 -2.6039 -1.38857 0
M  V30 7559 H 751.904 -2.53 0.377445 0
M  V30 7560 H 751.548 -5.05653 0.477207 0
M  V30 7561 H 751.478 -5.10242 -1.30234 0
M  V30 7562 H 753.969 -3.74048 -0.538199 0
M  V30 7563 H 754.282 -7.7132 -0.478091 0
M  V30 7564 H 752.627 -6.93625 -0.436897 0
M  V30 7565 H 755.818 -4.64453 -0.583158 0
M  V30 7566 H 755.991 -6.4561 -0.555976 0
M  V30 7567 N 749.397 0.351382 -1.53633 0
M  V30 7568 C 750.327 1.43688 -1.84055 0
M  V30 7569 C 751.308 1.55251 -0.695073 0
M  V30 7570 O 752.493 1.69587 -0.946257 0
M  V30 7571 C 749.623 2.80843 -2.04315 0
M  V30 7572 C 748.577 2.84094 -3.20117 0
M  V30 7573 C 747.903 4.2406 -3.25696 0
M  V30 7574 C 749.203 2.50334 -4.58399 0
M  V30 7575 H 750.897 1.18478 -2.74961 0
M  V30 7576 H 748.443 0.568509 -1.32303 0
M  V30 7577 H 750.396 3.56821 -2.2418 0
M  V30 7578 H 749.12 3.07471 -1.10132 0
M  V30 7579 H 747.779 2.10568 -3.00094 0
M  V30 7580 H 747.427 4.47785 -2.29123 0
M  V30 7581 H 747.127 4.27147 -4.03509 0
M  V30 7582 H 748.651 5.0189 -3.47762 0
M  V30 7583 H 750.065 3.16025 -4.78332 0
M  V30 7584 H 748.462 2.64717 -5.38558 0
M  V30 7585 H 749.532 1.45542 -4.62543 0
M  V30 7586 N 750.875 1.45233 0.611969 0
M  V30 7587 C 751.805 1.5641 1.73373 0
M  V30 7588 C 752.786 0.415896 1.64937 0
M  V30 7589 O 753.971 0.638478 1.83404 0
M  V30 7590 C 751.101 1.52627 3.11965 0
M  V30 7591 C 750.055 2.66119 3.35208 0
M  V30 7592 C 749.381 2.4739 4.74028 0
M  V30 7593 C 750.681 4.08157 3.25891 0
M  V30 7594 H 752.375 2.50307 1.64277 0
M  V30 7595 H 749.921 1.20467 0.788904 0
M  V30 7596 H 751.874 1.59043 3.90235 0
M  V30 7597 H 750.598 0.552564 3.21892 0
M  V30 7598 H 749.257 2.59123 2.59327 0
M  V30 7599 H 748.905 1.48168 4.80682 0
M  V30 7600 H 748.605 3.23494 4.90536 0
M  V30 7601 H 750.129 2.55653 5.54503 0
M  V30 7602 H 751.543 4.1642 3.9404 0
M  V30 7603 H 749.94 4.84617 3.5393 0
M  V30 7604 H 751.01 4.30374 2.23397 0
M  V30 7605 N 752.353 -0.854086 1.3245 0
M  V30 7606 C 753.599 -1.61069 1.23225 0
M  V30 7607 C 753.932 -1.93111 -0.205349 0
M  V30 7608 O 753.207 -1.57397 -1.14265 0
M  V30 7609 C 753.49 -2.93065 2.09249 0
M  V30 7610 C 753.343 -2.67801 3.6139 0
M  V30 7611 C 754.662 -3.94341 1.95406 0
M  V30 7612 H 751.781 -0.584449 0.448986 0
M  V30 7613 H 754.423 -0.986189 1.62402 0
M  V30 7614 H 752.573 -3.46364 1.75967 0
M  V30 7615 H 754.245 -2.21052 4.04887 0
M  V30 7616 H 752.488 -2.01756 3.84027 0
M  V30 7617 H 753.159 -3.6179 4.16907 0
M  V30 7618 H 755.635 -3.50301 2.24562 0
M  V30 7619 H 754.511 -4.84555 2.57872 0
M  V30 7620 H 754.772 -4.32382 0.921865 0
M  V30 7621 N 753.831 -1.1567 -1.07043 0
M  V30 7622 C 754.778 -0.856336 -2.14326 0
M  V30 7623 C 755.748 0.192051 -1.64986 0
M  V30 7624 O 756.933 0.0589148 -1.90709 0
M  V30 7625 C 754.073 -0.355227 -3.43267 0
M  V30 7626 C 753.186 -1.46555 -4.06381 0
M  V30 7627 C 752.321 -0.920245 -5.23168 0
M  V30 7628 C 751.36 -2.00729 -5.78251 0
M  V30 7629 N 750.497 -1.47813 -6.86364 0
M  V30 7630 H 755.337 -1.77514 -2.39359 0
M  V30 7631 H 752.874 -0.885676 -1.17449 0
M  V30 7632 H 754.832 -0.0463804 -4.17174 0
M  V30 7633 H 753.462 0.526649 -3.18475 0
M  V30 7634 H 752.514 -1.89052 -3.30096 0
M  V30 7635 H 753.826 -2.28616 -4.43324 0
M  V30 7636 H 752.98 -0.564127 -6.04072 0
M  V30 7637 H 751.719 -0.0688477 -4.87651 0
M  V30 7638 H 750.724 -2.3722 -4.95991 0
M  V30 7639 H 751.949 -2.86252 -6.15822 0
M  V30 7640 H 749.895 -0.649145 -6.5278 0
M  V30 7641 H 749.812 -2.23498 -7.22208 0
M  V30 7642 H 751.08 -1.15036 -7.70965 0
M  V30 7643 N 755.309 1.25446 -0.953992 0
M  V30 7644 C 756.239 2.28264 -0.491717 0
M  V30 7645 C 757.22 1.63717 0.461617 0
M  V30 7646 O 758.405 1.90821 0.36071 0
M  V30 7647 C 755.535 3.46525 0.231915 0
M  V30 7648 C 754.489 4.23247 -0.636098 0
M  V30 7649 C 753.815 5.34254 0.218238 0
M  V30 7650 C 755.115 4.85971 -1.91389 0
M  V30 7651 H 756.809 2.67183 -1.35106 0
M  V30 7652 H 754.355 1.2844 -0.651095 0
M  V30 7653 H 756.308 4.17576 0.566439 0
M  V30 7654 H 755.032 3.06594 1.12551 0
M  V30 7655 H 753.691 3.53978 -0.953696 0
M  V30 7656 H 753.339 4.90564 1.11156 0
M  V30 7657 H 753.039 5.86501 -0.359232 0
M  V30 7658 H 754.563 6.08138 0.547743 0
M  V30 7659 H 755.977 5.49168 -1.64581 0
M  V30 7660 H 754.374 5.48391 -2.43696 0
M  V30 7661 H 755.444 4.08192 -2.61738 0
M  V30 7662 N 756.787 0.722489 1.40064 0
M  V30 7663 C 758.012 0.273446 2.05589 0
M  V30 7664 C 758.437 -1.07875 1.54093 0
M  V30 7665 O 757.795 -1.68095 0.679252 0
M  V30 7666 C 757.843 0.271023 3.5958 0
M  V30 7667 O 756.947 -0.745499 4.05606 0
M  V30 7668 H 756.288 0.126856 0.65177 0
M  V30 7669 H 758.818 0.984906 1.79334 0
M  V30 7670 H 758.828 0.111084 4.07849 0
M  V30 7671 H 757.503 1.25776 3.96425 0
M  V30 7672 H 756.08 -0.552719 3.68781 0
M  V30 7673 N 758.265 -1.50454 0.469181 0
M  V30 7674 C 759.676 -1.86695 0.0136034 0
M  V30 7675 C 760.027 -1.38413 -1.39055 0
M  V30 7676 O 759.152 -0.748294 -2.03051 0
M  V30 7677 C 759.747 -3.38795 0.0179098 0
M  V30 7678 C 758.306 -3.74455 -0.382191 0
M  V30 7679 C 757.453 -2.74338 0.404207 0
M  V30 7680 H 760.404 -1.43225 0.683547 0
M  V30 7681 H 760.425 -3.72321 -0.78468 0
M  V30 7682 H 759.937 -3.73906 1.04 0
M  V30 7683 H 758.038 -3.44944 -1.4087 0
M  V30 7684 H 758.151 -4.79025 -0.084862 0
M  V30 7685 H 756.515 -2.54305 -0.141829 0
M  V30 7686 H 757.298 -3.12293 1.42577 0
M  V30 7687 N 759.743 -0.201713 -1.56304 0
M  V30 7688 C 760.989 0.435952 -1.98059 0
M  V30 7689 C 761.322 1.60811 -1.08873 0
M  V30 7690 O 760.597 1.9398 -0.142128 0
M  V30 7691 C 760.88 0.889706 -3.48936 0
M  V30 7692 C 760.733 -0.284725 -4.48898 0
M  V30 7693 C 762.052 1.7529 -4.03685 0
M  V30 7694 H 759.171 0.15699 -0.720085 0
M  V30 7695 H 761.813 -0.293965 -1.87712 0
M  V30 7696 H 759.963 1.51166 -3.57884 0
M  V30 7697 H 761.635 -0.922531 -4.51981 0
M  V30 7698 H 759.878 -0.935427 -4.23594 0
M  V30 7699 H 760.549 0.0753865 -5.51949 0
M  V30 7700 H 763.025 1.2283 -3.97558 0
M  V30 7701 H 761.901 2.03933 -5.0961 0
M  V30 7702 H 762.162 2.70939 -3.49348 0
M  V30 7703 N 761.222 1.57436 0.0718424 0
M  V30 7704 C 762.452 1.91196 0.782795 0
M  V30 7705 C 762.86 0.795927 1.71644 0
M  V30 7706 O 762.203 -0.239604 1.82131 0
M  V30 7707 C 762.265 3.20421 1.63005 0
M  V30 7708 C 761.929 4.48724 0.865782 0
M  V30 7709 C 762.926 5.19571 0.185051 0
M  V30 7710 C 760.611 4.95345 0.832971 0
M  V30 7711 C 762.605 6.3529 -0.518264 0
M  V30 7712 C 760.292 6.1097 0.125884 0
M  V30 7713 C 761.29 6.80794 -0.548533 0
M  V30 7714 O 760.978 7.94213 -1.24423 0
M  V30 7715 H 760.71 0.636486 0.227731 0
M  V30 7716 H 763.264 2.05348 0.0464187 0
M  V30 7717 H 761.494 3.02478 2.40923 0
M  V30 7718 H 763.183 3.39831 2.21968 0
M  V30 7719 H 763.949 4.8458 0.201707 0
M  V30 7720 H 759.828 4.40871 1.34737 0
M  V30 7721 H 763.372 6.89725 -1.04523 0
M  V30 7722 H 759.269 6.45411 0.107155 0
M  V30 7723 H 760.037 8.10331 -1.1535 0
M  V30 7724 N 762.7 -0.34323 1.53817 0
M  V30 7725 C 763.663 -1.40444 1.8113 0
M  V30 7726 C 764.663 -1.45604 0.682366 0
M  V30 7727 O 765.853 -1.45974 0.950649 0
M  V30 7728 C 762.985 -2.79369 1.95361 0
M  V30 7729 H 764.178 -1.17489 2.75928 0
M  V30 7730 H 761.731 -0.577636 1.45234 0
M  V30 7731 H 762.466 -3.07607 1.02707 0
M  V30 7732 H 762.251 -2.7702 2.77493 0
M  V30 7733 H 763.741 -3.56178 2.18008 0
M  V30 7734 N 764.178 -1.45556 -0.604258 0
M  V30 7735 C 765.426 -1.4945 -1.36048 0
M  V30 7736 C 765.747 -0.138933 -1.94504 0
M  V30 7737 O 765.017 0.832097 -1.7735 0
M  V30 7738 H 763.597 -0.550381 -0.505064 0
M  V30 7739 H 766.259 -1.81535 -0.709308 0
M  V30 7740 H 765.355 -2.23519 -2.17821 0
M  V30 7741 N 765.656 0.84705 -1.32902 0
M  V30 7742 C 766.603 1.95624 -1.22473 0
M  V30 7743 C 767.573 1.65767 -0.105178 0
M  V30 7744 O 768.758 1.88704 -0.282042 0
M  V30 7745 C 765.898 3.31434 -0.961542 0
M  V30 7746 C 765.011 3.73741 -2.1666 0
M  V30 7747 C 764.146 4.98379 -1.83825 0
M  V30 7748 C 763.185 5.33199 -3.00609 0
M  V30 7749 N 762.322 6.49014 -2.67816 0
M  V30 7750 H 767.162 2.03875 -2.17345 0
M  V30 7751 H 764.699 0.997764 -1.08088 0
M  V30 7752 H 766.657 4.09663 -0.789411 0
M  V30 7753 H 765.287 3.22762 -0.0495938 0
M  V30 7754 H 764.339 2.91102 -2.44875 0
M  V30 7755 H 765.651 3.95462 -3.03993 0
M  V30 7756 H 764.805 5.84336 -1.63208 0
M  V30 7757 H 763.544 4.78611 -0.937172 0
M  V30 7758 H 762.549 4.4575 -3.21849 0
M  V30 7759 H 763.774 5.5492 -3.9146 0
M  V30 7760 H 761.72 6.30748 -1.80258 0
M  V30 7761 H 761.637 6.7079 -3.48679 0
M  V30 7762 H 762.905 7.38103 -2.50647 0
M  V30 7763 N 767.134 1.16236 1.06428 0
M  V30 7764 C 768.362 0.967184 1.82902 0
M  V30 7765 C 768.777 -0.484601 1.82475 0
M  V30 7766 O 768.134 -1.33631 1.24294 0
M  V30 7767 C 768.185 1.48534 3.29576 0
M  V30 7768 O 767.906 2.88026 3.3011 0
M  V30 7769 C 769.407 1.33298 4.22784 0
M  V30 7770 H 766.627 0.342923 0.576754 0
M  V30 7771 H 769.171 1.54232 1.34286 0
M  V30 7772 H 767.326 0.952513 3.75508 0
M  V30 7773 H 767.74 3.11721 4.21818 0
M  V30 7774 H 769.214 1.74385 5.23731 0
M  V30 7775 H 769.691 0.278356 4.38317 0
M  V30 7776 H 770.297 1.85535 3.82697 0
M  V30 7777 N 768.612 -1.24939 0.960631 0
M  V30 7778 C 769.852 -1.94565 0.626414 0
M  V30 7779 C 770.216 -1.73505 -0.822184 0
M  V30 7780 O 771.417 -2.37105 -1.26628 0
M  V30 7781 C 769.688 -3.43631 0.982462 0
M  V30 7782 S 771.247 -4.32138 0.761726 0
M  V30 7783 H 768.065 -0.672757 0.230043 0
M  V30 7784 H 770.667 -1.51464 1.23608 0
M  V30 7785 H 769.371 -3.56463 2.03377 0
M  V30 7786 H 768.902 -3.91719 0.363286 0
M  V30 7787 H 770.917 -4.94859 -0.364493 0
M  V30 7788 N 770.09 -0.729906 -1.39679 0
M  V30 7789 C 771.338 -0.275077 -2.00219 0
M  V30 7790 C 771.659 1.1401 -1.58199 0
M  V30 7791 O 770.929 1.77546 -0.827904 0
M  V30 7792 H 769.509 -0.0987127 -0.740449 0
M  V30 7793 H 772.171 -0.93873 -1.70804 0
M  V30 7794 H 771.267 -0.319446 -3.10461 0
M  V30 7795 N 771.568 1.50203 -0.477153 0
M  V30 7796 C 772.498 2.31517 0.303646 0
M  V30 7797 C 773.479 1.38696 0.984753 0
M  V30 7798 O 774.664 1.67615 0.980758 0
M  V30 7799 C 771.794 3.18598 1.38249 0
M  V30 7800 C 770.748 4.2002 0.822645 0
M  V30 7801 C 770.074 4.95878 2.00024 0
M  V30 7802 C 771.374 5.22023 -0.170185 0
M  V30 7803 H 773.068 2.97042 -0.375027 0
M  V30 7804 H 770.614 1.42848 -0.181802 0
M  V30 7805 H 772.567 3.74282 1.93625 0
M  V30 7806 H 771.291 2.5097 2.09002 0
M  V30 7807 H 769.95 3.65445 0.290813 0
M  V30 7808 H 769.598 4.24717 2.69489 0
M  V30 7809 H 769.298 5.64487 1.63183 0
M  V30 7810 H 770.822 5.54399 2.55878 0
M  V30 7811 H 772.236 5.72543 0.294606 0
M  V30 7812 H 770.633 5.98386 -0.453181 0
M  V30 7813 H 771.703 4.72396 -1.09408 0
M  V30 7814 N 773.046 0.209999 1.56195 0
M  V30 7815 C 774.286 -0.4268 1.99894 0
M  V30 7816 C 774.65 -1.57763 1.0943 0
M  V30 7817 O 775.851 -2.27964 1.42428 0
M  V30 7818 C 774.122 -0.861188 3.46869 0
M  V30 7819 S 775.681 -1.49372 4.12593 0
M  V30 7820 H 772.499 -0.135922 0.697887 0
M  V30 7821 H 775.101 0.316573 1.9292 0
M  V30 7822 H 773.805 -0.0137653 4.10398 0
M  V30 7823 H 773.336 -1.63766 3.57693 0
M  V30 7824 H 775.351 -2.7827 4.10829 0
M  V30 7825 N 774.524 -1.57472 -0.0634922 0
M  V30 7826 C 775.772 -1.87283 -0.759563 0
M  V30 7827 C 776.093 -0.803135 -1.77693 0
M  V30 7828 O 775.363 0.167293 -1.95184 0
M  V30 7829 H 773.943 -0.691106 -0.283516 0
M  V30 7830 H 776.605 -1.94864 -0.0376091 0
M  V30 7831 H 775.701 -2.85064 -1.27062 0
M  V30 7832 N 776.003 0.335068 -1.53997 0
M  V30 7833 C 776.951 1.43206 -1.83289 0
M  V30 7834 C 777.945 1.54081 -0.703953 0
M  V30 7835 O 779.151 1.56603 -0.887432 0
M  V30 7836 H 775.526 0.477655 -0.580818 0
M  V30 7837 H 777.497 1.15719 -2.75049 0
M  V30 7838 C 776.246 2.79602 -2.06683 0
M  V30 7839 H 775.569 2.72004 -2.93008 0
M  V30 7840 H 777.009 3.55459 -2.31139 0
M  V30 7841 C 775.468 3.25873 -0.854883 0
M  V30 7842 O 775.998 4.01657 -0.0584648 0
M  V30 7843 N 774.204 2.82777 -0.669729 0
M  V30 7844 H 773.751 2.21269 -1.31901 0
M  V30 7845 H 773.709 3.1409 0.13969 0
M  V30 7846 N 777.481 1.45874 0.596531 0
M  V30 7847 C 778.711 1.5379 1.37958 0
M  V30 7848 C 779.119 0.173086 1.88407 0
M  V30 7849 O 778.462 -0.837498 1.63498 0
M  V30 7850 C 778.524 2.47044 2.61169 0
M  V30 7851 C 778.188 3.93565 2.32283 0
M  V30 7852 C 779.185 4.83162 1.91965 0
M  V30 7853 C 776.87 4.38579 2.44854 0
M  V30 7854 C 778.864 6.15782 1.64593 0
M  V30 7855 C 776.551 5.71238 2.17095 0
M  V30 7856 C 777.549 6.59659 1.77028 0
M  V30 7857 O 777.237 7.89857 1.49601 0
M  V30 7858 H 776.969 0.523 0.428307 0
M  V30 7859 H 779.523 1.91855 0.733529 0
M  V30 7860 H 777.753 2.0397 3.28532 0
M  V30 7861 H 779.442 2.4552 3.23226 0
M  V30 7862 H 780.208 4.49646 1.8178 0
M  V30 7863 H 776.087 3.6999 2.75006 0
M  V30 7864 H 779.631 6.84757 1.33245 0
M  V30 7865 H 775.528 6.04306 2.26901 0
M  V30 7866 H 776.296 8.01991 1.63561 0
M  V30 7867 N 778.959 -0.83999 1.33349 0
M  V30 7868 C 779.907 -1.97113 1.23488 0
M  V30 7869 C 780.901 -1.68849 0.136503 0
M  V30 7870 O 782.107 -1.77476 0.300389 0
M  V30 7871 H 778.482 -0.647049 0.383185 0
M  V30 7872 H 780.453 -2.02554 2.19122 0
M  V30 7873 C 779.202 -3.33314 0.989815 0
M  V30 7874 H 778.525 -3.556 1.82726 0
M  V30 7875 H 779.965 -4.12963 0.961123 0
M  V30 7876 C 778.424 -3.35496 -0.307272 0
M  V30 7877 O 778.954 -3.79589 -1.31434 0
M  V30 7878 N 777.16 -2.88669 -0.334414 0
M  V30 7879 H 776.707 -2.5298 0.485659 0
M  V30 7880 H 776.665 -2.90512 -1.20209 0
M  V30 7881 N 780.437 -1.16799 -1.0581 0
M  V30 7882 C 781.685 -0.950642 -1.78346 0
M  V30 7883 C 782.006 0.522524 -1.87869 0
M  V30 7884 O 781.276 1.3795 -1.39092 0
M  V30 7885 H 779.856 -0.348736 -0.6606 0
M  V30 7886 H 782.518 -1.47158 -1.27791 0
M  V30 7887 H 781.614 -1.37359 -2.80248 0
M  V30 7888 N 781.915 1.24427 -0.967243 0
M  V30 7889 C 782.863 2.27403 -0.488927 0
M  V30 7890 C 783.857 1.63388 0.447302 0
M  V30 7891 O 785.063 1.77085 0.322643 0
M  V30 7892 H 781.438 0.738921 -0.139643 0
M  V30 7893 H 783.409 2.65122 -1.36942 0
M  V30 7894 C 782.158 3.4709 0.205787 0
M  V30 7895 H 781.481 3.96591 -0.50551 0
M  V30 7896 H 782.921 4.2099 0.504296 0
M  V30 7897 C 781.38 3.04923 1.43261 0
M  V30 7898 O 781.91 3.12043 2.52967 0
M  V30 7899 N 780.116 2.59976 1.29849 0
M  V30 7900 H 779.663 2.54382 0.405876 0
M  V30 7901 H 779.621 2.32128 2.12047 0
M  V30 7902 N 783.393 0.737304 1.3929 0
M  V30 7903 C 784.325 0.0592106 2.29124 0
M  V30 7904 C 785.338 -0.701026 1.46934 0
M  V30 7905 O 786.527 -0.544808 1.69983 0
M  V30 7906 C 783.627 -0.940358 3.25592 0
M  V30 7907 C 782.8 -0.241163 4.36735 0
M  V30 7908 C 781.859 -1.14916 5.13498 0
M  V30 7909 O 780.885 -0.625783 5.6575 0
M  V30 7910 N 782.087 -2.47869 5.2492 0
M  V30 7911 H 784.852 0.830647 2.87959 0
M  V30 7912 H 782.413 0.586718 1.50895 0
M  V30 7913 H 784.405 -1.55046 3.73822 0
M  V30 7914 H 782.975 -1.61299 2.67771 0
M  V30 7915 H 782.195 0.549441 3.90352 0
M  V30 7916 H 783.483 0.243299 5.08218 0
M  V30 7917 H 782.881 -2.92864 4.83991 0
M  V30 7918 H 781.438 -3.03969 5.76581 0
M  V30 7919 N 784.871 -1.49948 0.485112 0
M  V30 7920 C 786.119 -2.01996 -0.0648775 0
M  V30 7921 C 786.44 -1.36819 -1.38945 0
M  V30 7922 O 785.71 -0.518163 -1.88923 0
M  V30 7923 H 784.29 -0.746513 -0.0269662 0
M  V30 7924 H 786.952 -1.84136 0.638733 0
M  V30 7925 H 786.048 -3.11418 -0.20617 0
M  V30 7926 N 786.349 -0.21828 -1.56081 0
M  V30 7927 C 787.626 0.463143 -1.90038 0
M  V30 7928 C 788.006 1.77982 -1.13515 0
M  V30 7929 O 787.354 2.27199 -0.24345 0
M  V30 7930 C 787.564 0.659292 -3.42716 0
M  V30 7931 C 788.912 0.968203 -4.13414 0
M  V30 7932 O 789.936 0.746195 -3.48296 0
M  V30 7933 O 788.795 1.38936 -5.28544 0
M  V30 7934 H 785.889 0.244435 -0.790051 0
M  V30 7935 H 788.435 -0.260221 -1.67693 0
M  V30 7936 H 787.207 -0.269584 -3.9037 0
M  V30 7937 H 786.83 1.43426 -3.7083 0
M  V30 7938 N 787.827 1.57504 0.0551401 0
M  V30 7939 C 789.104 1.79155 0.785048 0
M  V30 7940 C 789.484 0.809995 1.94942 0
M  V30 7941 O 788.832 -0.153432 2.27984 0
M  V30 7942 C 789.042 3.26134 1.24247 0
M  V30 7943 C 790.39 3.90419 1.66908 0
M  V30 7944 O 791.414 3.30126 1.33772 0
M  V30 7945 O 790.273 4.96523 2.28314 0
M  V30 7946 H 787.367 0.735825 0.377479 0
M  V30 7947 H 789.913 1.69666 0.0339285 0
M  V30 7948 H 788.685 3.89145 0.410089 0
M  V30 7949 H 788.308 3.40411 2.05441 0
M  V30 7950 N 789.305 -0.326896 1.54172 0
M  V30 7951 C 790.552 -1.06523 1.72218 0
M  V30 7952 C 790.88 -1.88119 0.494114 0
M  V30 7953 O 790.135 -1.8855 -0.524147 0
M  V30 7954 C 790.434 -2.0208 2.94785 0
M  V30 7955 C 790.1 -1.36665 4.2969 0
M  V30 7956 C 788.762 -1.18556 4.66367 0
M  V30 7957 C 791.114 -0.896868 5.13425 0
M  V30 7958 C 788.442 -0.521113 5.84381 0
M  V30 7959 C 790.794 -0.246261 6.3212 0
M  V30 7960 C 789.458 -0.052987 6.67479 0
M  V30 7961 H 788.728 -0.389796 0.63019 0
M  V30 7962 H 791.375 -0.342725 1.88408 0
M  V30 7963 H 789.68 -2.8077 2.73268 0
M  V30 7964 H 791.377 -2.59231 3.05941 0
M  V30 7965 H 787.967 -1.51762 4.00832 0
M  V30 7966 H 792.151 -1.02458 4.85609 0
M  V30 7967 H 787.407 -0.36014 6.10338 0
M  V30 7968 H 791.581 0.125775 6.96286 0
M  V30 7969 H 789.208 0.463903 7.58783 0
M  V30 7970 N 790.784 -1.46188 -0.588786 0
M  V30 7971 C 791.714 -1.59148 -1.70863 0
M  V30 7972 C 792.695 -0.442083 -1.64255 0
M  V30 7973 O 793.88 -0.667575 -1.82365 0
M  V30 7974 C 791.01 -1.5757 -3.09498 0
M  V30 7975 C 789.964 -2.71418 -3.30932 0
M  V30 7976 C 789.29 -2.549 -4.70032 0
M  V30 7977 C 790.59 -4.1329 -3.19356 0
M  V30 7978 H 792.284 -2.52889 -1.60274 0
M  V30 7979 H 789.83 -1.21707 -0.769638 0
M  V30 7980 H 791.783 -1.65231 -3.87655 0
M  V30 7981 H 790.507 -0.603705 -3.20972 0
M  V30 7982 H 789.166 -2.63216 -2.55172 0
M  V30 7983 H 788.814 -1.55797 -4.78264 0
M  V30 7984 H 788.514 -3.31257 -4.85327 0
M  V30 7985 H 790.038 -2.64443 -5.50366 0
M  V30 7986 H 791.452 -4.22636 -3.87365 0
M  V30 7987 H 789.849 -4.90187 -3.46175 0
M  V30 7988 H 790.919 -4.33874 -2.16522 0
M  V30 7989 N 792.262 0.832906 -1.33792 0
M  V30 7990 C 793.49 1.62048 -1.28639 0
M  V30 7991 C 793.905 1.88269 0.141522 0
M  V30 7992 O 793.262 1.46706 1.08553 0
M  V30 7993 C 793.313 2.96722 -2.0649 0
M  V30 7994 O 793.034 2.7165 -3.43712 0
M  V30 7995 C 794.535 3.91144 -2.08617 0
M  V30 7996 H 791.755 0.504032 -0.442937 0
M  V30 7997 H 794.299 1.03704 -1.76255 0
M  V30 7998 H 792.454 3.51652 -1.62541 0
M  V30 7999 H 792.868 3.57453 -3.83833 0
M  V30 8000 H 794.342 4.82837 -2.67531 0
M  V30 8001 H 794.819 4.25766 -1.07796 0
M  V30 8002 H 795.425 3.42152 -2.52611 0
M  V30 8003 N 793.74 1.17359 1.05189 0
M  V30 8004 C 795.151 0.96793 1.5965 0
M  V30 8005 C 795.502 -0.485355 1.90102 0
M  V30 8006 O 794.627 -1.36066 1.6827 0
M  V30 8007 C 795.222 1.75068 2.90063 0
M  V30 8008 C 793.781 1.58969 3.41183 0
M  V30 8009 C 792.928 1.75231 2.14917 0
M  V30 8010 H 795.879 1.32067 0.880001 0
M  V30 8011 H 795.9 1.23308 3.59966 0
M  V30 8012 H 795.412 2.80835 2.67868 0
M  V30 8013 H 793.513 0.556906 3.68415 0
M  V30 8014 H 793.626 2.38067 4.15766 0
M  V30 8015 H 791.99 1.18073 2.25679 0
M  V30 8016 H 792.773 2.8241 1.95191 0
M  V30 8017 N 795.218 -1.23913 0.973828 0
M  V30 8018 C 796.443 -1.96735 0.656511 0
M  V30 8019 C 796.868 -1.71682 -0.768571 0
M  V30 8020 O 796.226 -0.984267 -1.52256 0
M  V30 8021 C 796.274 -3.48004 0.944735 0
M  V30 8022 O 795.378 -4.12387 0.0333357 0
M  V30 8023 H 794.719 -0.616119 0.247575 0
M  V30 8024 H 797.249 -1.57525 1.30564 0
M  V30 8025 H 797.259 -3.98424 0.87876 0
M  V30 8026 H 795.934 -3.65567 1.98328 0
M  V30 8027 H 794.511 -3.72585 0.153157 0
M  V30 8028 N 796.696 -0.74468 -1.38897 0
M  V30 8029 C 797.944 -0.296298 -1.99916 0
M  V30 8030 C 798.265 1.12325 -1.59399 0
M  V30 8031 O 797.535 1.76658 -0.846689 0
M  V30 8032 H 796.115 -0.106561 -0.73936 0
M  V30 8033 H 798.777 -0.956793 -1.69798 0
M  V30 8034 H 797.873 -0.352356 -3.10105 0
M  V30 8035 N 798.174 1.49689 -0.493057 0
M  V30 8036 C 799.104 2.31826 0.279073 0
M  V30 8037 C 800.085 1.39733 0.969987 0
M  V30 8038 O 801.27 1.68646 0.962925 0
M  V30 8039 C 798.4 3.20046 1.34862 0
M  V30 8040 C 797.354 4.20869 0.77805 0
M  V30 8041 C 796.68 4.97971 1.94753 0
M  V30 8042 C 797.98 5.21813 -0.225543 0
M  V30 8043 H 799.674 2.96627 -0.406512 0
M  V30 8044 H 797.22 1.42647 -0.196943 0
M  V30 8045 H 799.173 3.76315 1.89645 0
M  V30 8046 H 797.897 2.53172 2.06328 0
M  V30 8047 H 796.556 3.65733 0.252036 0
M  V30 8048 H 796.204 4.27552 2.64969 0
M  V30 8049 H 795.904 5.66186 1.57187 0
M  V30 8050 H 797.428 5.57082 2.49984 0
M  V30 8051 H 798.842 5.72823 0.233864 0
M  V30 8052 H 797.239 5.97872 -0.516622 0
M  V30 8053 H 798.309 4.71209 -1.14412 0
M  V30 8054 N 799.652 0.226554 1.55963 0
M  V30 8055 C 800.615 -0.668015 2.19249 0
M  V30 8056 C 801.615 -1.11794 1.1558 0
M  V30 8057 O 802.805 -1.02593 1.40784 0
M  V30 8058 C 799.937 -1.91571 2.81981 0
M  V30 8059 H 801.13 -0.116175 2.99675 0
M  V30 8060 H 798.683 -0.0230497 1.56283 0
M  V30 8061 H 799.418 -2.50929 2.05439 0
M  V30 8062 H 799.203 -1.6015 3.57903 0
M  V30 8063 H 800.693 -2.55294 3.30477 0
M  V30 8064 N 801.13 -1.57531 -0.0467866 0
M  V30 8065 C 802.04 -2.08768 -1.07018 0
M  V30 8066 C 803.056 -1.02245 -1.40791 0
M  V30 8067 O 804.232 -1.33873 -1.50466 0
M  V30 8068 C 801.297 -2.54221 -2.35738 0
M  V30 8069 C 800.358 -3.75152 -2.08709 0
M  V30 8070 C 799.591 -4.18428 -3.31291 0
M  V30 8071 O 799.814 -3.61365 -4.4133 0
M  V30 8072 O 798.748 -5.11018 -3.18032 0
M  V30 8073 H 802.574 -2.96334 -0.664812 0
M  V30 8074 H 800.159 -1.47074 -0.262605 0
M  V30 8075 H 802.041 -2.83866 -3.11445 0
M  V30 8076 H 800.716 -1.69774 -2.75605 0
M  V30 8077 H 799.623 -3.50553 -1.30627 0
M  V30 8078 H 800.956 -4.60528 -1.73708 0
M  V30 8079 N 802.608 0.318715 -1.54344 0
M  V30 8080 C 804.019 0.89285 -1.63967 0
M  V30 8081 C 804.37 1.88712 -0.536855 0
M  V30 8082 O 803.495 2.13877 0.329457 0
M  V30 8083 C 804.09 1.62618 -2.97222 0
M  V30 8084 C 802.649 2.14897 -3.09025 0
M  V30 8085 C 801.796 0.975909 -2.5956 0
M  V30 8086 H 804.747 0.0961687 -1.58408 0
M  V30 8087 H 804.768 2.4907 -2.87653 0
M  V30 8088 H 804.28 0.902286 -3.77466 0
M  V30 8089 H 802.381 2.90387 -2.33465 0
M  V30 8090 H 802.494 2.39565 -4.14904 0
M  V30 8091 H 800.858 1.35646 -2.15574 0
M  V30 8092 H 801.641 0.266253 -3.42266 0
M  V30 8093 N 804.086 1.46499 0.581025 0
M  V30 8094 C 805.502 1.31491 0.904563 0
M  V30 8095 C 805.702 0.287598 1.99437 0
M  V30 8096 O 804.758 -0.309247 2.50599 0
M  V30 8097 C 806.071 2.70163 1.32032 0
M  V30 8098 C 807.619 2.78266 1.43308 0
M  V30 8099 C 808.094 4.17524 1.8825 0
M  V30 8100 N 809.585 4.19949 1.9544 0
M  V30 8101 C 810.32 5.24594 2.31493 0
M  V30 8102 N 809.816 6.39564 2.66326 0
M  V30 8103 N 811.609 5.11961 2.32062 0
M  V30 8104 H 803.76 2.11946 -0.138856 0
M  V30 8105 H 806.023 0.948 0.000548528 0
M  V30 8106 H 805.729 3.46655 0.593554 0
M  V30 8107 H 805.603 3.00379 2.2815 0
M  V30 8108 H 807.99 2.02061 2.15071 0
M  V30 8109 H 808.071 2.51732 0.45438 0
M  V30 8110 H 807.715 4.94225 1.17065 0
M  V30 8111 H 807.645 4.41466 2.87081 0
M  V30 8112 H 810.136 3.36996 1.71004 0
M  V30 8113 H 810.449 7.15187 2.92793 0
M  V30 8114 H 808.794 6.42923 2.6396 0
M  V30 8115 H 811.985 4.21177 2.04272 0
M  V30 8116 H 812.158 5.93626 2.5983 0
M  V30 8117 N 805.565 -0.825799 1.34232 0
M  V30 8118 C 806.811 -1.58419 1.26614 0
M  V30 8119 C 807.144 -1.93503 -0.164341 0
M  V30 8120 O 806.419 -1.59785 -1.109 0
M  V30 8121 C 806.702 -2.8856 2.15418 0
M  V30 8122 C 806.555 -2.60075 3.66989 0
M  V30 8123 C 807.874 -3.90107 2.03726 0
M  V30 8124 H 804.993 -0.574794 0.461282 0
M  V30 8125 H 807.635 -0.951519 1.64457 0
M  V30 8126 H 805.785 -3.42553 1.83275 0
M  V30 8127 H 807.457 -2.12414 4.09485 0
M  V30 8128 H 805.7 -1.93565 3.88221 0
M  V30 8129 H 806.371 -3.52866 4.24488 0
M  V30 8130 H 808.847 -3.45459 2.31942 0
M  V30 8131 H 807.723 -4.78976 2.68092 0
M  V30 8132 H 807.984 -4.30329 1.01337 0
M  V30 8133 N 807.043 -1.17915 -1.04565 0
M  V30 8134 C 807.953 -0.916449 -2.15959 0
M  V30 8135 C 808.969 0.117655 -1.73602 0
M  V30 8136 O 810.145 -0.063089 -2.01301 0
M  V30 8137 C 807.21 -0.440262 -3.43893 0
M  V30 8138 C 806.271 -1.54172 -4.00661 0
M  V30 8139 C 805.504 -1.08816 -5.22489 0
M  V30 8140 O 805.727 0.0551547 -5.70373 0
M  V30 8141 O 804.661 -1.88383 -5.7166 0
M  V30 8142 H 808.487 -1.8484 -2.40972 0
M  V30 8143 H 806.072 -0.960552 -1.14428 0
M  V30 8144 H 807.954 -0.182537 -4.21004 0
M  V30 8145 H 806.629 0.46346 -3.20365 0
M  V30 8146 H 805.536 -1.85341 -3.24961 0
M  V30 8147 H 806.869 -2.42139 -4.2852 0
M  V30 8148 N 808.521 1.23394 -0.980386 0
M  V30 8149 C 809.798 1.87242 -0.565667 0
M  V30 8150 C 810.178 1.88151 0.957197 0
M  V30 8151 O 809.526 1.36309 1.8339 0
M  V30 8152 C 809.736 3.28743 -1.17172 0
M  V30 8153 C 811.084 4.05335 -1.26446 0
M  V30 8154 O 812.108 3.37962 -1.12517 0
M  V30 8155 O 810.967 5.25908 -1.48604 0
M  V30 8156 H 808.061 0.80477 -0.190459 0
M  V30 8157 H 810.607 1.3127 -1.07547 0
M  V30 8158 H 809.379 3.22647 -2.21392 0
M  V30 8159 H 809.002 3.92305 -0.646739 0
M  V30 8160 N 809.999 0.752036 1.385 0
M  V30 8161 C 811.246 0.307503 2.00152 0
M  V30 8162 C 811.574 -1.11033 1.59693 0
M  V30 8163 O 810.829 -1.77455 0.825125 0
M  V30 8164 C 811.128 0.376155 3.55415 0
M  V30 8165 C 810.794 1.74942 4.15579 0
M  V30 8166 C 809.456 2.12525 4.31725 0
M  V30 8167 C 811.808 2.65031 4.48785 0
M  V30 8168 C 809.136 3.39671 4.78373 0
M  V30 8169 C 811.488 3.91567 4.96848 0
M  V30 8170 C 810.152 4.2922 5.11201 0
M  V30 8171 H 809.422 0.112523 0.732407 0
M  V30 8172 H 812.069 0.962213 1.65571 0
M  V30 8173 H 810.374 -0.362121 3.90123 0
M  V30 8174 H 812.071 0.0138065 4.00998 0
M  V30 8175 H 808.661 1.44726 4.03426 0
M  V30 8176 H 812.845 2.3726 4.35914 0
M  V30 8177 H 808.101 3.68765 4.8767 0
M  V30 8178 H 812.275 4.61517 5.21512 0
M  V30 8179 H 809.902 5.27805 5.47107 0
M  V30 8180 N 811.477 -1.49425 0.500989 0
M  V30 8181 C 812.725 -2.02053 -0.0434495 0
M  V30 8182 C 813.046 -1.38285 -1.37486 0
M  V30 8183 O 812.316 -0.538171 -1.88363 0
M  V30 8184 H 810.896 -0.746757 -0.0190469 0
M  V30 8185 H 813.558 -1.83449 0.658227 0
M  V30 8186 H 812.654 -3.11619 -0.173129 0
M  V30 8187 N 812.955 -0.234822 -1.55841 0
M  V30 8188 C 813.903 0.686145 -2.22249 0
M  V30 8189 C 814.897 1.18948 -1.20614 0
M  V30 8190 O 816.103 1.14777 -1.38659 0
M  V30 8191 H 812.478 0.239724 -0.712767 0
M  V30 8192 H 814.449 0.102762 -2.98223 0
M  V30 8193 C 813.198 1.8776 -2.92646 0
M  V30 8194 H 812.521 1.49943 -3.70617 0
M  V30 8195 H 813.961 2.4995 -3.42493 0
M  V30 8196 C 812.42 2.74127 -1.95847 0
M  V30 8197 O 812.95 3.7329 -1.48384 0
M  V30 8198 N 811.156 2.4044 -1.63209 0
M  V30 8199 H 810.703 1.59854 -2.02001 0
M  V30 8200 H 810.661 2.98504 -0.987063 0
M  V30 8201 N 814.433 1.57553 0.0384317 0
M  V30 8202 C 815.396 2.04927 1.02653 0
M  V30 8203 C 816.396 0.951768 1.29607 0
M  V30 8204 O 817.586 1.21568 1.24768 0
M  V30 8205 C 814.718 2.45828 2.36181 0
M  V30 8206 H 815.911 2.93474 0.617508 0
M  V30 8207 H 813.464 1.53679 0.285031 0
M  V30 8208 H 814.199 1.60408 2.8185 0
M  V30 8209 H 813.984 3.25945 2.1795 0
M  V30 8210 H 815.474 2.82939 3.0714 0
M  V30 8211 N 815.911 -0.310526 1.54511 0
M  V30 8212 C 817.157 -1.04459 1.74528 0
M  V30 8213 C 817.512 -1.85251 0.519613 0
M  V30 8214 O 816.805 -1.85281 -0.488001 0
M  V30 8215 C 816.999 -1.98942 2.96912 0
M  V30 8216 C 816.828 -1.27442 4.31264 0
M  V30 8217 C 815.598 -1.00552 4.95194 0
M  V30 8218 C 817.796 -0.683695 5.09735 0
M  V30 8219 N 815.778 -0.259797 6.1335 0
M  V30 8220 C 817.149 -0.0702549 6.1996 0
M  V30 8221 C 819.204 -0.587799 4.94418 0
M  V30 8222 C 817.907 0.629791 7.16538 0
M  V30 8223 C 819.933 0.0985719 5.91318 0
M  V30 8224 C 819.295 0.700902 7.00904 0
M  V30 8225 H 815.394 -0.365496 0.69133 0
M  V30 8226 H 817.978 -0.324277 1.91981 0
M  V30 8227 H 816.149 -2.68233 2.80902 0
M  V30 8228 H 817.881 -2.6543 3.05498 0
M  V30 8229 H 814.636 -1.30123 4.55374 0
M  V30 8230 H 815.06 0.099301 6.76927 0
M  V30 8231 H 819.702 -1.03919 4.0983 0
M  V30 8232 H 817.42 1.09298 8.00674 0
M  V30 8233 H 821.006 0.172585 5.81544 0
M  V30 8234 H 819.886 1.22357 7.74596 0
M  V30 8235 N 817.389 -1.46805 -0.573248 0
M  V30 8236 C 818.336 -1.58084 -1.68161 0
M  V30 8237 C 819.306 -0.424636 -1.6058 0
M  V30 8238 O 820.491 -0.642623 -1.79652 0
M  V30 8239 C 817.631 -1.58601 -3.06496 0
M  V30 8240 C 816.744 -2.85023 -3.24632 0
M  V30 8241 C 815.879 -2.76981 -4.53271 0
M  V30 8242 C 814.918 -3.983 -4.64783 0
M  V30 8243 N 814.055 -3.88589 -5.84759 0
M  V30 8244 H 818.895 -2.52755 -1.57858 0
M  V30 8245 H 816.432 -1.25385 -0.769218 0
M  V30 8246 H 818.39 -1.56885 -3.86579 0
M  V30 8247 H 817.02 -0.674553 -3.15673 0
M  V30 8248 H 816.072 -2.96678 -2.38089 0
M  V30 8249 H 817.384 -3.7491 -3.29004 0
M  V30 8250 H 816.538 -2.73424 -5.41594 0
M  V30 8251 H 815.277 -1.84751 -4.51352 0
M  V30 8252 H 814.282 -4.02179 -3.74876 0
M  V30 8253 H 815.507 -4.91639 -4.68474 0
M  V30 8254 H 813.453 -2.99151 -5.83819 0
M  V30 8255 H 813.37 -4.7214 -5.90441 0
M  V30 8256 H 814.638 -3.89022 -6.75486 0
M  V30 8257 N 818.867 0.818669 -1.34668 0
M  V30 8258 C 819.797 1.94468 -1.29245 0
M  V30 8259 C 820.778 1.69257 -0.169101 0
M  V30 8260 O 821.963 1.90794 -0.362143 0
M  V30 8261 C 819.093 3.31001 -1.05145 0
M  V30 8262 C 818.047 3.70663 -2.13992 0
M  V30 8263 C 817.373 5.05226 -1.75074 0
M  V30 8264 C 818.673 3.82312 -3.55858 0
M  V30 8265 H 820.367 1.99263 -2.2346 0
M  V30 8266 H 817.913 0.957304 -1.07572 0
M  V30 8267 H 819.866 4.09364 -0.999949 0
M  V30 8268 H 818.59 3.26517 -0.0737312 0
M  V30 8269 H 817.249 2.94578 -2.18219 0
M  V30 8270 H 816.897 4.97233 -0.759518 0
M  V30 8271 H 816.597 5.32734 -2.47928 0
M  V30 8272 H 818.121 5.86042 -1.71427 0
M  V30 8273 H 819.535 4.50935 -3.5402 0
M  V30 8274 H 817.932 4.21278 -4.2737 0
M  V30 8275 H 819.002 2.84193 -3.9289 0
M  V30 8276 N 820.346 1.18468 1.03938 0
M  V30 8277 C 821.296 0.880799 2.103 0
M  V30 8278 C 822.28 -0.150008 1.60199 0
M  V30 8279 O 823.472 0.054213 1.76917 0
M  V30 8280 C 820.601 0.409723 3.40846 0
M  V30 8281 C 819.687 1.47267 3.9771 0
M  V30 8282 N 820.078 2.68945 4.28371 0
M  V30 8283 C 818.376 1.33349 4.25598 0
M  V30 8284 C 819.077 3.37341 4.73894 0
M  V30 8285 N 818.053 2.64725 4.74786 0
M  V30 8286 H 821.855 1.80574 2.31884 0
M  V30 8287 H 819.369 1.07527 1.21703 0
M  V30 8288 H 821.366 0.17352 4.16539 0
M  V30 8289 H 820.026 -0.508862 3.20688 0
M  V30 8290 H 821.037 3.05801 4.17978 0
M  V30 8291 H 817.714 0.477548 4.1476 0
M  V30 8292 H 819.104 4.41338 5.06627 0
M  V30 8293 N 821.824 -1.22873 0.986916 0
M  V30 8294 C 823.072 -1.91084 0.658121 0
M  V30 8295 C 823.393 -1.77304 -0.811675 0
M  V30 8296 O 822.663 -1.15649 -1.58121 0
M  V30 8297 H 821.243 -0.707251 0.240427 0
M  V30 8298 H 823.905 -1.49357 1.25213 0
M  V30 8299 H 823.001 -2.98373 0.915428 0
M  V30 8300 N 823.302 -0.75937 -1.38099 0
M  V30 8301 C 824.579 -0.243371 -1.9408 0
M  V30 8302 C 824.959 1.25942 -1.69416 0
M  V30 8303 O 824.307 2.03667 -1.03595 0
M  V30 8304 C 824.517 -0.603328 -3.43745 0
M  V30 8305 C 825.865 -0.566195 -4.20808 0
M  V30 8306 O 826.889 -0.541969 -3.52053 0
M  V30 8307 O 825.748 -0.582261 -5.43389 0
M  V30 8308 H 822.842 -0.0526825 -0.82532 0
M  V30 8309 H 825.388 -0.839884 -1.47459 0
M  V30 8310 H 824.16 -1.64098 -3.55229 0
M  V30 8311 H 823.783 0.0208887 -3.97595 0
M  V30 8312 N 824.78 1.49157 -0.508906 0
M  V30 8313 C 826.02 2.04376 0.0310623 0
M  V30 8314 C 826.384 1.37946 1.33547 0
M  V30 8315 O 827.585 1.83931 1.96017 0
M  V30 8316 C 825.856 3.56985 0.172191 0
M  V30 8317 S 827.415 4.33728 0.665267 0
M  V30 8318 H 824.233 0.710997 -0.00199266 0
M  V30 8319 H 826.835 1.83119 -0.684674 0
M  V30 8320 H 825.539 4.02874 -0.78234 0
M  V30 8321 H 825.07 3.82661 0.912933 0
M  V30 8322 H 827.085 4.56992 1.9332 0
M  V30 8323 N 826.258 0.243083 1.55714 0
M  V30 8324 C 827.19 -0.690766 2.18543 0
M  V30 8325 C 828.203 -1.14163 1.16064 0
M  V30 8326 O 829.392 -1.06906 1.42946 0
M  V30 8327 C 826.492 -1.95016 2.77168 0
M  V30 8328 C 825.665 -1.65137 4.05029 0
M  V30 8329 C 824.724 -2.75998 4.48009 0
M  V30 8330 O 823.75 -2.43547 5.14464 0
M  V30 8331 N 824.952 -4.05414 4.15476 0
M  V30 8332 H 827.717 -0.153203 2.99308 0
M  V30 8333 H 825.278 0.0628968 1.61778 0
M  V30 8334 H 827.27 -2.68414 3.0288 0
M  V30 8335 H 825.84 -2.39762 2.00582 0
M  V30 8336 H 825.06 -0.752768 3.86946 0
M  V30 8337 H 826.348 -1.42633 4.88399 0
M  V30 8338 H 825.746 -4.34613 3.62116 0
M  V30 8339 H 824.303 -4.75288 4.46032 0
M  V30 8340 N 827.736 -1.57571 -0.0300757 0
M  V30 8341 C 829.013 -1.80381 -0.756447 0
M  V30 8342 C 829.393 -0.840906 -1.93628 0
M  V30 8343 O 828.741 0.117143 -2.282 0
M  V30 8344 C 828.951 -3.2807 -1.19043 0
M  V30 8345 C 830.299 -3.93025 -1.60676 0
M  V30 8346 O 831.323 -3.32213 -1.28503 0
M  V30 8347 O 830.182 -5.00092 -2.20386 0
M  V30 8348 H 827.276 -0.741737 -0.365725 0
M  V30 8349 H 829.822 -1.69699 -0.00693177 0
M  V30 8350 H 828.594 -3.89748 -0.348128 0
M  V30 8351 H 828.217 -3.43637 -1.99999 0
M  V30 8352 N 829.214 0.302327 -1.54673 0
M  V30 8353 C 830.144 1.37759 -1.88533 0
M  V30 8354 C 831.125 1.52961 -0.744113 0
M  V30 8355 O 832.31 1.6649 -0.999731 0
M  V30 8356 C 829.44 2.74201 -2.13146 0
M  V30 8357 C 828.394 2.73765 -3.28993 0
M  V30 8358 C 827.72 4.13483 -3.39022 0
M  V30 8359 C 829.02 2.35624 -4.66132 0
M  V30 8360 H 830.714 1.0967 -2.78591 0
M  V30 8361 H 828.26 0.52613 -1.34044 0
M  V30 8362 H 830.213 3.49508 -2.35419 0
M  V30 8363 H 828.937 3.03812 -1.19858 0
M  V30 8364 H 827.596 2.00914 -3.06642 0
M  V30 8365 H 827.244 4.40269 -2.43253 0
M  V30 8366 H 826.944 4.14093 -4.16894 0
M  V30 8367 H 828.468 4.90572 -3.63553 0
M  V30 8368 H 829.882 3.00647 -4.88143 0
M  V30 8369 H 828.279 2.47449 -5.46707 0
M  V30 8370 H 829.349 1.30753 -4.66939 0
M  V30 8371 N 830.692 1.47107 0.565454 0
M  V30 8372 C 831.624 1.55024 1.6882 0
M  V30 8373 C 832.637 0.4371 1.56822 0
M  V30 8374 O 833.826 0.706315 1.63931 0
M  V30 8375 C 830.926 1.43069 3.0722 0
M  V30 8376 C 830.099 2.68807 3.45053 0
M  V30 8377 C 829.158 2.50806 4.62583 0
M  V30 8378 O 828.184 3.24593 4.67577 0
M  V30 8379 N 829.386 1.58093 5.58558 0
M  V30 8380 H 832.151 2.51836 1.62477 0
M  V30 8381 H 829.712 1.43382 0.751885 0
M  V30 8382 H 831.704 1.28773 3.83666 0
M  V30 8383 H 830.274 0.543721 3.07835 0
M  V30 8384 H 829.494 2.97923 2.58138 0
M  V30 8385 H 830.782 3.52298 3.67101 0
M  V30 8386 H 830.18 0.972807 5.57273 0
M  V30 8387 H 828.737 1.49753 6.34364 0
M  V30 8388 N 832.17 -0.811516 1.35101 0
M  V30 8389 C 833.117 -1.92308 1.27617 0
M  V30 8390 C 834.087 -1.6543 0.149091 0
M  V30 8391 O 835.272 -1.8789 0.331974 0
M  V30 8392 C 832.412 -3.28768 1.04908 0
M  V30 8393 C 831.525 -3.67865 2.26493 0
M  V30 8394 C 830.66 -4.9333 1.96974 0
M  V30 8395 C 829.699 -5.25041 3.1464 0
M  V30 8396 N 828.836 -6.41685 2.84929 0
M  V30 8397 H 833.676 -1.98041 2.22674 0
M  V30 8398 H 831.213 -0.968755 1.10696 0
M  V30 8399 H 833.171 -4.07426 0.897749 0
M  V30 8400 H 831.801 -3.22517 0.135151 0
M  V30 8401 H 830.853 -2.84507 2.52507 0
M  V30 8402 H 832.165 -3.87263 3.14371 0
M  V30 8403 H 831.319 -5.79803 1.78643 0
M  V30 8404 H 830.058 -4.75958 1.06374 0
M  V30 8405 H 829.063 -4.3706 3.33554 0
M  V30 8406 H 830.288 -5.44346 4.06035 0
M  V30 8407 H 828.234 -6.25747 1.96918 0
M  V30 8408 H 828.151 -6.6131 3.66341 0
M  V30 8409 H 829.419 -7.31198 2.70128 0
M  V30 8410 N 833.648 -1.19017 -1.03309 0
M  V30 8411 C 834.58 -0.881847 -2.11556 0
M  V30 8412 C 835.593 0.123711 -1.62329 0
M  V30 8413 O 836.782 -0.105141 -1.7819 0
M  V30 8414 C 833.882 -0.297634 -3.37591 0
M  V30 8415 C 833.055 -1.35072 -4.16022 0
M  V30 8416 C 832.114 -0.780812 -5.20375 0
M  V30 8417 O 831.14 -1.45745 -5.50224 0
M  V30 8418 N 832.342 0.417964 -5.78993 0
M  V30 8419 H 835.107 -1.81359 -2.38598 0
M  V30 8420 H 832.668 -1.0916 -1.19565 0
M  V30 8421 H 834.66 0.097374 -4.04583 0
M  V30 8422 H 833.23 0.538299 -3.0793 0
M  V30 8423 H 832.45 -1.92074 -3.4424 0
M  V30 8424 H 833.738 -2.06044 -4.65213 0
M  V30 8425 H 833.136 0.985281 -5.57054 0
M  V30 8426 H 831.693 0.754802 -6.47415 0
M  V30 8427 N 835.127 1.22348 -0.993418 0
M  V30 8428 C 836.077 2.221 -0.515333 0
M  V30 8429 C 837.061 1.55409 0.416762 0
M  V30 8430 O 838.253 1.75317 0.243497 0
M  V30 8431 C 835.382 3.42888 0.168173 0
M  V30 8432 C 834.468 4.16786 -0.784257 0
M  V30 8433 N 834.859 4.67435 -1.93231 0
M  V30 8434 C 833.157 4.41942 -0.600243 0
M  V30 8435 C 833.858 5.23792 -2.53016 0
M  V30 8436 N 832.834 5.12483 -1.8128 0
M  V30 8437 H 836.636 2.58902 -1.39093 0
M  V30 8438 H 834.15 1.38024 -0.855747 0
M  V30 8439 H 836.147 4.13542 0.528069 0
M  V30 8440 H 834.807 3.07598 1.03989 0
M  V30 8441 H 835.818 4.63375 -2.31309 0
M  V30 8442 H 832.495 4.16891 0.225369 0
M  V30 8443 H 833.885 5.73515 -3.50043 0
M  V30 8444 N 836.605 0.766683 1.37694 0
M  V30 8445 C 837.83 0.338715 2.04615 0
M  V30 8446 C 838.255 -1.02918 1.57447 0
M  V30 8447 O 837.613 -1.65849 0.732386 0
M  V30 8448 C 837.661 0.385284 3.58536 0
M  V30 8449 O 836.765 -0.616081 4.07772 0
M  V30 8450 H 836.106 0.147527 0.647404 0
M  V30 8451 H 838.636 1.04146 1.7611 0
M  V30 8452 H 838.646 0.240782 4.07289 0
M  V30 8453 H 837.321 1.38325 3.92223 0
M  V30 8454 H 835.898 -0.435115 3.70353 0
M  V30 8455 N 838.083 -1.48885 0.516809 0
M  V30 8456 C 839.36 -1.95412 -0.0858293 0
M  V30 8457 C 839.74 -1.45875 -1.5259 0
M  V30 8458 O 839.088 -0.679415 -2.18166 0
M  V30 8459 C 839.298 -3.48995 0.0178194 0
M  V30 8460 C 840.646 -4.24342 -0.14813 0
M  V30 8461 O 841.67 -3.56155 -0.0566125 0
M  V30 8462 O 840.529 -5.45454 -0.338035 0
M  V30 8463 H 837.623 -0.822455 -0.0865884 0
M  V30 8464 H 840.169 -1.59464 0.580472 0
M  V30 8465 H 838.941 -3.77732 1.02147 0
M  V30 8466 H 838.564 -3.91604 -0.687924 0
M  V30 8467 N 839.561 -0.251338 -1.55583 0
M  V30 8468 C 840.972 0.25098 -1.85005 0
M  V30 8469 C 841.323 1.57259 -1.17321 0
M  V30 8470 O 840.448 2.11603 -0.453136 0
M  V30 8471 C 841.043 0.462161 -3.35633 0
M  V30 8472 C 839.602 0.908737 -3.65266 0
M  V30 8473 C 838.749 -0.0115418 -2.77298 0
M  V30 8474 H 841.7 -0.473782 -1.51463 0
M  V30 8475 H 841.721 1.30415 -3.57452 0
M  V30 8476 H 841.233 -0.499886 -3.84867 0
M  V30 8477 H 839.334 1.8831 -3.21512 0
M  V30 8478 H 839.447 0.762526 -4.72993 0
M  V30 8479 H 837.811 0.500612 -2.49732 0
M  V30 8480 H 838.594 -0.969042 -3.29339 0
M  V30 8481 N 841.039 1.57585 0.0217189 0
M  V30 8482 C 842.279 1.91457 0.715803 0
M  V30 8483 C 842.643 0.850685 1.72126 0
M  V30 8484 O 843.844 1.07396 2.46413 0
M  V30 8485 C 842.115 3.30456 1.36138 0
M  V30 8486 S 843.674 3.86176 2.0836 0
M  V30 8487 H 840.492 0.67035 0.236963 0
M  V30 8488 H 843.094 1.95477 -0.0297511 0
M  V30 8489 H 841.798 4.05744 0.616465 0
M  V30 8490 H 841.329 3.29757 2.14532 0
M  V30 8491 H 843.344 3.65496 3.356 0
M  V30 8492 N 842.517 -0.29412 1.54831 0
M  V30 8493 C 843.48 -1.3461 1.85507 0
M  V30 8494 C 844.48 -1.43359 0.728343 0
M  V30 8495 O 845.67 -1.42875 0.996609 0
M  V30 8496 C 842.802 -2.73012 2.0415 0
M  V30 8497 H 843.995 -1.08651 2.79526 0
M  V30 8498 H 841.548 -0.531138 1.46999 0
M  V30 8499 H 842.283 -3.04183 1.12441 0
M  V30 8500 H 842.068 -2.68051 2.86166 0
M  V30 8501 H 843.558 -3.49061 2.29229 0
M  V30 8502 N 843.995 -1.47404 -0.557645 0
M  V30 8503 C 844.925 -1.62736 -1.67449 0
M  V30 8504 C 845.906 -0.476824 -1.6328 0
M  V30 8505 O 847.091 -0.706108 -1.80908 0
M  V30 8506 C 844.221 -1.641 -3.06086 0
M  V30 8507 C 843.175 -2.78377 -3.25101 0
M  V30 8508 C 842.501 -2.64812 -4.6452 0
M  V30 8509 C 843.801 -4.19971 -3.10518 0
M  V30 8510 H 845.495 -2.56232 -1.54873 0
M  V30 8511 H 843.041 -1.23312 -0.743649 0
M  V30 8512 H 844.994 -1.73417 -3.84063 0
M  V30 8513 H 843.718 -0.671652 -3.19619 0
M  V30 8514 H 842.377 -2.6857 -2.49531 0
M  V30 8515 H 842.025 -1.65906 -4.74852 0
M  V30 8516 H 841.725 -3.41477 -4.78191 0
M  V30 8517 H 843.249 -2.76057 -5.44633 0
M  V30 8518 H 844.663 -4.30757 -3.78313 0
M  V30 8519 H 843.06 -4.97419 -3.35699 0
M  V30 8520 H 844.13 -4.38369 -2.0727 0
M  V30 8521 N 845.473 0.80434 -1.35529 0
M  V30 8522 C 846.421 1.93769 -1.28671 0
M  V30 8523 C 847.415 1.68428 -0.181222 0
M  V30 8524 O 848.621 1.76617 -0.347338 0
M  V30 8525 H 844.996 0.636663 -0.400206 0
M  V30 8526 H 846.967 1.96673 -2.24415 0
M  V30 8527 C 845.716 3.30572 -1.07784 0
M  V30 8528 H 845.039 3.5063 -1.9209 0
M  V30 8529 H 846.479 4.1027 -1.07027 0
M  V30 8530 C 844.938 3.36193 0.218213 0
M  V30 8531 O 845.468 3.82941 1.21323 0
M  V30 8532 N 843.674 2.89455 0.257761 0
M  V30 8533 H 843.221 2.51604 -0.552562 0
M  V30 8534 H 843.179 2.93597 1.12465 0
M  V30 8535 N 846.951 1.19563 1.02676 0
M  V30 8536 C 848.362 1.00158 1.57561 0
M  V30 8537 C 848.713 -0.444922 1.91089 0
M  V30 8538 O 847.838 -1.32466 1.71119 0
M  V30 8539 C 848.433 1.81181 2.86284 0
M  V30 8540 C 846.992 1.66171 3.37734 0
M  V30 8541 C 846.139 1.7975 2.11152 0
M  V30 8542 H 849.09 1.33904 0.85179 0
M  V30 8543 H 849.111 1.30916 3.57269 0
M  V30 8544 H 848.623 2.86454 2.6185 0
M  V30 8545 H 846.724 0.634927 3.6715 0
M  V30 8546 H 846.837 2.46832 4.10622 0
M  V30 8547 H 845.201 1.22833 2.23123 0
M  V30 8548 H 845.984 2.86487 1.89157 0
M  V30 8549 N 848.429 -1.21819 0.999893 0
M  V30 8550 C 849.845 -1.42847 0.711824 0
M  V30 8551 C 850.045 -1.88391 -0.714928 0
M  V30 8552 O 849.101 -2.0422 -1.48494 0
M  V30 8553 C 850.414 -2.46417 1.72334 0
M  V30 8554 C 851.962 -2.60207 1.73958 0
M  V30 8555 C 852.437 -3.67005 2.73992 0
M  V30 8556 N 853.928 -3.7447 2.72628 0
M  V30 8557 C 854.663 -4.56718 3.46693 0
M  V30 8558 N 854.159 -5.42904 4.3038 0
M  V30 8559 N 855.952 -4.51094 3.35366 0
M  V30 8560 H 848.103 -0.905656 1.92124 0
M  V30 8561 H 850.366 -0.459893 0.828977 0
M  V30 8562 H 850.072 -2.19914 2.74465 0
M  V30 8563 H 849.946 -3.45137 1.52186 0
M  V30 8564 H 852.333 -2.8605 0.725217 0
M  V30 8565 H 852.414 -1.61739 1.98177 0
M  V30 8566 H 852.058 -3.41908 3.75582 0
M  V30 8567 H 851.988 -4.65058 2.4704 0
M  V30 8568 H 854.479 -3.12895 2.11909 0
M  V30 8569 H 854.792 -6.02704 4.83702 0
M  V30 8570 H 853.137 -5.42463 4.34464 0
M  V30 8571 H 856.328 -3.82791 2.69423 0
M  V30 8572 H 856.501 -5.1496 3.93344 0
M  V30 8573 N 849.908 -0.773975 -1.37286 0
M  V30 8574 C 850.841 -0.108019 -2.27944 0
M  V30 8575 C 851.819 0.706737 -1.46438 0
M  V30 8576 O 853.003 0.681025 -1.75768 0
M  V30 8577 C 850.13 0.853199 -3.27778 0
M  V30 8578 C 849.176 0.122164 -4.26325 0
M  V30 8579 S 850.009 -1.19136 -5.22079 0
M  V30 8580 C 851.165 -0.233737 -6.25463 0
M  V30 8581 H 851.398 -0.876743 -2.84078 0
M  V30 8582 H 848.931 -0.567468 -1.43594 0
M  V30 8583 H 850.889 1.40238 -3.85803 0
M  V30 8584 H 849.55 1.59505 -2.70586 0
M  V30 8585 H 848.743 0.850926 -4.96765 0
M  V30 8586 H 848.345 -0.356079 -3.72301 0
M  V30 8587 H 850.637 0.59305 -6.74899 0
M  V30 8588 H 851.58 -0.906373 -7.02275 0
M  V30 8589 H 851.988 0.156048 -5.64284 0
M  V30 8590 N 851.386 1.48609 -0.524698 0
M  V30 8591 C 852.614 2.06899 0.00742946 0
M  V30 8592 C 853.029 1.38196 1.28637 0
M  V30 8593 O 852.386 0.467771 1.76403 0
M  V30 8594 C 852.437 3.60699 0.240548 0
M  V30 8595 O 852.158 4.26821 -0.987715 0
M  V30 8596 C 853.659 4.35769 0.813652 0
M  V30 8597 H 850.879 0.670278 -0.0311294 0
M  V30 8598 H 853.423 1.91071 -0.728832 0
M  V30 8599 H 851.578 3.76149 0.926845 0
M  V30 8600 H 851.992 5.18889 -0.765175 0
M  V30 8601 H 853.466 5.44174 0.926219 0
M  V30 8602 H 853.943 3.9984 1.81728 0
M  V30 8603 H 854.549 4.24983 0.164086 0
M  V30 8604 N 852.864 0.259585 1.55447 0
M  V30 8605 C 854.28 -0.094961 1.59317 0
M  V30 8606 C 854.48 -1.55884 1.2768 0
M  V30 8607 O 853.536 -2.30528 1.0302 0
M  V30 8608 C 854.849 0.265669 2.99524 0
M  V30 8609 C 856.397 0.211007 3.12288 0
M  V30 8610 C 856.872 0.545851 4.54736 0
M  V30 8611 N 858.363 0.496823 4.60528 0
M  V30 8612 C 859.098 0.728909 5.68748 0
M  V30 8613 N 858.594 1.02479 6.85179 0
M  V30 8614 N 860.387 0.658756 5.58226 0
M  V30 8615 H 852.538 1.2141 1.7428 0
M  V30 8616 H 854.801 0.489404 0.811904 0
M  V30 8617 H 854.507 1.28316 3.27457 0
M  V30 8618 H 854.381 -0.401089 3.75061 0
M  V30 8619 H 856.768 -0.797172 2.84129 0
M  V30 8620 H 856.849 0.911799 2.38998 0
M  V30 8621 H 856.493 1.55164 4.83618 0
M  V30 8622 H 856.423 -0.17656 5.26304 0
M  V30 8623 H 858.914 0.277376 3.76881 0
M  V30 8624 H 859.227 1.18897 7.63599 0
M  V30 8625 H 857.572 1.0624 6.86832 0
M  V30 8626 H 860.763 0.427553 4.66143 0
M  V30 8627 H 860.936 0.84302 6.42493 0
M  V30 8628 N 854.342 -1.57594 -0.0133615 0
M  V30 8629 C 855.589 -1.8998 -0.70098 0
M  V30 8630 C 855.917 -0.858802 -1.74513 0
M  V30 8631 O 855.172 0.138209 -1.95211 0
M  V30 8632 C 855.471 -3.29121 -1.39336 0
M  V30 8633 C 855.137 -4.48298 -0.483687 0
M  V30 8634 C 853.799 -4.80635 -0.233186 0
M  V30 8635 C 856.151 -5.21003 0.143426 0
M  V30 8636 C 853.479 -5.83055 0.652943 0
M  V30 8637 C 855.831 -6.24366 1.01735 0
M  V30 8638 C 854.495 -6.55168 1.27716 0
M  V30 8639 H 853.765 -0.695187 -0.256507 0
M  V30 8640 H 856.412 -1.9146 0.0392965 0
M  V30 8641 H 854.717 -3.23703 -2.20735 0
M  V30 8642 H 856.414 -3.51433 -1.93121 0
M  V30 8643 H 853.004 -4.23024 -0.689092 0
M  V30 8644 H 857.188 -4.96286 -0.0371139 0
M  V30 8645 H 852.444 -6.05288 0.862379 0
M  V30 8646 H 856.618 -6.79839 1.5097 0
M  V30 8647 H 854.245 -7.34351 1.9655 0
M  V30 8648 N 855.82 0.285905 -1.54985 0
M  V30 8649 C 857.045 1.04207 -1.7932 0
M  V30 8650 C 857.47 1.79622 -0.558343 0
M  V30 8651 O 856.828 1.74506 0.491661 0
M  V30 8652 C 856.876 1.98648 -3.0095 0
M  V30 8653 O 855.98 3.07207 -2.75132 0
M  V30 8654 H 855.321 0.298596 -0.593074 0
M  V30 8655 H 857.851 0.318736 -2.02102 0
M  V30 8656 H 857.861 2.4084 -3.29333 0
M  V30 8657 H 856.536 1.43167 -3.90482 0
M  V30 8658 H 855.113 2.69423 -2.57809 0
M  V30 8659 N 857.298 1.47698 0.54982 0
M  V30 8660 C 858.208 1.63386 1.68351 0
M  V30 8661 C 859.224 0.516583 1.66155 0
M  V30 8662 O 860.4 0.785088 1.85468 0
M  V30 8663 C 857.465 1.6513 3.04849 0
M  V30 8664 C 856.526 2.88338 3.18056 0
M  V30 8665 C 855.759 2.8999 4.48042 0
M  V30 8666 O 855.982 2.00633 5.3395 0
M  V30 8667 O 854.916 3.81938 4.65196 0
M  V30 8668 H 858.742 2.59329 1.58057 0
M  V30 8669 H 856.327 1.30869 0.72067 0
M  V30 8670 H 858.209 1.68913 3.86065 0
M  V30 8671 H 856.884 0.723555 3.1551 0
M  V30 8672 H 855.791 2.90097 2.36209 0
M  V30 8673 H 857.124 3.80431 3.12302 0
M  V30 8674 N 858.776 -0.797141 1.35954 0
M  V30 8675 C 859.686 -1.94088 1.31784 0
M  V30 8676 C 860.702 -1.72588 0.221227 0
M  V30 8677 O 861.878 -1.96256 0.452255 0
M  V30 8678 C 858.943 -3.28828 1.09878 0
M  V30 8679 C 858.004 -3.63158 2.28942 0
M  V30 8680 C 857.237 -4.91469 2.08072 0
M  V30 8681 O 857.46 -5.60616 1.05196 0
M  V30 8682 O 856.394 -5.24277 2.95664 0
M  V30 8683 H 860.22 -2.00554 2.28061 0
M  V30 8684 H 857.805 -0.936288 1.16422 0
M  V30 8685 H 859.687 -4.09473 0.995485 0
M  V30 8686 H 858.362 -3.23271 0.16659 0
M  V30 8687 H 857.269 -2.82851 2.44839 0
M  V30 8688 H 858.602 -3.7343 3.20641 0
M  V30 8689 N 860.254 -1.20106 -1.0204 0
M  V30 8690 C 861.217 -0.948261 -2.08664 0
M  V30 8691 C 862.217 0.0746753 -1.60627 0
M  V30 8692 O 863.407 -0.160981 -1.73455 0
M  V30 8693 C 860.539 -0.426854 -3.38217 0
M  V30 8694 H 861.732 -1.894 -2.32524 0
M  V30 8695 H 859.285 -1.0159 -1.18782 0
M  V30 8696 H 860.02 0.524532 -3.2003 0
M  V30 8697 H 859.805 -1.16451 -3.74408 0
M  V30 8698 H 861.295 -0.269346 -4.1673 0
M  V30 8699 N 861.732 1.21287 -1.00634 0
M  V30 8700 C 862.972 1.92106 -0.698194 0
M  V30 8701 C 863.336 1.76437 0.757222 0
M  V30 8702 O 864.537 2.41641 1.17741 0
M  V30 8703 C 862.808 3.39748 -1.10932 0
M  V30 8704 S 864.367 4.29013 -0.921586 0
M  V30 8705 H 861.185 0.663755 -0.254853 0
M  V30 8706 H 863.787 1.46772 -1.29145 0
M  V30 8707 H 862.491 3.48669 -2.16467 0
M  V30 8708 H 862.022 3.90101 -0.508419 0
M  V30 8709 H 864.037 4.95871 0.180578 0
M  V30 8710 N 863.21 0.781244 1.36873 0
M  V30 8711 C 864.173 0.180094 2.28491 0
M  V30 8712 C 865.173 -0.617798 1.48458 0
M  V30 8713 O 866.363 -0.439991 1.68552 0
M  V30 8714 C 863.495 -0.751741 3.32508 0
M  V30 8715 H 864.688 0.987837 2.83164 0
M  V30 8716 H 862.241 0.550102 1.463 0
M  V30 8717 H 862.976 -1.58413 2.82977 0
M  V30 8718 H 862.761 -0.181649 3.91679 0
M  V30 8719 H 864.251 -1.16748 4.00949 0
M  V30 8720 N 864.689 -1.48329 0.532571 0
M  V30 8721 C 865.935 -2.028 -0.000583219 0
M  V30 8722 C 866.268 -1.40858 -1.33688 0
M  V30 8723 O 865.543 -0.555261 -1.86406 0
M  V30 8724 C 865.826 -3.59901 -0.119846 0
M  V30 8725 C 865.679 -4.32318 1.2418 0
M  V30 8726 C 866.998 -4.31904 -0.845372 0
M  V30 8727 H 864.117 -0.736999 0.00126205 0
M  V30 8728 H 866.759 -1.77024 0.690102 0
M  V30 8729 H 864.909 -3.81993 -0.708092 0
M  V30 8730 H 866.581 -4.21637 1.87136 0
M  V30 8731 H 864.824 -3.93635 1.82301 0
M  V30 8732 H 865.495 -5.40697 1.11132 0
M  V30 8733 H 867.971 -4.14658 -0.346159 0
M  V30 8734 H 866.847 -5.41509 -0.897723 0
M  V30 8735 H 867.108 -3.99369 -1.89622 0
M  V30 8736 N 866.167 -0.267825 -1.55308 0
M  V30 8737 C 867.097 0.616585 -2.25212 0
M  V30 8738 C 868.078 1.16472 -1.23969 0
M  V30 8739 O 869.263 1.20021 -1.52672 0
M  V30 8740 C 866.393 1.80412 -2.96764 0
M  V30 8741 C 865.347 1.38784 -4.04874 0
M  V30 8742 C 864.673 2.65789 -4.63961 0
M  V30 8743 C 865.973 0.543415 -5.19465 0
M  V30 8744 H 867.667 0.0336257 -2.99381 0
M  V30 8745 H 865.213 0.0147328 -1.43992 0
M  V30 8746 H 867.166 2.42866 -3.44375 0
M  V30 8747 H 865.89 2.4128 -2.20118 0
M  V30 8748 H 864.549 0.786541 -3.58063 0
M  V30 8749 H 864.197 3.24899 -3.83992 0
M  V30 8750 H 863.897 2.38651 -5.36954 0
M  V30 8751 H 865.421 3.29104 -5.14318 0
M  V30 8752 H 866.835 1.07277 -5.63174 0
M  V30 8753 H 865.232 0.367219 -5.98975 0
M  V30 8754 H 866.302 -0.439534 -4.82904 0
M  V30 8755 N 867.645 1.57599 0.00500368 0
M  V30 8756 C 868.873 1.94626 0.702016 0
M  V30 8757 C 869.288 0.86953 1.67585 0
M  V30 8758 O 868.645 -0.15199 1.81866 0
M  V30 8759 C 868.696 3.31658 1.43824 0
M  V30 8760 O 868.417 4.35197 0.503467 0
M  V30 8761 C 869.918 3.83114 2.23021 0
M  V30 8762 H 867.138 0.641785 0.195841 0
M  V30 8763 H 869.682 2.04451 -0.0446287 0
M  V30 8764 H 867.837 3.23156 2.13655 0
M  V30 8765 H 868.251 5.1444 1.02235 0
M  V30 8766 H 869.725 4.81438 2.7004 0
M  V30 8767 H 870.202 3.15559 3.05482 0
M  V30 8768 H 870.808 3.94775 1.58216 0
M  V30 8769 N 869.123 -0.277682 1.55134 0
M  V30 8770 C 870.348 -1.03254 1.7987 0
M  V30 8771 C 870.773 -1.79324 0.567861 0
M  V30 8772 O 870.131 -1.74764 -0.4824 0
M  V30 8773 C 870.179 -1.9705 3.02 0
M  V30 8774 O 869.283 -3.05744 2.76757 0
M  V30 8775 H 868.624 -0.295447 0.594649 0
M  V30 8776 H 871.154 -0.308013 2.02268 0
M  V30 8777 H 871.164 -2.3909 3.30606 0
M  V30 8778 H 869.839 -1.41094 3.91236 0
M  V30 8779 H 868.416 -2.68052 2.59235 0
M  V30 8780 N 870.601 -1.47988 -0.541979 0
M  V30 8781 C 872.012 -1.49073 -1.12402 0
M  V30 8782 C 872.363 -0.253825 -1.94551 0
M  V30 8783 O 871.488 0.640056 -2.06718 0
M  V30 8784 C 872.083 -2.7011 -2.04514 0
M  V30 8785 C 870.642 -2.74105 -2.5796 0
M  V30 8786 C 869.789 -2.42409 -1.3466 0
M  V30 8787 H 872.74 -1.55277 -0.327818 0
M  V30 8788 H 872.761 -2.47946 -2.88623 0
M  V30 8789 H 872.273 -3.60117 -1.44697 0
M  V30 8790 H 870.374 -1.88276 -3.21532 0
M  V30 8791 H 870.487 -3.75213 -2.97913 0
M  V30 8792 H 868.851 -1.9331 -1.65841 0
M  V30 8793 H 869.634 -3.34642 -0.766133 0
M  V30 8794 N 872.079 0.78992 -1.36375 0
M  V30 8795 C 873.307 1.57873 -1.3373 0
M  V30 8796 C 873.722 1.88624 0.0815544 0
M  V30 8797 O 873.079 1.50085 1.03831 0
M  V30 8798 C 873.13 2.90003 -2.15825 0
M  V30 8799 O 872.851 2.60578 -3.5218 0
M  V30 8800 C 874.352 3.84309 -2.20955 0
M  V30 8801 H 871.572 0.489685 -0.458748 0
M  V30 8802 H 874.116 0.980436 -1.79465 0
M  V30 8803 H 872.271 3.46303 -1.73646 0
M  V30 8804 H 872.685 3.4506 -3.95011 0
M  V30 8805 H 874.159 4.74081 -2.82756 0
M  V30 8806 H 874.636 4.22121 -1.21287 0
M  V30 8807 H 875.242 3.33942 -2.63368 0
M  V30 8808 N 873.557 1.20646 1.01402 0
M  V30 8809 C 874.804 1.01819 1.7504 0
M  V30 8810 C 875.132 -0.449386 1.89237 0
M  V30 8811 O 874.387 -1.34985 1.41695 0
M  V30 8812 C 874.686 1.64991 3.17037 0
M  V30 8813 C 874.352 3.14808 3.22811 0
M  V30 8814 C 873.014 3.55692 3.24094 0
M  V30 8815 C 875.366 4.108 3.2077 0
M  V30 8816 C 872.694 4.9109 3.2101 0
M  V30 8817 C 875.046 5.46147 3.19227 0
M  V30 8818 C 873.71 5.86441 3.18815 0
M  V30 8819 H 872.98 0.372582 0.640518 0
M  V30 8820 H 875.627 1.50108 1.18911 0
M  V30 8821 H 873.932 1.08971 3.76341 0
M  V30 8822 H 875.629 1.47937 3.72714 0
M  V30 8823 H 872.219 2.8224 3.2255 0
M  V30 8824 H 876.403 3.80246 3.18946 0
M  V30 8825 H 871.659 5.21569 3.19023 0
M  V30 8826 H 875.833 6.20272 3.166 0
M  V30 8827 H 873.46 6.91328 3.16179 0
M  V30 8828 N 875.035 -1.20752 1.01276 0
M  V30 8829 C 875.945 -2.27079 0.589277 0
M  V30 8830 C 876.961 -1.6999 -0.371389 0
M  V30 8831 O 878.137 -2.00044 -0.233294 0
M  V30 8832 C 875.202 -3.4663 -0.0696715 0
M  V30 8833 C 874.263 -4.18962 0.936454 0
M  V30 8834 C 873.496 -5.32806 0.308856 0
M  V30 8835 O 873.719 -5.63376 -0.8924 0
M  V30 8836 O 872.653 -5.93131 1.02367 0
M  V30 8837 H 876.479 -2.6551 1.47438 0
M  V30 8838 H 874.064 -1.27297 0.782045 0
M  V30 8839 H 875.946 -4.19119 -0.437873 0
M  V30 8840 H 874.621 -3.10082 -0.929029 0
M  V30 8841 H 873.528 -3.48661 1.35595 0
M  V30 8842 H 874.861 -4.59441 1.76565 0
M  V30 8843 N 876.513 -0.788492 -1.36457 0
M  V30 8844 C 877.476 -0.192209 -2.28393 0
M  V30 8845 C 878.476 0.609916 -1.48784 0
M  V30 8846 O 879.666 0.431046 -1.68783 0
M  V30 8847 C 876.798 0.734096 -3.32902 0
M  V30 8848 H 877.991 -1.00284 -2.82636 0
M  V30 8849 H 875.544 -0.557852 -1.46006 0
M  V30 8850 H 876.279 1.5691 -2.83813 0
M  V30 8851 H 876.064 0.160875 -3.9177 0
M  V30 8852 H 877.554 1.1462 -4.01562 0
M  V30 8853 N 877.991 1.48044 -0.54043 0
M  V30 8854 C 879.231 2.04396 -0.012296 0
M  V30 8855 C 879.595 1.40748 1.30591 0
M  V30 8856 O 880.796 1.88048 1.92072 0
M  V30 8857 C 879.067 3.5727 0.0964302 0
M  V30 8858 S 880.626 4.35041 0.573117 0
M  V30 8859 H 877.444 0.710795 -0.0170735 0
M  V30 8860 H 880.046 1.81625 -0.723362 0
M  V30 8861 H 878.75 4.01124 -0.86762 0
M  V30 8862 H 878.281 3.84511 0.83156 0
M  V30 8863 H 880.296 4.6099 1.83583 0
M  V30 8864 N 879.47 0.276058 1.55163 0
M  V30 8865 C 880.42 -0.625549 2.19251 0
M  V30 8866 C 881.404 -1.11769 1.15744 0
M  V30 8867 O 882.596 -1.0626 1.41555 0
M  V30 8868 C 879.725 -1.80879 2.91784 0
M  V30 8869 C 878.811 -1.33379 4.0258 0
M  V30 8870 N 879.202 -0.575002 5.02521 0
M  V30 8871 C 877.5 -1.61666 4.15668 0
M  V30 8872 C 878.201 -0.325164 5.8079 0
M  V30 8873 N 877.177 -0.897851 5.36134 0
M  V30 8874 H 880.979 -0.0379943 2.93875 0
M  V30 8875 H 878.493 0.079661 1.62205 0
M  V30 8876 H 880.49 -2.466 3.36146 0
M  V30 8877 H 879.15 -2.40028 2.1867 0
M  V30 8878 H 880.161 -0.222256 5.17423 0
M  V30 8879 H 876.838 -2.21745 3.53745 0
M  V30 8880 H 878.228 0.282598 6.71305 0
M  V30 8881 N 880.948 -1.576 0.00335426 0
M  V30 8882 C 882.364 -1.55653 -0.352766 0
M  V30 8883 C 882.564 -1.00632 -1.74572 0
M  V30 8884 O 881.62 -0.641621 -2.44212 0
M  V30 8885 C 882.933 -2.99858 -0.224929 0
M  V30 8886 C 884.481 -3.11563 -0.299619 0
M  V30 8887 C 884.956 -4.57559 -0.200868 0
M  V30 8888 N 886.447 -4.62477 -0.258663 0
M  V30 8889 C 887.182 -5.73031 -0.205644 0
M  V30 8890 N 886.678 -6.92723 -0.103027 0
M  V30 8891 N 888.471 -5.61509 -0.257754 0
M  V30 8892 H 880.622 -1.91703 0.914539 0
M  V30 8893 H 882.885 -0.88068 0.350865 0
M  V30 8894 H 882.591 -3.43964 0.733595 0
M  V30 8895 H 882.465 -3.63547 -1.00564 0
M  V30 8896 H 884.852 -2.67384 -1.24859 0
M  V30 8897 H 884.933 -2.50644 0.511025 0
M  V30 8898 H 884.577 -5.02413 0.744572 0
M  V30 8899 H 884.507 -5.16428 -1.03004 0
M  V30 8900 H 886.998 -3.76375 -0.339168 0
M  V30 8901 H 887.311 -7.7277 -0.0685593 0
M  V30 8902 H 885.656 -6.94966 -0.0686069 0
M  V30 8903 H 888.847 -4.66892 -0.336142 0
M  V30 8904 H 889.02 -6.4765 -0.21297 0
M  V30 8905 N 882.426 0.269451 -1.5528 0
M  V30 8906 C 883.389 1.31642 -1.87625 0
M  V30 8907 C 884.389 1.42182 -0.751058 0
M  V30 8908 O 885.579 1.41272 -1.01921 0
M  V30 8909 C 882.711 2.6973 -2.08467 0
M  V30 8910 H 883.904 1.0419 -2.81219 0
M  V30 8911 H 881.457 0.507685 -1.47825 0
M  V30 8912 H 882.192 3.02356 -1.17266 0
M  V30 8913 H 881.977 2.63465 -2.90394 0
M  V30 8914 H 883.467 3.4537 -2.34753 0
M  V30 8915 N 883.904 1.48273 0.534124 0
M  V30 8916 C 885.15 1.56311 1.29208 0
M  V30 8917 C 885.483 0.234481 1.92779 0
M  V30 8918 O 884.758 -0.759143 1.79073 0
M  V30 8919 C 885.041 2.69831 2.3846 0
M  V30 8920 C 884.894 4.12385 1.79608 0
M  V30 8921 C 886.213 2.79133 3.40254 0
M  V30 8922 H 883.332 0.56899 0.468422 0
M  V30 8923 H 885.974 1.80429 0.595438 0
M  V30 8924 H 884.124 2.49397 2.97881 0
M  V30 8925 H 885.796 4.44246 1.24269 0
M  V30 8926 H 884.039 4.19579 1.10162 0
M  V30 8927 H 884.71 4.87629 2.58693 0
M  V30 8928 H 887.186 2.97632 2.90783 0
M  V30 8929 H 886.062 3.60298 4.14097 0
M  V30 8930 H 886.323 1.87122 4.00547 0
M  V30 8931 N 885.382 -0.782676 1.36792 0
M  V30 8932 C 886.607 -1.57676 1.34733 0
M  V30 8933 C 887.032 -1.87979 -0.0675253 0
M  V30 8934 O 886.39 -1.48404 -1.04144 0
M  V30 8935 C 886.438 -2.87047 2.18257 0
M  V30 8936 O 885.542 -3.80946 1.57969 0
M  V30 8937 H 884.883 -0.478034 0.460846 0
M  V30 8938 H 887.413 -0.969578 1.80168 0
M  V30 8939 H 887.423 -3.36254 2.31079 0
M  V30 8940 H 886.098 -2.64319 3.21104 0
M  V30 8941 H 884.675 -3.39558 1.54126 0
M  V30 8942 N 886.86 -1.21182 -1.00761 0
M  V30 8943 C 888.271 -1.02652 -1.55947 0
M  V30 8944 C 888.622 0.414466 -1.91772 0
M  V30 8945 O 887.747 1.29727 -1.73204 0
M  V30 8946 C 888.342 -1.85713 -2.83366 0
M  V30 8947 C 886.901 -1.71523 -3.35048 0
M  V30 8948 C 886.048 -1.83087 -2.08265 0
M  V30 8949 H 888.999 -1.35242 -0.830379 0
M  V30 8950 H 889.02 -1.36583 -3.55141 0
M  V30 8951 H 888.532 -2.90584 -2.5726 0
M  V30 8952 H 886.633 -0.693257 -3.66094 0
M  V30 8953 H 886.746 -2.53333 -4.06644 0
M  V30 8954 H 885.11 -1.26367 -2.21141 0
M  V30 8955 H 885.893 -2.8946 -1.84575 0
M  V30 8956 N 888.338 1.20213 -1.01915 0
M  V30 8957 C 889.268 2.25336 -0.612023 0
M  V30 8958 C 890.249 1.65933 0.374186 0
M  V30 8959 O 891.434 1.92464 0.259053 0
M  V30 8960 C 888.564 3.47267 0.047904 0
M  V30 8961 C 887.518 4.1928 -0.859557 0
M  V30 8962 C 886.844 5.3466 -0.0652655 0
M  V30 8963 C 888.144 4.75143 -2.1688 0
M  V30 8964 H 889.838 2.59645 -1.49079 0
M  V30 8965 H 887.384 1.24808 -0.718263 0
M  V30 8966 H 889.337 4.19991 0.344294 0
M  V30 8967 H 888.061 3.12129 0.961404 0
M  V30 8968 H 886.72 3.48425 -1.13999 0
M  V30 8969 H 886.368 4.95767 0.849964 0
M  V30 8970 H 886.068 5.83772 -0.669618 0
M  V30 8971 H 887.592 6.10187 0.224612 0
M  V30 8972 H 889.006 5.39672 -1.9346 0
M  V30 8973 H 887.403 5.34702 -2.72422 0
M  V30 8974 H 888.473 3.93744 -2.83008 0
M  V30 8975 N 889.816 0.795718 1.36037 0
M  V30 8976 C 891.227 0.433379 1.816 0
M  V30 8977 C 891.578 -1.04341 1.66155 0
M  V30 8978 O 890.703 -1.81004 1.18603 0
M  V30 8979 C 891.298 0.77985 3.29703 0
M  V30 8980 C 889.857 0.470256 3.73451 0
M  V30 8981 C 889.004 1.01119 2.58206 0
M  V30 8982 H 891.955 0.988317 1.24169 0
M  V30 8983 H 891.976 0.0732898 3.80429 0
M  V30 8984 H 891.488 1.85473 3.40913 0
M  V30 8985 H 889.589 -0.596332 3.67797 0
M  V30 8986 H 889.702 0.995276 4.68648 0
M  V30 8987 H 888.066 0.434077 2.50974 0
M  V30 8988 H 888.849 2.09196 2.72198 0
M  V30 8989 N 891.294 -1.47756 0.548274 0
M  V30 8990 C 892.524 -2.06584 0.0254503 0
M  V30 8991 C 892.932 -1.40268 -1.26971 0
M  V30 8992 O 892.275 -0.49019 -1.77039 0
M  V30 8993 C 892.337 -3.58628 -0.250301 0
M  V30 8994 C 892.001 -4.4693 0.954087 0
M  V30 8995 C 892.998 -4.85592 1.85733 0
M  V30 8996 C 890.683 -4.88573 1.16624 0
M  V30 8997 C 892.677 -5.64686 2.95648 0
M  V30 8998 C 890.364 -5.67435 2.2685 0
M  V30 8999 C 891.362 -6.05401 3.16194 0
M  V30 9000 O 891.05 -6.82676 4.24511 0
M  V30 9001 H 890.782 -0.67489 0.0387264 0
M  V30 9002 H 893.336 -1.90876 0.758663 0
M  V30 9003 H 891.566 -3.72516 -1.03771 0
M  V30 9004 H 893.255 -3.9951 -0.717419 0
M  V30 9005 H 894.021 -4.54026 1.70544 0
M  V30 9006 H 889.9 -4.58494 0.480039 0
M  V30 9007 H 893.444 -5.9424 3.65411 0
M  V30 9008 H 889.341 -5.98413 2.42016 0
M  V30 9009 H 890.109 -7.01057 4.22447 0
M  V30 9010 N 892.772 -0.284283 -1.55015 0
M  V30 9011 C 893.702 0.592663 -2.25853 0
M  V30 9012 C 894.683 1.15151 -1.25197 0
M  V30 9013 O 895.868 1.18395 -1.53936 0
M  V30 9014 C 892.998 1.77254 -2.98661 0
M  V30 9015 C 891.952 1.34482 -4.06323 0
M  V30 9016 C 891.278 2.60853 -4.66754 0
M  V30 9017 C 892.578 0.488288 -5.20013 0
M  V30 9018 H 894.272 0.00187041 -2.994 0
M  V30 9019 H 891.818 -0.000540402 -1.44 0
M  V30 9020 H 893.771 2.39199 -3.46932 0
M  V30 9021 H 892.495 2.38931 -2.22664 0
M  V30 9022 H 891.154 0.748519 -3.58877 0
M  V30 9023 H 890.802 3.20808 -3.87416 0
M  V30 9024 H 890.502 2.32942 -5.39455 0
M  V30 9025 H 892.026 3.23631 -5.1778 0
M  V30 9026 H 893.44 1.01298 -5.6428 0
M  V30 9027 H 891.837 0.303669 -5.99331 0
M  V30 9028 H 892.907 -0.490727 -4.8241 0
M  V30 9029 N 894.251 1.57596 -0.0117121 0
M  V30 9030 C 895.667 1.55837 0.344506 0
M  V30 9031 C 895.867 1.01557 1.74036 0
M  V30 9032 O 894.923 0.654563 2.43868 0
M  V30 9033 C 896.236 2.99973 0.209023 0
M  V30 9034 C 897.784 3.11717 0.283092 0
M  V30 9035 C 898.259 4.57659 0.176599 0
M  V30 9036 N 899.75 4.62608 0.234133 0
M  V30 9037 C 900.485 5.73132 0.175252 0
M  V30 9038 N 899.981 6.92768 0.0662888 0
M  V30 9039 N 901.774 5.61638 0.227972 0
M  V30 9040 H 893.925 1.91215 -0.924692 0
M  V30 9041 H 896.188 0.878807 -0.355531 0
M  V30 9042 H 895.894 3.4357 -0.751826 0
M  V30 9043 H 895.768 3.64075 0.98635 0
M  V30 9044 H 898.155 2.68043 1.23439 0
M  V30 9045 H 898.236 2.50369 -0.52431 0
M  V30 9046 H 897.88 5.02011 -0.771205 0
M  V30 9047 H 897.81 5.16967 1.00264 0
M  V30 9048 H 900.301 3.76549 0.319203 0
M  V30 9049 H 900.614 7.72795 0.0275765 0
M  V30 9050 H 898.959 6.94993 0.0317502 0
M  V30 9051 H 902.15 4.67063 0.311377 0
M  V30 9052 H 902.323 6.47754 0.178621 0
M  V30 9053 N 895.729 -0.261212 1.5542 0
M  V30 9054 C 896.677 -1.34298 1.89913 0
M  V30 9055 C 897.671 -1.50547 0.776665 0
M  V30 9056 O 898.877 -1.52191 0.961139 0
M  V30 9057 H 895.252 -0.4494 0.602946 0
M  V30 9058 H 897.223 -1.02464 2.80256 0
M  V30 9059 C 895.972 -2.69423 2.19788 0
M  V30 9060 H 895.295 -2.57715 3.05652 0
M  V30 9061 H 896.735 -3.44026 2.47835 0
M  V30 9062 C 895.194 -3.21423 1.00939 0
M  V30 9063 O 895.724 -4.00921 0.250034 0
M  V30 9064 N 893.93 -2.7926 0.803883 0
M  V30 9065 H 893.477 -2.14724 1.42308 0
M  V30 9066 H 893.435 -3.14398 0.0103257 0
M  V30 9067 N 897.207 -1.48554 -0.526253 0
M  V30 9068 C 898.447 -1.58362 -1.29232 0
M  V30 9069 C 898.811 -0.253353 -1.90321 0
M  V30 9070 O 900.012 -0.226439 -2.67845 0
M  V30 9071 C 898.283 -2.69294 -2.3498 0
M  V30 9072 S 899.842 -2.98891 -3.21262 0
M  V30 9073 H 896.66 -0.558859 -0.439543 0
M  V30 9074 H 899.262 -1.86094 -0.599099 0
M  V30 9075 H 897.966 -3.64504 -1.88587 0
M  V30 9076 H 897.497 -2.43475 -3.09004 0
M  V30 9077 H 899.512 -2.38475 -4.35137 0
M  V30 9078 N 898.685 0.775411 -1.37205 0
M  V30 9079 C 900.101 1.07546 -1.17924 0
M  V30 9080 C 900.301 2.01496 -0.0128897 0
M  V30 9081 O 899.357 2.44039 0.64816 0
M  V30 9082 C 900.67 1.67647 -2.49629 0
M  V30 9083 C 902.218 1.79923 -2.56119 0
M  V30 9084 C 902.693 2.43438 -3.87946 0
M  V30 9085 N 904.184 2.50893 -3.89368 0
M  V30 9086 C 904.919 3.00881 -4.88117 0
M  V30 9087 N 904.415 3.5107 -5.97262 0
M  V30 9088 N 906.208 2.99722 -4.75524 0
M  V30 9089 H 898.359 0.151524 -2.11859 0
M  V30 9090 H 900.622 0.129845 -0.939066 0
M  V30 9091 H 900.328 1.06082 -3.3532 0
M  V30 9092 H 900.202 2.66988 -2.66453 0
M  V30 9093 H 902.589 2.40621 -1.70838 0
M  V30 9094 H 902.67 0.793482 -2.43182 0
M  V30 9095 H 902.314 1.8338 -4.73639 0
M  V30 9096 H 902.244 3.44611 -3.98184 0
M  V30 9097 H 904.735 2.1537 -3.10522 0
M  V30 9098 H 905.048 3.87604 -6.68568 0
M  V30 9099 H 903.393 3.49184 -6.00912 0
M  V30 9100 H 906.584 2.5981 -3.8938 0
M  V30 9101 H 906.757 3.38369 -5.52639 0
M  V30 9102 N 900.163 1.21714 1.00117 0
M  V30 9103 C 901.393 1.06124 1.77261 0
M  V30 9104 C 901.801 -0.391717 1.85101 0
M  V30 9105 O 901.144 -1.28347 1.31426 0
M  V30 9106 C 901.206 1.58778 3.22536 0
M  V30 9107 C 900.87 3.07289 3.38264 0
M  V30 9108 C 901.867 4.04801 3.26239 0
M  V30 9109 C 899.552 3.46574 3.63582 0
M  V30 9110 C 901.546 5.39585 3.39303 0
M  V30 9111 C 899.233 4.81509 3.76288 0
M  V30 9112 C 900.231 5.77824 3.64155 0
M  V30 9113 O 899.919 7.1031 3.7645 0
M  V30 9114 H 899.651 0.372979 0.563793 0
M  V30 9115 H 902.205 1.61589 1.26799 0
M  V30 9116 H 900.435 0.977129 3.74151 0
M  V30 9117 H 902.124 1.38974 3.81367 0
M  V30 9118 H 902.89 3.75795 3.066 0
M  V30 9119 H 898.769 2.72137 3.72106 0
M  V30 9120 H 902.313 6.14744 3.2975 0
M  V30 9121 H 898.21 5.102 3.95432 0
M  V30 9122 H 898.978 7.17774 3.93374 0
M  V30 9123 N 901.641 -1.19671 1.02551 0
M  V30 9124 C 902.918 -1.85014 0.634771 0
M  V30 9125 C 903.298 -1.91574 -0.886706 0
M  V30 9126 O 902.646 -1.43022 -1.78205 0
M  V30 9127 C 902.856 -3.24167 1.29292 0
M  V30 9128 C 904.204 -4.00363 1.41402 0
M  V30 9129 O 905.228 -3.33553 1.24983 0
M  V30 9130 O 904.087 -5.2003 1.6802 0
M  V30 9131 H 901.181 -0.797147 0.220196 0
M  V30 9132 H 903.727 -1.27188 1.12345 0
M  V30 9133 H 902.499 -3.14208 2.33215 0
M  V30 9134 H 902.122 -3.89634 0.791895 0
M  V30 9135 N 903.119 -0.802921 -1.35613 0
M  V30 9136 C 904.365 -0.382141 -1.99167 0
M  V30 9137 C 904.698 1.04704 -1.63556 0
M  V30 9138 O 903.973 1.72578 -0.89706 0
M  V30 9139 C 904.256 -0.561493 -3.55695 0
M  V30 9140 C 904.109 -2.03534 -4.01116 0
M  V30 9141 C 905.428 0.0151135 -4.40097 0
M  V30 9142 H 902.547 -0.140322 -0.723518 0
M  V30 9143 H 905.189 -1.01177 -1.6082 0
M  V30 9144 H 903.339 -0.0255083 -3.88492 0
M  V30 9145 H 905.011 -2.63343 -3.78746 0
M  V30 9146 H 903.254 -2.5331 -3.52159 0
M  V30 9147 H 903.925 -2.11173 -5.1001 0
M  V30 9148 H 906.401 -0.442582 -4.1374 0
M  V30 9149 H 905.277 -0.140316 -5.48721 0
M  V30 9150 H 905.538 1.10848 -4.27978 0
M  V30 9151 N 904.597 1.47463 -0.556102 0
M  V30 9152 C 905.837 2.04372 -0.0339743 0
M  V30 9153 C 906.201 1.42125 1.29091 0
M  V30 9154 O 907.402 1.90074 1.90066 0
M  V30 9155 C 905.673 3.57352 0.0585316 0
M  V30 9156 S 907.232 4.35625 0.526943 0
M  V30 9157 H 904.05 0.710574 -0.0246115 0
M  V30 9158 H 906.652 1.80848 -0.742585 0
M  V30 9159 H 905.356 4.00181 -0.910116 0
M  V30 9160 H 904.887 3.85371 0.790731 0
M  V30 9161 H 906.902 4.62911 1.78683 0
M  V30 9162 N 906.075 0.2925 1.54862 0
M  V30 9163 C 907.3 -0.32494 2.04839 0
M  V30 9164 C 907.725 -1.47381 1.16877 0
M  V30 9165 O 907.083 -1.80492 0.171028 0
M  V30 9166 C 907.131 -0.76694 3.5235 0
M  V30 9167 O 906.235 -1.87256 3.67436 0
M  V30 9168 H 905.576 -0.0645195 0.660858 0
M  V30 9169 H 908.106 0.431867 1.9999 0
M  V30 9170 H 908.116 -1.05804 3.94043 0
M  V30 9171 H 906.791 0.0735212 4.15835 0
M  V30 9172 H 905.368 -1.58266 3.37648 0
M  V30 9173 N 907.553 -1.57587 0.0200696 0
M  V30 9174 C 908.793 -1.93287 -0.66479 0
M  V30 9175 C 909.157 -0.896022 -1.6981 0
M  V30 9176 O 910.358 -1.13892 -2.43479 0
M  V30 9177 C 908.629 -3.33949 -1.27328 0
M  V30 9178 S 910.188 -3.91564 -1.98047 0
M  V30 9179 H 907.006 -0.676397 -0.219106 0
M  V30 9180 H 909.608 -1.9533 0.081568 0
M  V30 9181 H 908.312 -4.07235 -0.508673 0
M  V30 9182 H 907.843 -3.35329 -2.05714 0
M  V30 9183 H 909.858 -3.74265 -3.25791 0
M  V30 9184 N 909.032 0.252966 -1.55557 0
M  V30 9185 C 910.257 1.0038 -1.8149 0
M  V30 9186 C 910.682 1.78397 -0.596318 0
M  V30 9187 O 910.04 1.7551 0.454535 0
M  V30 9188 C 910.088 1.9222 -3.05096 0
M  V30 9189 O 909.192 3.01302 -2.81587 0
M  V30 9190 H 908.533 0.285949 -0.599274 0
M  V30 9191 H 911.063 0.275795 -2.02733 0
M  V30 9192 H 911.073 2.338 -3.34368 0
M  V30 9193 H 909.748 1.34852 -3.93431 0
M  V30 9194 H 908.325 2.63894 -2.63466 0
M  V30 9195 N 910.51 1.48831 0.518367 0
M  V30 9196 C 911.787 1.47933 1.27966 0
M  V30 9197 C 912.167 0.197393 2.10175 0
M  V30 9198 O 911.515 -0.820656 2.13255 0
M  V30 9199 C 911.725 2.74816 2.15121 0
M  V30 9200 C 913.073 3.23613 2.74881 0
M  V30 9201 O 914.097 2.75814 2.254 0
M  V30 9202 O 912.956 4.06818 3.64913 0
M  V30 9203 H 910.05 0.591316 0.578164 0
M  V30 9204 H 912.596 1.61077 0.534065 0
M  V30 9205 H 911.368 3.59621 1.54234 0
M  V30 9206 H 910.991 2.64449 2.96905 0
M  V30 9207 N 911.988 -0.768124 1.37614 0
M  V30 9208 C 913.236 -1.52379 1.3276 0
M  V30 9209 C 913.557 -1.94809 -0.0863564 0
M  V30 9210 O 912.827 -1.66568 -1.03112 0
M  V30 9211 H 911.407 -0.565179 0.488448 0
M  V30 9212 H 914.069 -0.913974 1.72141 0
M  V30 9213 H 913.165 -2.4215 1.96901 0
M  V30 9214 N 913.466 -1.22244 -0.994698 0
M  V30 9215 C 914.882 -0.982006 -1.25813 0
M  V30 9216 C 915.082 0.325488 -1.98854 0
M  V30 9217 O 914.138 1.04857 -2.29698 0
M  V30 9218 C 915.451 -2.1795 -2.07167 0
M  V30 9219 C 916.999 -2.22287 -2.20358 0
M  V30 9220 C 917.474 -3.41583 -3.05098 0
M  V30 9221 N 918.965 -3.41734 -3.12686 0
M  V30 9222 C 919.7 -4.30692 -3.78539 0
M  V30 9223 N 919.196 -5.29865 -4.46335 0
M  V30 9224 N 920.989 -4.18473 -3.75283 0
M  V30 9225 H 913.14 -2.0631 -0.504963 0
M  V30 9226 H 915.403 -0.90395 -0.285618 0
M  V30 9227 H 915.109 -3.12758 -1.60858 0
M  V30 9228 H 914.983 -2.17862 -3.07922 0
M  V30 9229 H 917.37 -1.28028 -2.65881 0
M  V30 9230 H 917.451 -2.26414 -1.19039 0
M  V30 9231 H 917.095 -4.36141 -2.60275 0
M  V30 9232 H 917.025 -3.34695 -4.06555 0
M  V30 9233 H 919.516 -2.69969 -2.64433 0
M  V30 9234 H 919.829 -5.94027 -4.9432 0
M  V30 9235 H 918.174 -5.3378 -4.45089 0
M  V30 9236 H 921.365 -3.40249 -3.21478 0
M  V30 9237 H 921.538 -4.88007 -4.26326 0
M  V30 9238 N 914.944 1.19125 -1.03184 0
M  V30 9239 C 915.854 2.26112 -0.625329 0
M  V30 9240 C 916.87 1.7056 0.344298 0
M  V30 9241 O 918.046 2.0039 0.20144 0
M  V30 9242 C 915.111 3.46697 0.0145169 0
M  V30 9243 C 914.172 4.17419 -1.00299 0
M  V30 9244 C 913.405 5.32247 -0.393581 0
M  V30 9245 O 913.628 5.64724 0.802659 0
M  V30 9246 O 912.562 5.91428 -1.1179 0
M  V30 9247 H 916.388 2.63131 -1.51643 0
M  V30 9248 H 913.973 1.26036 -0.802197 0
M  V30 9249 H 915.855 4.19762 0.371139 0
M  V30 9250 H 914.53 3.11521 0.879581 0
M  V30 9251 H 913.437 3.4646 -1.41125 0
M  V30 9252 H 914.77 4.56573 -1.83852 0
M  V30 9253 N 916.422 0.810101 1.35185 0
M  V30 9254 C 917.662 0.397802 2.00492 0
M  V30 9255 C 918.026 -1.01684 1.62863 0
M  V30 9256 O 919.227 -1.53133 2.20916 0
M  V30 9257 C 917.498 0.579524 3.5267 0
M  V30 9258 S 919.057 0.258169 4.3804 0
M  V30 9259 H 915.875 0.150904 0.694801 0
M  V30 9260 H 918.477 1.05312 1.64711 0
M  V30 9261 H 917.181 1.60901 3.77543 0
M  V30 9262 H 916.712 -0.0909886 3.93295 0
M  V30 9263 H 918.727 -0.932882 4.87352 0
M  V30 9264 N 917.9 -1.47166 0.563914 0
M  V30 9265 C 918.83 -2.32894 -0.168148 0
M  V30 9266 C 919.811 -1.44202 -0.902214 0
M  V30 9267 O 920.996 -1.73048 -0.881365 0
M  V30 9268 C 918.126 -3.26116 -1.19439 0
M  V30 9269 C 917.08 -4.24101 -0.576363 0
M  V30 9270 C 916.406 -5.06696 -1.70772 0
M  V30 9271 C 917.706 -5.20142 0.47425 0
M  V30 9272 H 919.4 -2.9435 0.547573 0
M  V30 9273 H 916.946 -1.41545 0.264778 0
M  V30 9274 H 918.899 -3.84935 -1.71474 0
M  V30 9275 H 917.623 -2.62728 -1.94014 0
M  V30 9276 H 916.282 -3.66519 -0.0772534 0
M  V30 9277 H 915.93 -4.39707 -2.44268 0
M  V30 9278 H 915.63 -5.7304 -1.29994 0
M  V30 9279 H 917.154 -5.68375 -2.2312 0
M  V30 9280 H 918.568 -5.73286 0.0397035 0
M  V30 9281 H 916.965 -5.94726 0.801287 0
M  V30 9282 H 918.035 -4.65214 1.36764 0
M  V30 9283 N 919.378 -0.300708 -1.54705 0
M  V30 9284 C 920.618 0.30953 -2.02043 0
M  V30 9285 C 920.982 1.51114 -1.18442 0
M  V30 9286 O 922.183 2.19273 -1.55477 0
M  V30 9287 C 920.454 0.657489 -3.513 0
M  V30 9288 S 922.013 1.25063 -4.206 0
M  V30 9289 H 918.831 0.0950019 -0.704624 0
M  V30 9290 H 921.433 -0.428512 -1.90746 0
M  V30 9291 H 920.137 -0.225532 -4.0978 0
M  V30 9292 H 919.668 1.42633 -3.66633 0
M  V30 9293 H 921.683 2.53844 -4.26354 0
M  V30 9294 N 920.856 1.57574 -0.0284266 0
M  V30 9295 C 922.104 1.91393 0.649079 0
M  V30 9296 C 922.425 0.905368 1.72708 0
M  V30 9297 O 921.695 -0.0532107 1.95828 0
M  V30 9298 H 920.275 0.70646 0.24274 0
M  V30 9299 H 922.937 1.94752 -0.076066 0
M  V30 9300 H 922.033 2.91988 1.10226 0
M  V30 9301 N 922.334 -0.244713 1.55689 0
M  V30 9302 C 923.297 -1.2864 1.89695 0
M  V30 9303 C 924.297 -1.40969 0.773583 0
M  V30 9304 O 925.487 -1.39632 1.04156 0
M  V30 9305 C 922.619 -2.66379 2.12732 0
M  V30 9306 H 923.812 -0.997033 2.82841 0
M  V30 9307 H 921.365 -0.484103 1.48614 0
M  V30 9308 H 922.1 -3.00452 1.22062 0
M  V30 9309 H 921.885 -2.58812 2.94549 0
M  V30 9310 H 923.375 -3.41592 2.40218 0
M  V30 9311 N 923.813 -1.49104 -0.510467 0
M  V30 9312 C 924.743 -1.67981 -1.62187 0
M  V30 9313 C 925.724 -0.528529 -1.6168 0
M  V30 9314 O 926.909 -0.763305 -1.7857 0
M  V30 9315 C 924.039 -1.73755 -3.0071 0
M  V30 9316 C 922.993 -2.88579 -3.1608 0
M  V30 9317 C 922.319 -2.79457 -4.5586 0
M  V30 9318 C 923.619 -4.29638 -2.97 0
M  V30 9319 H 925.313 -2.61029 -1.46643 0
M  V30 9320 H 922.859 -1.25615 -0.704042 0
M  V30 9321 H 924.812 -1.85548 -3.78352 0
M  V30 9322 H 923.536 -0.772996 -3.17321 0
M  V30 9323 H 922.195 -2.76372 -2.40861 0
M  V30 9324 H 921.843 -1.80929 -4.69333 0
M  V30 9325 H 921.543 -3.56518 -4.67086 0
M  V30 9326 H 923.067 -2.93245 -5.35574 0
M  V30 9327 H 924.481 -4.42575 -3.64418 0
M  V30 9328 H 922.878 -5.07847 -3.19704 0
M  V30 9329 H 923.948 -4.44741 -1.93219 0
M  V30 9330 N 925.291 0.760815 -1.38019 0
M  V30 9331 C 926.254 1.85604 -1.34476 0
M  V30 9332 C 927.254 1.58897 -0.24666 0
M  V30 9333 O 928.444 1.66776 -0.50314 0
M  V30 9334 C 925.576 3.22945 -1.09176 0
M  V30 9335 H 926.769 1.90155 -2.31908 0
M  V30 9336 H 924.322 0.961746 -1.23208 0
M  V30 9337 H 925.057 3.24066 -0.123216 0
M  V30 9338 H 924.842 3.43723 -1.88672 0
M  V30 9339 H 926.332 4.03022 -1.09375 0
M  V30 9340 N 926.769 1.22769 0.988202 0
M  V30 9341 C 927.994 1.08239 1.76915 0
M  V30 9342 C 928.419 -0.362519 1.84574 0
M  V30 9343 O 927.777 -1.26202 1.30165 0
M  V30 9344 C 927.825 1.70363 3.17819 0
M  V30 9345 O 926.929 0.960484 4.01059 0
M  V30 9346 H 926.27 0.379872 0.544604 0
M  V30 9347 H 928.8 1.62663 1.24104 0
M  V30 9348 H 928.81 1.7528 3.6843 0
M  V30 9349 H 927.485 2.75505 3.1156 0
M  V30 9350 H 926.062 0.987667 3.59582 0
M  V30 9351 N 928.247 -1.18576 1.03814 0
M  V30 9352 C 929.477 -1.92158 0.758864 0
M  V30 9353 C 929.885 -1.76267 -0.687498 0
M  V30 9354 O 929.228 -1.08806 -1.4801 0
M  V30 9355 C 929.29 -3.44063 1.04217 0
M  V30 9356 C 928.954 -3.8373 2.48193 0
M  V30 9357 C 929.951 -3.87722 3.46363 0
M  V30 9358 C 927.636 -4.151 2.82838 0
M  V30 9359 C 929.63 -4.2253 4.77229 0
M  V30 9360 C 927.317 -4.49578 4.13911 0
M  V30 9361 C 928.315 -4.53269 5.10917 0
M  V30 9362 O 928.003 -4.86945 6.39641 0
M  V30 9363 H 927.735 -0.61694 0.276335 0
M  V30 9364 H 930.289 -1.51388 1.38819 0
M  V30 9365 H 928.519 -3.85061 0.355709 0
M  V30 9366 H 930.208 -3.9889 0.751091 0
M  V30 9367 H 930.974 -3.63627 3.20936 0
M  V30 9368 H 926.853 -4.11406 2.08006 0
M  V30 9369 H 930.397 -4.25326 5.52941 0
M  V30 9370 H 926.294 -4.73133 4.39107 0
M  V30 9371 H 927.062 -5.04857 6.44253 0
M  V30 9372 N 929.725 -0.817259 -1.34754 0
M  V30 9373 C 930.688 -0.240611 -2.27934 0
M  V30 9374 C 931.688 0.578219 -1.50044 0
M  V30 9375 O 932.878 0.395148 -1.69659 0
M  V30 9376 C 930.01 0.663318 -3.34384 0
M  V30 9377 H 931.203 -1.06257 -2.80445 0
M  V30 9378 H 928.756 -0.588697 -1.4479 0
M  V30 9379 H 929.491 1.50855 -2.87077 0
M  V30 9380 H 929.276 0.0777388 -3.92023 0
M  V30 9381 H 930.766 1.06076 -4.03903 0
M  V30 9382 N 931.203 1.46865 -0.571711 0
M  V30 9383 C 932.166 2.28658 0.157499 0
M  V30 9384 C 933.166 1.37773 0.829172 0
M  V30 9385 O 934.356 1.6026 0.682811 0
M  V30 9386 C 931.488 3.17859 1.23202 0
M  V30 9387 H 932.681 2.94603 -0.561171 0
M  V30 9388 H 930.234 1.52793 -0.329229 0
M  V30 9389 H 930.969 2.56637 1.98262 0
M  V30 9390 H 930.754 3.84762 0.755031 0
M  V30 9391 H 932.244 3.7945 1.74378 0
M  V30 9392 N 932.681 0.308908 1.54543 0
M  V30 9393 C 933.644 -0.550857 2.22482 0
M  V30 9394 C 934.644 -1.0551 1.21344 0
M  V30 9395 O 935.834 -0.949866 1.46025 0
M  V30 9396 C 932.966 -1.76354 2.9174 0
M  V30 9397 H 934.159 0.0428395 2.99869 0
M  V30 9398 H 931.712 0.059825 1.56185 0
M  V30 9399 H 932.447 -2.39686 2.18451 0
M  V30 9400 H 932.232 -1.40954 3.65889 0
M  V30 9401 H 933.722 -2.37417 3.43545 0
M  V30 9402 N 934.159 -1.57557 0.0367827 0
M  V30 9403 C 935.399 -1.93981 -0.644252 0
M  V30 9404 C 935.763 -0.913982 -1.6885 0
M  V30 9405 O 936.964 -1.16468 -2.42257 0
M  V30 9406 C 935.235 -3.35281 -1.23779 0
M  V30 9407 S 936.794 -3.93643 -1.93883 0
M  V30 9408 H 933.612 -0.678683 -0.21192 0
M  V30 9409 H 936.214 -1.95232 0.102281 0
M  V30 9410 H 934.918 -4.07752 -0.465451 0
M  V30 9411 H 934.449 -3.37492 -2.02146 0
M  V30 9412 H 936.464 -3.777 -3.21803 0
M  V30 9413 N 935.637 0.236453 -1.55816 0
M  V30 9414 C 936.6 1.27633 -1.90375 0
M  V30 9415 C 937.6 1.40557 -0.781048 0
M  V30 9416 O 938.79 1.39078 -1.04895 0
M  V30 9417 C 935.922 2.65247 -2.14142 0
M  V30 9418 H 937.115 0.982019 -2.83366 0
M  V30 9419 H 934.668 0.476215 -1.48869 0
M  V30 9420 H 935.403 2.99801 -1.23653 0
M  V30 9421 H 935.188 2.57246 -2.95917 0
M  V30 9422 H 936.678 3.40313 -2.42026 0
M  V30 9423 N 937.115 1.49373 0.502552 0
M  V30 9424 C 938.363 1.58467 1.25429 0
M  V30 9425 C 938.684 0.272593 1.93085 0
M  V30 9426 O 937.954 -0.707947 1.82661 0
M  V30 9427 H 936.534 0.583866 0.46595 0
M  V30 9428 H 939.196 1.8599 0.582568 0
M  V30 9429 H 938.292 2.37993 2.01906 0
M  V30 9430 N 938.594 -0.753485 1.38421 0
M  V30 9431 C 940.01 -1.05656 1.1962 0
M  V30 9432 C 940.21 -2.0145 0.0449443 0
M  V30 9433 O 939.266 -2.45039 -0.609253 0
M  V30 9434 C 940.579 -1.63655 2.52265 0
M  V30 9435 C 942.127 -1.75825 2.58949 0
M  V30 9436 C 942.602 -2.37236 3.91769 0
M  V30 9437 N 944.093 -2.44666 3.9331 0
M  V30 9438 C 944.828 -2.93077 4.92842 0
M  V30 9439 N 944.324 -3.41523 6.02772 0
M  V30 9440 N 946.117 -2.92118 4.80232 0
M  V30 9441 H 938.268 -0.117799 2.12073 0
M  V30 9442 H 940.531 -0.114889 0.941012 0
M  V30 9443 H 940.237 -1.00734 3.36965 0
M  V30 9444 H 940.111 -2.62715 2.70667 0
M  V30 9445 H 942.498 -2.37873 1.74644 0
M  V30 9446 H 942.579 -0.754693 2.44414 0
M  V30 9447 H 942.223 -1.75822 4.76497 0
M  V30 9448 H 942.153 -3.38233 4.03616 0
M  V30 9449 H 944.644 -2.10403 3.1391 0
M  V30 9450 H 944.957 -3.76919 6.74649 0
M  V30 9451 H 943.302 -3.3958 6.06391 0
M  V30 9452 H 946.493 -2.53582 3.93464 0
M  V30 9453 H 946.666 -3.29535 5.57952 0
M  V30 9454 N 940.072 -1.23292 -0.981677 0
M  V30 9455 C 941.32 -1.06214 -1.71939 0
M  V30 9456 C 941.641 0.401989 -1.90812 0
M  V30 9457 O 940.911 1.28825 -1.47584 0
M  V30 9458 H 939.491 -0.390042 -0.637084 0
M  V30 9459 H 942.153 -1.54988 -1.18173 0
M  V30 9460 H 941.249 -1.54904 -2.70945 0
M  V30 9461 N 941.55 1.18024 -1.04442 0
M  V30 9462 C 942.796 1.88377 -0.751133 0
M  V30 9463 C 943.129 1.80377 0.719571 0
M  V30 9464 O 942.404 1.20662 1.52548 0
M  V30 9465 C 942.687 3.38708 -1.22265 0
M  V30 9466 C 942.54 3.55499 -2.75574 0
M  V30 9467 C 943.859 4.32475 -0.815688 0
M  V30 9468 H 940.978 0.684037 -0.27434 0
M  V30 9469 H 943.62 1.38837 -1.29709 0
M  V30 9470 H 941.77 3.8103 -0.758192 0
M  V30 9471 H 943.442 3.22244 -3.30086 0
M  V30 9472 H 941.685 2.98028 -3.15217 0
M  V30 9473 H 942.356 4.60994 -3.03625 0
M  V30 9474 H 944.832 3.97953 -1.21542 0
M  V30 9475 H 943.708 5.36213 -1.17331 0
M  V30 9476 H 943.969 4.41207 0.280901 0
M  V30 9477 N 943.028 0.824394 1.34319 0
M  V30 9478 C 944.444 0.510336 1.51221 0
M  V30 9479 C 944.644 -0.965201 1.76879 0
M  V30 9480 O 943.7 -1.74961 1.82057 0
M  V30 9481 C 945.013 1.37114 2.6762 0
M  V30 9482 C 946.561 1.36842 2.81502 0
M  V30 9483 C 947.036 2.21374 4.00946 0
M  V30 9484 N 948.527 2.19005 4.08156 0
M  V30 9485 C 949.262 2.81159 4.99737 0
M  V30 9486 N 948.758 3.52309 5.96532 0
M  V30 9487 N 950.551 2.70706 4.9262 0
M  V30 9488 H 942.702 1.77976 1.15924 0
M  V30 9489 H 944.965 0.758503 0.568663 0
M  V30 9490 H 944.671 2.41905 2.55294 0
M  V30 9491 H 944.545 1.03689 3.62669 0
M  V30 9492 H 946.932 0.328284 2.93268 0
M  V30 9493 H 947.013 1.74265 1.87257 0
M  V30 9494 H 946.657 3.25437 3.8994 0
M  V30 9495 H 946.587 1.813 4.94407 0
M  V30 9496 H 949.078 1.67252 3.38874 0
M  V30 9497 H 949.391 3.96977 6.63045 0
M  V30 9498 H 947.736 3.56415 5.96652 0
M  V30 9499 H 950.927 2.14694 4.15962 0
M  V30 9500 H 951.1 3.19431 5.63798 0
M  V30 9501 N 944.506 -1.46559 0.579492 0
M  V30 9502 C 945.752 -2.02699 0.0639363 0
M  V30 9503 C 946.085 -1.4504 -1.29139 0
M  V30 9504 O 945.36 -0.614284 -1.84545 0
M  V30 9505 C 945.643 -3.601 -0.00528618 0
M  V30 9506 C 945.496 -4.28149 1.37871 0
M  V30 9507 C 946.815 -4.34375 -0.707537 0
M  V30 9508 H 943.934 -0.736586 0.0247085 0
M  V30 9509 H 946.576 -1.74739 0.746071 0
M  V30 9510 H 944.726 -3.84052 -0.586206 0
M  V30 9511 H 946.398 -4.1547 2.00455 0
M  V30 9512 H 944.641 -3.87636 1.94732 0
M  V30 9513 H 945.312 -5.36888 1.28278 0
M  V30 9514 H 947.788 -4.15549 -0.214064 0
M  V30 9515 H 946.664 -5.44091 -0.724992 0
M  V30 9516 H 946.925 -4.052 -1.7682 0
M  V30 9517 N 945.984 -0.3171 -1.54377 0
M  V30 9518 C 946.947 0.53905 -2.22771 0
M  V30 9519 C 947.947 1.04865 -1.21901 0
M  V30 9520 O 949.137 0.942108 -1.46526 0
M  V30 9521 C 946.269 1.74804 -2.92671 0
M  V30 9522 H 947.462 -0.0587417 -2.99842 0
M  V30 9523 H 945.015 -0.068107 -1.56152 0
M  V30 9524 H 945.75 2.38524 -2.1972 0
M  V30 9525 H 945.535 1.39011 -3.66631 0
M  V30 9526 H 947.025 2.35592 -3.44799 0
M  V30 9527 N 947.462 1.57535 -0.0451378 0
M  V30 9528 C 948.708 1.93558 0.62505 0
M  V30 9529 C 949.063 0.923159 1.68806 0
M  V30 9530 O 948.356 -0.0585419 1.91511 0
M  V30 9531 C 948.55 3.34065 1.27024 0
M  V30 9532 C 948.379 4.48881 0.271253 0
M  V30 9533 C 947.149 5.05121 -0.13462 0
M  V30 9534 C 949.347 5.12047 -0.480911 0
M  V30 9535 N 947.329 6.03465 -1.1271 0
M  V30 9536 C 948.7 6.0564 -1.32666 0
M  V30 9537 C 950.755 4.94964 -0.539878 0
M  V30 9538 C 949.458 6.83987 -2.22608 0
M  V30 9539 C 951.484 5.73933 -1.4267 0
M  V30 9540 C 950.846 6.67154 -2.26019 0
M  V30 9541 H 946.945 0.755846 0.20055 0
M  V30 9542 H 949.529 1.94354 -0.116059 0
M  V30 9543 H 947.7 3.34058 1.98141 0
M  V30 9544 H 949.432 3.57393 1.89875 0
M  V30 9545 H 946.187 4.72976 0.243112 0
M  V30 9546 H 946.611 6.5733 -1.62006 0
M  V30 9547 H 951.253 4.22704 0.0902834 0
M  V30 9548 H 948.971 7.55543 -2.86672 0
M  V30 9549 H 952.557 5.62744 -1.47682 0
M  V30 9550 H 951.437 7.27194 -2.93528 0
M  V30 9551 N 948.94 -0.228186 1.55939 0
M  V30 9552 C 950.356 -0.577583 1.48782 0
M  V30 9553 C 950.556 -1.87461 0.738972 0
M  V30 9554 O 949.612 -2.50988 0.275929 0
M  V30 9555 C 950.925 -0.662961 2.93301 0
M  V30 9556 C 952.473 -0.754035 3.03782 0
M  V30 9557 C 952.948 -0.870815 4.49645 0
M  V30 9558 N 954.439 -0.935208 4.53661 0
M  V30 9559 C 955.174 -1.04516 5.63794 0
M  V30 9560 N 954.67 -1.11948 6.83696 0
M  V30 9561 N 956.463 -1.07978 5.51631 0
M  V30 9562 H 948.614 0.623018 2.03057 0
M  V30 9563 H 950.877 0.217692 0.922667 0
M  V30 9564 H 950.583 0.220375 3.51009 0
M  V30 9565 H 950.457 -1.52876 3.44831 0
M  V30 9566 H 952.844 -1.62782 2.46143 0
M  V30 9567 H 952.925 0.137301 2.55431 0
M  V30 9568 H 952.569 -0.0015186 5.079 0
M  V30 9569 H 952.499 -1.77747 4.95695 0
M  V30 9570 H 954.99 -0.88836 3.6731 0
M  V30 9571 H 955.303 -1.20297 7.6338 0
M  V30 9572 H 953.648 -1.08873 6.8642 0
M  V30 9573 H 956.839 -1.01833 4.56889 0
M  V30 9574 H 957.012 -1.16202 6.37496 0
M  V30 9575 N 950.418 -1.49637 -0.494624 0
M  V30 9576 C 951.328 -1.69522 -1.62172 0
M  V30 9577 C 952.344 -0.577894 -1.64123 0
M  V30 9578 O 953.52 -0.853382 -1.82426 0
M  V30 9579 C 950.585 -1.7633 -2.9851 0
M  V30 9580 C 949.646 -2.99944 -3.07135 0
M  V30 9581 C 948.879 -3.06419 -4.36971 0
M  V30 9582 O 949.102 -2.20312 -5.26136 0
M  V30 9583 O 948.036 -3.9894 -4.507 0
M  V30 9584 H 951.862 -2.65017 -1.48324 0
M  V30 9585 H 949.447 -1.33454 -0.671603 0
M  V30 9586 H 951.329 -1.83125 -3.7953 0
M  V30 9587 H 950.004 -0.840155 -3.12607 0
M  V30 9588 H 948.911 -2.98664 -2.2528 0
M  V30 9589 H 950.244 -3.9176 -2.97968 0
M  V30 9590 N 951.896 0.746133 -1.38819 0
M  V30 9591 C 953.307 1.32384 -1.31648 0
M  V30 9592 C 953.658 1.96185 0.0243086 0
M  V30 9593 O 952.783 1.95567 0.92641 0
M  V30 9594 C 953.378 2.40712 -2.38418 0
M  V30 9595 C 951.937 2.94185 -2.34803 0
M  V30 9596 C 951.084 1.67639 -2.20891 0
M  V30 9597 H 954.035 0.544457 -1.49068 0
M  V30 9598 H 954.056 3.20833 -2.04564 0
M  V30 9599 H 953.568 1.94247 -3.3599 0
M  V30 9600 H 951.669 3.44959 -1.40834 0
M  V30 9601 H 951.782 3.48057 -3.29231 0
M  V30 9602 H 950.146 1.9155 -1.67871 0
M  V30 9603 H 950.929 1.23242 -3.20416 0
M  V30 9604 N 953.375 1.23811 0.975125 0
M  V30 9605 C 954.623 1.07124 1.71373 0
M  V30 9606 C 954.944 -0.391864 1.91022 0
M  V30 9607 O 954.214 -1.28041 1.48265 0
M  V30 9608 H 952.794 0.393415 0.635007 0
M  V30 9609 H 955.456 1.55612 1.17349 0
M  V30 9610 H 954.552 1.56338 2.7012 0
M  V30 9611 N 954.853 -1.17469 1.05066 0
M  V30 9612 C 956.269 -1.39699 0.771769 0
M  V30 9613 C 956.469 -1.91253 -0.634382 0
M  V30 9614 O 955.525 -2.10334 -1.39699 0
M  V30 9615 C 956.838 -2.38886 1.82631 0
M  V30 9616 C 958.386 -2.52595 1.84838 0
M  V30 9617 C 958.861 -3.55054 2.89311 0
M  V30 9618 N 960.352 -3.6257 2.88266 0
M  V30 9619 C 961.087 -4.41603 3.65752 0
M  V30 9620 N 960.583 -5.24162 4.53019 0
M  V30 9621 N 962.376 -4.36464 3.54197 0
M  V30 9622 H 954.527 -0.823355 1.95792 0
M  V30 9623 H 956.79 -0.42432 0.847736 0
M  V30 9624 H 956.496 -2.08075 2.83545 0
M  V30 9625 H 956.37 -3.38371 1.66687 0
M  V30 9626 H 958.757 -2.82717 0.845888 0
M  V30 9627 H 958.838 -1.53188 2.04859 0
M  V30 9628 H 958.482 -3.2567 3.89745 0
M  V30 9629 H 958.412 -4.54162 2.66542 0
M  V30 9630 H 960.903 -3.03625 2.24989 0
M  V30 9631 H 961.216 -5.81646 5.0883 0
M  V30 9632 H 959.561 -5.23547 4.57081 0
M  V30 9633 H 962.752 -3.7102 2.85416 0
M  V30 9634 H 962.925 -4.97814 4.14832 0
M  V30 9635 N 956.331 -0.831506 -1.3388 0
M  V30 9636 C 957.571 -0.429648 -1.99833 0
M  V30 9637 C 957.935 0.990796 -1.6446 0
M  V30 9638 O 959.136 1.49599 -2.23324 0
M  V30 9639 C 957.407 -0.635558 -3.51704 0
M  V30 9640 S 958.966 -0.327824 -4.37574 0
M  V30 9641 H 955.784 -0.161939 -0.692313 0
M  V30 9642 H 958.386 -1.07919 -1.63015 0
M  V30 9643 H 957.09 -1.66887 -3.74936 0
M  V30 9644 H 956.621 0.0284073 -3.9339 0
M  V30 9645 H 958.636 0.855231 -4.88774 0
M  V30 9646 N 957.809 1.4625 -0.587256 0
M  V30 9647 C 958.719 2.34147 0.145744 0
M  V30 9648 C 959.735 1.50026 0.881376 0
M  V30 9649 O 960.911 1.82884 0.843539 0
M  V30 9650 C 957.976 3.27294 1.14366 0
M  V30 9651 C 957.037 4.27317 0.412199 0
M  V30 9652 C 956.27 5.16013 1.36257 0
M  V30 9653 O 956.493 5.0773 2.59934 0
M  V30 9654 O 955.427 5.95569 0.870681 0
M  V30 9655 H 959.253 2.98187 -0.576055 0
M  V30 9656 H 956.838 1.45299 -0.347628 0
M  V30 9657 H 958.72 3.84747 1.71894 0
M  V30 9658 H 957.395 2.65845 1.84684 0
M  V30 9659 H 956.302 3.73538 -0.205036 0
M  V30 9660 H 957.635 4.91564 -0.250104 0
M  V30 9661 N 959.287 0.325282 1.54207 0
M  V30 9662 C 960.217 -0.532574 2.27345 0
M  V30 9663 C 961.198 -1.11791 1.28206 0
M  V30 9664 O 962.383 -1.14272 1.57021 0
M  V30 9665 C 959.513 -1.69274 3.03255 0
M  V30 9666 C 958.467 -1.23662 4.09746 0
M  V30 9667 C 957.793 -2.48386 4.73506 0
M  V30 9668 C 959.093 -0.350244 5.21124 0
M  V30 9669 H 960.787 0.0775108 2.993 0
M  V30 9670 H 958.333 0.0387193 1.43948 0
M  V30 9671 H 960.286 -2.29917 3.53152 0
M  V30 9672 H 959.01 -2.32944 2.28921 0
M  V30 9673 H 957.669 -0.653106 3.60735 0
M  V30 9674 H 957.317 -3.10424 3.95786 0
M  V30 9675 H 957.017 -2.18558 5.45441 0
M  V30 9676 H 958.541 -3.09789 5.26178 0
M  V30 9677 H 959.955 -0.863011 5.66767 0
M  V30 9678 H 958.352 -0.14466 5.99926 0
M  V30 9679 H 959.422 0.618457 4.8094 0
M  V30 9680 N 960.765 -1.57509 0.0534917 0
M  V30 9681 C 961.713 -2.12851 -0.937931 0
M  V30 9682 C 962.707 -1.06088 -1.32067 0
M  V30 9683 O 963.913 -1.24494 -1.30005 0
M  V30 9684 H 960.288 -0.680357 -0.320342 0
M  V30 9685 H 962.259 -2.95047 -0.446077 0
M  V30 9686 C 961.008 -2.69034 -2.20264 0
M  V30 9687 H 960.331 -3.50848 -1.91693 0
M  V30 9688 H 961.771 -3.11375 -2.87788 0
M  V30 9689 C 960.23 -1.62919 -2.94888 0
M  V30 9690 O 960.76 -1.04334 -3.87914 0
M  V30 9691 N 958.966 -1.34385 -2.57661 0
M  V30 9692 H 958.513 -1.82214 -1.82088 0
M  V30 9693 H 958.471 -0.636149 -3.07897 0
M  V30 9694 N 962.243 0.219913 -1.56058 0
M  V30 9695 C 963.483 0.951113 -1.80923 0
M  V30 9696 C 963.847 1.81465 -0.627247 0
M  V30 9697 O 965.048 2.57972 -0.755237 0
M  V30 9698 C 963.319 1.76652 -3.10691 0
M  V30 9699 S 964.878 2.55314 -3.56876 0
M  V30 9700 H 961.696 0.319461 -0.635189 0
M  V30 9701 H 964.298 0.216551 -1.94297 0
M  V30 9702 H 963.002 1.12231 -3.94756 0
M  V30 9703 H 962.533 2.54335 -3.00128 0
M  V30 9704 H 964.548 3.78938 -3.20344 0
M  V30 9705 N 963.721 1.49897 0.486681 0
M  V30 9706 C 965.132 1.53142 1.06792 0
M  V30 9707 C 965.483 0.325856 1.93475 0
M  V30 9708 O 964.608 -0.562893 2.08951 0
M  V30 9709 C 965.203 2.77514 1.94348 0
M  V30 9710 C 963.762 2.83491 2.47609 0
M  V30 9711 C 962.909 2.47239 1.2557 0
M  V30 9712 H 965.86 1.56387 0.269962 0
M  V30 9713 H 965.881 2.58487 2.79221 0
M  V30 9714 H 965.393 3.65239 1.31232 0
M  V30 9715 H 963.494 2.0008 3.14323 0
M  V30 9716 H 963.607 3.86011 2.83782 0
M  V30 9717 H 961.971 1.99332 1.58552 0
M  V30 9718 H 962.754 3.37255 0.641404 0
M  V30 9719 N 965.199 -0.738761 1.39212 0
M  V30 9720 C 966.146 -1.85273 1.37631 0
M  V30 9721 C 967.116 -1.64407 0.236572 0
M  V30 9722 O 968.301 -1.85866 0.431104 0
M  V30 9723 C 965.441 -3.22745 1.22188 0
M  V30 9724 C 964.554 -3.55342 2.45674 0
M  V30 9725 C 963.689 -4.82195 2.22847 0
M  V30 9726 C 962.728 -5.07625 3.42029 0
M  V30 9727 N 961.865 -6.25679 3.18543 0
M  V30 9728 H 966.705 -1.85959 2.32859 0
M  V30 9729 H 964.242 -0.908716 1.15675 0
M  V30 9730 H 966.2 -4.02095 1.11245 0
M  V30 9731 H 964.83 -3.21347 0.30592 0
M  V30 9732 H 963.882 -2.70722 2.67233 0
M  V30 9733 H 965.194 -3.70054 3.34457 0
M  V30 9734 H 964.348 -5.69518 2.09126 0
M  V30 9735 H 963.087 -4.6965 1.31454 0
M  V30 9736 H 962.092 -4.18765 3.56253 0
M  V30 9737 H 963.317 -5.22058 4.34319 0
M  V30 9738 H 961.263 -6.14429 2.2981 0
M  V30 9739 H 961.18 -6.40961 4.0088 0
M  V30 9740 H 962.448 -7.15851 3.08508 0
M  V30 9741 N 966.677 -1.24326 -0.968545 0
M  V30 9742 C 967.925 -1.08032 -1.70803 0
M  V30 9743 C 968.246 0.381728 -1.91227 0
M  V30 9744 O 967.516 1.27253 -1.48942 0
M  V30 9745 H 966.096 -0.396777 -0.632912 0
M  V30 9746 H 968.758 -1.56232 -1.16523 0
M  V30 9747 H 967.854 -1.57769 -2.69287 0
M  V30 9748 N 968.156 1.1691 -1.05688 0
M  V30 9749 C 969.088 2.20648 -0.620237 0
M  V30 9750 C 970.101 1.59652 0.318604 0
M  V30 9751 O 971.29 1.78157 0.110553 0
M  V30 9752 C 968.39 3.38716 0.111729 0
M  V30 9753 C 967.563 4.29277 -0.839062 0
M  V30 9754 C 966.622 5.25993 -0.147453 0
M  V30 9755 O 965.648 5.63787 -0.783151 0
M  V30 9756 N 966.85 5.69725 1.11327 0
M  V30 9757 H 969.615 2.58731 -1.51256 0
M  V30 9758 H 967.176 1.31858 -0.939412 0
M  V30 9759 H 969.168 4.00455 0.584657 0
M  V30 9760 H 967.738 2.99189 0.905784 0
M  V30 9761 H 966.958 3.64894 -1.4915 0
M  V30 9762 H 968.246 4.86669 -1.48428 0
M  V30 9763 H 967.644 5.41103 1.64999 0
M  V30 9764 H 966.201 6.33584 1.53018 0
M  V30 9765 N 969.634 0.838594 1.33437 0
M  V30 9766 C 970.88 0.434813 1.98084 0
M  V30 9767 C 971.213 -1.00331 1.66275 0
M  V30 9768 O 970.488 -1.70139 0.942501 0
M  V30 9769 C 970.771 0.655602 3.54082 0
M  V30 9770 C 970.624 2.14097 3.95578 0
M  V30 9771 C 971.943 0.101576 4.39983 0
M  V30 9772 H 969.062 0.159456 0.719544 0
M  V30 9773 H 971.704 1.05406 1.58081 0
M  V30 9774 H 969.854 0.128501 3.88287 0
M  V30 9775 H 971.526 2.73292 3.71631 0
M  V30 9776 H 969.769 2.62558 3.4532 0
M  V30 9777 H 970.44 2.24621 5.04231 0
M  V30 9778 H 972.916 0.552122 4.12421 0
M  V30 9779 H 971.792 0.28575 5.48156 0
M  V30 9780 H 972.053 -0.994616 4.30767 0
M  V30 9781 N 971.112 -1.45937 0.595003 0
M  V30 9782 C 972.342 -2.06399 0.0911607 0
M  V30 9783 C 972.75 -1.44236 -1.22444 0
M  V30 9784 O 972.093 -0.546265 -1.7539 0
M  V30 9785 C 972.155 -3.59242 -0.136079 0
M  V30 9786 C 971.819 -4.43668 1.09579 0
M  V30 9787 C 972.816 -4.79437 2.01088 0
M  V30 9788 C 970.501 -4.84616 1.32109 0
M  V30 9789 C 972.495 -5.54995 3.13464 0
M  V30 9790 C 970.182 -5.5993 2.44788 0
M  V30 9791 C 971.18 -5.95035 3.35294 0
M  V30 9792 O 970.868 -6.68825 4.46014 0
M  V30 9793 H 970.6 -0.673316 0.0601779 0
M  V30 9794 H 973.154 -1.88365 0.819005 0
M  V30 9795 H 971.384 -3.75629 -0.918676 0
M  V30 9796 H 973.073 -4.0159 -0.589954 0
M  V30 9797 H 973.839 -4.48371 1.84902 0
M  V30 9798 H 969.718 -4.56735 0.625662 0
M  V30 9799 H 973.262 -5.82314 3.84131 0
M  V30 9800 H 969.159 -5.90411 2.60931 0
M  V30 9801 H 969.927 -6.87262 4.44537 0
M  V30 9802 N 972.59 -0.333456 -1.54032 0
M  V30 9803 C 973.52 0.52051 -2.27625 0
M  V30 9804 C 974.501 1.1111 -1.28797 0
M  V30 9805 O 975.686 1.13438 -1.57625 0
M  V30 9806 C 972.816 1.67663 -3.04149 0
M  V30 9807 C 971.77 1.21487 -4.10396 0
M  V30 9808 C 971.096 2.45872 -4.74817 0
M  V30 9809 C 972.396 0.322603 -5.21303 0
M  V30 9810 H 974.09 -0.0933823 -2.99254 0
M  V30 9811 H 971.636 -0.0463526 -1.43925 0
M  V30 9812 H 973.589 2.28041 -3.54366 0
M  V30 9813 H 972.313 2.31727 -2.30153 0
M  V30 9814 H 970.972 0.633966 -3.61077 0
M  V30 9815 H 970.62 3.0832 -3.97426 0
M  V30 9816 H 970.32 2.15662 -5.46593 0
M  V30 9817 H 971.844 3.06994 -5.27814 0
M  V30 9818 H 973.258 0.832942 -5.67217 0
M  V30 9819 H 971.655 0.112843 -5.99994 0
M  V30 9820 H 972.725 -0.643954 -4.80605 0
M  V30 9821 N 974.068 1.57479 -0.061844 0
M  V30 9822 C 975 2.09116 0.938245 0
M  V30 9823 C 976.013 1.0212 1.26788 0
M  V30 9824 O 977.202 1.2966 1.22681 0
M  V30 9825 C 974.302 2.52822 2.25686 0
M  V30 9826 C 973.475 3.83277 2.10755 0
M  V30 9827 C 972.534 4.13182 3.25833 0
M  V30 9828 O 971.56 4.82937 3.01265 0
M  V30 9829 N 972.762 3.65938 4.50633 0
M  V30 9830 H 975.527 2.95543 0.497433 0
M  V30 9831 H 973.088 1.61423 0.124134 0
M  V30 9832 H 975.08 2.69896 3.01559 0
M  V30 9833 H 973.65 1.71586 2.61299 0
M  V30 9834 H 972.87 3.7568 1.19409 0
M  V30 9835 H 974.158 4.68686 1.98018 0
M  V30 9836 H 973.556 3.09566 4.73482 0
M  V30 9837 H 972.113 3.8823 5.23565 0
M  V30 9838 N 975.546 -0.211634 1.56173 0
M  V30 9839 C 976.786 -0.941505 1.81425 0
M  V30 9840 C 977.15 -1.8113 0.636862 0
M  V30 9841 O 978.351 -2.57568 0.768907 0
M  V30 9842 C 976.622 -1.75002 3.11623 0
M  V30 9843 S 978.181 -2.53418 3.58225 0
M  V30 9844 H 974.999 -0.316088 0.636875 0
M  V30 9845 H 977.601 -0.206244 1.94409 0
M  V30 9846 H 976.305 -1.10136 3.95346 0
M  V30 9847 H 975.836 -2.5274 3.01473 0
M  V30 9848 H 977.851 -3.77234 3.22349 0
M  V30 9849 N 977.024 -1.50153 -0.478725 0
M  V30 9850 C 978.272 -1.60443 -1.22892 0
M  V30 9851 C 978.593 -0.303276 -1.92627 0
M  V30 9852 O 977.863 0.678798 -1.83764 0
M  V30 9853 H 976.443 -0.591205 -0.456602 0
M  V30 9854 H 979.105 -1.86893 -0.552905 0
M  V30 9855 H 978.201 -2.41175 -1.98094 0
M  V30 9856 N 978.502 0.731368 -1.39602 0
M  V30 9857 C 979.73 1.52059 -1.40305 0
M  V30 9858 C 980.145 1.888 0.00147921 0
M  V30 9859 O 979.502 1.54354 0.973715 0
M  V30 9860 C 979.553 2.80588 -2.27931 0
M  V30 9861 O 979.274 2.45406 -3.62915 0
M  V30 9862 C 980.775 3.74592 -2.37056 0
M  V30 9863 H 977.995 0.469787 -0.479104 0
M  V30 9864 H 980.539 0.903436 -1.83462 0
M  V30 9865 H 978.694 3.38626 -1.88178 0
M  V30 9866 H 979.108 3.27996 -4.09291 0
M  V30 9867 H 980.582 4.61662 -3.02609 0
M  V30 9868 H 981.059 4.16597 -1.39081 0
M  V30 9869 H 981.665 3.22471 -2.77295 0
M  V30 9870 N 979.98 1.24838 0.961938 0
M  V30 9871 C 981.391 1.08369 1.5203 0
M  V30 9872 C 981.742 -0.343005 1.93178 0
M  V30 9873 O 980.867 -1.2321 1.779 0
M  V30 9874 C 981.462 1.96102 2.76278 0
M  V30 9875 C 980.021 1.8384 3.28451 0
M  V30 9876 C 979.168 1.9069 2.01327 0
M  V30 9877 H 982.119 1.38231 0.779613 0
M  V30 9878 H 982.14 1.4967 3.49827 0
M  V30 9879 H 981.652 2.99931 2.46298 0
M  V30 9880 H 979.753 0.828653 3.63269 0
M  V30 9881 H 979.866 2.68251 3.96961 0
M  V30 9882 H 978.23 1.34488 2.16299 0
M  V30 9883 H 979.013 2.96111 1.73705 0
M  V30 9884 N 981.458 -1.16348 1.06306 0
M  V30 9885 C 982.698 -1.88556 0.789055 0
M  V30 9886 C 983.062 -1.79849 -0.672179 0
M  V30 9887 O 984.263 -2.46984 -1.06078 0
M  V30 9888 C 982.534 -3.34069 1.27016 0
M  V30 9889 S 984.093 -4.24128 1.12522 0
M  V30 9890 H 980.911 -0.65084 0.286232 0
M  V30 9891 H 983.513 -1.40443 1.36 0
M  V30 9892 H 982.217 -3.37944 2.32856 0
M  V30 9893 H 981.748 -3.87231 0.693963 0
M  V30 9894 H 983.763 -4.96168 0.0562142 0
M  V30 9895 N 982.937 -0.845659 -1.3299 0
M  V30 9896 C 983.885 -0.272412 -2.30999 0
M  V30 9897 C 984.879 0.599311 -1.58444 0
M  V30 9898 O 986.085 0.488117 -1.73255 0
M  V30 9899 H 982.46 -0.0693751 -0.748793 0
M  V30 9900 H 984.431 -1.11343 -2.76849 0
M  V30 9901 C 983.18 0.532019 -3.43606 0
M  V30 9902 H 982.503 -0.129455 -3.9959 0
M  V30 9903 H 983.943 0.898853 -4.14363 0
M  V30 9904 C 982.402 1.71364 -2.90062 0
M  V30 9905 O 982.932 2.81252 -2.8681 0
M  V30 9906 N 981.138 1.53775 -2.4658 0
M  V30 9907 H 980.685 0.643836 -2.49424 0
M  V30 9908 H 980.643 2.32982 -2.11108 0
M  V30 9909 N 984.415 1.45619 -0.602734 0
M  V30 9910 C 985.345 2.33258 0.106342 0
M  V30 9911 C 986.326 1.46543 0.863664 0
M  V30 9912 O 987.511 1.75324 0.835175 0
M  V30 9913 C 984.641 3.29168 1.10751 0
M  V30 9914 C 983.595 4.25481 0.463717 0
M  V30 9915 C 982.921 5.11046 1.57278 0
M  V30 9916 C 984.221 5.18702 -0.61199 0
M  V30 9917 H 985.915 2.92795 -0.625423 0
M  V30 9918 H 983.461 1.40793 -0.302213 0
M  V30 9919 H 985.414 3.89346 1.61208 0
M  V30 9920 H 984.138 2.6778 1.8698 0
M  V30 9921 H 982.797 3.66595 -0.0199496 0
M  V30 9922 H 982.445 4.46029 2.32524 0
M  V30 9923 H 982.145 5.76286 1.14755 0
M  V30 9924 H 983.669 5.74091 2.07972 0
M  V30 9925 H 985.083 5.72979 -0.191686 0
M  V30 9926 H 983.48 5.92393 -0.958686 0
M  V30 9927 H 984.55 4.61424 -1.4905 0
M  V30 9928 N 985.893 0.34162 1.53853 0
M  V30 9929 C 987.121 -0.256929 2.05299 0
M  V30 9930 C 987.536 -1.44366 1.21671 0
M  V30 9931 O 986.893 -1.80758 0.251584 0
M  V30 9932 C 986.944 -0.673854 3.55164 0
M  V30 9933 O 986.665 0.465687 4.35618 0
M  V30 9934 C 988.166 -1.33332 4.22773 0
M  V30 9935 H 985.386 -0.0499445 0.669139 0
M  V30 9936 H 987.93 0.493048 1.98467 0
M  V30 9937 H 986.085 -1.37378 3.62224 0
M  V30 9938 H 986.499 0.133723 5.2433 0
M  V30 9939 H 987.973 -1.57582 5.29029 0
M  V30 9940 H 988.45 -2.28628 3.75001 0
M  V30 9941 H 989.056 -0.675489 4.19901 0
M  V30 9942 N 987.371 -1.57444 0.0701946 0
M  V30 9943 C 988.611 -1.95304 -0.60296 0
M  V30 9944 C 988.975 -0.949592 -1.66873 0
M  V30 9945 O 990.176 -1.2158 -2.39733 0
M  V30 9946 C 988.447 -3.37831 -1.16639 0
M  V30 9947 S 990.006 -3.97667 -1.8549 0
M  V30 9948 H 986.824 -0.683026 -0.197476 0
M  V30 9949 H 989.426 -1.94971 0.143669 0
M  V30 9950 H 988.13 -4.08648 -0.378856 0
M  V30 9951 H 987.661 -3.41704 -1.94942 0
M  V30 9952 H 989.676 -3.84441 -3.13719 0
M  V30 9953 N 988.849 0.203349 -1.56283 0
M  V30 9954 C 990.265 0.55384 -1.49682 0
M  V30 9955 C 990.465 1.86261 -0.768701 0
M  V30 9956 O 989.521 2.50517 -0.315824 0
M  V30 9957 C 990.834 0.616216 -2.94318 0
M  V30 9958 C 992.382 0.705611 -3.04943 0
M  V30 9959 C 992.857 0.79917 -4.50974 0
M  V30 9960 N 994.348 0.862916 -4.55091 0
M  V30 9961 C 995.083 0.955334 -5.65386 0
M  V30 9962 N 994.579 1.01057 -6.8539 0
M  V30 9963 N 996.372 0.991884 -5.53279 0
M  V30 9964 H 988.523 -0.655244 -2.0204 0
M  V30 9965 H 990.786 -0.232344 -0.919087 0
M  V30 9966 H 990.492 -0.27619 -3.50614 0
M  V30 9967 H 990.366 1.47371 -3.4722 0
M  V30 9968 H 992.753 1.58845 -2.48701 0
M  V30 9969 H 992.834 -0.177921 -2.5518 0
M  V30 9970 H 992.478 -0.0792841 -5.07838 0
M  V30 9971 H 992.408 1.69838 -4.9846 0
M  V30 9972 H 994.899 0.829812 -3.68677 0
M  V30 9973 H 995.212 1.08137 -7.65197 0
M  V30 9974 H 993.557 0.979384 -6.88065 0
M  V30 9975 H 996.748 0.945514 -4.58451 0
M  V30 9976 H 996.921 1.06045 -6.39264 0
M  V30 9977 N 990.327 1.50405 0.470755 0
M  V30 9978 C 991.552 1.65442 1.25075 0
M  V30 9979 C 991.977 0.337612 1.85045 0
M  V30 9980 O 991.335 -0.698555 1.67302 0
M  V30 9981 C 991.383 2.74793 2.33498 0
M  V30 9982 O 990.487 2.36069 3.3815 0
M  V30 9983 H 989.828 0.552728 0.367951 0
M  V30 9984 H 992.358 1.96782 0.560177 0
M  V30 9985 H 992.368 2.97879 2.78804 0
M  V30 9986 H 991.043 3.70363 1.8922 0
M  V30 9987 H 989.62 2.2343 2.98552 0
M  V30 9988 N 991.805 -0.723954 1.39988 0
M  V30 9989 C 992.735 -1.85103 1.42335 0
M  V30 9990 C 993.716 -1.6769 0.285297 0
M  V30 9991 O 994.901 -1.87846 0.492716 0
M  V30 9992 C 992.031 -3.22972 1.27697 0
M  V30 9993 C 990.985 -3.55041 2.39018 0
M  V30 9994 C 990.311 -4.91965 2.09462 0
M  V30 9995 C 991.611 -3.56889 3.8135 0
M  V30 9996 H 993.305 -1.83396 2.36656 0
M  V30 9997 H 990.851 -0.880926 1.13911 0
M  V30 9998 H 992.804 -4.01503 1.27958 0
M  V30 9999 H 991.528 -3.25233 0.298487 0
M  V30 10000 H 990.187 -2.78845 2.37993 0
M  V30 10001 H 989.835 -4.90819 1.10025 0
M  V30 10002 H 989.535 -5.14389 2.84038 0
M  V30 10003 H 991.059 -5.7284 2.11391 0
M  V30 10004 H 992.473 -4.25476 3.84243 0
M  V30 10005 H 990.87 -3.90836 4.55376 0
M  V30 10006 H 991.94 -2.56452 4.11534 0
M  V30 10007 N 993.283 -1.25346 -0.955304 0
M  V30 10008 C 994.508 -1.12892 -1.73983 0
M  V30 10009 C 994.933 0.313455 -1.8547 0
M  V30 10010 O 994.291 1.22706 -1.33465 0
M  V30 10011 C 994.339 -1.78729 -3.1319 0
M  V30 10012 O 993.443 -1.06648 -3.98372 0
M  V30 10013 H 992.784 -0.394178 -0.534341 0
M  V30 10014 H 995.314 -1.65897 -1.19747 0
M  V30 10015 H 995.324 -1.84987 -3.63653 0
M  V30 10016 H 993.999 -2.83669 -3.04146 0
M  V30 10017 H 992.576 -1.08266 -3.56837 0
M  V30 10018 N 994.761 1.15782 -1.06922 0
M  V30 10019 C 995.991 1.90079 -0.809545 0
M  V30 10020 C 996.399 1.78028 0.640523 0
M  V30 10021 O 995.742 1.12692 1.45073 0
M  V30 10022 C 995.804 3.41179 -1.13302 0
M  V30 10023 C 995.468 3.77015 -2.5828 0
M  V30 10024 C 996.465 3.78403 -3.56521 0
M  V30 10025 C 994.15 4.07455 -2.93745 0
M  V30 10026 C 996.144 4.09729 -4.88264 0
M  V30 10027 C 993.831 4.38446 -4.25686 0
M  V30 10028 C 994.829 4.39564 -5.22755 0
M  V30 10029 O 994.517 4.69814 -6.52326 0
M  V30 10030 H 994.249 0.609397 -0.292595 0
M  V30 10031 H 996.803 1.47654 -1.42784 0
M  V30 10032 H 995.033 3.83982 -0.457676 0
M  V30 10033 H 996.722 3.96759 -0.856586 0
M  V30 10034 H 997.488 3.54991 -3.30464 0
M  V30 10035 H 993.367 4.05746 -2.1884 0
M  V30 10036 H 996.911 4.10516 -5.64023 0
M  V30 10037 H 992.808 4.61325 -4.51497 0
M  V30 10038 H 993.576 4.87598 -6.57412 0
M  V30 10039 N 996.239 0.8527 1.3254 0
M  V30 10040 C 997.65 0.510012 1.79599 0
M  V30 10041 C 998.001 -0.972002 1.70431 0
M  V30 10042 O 997.126 -1.7581 1.26173 0
M  V30 10043 C 997.721 0.918986 3.26098 0
M  V30 10044 C 996.28 0.628227 3.7112 0
M  V30 10045 C 995.427 1.11979 2.53685 0
M  V30 10046 H 998.378 1.04009 1.19866 0
M  V30 10047 H 998.399 0.234577 3.79776 0
M  V30 10048 H 997.911 1.99765 3.32739 0
M  V30 10049 H 996.012 -0.4398 3.69995 0
M  V30 10050 H 996.125 1.19315 4.64005 0
M  V30 10051 H 994.489 0.540133 2.48907 0
M  V30 10052 H 995.272 2.20552 2.63081 0
M  V30 10053 N 997.718 -1.45297 0.610449 0
M  V30 10054 C 998.995 -1.95562 0.0386189 0
M  V30 10055 C 999.375 -1.55284 -1.43004 0
M  V30 10056 O 998.723 -0.816785 -2.13403 0
M  V30 10057 C 998.933 -3.48176 0.239731 0
M  V30 10058 C 1000.28 -4.24425 0.122035 0
M  V30 10059 O 1001.3 -3.55794 0.170003 0
M  V30 10060 O 1000.16 -5.46499 0.00953695 0
M  V30 10061 H 997.258 -0.826296 -0.0341081 0
M  V30 10062 H 999.804 -1.55449 0.68071 0
M  V30 10063 H 998.576 -3.70471 1.25963 0
M  V30 10064 H 998.199 -3.95186 -0.437486 0
M  V30 10065 N 999.196 -0.349774 -1.5367 0
M  V30 10066 C 1000.11 0.512421 -2.28935 0
M  V30 10067 C 1001.12 1.1065 -1.34286 0
M  V30 10068 O 1002.3 1.12084 -1.67329 0
M  V30 10069 C 999.363 1.64449 -3.05217 0
M  V30 10070 C 998.424 1.07956 -4.15505 0
M  V30 10071 C 997.657 2.15768 -4.88139 0
M  V30 10072 O 997.88 3.366 -4.60496 0
M  V30 10073 O 996.814 1.79712 -5.74445 0
M  V30 10074 H 1000.64 -0.0996001 -3.03537 0
M  V30 10075 H 998.225 -0.114629 -1.4896 0
M  V30 10076 H 1000.11 2.30302 -3.52901 0
M  V30 10077 H 998.782 2.24221 -2.33467 0
M  V30 10078 H 997.689 0.385381 -3.7211 0
M  V30 10079 H 999.022 0.526621 -4.89375 0
M  V30 10080 N 1000.67 1.57404 -0.0785433 0
M  V30 10081 C 1001.58 2.16612 0.900902 0
M  V30 10082 C 1002.6 1.13109 1.32221 0
M  V30 10083 O 1003.78 1.45406 1.39352 0
M  V30 10084 C 1000.84 2.7215 2.14791 0
M  V30 10085 C 999.902 3.90551 1.78237 0
M  V30 10086 C 999.135 4.43431 2.96993 0
M  V30 10087 O 999.358 3.95292 4.11218 0
M  V30 10088 O 998.292 5.34674 2.76418 0
M  V30 10089 H 1002.12 3.0068 0.427227 0
M  V30 10090 H 999.703 1.48696 0.144902 0
M  V30 10091 H 1001.58 3.07718 2.87902 0
M  V30 10092 H 1000.26 1.91139 2.61243 0
M  V30 10093 H 999.167 3.59825 1.02357 0
M  V30 10094 H 1000.5 4.72876 1.36562 0
M  V30 10095 N 1002.15 -0.195058 1.56388 0
M  V30 10096 C 1003.39 -0.92221 1.82413 0
M  V30 10097 C 1003.76 -1.80444 0.656037 0
M  V30 10098 O 1004.96 -2.56738 0.796182 0
M  V30 10099 C 1003.23 -1.71687 3.13462 0
M  V30 10100 S 1004.79 -2.49604 3.60892 0
M  V30 10101 H 1001.6 -0.309316 0.640191 0
M  V30 10102 H 1004.21 -0.185613 1.94617 0
M  V30 10103 H 1002.91 -1.05936 3.96492 0
M  V30 10104 H 1002.44 -2.49529 3.04137 0
M  V30 10105 H 1004.46 -3.73794 3.26332 0
M  V30 10106 N 1003.63 -1.50653 -0.462772 0
M  V30 10107 C 1004.58 -1.70661 -1.58043 0
M  V30 10108 C 1005.57 -0.572533 -1.59432 0
M  V30 10109 O 1006.78 -0.753257 -1.63481 0
M  V30 10110 H 1003.15 -0.538805 -0.524588 0
M  V30 10111 H 1005.12 -2.64399 -1.38332 0
M  V30 10112 C 1003.87 -1.82558 -2.95919 0
M  V30 10113 H 1003.2 -2.69216 -2.95572 0
M  V30 10114 H 1004.64 -2.0058 -3.73556 0
M  V30 10115 C 1003.09 -0.57916 -3.31885 0
M  V30 10116 O 1003.62 0.277888 -4.00738 0
M  V30 10117 N 1001.83 -0.430723 -2.8739 0
M  V30 10118 H 1001.38 -1.1292 -2.31531 0
M  V30 10119 H 1001.34 0.402061 -3.11819 0
M  V30 10120 N 1005.11 0.71652 -1.4037 0
M  V30 10121 C 1006.02 1.86074 -1.42876 0
M  V30 10122 C 1007.03 1.71005 -0.321475 0
M  V30 10123 O 1008.21 1.93286 -0.565909 0
M  V30 10124 C 1005.28 3.21862 -1.28863 0
M  V30 10125 C 1004.34 3.49193 -2.49726 0
M  V30 10126 C 1003.57 4.78502 -2.36372 0
M  V30 10127 O 1003.79 5.53529 -1.37703 0
M  V30 10128 O 1002.73 5.06147 -3.25728 0
M  V30 10129 H 1006.55 1.86916 -2.39366 0
M  V30 10130 H 1004.14 0.866818 -1.21683 0
M  V30 10131 H 1006.02 4.02972 -1.23253 0
M  V30 10132 H 1004.69 3.2175 -0.354783 0
M  V30 10133 H 1003.6 2.68095 -2.60913 0
M  V30 10134 H 1004.93 3.54101 -3.41868 0
M  V30 10135 N 1006.59 1.25851 0.948643 0
M  V30 10136 C 1007.55 1.0683 2.0278 0
M  V30 10137 C 1008.55 0.0191016 1.60789 0
M  V30 10138 O 1009.74 0.261836 1.72221 0
M  V30 10139 C 1006.87 0.623318 3.35153 0
M  V30 10140 H 1008.06 2.02635 2.21086 0
M  V30 10141 H 1005.62 1.08343 1.12657 0
M  V30 10142 H 1006.35 -0.337053 3.22544 0
M  V30 10143 H 1006.14 1.38082 3.66982 0
M  V30 10144 H 1007.63 0.511854 4.14451 0
M  V30 10145 N 1008.06 -1.15214 1.07534 0
M  V30 10146 C 1009.3 -1.87708 0.809009 0
M  V30 10147 C 1009.67 -1.80552 -0.653066 0
M  V30 10148 O 1010.87 -2.48095 -1.03452 0
M  V30 10149 C 1009.14 -3.32703 1.30552 0
M  V30 10150 S 1010.7 -4.2291 1.17015 0
M  V30 10151 H 1007.52 -0.647767 0.293118 0
M  V30 10152 H 1010.12 -1.38992 1.37482 0
M  V30 10153 H 1008.82 -3.35456 2.36427 0
M  V30 10154 H 1008.35 -3.86473 0.734995 0
M  V30 10155 H 1010.37 -4.96081 0.108836 0
M  V30 10156 N 1009.54 -0.859717 -1.32086 0
M  V30 10157 C 1010.47 -0.323502 -2.31248 0
M  V30 10158 C 1011.45 0.580085 -1.59903 0
M  V30 10159 O 1012.64 0.499265 -1.87673 0
M  V30 10160 C 1009.77 0.484661 -3.43902 0
M  V30 10161 C 1008.72 -0.324933 -4.26765 0
M  V30 10162 C 1008.05 0.608281 -5.31229 0
M  V30 10163 C 1009.35 -1.55344 -4.98664 0
M  V30 10164 H 1011.04 -1.15209 -2.76346 0
M  V30 10165 H 1008.59 -0.555442 -1.32856 0
M  V30 10166 H 1010.54 0.870238 -4.12316 0
M  V30 10167 H 1009.27 1.34666 -2.97544 0
M  V30 10168 H 1007.92 -0.692328 -3.60003 0
M  V30 10169 H 1007.57 1.46727 -4.81124 0
M  V30 10170 H 1007.27 0.0705571 -5.87558 0
M  V30 10171 H 1008.8 0.990925 -6.02506 0
M  V30 10172 H 1010.21 -1.23987 -5.59732 0
M  V30 10173 H 1008.61 -2.02947 -5.64741 0
M  V30 10174 H 1009.68 -2.31192 -4.26237 0
M  V30 10175 N 1011.02 1.44971 -0.618145 0
M  V30 10176 C 1011.93 2.34403 0.0960457 0
M  V30 10177 C 1012.95 1.51862 0.849355 0
M  V30 10178 O 1014.12 1.84632 0.804557 0
M  V30 10179 C 1011.19 3.29646 1.07397 0
M  V30 10180 C 1010.25 4.28095 0.321466 0
M  V30 10181 C 1009.48 5.18787 1.25281 0
M  V30 10182 O 1009.7 5.1313 2.49106 0
M  V30 10183 O 1008.64 5.97282 0.744156 0
M  V30 10184 H 1012.46 2.96898 -0.639176 0
M  V30 10185 H 1010.05 1.44529 -0.37837 0
M  V30 10186 H 1011.93 3.88307 1.63694 0
M  V30 10187 H 1010.61 2.69702 1.79004 0
M  V30 10188 H 1009.51 3.73019 -0.284223 0
M  V30 10189 H 1010.85 4.90923 -0.354315 0
M  V30 10190 N 1012.5 0.357919 1.53482 0
M  V30 10191 C 1013.75 -0.2337 2.00744 0
M  V30 10192 C 1014.07 -1.49908 1.2471 0
M  V30 10193 O 1013.34 -1.92597 0.358235 0
M  V30 10194 H 1011.92 -0.0893474 0.741637 0
M  V30 10195 H 1014.58 0.482388 1.88836 0
M  V30 10196 H 1013.68 -0.466073 3.086 0
M  V30 10197 N 1013.98 -1.5736 0.0868897 0
M  V30 10198 C 1015.22 -1.95933 -0.582212 0
M  V30 10199 C 1015.58 -0.967238 -1.65857 0
M  V30 10200 O 1016.78 -1.24116 -2.3843 0
M  V30 10201 C 1015.05 -3.39049 -1.1305 0
M  V30 10202 S 1016.61 -3.99612 -1.81262 0
M  V30 10203 H 1013.43 -0.685082 -0.190221 0
M  V30 10204 H 1016.03 -1.94808 0.164341 0
M  V30 10205 H 1014.74 -4.09026 -0.335492 0
M  V30 10206 H 1014.27 -3.43752 -1.91307 0
M  V30 10207 H 1016.28 -3.87747 -3.09624 0
M  V30 10208 N 1015.45 0.186762 -1.56489 0
M  V30 10209 C 1016.7 0.905852 -1.81109 0
M  V30 10210 C 1017.03 1.82906 -0.661477 0
M  V30 10211 O 1016.28 1.92504 0.35226 0
M  V30 10212 C 1016.58 1.74719 -3.11782 0
M  V30 10213 C 1016.25 0.974238 -4.40249 0
M  V30 10214 C 1014.91 0.760856 -4.75147 0
M  V30 10215 C 1017.26 0.430971 -5.19415 0
M  V30 10216 C 1014.59 -0.00714216 -5.867 0
M  V30 10217 C 1016.94 -0.323859 -6.3177 0
M  V30 10218 C 1015.61 -0.548183 -6.65245 0
M  V30 10219 H 1014.88 0.331475 -0.662726 0
M  V30 10220 H 1017.52 0.171703 -1.90729 0
M  V30 10221 H 1015.83 2.55027 -2.97437 0
M  V30 10222 H 1017.53 2.30634 -3.28038 0
M  V30 10223 H 1014.12 1.15057 -4.12868 0
M  V30 10224 H 1018.3 0.583205 -4.92861 0
M  V30 10225 H 1013.56 -0.190832 -6.11102 0
M  V30 10226 H 1017.73 -0.752155 -6.92326 0
M  V30 10227 H 1015.36 -1.14518 -7.51525 0
M  V30 10228 N 1016.93 1.50896 0.454776 0
M  V30 10229 C 1018.17 1.64347 1.21529 0
M  V30 10230 C 1018.54 0.343869 1.88896 0
M  V30 10231 O 1019.74 0.353973 2.66459 0
M  V30 10232 C 1018.01 2.80199 2.21864 0
M  V30 10233 S 1019.57 3.13879 3.06636 0
M  V30 10234 H 1016.39 0.579193 0.412379 0
M  V30 10235 H 1018.99 1.88741 0.509629 0
M  V30 10236 H 1017.69 3.73086 1.70982 0
M  V30 10237 H 1017.22 2.57941 2.97036 0
M  V30 10238 H 1019.24 2.58964 4.23264 0
M  V30 10239 N 1018.41 -0.709066 1.40748 0
M  V30 10240 C 1019.82 -1.28847 1.35112 0
M  V30 10241 C 1020.17 -1.9618 0.0277149 0
M  V30 10242 O 1019.3 -1.97955 -0.874233 0
M  V30 10243 C 1019.89 -2.34306 2.44716 0
M  V30 10244 C 1018.45 -2.87856 2.4252 0
M  V30 10245 C 1017.6 -1.61723 2.25257 0
M  V30 10246 H 1020.55 -0.504742 1.50459 0
M  V30 10247 H 1020.57 -3.15297 2.12998 0
M  V30 10248 H 1020.08 -1.85271 3.41022 0
M  V30 10249 H 1018.18 -3.41103 1.49931 0
M  V30 10250 H 1018.3 -3.39205 3.38344 0
M  V30 10251 H 1016.66 -1.87032 1.7289 0
M  V30 10252 H 1017.44 -1.14703 3.23571 0
M  V30 10253 N 1019.89 -1.26353 -0.941956 0
M  V30 10254 C 1021.3 -1.10774 -1.50287 0
M  V30 10255 C 1021.65 0.312229 -1.937 0
M  V30 10256 O 1020.78 1.20364 -1.79838 0
M  V30 10257 C 1021.37 -2.00473 -2.73123 0
M  V30 10258 C 1019.93 -1.89042 -3.25485 0
M  V30 10259 C 1019.08 -1.93869 -1.98267 0
M  V30 10260 H 1022.03 -1.39454 -0.757523 0
M  V30 10261 H 1022.05 -1.55216 -3.47402 0
M  V30 10262 H 1021.56 -3.03812 -2.41495 0
M  V30 10263 H 1019.66 -0.886341 -3.61904 0
M  V30 10264 H 1019.78 -2.74533 -3.92643 0
M  V30 10265 H 1018.14 -1.37912 -2.14132 0
M  V30 10266 H 1018.92 -2.98837 -1.68972 0
M  V30 10267 N 1021.37 1.14642 -1.08144 0
M  V30 10268 C 1022.62 1.8525 -0.807885 0
M  V30 10269 C 1022.94 1.83194 0.668213 0
M  V30 10270 O 1022.21 1.27848 1.48431 0
M  V30 10271 H 1020.79 0.685909 -0.295868 0
M  V30 10272 H 1023.45 1.38935 -1.36686 0
M  V30 10273 H 1022.54 2.90155 -1.14964 0
M  V30 10274 N 1022.85 0.866709 1.31628 0
M  V30 10275 C 1023.78 0.335762 2.31073 0
M  V30 10276 C 1024.76 -0.571597 1.60209 0
M  V30 10277 O 1025.94 -0.489306 1.87935 0
M  V30 10278 C 1023.07 -0.466416 3.44154 0
M  V30 10279 C 1022.03 0.347561 4.26586 0
M  V30 10280 C 1021.35 -0.5801 5.31544 0
M  V30 10281 C 1022.65 1.57986 4.97833 0
M  V30 10282 H 1024.35 1.16673 2.75731 0
M  V30 10283 H 1021.89 0.56248 1.3256 0
M  V30 10284 H 1023.84 -0.84836 4.12772 0
M  V30 10285 H 1022.57 -1.33086 2.98254 0
M  V30 10286 H 1021.23 0.71141 3.59631 0
M  V30 10287 H 1020.88 -1.44174 4.81895 0
M  V30 10288 H 1020.58 -0.0393965 5.87587 0
M  V30 10289 H 1022.1 -0.958958 6.03023 0
M  V30 10290 H 1023.51 1.26954 5.59067 0
M  V30 10291 H 1021.91 2.05939 5.63657 0
M  V30 10292 H 1022.98 2.3345 4.25005 0
M  V30 10293 N 1024.32 -1.44642 0.625825 0
M  V30 10294 C 1025.55 -2.06159 0.13492 0
M  V30 10295 C 1025.96 -1.46801 -1.19357 0
M  V30 10296 O 1025.3 -0.583345 -1.74192 0
M  V30 10297 C 1025.37 -3.5945 -0.0598481 0
M  V30 10298 C 1025.03 -4.41244 1.18965 0
M  V30 10299 C 1026.03 -4.75064 2.11212 0
M  V30 10300 C 1023.71 -4.81705 1.42359 0
M  V30 10301 C 1025.71 -5.48221 3.25165 0
M  V30 10302 C 1023.39 -5.54612 2.5661 0
M  V30 10303 C 1024.39 -5.87789 3.4784 0
M  V30 10304 O 1024.08 -6.59213 4.60101 0
M  V30 10305 H 1023.81 -0.671888 0.0744464 0
M  V30 10306 H 1026.37 -1.86586 0.858775 0
M  V30 10307 H 1024.6 -3.77493 -0.838792 0
M  V30 10308 H 1026.28 -4.02751 -0.504639 0
M  V30 10309 H 1027.05 -4.44348 1.94371 0
M  V30 10310 H 1022.93 -4.55305 0.722401 0
M  V30 10311 H 1026.47 -5.74035 3.96396 0
M  V30 10312 H 1022.37 -5.84743 2.73396 0
M  V30 10313 H 1023.14 -6.77678 4.59015 0
M  V30 10314 N 1025.8 -0.366053 -1.5329 0
M  V30 10315 C 1026.73 0.523781 -2.22108 0
M  V30 10316 C 1027.71 1.08262 -1.21318 0
M  V30 10317 O 1028.9 1.13866 -1.50222 0
M  V30 10318 C 1026.02 1.72273 -2.91616 0
M  V30 10319 C 1025.07 1.29129 -4.06482 0
M  V30 10320 S 1025.9 0.292195 -5.34702 0
M  V30 10321 C 1027.06 1.49746 -6.07723 0
M  V30 10322 H 1027.29 -0.0606687 -2.97238 0
M  V30 10323 H 1024.82 -0.15016 -1.53668 0
M  V30 10324 H 1026.78 2.41045 -3.32277 0
M  V30 10325 H 1025.44 2.27843 -2.16209 0
M  V30 10326 H 1024.64 2.18583 -4.54134 0
M  V30 10327 H 1024.24 0.682783 -3.67715 0
M  V30 10328 H 1026.53 2.4284 -6.32483 0
M  V30 10329 H 1027.47 1.06232 -7.00086 0
M  V30 10330 H 1027.88 1.70373 -5.38176 0
M  V30 10331 N 1027.28 1.57312 -0.0952337 0
M  V30 10332 C 1028.56 1.85822 0.610715 0
M  V30 10333 C 1028.94 0.992114 1.86334 0
M  V30 10334 O 1028.28 0.0645669 2.28409 0
M  V30 10335 C 1028.49 3.36492 0.925967 0
M  V30 10336 C 1029.84 4.0455 1.28936 0
M  V30 10337 O 1030.87 3.41374 1.01698 0
M  V30 10338 O 1029.73 5.16024 1.79949 0
M  V30 10339 H 1026.82 0.768454 0.305626 0
M  V30 10340 H 1029.37 1.69217 -0.127941 0
M  V30 10341 H 1028.14 3.91282 0.0373127 0
M  V30 10342 H 1027.76 3.58443 1.7206 0
M  V30 10343 N 1028.76 -0.17846 1.56586 0
M  V30 10344 C 1029.67 -1.24115 1.9908 0
M  V30 10345 C 1030.68 -1.48854 0.901031 0
M  V30 10346 O 1031.86 -1.61142 1.2081 0
M  V30 10347 C 1028.92 -2.56187 2.33601 0
M  V30 10348 C 1027.99 -2.39373 3.56369 0
M  V30 10349 C 1027.22 -3.65147 3.89234 0
M  V30 10350 O 1027.44 -4.70024 3.23162 0
M  V30 10351 O 1026.38 -3.59683 4.82609 0
M  V30 10352 H 1030.2 -0.910482 2.89731 0
M  V30 10353 H 1027.79 -0.38477 1.4436 0
M  V30 10354 H 1029.67 -3.34109 2.56806 0
M  V30 10355 H 1028.34 -2.88847 1.46113 0
M  V30 10356 H 1027.25 -1.59506 3.38391 0
M  V30 10357 H 1028.58 -2.1164 4.44375 0
M  V30 10358 N 1030.24 -1.51135 -0.446768 0
M  V30 10359 C 1031.65 -1.39101 -0.782504 0
M  V30 10360 C 1031.85 -0.46599 -1.96038 0
M  V30 10361 O 1030.91 0.0823679 -2.52366 0
M  V30 10362 C 1032.22 -2.80953 -1.07173 0
M  V30 10363 C 1033.77 -2.90038 -1.17673 0
M  V30 10364 C 1034.24 -4.32777 -1.49894 0
M  V30 10365 N 1035.73 -4.3584 -1.56837 0
M  V30 10366 C 1036.47 -5.43305 -1.83322 0
M  V30 10367 N 1035.97 -6.60945 -2.07662 0
M  V30 10368 N 1037.76 -5.30775 -1.85026 0
M  V30 10369 H 1029.91 -2.09835 0.329114 0
M  V30 10370 H 1032.17 -0.944199 0.0848054 0
M  V30 10371 H 1031.88 -3.50591 -0.279037 0
M  V30 10372 H 1031.75 -3.197 -2.00179 0
M  V30 10373 H 1034.14 -2.20603 -1.96005 0
M  V30 10374 H 1034.22 -2.54801 -0.225892 0
M  V30 10375 H 1033.86 -5.02757 -0.720924 0
M  V30 10376 H 1033.79 -4.6552 -2.46168 0
M  V30 10377 H 1036.29 -3.51023 -1.39968 0
M  V30 10378 H 1036.6 -7.38643 -2.27214 0
M  V30 10379 H 1034.94 -6.64077 -2.05003 0
M  V30 10380 H 1038.13 -4.37858 -1.65523 0
M  V30 10381 H 1038.31 -6.14609 -2.05329 0
M  V30 10382 N 1031.71 0.701592 -1.41122 0
M  V30 10383 C 1032.96 1.45871 -1.39879 0
M  V30 10384 C 1033.28 1.94999 -0.00668769 0
M  V30 10385 O 1032.55 1.71298 0.95047 0
M  V30 10386 H 1031.13 0.541231 -0.514857 0
M  V30 10387 H 1033.79 0.830803 -1.76306 0
M  V30 10388 H 1032.89 2.32479 -2.0823 0
M  V30 10389 N 1033.19 1.2685 0.935242 0
M  V30 10390 C 1034.47 1.03483 1.65984 0
M  V30 10391 C 1034.85 -0.432859 2.06614 0
M  V30 10392 O 1034.2 -1.4145 1.79455 0
M  V30 10393 C 1034.41 1.98924 2.86758 0
M  V30 10394 C 1035.75 2.2787 3.58274 0
M  V30 10395 O 1036.78 1.96838 2.96873 0
M  V30 10396 O 1035.64 2.80734 4.68882 0
M  V30 10397 H 1032.73 0.393932 0.72715 0
M  V30 10398 H 1035.28 1.38085 0.986445 0
M  V30 10399 H 1034.05 2.9794 2.53668 0
M  V30 10400 H 1033.67 1.64839 3.6182 0
M  V30 10401 N 1034.67 -1.14067 1.0875 0
M  V30 10402 C 1035.91 -1.8684 0.828873 0
M  V30 10403 C 1036.27 -1.81235 -0.633879 0
M  V30 10404 O 1037.48 -2.49178 -1.00815 0
M  V30 10405 C 1035.75 -3.31299 1.34073 0
M  V30 10406 S 1037.31 -4.21645 1.21494 0
M  V30 10407 H 1034.12 -0.644622 0.299972 0
M  V30 10408 H 1036.73 -1.37526 1.38949 0
M  V30 10409 H 1035.43 -3.32929 2.39972 0
M  V30 10410 H 1034.96 -3.85672 0.775944 0
M  V30 10411 H 1036.98 -4.95937 0.161446 0
M  V30 10412 N 1036.15 -0.873678 -1.31166 0
M  V30 10413 C 1037.39 -0.487178 -1.96861 0
M  V30 10414 C 1037.73 0.95887 -1.68877 0
M  V30 10415 O 1037 1.6758 -0.987279 0
M  V30 10416 C 1037.29 -0.74925 -3.52219 0
M  V30 10417 C 1037.14 -2.2451 -3.89763 0
M  V30 10418 C 1038.46 -0.218194 -4.39559 0
M  V30 10419 H 1035.58 -0.178477 -0.715063 0
M  V30 10420 H 1038.22 -1.0956 -1.55231 0
M  V30 10421 H 1036.37 -0.231403 -3.8781 0
M  V30 10422 H 1038.04 -2.83049 -3.64254 0
M  V30 10423 H 1036.28 -2.71621 -3.38237 0
M  V30 10424 H 1036.95 -2.37911 -4.98099 0
M  V30 10425 H 1039.43 -0.661274 -4.10812 0
M  V30 10426 H 1038.31 -0.430983 -5.47205 0
M  V30 10427 H 1038.57 0.880056 -4.33252 0
M  V30 10428 N 1037.63 1.44308 -0.633487 0
M  V30 10429 C 1039.04 1.85387 -0.221009 0
M  V30 10430 C 1039.39 1.5301 1.22811 0
M  V30 10431 O 1038.51 0.969325 1.93476 0
M  V30 10432 C 1039.11 3.36497 -0.394331 0
M  V30 10433 C 1037.67 3.76382 -0.0363405 0
M  V30 10434 C 1036.81 2.68146 -0.706598 0
M  V30 10435 H 1039.77 1.34741 -0.83849 0
M  V30 10436 H 1039.79 3.78735 0.366026 0
M  V30 10437 H 1039.3 3.60031 -1.44911 0
M  V30 10438 H 1037.4 3.58463 1.01661 0
M  V30 10439 H 1037.51 4.77 -0.448045 0
M  V30 10440 H 1035.88 2.54306 -0.14168 0
M  V30 10441 H 1036.66 2.94512 -1.76401 0
M  V30 10442 N 1039.1 0.374177 1.53094 0
M  V30 10443 C 1040.05 -0.468226 2.26001 0
M  V30 10444 C 1041.02 -1.07041 1.27009 0
M  V30 10445 O 1042.21 -1.10129 1.55809 0
M  V30 10446 C 1039.35 -1.59754 3.05896 0
M  V30 10447 C 1038.46 -1.01969 4.19793 0
M  V30 10448 C 1037.59 -2.11882 4.87113 0
M  V30 10449 C 1036.63 -1.51607 5.93028 0
M  V30 10450 N 1035.77 -2.55388 6.54004 0
M  V30 10451 H 1040.61 0.159983 2.9757 0
M  V30 10452 H 1038.15 0.0907196 1.4682 0
M  V30 10453 H 1040.11 -2.26288 3.50499 0
M  V30 10454 H 1038.74 -2.19628 2.36565 0
M  V30 10455 H 1037.79 -0.244386 3.79614 0
M  V30 10456 H 1039.1 -0.539089 4.95878 0
M  V30 10457 H 1038.25 -2.86218 5.34943 0
M  V30 10458 H 1036.99 -2.63297 4.10519 0
M  V30 10459 H 1036 -0.757891 5.44551 0
M  V30 10460 H 1037.22 -1.01006 6.71546 0
M  V30 10461 H 1035.17 -3.06 5.80258 0
M  V30 10462 H 1035.09 -2.12039 7.25655 0
M  V30 10463 H 1036.35 -3.294 7.06481 0
M  V30 10464 N 1040.58 -1.57259 0.103575 0
M  V30 10465 C 1041.55 -2.13337 -0.837859 0
M  V30 10466 C 1042.55 -1.06459 -1.20512 0
M  V30 10467 O 1043.74 -1.32307 -1.13316 0
M  V30 10468 C 1040.87 -2.66093 -2.13089 0
M  V30 10469 H 1042.06 -2.97842 -0.350775 0
M  V30 10470 H 1039.61 -1.55621 -0.145511 0
M  V30 10471 H 1040.35 -1.85133 -2.66264 0
M  V30 10472 H 1040.13 -3.44244 -1.87719 0
M  V30 10473 H 1041.62 -3.09443 -2.80419 0
M  V30 10474 N 1042.06 0.170153 -1.56679 0
M  V30 10475 C 1042.99 1.23525 -1.93066 0
M  V30 10476 C 1044.01 1.40414 -0.823879 0
M  V30 10477 O 1045.19 1.40396 -1.10232 0
M  V30 10478 C 1042.29 2.60376 -2.16928 0
M  V30 10479 C 1041.47 2.6477 -3.4816 0
M  V30 10480 C 1040.53 3.82993 -3.60837 0
M  V30 10481 O 1039.55 3.68937 -4.33444 0
M  V30 10482 N 1040.75 4.99498 -2.95773 0
M  V30 10483 H 1043.52 0.926172 -2.8503 0
M  V30 10484 H 1041.08 0.359909 -1.57849 0
M  V30 10485 H 1043.07 3.37934 -2.22672 0
M  V30 10486 H 1041.64 2.83669 -1.31342 0
M  V30 10487 H 1040.86 1.73298 -3.54064 0
M  V30 10488 H 1042.15 2.64717 -4.34514 0
M  V30 10489 H 1041.55 5.13819 -2.36657 0
M  V30 10490 H 1040.11 5.74914 -3.07111 0
M  V30 10491 N 1043.54 1.5137 0.438746 0
M  V30 10492 C 1044.78 1.65627 1.19779 0
M  V30 10493 C 1045.14 0.363885 1.8852 0
M  V30 10494 O 1046.34 0.382215 2.66069 0
M  V30 10495 C 1044.61 2.82536 2.18879 0
M  V30 10496 S 1046.17 3.17113 3.0329 0
M  V30 10497 H 1042.99 0.583535 0.406212 0
M  V30 10498 H 1045.59 1.89271 0.489582 0
M  V30 10499 H 1044.3 3.74879 1.67015 0
M  V30 10500 H 1043.83 2.61077 2.94283 0
M  V30 10501 H 1045.84 2.63439 4.20493 0
M  V30 10502 N 1045.02 -0.694098 1.41492 0
M  V30 10503 C 1046.43 -1.27407 1.36471 0
M  V30 10504 C 1046.78 -1.9614 0.0485209 0
M  V30 10505 O 1045.9 -1.98871 -0.853188 0
M  V30 10506 C 1046.5 -2.31698 2.47188 0
M  V30 10507 C 1045.06 -2.85268 2.45559 0
M  V30 10508 C 1044.2 -1.59325 2.2696 0
M  V30 10509 H 1047.16 -0.488756 1.50986 0
M  V30 10510 H 1047.18 -3.1302 2.1633 0
M  V30 10511 H 1046.69 -1.81644 3.42968 0
M  V30 10512 H 1044.79 -3.39494 1.5354 0
M  V30 10513 H 1044.9 -3.35598 3.41922 0
M  V30 10514 H 1043.27 -1.85188 1.74864 0
M  V30 10515 H 1044.05 -1.11265 3.24769 0
M  V30 10516 N 1046.49 -1.27344 -0.928501 0
M  V30 10517 C 1047.73 -1.14871 -1.69068 0
M  V30 10518 C 1048.1 0.300603 -1.89632 0
M  V30 10519 O 1049.3 0.547743 -2.6316 0
M  V30 10520 C 1047.57 -1.90992 -3.02087 0
M  V30 10521 S 1049.13 -1.94722 -3.93229 0
M  V30 10522 H 1045.95 -0.410095 -0.580812 0
M  V30 10523 H 1048.55 -1.61242 -1.1055 0
M  V30 10524 H 1047.25 -2.95484 -2.84811 0
M  V30 10525 H 1046.78 -1.45112 -3.65658 0
M  V30 10526 H 1048.8 -1.04306 -4.85113 0
M  V30 10527 N 1047.97 1.13488 -1.09353 0
M  V30 10528 C 1049.2 1.88319 -0.849681 0
M  V30 10529 C 1049.61 1.79347 0.602616 0
M  V30 10530 O 1048.95 1.15744 1.4265 0
M  V30 10531 C 1049.02 3.38698 -1.20514 0
M  V30 10532 C 1048.68 3.71452 -2.66219 0
M  V30 10533 C 1049.68 3.70755 -3.64467 0
M  V30 10534 C 1047.36 4.01132 -3.02321 0
M  V30 10535 C 1049.36 3.9928 -4.96845 0
M  V30 10536 C 1047.04 4.29318 -4.3489 0
M  V30 10537 C 1048.04 4.28376 -5.31961 0
M  V30 10538 O 1047.73 4.55872 -6.62145 0
M  V30 10539 H 1047.46 0.603053 -0.305455 0
M  V30 10540 H 1050.01 1.44592 -1.45884 0
M  V30 10541 H 1048.24 3.82925 -0.539022 0
M  V30 10542 H 1049.93 3.94852 -0.940552 0
M  V30 10543 H 1050.7 3.47901 -3.3792 0
M  V30 10544 H 1046.58 4.01013 -2.27398 0
M  V30 10545 H 1050.12 3.9846 -5.72604 0
M  V30 10546 H 1046.02 4.51644 -4.61181 0
M  V30 10547 H 1046.79 4.73544 -6.67607 0
M  V30 10548 N 1049.45 0.880621 1.30701 0
M  V30 10549 C 1050.68 0.51094 2.00182 0
M  V30 10550 C 1051.09 -0.903914 1.66211 0
M  V30 10551 O 1050.43 -1.60529 0.893089 0
M  V30 10552 C 1050.49 0.600775 3.54445 0
M  V30 10553 C 1050.16 1.97915 4.1192 0
M  V30 10554 C 1051.16 2.94802 4.28238 0
M  V30 10555 C 1048.84 2.28336 4.47401 0
M  V30 10556 C 1050.83 4.20245 4.79242 0
M  V30 10557 C 1048.52 3.54026 4.98105 0
M  V30 10558 C 1049.52 4.49796 5.13978 0
M  V30 10559 O 1049.21 5.73256 5.63589 0
M  V30 10560 H 1048.94 0.196477 0.646818 0
M  V30 10561 H 1051.49 1.18659 1.67658 0
M  V30 10562 H 1049.72 -0.131832 3.86475 0
M  V30 10563 H 1051.41 0.242996 4.05172 0
M  V30 10564 H 1052.18 2.7261 4.01134 0
M  V30 10565 H 1048.06 1.54564 4.34317 0
M  V30 10566 H 1051.6 4.95003 4.91546 0
M  V30 10567 H 1047.5 3.76057 5.24644 0
M  V30 10568 H 1048.27 5.75577 5.81939 0
M  V30 10569 N 1050.93 -1.4397 0.641131 0
M  V30 10570 C 1052.21 -1.95436 0.0800918 0
M  V30 10571 C 1052.59 -1.58282 -1.39678 0
M  V30 10572 O 1051.93 -0.861867 -2.11623 0
M  V30 10573 C 1052.14 -3.47589 0.313531 0
M  V30 10574 C 1053.49 -4.2407 0.212034 0
M  V30 10575 O 1054.52 -3.55353 0.245434 0
M  V30 10576 O 1053.38 -5.46356 0.125455 0
M  V30 10577 H 1050.47 -0.826834 -0.0165735 0
M  V30 10578 H 1053.02 -1.5397 0.71353 0
M  V30 10579 H 1051.79 -3.67716 1.33793 0
M  V30 10580 H 1051.41 -3.96025 -0.353563 0
M  V30 10581 N 1052.41 -0.382291 -1.52893 0
M  V30 10582 C 1053.66 0.201734 -2.01091 0
M  V30 10583 C 1053.98 1.47905 -1.2708 0
M  V30 10584 O 1053.25 1.92002 -0.38883 0
M  V30 10585 H 1051.83 0.0775373 -0.742965 0
M  V30 10586 H 1054.49 -0.512369 -1.88045 0
M  V30 10587 H 1053.58 0.416919 -3.09303 0
M  V30 10588 N 1053.89 1.57202 -0.111913 0
M  V30 10589 C 1054.8 2.18475 0.854753 0
M  V30 10590 C 1055.81 1.15888 1.29792 0
M  V30 10591 O 1056.99 1.48329 1.36237 0
M  V30 10592 C 1054.05 2.76645 2.0897 0
M  V30 10593 C 1053.11 3.94244 1.69913 0
M  V30 10594 C 1052.35 4.49631 2.8752 0
M  V30 10595 O 1052.57 4.03926 4.02741 0
M  V30 10596 O 1051.5 5.40417 2.65015 0
M  V30 10597 H 1055.33 3.01519 0.363352 0
M  V30 10598 H 1052.91 1.4897 0.113329 0
M  V30 10599 H 1054.8 3.13755 2.81311 0
M  V30 10600 H 1053.47 1.96637 2.5713 0
M  V30 10601 H 1052.38 3.61915 0.947013 0
M  V30 10602 H 1053.71 4.75666 1.26501 0
M  V30 10603 N 1055.36 -0.161842 1.56767 0
M  V30 10604 C 1056.61 -0.875278 1.81719 0
M  V30 10605 C 1056.93 -1.82998 0.690739 0
M  V30 10606 O 1058.13 -2.58648 0.82545 0
M  V30 10607 C 1056.59 -1.60703 3.22029 0
M  V30 10608 C 1056.2 -0.695486 4.42569 0
M  V30 10609 C 1057.94 -2.30813 3.56266 0
M  V30 10610 C 1055.85 -1.42801 5.73901 0
M  V30 10611 H 1054.78 -0.330591 0.677662 0
M  V30 10612 H 1057.43 -0.128112 1.83052 0
M  V30 10613 H 1055.81 -2.39929 3.1504 0
M  V30 10614 H 1056.98 0.0604882 4.6076 0
M  V30 10615 H 1055.3 -0.10356 4.16271 0
M  V30 10616 H 1057.9 -2.86229 4.51638 0
M  V30 10617 H 1058.24 -3.06603 2.81604 0
M  V30 10618 H 1058.77 -1.5852 3.64851 0
M  V30 10619 H 1055.51 -0.712253 6.51619 0
M  V30 10620 H 1055.03 -2.15707 5.5967 0
M  V30 10621 H 1056.71 -1.97295 6.16185 0
M  V30 10622 N 1056.84 -1.516 -0.430713 0
M  V30 10623 C 1058.09 -1.64596 -1.17959 0
M  V30 10624 C 1058.42 -0.365382 -1.91037 0
M  V30 10625 O 1057.67 0.650826 -1.84561 0
M  V30 10626 C 1057.97 -2.804 -2.21609 0
M  V30 10627 C 1057.64 -4.19431 -1.65495 0
M  V30 10628 C 1056.3 -4.57252 -1.49915 0
M  V30 10629 C 1058.65 -5.0616 -1.24304 0
M  V30 10630 C 1055.98 -5.79501 -0.916276 0
M  V30 10631 C 1058.33 -6.28995 -0.674437 0
M  V30 10632 C 1056.99 -6.65582 -0.505591 0
M  V30 10633 H 1056.26 -0.602301 -0.431642 0
M  V30 10634 H 1058.91 -1.8565 -0.469726 0
M  V30 10635 H 1057.22 -2.53595 -2.98658 0
M  V30 10636 H 1058.91 -2.87654 -2.79385 0
M  V30 10637 H 1055.5 -3.89615 -1.78599 0
M  V30 10638 H 1059.69 -4.77541 -1.35159 0
M  V30 10639 H 1054.94 -6.0649 -0.77328 0
M  V30 10640 H 1059.12 -6.95536 -0.346779 0
M  V30 10641 H 1056.74 -7.60182 -0.0518188 0
M  V30 10642 N 1058.32 0.686584 -1.41858 0
M  V30 10643 C 1059.25 1.81202 -1.40352 0
M  V30 10644 C 1060.26 1.5993 -0.304322 0
M  V30 10645 O 1061.45 1.69267 -0.566643 0
M  V30 10646 C 1058.55 3.18116 -1.16856 0
M  V30 10647 C 1057.73 3.66339 -2.38987 0
M  V30 10648 C 1056.79 4.8195 -2.11212 0
M  V30 10649 O 1055.81 4.93102 -2.84323 0
M  V30 10650 N 1057.01 5.69829 -1.10793 0
M  V30 10651 H 1059.78 1.82983 -2.37355 0
M  V30 10652 H 1057.34 0.869244 -1.36586 0
M  V30 10653 H 1059.33 3.93097 -0.962125 0
M  V30 10654 H 1057.9 3.11306 -0.284186 0
M  V30 10655 H 1057.12 2.82166 -2.75274 0
M  V30 10656 H 1058.41 3.95297 -3.2034 0
M  V30 10657 H 1057.81 5.63459 -0.503012 0
M  V30 10658 H 1056.36 6.44671 -0.961379 0
M  V30 10659 N 1059.8 1.27835 0.921735 0
M  V30 10660 C 1061.21 1.13151 1.48505 0
M  V30 10661 C 1061.56 -0.281373 1.94172 0
M  V30 10662 O 1060.68 -1.17487 1.8173 0
M  V30 10663 C 1061.28 2.04792 2.69899 0
M  V30 10664 C 1059.84 1.94196 3.22436 0
M  V30 10665 C 1058.99 1.96999 1.95158 0
M  V30 10666 H 1061.94 1.40641 0.735241 0
M  V30 10667 H 1061.96 1.60724 3.44889 0
M  V30 10668 H 1061.47 3.07615 2.36631 0
M  V30 10669 H 1059.57 0.943805 3.60448 0
M  V30 10670 H 1059.68 2.80744 3.88226 0
M  V30 10671 H 1058.05 1.41301 2.11911 0
M  V30 10672 H 1058.83 3.01487 1.64196 0
M  V30 10673 N 1061.28 -1.12907 1.09954 0
M  V30 10674 C 1062.19 -2.22082 0.756095 0
M  V30 10675 C 1063.2 -1.72277 -0.244272 0
M  V30 10676 O 1064.38 -2.01224 -0.0842637 0
M  V30 10677 C 1061.44 -3.46192 0.187642 0
M  V30 10678 C 1060.5 -4.10861 1.24465 0
M  V30 10679 C 1059.74 -5.29047 0.703227 0
M  V30 10680 O 1059.96 -5.68443 -0.472043 0
M  V30 10681 O 1058.89 -5.83904 1.46082 0
M  V30 10682 H 1062.72 -2.53842 1.66727 0
M  V30 10683 H 1060.3 -1.21145 0.874316 0
M  V30 10684 H 1062.19 -4.21212 -0.125774 0
M  V30 10685 H 1060.86 -3.16119 -0.696459 0
M  V30 10686 H 1059.77 -3.37643 1.61085 0
M  V30 10687 H 1061.1 -4.45078 2.10159 0
M  V30 10688 N 1062.75 -0.88754 -1.30232 0
M  V30 10689 C 1064.03 -0.427249 -1.90877 0
M  V30 10690 C 1064.41 1.0922 -1.80649 0
M  V30 10691 O 1063.76 1.92866 -1.22536 0
M  V30 10692 C 1063.97 -0.928219 -3.3643 0
M  V30 10693 C 1065.32 -0.964706 -4.13496 0
M  V30 10694 O 1066.34 -0.875057 -3.45284 0
M  V30 10695 O 1065.2 -1.09754 -5.35366 0
M  V30 10696 H 1062.29 -0.131107 -0.816541 0
M  V30 10697 H 1064.84 -0.976609 -1.38782 0
M  V30 10698 H 1063.61 -1.97209 -3.37971 0
M  V30 10699 H 1063.23 -0.358169 -3.95983 0
M  V30 10700 N 1064.23 1.43628 -0.648757 0
M  V30 10701 C 1065.48 2.01083 -0.157692 0
M  V30 10702 C 1065.79 1.51756 1.23408 0
M  V30 10703 O 1067 2.01455 1.82012 0
M  V30 10704 C 1065.46 3.59157 -0.231118 0
M  V30 10705 C 1065.06 4.17478 -1.6253 0
M  V30 10706 C 1066.81 4.24016 0.202573 0
M  V30 10707 C 1064.72 5.67832 -1.6529 0
M  V30 10708 H 1063.65 0.751977 -0.0551897 0
M  V30 10709 H 1066.3 1.64648 -0.810139 0
M  V30 10710 H 1064.68 3.92972 0.488755 0
M  V30 10711 H 1065.85 3.9517 -2.37017 0
M  V30 10712 H 1064.17 3.64973 -2.00459 0
M  V30 10713 H 1066.76 5.34319 0.20174 0
M  V30 10714 H 1067.11 3.97616 1.23319 0
M  V30 10715 H 1067.64 3.95068 -0.465398 0
M  V30 10716 H 1064.38 5.98994 -2.66246 0
M  V30 10717 H 1063.9 5.92209 -0.951217 0
M  V30 10718 H 1065.58 6.3179 -1.39465 0
M  V30 10719 N 1065.71 0.390394 1.52688 0
M  V30 10720 C 1066.96 -0.191445 2.01593 0
M  V30 10721 C 1067.29 -1.46723 1.27681 0
M  V30 10722 O 1066.54 -1.92248 0.365972 0
M  V30 10723 C 1066.84 -0.50468 3.53819 0
M  V30 10724 C 1066.51 0.679691 4.45748 0
M  V30 10725 C 1065.17 1.0046 4.70597 0
M  V30 10726 C 1067.52 1.47198 4.99982 0
M  V30 10727 C 1064.85 2.12334 5.46929 0
M  V30 10728 C 1067.2 2.58133 5.77538 0
M  V30 10729 C 1065.86 2.91131 6.00665 0
M  V30 10730 H 1065.13 -0.0700548 0.737681 0
M  V30 10731 H 1067.78 0.527965 1.84078 0
M  V30 10732 H 1066.09 -1.30543 3.69413 0
M  V30 10733 H 1067.78 -0.967524 3.89153 0
M  V30 10734 H 1064.37 0.416446 4.26572 0
M  V30 10735 H 1068.56 1.2342 4.80709 0
M  V30 10736 H 1063.81 2.38269 5.63061 0
M  V30 10737 H 1067.99 3.19925 6.18564 0
M  V30 10738 H 1065.61 3.77938 6.59596 0
M  V30 10739 N 1067.19 -1.57141 0.120249 0
M  V30 10740 C 1068.41 -2.00017 -0.548454 0
M  V30 10741 C 1068.84 -0.999433 -1.59352 0
M  V30 10742 O 1068.2 0.0286978 -1.81277 0
M  V30 10743 C 1068.24 -3.41766 -1.15015 0
M  V30 10744 O 1067.35 -3.44589 -2.26566 0
M  V30 10745 H 1066.69 -0.649739 -0.136875 0
M  V30 10746 H 1069.22 -2.03529 0.209092 0
M  V30 10747 H 1069.23 -3.80001 -1.48537 0
M  V30 10748 H 1067.9 -4.14117 -0.384681 0
M  V30 10749 H 1066.48 -3.18174 -1.94473 0
M  V30 10750 N 1068.67 0.153526 -1.5685 0
M  V30 10751 C 1069.94 0.895545 -1.73895 0
M  V30 10752 C 1070.32 1.99625 -0.686504 0
M  V30 10753 O 1069.67 2.26579 0.2957 0
M  V30 10754 C 1069.88 1.44399 -3.17726 0
M  V30 10755 C 1071.23 1.90996 -3.79217 0
M  V30 10756 O 1072.25 1.54155 -3.21115 0
M  V30 10757 O 1071.11 2.58917 -4.81274 0
M  V30 10758 H 1068.21 0.422755 -0.710779 0
M  V30 10759 H 1070.75 0.139961 -1.69122 0
M  V30 10760 H 1069.52 0.652635 -3.85819 0
M  V30 10761 H 1069.15 2.26326 -3.26898 0
M  V30 10762 N 1070.14 1.51827 0.422667 0
M  V30 10763 C 1071.09 1.7058 1.51282 0
M  V30 10764 C 1072.08 0.5597 1.50851 0
M  V30 10765 O 1073.27 0.816223 1.57057 0
M  V30 10766 C 1070.4 1.84759 2.89342 0
M  V30 10767 C 1069.49 3.05199 2.94473 0
M  V30 10768 N 1069.88 4.28135 2.69322 0
M  V30 10769 C 1068.17 3.04755 3.25638 0
M  V30 10770 C 1068.88 5.09507 2.80674 0
M  V30 10771 N 1067.85 4.44464 3.12974 0
M  V30 10772 H 1071.65 2.63283 1.30611 0
M  V30 10773 H 1069.17 1.49674 0.630191 0
M  V30 10774 H 1071.16 1.96308 3.67789 0
M  V30 10775 H 1069.82 0.932478 3.11022 0
M  V30 10776 H 1070.84 4.56835 2.43972 0
M  V30 10777 H 1067.51 2.2293 3.52999 0
M  V30 10778 H 1068.9 6.17409 2.65058 0
M  V30 10779 N 1071.62 -0.679052 1.4222 0
M  V30 10780 C 1072.57 -1.78522 1.41824 0
M  V30 10781 C 1073.56 -1.58262 0.290179 0
M  V30 10782 O 1074.75 -1.68813 0.532092 0
M  V30 10783 C 1071.88 -3.16952 1.31895 0
M  V30 10784 C 1070.96 -3.42849 2.4963 0
M  V30 10785 N 1071.35 -3.39354 3.75063 0
M  V30 10786 C 1069.65 -3.73468 2.43799 0
M  V30 10787 C 1070.35 -3.64617 4.53243 0
M  V30 10788 N 1069.33 -3.85174 3.83591 0
M  V30 10789 H 1073.13 -1.74206 2.36705 0
M  V30 10790 H 1070.65 -0.879719 1.36509 0
M  V30 10791 H 1072.64 -3.96214 1.29693 0
M  V30 10792 H 1071.3 -3.22467 0.380127 0
M  V30 10793 H 1072.31 -3.19354 4.07718 0
M  V30 10794 H 1068.99 -3.86254 1.58474 0
M  V30 10795 H 1070.38 -3.67912 5.62219 0
M  V30 10796 N 1073.1 -1.28322 -0.914942 0
M  V30 10797 C 1074.33 -1.18254 -1.69775 0
M  V30 10798 C 1074.74 0.258978 -1.87015 0
M  V30 10799 O 1074.1 1.17514 -1.3963 0
M  V30 10800 C 1074.15 -1.8753 -3.09054 0
M  V30 10801 O 1073.87 -3.26051 -2.92613 0
M  V30 10802 C 1075.37 -1.83749 -4.03424 0
M  V30 10803 H 1072.59 -0.41055 -0.530744 0
M  V30 10804 H 1075.14 -1.69425 -1.14523 0
M  V30 10805 H 1073.29 -1.40233 -3.61128 0
M  V30 10806 H 1073.71 -3.60729 -3.80756 0
M  V30 10807 H 1075.18 -2.36813 -4.98622 0
M  V30 10808 H 1075.66 -0.809601 -4.31674 0
M  V30 10809 H 1076.26 -2.3072 -3.57279 0
M  V30 10810 N 1074.58 1.12322 -1.10551 0
M  V30 10811 C 1075.51 2.17221 -0.699299 0
M  V30 10812 C 1076.49 1.59809 0.299973 0
M  V30 10813 O 1077.67 1.87451 0.198589 0
M  V30 10814 C 1074.8 3.38685 -0.0320136 0
M  V30 10815 C 1073.85 4.14732 -0.99495 0
M  V30 10816 S 1074.68 4.72879 -2.51288 0
M  V30 10817 C 1075.84 5.97676 -1.85834 0
M  V30 10818 H 1076.07 2.51342 -1.5879 0
M  V30 10819 H 1073.6 1.23802 -0.92263 0
M  V30 10820 H 1075.56 4.09034 0.346656 0
M  V30 10821 H 1074.22 3.02842 0.833407 0
M  V30 10822 H 1073.41 5.01754 -0.475331 0
M  V30 10823 H 1073.02 3.50098 -1.31559 0
M  V30 10824 H 1075.31 6.6698 -1.18927 0
M  V30 10825 H 1076.25 6.54266 -2.70817 0
M  V30 10826 H 1076.66 5.48793 -1.32237 0
M  V30 10827 N 1076.06 0.894434 1.2976 0
M  V30 10828 C 1077.3 0.524501 1.97556 0
M  V30 10829 C 1077.66 -0.911202 1.69 0
M  V30 10830 O 1078.86 -1.38774 2.30207 0
M  V30 10831 C 1077.13 0.802636 3.48271 0
M  V30 10832 S 1078.69 0.536223 4.35511 0
M  V30 10833 H 1075.51 0.194786 0.683798 0
M  V30 10834 H 1078.11 1.15574 1.5768 0
M  V30 10835 H 1076.82 1.84586 3.66546 0
M  V30 10836 H 1076.35 0.159316 3.93077 0
M  V30 10837 H 1078.36 -0.621056 4.92298 0
M  V30 10838 N 1077.53 -1.43282 0.656365 0
M  V30 10839 C 1078.76 -2.05826 0.178619 0
M  V30 10840 C 1079.17 -1.493 -1.16216 0
M  V30 10841 O 1078.52 -0.620163 -1.72915 0
M  V30 10842 C 1078.58 -3.59496 0.0164101 0
M  V30 10843 C 1078.24 -4.38621 1.28298 0
M  V30 10844 C 1079.24 -4.70477 2.21241 0
M  V30 10845 C 1076.92 -4.78577 1.52544 0
M  V30 10846 C 1078.92 -5.412 3.36721 0
M  V30 10847 C 1076.6 -5.49044 2.68316 0
M  V30 10848 C 1077.6 -5.80279 3.6023 0
M  V30 10849 O 1077.29 -6.49306 4.7398 0
M  V30 10850 H 1077.02 -0.670158 0.0886814 0
M  V30 10851 H 1079.58 -1.84722 0.89816 0
M  V30 10852 H 1077.81 -3.79188 -0.758532 0
M  V30 10853 H 1079.5 -4.03731 -0.419096 0
M  V30 10854 H 1080.26 -4.40125 2.03753 0
M  V30 10855 H 1076.14 -4.5367 0.818816 0
M  V30 10856 H 1079.68 -5.65497 4.08483 0
M  V30 10857 H 1075.58 -5.78813 2.85738 0
M  V30 10858 H 1076.35 -6.67789 4.73286 0
M  V30 10859 N 1079.01 -0.398486 -1.52479 0
M  V30 10860 C 1080.25 0.180412 -2.03602 0
M  V30 10861 C 1080.62 1.43276 -1.27812 0
M  V30 10862 O 1081.82 2.08941 -1.69107 0
M  V30 10863 C 1080.09 0.432744 -3.5477 0
M  V30 10864 S 1081.65 0.980612 -4.27703 0
M  V30 10865 H 1078.47 0.0499981 -0.70924 0
M  V30 10866 H 1081.07 -0.548952 -1.87635 0
M  V30 10867 H 1079.77 -0.48568 -4.07516 0
M  V30 10868 H 1079.3 1.19028 -3.74961 0
M  V30 10869 H 1081.32 2.26216 -4.41634 0
M  V30 10870 N 1080.49 1.57075 -0.12858 0
M  V30 10871 C 1081.4 2.19369 0.831533 0
M  V30 10872 C 1082.42 1.17258 1.28555 0
M  V30 10873 O 1083.59 1.49766 1.34656 0
M  V30 10874 C 1080.66 2.78846 2.06024 0
M  V30 10875 C 1079.72 3.96024 1.65722 0
M  V30 10876 C 1078.95 4.52655 2.82735 0
M  V30 10877 O 1079.18 4.08175 3.98434 0
M  V30 10878 O 1078.11 5.43198 2.59268 0
M  V30 10879 H 1081.94 3.01887 0.331352 0
M  V30 10880 H 1079.52 1.49081 0.0975226 0
M  V30 10881 H 1081.4 3.16721 2.77967 0
M  V30 10882 H 1080.08 1.99353 2.5503 0
M  V30 10883 H 1078.98 3.62899 0.908574 0
M  V30 10884 H 1080.32 4.76981 1.21449 0
M  V30 10885 N 1081.97 -0.145205 1.5693 0
M  V30 10886 C 1083.25 -0.88631 1.74367 0
M  V30 10887 C 1083.63 -1.99259 0.697081 0
M  V30 10888 O 1082.97 -2.26732 -0.28368 0
M  V30 10889 C 1083.18 -1.42712 3.18488 0
M  V30 10890 C 1084.53 -1.88982 3.80225 0
M  V30 10891 O 1085.56 -1.5245 3.21928 0
M  V30 10892 O 1084.42 -2.56361 4.8264 0
M  V30 10893 H 1081.51 -0.418979 0.713011 0
M  V30 10894 H 1084.06 -0.130991 1.69194 0
M  V30 10895 H 1082.83 -0.632165 3.8616 0
M  V30 10896 H 1082.45 -2.24589 3.28094 0
M  V30 10897 N 1083.45 -1.52049 -0.414609 0
M  V30 10898 C 1084.7 -1.65511 -1.15977 0
M  V30 10899 C 1085.02 -0.384703 -1.91168 0
M  V30 10900 O 1084.29 0.600247 -1.86477 0
M  V30 10901 H 1082.87 -0.610039 -0.431116 0
M  V30 10902 H 1085.53 -1.8907 -0.473139 0
M  V30 10903 H 1084.62 -2.4936 -1.87686 0
M  V30 10904 N 1084.93 0.6715 -1.42579 0
M  V30 10905 C 1086.17 1.43154 -1.43224 0
M  V30 10906 C 1086.5 1.94436 -0.0498695 0
M  V30 10907 O 1085.76 1.71521 0.942282 0
M  V30 10908 C 1086.05 2.64256 -2.40632 0
M  V30 10909 C 1085.72 2.31497 -3.86937 0
M  V30 10910 C 1084.38 2.22274 -4.26788 0
M  V30 10911 C 1086.73 2.04957 -4.7921 0
M  V30 10912 C 1084.06 1.84642 -5.56888 0
M  V30 10913 C 1086.41 1.68828 -6.09656 0
M  V30 10914 C 1085.08 1.58118 -6.48502 0
M  V30 10915 H 1084.35 0.523838 -0.524094 0
M  V30 10916 H 1087 0.765363 -1.7554 0
M  V30 10917 H 1085.3 3.35921 -2.01654 0
M  V30 10918 H 1087 3.22443 -2.38394 0
M  V30 10919 H 1083.59 2.39578 -3.55387 0
M  V30 10920 H 1087.77 2.11014 -4.49207 0
M  V30 10921 H 1083.03 1.74921 -5.85843 0
M  V30 10922 H 1087.2 1.47319 -6.8064 0
M  V30 10923 H 1084.83 1.28728 -7.49222 0
M  V30 10924 N 1086.4 1.28806 0.908124 0
M  V30 10925 C 1087.34 1.07538 2.01273 0
M  V30 10926 C 1088.31 -0.0102454 1.62597 0
M  V30 10927 O 1089.5 0.138797 1.87988 0
M  V30 10928 C 1086.63 0.635337 3.32688 0
M  V30 10929 C 1085.67 1.71843 3.90349 0
M  V30 10930 S 1086.5 3.31571 4.20501 0
M  V30 10931 C 1087.66 2.89416 5.54968 0
M  V30 10932 H 1087.89 2.01058 2.19005 0
M  V30 10933 H 1085.43 1.12857 1.05369 0
M  V30 10934 H 1087.38 0.388159 4.08661 0
M  V30 10935 H 1086.05 -0.280122 3.12848 0
M  V30 10936 H 1085.24 1.36228 4.8524 0
M  V30 10937 H 1084.84 1.91869 3.21033 0
M  V30 10938 H 1087.13 2.35936 6.35091 0
M  V30 10939 H 1088.08 3.83126 5.955 0
M  V30 10940 H 1088.48 2.27962 5.16424 0
M  V30 10941 N 1087.88 -1.11734 1.11145 0
M  V30 10942 C 1088.83 -2.15789 0.736133 0
M  V30 10943 C 1089.82 -1.58813 -0.25832 0
M  V30 10944 O 1091.01 -1.76877 -0.0659078 0
M  V30 10945 C 1088.14 -3.4284 0.177597 0
M  V30 10946 C 1087.22 -4.06783 1.19953 0
M  V30 10947 N 1087.61 -4.45626 2.39271 0
M  V30 10948 C 1085.91 -4.33663 1.04176 0
M  V30 10949 C 1086.61 -4.95684 3.04422 0
M  V30 10950 N 1085.59 -4.91648 2.31912 0
M  V30 10951 H 1089.39 -2.43598 1.6443 0
M  V30 10952 H 1086.9 -1.28716 0.990247 0
M  V30 10953 H 1088.9 -4.16756 -0.109402 0
M  V30 10954 H 1087.56 -3.16498 -0.725201 0
M  V30 10955 H 1088.57 -4.37757 2.76747 0
M  V30 10956 H 1085.25 -4.17044 0.195132 0
M  V30 10957 H 1086.64 -5.35394 4.05959 0
M  V30 10958 N 1089.36 -0.901303 -1.29284 0
M  V30 10959 C 1090.6 -0.534971 -1.97275 0
M  V30 10960 C 1090.96 0.902226 -1.69481 0
M  V30 10961 O 1092.16 1.37551 -2.3094 0
M  V30 10962 C 1090.44 -0.821095 -3.4784 0
M  V30 10963 S 1091.99 -0.559312 -4.35221 0
M  V30 10964 H 1088.81 -0.198409 -0.682755 0
M  V30 10965 H 1091.41 -1.16408 -1.57065 0
M  V30 10966 H 1090.12 -1.86527 -3.65562 0
M  V30 10967 H 1089.65 -0.18016 -3.92987 0
M  V30 10968 H 1091.66 0.59494 -4.9262 0
M  V30 10969 N 1090.84 1.42931 -0.663954 0
M  V30 10970 C 1092.07 2.06028 -0.189808 0
M  V30 10971 C 1092.48 1.49827 1.14879 0
M  V30 10972 O 1091.84 0.633778 1.71142 0
M  V30 10973 C 1091.89 3.61349 -0.104343 0
M  V30 10974 O 1091.61 4.15463 -1.39004 0
M  V30 10975 C 1093.11 4.4154 0.394599 0
M  V30 10976 H 1090.33 0.664259 -0.0948744 0
M  V30 10977 H 1092.87 1.83255 -0.907632 0
M  V30 10978 H 1091.03 3.83271 0.564103 0
M  V30 10979 H 1091.44 5.09233 -1.25626 0
M  V30 10980 H 1092.92 5.50525 0.403329 0
M  V30 10981 H 1093.39 4.1534 1.4279 0
M  V30 10982 H 1094 4.24612 -0.241729 0
M  V30 10983 N 1092.32 0.406567 1.52266 0
M  V30 10984 C 1093.25 -0.464709 2.23418 0
M  V30 10985 C 1094.23 -1.05008 1.24146 0
M  V30 10986 O 1095.41 -1.09843 1.53188 0
M  V30 10987 C 1092.54 -1.64481 2.96081 0
M  V30 10988 C 1091.58 -1.18307 4.09763 0
M  V30 10989 S 1092.42 -0.150326 5.35289 0
M  V30 10990 C 1093.57 -1.3358 6.11479 0
M  V30 10991 H 1093.81 0.139455 2.96973 0
M  V30 10992 H 1091.34 0.19085 1.53216 0
M  V30 10993 H 1093.3 -2.3215 3.38551 0
M  V30 10994 H 1091.96 -2.22031 2.22174 0
M  V30 10995 H 1091.15 -2.06466 4.59769 0
M  V30 10996 H 1090.75 -0.58505 3.69396 0
M  V30 10997 H 1093.04 -2.25986 6.38699 0
M  V30 10998 H 1093.99 -0.876328 7.02656 0
M  V30 10999 H 1094.4 -1.56044 5.42504 0
M  V30 11000 N 1093.79 -1.57004 0.136909 0
M  V30 11001 C 1095.02 -2.00587 -0.527209 0
M  V30 11002 C 1095.44 -1.01628 -1.58283 0
M  V30 11003 O 1094.8 0.00946934 -1.81298 0
M  V30 11004 C 1094.85 -3.42967 -1.11384 0
M  V30 11005 O 1093.95 -3.46973 -2.22898 0
M  V30 11006 H 1093.3 -0.651155 -0.129976 0
M  V30 11007 H 1095.83 -2.03296 0.230667 0
M  V30 11008 H 1095.84 -3.81555 -1.44499 0
M  V30 11009 H 1094.51 -4.14502 -0.340736 0
M  V30 11010 H 1093.09 -3.20219 -1.91087 0
M  V30 11011 N 1095.27 0.136881 -1.57004 0
M  V30 11012 C 1096.52 0.8461 -1.83536 0
M  V30 11013 C 1096.84 1.81246 -0.71937 0
M  V30 11014 O 1096.11 1.94191 0.258161 0
M  V30 11015 H 1094.69 0.315446 -0.677128 0
M  V30 11016 H 1097.35 0.128469 -1.94476 0
M  V30 11017 H 1096.45 1.40221 -2.78827 0
M  V30 11018 N 1096.75 1.52266 0.40654 0
M  V30 11019 C 1098 1.66699 1.15496 0
M  V30 11020 C 1098.33 0.397019 1.90098 0
M  V30 11021 O 1097.6 -0.604646 1.84863 0
M  V30 11022 C 1097.89 2.8907 2.14734 0
M  V30 11023 C 1097.74 4.26123 1.44012 0
M  V30 11024 C 1099.06 3.06966 3.15373 0
M  V30 11025 H 1096.18 0.606642 0.418515 0
M  V30 11026 H 1098.82 1.84826 0.440381 0
M  V30 11027 H 1096.97 2.73745 2.75673 0
M  V30 11028 H 1098.64 4.5318 0.861722 0
M  V30 11029 H 1096.89 4.27406 0.742064 0
M  V30 11030 H 1097.56 5.07799 2.16436 0
M  V30 11031 H 1100.03 3.21205 2.64512 0
M  V30 11032 H 1098.91 3.94097 3.82072 0
M  V30 11033 H 1099.17 2.20395 3.83247 0
M  V30 11034 N 1098.23 -0.663929 1.42933 0
M  V30 11035 C 1099.64 -1.24484 1.39143 0
M  V30 11036 C 1099.99 -1.95993 0.0901142 0
M  V30 11037 O 1099.12 -2.00636 -0.810812 0
M  V30 11038 C 1099.71 -2.26402 2.52047 0
M  V30 11039 C 1098.27 -2.79995 2.51555 0
M  V30 11040 C 1097.42 -1.54475 2.30289 0
M  V30 11041 H 1100.37 -0.456619 1.51989 0
M  V30 11042 H 1100.39 -3.08361 2.22921 0
M  V30 11043 H 1099.9 -1.74328 3.46744 0
M  V30 11044 H 1098 -3.36161 1.60707 0
M  V30 11045 H 1098.11 -3.2827 3.48964 0
M  V30 11046 H 1096.48 -1.81437 1.78753 0
M  V30 11047 H 1097.26 -1.04351 3.27056 0
M  V30 11048 N 1099.71 -1.29285 -0.901281 0
M  V30 11049 C 1100.95 -1.16934 -1.64836 0
M  V30 11050 C 1101.28 0.279826 -1.92982 0
M  V30 11051 O 1100.55 1.19179 -1.55478 0
M  V30 11052 H 1099.13 -0.429768 -0.61099 0
M  V30 11053 H 1101.79 -1.62189 -1.08077 0
M  V30 11054 H 1100.88 -1.71821 -2.60545 0
M  V30 11055 N 1101.18 1.11143 -1.11736 0
M  V30 11056 C 1102.41 1.87285 -0.891007 0
M  V30 11057 C 1102.83 1.79758 0.553971 0
M  V30 11058 O 1102.19 1.16221 1.39149 0
M  V30 11059 C 1102.24 3.33924 -1.36114 0
M  V30 11060 O 1101.34 4.08917 -0.534851 0
M  V30 11061 H 1100.69 0.581418 -0.320701 0
M  V30 11062 H 1103.22 1.40469 -1.4876 0
M  V30 11063 H 1103.23 3.84772 -1.35701 0
M  V30 11064 H 1101.9 3.38719 -2.41334 0
M  V30 11065 H 1100.48 3.67954 -0.605355 0
M  V30 11066 N 1102.66 0.908147 1.28804 0
M  V30 11067 C 1103.59 0.409106 2.29888 0
M  V30 11068 C 1104.57 -0.520338 1.61946 0
M  V30 11069 O 1105.76 -0.429268 1.89396 0
M  V30 11070 C 1102.89 -0.35669 3.45463 0
M  V30 11071 C 1101.84 0.4831 4.25265 0
M  V30 11072 C 1101.17 -0.4107 5.3312 0
M  V30 11073 C 1102.47 1.73744 4.92555 0
M  V30 11074 H 1104.16 1.25386 2.7188 0
M  V30 11075 H 1101.71 0.604368 1.30703 0
M  V30 11076 H 1103.66 -0.71661 4.15262 0
M  V30 11077 H 1102.39 -1.2353 3.02337 0
M  V30 11078 H 1101.04 0.825464 3.57186 0
M  V30 11079 H 1100.69 -1.28769 4.86238 0
M  V30 11080 H 1100.39 0.14756 5.87415 0
M  V30 11081 H 1101.92 -0.766626 6.05768 0
M  V30 11082 H 1103.33 1.44676 5.54745 0
M  V30 11083 H 1101.73 2.23767 5.5682 0
M  V30 11084 H 1102.8 2.46853 4.17363 0
M  V30 11085 N 1104.14 -1.42577 0.671525 0
M  V30 11086 C 1105.07 -2.33499 0.00506984 0
M  V30 11087 C 1106.05 -1.50497 -0.792763 0
M  V30 11088 O 1107.24 -1.79109 -0.750574 0
M  V30 11089 C 1104.37 -3.34077 -0.949194 0
M  V30 11090 C 1103.32 -4.27208 -0.260187 0
M  V30 11091 C 1102.65 -5.17968 -1.32716 0
M  V30 11092 C 1103.95 -5.15192 0.858772 0
M  V30 11093 H 1105.64 -2.89477 0.764407 0
M  V30 11094 H 1103.19 -1.39191 0.369043 0
M  V30 11095 H 1105.14 -3.96594 -1.42448 0
M  V30 11096 H 1103.86 -2.76396 -1.73991 0
M  V30 11097 H 1102.52 -3.66082 0.194834 0
M  V30 11098 H 1102.17 -4.56615 -2.10979 0
M  V30 11099 H 1101.87 -5.81104 -0.871293 0
M  V30 11100 H 1103.39 -5.83359 -1.80345 0
M  V30 11101 H 1104.81 -5.71412 0.464844 0
M  V30 11102 H 1103.21 -5.87144 1.24023 0
M  V30 11103 H 1104.28 -4.53787 1.70895 0
M  V30 11104 N 1105.62 -0.414636 -1.52048 0
M  V30 11105 C 1107.03 0.0537107 -1.86623 0
M  V30 11106 C 1107.38 1.43955 -1.3331 0
M  V30 11107 O 1106.51 2.05616 -0.674606 0
M  V30 11108 C 1107.1 0.104241 -3.3864 0
M  V30 11109 C 1105.66 0.516936 -3.72833 0
M  V30 11110 C 1104.81 -0.305042 -2.75617 0
M  V30 11111 H 1107.76 -0.631469 -1.45596 0
M  V30 11112 H 1107.78 0.918395 -3.6925 0
M  V30 11113 H 1107.29 -0.904523 -3.77412 0
M  V30 11114 H 1105.39 1.53214 -3.39641 0
M  V30 11115 H 1105.5 0.2575 -4.78408 0
M  V30 11116 H 1103.87 0.233416 -2.53628 0
M  V30 11117 H 1104.65 -1.31226 -3.1723 0
M  V30 11118 N 1107.1 1.56929 -0.145233 0
M  V30 11119 C 1108.37 1.8767 0.551288 0
M  V30 11120 C 1108.75 1.05089 1.83083 0
M  V30 11121 O 1108.1 0.137201 2.28088 0
M  V30 11122 C 1108.31 3.39268 0.818445 0
M  V30 11123 C 1109.66 4.08447 1.16 0
M  V30 11124 O 1110.68 3.44436 0.907857 0
M  V30 11125 O 1109.54 5.21488 1.63441 0
M  V30 11126 H 1106.64 0.777788 0.281024 0
M  V30 11127 H 1109.18 1.68724 -0.181712 0
M  V30 11128 H 1107.95 3.91203 -0.0871897 0
M  V30 11129 H 1107.58 3.63735 1.60569 0
M  V30 11130 N 1108.58 -0.128553 1.57075 0
M  V30 11131 C 1109.54 -1.14215 1.98715 0
M  V30 11132 C 1110.54 -1.34843 0.876019 0
M  V30 11133 O 1111.73 -1.31522 1.14227 0
M  V30 11134 C 1108.86 -2.49865 2.31905 0
M  V30 11135 H 1110.05 -0.784481 2.89458 0
M  V30 11136 H 1107.61 -0.372531 1.51796 0
M  V30 11137 H 1108.34 -2.9057 1.44012 0
M  V30 11138 H 1108.13 -2.3625 3.12935 0
M  V30 11139 H 1109.62 -3.22832 2.64895 0
M  V30 11140 N 1110.05 -1.5248 -0.398459 0
M  V30 11141 C 1111.3 -1.67309 -1.1461 0
M  V30 11142 C 1111.63 -0.407095 -1.89885 0
M  V30 11143 O 1110.91 0.594834 -1.85181 0
M  V30 11144 C 1111.19 -2.90204 -2.13198 0
M  V30 11145 C 1111.04 -4.26881 -1.4175 0
M  V30 11146 C 1112.36 -3.08634 -3.13741 0
M  V30 11147 H 1109.48 -0.608853 -0.415292 0
M  V30 11148 H 1112.12 -1.85057 -0.430573 0
M  V30 11149 H 1110.27 -2.75204 -2.74218 0
M  V30 11150 H 1111.95 -4.53631 -0.837676 0
M  V30 11151 H 1110.19 -4.27793 -0.719387 0
M  V30 11152 H 1110.86 -5.08939 -2.1374 0
M  V30 11153 H 1113.34 -3.22603 -2.62805 0
M  V30 11154 H 1112.21 -3.96117 -3.79977 0
M  V30 11155 H 1112.47 -2.22425 -3.82073 0
M  V30 11156 N 1111.53 0.65634 -1.43283 0
M  V30 11157 C 1112.46 1.78101 -1.51004 0
M  V30 11158 C 1113.44 1.66138 -0.36498 0
M  V30 11159 O 1114.63 1.85281 -0.581778 0
M  V30 11160 C 1111.76 3.16511 -1.42961 0
M  V30 11161 C 1110.71 3.43233 -2.55685 0
M  V30 11162 C 1110.04 4.81411 -2.32696 0
M  V30 11163 C 1111.34 3.38288 -3.97943 0
M  V30 11164 H 1113.03 1.71896 -2.45137 0
M  V30 11165 H 1110.58 0.825575 -1.17984 0
M  V30 11166 H 1112.53 3.94941 -1.46968 0
M  V30 11167 H 1111.25 3.23439 -0.45332 0
M  V30 11168 H 1109.91 2.67173 -2.51026 0
M  V30 11169 H 1109.56 4.85011 -1.33317 0
M  V30 11170 H 1109.26 5.00251 -3.08257 0
M  V30 11171 H 1110.79 5.62102 -2.38481 0
M  V30 11172 H 1112.2 4.06659 -4.04106 0
M  V30 11173 H 1110.6 3.68664 -4.73505 0
M  V30 11174 H 1111.67 2.36525 -4.23301 0
M  V30 11175 N 1113.01 1.29761 0.894412 0
M  V30 11176 C 1114.23 1.21064 1.68399 0
M  V30 11177 C 1114.66 -0.224608 1.86754 0
M  V30 11178 O 1114.02 -1.16199 1.39167 0
M  V30 11179 C 1114.07 1.93468 3.04306 0
M  V30 11180 O 1113.17 1.25533 3.9283 0
M  V30 11181 H 1112.51 0.419223 0.514925 0
M  V30 11182 H 1115.04 1.71421 1.11696 0
M  V30 11183 H 1115.05 2.02127 3.54413 0
M  V30 11184 H 1113.73 2.97857 2.90265 0
M  V30 11185 H 1112.3 1.25168 3.51266 0
M  V30 11186 N 1114.49 -1.10549 1.12324 0
M  V30 11187 C 1115.71 -1.8681 0.900927 0
M  V30 11188 C 1116.14 -1.80049 -0.54443 0
M  V30 11189 O 1115.5 -1.16957 -1.38531 0
M  V30 11190 C 1115.54 -3.33197 1.37883 0
M  V30 11191 O 1114.65 -4.08628 0.556529 0
M  V30 11192 H 1113.99 -0.579709 0.32378 0
M  V30 11193 H 1116.52 -1.39678 1.49503 0
M  V30 11194 H 1116.53 -3.84047 1.37739 0
M  V30 11195 H 1115.2 -3.37435 2.43127 0
M  V30 11196 H 1113.78 -3.67627 0.62486 0
M  V30 11197 N 1115.97 -0.914965 -1.28321 0
M  V30 11198 C 1117.38 -0.59512 -1.76961 0
M  V30 11199 C 1117.73 0.88958 -1.74874 0
M  V30 11200 O 1116.85 1.6959 -1.34418 0
M  V30 11201 C 1117.45 -1.07353 -3.21342 0
M  V30 11202 C 1116.01 -0.804577 -3.677 0
M  V30 11203 C 1115.15 -1.23955 -2.48053 0
M  V30 11204 H 1118.1 -1.0961 -1.14767 0
M  V30 11205 H 1118.13 -0.415506 -3.78225 0
M  V30 11206 H 1117.64 -2.15413 -3.22829 0
M  V30 11207 H 1115.74 0.26277 -3.71672 0
M  V30 11208 H 1115.85 -1.41317 -4.57784 0
M  V30 11209 H 1114.22 -0.658274 -2.46046 0
M  V30 11210 H 1115 -2.32853 -2.52258 0
M  V30 11211 N 1117.44 1.42219 -0.679077 0
M  V30 11212 C 1118.37 2.33493 -0.0174528 0
M  V30 11213 C 1119.35 1.50915 0.78477 0
M  V30 11214 O 1120.54 1.79504 0.741065 0
M  V30 11215 C 1117.67 3.34576 0.931463 0
M  V30 11216 C 1116.62 4.2734 0.237527 0
M  V30 11217 C 1115.95 5.18664 1.29967 0
M  V30 11218 C 1117.25 5.14729 -0.886082 0
M  V30 11219 H 1118.94 2.89068 -0.779748 0
M  V30 11220 H 1116.49 1.38993 -0.376419 0
M  V30 11221 H 1118.44 3.97343 1.40343 0
M  V30 11222 H 1117.17 2.77315 1.72523 0
M  V30 11223 H 1115.83 3.65973 -0.214245 0
M  V30 11224 H 1115.47 4.57727 2.08554 0
M  V30 11225 H 1115.17 5.81558 0.840463 0
M  V30 11226 H 1116.7 5.84308 1.77249 0
M  V30 11227 H 1118.11 5.71158 -0.495141 0
M  V30 11228 H 1116.51 5.86478 -1.27135 0
M  V30 11229 H 1117.58 4.52874 -1.733 0
M  V30 11230 N 1118.92 0.422693 1.51826 0
M  V30 11231 C 1120.15 -0.15017 2.06856 0
M  V30 11232 C 1120.57 -1.36946 1.28948 0
M  V30 11233 O 1119.93 -1.78393 0.32338 0
M  V30 11234 C 1119.98 -0.465563 3.57582 0
M  V30 11235 O 1119.08 -1.55442 3.81984 0
M  V30 11236 H 1118.42 -0.00827931 0.663948 0
M  V30 11237 H 1120.95 0.599806 1.95611 0
M  V30 11238 H 1120.96 -0.720279 4.01592 0
M  V30 11239 H 1119.64 0.425679 4.13716 0
M  V30 11240 H 1118.21 -1.29081 3.49846 0
M  V30 11241 N 1120.4 -1.5685 0.153553 0
M  V30 11242 C 1121.35 -2.13671 -0.795526 0
M  V30 11243 C 1122.33 -1.06624 -1.20499 0
M  V30 11244 O 1123.53 -1.32788 -1.17032 0
M  V30 11245 C 1120.65 -2.76704 -2.03199 0
M  V30 11246 C 1119.74 -3.90884 -1.64532 0
M  V30 11247 N 1120.13 -4.96466 -0.96723 0
M  V30 11248 C 1118.43 -4.01713 -1.93759 0
M  V30 11249 C 1119.13 -5.76453 -0.779527 0
M  V30 11250 N 1118.11 -5.27444 -1.31544 0
M  V30 11251 H 1121.91 -2.92673 -0.268288 0
M  V30 11252 H 1119.42 -1.6233 -0.0477596 0
M  V30 11253 H 1121.42 -3.15777 -2.72196 0
M  V30 11254 H 1120.08 -1.99177 -2.56434 0
M  V30 11255 H 1121.09 -5.14087 -0.627253 0
M  V30 11256 H 1117.77 -3.3527 -2.48797 0
M  V30 11257 H 1119.16 -6.71455 -0.244604 0
M  V30 11258 N 1121.88 0.120221 -1.57141 0
M  V30 11259 C 1123.29 0.473718 -1.52408 0
M  V30 11260 C 1123.49 1.81925 -0.866354 0
M  V30 11261 O 1122.55 2.48491 -0.448173 0
M  V30 11262 C 1123.86 0.459338 -2.97171 0
M  V30 11263 C 1125.41 0.542975 -3.08254 0
M  V30 11264 C 1125.89 0.558996 -4.54576 0
M  V30 11265 N 1127.38 0.620469 -4.59026 0
M  V30 11266 C 1128.11 0.654292 -5.69655 0
M  V30 11267 N 1127.61 0.645835 -6.89783 0
M  V30 11268 N 1129.4 0.697208 -5.57759 0
M  V30 11269 H 1121.55 -0.76142 -1.98283 0
M  V30 11270 H 1123.81 -0.280736 -0.905479 0
M  V30 11271 H 1123.52 -0.461654 -3.48657 0
M  V30 11272 H 1123.39 1.28759 -3.54543 0
M  V30 11273 H 1125.78 1.45439 -2.56772 0
M  V30 11274 H 1125.86 -0.312936 -2.53879 0
M  V30 11275 H 1125.51 -0.348367 -5.06704 0
M  V30 11276 H 1125.44 1.43177 -5.06762 0
M  V30 11277 H 1127.93 0.633218 -3.72557 0
M  V30 11278 H 1128.24 0.674233 -7.69853 0
M  V30 11279 H 1126.59 0.613279 -6.92289 0
M  V30 11280 H 1129.78 0.70117 -4.62819 0
M  V30 11281 H 1129.95 0.7201 -6.43986 0
M  V30 11282 N 1123.36 1.52689 0.390367 0
M  V30 11283 C 1124.58 1.71839 1.16129 0
M  V30 11284 C 1125.01 0.435226 1.82996 0
M  V30 11285 O 1124.36 -0.60889 1.70769 0
M  V30 11286 C 1124.41 2.86784 2.18603 0
M  V30 11287 O 1123.52 2.53662 3.25161 0
M  V30 11288 H 1122.86 0.571455 0.338135 0
M  V30 11289 H 1125.39 1.99475 0.45508 0
M  V30 11290 H 1125.4 3.12239 2.62622 0
M  V30 11291 H 1124.07 3.79872 1.69322 0
M  V30 11292 H 1122.65 2.38942 2.86289 0
M  V30 11293 N 1124.83 -0.648732 1.43629 0
M  V30 11294 C 1125.78 -1.76145 1.49136 0
M  V30 11295 C 1126.75 -1.62569 0.340649 0
M  V30 11296 O 1127.94 -1.82748 0.548435 0
M  V30 11297 C 1125.08 -3.14321 1.42466 0
M  V30 11298 C 1124.19 -3.38999 2.67776 0
M  V30 11299 C 1123.32 -4.67047 2.53062 0
M  V30 11300 C 1122.36 -4.84845 3.7362 0
M  V30 11301 N 1121.5 -6.04155 3.57689 0
M  V30 11302 H 1126.34 -1.70774 2.44213 0
M  V30 11303 H 1123.88 -0.833311 1.2122 0
M  V30 11304 H 1125.84 -3.94206 1.36592 0
M  V30 11305 H 1124.47 -3.18751 0.509666 0
M  V30 11306 H 1123.52 -2.53179 2.83909 0
M  V30 11307 H 1124.83 -3.48035 3.57314 0
M  V30 11308 H 1123.98 -5.55066 2.44922 0
M  V30 11309 H 1122.72 -4.60339 1.61056 0
M  V30 11310 H 1121.73 -3.95261 3.82163 0
M  V30 11311 H 1122.95 -4.9338 4.6664 0
M  V30 11312 H 1120.9 -5.9857 2.6842 0
M  V30 11313 H 1120.82 -6.14169 4.40832 0
M  V30 11314 H 1122.08 -6.94782 3.53409 0
M  V30 11315 N 1126.31 -1.30234 -0.887518 0
M  V30 11316 C 1127.73 -1.0851 -1.17037 0
M  V30 11317 C 1127.93 0.155788 -2.00897 0
M  V30 11318 O 1126.98 0.850123 -2.37759 0
M  V30 11319 C 1128.3 -2.34723 -1.87951 0
M  V30 11320 C 1129.85 -2.40163 -2.00726 0
M  V30 11321 C 1130.32 -3.66211 -2.75051 0
M  V30 11322 N 1131.81 -3.67004 -2.82599 0
M  V30 11323 C 1132.55 -4.61224 -3.40676 0
M  V30 11324 N 1132.04 -5.65786 -3.99823 0
M  V30 11325 N 1133.84 -4.48772 -3.38467 0
M  V30 11326 H 1125.99 -2.09847 -0.328297 0
M  V30 11327 H 1128.25 -0.924904 -0.20798 0
M  V30 11328 H 1127.96 -3.25265 -1.33773 0
M  V30 11329 H 1127.83 -2.43175 -2.8835 0
M  V30 11330 H 1130.22 -1.50101 -2.54074 0
M  V30 11331 H 1130.3 -2.35688 -0.994218 0
M  V30 11332 H 1129.94 -4.56631 -2.22376 0
M  V30 11333 H 1129.87 -3.67947 -3.76726 0
M  V30 11334 H 1132.36 -2.91409 -2.40602 0
M  V30 11335 H 1132.68 -6.33783 -4.42197 0
M  V30 11336 H 1131.02 -5.69581 -3.9825 0
M  V30 11337 H 1134.21 -3.6627 -2.91485 0
M  V30 11338 H 1134.38 -5.22382 -3.83433 0
M  V30 11339 N 1127.79 1.09952 -1.12909 0
M  V30 11340 C 1129.02 1.8633 -0.910821 0
M  V30 11341 C 1129.44 1.80335 0.534874 0
M  V30 11342 O 1128.8 1.1769 1.37908 0
M  V30 11343 C 1128.85 3.32462 -1.39648 0
M  V30 11344 O 1127.95 4.08327 -0.578192 0
M  V30 11345 H 1127.29 0.577984 -0.32685 0
M  V30 11346 H 1129.82 1.38883 -1.50242 0
M  V30 11347 H 1129.83 3.83311 -1.39774 0
M  V30 11348 H 1128.51 3.36141 -2.44913 0
M  V30 11349 H 1127.08 3.67291 -0.644347 0
M  V30 11350 N 1129.27 0.921757 1.27833 0
M  V30 11351 C 1130.2 0.433466 2.29441 0
M  V30 11352 C 1131.18 -0.503133 1.62489 0
M  V30 11353 O 1132.36 -0.409156 1.89841 0
M  V30 11354 C 1129.49 -0.320029 3.45822 0
M  V30 11355 C 1128.45 0.528178 4.24728 0
M  V30 11356 C 1127.77 -0.354132 5.33526 0
M  V30 11357 C 1129.07 1.78959 4.90684 0
M  V30 11358 H 1130.77 1.28263 2.70535 0
M  V30 11359 H 1128.31 0.618197 1.30055 0
M  V30 11360 H 1130.27 -0.672526 4.15999 0
M  V30 11361 H 1128.99 -1.20317 3.0363 0
M  V30 11362 H 1127.65 0.863302 3.5629 0
M  V30 11363 H 1127.3 -1.23605 4.87576 0
M  V30 11364 H 1127 0.209855 5.87225 0
M  V30 11365 H 1128.52 -0.702333 6.06547 0
M  V30 11366 H 1129.94 1.50552 5.53179 0
M  V30 11367 H 1128.33 2.29661 5.54415 0
M  V30 11368 H 1129.4 2.51265 4.14721 0
M  V30 11369 N 1130.75 -1.41857 0.686609 0
M  V30 11370 C 1131.97 -2.06219 0.221037 0
M  V30 11371 C 1132.4 -1.51298 -1.11762 0
M  V30 11372 O 1131.75 -0.636253 -1.69769 0
M  V30 11373 C 1131.8 -3.60153 0.179425 0
M  V30 11374 O 1130.91 -4.03577 -0.848481 0
M  V30 11375 H 1130.25 -0.654787 0.110228 0
M  V30 11376 H 1132.78 -1.81783 0.938948 0
M  V30 11377 H 1132.79 -4.07999 0.00725332 0
M  V30 11378 H 1131.46 -3.99498 1.15647 0
M  V30 11379 H 1130.04 -3.67255 -0.646393 0
M  V30 11380 N 1132.22 -0.430739 -1.51599 0
M  V30 11381 C 1133.46 0.137184 -2.03939 0
M  V30 11382 C 1133.83 1.40533 -1.30823 0
M  V30 11383 O 1135.03 2.05307 -1.73501 0
M  V30 11384 C 1133.3 0.357395 -3.55609 0
M  V30 11385 S 1134.86 0.889669 -4.29686 0
M  V30 11386 H 1131.68 0.0349429 -0.710141 0
M  V30 11387 H 1134.28 -0.588628 -1.86428 0
M  V30 11388 H 1132.98 -0.572011 -4.06394 0
M  V30 11389 H 1132.51 1.11047 -3.77402 0
M  V30 11390 H 1134.53 2.16797 -4.46333 0
M  V30 11391 N 1133.7 1.56767 -0.161869 0
M  V30 11392 C 1135.12 1.58412 0.194403 0
M  V30 11393 C 1135.32 1.17682 1.63564 0
M  V30 11394 O 1134.37 0.884024 2.36519 0
M  V30 11395 C 1135.69 3.00599 -0.0778438 0
M  V30 11396 C 1137.24 3.12996 -0.015307 0
M  V30 11397 C 1137.71 4.57259 -0.260418 0
M  V30 11398 N 1139.2 4.62733 -0.207863 0
M  V30 11399 C 1139.94 5.72193 -0.371821 0
M  V30 11400 N 1139.43 6.90246 -0.594318 0
M  V30 11401 N 1141.23 5.61253 -0.308384 0
M  V30 11402 H 1133.38 1.81531 -1.10274 0
M  V30 11403 H 1135.64 0.840919 -0.437675 0
M  V30 11404 H 1135.35 3.3484 -1.07587 0
M  V30 11405 H 1135.22 3.71819 0.634845 0
M  V30 11406 H 1137.61 2.78588 0.97329 0
M  V30 11407 H 1137.69 2.44232 -0.760559 0
M  V30 11408 H 1137.33 4.92375 -1.24618 0
M  V30 11409 H 1137.26 5.2417 0.505334 0
M  V30 11410 H 1139.75 3.77878 -0.0411541 0
M  V30 11411 H 1140.07 7.6954 -0.70913 0
M  V30 11412 H 1138.41 6.92131 -0.630819 0
M  V30 11413 H 1141.6 4.67905 -0.135217 0
M  V30 11414 H 1141.77 6.46507 -0.439592 0
M  V30 11415 N 1135.18 -0.111886 1.57202 0
M  V30 11416 C 1136.59 -0.668261 1.74331 0
M  V30 11417 C 1136.94 -1.79959 0.781609 0
M  V30 11418 O 1136.07 -2.16356 -0.043833 0
M  V30 11419 C 1136.66 -1.219 3.1611 0
M  V30 11420 C 1135.22 -1.7216 3.34721 0
M  V30 11421 C 1134.37 -0.624223 2.70183 0
M  V30 11422 H 1137.32 0.114081 1.58289 0
M  V30 11423 H 1137.34 -2.08858 3.18054 0
M  V30 11424 H 1136.85 -0.395381 3.86081 0
M  V30 11425 H 1134.95 -2.56976 2.69803 0
M  V30 11426 H 1135.07 -1.82615 4.42932 0
M  V30 11427 H 1133.43 -1.05958 2.31614 0
M  V30 11428 H 1134.21 0.188537 3.42782 0
M  V30 11429 N 1136.66 -1.52894 -0.382264 0
M  V30 11430 C 1138.07 -1.60135 -0.959887 0
M  V30 11431 C 1138.42 -0.458363 -1.90771 0
M  V30 11432 O 1137.55 0.417614 -2.12332 0
M  V30 11433 C 1138.14 -2.90243 -1.74769 0
M  V30 11434 C 1136.7 -2.99874 -2.27491 0
M  V30 11435 C 1135.85 -2.55302 -1.0824 0
M  V30 11436 H 1138.8 -1.57875 -0.161589 0
M  V30 11437 H 1138.82 -2.77108 -2.60751 0
M  V30 11438 H 1138.33 -3.73412 -1.0576 0
M  V30 11439 H 1136.43 -2.21258 -2.99793 0
M  V30 11440 H 1136.54 -4.04643 -2.56516 0
M  V30 11441 H 1134.91 -2.09781 -1.44444 0
M  V30 11442 H 1135.69 -3.40872 -0.407553 0
M  V30 11443 N 1138.14 0.641106 -1.43971 0
M  V30 11444 C 1139.07 1.76599 -1.44527 0
M  V30 11445 C 1140.05 1.59709 -0.305257 0
M  V30 11446 O 1141.23 1.81728 -0.50071 0
M  V30 11447 C 1138.36 3.14052 -1.26843 0
M  V30 11448 C 1137.41 3.49615 -2.44278 0
M  V30 11449 S 1138.24 3.4822 -4.06821 0
M  V30 11450 C 1139.39 4.8831 -3.91541 0
M  V30 11451 H 1139.63 1.75858 -2.3971 0
M  V30 11452 H 1137.16 0.814834 -1.31148 0
M  V30 11453 H 1139.12 3.93376 -1.17327 0
M  V30 11454 H 1137.78 3.12342 -0.331872 0
M  V30 11455 H 1136.97 4.49611 -2.2774 0
M  V30 11456 H 1136.57 2.77732 -2.50482 0
M  V30 11457 H 1138.87 5.77282 -3.54615 0
M  V30 11458 H 1139.81 5.099 -4.91333 0
M  V30 11459 H 1140.22 4.62414 -3.2378 0
M  V30 11460 N 1139.62 1.30703 0.880598 0
M  V30 11461 C 1140.86 1.19955 1.63519 0
M  V30 11462 C 1141.19 -0.244214 1.92658 0
M  V30 11463 O 1140.47 -1.17412 1.55063 0
M  V30 11464 C 1140.75 2.03302 2.97221 0
M  V30 11465 C 1140.61 3.55921 2.75028 0
M  V30 11466 C 1141.92 1.87421 3.98198 0
M  V30 11467 H 1139.04 0.43712 0.593376 0
M  V30 11468 H 1141.69 1.60382 1.01871 0
M  V30 11469 H 1139.84 1.68953 3.49839 0
M  V30 11470 H 1141.51 4.00352 2.29164 0
M  V30 11471 H 1139.75 3.79885 2.09452 0
M  V30 11472 H 1140.42 4.09533 3.70117 0
M  V30 11473 H 1142.9 2.17459 3.54755 0
M  V30 11474 H 1141.77 2.48057 4.89652 0
M  V30 11475 H 1142.03 0.834563 4.34151 0
M  V30 11476 N 1141.09 -1.09351 1.1349 0
M  V30 11477 C 1142.04 -2.16008 0.812981 0
M  V30 11478 C 1143.01 -1.64566 -0.225252 0
M  V30 11479 O 1144.2 -1.90552 -0.0973261 0
M  V30 11480 C 1141.34 -3.43913 0.285996 0
M  V30 11481 C 1140.45 -4.09251 1.38338 0
M  V30 11482 C 1139.58 -5.24916 0.814652 0
M  V30 11483 C 1138.62 -5.82178 1.89038 0
M  V30 11484 N 1137.76 -6.89203 1.33955 0
M  V30 11485 H 1142.6 -2.42887 1.72655 0
M  V30 11486 H 1140.14 -1.19209 0.861833 0
M  V30 11487 H 1142.09 -4.17183 -0.0376794 0
M  V30 11488 H 1140.72 -3.17349 -0.590707 0
M  V30 11489 H 1139.78 -3.33838 1.82363 0
M  V30 11490 H 1141.09 -4.4784 2.19638 0
M  V30 11491 H 1140.24 -6.05086 0.442306 0
M  V30 11492 H 1138.98 -4.87691 -0.029416 0
M  V30 11493 H 1137.99 -5.00669 2.27179 0
M  V30 11494 H 1139.21 -6.21464 2.73787 0
M  V30 11495 H 1137.16 -6.53956 0.517494 0
M  V30 11496 H 1137.07 -7.26565 2.08902 0
M  V30 11497 H 1138.34 -7.73126 0.994793 0
M  V30 11498 N 1142.57 -0.928524 -1.27343 0
M  V30 11499 C 1143.5 -0.445627 -2.29208 0
M  V30 11500 C 1144.48 0.494508 -1.62753 0
M  V30 11501 O 1145.67 0.399082 -1.90055 0
M  V30 11502 C 1142.8 0.301684 -3.45987 0
M  V30 11503 C 1141.75 -0.550695 -4.24442 0
M  V30 11504 C 1141.08 0.325833 -5.33706 0
M  V30 11505 C 1142.38 -1.81559 -4.89728 0
M  V30 11506 H 1144.07 -1.29696 -2.69851 0
M  V30 11507 H 1141.62 -0.625085 -1.29725 0
M  V30 11508 H 1143.57 0.650455 -4.1635 0
M  V30 11509 H 1142.29 1.18705 -3.04264 0
M  V30 11510 H 1140.95 -0.882185 -3.55827 0
M  V30 11511 H 1140.6 1.21018 -4.88225 0
M  V30 11512 H 1140.3 -0.240994 -5.87106 0
M  V30 11513 H 1141.83 0.670156 -6.06911 0
M  V30 11514 H 1143.24 -1.53483 -5.52373 0
M  V30 11515 H 1141.64 -2.32598 -5.53189 0
M  V30 11516 H 1142.71 -2.53461 -4.13383 0
M  V30 11517 N 1144.05 1.41491 -0.694123 0
M  V30 11518 C 1145.3 2.0155 -0.224809 0
M  V30 11519 C 1145.63 1.54844 1.17205 0
M  V30 11520 O 1144.9 0.75899 1.7908 0
M  V30 11521 C 1145.19 3.59003 -0.280884 0
M  V30 11522 C 1145.04 4.15839 -1.71458 0
M  V30 11523 C 1146.36 4.38624 0.360122 0
M  V30 11524 H 1143.48 0.732293 -0.0831632 0
M  V30 11525 H 1146.12 1.68258 -0.882569 0
M  V30 11526 H 1144.27 3.87496 0.279164 0
M  V30 11527 H 1145.94 3.98227 -2.32837 0
M  V30 11528 H 1144.18 3.70936 -2.2492 0
M  V30 11529 H 1144.86 5.24997 -1.70536 0
M  V30 11530 H 1147.33 4.15936 -0.11683 0
M  V30 11531 H 1146.21 5.48132 0.290337 0
M  V30 11532 H 1146.47 4.1797 1.44062 0
M  V30 11533 N 1145.53 0.438773 1.51369 0
M  V30 11534 C 1146.77 -0.126367 2.04009 0
M  V30 11535 C 1147.13 -1.39837 1.31566 0
M  V30 11536 O 1148.33 -2.04384 1.74587 0
M  V30 11537 C 1146.6 -0.338531 3.55793 0
M  V30 11538 S 1148.16 -0.866869 4.30152 0
M  V30 11539 H 1144.98 -0.0311763 0.710316 0
M  V30 11540 H 1147.58 0.598507 1.86113 0
M  V30 11541 H 1146.29 0.593555 4.06085 0
M  V30 11542 H 1145.82 -1.09044 3.77985 0
M  V30 11543 H 1147.83 -2.14427 4.47477 0
M  V30 11544 N 1147.01 -1.56678 0.170181 0
M  V30 11545 C 1148.42 -1.83452 -0.346742 0
M  V30 11546 C 1148.77 -1.08993 -1.63141 0
M  V30 11547 O 1147.89 -0.342607 -2.13671 0
M  V30 11548 C 1148.49 -3.32779 -0.635882 0
M  V30 11549 C 1147.05 -3.60052 -1.09725 0
M  V30 11550 C 1146.19 -2.76983 -0.132516 0
M  V30 11551 H 1149.14 -1.53719 0.394465 0
M  V30 11552 H 1149.17 -3.50195 -1.48806 0
M  V30 11553 H 1148.68 -3.86944 0.299291 0
M  V30 11554 H 1146.78 -3.11297 -2.04756 0
M  V30 11555 H 1146.89 -4.68393 -1.00719 0
M  V30 11556 H 1145.26 -2.46794 -0.62966 0
M  V30 11557 H 1146.04 -3.33929 0.796658 0
M  V30 11558 N 1148.48 0.103547 -1.57259 0
M  V30 11559 C 1149.45 1.11039 -2.00507 0
M  V30 11560 C 1150.45 1.33432 -0.897361 0
M  V30 11561 O 1151.64 1.29688 -1.16304 0
M  V30 11562 C 1148.77 2.46144 -2.35851 0
M  V30 11563 H 1149.96 0.738332 -2.90669 0
M  V30 11564 H 1147.51 0.348334 -1.52369 0
M  V30 11565 H 1148.25 2.88242 -1.48617 0
M  V30 11566 H 1148.03 2.31241 -3.16654 0
M  V30 11567 H 1149.52 3.18577 -2.69997 0
M  V30 11568 N 1149.96 1.53094 0.37415 0
M  V30 11569 C 1151.24 1.59456 1.13283 0
M  V30 11570 C 1151.62 0.396821 2.07337 0
M  V30 11571 O 1150.97 -0.613659 2.20106 0
M  V30 11572 C 1151.18 2.94069 1.87948 0
M  V30 11573 C 1152.52 3.4834 2.42785 0
M  V30 11574 O 1153.55 2.96042 1.98085 0
M  V30 11575 O 1152.41 4.39747 3.24477 0
M  V30 11576 H 1149.5 0.643731 0.519171 0
M  V30 11577 H 1152.05 1.65434 0.378105 0
M  V30 11578 H 1150.82 3.72685 1.19255 0
M  V30 11579 H 1150.44 2.91544 2.70348 0
M  V30 11580 N 1151.44 -0.633461 1.44309 0
M  V30 11581 C 1152.39 -1.76674 1.51292 0
M  V30 11582 C 1153.38 -1.64972 0.384807 0
M  V30 11583 O 1154.59 -1.71079 0.559653 0
M  V30 11584 H 1150.96 -0.583238 0.474697 0
M  V30 11585 H 1152.93 -1.67907 2.46678 0
M  V30 11586 C 1151.68 -3.15002 1.47205 0
M  V30 11587 H 1151.01 -3.24653 2.33325 0
M  V30 11588 H 1152.45 -3.94199 1.56151 0
M  V30 11589 C 1150.9 -3.3635 0.192464 0
M  V30 11590 O 1151.43 -3.94857 -0.738285 0
M  V30 11591 N 1149.64 -2.9044 0.0963424 0
M  V30 11592 H 1149.19 -2.43011 0.85459 0
M  V30 11593 H 1149.15 -3.05099 -0.759061 0
M  V30 11594 N 1152.92 -1.31168 -0.873655 0
M  V30 11595 C 1153.85 -1.21094 -1.99646 0
M  V30 11596 C 1154.83 -0.0989684 -1.69812 0
M  V30 11597 O 1156.01 -0.282939 -1.92128 0
M  V30 11598 C 1153.14 -0.913684 -3.35066 0
M  V30 11599 C 1152.1 -1.98482 -3.79195 0
M  V30 11600 C 1151.42 -1.54033 -5.12033 0
M  V30 11601 C 1152.72 -3.39745 -3.96699 0
M  V30 11602 H 1154.42 -2.1503 -2.08333 0
M  V30 11603 H 1151.96 -1.03521 -1.00097 0
M  V30 11604 H 1153.92 -0.829821 -4.13149 0
M  V30 11605 H 1152.64 0.0613471 -3.26542 0
M  V30 11606 H 1151.3 -2.05851 -3.03349 0
M  V30 11607 H 1150.95 -0.553261 -4.99948 0
M  V30 11608 H 1150.65 -2.25688 -5.4253 0
M  V30 11609 H 1152.17 -1.47047 -5.92629 0
M  V30 11610 H 1153.59 -3.35071 -4.65188 0
M  V30 11611 H 1151.98 -4.09585 -4.38589 0
M  V30 11612 H 1153.05 -3.80802 -3.00196 0
M  V30 11613 N 1154.4 1.08748 -1.14068 0
M  V30 11614 C 1155.81 1.33125 -0.880341 0
M  V30 11615 C 1156.01 1.9569 0.480396 0
M  V30 11616 O 1155.07 2.2077 1.22543 0
M  V30 11617 C 1156.38 2.23618 -2.01036 0
M  V30 11618 C 1157.93 2.37108 -2.04326 0
M  V30 11619 C 1158.4 3.30941 -3.1661 0
M  V30 11620 N 1159.9 3.38517 -3.16166 0
M  V30 11621 C 1160.63 4.11142 -3.99687 0
M  V30 11622 N 1160.13 4.86505 -4.93239 0
M  V30 11623 N 1161.92 4.06938 -3.87761 0
M  V30 11624 H 1154.07 0.665164 -2.01716 0
M  V30 11625 H 1156.33 0.355612 -0.878774 0
M  V30 11626 H 1156.04 1.84885 -2.99183 0
M  V30 11627 H 1155.91 3.24056 -1.93049 0
M  V30 11628 H 1158.3 2.75101 -1.06787 0
M  V30 11629 H 1158.38 1.36424 -2.16384 0
M  V30 11630 H 1158.03 2.93669 -4.14392 0
M  V30 11631 H 1157.96 4.31545 -3.01789 0
M  V30 11632 H 1160.45 2.84786 -2.48405 0
M  V30 11633 H 1160.76 5.39372 -5.53441 0
M  V30 11634 H 1159.1 4.8557 -4.9724 0
M  V30 11635 H 1162.3 3.47166 -3.13996 0
M  V30 11636 H 1162.47 4.63275 -4.53079 0
M  V30 11637 N 1155.87 0.935264 1.26849 0
M  V30 11638 C 1156.84 0.44485 2.24842 0
M  V30 11639 C 1157.84 -0.440781 1.54641 0
M  V30 11640 O 1159.03 -0.240793 1.72528 0
M  V30 11641 C 1156.16 -0.359566 3.38998 0
M  V30 11642 H 1157.35 1.31074 2.6974 0
M  V30 11643 H 1154.91 0.716665 1.38901 0
M  V30 11644 H 1155.64 -1.24396 2.99493 0
M  V30 11645 H 1155.43 0.275529 3.91131 0
M  V30 11646 H 1156.92 -0.692804 4.11813 0
M  V30 11647 N 1157.35 -1.41121 0.701616 0
M  V30 11648 C 1158.26 -2.34565 0.0407815 0
M  V30 11649 C 1159.28 -1.56555 -0.75937 0
M  V30 11650 O 1160.45 -1.89008 -0.695542 0
M  V30 11651 C 1157.52 -3.35347 -0.879954 0
M  V30 11652 C 1156.58 -4.29241 -0.0713279 0
M  V30 11653 C 1155.81 -5.25209 -0.948211 0
M  V30 11654 O 1156.04 -5.26781 -2.18766 0
M  V30 11655 O 1154.97 -6.00605 -0.394657 0
M  V30 11656 H 1158.8 -2.92666 0.811188 0
M  V30 11657 H 1156.38 -1.42077 0.461991 0
M  V30 11658 H 1158.26 -3.9719 -1.40776 0
M  V30 11659 H 1156.94 -2.7968 -1.62975 0
M  V30 11660 H 1155.85 -3.70727 0.50122 0
M  V30 11661 H 1157.18 -4.88022 0.639935 0
M  V30 11662 N 1158.83 -0.446794 -1.51134 0
M  V30 11663 C 1160.08 0.116263 -2.01765 0
M  V30 11664 C 1160.4 1.42382 -1.33238 0
M  V30 11665 O 1159.67 1.9018 -0.469915 0
M  V30 11666 H 1158.25 0.0459558 -0.745585 0
M  V30 11667 H 1160.91 -0.591664 -1.85702 0
M  V30 11668 H 1160.01 0.285358 -3.10793 0
M  V30 11669 N 1160.31 1.56586 -0.178487 0
M  V30 11670 C 1161.24 2.21313 0.744486 0
M  V30 11671 C 1162.22 1.17098 1.23377 0
M  V30 11672 O 1163.4 1.45551 1.28563 0
M  V30 11673 C 1160.53 2.8595 1.97103 0
M  V30 11674 C 1159.49 3.96266 1.61732 0
M  V30 11675 C 1158.81 4.47987 2.91911 0
M  V30 11676 C 1160.11 5.15503 0.839868 0
M  V30 11677 H 1161.81 2.98698 0.204938 0
M  V30 11678 H 1159.35 1.43672 0.0971306 0
M  V30 11679 H 1161.31 3.29909 2.6218 0
M  V30 11680 H 1160.03 2.05946 2.53484 0
M  V30 11681 H 1158.69 3.52974 0.990208 0
M  V30 11682 H 1158.34 3.64765 3.46346 0
M  V30 11683 H 1158.04 5.22413 2.68995 0
M  V30 11684 H 1159.56 4.94637 3.58004 0
M  V30 11685 H 1160.98 5.5611 1.39337 0
M  V30 11686 H 1159.37 5.95891 0.709473 0
M  V30 11687 H 1160.44 4.84628 -0.162396 0
M  V30 11688 N 1161.79 -0.095206 1.57312 0
M  V30 11689 C 1162.7 -1.13388 2.05379 0
M  V30 11690 C 1163.71 -1.43868 0.978668 0
M  V30 11691 O 1164.89 -1.54512 1.29182 0
M  V30 11692 C 1161.95 -2.43444 2.46852 0
M  V30 11693 C 1161.01 -2.20146 3.68557 0
M  V30 11694 C 1160.25 -3.44001 4.08043 0
M  V30 11695 O 1160.47 -4.52233 3.47623 0
M  V30 11696 O 1159.4 -3.33596 5.00997 0
M  V30 11697 H 1163.23 -0.755622 2.9415 0
M  V30 11698 H 1160.82 -0.307707 1.46197 0
M  V30 11699 H 1162.7 -3.20027 2.74155 0
M  V30 11700 H 1161.37 -2.80696 1.61219 0
M  V30 11701 H 1160.28 -1.41345 3.46371 0
M  V30 11702 H 1161.61 -1.87787 4.54969 0
M  V30 11703 N 1163.26 -1.53291 -0.366026 0
M  V30 11704 C 1164.5 -1.71153 -1.11741 0
M  V30 11705 C 1164.87 -0.453416 -1.86569 0
M  V30 11706 O 1166.07 -0.508724 -2.63942 0
M  V30 11707 C 1164.34 -2.92657 -2.0515 0
M  V30 11708 S 1165.9 -3.31223 -2.87814 0
M  V30 11709 H 1162.72 -0.602251 -0.377909 0
M  V30 11710 H 1165.32 -1.91391 -0.398721 0
M  V30 11711 H 1164.02 -3.8242 -1.48939 0
M  V30 11712 H 1163.55 -2.7482 -2.81492 0
M  V30 11713 H 1165.57 -2.83201 -4.07445 0
M  V30 11714 N 1164.74 0.6258 -1.44643 0
M  V30 11715 C 1165.97 1.41233 -1.51198 0
M  V30 11716 C 1166.39 1.88291 -0.138572 0
M  V30 11717 O 1165.74 1.61151 0.856537 0
M  V30 11718 C 1165.79 2.62908 -2.48117 0
M  V30 11719 O 1165.51 2.1781 -3.80119 0
M  V30 11720 C 1167.02 3.55976 -2.6419 0
M  V30 11721 H 1164.24 0.432954 -0.512632 0
M  V30 11722 H 1166.78 0.76486 -1.89658 0
M  V30 11723 H 1164.93 3.23735 -2.12778 0
M  V30 11724 H 1165.35 2.96732 -4.32493 0
M  V30 11725 H 1166.82 4.37943 -3.3602 0
M  V30 11726 H 1167.3 4.05133 -1.696 0
M  V30 11727 H 1167.91 3.01014 -3.00451 0
M  V30 11728 N 1166.22 1.31629 0.866686 0
M  V30 11729 C 1167.17 1.19556 1.97421 0
M  V30 11730 C 1168.14 0.0805578 1.65905 0
M  V30 11731 O 1169.32 0.253997 1.89102 0
M  V30 11732 C 1166.46 0.912234 3.32825 0
M  V30 11733 C 1165.58 2.11088 3.76916 0
M  V30 11734 C 1164.71 1.76406 5.01053 0
M  V30 11735 C 1163.75 2.9266 5.37602 0
M  V30 11736 N 1162.89 2.58152 6.52918 0
M  V30 11737 H 1167.73 2.14294 2.0708 0
M  V30 11738 H 1165.26 1.06595 1.0137 0
M  V30 11739 H 1167.22 0.72851 4.1079 0
M  V30 11740 H 1165.85 0.00167404 3.228 0
M  V30 11741 H 1164.9 2.40527 2.94705 0
M  V30 11742 H 1166.22 2.98089 3.99931 0
M  V30 11743 H 1165.37 1.54515 5.86694 0
M  V30 11744 H 1164.11 0.866018 4.79949 0
M  V30 11745 H 1163.11 3.15196 4.50479 0
M  V30 11746 H 1164.34 3.83179 5.6067 0
M  V30 11747 H 1162.28 1.70874 6.33355 0
M  V30 11748 H 1162.2 3.38682 6.75892 0
M  V30 11749 H 1163.47 2.39662 7.41743 0
M  V30 11750 N 1167.7 -1.08142 1.14644 0
M  V30 11751 C 1168.93 -1.84318 0.939926 0
M  V30 11752 C 1169.34 -1.81735 -0.511636 0
M  V30 11753 O 1168.7 -1.22297 -1.35461 0
M  V30 11754 C 1168.75 -3.31744 1.43625 0
M  V30 11755 O 1168.47 -3.3435 2.83094 0
M  V30 11756 C 1169.97 -4.24717 1.27007 0
M  V30 11757 H 1167.19 -0.581781 0.334323 0
M  V30 11758 H 1169.74 -1.36561 1.52221 0
M  V30 11759 H 1167.89 -3.7688 0.896664 0
M  V30 11760 H 1168.31 -4.26399 3.05425 0
M  V30 11761 H 1169.78 -5.26262 1.66591 0
M  V30 11762 H 1170.26 -4.38682 0.213257 0
M  V30 11763 H 1170.86 -3.85409 1.79833 0
M  V30 11764 N 1169.18 -0.941978 -1.26351 0
M  V30 11765 C 1170.42 -0.597462 -1.95473 0
M  V30 11766 C 1170.78 0.847851 -1.72266 0
M  V30 11767 O 1171.98 1.30134 -2.35199 0
M  V30 11768 C 1170.25 -0.931342 -3.45052 0
M  V30 11769 S 1171.81 -0.697491 -4.33221 0
M  V30 11770 H 1168.63 -0.22003 -0.676097 0
M  V30 11771 H 1171.23 -1.21346 -1.53282 0
M  V30 11772 H 1169.94 -1.98063 -3.59443 0
M  V30 11773 H 1169.47 -0.305095 -3.92215 0
M  V30 11774 H 1171.48 0.437915 -4.94264 0
M  V30 11775 N 1170.66 1.40747 -0.709091 0
M  V30 11776 C 1171.59 2.29196 -0.0130359 0
M  V30 11777 C 1172.6 1.45491 0.730487 0
M  V30 11778 O 1173.79 1.6885 0.578944 0
M  V30 11779 C 1170.89 3.23632 1.00577 0
M  V30 11780 C 1170.06 4.3616 0.329105 0
M  V30 11781 C 1169.12 5.11079 1.25239 0
M  V30 11782 O 1168.15 5.64374 0.739641 0
M  V30 11783 N 1169.35 5.1982 2.58394 0
M  V30 11784 H 1172.11 2.89574 -0.772462 0
M  V30 11785 H 1169.68 1.52046 -0.556197 0
M  V30 11786 H 1171.67 3.70622 1.62546 0
M  V30 11787 H 1170.24 2.64467 1.66661 0
M  V30 11788 H 1169.46 3.9138 -0.470683 0
M  V30 11789 H 1170.75 5.08605 -0.140856 0
M  V30 11790 H 1170.14 4.77992 3.02556 0
M  V30 11791 H 1168.7 5.7034 3.15524 0
M  V30 11792 N 1172.13 0.454803 1.50895 0
M  V30 11793 C 1173.08 -0.361974 2.29766 0
M  V30 11794 C 1174.08 -1.00519 1.36353 0
M  V30 11795 O 1175.28 -0.938159 1.53618 0
M  V30 11796 H 1171.66 -0.135559 0.739681 0
M  V30 11797 H 1173.63 0.323853 2.96637 0
M  V30 11798 C 1172.38 -1.44078 3.16444 0
M  V30 11799 H 1171.7 -0.955212 3.88221 0
M  V30 11800 H 1173.14 -1.98518 3.74655 0
M  V30 11801 C 1171.6 -2.43374 2.32961 0
M  V30 11802 O 1172.13 -3.48295 2.00133 0
M  V30 11803 N 1170.33 -2.14689 1.95849 0
M  V30 11804 H 1169.88 -1.29392 2.22745 0
M  V30 11805 H 1169.84 -2.81363 1.40292 0
M  V30 11806 N 1173.61 -1.56489 0.186789 0
M  V30 11807 C 1174.84 -2.01429 -0.459326 0
M  V30 11808 C 1175.25 -1.06611 -1.56303 0
M  V30 11809 O 1174.59 -0.0617053 -1.83596 0
M  V30 11810 C 1174.65 -3.42778 -1.08367 0
M  V30 11811 C 1174.32 -4.56843 -0.119719 0
M  V30 11812 C 1175.32 -5.15594 0.667782 0
M  V30 11813 C 1173 -5.02299 -0.0110494 0
M  V30 11814 C 1174.99 -6.18242 1.551 0
M  V30 11815 C 1172.68 -6.04793 0.875738 0
M  V30 11816 C 1173.68 -6.62637 1.65534 0
M  V30 11817 O 1173.37 -7.63141 2.52728 0
M  V30 11818 H 1173.1 -0.665175 -0.120492 0
M  V30 11819 H 1175.65 -2.03338 0.290283 0
M  V30 11820 H 1173.88 -3.3783 -1.8817 0
M  V30 11821 H 1175.57 -3.71577 -1.63357 0
M  V30 11822 H 1176.34 -4.81348 0.594085 0
M  V30 11823 H 1172.22 -4.56977 -0.607667 0
M  V30 11824 H 1175.76 -6.63319 2.15995 0
M  V30 11825 H 1171.66 -6.38462 0.950581 0
M  V30 11826 H 1172.43 -7.80527 2.46415 0
M  V30 11827 N 1175.09 0.086862 -1.5736 0
M  V30 11828 C 1176.37 0.820984 -1.77537 0
M  V30 11829 C 1176.75 1.96534 -0.770554 0
M  V30 11830 O 1176.09 2.27629 0.199334 0
M  V30 11831 C 1176.3 1.30793 -3.23565 0
M  V30 11832 C 1177.65 1.7474 -3.86977 0
M  V30 11833 O 1178.68 1.40396 -3.27364 0
M  V30 11834 O 1177.54 2.38271 -4.91822 0
M  V30 11835 H 1174.63 0.392228 -0.72807 0
M  V30 11836 H 1177.18 0.0681051 -1.69563 0
M  V30 11837 H 1175.95 0.488409 -3.8824 0
M  V30 11838 H 1175.57 2.12258 -3.36203 0
M  V30 11839 N 1176.57 1.53483 0.357892 0
M  V30 11840 C 1177.5 1.83444 1.44466 0
M  V30 11841 C 1178.48 0.688486 1.55544 0
M  V30 11842 O 1179.66 0.93906 1.69986 0
M  V30 11843 C 1176.79 2.03122 2.81707 0
M  V30 11844 C 1175.75 3.1891 2.85448 0
M  V30 11845 C 1175.07 3.23895 4.25436 0
M  V30 11846 C 1176.37 4.57334 2.52275 0
M  V30 11847 H 1178.07 2.74456 1.19642 0
M  V30 11848 H 1175.61 1.3206 0.574112 0
M  V30 11849 H 1177.57 2.22666 3.57768 0
M  V30 11850 H 1176.29 1.08827 3.07935 0
M  V30 11851 H 1174.95 2.99199 2.11838 0
M  V30 11852 H 1174.6 2.27223 4.48753 0
M  V30 11853 H 1174.3 4.01694 4.28854 0
M  V30 11854 H 1175.82 3.45632 5.0336 0
M  V30 11855 H 1177.24 4.76988 3.1805 0
M  V30 11856 H 1175.63 5.37431 2.66998 0
M  V30 11857 H 1176.7 4.61921 1.47501 0
M  V30 11858 N 1178.05 -0.61812 1.44973 0
M  V30 11859 C 1178.96 -1.7579 1.55355 0
M  V30 11860 C 1179.97 -1.68384 0.438512 0
M  V30 11861 O 1181.15 -1.88928 0.697715 0
M  V30 11862 C 1178.21 -3.1222 1.50729 0
M  V30 11863 C 1177.27 -3.3116 2.73188 0
M  V30 11864 C 1176.51 -4.61082 2.68774 0
M  V30 11865 O 1176.73 -5.42728 1.75507 0
M  V30 11866 O 1175.66 -4.82506 3.59821 0
M  V30 11867 H 1179.49 -1.69983 2.51674 0
M  V30 11868 H 1177.07 -0.780934 1.27365 0
M  V30 11869 H 1178.96 -3.93524 1.5072 0
M  V30 11870 H 1177.63 -3.18541 0.575587 0
M  V30 11871 H 1176.54 -2.49485 2.78762 0
M  V30 11872 H 1177.87 -3.29709 3.65449 0
M  V30 11873 N 1179.52 -1.32087 -0.859693 0
M  V30 11874 C 1180.76 -1.23671 -1.62742 0
M  V30 11875 C 1181.13 0.19966 -1.90959 0
M  V30 11876 O 1182.33 0.407478 -2.65694 0
M  V30 11877 C 1180.6 -2.06736 -2.91539 0
M  V30 11878 S 1182.16 -2.15292 -3.82354 0
M  V30 11879 H 1178.98 -0.440306 -0.558258 0
M  V30 11880 H 1181.58 -1.66875 -1.01848 0
M  V30 11881 H 1180.28 -3.10166 -2.68747 0
M  V30 11882 H 1179.81 -1.64291 -3.57452 0
M  V30 11883 H 1181.83 -1.29874 -4.78902 0
M  V30 11884 N 1181 1.07532 -1.15215 0
M  V30 11885 C 1181.93 2.1406 -0.7908 0
M  V30 11886 C 1182.91 1.60938 0.231922 0
M  V30 11887 O 1184.1 1.88125 0.118906 0
M  V30 11888 C 1181.22 3.38244 -0.175633 0
M  V30 11889 C 1180.27 4.10139 -1.16996 0
M  V30 11890 S 1181.1 4.61795 -2.71119 0
M  V30 11891 C 1182.26 5.89256 -2.11016 0
M  V30 11892 H 1182.49 2.44381 -1.69308 0
M  V30 11893 H 1180.02 1.19777 -0.974308 0
M  V30 11894 H 1181.98 4.10136 0.172859 0
M  V30 11895 H 1180.64 3.06104 0.704211 0
M  V30 11896 H 1179.84 4.99286 -0.687714 0
M  V30 11897 H 1179.44 3.44203 -1.46289 0
M  V30 11898 H 1181.73 6.61336 -1.47109 0
M  V30 11899 H 1182.67 6.42191 -2.98322 0
M  V30 11900 H 1183.08 5.4269 -1.55394 0
M  V30 11901 N 1182.48 0.948665 1.2585 0
M  V30 11902 C 1183.71 0.616741 1.98018 0
M  V30 11903 C 1184.13 -0.803005 1.70098 0
M  V30 11904 O 1183.49 -1.54208 0.953392 0
M  V30 11905 C 1183.54 0.874429 3.49837 0
M  V30 11906 O 1182.64 -0.0497568 4.1237 0
M  V30 11907 H 1181.98 0.235112 0.620982 0
M  V30 11908 H 1184.51 1.27364 1.60124 0
M  V30 11909 H 1184.52 0.798309 4.00114 0
M  V30 11910 H 1183.2 1.90922 3.69488 0
M  V30 11911 H 1181.77 0.0780591 3.72818 0
M  V30 11912 N 1183.96 -1.40369 0.716545 0
M  V30 11913 C 1184.89 -2.28196 0.013671 0
M  V30 11914 C 1185.87 -1.4339 -0.766685 0
M  V30 11915 O 1187.05 -1.72801 -0.753123 0
M  V30 11916 C 1184.18 -3.23969 -0.988006 0
M  V30 11917 C 1183.23 -4.25455 -0.298345 0
M  V30 11918 S 1184.06 -5.26559 0.974456 0
M  V30 11919 C 1185.22 -6.25895 -0.0250932 0
M  V30 11920 H 1185.45 -2.87461 0.758526 0
M  V30 11921 H 1182.98 -1.45817 0.507606 0
M  V30 11922 H 1184.94 -3.79674 -1.56071 0
M  V30 11923 H 1183.6 -2.63759 -1.70557 0
M  V30 11924 H 1182.79 -4.92821 -1.05561 0
M  V30 11925 H 1182.4 -3.73455 0.201828 0
M  V30 11926 H 1184.69 -6.7187 -0.871615 0
M  V30 11927 H 1185.63 -7.05422 0.615206 0
M  V30 11928 H 1186.04 -5.63156 -0.389248 0
M  V30 11929 N 1185.44 -0.462799 -1.50652 0
M  V30 11930 C 1186.68 0.0948568 -2.01877 0
M  V30 11931 C 1187.01 1.4096 -1.34741 0
M  V30 11932 O 1186.28 1.89671 -0.49006 0
M  V30 11933 H 1184.86 0.0380453 -0.746031 0
M  V30 11934 H 1187.52 -0.611327 -1.85064 0
M  V30 11935 H 1186.61 0.252378 -3.11078 0
M  V30 11936 N 1186.91 1.56388 -0.195085 0
M  V30 11937 C 1188.15 1.99478 0.445855 0
M  V30 11938 C 1188.52 1.0792 1.588 0
M  V30 11939 O 1189.72 1.40246 2.29313 0
M  V30 11940 C 1187.99 3.46032 0.894248 0
M  V30 11941 S 1189.55 4.11149 1.53303 0
M  V30 11942 H 1186.37 0.696558 0.142575 0
M  V30 11943 H 1188.97 1.93213 -0.298149 0
M  V30 11944 H 1187.67 4.10366 0.0529258 0
M  V30 11945 H 1187.2 3.56114 1.67172 0
M  V30 11946 H 1189.22 4.08155 2.82177 0
M  V30 11947 N 1188.39 -0.0785156 1.57404 0
M  V30 11948 C 1189.64 -0.780092 1.87196 0
M  V30 11949 C 1189.97 -1.77562 0.78647 0
M  V30 11950 O 1189.25 -1.93428 -0.203935 0
M  V30 11951 C 1189.53 -1.49408 3.27642 0
M  V30 11952 C 1189.38 -0.515416 4.46837 0
M  V30 11953 C 1190.7 -2.44064 3.66225 0
M  V30 11954 H 1187.82 -0.282134 0.680859 0
M  V30 11955 H 1190.46 -0.0433926 1.8995 0
M  V30 11956 H 1188.61 -2.12205 3.25425 0
M  V30 11957 H 1190.28 0.106827 4.61176 0
M  V30 11958 H 1188.53 0.169832 4.33467 0
M  V30 11959 H 1189.2 -1.05247 5.41874 0
M  V30 11960 H 1191.67 -1.91349 3.69493 0
M  V30 11961 H 1190.55 -2.91029 4.65396 0
M  V30 11962 H 1190.81 -3.28569 2.95796 0
M  V30 11963 N 1189.87 -1.5367 -0.349747 0
M  V30 11964 C 1191.1 -1.74858 -1.11532 0
M  V30 11965 C 1191.52 -0.483591 -1.81777 0
M  V30 11966 O 1190.88 0.563399 -1.72324 0
M  V30 11967 C 1190.93 -2.92479 -2.10923 0
M  V30 11968 O 1190.03 -2.62194 -3.18321 0
M  V30 11969 H 1189.37 -0.580219 -0.322865 0
M  V30 11970 H 1191.9 -2.00611 -0.402033 0
M  V30 11971 H 1191.91 -3.19093 -2.54252 0
M  V30 11972 H 1190.59 -3.84228 -1.59191 0
M  V30 11973 H 1189.16 -2.46448 -2.79853 0
M  V30 11974 N 1191.35 0.610423 -1.45298 0
M  V30 11975 C 1192.6 1.3668 -1.48872 0
M  V30 11976 C 1192.92 1.94562 -0.130686 0
M  V30 11977 O 1192.19 1.76996 0.839607 0
M  V30 11978 H 1190.77 0.507393 -0.548235 0
M  V30 11979 H 1193.43 0.716997 -1.81232 0
M  V30 11980 H 1192.53 2.18766 -2.22593 0
M  V30 11981 N 1192.83 1.32541 0.852676 0
M  V30 11982 C 1194.07 1.24532 1.62083 0
M  V30 11983 C 1194.43 -0.189531 1.91062 0
M  V30 11984 O 1195.63 -0.393382 2.65906 0
M  V30 11985 C 1193.9 2.0828 2.90438 0
M  V30 11986 S 1195.46 2.17317 3.81207 0
M  V30 11987 H 1192.28 0.443261 0.555915 0
M  V30 11988 H 1194.88 1.67413 1.00961 0
M  V30 11989 H 1193.59 3.11587 2.67099 0
M  V30 11990 H 1193.12 1.66184 3.56576 0
M  V30 11991 H 1195.13 1.32412 4.78207 0
M  V30 11992 N 1194.3 -1.0692 1.15784 0
M  V30 11993 C 1195.23 -2.16216 0.881649 0
M  V30 11994 C 1196.22 -1.69253 -0.16951 0
M  V30 11995 O 1197.4 -1.94186 -0.0229511 0
M  V30 11996 C 1194.53 -3.4527 0.374982 0
M  V30 11997 C 1193.48 -4.05706 1.36332 0
M  V30 11998 C 1192.81 -5.29894 0.715317 0
M  V30 11999 C 1194.11 -4.45224 2.7308 0
M  V30 12000 H 1195.8 -2.39577 1.79563 0
M  V30 12001 H 1193.35 -1.15141 0.864784 0
M  V30 12002 H 1195.3 -4.2106 0.169279 0
M  V30 12003 H 1194.03 -3.21508 -0.574485 0
M  V30 12004 H 1192.69 -3.31965 1.55546 0
M  V30 12005 H 1192.33 -5.02425 -0.240436 0
M  V30 12006 H 1192.03 -5.71287 1.37494 0
M  V30 12007 H 1193.56 -6.08386 0.519489 0
M  V30 12008 H 1194.97 -5.12124 2.57686 0
M  V30 12009 H 1193.37 -4.97583 3.35457 0
M  V30 12010 H 1194.44 -3.56384 3.28813 0
M  V30 12011 N 1195.78 -0.955326 -1.25345 0
M  V30 12012 C 1197.02 -0.618161 -1.94828 0
M  V30 12013 C 1197.39 0.829532 -1.73155 0
M  V30 12014 O 1198.59 1.27632 -2.36566 0
M  V30 12015 C 1196.86 -0.967887 -3.44045 0
M  V30 12016 S 1198.42 -0.743401 -4.32457 0
M  V30 12017 H 1195.24 -0.227189 -0.673726 0
M  V30 12018 H 1197.84 -1.22965 -1.51986 0
M  V30 12019 H 1196.54 -2.01864 -3.57322 0
M  V30 12020 H 1196.07 -0.346677 -3.9187 0
M  V30 12021 H 1198.09 0.385467 -4.94701 0
M  V30 12022 N 1197.26 1.39987 -0.723979 0
M  V30 12023 C 1198.67 1.83606 -0.338461 0
M  V30 12024 C 1199.02 1.6051 1.12831 0
M  V30 12025 O 1198.15 1.09041 1.8692 0
M  V30 12026 C 1198.74 3.33308 -0.607533 0
M  V30 12027 C 1197.3 3.75389 -0.275632 0
M  V30 12028 C 1196.45 2.6311 -0.875699 0
M  V30 12029 H 1199.4 1.29135 -0.922483 0
M  V30 12030 H 1199.42 3.80297 0.124424 0
M  V30 12031 H 1198.93 3.50087 -1.67514 0
M  V30 12032 H 1197.03 3.64203 0.786579 0
M  V30 12033 H 1197.15 4.73185 -0.750492 0
M  V30 12034 H 1195.51 2.5289 -0.303122 0
M  V30 12035 H 1196.29 2.82698 -1.94774 0
M  V30 12036 N 1198.74 0.470782 1.50404 0
M  V30 12037 C 1200.15 0.0155901 1.86693 0
M  V30 12038 C 1200.5 -1.38908 1.38561 0
M  V30 12039 O 1199.63 -2.02971 0.750454 0
M  V30 12040 C 1200.22 0.0215152 3.38793 0
M  V30 12041 C 1198.78 -0.378206 3.74495 0
M  V30 12042 C 1197.93 0.407126 2.74295 0
M  V30 12043 H 1200.88 0.68507 1.43152 0
M  V30 12044 H 1200.9 -0.780717 3.72404 0
M  V30 12045 H 1200.41 1.04397 3.73795 0
M  V30 12046 H 1198.51 -1.40503 3.45094 0
M  V30 12047 H 1198.63 -0.0797643 4.79034 0
M  V30 12048 H 1196.99 -0.139123 2.5432 0
M  V30 12049 H 1197.77 1.42909 3.12141 0
M  V30 12050 N 1200.22 -1.56282 0.203376 0
M  V30 12051 C 1201.47 -1.97421 -0.432346 0
M  V30 12052 C 1201.79 -1.0917 -1.61576 0
M  V30 12053 O 1201.06 -0.164759 -1.95206 0
M  V30 12054 H 1199.64 -0.729062 -0.162721 0
M  V30 12055 H 1202.3 -1.927 0.292039 0
M  V30 12056 H 1201.39 -3.02429 -0.770918 0
M  V30 12057 N 1201.7 0.070167 -1.57444 0
M  V30 12058 C 1202.63 1.11509 -1.991 0
M  V30 12059 C 1203.61 1.37481 -0.868194 0
M  V30 12060 O 1204.79 1.50827 -1.13064 0
M  V30 12061 C 1201.92 2.45908 -2.3291 0
M  V30 12062 C 1200.96 2.36059 -3.55216 0
M  V30 12063 S 1201.8 1.75316 -5.05989 0
M  V30 12064 C 1202.95 3.11289 -5.43001 0
M  V30 12065 H 1203.19 0.760096 -2.87419 0
M  V30 12066 H 1200.72 0.278756 -1.51863 0
M  V30 12067 H 1202.68 3.23217 -2.53063 0
M  V30 12068 H 1201.34 2.78567 -1.45117 0
M  V30 12069 H 1200.53 3.35176 -3.76395 0
M  V30 12070 H 1200.13 1.66886 -3.34701 0
M  V30 12071 H 1202.42 4.07603 -5.41171 0
M  V30 12072 H 1203.37 2.94888 -6.43775 0
M  V30 12073 H 1203.78 3.11969 -4.70463 0
M  V30 12074 N 1203.17 1.53854 0.341593 0
M  V30 12075 C 1204.42 1.71447 1.08322 0
M  V30 12076 C 1204.75 0.477289 1.88243 0
M  V30 12077 O 1204.03 -0.525695 1.87261 0
M  V30 12078 C 1204.31 2.97917 2.02281 0
M  V30 12079 C 1204.16 4.31847 1.25809 0
M  V30 12080 C 1205.48 3.20065 3.0207 0
M  V30 12081 H 1202.6 0.623847 0.392408 0
M  V30 12082 H 1205.24 1.86527 0.361594 0
M  V30 12083 H 1203.39 2.85191 2.63815 0
M  V30 12084 H 1205.07 4.56427 0.668737 0
M  V30 12085 H 1203.31 4.30169 0.560119 0
M  V30 12086 H 1203.98 5.16522 1.94704 0
M  V30 12087 H 1206.46 3.32135 2.50651 0
M  V30 12088 H 1205.33 4.09947 3.65013 0
M  V30 12089 H 1205.59 2.36452 3.73554 0
M  V30 12090 N 1204.65 -0.602709 1.4562 0
M  V30 12091 C 1206.07 -0.923983 1.30133 0
M  V30 12092 C 1206.27 -1.99842 0.25796 0
M  V30 12093 O 1205.32 -2.50112 -0.346414 0
M  V30 12094 C 1206.64 -1.36029 2.68173 0
M  V30 12095 C 1208.18 -1.47423 2.76108 0
M  V30 12096 C 1208.66 -1.94427 4.14683 0
M  V30 12097 N 1210.15 -2.01653 4.17002 0
M  V30 12098 C 1210.89 -2.39255 5.211 0
M  V30 12099 N 1210.38 -2.75791 6.3554 0
M  V30 12100 N 1212.17 -2.39636 5.08459 0
M  V30 12101 H 1204.33 0.107377 2.12128 0
M  V30 12102 H 1206.59 -0.0146216 0.947887 0
M  V30 12103 H 1206.29 -0.644949 3.45736 0
M  V30 12104 H 1206.17 -2.32584 2.96959 0
M  V30 12105 H 1208.56 -2.18047 1.98845 0
M  V30 12106 H 1208.64 -0.4917 2.5103 0
M  V30 12107 H 1208.28 -1.24389 4.92433 0
M  V30 12108 H 1208.21 -2.93603 4.37156 0
M  V30 12109 H 1210.7 -1.75988 3.3442 0
M  V30 12110 H 1211.01 -3.03378 7.10761 0
M  V30 12111 H 1209.36 -2.73475 6.38934 0
M  V30 12112 H 1212.55 -2.10502 4.18098 0
M  V30 12113 H 1212.72 -2.68614 5.89704 0
M  V30 12114 N 1206.13 -1.32992 -0.845635 0
M  V30 12115 C 1207.08 -1.19256 -1.94325 0
M  V30 12116 C 1208.06 -0.0971701 -1.60606 0
M  V30 12117 O 1209.26 -0.324591 -1.73998 0
M  V30 12118 C 1206.38 -0.927027 -3.30547 0
M  V30 12119 C 1205.47 -2.06454 -3.70456 0
M  V30 12120 N 1205.86 -3.31393 -3.82116 0
M  V30 12121 C 1204.16 -1.96972 -4.00147 0
M  V30 12122 C 1204.86 -4.05955 -4.16624 0
M  V30 12123 N 1203.84 -3.34332 -4.28629 0
M  V30 12124 H 1207.64 -2.13965 -2.01485 0
M  V30 12125 H 1205.15 -1.24901 -1.03795 0
M  V30 12126 H 1207.15 -0.809565 -4.08964 0
M  V30 12127 H 1205.81 0.011597 -3.24698 0
M  V30 12128 H 1206.82 -3.66222 -3.662 0
M  V30 12129 H 1203.5 -1.10728 -4.02549 0
M  V30 12130 H 1204.89 -5.13738 -4.33039 0
M  V30 12131 N 1207.61 1.06304 -1.1635 0
M  V30 12132 C 1208.52 2.17296 -0.884289 0
M  V30 12133 C 1209.53 1.73408 0.143414 0
M  V30 12134 O 1210.71 2.01373 -0.0331987 0
M  V30 12135 C 1207.77 3.44509 -0.389163 0
M  V30 12136 C 1206.84 4.02906 -1.48208 0
M  V30 12137 C 1206.07 5.24047 -1.01048 0
M  V30 12138 O 1206.29 5.70229 0.139821 0
M  V30 12139 O 1205.23 5.74394 -1.79876 0
M  V30 12140 H 1209.05 2.4369 -1.81243 0
M  V30 12141 H 1206.64 1.15841 -0.943459 0
M  V30 12142 H 1208.52 4.21229 -0.120018 0
M  V30 12143 H 1207.19 3.19642 0.510968 0
M  V30 12144 H 1206.1 3.27677 -1.80496 0
M  V30 12145 H 1207.43 4.32068 -2.35751 0
M  V30 12146 N 1209.09 0.96196 1.24836 0
M  V30 12147 C 1210.03 0.479282 2.27609 0
M  V30 12148 C 1211.03 -0.454224 1.63197 0
M  V30 12149 O 1212.23 -0.330146 1.76946 0
M  V30 12150 H 1208.61 0.13651 0.739506 0
M  V30 12151 H 1210.58 1.35817 2.657 0
M  V30 12152 C 1209.33 -0.220499 3.47 0
M  V30 12153 H 1208.65 0.488694 3.96802 0
M  V30 12154 H 1210.09 -0.522137 4.20773 0
M  V30 12155 C 1208.55 -1.44552 3.04313 0
M  V30 12156 O 1209.08 -2.54287 3.10967 0
M  V30 12157 N 1207.29 -1.3095 2.59423 0
M  V30 12158 H 1206.83 -0.416656 2.54208 0
M  V30 12159 H 1206.79 -2.13029 2.31227 0
M  V30 12160 N 1210.56 -1.39601 0.731392 0
M  V30 12161 C 1211.98 -1.54334 0.406594 0
M  V30 12162 C 1212.18 -1.69925 -1.08295 0
M  V30 12163 O 1211.24 -1.69771 -1.86906 0
M  V30 12164 C 1212.55 -2.76303 1.18647 0
M  V30 12165 C 1214.1 -2.90135 1.17433 0
M  V30 12166 C 1214.57 -4.15038 1.93669 0
M  V30 12167 N 1216.06 -4.2207 1.90817 0
M  V30 12168 C 1216.8 -5.17656 2.46616 0
M  V30 12169 N 1216.29 -6.19054 3.11037 0
M  V30 12170 N 1218.09 -5.09847 2.3667 0
M  V30 12171 H 1210.24 -1.27728 1.69703 0
M  V30 12172 H 1212.5 -0.6188 0.718186 0
M  V30 12173 H 1212.21 -2.71113 2.24032 0
M  V30 12174 H 1212.08 -3.68866 0.788514 0
M  V30 12175 H 1214.47 -2.9482 0.128615 0
M  V30 12176 H 1214.55 -1.98646 1.61163 0
M  V30 12177 H 1214.19 -4.11115 2.9824 0
M  V30 12178 H 1214.12 -5.05565 1.47349 0
M  V30 12179 H 1216.61 -3.49437 1.43882 0
M  V30 12180 H 1216.93 -6.88444 3.51091 0
M  V30 12181 H 1215.27 -6.19452 3.15126 0
M  V30 12182 H 1218.46 -4.29566 1.85987 0
M  V30 12183 H 1218.64 -5.84165 2.80455 0
M  V30 12184 N 1212.04 -0.478751 -1.50152 0
M  V30 12185 C 1213.28 0.0722328 -2.04272 0
M  V30 12186 C 1213.65 1.36299 -1.35227 0
M  V30 12187 O 1214.85 1.99683 -1.79945 0
M  V30 12188 C 1213.12 0.24408 -3.56566 0
M  V30 12189 S 1214.68 0.752517 -4.32299 0
M  V30 12190 H 1211.5 0.0123326 -0.710893 0
M  V30 12191 H 1214.1 -0.647641 -1.84461 0
M  V30 12192 H 1212.8 -0.701012 -4.04369 0
M  V30 12193 H 1212.33 0.989845 -3.80744 0
M  V30 12194 H 1214.35 2.02488 -4.53005 0
M  V30 12195 N 1213.52 1.56172 -0.211661 0
M  V30 12196 C 1214.77 1.98332 0.423332 0
M  V30 12197 C 1215.1 1.09895 1.60115 0
M  V30 12198 O 1214.37 0.154477 1.93886 0
M  V30 12199 C 1214.66 3.49495 0.86747 0
M  V30 12200 C 1214.51 4.48708 -0.313302 0
M  V30 12201 C 1215.83 4.04793 1.72716 0
M  V30 12202 H 1212.95 0.72107 0.152402 0
M  V30 12203 H 1215.59 1.87521 -0.305912 0
M  V30 12204 H 1213.74 3.58839 1.48885 0
M  V30 12205 H 1215.41 4.51385 -0.951291 0
M  V30 12206 H 1213.66 4.2299 -0.96238 0
M  V30 12207 H 1214.33 5.51985 0.0402402 0
M  V30 12208 H 1216.8 3.98332 1.20296 0
M  V30 12209 H 1215.68 5.10898 2.00684 0
M  V30 12210 H 1215.94 3.51067 2.68709 0
M  V30 12211 N 1215 -0.0618163 1.57479 0
M  V30 12212 C 1215.96 -1.05684 2.0338 0
M  V30 12213 C 1216.96 -1.31006 0.932423 0
M  V30 12214 O 1218.15 -1.26559 1.19702 0
M  V30 12215 C 1215.28 -2.39805 2.42294 0
M  V30 12216 H 1216.48 -0.661006 2.92525 0
M  V30 12217 H 1214.03 -0.307814 1.53239 0
M  V30 12218 H 1214.76 -2.84201 1.56207 0
M  V30 12219 H 1214.55 -2.22764 3.22674 0
M  V30 12220 H 1216.04 -3.11307 2.78349 0
M  V30 12221 N 1216.48 -1.54033 -0.333429 0
M  V30 12222 C 1217.41 -1.85719 -1.4153 0
M  V30 12223 C 1218.39 -0.713144 -1.54429 0
M  V30 12224 O 1219.57 -0.965984 -1.68471 0
M  V30 12225 C 1216.7 -2.07578 -2.78439 0
M  V30 12226 C 1215.66 -3.23411 -2.80338 0
M  V30 12227 C 1214.98 -3.30622 -4.2023 0
M  V30 12228 C 1216.28 -4.6129 -2.44968 0
M  V30 12229 H 1217.98 -2.76325 -1.15261 0
M  V30 12230 H 1215.52 -1.32957 -0.55303 0
M  V30 12231 H 1217.48 -2.28329 -3.5418 0
M  V30 12232 H 1216.2 -1.13713 -3.06165 0
M  V30 12233 H 1214.86 -3.02531 -2.07052 0
M  V30 12234 H 1214.51 -2.34333 -4.45081 0
M  V30 12235 H 1214.21 -4.08466 -4.22409 0
M  V30 12236 H 1215.73 -3.53596 -4.97798 0
M  V30 12237 H 1217.14 -4.81987 -3.10421 0
M  V30 12238 H 1215.54 -5.41611 -2.58414 0
M  V30 12239 H 1216.61 -4.6421 -1.40134 0
M  V30 12240 N 1217.95 0.594978 -1.45938 0
M  V30 12241 C 1218.86 1.73296 -1.58132 0
M  V30 12242 C 1219.88 1.67665 -0.465245 0
M  V30 12243 O 1221.06 1.87794 -0.727684 0
M  V30 12244 C 1218.12 3.09783 -1.55677 0
M  V30 12245 C 1217.18 3.26772 -2.78422 0
M  V30 12246 C 1216.42 4.56748 -2.76075 0
M  V30 12247 O 1216.64 5.39867 -1.84119 0
M  V30 12248 O 1215.57 4.76721 -3.67452 0
M  V30 12249 H 1219.4 1.65957 -2.54346 0
M  V30 12250 H 1216.98 0.760572 -1.28591 0
M  V30 12251 H 1218.87 3.91077 -1.56961 0
M  V30 12252 H 1217.54 3.17585 -0.626191 0
M  V30 12253 H 1216.45 2.45018 -2.82696 0
M  V30 12254 H 1217.78 3.23853 -3.70648 0
M  V30 12255 N 1219.43 1.33438 0.838571 0
M  V30 12256 C 1220.85 1.12779 1.12929 0
M  V30 12257 C 1221.05 -0.0811188 2.01337 0
M  V30 12258 O 1220.1 -0.761294 2.4075 0
M  V30 12259 C 1221.42 2.41537 1.7911 0
M  V30 12260 C 1222.97 2.47447 1.91674 0
M  V30 12261 C 1223.44 3.76167 2.6127 0
M  V30 12262 N 1224.93 3.7724 2.68783 0
M  V30 12263 C 1225.67 4.7355 3.23323 0
M  V30 12264 N 1225.16 5.80235 3.78549 0
M  V30 12265 N 1226.96 4.61025 3.21578 0
M  V30 12266 H 1219.11 2.10921 0.250187 0
M  V30 12267 H 1221.37 0.931986 0.17351 0
M  V30 12268 H 1221.08 3.30006 1.21609 0
M  V30 12269 H 1220.95 2.53709 2.79127 0
M  V30 12270 H 1223.34 1.59427 2.48328 0
M  V30 12271 H 1223.42 2.39216 0.906058 0
M  V30 12272 H 1223.06 4.64569 2.05275 0
M  V30 12273 H 1222.99 3.81675 3.62811 0
M  V30 12274 H 1225.48 3.00138 2.29621 0
M  V30 12275 H 1225.8 6.49759 4.1837 0
M  V30 12276 H 1224.14 5.83969 3.76836 0
M  V30 12277 H 1227.33 3.76836 2.77691 0
M  V30 12278 H 1227.5 5.36253 3.63781 0
M  V30 12279 N 1220.91 -1.05686 1.16912 0
M  V30 12280 C 1222.15 -1.80177 0.965182 0
M  V30 12281 C 1222.51 -1.85437 -0.497698 0
M  V30 12282 O 1223.72 -2.5597 -0.82054 0
M  V30 12283 C 1221.99 -3.20441 1.58279 0
M  V30 12284 S 1223.55 -4.11472 1.52435 0
M  V30 12285 H 1220.36 -0.620595 0.346962 0
M  V30 12286 H 1222.97 -1.26841 1.48767 0
M  V30 12287 H 1221.67 -3.14211 2.64006 0
M  V30 12288 H 1221.2 -3.78853 1.05989 0
M  V30 12289 H 1223.22 -4.93373 0.528876 0
M  V30 12290 N 1222.39 -0.968567 -1.24324 0
M  V30 12291 C 1223.8 -0.66964 -1.74278 0
M  V30 12292 C 1224.15 0.81461 -1.7849 0
M  V30 12293 O 1223.28 1.63736 -1.4149 0
M  V30 12294 C 1223.87 -1.20885 -3.165 0
M  V30 12295 C 1222.43 -0.959808 -3.63957 0
M  V30 12296 C 1221.58 -1.34365 -2.42573 0
M  V30 12297 H 1224.53 -1.14379 -1.10015 0
M  V30 12298 H 1224.55 -0.57555 -3.76122 0
M  V30 12299 H 1224.06 -2.28912 -3.13402 0
M  V30 12300 H 1222.16 0.104894 -3.72452 0
M  V30 12301 H 1222.27 -1.60606 -4.51378 0
M  V30 12302 H 1220.64 -0.762039 -2.43033 0
M  V30 12303 H 1221.42 -2.43343 -2.42155 0
M  V30 12304 N 1223.87 1.39211 -0.738786 0
M  V30 12305 C 1225.11 2.02287 -0.293119 0
M  V30 12306 C 1225.47 1.57361 1.10006 0
M  V30 12307 O 1226.67 2.12663 1.64402 0
M  V30 12308 C 1224.94 3.55204 -0.395547 0
M  V30 12309 S 1226.5 4.3879 -0.0302798 0
M  V30 12310 H 1223.32 0.701702 -0.114609 0
M  V30 12311 H 1225.92 1.69959 -0.966138 0
M  V30 12312 H 1224.63 3.85392 -1.41072 0
M  V30 12313 H 1224.16 3.92291 0.295163 0
M  V30 12314 H 1226.17 4.81848 1.18478 0
M  V30 12315 N 1225.34 0.486708 1.49896 0
M  V30 12316 C 1226.59 -0.062852 2.02402 0
M  V30 12317 C 1226.92 -1.38306 1.36754 0
M  V30 12318 O 1226.17 -1.89531 0.487493 0
M  V30 12319 C 1226.47 -0.278643 3.56312 0
M  V30 12320 C 1226.14 0.961794 4.40523 0
M  V30 12321 C 1224.8 1.30185 4.63255 0
M  V30 12322 C 1227.15 1.78697 4.89609 0
M  V30 12323 C 1224.48 2.46686 5.32318 0
M  V30 12324 C 1226.83 2.9434 5.59953 0
M  V30 12325 C 1225.5 3.28742 5.80935 0
M  V30 12326 H 1224.77 -0.0229992 0.740643 0
M  V30 12327 H 1227.41 0.643963 1.80348 0
M  V30 12328 H 1225.72 -1.06785 3.76967 0
M  V30 12329 H 1227.42 -0.718078 3.94518 0
M  V30 12330 H 1224.01 0.686887 4.2306 0
M  V30 12331 H 1228.19 1.53742 4.71887 0
M  V30 12332 H 1223.45 2.73596 5.46768 0
M  V30 12333 H 1227.62 3.58616 5.96965 0
M  V30 12334 H 1225.25 4.19121 6.34225 0
M  V30 12335 N 1226.82 -1.56058 0.219941 0
M  V30 12336 C 1227.77 -2.16853 -0.704185 0
M  V30 12337 C 1228.76 -1.11639 -1.15869 0
M  V30 12338 O 1229.95 -1.37632 -1.11295 0
M  V30 12339 C 1227.08 -2.85073 -1.9128 0
M  V30 12340 C 1226.16 -3.9751 -1.47805 0
M  V30 12341 N 1226.56 -5.00121 -0.755792 0
M  V30 12342 C 1224.85 -4.0957 -1.76546 0
M  V30 12343 C 1225.55 -5.79241 -0.534332 0
M  V30 12344 N 1224.53 -5.32549 -1.09055 0
M  V30 12345 H 1228.33 -2.93547 -0.143914 0
M  V30 12346 H 1225.85 -1.62386 0.021133 0
M  V30 12347 H 1227.84 -3.27037 -2.58558 0
M  V30 12348 H 1226.5 -2.09874 -2.47756 0
M  V30 12349 H 1227.51 -5.16285 -0.408647 0
M  V30 12350 H 1224.19 -3.45521 -2.34353 0
M  V30 12351 H 1225.58 -6.71888 0.0404032 0
M  V30 12352 N 1228.3 0.053464 -1.57509 0
M  V30 12353 C 1229.23 1.08863 -2.01696 0
M  V30 12354 C 1230.25 1.33916 -0.925765 0
M  V30 12355 O 1231.44 1.31833 -1.20343 0
M  V30 12356 C 1228.54 2.43567 -2.35644 0
M  V30 12357 C 1227.71 2.38215 -3.66841 0
M  V30 12358 C 1226.77 3.55172 -3.88252 0
M  V30 12359 O 1225.79 3.35769 -4.59617 0
M  V30 12360 N 1227 4.76182 -3.3201 0
M  V30 12361 H 1229.76 0.712192 -2.91115 0
M  V30 12362 H 1227.32 0.241829 -1.60084 0
M  V30 12363 H 1229.31 3.20486 -2.47125 0
M  V30 12364 H 1227.88 2.73145 -1.52022 0
M  V30 12365 H 1227.1 1.46557 -3.65943 0
M  V30 12366 H 1228.39 2.31757 -4.52953 0
M  V30 12367 H 1227.79 4.94849 -2.74118 0
M  V30 12368 H 1226.35 5.5055 -3.4891 0
M  V30 12369 N 1229.78 1.54207 0.325255 0
M  V30 12370 C 1231.03 1.71991 1.0613 0
M  V30 12371 C 1231.35 0.495505 1.88599 0
M  V30 12372 O 1230.62 -0.490504 1.8966 0
M  V30 12373 H 1229.2 0.634137 0.394816 0
M  V30 12374 H 1231.86 1.91507 0.362101 0
M  V30 12375 H 1230.96 2.59878 1.72829 0
M  V30 12376 N 1231.26 -0.58723 1.46251 0
M  V30 12377 C 1232.2 -1.69662 1.56472 0
M  V30 12378 C 1233.17 -1.60978 0.409294 0
M  V30 12379 O 1234.36 -1.80257 0.625451 0
M  V30 12380 C 1231.5 -3.07996 1.55669 0
M  V30 12381 C 1230.61 -3.27337 2.81913 0
M  V30 12382 C 1229.75 -4.55894 2.72644 0
M  V30 12383 C 1228.79 -4.68562 3.93847 0
M  V30 12384 N 1227.92 -5.8844 3.82991 0
M  V30 12385 H 1232.76 -1.60262 2.51237 0
M  V30 12386 H 1230.3 -0.781148 1.24645 0
M  V30 12387 H 1232.26 -3.88058 1.53189 0
M  V30 12388 H 1230.89 -3.16303 0.6444 0
M  V30 12389 H 1229.94 -2.4091 2.94392 0
M  V30 12390 H 1231.25 -3.32567 3.71754 0
M  V30 12391 H 1230.41 -5.44178 2.68244 0
M  V30 12392 H 1229.15 -4.53094 1.80435 0
M  V30 12393 H 1228.15 -3.78696 3.98584 0
M  V30 12394 H 1229.38 -4.73144 4.87146 0
M  V30 12395 H 1227.32 -5.86647 2.93566 0
M  V30 12396 H 1227.24 -5.94919 4.66484 0
M  V30 12397 H 1228.51 -6.79168 3.82559 0
M  V30 12398 N 1232.74 -1.33881 -0.831482 0
M  V30 12399 C 1233.65 -1.26802 -1.97379 0
M  V30 12400 C 1234.66 -0.177233 -1.73095 0
M  V30 12401 O 1235.84 -0.402163 -1.97344 0
M  V30 12402 C 1232.9 -1.01474 -3.31517 0
M  V30 12403 C 1231.96 -2.19626 -3.68867 0
M  V30 12404 C 1231.2 -1.95497 -4.96605 0
M  V30 12405 O 1231.42 -0.908948 -5.63111 0
M  V30 12406 O 1230.35 -2.82226 -5.31632 0
M  V30 12407 H 1234.18 -2.22883 -2.06293 0
M  V30 12408 H 1231.76 -1.14001 -0.965613 0
M  V30 12409 H 1233.65 -0.890954 -4.11874 0
M  V30 12410 H 1232.32 -0.0842656 -3.2359 0
M  V30 12411 H 1231.23 -2.37561 -2.88991 0
M  V30 12412 H 1232.56 -3.11034 -3.81469 0
M  V30 12413 N 1234.21 1.05064 -1.1747 0
M  V30 12414 C 1235.44 1.81497 -0.987031 0
M  V30 12415 C 1235.85 1.83323 0.467921 0
M  V30 12416 O 1235.19 1.26006 1.33672 0
M  V30 12417 C 1235.26 3.28826 -1.45306 0
M  V30 12418 C 1234.92 3.50681 -2.93039 0
M  V30 12419 C 1235.92 3.42699 -3.90965 0
M  V30 12420 C 1233.6 3.77602 -3.31243 0
M  V30 12421 C 1235.6 3.61325 -5.25093 0
M  V30 12422 C 1233.28 3.95876 -4.65538 0
M  V30 12423 C 1234.28 3.87737 -5.62271 0
M  V30 12424 O 1233.97 4.055 -6.94136 0
M  V30 12425 H 1233.7 0.578734 -0.349347 0
M  V30 12426 H 1236.26 1.33373 -1.56208 0
M  V30 12427 H 1234.49 3.77872 -0.821581 0
M  V30 12428 H 1236.17 3.86788 -1.23085 0
M  V30 12429 H 1236.94 3.21877 -3.62795 0
M  V30 12430 H 1232.82 3.8304 -2.56517 0
M  V30 12431 H 1236.36 3.54888 -6.00583 0
M  V30 12432 H 1232.26 4.16191 -4.93412 0
M  V30 12433 H 1233.03 4.22718 -7.00894 0
M  V30 12434 N 1235.69 0.975146 1.23809 0
M  V30 12435 C 1236.65 0.516157 2.23312 0
M  V30 12436 C 1237.65 -0.39136 1.55965 0
M  V30 12437 O 1238.84 -0.185783 1.73206 0
M  V30 12438 C 1235.98 -0.251534 3.39971 0
M  V30 12439 H 1237.17 1.3959 2.65433 0
M  V30 12440 H 1234.72 0.760493 1.36551 0
M  V30 12441 H 1235.46 -1.14805 3.03299 0
M  V30 12442 H 1235.24 0.399825 3.90056 0
M  V30 12443 H 1236.73 -0.561438 4.13809 0
M  V30 12444 N 1237.17 -1.38817 0.746158 0
M  V30 12445 C 1238.58 -1.83045 0.367629 0
M  V30 12446 C 1238.93 -1.62285 -1.10263 0
M  V30 12447 O 1238.06 -1.12001 -1.85162 0
M  V30 12448 C 1238.65 -3.323 0.660482 0
M  V30 12449 C 1237.21 -3.74903 0.335318 0
M  V30 12450 C 1236.36 -2.61683 0.917446 0
M  V30 12451 H 1239.31 -1.27651 0.94291 0
M  V30 12452 H 1239.33 -3.80446 -0.0639061 0
M  V30 12453 H 1238.84 -3.47377 1.73062 0
M  V30 12454 H 1236.94 -3.65408 -0.728538 0
M  V30 12455 H 1237.06 -4.71932 0.825677 0
M  V30 12456 H 1235.42 -2.52376 0.343316 0
M  V30 12457 H 1236.2 -2.79563 1.99247 0
M  V30 12458 N 1238.65 -0.49465 -1.49636 0
M  V30 12459 C 1239.9 0.0520143 -2.02033 0
M  V30 12460 C 1240.22 1.38071 -1.37701 0
M  V30 12461 O 1239.49 1.88589 -0.530181 0
M  V30 12462 H 1238.07 0.0222123 -0.74667 0
M  V30 12463 H 1240.73 -0.650445 -1.83726 0
M  V30 12464 H 1239.82 0.186337 -3.11543 0
M  V30 12465 N 1240.13 1.55939 -0.228214 0
M  V30 12466 C 1241.04 2.24213 0.690339 0
M  V30 12467 C 1242.05 1.25197 1.20838 0
M  V30 12468 O 1243.23 1.58026 1.24859 0
M  V30 12469 C 1240.29 2.91384 1.87873 0
M  V30 12470 C 1239.35 4.05761 1.40201 0
M  V30 12471 C 1238.59 4.6972 2.53376 0
M  V30 12472 O 1238.81 4.32687 3.71669 0
M  V30 12473 O 1237.74 5.58587 2.24198 0
M  V30 12474 H 1241.57 3.03383 0.138692 0
M  V30 12475 H 1239.15 1.494 0.00251504 0
M  V30 12476 H 1241.04 3.33758 2.57262 0
M  V30 12477 H 1239.71 2.15168 2.41835 0
M  V30 12478 H 1238.62 3.67943 0.675945 0
M  V30 12479 H 1239.95 4.83739 0.908691 0
M  V30 12480 N 1241.6 -0.0451101 1.57535 0
M  V30 12481 C 1242.83 -0.75132 1.92777 0
M  V30 12482 C 1243.25 -1.69743 0.826599 0
M  V30 12483 O 1242.6 -1.8142 -0.198224 0
M  V30 12484 C 1242.66 -1.52218 3.2789 0
M  V30 12485 O 1242.38 -0.614059 4.33775 0
M  V30 12486 C 1243.88 -2.32699 3.77314 0
M  V30 12487 H 1241.1 -0.21211 0.636593 0
M  V30 12488 H 1243.64 -0.0074174 2.04499 0
M  V30 12489 H 1241.8 -2.2181 3.17614 0
M  V30 12490 H 1242.21 -1.15294 5.11671 0
M  V30 12491 H 1243.68 -2.82205 4.7441 0
M  V30 12492 H 1244.16 -3.13414 3.07682 0
M  V30 12493 H 1244.77 -1.68212 3.90621 0
M  V30 12494 N 1243.08 -1.54377 -0.317073 0
M  V30 12495 C 1244.33 -1.73149 -1.05581 0
M  V30 12496 C 1244.66 -0.507176 -1.8746 0
M  V30 12497 O 1243.94 0.495837 -1.88074 0
M  V30 12498 C 1244.22 -3.01098 -1.97515 0
M  V30 12499 C 1244.07 -4.33794 -1.18922 0
M  V30 12500 C 1245.39 -3.24831 -2.9694 0
M  V30 12501 H 1242.51 -0.630011 -0.382434 0
M  V30 12502 H 1245.15 -1.87079 -0.331873 0
M  V30 12503 H 1243.3 -2.89352 -2.59244 0
M  V30 12504 H 1244.97 -4.57433 -0.596039 0
M  V30 12505 H 1243.22 -4.31005 -0.491612 0
M  V30 12506 H 1243.89 -5.19554 -1.86462 0
M  V30 12507 H 1246.36 -3.3608 -2.45335 0
M  V30 12508 H 1245.24 -4.15702 -3.58445 0
M  V30 12509 H 1245.5 -2.42365 -3.69745 0
M  V30 12510 N 1244.56 0.579466 -1.4656 0
M  V30 12511 C 1245.51 1.68829 -1.5737 0
M  V30 12512 C 1246.48 1.60759 -0.417825 0
M  V30 12513 O 1247.66 1.79923 -0.635001 0
M  V30 12514 C 1244.8 3.07166 -1.573 0
M  V30 12515 C 1243.92 3.25837 -2.83645 0
M  V30 12516 C 1243.05 4.54441 -2.75057 0
M  V30 12517 C 1242.09 4.66467 -3.96327 0
M  V30 12518 N 1241.23 5.86401 -3.86107 0
M  V30 12519 H 1246.07 1.58928 -2.52083 0
M  V30 12520 H 1243.6 0.774526 -1.25058 0
M  V30 12521 H 1245.56 3.8724 -1.55245 0
M  V30 12522 H 1244.19 3.15956 -0.661166 0
M  V30 12523 H 1243.24 2.39345 -2.95666 0
M  V30 12524 H 1244.56 3.30591 -3.73512 0
M  V30 12525 H 1243.71 5.42748 -2.71126 0
M  V30 12526 H 1242.45 4.52131 -1.82836 0
M  V30 12527 H 1241.45 3.76577 -4.00587 0
M  V30 12528 H 1242.68 4.70554 -4.89649 0
M  V30 12529 H 1240.62 5.85082 -2.96673 0
M  V30 12530 H 1240.54 5.92437 -4.69632 0
M  V30 12531 H 1241.81 6.7713 -3.86155 0
M  V30 12532 N 1246.04 1.3432 0.824371 0
M  V30 12533 C 1247.29 1.25938 1.57552 0
M  V30 12534 C 1247.6 -0.169298 1.94866 0
M  V30 12535 O 1248.81 -0.375262 2.68894 0
M  V30 12536 C 1247.26 2.20757 2.84244 0
M  V30 12537 C 1246.87 3.68873 2.54237 0
M  V30 12538 C 1248.61 2.21279 3.62265 0
M  V30 12539 C 1246.52 4.55566 3.77113 0
M  V30 12540 H 1245.45 0.467832 0.591311 0
M  V30 12541 H 1248.1 1.59476 0.907724 0
M  V30 12542 H 1246.48 1.80168 3.52641 0
M  V30 12543 H 1247.66 4.17991 1.93959 0
M  V30 12544 H 1245.97 3.70784 1.89494 0
M  V30 12545 H 1248.57 2.83272 4.53499 0
M  V30 12546 H 1248.91 1.2117 3.98276 0
M  V30 12547 H 1249.45 2.60305 3.00809 0
M  V30 12548 H 1246.19 5.56605 3.46223 0
M  V30 12549 H 1245.71 4.11184 4.36678 0
M  V30 12550 H 1247.38 4.701 4.44539 0
M  V30 12551 N 1247.52 -1.0444 1.18026 0
M  V30 12552 C 1248.76 -1.77224 0.971391 0
M  V30 12553 C 1249.09 -1.88466 -0.500564 0
M  V30 12554 O 1248.36 -1.40692 -1.36317 0
M  V30 12555 H 1246.94 -0.656485 0.356422 0
M  V30 12556 H 1249.6 -1.26064 1.4864 0
M  V30 12557 H 1248.69 -2.78626 1.4062 0
M  V30 12558 N 1248.99 -0.981699 -1.2329 0
M  V30 12559 C 1250.23 -0.659348 -1.93473 0
M  V30 12560 C 1250.6 0.792616 -1.74876 0
M  V30 12561 O 1251.8 1.22586 -2.3922 0
M  V30 12562 C 1250.07 -1.04065 -3.41914 0
M  V30 12563 S 1251.63 -0.834964 -4.30783 0
M  V30 12564 H 1248.45 -0.241428 -0.668755 0
M  V30 12565 H 1251.05 -1.26161 -1.49344 0
M  V30 12566 H 1249.75 -2.09398 -3.5296 0
M  V30 12567 H 1249.28 -0.429721 -3.91046 0
M  V30 12568 H 1251.3 0.280447 -4.95407 0
M  V30 12569 N 1250.47 1.3842 -0.753509 0
M  V30 12570 C 1251.42 2.32315 -0.115107 0
M  V30 12571 C 1252.41 1.54015 0.705398 0
M  V30 12572 O 1253.62 1.69546 0.604505 0
M  V30 12573 H 1250 0.751774 -0.0184276 0
M  V30 12574 H 1251.97 2.83763 -0.923094 0
M  V30 12575 C 1250.72 3.39206 0.763849 0
M  V30 12576 H 1250.04 3.99548 0.14187 0
M  V30 12577 H 1251.48 4.07312 1.17783 0
M  V30 12578 C 1249.94 2.77771 1.90643 0
M  V30 12579 O 1250.47 2.67073 3.00058 0
M  V30 12580 N 1248.67 2.35582 1.70145 0
M  V30 12581 H 1248.22 2.44483 0.811528 0
M  V30 12582 H 1248.18 1.9482 2.46764 0
M  V30 12583 N 1251.95 0.502579 1.49372 0
M  V30 12584 C 1253.18 -0.0381429 2.06865 0
M  V30 12585 C 1253.59 -1.30674 1.36271 0
M  V30 12586 O 1252.95 -1.77078 0.441532 0
M  V30 12587 C 1253 -0.294068 3.60302 0
M  V30 12588 O 1252.72 0.924244 4.2824 0
M  V30 12589 C 1254.22 -0.878253 4.34513 0
M  V30 12590 H 1251.44 0.0211756 0.670666 0
M  V30 12591 H 1253.99 0.700387 1.92132 0
M  V30 12592 H 1252.14 -0.982583 3.74732 0
M  V30 12593 H 1252.56 0.688062 5.19967 0
M  V30 12594 H 1254.03 -1.0069 5.42739 0
M  V30 12595 H 1254.51 -1.87643 3.97098 0
M  V30 12596 H 1255.11 -0.227157 4.24693 0
M  V30 12597 N 1253.43 -1.55816 0.23648 0
M  V30 12598 C 1254.67 -2.0059 -0.39281 0
M  V30 12599 C 1255.03 -1.12092 -1.55883 0
M  V30 12600 O 1256.23 -1.46277 -2.25514 0
M  V30 12601 C 1254.5 -3.48281 -0.80219 0
M  V30 12602 S 1256.06 -4.15069 -1.42348 0
M  V30 12603 H 1252.88 -0.700093 -0.124057 0
M  V30 12604 H 1255.48 -1.92355 0.349272 0
M  V30 12605 H 1254.19 -4.10362 0.0558941 0
M  V30 12606 H 1253.72 -3.60421 -1.57671 0
M  V30 12607 H 1255.73 -4.15493 -2.71257 0
M  V30 12608 N 1254.91 0.036755 -1.57557 0
M  V30 12609 C 1256.15 0.730186 -1.89199 0
M  V30 12610 C 1256.49 1.75414 -0.833271 0
M  V30 12611 O 1255.76 1.93901 0.152579 0
M  V30 12612 C 1256.04 1.40669 -3.31488 0
M  V30 12613 C 1255.9 0.396764 -4.48047 0
M  V30 12614 C 1257.22 2.34268 -3.72567 0
M  V30 12615 H 1254.33 0.263983 -0.6881 0
M  V30 12616 H 1256.98 -0.0069847 -1.89999 0
M  V30 12617 H 1255.13 2.03502 -3.30937 0
M  V30 12618 H 1256.8 -0.229062 -4.60731 0
M  V30 12619 H 1255.04 -0.284698 -4.32865 0
M  V30 12620 H 1255.71 0.908436 -5.44474 0
M  V30 12621 H 1258.19 1.81485 -3.74436 0
M  V30 12622 H 1257.06 2.78587 -4.72949 0
M  V30 12623 H 1257.33 3.20611 -3.04403 0
M  V30 12624 N 1256.39 1.54543 0.308881 0
M  V30 12625 C 1257.63 1.75182 1.05312 0
M  V30 12626 C 1257.99 0.522347 1.84758 0
M  V30 12627 O 1259.19 0.606334 2.61872 0
M  V30 12628 C 1257.46 3.0007 1.94147 0
M  V30 12629 S 1259.02 3.41676 2.75323 0
M  V30 12630 H 1255.84 0.615862 0.355296 0
M  V30 12631 H 1258.44 1.92739 0.327413 0
M  V30 12632 H 1257.14 3.87685 1.34643 0
M  V30 12633 H 1256.68 2.85078 2.71098 0
M  V30 12634 H 1258.69 2.98128 3.96654 0
M  V30 12635 N 1257.86 -0.571685 1.46866 0
M  V30 12636 C 1258.8 -1.69475 1.54307 0
M  V30 12637 C 1259.81 -1.57006 0.430449 0
M  V30 12638 O 1261 -1.64229 0.69936 0
M  V30 12639 C 1258.1 -3.07824 1.41766 0
M  V30 12640 C 1257.27 -3.46189 2.67342 0
M  V30 12641 C 1256.33 -4.63642 2.48843 0
M  V30 12642 O 1255.36 -4.68949 3.22608 0
M  V30 12643 N 1256.56 -5.59223 1.55724 0
M  V30 12644 H 1259.32 -1.63543 2.51145 0
M  V30 12645 H 1256.88 -0.757957 1.43062 0
M  V30 12646 H 1258.88 -3.84208 1.27146 0
M  V30 12647 H 1257.45 -3.08063 0.530667 0
M  V30 12648 H 1256.67 -2.59399 2.96826 0
M  V30 12649 H 1257.95 -3.68591 3.50739 0
M  V30 12650 H 1257.35 -5.5768 0.949175 0
M  V30 12651 H 1255.91 -6.34993 1.47063 0
M  V30 12652 N 1259.34 -1.34755 -0.817236 0
M  V30 12653 C 1260.62 -1.18007 -1.55993 0
M  V30 12654 C 1261 0.245079 -2.09673 0
M  V30 12655 O 1260.35 1.24718 -1.91462 0
M  V30 12656 C 1260.56 -2.23934 -2.67684 0
M  V30 12657 C 1261.9 -2.59201 -3.36303 0
M  V30 12658 O 1262.93 -2.22767 -2.77945 0
M  V30 12659 O 1261.79 -3.21809 -4.41702 0
M  V30 12660 H 1258.88 -0.4578 -0.688729 0
M  V30 12661 H 1261.43 -1.46405 -0.858117 0
M  V30 12662 H 1260.2 -3.19568 -2.25813 0
M  V30 12663 H 1259.82 -1.96745 -3.4551 0
M  V30 12664 N 1260.82 1.03812 -1.18578 0
M  V30 12665 C 1262.24 1.29271 -0.936011 0
M  V30 12666 C 1262.44 1.97551 0.396965 0
M  V30 12667 O 1261.49 2.25769 1.13069 0
M  V30 12668 C 1262.8 2.1489 -2.1034 0
M  V30 12669 C 1264.35 2.28228 -2.14198 0
M  V30 12670 C 1264.83 3.17214 -3.30362 0
M  V30 12671 N 1266.32 3.24802 -3.30239 0
M  V30 12672 C 1267.05 3.9382 -4.16765 0
M  V30 12673 N 1266.55 4.65147 -5.1343 0
M  V30 12674 N 1268.34 3.90125 -4.04671 0
M  V30 12675 H 1260.49 0.579011 -2.04356 0
M  V30 12676 H 1262.76 0.318021 -0.893066 0
M  V30 12677 H 1262.46 1.72029 -3.06755 0
M  V30 12678 H 1262.34 3.15576 -2.06619 0
M  V30 12679 H 1264.72 2.70324 -1.18359 0
M  V30 12680 H 1264.8 1.27124 -2.21976 0
M  V30 12681 H 1264.45 2.75829 -4.26475 0
M  V30 12682 H 1264.38 4.18356 -3.19821 0
M  V30 12683 H 1266.87 2.73994 -2.60261 0
M  V30 12684 H 1267.18 5.15414 -5.7582 0
M  V30 12685 H 1265.53 4.64043 -5.17387 0
M  V30 12686 H 1268.72 3.33536 -3.28438 0
M  V30 12687 H 1268.89 4.43641 -4.7232 0
M  V30 12688 N 1262.3 0.988223 1.22768 0
M  V30 12689 C 1263.24 0.534605 2.24523 0
M  V30 12690 C 1264.21 -0.430615 1.60421 0
M  V30 12691 O 1265.4 -0.336417 1.87811 0
M  V30 12692 C 1262.54 -0.149195 3.44777 0
M  V30 12693 C 1261.65 0.85721 4.2341 0
M  V30 12694 C 1260.79 0.147411 5.30995 0
M  V30 12695 C 1259.83 1.1425 6.01343 0
M  V30 12696 N 1258.96 0.461327 7.00583 0
M  V30 12697 H 1263.8 1.40708 2.62689 0
M  V30 12698 H 1261.34 0.704918 1.2911 0
M  V30 12699 H 1263.3 -0.562527 4.1339 0
M  V30 12700 H 1261.93 -0.985485 3.07389 0
M  V30 12701 H 1260.98 1.38889 3.54138 0
M  V30 12702 H 1262.29 1.61517 4.71926 0
M  V30 12703 H 1261.45 -0.32289 6.0584 0
M  V30 12704 H 1260.19 -0.643085 4.83442 0
M  V30 12705 H 1259.19 1.62348 5.25284 0
M  V30 12706 H 1260.42 1.93379 6.50985 0
M  V30 12707 H 1258.36 -0.309818 6.55268 0
M  V30 12708 H 1258.28 1.15781 7.47082 0
M  V30 12709 H 1259.55 0.0136734 7.79499 0
M  V30 12710 N 1263.78 -1.38018 0.760839 0
M  V30 12711 C 1265.02 -2.0071 0.329695 0
M  V30 12712 C 1265.38 -1.59315 -1.07872 0
M  V30 12713 O 1264.67 -0.824077 -1.72973 0
M  V30 12714 C 1264.86 -3.55168 0.398778 0
M  V30 12715 C 1264.69 -4.11562 1.81237 0
M  V30 12716 C 1263.46 -4.43003 2.43056 0
M  V30 12717 C 1265.66 -4.3332 2.77018 0
M  V30 12718 N 1263.64 -4.85048 3.76301 0
M  V30 12719 C 1265.01 -4.77853 3.9504 0
M  V30 12720 C 1267.07 -4.15432 2.74446 0
M  V30 12721 C 1265.77 -5.06373 5.10861 0
M  V30 12722 C 1267.8 -4.45081 3.89431 0
M  V30 12723 C 1267.16 -4.89845 5.06193 0
M  V30 12724 H 1263.26 -0.76386 0.167457 0
M  V30 12725 H 1265.84 -1.67513 0.992343 0
M  V30 12726 H 1264.01 -3.87697 -0.233635 0
M  V30 12727 H 1265.75 -4.04665 -0.0533765 0
M  V30 12728 H 1262.5 -4.317 1.94762 0
M  V30 12729 H 1262.92 -5.10394 4.44778 0
M  V30 12730 H 1267.57 -3.80006 1.85353 0
M  V30 12731 H 1265.28 -5.40693 6.00564 0
M  V30 12732 H 1268.87 -4.32839 3.88769 0
M  V30 12733 H 1267.75 -5.12348 5.93691 0
M  V30 12734 N 1265.25 -0.510493 -1.49103 0
M  V30 12735 C 1266.2 0.276449 -2.30951 0
M  V30 12736 C 1267.2 0.953893 -1.3999 0
M  V30 12737 O 1268.4 0.880499 -1.56994 0
M  V30 12738 H 1264.78 0.108013 -0.744202 0
M  V30 12739 H 1266.75 -0.433725 -2.95231 0
M  V30 12740 C 1265.5 1.32234 -3.21573 0
M  V30 12741 H 1264.82 0.810468 -3.91499 0
M  V30 12742 H 1266.26 1.84476 -3.81765 0
M  V30 12743 C 1264.72 2.3456 -2.41833 0
M  V30 12744 O 1265.25 3.40627 -2.12922 0
M  V30 12745 N 1263.45 2.07272 -2.03682 0
M  V30 12746 H 1263 1.21036 -2.27394 0
M  V30 12747 H 1262.96 2.75963 -1.50638 0
M  V30 12748 N 1266.73 1.55688 -0.24474 0
M  V30 12749 C 1267.97 2.00796 0.382167 0
M  V30 12750 C 1268.34 1.12917 1.55286 0
M  V30 12751 O 1269.54 1.47471 2.24735 0
M  V30 12752 C 1267.81 3.48702 0.783708 0
M  V30 12753 S 1269.37 4.15818 1.40145 0
M  V30 12754 H 1266.18 0.700742 0.120343 0
M  V30 12755 H 1268.79 1.92167 -0.359468 0
M  V30 12756 H 1267.49 4.10327 -0.0776558 0
M  V30 12757 H 1267.02 3.61252 1.55758 0
M  V30 12758 H 1269.04 4.16925 2.6905 0
M  V30 12759 N 1268.21 -0.0283989 1.57574 0
M  V30 12760 C 1269.44 -0.730831 1.93563 0
M  V30 12761 C 1269.85 -1.68857 0.844556 0
M  V30 12762 O 1269.21 -1.8162 -0.178971 0
M  V30 12763 C 1269.26 -1.48731 3.29486 0
M  V30 12764 O 1268.98 -0.568017 4.34402 0
M  V30 12765 C 1270.48 -2.28684 3.79761 0
M  V30 12766 H 1267.7 -0.205346 0.638807 0
M  V30 12767 H 1270.25 0.0142728 2.04495 0
M  V30 12768 H 1268.4 -2.18429 3.19949 0
M  V30 12769 H 1268.82 -1.09861 5.12865 0
M  V30 12770 H 1270.29 -2.77157 4.77376 0
M  V30 12771 H 1270.77 -3.10133 3.10989 0
M  V30 12772 H 1271.37 -1.64059 3.92383 0
M  V30 12773 N 1269.69 -1.54705 -0.300681 0
M  V30 12774 C 1270.96 -1.6468 -1.05546 0
M  V30 12775 C 1271.34 -0.495292 -2.05207 0
M  V30 12776 O 1270.69 0.507944 -2.22783 0
M  V30 12777 C 1270.9 -3.02702 -1.73703 0
M  V30 12778 C 1272.25 -3.59527 -2.25888 0
M  V30 12779 O 1273.27 -3.05156 -1.83735 0
M  V30 12780 O 1272.13 -4.54727 -3.03126 0
M  V30 12781 H 1269.23 -0.667769 -0.487867 0
M  V30 12782 H 1271.77 -1.6705 -0.298743 0
M  V30 12783 H 1270.55 -3.7795 -1.01338 0
M  V30 12784 H 1270.17 -3.0411 -2.5613 0
M  V30 12785 N 1271.17 0.563888 -1.47167 0
M  V30 12786 C 1272.12 1.66687 -1.55562 0
M  V30 12787 C 1273.1 1.55455 -0.415024 0
M  V30 12788 O 1274.29 1.64051 -0.664557 0
M  V30 12789 C 1271.42 3.05469 -1.56665 0
M  V30 12790 C 1270.51 3.21928 -2.76085 0
M  V30 12791 N 1270.9 3.08477 -4.00844 0
M  V30 12792 C 1269.2 3.52913 -2.72706 0
M  V30 12793 C 1269.9 3.27447 -4.80784 0
M  V30 12794 N 1268.87 3.53474 -4.12986 0
M  V30 12795 H 1272.68 1.54846 -2.498 0
M  V30 12796 H 1270.19 0.76846 -1.43068 0
M  V30 12797 H 1272.19 3.84655 -1.60768 0
M  V30 12798 H 1270.85 3.18427 -0.635174 0
M  V30 12799 H 1271.86 2.85944 -4.31806 0
M  V30 12800 H 1268.53 3.7244 -1.88666 0
M  V30 12801 H 1269.92 3.22072 -5.89677 0
M  V30 12802 N 1272.64 1.35187 0.810078 0
M  V30 12803 C 1273.89 1.28454 1.56931 0
M  V30 12804 C 1274.22 -0.141747 1.93682 0
M  V30 12805 O 1273.5 -1.09028 1.61069 0
M  V30 12806 C 1273.78 2.18771 2.86027 0
M  V30 12807 C 1273.63 3.69999 2.55774 0
M  V30 12808 C 1274.95 2.08265 3.87703 0
M  V30 12809 H 1272.07 0.467959 0.569371 0
M  V30 12810 H 1274.71 1.65556 0.932262 0
M  V30 12811 H 1272.86 1.8726 3.40391 0
M  V30 12812 H 1274.54 4.11936 2.07621 0
M  V30 12813 H 1272.78 3.90453 1.89021 0
M  V30 12814 H 1273.45 4.28577 3.47888 0
M  V30 12815 H 1275.93 2.35958 3.42729 0
M  V30 12816 H 1274.8 2.73663 4.75815 0
M  V30 12817 H 1275.06 1.06352 4.29117 0
M  V30 12818 N 1274.12 -1.03182 1.19127 0
M  V30 12819 C 1275.36 -1.78089 1.00318 0
M  V30 12820 C 1275.73 -1.86451 -0.458252 0
M  V30 12821 O 1276.93 -2.57653 -0.766061 0
M  V30 12822 C 1275.2 -3.17012 1.6504 0
M  V30 12823 S 1276.76 -4.08146 1.61129 0
M  V30 12824 H 1273.58 -0.613096 0.360048 0
M  V30 12825 H 1276.18 -1.23657 1.51424 0
M  V30 12826 H 1274.88 -3.08541 2.70612 0
M  V30 12827 H 1274.41 -3.7652 1.14001 0
M  V30 12828 H 1276.43 -4.92141 0.633408 0
M  V30 12829 N 1275.6 -0.99472 -1.22242 0
M  V30 12830 C 1276.88 -0.587481 -1.86569 0
M  V30 12831 C 1277.26 0.935174 -1.89256 0
M  V30 12832 O 1276.61 1.81787 -1.3844 0
M  V30 12833 C 1276.82 -1.21001 -3.27353 0
M  V30 12834 C 1278.16 -1.31167 -4.03832 0
M  V30 12835 O 1279.19 -1.16454 -3.36626 0
M  V30 12836 O 1278.05 -1.54731 -5.24138 0
M  V30 12837 H 1275.14 -0.199838 -0.802492 0
M  V30 12838 H 1277.69 -1.09071 -1.30006 0
M  V30 12839 H 1276.46 -2.25143 -3.20041 0
M  V30 12840 H 1276.08 -0.692479 -3.91523 0
M  V30 12841 N 1277.08 1.37613 -0.768148 0
M  V30 12842 C 1278.04 2.28653 -0.158283 0
M  V30 12843 C 1279.04 1.47862 0.631936 0
M  V30 12844 O 1280.23 1.68124 0.456055 0
M  V30 12845 C 1277.36 3.31776 0.783435 0
M  V30 12846 H 1278.56 2.84094 -0.960772 0
M  V30 12847 H 1276.11 1.46818 -0.536116 0
M  V30 12848 H 1276.84 2.81452 1.61106 0
M  V30 12849 H 1276.63 3.91488 0.219016 0
M  V30 12850 H 1278.12 3.99816 1.20568 0
M  V30 12851 N 1278.56 0.518393 1.4883 0
M  V30 12852 C 1279.78 -0.0162 2.06894 0
M  V30 12853 C 1280.2 -1.29222 1.37649 0
M  V30 12854 O 1279.56 -1.766 0.460288 0
M  V30 12855 C 1279.61 -0.255836 3.60594 0
M  V30 12856 O 1279.33 0.969612 4.27235 0
M  V30 12857 C 1280.83 -0.832117 4.3542 0
M  V30 12858 H 1278.05 0.0282877 0.670403 0
M  V30 12859 H 1280.59 0.720726 1.91379 0
M  V30 12860 H 1278.75 -0.942782 3.75753 0
M  V30 12861 H 1279.16 0.743172 5.19208 0
M  V30 12862 H 1280.64 -0.949279 5.43776 0
M  V30 12863 H 1281.11 -1.83421 3.99066 0
M  V30 12864 H 1281.72 -0.1821 4.2491 0
M  V30 12865 N 1280.03 -1.55556 0.252993 0
M  V30 12866 C 1281.27 -2.00995 -0.371513 0
M  V30 12867 C 1281.64 -1.13739 -1.54685 0
M  V30 12868 O 1282.84 -1.4866 -2.2395 0
M  V30 12869 C 1281.11 -3.49112 -0.765205 0
M  V30 12870 S 1282.67 -4.16556 -1.37938 0
M  V30 12871 H 1279.49 -0.70137 -0.116625 0
M  V30 12872 H 1282.09 -1.91973 0.369654 0
M  V30 12873 H 1280.79 -4.1028 0.0994153 0
M  V30 12874 H 1280.32 -3.62073 -1.5384 0
M  V30 12875 H 1282.34 -4.18346 -2.66835 0
M  V30 12876 N 1281.51 0.0200419 -1.57587 0
M  V30 12877 C 1282.74 0.724241 -1.94344 0
M  V30 12878 C 1283.16 1.67612 -0.853688 0
M  V30 12879 O 1282.52 1.80303 0.189873 0
M  V30 12880 C 1282.57 1.44967 -3.30177 0
M  V30 12881 O 1281.67 2.56326 -3.23064 0
M  V30 12882 H 1281.01 0.194142 -0.634984 0
M  V30 12883 H 1283.54 -0.0271756 -2.04582 0
M  V30 12884 H 1283.55 1.81758 -3.65278 0
M  V30 12885 H 1282.23 0.75161 -4.09052 0
M  V30 12886 H 1280.81 2.22011 -2.99609 0
M  V30 12887 N 1282.99 1.54862 0.292472 0
M  V30 12888 C 1284.22 1.7855 1.04534 0
M  V30 12889 C 1284.63 0.549161 1.80637 0
M  V30 12890 O 1283.99 -0.481268 1.7604 0
M  V30 12891 C 1284.04 2.99849 2.01923 0
M  V30 12892 O 1283.76 4.18706 1.28907 0
M  V30 12893 C 1285.26 3.35991 2.8918 0
M  V30 12894 H 1282.48 0.595279 0.309652 0
M  V30 12895 H 1285.03 2.01834 0.329159 0
M  V30 12896 H 1283.18 2.78749 2.69032 0
M  V30 12897 H 1283.6 4.87151 1.94383 0
M  V30 12898 H 1285.07 4.24085 3.53349 0
M  V30 12899 H 1285.55 2.54524 3.57931 0
M  V30 12900 H 1286.15 3.59281 2.27591 0
M  V30 12901 N 1284.47 -0.556076 1.47464 0
M  V30 12902 C 1285.72 -1.30955 1.53407 0
M  V30 12903 C 1286.03 -1.94559 0.201485 0
M  V30 12904 O 1287.24 -2.71144 0.138925 0
M  V30 12905 C 1285.69 -2.37476 2.70431 0
M  V30 12906 C 1285.3 -1.80057 4.10224 0
M  V30 12907 C 1287.04 -3.13997 2.85668 0
M  V30 12908 C 1284.95 -2.84365 5.18547 0
M  V30 12909 H 1283.88 -0.4924 0.571015 0
M  V30 12910 H 1286.53 -0.590459 1.73741 0
M  V30 12911 H 1284.91 -3.12304 2.43479 0
M  V30 12912 H 1286.09 -1.11593 4.47083 0
M  V30 12913 H 1284.4 -1.16116 3.99882 0
M  V30 12914 H 1287 -3.91892 3.63764 0
M  V30 12915 H 1287.34 -3.68253 1.94153 0
M  V30 12916 H 1287.88 -2.46281 3.12395 0
M  V30 12917 H 1284.62 -2.34963 6.11942 0
M  V30 12918 H 1284.14 -3.51235 4.86203 0
M  V30 12919 H 1285.81 -3.47836 5.45545 0
M  V30 12920 N 1285.95 -1.35615 -0.802897 0
M  V30 12921 C 1287.2 -1.28839 -1.55708 0
M  V30 12922 C 1287.52 0.135906 -1.94526 0
M  V30 12923 O 1286.79 1.07317 -1.6389 0
M  V30 12924 H 1285.37 -0.473906 -0.577427 0
M  V30 12925 H 1288.03 -1.69759 -0.957487 0
M  V30 12926 H 1287.12 -1.90675 -2.47082 0
M  V30 12927 N 1287.43 1.02549 -1.19673 0
M  V30 12928 C 1288.36 2.10513 -0.880879 0
M  V30 12929 C 1289.34 1.61776 0.163455 0
M  V30 12930 O 1290.52 1.8846 0.0390085 0
M  V30 12931 C 1287.65 3.37195 -0.318936 0
M  V30 12932 C 1286.69 4.04808 -1.34286 0
M  V30 12933 S 1287.53 4.49881 -2.90461 0
M  V30 12934 C 1288.68 5.79776 -2.35819 0
M  V30 12935 H 1288.92 2.3698 -1.7952 0
M  V30 12936 H 1286.45 1.15537 -1.02423 0
M  V30 12937 H 1288.41 4.105 -0.00124931 0
M  V30 12938 H 1287.07 3.08815 0.573749 0
M  V30 12939 H 1286.26 4.9592 -0.898859 0
M  V30 12940 H 1285.86 3.37688 -1.60756 0
M  V30 12941 H 1288.15 6.54501 -1.75026 0
M  V30 12942 H 1289.1 6.2896 -3.25292 0
M  V30 12943 H 1289.51 5.35611 -1.78272 0
M  V30 12944 N 1288.9 1.00119 1.21713 0
M  V30 12945 C 1289.87 0.563409 2.22167 0
M  V30 12946 C 1290.87 -0.35819 1.5676 0
M  V30 12947 O 1292.06 -0.149001 1.73562 0
M  V30 12948 C 1289.19 -0.179365 3.40428 0
M  V30 12949 H 1290.38 1.45189 2.62412 0
M  V30 12950 H 1287.93 0.789286 1.34907 0
M  V30 12951 H 1288.67 -1.08345 3.05666 0
M  V30 12952 H 1288.45 0.482471 3.8912 0
M  V30 12953 H 1289.94 -0.473537 4.14906 0
M  V30 12954 N 1290.38 -1.37203 0.775435 0
M  V30 12955 C 1291.33 -2.27584 0.137667 0
M  V30 12956 C 1292.32 -1.46281 -0.670135 0
M  V30 12957 O 1293.51 -1.688 -0.532503 0
M  V30 12958 C 1290.64 -3.3528 -0.73773 0
M  V30 12959 C 1289.72 -4.24028 0.078102 0
M  V30 12960 N 1290.11 -4.93117 1.1256 0
M  V30 12961 C 1288.41 -4.45763 -0.145295 0
M  V30 12962 C 1289.11 -5.58656 1.62107 0
M  V30 12963 N 1288.09 -5.3554 0.932622 0
M  V30 12964 H 1291.89 -2.78475 0.93961 0
M  V30 12965 H 1289.4 -1.50364 0.613544 0
M  V30 12966 H 1291.4 -3.98941 -1.21043 0
M  V30 12967 H 1290.06 -2.85944 -1.53838 0
M  V30 12968 H 1291.07 -4.95465 1.50781 0
M  V30 12969 H 1287.75 -4.07292 -0.917557 0
M  V30 12970 H 1289.14 -6.23866 2.49482 0
M  V30 12971 N 1291.86 -0.526279 -1.48553 0
M  V30 12972 C 1293.09 0.00522012 -2.06599 0
M  V30 12973 C 1293.5 1.29039 -1.38368 0
M  V30 12974 O 1292.84 1.77747 -0.463854 0
M  V30 12975 C 1292.9 0.303512 -3.58216 0
M  V30 12976 C 1292.57 -0.887635 -4.48297 0
M  V30 12977 C 1293.56 -1.78504 -4.88295 0
M  V30 12978 C 1291.25 -1.09359 -4.90251 0
M  V30 12979 C 1293.24 -2.87233 -5.69013 0
M  V30 12980 C 1290.93 -2.18402 -5.7074 0
M  V30 12981 C 1291.93 -3.07172 -6.10028 0
M  V30 12982 O 1291.62 -4.14329 -6.88902 0
M  V30 12983 H 1291.35 -0.0287033 -0.67539 0
M  V30 12984 H 1293.9 -0.730244 -1.91981 0
M  V30 12985 H 1292.13 1.0929 -3.70935 0
M  V30 12986 H 1293.82 0.776647 -3.98401 0
M  V30 12987 H 1294.59 -1.63785 -4.56508 0
M  V30 12988 H 1290.47 -0.411922 -4.59156 0
M  V30 12989 H 1294.01 -3.56549 -5.99599 0
M  V30 12990 H 1289.91 -2.33106 -6.0194 0
M  V30 12991 H 1290.67 -4.11993 -7.07251 0
M  V30 12992 N 1293.34 1.5542 -0.261239 0
M  V30 12993 C 1294.27 2.24949 0.626126 0
M  V30 12994 C 1295.25 1.23474 1.16997 0
M  V30 12995 O 1296.43 1.52161 1.20667 0
M  V30 12996 C 1293.56 2.95996 1.81669 0
M  V30 12997 C 1292.52 4.04282 1.40499 0
M  V30 12998 C 1291.84 4.62831 2.67753 0
M  V30 12999 C 1293.14 5.1923 0.56543 0
M  V30 13000 H 1294.84 2.99364 0.0463164 0
M  V30 13001 H 1292.38 1.43985 0.0208366 0
M  V30 13002 H 1294.34 3.43343 2.44323 0
M  V30 13003 H 1293.06 2.19093 2.42211 0
M  V30 13004 H 1291.72 3.57726 0.801712 0
M  V30 13005 H 1291.37 3.82611 3.26524 0
M  V30 13006 H 1291.07 5.35938 2.40925 0
M  V30 13007 H 1292.59 5.12918 3.31281 0
M  V30 13008 H 1294.01 5.62714 1.09663 0
M  V30 13009 H 1292.4 5.98814 0.392607 0
M  V30 13010 H 1293.47 4.83086 -0.419059 0
M  V30 13011 N 1294.82 -0.0116844 1.57596 0
M  V30 13012 C 1296.04 -0.71026 1.94327 0
M  V30 13013 C 1296.46 -1.67952 0.862418 0
M  V30 13014 O 1295.82 -1.818 -0.159698 0
M  V30 13015 C 1295.87 -1.45228 3.31045 0
M  V30 13016 O 1295.59 -0.52191 4.3498 0
M  V30 13017 C 1297.09 -2.24644 3.82165 0
M  V30 13018 H 1294.31 -0.198559 0.640949 0
M  V30 13019 H 1296.85 0.0359615 2.04468 0
M  V30 13020 H 1295.01 -2.15023 3.22248 0
M  V30 13021 H 1295.42 -1.04415 5.14002 0
M  V30 13022 H 1296.9 -2.72078 4.80289 0
M  V30 13023 H 1297.37 -3.06817 3.14261 0
M  V30 13024 H 1297.98 -1.59888 3.94101 0
M  V30 13025 N 1296.29 -1.55015 -0.284256 0
M  V30 13026 C 1297.54 -1.7509 -1.01733 0
M  V30 13027 C 1297.87 -0.545803 -1.86685 0
M  V30 13028 O 1297.12 0.471951 -1.89924 0
M  V30 13029 C 1297.42 -3.00246 -1.93874 0
M  V30 13030 C 1297.09 -4.33295 -1.24764 0
M  V30 13031 C 1295.75 -4.69459 -1.0565 0
M  V30 13032 C 1298.1 -5.15704 -0.754939 0
M  V30 13033 C 1295.43 -5.85596 -0.35976 0
M  V30 13034 C 1297.78 -6.32559 -0.0718473 0
M  V30 13035 C 1296.45 -6.67371 0.131104 0
M  V30 13036 H 1295.72 -0.6407 -0.372269 0
M  V30 13037 H 1298.36 -1.89282 -0.290638 0
M  V30 13038 H 1296.67 -2.80907 -2.73127 0
M  V30 13039 H 1298.37 -3.12974 -2.50696 0
M  V30 13040 H 1294.96 -4.04865 -1.4065 0
M  V30 13041 H 1299.14 -4.8825 -0.89027 0
M  V30 13042 H 1294.4 -6.11099 -0.19169 0
M  V30 13043 H 1298.57 -6.95675 0.317743 0
M  V30 13044 H 1296.2 -7.57215 0.672977 0
M  V30 13045 N 1297.77 0.548248 -1.47757 0
M  V30 13046 C 1299.05 1.3092 -1.45325 0
M  V30 13047 C 1299.43 2.1053 -0.155008 0
M  V30 13048 O 1298.78 2.11558 0.863455 0
M  V30 13049 C 1298.99 2.20614 -2.70426 0
M  V30 13050 C 1300.33 2.81345 -3.18009 0
M  V30 13051 O 1301.36 2.30911 -2.71216 0
M  V30 13052 O 1300.22 3.73036 -3.99383 0
M  V30 13053 H 1297.31 0.58996 -0.579548 0
M  V30 13054 H 1299.86 0.56641 -1.59968 0
M  V30 13055 H 1298.63 1.61449 -3.56441 0
M  V30 13056 H 1298.25 3.02173 -2.58413 0
M  V30 13057 N 1299.25 1.36039 0.795694 0
M  V30 13058 C 1300.5 1.29663 1.55023 0
M  V30 13059 C 1300.82 -0.125588 1.94595 0
M  V30 13060 O 1300.09 -1.06447 1.64456 0
M  V30 13061 H 1298.67 0.476962 0.574906 0
M  V30 13062 H 1301.33 1.70265 0.948471 0
M  V30 13063 H 1300.43 1.91982 2.46068 0
M  V30 13064 N 1300.73 -1.01913 1.20215 0
M  V30 13065 C 1301.66 -2.12282 0.97256 0
M  V30 13066 C 1302.64 -1.6982 -0.0975709 0
M  V30 13067 O 1303.82 -1.94109 0.0594307 0
M  V30 13068 C 1300.95 -3.43369 0.521085 0
M  V30 13069 C 1299.91 -3.99559 1.53417 0
M  V30 13070 C 1299.23 -5.26383 0.93942 0
M  V30 13071 C 1300.53 -4.33241 2.91718 0
M  V30 13072 H 1302.23 -2.31746 1.89563 0
M  V30 13073 H 1299.77 -1.1137 0.912841 0
M  V30 13074 H 1301.73 -4.19963 0.347713 0
M  V30 13075 H 1300.45 -3.23655 -0.437605 0
M  V30 13076 H 1299.11 -3.25069 1.69486 0
M  V30 13077 H 1298.76 -5.02993 -0.0271236 0
M  V30 13078 H 1298.46 -5.64942 1.616 0
M  V30 13079 H 1299.98 -6.05635 0.777059 0
M  V30 13080 H 1301.4 -5.00734 2.79175 0
M  V30 13081 H 1299.79 -4.82907 3.56259 0
M  V30 13082 H 1300.86 -3.42118 3.43633 0
M  V30 13083 N 1302.21 -1.00763 -1.2118 0
M  V30 13084 C 1303.15 -0.570257 -2.23644 0
M  V30 13085 C 1304.12 0.405039 -1.61086 0
M  V30 13086 O 1305.31 0.306496 -1.88322 0
M  V30 13087 C 1302.45 0.094325 -3.44971 0
M  V30 13088 C 1301.56 -0.924463 -4.21993 0
M  V30 13089 C 1300.7 -0.231869 -5.30694 0
M  V30 13090 C 1299.74 -1.23803 -5.99449 0
M  V30 13091 N 1298.87 -0.572725 -6.9976 0
M  V30 13092 H 1303.71 -1.44869 -2.60417 0
M  V30 13093 H 1301.25 -0.725369 -1.27972 0
M  V30 13094 H 1303.21 0.496689 -4.14233 0
M  V30 13095 H 1301.84 0.936457 -3.08918 0
M  V30 13096 H 1300.89 -1.44505 -3.51884 0
M  V30 13097 H 1302.2 -1.69004 -4.69296 0
M  V30 13098 H 1301.36 0.226465 -6.06277 0
M  V30 13099 H 1300.09 0.566092 -4.84403 0
M  V30 13100 H 1299.1 -1.70684 -5.22635 0
M  V30 13101 H 1300.32 -2.03711 -6.47826 0
M  V30 13102 H 1298.27 0.205531 -6.55678 0
M  V30 13103 H 1298.19 -1.27651 -7.45145 0
M  V30 13104 H 1299.46 -0.137683 -7.79378 0
M  V30 13105 N 1303.68 1.3679 -0.7827 0
M  V30 13106 C 1304.91 2.03382 -0.363207 0
M  V30 13107 C 1305.32 1.59157 1.02302 0
M  V30 13108 O 1304.67 0.773325 1.66629 0
M  V30 13109 C 1304.73 3.57889 -0.34001 0
M  V30 13110 C 1304.39 4.25289 -1.67268 0
M  V30 13111 C 1305.39 4.48647 -2.62701 0
M  V30 13112 C 1303.07 4.62899 -1.95013 0
M  V30 13113 C 1305.07 5.08686 -3.8408 0
M  V30 13114 C 1302.75 5.22657 -3.16659 0
M  V30 13115 C 1303.75 5.45489 -4.11012 0
M  V30 13116 O 1303.44 6.03995 -5.30515 0
M  V30 13117 H 1303.17 0.659452 -0.148658 0
M  V30 13118 H 1305.73 1.75885 -1.06082 0
M  V30 13119 H 1303.96 3.84477 0.414055 0
M  V30 13120 H 1305.65 4.05864 0.0539009 0
M  V30 13121 H 1306.41 4.19993 -2.42551 0
M  V30 13122 H 1302.29 4.44455 -1.22395 0
M  V30 13123 H 1305.83 5.26423 -4.57738 0
M  V30 13124 H 1301.73 5.50736 -3.3669 0
M  V30 13125 H 1302.5 6.22466 -5.31487 0
M  V30 13126 N 1305.16 0.53415 1.48272 0
M  V30 13127 C 1306.09 -0.215037 2.32508 0
M  V30 13128 C 1307.07 -0.931083 1.42355 0
M  V30 13129 O 1308.26 -0.916051 1.71237 0
M  V30 13130 C 1305.39 -1.25985 3.23643 0
M  V30 13131 C 1304.34 -0.661692 4.22854 0
M  V30 13132 C 1303.67 -1.80946 5.03153 0
M  V30 13133 C 1304.97 0.369358 5.20992 0
M  V30 13134 H 1306.66 0.488158 2.95394 0
M  V30 13135 H 1304.21 0.236206 1.4205 0
M  V30 13136 H 1306.16 -1.79195 3.81402 0
M  V30 13137 H 1304.89 -1.99268 2.58766 0
M  V30 13138 H 1303.54 -0.151082 3.66289 0
M  V30 13139 H 1303.19 -2.53077 4.34696 0
M  V30 13140 H 1302.89 -1.41513 5.70305 0
M  V30 13141 H 1304.42 -2.34526 5.63764 0
M  V30 13142 H 1305.83 -0.0758076 5.7325 0
M  V30 13143 H 1304.23 0.681301 5.9622 0
M  V30 13144 H 1305.3 1.27363 4.67875 0
M  V30 13145 N 1306.64 -1.55279 0.269478 0
M  V30 13146 C 1307.89 -1.99471 -0.348913 0
M  V30 13147 C 1308.22 -1.15784 -1.56283 0
M  V30 13148 O 1307.47 -0.214115 -1.94525 0
M  V30 13149 C 1307.77 -3.48773 -0.780535 0
M  V30 13150 C 1307.44 -4.49705 0.328113 0
M  V30 13151 C 1306.1 -4.77024 0.632544 0
M  V30 13152 C 1308.45 -5.09984 1.07544 0
M  V30 13153 C 1305.78 -5.61893 1.68798 0
M  V30 13154 C 1308.13 -5.95999 2.12057 0
M  V30 13155 C 1306.79 -6.21642 2.4314 0
M  V30 13156 H 1306.06 -0.729918 -0.127676 0
M  V30 13157 H 1308.71 -1.87651 0.382015 0
M  V30 13158 H 1307.02 -3.5804 -1.59105 0
M  V30 13159 H 1308.71 -3.80369 -1.26966 0
M  V30 13160 H 1305.3 -4.28524 0.0807131 0
M  V30 13161 H 1309.49 -4.88906 0.853506 0
M  V30 13162 H 1304.74 -5.80009 1.93389 0
M  V30 13163 H 1308.92 -6.41743 2.70442 0
M  V30 13164 H 1306.54 -6.87198 3.25059 0
M  V30 13165 N 1308.12 0.00332656 -1.576 0
M  V30 13166 C 1309.53 0.546581 -1.7852 0
M  V30 13167 C 1309.88 1.74147 -0.903722 0
M  V30 13168 O 1309.01 2.16144 -0.105314 0
M  V30 13169 C 1309.6 0.998344 -3.23757 0
M  V30 13170 C 1308.16 1.48693 -3.45785 0
M  V30 13171 C 1307.31 0.436617 -2.73841 0
M  V30 13172 H 1310.26 -0.222852 -1.57128 0
M  V30 13173 H 1310.28 1.86452 -3.31686 0
M  V30 13174 H 1309.79 0.128479 -3.87887 0
M  V30 13175 H 1307.89 2.3778 -2.86865 0
M  V30 13176 H 1308 1.51668 -4.5446 0
M  V30 13177 H 1306.37 0.897506 -2.38363 0
M  V30 13178 H 1307.15 -0.424225 -3.40669 0
M  V30 13179 N 1309.6 1.55164 0.276031 0
M  V30 13180 C 1310.84 1.7528 1.00604 0
M  V30 13181 C 1311.17 0.555256 1.86928 0
M  V30 13182 O 1310.44 -0.429917 1.91124 0
M  V30 13183 H 1309.02 0.646377 0.374441 0
M  V30 13184 H 1311.68 1.92562 0.300992 0
M  V30 13185 H 1310.77 2.65245 1.64473 0
M  V30 13186 N 1311.07 -0.540404 1.48045 0
M  V30 13187 C 1311.98 -1.67308 1.64455 0
M  V30 13188 C 1313 -1.65823 0.527152 0
M  V30 13189 O 1314.18 -1.84964 0.796881 0
M  V30 13190 C 1311.24 -3.03792 1.67068 0
M  V30 13191 C 1310.3 -3.16213 2.90358 0
M  V30 13192 C 1309.54 -4.46187 2.92837 0
M  V30 13193 O 1309.76 -5.32662 2.04029 0
M  V30 13194 O 1308.69 -4.62754 3.84892 0
M  V30 13195 H 1312.52 -1.56403 2.6033 0
M  V30 13196 H 1310.1 -0.712323 1.31325 0
M  V30 13197 H 1311.99 -3.84982 1.71368 0
M  V30 13198 H 1310.66 -3.15043 0.74363 0
M  V30 13199 H 1309.57 -2.34357 2.91595 0
M  V30 13200 H 1310.9 -3.09874 3.82412 0
M  V30 13201 N 1312.55 -1.36459 -0.788468 0
M  V30 13202 C 1313.79 -1.32124 -1.55957 0
M  V30 13203 C 1314.16 0.0981565 -1.91749 0
M  V30 13204 O 1315.36 0.266067 -2.6748 0
M  V30 13205 C 1313.63 -2.219 -2.8017 0
M  V30 13206 S 1315.19 -2.35257 -3.70405 0
M  V30 13207 H 1312.01 -0.469279 -0.534133 0
M  V30 13208 H 1314.61 -1.72039 -0.928587 0
M  V30 13209 H 1313.31 -3.23976 -2.51928 0
M  V30 13210 H 1312.84 -1.83008 -3.48241 0
M  V30 13211 H 1314.86 -1.55077 -4.71344 0
M  V30 13212 N 1314.03 1.01274 -1.20754 0
M  V30 13213 C 1314.96 2.10029 -0.917628 0
M  V30 13214 C 1315.98 1.62516 0.0961411 0
M  V30 13215 O 1317.16 1.77986 -0.135371 0
M  V30 13216 C 1314.26 3.37037 -0.354891 0
M  V30 13217 C 1313.44 4.1367 -1.42113 0
M  V30 13218 C 1312.5 5.18974 -0.869023 0
M  V30 13219 O 1311.52 5.47671 -1.55063 0
M  V30 13220 N 1312.72 5.79619 0.319631 0
M  V30 13221 H 1315.49 2.35485 -1.85383 0
M  V30 13222 H 1313.05 1.17695 -1.11173 0
M  V30 13223 H 1315.04 4.0469 0.0286895 0
M  V30 13224 H 1313.61 3.088 0.485956 0
M  V30 13225 H 1312.83 3.40931 -1.97889 0
M  V30 13226 H 1314.12 4.61649 -2.13911 0
M  V30 13227 H 1313.52 5.58646 0.89059 0
M  V30 13228 H 1312.08 6.48603 0.644807 0
M  V30 13229 N 1315.51 1.01404 1.20644 0
M  V30 13230 C 1316.74 0.719995 1.93648 0
M  V30 13231 C 1317.15 -0.722872 1.74846 0
M  V30 13232 O 1316.49 -1.50172 1.05802 0
M  V30 13233 C 1316.55 0.972637 3.46092 0
M  V30 13234 C 1316.22 2.40412 3.88653 0
M  V30 13235 C 1317.21 3.38481 3.94622 0
M  V30 13236 C 1314.9 2.74418 4.20714 0
M  V30 13237 C 1316.89 4.68619 4.32059 0
M  V30 13238 C 1314.58 4.04769 4.57826 0
M  V30 13239 C 1315.58 5.01681 4.63471 0
M  V30 13240 O 1315.27 6.297 4.99733 0
M  V30 13241 H 1315 0.263849 0.622382 0
M  V30 13242 H 1317.55 1.35741 1.54154 0
M  V30 13243 H 1315.78 0.278057 3.85699 0
M  V30 13244 H 1317.47 0.670572 4.00323 0
M  V30 13245 H 1318.24 3.13545 3.7002 0
M  V30 13246 H 1314.12 1.99675 4.15513 0
M  V30 13247 H 1317.66 5.4426 4.3638 0
M  V30 13248 H 1313.56 4.29486 4.81884 0
M  V30 13249 H 1314.32 6.3395 5.17735 0
M  V30 13250 N 1316.99 -1.36373 0.789944 0
M  V30 13251 C 1318.23 -1.99523 0.363119 0
M  V30 13252 C 1318.57 -1.6255 -1.0626 0
M  V30 13253 O 1317.84 -0.880551 -1.73426 0
M  V30 13254 C 1318.12 -3.56215 0.527526 0
M  V30 13255 C 1317.98 -4.0304 1.99697 0
M  V30 13256 C 1319.3 -4.40063 -0.0571079 0
M  V30 13257 H 1316.42 -0.724824 0.133412 0
M  V30 13258 H 1319.06 -1.61778 0.996381 0
M  V30 13259 H 1317.21 -3.88498 -0.0115636 0
M  V30 13260 H 1318.88 -3.81241 2.59717 0
M  V30 13261 H 1317.12 -3.54561 2.49939 0
M  V30 13262 H 1317.79 -5.12001 2.06297 0
M  V30 13263 H 1320.27 -4.14143 0.403082 0
M  V30 13264 H 1319.15 -5.4883 0.0879494 0
M  V30 13265 H 1319.41 -4.26901 -1.14926 0
M  V30 13266 N 1318.47 -0.542005 -1.47987 0
M  V30 13267 C 1319.4 0.202703 -2.32618 0
M  V30 13268 C 1320.38 0.923521 -1.42846 0
M  V30 13269 O 1321.56 0.906957 -1.7172 0
M  V30 13270 C 1318.69 1.24267 -3.24307 0
M  V30 13271 C 1317.65 0.639257 -4.23199 0
M  V30 13272 C 1316.97 1.78275 -5.04105 0
M  V30 13273 C 1318.27 -0.396982 -5.20789 0
M  V30 13274 H 1319.97 -0.503817 -2.95131 0
M  V30 13275 H 1317.51 -0.243736 -1.41922 0
M  V30 13276 H 1319.46 1.7717 -3.82347 0
M  V30 13277 H 1318.19 1.97893 -2.59819 0
M  V30 13278 H 1316.85 0.131655 -3.66364 0
M  V30 13279 H 1316.5 2.50768 -4.36032 0
M  V30 13280 H 1316.2 1.38487 -5.71047 0
M  V30 13281 H 1317.72 2.31533 -5.65 0
M  V30 13282 H 1319.13 0.0454057 -5.73282 0
M  V30 13283 H 1317.53 -0.712911 -5.9585 0
M  V30 13284 H 1318.6 -1.29843 -4.67193 0
M  V30 13285 N 1319.94 1.55134 -0.277709 0
M  V30 13286 C 1321.19 1.99949 0.338831 0
M  V30 13287 C 1321.52 1.16587 1.5531 0
M  V30 13288 O 1320.8 0.236572 1.93056 0
M  V30 13289 C 1321.08 3.5286 0.718457 0
M  V30 13290 C 1320.93 4.46975 -0.503332 0
M  V30 13291 C 1322.25 4.11754 1.55392 0
M  V30 13292 H 1319.37 0.726885 0.121682 0
M  V30 13293 H 1322.01 1.86055 -0.385171 0
M  V30 13294 H 1320.16 3.64831 1.33531 0
M  V30 13295 H 1321.84 4.46944 -1.14188 0
M  V30 13296 H 1320.08 4.18528 -1.14092 0
M  V30 13297 H 1320.75 5.51659 -0.193912 0
M  V30 13298 H 1323.23 4.03075 1.03293 0
M  V30 13299 H 1322.1 5.1895 1.78835 0
M  V30 13300 H 1322.36 3.62147 2.53578 0
M  V30 13301 N 1321.42 0.00503138 1.57599 0
M  V30 13302 C 1322.35 -1.01302 2.05598 0
M  V30 13303 C 1323.37 -1.30388 0.974829 0
M  V30 13304 O 1324.56 -1.27275 1.25153 0
M  V30 13305 C 1321.66 -2.34654 2.44522 0
M  V30 13306 C 1320.83 -2.24436 3.7543 0
M  V30 13307 C 1319.89 -3.40517 4.01166 0
M  V30 13308 O 1318.91 -3.18479 4.71762 0
M  V30 13309 N 1320.12 -4.63532 3.49454 0
M  V30 13310 H 1322.88 -0.603656 2.93558 0
M  V30 13311 H 1320.44 -0.182248 1.60871 0
M  V30 13312 H 1322.43 -3.11093 2.5885 0
M  V30 13313 H 1321 -2.67315 1.62055 0
M  V30 13314 H 1320.22 -1.32875 3.71131 0
M  V30 13315 H 1321.51 -2.14786 4.61242 0
M  V30 13316 H 1320.91 -4.84334 2.92296 0
M  V30 13317 H 1319.47 -5.37221 3.69103 0
M  V30 13318 N 1322.9 -1.55308 -0.267798 0
M  V30 13319 C 1324.18 -1.66881 -1.02029 0
M  V30 13320 C 1324.56 -0.538708 -2.04111 0
M  V30 13321 O 1323.9 0.460575 -2.2381 0
M  V30 13322 C 1324.11 -3.06318 -1.67243 0
M  V30 13323 C 1325.46 -3.64237 -2.18212 0
M  V30 13324 O 1326.49 -3.08984 -1.77221 0
M  V30 13325 O 1325.35 -4.61055 -2.93413 0
M  V30 13326 H 1322.44 -0.677967 -0.473593 0
M  V30 13327 H 1324.99 -1.67646 -0.263242 0
M  V30 13328 H 1323.76 -3.80015 -0.932985 0
M  V30 13329 H 1323.38 -3.09475 -2.49622 0
M  V30 13330 N 1324.38 0.532545 -1.4833 0
M  V30 13331 C 1325.61 1.31141 -1.59642 0
M  V30 13332 C 1326.02 1.87476 -0.254835 0
M  V30 13333 O 1325.36 1.66985 0.765622 0
M  V30 13334 C 1325.42 2.50182 -2.58165 0
M  V30 13335 C 1325.08 2.14953 -4.03292 0
M  V30 13336 C 1326.08 1.70777 -4.91051 0
M  V30 13337 C 1323.77 2.25555 -4.4881 0
M  V30 13338 C 1325.76 1.37665 -6.22356 0
M  V30 13339 C 1323.45 1.92055 -5.80136 0
M  V30 13340 C 1324.45 1.48181 -6.66732 0
M  V30 13341 O 1324.13 1.15119 -7.95615 0
M  V30 13342 H 1323.87 0.405164 -0.541127 0
M  V30 13343 H 1326.42 0.649423 -1.94863 0
M  V30 13344 H 1324.65 3.19353 -2.1806 0
M  V30 13345 H 1326.34 3.12246 -2.5934 0
M  V30 13346 H 1327.1 1.62059 -4.57124 0
M  V30 13347 H 1322.98 2.5866 -3.81597 0
M  V30 13348 H 1326.53 1.03348 -6.89902 0
M  V30 13349 H 1322.42 2.00413 -6.136 0
M  V30 13350 H 1323.19 1.28539 -8.08344 0
M  V30 13351 N 1325.86 1.36875 0.78122 0
M  V30 13352 C 1327.1 1.32949 1.55254 0
M  V30 13353 C 1327.46 -0.0879862 1.91798 0
M  V30 13354 O 1328.66 -0.251878 2.67617 0
M  V30 13355 C 1326.93 2.23382 2.78989 0
M  V30 13356 S 1328.49 2.37218 3.69152 0
M  V30 13357 H 1325.31 0.472105 0.531637 0
M  V30 13358 H 1327.91 1.72529 0.91945 0
M  V30 13359 H 1326.61 3.25307 2.50207 0
M  V30 13360 H 1326.15 1.84852 3.47266 0
M  V30 13361 H 1328.16 1.57575 4.70515 0
M  V30 13362 N 1327.33 -1.00632 1.21289 0
M  V30 13363 C 1328.58 -1.74044 1.02728 0
M  V30 13364 C 1328.9 -1.89963 -0.440351 0
M  V30 13365 O 1328.17 -1.44958 -1.31772 0
M  V30 13366 H 1326.75 -0.644813 0.377127 0
M  V30 13367 H 1329.41 -1.21272 1.52575 0
M  V30 13368 H 1328.51 -2.74011 1.49413 0
M  V30 13369 N 1328.81 -1.02043 -1.20104 0
M  V30 13370 C 1330.04 -0.731142 -1.94085 0
M  V30 13371 C 1330.46 0.702467 -1.74491 0
M  V30 13372 O 1329.82 1.48387 -1.04168 0
M  V30 13373 C 1329.87 -1.07691 -3.44144 0
M  V30 13374 O 1328.97 -0.190751 -4.11959 0
M  V30 13375 H 1328.31 -0.270917 -0.606218 0
M  V30 13376 H 1330.84 -1.36483 -1.52426 0
M  V30 13377 H 1330.85 -1.03023 -3.94779 0
M  V30 13378 H 1329.53 -2.1214 -3.57728 0
M  V30 13379 H 1328.1 -0.29529 -3.71729 0
M  V30 13380 N 1330.29 1.35952 -0.797165 0
M  V30 13381 C 1331.24 2.31831 -0.188958 0
M  V30 13382 C 1332.23 1.56181 0.656042 0
M  V30 13383 O 1333.44 1.71383 0.550259 0
M  V30 13384 H 1329.81 0.750807 -0.0423354 0
M  V30 13385 H 1331.78 2.80683 -1.0129 0
M  V30 13386 C 1330.53 3.41464 0.655547 0
M  V30 13387 H 1329.86 3.99797 0.0146854 0
M  V30 13388 H 1331.3 4.10853 1.04765 0
M  V30 13389 C 1329.76 2.83696 1.81709 0
M  V30 13390 O 1330.29 2.76484 2.91409 0
M  V30 13391 N 1328.49 2.40876 1.62564 0
M  V30 13392 H 1328.04 2.46941 0.733337 0
M  V30 13393 H 1328 2.02572 2.40441 0
M  V30 13394 N 1331.77 0.549846 1.47697 0
M  V30 13395 C 1333.18 0.11453 1.86348 0
M  V30 13396 C 1333.53 -1.31368 1.45729 0
M  V30 13397 O 1332.66 -1.98707 0.856989 0
M  V30 13398 C 1333.25 0.201072 3.38203 0
M  V30 13399 C 1331.81 -0.179162 3.75973 0
M  V30 13400 C 1330.96 0.551951 2.71751 0
M  V30 13401 H 1333.91 0.759989 1.39319 0
M  V30 13402 H 1333.93 -0.582216 3.76019 0
M  V30 13403 H 1333.44 1.24065 3.67736 0
M  V30 13404 H 1331.54 -1.22013 3.52056 0
M  V30 13405 H 1331.65 0.174273 4.78783 0
M  V30 13406 H 1330.02 -0.00411819 2.547 0
M  V30 13407 H 1330.8 1.59254 3.04127 0
M  V30 13408 N 1333.25 -1.54984 0.285932 0
M  V30 13409 C 1334.49 -1.99436 -0.32709 0
M  V30 13410 C 1334.82 -1.17582 -1.55562 0
M  V30 13411 O 1334.09 -0.268002 -1.94058 0
M  V30 13412 H 1332.67 -0.736662 -0.123846 0
M  V30 13413 H 1335.33 -1.90881 0.393774 0
M  V30 13414 H 1334.42 -3.0609 -0.609523 0
M  V30 13415 N 1334.72 -0.0133892 -1.57594 0
M  V30 13416 C 1335.95 0.679255 -1.95432 0
M  V30 13417 C 1336.37 1.66558 -0.889028 0
M  V30 13418 O 1335.72 1.82031 0.130755 0
M  V30 13419 C 1335.78 1.39943 -3.33314 0
M  V30 13420 O 1335.5 0.452643 -4.35755 0
M  V30 13421 C 1337 2.18535 -3.85691 0
M  V30 13422 H 1334.22 0.188337 -0.644026 0
M  V30 13423 H 1336.76 -0.0684861 -2.04385 0
M  V30 13424 H 1334.92 2.0987 -3.25628 0
M  V30 13425 H 1335.33 0.962243 -5.15598 0
M  V30 13426 H 1336.8 2.64403 -4.84557 0
M  V30 13427 H 1337.28 3.01779 -3.19102 0
M  V30 13428 H 1337.89 1.53598 -3.96595 0
M  V30 13429 N 1336.2 1.55448 0.259558 0
M  V30 13430 C 1337.45 1.76686 0.98935 0
M  V30 13431 C 1337.78 0.575434 1.85793 0
M  V30 13432 O 1337.03 -0.441676 1.90651 0
M  V30 13433 C 1337.33 3.03292 1.89073 0
M  V30 13434 C 1337 4.35225 1.17855 0
M  V30 13435 C 1335.66 4.7108 0.981675 0
M  V30 13436 C 1338.01 5.16839 0.6728 0
M  V30 13437 C 1335.34 5.86094 0.266551 0
M  V30 13438 C 1337.69 6.32593 -0.0287965 0
M  V30 13439 C 1336.36 6.67078 -0.23726 0
M  V30 13440 H 1335.63 0.646542 0.362029 0
M  V30 13441 H 1338.27 1.8972 0.260488 0
M  V30 13442 H 1336.58 2.85217 2.68624 0
M  V30 13443 H 1338.27 3.16923 2.45685 0
M  V30 13444 H 1334.86 4.07051 1.34192 0
M  V30 13445 H 1339.05 4.89604 0.812481 0
M  V30 13446 H 1334.3 6.11327 0.0944447 0
M  V30 13447 H 1338.48 6.95081 -0.428378 0
M  V30 13448 H 1336.11 7.56049 -0.793358 0
M  V30 13449 N 1337.68 -0.524672 1.4861 0
M  V30 13450 C 1339.1 -0.853703 1.34848 0
M  V30 13451 C 1339.3 -1.98194 0.363529 0
M  V30 13452 O 1338.35 -2.51597 -0.213348 0
M  V30 13453 C 1339.67 -1.21622 2.75006 0
M  V30 13454 C 1341.21 -1.3258 2.83534 0
M  V30 13455 C 1341.69 -1.72172 4.24406 0
M  V30 13456 N 1343.18 -1.79265 4.27105 0
M  V30 13457 C 1343.91 -2.11296 5.33049 0
M  V30 13458 N 1343.41 -2.41714 6.49266 0
M  V30 13459 N 1345.2 -2.12347 5.20447 0
M  V30 13460 H 1337.35 0.219671 2.11261 0
M  V30 13461 H 1339.62 0.0356444 0.94733 0
M  V30 13462 H 1339.32 -0.460776 3.48669 0
M  V30 13463 H 1339.2 -2.16516 3.0887 0
M  V30 13464 H 1341.58 -2.072 2.10124 0
M  V30 13465 H 1341.67 -0.357943 2.53283 0
M  V30 13466 H 1341.31 -0.981108 4.98334 0
M  V30 13467 H 1341.24 -2.70017 4.52104 0
M  V30 13468 H 1343.73 -1.58013 3.43279 0
M  V30 13469 H 1344.04 -2.65276 7.25843 0
M  V30 13470 H 1342.39 -2.39222 6.52532 0
M  V30 13471 H 1345.58 -1.88044 4.28669 0
M  V30 13472 H 1345.75 -2.36978 6.03113 0
M  V30 13473 N 1339.16 -1.37287 -0.77395 0
M  V30 13474 C 1340.41 -1.31698 -1.52769 0
M  V30 13475 C 1340.72 0.0968585 -1.9536 0
M  V30 13476 O 1341.93 0.275205 -2.70102 0
M  V30 13477 C 1340.38 -2.31154 -2.75854 0
M  V30 13478 C 1339.99 -3.78055 -2.40371 0
M  V30 13479 C 1341.73 -2.34572 -3.53803 0
M  V30 13480 C 1339.64 -4.69248 -3.59945 0
M  V30 13481 H 1338.57 -0.489456 -0.573541 0
M  V30 13482 H 1341.22 -1.62735 -0.84791 0
M  V30 13483 H 1339.6 -1.93132 -3.45711 0
M  V30 13484 H 1340.78 -4.24902 -1.78312 0
M  V30 13485 H 1339.09 -3.77562 -1.75602 0
M  V30 13486 H 1341.69 -2.99908 -4.42673 0
M  V30 13487 H 1342.03 -1.35868 -3.93504 0
M  V30 13488 H 1342.57 -2.7129 -2.90941 0
M  V30 13489 H 1339.31 -5.69072 -3.25327 0
M  V30 13490 H 1338.83 -4.27108 -4.21117 0
M  V30 13491 H 1340.5 -4.86275 -4.26785 0
M  V30 13492 N 1340.64 0.999871 -1.21821 0
M  V30 13493 C 1341.57 2.10708 -1.00621 0
M  V30 13494 C 1342.55 1.69954 0.0705417 0
M  V30 13495 O 1343.73 1.9399 -0.0903042 0
M  V30 13496 C 1340.86 3.42496 -0.575646 0
M  V30 13497 C 1339.82 3.97068 -1.59754 0
M  V30 13498 C 1339.14 5.24822 -1.02304 0
M  V30 13499 C 1340.44 4.28545 -2.98574 0
M  V30 13500 H 1342.14 2.28701 -1.93226 0
M  V30 13501 H 1339.68 1.09903 -0.930443 0
M  V30 13502 H 1341.64 4.19357 -0.414481 0
M  V30 13503 H 1340.36 3.2431 0.386059 0
M  V30 13504 H 1339.02 3.22332 -1.74636 0
M  V30 13505 H 1338.67 5.02972 -0.0529016 0
M  V30 13506 H 1338.37 5.62299 -1.70567 0
M  V30 13507 H 1339.89 6.04322 -0.873312 0
M  V30 13508 H 1341.3 4.96229 -2.87106 0
M  V30 13509 H 1339.7 4.77178 -3.63897 0
M  V30 13510 H 1340.77 3.36607 -3.49032 0
M  V30 13511 N 1342.11 1.02678 1.19562 0
M  V30 13512 C 1343.36 0.723086 1.89471 0
M  V30 13513 C 1343.69 -0.746269 1.79289 0
M  V30 13514 O 1342.97 -1.54322 1.18384 0
M  V30 13515 C 1343.25 1.17224 3.40486 0
M  V30 13516 C 1343.1 2.70266 3.5955 0
M  V30 13517 C 1344.42 0.751397 4.33638 0
M  V30 13518 H 1341.54 0.264155 0.688034 0
M  V30 13519 H 1344.18 1.27633 1.40747 0
M  V30 13520 H 1342.33 0.701544 3.82113 0
M  V30 13521 H 1344.01 3.25266 3.27108 0
M  V30 13522 H 1342.25 3.10758 3.02675 0
M  V30 13523 H 1342.92 2.96748 4.65451 0
M  V30 13524 H 1345.4 1.15621 3.99714 0
M  V30 13525 H 1344.27 1.09358 5.37896 0
M  V30 13526 H 1344.53 -0.346367 4.40741 0
M  V30 13527 N 1343.59 -1.35528 0.804364 0
M  V30 13528 C 1344.84 -1.98439 0.382934 0
M  V30 13529 C 1345.16 -1.64132 -1.05289 0
M  V30 13530 O 1344.43 -0.922693 -1.7281 0
M  V30 13531 H 1343.01 -0.734028 0.138605 0
M  V30 13532 H 1345.67 -1.65478 1.02971 0
M  V30 13533 H 1344.77 -3.08279 0.486846 0
M  V30 13534 N 1345.07 -0.557671 -1.47404 0
M  V30 13535 C 1346.02 0.202834 -2.31714 0
M  V30 13536 C 1347.01 0.908873 -1.42954 0
M  V30 13537 O 1348.22 0.830106 -1.59716 0
M  V30 13538 H 1344.59 0.0842824 -0.747262 0
M  V30 13539 H 1346.57 -0.527431 -2.93702 0
M  V30 13540 C 1345.31 1.21937 -3.25617 0
M  V30 13541 H 1344.64 0.685506 -3.93879 0
M  V30 13542 H 1346.08 1.72237 -3.87441 0
M  V30 13543 C 1344.54 2.26748 -2.49173 0
M  V30 13544 O 1345.07 3.33681 -2.23651 0
M  V30 13545 N 1343.27 2.00687 -2.10174 0
M  V30 13546 H 1342.82 1.13741 -2.3113 0
M  V30 13547 H 1342.78 2.71031 -1.59342 0
M  V30 13548 N 1346.55 1.54831 -0.294147 0
M  V30 13549 C 1347.5 2.23263 0.58499 0
M  V30 13550 C 1348.47 1.21278 1.13494 0
M  V30 13551 O 1349.65 1.49878 1.18073 0
M  V30 13552 C 1346.79 2.97185 1.75429 0
M  V30 13553 C 1345.9 4.1393 1.23638 0
M  V30 13554 C 1345.04 4.7545 2.36899 0
M  V30 13555 C 1344.08 5.84352 1.82207 0
M  V30 13556 N 1343.22 6.39855 2.89015 0
M  V30 13557 H 1348.06 2.98 -0.00519329 0
M  V30 13558 H 1345.59 1.47093 -0.0143313 0
M  V30 13559 H 1347.55 3.38271 2.4419 0
M  V30 13560 H 1346.18 2.24837 2.3162 0
M  V30 13561 H 1345.23 3.77832 0.441247 0
M  V30 13562 H 1346.54 4.92409 0.795946 0
M  V30 13563 H 1345.7 5.19353 3.1362 0
M  V30 13564 H 1344.44 3.96288 2.84266 0
M  V30 13565 H 1343.44 5.39879 1.03974 0
M  V30 13566 H 1344.67 6.65393 1.35753 0
M  V30 13567 H 1342.61 5.6358 3.35729 0
M  V30 13568 H 1342.53 7.13661 2.49447 0
M  V30 13569 H 1343.8 6.88417 3.65654 0
M  V30 13570 N 1348.03 0.0217466 1.57585 0
M  V30 13571 C 1349.28 -0.657187 1.91116 0
M  V30 13572 C 1349.6 -1.7309 0.898039 0
M  V30 13573 O 1348.87 -1.95803 -0.0615116 0
M  V30 13574 H 1347.45 -0.245732 0.705425 0
M  V30 13575 H 1350.11 0.0678096 1.94782 0
M  V30 13576 H 1349.2 -1.11462 2.91518 0
M  V30 13577 N 1349.51 -1.55583 -0.251311 0
M  V30 13578 C 1350.75 -1.7897 -0.987372 0
M  V30 13579 C 1351.11 -0.590559 -1.82692 0
M  V30 13580 O 1352.31 -0.703109 -2.59441 0
M  V30 13581 C 1350.58 -3.07069 -1.82876 0
M  V30 13582 S 1352.14 -3.51659 -2.62452 0
M  V30 13583 H 1348.96 -0.628624 -0.332194 0
M  V30 13584 H 1351.56 -1.93821 -0.255653 0
M  V30 13585 H 1350.26 -3.92415 -1.20161 0
M  V30 13586 H 1349.8 -2.94943 -2.60331 0
M  V30 13587 H 1351.81 -3.12644 -3.85316 0
M  V30 13588 N 1350.98 0.516783 -1.48886 0
M  V30 13589 C 1352.21 1.30103 -1.61518 0
M  V30 13590 C 1352.63 1.85996 -0.28055 0
M  V30 13591 O 1351.99 1.65075 0.749671 0
M  V30 13592 C 1352.04 2.41837 -2.67483 0
M  V30 13593 O 1351.14 3.45249 -2.25559 0
M  V30 13594 H 1350.48 0.384774 -0.541152 0
M  V30 13595 H 1353.01 0.620424 -1.94966 0
M  V30 13596 H 1353.02 2.87832 -2.89165 0
M  V30 13597 H 1351.7 2.00519 -3.64369 0
M  V30 13598 H 1350.28 3.05281 -2.14144 0
M  V30 13599 N 1352.46 1.37696 0.766659 0
M  V30 13600 C 1353.41 1.30383 1.87041 0
M  V30 13601 C 1354.4 0.190643 1.59767 0
M  V30 13602 O 1355.59 0.425485 1.7181 0
M  V30 13603 C 1352.72 1.11817 3.2458 0
M  V30 13604 C 1351.8 2.27701 3.57789 0
M  V30 13605 N 1352.19 3.53108 3.62144 0
M  V30 13606 C 1350.49 2.19967 3.87983 0
M  V30 13607 C 1351.19 4.29555 3.92247 0
M  V30 13608 N 1350.17 3.58754 4.08408 0
M  V30 13609 H 1353.97 2.25348 1.88668 0
M  V30 13610 H 1351.48 1.30741 0.963362 0
M  V30 13611 H 1353.48 1.04663 4.03548 0
M  V30 13612 H 1352.14 0.177731 3.24213 0
M  V30 13613 H 1353.15 3.86949 3.44225 0
M  V30 13614 H 1349.83 1.34009 3.95408 0
M  V30 13615 H 1351.22 5.38112 4.0235 0
M  V30 13616 N 1353.94 -0.993397 1.22349 0
M  V30 13617 C 1355.35 -1.54739 1.04465 0
M  V30 13618 C 1355.7 -1.92243 -0.392057 0
M  V30 13619 O 1354.83 -1.74707 -1.27697 0
M  V30 13620 C 1355.42 -2.81179 1.89007 0
M  V30 13621 C 1353.98 -3.33023 1.75421 0
M  V30 13622 C 1353.13 -2.06114 1.85505 0
M  V30 13623 H 1356.08 -0.814539 1.36202 0
M  V30 13624 H 1356.1 -3.53523 1.40718 0
M  V30 13625 H 1355.61 -2.53851 2.93566 0
M  V30 13626 H 1353.71 -3.6526 0.735935 0
M  V30 13627 H 1353.83 -4.03659 2.58062 0
M  V30 13628 H 1352.19 -2.19651 1.2894 0
M  V30 13629 H 1352.97 -1.81184 2.91594 0
M  V30 13630 N 1355.42 -1.03311 -1.19015 0
M  V30 13631 C 1356.64 -0.751686 -1.93299 0
M  V30 13632 C 1357.07 0.68392 -1.75226 0
M  V30 13633 O 1356.43 1.47274 -1.05736 0
M  V30 13634 C 1356.47 -1.11335 -3.42982 0
M  V30 13635 O 1355.58 -0.234434 -4.11733 0
M  V30 13636 H 1354.92 -0.277331 -0.60331 0
M  V30 13637 H 1357.45 -1.38092 -1.5097 0
M  V30 13638 H 1357.46 -1.07204 -3.93664 0
M  V30 13639 H 1356.13 -2.15922 -3.55458 0
M  V30 13640 H 1354.71 -0.3347 -3.71395 0
M  V30 13641 N 1356.9 1.35099 -0.81154 0
M  V30 13642 C 1358.14 1.9892 -0.394815 0
M  V30 13643 C 1358.47 1.6422 1.0366 0
M  V30 13644 O 1357.75 0.908031 1.72003 0
M  V30 13645 C 1358.03 3.55331 -0.58413 0
M  V30 13646 C 1357.89 3.99812 -2.06084 0
M  V30 13647 C 1359.2 4.40098 -0.0129096 0
M  V30 13648 H 1356.32 0.72261 -0.144926 0
M  V30 13649 H 1358.97 1.60173 -1.02199 0
M  V30 13650 H 1357.12 3.88468 -0.0502446 0
M  V30 13651 H 1358.79 3.77061 -2.65749 0
M  V30 13652 H 1357.03 3.50539 -2.55548 0
M  V30 13653 H 1357.7 5.08655 -2.14416 0
M  V30 13654 H 1360.18 4.13449 -0.468917 0
M  V30 13655 H 1359.05 5.4862 -0.175252 0
M  V30 13656 H 1359.31 4.28675 1.0812 0
M  V30 13657 N 1358.37 0.56548 1.47106 0
M  V30 13658 C 1359.32 -0.177564 2.30116 0
M  V30 13659 C 1360.29 -0.900534 1.39569 0
M  V30 13660 O 1361.48 -0.894603 1.68527 0
M  V30 13661 C 1358.62 -1.19633 3.237 0
M  V30 13662 C 1357.73 -0.47858 4.29341 0
M  V30 13663 C 1356.86 -1.48336 5.10068 0
M  V30 13664 C 1355.9 -0.751049 6.07475 0
M  V30 13665 N 1355.04 -1.70306 6.81132 0
M  V30 13666 H 1359.88 0.536409 2.93132 0
M  V30 13667 H 1357.42 0.276352 1.44481 0
M  V30 13668 H 1359.37 -1.79967 3.76388 0
M  V30 13669 H 1358 -1.87823 2.6253 0
M  V30 13670 H 1357.06 0.239454 3.79646 0
M  V30 13671 H 1358.37 0.0947147 4.9871 0
M  V30 13672 H 1357.52 -2.16 5.66947 0
M  V30 13673 H 1356.26 -2.09058 4.4062 0
M  V30 13674 H 1355.27 -0.0605336 5.49767 0
M  V30 13675 H 1356.49 -0.14946 6.78936 0
M  V30 13676 H 1354.44 -2.2987 6.14407 0
M  V30 13677 H 1354.35 -1.18213 7.46701 0
M  V30 13678 H 1355.62 -2.37058 7.42579 0
M  V30 13679 N 1359.85 -1.54672 0.302354 0
M  V30 13680 C 1361.09 -2.02076 -0.30738 0
M  V30 13681 C 1361.46 -1.18603 -1.50988 0
M  V30 13682 O 1362.66 -1.5571 -2.19107 0
M  V30 13683 C 1360.93 -3.5137 -0.65375 0
M  V30 13684 S 1362.49 -4.20733 -1.24615 0
M  V30 13685 H 1359.31 -0.704725 -0.0942521 0
M  V30 13686 H 1361.91 -1.907 0.430542 0
M  V30 13687 H 1360.61 -4.09756 0.229892 0
M  V30 13688 H 1360.14 -3.66784 -1.42243 0
M  V30 13689 H 1362.16 -4.26624 -2.5339 0
M  V30 13690 N 1361.33 -0.0301034 -1.57571 0
M  V30 13691 C 1362.28 0.951421 -2.10277 0
M  V30 13692 C 1363.25 1.3224 -1.00508 0
M  V30 13693 O 1364.43 1.41554 -1.27934 0
M  V30 13694 C 1361.57 2.2282 -2.63525 0
M  V30 13695 C 1360.69 1.91359 -3.87306 0
M  V30 13696 C 1359.82 3.13339 -4.28943 0
M  V30 13697 C 1358.86 2.77701 -5.4548 0
M  V30 13698 N 1358 3.9231 -5.82269 0
M  V30 13699 H 1362.84 0.495049 -2.93859 0
M  V30 13700 H 1360.37 0.232756 -1.45247 0
M  V30 13701 H 1362.33 2.97502 -2.92487 0
M  V30 13702 H 1360.96 2.66072 -1.82772 0
M  V30 13703 H 1360.01 1.06915 -3.65066 0
M  V30 13704 H 1361.33 1.61112 -4.72064 0
M  V30 13705 H 1360.48 3.9634 -4.59347 0
M  V30 13706 H 1359.22 3.46747 -3.42954 0
M  V30 13707 H 1358.22 1.93113 -5.14769 0
M  V30 13708 H 1359.45 2.45508 -6.33169 0
M  V30 13709 H 1357.39 4.25559 -4.99235 0
M  V30 13710 H 1357.31 3.65691 -6.61669 0
M  V30 13711 H 1358.58 4.76012 -6.17279 0
M  V30 13712 N 1362.81 1.55714 0.243056 0
M  V30 13713 C 1363.76 1.90638 1.30099 0
M  V30 13714 C 1364.73 0.761049 1.47639 0
M  V30 13715 O 1365.91 1.01505 1.61559 0
M  V30 13716 C 1363.05 2.20985 2.65065 0
M  V30 13717 C 1362.16 3.48343 2.55501 0
M  V30 13718 C 1361.3 3.68241 3.82847 0
M  V30 13719 C 1360.34 4.89187 3.67916 0
M  V30 13720 N 1359.47 5.05586 4.87162 0
M  V30 13721 H 1364.31 2.80857 0.996155 0
M  V30 13722 H 1361.85 1.39027 0.480619 0
M  V30 13723 H 1363.81 2.36585 3.43632 0
M  V30 13724 H 1362.44 1.33966 2.93689 0
M  V30 13725 H 1361.49 3.41054 1.68483 0
M  V30 13726 H 1362.8 4.37057 2.4038 0
M  V30 13727 H 1361.96 3.83822 4.69857 0
M  V30 13728 H 1360.7 2.77768 4.00869 0
M  V30 13729 H 1359.7 4.7358 2.79289 0
M  V30 13730 H 1360.93 5.81124 3.51385 0
M  V30 13731 H 1358.87 4.18051 5.05538 0
M  V30 13732 H 1358.79 5.88395 4.74686 0
M  V30 13733 H 1360.06 5.25582 5.7566 0
M  V30 13734 N 1364.29 -0.50888 1.49158 0
M  V30 13735 C 1365.7 -0.839353 1.35746 0
M  V30 13736 C 1365.9 -1.97797 0.38453 0
M  V30 13737 O 1364.96 -2.51809 -0.186651 0
M  V30 13738 C 1366.27 -1.18698 2.76281 0
M  V30 13739 C 1367.82 -1.29565 2.84924 0
M  V30 13740 C 1368.29 -1.67661 4.26209 0
M  V30 13741 N 1369.79 -1.74725 4.28982 0
M  V30 13742 C 1370.52 -2.05631 5.3526 0
M  V30 13743 N 1370.02 -2.34814 6.51793 0
M  V30 13744 N 1371.81 -2.06815 5.2267 0
M  V30 13745 H 1363.96 0.242065 2.11016 0
M  V30 13746 H 1366.22 0.0456901 0.946898 0
M  V30 13747 H 1365.93 -0.423769 3.49138 0
M  V30 13748 H 1365.8 -2.13227 3.11149 0
M  V30 13749 H 1368.19 -2.0496 2.1231 0
M  V30 13750 H 1368.27 -0.331059 2.53649 0
M  V30 13751 H 1367.92 -0.928198 4.99346 0
M  V30 13752 H 1367.85 -2.65207 4.54943 0
M  V30 13753 H 1370.34 -1.54364 3.44935 0
M  V30 13754 H 1370.65 -2.57562 7.28616 0
M  V30 13755 H 1368.99 -2.32288 6.55032 0
M  V30 13756 H 1372.19 -1.83487 4.30639 0
M  V30 13757 H 1372.36 -2.30568 6.05593 0
M  V30 13758 N 1365.76 -1.381 -0.759346 0
M  V30 13759 C 1367.01 -1.3419 -1.52055 0
M  V30 13760 C 1367.34 0.0697657 -1.94075 0
M  V30 13761 O 1366.62 1.02975 -1.65004 0
M  V30 13762 C 1366.9 -2.29236 -2.7771 0
M  V30 13763 C 1366.75 -3.79237 -2.41866 0
M  V30 13764 C 1368.07 -2.22511 -3.79706 0
M  V30 13765 H 1365.19 -0.488768 -0.551611 0
M  V30 13766 H 1367.83 -1.68902 -0.870174 0
M  V30 13767 H 1365.98 -1.99764 -3.33206 0
M  V30 13768 H 1367.66 -4.19358 -1.92189 0
M  V30 13769 H 1365.9 -3.97199 -1.74399 0
M  V30 13770 H 1366.57 -4.41193 -3.31742 0
M  V30 13771 H 1369.05 -2.48516 -3.33735 0
M  V30 13772 H 1367.92 -2.91134 -4.6533 0
M  V30 13773 H 1368.18 -1.22206 -4.24874 0
M  V30 13774 N 1367.24 0.986894 -1.22875 0
M  V30 13775 C 1368.47 1.76266 -1.08342 0
M  V30 13776 C 1368.89 1.85226 0.365602 0
M  V30 13777 O 1368.24 1.32675 1.25314 0
M  V30 13778 C 1368.29 3.19282 -1.69533 0
M  V30 13779 O 1368.01 3.10796 -3.08768 0
M  V30 13780 C 1369.52 4.13281 -1.60355 0
M  V30 13781 H 1366.74 0.553374 -0.379497 0
M  V30 13782 H 1369.28 1.24033 -1.62592 0
M  V30 13783 H 1367.43 3.68563 -1.19332 0
M  V30 13784 H 1367.85 4.0078 -3.38343 0
M  V30 13785 H 1369.32 5.11359 -2.07884 0
M  V30 13786 H 1369.8 4.356 -0.561182 0
M  V30 13787 H 1370.41 3.699 -2.09891 0
M  V30 13788 N 1368.72 1.0394 1.18466 0
M  V30 13789 C 1369.97 0.737233 1.87744 0
M  V30 13790 C 1370.28 -0.737891 1.81148 0
M  V30 13791 O 1371.49 -1.15353 2.45776 0
M  V30 13792 C 1369.94 1.26844 3.36806 0
M  V30 13793 C 1369.55 2.7721 3.51935 0
M  V30 13794 C 1371.3 1.04274 4.11494 0
M  V30 13795 C 1369.2 3.23696 4.9495 0
M  V30 13796 H 1368.13 0.272082 0.703198 0
M  V30 13797 H 1370.78 1.25507 1.33866 0
M  V30 13798 H 1369.17 0.67847 3.90145 0
M  V30 13799 H 1370.34 3.41954 3.08875 0
M  V30 13800 H 1368.66 2.98179 2.90652 0
M  V30 13801 H 1371.25 1.3652 5.16978 0
M  V30 13802 H 1371.6 -0.0200645 4.16295 0
M  V30 13803 H 1372.13 1.59726 3.64325 0
M  V30 13804 H 1368.87 4.29351 4.95316 0
M  V30 13805 H 1368.39 2.63687 5.38729 0
M  V30 13806 H 1370.07 3.17645 5.63658 0
M  V30 13807 N 1370.2 -1.34667 0.818693 0
M  V30 13808 C 1371.13 -2.32134 0.252239 0
M  V30 13809 C 1372.11 -1.58044 -0.628982 0
M  V30 13810 O 1373.29 -1.86049 -0.55674 0
M  V30 13811 C 1370.42 -3.42249 -0.590183 0
M  V30 13812 C 1369.38 -4.27562 0.193547 0
M  V30 13813 C 1368.7 -5.29107 -0.771349 0
M  V30 13814 C 1370 -5.03205 1.39936 0
M  V30 13815 H 1371.7 -2.79758 1.06657 0
M  V30 13816 H 1369.24 -1.34502 0.514325 0
M  V30 13817 H 1371.2 -4.09445 -0.996616 0
M  V30 13818 H 1369.92 -2.93262 -1.43752 0
M  V30 13819 H 1368.58 -3.61962 0.581297 0
M  V30 13820 H 1368.23 -4.76384 -1.61453 0
M  V30 13821 H 1367.93 -5.87063 -0.251201 0
M  V30 13822 H 1369.45 -5.99174 -1.17573 0
M  V30 13823 H 1370.87 -5.6328 1.06717 0
M  V30 13824 H 1369.26 -5.70715 1.85485 0
M  V30 13825 H 1370.33 -4.33145 2.17976 0
M  V30 13826 N 1371.68 -0.573274 -1.46804 0
M  V30 13827 C 1372.92 -0.0553432 -2.02724 0
M  V30 13828 C 1373.26 1.29753 -1.44492 0
M  V30 13829 O 1372.53 1.84804 -0.606455 0
M  V30 13830 C 1372.81 0.0205511 -3.60094 0
M  V30 13831 C 1372.67 -1.36055 -4.2873 0
M  V30 13832 C 1373.99 0.725944 -4.34071 0
M  V30 13833 H 1371.1 -0.0215858 -0.736684 0
M  V30 13834 H 1373.75 -0.738657 -1.75054 0
M  V30 13835 H 1371.9 0.602481 -3.838 0
M  V30 13836 H 1373.57 -1.98692 -4.16316 0
M  V30 13837 H 1371.81 -1.93087 -3.88458 0
M  V30 13838 H 1372.48 -1.26001 -5.37427 0
M  V30 13839 H 1374.96 0.231677 -4.15455 0
M  V30 13840 H 1373.83 0.74805 -5.43779 0
M  V30 13841 H 1374.1 1.78536 -4.04447 0
M  V30 13842 N 1373.15 1.5451 -0.310553 0
M  V30 13843 C 1374.06 2.27557 0.570518 0
M  V30 13844 C 1375.08 1.31426 1.14032 0
M  V30 13845 O 1376.26 1.64423 1.16306 0
M  V30 13846 C 1373.32 3.00933 1.72163 0
M  V30 13847 C 1372.38 4.12623 1.18495 0
M  V30 13848 C 1371.62 4.8249 2.28121 0
M  V30 13849 O 1371.84 4.5178 3.48211 0
M  V30 13850 O 1370.77 5.69686 1.94273 0
M  V30 13851 H 1374.6 3.03692 -0.0223195 0
M  V30 13852 H 1372.18 1.49203 -0.0766821 0
M  V30 13853 H 1374.07 3.46925 2.39208 0
M  V30 13854 H 1372.74 2.27685 2.3009 0
M  V30 13855 H 1371.65 3.71008 0.479956 0
M  V30 13856 H 1372.98 4.87876 0.650994 0
M  V30 13857 N 1374.63 0.0384594 1.57553 0
M  V30 13858 C 1375.88 -0.636879 1.91803 0
M  V30 13859 C 1376.2 -1.72128 0.916347 0
M  V30 13860 O 1375.47 -1.95858 -0.0407405 0
M  V30 13861 H 1374.05 -0.238237 0.707992 0
M  V30 13862 H 1376.71 0.0884651 1.94699 0
M  V30 13863 H 1375.81 -1.08364 2.92683 0
M  V30 13864 N 1376.11 -1.55841 -0.234795 0
M  V30 13865 C 1377.36 -1.77886 -0.959217 0
M  V30 13866 C 1377.68 -0.604621 -1.8539 0
M  V30 13867 O 1376.95 0.379092 -1.92197 0
M  V30 13868 H 1375.53 -0.656077 -0.357172 0
M  V30 13869 H 1378.19 -1.93292 -0.249831 0
M  V30 13870 H 1377.29 -2.69512 -1.57383 0
M  V30 13871 N 1377.59 0.500963 -1.49426 0
M  V30 13872 C 1378.5 1.62889 -1.68833 0
M  V30 13873 C 1379.52 1.64367 -0.570932 0
M  V30 13874 O 1380.69 1.82786 -0.845641 0
M  V30 13875 C 1377.76 2.99255 -1.75063 0
M  V30 13876 C 1376.82 3.08404 -2.9864 0
M  V30 13877 C 1376.05 4.38266 -3.04564 0
M  V30 13878 O 1376.27 5.27065 -2.1808 0
M  V30 13879 O 1375.21 4.52387 -3.97026 0
M  V30 13880 H 1379.03 1.49446 -2.64385 0
M  V30 13881 H 1376.62 0.677254 -1.33168 0
M  V30 13882 H 1378.5 3.80303 -1.81515 0
M  V30 13883 H 1377.18 3.1296 -0.826896 0
M  V30 13884 H 1376.08 2.26544 -2.97706 0
M  V30 13885 H 1377.42 2.99626 -3.90494 0
M  V30 13886 N 1379.07 1.38501 0.752011 0
M  V30 13887 C 1380.32 1.34112 1.50655 0
M  V30 13888 C 1380.63 -0.0657661 1.95489 0
M  V30 13889 O 1381.84 -0.232199 2.70505 0
M  V30 13890 C 1380.29 2.35514 2.72142 0
M  V30 13891 C 1379.9 3.81831 2.34326 0
M  V30 13892 C 1381.64 2.40171 3.50026 0
M  V30 13893 C 1379.55 4.74915 3.52434 0
M  V30 13894 H 1378.48 0.498519 0.565681 0
M  V30 13895 H 1381.13 1.64064 0.821913 0
M  V30 13896 H 1379.51 1.98607 3.42595 0
M  V30 13897 H 1380.69 4.27685 1.7153 0
M  V30 13898 H 1379 3.80308 1.69573 0
M  V30 13899 H 1381.6 3.06913 4.37845 0
M  V30 13900 H 1381.94 1.42111 3.91293 0
M  V30 13901 H 1382.48 2.75884 2.86588 0
M  V30 13902 H 1379.21 5.74176 3.16232 0
M  V30 13903 H 1378.73 4.33753 4.14268 0
M  V30 13904 H 1380.41 4.93003 4.18995 0
M  V30 13905 N 1380.55 -0.980364 1.23396 0
M  V30 13906 C 1381.46 -2.10688 1.03188 0
M  V30 13907 C 1382.47 -1.73984 -0.0236159 0
M  V30 13908 O 1383.65 -2.00666 0.171841 0
M  V30 13909 C 1380.71 -3.4101 0.625563 0
M  V30 13910 C 1379.77 -3.91739 1.75611 0
M  V30 13911 C 1379.01 -5.15841 1.36908 0
M  V30 13912 O 1379.23 -5.69837 0.253329 0
M  V30 13913 O 1378.16 -5.60638 2.19018 0
M  V30 13914 H 1381.99 -2.30626 1.97599 0
M  V30 13915 H 1379.57 -1.09067 1.02102 0
M  V30 13916 H 1381.46 -4.19402 0.409909 0
M  V30 13917 H 1380.13 -3.22402 -0.28956 0
M  V30 13918 H 1379.04 -3.14464 2.0264 0
M  V30 13919 H 1380.37 -4.14801 2.64955 0
M  V30 13920 N 1382.02 -1.04567 -1.17913 0
M  V30 13921 C 1382.95 -0.662066 -2.23917 0
M  V30 13922 C 1383.93 0.33713 -1.66726 0
M  V30 13923 O 1385.12 0.216116 -1.92994 0
M  V30 13924 C 1382.25 -0.029463 -3.47288 0
M  V30 13925 C 1381.2 -0.95274 -4.17261 0
M  V30 13926 C 1380.53 -0.184347 -5.34382 0
M  V30 13927 C 1381.83 -2.2741 -4.70194 0
M  V30 13928 H 1383.52 -1.54826 -2.5626 0
M  V30 13929 H 1381.07 -0.745886 -1.23177 0
M  V30 13930 H 1383.02 0.250654 -4.20654 0
M  V30 13931 H 1381.75 0.891638 -3.14193 0
M  V30 13932 H 1380.41 -1.21732 -3.45799 0
M  V30 13933 H 1380.05 0.73932 -4.97537 0
M  V30 13934 H 1379.75 -0.79949 -5.82136 0
M  V30 13935 H 1381.28 0.0886344 -6.10536 0
M  V30 13936 H 1382.69 -2.05433 -5.35229 0
M  V30 13937 H 1381.09 -2.84265 -5.28501 0
M  V30 13938 H 1382.16 -2.91708 -3.87342 0
M  V30 13939 N 1383.5 1.34231 -0.825823 0
M  V30 13940 C 1384.75 1.98196 -0.415276 0
M  V30 13941 C 1385.08 1.65463 1.02236 0
M  V30 13942 O 1384.33 0.919868 1.72734 0
M  V30 13943 C 1384.63 3.52861 -0.56778 0
M  V30 13944 C 1384.3 4.05512 -1.97157 0
M  V30 13945 C 1382.96 4.19602 -2.35557 0
M  V30 13946 C 1385.31 4.33798 -2.88909 0
M  V30 13947 C 1382.64 4.59307 -3.6504 0
M  V30 13948 C 1384.99 4.74949 -4.17859 0
M  V30 13949 C 1383.65 4.87245 -4.56233 0
M  V30 13950 H 1382.92 0.725251 -0.15196 0
M  V30 13951 H 1385.57 1.60126 -1.05033 0
M  V30 13952 H 1383.88 3.9151 0.15065 0
M  V30 13953 H 1385.57 4.00336 -0.230608 0
M  V30 13954 H 1382.16 3.9501 -1.66328 0
M  V30 13955 H 1386.35 4.22448 -2.60483 0
M  V30 13956 H 1381.6 4.67017 -3.94594 0
M  V30 13957 H 1385.78 4.95795 -4.8904 0
M  V30 13958 H 1383.4 5.17768 -5.56615 0
M  V30 13959 N 1384.98 0.581051 1.46498 0
M  V30 13960 C 1386.26 -0.000789846 1.956 0
M  V30 13961 C 1386.64 -1.46104 1.52371 0
M  V30 13962 O 1385.98 -2.15005 0.773623 0
M  V30 13963 C 1386.19 0.169534 3.48588 0
M  V30 13964 C 1387.54 0.036499 4.24584 0
M  V30 13965 O 1388.57 0.0982852 3.56064 0
M  V30 13966 O 1387.43 -0.100571 5.46407 0
M  V30 13967 H 1384.52 -0.050749 0.825441 0
M  V30 13968 H 1387.07 0.649252 1.56789 0
M  V30 13969 H 1385.84 1.18473 3.72934 0
M  V30 13970 H 1385.46 -0.517017 3.94224 0
M  V30 13971 N 1386.46 -1.54343 0.318742 0
M  V30 13972 C 1387.71 -2.00084 -0.284713 0
M  V30 13973 C 1388.03 -1.20855 -1.53033 0
M  V30 13974 O 1387.3 -0.309104 -1.93446 0
M  V30 13975 H 1385.88 -0.739123 -0.108193 0
M  V30 13976 H 1388.54 -1.90002 0.434174 0
M  V30 13977 H 1387.63 -3.07314 -0.544459 0
M  V30 13978 N 1387.94 -0.0468143 -1.5753 0
M  V30 13979 C 1388.85 0.944362 -2.14753 0
M  V30 13980 C 1389.86 1.34473 -1.10422 0
M  V30 13981 O 1391.04 1.42254 -1.42569 0
M  V30 13982 C 1388.1 2.2023 -2.67768 0
M  V30 13983 C 1387.16 1.8607 -3.8688 0
M  V30 13984 C 1386.4 3.05867 -4.37357 0
M  V30 13985 O 1386.62 4.19099 -3.86927 0
M  V30 13986 O 1385.55 2.87134 -5.28997 0
M  V30 13987 H 1389.38 0.48772 -2.99758 0
M  V30 13988 H 1386.96 0.174831 -1.48374 0
M  V30 13989 H 1388.85 2.94044 -3.01855 0
M  V30 13990 H 1387.52 2.65041 -1.85836 0
M  V30 13991 H 1386.43 1.09586 -3.5769 0
M  V30 13992 H 1387.76 1.46062 -4.70028 0
M  V30 13993 N 1389.41 1.55964 0.226527 0
M  V30 13994 C 1390.66 1.7901 0.95306 0
M  V30 13995 C 1390.99 0.615608 1.84184 0
M  V30 13996 O 1390.27 -0.385341 1.90645 0
M  V30 13997 C 1390.55 3.12101 1.79624 0
M  V30 13998 C 1390.4 4.3999 0.934286 0
M  V30 13999 C 1391.72 3.4159 2.77496 0
M  V30 14000 H 1388.84 0.651236 0.345052 0
M  V30 14001 H 1391.48 1.88696 0.222236 0
M  V30 14002 H 1389.63 3.03975 2.41933 0
M  V30 14003 H 1391.31 4.6013 0.328328 0
M  V30 14004 H 1389.55 4.33138 0.239487 0
M  V30 14005 H 1390.22 5.29541 1.55853 0
M  V30 14006 H 1392.7 3.49812 2.25323 0
M  V30 14007 H 1391.57 4.35894 3.33599 0
M  V30 14008 H 1391.83 2.6351 3.54986 0
M  V30 14009 N 1390.89 -0.493031 1.4969 0
M  V30 14010 C 1391.84 -1.61449 1.67442 0
M  V30 14011 C 1392.83 -1.60553 0.540296 0
M  V30 14012 O 1394.04 -1.64965 0.720167 0
M  V30 14013 H 1390.42 -0.535337 0.528127 0
M  V30 14014 H 1392.39 -1.43631 2.61558 0
M  V30 14015 C 1391.14 -2.99537 1.76559 0
M  V30 14016 H 1390.46 -3.00936 2.63206 0
M  V30 14017 H 1391.9 -3.77521 1.93013 0
M  V30 14018 C 1390.36 -3.32984 0.512176 0
M  V30 14019 O 1390.89 -4.00096 -0.35857 0
M  V30 14020 N 1389.09 -2.882 0.372734 0
M  V30 14021 H 1388.64 -2.3376 1.08232 0
M  V30 14022 H 1388.6 -3.10945 -0.464804 0
M  V30 14023 N 1392.37 -1.38898 -0.744656 0
M  V30 14024 C 1393.62 -1.35795 -1.50623 0
M  V30 14025 C 1393.95 0.0491775 -1.94138 0
M  V30 14026 O 1393.22 1.01219 -1.66087 0
M  V30 14027 C 1393.51 -2.32168 -2.75263 0
M  V30 14028 C 1393.36 -3.81781 -2.3783 0
M  V30 14029 C 1394.68 -2.26526 -3.77325 0
M  V30 14030 H 1391.8 -0.494591 -0.546396 0
M  V30 14031 H 1394.44 -1.69816 -0.852211 0
M  V30 14032 H 1392.59 -2.03287 -3.31069 0
M  V30 14033 H 1394.26 -4.21373 -1.8773 0
M  V30 14034 H 1392.51 -3.99027 -1.70176 0
M  V30 14035 H 1393.18 -4.44687 -3.27044 0
M  V30 14036 H 1395.65 -2.52041 -3.31081 0
M  V30 14037 H 1394.53 -2.96053 -4.62216 0
M  V30 14038 H 1394.79 -1.26705 -4.23554 0
M  V30 14039 N 1393.85 0.973806 -1.23914 0
M  V30 14040 C 1394.8 2.06734 -1.02614 0
M  V30 14041 C 1395.77 1.65997 0.0585705 0
M  V30 14042 O 1396.95 1.90564 -0.0948467 0
M  V30 14043 C 1394.09 3.39292 -0.630493 0
M  V30 14044 C 1393.2 3.9326 -1.78803 0
M  V30 14045 C 1392.34 5.14059 -1.33854 0
M  V30 14046 C 1391.38 5.60209 -2.46642 0
M  V30 14047 N 1390.51 6.72232 -2.02603 0
M  V30 14048 H 1395.35 2.24287 -1.96212 0
M  V30 14049 H 1392.89 1.09935 -0.977376 0
M  V30 14050 H 1394.85 4.15446 -0.382163 0
M  V30 14051 H 1393.48 3.21682 0.268483 0
M  V30 14052 H 1392.53 3.13801 -2.15019 0
M  V30 14053 H 1393.84 4.23475 -2.63573 0
M  V30 14054 H 1393 5.97567 -1.04873 0
M  V30 14055 H 1391.74 4.85513 -0.46131 0
M  V30 14056 H 1390.74 4.75278 -2.7639 0
M  V30 14057 H 1391.97 5.90771 -3.34912 0
M  V30 14058 H 1389.91 6.45433 -1.17269 0
M  V30 14059 H 1389.83 7.01865 -2.80929 0
M  V30 14060 H 1391.1 7.59198 -1.76745 0
M  V30 14061 N 1395.33 1.05191 1.17357 0
M  V30 14062 C 1396.74 0.773255 1.39617 0
M  V30 14063 C 1396.94 -0.632346 1.91321 0
M  V30 14064 O 1396 -1.39475 2.10483 0
M  V30 14065 C 1397.31 1.82885 2.38692 0
M  V30 14066 C 1398.86 1.85106 2.52398 0
M  V30 14067 C 1399.33 2.89689 3.54746 0
M  V30 14068 N 1400.83 2.88651 3.62263 0
M  V30 14069 C 1401.56 3.66221 4.41214 0
M  V30 14070 N 1401.06 4.53577 5.23679 0
M  V30 14071 N 1402.85 3.54661 4.36087 0
M  V30 14072 H 1395 1.9588 0.82127 0
M  V30 14073 H 1397.26 0.848187 0.423417 0
M  V30 14074 H 1396.97 2.83766 2.07773 0
M  V30 14075 H 1396.84 1.67047 3.38194 0
M  V30 14076 H 1399.23 0.848896 2.82627 0
M  V30 14077 H 1399.31 2.05022 1.5297 0
M  V30 14078 H 1398.96 3.90091 3.25255 0
M  V30 14079 H 1398.89 2.67025 4.53878 0
M  V30 14080 H 1401.38 2.25312 3.03386 0
M  V30 14081 H 1401.69 5.09449 5.81104 0
M  V30 14082 H 1400.03 4.57638 5.23061 0
M  V30 14083 H 1403.23 2.8581 3.70716 0
M  V30 14084 H 1403.4 4.15361 4.97372 0
M  V30 14085 N 1396.8 -1.33791 0.83293 0
M  V30 14086 C 1398.22 -1.80336 0.483294 0
M  V30 14087 C 1398.57 -1.68969 -0.997195 0
M  V30 14088 O 1397.69 -1.23549 -1.77664 0
M  V30 14089 C 1398.29 -3.27427 0.870475 0
M  V30 14090 C 1396.85 -3.72012 0.573064 0
M  V30 14091 C 1395.99 -2.55319 1.08201 0
M  V30 14092 H 1398.94 -1.21396 1.02218 0
M  V30 14093 H 1398.96 -3.80083 0.178173 0
M  V30 14094 H 1398.48 -3.35668 1.94804 0
M  V30 14095 H 1396.58 -3.69302 -0.494678 0
M  V30 14096 H 1396.69 -4.65725 1.12414 0
M  V30 14097 H 1395.05 -2.49681 0.503123 0
M  V30 14098 H 1395.84 -2.66326 2.16623 0
M  V30 14099 N 1398.28 -0.588812 -1.46187 0
M  V30 14100 C 1399.22 0.189417 -2.27413 0
M  V30 14101 C 1400.19 0.891224 -1.36 0
M  V30 14102 O 1401.38 0.903883 -1.65415 0
M  V30 14103 C 1398.5 1.27233 -3.13894 0
M  V30 14104 C 1397.55 0.675705 -4.21113 0
M  V30 14105 S 1398.38 -0.502093 -5.33141 0
M  V30 14106 C 1399.54 0.581875 -6.23189 0
M  V30 14107 H 1399.77 -0.499754 -2.9307 0
M  V30 14108 H 1397.31 -0.375854 -1.49755 0
M  V30 14109 H 1399.26 1.89233 -3.64282 0
M  V30 14110 H 1397.92 1.93348 -2.47538 0
M  V30 14111 H 1397.12 1.48991 -4.81475 0
M  V30 14112 H 1396.72 0.131249 -3.7377 0
M  V30 14113 H 1399.01 1.46594 -6.6145 0
M  V30 14114 H 1399.95 0.0148739 -7.08098 0
M  V30 14115 H 1400.36 0.888764 -5.5746 0
M  V30 14116 N 1399.76 1.54172 -0.326923 0
M  V30 14117 C 1400.71 2.24454 0.537501 0
M  V30 14118 C 1401.68 1.23658 1.10896 0
M  V30 14119 O 1402.86 1.52348 1.14868 0
M  V30 14120 C 1400 3.00839 1.69085 0
M  V30 14121 C 1399.12 4.16459 1.1483 0
M  V30 14122 C 1398.25 4.80368 2.26761 0
M  V30 14123 C 1397.29 5.88085 1.69771 0
M  V30 14124 N 1396.43 6.45842 2.75378 0
M  V30 14125 H 1401.27 2.97921 -0.0684022 0
M  V30 14126 H 1398.8 1.4703 -0.0455287 0
M  V30 14127 H 1400.76 3.43375 2.36959 0
M  V30 14128 H 1399.39 2.297 2.26799 0
M  V30 14129 H 1398.44 3.78683 0.361004 0
M  V30 14130 H 1399.76 4.93986 0.69132 0
M  V30 14131 H 1398.91 5.25889 3.02533 0
M  V30 14132 H 1397.65 4.02228 2.75796 0
M  V30 14133 H 1396.65 5.41963 0.924985 0
M  V30 14134 H 1397.88 6.68123 1.21609 0
M  V30 14135 H 1395.82 5.70574 3.23699 0
M  V30 14136 H 1395.74 7.18792 2.34253 0
M  V30 14137 H 1397.01 6.96018 3.50969 0
M  V30 14138 N 1401.24 0.0551678 1.57503 0
M  V30 14139 C 1402.52 -0.657808 1.84207 0
M  V30 14140 C 1402.9 -1.88798 0.944372 0
M  V30 14141 O 1402.24 -2.28499 0.00641728 0
M  V30 14142 C 1402.45 -1.0113 3.34026 0
M  V30 14143 C 1403.8 -1.39189 4.01138 0
M  V30 14144 O 1404.83 -1.10353 3.38675 0
M  V30 14145 O 1403.68 -1.93023 5.11277 0
M  V30 14146 H 1400.78 -0.325084 0.760427 0
M  V30 14147 H 1403.32 0.0848352 1.69488 0
M  V30 14148 H 1402.1 -0.13688 3.91061 0
M  V30 14149 H 1401.72 -1.81126 3.53948 0
M  V30 14150 N 1402.72 -1.56081 -0.218252 0
M  V30 14151 C 1403.63 -1.95856 -1.29141 0
M  V30 14152 C 1404.64 -0.862857 -1.51099 0
M  V30 14153 O 1405.82 -1.1667 -1.64165 0
M  V30 14154 C 1402.88 -2.27005 -2.62049 0
M  V30 14155 C 1401.94 -3.50162 -2.48365 0
M  V30 14156 C 1401.18 -3.79815 -3.74935 0
M  V30 14157 O 1401.4 -3.11095 -4.78096 0
M  V30 14158 O 1400.33 -4.73299 -3.71849 0
M  V30 14159 H 1404.16 -2.8732 -0.983922 0
M  V30 14160 H 1401.75 -1.43334 -0.421385 0
M  V30 14161 H 1403.63 -2.4822 -3.40536 0
M  V30 14162 H 1402.3 -1.38715 -2.92472 0
M  V30 14163 H 1401.21 -3.34222 -1.68066 0
M  V30 14164 H 1402.54 -4.38845 -2.22881 0
M  V30 14165 N 1404.2 0.485086 -1.49949 0
M  V30 14166 C 1405.42 1.26179 -1.63971 0
M  V30 14167 C 1405.84 1.86113 -0.317408 0
M  V30 14168 O 1405.2 1.68581 0.699038 0
M  V30 14169 C 1405.25 2.38062 -2.72046 0
M  V30 14170 O 1404.97 1.80588 -3.99149 0
M  V30 14171 C 1406.47 3.29174 -2.96916 0
M  V30 14172 H 1403.69 0.382122 -0.551565 0
M  V30 14173 H 1406.23 0.580607 -1.96085 0
M  V30 14174 H 1404.39 3.0198 -2.42666 0
M  V30 14175 H 1404.8 2.54159 -4.58807 0
M  V30 14176 H 1406.28 4.03922 -3.76233 0
M  V30 14177 H 1406.75 3.87123 -2.07443 0
M  V30 14178 H 1407.36 2.71006 -3.27774 0
M  V30 14179 N 1405.67 1.39291 0.737279 0
M  V30 14180 C 1406.62 1.34321 1.84233 0
M  V30 14181 C 1407.61 0.224489 1.59326 0
M  V30 14182 O 1408.8 0.461832 1.70869 0
M  V30 14183 C 1405.93 1.18676 3.22135 0
M  V30 14184 C 1405.01 2.35239 3.52878 0
M  V30 14185 N 1405.41 3.6071 3.54573 0
M  V30 14186 C 1403.7 2.28147 3.83229 0
M  V30 14187 C 1404.4 4.37778 3.83047 0
M  V30 14188 N 1403.38 3.67336 4.00706 0
M  V30 14189 H 1407.18 2.29299 1.83845 0
M  V30 14190 H 1404.7 1.32755 0.935413 0
M  V30 14191 H 1406.69 1.13199 4.01238 0
M  V30 14192 H 1405.35 0.246461 3.23763 0
M  V30 14193 H 1406.36 3.94164 3.3594 0
M  V30 14194 H 1403.04 1.42366 3.92477 0
M  V30 14195 H 1404.43 5.46525 3.90845 0
M  V30 14196 N 1407.15 -0.967221 1.24429 0
M  V30 14197 C 1408.4 -1.71026 1.08427 0
M  V30 14198 C 1408.73 -1.90815 -0.376812 0
M  V30 14199 O 1407.98 -1.46745 -1.29477 0
M  V30 14200 C 1408.28 -3.10507 1.76975 0
M  V30 14201 C 1407.95 -3.10557 3.26902 0
M  V30 14202 C 1406.61 -3.10278 3.67806 0
M  V30 14203 C 1408.96 -3.04852 4.22746 0
M  V30 14204 C 1406.29 -3.02027 5.02988 0
M  V30 14205 C 1408.64 -2.98143 5.57937 0
M  V30 14206 C 1407.3 -2.96193 5.98185 0
M  V30 14207 H 1406.57 -0.625827 0.396764 0
M  V30 14208 H 1409.22 -1.13094 1.54538 0
M  V30 14209 H 1407.53 -3.71906 1.2326 0
M  V30 14210 H 1409.22 -3.66794 1.62058 0
M  V30 14211 H 1405.81 -3.11539 2.94349 0
M  V30 14212 H 1410 -3.04197 3.92145 0
M  V30 14213 H 1405.25 -2.98878 5.33368 0
M  V30 14214 H 1409.43 -2.92688 6.31907 0
M  V30 14215 H 1407.05 -2.89555 7.02895 0
M  V30 14216 N 1408.63 -1.05812 -1.16797 0
M  V30 14217 C 1409.54 -0.675541 -2.24663 0
M  V30 14218 C 1410.56 0.30622 -1.71284 0
M  V30 14219 O 1411.73 0.156752 -2.00789 0
M  V30 14220 C 1408.8 -0.0627149 -3.46643 0
M  V30 14221 C 1407.86 -1.09572 -4.15081 0
M  V30 14222 C 1407.09 -0.512044 -5.31238 0
M  V30 14223 O 1407.31 0.676665 -5.66372 0
M  V30 14224 O 1406.25 -1.24936 -5.88791 0
M  V30 14225 H 1410.07 -1.57467 -2.59688 0
M  V30 14226 H 1407.66 -0.830073 -1.24218 0
M  V30 14227 H 1409.54 0.277543 -4.20485 0
M  V30 14228 H 1408.22 0.80997 -3.13403 0
M  V30 14229 H 1407.12 -1.48807 -3.4323 0
M  V30 14230 H 1408.46 -1.93977 -4.52365 0
M  V30 14231 N 1410.11 1.33347 -0.840014 0
M  V30 14232 C 1411.35 1.98037 -0.43692 0
M  V30 14233 C 1411.69 1.66382 1.00154 0
M  V30 14234 O 1410.96 0.944311 1.70038 0
M  V30 14235 C 1411.24 3.54012 -0.65937 0
M  V30 14236 C 1411.1 3.9535 -2.14518 0
M  V30 14237 C 1412.42 4.39972 -0.106258 0
M  V30 14238 H 1409.54 0.719373 -0.160221 0
M  V30 14239 H 1412.18 1.57969 -1.05574 0
M  V30 14240 H 1410.33 3.88274 -0.132633 0
M  V30 14241 H 1412 3.7134 -2.73687 0
M  V30 14242 H 1410.24 3.4504 -2.62926 0
M  V30 14243 H 1410.91 5.03992 -2.25158 0
M  V30 14244 H 1413.39 4.12362 -0.556511 0
M  V30 14245 H 1412.27 5.48125 -0.291583 0
M  V30 14246 H 1412.53 4.30872 0.990032 0
M  V30 14247 N 1411.59 0.596556 1.45873 0
M  V30 14248 C 1412.83 0.0875879 2.02611 0
M  V30 14249 C 1413.16 -1.27438 1.46538 0
M  V30 14250 O 1412.44 -1.83815 0.635779 0
M  V30 14251 C 1412.72 0.0367394 3.60081 0
M  V30 14252 C 1412.58 1.42859 4.26511 0
M  V30 14253 C 1413.89 -0.656795 4.35171 0
M  V30 14254 H 1411.01 0.0333031 0.736247 0
M  V30 14255 H 1413.66 0.766413 1.73857 0
M  V30 14256 H 1411.81 -0.541345 3.8471 0
M  V30 14257 H 1413.48 2.0529 4.13102 0
M  V30 14258 H 1411.72 1.99243 3.85337 0
M  V30 14259 H 1412.39 1.34535 5.35354 0
M  V30 14260 H 1414.87 -0.165553 4.15771 0
M  V30 14261 H 1413.74 -0.661445 5.449 0
M  V30 14262 H 1414 -1.72079 4.07236 0
M  V30 14263 N 1413.06 -1.53996 0.335095 0
M  V30 14264 C 1413.97 -2.28436 -0.534244 0
M  V30 14265 C 1414.99 -1.33224 -1.11926 0
M  V30 14266 O 1416.17 -1.66252 -1.13676 0
M  V30 14267 C 1413.23 -3.03634 -1.67354 0
M  V30 14268 C 1412.29 -4.14455 -1.11916 0
M  V30 14269 C 1411.52 -4.86058 -2.20416 0
M  V30 14270 O 1411.75 -4.57263 -3.40979 0
M  V30 14271 O 1410.68 -5.72704 -1.85185 0
M  V30 14272 H 1414.51 -3.03618 0.0706314 0
M  V30 14273 H 1412.09 -1.49062 0.100409 0
M  V30 14274 H 1413.97 -3.50687 -2.33659 0
M  V30 14275 H 1412.65 -2.31317 -2.26438 0
M  V30 14276 H 1411.56 -3.71725 -0.420871 0
M  V30 14277 H 1412.89 -4.8885 -0.573295 0
M  V30 14278 N 1414.54 -0.0635198 -1.57472 0
M  V30 14279 C 1415.77 0.620205 -1.9791 0
M  V30 14280 C 1416.19 1.62851 -0.941335 0
M  V30 14281 O 1415.55 1.81056 0.0940313 0
M  V30 14282 C 1415.6 1.27261 -3.37397 0
M  V30 14283 O 1414.7 2.38841 -3.36197 0
M  V30 14284 H 1414.04 0.16021 -0.644382 0
M  V30 14285 H 1416.57 -0.135582 -2.0415 0
M  V30 14286 H 1416.58 1.6214 -3.74399 0
M  V30 14287 H 1415.26 0.533723 -4.12461 0
M  V30 14288 H 1413.83 2.05817 -3.10956 0
M  V30 14289 N 1416.02 1.56195 0.209972 0
M  V30 14290 C 1417.27 1.7939 0.930796 0
M  V30 14291 C 1417.59 0.634038 1.84404 0
M  V30 14292 O 1416.86 -0.348467 1.92776 0
M  V30 14293 H 1415.44 0.661676 0.346689 0
M  V30 14294 H 1418.1 1.93665 0.219049 0
M  V30 14295 H 1417.2 2.71982 1.53075 0
M  V30 14296 N 1417.5 -0.477127 1.50204 0
M  V30 14297 C 1418.91 -0.81037 1.37496 0
M  V30 14298 C 1419.11 -1.96937 0.426399 0
M  V30 14299 O 1418.17 -2.52148 -0.133197 0
M  V30 14300 C 1419.48 -1.12811 2.78737 0
M  V30 14301 C 1421.03 -1.23492 2.87608 0
M  V30 14302 C 1421.51 -1.58583 4.29669 0
M  V30 14303 N 1423 -1.65586 4.32591 0
M  V30 14304 C 1423.73 -1.94231 5.39502 0
M  V30 14305 N 1423.23 -2.20936 6.56627 0
M  V30 14306 N 1425.02 -1.95682 5.26939 0
M  V30 14307 H 1417.17 0.286771 2.10455 0
M  V30 14308 H 1419.43 0.0657649 0.945716 0
M  V30 14309 H 1419.14 -0.349616 3.49958 0
M  V30 14310 H 1419.01 -2.0658 3.15602 0
M  V30 14311 H 1421.4 -2.0041 2.1661 0
M  V30 14312 H 1421.48 -0.277182 2.54294 0
M  V30 14313 H 1421.13 -0.822071 5.01203 0
M  V30 14314 H 1421.06 -2.55497 4.60466 0
M  V30 14315 H 1423.55 -1.47012 3.48132 0
M  V30 14316 H 1423.86 -2.42049 7.33916 0
M  V30 14317 H 1422.21 -2.18341 6.59812 0
M  V30 14318 H 1425.4 -1.74311 4.34434 0
M  V30 14319 H 1425.57 -2.1767 6.10347 0
M  V30 14320 N 1418.98 -1.3968 -0.729882 0
M  V30 14321 C 1420.21 -1.40263 -1.5169 0
M  V30 14322 C 1420.61 0.00325293 -1.892 0
M  V30 14323 O 1419.96 0.986225 -1.54982 0
M  V30 14324 C 1420.02 -2.21629 -2.83056 0
M  V30 14325 C 1419.68 -3.70204 -2.67951 0
M  V30 14326 C 1420.68 -4.63169 -2.36158 0
M  V30 14327 C 1418.37 -4.13851 -2.84662 0
M  V30 14328 C 1420.36 -5.97763 -2.21265 0
M  V30 14329 C 1418.05 -5.4852 -2.69387 0
M  V30 14330 C 1419.04 -6.4029 -2.37734 0
M  V30 14331 O 1418.73 -7.72478 -2.22561 0
M  V30 14332 H 1418.46 -0.480808 -0.475184 0
M  V30 14333 H 1421.02 -1.84184 -0.909136 0
M  V30 14334 H 1419.25 -1.72465 -3.46111 0
M  V30 14335 H 1420.94 -2.14328 -3.447 0
M  V30 14336 H 1421.7 -4.30748 -2.22893 0
M  V30 14337 H 1417.58 -3.42751 -3.0829 0
M  V30 14338 H 1421.13 -6.69359 -1.96481 0
M  V30 14339 H 1417.02 -5.8053 -2.82232 0
M  V30 14340 H 1417.79 -7.83258 -2.37591 0
M  V30 14341 N 1420.45 0.960609 -1.2494 0
M  V30 14342 C 1421.7 1.69884 -1.08731 0
M  V30 14343 C 1422.02 1.92018 0.372602 0
M  V30 14344 O 1423.22 2.6348 0.655018 0
M  V30 14345 C 1421.68 3.05815 -1.8975 0
M  V30 14346 C 1421.29 2.91498 -3.40196 0
M  V30 14347 C 1423.03 3.83462 -1.82092 0
M  V30 14348 C 1420.94 4.22783 -4.13532 0
M  V30 14349 H 1419.87 0.637087 -0.403281 0
M  V30 14350 H 1422.52 1.06987 -1.49084 0
M  V30 14351 H 1420.9 3.69582 -1.42216 0
M  V30 14352 H 1422.07 2.367 -3.9536 0
M  V30 14353 H 1420.39 2.27312 -3.48882 0
M  V30 14354 H 1422.99 4.8069 -2.34181 0
M  V30 14355 H 1423.33 4.08782 -0.787597 0
M  V30 14356 H 1423.86 3.26435 -2.27344 0
M  V30 14357 H 1420.6 4.02653 -5.17253 0
M  V30 14358 H 1420.12 4.77369 -3.63152 0
M  V30 14359 H 1421.8 4.91361 -4.2092 0
M  V30 14360 N 1421.93 1.0643 1.16234 0
M  V30 14361 C 1423.18 0.77689 1.86138 0
M  V30 14362 C 1423.49 -0.699301 1.82672 0
M  V30 14363 O 1424.7 -1.10113 2.48168 0
M  V30 14364 C 1423.16 1.3396 3.3404 0
M  V30 14365 C 1422.76 2.84613 3.45976 0
M  V30 14366 C 1424.51 1.12979 4.09189 0
M  V30 14367 C 1422.42 3.34122 4.87972 0
M  V30 14368 H 1421.35 0.286936 0.697269 0
M  V30 14369 H 1424 1.28318 1.31174 0
M  V30 14370 H 1422.38 0.761073 3.88618 0
M  V30 14371 H 1423.55 3.48429 3.01552 0
M  V30 14372 H 1421.87 3.04277 2.84262 0
M  V30 14373 H 1424.46 1.47456 5.13966 0
M  V30 14374 H 1424.81 0.0682424 4.16244 0
M  V30 14375 H 1425.34 1.67418 3.60855 0
M  V30 14376 H 1422.08 4.39761 4.86097 0
M  V30 14377 H 1421.6 2.75055 5.33015 0
M  V30 14378 H 1423.28 3.29529 5.56794 0
M  V30 14379 N 1423.41 -1.329 0.847073 0
M  V30 14380 C 1424.34 -2.31546 0.301422 0
M  V30 14381 C 1425.32 -1.59342 -0.595317 0
M  V30 14382 O 1426.51 -1.87188 -0.517151 0
M  V30 14383 C 1423.64 -3.43423 -0.517454 0
M  V30 14384 C 1422.59 -4.27055 0.284195 0
M  V30 14385 C 1421.92 -5.30624 -0.658944 0
M  V30 14386 C 1423.22 -5.00123 1.50578 0
M  V30 14387 H 1424.91 -2.77433 1.12567 0
M  V30 14388 H 1422.46 -1.3338 0.542739 0
M  V30 14389 H 1424.41 -4.11467 -0.909543 0
M  V30 14390 H 1423.13 -2.96246 -1.37499 0
M  V30 14391 H 1421.79 -3.60648 0.657944 0
M  V30 14392 H 1421.44 -4.79702 -1.51311 0
M  V30 14393 H 1421.14 -5.87464 -0.12662 0
M  V30 14394 H 1422.66 -6.01533 -1.04837 0
M  V30 14395 H 1424.08 -5.6089 1.18641 0
M  V30 14396 H 1422.48 -5.66652 1.97549 0
M  V30 14397 H 1423.55 -4.28424 2.27115 0
M  V30 14398 N 1424.89 -0.604284 -1.45555 0
M  V30 14399 C 1425.82 0.103859 -2.33269 0
M  V30 14400 C 1426.8 0.862104 -1.46635 0
M  V30 14401 O 1427.98 0.833308 -1.75413 0
M  V30 14402 C 1425.11 1.104 -3.29286 0
M  V30 14403 C 1424.07 0.459189 -4.2553 0
M  V30 14404 C 1423.39 1.56734 -5.11213 0
M  V30 14405 C 1424.69 -0.617509 -5.18637 0
M  V30 14406 H 1426.39 -0.628538 -2.92728 0
M  V30 14407 H 1423.93 -0.303711 -1.40761 0
M  V30 14408 H 1425.89 1.60794 -3.89517 0
M  V30 14409 H 1424.61 1.86695 -2.67979 0
M  V30 14410 H 1423.27 -0.0238508 -3.66592 0
M  V30 14411 H 1422.92 2.32049 -4.46276 0
M  V30 14412 H 1422.62 1.14142 -5.76407 0
M  V30 14413 H 1424.14 2.07361 -5.74312 0
M  V30 14414 H 1425.56 -0.197784 -5.72959 0
M  V30 14415 H 1423.95 -0.96499 -5.9229 0
M  V30 14416 H 1425.02 -1.49541 -4.61265 0
M  V30 14417 N 1426.37 1.53816 -0.343257 0
M  V30 14418 C 1427.3 2.27951 0.506005 0
M  V30 14419 C 1428.28 1.29502 1.10287 0
M  V30 14420 O 1429.46 1.58344 1.12432 0
M  V30 14421 C 1426.59 3.0521 1.65723 0
M  V30 14422 C 1425.55 4.11161 1.18871 0
M  V30 14423 C 1424.87 4.76373 2.42843 0
M  V30 14424 C 1426.17 5.21498 0.289403 0
M  V30 14425 H 1427.87 2.99189 -0.112435 0
M  V30 14426 H 1425.41 1.43893 -0.055516 0
M  V30 14427 H 1427.37 3.55811 2.2578 0
M  V30 14428 H 1426.09 2.31624 2.30256 0
M  V30 14429 H 1424.75 3.61473 0.610962 0
M  V30 14430 H 1424.4 3.99381 3.05784 0
M  V30 14431 H 1424.1 5.47955 2.12177 0
M  V30 14432 H 1425.62 5.29758 3.03627 0
M  V30 14433 H 1427.03 5.67736 0.796808 0
M  V30 14434 H 1425.43 6.00054 0.0746366 0
M  V30 14435 H 1426.5 4.80185 -0.674543 0
M  V30 14436 N 1427.84 0.0718701 1.57436 0
M  V30 14437 C 1429.09 -0.596052 1.9311 0
M  V30 14438 C 1429.41 -1.70146 0.952652 0
M  V30 14439 O 1428.68 -1.959 0.000812941 0
M  V30 14440 H 1427.26 -0.223165 0.712886 0
M  V30 14441 H 1429.93 0.129744 1.94468 0
M  V30 14442 H 1429.02 -1.02132 2.94916 0
M  V30 14443 N 1429.32 -1.56304 -0.201686 0
M  V30 14444 C 1430.27 -1.94021 -1.24999 0
M  V30 14445 C 1431.24 -0.799926 -1.45569 0
M  V30 14446 O 1432.42 -1.05752 -1.58811 0
M  V30 14447 C 1429.56 -2.27935 -2.59113 0
M  V30 14448 C 1428.68 -3.54995 -2.46176 0
M  V30 14449 C 1427.81 -3.78262 -3.72949 0
M  V30 14450 C 1426.85 -4.9877 -3.54817 0
M  V30 14451 N 1425.99 -5.18325 -4.73586 0
M  V30 14452 H 1430.83 -2.834 -0.92134 0
M  V30 14453 H 1428.37 -1.40252 -0.44359 0
M  V30 14454 H 1430.32 -2.45613 -3.37239 0
M  V30 14455 H 1428.95 -1.41705 -2.90034 0
M  V30 14456 H 1428.01 -3.45401 -1.59381 0
M  V30 14457 H 1429.32 -4.43277 -2.28708 0
M  V30 14458 H 1428.47 -3.96144 -4.59516 0
M  V30 14459 H 1427.21 -2.88299 -3.93364 0
M  V30 14460 H 1426.22 -4.80818 -2.66635 0
M  V30 14461 H 1427.44 -5.90237 -3.35854 0
M  V30 14462 H 1425.39 -4.31308 -4.94277 0
M  V30 14463 H 1425.3 -6.00774 -4.58919 0
M  V30 14464 H 1426.57 -5.40659 -5.61523 0
M  V30 14465 N 1430.8 0.469154 -1.50455 0
M  V30 14466 C 1431.76 1.5493 -1.68906 0
M  V30 14467 C 1432.76 1.50744 -0.559721 0
M  V30 14468 O 1433.95 1.5333 -0.826781 0
M  V30 14469 C 1431.09 2.94556 -1.71609 0
M  V30 14470 H 1432.28 1.39887 -2.65276 0
M  V30 14471 H 1429.83 0.695667 -1.39965 0
M  V30 14472 H 1430.57 3.15041 -0.769382 0
M  V30 14473 H 1430.35 2.99002 -2.53654 0
M  V30 14474 H 1431.84 3.72973 -1.87831 0
M  V30 14475 N 1432.28 1.40065 0.722464 0
M  V30 14476 C 1433.21 1.42532 1.84951 0
M  V30 14477 C 1434.19 0.287082 1.6766 0
M  V30 14478 O 1435.37 0.494715 1.87793 0
M  V30 14479 C 1432.5 1.28041 3.22836 0
M  V30 14480 C 1431.46 2.39396 3.54787 0
M  V30 14481 C 1430.78 2.09986 4.91742 0
M  V30 14482 C 1432.08 3.81729 3.56483 0
M  V30 14483 H 1433.78 2.36851 1.83144 0
M  V30 14484 H 1431.32 1.14005 0.879714 0
M  V30 14485 H 1433.28 1.28385 4.01367 0
M  V30 14486 H 1432 0.301947 3.25201 0
M  V30 14487 H 1430.66 2.3829 2.78592 0
M  V30 14488 H 1430.31 1.10547 4.90702 0
M  V30 14489 H 1430.01 2.84586 5.14086 0
M  V30 14490 H 1431.53 2.12 5.72615 0
M  V30 14491 H 1432.95 3.84696 4.25067 0
M  V30 14492 H 1431.34 4.55791 3.90351 0
M  V30 14493 H 1432.41 4.11807 2.56014 0
M  V30 14494 N 1433.76 -0.95397 1.25448 0
M  V30 14495 C 1434.98 -1.73863 1.13077 0
M  V30 14496 C 1435.41 -1.85503 -0.311481 0
M  V30 14497 O 1434.77 -1.33596 -1.22564 0
M  V30 14498 C 1434.81 -3.13 1.79062 0
M  V30 14499 O 1433.92 -3.98258 1.07072 0
M  V30 14500 H 1433.26 -0.533921 0.394746 0
M  V30 14501 H 1435.79 -1.19571 1.66024 0
M  V30 14502 H 1435.8 -3.63456 1.85374 0
M  V30 14503 H 1434.47 -3.03844 2.83992 0
M  V30 14504 H 1433.05 -3.56722 1.08645 0
M  V30 14505 N 1435.24 -1.07045 -1.15668 0
M  V30 14506 C 1436.48 -0.792908 -1.86657 0
M  V30 14507 C 1436.81 0.679213 -1.81935 0
M  V30 14508 O 1436.09 1.49822 -1.2403 0
M  V30 14509 C 1436.37 -1.2978 -3.35901 0
M  V30 14510 C 1436.23 -2.83424 -3.49272 0
M  V30 14511 C 1437.54 -0.911821 -4.30551 0
M  V30 14512 H 1434.66 -0.289509 -0.677756 0
M  V30 14513 H 1437.31 -1.32769 -1.35913 0
M  V30 14514 H 1435.46 -0.84288 -3.79246 0
M  V30 14515 H 1437.13 -3.37182 -3.14811 0
M  V30 14516 H 1435.37 -3.21777 -2.90933 0
M  V30 14517 H 1436.04 -3.13819 -4.54116 0
M  V30 14518 H 1438.52 -1.30376 -3.95147 0
M  V30 14519 H 1437.39 -1.29247 -5.33467 0
M  V30 14520 H 1437.65 0.18255 -4.41723 0
M  V30 14521 N 1436.71 1.32449 -0.85411 0
M  V30 14522 C 1437.96 1.97563 -0.4579 0
M  V30 14523 C 1438.29 1.67435 0.983835 0
M  V30 14524 O 1437.57 0.962292 1.69027 0
M  V30 14525 C 1437.85 3.53292 -0.69688 0
M  V30 14526 C 1437.7 3.93053 -2.18699 0
M  V30 14527 C 1439.02 4.39834 -0.152917 0
M  V30 14528 H 1436.14 0.717634 -0.167842 0
M  V30 14529 H 1438.78 1.5684 -1.07243 0
M  V30 14530 H 1436.93 3.88111 -0.173807 0
M  V30 14531 H 1438.61 3.68416 -2.7761 0
M  V30 14532 H 1436.85 3.42232 -2.6657 0
M  V30 14533 H 1437.52 5.01576 -2.3049 0
M  V30 14534 H 1440 4.11748 -0.600216 0
M  V30 14535 H 1438.87 5.47785 -0.349703 0
M  V30 14536 H 1439.13 4.31898 0.944276 0
M  V30 14537 N 1438.19 0.611994 1.45232 0
M  V30 14538 C 1439.44 0.117519 2.0306 0
M  V30 14539 C 1439.79 -1.23976 1.47132 0
M  V30 14540 O 1439.09 -1.80657 0.638249 0
M  V30 14541 C 1439.28 0.0243361 3.57392 0
M  V30 14542 C 1439.11 1.37103 4.28291 0
M  V30 14543 C 1437.88 1.95287 4.66038 0
M  V30 14544 C 1440.08 2.30076 4.59967 0
M  V30 14545 N 1438.06 3.23391 5.21816 0
M  V30 14546 C 1439.43 3.42782 5.16624 0
M  V30 14547 C 1441.48 2.29394 4.41908 0
M  V30 14548 C 1440.19 4.54975 5.57126 0
M  V30 14549 C 1442.21 3.40638 4.83446 0
M  V30 14550 C 1441.58 4.52066 5.402 0
M  V30 14551 H 1437.67 0.0864756 0.777204 0
M  V30 14552 H 1440.26 0.81131 1.76991 0
M  V30 14553 H 1438.43 -0.638687 3.83113 0
M  V30 14554 H 1440.16 -0.477205 4.01877 0
M  V30 14555 H 1436.92 1.48443 4.49735 0
M  V30 14556 H 1437.34 3.88835 5.54199 0
M  V30 14557 H 1441.98 1.44504 3.97339 0
M  V30 14558 H 1439.7 5.40587 6.00659 0
M  V30 14559 H 1443.29 3.41263 4.71202 0
M  V30 14560 H 1442.17 5.36723 5.7175 0
M  V30 14561 N 1439.67 -1.53632 0.351409 0
M  V30 14562 C 1440.95 -1.93311 -0.298362 0
M  V30 14563 C 1441.33 -1.28369 -1.67584 0
M  V30 14564 O 1440.67 -0.437514 -2.24272 0
M  V30 14565 C 1440.88 -3.47109 -0.362773 0
M  V30 14566 C 1442.23 -4.20197 -0.609878 0
M  V30 14567 O 1443.26 -3.53415 -0.444566 0
M  V30 14568 O 1442.12 -5.38517 -0.930691 0
M  V30 14569 H 1439.21 -0.808112 -0.175739 0
M  V30 14570 H 1441.76 -1.64841 0.40316 0
M  V30 14571 H 1440.53 -3.86617 0.60357 0
M  V30 14572 H 1440.15 -3.81769 -1.11076 0
M  V30 14573 N 1441.15 -0.0802183 -1.57396 0
M  V30 14574 C 1442.56 0.276428 -1.57188 0
M  V30 14575 C 1442.76 1.69456 -1.09027 0
M  V30 14576 O 1441.82 2.40792 -0.75997 0
M  V30 14577 C 1443.13 0.0784079 -3.00598 0
M  V30 14578 C 1444.68 0.1473 -3.12653 0
M  V30 14579 C 1445.16 -0.0225423 -4.57994 0
M  V30 14580 N 1446.65 0.0327854 -4.63188 0
M  V30 14581 C 1447.38 -0.0740922 -5.73352 0
M  V30 14582 N 1446.88 -0.234966 -6.92401 0
M  V30 14583 N 1448.67 -0.0164241 -5.62098 0
M  V30 14584 H 1440.82 -1.00695 -1.87014 0
M  V30 14585 H 1443.08 -0.393402 -0.862519 0
M  V30 14586 H 1442.79 -0.900488 -3.39977 0
M  V30 14587 H 1442.66 0.82713 -3.6802 0
M  V30 14588 H 1445.05 1.11669 -2.73156 0
M  V30 14589 H 1445.13 -0.632666 -2.47853 0
M  V30 14590 H 1444.78 -0.988733 -4.98183 0
M  V30 14591 H 1444.71 0.776933 -5.20837 0
M  V30 14592 H 1447.2 0.15519 -3.77581 0
M  V30 14593 H 1447.51 -0.308435 -7.72184 0
M  V30 14594 H 1445.86 -0.270439 -6.94474 0
M  V30 14595 H 1449.05 0.108019 -4.67975 0
M  V30 14596 H 1449.22 -0.10317 -6.47918 0
M  V30 14597 N 1442.63 1.56409 0.193394 0
M  V30 14598 C 1443.58 1.91085 1.24381 0
M  V30 14599 C 1444.56 0.77672 1.40911 0
M  V30 14600 O 1445.75 1.0396 1.43253 0
M  V30 14601 C 1442.88 2.25533 2.58824 0
M  V30 14602 C 1441.97 3.45407 2.46079 0
M  V30 14603 N 1442.36 4.63268 2.03017 0
M  V30 14604 C 1440.66 3.49578 2.76967 0
M  V30 14605 C 1441.36 5.45425 2.02205 0
M  V30 14606 N 1440.33 4.85876 2.43773 0
M  V30 14607 H 1444.13 2.79709 0.902224 0
M  V30 14608 H 1441.65 1.57351 0.401818 0
M  V30 14609 H 1443.65 2.48561 3.34699 0
M  V30 14610 H 1442.31 1.38236 2.93804 0
M  V30 14611 H 1443.32 4.87902 1.737 0
M  V30 14612 H 1439.99 2.72702 3.16133 0
M  V30 14613 H 1441.38 6.49829 1.70798 0
M  V30 14614 N 1444.1 -0.461169 1.50702 0
M  V30 14615 C 1445.03 -1.56576 1.73223 0
M  V30 14616 C 1446.01 -1.59855 0.581401 0
M  V30 14617 O 1447.2 -1.75964 0.821602 0
M  V30 14618 C 1444.33 -2.94835 1.83548 0
M  V30 14619 C 1443.28 -3.06421 2.98815 0
M  V30 14620 C 1442.61 -4.46425 2.94293 0
M  V30 14621 C 1443.91 -2.82714 4.3917 0
M  V30 14622 H 1445.6 -1.37982 2.65709 0
M  V30 14623 H 1443.15 -0.662362 1.27862 0
M  V30 14624 H 1445.1 -3.72047 1.97887 0
M  V30 14625 H 1443.83 -3.14608 0.876906 0
M  V30 14626 H 1442.49 -2.31644 2.84142 0
M  V30 14627 H 1442.13 -4.63131 1.96262 0
M  V30 14628 H 1441.83 -4.55111 3.71682 0
M  V30 14629 H 1443.36 -5.25644 3.10695 0
M  V30 14630 H 1444.77 -3.4967 4.54317 0
M  V30 14631 H 1443.17 -3.02835 5.18084 0
M  V30 14632 H 1444.24 -1.78492 4.50853 0
M  V30 14633 N 1445.58 -1.40446 -0.715026 0
M  V30 14634 C 1446.81 -1.42263 -1.50917 0
M  V30 14635 C 1447.23 -0.0242402 -1.88084 0
M  V30 14636 O 1446.59 0.967817 -1.53307 0
M  V30 14637 C 1446.64 -2.31998 -2.7606 0
M  V30 14638 O 1445.74 -1.76361 -3.72787 0
M  V30 14639 H 1445.08 -0.483614 -0.454988 0
M  V30 14640 H 1447.61 -1.84682 -0.880549 0
M  V30 14641 H 1447.62 -2.47204 -3.24583 0
M  V30 14642 H 1446.3 -3.33614 -2.48343 0
M  V30 14643 H 1444.87 -1.70504 -3.31636 0
M  V30 14644 N 1447.06 0.947303 -1.25952 0
M  V30 14645 C 1448.31 1.68721 -1.10527 0
M  V30 14646 C 1448.62 1.92403 0.352215 0
M  V30 14647 O 1449.83 2.6416 0.627036 0
M  V30 14648 C 1448.28 3.03785 -1.92983 0
M  V30 14649 C 1447.89 2.87873 -3.43268 0
M  V30 14650 C 1449.64 3.81509 -1.86149 0
M  V30 14651 C 1447.54 4.18373 -4.17993 0
M  V30 14652 H 1446.47 0.632774 -0.410016 0
M  V30 14653 H 1449.12 1.054 -1.5021 0
M  V30 14654 H 1447.51 3.68052 -1.46128 0
M  V30 14655 H 1448.68 2.32493 -3.97848 0
M  V30 14656 H 1446.99 2.23598 -3.51273 0
M  V30 14657 H 1449.59 4.78179 -2.39267 0
M  V30 14658 H 1449.93 4.07923 -0.83091 0
M  V30 14659 H 1450.47 3.24005 -2.30794 0
M  V30 14660 H 1447.21 3.97145 -5.21494 0
M  V30 14661 H 1446.73 4.7349 -3.68194 0
M  V30 14662 H 1448.41 4.86869 -4.26108 0
M  V30 14663 N 1448.54 1.07657 1.15099 0
M  V30 14664 C 1449.76 0.82291 1.90376 0
M  V30 14665 C 1450.19 -0.618415 1.77644 0
M  V30 14666 O 1449.55 -1.43248 1.11129 0
M  V30 14667 C 1449.59 1.23988 3.38614 0
M  V30 14668 O 1448.7 0.387085 4.10579 0
M  V30 14669 H 1448.04 0.299532 0.592602 0
M  V30 14670 H 1450.57 1.436 1.4574 0
M  V30 14671 H 1450.58 1.21741 3.89414 0
M  V30 14672 H 1449.25 2.28966 3.472 0
M  V30 14673 H 1447.83 0.472311 3.69897 0
M  V30 14674 N 1450.02 -1.31994 0.861122 0
M  V30 14675 C 1451.26 -1.97317 0.468371 0
M  V30 14676 C 1451.6 -1.67954 -0.974941 0
M  V30 14677 O 1450.87 -0.971243 -1.68514 0
M  V30 14678 C 1451.15 -3.52918 0.715607 0
M  V30 14679 C 1451.01 -3.91888 2.20781 0
M  V30 14680 C 1452.33 -4.39747 0.17624 0
M  V30 14681 H 1449.44 -0.716733 0.171646 0
M  V30 14682 H 1452.09 -1.56269 1.08074 0
M  V30 14683 H 1450.24 -3.88013 0.194387 0
M  V30 14684 H 1451.91 -3.66938 2.7956 0
M  V30 14685 H 1450.15 -3.40813 2.68382 0
M  V30 14686 H 1450.82 -5.00346 2.33147 0
M  V30 14687 H 1453.3 -4.11424 0.622043 0
M  V30 14688 H 1452.17 -5.47592 0.378748 0
M  V30 14689 H 1452.44 -4.32393 -0.921358 0
M  V30 14690 N 1451.49 -0.619688 -1.44906 0
M  V30 14691 C 1452.74 -0.11981 -2.02446 0
M  V30 14692 C 1453.07 1.2509 -1.48546 0
M  V30 14693 O 1452.35 1.82781 -0.664942 0
M  V30 14694 C 1452.63 -0.0940205 -3.59977 0
M  V30 14695 C 1452.48 -1.49626 -4.24184 0
M  V30 14696 C 1453.8 0.58748 -4.36161 0
M  V30 14697 H 1450.92 -0.0450119 -0.735624 0
M  V30 14698 H 1453.56 -0.793975 -1.72615 0
M  V30 14699 H 1451.71 0.480073 -3.85522 0
M  V30 14700 H 1453.39 -2.11836 -4.09784 0
M  V30 14701 H 1451.63 -2.05348 -3.82119 0
M  V30 14702 H 1452.3 -1.43035 -5.33146 0
M  V30 14703 H 1454.78 0.0993863 -4.15981 0
M  V30 14704 H 1453.65 0.574672 -5.45883 0
M  V30 14705 H 1453.91 1.65579 -4.09922 0
M  V30 14706 N 1452.97 1.53444 -0.359552 0
M  V30 14707 C 1453.9 2.28475 0.4818 0
M  V30 14708 C 1454.88 1.30664 1.08908 0
M  V30 14709 O 1456.07 1.59527 1.10746 0
M  V30 14710 C 1453.2 3.06951 1.62477 0
M  V30 14711 C 1452.15 4.12399 1.14504 0
M  V30 14712 C 1451.48 4.78922 2.37777 0
M  V30 14713 C 1452.78 5.21775 0.234075 0
M  V30 14714 H 1454.47 2.99053 -0.144162 0
M  V30 14715 H 1452.02 1.43826 -0.0707746 0
M  V30 14716 H 1453.97 3.58186 2.21993 0
M  V30 14717 H 1452.7 2.34053 2.27787 0
M  V30 14718 H 1451.35 3.62101 0.572589 0
M  V30 14719 H 1451 4.02602 3.0153 0
M  V30 14720 H 1450.7 5.50175 2.06353 0
M  V30 14721 H 1452.23 5.32948 2.97991 0
M  V30 14722 H 1453.64 5.68549 0.736548 0
M  V30 14723 H 1452.04 6.00099 0.0109887 0
M  V30 14724 H 1453.11 4.79443 -0.725435 0
M  V30 14725 N 1454.45 0.0885642 1.57351 0
M  V30 14726 C 1455.4 -0.872723 2.13664 0
M  V30 14727 C 1456.37 -1.28418 1.05347 0
M  V30 14728 O 1457.55 -1.36709 1.33099 0
M  V30 14729 C 1454.69 -2.12886 2.71613 0
M  V30 14730 C 1453.81 -1.76852 3.94141 0
M  V30 14731 C 1452.94 -2.97203 4.40277 0
M  V30 14732 C 1451.98 -2.57265 5.55411 0
M  V30 14733 N 1451.12 -3.70429 5.96428 0
M  V30 14734 H 1455.96 -0.385644 2.95494 0
M  V30 14735 H 1453.49 -0.178688 1.46011 0
M  V30 14736 H 1455.45 -2.86441 3.03327 0
M  V30 14737 H 1454.08 -2.59105 1.92521 0
M  V30 14738 H 1453.13 -0.932921 3.68783 0
M  V30 14739 H 1454.45 -1.43481 4.77718 0
M  V30 14740 H 1453.6 -3.79019 4.7374 0
M  V30 14741 H 1452.34 -3.3378 3.55587 0
M  V30 14742 H 1451.34 -1.73875 5.21582 0
M  V30 14743 H 1452.57 -2.21839 6.41844 0
M  V30 14744 H 1450.51 -4.06737 5.14686 0
M  V30 14745 H 1450.43 -3.40881 6.74786 0
M  V30 14746 H 1451.7 -4.52774 6.3452 0
M  V30 14747 N 1455.93 -1.56509 -0.185096 0
M  V30 14748 C 1456.86 -1.91878 -1.25361 0
M  V30 14749 C 1457.87 -0.810443 -1.41194 0
M  V30 14750 O 1459.06 -1.08887 -1.41442 0
M  V30 14751 C 1456.16 -2.14433 -2.62434 0
M  V30 14752 C 1455.34 -3.45618 -2.6808 0
M  V30 14753 C 1454.39 -3.57165 -3.86419 0
M  V30 14754 O 1453.42 -4.29904 -3.73056 0
M  V30 14755 N 1454.62 -2.90993 -5.02298 0
M  V30 14756 H 1457.39 -2.84133 -0.953328 0
M  V30 14757 H 1454.95 -1.57498 -0.374955 0
M  V30 14758 H 1456.94 -2.19437 -3.40044 0
M  V30 14759 H 1455.51 -1.28629 -2.84909 0
M  V30 14760 H 1454.73 -3.52394 -1.76669 0
M  V30 14761 H 1456.02 -4.31968 -2.68851 0
M  V30 14762 H 1455.42 -2.31743 -5.16054 0
M  V30 14763 H 1453.97 -3.01611 -5.77819 0
M  V30 14764 N 1457.41 0.45317 -1.50944 0
M  V30 14765 C 1458.63 1.22672 -1.66611 0
M  V30 14766 C 1459.05 1.85398 -0.356814 0
M  V30 14767 O 1458.41 1.70026 0.663122 0
M  V30 14768 C 1458.46 2.32238 -2.77034 0
M  V30 14769 O 1458.18 1.72081 -4.02889 0
M  V30 14770 C 1459.68 3.22802 -3.03832 0
M  V30 14771 H 1456.9 0.370337 -0.559546 0
M  V30 14772 H 1459.44 0.538884 -1.97272 0
M  V30 14773 H 1457.6 2.96765 -2.49017 0
M  V30 14774 H 1458.01 2.4437 -4.64095 0
M  V30 14775 H 1459.49 3.95851 -3.84716 0
M  V30 14776 H 1459.96 3.82636 -2.15608 0
M  V30 14777 H 1460.57 2.63993 -3.33449 0
M  V30 14778 N 1458.88 1.40823 0.707568 0
M  V30 14779 C 1460.11 1.42659 1.49439 0
M  V30 14780 C 1460.52 0.0268475 1.89181 0
M  V30 14781 O 1459.87 -0.961444 1.56531 0
M  V30 14782 C 1459.93 2.26104 2.79494 0
M  V30 14783 C 1459.59 3.7442 2.62027 0
M  V30 14784 C 1460.59 4.66867 2.28759 0
M  V30 14785 C 1458.27 4.18328 2.78042 0
M  V30 14786 C 1460.27 6.01208 2.11727 0
M  V30 14787 C 1457.95 5.52736 2.60627 0
M  V30 14788 C 1458.95 6.43991 2.27518 0
M  V30 14789 O 1458.64 7.75921 2.10243 0
M  V30 14790 H 1458.37 0.488307 0.467475 0
M  V30 14791 H 1460.93 1.85607 0.879719 0
M  V30 14792 H 1459.16 1.77949 3.43323 0
M  V30 14793 H 1460.85 2.19785 3.41247 0
M  V30 14794 H 1461.61 4.34239 2.16012 0
M  V30 14795 H 1457.49 3.47612 3.02798 0
M  V30 14796 H 1461.03 6.724 1.85807 0
M  V30 14797 H 1456.93 5.84947 2.7296 0
M  V30 14798 H 1457.7 7.86938 2.251 0
M  V30 14799 N 1460.36 -0.94061 1.26453 0
M  V30 14800 C 1461.29 -2.04322 1.03852 0
M  V30 14801 C 1462.31 -1.628 -0.00122618 0
M  V30 14802 O 1463.5 -1.76894 0.238911 0
M  V30 14803 C 1460.6 -3.34394 0.550789 0
M  V30 14804 C 1459.77 -4.0468 1.6599 0
M  V30 14805 C 1458.83 -5.13025 1.17012 0
M  V30 14806 O 1457.85 -5.37699 1.8673 0
M  V30 14807 N 1459.06 -5.80497 0.0188478 0
M  V30 14808 H 1461.82 -2.24276 1.98797 0
M  V30 14809 H 1459.38 -1.11013 1.17846 0
M  V30 14810 H 1461.37 -4.04169 0.207305 0
M  V30 14811 H 1459.94 -3.11108 -0.30509 0
M  V30 14812 H 1459.16 -3.28813 2.17429 0
M  V30 14813 H 1460.45 -4.48392 2.40463 0
M  V30 14814 H 1459.85 -5.62888 -0.563368 0
M  V30 14815 H 1458.41 -6.51259 -0.265556 0
M  V30 14816 N 1461.84 -1.08266 -1.14527 0
M  V30 14817 C 1462.75 -0.723043 -2.2318 0
M  V30 14818 C 1463.77 0.269819 -1.71895 0
M  V30 14819 O 1464.94 0.114126 -2.01076 0
M  V30 14820 C 1462.01 -0.136229 -3.46432 0
M  V30 14821 C 1461.07 -1.18352 -4.12664 0
M  V30 14822 C 1460.3 -0.624612 -5.30032 0
M  V30 14823 O 1460.52 0.556377 -5.6768 0
M  V30 14824 O 1459.46 -1.37397 -5.86008 0
M  V30 14825 H 1463.28 -1.6294 -2.56289 0
M  V30 14826 H 1460.87 -0.856235 -1.22429 0
M  V30 14827 H 1462.75 0.18829 -4.20979 0
M  V30 14828 H 1461.43 0.74331 -3.1505 0
M  V30 14829 H 1460.33 -1.56054 -3.39997 0
M  V30 14830 H 1461.67 -2.03528 -4.48148 0
M  V30 14831 N 1463.32 1.31536 -0.86811 0
M  V30 14832 C 1464.27 2.28562 -0.320602 0
M  V30 14833 C 1465.24 1.55648 0.579902 0
M  V30 14834 O 1466.42 1.83804 0.51194 0
M  V30 14835 C 1463.56 3.41836 0.473499 0
M  V30 14836 C 1462.67 4.29604 -0.454311 0
M  V30 14837 C 1461.81 5.30021 0.353733 0
M  V30 14838 C 1460.85 6.09434 -0.570624 0
M  V30 14839 N 1459.99 7.01812 0.201058 0
M  V30 14840 H 1464.83 2.74782 -1.15322 0
M  V30 14841 H 1462.36 1.35179 -0.580088 0
M  V30 14842 H 1464.32 4.06248 0.949662 0
M  V30 14843 H 1462.95 2.96732 1.27083 0
M  V30 14844 H 1462 3.65653 -1.04892 0
M  V30 14845 H 1463.31 4.85048 -1.16316 0
M  V30 14846 H 1462.47 6.001 0.892484 0
M  V30 14847 H 1461.21 4.75228 1.09589 0
M  V30 14848 H 1460.21 5.38247 -1.12115 0
M  V30 14849 H 1461.44 6.66314 -1.3116 0
M  V30 14850 H 1459.38 6.49431 0.926058 0
M  V30 14851 H 1459.3 7.54668 -0.448494 0
M  V30 14852 H 1460.57 7.76157 0.7211 0
M  V30 14853 N 1464.8 0.627364 1.44575 0
M  V30 14854 C 1466.04 0.130545 2.02379 0
M  V30 14855 C 1466.38 -1.24301 1.49208 0
M  V30 14856 O 1465.65 -1.82425 0.674626 0
M  V30 14857 C 1465.93 0.11311 3.59922 0
M  V30 14858 C 1465.79 1.51874 4.23385 0
M  V30 14859 C 1467.11 -0.564341 4.36467 0
M  V30 14860 H 1464.23 0.0489125 0.735375 0
M  V30 14861 H 1466.87 0.803118 1.72192 0
M  V30 14862 H 1465.02 -0.459621 3.85772 0
M  V30 14863 H 1466.69 2.14007 4.08655 0
M  V30 14864 H 1464.93 2.07371 3.81024 0
M  V30 14865 H 1465.6 1.4586 5.3238 0
M  V30 14866 H 1468.08 -0.0773244 4.16028 0
M  V30 14867 H 1466.96 -0.545715 5.46181 0
M  V30 14868 H 1467.22 -1.63403 4.10794 0
M  V30 14869 N 1466.28 -1.53251 0.367684 0
M  V30 14870 C 1467.52 -2.03197 -0.221396 0
M  V30 14871 C 1467.88 -1.249 -1.45822 0
M  V30 14872 O 1469.08 -1.64863 -2.12306 0
M  V30 14873 C 1467.35 -3.53827 -0.504134 0
M  V30 14874 S 1468.91 -4.2564 -1.06658 0
M  V30 14875 H 1465.73 -0.708089 -0.0642774 0
M  V30 14876 H 1468.33 -1.88703 0.511037 0
M  V30 14877 H 1467.03 -4.08412 0.403477 0
M  V30 14878 H 1466.57 -3.72487 -1.26558 0
M  V30 14879 H 1468.58 -4.36987 -2.35068 0
M  V30 14880 N 1467.75 -0.0969077 -1.57302 0
M  V30 14881 C 1469 0.565254 -1.94034 0
M  V30 14882 C 1469.32 1.68609 -0.9796 0
M  V30 14883 O 1468.59 1.95874 -0.0319788 0
M  V30 14884 H 1467.17 0.211796 -0.716346 0
M  V30 14885 H 1469.83 -0.160665 -1.94237 0
M  V30 14886 H 1468.93 0.974268 -2.96504 0
M  V30 14887 N 1469.23 1.56605 0.176793 0
M  V30 14888 C 1470.16 1.99014 1.2213 0
M  V30 14889 C 1471.14 0.86487 1.46472 0
M  V30 14890 O 1472.33 1.13055 1.57899 0
M  V30 14891 C 1469.46 2.34534 2.56146 0
M  V30 14892 C 1468.41 3.4997 2.46384 0
M  V30 14893 C 1467.74 3.71217 3.8484 0
M  V30 14894 C 1469.04 4.83592 1.97323 0
M  V30 14895 H 1470.73 2.86517 0.8688 0
M  V30 14896 H 1468.28 1.37846 0.416481 0
M  V30 14897 H 1470.23 2.62799 3.29416 0
M  V30 14898 H 1468.95 1.43933 2.93174 0
M  V30 14899 H 1467.61 3.21824 1.75569 0
M  V30 14900 H 1467.26 2.77916 4.19251 0
M  V30 14901 H 1466.96 4.48885 3.79178 0
M  V30 14902 H 1468.49 4.01877 4.59704 0
M  V30 14903 H 1469.9 5.10768 2.60363 0
M  V30 14904 H 1468.3 5.64858 2.02622 0
M  V30 14905 H 1469.37 4.75951 0.927275 0
M  V30 14906 N 1470.71 -0.445159 1.51182 0
M  V30 14907 C 1471.95 -1.2048 1.65118 0
M  V30 14908 C 1472.31 -1.88673 0.35589 0
M  V30 14909 O 1473.51 -2.66228 0.370932 0
M  V30 14910 C 1471.79 -2.20075 2.81606 0
M  V30 14911 S 1473.34 -3.04631 3.15825 0
M  V30 14912 H 1470.16 -0.408682 0.581807 0
M  V30 14913 H 1472.76 -0.497601 1.89061 0
M  V30 14914 H 1471.47 -1.68603 3.74167 0
M  V30 14915 H 1471 -2.95387 2.59827 0
M  V30 14916 H 1473.01 -4.21606 2.61654 0
M  V30 14917 N 1472.19 -1.41197 -0.700089 0
M  V30 14918 C 1473.44 -1.40034 -1.45722 0
M  V30 14919 C 1473.76 -0.00876281 -1.94998 0
M  V30 14920 O 1473.03 0.948647 -1.71399 0
M  V30 14921 H 1471.61 -0.515433 -0.540683 0
M  V30 14922 H 1474.27 -1.76394 -0.828926 0
M  V30 14923 H 1473.36 -2.08477 -2.32258 0
M  V30 14924 N 1473.67 0.933891 -1.2695 0
M  V30 14925 C 1474.61 2.05498 -1.08964 0
M  V30 14926 C 1475.61 1.69394 -0.0144837 0
M  V30 14927 O 1476.81 1.79179 -0.171729 0
M  V30 14928 H 1473.19 0.672978 -0.335566 0
M  V30 14929 H 1475.16 2.17817 -2.03957 0
M  V30 14930 C 1473.91 3.39579 -0.747074 0
M  V30 14931 H 1473.23 3.67842 -1.56628 0
M  V30 14932 H 1474.67 4.18815 -0.661064 0
M  V30 14933 C 1473.13 3.3241 0.548214 0
M  V30 14934 O 1473.66 3.69132 1.58443 0
M  V30 14935 N 1471.87 2.85509 0.541545 0
M  V30 14936 H 1471.41 2.55822 -0.302112 0
M  V30 14937 H 1471.37 2.81095 1.4083 0
M  V30 14938 N 1475.14 1.08871 1.13951 0
M  V30 14939 C 1476.39 0.821287 1.85098 0
M  V30 14940 C 1476.72 -0.65302 1.8321 0
M  V30 14941 O 1475.97 -1.49629 1.26134 0
M  V30 14942 C 1476.27 1.29443 3.33135 0
M  V30 14943 C 1475.94 2.77737 3.55208 0
M  V30 14944 C 1474.6 3.18238 3.60941 0
M  V30 14945 C 1476.95 3.7338 3.63644 0
M  V30 14946 C 1474.28 4.53165 3.72637 0
M  V30 14947 C 1476.63 5.08089 3.76867 0
M  V30 14948 C 1475.3 5.48187 3.8085 0
M  V30 14949 H 1474.57 0.30053 0.67732 0
M  V30 14950 H 1477.21 1.36249 1.34568 0
M  V30 14951 H 1475.52 0.672919 3.85978 0
M  V30 14952 H 1477.22 1.06421 3.86621 0
M  V30 14953 H 1473.81 2.45393 3.51398 0
M  V30 14954 H 1477.99 3.43207 3.58501 0
M  V30 14955 H 1473.25 4.83679 3.73985 0
M  V30 14956 H 1477.42 5.82058 3.82337 0
M  V30 14957 H 1475.05 6.52737 3.89665 0
M  V30 14958 N 1476.62 -1.31073 0.875073 0
M  V30 14959 C 1477.9 -1.91276 0.409015 0
M  V30 14960 C 1478.28 -1.79599 -1.10939 0
M  V30 14961 O 1477.63 -1.2069 -1.94026 0
M  V30 14962 C 1477.84 -3.373 0.896074 0
M  V30 14963 C 1479.18 -4.14397 0.925205 0
M  V30 14964 O 1480.21 -3.46104 0.842069 0
M  V30 14965 O 1479.07 -5.36389 1.0464 0
M  V30 14966 H 1476.16 -0.817755 0.12331 0
M  V30 14967 H 1478.71 -1.39708 0.963322 0
M  V30 14968 H 1477.48 -3.39837 1.93975 0
M  V30 14969 H 1477.1 -3.96307 0.320367 0
M  V30 14970 N 1478.1 -0.635022 -1.4424 0
M  V30 14971 C 1479.35 -0.140788 -2.01609 0
M  V30 14972 C 1479.67 1.24317 -1.50234 0
M  V30 14973 O 1478.94 1.82677 -0.707519 0
M  V30 14974 H 1477.52 -0.0490568 -0.745387 0
M  V30 14975 H 1480.18 -0.8226 -1.7669 0
M  V30 14976 H 1479.28 -0.111456 -3.11901 0
M  V30 14977 N 1479.58 1.53054 -0.375806 0
M  V30 14978 C 1480.83 2.00584 0.211847 0
M  V30 14979 C 1481.14 1.26692 1.49025 0
M  V30 14980 O 1482.35 1.64863 2.15713 0
M  V30 14981 C 1480.8 3.57345 0.428074 0
M  V30 14982 C 1480.41 4.40125 -0.836299 0
M  V30 14983 C 1482.15 4.13203 0.972825 0
M  V30 14984 C 1480.06 5.88459 -0.589093 0
M  V30 14985 H 1478.99 0.749424 0.0829412 0
M  V30 14986 H 1481.64 1.76666 -0.496126 0
M  V30 14987 H 1480.02 3.77458 1.19756 0
M  V30 14988 H 1481.2 4.31782 -1.60936 0
M  V30 14989 H 1479.51 3.95422 -1.30501 0
M  V30 14990 H 1482.11 5.21669 1.17326 0
M  V30 14991 H 1482.45 3.68441 1.93797 0
M  V30 14992 H 1482.99 3.96928 0.263249 0
M  V30 14993 H 1479.73 6.37517 -1.52485 0
M  V30 14994 H 1479.25 5.99624 0.145285 0
M  V30 14995 H 1480.92 6.46631 -0.218485 0
M  V30 14996 N 1481.06 0.105248 1.57248 0
M  V30 14997 C 1481.99 -0.880221 2.11624 0
M  V30 14998 C 1483 -1.23924 1.05578 0
M  V30 14999 O 1484.19 -1.19059 1.32994 0
M  V30 15000 C 1481.29 -2.18628 2.5895 0
M  V30 15001 C 1480.46 -2.00105 3.88943 0
M  V30 15002 C 1479.52 -3.14315 4.2201 0
M  V30 15003 O 1478.55 -2.87832 4.91061 0
M  V30 15004 N 1479.75 -4.4037 3.78226 0
M  V30 15005 H 1482.52 -0.415742 2.96802 0
M  V30 15006 H 1480.08 -0.0795714 1.61704 0
M  V30 15007 H 1482.07 -2.94002 2.7811 0
M  V30 15008 H 1480.64 -2.56467 1.78727 0
M  V30 15009 H 1479.86 -1.09003 3.7883 0
M  V30 15010 H 1481.15 -1.85018 4.73968 0
M  V30 15011 H 1480.54 -4.64765 3.22506 0
M  V30 15012 H 1479.1 -5.1266 4.02521 0
M  V30 15013 N 1482.53 -1.56697 -0.168486 0
M  V30 15014 C 1483.48 -1.9755 -1.22787 0
M  V30 15015 C 1484.48 -0.864668 -1.4567 0
M  V30 15016 O 1485.68 -1.04979 -1.46217 0
M  V30 15017 H 1482.06 -0.628561 -0.412813 0
M  V30 15018 H 1484.03 -2.85845 -0.85646 0
M  V30 15019 C 1482.78 -2.35394 -2.559 0
M  V30 15020 H 1482.1 -3.20412 -2.39115 0
M  V30 15021 H 1483.54 -2.67821 -3.28706 0
M  V30 15022 C 1482 -1.19842 -3.14864 0
M  V30 15023 O 1482.53 -0.487601 -3.9873 0
M  V30 15024 N 1480.74 -0.968249 -2.73995 0
M  V30 15025 H 1480.28 -1.54804 -2.05897 0
M  V30 15026 H 1480.24 -0.196951 -3.13783 0
M  V30 15027 N 1484.01 0.437135 -1.51416 0
M  V30 15028 C 1484.96 1.55124 -1.73319 0
M  V30 15029 C 1485.95 1.58437 -0.599511 0
M  V30 15030 O 1487.16 1.62179 -0.780896 0
M  V30 15031 H 1483.54 0.515368 -0.547632 0
M  V30 15032 H 1485.51 1.33824 -2.66709 0
M  V30 15033 C 1484.26 2.92778 -1.87554 0
M  V30 15034 H 1483.58 2.9096 -2.74194 0
M  V30 15035 H 1485.02 3.70097 -2.06891 0
M  V30 15036 C 1483.48 3.30854 -0.635408 0
M  V30 15037 O 1484.01 4.01152 0.20983 0
M  V30 15038 N 1482.21 2.86618 -0.47944 0
M  V30 15039 H 1481.76 2.29582 -1.16834 0
M  V30 15040 H 1481.72 3.12456 0.349078 0
M  V30 15041 N 1485.49 1.41566 0.692592 0
M  V30 15042 C 1486.77 1.31572 1.44735 0
M  V30 15043 C 1487.15 -0.0553081 2.11028 0
M  V30 15044 O 1486.5 -1.06974 2.01913 0
M  V30 15045 C 1486.71 2.47125 2.46435 0
M  V30 15046 C 1488.05 2.88427 3.11601 0
M  V30 15047 O 1489.08 2.46886 2.5676 0
M  V30 15048 O 1487.94 3.6027 4.10935 0
M  V30 15049 H 1485.03 0.517949 0.644715 0
M  V30 15050 H 1487.58 1.53536 0.722818 0
M  V30 15051 H 1486.35 3.38601 1.96124 0
M  V30 15052 H 1485.97 2.27054 3.26393 0
M  V30 15053 N 1486.97 -0.927146 1.27443 0
M  V30 15054 C 1487.9 -2.04483 1.12735 0
M  V30 15055 C 1488.88 -1.70076 0.0286662 0
M  V30 15056 O 1490.06 -1.93133 0.203252 0
M  V30 15057 C 1487.19 -3.38557 0.774352 0
M  V30 15058 C 1486.15 -3.87078 1.82632 0
M  V30 15059 C 1485.47 -5.17964 1.32729 0
M  V30 15060 C 1486.77 -4.10409 3.23051 0
M  V30 15061 H 1488.47 -2.17046 2.06231 0
M  V30 15062 H 1486.01 -1.04292 0.992937 0
M  V30 15063 H 1487.97 -4.16227 0.658273 0
M  V30 15064 H 1486.69 -3.26009 -0.196321 0
M  V30 15065 H 1485.35 -3.11602 1.93132 0
M  V30 15066 H 1485 -5.01808 0.346059 0
M  V30 15067 H 1484.7 -5.51398 2.03061 0
M  V30 15068 H 1486.22 -5.98203 1.22416 0
M  V30 15069 H 1487.64 -4.78646 3.15549 0
M  V30 15070 H 1486.03 -4.5515 3.91099 0
M  V30 15071 H 1487.1 -3.15685 3.68064 0
M  V30 15072 N 1488.45 -1.09474 -1.13372 0
M  V30 15073 C 1489.67 -0.852921 -1.88502 0
M  V30 15074 C 1490.09 0.595855 -1.79151 0
M  V30 15075 O 1489.45 1.41019 -1.15845 0
M  V30 15076 C 1489.5 -1.27993 -3.38083 0
M  V30 15077 O 1489.22 -2.67189 -3.47191 0
M  V30 15078 C 1490.72 -1.07056 -4.30179 0
M  V30 15079 H 1487.94 -0.30682 -0.596743 0
M  V30 15080 H 1490.48 -1.45685 -1.43513 0
M  V30 15081 H 1488.64 -0.719879 -3.80653 0
M  V30 15082 H 1489.05 -2.85202 -4.40182 0
M  V30 15083 H 1490.53 -1.4186 -5.3346 0
M  V30 15084 H 1491 -0.00838732 -4.39199 0
M  V30 15085 H 1491.61 -1.61659 -3.93378 0
M  V30 15086 N 1489.92 1.30607 -0.882012 0
M  V30 15087 C 1491.15 2.00954 -0.513048 0
M  V30 15088 C 1491.57 1.65697 0.890279 0
M  V30 15089 O 1490.93 0.872001 1.58952 0
M  V30 15090 C 1490.98 3.53907 -0.691525 0
M  V30 15091 O 1490.08 4.11555 0.263896 0
M  V30 15092 H 1489.43 0.632356 -0.202537 0
M  V30 15093 H 1491.96 1.66524 -1.18874 0
M  V30 15094 H 1491.97 4.0372 -0.589392 0
M  V30 15095 H 1490.64 3.78907 -1.71471 0
M  V30 15096 H 1489.22 3.7272 0.115707 0
M  V30 15097 N 1491.4 0.642663 1.43901 0
M  V30 15098 C 1492.63 0.157518 2.06801 0
M  V30 15099 C 1493.05 -1.16361 1.47789 0
M  V30 15100 O 1492.41 -1.71645 0.583747 0
M  V30 15101 C 1492.46 0.0685904 3.60535 0
M  V30 15102 O 1491.56 -0.972183 4.00777 0
M  V30 15103 H 1490.9 0.0900406 0.657867 0
M  V30 15104 H 1493.43 0.882604 1.84584 0
M  V30 15105 H 1493.44 -0.118212 4.07829 0
M  V30 15106 H 1492.12 1.03307 4.02865 0
M  V30 15107 H 1490.7 -0.75902 3.65094 0
M  V30 15108 N 1492.88 -1.52852 0.383918 0
M  V30 15109 C 1493.83 -2.27828 -0.468762 0
M  V30 15110 C 1494.82 -1.31516 -1.0677 0
M  V30 15111 O 1496.03 -1.49075 -1.0088 0
M  V30 15112 H 1492.4 -0.732552 -0.169917 0
M  V30 15113 H 1494.38 -2.97825 0.185124 0
M  V30 15114 C 1493.12 -3.09378 -1.58683 0
M  V30 15115 H 1492.45 -3.83343 -1.13527 0
M  V30 15116 H 1493.89 -3.64987 -2.15779 0
M  V30 15117 C 1492.35 -2.21354 -2.53976 0
M  V30 15118 O 1492.88 -1.83668 -3.57252 0
M  V30 15119 N 1491.08 -1.85621 -2.23591 0
M  V30 15120 H 1490.63 -2.16467 -1.39642 0
M  V30 15121 H 1490.59 -1.27015 -2.87602 0
M  V30 15122 N 1494.36 -0.113586 -1.5719 0
M  V30 15123 C 1495.29 0.835363 -2.18046 0
M  V30 15124 C 1496.27 1.28114 -1.11897 0
M  V30 15125 O 1497.46 1.34472 -1.40111 0
M  V30 15126 C 1494.59 2.08759 -2.77556 0
M  V30 15127 C 1493.54 1.77979 -3.8924 0
M  V30 15128 C 1492.87 3.10185 -4.35533 0
M  V30 15129 C 1494.17 1.05231 -5.11589 0
M  V30 15130 H 1495.86 0.328275 -2.97595 0
M  V30 15131 H 1493.41 0.156456 -1.43148 0
M  V30 15132 H 1495.36 2.75597 -3.18785 0
M  V30 15133 H 1494.08 2.61783 -1.95288 0
M  V30 15134 H 1492.74 1.13532 -3.48577 0
M  V30 15135 H 1492.39 3.61133 -3.50131 0
M  V30 15136 H 1492.09 2.90367 -5.10843 0
M  V30 15137 H 1493.61 3.78151 -4.7941 0
M  V30 15138 H 1495.03 1.62213 -5.49872 0
M  V30 15139 H 1493.42 0.955269 -5.92448 0
M  V30 15140 H 1494.49 0.038137 -4.84885 0
M  V30 15141 N 1495.84 1.56784 0.160173 0
M  V30 15142 C 1496.77 1.93848 1.22293 0
M  V30 15143 C 1497.78 0.832803 1.39886 0
M  V30 15144 O 1498.97 1.11124 1.39692 0
M  V30 15145 C 1496.07 2.18581 2.58989 0
M  V30 15146 C 1495.24 3.49839 2.62548 0
M  V30 15147 C 1494.3 3.63268 3.80687 0
M  V30 15148 O 1493.33 4.35785 3.6617 0
M  V30 15149 N 1494.53 2.98948 4.97605 0
M  V30 15150 H 1497.3 2.85614 0.908004 0
M  V30 15151 H 1494.86 1.58075 0.349851 0
M  V30 15152 H 1496.85 2.24819 3.36509 0
M  V30 15153 H 1495.42 1.33145 2.82827 0
M  V30 15154 H 1494.64 3.5516 1.7104 0
M  V30 15155 H 1495.93 4.3619 2.61945 0
M  V30 15156 H 1495.33 2.39924 5.12302 0
M  V30 15157 H 1493.88 3.10765 5.72947 0
M  V30 15158 N 1497.32 -0.429099 1.51646 0
M  V30 15159 C 1498.56 -1.17958 1.64966 0
M  V30 15160 C 1498.89 -1.90667 0.368755 0
M  V30 15161 O 1498.17 -1.83945 -0.632023 0
M  V30 15162 C 1498.45 -2.19002 2.8585 0
M  V30 15163 C 1498.31 -1.50321 4.23938 0
M  V30 15164 C 1499.62 -3.19895 3.0225 0
M  V30 15165 H 1496.74 -0.427474 0.600362 0
M  V30 15166 H 1499.39 -0.46777 1.84152 0
M  V30 15167 H 1497.54 -2.79707 2.69623 0
M  V30 15168 H 1499.21 -0.928902 4.51851 0
M  V30 15169 H 1497.45 -0.805431 4.26257 0
M  V30 15170 H 1498.12 -2.2395 5.0453 0
M  V30 15171 H 1500.6 -2.69251 3.17243 0
M  V30 15172 H 1499.47 -3.8788 3.88381 0
M  V30 15173 H 1499.73 -3.86477 2.14682 0
M  V30 15174 N 1498.79 -1.41931 -0.685074 0
M  V30 15175 C 1499.7 -1.46985 -1.82846 0
M  V30 15176 C 1500.72 -0.359487 -1.70246 0
M  V30 15177 O 1501.9 -0.608824 -1.91977 0
M  V30 15178 C 1498.96 -1.36001 -3.18912 0
M  V30 15179 C 1498.02 -2.57442 -3.43543 0
M  V30 15180 C 1497.25 -2.46972 -4.73118 0
M  V30 15181 O 1497.48 -1.49999 -5.50324 0
M  V30 15182 O 1496.41 -3.36922 -4.98766 0
M  V30 15183 H 1500.24 -2.4347 -1.81538 0
M  V30 15184 H 1497.82 -1.23583 -0.839497 0
M  V30 15185 H 1499.7 -1.32198 -4.00127 0
M  V30 15186 H 1498.38 -0.426366 -3.2088 0
M  V30 15187 H 1497.29 -2.66821 -2.62217 0
M  V30 15188 H 1498.62 -3.49671 -3.46398 0
M  V30 15189 N 1500.27 0.920374 -1.27933 0
M  V30 15190 C 1501.18 2.05525 -1.13123 0
M  V30 15191 C 1502.2 1.73899 -0.059421 0
M  V30 15192 O 1503.37 1.99617 -0.267386 0
M  V30 15193 C 1500.44 3.37637 -0.787551 0
M  V30 15194 C 1499.5 3.82914 -1.94101 0
M  V30 15195 C 1498.73 5.08721 -1.61364 0
M  V30 15196 O 1498.96 5.6798 -0.524918 0
M  V30 15197 O 1497.89 5.4955 -2.45517 0
M  V30 15198 H 1501.72 2.20935 -2.08378 0
M  V30 15199 H 1499.3 1.04071 -1.07189 0
M  V30 15200 H 1501.18 4.16968 -0.609544 0
M  V30 15201 H 1499.86 3.23417 0.135407 0
M  V30 15202 H 1498.76 3.04438 -2.17413 0
M  V30 15203 H 1500.1 4.01687 -2.84444 0
M  V30 15204 N 1501.75 1.10074 1.1279 0
M  V30 15205 C 1503.03 0.753069 1.80522 0
M  V30 15206 C 1503.41 -0.760982 1.96907 0
M  V30 15207 O 1502.75 -1.68584 1.54245 0
M  V30 15208 C 1502.96 1.49982 3.15129 0
M  V30 15209 C 1504.31 1.66993 3.90382 0
M  V30 15210 O 1505.34 1.46289 3.24774 0
M  V30 15211 O 1504.2 2.01293 5.08078 0
M  V30 15212 H 1501.29 0.271277 0.781241 0
M  V30 15213 H 1503.84 1.20333 1.19658 0
M  V30 15214 H 1502.61 2.53043 2.98471 0
M  V30 15215 H 1502.23 1.04217 3.83699 0
M  V30 15216 N 1503.23 -1.30138 0.888926 0
M  V30 15217 C 1504.64 -1.78124 0.559346 0
M  V30 15218 C 1504.99 -1.73046 -0.924633 0
M  V30 15219 O 1504.11 -1.30974 -1.72264 0
M  V30 15220 C 1504.71 -3.2344 1.00856 0
M  V30 15221 C 1503.27 -3.69247 0.730332 0
M  V30 15222 C 1502.42 -2.505 1.18933 0
M  V30 15223 H 1505.37 -1.16952 1.07275 0
M  V30 15224 H 1505.39 -3.78985 0.339219 0
M  V30 15225 H 1504.9 -3.27104 2.08865 0
M  V30 15226 H 1503 -3.71067 -0.337599 0
M  V30 15227 H 1503.11 -4.60538 1.32066 0
M  V30 15228 H 1501.48 -2.47323 0.608568 0
M  V30 15229 H 1502.26 -2.56899 2.27724 0
M  V30 15230 N 1504.71 -0.650285 -1.43559 0
M  V30 15231 C 1505.95 -0.162725 -2.02146 0
M  V30 15232 C 1506.28 1.21911 -1.51166 0
M  V30 15233 O 1505.56 1.81329 -0.703563 0
M  V30 15234 C 1505.84 -0.170356 -3.59697 0
M  V30 15235 C 1505.7 -1.5859 -4.20915 0
M  V30 15236 C 1507.01 0.494831 -4.37309 0
M  V30 15237 H 1504.13 -0.0606055 -0.734504 0
M  V30 15238 H 1506.78 -0.830411 -1.70892 0
M  V30 15239 H 1504.93 0.39819 -3.86454 0
M  V30 15240 H 1506.6 -2.20481 -4.05199 0
M  V30 15241 H 1504.84 -2.13407 -3.77677 0
M  V30 15242 H 1505.51 -1.54312 -5.29992 0
M  V30 15243 H 1507.99 0.0111281 -4.16099 0
M  V30 15244 H 1506.86 0.458753 -5.4698 0
M  V30 15245 H 1507.12 1.56846 -4.13342 0
M  V30 15246 N 1506.18 1.52647 -0.392018 0
M  V30 15247 C 1507.46 1.94034 0.247004 0
M  V30 15248 C 1507.84 1.32767 1.64122 0
M  V30 15249 O 1507.19 0.496822 2.23033 0
M  V30 15250 C 1507.4 3.47949 0.270615 0
M  V30 15251 C 1508.75 4.21666 0.498256 0
M  V30 15252 O 1509.77 3.54469 0.350708 0
M  V30 15253 O 1508.63 5.40795 0.787586 0
M  V30 15254 H 1505.72 0.812487 0.154251 0
M  V30 15255 H 1508.27 1.63715 -0.446723 0
M  V30 15256 H 1507.04 3.84881 -0.705862 0
M  V30 15257 H 1506.66 3.8458 1.00915 0
M  V30 15258 N 1507.66 0.121921 1.57128 0
M  V30 15259 C 1508.91 -0.535371 1.95295 0
M  V30 15260 C 1509.24 -1.665 1.00539 0
M  V30 15261 O 1508.49 -1.95677 0.0298129 0
M  V30 15262 C 1508.79 -1.10579 3.39863 0
M  V30 15263 C 1508.46 -0.0972144 4.50795 0
M  V30 15264 C 1507.12 0.180111 4.80863 0
M  V30 15265 C 1509.47 0.589973 5.1785 0
M  V30 15266 C 1506.8 1.15086 5.75302 0
M  V30 15267 C 1509.15 1.54937 6.13333 0
M  V30 15268 C 1507.82 1.83465 6.41792 0
M  V30 15269 H 1507.09 -0.195906 0.714634 0
M  V30 15270 H 1509.73 0.203445 1.90416 0
M  V30 15271 H 1508.04 -1.92143 3.4145 0
M  V30 15272 H 1509.73 -1.62252 3.66709 0
M  V30 15273 H 1506.32 -0.32355 4.27377 0
M  V30 15274 H 1510.51 0.38889 4.94774 0
M  V30 15275 H 1505.76 1.3786 5.95655 0
M  V30 15276 H 1509.94 2.08751 6.64376 0
M  V30 15277 H 1507.57 2.58841 7.14777 0
M  V30 15278 N 1509.14 -1.56867 -0.151857 0
M  V30 15279 C 1510.39 -1.82721 -0.863575 0
M  V30 15280 C 1510.71 -0.702042 -1.81924 0
M  V30 15281 O 1509.98 0.27668 -1.93936 0
M  V30 15282 H 1508.56 -0.674088 -0.321893 0
M  V30 15283 H 1511.22 -1.94345 -0.14702 0
M  V30 15284 H 1510.32 -2.77476 -1.42876 0
M  V30 15285 N 1510.62 0.421051 -1.51871 0
M  V30 15286 C 1511.57 1.53277 -1.74954 0
M  V30 15287 C 1512.56 1.57792 -0.616282 0
M  V30 15288 O 1513.77 1.61342 -0.798054 0
M  V30 15289 H 1510.14 0.50953 -0.553067 0
M  V30 15290 H 1512.11 1.30988 -2.68113 0
M  V30 15291 C 1510.86 2.90772 -1.90649 0
M  V30 15292 H 1510.18 2.88035 -2.77265 0
M  V30 15293 H 1511.62 3.67882 -2.10805 0
M  V30 15294 C 1510.08 3.30161 -0.670463 0
M  V30 15295 O 1510.61 4.01352 0.167271 0
M  V30 15296 N 1508.82 2.86093 -0.509813 0
M  V30 15297 H 1508.37 2.28329 -1.19262 0
M  V30 15298 H 1508.32 3.12809 0.315918 0
M  V30 15299 N 1512.1 1.42293 0.677538 0
M  V30 15300 C 1513.32 1.46214 1.47092 0
M  V30 15301 C 1513.75 0.0740989 1.87954 0
M  V30 15302 O 1513.1 -0.926831 1.55819 0
M  V30 15303 C 1513.15 2.39236 2.69812 0
M  V30 15304 O 1512.26 1.86183 3.6798 0
M  V30 15305 H 1511.6 0.495507 0.442006 0
M  V30 15306 H 1514.13 1.86952 0.831274 0
M  V30 15307 H 1514.14 2.55723 3.17915 0
M  V30 15308 H 1512.81 3.40081 2.39411 0
M  V30 15309 H 1511.39 1.79237 3.26999 0
M  V30 15310 N 1513.57 -0.913576 1.28419 0
M  V30 15311 C 1514.82 -1.66546 1.16765 0
M  V30 15312 C 1515.18 -1.90338 -0.280935 0
M  V30 15313 O 1514.47 -1.49279 -1.2011 0
M  V30 15314 C 1514.66 -3.02722 1.89985 0
M  V30 15315 C 1514.49 -2.9222 3.41815 0
M  V30 15316 C 1513.26 -2.93735 4.11154 0
M  V30 15317 C 1515.46 -2.70279 4.37554 0
M  V30 15318 N 1513.44 -2.73824 5.49448 0
M  V30 15319 C 1514.81 -2.59213 5.63213 0
M  V30 15320 C 1516.87 -2.55278 4.27478 0
M  V30 15321 C 1515.57 -2.34673 6.79942 0
M  V30 15322 C 1517.6 -2.32118 5.43944 0
M  V30 15323 C 1516.96 -2.21806 6.68567 0
M  V30 15324 H 1513.06 -0.615629 0.482208 0
M  V30 15325 H 1515.64 -1.07892 1.62072 0
M  V30 15326 H 1513.81 -3.59462 1.47112 0
M  V30 15327 H 1515.54 -3.66932 1.70714 0
M  V30 15328 H 1512.3 -3.04498 3.62736 0
M  V30 15329 H 1512.72 -2.6696 6.22143 0
M  V30 15330 H 1517.37 -2.62001 3.31836 0
M  V30 15331 H 1515.08 -2.26689 7.75653 0
M  V30 15332 H 1518.67 -2.21375 5.38038 0
M  V30 15333 H 1517.55 -2.0413 7.57166 0
M  V30 15334 N 1515.05 -1.1067 -1.12204 0
M  V30 15335 C 1516 -0.757745 -2.18007 0
M  V30 15336 C 1516.97 0.26706 -1.63939 0
M  V30 15337 O 1518.15 0.145789 -1.90242 0
M  V30 15338 C 1515.29 -0.198379 -3.44529 0
M  V30 15339 C 1514.41 -1.27878 -4.12639 0
M  V30 15340 C 1513.54 -0.6808 -5.26819 0
M  V30 15341 C 1512.58 -1.74161 -5.868 0
M  V30 15342 N 1511.72 -1.16372 -6.92389 0
M  V30 15343 H 1516.56 -1.66418 -2.47202 0
M  V30 15344 H 1514.1 -0.831216 -1.21364 0
M  V30 15345 H 1516.05 0.143838 -4.16952 0
M  V30 15346 H 1514.68 0.671279 -3.15743 0
M  V30 15347 H 1513.74 -1.73808 -3.38371 0
M  V30 15348 H 1515.05 -2.08169 -4.53285 0
M  V30 15349 H 1514.2 -0.288172 -6.06015 0
M  V30 15350 H 1512.94 0.153521 -4.87458 0
M  V30 15351 H 1511.95 -2.14364 -5.06289 0
M  V30 15352 H 1513.17 -2.57882 -6.28231 0
M  V30 15353 H 1511.12 -0.350899 -6.55061 0
M  V30 15354 H 1511.03 -1.90344 -7.31646 0
M  V30 15355 H 1512.3 -0.797715 -7.75407 0
M  V30 15356 N 1516.53 1.29665 -0.895815 0
M  V30 15357 C 1517.78 1.96006 -0.520522 0
M  V30 15358 C 1518.11 1.7048 0.930068 0
M  V30 15359 O 1517.38 1.01558 1.6588 0
M  V30 15360 C 1517.67 3.50897 -0.808925 0
M  V30 15361 C 1517.52 3.85896 -2.31093 0
M  V30 15362 C 1518.84 4.39125 -0.292769 0
M  V30 15363 H 1515.96 0.711931 -0.190588 0
M  V30 15364 H 1518.6 1.53349 -1.12179 0
M  V30 15365 H 1516.75 3.87362 -0.297194 0
M  V30 15366 H 1518.42 3.59397 -2.89191 0
M  V30 15367 H 1516.67 3.33578 -2.77323 0
M  V30 15368 H 1517.34 4.93989 -2.46331 0
M  V30 15369 H 1519.81 4.0963 -0.730906 0
M  V30 15370 H 1518.69 5.46395 -0.523799 0
M  V30 15371 H 1518.95 4.34683 0.806393 0
M  V30 15372 N 1518.01 0.657889 1.43212 0
M  V30 15373 C 1519.23 0.179444 2.06622 0
M  V30 15374 C 1519.66 -1.14787 1.49015 0
M  V30 15375 O 1519.02 -1.71016 0.60192 0
M  V30 15376 C 1519.06 0.106826 3.60442 0
M  V30 15377 O 1518.17 -0.92962 4.01786 0
M  V30 15378 H 1517.51 0.0970131 0.656875 0
M  V30 15379 H 1520.04 0.902132 1.83638 0
M  V30 15380 H 1520.05 -0.07495 4.07931 0
M  V30 15381 H 1518.72 1.07574 4.01747 0
M  V30 15382 H 1517.3 -0.720255 3.65878 0
M  V30 15383 N 1519.49 -1.52437 0.400108 0
M  V30 15384 C 1520.71 -2.0661 -0.180861 0
M  V30 15385 C 1521.14 -1.269 -1.38845 0
M  V30 15386 O 1520.49 -0.296862 -1.78853 0
M  V30 15387 C 1520.54 -3.56851 -0.518595 0
M  V30 15388 O 1519.65 -3.79634 -1.61095 0
M  V30 15389 H 1518.99 -0.663752 -0.0181348 0
M  V30 15390 H 1521.52 -1.96479 0.570702 0
M  V30 15391 H 1521.53 -4.00478 -0.779817 0
M  V30 15392 H 1520.2 -4.14302 0.364216 0
M  V30 15393 H 1518.78 -3.47892 -1.3426 0
M  V30 15394 N 1520.96 -0.130252 -1.57061 0
M  V30 15395 C 1521.9 0.846442 -2.12998 0
M  V30 15396 C 1522.91 1.22229 -1.07536 0
M  V30 15397 O 1524.1 1.16928 -1.34871 0
M  V30 15398 C 1521.2 2.14481 -2.62395 0
M  V30 15399 C 1520.37 1.93892 -3.92077 0
M  V30 15400 C 1519.43 3.07562 -4.26957 0
M  V30 15401 O 1518.46 2.79983 -4.95578 0
M  V30 15402 N 1519.66 4.34297 -3.85184 0
M  V30 15403 H 1522.42 0.368471 -2.97426 0
M  V30 15404 H 1519.98 0.0538355 -1.6181 0
M  V30 15405 H 1521.98 2.8954 -2.82752 0
M  V30 15406 H 1520.55 2.53592 -1.82784 0
M  V30 15407 H 1519.77 1.02962 -3.80516 0
M  V30 15408 H 1521.05 1.77454 -4.76852 0
M  V30 15409 H 1520.45 4.59575 -3.29859 0
M  V30 15410 H 1519.01 5.06191 -4.10626 0
M  V30 15411 N 1522.44 1.56945 0.143535 0
M  V30 15412 C 1523.68 1.85347 0.861738 0
M  V30 15413 C 1524.05 0.715009 1.7819 0
M  V30 15414 O 1525.25 0.880162 2.53981 0
M  V30 15415 C 1523.52 3.18937 1.61288 0
M  V30 15416 S 1525.08 3.68904 2.37603 0
M  V30 15417 H 1521.9 0.650015 0.2881 0
M  V30 15418 H 1524.5 1.95122 0.121527 0
M  V30 15419 H 1523.2 3.9976 0.928434 0
M  V30 15420 H 1522.73 3.12176 2.39394 0
M  V30 15421 H 1524.75 3.38445 3.62863 0
M  V30 15422 N 1523.92 -0.412991 1.52093 0
M  V30 15423 C 1524.88 -1.48555 1.7454 0
M  V30 15424 C 1525.88 -1.48563 0.615283 0
M  V30 15425 O 1527.07 -1.50155 0.883119 0
M  V30 15426 C 1524.21 -2.87984 1.82423 0
M  V30 15427 H 1525.4 -1.29945 2.70285 0
M  V30 15428 H 1522.95 -0.643241 1.4245 0
M  V30 15429 H 1523.69 -3.11969 0.885777 0
M  V30 15430 H 1523.47 -2.89381 2.64577 0
M  V30 15431 H 1524.96 -3.65745 2.01545 0
M  V30 15432 N 1525.4 -1.4265 -0.669982 0
M  V30 15433 C 1526.68 -1.33858 -1.42623 0
M  V30 15434 C 1527.06 0.0217285 -2.11089 0
M  V30 15435 O 1526.4 1.03748 -2.03589 0
M  V30 15436 C 1526.61 -2.51015 -2.42472 0
M  V30 15437 C 1527.96 -2.93348 -3.06972 0
M  V30 15438 O 1528.99 -2.5094 -2.52799 0
M  V30 15439 O 1527.85 -3.66762 -4.05151 0
M  V30 15440 H 1524.94 -0.528141 -0.636393 0
M  V30 15441 H 1527.49 -1.54667 -0.6983 0
M  V30 15442 H 1526.26 -3.41679 -1.90713 0
M  V30 15443 H 1525.88 -2.32218 -3.2274 0
M  V30 15444 N 1526.88 0.906753 -1.28902 0
M  V30 15445 C 1528.11 1.69019 -1.19333 0
M  V30 15446 C 1528.52 1.87176 0.247065 0
M  V30 15447 O 1527.88 1.40376 1.16623 0
M  V30 15448 C 1527.93 3.07854 -1.89495 0
M  V30 15449 O 1527.65 2.90531 -3.27908 0
M  V30 15450 C 1529.15 4.02246 -1.86314 0
M  V30 15451 H 1526.37 0.528119 -0.413922 0
M  V30 15452 H 1528.91 1.13441 -1.70151 0
M  V30 15453 H 1527.07 3.60228 -1.42529 0
M  V30 15454 H 1527.48 3.78451 -3.63146 0
M  V30 15455 H 1528.96 4.97104 -2.39983 0
M  V30 15456 H 1529.43 4.31149 -0.837071 0
M  V30 15457 H 1530.04 3.55803 -2.3299 0
M  V30 15458 N 1528.36 1.11264 1.11616 0
M  V30 15459 C 1529.77 0.846176 1.35322 0
M  V30 15460 C 1529.97 -0.530043 1.94404 0
M  V30 15461 O 1529.03 -1.28122 2.1758 0
M  V30 15462 C 1530.34 1.9528 2.28662 0
M  V30 15463 C 1531.89 1.98225 2.42231 0
M  V30 15464 C 1532.36 3.08086 3.38891 0
M  V30 15465 N 1533.85 3.07448 3.46453 0
M  V30 15466 C 1534.59 3.89094 4.21181 0
M  V30 15467 N 1534.09 4.80698 4.989 0
M  V30 15468 N 1535.88 3.77279 4.16674 0
M  V30 15469 H 1528.03 1.99958 0.716284 0
M  V30 15470 H 1530.29 0.869439 0.377862 0
M  V30 15471 H 1530 2.94381 1.92439 0
M  V30 15472 H 1529.87 1.84739 3.28864 0
M  V30 15473 H 1532.26 0.997517 2.77729 0
M  V30 15474 H 1532.34 2.12842 1.41887 0
M  V30 15475 H 1531.98 4.06784 3.0412 0
M  V30 15476 H 1531.91 2.90709 4.39085 0
M  V30 15477 H 1534.41 2.41077 2.91016 0
M  V30 15478 H 1534.72 5.39535 5.53282 0
M  V30 15479 H 1533.06 4.84721 4.98067 0
M  V30 15480 H 1536.25 3.05059 3.55044 0
M  V30 15481 H 1536.43 4.41142 4.74655 0
M  V30 15482 N 1529.83 -1.29188 0.902679 0
M  V30 15483 C 1530.78 -2.27632 0.381088 0
M  V30 15484 C 1531.75 -1.57131 -0.538431 0
M  V30 15485 O 1532.94 -1.85096 -0.463027 0
M  V30 15486 C 1530.08 -3.42971 -0.382701 0
M  V30 15487 C 1529.19 -4.28249 0.568054 0
M  V30 15488 C 1528.32 -5.30772 -0.213082 0
M  V30 15489 C 1527.36 -6.07707 0.732004 0
M  V30 15490 N 1526.5 -7.02098 -0.0149139 0
M  V30 15491 H 1531.34 -2.71628 1.22566 0
M  V30 15492 H 1528.88 -1.33594 0.615724 0
M  V30 15493 H 1530.83 -4.08623 -0.841619 0
M  V30 15494 H 1529.46 -2.99997 -1.19171 0
M  V30 15495 H 1528.52 -3.62743 1.14549 0
M  V30 15496 H 1529.83 -4.81794 1.29136 0
M  V30 15497 H 1528.98 -6.02255 -0.733065 0
M  V30 15498 H 1527.72 -4.77966 -0.969504 0
M  V30 15499 H 1526.73 -5.35086 1.26346 0
M  V30 15500 H 1527.95 -6.62602 1.4878 0
M  V30 15501 H 1525.9 -6.51658 -0.753548 0
M  V30 15502 H 1525.81 -7.53214 0.648423 0
M  V30 15503 H 1527.08 -7.77796 -0.515062 0
M  V30 15504 N 1531.31 -0.665475 -1.42861 0
M  V30 15505 C 1532.56 -0.184156 -2.01962 0
M  V30 15506 C 1532.89 1.20301 -1.52451 0
M  V30 15507 O 1532.17 1.80573 -0.722756 0
M  V30 15508 C 1532.45 -0.208497 -3.59496 0
M  V30 15509 C 1532.3 -1.63045 -4.19209 0
M  V30 15510 C 1533.62 0.448421 -4.3781 0
M  V30 15511 H 1530.74 -0.0683924 -0.73382 0
M  V30 15512 H 1533.38 -0.84849 -1.70002 0
M  V30 15513 H 1531.53 0.357179 -3.86855 0
M  V30 15514 H 1533.2 -2.24766 -4.02837 0
M  V30 15515 H 1531.45 -2.17401 -3.75392 0
M  V30 15516 H 1532.12 -1.59924 -5.28326 0
M  V30 15517 H 1534.59 -0.0330053 -4.16087 0
M  V30 15518 H 1533.47 0.400713 -5.47435 0
M  V30 15519 H 1533.73 1.52454 -4.14982 0
M  V30 15520 N 1532.79 1.52222 -0.408187 0
M  V30 15521 C 1534.2 1.86598 0.0616213 0
M  V30 15522 C 1534.55 1.32698 1.44519 0
M  V30 15523 O 1533.68 0.665883 2.059 0
M  V30 15524 C 1534.27 3.38592 0.118595 0
M  V30 15525 C 1532.83 3.72611 0.532737 0
M  V30 15526 C 1531.98 2.75744 -0.293356 0
M  V30 15527 H 1534.93 1.45862 -0.625291 0
M  V30 15528 H 1534.95 3.68858 0.934039 0
M  V30 15529 H 1534.46 3.77792 -0.888516 0
M  V30 15530 H 1532.56 3.38989 1.54652 0
M  V30 15531 H 1532.68 4.78294 0.277777 0
M  V30 15532 H 1531.04 2.53527 0.244166 0
M  V30 15533 H 1531.82 3.17783 -1.2988 0
M  V30 15534 N 1534.27 0.138579 1.5699 0
M  V30 15535 C 1535.2 -0.800568 2.19347 0
M  V30 15536 C 1536.18 -1.26318 1.13921 0
M  V30 15537 O 1537.36 -1.32226 1.42232 0
M  V30 15538 C 1534.49 -2.04317 2.80842 0
M  V30 15539 C 1533.45 -1.71764 3.92022 0
M  V30 15540 C 1532.77 -3.03217 4.40413 0
M  V30 15541 C 1534.07 -0.970789 5.13199 0
M  V30 15542 H 1535.77 -0.280888 2.98079 0
M  V30 15543 H 1533.31 -0.133663 1.43378 0
M  V30 15544 H 1535.27 -2.70491 3.2313 0
M  V30 15545 H 1533.99 -2.58643 1.99428 0
M  V30 15546 H 1532.65 -1.07972 3.50339 0
M  V30 15547 H 1532.3 -3.55517 3.55832 0
M  V30 15548 H 1532 -2.82203 5.15398 0
M  V30 15549 H 1533.52 -3.70477 4.85365 0
M  V30 15550 H 1534.94 -1.53445 5.52384 0
M  V30 15551 H 1533.33 -0.860895 5.93893 0
M  V30 15552 H 1534.4 0.0390088 4.84884 0
M  V30 15553 N 1535.75 -1.57019 -0.13521 0
M  V30 15554 C 1537.02 -1.74928 -0.875189 0
M  V30 15555 C 1537.4 -0.709755 -1.98811 0
M  V30 15556 O 1536.75 0.269237 -2.26908 0
M  V30 15557 C 1536.96 -3.1939 -1.40681 0
M  V30 15558 C 1538.31 -3.8142 -1.86557 0
M  V30 15559 O 1539.33 -3.22892 -1.50397 0
M  V30 15560 O 1538.19 -4.84263 -2.53282 0
M  V30 15561 H 1535.29 -0.715665 -0.414431 0
M  V30 15562 H 1537.83 -1.69274 -0.120215 0
M  V30 15563 H 1536.6 -3.86554 -0.607564 0
M  V30 15564 H 1536.23 -3.29517 -2.22496 0
M  V30 15565 N 1537.22 0.404919 -1.52309 0
M  V30 15566 C 1538.45 1.17764 -1.70723 0
M  V30 15567 C 1538.87 1.83403 -0.417744 0
M  V30 15568 O 1538.23 1.70181 0.625157 0
M  V30 15569 C 1538.28 2.2133 -2.84685 0
M  V30 15570 O 1537.38 3.27566 -2.50548 0
M  V30 15571 H 1536.73 0.343572 -0.568203 0
M  V30 15572 H 1539.26 0.474093 -1.99031 0
M  V30 15573 H 1539.27 2.6559 -3.09719 0
M  V30 15574 H 1537.94 1.72939 -3.78239 0
M  V30 15575 H 1536.52 2.88556 -2.36199 0
M  V30 15576 N 1538.7 1.43003 0.662408 0
M  V30 15577 C 1539.93 1.47766 1.45533 0
M  V30 15578 C 1540.35 0.0940298 1.87865 0
M  V30 15579 O 1539.71 -0.910252 1.56793 0
M  V30 15580 C 1539.76 2.42084 2.6726 0
M  V30 15581 O 1538.86 1.90076 3.65985 0
M  V30 15582 H 1538.2 0.500167 0.436725 0
M  V30 15583 H 1540.73 1.87823 0.811399 0
M  V30 15584 H 1540.74 2.5908 3.15185 0
M  V30 15585 H 1539.42 3.42601 2.3579 0
M  V30 15586 H 1538 1.82695 3.2508 0
M  V30 15587 N 1540.18 -0.899904 1.29381 0
M  V30 15588 C 1541.59 -1.46563 1.15655 0
M  V30 15589 C 1541.94 -1.94622 -0.248375 0
M  V30 15590 O 1541.07 -1.83698 -1.14386 0
M  V30 15591 C 1541.66 -2.66384 2.09344 0
M  V30 15592 C 1540.22 -3.19093 1.99641 0
M  V30 15593 C 1539.37 -1.91786 2.00283 0
M  V30 15594 H 1542.32 -0.711264 1.41869 0
M  V30 15595 H 1542.34 -3.42111 1.66554 0
M  V30 15596 H 1541.85 -2.31376 3.11587 0
M  V30 15597 H 1539.95 -3.58795 1.00485 0
M  V30 15598 H 1540.07 -3.83405 2.87293 0
M  V30 15599 H 1538.43 -2.09482 1.44878 0
M  V30 15600 H 1539.21 -1.59055 3.04231 0
M  V30 15601 N 1541.66 -1.11854 -1.11024 0
M  V30 15602 C 1542.62 -0.784033 -2.15373 0
M  V30 15603 C 1543.62 0.198686 -1.59568 0
M  V30 15604 O 1544.81 -0.0263428 -1.7418 0
M  V30 15605 C 1541.94 -0.163987 -3.40505 0
M  V30 15606 H 1543.14 -1.70849 -2.46477 0
M  V30 15607 H 1540.69 -0.920988 -1.26283 0
M  V30 15608 H 1541.42 0.770483 -3.15014 0
M  V30 15609 H 1541.21 -0.871447 -3.82293 0
M  V30 15610 H 1542.7 0.0537739 -4.17565 0
M  V30 15611 N 1543.14 1.28707 -0.909517 0
M  V30 15612 C 1544.36 1.99283 -0.556211 0
M  V30 15613 C 1544.78 1.68 0.861475 0
M  V30 15614 O 1544.14 0.930421 1.57001 0
M  V30 15615 C 1544.19 3.5362 -0.75068 0
M  V30 15616 O 1543.91 3.83799 -2.11258 0
M  V30 15617 C 1545.41 4.41459 -0.403637 0
M  V30 15618 H 1542.63 0.636476 -0.212462 0
M  V30 15619 H 1545.17 1.64007 -1.22156 0
M  V30 15620 H 1543.33 3.87174 -0.132384 0
M  V30 15621 H 1543.74 4.78448 -2.14913 0
M  V30 15622 H 1545.22 5.48833 -0.590496 0
M  V30 15623 H 1545.69 4.34214 0.659897 0
M  V30 15624 H 1546.3 4.13394 -0.999292 0
M  V30 15625 N 1544.61 0.673042 1.42506 0
M  V30 15626 C 1545.85 0.198436 2.03434 0
M  V30 15627 C 1546.22 -1.17227 1.52059 0
M  V30 15628 O 1547.42 -1.74143 2.04762 0
M  V30 15629 C 1545.69 0.22942 3.56663 0
M  V30 15630 S 1547.25 -0.174441 4.38453 0
M  V30 15631 H 1544.07 0.0817512 0.706284 0
M  V30 15632 H 1546.67 0.885803 1.74281 0
M  V30 15633 H 1545.37 1.22941 3.91553 0
M  V30 15634 H 1544.9 -0.477839 3.90487 0
M  V30 15635 H 1546.92 -1.40826 4.75797 0
M  V30 15636 N 1546.09 -1.52004 0.416254 0
M  V30 15637 C 1547.04 -2.24037 -0.423226 0
M  V30 15638 C 1548.03 -1.25444 -1.0076 0
M  V30 15639 O 1549.22 -1.50646 -0.92924 0
M  V30 15640 C 1546.35 -3.07048 -1.53547 0
M  V30 15641 C 1545.43 -4.13056 -0.961518 0
M  V30 15642 N 1545.82 -5.0567 -0.114849 0
M  V30 15643 C 1544.12 -4.28667 -1.2313 0
M  V30 15644 C 1544.82 -5.81338 0.205249 0
M  V30 15645 N 1543.8 -5.42084 -0.405736 0
M  V30 15646 H 1547.6 -2.93 0.229864 0
M  V30 15647 H 1545.12 -1.60804 0.227087 0
M  V30 15648 H 1547.11 -3.57212 -2.14954 0
M  V30 15649 H 1545.77 -2.39626 -2.19111 0
M  V30 15650 H 1546.78 -5.17296 0.250006 0
M  V30 15651 H 1543.46 -3.72474 -1.88599 0
M  V30 15652 H 1544.85 -6.6594 0.892938 0
M  V30 15653 N 1547.57 -0.146903 -1.56914 0
M  V30 15654 C 1548.52 0.809917 -2.18044 0
M  V30 15655 C 1549.51 1.25536 -1.13741 0
M  V30 15656 O 1550.72 1.22385 -1.31992 0
M  V30 15657 H 1547.09 0.279387 -0.698174 0
M  V30 15658 H 1549.06 0.270135 -2.97175 0
M  V30 15659 C 1547.81 2.03904 -2.81635 0
M  V30 15660 H 1547.14 1.70526 -3.61609 0
M  V30 15661 H 1548.58 2.68795 -3.2791 0
M  V30 15662 C 1547.04 2.84696 -1.80138 0
M  V30 15663 O 1547.57 3.81036 -1.27179 0
M  V30 15664 N 1545.77 2.49229 -1.49444 0
M  V30 15665 H 1545.32 1.70949 -1.92702 0
M  V30 15666 H 1545.28 3.03577 -0.817811 0
M  V30 15667 N 1549.05 1.57088 0.126881 0
M  V30 15668 C 1550 2.00736 1.17506 0
M  V30 15669 C 1550.99 0.902986 1.43327 0
M  V30 15670 O 1552.2 1.08819 1.43382 0
M  V30 15671 H 1548.57 0.639285 0.396003 0
M  V30 15672 H 1550.54 2.88015 0.780373 0
M  V30 15673 C 1549.29 2.42096 2.49569 0
M  V30 15674 H 1548.61 3.26639 2.30536 0
M  V30 15675 H 1550.05 2.76442 3.2149 0
M  V30 15676 C 1548.51 1.28148 3.11576 0
M  V30 15677 O 1549.04 0.593145 3.97297 0
M  V30 15678 N 1547.25 1.04055 2.71332 0
M  V30 15679 H 1546.8 1.60208 2.0172 0
M  V30 15680 H 1546.75 0.280075 3.1315 0
M  V30 15681 N 1550.53 -0.396836 1.52522 0
M  V30 15682 C 1551.78 -1.13978 1.66409 0
M  V30 15683 C 1552.09 -1.91333 0.406326 0
M  V30 15684 O 1553.29 -2.6815 0.425195 0
M  V30 15685 C 1551.75 -2.07512 2.94052 0
M  V30 15686 C 1551.36 -1.35616 4.2698 0
M  V30 15687 C 1553.1 -2.8199 3.17304 0
M  V30 15688 C 1551.01 -2.2787 5.45737 0
M  V30 15689 H 1549.94 -0.429181 0.619935 0
M  V30 15690 H 1552.59 -0.403207 1.79015 0
M  V30 15691 H 1550.97 -2.84773 2.75174 0
M  V30 15692 H 1552.15 -0.636349 4.56385 0
M  V30 15693 H 1550.46 -0.731297 4.09928 0
M  V30 15694 H 1553.06 -3.5118 4.03208 0
M  V30 15695 H 1553.4 -3.45629 2.32048 0
M  V30 15696 H 1553.93 -2.11824 3.36712 0
M  V30 15697 H 1550.67 -1.68858 6.33378 0
M  V30 15698 H 1550.19 -2.97789 5.20655 0
M  V30 15699 H 1551.87 -2.88126 5.79303 0
M  V30 15700 N 1552.01 -1.43353 -0.654814 0
M  V30 15701 C 1552.94 -1.42835 -1.7797 0
M  V30 15702 C 1553.92 -0.290004 -1.59993 0
M  V30 15703 O 1555.1 -0.483346 -1.82198 0
M  V30 15704 C 1552.23 -1.2384 -3.15248 0
M  V30 15705 C 1551.27 -2.4093 -3.5193 0
M  V30 15706 S 1552.11 -4.03479 -3.52086 0
M  V30 15707 C 1553.26 -3.86864 -4.92024 0
M  V30 15708 H 1553.5 -2.38021 -1.78138 0
M  V30 15709 H 1551.03 -1.30365 -0.827312 0
M  V30 15710 H 1552.99 -1.13568 -3.94478 0
M  V30 15711 H 1551.65 -0.302053 -3.12644 0
M  V30 15712 H 1550.84 -2.2344 -4.51764 0
M  V30 15713 H 1550.44 -2.4782 -2.80109 0
M  V30 15714 H 1552.73 -3.4909 -5.8064 0
M  V30 15715 H 1553.68 -4.86445 -5.14565 0
M  V30 15716 H 1554.09 -3.19352 -4.65483 0
M  V30 15717 N 1553.48 0.89303 -1.29857 0
M  V30 15718 C 1554.43 1.9979 -1.15554 0
M  V30 15719 C 1555.4 1.66033 -0.0471157 0
M  V30 15720 O 1556.59 1.89575 -0.215846 0
M  V30 15721 C 1553.73 3.34595 -0.844993 0
M  V30 15722 C 1552.84 3.81093 -2.03451 0
M  V30 15723 C 1551.97 5.04506 -1.66275 0
M  V30 15724 C 1551.01 5.4339 -2.8177 0
M  V30 15725 N 1550.15 6.57987 -2.44945 0
M  V30 15726 H 1554.99 2.11355 -2.10079 0
M  V30 15727 H 1552.53 1.03497 -1.04531 0
M  V30 15728 H 1554.48 4.12175 -0.645598 0
M  V30 15729 H 1553.11 3.22738 0.0633626 0
M  V30 15730 H 1552.17 2.99491 -2.34541 0
M  V30 15731 H 1553.48 4.05855 -2.8997 0
M  V30 15732 H 1552.63 5.89688 -1.42664 0
M  V30 15733 H 1551.37 4.81597 -0.769144 0
M  V30 15734 H 1550.38 4.56738 -3.06056 0
M  V30 15735 H 1551.6 5.68276 -3.71805 0
M  V30 15736 H 1549.55 6.36669 -1.58079 0
M  V30 15737 H 1549.46 6.82579 -3.24996 0
M  V30 15738 H 1550.73 7.46421 -2.24669 0
M  V30 15739 N 1554.96 1.12442 1.10429 0
M  V30 15740 C 1555.89 0.750131 2.16577 0
M  V30 15741 C 1556.91 -0.223265 1.61262 0
M  V30 15742 O 1558.1 -0.00459454 1.78499 0
M  V30 15743 C 1555.2 0.0895474 3.38782 0
M  V30 15744 C 1554.37 1.09242 4.23539 0
M  V30 15745 C 1553.43 0.45945 5.2419 0
M  V30 15746 O 1552.45 1.11646 5.58143 0
M  V30 15747 N 1553.66 -0.773093 5.75329 0
M  V30 15748 H 1556.42 1.66349 2.49295 0
M  V30 15749 H 1553.98 1.01603 1.26049 0
M  V30 15750 H 1555.97 -0.345895 4.03219 0
M  V30 15751 H 1554.54 -0.726572 3.04039 0
M  V30 15752 H 1553.76 1.70549 3.55396 0
M  V30 15753 H 1555.05 1.77057 4.76999 0
M  V30 15754 H 1554.45 -1.32585 5.49943 0
M  V30 15755 H 1553.01 -1.15135 6.41551 0
M  V30 15756 N 1556.44 -1.28223 0.91633 0
M  V30 15757 C 1557.67 -1.98986 0.566772 0
M  V30 15758 C 1558.08 -1.68455 -0.852553 0
M  V30 15759 O 1557.44 -0.938734 -1.56506 0
M  V30 15760 C 1557.49 -3.53217 0.769423 0
M  V30 15761 O 1557.21 -3.82674 2.1329 0
M  V30 15762 C 1558.71 -4.41238 0.427043 0
M  V30 15763 H 1555.93 -0.63534 0.215834 0
M  V30 15764 H 1558.48 -1.63357 1.23024 0
M  V30 15765 H 1556.63 -3.87098 0.152915 0
M  V30 15766 H 1557.05 -4.77302 2.17448 0
M  V30 15767 H 1558.52 -5.48512 0.619594 0
M  V30 15768 H 1559 -4.34558 -0.63686 0
M  V30 15769 H 1559.6 -4.12858 1.0212 0
M  V30 15770 N 1557.92 -0.68059 -1.42147 0
M  V30 15771 C 1558.85 0.0444079 -2.28157 0
M  V30 15772 C 1559.83 0.802929 -1.41392 0
M  V30 15773 O 1561.01 0.796856 -1.70829 0
M  V30 15774 C 1558.14 1.07013 -3.2135 0
M  V30 15775 C 1557.19 0.406524 -4.24558 0
M  V30 15776 S 1558.02 -0.840134 -5.28869 0
M  V30 15777 C 1559.17 0.184372 -6.25628 0
M  V30 15778 H 1559.41 -0.685124 -2.89298 0
M  V30 15779 H 1556.94 -0.470332 -1.47062 0
M  V30 15780 H 1558.9 1.65683 -3.75579 0
M  V30 15781 H 1557.56 1.77215 -2.59333 0
M  V30 15782 H 1556.75 1.18069 -4.89975 0
M  V30 15783 H 1556.35 -0.10672 -3.73848 0
M  V30 15784 H 1558.65 1.04232 -6.69434 0
M  V30 15785 H 1559.59 -0.43548 -7.0676 0
M  V30 15786 H 1560 0.532442 -5.61983 0
M  V30 15787 N 1559.4 1.51781 -0.424309 0
M  V30 15788 C 1560.64 2.02269 0.146709 0
M  V30 15789 C 1560.97 1.30859 1.4349 0
M  V30 15790 O 1560.25 0.419504 1.89922 0
M  V30 15791 C 1560.53 3.58101 0.378861 0
M  V30 15792 C 1560.39 4.40143 -0.92707 0
M  V30 15793 C 1561.7 4.2469 1.15438 0
M  V30 15794 H 1558.82 0.735174 0.0518456 0
M  V30 15795 H 1561.47 1.81537 -0.560753 0
M  V30 15796 H 1559.62 3.75897 0.981496 0
M  V30 15797 H 1561.29 4.34025 -1.56268 0
M  V30 15798 H 1559.53 4.05748 -1.53464 0
M  V30 15799 H 1560.2 5.47299 -0.718837 0
M  V30 15800 H 1562.68 4.11086 0.644041 0
M  V30 15801 H 1561.55 5.33633 1.28557 0
M  V30 15802 H 1561.81 3.84668 2.17905 0
M  V30 15803 N 1560.87 0.155222 1.56834 0
M  V30 15804 C 1562.15 -0.539327 1.88018 0
M  V30 15805 C 1562.53 -1.8241 1.06253 0
M  V30 15806 O 1561.88 -2.27996 0.151721 0
M  V30 15807 C 1562.09 -0.796826 3.39782 0
M  V30 15808 C 1563.44 -1.13397 4.09178 0
M  V30 15809 O 1564.46 -0.885907 3.45007 0
M  V30 15810 O 1563.32 -1.60117 5.22518 0
M  V30 15811 H 1560.41 -0.276066 0.779562 0
M  V30 15812 H 1562.96 0.192451 1.68605 0
M  V30 15813 H 1561.73 0.112097 3.91139 0
M  V30 15814 H 1561.35 -1.5825 3.6475 0
M  V30 15815 N 1562.35 -1.57153 -0.118549 0
M  V30 15816 C 1563.58 -1.89434 -0.844355 0
M  V30 15817 C 1564 -0.747203 -1.72622 0
M  V30 15818 O 1563.36 0.302252 -1.78763 0
M  V30 15819 C 1563.41 -3.20466 -1.65331 0
M  V30 15820 O 1562.51 -3.06403 -2.76027 0
M  V30 15821 H 1561.85 -0.621601 -0.23347 0
M  V30 15822 H 1564.38 -2.04351 -0.100811 0
M  V30 15823 H 1564.39 -3.53197 -2.04245 0
M  V30 15824 H 1563.07 -4.03551 -1.00594 0
M  V30 15825 H 1561.64 -2.85139 -2.40312 0
M  V30 15826 N 1563.83 0.388742 -1.5273 0
M  V30 15827 C 1565.05 1.15946 -1.71963 0
M  V30 15828 C 1565.48 1.82949 -0.437173 0
M  V30 15829 O 1564.84 1.70834 0.607072 0
M  V30 15830 C 1564.89 2.18298 -2.87016 0
M  V30 15831 O 1563.99 3.24891 -2.54008 0
M  V30 15832 H 1563.33 0.337526 -0.571815 0
M  V30 15833 H 1565.86 0.452957 -1.99523 0
M  V30 15834 H 1565.87 2.6229 -3.12519 0
M  V30 15835 H 1564.55 1.68917 -3.80052 0
M  V30 15836 H 1563.12 2.86034 -2.39246 0
M  V30 15837 N 1565.31 1.43698 0.647203 0
M  V30 15838 C 1566.55 1.47142 1.41876 0
M  V30 15839 C 1566.91 0.0952249 1.91764 0
M  V30 15840 O 1568.11 0.00434552 2.688 0
M  V30 15841 C 1566.38 2.48957 2.56428 0
M  V30 15842 S 1567.94 2.71323 3.44861 0
M  V30 15843 H 1564.76 0.520628 0.484218 0
M  V30 15844 H 1567.36 1.80507 0.75082 0
M  V30 15845 H 1566.07 3.47674 2.18061 0
M  V30 15846 H 1565.6 2.17109 3.28066 0
M  V30 15847 H 1567.61 2.01704 4.53354 0
M  V30 15848 N 1566.79 -0.886131 1.30328 0
M  V30 15849 C 1568.2 -1.16922 1.08634 0
M  V30 15850 C 1568.4 -2.00913 -0.15365 0
M  V30 15851 O 1567.46 -2.37849 -0.847592 0
M  V30 15852 C 1568.77 -1.87701 2.34923 0
M  V30 15853 C 1570.32 -2.0047 2.40376 0
M  V30 15854 C 1570.79 -2.74662 3.66504 0
M  V30 15855 N 1572.29 -2.82208 3.67305 0
M  V30 15856 C 1573.02 -3.40185 4.61586 0
M  V30 15857 N 1572.52 -3.99221 5.66211 0
M  V30 15858 N 1574.31 -3.37989 4.49132 0
M  V30 15859 H 1566.46 -0.326064 2.09882 0
M  V30 15860 H 1568.72 -0.206996 0.925125 0
M  V30 15861 H 1568.43 -1.33427 3.25408 0
M  V30 15862 H 1568.3 -2.88092 2.43481 0
M  V30 15863 H 1570.69 -2.53914 1.50371 0
M  V30 15864 H 1570.77 -0.991709 2.35794 0
M  V30 15865 H 1570.42 -2.2189 4.56867 0
M  V30 15866 H 1570.35 -3.76335 3.68347 0
M  V30 15867 H 1572.84 -2.40292 2.91665 0
M  V30 15868 H 1573.15 -4.41522 6.34254 0
M  V30 15869 H 1571.49 -3.97643 5.70004 0
M  V30 15870 H 1574.69 -2.91096 3.6658 0
M  V30 15871 H 1574.86 -3.82877 5.2279 0
M  V30 15872 N 1568.26 -1.13026 -1.09832 0
M  V30 15873 C 1569.51 -0.884093 -1.81292 0
M  V30 15874 C 1569.83 0.591608 -1.86439 0
M  V30 15875 O 1571.03 0.954571 -2.54166 0
M  V30 15876 C 1569.49 -1.53207 -3.25662 0
M  V30 15877 C 1569.1 -3.043 -3.28794 0
M  V30 15878 C 1570.84 -1.36644 -4.01906 0
M  V30 15879 C 1568.75 -3.62003 -4.67662 0
M  V30 15880 H 1567.68 -0.327101 -0.679353 0
M  V30 15881 H 1570.33 -1.35748 -1.2347 0
M  V30 15882 H 1568.71 -0.986353 -3.83519 0
M  V30 15883 H 1569.88 -3.65418 -2.80725 0
M  V30 15884 H 1568.2 -3.20332 -2.66038 0
M  V30 15885 H 1570.8 -1.7717 -5.04495 0
M  V30 15886 H 1571.14 -0.310809 -4.15138 0
M  V30 15887 H 1571.67 -1.88172 -3.5048 0
M  V30 15888 H 1568.41 -4.67354 -4.59631 0
M  V30 15889 H 1567.93 -3.05663 -5.16072 0
M  V30 15890 H 1569.61 -3.61432 -5.36634 0
M  V30 15891 N 1569.74 1.27735 -0.923117 0
M  V30 15892 C 1570.67 2.29395 -0.435907 0
M  V30 15893 C 1571.65 1.62542 0.501403 0
M  V30 15894 O 1572.84 1.89884 0.407135 0
M  V30 15895 C 1569.97 3.45856 0.316348 0
M  V30 15896 C 1568.92 4.24672 -0.532697 0
M  V30 15897 C 1568.25 5.33563 0.348454 0
M  V30 15898 C 1569.55 4.90494 -1.79481 0
M  V30 15899 H 1571.24 2.70398 -1.28551 0
M  V30 15900 H 1568.79 1.29989 -0.619581 0
M  V30 15901 H 1570.74 4.1607 0.668098 0
M  V30 15902 H 1569.47 3.03758 1.19994 0
M  V30 15903 H 1568.12 3.56198 -0.867093 0
M  V30 15904 H 1567.77 4.87708 1.23086 0
M  V30 15905 H 1567.47 5.87202 -0.216104 0
M  V30 15906 H 1569 6.06622 0.695878 0
M  V30 15907 H 1570.41 5.53019 -1.5114 0
M  V30 15908 H 1568.81 5.5417 -2.30251 0
M  V30 15909 H 1569.88 4.14454 -2.51707 0
M  V30 15910 N 1571.22 0.688118 1.41784 0
M  V30 15911 C 1572.45 0.22475 2.05676 0
M  V30 15912 C 1572.86 -1.1232 1.51755 0
M  V30 15913 O 1572.22 -1.70041 0.662735 0
M  V30 15914 C 1572.27 0.165661 3.6112 0
M  V30 15915 O 1571.99 1.46035 4.13044 0
M  V30 15916 C 1573.49 -0.319599 4.42146 0
M  V30 15917 H 1570.71 0.106135 0.662553 0
M  V30 15918 H 1573.26 0.938605 1.81688 0
M  V30 15919 H 1571.41 -0.498968 3.84173 0
M  V30 15920 H 1571.83 1.34252 5.07027 0
M  V30 15921 H 1573.3 -0.30983 5.5113 0
M  V30 15922 H 1573.78 -1.3572 4.17704 0
M  V30 15923 H 1574.38 0.313764 4.24141 0
M  V30 15924 N 1572.7 -1.51554 0.432352 0
M  V30 15925 C 1573.92 -2.06947 -0.136995 0
M  V30 15926 C 1574.35 -1.29817 -1.36122 0
M  V30 15927 O 1573.71 -0.334733 -1.78183 0
M  V30 15928 C 1573.75 -3.57871 -0.442785 0
M  V30 15929 O 1572.86 -3.82966 -1.53007 0
M  V30 15930 H 1572.2 -0.663988 -0.00405152 0
M  V30 15931 H 1574.73 -1.95225 0.612249 0
M  V30 15932 H 1574.74 -4.02042 -0.694694 0
M  V30 15933 H 1573.41 -4.13436 0.452013 0
M  V30 15934 H 1571.99 -3.50661 -1.26851 0
M  V30 15935 N 1574.18 -0.163538 -1.56749 0
M  V30 15936 C 1575.45 0.529349 -1.88301 0
M  V30 15937 C 1575.83 1.81844 -1.07219 0
M  V30 15938 O 1575.18 2.27912 -0.16381 0
M  V30 15939 C 1575.39 0.778796 -3.402 0
M  V30 15940 C 1576.74 1.11225 -4.09773 0
M  V30 15941 O 1577.76 0.867598 -3.45472 0
M  V30 15942 O 1576.62 1.57344 -5.2336 0
M  V30 15943 H 1573.72 0.271928 -0.781015 0
M  V30 15944 H 1576.26 -0.20139 -1.68501 0
M  V30 15945 H 1575.03 -0.132839 -3.91074 0
M  V30 15946 H 1574.66 1.56313 -3.65584 0
M  V30 15947 N 1575.65 1.57214 0.110213 0
M  V30 15948 C 1576.9 1.85586 0.817649 0
M  V30 15949 C 1577.23 0.750536 1.79111 0
M  V30 15950 O 1576.51 -0.242864 1.92978 0
M  V30 15951 C 1576.79 3.24565 1.55979 0
M  V30 15952 C 1576.64 4.45708 0.605339 0
M  V30 15953 C 1577.96 3.61233 2.51393 0
M  V30 15954 H 1575.08 0.675037 0.295794 0
M  V30 15955 H 1577.72 1.89824 0.0816541 0
M  V30 15956 H 1575.87 3.21083 2.18718 0
M  V30 15957 H 1577.55 4.61298 -0.0138894 0
M  V30 15958 H 1575.79 4.33722 -0.0824644 0
M  V30 15959 H 1576.46 5.39643 1.16143 0
M  V30 15960 H 1578.94 3.65563 1.98754 0
M  V30 15961 H 1577.81 4.59438 3.00346 0
M  V30 15962 H 1578.07 2.89116 3.34461 0
M  V30 15963 N 1577.13 -0.380637 1.52934 0
M  V30 15964 C 1578.38 -1.12483 1.68386 0
M  V30 15965 C 1578.71 -1.89733 0.427993 0
M  V30 15966 O 1577.96 -1.86601 -0.589795 0
M  V30 15967 C 1578.26 -2.1227 2.87535 0
M  V30 15968 C 1577.93 -1.51615 4.24645 0
M  V30 15969 C 1576.59 -1.348 4.61933 0
M  V30 15970 C 1578.94 -1.07595 5.09973 0
M  V30 15971 C 1576.27 -0.725254 5.822 0
M  V30 15972 C 1578.62 -0.467273 6.30872 0
M  V30 15973 C 1577.29 -0.286488 6.66885 0
M  V30 15974 H 1576.56 -0.411606 0.616167 0
M  V30 15975 H 1579.2 -0.408435 1.87094 0
M  V30 15976 H 1577.51 -2.90159 2.63277 0
M  V30 15977 H 1579.2 -2.69777 2.96684 0
M  V30 15978 H 1575.79 -1.65693 3.95277 0
M  V30 15979 H 1579.98 -1.19385 4.81727 0
M  V30 15980 H 1575.23 -0.573461 6.08705 0
M  V30 15981 H 1579.41 -0.117914 6.963 0
M  V30 15982 H 1577.04 0.198141 7.59942 0
M  V30 15983 N 1578.61 -1.44039 -0.639573 0
M  V30 15984 C 1579.54 -1.46233 -1.76489 0
M  V30 15985 C 1580.56 -0.356739 -1.58843 0
M  V30 15986 O 1581.74 -0.621988 -1.67313 0
M  V30 15987 C 1578.84 -1.27252 -3.14102 0
M  V30 15988 C 1578.02 -2.50902 -3.58283 0
M  V30 15989 C 1577.08 -2.26944 -4.74745 0
M  V30 15990 O 1576.1 -3.00381 -4.83487 0
M  V30 15991 N 1577.3 -1.29468 -5.65878 0
M  V30 15992 H 1580.07 -2.43243 -1.7508 0
M  V30 15993 H 1577.63 -1.3937 -0.823867 0
M  V30 15994 H 1579.62 -1.09085 -3.89721 0
M  V30 15995 H 1578.19 -0.386383 -3.10203 0
M  V30 15996 H 1577.41 -2.84403 -2.72963 0
M  V30 15997 H 1578.7 -3.33163 -3.84552 0
M  V30 15998 H 1578.1 -0.687994 -5.61501 0
M  V30 15999 H 1576.66 -1.17281 -6.41162 0
M  V30 16000 N 1580.09 0.879207 -1.30796 0
M  V30 16001 C 1581.37 1.61328 -1.10602 0
M  V30 16002 C 1581.75 2.08301 0.342621 0
M  V30 16003 O 1581.09 1.85436 1.33514 0
M  V30 16004 C 1581.3 2.77838 -2.11203 0
M  V30 16005 C 1582.65 3.48028 -2.43231 0
M  V30 16006 O 1583.68 2.88034 -2.09559 0
M  V30 16007 O 1582.53 4.56233 -3.00854 0
M  V30 16008 H 1579.63 0.709335 -0.425174 0
M  V30 16009 H 1582.17 0.925478 -1.42243 0
M  V30 16010 H 1580.95 2.40475 -3.08687 0
M  V30 16011 H 1580.57 3.54312 -1.80414 0
M  V30 16012 N 1581.57 1.13606 1.09231 0
M  V30 16013 C 1582.81 0.909321 1.83059 0
M  V30 16014 C 1583.17 -0.554485 1.83819 0
M  V30 16015 O 1584.37 -0.898864 2.53326 0
M  V30 16016 C 1582.64 1.4835 3.25157 0
M  V30 16017 S 1584.2 1.3971 4.15964 0
M  V30 16018 H 1581.02 0.327715 0.630971 0
M  V30 16019 H 1583.62 1.44796 1.31355 0
M  V30 16020 H 1582.33 2.54219 3.22181 0
M  V30 16021 H 1581.86 0.942887 3.81934 0
M  V30 16022 H 1583.87 0.37691 4.94766 0
M  V30 16023 N 1583.05 -1.27244 0.929878 0
M  V30 16024 C 1583.99 -2.28755 0.421202 0
M  V30 16025 C 1584.99 -1.61988 -0.49561 0
M  V30 16026 O 1586.19 -1.76049 -0.375071 0
M  V30 16027 H 1582.57 -0.742741 0.117646 0
M  V30 16028 H 1584.54 -2.6907 1.29011 0
M  V30 16029 C 1583.29 -3.46327 -0.308737 0
M  V30 16030 H 1582.61 -3.97917 0.387552 0
M  V30 16031 H 1584.05 -4.19308 -0.629052 0
M  V30 16032 C 1582.51 -3.00535 -1.5225 0
M  V30 16033 O 1583.04 -3.04395 -2.62119 0
M  V30 16034 N 1581.25 -2.56007 -1.3751 0
M  V30 16035 H 1580.79 -2.53065 -0.481215 0
M  V30 16036 H 1580.75 -2.25731 -2.18845 0
M  V30 16037 N 1584.52 -0.695628 -1.41417 0
M  V30 16038 C 1585.47 -0.0303383 -2.3078 0
M  V30 16039 C 1586.44 0.771218 -1.4711 0
M  V30 16040 O 1587.63 0.739239 -1.75897 0
M  V30 16041 C 1584.77 0.900034 -3.33157 0
M  V30 16042 C 1583.88 0.0900862 -4.31906 0
M  V30 16043 C 1583.01 1.01811 -5.21352 0
M  V30 16044 C 1582.05 0.201068 -6.1177 0
M  V30 16045 N 1581.19 1.0829 -6.93699 0
M  V30 16046 H 1586.03 -0.798148 -2.87113 0
M  V30 16047 H 1583.57 -0.405311 -1.41406 0
M  V30 16048 H 1585.52 1.45349 -3.91062 0
M  V30 16049 H 1584.15 1.63424 -2.78375 0
M  V30 16050 H 1583.21 -0.58029 -3.75948 0
M  V30 16051 H 1584.52 -0.543336 -4.95832 0
M  V30 16052 H 1583.67 1.64079 -5.84092 0
M  V30 16053 H 1582.41 1.68538 -4.57653 0
M  V30 16054 H 1581.42 -0.434686 -5.48079 0
M  V30 16055 H 1582.64 -0.462416 -6.77524 0
M  V30 16056 H 1580.59 1.73619 -6.32608 0
M  V30 16057 H 1580.5 0.505046 -7.54311 0
M  V30 16058 H 1581.77 1.69239 -7.60906 0
M  V30 16059 N 1586 1.51322 -0.440383 0
M  V30 16060 C 1586.93 2.30708 0.360013 0
M  V30 16061 C 1587.91 1.36254 1.01828 0
M  V30 16062 O 1589.1 1.65174 1.02134 0
M  V30 16063 C 1586.23 3.15132 1.45977 0
M  V30 16064 C 1585.18 4.17889 0.924825 0
M  V30 16065 C 1584.51 4.90853 2.12056 0
M  V30 16066 C 1585.81 5.22282 -0.0428362 0
M  V30 16067 H 1587.5 2.97868 -0.30248 0
M  V30 16068 H 1585.05 1.43249 -0.146914 0
M  V30 16069 H 1587 3.69449 2.02695 0
M  V30 16070 H 1585.72 2.45798 2.1506 0
M  V30 16071 H 1584.38 3.64627 0.379842 0
M  V30 16072 H 1584.03 4.1802 2.79765 0
M  V30 16073 H 1583.73 5.60339 1.769 0
M  V30 16074 H 1585.26 5.47995 2.69322 0
M  V30 16075 H 1586.67 5.71654 0.434137 0
M  V30 16076 H 1585.07 5.99314 -0.307126 0
M  V30 16077 H 1586.14 4.74923 -0.978557 0
M  V30 16078 N 1587.48 0.171848 1.5666 0
M  V30 16079 C 1588.73 -0.473669 1.97191 0
M  V30 16080 C 1589.06 -1.6286 1.05784 0
M  V30 16081 O 1588.33 -1.94216 0.105084 0
M  V30 16082 C 1588.62 -0.956134 3.47174 0
M  V30 16083 C 1588.47 0.199007 4.4936 0
M  V30 16084 C 1589.79 -1.82962 4.00266 0
M  V30 16085 H 1586.91 -0.170704 0.716958 0
M  V30 16086 H 1589.55 0.25809 1.88239 0
M  V30 16087 H 1587.7 -1.57969 3.54934 0
M  V30 16088 H 1589.37 0.836109 4.53659 0
M  V30 16089 H 1587.61 0.85442 4.25302 0
M  V30 16090 H 1588.29 -0.180704 5.51704 0
M  V30 16091 H 1590.76 -1.30394 3.95141 0
M  V30 16092 H 1589.64 -2.13621 5.05625 0
M  V30 16093 H 1589.9 -2.77557 3.44114 0
M  V30 16094 N 1588.96 -1.5727 -0.101874 0
M  V30 16095 C 1590.23 -1.76745 -0.837888 0
M  V30 16096 C 1590.61 -0.751766 -1.9726 0
M  V30 16097 O 1589.96 0.221046 -2.27428 0
M  V30 16098 C 1590.17 -3.22302 -1.33875 0
M  V30 16099 C 1591.52 -3.85292 -1.78425 0
M  V30 16100 O 1592.54 -3.2601 -1.43514 0
M  V30 16101 O 1591.4 -4.89526 -2.42953 0
M  V30 16102 H 1588.5 -0.724294 -0.399157 0
M  V30 16103 H 1591.04 -1.69491 -0.0842821 0
M  V30 16104 H 1589.82 -3.87756 -0.525434 0
M  V30 16105 H 1589.44 -3.34162 -2.15456 0
M  V30 16106 N 1590.44 0.372521 -1.53134 0
M  V30 16107 C 1591.85 0.949671 -1.60742 0
M  V30 16108 C 1592.2 1.90475 -0.470501 0
M  V30 16109 O 1591.32 2.12594 0.404085 0
M  V30 16110 C 1591.92 1.72918 -2.9135 0
M  V30 16111 C 1590.48 2.25577 -3.01317 0
M  V30 16112 C 1589.62 1.06612 -2.55986 0
M  V30 16113 H 1592.57 0.151533 -1.57975 0
M  V30 16114 H 1592.6 2.58982 -2.78763 0
M  V30 16115 H 1592.11 1.0338 -3.74078 0
M  V30 16116 H 1590.21 2.98378 -2.23162 0
M  V30 16117 H 1590.32 2.53935 -4.06268 0
M  V30 16118 H 1588.69 1.43105 -2.10697 0
M  V30 16119 H 1589.47 0.38584 -3.41125 0
M  V30 16120 N 1591.91 1.44376 0.631925 0
M  V30 16121 C 1592.82 1.5367 1.77264 0
M  V30 16122 C 1593.84 0.422425 1.68794 0
M  V30 16123 O 1595.02 0.679656 1.89585 0
M  V30 16124 C 1592.08 1.47743 3.13644 0
M  V30 16125 C 1591.14 2.70015 3.33752 0
M  V30 16126 C 1590.37 2.64362 4.63626 0
M  V30 16127 O 1590.6 1.7032 5.44378 0
M  V30 16128 O 1589.53 3.55201 4.85918 0
M  V30 16129 H 1593.36 2.5004 1.72376 0
M  V30 16130 H 1590.94 1.26614 0.793052 0
M  V30 16131 H 1592.82 1.46958 3.94945 0
M  V30 16132 H 1591.5 0.545165 3.19076 0
M  V30 16133 H 1590.41 2.76369 2.52133 0
M  V30 16134 H 1591.74 3.62286 3.33181 0
M  V30 16135 N 1593.39 -0.872258 1.31261 0
M  V30 16136 C 1594.8 -1.44077 1.18738 0
M  V30 16137 C 1595.15 -1.95105 -0.207037 0
M  V30 16138 O 1594.28 -1.86083 -1.10464 0
M  V30 16139 C 1594.87 -2.61884 2.14947 0
M  V30 16140 C 1593.43 -3.14787 2.06364 0
M  V30 16141 C 1592.58 -1.87495 2.04306 0
M  V30 16142 H 1595.53 -0.681011 1.43345 0
M  V30 16143 H 1595.55 -3.38501 1.73773 0
M  V30 16144 H 1595.06 -2.24715 3.16425 0
M  V30 16145 H 1593.16 -3.56582 1.08073 0
M  V30 16146 H 1593.28 -3.77225 2.95361 0
M  V30 16147 H 1591.64 -2.06361 1.49288 0
M  V30 16148 H 1592.42 -1.52566 3.07536 0
M  V30 16149 N 1594.87 -1.14184 -1.08627 0
M  V30 16150 C 1596.1 -0.930752 -1.84447 0
M  V30 16151 C 1596.51 0.524072 -1.81797 0
M  V30 16152 O 1595.85 1.37483 -1.21836 0
M  V30 16153 C 1595.91 -1.35125 -3.33139 0
M  V30 16154 C 1595.58 -2.82117 -3.59526 0
M  V30 16155 C 1596.57 -3.80242 -3.54559 0
M  V30 16156 C 1594.26 -3.19475 -3.87609 0
M  V30 16157 C 1596.25 -5.13734 -3.77301 0
M  V30 16158 C 1593.94 -4.53144 -4.10005 0
M  V30 16159 C 1594.94 -5.50082 -4.04844 0
M  V30 16160 O 1594.63 -6.81339 -4.26653 0
M  V30 16161 H 1594.36 -0.331385 -0.589203 0
M  V30 16162 H 1596.91 -1.52033 -1.38113 0
M  V30 16163 H 1595.14 -0.704995 -3.80219 0
M  V30 16164 H 1596.83 -1.11133 -3.9039 0
M  V30 16165 H 1597.6 -3.52726 -3.32881 0
M  V30 16166 H 1593.48 -2.44617 -3.90747 0
M  V30 16167 H 1597.02 -5.89386 -3.73188 0
M  V30 16168 H 1592.92 -4.80381 -4.31166 0
M  V30 16169 H 1593.68 -6.87563 -4.44071 0
M  V30 16170 N 1596.35 1.26749 -0.936613 0
M  V30 16171 C 1597.28 2.2892 -0.460213 0
M  V30 16172 C 1598.26 1.63065 0.484135 0
M  V30 16173 O 1599.44 1.90305 0.386973 0
M  V30 16174 C 1596.57 3.46172 0.279648 0
M  V30 16175 C 1595.53 4.24083 -0.57771 0
M  V30 16176 C 1594.85 5.33903 0.291843 0
M  V30 16177 C 1596.15 4.88562 -1.84673 0
M  V30 16178 H 1597.85 2.69019 -1.31412 0
M  V30 16179 H 1595.39 1.29325 -0.633333 0
M  V30 16180 H 1597.35 4.16755 0.623931 0
M  V30 16181 H 1596.07 3.05014 1.16765 0
M  V30 16182 H 1594.73 3.55258 -0.904824 0
M  V30 16183 H 1594.38 4.88986 1.17906 0
M  V30 16184 H 1594.08 5.8694 -0.278372 0
M  V30 16185 H 1595.6 6.07326 0.631498 0
M  V30 16186 H 1597.02 5.51384 -1.56997 0
M  V30 16187 H 1595.41 5.51697 -2.36115 0
M  V30 16188 H 1596.48 4.11761 -2.56088 0
M  V30 16189 N 1597.83 0.703118 1.41046 0
M  V30 16190 C 1599.1 0.164985 1.94903 0
M  V30 16191 C 1599.48 -1.32665 1.64205 0
M  V30 16192 O 1598.83 -2.07675 0.953058 0
M  V30 16193 C 1599.04 0.464354 3.45897 0
M  V30 16194 C 1600.39 0.396205 4.22747 0
M  V30 16195 O 1601.41 0.399698 3.5395 0
M  V30 16196 O 1600.27 0.362874 5.45294 0
M  V30 16197 H 1597.37 0.0193901 0.826773 0
M  V30 16198 H 1599.91 0.779796 1.50722 0
M  V30 16199 H 1598.68 1.49653 3.61552 0
M  V30 16200 H 1598.31 -0.18105 3.97188 0
M  V30 16201 N 1599.3 -1.51086 0.448402 0
M  V30 16202 C 1600.55 -2.02476 -0.114511 0
M  V30 16203 C 1600.88 -1.33126 -1.4139 0
M  V30 16204 O 1600.16 -0.449665 -1.89231 0
M  V30 16205 C 1600.44 -3.58659 -0.321842 0
M  V30 16206 C 1600.29 -4.38612 0.996975 0
M  V30 16207 C 1601.61 -4.26473 -1.08667 0
M  V30 16208 H 1598.73 -0.735906 -0.0401431 0
M  V30 16209 H 1601.37 -1.80622 0.589563 0
M  V30 16210 H 1599.52 -3.77411 -0.92157 0
M  V30 16211 H 1601.2 -4.31484 1.63154 0
M  V30 16212 H 1599.44 -4.03255 1.599 0
M  V30 16213 H 1600.11 -5.46087 0.805817 0
M  V30 16214 H 1602.59 -4.12058 -0.578559 0
M  V30 16215 H 1601.46 -5.35611 -1.20051 0
M  V30 16216 H 1601.72 -3.88086 -2.11758 0
M  V30 16217 N 1600.78 -0.180154 -1.56567 0
M  V30 16218 C 1602.02 0.464869 -1.99044 0
M  V30 16219 C 1602.39 1.59822 -1.06399 0
M  V30 16220 O 1603.59 2.30641 -1.38052 0
M  V30 16221 C 1601.86 0.927227 -3.45163 0
M  V30 16222 S 1603.42 1.57219 -4.09668 0
M  V30 16223 H 1600.24 0.149215 -0.695166 0
M  V30 16224 H 1602.84 -0.279699 -1.93489 0
M  V30 16225 H 1601.54 0.0920814 -4.10297 0
M  V30 16226 H 1601.07 1.70562 -3.54503 0
M  V30 16227 H 1603.09 2.86059 -4.05444 0
M  V30 16228 N 1602.26 1.57322 0.0935319 0
M  V30 16229 C 1603.51 1.85353 0.795445 0
M  V30 16230 C 1603.82 0.769647 1.79822 0
M  V30 16231 O 1605.03 0.937121 2.54814 0
M  V30 16232 C 1603.48 3.28711 1.4655 0
M  V30 16233 C 1603.09 4.45174 0.502415 0
M  V30 16234 C 1604.84 3.65965 2.15105 0
M  V30 16235 C 1602.74 5.79566 1.17715 0
M  V30 16236 H 1601.67 0.691394 0.300816 0
M  V30 16237 H 1604.32 1.83436 0.0484063 0
M  V30 16238 H 1602.71 3.25173 2.26005 0
M  V30 16239 H 1603.88 4.60062 -0.260754 0
M  V30 16240 H 1602.2 4.16328 -0.0775186 0
M  V30 16241 H 1604.79 4.63655 2.66323 0
M  V30 16242 H 1605.14 2.94667 2.94069 0
M  V30 16243 H 1605.67 3.71398 1.42508 0
M  V30 16244 H 1602.41 6.54099 0.428277 0
M  V30 16245 H 1601.93 5.68519 1.9117 0
M  V30 16246 H 1603.61 6.2418 1.70318 0
M  V30 16247 N 1603.74 -0.364395 1.53329 0
M  V30 16248 C 1604.97 -1.12586 1.73228 0
M  V30 16249 C 1605.38 -1.83482 0.461614 0
M  V30 16250 O 1604.72 -1.74459 -0.575295 0
M  V30 16251 C 1604.78 -2.1994 2.84371 0
M  V30 16252 C 1604.45 -1.688 4.24683 0
M  V30 16253 C 1605.44 -1.15145 5.06989 0
M  V30 16254 C 1603.13 -1.74277 4.71097 0
M  V30 16255 C 1605.12 -0.676447 6.338 0
M  V30 16256 C 1602.81 -1.26389 5.97887 0
M  V30 16257 C 1603.81 -0.731632 6.7907 0
M  V30 16258 O 1603.49 -0.259825 8.0348 0
M  V30 16259 H 1603.23 -0.342514 0.582804 0
M  V30 16260 H 1605.78 -0.428832 2.00874 0
M  V30 16261 H 1604.01 -2.9314 2.52202 0
M  V30 16262 H 1605.7 -2.81489 2.92436 0
M  V30 16263 H 1606.47 -1.10251 4.72303 0
M  V30 16264 H 1602.34 -2.14647 4.0798 0
M  V30 16265 H 1605.89 -0.260327 6.97114 0
M  V30 16266 H 1601.79 -1.30977 6.32072 0
M  V30 16267 H 1602.55 -0.379044 8.17622 0
M  V30 16268 N 1605.22 -1.44709 -0.62426 0
M  V30 16269 C 1606.49 -1.38328 -1.38292 0
M  V30 16270 C 1606.87 -0.0454388 -2.11051 0
M  V30 16271 O 1606.22 0.972183 -2.06787 0
M  V30 16272 C 1606.43 -2.58602 -2.34364 0
M  V30 16273 C 1607.78 -3.02966 -2.97484 0
M  V30 16274 O 1608.8 -2.58856 -2.44688 0
M  V30 16275 O 1607.66 -3.79466 -3.93278 0
M  V30 16276 H 1604.76 -0.54812 -0.619269 0
M  V30 16277 H 1607.3 -1.5681 -0.648741 0
M  V30 16278 H 1606.07 -3.47573 -1.79746 0
M  V30 16279 H 1605.7 -2.42368 -3.15188 0
M  V30 16280 N 1606.69 0.865285 -1.31722 0
M  V30 16281 C 1607.92 1.65137 -1.24649 0
M  V30 16282 C 1608.34 1.87868 0.187391 0
M  V30 16283 O 1607.69 1.44015 1.12098 0
M  V30 16284 C 1607.75 3.0167 -1.99193 0
M  V30 16285 O 1607.47 2.79951 -3.36985 0
M  V30 16286 C 1608.97 3.96115 -1.99017 0
M  V30 16287 H 1606.19 0.514683 -0.430514 0
M  V30 16288 H 1608.73 1.07971 -1.73674 0
M  V30 16289 H 1606.89 3.55511 -1.53918 0
M  V30 16290 H 1607.3 3.66706 -3.75002 0
M  V30 16291 H 1608.77 4.89217 -2.55677 0
M  V30 16292 H 1609.25 4.28268 -0.973815 0
M  V30 16293 H 1609.86 3.4821 -2.44192 0
M  V30 16294 N 1608.17 1.14759 1.0802 0
M  V30 16295 C 1609.41 0.928685 1.82085 0
M  V30 16296 C 1609.78 -0.534958 1.84397 0
M  V30 16297 O 1610.98 -0.871945 2.54265 0
M  V30 16298 C 1609.25 1.51791 3.23565 0
M  V30 16299 S 1610.81 1.44114 4.14459 0
M  V30 16300 H 1607.63 0.334389 0.627459 0
M  V30 16301 H 1610.23 1.46182 1.29812 0
M  V30 16302 H 1608.93 2.57622 3.19467 0
M  V30 16303 H 1608.46 0.983343 3.80912 0
M  V30 16304 H 1610.48 0.429366 4.94339 0
M  V30 16305 N 1609.65 -1.26251 0.943322 0
M  V30 16306 C 1610.88 -1.98278 0.608341 0
M  V30 16307 C 1611.3 -1.69756 -0.810208 0
M  V30 16308 O 1610.66 -0.946846 -1.54611 0
M  V30 16309 C 1610.71 -3.50205 0.859591 0
M  V30 16310 O 1609.81 -4.12345 -0.0672371 0
M  V30 16311 H 1609.15 -0.621973 0.232477 0
M  V30 16312 H 1611.68 -1.60662 1.26684 0
M  V30 16313 H 1611.69 -4.00449 0.781341 0
M  V30 16314 H 1610.37 -3.70294 1.89354 0
M  V30 16315 H 1608.94 -3.72848 0.0622543 0
M  V30 16316 N 1611.13 -0.710588 -1.40671 0
M  V30 16317 C 1612.37 -0.252303 -2.02837 0
M  V30 16318 C 1612.73 1.13154 -1.55113 0
M  V30 16319 O 1613.93 1.68653 -2.09307 0
M  V30 16320 C 1612.21 -0.323902 -3.55929 0
M  V30 16321 S 1613.76 0.0581316 -4.38761 0
M  V30 16322 H 1610.58 -0.100448 -0.703869 0
M  V30 16323 H 1613.18 -0.931699 -1.71871 0
M  V30 16324 H 1611.89 -1.33279 -3.88156 0
M  V30 16325 H 1611.42 0.37414 -3.91617 0
M  V30 16326 H 1613.43 1.28162 -4.79363 0
M  V30 16327 N 1612.61 1.50847 -0.456408 0
M  V30 16328 C 1613.52 2.31959 0.351027 0
M  V30 16329 C 1614.53 1.41697 1.00986 0
M  V30 16330 O 1615.71 1.7476 1.00105 0
M  V30 16331 C 1612.77 3.15973 1.42696 0
M  V30 16332 C 1611.84 4.22038 0.786272 0
M  V30 16333 C 1611.07 5.02036 1.81094 0
M  V30 16334 O 1611.29 4.82913 3.03564 0
M  V30 16335 O 1610.23 5.85609 1.3909 0
M  V30 16336 H 1614.05 3.02096 -0.311678 0
M  V30 16337 H 1611.64 1.47793 -0.218544 0
M  V30 16338 H 1613.52 3.68146 2.05053 0
M  V30 16339 H 1612.19 2.48579 2.0734 0
M  V30 16340 H 1611.1 3.73894 0.124148 0
M  V30 16341 H 1612.43 4.9186 0.183016 0
M  V30 16342 N 1614.09 0.188454 1.56469 0
M  V30 16343 C 1615.31 -0.460975 2.02212 0
M  V30 16344 C 1615.74 -1.54856 1.06777 0
M  V30 16345 O 1615.09 -1.81231 0.0501425 0
M  V30 16346 C 1615.14 -1.00047 3.46443 0
M  V30 16347 O 1614.25 -2.1137 3.54114 0
M  V30 16348 H 1613.59 -0.108497 0.655076 0
M  V30 16349 H 1616.12 0.297381 2.02427 0
M  V30 16350 H 1616.13 -1.31876 3.86099 0
M  V30 16351 H 1614.8 -0.204273 4.15398 0
M  V30 16352 H 1613.38 -1.80456 3.26328 0
M  V30 16353 N 1615.56 -1.5737 -0.0851874 0
M  V30 16354 C 1616.81 -1.85772 -0.785604 0
M  V30 16355 C 1617.13 -0.779172 -1.79411 0
M  V30 16356 O 1618.33 -0.950621 -2.54314 0
M  V30 16357 C 1616.79 -3.29484 -1.44805 0
M  V30 16358 C 1616.4 -4.45434 -0.478799 0
M  V30 16359 C 1618.14 -3.671 -2.13161 0
M  V30 16360 C 1616.05 -5.80183 -1.1464 0
M  V30 16361 H 1614.98 -0.69298 -0.297145 0
M  V30 16362 H 1617.63 -1.83459 -0.0386776 0
M  V30 16363 H 1616.01 -3.26367 -2.24278 0
M  V30 16364 H 1617.18 -4.59917 0.285148 0
M  V30 16365 H 1615.5 -4.16281 0.0995964 0
M  V30 16366 H 1618.1 -4.65061 -2.6386 0
M  V30 16367 H 1618.44 -2.96223 -2.92503 0
M  V30 16368 H 1618.97 -3.72148 -1.40536 0
M  V30 16369 H 1615.71 -6.54317 -0.393583 0
M  V30 16370 H 1615.23 -5.69525 -1.88153 0
M  V30 16371 H 1616.91 -6.25074 -1.67006 0
M  V30 16372 N 1617.04 0.356258 -1.53521 0
M  V30 16373 C 1618.29 1.09573 -1.69818 0
M  V30 16374 C 1618.61 1.89559 -0.457406 0
M  V30 16375 O 1617.88 1.88633 0.528616 0
M  V30 16376 H 1616.46 0.407512 -0.626054 0
M  V30 16377 H 1619.12 0.400612 -1.90738 0
M  V30 16378 H 1618.22 1.7803 -2.56343 0
M  V30 16379 N 1618.52 1.45038 0.616577 0
M  V30 16380 C 1619.8 1.39059 1.37557 0
M  V30 16381 C 1620.18 0.0566307 2.11024 0
M  V30 16382 O 1619.52 -0.961203 2.073 0
M  V30 16383 C 1619.73 2.59841 2.32989 0
M  V30 16384 C 1621.08 3.04539 2.95874 0
M  V30 16385 O 1622.11 2.6015 2.43312 0
M  V30 16386 O 1620.97 3.81547 3.9126 0
M  V30 16387 H 1618.06 0.551396 0.616353 0
M  V30 16388 H 1620.61 1.57152 0.640416 0
M  V30 16389 H 1619.38 3.48521 1.779 0
M  V30 16390 H 1619 2.44036 3.13899 0
M  V30 16391 N 1620 -0.858287 1.32179 0
M  V30 16392 C 1621.24 -1.6261 1.23844 0
M  V30 16393 C 1621.6 -1.9098 -0.197628 0
M  V30 16394 O 1622.8 -2.65737 -0.40465 0
M  V30 16395 C 1621.07 -2.91319 2.07047 0
M  V30 16396 S 1622.63 -3.82125 2.15699 0
M  V30 16397 H 1619.45 -0.557789 0.4409 0
M  V30 16398 H 1622.05 -1.0167 1.66983 0
M  V30 16399 H 1620.76 -2.68417 3.10452 0
M  V30 16400 H 1620.29 -3.57277 1.64671 0
M  V30 16401 H 1622.3 -4.78764 1.30384 0
M  V30 16402 N 1621.48 -1.1533 -1.07409 0
M  V30 16403 C 1622.44 -0.852155 -2.1277 0
M  V30 16404 C 1623.44 0.14782 -1.60119 0
M  V30 16405 O 1624.63 -0.0817436 -1.74008 0
M  V30 16406 C 1621.76 -0.272233 -3.39811 0
M  V30 16407 H 1622.95 -1.78604 -2.40917 0
M  V30 16408 H 1620.51 -0.960698 -1.23289 0
M  V30 16409 H 1621.24 0.669873 -3.17306 0
M  V30 16410 H 1621.03 -0.992629 -3.79327 0
M  V30 16411 H 1622.52 -0.0790986 -4.17525 0
M  V30 16412 N 1622.95 1.25748 -0.950004 0
M  V30 16413 C 1624.19 1.95089 -0.609896 0
M  V30 16414 C 1624.56 1.72802 0.836865 0
M  V30 16415 O 1625.76 2.36023 1.28634 0
M  V30 16416 C 1624.03 3.44452 -0.953294 0
M  V30 16417 S 1625.59 4.32768 -0.725062 0
M  V30 16418 H 1622.41 0.674683 -0.224331 0
M  V30 16419 H 1625.01 1.52506 -1.2232 0
M  V30 16420 H 1623.71 3.58175 -2.00347 0
M  V30 16421 H 1623.24 3.92013 -0.330062 0
M  V30 16422 H 1625.26 4.94533 0.406435 0
M  V30 16423 N 1624.43 0.718038 1.40292 0
M  V30 16424 C 1625.68 0.258603 2.00842 0
M  V30 16425 C 1626.01 -1.14894 1.56938 0
M  V30 16426 O 1625.26 -1.79414 0.781606 0
M  V30 16427 C 1625.56 0.289374 3.56227 0
M  V30 16428 C 1625.23 1.64756 4.19722 0
M  V30 16429 C 1623.89 2.01934 4.36779 0
M  V30 16430 C 1626.24 2.54008 4.55115 0
M  V30 16431 C 1623.57 3.27905 4.86513 0
M  V30 16432 C 1625.92 3.79334 5.06249 0
M  V30 16433 C 1624.58 4.16626 5.21516 0
M  V30 16434 H 1623.85 0.0946296 0.734933 0
M  V30 16435 H 1626.5 0.921552 1.67868 0
M  V30 16436 H 1624.81 -0.457147 3.89124 0
M  V30 16437 H 1626.5 -0.0839832 4.00912 0
M  V30 16438 H 1623.09 1.34846 4.06835 0
M  V30 16439 H 1627.28 2.2656 4.4157 0
M  V30 16440 H 1622.53 3.56763 4.96518 0
M  V30 16441 H 1626.71 4.48663 5.32611 0
M  V30 16442 H 1624.33 5.14306 5.59815 0
M  V30 16443 N 1625.91 -1.50602 0.464402 0
M  V30 16444 C 1627.15 -2.04194 -0.0917216 0
M  V30 16445 C 1627.51 -1.33921 -1.37584 0
M  V30 16446 O 1628.72 -1.78031 -2.01391 0
M  V30 16447 C 1626.99 -3.56316 -0.278093 0
M  V30 16448 S 1628.55 -4.31561 -0.793734 0
M  V30 16449 H 1625.36 -0.710743 -0.0191155 0
M  V30 16450 H 1627.97 -1.85071 0.63001 0
M  V30 16451 H 1626.67 -4.05019 0.662395 0
M  V30 16452 H 1626.2 -3.79782 -1.02613 0
M  V30 16453 H 1628.22 -4.51052 -2.06801 0
M  V30 16454 N 1627.39 -0.19675 -1.56367 0
M  V30 16455 C 1628.67 0.489288 -1.89381 0
M  V30 16456 C 1629.05 1.79529 -1.11052 0
M  V30 16457 O 1628.39 2.27513 -0.212117 0
M  V30 16458 C 1628.6 0.706459 -3.41775 0
M  V30 16459 C 1629.95 1.02508 -4.1204 0
M  V30 16460 O 1630.98 0.794123 -3.47235 0
M  V30 16461 O 1629.83 1.46207 -5.26579 0
M  V30 16462 H 1626.93 0.2553 -0.786607 0
M  V30 16463 H 1629.47 -0.237086 -1.68036 0
M  V30 16464 H 1628.25 -0.215762 -3.90705 0
M  V30 16465 H 1627.87 1.48523 -3.68818 0
M  V30 16466 N 1628.87 1.57413 0.0768405 0
M  V30 16467 C 1630.09 1.91224 0.790007 0
M  V30 16468 C 1630.51 0.792232 1.71374 0
M  V30 16469 O 1629.87 -0.234736 1.80984 0
M  V30 16470 C 1629.92 3.24757 1.58793 0
M  V30 16471 O 1629.64 4.3245 0.701329 0
M  V30 16472 C 1631.14 3.72549 2.40254 0
M  V30 16473 H 1628.36 0.63219 0.224893 0
M  V30 16474 H 1630.9 2.04442 0.0486173 0
M  V30 16475 H 1629.06 3.13081 2.28165 0
M  V30 16476 H 1629.47 5.09245 1.2558 0
M  V30 16477 H 1630.95 4.68628 2.91705 0
M  V30 16478 H 1631.42 3.01305 3.1955 0
M  V30 16479 H 1632.03 3.87153 1.76048 0
M  V30 16480 N 1630.34 -0.348112 1.53707 0
M  V30 16481 C 1631.59 -1.08626 1.69951 0
M  V30 16482 C 1631.91 -1.89944 0.466992 0
M  V30 16483 O 1633.11 -2.66661 0.51029 0
M  V30 16484 C 1631.57 -1.98052 3.00505 0
M  V30 16485 C 1631.18 -1.21963 4.31079 0
M  V30 16486 C 1632.92 -2.71752 3.26115 0
M  V30 16487 C 1630.83 -2.10392 5.52711 0
M  V30 16488 H 1629.76 -0.409241 0.633275 0
M  V30 16489 H 1632.41 -0.346051 1.80207 0
M  V30 16490 H 1630.79 -2.75874 2.84094 0
M  V30 16491 H 1631.96 -0.490831 4.58178 0
M  V30 16492 H 1630.28 -0.600511 4.12047 0
M  V30 16493 H 1632.88 -3.38174 4.14177 0
M  V30 16494 H 1633.22 -3.38072 2.42926 0
M  V30 16495 H 1633.75 -2.01005 3.43281 0
M  V30 16496 H 1630.49 -1.48622 6.38429 0
M  V30 16497 H 1630.01 -2.81074 5.29866 0
M  V30 16498 H 1631.69 -2.69551 5.88176 0
M  V30 16499 N 1631.82 -1.45363 -0.608876 0
M  V30 16500 C 1632.79 -1.53551 -1.70161 0
M  V30 16501 C 1633.79 -0.415146 -1.55349 0
M  V30 16502 O 1634.98 -0.67858 -1.6044 0
M  V30 16503 C 1632.11 -1.43081 -3.0942 0
M  V30 16504 H 1633.3 -2.5091 -1.64268 0
M  V30 16505 H 1630.85 -1.32785 -0.824493 0
M  V30 16506 H 1631.59 -0.469016 -3.20891 0
M  V30 16507 H 1631.37 -2.24343 -3.21579 0
M  V30 16508 H 1632.86 -1.51841 -3.89017 0
M  V30 16509 N 1633.3 0.851265 -1.32632 0
M  V30 16510 C 1634.26 1.94168 -1.21785 0
M  V30 16511 C 1635.26 1.60189 -0.140023 0
M  V30 16512 O 1636.45 1.69763 -0.390671 0
M  V30 16513 C 1633.59 3.29513 -0.873717 0
M  V30 16514 H 1634.78 2.05214 -2.18695 0
M  V30 16515 H 1632.33 1.04186 -1.16512 0
M  V30 16516 H 1633.07 3.24165 0.0934202 0
M  V30 16517 H 1632.85 3.55552 -1.65302 0
M  V30 16518 H 1634.34 4.09425 -0.822231 0
M  V30 16519 N 1634.78 1.15898 1.06796 0
M  V30 16520 C 1636.01 0.959978 1.82943 0
M  V30 16521 C 1636.42 -0.495084 1.82608 0
M  V30 16522 O 1635.76 -1.35528 1.24008 0
M  V30 16523 C 1635.82 1.40408 3.30947 0
M  V30 16524 C 1635.49 2.87801 3.54993 0
M  V30 16525 C 1636.48 3.85834 3.48465 0
M  V30 16526 C 1634.17 3.25601 3.82478 0
M  V30 16527 C 1636.16 5.19672 3.6908 0
M  V30 16528 C 1633.85 4.59609 4.02744 0
M  V30 16529 C 1634.85 5.56454 3.96041 0
M  V30 16530 O 1634.53 6.8804 4.1576 0
M  V30 16531 H 1634.27 0.340717 0.583856 0
M  V30 16532 H 1636.82 1.54211 1.35677 0
M  V30 16533 H 1635.05 0.765395 3.7905 0
M  V30 16534 H 1636.74 1.1733 3.88572 0
M  V30 16535 H 1637.51 3.57977 3.27227 0
M  V30 16536 H 1633.38 2.50803 3.86806 0
M  V30 16537 H 1636.93 5.95249 3.63764 0
M  V30 16538 H 1632.83 4.8718 4.23469 0
M  V30 16539 H 1633.59 6.94541 4.33076 0
M  V30 16540 N 1636.26 -1.25243 0.956659 0
M  V30 16541 C 1637.22 -2.24054 0.482949 0
M  V30 16542 C 1638.22 -1.55367 -0.41447 0
M  V30 16543 O 1639.41 -1.72912 -0.211475 0
M  V30 16544 C 1636.54 -3.3956 -0.301975 0
M  V30 16545 H 1637.73 -2.67476 1.35634 0
M  V30 16546 H 1635.29 -1.37665 0.740138 0
M  V30 16547 H 1636.02 -3.01561 -1.19294 0
M  V30 16548 H 1635.81 -3.90607 0.341876 0
M  V30 16549 H 1637.3 -4.1293 -0.622807 0
M  V30 16550 N 1637.73 -0.725468 -1.3991 0
M  V30 16551 C 1638.68 -0.0555314 -2.27932 0
M  V30 16552 C 1639.67 0.722435 -1.4377 0
M  V30 16553 O 1640.86 0.593011 -1.6677 0
M  V30 16554 C 1637.99 0.858122 -3.32402 0
M  V30 16555 C 1637.08 0.0748146 -4.24034 0
M  V30 16556 N 1637.47 -0.947093 -4.96854 0
M  V30 16557 C 1635.76 0.305902 -4.4495 0
M  V30 16558 C 1636.47 -1.41861 -5.64137 0
M  V30 16559 N 1635.44 -0.738949 -5.38554 0
M  V30 16560 H 1639.24 -0.838606 -2.81682 0
M  V30 16561 H 1636.76 -0.558938 -1.52478 0
M  V30 16562 H 1638.75 1.35347 -3.94318 0
M  V30 16563 H 1637.41 1.64046 -2.80212 0
M  V30 16564 H 1638.43 -1.32821 -5.00579 0
M  V30 16565 H 1635.1 1.06379 -4.0372 0
M  V30 16566 H 1636.49 -2.26829 -6.32454 0
M  V30 16567 N 1639.21 1.50354 -0.472382 0
M  V30 16568 C 1640.46 2.02633 0.0822846 0
M  V30 16569 C 1640.79 1.35358 1.39254 0
M  V30 16570 O 1640.07 0.479714 1.88491 0
M  V30 16571 C 1640.35 3.59126 0.264742 0
M  V30 16572 C 1640.2 4.3697 -1.06663 0
M  V30 16573 C 1641.52 4.28148 1.01869 0
M  V30 16574 H 1638.64 0.736451 0.0284304 0
M  V30 16575 H 1641.28 1.79661 -0.618224 0
M  V30 16576 H 1639.43 3.7883 0.86141 0
M  V30 16577 H 1641.1 4.28834 -1.69997 0
M  V30 16578 H 1639.35 4.0066 -1.66295 0
M  V30 16579 H 1640.02 5.44736 -0.892592 0
M  V30 16580 H 1642.49 4.12926 0.512931 0
M  V30 16581 H 1641.37 5.37453 1.11515 0
M  V30 16582 H 1641.63 3.91406 2.05557 0
M  V30 16583 N 1640.69 0.205039 1.56261 0
M  V30 16584 C 1641.93 -0.433144 1.99758 0
M  V30 16585 C 1642.3 -1.58109 1.08929 0
M  V30 16586 O 1643.5 -2.28415 1.41703 0
M  V30 16587 C 1641.77 -0.872197 3.46594 0
M  V30 16588 S 1643.33 -1.50682 4.12117 0
M  V30 16589 H 1640.14 -0.138137 0.697452 0
M  V30 16590 H 1642.75 0.310446 1.93019 0
M  V30 16591 H 1641.45 -0.0267951 4.10391 0
M  V30 16592 H 1640.98 -1.64901 3.57171 0
M  V30 16593 H 1643 -2.79573 4.09943 0
M  V30 16594 N 1642.17 -1.57451 -0.0684915 0
M  V30 16595 C 1643.13 -2.0293 -1.06545 0
M  V30 16596 C 1644.13 -0.926861 -1.314 0
M  V30 16597 O 1645.32 -1.19164 -1.27065 0
M  V30 16598 C 1642.45 -2.41276 -2.4083 0
M  V30 16599 H 1643.65 -2.92242 -0.673401 0
M  V30 16600 H 1641.2 -1.53107 -0.314307 0
M  V30 16601 H 1641.94 -1.55 -2.8486 0
M  V30 16602 H 1641.72 -3.21727 -2.2413 0
M  V30 16603 H 1643.21 -2.77026 -3.12484 0
M  V30 16604 N 1643.65 0.339955 -1.5389 0
M  V30 16605 C 1644.58 1.43837 -1.78448 0
M  V30 16606 C 1645.59 1.48559 -0.665885 0
M  V30 16607 O 1646.78 1.51577 -0.942686 0
M  V30 16608 C 1643.88 2.82474 -1.87248 0
M  V30 16609 C 1643.05 3.01149 -3.17219 0
M  V30 16610 C 1642.11 4.20049 -3.16931 0
M  V30 16611 O 1641.14 4.13994 -3.90638 0
M  V30 16612 N 1642.34 5.28767 -2.39553 0
M  V30 16613 H 1645.11 1.2314 -2.73234 0
M  V30 16614 H 1642.67 0.529855 -1.52984 0
M  V30 16615 H 1644.66 3.60196 -1.84502 0
M  V30 16616 H 1643.23 2.96297 -0.996322 0
M  V30 16617 H 1642.45 2.10867 -3.3306 0
M  V30 16618 H 1643.74 3.10511 -4.03063 0
M  V30 16619 H 1643.14 5.36557 -1.79228 0
M  V30 16620 H 1641.69 6.04969 -2.42601 0
M  V30 16621 N 1645.13 1.45684 0.601159 0
M  V30 16622 C 1646.08 1.51269 1.70592 0
M  V30 16623 C 1647.06 0.375327 1.56461 0
M  V30 16624 O 1648.25 0.622591 1.65689 0
M  V30 16625 C 1645.38 1.4884 3.09357 0
M  V30 16626 C 1644.47 2.67803 3.2885 0
M  V30 16627 N 1644.86 3.92863 3.18578 0
M  V30 16628 C 1643.16 2.63636 3.59739 0
M  V30 16629 C 1643.86 4.72295 3.39577 0
M  V30 16630 N 1642.83 4.03856 3.63869 0
M  V30 16631 H 1646.63 2.45778 1.61153 0
M  V30 16632 H 1644.15 1.41066 0.804621 0
M  V30 16633 H 1646.15 1.50927 3.88621 0
M  V30 16634 H 1644.81 0.553931 3.1994 0
M  V30 16635 H 1645.82 4.24389 2.96841 0
M  V30 16636 H 1642.49 1.79127 3.77121 0
M  V30 16637 H 1643.88 5.8129 3.36974 0
M  V30 16638 N 1646.6 -0.84422 1.33082 0
M  V30 16639 C 1647.85 -1.59596 1.2399 0
M  V30 16640 C 1648.17 -1.94016 -0.19566 0
M  V30 16641 O 1647.44 -1.60512 -1.12306 0
M  V30 16642 H 1646.02 -0.591727 0.455926 0
M  V30 16643 H 1648.68 -1.00924 1.66735 0
M  V30 16644 H 1647.78 -2.52829 1.82986 0
M  V30 16645 N 1648.08 -1.16463 -1.0618 0
M  V30 16646 C 1649.03 -0.87224 -2.13683 0
M  V30 16647 C 1650 0.179784 -1.65124 0
M  V30 16648 O 1651.18 0.0447406 -1.90748 0
M  V30 16649 C 1648.32 -0.380728 -3.42993 0
M  V30 16650 C 1647.44 -1.49571 -4.05281 0
M  V30 16651 C 1646.57 -0.959099 -5.2247 0
M  V30 16652 C 1645.61 -2.05021 -5.76743 0
M  V30 16653 N 1644.75 -1.5291 -6.85247 0
M  V30 16654 H 1649.59 -1.79288 -2.38033 0
M  V30 16655 H 1647.12 -0.894379 -1.16787 0
M  V30 16656 H 1649.08 -0.0773816 -4.17128 0
M  V30 16657 H 1647.71 0.502966 -3.18857 0
M  V30 16658 H 1646.76 -1.915 -3.28682 0
M  V30 16659 H 1648.08 -2.31904 -4.41613 0
M  V30 16660 H 1647.23 -0.609003 -6.03636 0
M  V30 16661 H 1645.97 -0.105086 -4.87587 0
M  V30 16662 H 1644.97 -2.40899 -4.94214 0
M  V30 16663 H 1646.2 -2.90821 -6.13678 0
M  V30 16664 H 1644.15 -0.697639 -6.5228 0
M  V30 16665 H 1644.06 -2.28859 -7.20527 0
M  V30 16666 H 1645.33 -1.20762 -7.70089 0
M  V30 16667 N 1649.56 1.24734 -0.963288 0
M  V30 16668 C 1650.81 1.92971 -0.623688 0
M  V30 16669 C 1651.14 1.7517 0.838393 0
M  V30 16670 O 1650.41 1.10208 1.60264 0
M  V30 16671 C 1650.7 3.46115 -0.99379 0
M  V30 16672 C 1650.55 3.73104 -2.51224 0
M  V30 16673 C 1651.87 4.36956 -0.525128 0
M  V30 16674 H 1648.99 0.700827 -0.228058 0
M  V30 16675 H 1651.63 1.47187 -1.2015 0
M  V30 16676 H 1649.78 3.85242 -0.502108 0
M  V30 16677 H 1651.45 3.43563 -3.07835 0
M  V30 16678 H 1649.69 3.18409 -2.94616 0
M  V30 16679 H 1650.37 4.80237 -2.7217 0
M  V30 16680 H 1652.84 4.0518 -0.947015 0
M  V30 16681 H 1651.72 5.4285 -0.812695 0
M  V30 16682 H 1651.98 4.38347 0.574843 0
M  V30 16683 N 1651.04 0.732878 1.39523 0
M  V30 16684 C 1652.28 0.280305 2.00854 0
M  V30 16685 C 1652.62 -1.12891 1.58017 0
M  V30 16686 O 1651.89 -1.76919 0.808086 0
M  V30 16687 C 1652.17 0.37978 3.58092 0
M  V30 16688 C 1652.03 1.82861 4.10953 0
M  V30 16689 C 1653.35 -0.239026 4.3945 0
M  V30 16690 H 1650.47 0.103326 0.729721 0
M  V30 16691 H 1653.11 0.928634 1.6576 0
M  V30 16692 H 1651.26 -0.172198 3.88118 0
M  V30 16693 H 1652.93 2.4373 3.91655 0
M  V30 16694 H 1651.17 2.35064 3.64592 0
M  V30 16695 H 1651.84 1.84949 5.20094 0
M  V30 16696 H 1654.32 0.231488 4.15456 0
M  V30 16697 H 1653.2 -0.139068 5.48724 0
M  V30 16698 H 1653.46 -1.32481 4.21783 0
M  V30 16699 N 1652.52 -1.50101 0.480349 0
M  V30 16700 C 1653.74 -2.06785 -0.068848 0
M  V30 16701 C 1654.16 -1.34316 -1.32683 0
M  V30 16702 O 1653.52 -0.415196 -1.77714 0
M  V30 16703 C 1653.57 -3.59826 -0.347522 0
M  V30 16704 O 1653.29 -4.29565 0.860569 0
M  V30 16705 C 1654.79 -4.33161 -0.94266 0
M  V30 16706 H 1652.01 -0.670906 0.0112172 0
M  V30 16707 H 1654.55 -1.93151 0.671788 0
M  V30 16708 H 1652.71 -3.73232 -1.0381 0
M  V30 16709 H 1653.12 -5.20931 0.610796 0
M  V30 16710 H 1654.6 -5.41184 -1.08736 0
M  V30 16711 H 1655.07 -3.94268 -1.93518 0
M  V30 16712 H 1655.68 -4.24309 -0.290178 0
M  V30 16713 N 1653.99 -0.213323 -1.5615 0
M  V30 16714 C 1655.24 0.414505 -1.99132 0
M  V30 16715 C 1655.59 1.57968 -1.09836 0
M  V30 16716 O 1654.89 1.91039 -0.146566 0
M  V30 16717 C 1655.08 0.905764 -3.45732 0
M  V30 16718 C 1654.91 -0.210267 -4.49208 0
M  V30 16719 C 1653.68 -0.673947 -5.00785 0
M  V30 16720 C 1655.88 -1.02566 -5.03969 0
M  V30 16721 N 1653.86 -1.76589 -5.87954 0
M  V30 16722 C 1655.23 -1.96663 -5.87983 0
M  V30 16723 C 1657.29 -1.06602 -4.86354 0
M  V30 16724 C 1655.99 -2.94467 -6.56263 0
M  V30 16725 C 1658.02 -2.0322 -5.55388 0
M  V30 16726 C 1657.38 -2.96058 -6.39163 0
M  V30 16727 H 1653.48 0.118581 -0.772957 0
M  V30 16728 H 1656.06 -0.323206 -1.91999 0
M  V30 16729 H 1654.23 1.61286 -3.53329 0
M  V30 16730 H 1655.96 1.50572 -3.75646 0
M  V30 16731 H 1652.72 -0.26401 -4.72864 0
M  V30 16732 H 1653.14 -2.31362 -6.36239 0
M  V30 16733 H 1657.78 -0.362209 -4.21246 0
M  V30 16734 H 1655.5 -3.65815 -7.20559 0
M  V30 16735 H 1659.09 -2.07007 -5.43727 0
M  V30 16736 H 1657.97 -3.696 -6.91639 0
M  V30 16737 N 1655.47 1.57485 0.0601405 0
M  V30 16738 C 1656.89 1.54105 0.415187 0
M  V30 16739 C 1657.09 0.935177 1.78484 0
M  V30 16740 O 1656.14 0.542715 2.46599 0
M  V30 16741 C 1657.46 2.98708 0.34555 0
M  V30 16742 C 1659.01 3.10103 0.424895 0
M  V30 16743 C 1659.48 4.56379 0.385041 0
M  V30 16744 N 1660.97 4.6106 0.444771 0
M  V30 16745 C 1661.71 5.71737 0.436334 0
M  V30 16746 N 1661.2 6.91746 0.38202 0
M  V30 16747 N 1663 5.60014 0.483759 0
M  V30 16748 H 1655.15 1.95232 -0.836565 0
M  V30 16749 H 1657.41 0.894101 -0.3151 0
M  V30 16750 H 1657.12 3.4664 -0.594427 0
M  V30 16751 H 1656.99 3.59201 1.15129 0
M  V30 16752 H 1659.38 2.62137 1.3553 0
M  V30 16753 H 1659.46 2.52499 -0.409633 0
M  V30 16754 H 1659.1 5.05004 -0.541561 0
M  V30 16755 H 1659.03 5.11859 1.23726 0
M  V30 16756 H 1661.52 3.74703 0.490522 0
M  V30 16757 H 1661.84 7.71866 0.379829 0
M  V30 16758 H 1660.18 6.94126 0.348532 0
M  V30 16759 H 1663.37 4.65158 0.523965 0
M  V30 16760 H 1663.54 6.46266 0.473715 0
M  V30 16761 N 1656.95 -0.331789 1.54068 0
M  V30 16762 C 1658.18 -1.09044 1.75832 0
M  V30 16763 C 1658.59 -1.81976 0.503012 0
M  V30 16764 O 1657.95 -1.74758 -0.525913 0
M  V30 16765 C 1658 -2.09489 2.94613 0
M  V30 16766 O 1657.72 -1.39521 4.1529 0
M  V30 16767 C 1659.22 -2.97637 3.28522 0
M  V30 16768 H 1656.44 -0.324701 0.587205 0
M  V30 16769 H 1658.99 -0.380417 2.00931 0
M  V30 16770 H 1657.14 -2.76038 2.71812 0
M  V30 16771 H 1657.56 -2.06717 4.82046 0
M  V30 16772 H 1659.03 -3.64027 4.14956 0
M  V30 16773 H 1659.51 -3.64292 2.45332 0
M  V30 16774 H 1660.11 -2.3666 3.53372 0
M  V30 16775 N 1658.43 -1.46001 -0.593424 0
M  V30 16776 C 1659.39 -1.55347 -1.68523 0
M  V30 16777 C 1660.39 -0.431599 -1.549 0
M  V30 16778 O 1661.58 -0.695559 -1.59711 0
M  V30 16779 C 1658.71 -1.46355 -3.07885 0
M  V30 16780 H 1659.91 -2.52639 -1.61597 0
M  V30 16781 H 1657.46 -1.33652 -0.810363 0
M  V30 16782 H 1658.19 -0.503024 -3.20375 0
M  V30 16783 H 1657.98 -2.27741 -3.19181 0
M  V30 16784 H 1659.47 -1.55958 -3.87385 0
M  V30 16785 N 1659.91 0.83715 -1.33527 0
M  V30 16786 C 1661.13 1.62456 -1.28124 0
M  V30 16787 C 1661.55 1.88223 0.147499 0
M  V30 16788 O 1660.91 1.4636 1.09018 0
M  V30 16789 C 1660.96 2.97376 -2.05547 0
M  V30 16790 O 1660.68 2.7274 -3.42847 0
M  V30 16791 C 1662.18 3.91805 -2.07374 0
M  V30 16792 H 1659.4 0.505436 -0.441334 0
M  V30 16793 H 1661.94 1.04263 -1.75925 0
M  V30 16794 H 1660.1 3.52166 -1.61424 0
M  V30 16795 H 1660.51 3.58669 -3.82696 0
M  V30 16796 H 1661.99 4.83684 -2.65996 0
M  V30 16797 H 1662.46 4.26106 -1.06444 0
M  V30 16798 H 1663.07 3.42952 -2.51523 0
M  V30 16799 N 1661.38 1.17024 1.05561 0
M  V30 16800 C 1662.31 0.906823 2.15172 0
M  V30 16801 C 1663.3 -0.149745 1.6944 0
M  V30 16802 O 1664.48 -0.000287092 1.942 0
M  V30 16803 C 1661.61 0.415251 3.44809 0
M  V30 16804 C 1660.56 1.41058 4.04088 0
M  V30 16805 C 1659.89 0.777109 5.29023 0
M  V30 16806 C 1661.19 2.78258 4.42007 0
M  V30 16807 H 1662.88 1.82347 2.37466 0
M  V30 16808 H 1660.43 0.878162 1.14124 0
M  V30 16809 H 1662.38 0.218407 4.20834 0
M  V30 16810 H 1661.11 -0.536924 3.22156 0
M  V30 16811 H 1659.77 1.5941 3.30127 0
M  V30 16812 H 1659.41 -0.181784 5.02671 0
M  V30 16813 H 1659.11 1.44151 5.69644 0
M  V30 16814 H 1660.64 0.590455 6.07738 0
M  V30 16815 H 1662.05 2.63645 5.09082 0
M  V30 16816 H 1660.45 3.41241 4.93634 0
M  V30 16817 H 1661.52 3.3295 3.52523 0
M  V30 16818 N 1662.86 -1.24221 0.969889 0
M  V30 16819 C 1664.1 -1.94094 0.640856 0
M  V30 16820 C 1664.47 -1.74112 -0.809267 0
M  V30 16821 O 1665.67 -2.38039 -1.24863 0
M  V30 16822 C 1663.94 -3.42892 1.00797 0
M  V30 16823 S 1665.5 -4.3156 0.79382 0
M  V30 16824 H 1662.32 -0.671028 0.235036 0
M  V30 16825 H 1664.92 -1.50541 1.24731 0
M  V30 16826 H 1663.62 -3.54942 2.0602 0
M  V30 16827 H 1663.15 -3.91438 0.392386 0
M  V30 16828 H 1665.17 -4.95117 -0.327707 0
M  V30 16829 N 1664.34 -0.740267 -1.39132 0
M  V30 16830 C 1665.75 -0.359866 -1.83199 0
M  V30 16831 C 1666.1 1.1095 -1.61816 0
M  V30 16832 O 1665.23 1.85635 -1.11215 0
M  V30 16833 C 1665.82 -0.64639 -3.32577 0
M  V30 16834 C 1664.38 -0.319423 -3.75042 0
M  V30 16835 C 1663.53 -0.906345 -2.6207 0
M  V30 16836 H 1666.48 -0.93749 -1.2805 0
M  V30 16837 H 1666.5 0.080033 -3.80416 0
M  V30 16838 H 1666.01 -1.71588 -3.48108 0
M  V30 16839 H 1664.11 0.744022 -3.65096 0
M  V30 16840 H 1664.23 -0.805664 -4.72277 0
M  V30 16841 H 1662.59 -0.332615 -2.52519 0
M  V30 16842 H 1663.37 -1.9806 -2.80405 0
M  V30 16843 N 1665.82 1.49844 -0.488302 0
M  V30 16844 C 1666.75 2.26762 0.333396 0
M  V30 16845 C 1667.76 1.32785 0.941918 0
M  V30 16846 O 1668.95 1.58165 0.827407 0
M  V30 16847 C 1666.05 3.04721 1.48318 0
M  V30 16848 C 1665.23 4.26181 0.984303 0
M  V30 16849 C 1664.28 4.8629 2.01018 0
M  V30 16850 O 1663.31 5.4672 1.58384 0
M  V30 16851 N 1664.51 4.74813 3.33965 0
M  V30 16852 H 1667.28 2.97921 -0.32609 0
M  V30 16853 H 1664.84 1.58704 -0.320092 0
M  V30 16854 H 1666.83 3.4181 2.16676 0
M  V30 16855 H 1665.4 2.36251 2.04705 0
M  V30 16856 H 1664.62 3.93998 0.126039 0
M  V30 16857 H 1665.91 5.04895 0.62919 0
M  V30 16858 H 1665.31 4.26793 3.71301 0
M  V30 16859 H 1663.86 5.16122 3.98072 0
M  V30 16860 N 1667.3 0.221601 1.56034 0
M  V30 16861 C 1668.52 -0.417979 2.03145 0
M  V30 16862 C 1668.95 -1.52556 1.10038 0
M  V30 16863 O 1668.3 -1.81084 0.0885729 0
M  V30 16864 C 1668.35 -0.926762 3.48487 0
M  V30 16865 O 1667.46 -2.03811 3.58518 0
M  V30 16866 H 1666.8 -0.0945778 0.65723 0
M  V30 16867 H 1669.33 0.340252 2.01751 0
M  V30 16868 H 1669.34 -1.23656 3.8881 0
M  V30 16869 H 1668.01 -0.116115 4.15738 0
M  V30 16870 H 1666.59 -1.73494 3.30082 0
M  V30 16871 N 1668.77 -1.57515 -0.0517878 0
M  V30 16872 C 1670.01 -1.90056 -0.752209 0
M  V30 16873 C 1670.38 -0.817682 -1.73718 0
M  V30 16874 O 1671.58 -1.02674 -2.48418 0
M  V30 16875 C 1669.85 -3.27798 -1.42419 0
M  V30 16876 S 1671.41 -3.82129 -2.15691 0
M  V30 16877 H 1668.23 -0.665706 -0.249712 0
M  V30 16878 H 1670.83 -1.95499 -0.0075584 0
M  V30 16879 H 1669.53 -4.04493 -0.693783 0
M  V30 16880 H 1669.06 -3.25602 -2.20786 0
M  V30 16881 H 1671.08 -3.59025 -3.42513 0
M  V30 16882 N 1670.25 0.323614 -1.54242 0
M  V30 16883 C 1671.16 1.42128 -1.86646 0
M  V30 16884 C 1672.18 1.56603 -0.758385 0
M  V30 16885 O 1673.36 1.717 -1.05267 0
M  V30 16886 C 1670.42 2.76842 -2.08709 0
M  V30 16887 C 1669.48 2.71543 -3.3251 0
M  V30 16888 C 1668.71 3.99833 -3.5351 0
M  V30 16889 O 1668.94 4.98095 -2.77952 0
M  V30 16890 O 1667.87 4.03095 -4.46988 0
M  V30 16891 H 1671.7 1.17653 -2.79985 0
M  V30 16892 H 1669.28 0.517632 -1.40146 0
M  V30 16893 H 1671.16 3.56588 -2.24551 0
M  V30 16894 H 1669.84 3.01207 -1.18558 0
M  V30 16895 H 1668.75 1.90348 -3.22053 0
M  V30 16896 H 1670.08 2.52133 -4.22717 0
M  V30 16897 N 1671.73 1.46313 0.585673 0
M  V30 16898 C 1672.64 1.59232 1.72286 0
M  V30 16899 C 1673.66 0.475912 1.67365 0
M  V30 16900 O 1674.83 0.739627 1.87327 0
M  V30 16901 C 1671.9 1.57647 3.08785 0
M  V30 16902 C 1670.96 2.80497 3.24992 0
M  V30 16903 C 1670.19 2.78978 4.5498 0
M  V30 16904 O 1670.42 1.87553 5.38684 0
M  V30 16905 O 1669.35 3.7048 4.74371 0
M  V30 16906 H 1673.18 2.55398 1.64334 0
M  V30 16907 H 1670.76 1.29073 0.752369 0
M  V30 16908 H 1672.64 1.59448 3.90069 0
M  V30 16909 H 1671.32 0.6464 3.1718 0
M  V30 16910 H 1670.22 2.8425 2.43213 0
M  V30 16911 H 1671.56 3.72703 3.21487 0
M  V30 16912 N 1673.21 -0.830057 1.33969 0
M  V30 16913 C 1674.63 -1.12209 1.13496 0
M  V30 16914 C 1674.83 -2.01384 -0.0682972 0
M  V30 16915 O 1673.88 -2.4123 -0.745949 0
M  V30 16916 C 1675.19 -1.77568 2.42673 0
M  V30 16917 C 1676.74 -1.90095 2.48662 0
M  V30 16918 C 1677.22 -2.5887 3.77823 0
M  V30 16919 N 1678.71 -2.66375 3.78944 0
M  V30 16920 C 1679.44 -3.20301 4.75599 0
M  V30 16921 N 1678.94 -3.74846 5.82634 0
M  V30 16922 N 1680.73 -3.18636 4.63063 0
M  V30 16923 H 1672.88 -0.236752 2.11076 0
M  V30 16924 H 1675.15 -0.167572 0.933072 0
M  V30 16925 H 1674.85 -1.19505 3.30774 0
M  V30 16926 H 1674.73 -2.77505 2.55481 0
M  V30 16927 H 1677.11 -2.47308 1.61005 0
M  V30 16928 H 1677.19 -0.890808 2.39788 0
M  V30 16929 H 1676.84 -2.02313 4.65867 0
M  V30 16930 H 1676.77 -3.60373 3.83978 0
M  V30 16931 H 1679.26 -2.27705 3.01594 0
M  V30 16932 H 1679.57 -4.14224 6.52409 0
M  V30 16933 H 1677.92 -3.7311 5.86357 0
M  V30 16934 H 1681.11 -2.75286 3.78597 0
M  V30 16935 H 1681.28 -3.60359 5.38559 0
M  V30 16936 N 1674.69 -1.17582 -1.04939 0
M  V30 16937 C 1675.64 -0.891102 -2.14854 0
M  V30 16938 C 1676.63 0.145242 -1.68776 0
M  V30 16939 O 1677.84 -0.00207978 -1.8 0
M  V30 16940 H 1674.21 -0.270641 -0.701611 0
M  V30 16941 H 1676.18 -1.82519 -2.36071 0
M  V30 16942 C 1674.93 -0.423679 -3.45109 0
M  V30 16943 H 1674.25 -1.2126 -3.80967 0
M  V30 16944 H 1675.69 -0.263369 -4.23181 0
M  V30 16945 C 1674.15 0.859085 -3.25763 0
M  V30 16946 O 1674.68 1.9253 -3.52555 0
M  V30 16947 N 1672.89 0.80824 -2.79134 0
M  V30 16948 H 1672.44 -0.0596431 -2.57531 0
M  V30 16949 H 1672.39 1.66697 -2.6657 0
M  V30 16950 N 1676.17 1.23705 -0.976463 0
M  V30 16951 C 1677.1 2.2734 -0.532809 0
M  V30 16952 C 1678.08 1.64523 0.432012 0
M  V30 16953 O 1679.26 1.9144 0.326233 0
M  V30 16954 C 1676.39 3.46887 0.169374 0
M  V30 16955 C 1675.35 4.22031 -0.712336 0
M  V30 16956 C 1674.67 5.34561 0.121838 0
M  V30 16957 C 1675.97 4.8244 -2.00123 0
M  V30 16958 H 1677.67 2.64702 -1.39904 0
M  V30 16959 H 1675.21 1.27244 -0.674156 0
M  V30 16960 H 1677.16 4.18529 0.491028 0
M  V30 16961 H 1675.89 3.08574 1.07002 0
M  V30 16962 H 1674.55 3.522 -1.01739 0
M  V30 16963 H 1674.2 4.92489 1.0229 0
M  V30 16964 H 1673.9 5.85758 -0.464962 0
M  V30 16965 H 1675.42 6.09027 0.437963 0
M  V30 16966 H 1676.83 5.46111 -1.7446 0
M  V30 16967 H 1675.23 5.43906 -2.53548 0
M  V30 16968 H 1676.3 4.03405 -2.69059 0
M  V30 16969 N 1677.64 0.747635 1.38738 0
M  V30 16970 C 1679.06 0.424577 1.53849 0
M  V30 16971 C 1679.26 -1.06304 1.71177 0
M  V30 16972 O 1678.32 -1.84912 1.71941 0
M  V30 16973 C 1679.63 1.21863 2.749 0
M  V30 16974 C 1681.18 1.20811 2.88745 0
M  V30 16975 C 1681.65 1.985 4.12749 0
M  V30 16976 N 1683.14 1.9573 4.19814 0
M  V30 16977 C 1683.88 2.52641 5.14743 0
M  V30 16978 N 1683.37 3.18241 6.15382 0
M  V30 16979 N 1685.17 2.42604 5.0705 0
M  V30 16980 H 1677.32 1.71182 1.25739 0
M  V30 16981 H 1679.58 0.725358 0.610376 0
M  V30 16982 H 1679.29 2.27181 2.6848 0
M  V30 16983 H 1679.16 0.831509 3.67921 0
M  V30 16984 H 1681.55 0.163013 2.94649 0
M  V30 16985 H 1681.63 1.6347 1.96752 0
M  V30 16986 H 1681.27 3.03017 4.07606 0
M  V30 16987 H 1681.2 1.53239 5.03811 0
M  V30 16988 H 1683.69 1.4795 3.47734 0
M  V30 16989 H 1684.01 3.59101 6.843 0
M  V30 16990 H 1682.35 3.22334 6.15732 0
M  V30 16991 H 1685.54 1.90987 4.27366 0
M  V30 16992 H 1685.72 2.87253 5.80852 0
M  V30 16993 N 1679.12 -1.49583 0.496242 0
M  V30 16994 C 1680.03 -2.32808 -0.289404 0
M  V30 16995 C 1681.05 -1.44324 -0.971933 0
M  V30 16996 O 1682.22 -1.77352 -0.954366 0
M  V30 16997 C 1679.29 -3.19645 -1.34269 0
M  V30 16998 C 1678.35 -4.23975 -0.6741 0
M  V30 16999 C 1677.58 -5.06661 -1.6772 0
M  V30 17000 O 1677.81 -4.90792 -2.90654 0
M  V30 17001 O 1676.74 -5.89091 -1.23514 0
M  V30 17002 H 1680.57 -3.01164 0.391664 0
M  V30 17003 H 1678.15 -1.47162 0.257652 0
M  V30 17004 H 1680.03 -3.73453 -1.9522 0
M  V30 17005 H 1678.71 -2.53989 -2.00677 0
M  V30 17006 H 1677.61 -3.74092 -0.0249732 0
M  V30 17007 H 1678.95 -4.92172 -0.0525442 0
M  V30 17008 N 1680.6 -0.229873 -1.55915 0
M  V30 17009 C 1681.55 0.693198 -2.2203 0
M  V30 17010 C 1682.54 1.1933 -1.20236 0
M  V30 17011 O 1683.75 1.15217 -1.38294 0
M  V30 17012 H 1680.12 0.241986 -0.712002 0
M  V30 17013 H 1682.09 0.112229 -2.98189 0
M  V30 17014 C 1680.84 1.88688 -2.92048 0
M  V30 17015 H 1680.17 1.51119 -3.70139 0
M  V30 17016 H 1681.61 2.51036 -3.41697 0
M  V30 17017 C 1680.06 2.74747 -1.94976 0
M  V30 17018 O 1680.59 3.73759 -1.47198 0
M  V30 17019 N 1678.8 2.40956 -1.62445 0
M  V30 17020 H 1678.35 1.60494 -2.01493 0
M  V30 17021 H 1678.31 2.98816 -0.977581 0
M  V30 17022 N 1682.08 1.5754 0.0434337 0
M  V30 17023 C 1683.33 1.88235 0.735652 0
M  V30 17024 C 1683.65 0.825698 1.76656 0
M  V30 17025 O 1682.92 -0.142424 1.95382 0
M  V30 17026 H 1681.5 0.694661 0.274692 0
M  V30 17027 H 1684.16 1.94896 0.0127911 0
M  V30 17028 H 1683.25 2.86659 1.23421 0
M  V30 17029 N 1683.56 -0.31543 1.54411 0
M  V30 17030 C 1684.79 -1.07018 1.76722 0
M  V30 17031 C 1685.19 -1.81921 0.519754 0
M  V30 17032 O 1684.54 -1.76201 -0.519501 0
M  V30 17033 C 1684.6 -2.10781 2.91224 0
M  V30 17034 C 1684.26 -1.55204 4.29838 0
M  V30 17035 C 1685.26 -0.989568 5.10395 0
M  V30 17036 C 1682.94 -1.59201 4.76403 0
M  V30 17037 C 1684.94 -0.474466 6.35632 0
M  V30 17038 C 1682.63 -1.07304 6.01605 0
M  V30 17039 C 1683.62 -0.51522 6.81054 0
M  V30 17040 O 1683.31 -0.00407259 8.039 0
M  V30 17041 H 1683.04 -0.323799 0.593406 0
M  V30 17042 H 1685.6 -0.364708 2.02136 0
M  V30 17043 H 1683.83 -2.84968 2.614 0
M  V30 17044 H 1685.52 -2.72043 3.01243 0
M  V30 17045 H 1686.28 -0.951691 4.75571 0
M  V30 17046 H 1682.16 -2.01559 4.14602 0
M  V30 17047 H 1685.71 -0.0384139 6.97589 0
M  V30 17048 H 1681.6 -1.10802 6.35919 0
M  V30 17049 H 1682.37 -0.118732 8.18414 0
M  V30 17050 N 1685.03 -1.46622 -0.577906 0
M  V30 17051 C 1685.94 -1.60143 -1.71439 0
M  V30 17052 C 1686.96 -0.484781 -1.6711 0
M  V30 17053 O 1688.14 -0.749551 -1.86932 0
M  V30 17054 C 1685.2 -1.59282 -3.07945 0
M  V30 17055 C 1684.26 -2.82216 -3.235 0
M  V30 17056 C 1683.5 -2.81387 -4.53495 0
M  V30 17057 O 1683.72 -1.90407 -5.37681 0
M  V30 17058 O 1682.65 -3.72991 -4.724 0
M  V30 17059 H 1686.48 -2.56265 -1.62978 0
M  V30 17060 H 1684.06 -1.2947 -0.745514 0
M  V30 17061 H 1685.95 -1.61515 -3.89218 0
M  V30 17062 H 1684.62 -0.663212 -3.16833 0
M  V30 17063 H 1683.53 -2.85536 -2.41702 0
M  V30 17064 H 1684.86 -3.74402 -3.19506 0
M  V30 17065 N 1686.51 0.822941 -1.34408 0
M  V30 17066 C 1687.75 1.59269 -1.28112 0
M  V30 17067 C 1688.12 1.91437 0.146924 0
M  V30 17068 O 1689.32 2.66716 0.334053 0
M  V30 17069 C 1687.59 2.85727 -2.14698 0
M  V30 17070 S 1689.15 3.76272 -2.25754 0
M  V30 17071 H 1685.97 0.545903 -0.455534 0
M  V30 17072 H 1688.57 0.972069 -1.6962 0
M  V30 17073 H 1687.27 2.60092 -3.17459 0
M  V30 17074 H 1686.8 3.52786 -1.74086 0
M  V30 17075 H 1688.82 4.75138 -1.43031 0
M  V30 17076 N 1687.99 1.18137 1.04314 0
M  V30 17077 C 1688.9 0.921044 2.15764 0
M  V30 17078 C 1689.92 -0.11396 1.73626 0
M  V30 17079 O 1691.09 0.0673733 2.01287 0
M  V30 17080 C 1688.16 0.447581 3.43799 0
M  V30 17081 C 1687.22 1.55025 4.00332 0
M  V30 17082 C 1686.45 1.09928 5.22256 0
M  V30 17083 O 1686.67 -0.0430152 5.70384 0
M  V30 17084 O 1685.61 1.896 5.71258 0
M  V30 17085 H 1689.43 1.85353 2.40579 0
M  V30 17086 H 1687.02 0.962985 1.14223 0
M  V30 17087 H 1688.9 0.191497 4.20965 0
M  V30 17088 H 1687.58 -0.456641 3.20463 0
M  V30 17089 H 1686.48 1.86032 3.24566 0
M  V30 17090 H 1687.82 2.4305 4.28004 0
M  V30 17091 N 1689.47 -1.23186 0.98301 0
M  V30 17092 C 1690.71 -1.92259 0.663941 0
M  V30 17093 C 1691.07 -1.75245 -0.794155 0
M  V30 17094 O 1690.36 -1.10437 -1.5657 0
M  V30 17095 C 1690.56 -3.43331 0.992898 0
M  V30 17096 C 1690.39 -3.75041 2.48142 0
M  V30 17097 C 1689.16 -3.95589 3.14384 0
M  V30 17098 C 1691.35 -3.80309 3.46222 0
M  V30 17099 N 1689.34 -4.14526 4.52815 0
M  V30 17100 C 1690.71 -4.04269 4.70071 0
M  V30 17101 C 1692.76 -3.63113 3.40666 0
M  V30 17102 C 1691.46 -4.12819 5.89044 0
M  V30 17103 C 1693.49 -3.72916 4.59007 0
M  V30 17104 C 1692.85 -3.97316 5.81652 0
M  V30 17105 H 1688.95 -0.724605 0.29406 0
M  V30 17106 H 1691.54 -1.48347 1.261 0
M  V30 17107 H 1689.71 -3.86073 0.424507 0
M  V30 17108 H 1691.44 -3.99753 0.630833 0
M  V30 17109 H 1688.19 -3.92605 2.64874 0
M  V30 17110 H 1688.62 -4.27943 5.24589 0
M  V30 17111 H 1693.26 -3.43242 2.4687 0
M  V30 17112 H 1690.98 -4.31496 6.83255 0
M  V30 17113 H 1694.56 -3.60962 4.56287 0
M  V30 17114 H 1693.44 -4.04719 6.71694 0
M  V30 17115 N 1690.95 -0.754982 -1.38339 0
M  V30 17116 C 1692.36 -0.43273 -1.53622 0
M  V30 17117 C 1692.56 1.05395 -1.71739 0
M  V30 17118 O 1691.62 1.83998 -1.72919 0
M  V30 17119 C 1692.93 -1.23319 -2.7425 0
M  V30 17120 C 1694.48 -1.22341 -2.881 0
M  V30 17121 C 1694.95 -2.00686 -4.11691 0
M  V30 17122 N 1696.45 -1.97953 -4.1877 0
M  V30 17123 C 1697.18 -2.55367 -5.13396 0
M  V30 17124 N 1696.68 -3.215 -6.13685 0
M  V30 17125 N 1698.47 -2.45289 -5.05757 0
M  V30 17126 H 1690.62 -1.71847 -1.2483 0
M  V30 17127 H 1692.88 -0.728585 -0.606521 0
M  V30 17128 H 1692.59 -2.28602 -2.67272 0
M  V30 17129 H 1692.46 -0.851009 -3.67475 0
M  V30 17130 H 1694.85 -0.178637 -2.94559 0
M  V30 17131 H 1694.93 -1.64511 -1.95882 0
M  V30 17132 H 1694.58 -3.05175 -4.05994 0
M  V30 17133 H 1694.51 -1.55908 -5.02991 0
M  V30 17134 H 1697 -1.49792 -3.46945 0
M  V30 17135 H 1697.31 -3.62725 -6.82386 0
M  V30 17136 H 1695.65 -3.25595 -6.14014 0
M  V30 17137 H 1698.85 -1.93251 -4.26347 0
M  V30 17138 H 1699.02 -2.9033 -5.79321 0
M  V30 17139 N 1692.42 1.49318 -0.504168 0
M  V30 17140 C 1693.65 2.06569 0.0358894 0
M  V30 17141 C 1694.06 1.36437 1.31079 0
M  V30 17142 O 1693.41 0.437416 1.78416 0
M  V30 17143 C 1693.47 3.57726 0.356656 0
M  V30 17144 C 1693.13 4.49565 -0.820987 0
M  V30 17145 C 1694.13 4.90892 -1.71235 0
M  V30 17146 C 1691.81 4.9182 -1.02069 0
M  V30 17147 C 1693.81 5.73214 -2.78754 0
M  V30 17148 C 1691.49 5.73919 -2.09905 0
M  V30 17149 C 1692.49 6.14521 -2.98082 0
M  V30 17150 O 1692.18 6.94977 -4.04057 0
M  V30 17151 H 1691.91 0.675742 -0.0186739 0
M  V30 17152 H 1694.47 1.93044 -0.701664 0
M  V30 17153 H 1692.7 3.69271 1.14785 0
M  V30 17154 H 1694.39 3.97204 0.835704 0
M  V30 17155 H 1695.15 4.58889 -1.5699 0
M  V30 17156 H 1691.03 4.59717 -0.343714 0
M  V30 17157 H 1694.57 6.04826 -3.47609 0
M  V30 17158 H 1690.47 6.05334 -2.24144 0
M  V30 17159 H 1691.24 7.13289 -4.01449 0
M  V30 17160 N 1693.9 0.238138 1.5579 0
M  V30 17161 C 1694.85 -0.681413 2.22395 0
M  V30 17162 C 1695.84 -1.18691 1.20867 0
M  V30 17163 O 1697.05 -1.14482 1.38903 0
M  V30 17164 H 1693.43 -0.238207 0.713275 0
M  V30 17165 H 1695.4 -0.0964141 2.98244 0
M  V30 17166 C 1694.15 -1.87137 2.93045 0
M  V30 17167 H 1693.47 -1.49153 3.70936 0
M  V30 17168 H 1694.91 -2.4922 3.43024 0
M  V30 17169 C 1693.37 -2.73709 1.9643 0
M  V30 17170 O 1693.9 -3.72973 1.49178 0
M  V30 17171 N 1692.1 -2.40092 1.6372 0
M  V30 17172 H 1691.65 -1.59423 2.02341 0
M  V30 17173 H 1691.61 -2.98293 0.993414 0
M  V30 17174 N 1695.38 -1.57561 -0.0350783 0
M  V30 17175 C 1696.61 -1.93644 -0.742753 0
M  V30 17176 C 1697.03 -0.837655 -1.68419 0
M  V30 17177 O 1696.39 0.207069 -1.80114 0
M  V30 17178 C 1696.44 -3.28779 -1.48111 0
M  V30 17179 O 1695.54 -3.20604 -2.59398 0
M  V30 17180 H 1694.88 -0.633103 -0.200192 0
M  V30 17181 H 1697.41 -2.04599 0.00765271 0
M  V30 17182 H 1697.42 -3.63527 -1.85236 0
M  V30 17183 H 1696.1 -4.08316 -0.790608 0
M  V30 17184 H 1694.67 -2.97477 -2.2486 0
M  V30 17185 N 1696.86 0.307236 -1.54576 0
M  V30 17186 C 1698.1 1.05125 -1.75294 0
M  V30 17187 C 1698.46 1.84702 -0.524313 0
M  V30 17188 O 1699.66 2.61807 -0.609121 0
M  V30 17189 C 1697.93 1.93827 -3.00276 0
M  V30 17190 S 1699.49 2.74959 -3.41969 0
M  V30 17191 H 1696.31 0.35464 -0.61624 0
M  V30 17192 H 1698.91 0.325362 -1.92774 0
M  V30 17193 H 1697.62 1.3423 -3.87828 0
M  V30 17194 H 1697.15 2.70794 -2.85366 0
M  V30 17195 H 1699.16 3.96336 -2.9855 0
M  V30 17196 N 1698.34 1.46926 0.570122 0
M  V30 17197 C 1699.3 1.58009 1.6603 0
M  V30 17198 C 1700.3 0.456188 1.54193 0
M  V30 17199 O 1701.49 0.720879 1.58584 0
M  V30 17200 C 1698.62 1.51235 3.05517 0
M  V30 17201 H 1699.81 2.55178 1.57558 0
M  V30 17202 H 1697.37 1.34924 0.788998 0
M  V30 17203 H 1698.1 0.553929 3.19534 0
M  V30 17204 H 1697.89 2.3279 3.15518 0
M  V30 17205 H 1699.38 1.62101 3.84854 0
M  V30 17206 N 1699.82 -0.815801 1.34842 0
M  V30 17207 C 1701.23 -1.38911 1.24742 0
M  V30 17208 C 1701.58 -1.95807 -0.124101 0
M  V30 17209 O 1700.7 -1.906 -1.02472 0
M  V30 17210 C 1701.3 -2.52532 2.25861 0
M  V30 17211 C 1699.86 -3.05751 2.1953 0
M  V30 17212 C 1699 -1.78661 2.12075 0
M  V30 17213 H 1701.95 -0.619601 1.46105 0
M  V30 17214 H 1701.98 -3.30826 1.87974 0
M  V30 17215 H 1701.49 -2.11092 3.25671 0
M  V30 17216 H 1699.59 -3.51678 1.23099 0
M  V30 17217 H 1699.7 -3.64358 3.11095 0
M  V30 17218 H 1698.07 -1.99844 1.57907 0
M  V30 17219 H 1698.85 -1.39385 3.1373 0
M  V30 17220 N 1701.29 -1.18689 -1.03686 0
M  V30 17221 C 1702.26 -0.919415 -2.09951 0
M  V30 17222 C 1703.26 0.0968042 -1.60508 0
M  V30 17223 O 1704.45 -0.137062 -1.7366 0
M  V30 17224 C 1701.58 -0.380204 -3.38773 0
M  V30 17225 H 1702.77 -1.86178 -2.35112 0
M  V30 17226 H 1700.32 -0.999435 -1.20171 0
M  V30 17227 H 1701.06 0.568586 -3.19277 0
M  V30 17228 H 1700.84 -1.11281 -3.75977 0
M  V30 17229 H 1702.33 -0.211891 -4.17062 0
M  V30 17230 N 1702.77 1.22662 -0.989529 0
M  V30 17231 C 1704.01 1.9305 -0.671653 0
M  V30 17232 C 1704.38 1.75377 0.781465 0
M  V30 17233 O 1705.58 2.39996 1.2106 0
M  V30 17234 C 1703.85 3.41245 -1.0624 0
M  V30 17235 S 1705.41 4.30242 -0.862376 0
M  V30 17236 H 1702.22 0.667204 -0.245682 0
M  V30 17237 H 1704.83 1.48537 -1.2711 0
M  V30 17238 H 1703.53 3.51619 -2.11641 0
M  V30 17239 H 1703.06 3.90764 -0.454611 0
M  V30 17240 H 1705.08 4.95575 0.248897 0
M  V30 17241 N 1704.25 0.762308 1.37937 0
M  V30 17242 C 1705.18 0.100528 2.28979 0
M  V30 17243 C 1706.19 -0.674409 1.48174 0
M  V30 17244 O 1707.38 -0.514059 1.70938 0
M  V30 17245 C 1704.48 -0.881478 3.27236 0
M  V30 17246 C 1703.66 -0.162349 4.37099 0
M  V30 17247 C 1702.72 -1.05636 5.15488 0
M  V30 17248 O 1701.74 -0.523636 5.66786 0
M  V30 17249 N 1702.94 -2.3836 5.29306 0
M  V30 17250 H 1705.71 0.882451 2.86414 0
M  V30 17251 H 1703.27 0.613839 1.49812 0
M  V30 17252 H 1705.26 -1.48278 3.76558 0
M  V30 17253 H 1703.83 -1.56443 2.70637 0
M  V30 17254 H 1703.05 0.61976 3.89298 0
M  V30 17255 H 1704.34 0.334928 5.07696 0
M  V30 17256 H 1703.74 -2.84087 4.89194 0
M  V30 17257 H 1702.29 -2.9352 5.8197 0
M  V30 17258 N 1705.73 -1.49049 0.51208 0
M  V30 17259 C 1706.97 -2.0278 -0.0285311 0
M  V30 17260 C 1707.31 -1.39003 -1.35617 0
M  V30 17261 O 1706.58 -0.52952 -1.87153 0
M  V30 17262 C 1706.86 -3.59701 -0.169433 0
M  V30 17263 C 1706.72 -4.33989 1.18211 0
M  V30 17264 C 1708.04 -4.30698 -0.904812 0
M  V30 17265 H 1705.16 -0.736946 -0.00889467 0
M  V30 17266 H 1707.8 -1.77959 0.66564 0
M  V30 17267 H 1705.95 -3.8098 -0.760667 0
M  V30 17268 H 1707.62 -4.24176 1.81307 0
M  V30 17269 H 1705.86 -3.9611 1.76859 0
M  V30 17270 H 1706.53 -5.42177 1.03671 0
M  V30 17271 H 1709.01 -4.14141 -0.40327 0
M  V30 17272 H 1707.89 -5.40221 -0.972264 0
M  V30 17273 H 1708.15 -3.96718 -1.95108 0
M  V30 17274 N 1707.21 -0.246397 -1.55662 0
M  V30 17275 C 1708.43 0.382645 -2.03331 0
M  V30 17276 C 1708.85 1.51573 -1.12566 0
M  V30 17277 O 1708.21 1.81962 -0.139992 0
M  V30 17278 C 1708.26 0.890907 -3.5035 0
M  V30 17279 O 1707.98 -0.197023 -4.37657 0
M  V30 17280 C 1709.48 1.59069 -4.13778 0
M  V30 17281 H 1706.7 0.0909834 -0.664803 0
M  V30 17282 H 1709.24 -0.370113 -2.01123 0
M  V30 17283 H 1707.4 1.59385 -3.53094 0
M  V30 17284 H 1707.81 0.188846 -5.2416 0
M  V30 17285 H 1709.29 1.89805 -5.18342 0
M  V30 17286 H 1709.76 2.51248 -3.60238 0
M  V30 17287 H 1710.37 0.932333 -4.14955 0
M  V30 17288 N 1708.68 1.57577 0.026722 0
M  V30 17289 C 1709.92 1.91228 0.721878 0
M  V30 17290 C 1710.29 0.845216 1.72395 0
M  V30 17291 O 1711.49 1.06613 2.46753 0
M  V30 17292 C 1709.76 3.30022 1.37186 0
M  V30 17293 S 1711.32 3.85512 2.09585 0
M  V30 17294 H 1708.14 0.669595 0.23909 0
M  V30 17295 H 1710.74 1.95486 -0.0235447 0
M  V30 17296 H 1709.44 4.05546 0.629344 0
M  V30 17297 H 1708.97 3.29074 2.15578 0
M  V30 17298 H 1710.99 3.64429 3.36758 0
M  V30 17299 N 1710.16 -0.299034 1.54737 0
M  V30 17300 C 1711.09 -1.39055 1.82199 0
M  V30 17301 C 1712.11 -1.46741 0.705038 0
M  V30 17302 O 1713.3 -1.49025 0.982543 0
M  V30 17303 C 1710.4 -2.7741 1.94671 0
M  V30 17304 C 1709.57 -2.92633 3.25092 0
M  V30 17305 C 1708.63 -4.11499 3.27956 0
M  V30 17306 O 1707.65 -4.03491 4.01477 0
M  V30 17307 N 1708.86 -5.2223 2.53488 0
M  V30 17308 H 1711.62 -1.15852 2.76402 0
M  V30 17309 H 1709.18 -0.489108 1.54335 0
M  V30 17310 H 1711.17 -3.55178 1.93987 0
M  V30 17311 H 1709.74 -2.93552 1.07453 0
M  V30 17312 H 1708.96 -2.01962 3.38534 0
M  V30 17313 H 1710.25 -2.99716 4.11154 0
M  V30 17314 H 1709.65 -5.31617 1.93391 0
M  V30 17315 H 1708.21 -5.98325 2.58555 0
M  V30 17316 N 1711.64 -1.47227 -0.562322 0
M  V30 17317 C 1712.59 -1.55739 -1.66521 0
M  V30 17318 C 1713.57 -0.416678 -1.55411 0
M  V30 17319 O 1714.77 -0.666302 -1.6398 0
M  V30 17320 C 1711.89 -1.5699 -3.05302 0
M  V30 17321 C 1710.98 -2.76427 -3.21634 0
M  V30 17322 N 1711.37 -4.01172 -3.0805 0
M  V30 17323 C 1709.67 -2.73081 -3.52623 0
M  V30 17324 C 1710.37 -4.81132 -3.26936 0
M  V30 17325 N 1709.35 -4.13362 -3.53034 0
M  V30 17326 H 1713.15 -2.49965 -1.5458 0
M  V30 17327 H 1710.66 -1.4315 -0.766937 0
M  V30 17328 H 1712.66 -1.61178 -3.84483 0
M  V30 17329 H 1711.32 -0.638563 -3.18359 0
M  V30 17330 H 1712.33 -4.3211 -2.85485 0
M  V30 17331 H 1709.01 -1.89062 -3.72239 0
M  V30 17332 H 1710.4 -5.9002 -3.21444 0
M  V30 17333 N 1713.12 0.808639 -1.35273 0
M  V30 17334 C 1714.53 1.38248 -1.25477 0
M  V30 17335 C 1714.88 1.9587 0.113715 0
M  V30 17336 O 1714 1.91141 1.0146 0
M  V30 17337 C 1714.6 2.5133 -2.27197 0
M  V30 17338 C 1713.16 3.04582 -2.21148 0
M  V30 17339 C 1712.31 1.77534 -2.13019 0
M  V30 17340 H 1715.26 0.611844 -1.46431 0
M  V30 17341 H 1715.28 3.29825 -1.89726 0
M  V30 17342 H 1714.79 2.09362 -3.26786 0
M  V30 17343 H 1712.89 3.5102 -1.24963 0
M  V30 17344 H 1713 3.62703 -3.13023 0
M  V30 17345 H 1711.37 1.99004 -1.58964 0
M  V30 17346 H 1712.15 1.3772 -3.14465 0
M  V30 17347 N 1714.6 1.19237 1.03055 0
M  V30 17348 C 1715.51 0.943876 2.14775 0
M  V30 17349 C 1716.52 -0.0955384 1.73738 0
M  V30 17350 O 1717.7 0.0887187 2.01204 0
M  V30 17351 C 1714.76 0.48402 3.43305 0
M  V30 17352 C 1713.82 1.59262 3.98665 0
M  V30 17353 C 1713.06 1.15461 5.21061 0
M  V30 17354 O 1713.28 0.0174841 5.70397 0
M  V30 17355 O 1712.21 1.95648 5.69215 0
M  V30 17356 H 1716.04 1.87894 2.38599 0
M  V30 17357 H 1713.63 0.975046 1.13195 0
M  V30 17358 H 1715.51 0.236135 4.20738 0
M  V30 17359 H 1714.18 -0.422626 3.20929 0
M  V30 17360 H 1713.09 1.89464 3.22574 0
M  V30 17361 H 1714.42 2.47576 4.25402 0
M  V30 17362 N 1716.07 -1.22136 0.99602 0
M  V30 17363 C 1717.49 -1.72743 0.708295 0
M  V30 17364 C 1717.84 -1.8026 -0.774649 0
M  V30 17365 O 1716.96 -1.45102 -1.60544 0
M  V30 17366 C 1717.56 -3.13729 1.27905 0
M  V30 17367 C 1716.12 -3.61729 1.04064 0
M  V30 17368 C 1715.26 -2.39519 1.39735 0
M  V30 17369 H 1718.21 -1.07439 1.16801 0
M  V30 17370 H 1718.23 -3.74746 0.65919 0
M  V30 17371 H 1717.75 -3.08225 2.35836 0
M  V30 17372 H 1715.85 -3.72594 -0.0219029 0
M  V30 17373 H 1715.96 -4.47689 1.70621 0
M  V30 17374 H 1714.32 -2.41275 0.815986 0
M  V30 17375 H 1715.11 -2.36675 2.48677 0
M  V30 17376 N 1717.55 -0.769612 -1.37531 0
M  V30 17377 C 1718.48 -0.168389 -2.32892 0
M  V30 17378 C 1719.46 0.685549 -1.55673 0
M  V30 17379 O 1720.65 0.62345 -1.8392 0
M  V30 17380 C 1717.78 0.713183 -3.39898 0
M  V30 17381 C 1716.73 -0.0392808 -4.27982 0
M  V30 17382 C 1716.06 0.961596 -5.25982 0
M  V30 17383 C 1717.36 -1.21704 -5.07923 0
M  V30 17384 H 1719.05 -0.965022 -2.83421 0
M  V30 17385 H 1716.6 -0.465502 -1.36268 0
M  V30 17386 H 1718.55 1.14358 -4.05586 0
M  V30 17387 H 1717.28 1.54231 -2.87889 0
M  V30 17388 H 1715.93 -0.450429 -3.63822 0
M  V30 17389 H 1715.58 1.78522 -4.70254 0
M  V30 17390 H 1715.28 0.462679 -5.85776 0
M  V30 17391 H 1716.81 1.39097 -5.94545 0
M  V30 17392 H 1718.22 -0.863405 -5.66761 0
M  V30 17393 H 1716.62 -1.6479 -5.77031 0
M  V30 17394 H 1717.69 -2.02219 -4.40722 0
M  V30 17395 N 1719.03 1.48775 -0.519977 0
M  V30 17396 C 1719.99 2.27967 0.237405 0
M  V30 17397 C 1720.99 1.34787 0.876868 0
M  V30 17398 O 1722.18 1.57773 0.738463 0
M  V30 17399 C 1719.32 3.13353 1.34248 0
M  V30 17400 H 1720.51 2.96386 -0.457753 0
M  V30 17401 H 1718.06 1.53852 -0.275569 0
M  V30 17402 H 1718.8 2.49543 2.0712 0
M  V30 17403 H 1718.58 3.81885 0.889187 0
M  V30 17404 H 1720.07 3.73116 1.87547 0
M  V30 17405 N 1720.51 0.254649 1.55529 0
M  V30 17406 C 1721.75 -0.369374 2.01035 0
M  V30 17407 C 1722.11 -1.54564 1.13904 0
M  V30 17408 O 1723.31 -2.23792 1.48899 0
M  V30 17409 C 1721.58 -0.761489 3.49194 0
M  V30 17410 S 1723.14 -1.37494 4.16702 0
M  V30 17411 H 1719.96 -0.115878 0.701494 0
M  V30 17412 H 1722.56 0.371696 1.91934 0
M  V30 17413 H 1721.27 0.103781 4.10269 0
M  V30 17414 H 1720.8 -1.53454 3.62237 0
M  V30 17415 H 1722.81 -2.66389 4.1863 0
M  V30 17416 N 1721.99 -1.57589 -0.0183649 0
M  V30 17417 C 1723.4 -1.7799 -0.563591 0
M  V30 17418 C 1723.75 -0.887064 -1.75002 0
M  V30 17419 O 1722.87 -0.0846843 -2.16234 0
M  V30 17420 C 1723.47 -3.2279 -1.02919 0
M  V30 17421 C 1722.03 -3.44351 -1.51986 0
M  V30 17422 C 1721.17 -2.73412 -0.462727 0
M  V30 17423 H 1724.13 -1.57333 0.207849 0
M  V30 17424 H 1724.15 -3.29892 -1.89609 0
M  V30 17425 H 1723.66 -3.87747 -0.165487 0
M  V30 17426 H 1721.76 -2.84583 -2.40506 0
M  V30 17427 H 1721.87 -4.52992 -1.55998 0
M  V30 17428 H 1720.24 -2.37496 -0.920211 0
M  V30 17429 H 1721.02 -3.41058 0.391698 0
M  V30 17430 N 1723.46 0.290824 -1.54893 0
M  V30 17431 C 1724.71 1.02627 -1.74916 0
M  V30 17432 C 1725.04 1.86572 -0.538921 0
M  V30 17433 O 1724.32 1.88888 0.463844 0
M  V30 17434 C 1724.6 1.92376 -3.04407 0
M  V30 17435 C 1724.45 1.11542 -4.3575 0
M  V30 17436 C 1725.77 2.91383 -3.29824 0
M  V30 17437 H 1722.89 0.371685 -0.636411 0
M  V30 17438 H 1725.53 0.300072 -1.87615 0
M  V30 17439 H 1723.68 2.54295 -2.93711 0
M  V30 17440 H 1725.36 0.518312 -4.58379 0
M  V30 17441 H 1723.6 0.418386 -4.31778 0
M  V30 17442 H 1724.27 1.77616 -5.22644 0
M  V30 17443 H 1726.75 2.39595 -3.40196 0
M  V30 17444 H 1725.62 3.51338 -4.21726 0
M  V30 17445 H 1725.88 3.65579 -2.48606 0
M  V30 17446 N 1724.94 1.47523 0.554506 0
M  V30 17447 C 1725.87 1.56275 1.67663 0
M  V30 17448 C 1726.89 0.448743 1.56493 0
M  V30 17449 O 1728.08 0.718478 1.63402 0
M  V30 17450 C 1725.18 1.45348 3.06149 0
M  V30 17451 C 1724.35 2.71364 3.43046 0
M  V30 17452 C 1723.41 2.54237 4.60706 0
M  V30 17453 O 1722.43 3.28059 4.65152 0
M  V30 17454 N 1723.64 1.6224 5.57367 0
M  V30 17455 H 1726.4 2.53036 1.60601 0
M  V30 17456 H 1723.96 1.43936 0.741209 0
M  V30 17457 H 1725.95 1.31621 3.82698 0
M  V30 17458 H 1724.52 0.566583 3.07423 0
M  V30 17459 H 1723.74 2.99833 2.55917 0
M  V30 17460 H 1725.03 3.55017 3.64473 0
M  V30 17461 H 1724.43 1.01419 5.56534 0
M  V30 17462 H 1722.99 1.54463 6.33233 0
M  V30 17463 N 1726.42 -0.801453 1.357 0
M  V30 17464 C 1727.66 -1.57211 1.3063 0
M  V30 17465 C 1728.02 -1.91647 -0.116449 0
M  V30 17466 O 1729.23 -2.67214 -0.291578 0
M  V30 17467 C 1727.5 -2.82275 2.19216 0
M  V30 17468 S 1729.06 -3.72633 2.31712 0
M  V30 17469 H 1725.87 -0.538587 0.464161 0
M  V30 17470 H 1728.48 -0.944961 1.71145 0
M  V30 17471 H 1727.18 -2.55008 3.21557 0
M  V30 17472 H 1726.71 -3.49971 1.79676 0
M  V30 17473 H 1728.73 -4.72803 1.50572 0
M  V30 17474 N 1727.9 -1.19782 -1.02421 0
M  V30 17475 C 1729.14 -1.0048 -1.76158 0
M  V30 17476 C 1729.48 0.46281 -1.88605 0
M  V30 17477 O 1728.75 1.34366 -1.40628 0
M  V30 17478 C 1729.04 -1.67999 -3.1851 0
M  V30 17479 C 1728.89 -3.22155 -3.13905 0
M  V30 17480 C 1730.21 -1.40681 -4.17009 0
M  V30 17481 H 1727.33 -0.366436 -0.639448 0
M  V30 17482 H 1729.97 -1.47688 -1.19534 0
M  V30 17483 H 1728.12 -1.27862 -3.66856 0
M  V30 17484 H 1729.79 -3.71536 -2.7342 0
M  V30 17485 H 1728.03 -3.53456 -2.51498 0
M  V30 17486 H 1728.7 -3.64548 -4.14498 0
M  V30 17487 H 1731.18 -1.75488 -3.77284 0
M  V30 17488 H 1730.06 -1.90467 -5.14795 0
M  V30 17489 H 1730.32 -0.332889 -4.40845 0
M  V30 17490 N 1729.38 1.21606 -1.00248 0
M  V30 17491 C 1730.29 2.2757 -0.570004 0
M  V30 17492 C 1731.3 1.69669 0.385788 0
M  V30 17493 O 1732.48 1.99839 0.250246 0
M  V30 17494 C 1729.54 3.46558 0.0990566 0
M  V30 17495 C 1728.61 4.19741 -0.9009 0
M  V30 17496 C 1727.84 5.33048 -0.263673 0
M  V30 17497 O 1728.06 5.62599 0.940131 0
M  V30 17498 O 1727 5.93978 -0.973342 0
M  V30 17499 H 1730.82 2.66751 -1.45182 0
M  V30 17500 H 1728.41 1.27955 -0.771224 0
M  V30 17501 H 1730.29 4.18733 0.47339 0
M  V30 17502 H 1728.96 3.09283 0.955285 0
M  V30 17503 H 1727.87 3.49798 -1.32634 0
M  V30 17504 H 1729.2 4.60921 -1.72664 0
M  V30 17505 N 1730.86 0.776895 1.37121 0
M  V30 17506 C 1732.1 0.342876 1.9917 0
M  V30 17507 C 1732.42 -1.08574 1.61977 0
M  V30 17508 O 1731.69 -1.74634 0.887689 0
M  V30 17509 H 1730.27 0.123788 0.736672 0
M  V30 17510 H 1732.94 0.996163 1.67519 0
M  V30 17511 H 1732.03 0.424637 3.09198 0
M  V30 17512 N 1732.33 -1.48497 0.527859 0
M  V30 17513 C 1733.57 -2.04399 -0.00503337 0
M  V30 17514 C 1733.94 -1.39636 -1.3178 0
M  V30 17515 O 1735.14 -1.86412 -1.93659 0
M  V30 17516 C 1733.41 -3.57175 -0.126716 0
M  V30 17517 S 1734.97 -4.3454 -0.60998 0
M  V30 17518 H 1731.79 -0.710914 0.0110467 0
M  V30 17519 H 1734.39 -1.82232 0.707938 0
M  V30 17520 H 1733.09 -4.01845 0.833581 0
M  V30 17521 H 1732.62 -3.83792 -0.864129 0
M  V30 17522 H 1734.64 -4.59417 -1.87484 0
M  V30 17523 N 1733.81 -0.262893 -1.55392 0
M  V30 17524 C 1734.76 0.644115 -2.18712 0
M  V30 17525 C 1735.75 1.12746 -1.14792 0
M  V30 17526 O 1736.94 1.07457 -1.40649 0
M  V30 17527 C 1734.07 1.83346 -2.9024 0
M  V30 17528 C 1733.15 1.36787 -4.01435 0
M  V30 17529 N 1733.54 0.617586 -5.02015 0
M  V30 17530 C 1731.84 1.65185 -4.14283 0
M  V30 17531 C 1732.54 0.374392 -5.80494 0
M  V30 17532 N 1731.52 0.943273 -5.35353 0
M  V30 17533 H 1735.32 0.062908 -2.93833 0
M  V30 17534 H 1732.83 -0.0659062 -1.62266 0
M  V30 17535 H 1734.83 2.49441 -3.34043 0
M  V30 17536 H 1733.49 2.41874 -2.16627 0
M  V30 17537 H 1734.5 0.266115 -5.17216 0
M  V30 17538 H 1731.18 2.24736 -3.51852 0
M  V30 17539 H 1732.57 -0.225674 -6.71521 0
M  V30 17540 N 1735.29 1.57597 0.0100073 0
M  V30 17541 C 1736.25 2.06745 0.989401 0
M  V30 17542 C 1737.25 0.97499 1.27869 0
M  V30 17543 O 1738.44 1.23798 1.22555 0
M  V30 17544 C 1735.57 2.50048 2.31709 0
M  V30 17545 H 1736.77 2.9454 0.564473 0
M  V30 17546 H 1734.32 1.54168 0.257266 0
M  V30 17547 H 1735.06 1.65466 2.78911 0
M  V30 17548 H 1734.84 3.29823 2.12035 0
M  V30 17549 H 1736.33 2.88433 3.01987 0
M  V30 17550 N 1736.77 -0.282606 1.55045 0
M  V30 17551 C 1737.72 -1.35115 1.83652 0
M  V30 17552 C 1738.7 -1.45126 0.694788 0
M  V30 17553 O 1739.89 -1.48968 0.955898 0
M  V30 17554 C 1737.02 -2.71309 2.10348 0
M  V30 17555 C 1736.11 -2.65447 3.30755 0
M  V30 17556 N 1736.5 -2.29202 4.50888 0
M  V30 17557 C 1734.8 -2.96523 3.33152 0
M  V30 17558 C 1735.5 -2.33094 5.32956 0
M  V30 17559 N 1734.47 -2.71185 4.71126 0
M  V30 17560 H 1738.28 -1.06085 2.74086 0
M  V30 17561 H 1735.79 -0.491228 1.54792 0
M  V30 17562 H 1737.79 -3.48378 2.28995 0
M  V30 17563 H 1736.45 -3.01235 1.21192 0
M  V30 17564 H 1737.46 -2.01343 4.7716 0
M  V30 17565 H 1734.14 -3.31224 2.54159 0
M  V30 17566 H 1735.53 -2.07714 6.38987 0
M  V30 17567 N 1738.25 -1.47815 -0.546675 0
M  V30 17568 C 1739.49 -1.56566 -1.31402 0
M  V30 17569 C 1739.85 -0.227101 -1.90652 0
M  V30 17570 O 1741.05 -0.189506 -2.68131 0
M  V30 17571 C 1739.32 -2.6603 -2.38669 0
M  V30 17572 S 1740.88 -2.94436 -3.25351 0
M  V30 17573 H 1737.7 -0.552748 -0.447203 0
M  V30 17574 H 1740.3 -1.85251 -0.624688 0
M  V30 17575 H 1739 -3.6187 -1.93593 0
M  V30 17576 H 1738.54 -2.39193 -3.1233 0
M  V30 17577 H 1740.55 -2.32455 -4.38382 0
M  V30 17578 N 1739.72 0.794246 -1.36123 0
M  V30 17579 C 1741.13 1.36909 -1.26936 0
M  V30 17580 C 1741.49 1.9598 0.0929337 0
M  V30 17581 O 1740.61 1.92206 0.994266 0
M  V30 17582 C 1741.21 2.48906 -2.2985 0
M  V30 17583 C 1739.76 3.0222 -2.24366 0
M  V30 17584 C 1738.91 1.75264 -2.1489 0
M  V30 17585 H 1741.86 0.596278 -1.47072 0
M  V30 17586 H 1741.88 3.27794 -1.93213 0
M  V30 17587 H 1741.4 2.05884 -3.28988 0
M  V30 17588 H 1739.5 3.49675 -1.28679 0
M  V30 17589 H 1739.61 3.59363 -3.16852 0
M  V30 17590 H 1737.97 1.97306 -1.61066 0
M  V30 17591 H 1738.76 1.34377 -3.15908 0
M  V30 17592 N 1741.2 1.20323 1.01785 0
M  V30 17593 C 1742.61 1.01326 1.56812 0
M  V30 17594 C 1742.96 -0.430709 1.91414 0
M  V30 17595 O 1742.09 -1.31191 1.72098 0
M  V30 17596 C 1742.68 1.83304 2.8493 0
M  V30 17597 C 1741.24 1.68676 3.3649 0
M  V30 17598 C 1740.39 1.81315 2.0981 0
M  V30 17599 H 1743.34 1.34533 0.841815 0
M  V30 17600 H 1743.36 1.33567 3.56286 0
M  V30 17601 H 1742.87 2.88392 2.59714 0
M  V30 17602 H 1740.97 0.662195 3.66668 0
M  V30 17603 H 1741.09 2.49877 4.08777 0
M  V30 17604 H 1739.45 1.24488 2.22204 0
M  V30 17605 H 1740.23 2.87885 1.87022 0
M  V30 17606 N 1742.68 -1.21073 1.00892 0
M  V30 17607 C 1743.93 -1.89866 0.69248 0
M  V30 17608 C 1744.25 -1.7874 -0.779562 0
M  V30 17609 O 1743.52 -1.18482 -1.56009 0
M  V30 17610 H 1742.1 -0.702799 0.253145 0
M  V30 17611 H 1744.76 -1.47075 1.27887 0
M  V30 17612 H 1743.86 -2.96673 0.969098 0
M  V30 17613 N 1744.16 -0.784156 -1.36707 0
M  V30 17614 C 1745.11 -0.177044 -2.3012 0
M  V30 17615 C 1746.08 0.6761 -1.51717 0
M  V30 17616 O 1747.26 0.625878 -1.80243 0
M  V30 17617 C 1744.4 0.686337 -3.38206 0
M  V30 17618 C 1743.51 -0.184772 -4.31605 0
M  V30 17619 C 1742.65 0.684485 -5.26772 0
M  V30 17620 C 1741.69 -0.188402 -6.1181 0
M  V30 17621 N 1740.82 0.639537 -6.99181 0
M  V30 17622 H 1745.66 -0.979125 -2.81455 0
M  V30 17623 H 1743.2 -0.494419 -1.38542 0
M  V30 17624 H 1745.16 1.20185 -3.99514 0
M  V30 17625 H 1743.79 1.4539 -2.88204 0
M  V30 17626 H 1742.84 -0.818204 -3.71496 0
M  V30 17627 H 1744.15 -0.857567 -4.91373 0
M  V30 17628 H 1743.31 1.26601 -5.93344 0
M  V30 17629 H 1742.05 1.39092 -4.67445 0
M  V30 17630 H 1741.05 -0.782364 -5.44205 0
M  V30 17631 H 1742.28 -0.89236 -6.73212 0
M  V30 17632 H 1740.22 1.33036 -6.42369 0
M  V30 17633 H 1740.14 0.0243097 -7.55996 0
M  V30 17634 H 1741.41 1.20505 -7.70129 0
M  V30 17635 N 1745.64 1.48215 -0.535727 0
M  V30 17636 C 1746.89 2.017 -0.0016958 0
M  V30 17637 C 1747.2 1.41756 1.34776 0
M  V30 17638 O 1748.4 1.86774 1.97048 0
M  V30 17639 C 1746.86 3.59869 0.0473588 0
M  V30 17640 C 1746.47 4.28798 -1.29754 0
M  V30 17641 C 1748.21 4.21179 0.529915 0
M  V30 17642 C 1746.12 5.78915 -1.20876 0
M  V30 17643 H 1745.05 0.753993 0.00313606 0
M  V30 17644 H 1747.7 1.70421 -0.680368 0
M  V30 17645 H 1746.08 3.88015 0.791229 0
M  V30 17646 H 1747.26 4.12318 -2.05743 0
M  V30 17647 H 1745.57 3.79384 -1.7163 0
M  V30 17648 H 1748.17 5.31158 0.614396 0
M  V30 17649 H 1748.51 3.86887 1.53702 0
M  V30 17650 H 1749.04 3.97484 -0.158445 0
M  V30 17651 H 1745.78 6.17792 -2.1912 0
M  V30 17652 H 1745.3 5.97792 -0.490333 0
M  V30 17653 H 1746.98 6.40684 -0.901824 0
M  V30 17654 N 1747.11 0.27113 1.5525 0
M  V30 17655 C 1748.04 -0.61179 2.25343 0
M  V30 17656 C 1749.03 -1.16208 1.24216 0
M  V30 17657 O 1750.21 -1.19696 1.52927 0
M  V30 17658 C 1747.34 -1.7978 2.97147 0
M  V30 17659 C 1746.29 -1.37922 4.05169 0
M  V30 17660 C 1745.62 -2.64801 4.64526 0
M  V30 17661 C 1746.92 -0.532357 5.1958 0
M  V30 17662 H 1748.61 -0.0272538 2.99388 0
M  V30 17663 H 1746.16 -0.0116681 1.43995 0
M  V30 17664 H 1748.11 -2.42132 3.44891 0
M  V30 17665 H 1746.84 -2.40811 2.20631 0
M  V30 17666 H 1745.5 -0.778918 3.5823 0
M  V30 17667 H 1745.14 -3.24081 3.84682 0
M  V30 17668 H 1744.84 -2.37507 5.37461 0
M  V30 17669 H 1746.37 -3.28009 5.15017 0
M  V30 17670 H 1747.78 -1.06078 5.63401 0
M  V30 17671 H 1746.18 -0.35447 5.99052 0
M  V30 17672 H 1747.25 0.44981 4.82809 0
M  V30 17673 N 1748.59 -1.576 -0.00164943 0
M  V30 17674 C 1749.87 -1.81716 -0.723788 0
M  V30 17675 C 1750.25 -0.875694 -1.9208 0
M  V30 17676 O 1749.6 0.0759629 -2.28374 0
M  V30 17677 C 1749.81 -3.30164 -1.13106 0
M  V30 17678 C 1751.16 -3.95859 -1.5356 0
M  V30 17679 O 1752.18 -3.34477 -1.2249 0
M  V30 17680 O 1751.04 -5.03986 -2.1133 0
M  V30 17681 H 1748.13 -0.748213 -0.352287 0
M  V30 17682 H 1750.68 -1.69683 0.0236782 0
M  V30 17683 H 1749.45 -3.90313 -0.277771 0
M  V30 17684 H 1749.07 -3.47188 -1.93768 0
M  V30 17685 N 1750.07 0.274379 -1.55193 0
M  V30 17686 C 1750.98 1.36118 -1.91073 0
M  V30 17687 C 1752 1.54111 -0.807823 0
M  V30 17688 O 1753.17 1.68264 -1.10676 0
M  V30 17689 C 1750.24 2.70062 -2.17411 0
M  V30 17690 C 1749.3 2.60827 -3.4098 0
M  V30 17691 C 1748.53 3.88384 -3.66052 0
M  V30 17692 O 1748.75 4.89 -2.93657 0
M  V30 17693 O 1747.69 3.8867 -4.59586 0
M  V30 17694 H 1751.51 1.08686 -2.83586 0
M  V30 17695 H 1749.1 0.472784 -1.41722 0
M  V30 17696 H 1750.98 3.49264 -2.35782 0
M  V30 17697 H 1749.66 2.97283 -1.28081 0
M  V30 17698 H 1748.56 1.80006 -3.27946 0
M  V30 17699 H 1749.9 2.38556 -4.30525 0
M  V30 17700 N 1751.55 1.48103 0.538828 0
M  V30 17701 C 1752.48 1.64856 1.65363 0
M  V30 17702 C 1753.46 0.497579 1.6266 0
M  V30 17703 O 1754.64 0.729088 1.79994 0
M  V30 17704 C 1751.77 1.67984 3.03971 0
M  V30 17705 C 1750.73 2.82494 3.21529 0
M  V30 17706 C 1750.05 2.70706 4.6111 0
M  V30 17707 C 1751.35 4.23892 3.05145 0
M  V30 17708 H 1753.05 2.58183 1.51598 0
M  V30 17709 H 1750.59 1.24249 0.727886 0
M  V30 17710 H 1752.55 1.78294 3.81824 0
M  V30 17711 H 1751.27 0.712299 3.18738 0
M  V30 17712 H 1749.93 2.71725 2.46091 0
M  V30 17713 H 1749.58 1.7194 4.727 0
M  V30 17714 H 1749.28 3.47539 4.73804 0
M  V30 17715 H 1750.8 2.82971 5.41073 0
M  V30 17716 H 1752.22 4.3554 3.72797 0
M  V30 17717 H 1750.61 5.01654 3.29338 0
M  V30 17718 H 1751.68 4.40973 2.01671 0
M  V30 17719 N 1753.03 -0.787016 1.36542 0
M  V30 17720 C 1753.96 -1.91399 1.33749 0
M  V30 17721 C 1754.94 -1.68817 0.208559 0
M  V30 17722 O 1756.12 -1.89896 0.406574 0
M  V30 17723 C 1753.25 -3.28457 1.12842 0
M  V30 17724 C 1752.21 -3.65568 2.22585 0
M  V30 17725 C 1751.53 -5.01002 1.86818 0
M  V30 17726 C 1752.83 -3.73902 3.64684 0
M  V30 17727 H 1754.53 -1.93993 2.2805 0
M  V30 17728 H 1752.07 -0.931937 1.09777 0
M  V30 17729 H 1754.03 -4.06919 1.09522 0
M  V30 17730 H 1752.75 -3.26256 0.149918 0
M  V30 17731 H 1751.41 -2.89405 2.25035 0
M  V30 17732 H 1751.06 -4.95325 0.875361 0
M  V30 17733 H 1750.76 -5.26802 2.60294 0
M  V30 17734 H 1752.28 -5.81881 1.85058 0
M  V30 17735 H 1753.69 -4.4255 3.64448 0
M  V30 17736 H 1752.09 -4.11188 4.37086 0
M  V30 17737 H 1753.16 -2.74946 3.99416 0
M  V30 17738 N 1754.5 -1.20861 -1.01145 0
M  V30 17739 C 1755.44 -0.919862 -2.09931 0
M  V30 17740 C 1756.45 0.0944116 -1.62526 0
M  V30 17741 O 1757.64 -0.137265 -1.77971 0
M  V30 17742 C 1754.74 -0.358478 -3.36999 0
M  V30 17743 C 1753.91 -1.42553 -4.13518 0
M  V30 17744 C 1752.97 -0.874546 -5.18882 0
M  V30 17745 O 1752 -1.55646 -5.47506 0
M  V30 17746 N 1753.2 0.313462 -5.79653 0
M  V30 17747 H 1755.96 -1.85633 -2.35288 0
M  V30 17748 H 1753.52 -1.11299 -1.17577 0
M  V30 17749 H 1755.52 0.0243829 -4.04693 0
M  V30 17750 H 1754.09 0.482669 -3.08851 0
M  V30 17751 H 1753.31 -1.98251 -3.4072 0
M  V30 17752 H 1754.59 -2.14402 -4.61421 0
M  V30 17753 H 1753.99 0.884644 -5.5874 0
M  V30 17754 H 1752.55 0.637904 -6.48671 0
M  V30 17755 N 1755.98 1.20536 -1.01532 0
M  V30 17756 C 1757.21 1.93853 -0.723104 0
M  V30 17757 C 1757.63 1.74697 0.715994 0
M  V30 17758 O 1756.98 1.06013 1.48551 0
M  V30 17759 C 1757.03 3.45986 -1.04767 0
M  V30 17760 O 1756.75 3.64514 -2.43025 0
M  V30 17761 C 1758.26 4.36449 -0.776323 0
M  V30 17762 H 1755.48 0.616179 -0.265639 0
M  V30 17763 H 1758.02 1.53064 -1.35616 0
M  V30 17764 H 1756.17 3.84659 -0.460039 0
M  V30 17765 H 1756.59 4.58513 -2.54689 0
M  V30 17766 H 1758.06 5.41853 -1.05351 0
M  V30 17767 H 1758.54 4.38245 0.289524 0
M  V30 17768 H 1759.15 4.03437 -1.34605 0
M  V30 17769 N 1757.46 0.791395 1.36289 0
M  V30 17770 C 1758.7 0.370134 2.01021 0
M  V30 17771 C 1759.06 -1.03918 1.61447 0
M  V30 17772 O 1760.27 -1.56163 2.18784 0
M  V30 17773 C 1758.54 0.530868 3.53435 0
M  V30 17774 S 1760.1 0.197778 4.38354 0
M  V30 17775 H 1756.91 0.141315 0.696815 0
M  V30 17776 H 1759.52 1.03032 1.66147 0
M  V30 17777 H 1758.22 1.55683 3.79725 0
M  V30 17778 H 1757.75 -0.14518 3.93132 0
M  V30 17779 H 1759.77 -0.999956 4.8602 0
M  V30 17780 N 1758.94 -1.47929 0.54358 0
M  V30 17781 C 1760.19 -2.02795 0.014488 0
M  V30 17782 C 1760.52 -1.41848 -1.32638 0
M  V30 17783 O 1759.79 -0.569099 -1.85988 0
M  V30 17784 C 1760.08 -3.5998 -0.093097 0
M  V30 17785 C 1759.93 -4.31384 1.2739 0
M  V30 17786 C 1761.25 -4.32521 -0.813251 0
M  V30 17787 H 1758.37 -0.736969 0.00673905 0
M  V30 17788 H 1761.01 -1.76507 0.703238 0
M  V30 17789 H 1759.16 -3.82508 -0.679685 0
M  V30 17790 H 1760.83 -4.20235 1.90264 0
M  V30 17791 H 1759.07 -3.9227 1.85221 0
M  V30 17792 H 1759.75 -5.39856 1.15148 0
M  V30 17793 H 1762.22 -4.14903 -0.315334 0
M  V30 17794 H 1761.1 -5.42161 -0.857456 0
M  V30 17795 H 1761.36 -4.00768 -1.86649 0
M  V30 17796 N 1760.42 -0.27936 -1.55104 0
M  V30 17797 C 1761.69 0.388213 -1.91709 0
M  V30 17798 C 1762.07 1.7339 -1.20412 0
M  V30 17799 O 1761.42 2.26069 -0.332419 0
M  V30 17800 C 1761.63 0.524298 -3.45039 0
M  V30 17801 C 1762.98 0.805229 -4.16895 0
M  V30 17802 O 1764 0.608944 -3.50956 0
M  V30 17803 O 1762.86 1.18089 -5.33589 0
M  V30 17804 H 1759.96 0.213245 -0.799034 0
M  V30 17805 H 1762.5 -0.325825 -1.66543 0
M  V30 17806 H 1761.28 -0.422562 -3.89012 0
M  V30 17807 H 1760.9 1.28764 -3.76172 0
M  V30 17808 N 1761.9 1.57599 -0.0067085 0
M  V30 17809 C 1763.31 1.78864 0.535202 0
M  V30 17810 C 1763.66 0.914793 1.73568 0
M  V30 17811 O 1762.78 0.119075 2.16072 0
M  V30 17812 C 1763.38 3.24386 0.977709 0
M  V30 17813 C 1761.94 3.46725 1.46488 0
M  V30 17814 C 1761.08 2.74114 0.419171 0
M  V30 17815 H 1764.03 1.56982 -0.232853 0
M  V30 17816 H 1764.06 3.32867 1.84336 0
M  V30 17817 H 1763.57 3.87961 0.103778 0
M  V30 17818 H 1761.67 2.88373 2.35948 0
M  V30 17819 H 1761.78 4.55416 1.48772 0
M  V30 17820 H 1760.15 2.3893 0.882311 0
M  V30 17821 H 1760.93 3.40392 -0.445908 0
M  V30 17822 N 1763.37 -0.266145 1.55336 0
M  V30 17823 C 1764.28 -1.35103 1.91793 0
M  V30 17824 C 1765.3 -1.5368 0.815985 0
M  V30 17825 O 1766.48 -1.67675 1.11567 0
M  V30 17826 C 1763.54 -2.68905 2.1884 0
M  V30 17827 C 1762.6 -2.59015 3.42359 0
M  V30 17828 C 1761.83 -3.86437 3.68106 0
M  V30 17829 O 1762.06 -4.87436 2.96247 0
M  V30 17830 O 1760.99 -3.86227 4.61641 0
M  V30 17831 H 1764.82 -1.07181 2.84158 0
M  V30 17832 H 1762.4 -0.465262 1.41971 0
M  V30 17833 H 1764.28 -3.48008 2.3763 0
M  V30 17834 H 1762.96 -2.96599 1.29656 0
M  V30 17835 H 1761.87 -1.78264 3.28896 0
M  V30 17836 H 1763.2 -2.3627 4.31784 0
M  V30 17837 N 1764.85 -1.48386 -0.530967 0
M  V30 17838 C 1766.13 -1.46843 -1.29215 0
M  V30 17839 C 1766.51 -0.179567 -2.10335 0
M  V30 17840 O 1765.86 0.838706 -2.12551 0
M  V30 17841 C 1766.07 -2.72983 -2.17443 0
M  V30 17842 C 1767.41 -3.21271 -2.77615 0
M  V30 17843 O 1768.44 -2.73893 -2.2773 0
M  V30 17844 O 1767.3 -4.03709 -3.68349 0
M  V30 17845 H 1764.39 -0.586393 -0.583157 0
M  V30 17846 H 1766.94 -1.60619 -0.547702 0
M  V30 17847 H 1765.71 -3.58301 -1.57278 0
M  V30 17848 H 1765.33 -2.61922 -2.99137 0
M  V30 17849 N 1766.33 0.779763 -1.36958 0
M  V30 17850 C 1767.57 1.55113 -1.33114 0
M  V30 17851 C 1767.93 1.91808 0.0859451 0
M  V30 17852 O 1769.13 2.67644 0.24903 0
M  V30 17853 C 1767.41 2.78752 -2.23679 0
M  V30 17854 S 1768.96 3.68899 -2.37611 0
M  V30 17855 H 1765.78 0.531134 -0.472671 0
M  V30 17856 H 1768.38 0.917613 -1.72627 0
M  V30 17857 H 1767.09 2.4986 -3.25573 0
M  V30 17858 H 1766.62 3.47069 -1.85221 0
M  V30 17859 H 1768.63 4.70347 -1.58075 0
M  V30 17860 N 1767.81 1.21396 1.00503 0
M  V30 17861 C 1769.22 1.02983 1.55728 0
M  V30 17862 C 1769.57 -0.410383 1.9186 0
M  V30 17863 O 1768.69 -1.29358 1.7348 0
M  V30 17864 C 1769.29 1.86316 2.8297 0
M  V30 17865 C 1767.85 1.72235 3.34682 0
M  V30 17866 C 1767 1.8353 2.07875 0
M  V30 17867 H 1769.95 1.35418 0.827499 0
M  V30 17868 H 1769.97 1.37339 3.5485 0
M  V30 17869 H 1769.48 2.91131 2.56641 0
M  V30 17870 H 1767.58 0.701047 3.65945 0
M  V30 17871 H 1767.69 2.54198 4.06103 0
M  V30 17872 H 1766.06 1.26838 2.20872 0
M  V30 17873 H 1766.84 2.89852 1.83958 0
M  V30 17874 N 1769.29 -1.19996 1.0217 0
M  V30 17875 C 1770.53 -1.89776 0.715047 0
M  V30 17876 C 1770.86 -1.78971 -0.753862 0
M  V30 17877 O 1770.14 -1.17729 -1.54823 0
M  V30 17878 C 1770.42 -3.4098 1.15779 0
M  V30 17879 C 1770.28 -3.60693 2.68739 0
M  V30 17880 C 1771.59 -4.33953 0.733008 0
M  V30 17881 H 1768.71 -0.689148 0.261236 0
M  V30 17882 H 1771.36 -1.41287 1.27035 0
M  V30 17883 H 1769.51 -3.82407 0.68534 0
M  V30 17884 H 1771.18 -3.28484 3.23876 0
M  V30 17885 H 1769.42 -3.0399 3.09472 0
M  V30 17886 H 1770.09 -4.66704 2.94773 0
M  V30 17887 H 1772.57 -4.002 1.13925 0
M  V30 17888 H 1771.44 -5.38355 1.07077 0
M  V30 17889 H 1771.7 -4.4059 -0.365047 0
M  V30 17890 N 1770.76 -0.798611 -1.35867 0
M  V30 17891 C 1772 -0.380789 -2.00822 0
M  V30 17892 C 1772.37 1.03061 -1.61995 0
M  V30 17893 O 1773.57 1.55001 -2.19609 0
M  V30 17894 C 1771.84 -0.549604 -3.53149 0
M  V30 17895 S 1773.4 -0.221022 -4.38243 0
M  V30 17896 H 1770.22 -0.145008 -0.696056 0
M  V30 17897 H 1772.82 -1.03912 -1.65598 0
M  V30 17898 H 1771.52 -1.57695 -3.78894 0
M  V30 17899 H 1771.05 0.124329 -3.93203 0
M  V30 17900 H 1773.07 0.974167 -4.86543 0
M  V30 17901 N 1772.24 1.47639 -0.551417 0
M  V30 17902 C 1773.15 2.33722 0.202799 0
M  V30 17903 C 1774.17 1.47832 0.917699 0
M  V30 17904 O 1775.34 1.80772 0.887885 0
M  V30 17905 C 1772.41 3.24408 1.22313 0
M  V30 17906 C 1771.47 4.26184 0.51628 0
M  V30 17907 C 1770.7 5.12537 1.488 0
M  V30 17908 O 1770.93 5.01241 2.72238 0
M  V30 17909 O 1769.86 5.93269 1.01566 0
M  V30 17910 H 1773.69 2.99503 -0.50317 0
M  V30 17911 H 1771.27 1.46104 -0.312093 0
M  V30 17912 H 1773.15 3.80441 1.81225 0
M  V30 17913 H 1771.83 2.61262 1.91112 0
M  V30 17914 H 1770.73 3.73927 -0.113886 0
M  V30 17915 H 1772.07 4.92028 -0.130158 0
M  V30 17916 N 1773.72 0.287581 1.54954 0
M  V30 17917 C 1774.97 -0.326093 2.00161 0
M  V30 17918 C 1775.3 -1.54564 1.17574 0
M  V30 17919 O 1774.57 -1.92901 0.248859 0
M  V30 17920 C 1774.86 -0.695974 3.5331 0
M  V30 17921 C 1774.71 0.531783 4.46645 0
M  V30 17922 C 1776.03 -1.52767 4.12735 0
M  V30 17923 H 1773.15 -0.117051 0.727646 0
M  V30 17924 H 1775.79 0.39701 1.85806 0
M  V30 17925 H 1773.94 -1.31205 3.65674 0
M  V30 17926 H 1775.61 1.17032 4.46208 0
M  V30 17927 H 1773.86 1.16754 4.17793 0
M  V30 17928 H 1774.53 0.229034 5.51525 0
M  V30 17929 H 1777 -1.00724 4.03725 0
M  V30 17930 H 1775.88 -1.75527 5.20078 0
M  V30 17931 H 1776.14 -2.51267 3.63755 0
M  V30 17932 N 1775.2 -1.57593 0.0150662 0
M  V30 17933 C 1776.16 -2.08293 -0.956385 0
M  V30 17934 C 1777.16 -0.99521 -1.26302 0
M  V30 17935 O 1778.35 -1.25732 -1.2057 0
M  V30 17936 C 1775.48 -2.53702 -2.27701 0
M  V30 17937 H 1776.68 -2.95401 -0.517543 0
M  V30 17938 H 1774.23 -1.54558 -0.232706 0
M  V30 17939 H 1774.96 -1.69882 -2.76244 0
M  V30 17940 H 1774.75 -3.33155 -2.06761 0
M  V30 17941 H 1776.24 -2.93201 -2.9736 0
M  V30 17942 N 1776.68 0.257904 -1.55475 0
M  V30 17943 C 1777.92 0.985519 -1.76442 0
M  V30 17944 C 1778.25 1.86267 -0.577033 0
M  V30 17945 O 1777.52 1.91613 0.407582 0
M  V30 17946 H 1776.1 0.366872 -0.650702 0
M  V30 17947 H 1778.76 0.278498 -1.929 0
M  V30 17948 H 1777.85 1.61367 -2.67146 0
M  V30 17949 N 1778.15 1.48666 0.52309 0
M  V30 17950 C 1779.57 1.34939 0.852268 0
M  V30 17951 C 1779.77 0.365638 1.98155 0
M  V30 17952 O 1778.83 -0.210671 2.5162 0
M  V30 17953 C 1780.14 2.75136 1.21329 0
M  V30 17954 C 1781.69 2.83675 1.32278 0
M  V30 17955 C 1782.16 4.24589 1.71721 0
M  V30 17956 N 1783.65 4.27295 1.78811 0
M  V30 17957 C 1784.39 5.33274 2.10729 0
M  V30 17958 N 1783.88 6.49523 2.41023 0
M  V30 17959 N 1785.68 5.20673 2.11793 0
M  V30 17960 H 1777.83 2.11237 -0.221919 0
M  V30 17961 H 1780.09 0.947291 -0.0366525 0
M  V30 17962 H 1779.8 3.48717 0.457065 0
M  V30 17963 H 1779.67 3.091 2.16187 0
M  V30 17964 H 1782.06 2.10345 2.06976 0
M  V30 17965 H 1782.14 2.53321 0.355248 0
M  V30 17966 H 1781.78 4.98438 0.975805 0
M  V30 17967 H 1781.71 4.52391 2.69536 0
M  V30 17968 H 1784.2 3.43447 1.57648 0
M  V30 17969 H 1784.52 7.26125 2.64503 0
M  V30 17970 H 1782.86 6.52786 2.38528 0
M  V30 17971 H 1786.05 4.28869 1.87588 0
M  V30 17972 H 1786.23 6.03365 2.36336 0
M  V30 17973 N 1779.63 -0.772489 1.37369 0
M  V30 17974 C 1781.05 -1.07294 1.18153 0
M  V30 17975 C 1781.25 -2.01493 0.0171782 0
M  V30 17976 O 1780.3 -2.44177 -0.642964 0
M  V30 17977 C 1781.62 -1.67116 2.49986 0
M  V30 17978 C 1783.17 -1.79377 2.56501 0
M  V30 17979 C 1783.64 -2.42612 3.88463 0
M  V30 17980 N 1785.13 -2.50063 3.89901 0
M  V30 17981 C 1785.87 -2.99841 4.88756 0
M  V30 17982 N 1785.36 -3.49798 5.98008 0
M  V30 17983 N 1787.16 -2.98709 4.76161 0
M  V30 17984 H 1779.31 -0.147014 2.11891 0
M  V30 17985 H 1781.57 -0.127846 0.93934 0
M  V30 17986 H 1781.28 -1.05369 3.35545 0
M  V30 17987 H 1781.15 -2.6642 2.67021 0
M  V30 17988 H 1783.54 -2.40257 1.71349 0
M  V30 17989 H 1783.62 -0.788304 2.4335 0
M  V30 17990 H 1783.26 -1.82372 4.74029 0
M  V30 17991 H 1783.19 -3.43763 3.98917 0
M  V30 17992 H 1785.68 -2.14709 3.1098 0
M  V30 17993 H 1786 -3.86181 6.69391 0
M  V30 17994 H 1784.34 -3.47905 6.01654 0
M  V30 17995 H 1787.53 -2.5898 3.89932 0
M  V30 17996 H 1787.7 -3.37193 5.53358 0
M  V30 17997 N 1781.11 -1.21927 -0.998575 0
M  V30 17998 C 1782.36 -1.0404 -1.7373 0
M  V30 17999 C 1782.69 0.425251 -1.89794 0
M  V30 18000 O 1781.94 1.3317 -1.43402 0
M  V30 18001 C 1782.24 -1.69015 -3.1491 0
M  V30 18002 C 1781.91 -3.18893 -3.18776 0
M  V30 18003 C 1780.57 -3.5979 -3.19538 0
M  V30 18004 C 1782.92 -4.14851 -3.15512 0
M  V30 18005 C 1780.25 -4.95138 -3.1473 0
M  V30 18006 C 1782.6 -5.50168 -3.12246 0
M  V30 18007 C 1781.26 -5.90454 -3.11321 0
M  V30 18008 H 1780.53 -0.380709 -0.635721 0
M  V30 18009 H 1783.18 -1.5161 -1.1699 0
M  V30 18010 H 1781.49 -1.13755 -3.74923 0
M  V30 18011 H 1783.18 -1.52671 -3.708 0
M  V30 18012 H 1779.77 -2.86325 -3.18929 0
M  V30 18013 H 1783.96 -3.84277 -3.14078 0
M  V30 18014 H 1779.21 -5.25589 -3.12356 0
M  V30 18015 H 1783.39 -6.24254 -3.08675 0
M  V30 18016 H 1781.01 -6.95299 -3.0735 0
M  V30 18017 N 1782.59 1.19452 -1.02805 0
M  V30 18018 C 1783.55 2.20857 -0.612757 0
M  V30 18019 C 1784.55 1.57519 0.323182 0
M  V30 18020 O 1785.74 1.7385 0.110303 0
M  V30 18021 C 1782.87 3.40743 0.103488 0
M  V30 18022 H 1784.07 2.59113 -1.50998 0
M  V30 18023 H 1781.62 1.33116 -0.819142 0
M  V30 18024 H 1782.35 3.08004 1.0151 0
M  V30 18025 H 1782.14 3.87949 -0.56903 0
M  V30 18026 H 1783.63 4.15858 0.380998 0
M  V30 18027 N 1784.07 0.805805 1.35442 0
M  V30 18028 C 1785.29 0.397179 2.03561 0
M  V30 18029 C 1785.72 -0.983665 1.6033 0
M  V30 18030 O 1785.07 -1.63683 0.779586 0
M  V30 18031 C 1785.12 0.487813 3.57285 0
M  V30 18032 O 1784.23 -0.499039 4.09369 0
M  V30 18033 H 1783.57 0.166009 0.642913 0
M  V30 18034 H 1786.1 1.09147 1.73055 0
M  V30 18035 H 1786.11 0.357334 4.06432 0
M  V30 18036 H 1784.78 1.49501 3.88101 0
M  V30 18037 H 1783.36 -0.328864 3.71447 0
M  V30 18038 N 1785.54 -1.47344 0.559239 0
M  V30 18039 C 1786.79 -2.02068 0.035872 0
M  V30 18040 C 1787.11 -1.43573 -1.31953 0
M  V30 18041 O 1786.38 -0.611672 -1.86106 0
M  V30 18042 H 1784.96 -0.746929 0.0102713 0
M  V30 18043 H 1787.63 -1.80724 0.729707 0
M  V30 18044 H 1786.72 -3.12059 -0.0507123 0
M  V30 18045 N 1787.02 -0.295795 -1.54799 0
M  V30 18046 C 1787.97 0.582614 -2.23325 0
M  V30 18047 C 1788.94 1.13365 -1.21398 0
M  V30 18048 O 1790.12 1.17914 -1.50003 0
M  V30 18049 C 1787.26 1.75112 -2.97371 0
M  V30 18050 C 1786.38 1.23197 -4.14061 0
M  V30 18051 C 1785.51 2.36393 -4.75701 0
M  V30 18052 C 1784.55 1.81585 -5.84545 0
M  V30 18053 N 1783.69 2.88334 -6.40162 0
M  V30 18054 H 1788.53 -0.00836451 -2.97999 0
M  V30 18055 H 1786.07 -0.0158966 -1.47091 0
M  V30 18056 H 1788.02 2.4383 -3.38531 0
M  V30 18057 H 1786.65 2.31381 -2.25084 0
M  V30 18058 H 1785.71 0.437226 -3.77879 0
M  V30 18059 H 1787.02 0.790706 -4.92493 0
M  V30 18060 H 1786.17 3.13067 -5.19687 0
M  V30 18061 H 1784.91 2.83844 -3.9659 0
M  V30 18062 H 1783.92 1.03399 -5.3999 0
M  V30 18063 H 1785.14 1.35045 -6.65537 0
M  V30 18064 H 1783.09 3.35129 -5.63937 0
M  V30 18065 H 1783 2.48687 -7.13926 0
M  V30 18066 H 1784.27 3.64921 -6.88805 0
M  V30 18067 N 1788.5 1.57583 -0.0234236 0
M  V30 18068 C 1789.45 2.09872 0.960327 0
M  V30 18069 C 1790.42 0.999466 1.32665 0
M  V30 18070 O 1791.6 1.27332 1.42095 0
M  V30 18071 C 1788.74 2.62578 2.23935 0
M  V30 18072 C 1787.86 3.86491 1.92999 0
M  V30 18073 C 1786.99 4.27611 3.15154 0
M  V30 18074 C 1786.03 5.44298 2.80011 0
M  V30 18075 N 1785.17 5.80601 3.94775 0
M  V30 18076 H 1790.01 2.93647 0.507502 0
M  V30 18077 H 1787.54 1.45147 0.238911 0
M  V30 18078 H 1789.5 2.91223 2.98739 0
M  V30 18079 H 1788.13 1.81643 2.66844 0
M  V30 18080 H 1787.18 3.6461 1.08462 0
M  V30 18081 H 1788.5 4.71377 1.63112 0
M  V30 18082 H 1787.65 4.57663 3.98284 0
M  V30 18083 H 1786.39 3.41481 3.48198 0
M  V30 18084 H 1785.39 5.13946 1.95293 0
M  V30 18085 H 1786.62 6.32122 2.4819 0
M  V30 18086 H 1784.57 4.97427 4.27671 0
M  V30 18087 H 1784.48 6.60113 3.68492 0
M  V30 18088 H 1785.75 6.15255 4.78624 0
M  V30 18089 N 1789.98 -0.249655 1.5561 0
M  V30 18090 C 1791.23 -0.979529 1.77576 0
M  V30 18091 C 1791.56 -1.85078 0.588198 0
M  V30 18092 O 1790.83 -1.90052 -0.4136 0
M  V30 18093 C 1791.12 -1.84238 3.094 0
M  V30 18094 C 1790.97 -0.9995 4.38554 0
M  V30 18095 C 1792.29 -2.82536 3.37433 0
M  V30 18096 H 1789.41 -0.354681 0.646042 0
M  V30 18097 H 1792.05 -0.250224 1.88345 0
M  V30 18098 H 1790.2 -2.46419 3.0035 0
M  V30 18099 H 1791.87 -0.396599 4.59592 0
M  V30 18100 H 1790.11 -0.30376 4.32735 0
M  V30 18101 H 1790.79 -1.63697 5.27169 0
M  V30 18102 H 1793.26 -2.30491 3.46429 0
M  V30 18103 H 1792.14 -3.40033 4.30893 0
M  V30 18104 H 1792.4 -3.58859 2.58211 0
M  V30 18105 N 1791.46 -1.48941 -0.515198 0
M  V30 18106 C 1792.69 -1.61396 -1.29457 0
M  V30 18107 C 1793.1 -0.279847 -1.86714 0
M  V30 18108 O 1792.46 0.732861 -1.67139 0
M  V30 18109 C 1792.51 -2.67194 -2.43494 0
M  V30 18110 O 1792.23 -3.95429 -1.88593 0
M  V30 18111 C 1793.73 -2.90224 -3.35089 0
M  V30 18112 H 1790.95 -0.543754 -0.393157 0
M  V30 18113 H 1793.49 -1.94875 -0.619996 0
M  V30 18114 H 1791.65 -2.36532 -3.06808 0
M  V30 18115 H 1792.06 -4.53593 -2.63351 0
M  V30 18116 H 1793.54 -3.68018 -4.1142 0
M  V30 18117 H 1794.01 -1.99601 -3.91224 0
M  V30 18118 H 1794.62 -3.22247 -2.77555 0
M  V30 18119 N 1792.94 0.765193 -1.37777 0
M  V30 18120 C 1793.87 1.89247 -1.36777 0
M  V30 18121 C 1794.85 1.68463 -0.235389 0
M  V30 18122 O 1796.03 1.89225 -0.436733 0
M  V30 18123 C 1793.16 3.2662 -1.18053 0
M  V30 18124 C 1792.12 3.61981 -2.28372 0
M  V30 18125 C 1791.44 4.97967 -1.94765 0
M  V30 18126 C 1792.74 3.68053 -3.70587 0
M  V30 18127 H 1794.44 1.90341 -2.31108 0
M  V30 18128 H 1791.98 0.914355 -1.11245 0
M  V30 18129 H 1793.93 4.05125 -1.15982 0
M  V30 18130 H 1792.66 3.25976 -0.201803 0
M  V30 18131 H 1791.32 2.85788 -2.2961 0
M  V30 18132 H 1790.97 4.93869 -0.954052 0
M  V30 18133 H 1790.67 5.22594 -2.68642 0
M  V30 18134 H 1792.19 5.78864 -1.94292 0
M  V30 18135 H 1793.6 4.36696 -3.71443 0
M  V30 18136 H 1792 4.04183 -4.43572 0
M  V30 18137 H 1793.07 2.68556 -4.03739 0
M  V30 18138 N 1794.41 1.22455 0.992094 0
M  V30 18139 C 1795.36 0.992597 2.10357 0
M  V30 18140 C 1796.36 -0.0645514 1.69277 0
M  V30 18141 O 1797.56 0.0879577 1.79785 0
M  V30 18142 H 1793.94 0.303808 0.687899 0
M  V30 18143 H 1795.91 1.93574 2.27094 0
M  V30 18144 C 1794.66 0.587852 3.42695 0
M  V30 18145 H 1793.98 1.39298 3.74748 0
M  V30 18146 H 1795.42 0.464975 4.21443 0
M  V30 18147 C 1793.88 -0.702681 3.29491 0
M  V30 18148 O 1794.41 -1.7549 3.61339 0
M  V30 18149 N 1792.61 -0.674141 2.82672 0
M  V30 18150 H 1792.16 0.182446 2.56953 0
M  V30 18151 H 1792.12 -1.53789 2.7422 0
M  V30 18152 N 1795.89 -1.18905 1.03437 0
M  V30 18153 C 1797.3 -1.70402 0.762893 0
M  V30 18154 C 1797.65 -1.82633 -0.716908 0
M  V30 18155 O 1796.78 -1.50136 -1.55847 0
M  V30 18156 C 1797.37 -3.09501 1.37822 0
M  V30 18157 C 1795.93 -3.58235 1.1552 0
M  V30 18158 C 1795.08 -2.34953 1.47284 0
M  V30 18159 H 1798.03 -1.03669 1.2016 0
M  V30 18160 H 1798.05 -3.7246 0.778079 0
M  V30 18161 H 1797.56 -3.00566 2.45523 0
M  V30 18162 H 1795.66 -3.72475 0.096646 0
M  V30 18163 H 1795.78 -4.42034 1.84778 0
M  V30 18164 H 1794.14 -2.38557 0.892333 0
M  V30 18165 H 1794.92 -2.28643 2.5608 0
M  V30 18166 N 1797.37 -0.812977 -1.35013 0
M  V30 18167 C 1798.59 -0.407969 -2.03348 0
M  V30 18168 C 1799.02 0.975148 -1.60849 0
M  V30 18169 O 1798.38 1.63267 -0.788256 0
M  V30 18170 C 1798.43 -0.506754 -3.57022 0
M  V30 18171 O 1797.53 0.477322 -4.09628 0
M  V30 18172 H 1796.87 -0.169416 -0.642023 0
M  V30 18173 H 1799.4 -1.10064 -1.72474 0
M  V30 18174 H 1799.41 -0.378883 -4.06237 0
M  V30 18175 H 1798.09 -1.51557 -3.87302 0
M  V30 18176 H 1796.66 0.309161 -3.71616 0
M  V30 18177 N 1798.85 1.47045 -0.567045 0
M  V30 18178 C 1800.12 1.9559 0.0194544 0
M  V30 18179 C 1800.5 1.5097 1.47551 0
M  V30 18180 O 1799.85 0.753072 2.15734 0
M  V30 18181 C 1800.06 3.48734 -0.136263 0
M  V30 18182 C 1801.41 4.246 0.00401745 0
M  V30 18183 O 1802.43 3.56142 -0.0643042 0
M  V30 18184 O 1801.29 5.46287 0.152706 0
M  V30 18185 H 1798.39 0.82492 0.0586233 0
M  V30 18186 H 1800.93 1.57401 -0.634262 0
M  V30 18187 H 1799.71 3.74048 -1.14909 0
M  V30 18188 H 1799.33 3.93713 0.554612 0
M  V30 18189 N 1800.33 0.304 1.5464 0
M  V30 18190 C 1801.74 -0.188042 1.85751 0
M  V30 18191 C 1802.09 -1.53186 1.22591 0
M  V30 18192 O 1801.21 -2.09943 0.524696 0
M  V30 18193 C 1801.81 -0.347976 3.37008 0
M  V30 18194 C 1800.37 -0.784238 3.68139 0
M  V30 18195 C 1799.51 0.105654 2.77099 0
M  V30 18196 H 1802.46 0.524918 1.49767 0
M  V30 18197 H 1802.49 -1.18207 3.61673 0
M  V30 18198 H 1802 0.630227 3.82949 0
M  V30 18199 H 1800.1 -1.77288 3.27719 0
M  V30 18200 H 1800.21 -0.601546 4.75309 0
M  V30 18201 H 1798.58 -0.415561 2.51287 0
M  V30 18202 H 1799.36 1.08027 3.25861 0
M  V30 18203 N 1801.8 -1.57568 0.0317802 0
M  V30 18204 C 1802.71 -2.13842 -0.964811 0
M  V30 18205 C 1803.73 -1.09134 -1.3552 0
M  V30 18206 O 1804.91 -1.41205 -1.43608 0
M  V30 18207 C 1801.97 -2.65654 -2.22775 0
M  V30 18208 C 1801.03 -3.85087 -1.89753 0
M  V30 18209 C 1800.26 -4.34419 -3.10026 0
M  V30 18210 O 1800.49 -3.8291 -4.22772 0
M  V30 18211 O 1799.42 -5.26233 -2.92169 0
M  V30 18212 H 1803.25 -2.99279 -0.516302 0
M  V30 18213 H 1800.83 -1.482 -0.188982 0
M  V30 18214 H 1802.71 -2.99035 -2.96911 0
M  V30 18215 H 1801.39 -1.83299 -2.66802 0
M  V30 18216 H 1800.3 -3.56628 -1.12994 0
M  V30 18217 H 1801.63 -4.68613 -1.50541 0
M  V30 18218 N 1803.28 0.241399 -1.5574 0
M  V30 18219 C 1804.23 1.30198 -1.8717 0
M  V30 18220 C 1805.22 1.43233 -0.733022 0
M  V30 18221 O 1806.41 1.46382 -0.995058 0
M  V30 18222 C 1803.54 2.65637 -2.17467 0
M  V30 18223 C 1802.62 2.56584 -3.37676 0
M  V30 18224 N 1803.01 2.17167 -4.56806 0
M  V30 18225 C 1801.31 2.87586 -3.40896 0
M  V30 18226 C 1802.01 2.18882 -5.38949 0
M  V30 18227 N 1800.99 2.58599 -4.7815 0
M  V30 18228 H 1804.79 0.98781 -2.76802 0
M  V30 18229 H 1802.31 0.450014 -1.5604 0
M  V30 18230 H 1804.3 3.42184 -2.38151 0
M  V30 18231 H 1802.96 2.97916 -1.29136 0
M  V30 18232 H 1803.97 1.88621 -4.8233 0
M  V30 18233 H 1800.65 3.24369 -2.62852 0
M  V30 18234 H 1802.04 1.907 -6.4427 0
M  V30 18235 N 1804.76 1.49212 0.507292 0
M  V30 18236 C 1806 1.59994 1.27205 0
M  V30 18237 C 1806.36 0.277569 1.89983 0
M  V30 18238 O 1807.57 0.260529 2.67534 0
M  V30 18239 C 1805.84 2.72265 2.31531 0
M  V30 18240 S 1807.4 3.02958 3.1743 0
M  V30 18241 H 1804.21 0.564411 0.432391 0
M  V30 18242 H 1806.82 1.86842 0.575353 0
M  V30 18243 H 1805.52 3.66876 1.8393 0
M  V30 18244 H 1805.05 2.4739 3.05878 0
M  V30 18245 H 1807.07 2.43996 4.32065 0
M  V30 18246 N 1806.24 -0.757876 1.38181 0
M  V30 18247 C 1807.17 -1.88108 1.3095 0
M  V30 18248 C 1808.18 -1.61272 0.222551 0
M  V30 18249 O 1809.37 -1.71931 0.479782 0
M  V30 18250 C 1806.47 -3.2365 1.00518 0
M  V30 18251 C 1805.65 -3.78024 2.20037 0
M  V30 18252 C 1804.7 -4.92073 1.86416 0
M  V30 18253 O 1803.73 -5.0693 2.58864 0
M  V30 18254 N 1804.93 -5.74728 0.816553 0
M  V30 18255 H 1807.7 -1.94823 2.27737 0
M  V30 18256 H 1805.26 -0.937616 1.31986 0
M  V30 18257 H 1807.25 -3.97483 0.760861 0
M  V30 18258 H 1805.82 -3.12348 0.125418 0
M  V30 18259 H 1805.04 -2.95807 2.60561 0
M  V30 18260 H 1806.33 -4.11085 2.99811 0
M  V30 18261 H 1805.73 -5.65289 0.215659 0
M  V30 18262 H 1804.28 -6.48728 0.63211 0
M  V30 18263 N 1807.72 -1.22979 -0.985586 0
M  V30 18264 C 1808.97 -1.05286 -1.7204 0
M  V30 18265 C 1809.28 0.411213 -1.91229 0
M  V30 18266 O 1810.48 0.70797 -2.62107 0
M  V30 18267 C 1808.94 -1.8355 -3.09576 0
M  V30 18268 C 1808.55 -3.34254 -2.98293 0
M  V30 18269 C 1810.29 -1.74329 -3.87052 0
M  V30 18270 C 1808.2 -4.0493 -4.31029 0
M  V30 18271 H 1807.13 -0.390364 -0.645083 0
M  V30 18272 H 1809.78 -1.46898 -1.09969 0
M  V30 18273 H 1808.16 -1.34741 -3.72372 0
M  V30 18274 H 1809.34 -3.90511 -2.44618 0
M  V30 18275 H 1807.65 -3.44231 -2.34294 0
M  V30 18276 H 1810.25 -2.24449 -4.85311 0
M  V30 18277 H 1810.59 -0.705078 -4.10286 0
M  V30 18278 H 1811.12 -2.20721 -3.30949 0
M  V30 18279 H 1807.86 -5.09035 -4.12993 0
M  V30 18280 H 1807.38 -3.5346 -4.84588 0
M  V30 18281 H 1809.06 -4.10935 -4.99742 0
M  V30 18282 N 1809.19 1.18355 -1.04066 0
M  V30 18283 C 1810.43 1.90027 -0.752928 0
M  V30 18284 C 1810.8 1.78534 0.706379 0
M  V30 18285 O 1812 2.44914 1.10772 0
M  V30 18286 C 1810.27 3.36432 -1.20617 0
M  V30 18287 S 1811.83 4.26198 -1.04408 0
M  V30 18288 H 1808.65 0.656184 -0.273759 0
M  V30 18289 H 1811.25 1.43013 -1.33295 0
M  V30 18290 H 1809.95 3.42327 -2.26364 0
M  V30 18291 H 1809.48 3.88485 -0.619939 0
M  V30 18292 H 1811.5 4.96185 0.0384827 0
M  V30 18293 N 1810.67 0.820125 1.3458 0
M  V30 18294 C 1811.62 0.212417 2.27008 0
M  V30 18295 C 1812.61 -0.621679 1.48405 0
M  V30 18296 O 1813.8 -0.476717 1.70459 0
M  V30 18297 C 1810.93 -0.627099 3.37524 0
M  V30 18298 C 1810.01 0.217471 4.23542 0
M  V30 18299 N 1810.4 1.28711 4.89149 0
M  V30 18300 C 1808.7 0.00134142 4.46 0
M  V30 18301 C 1809.4 1.80387 5.53024 0
M  V30 18302 N 1808.38 1.10819 5.32184 0
M  V30 18303 H 1812.18 1.03066 2.75236 0
M  V30 18304 H 1809.7 0.662649 1.48266 0
M  V30 18305 H 1811.69 -1.07861 4.02705 0
M  V30 18306 H 1810.35 -1.44353 2.90847 0
M  V30 18307 H 1811.36 1.66989 4.9024 0
M  V30 18308 H 1808.04 -0.783152 4.10089 0
M  V30 18309 H 1809.43 2.69858 6.15326 0
M  V30 18310 N 1812.15 -1.46743 0.574835 0
M  V30 18311 C 1813.39 -2.04312 0.0599973 0
M  V30 18312 C 1813.75 -1.43757 -1.27271 0
M  V30 18313 O 1814.96 -1.92479 -1.87631 0
M  V30 18314 C 1813.23 -3.57398 -0.0130197 0
M  V30 18315 S 1814.79 -4.3626 -0.471425 0
M  V30 18316 H 1811.6 -0.710203 0.0336583 0
M  V30 18317 H 1814.21 -1.79887 0.765555 0
M  V30 18318 H 1812.91 -3.9899 0.961003 0
M  V30 18319 H 1812.44 -3.86347 -0.741591 0
M  V30 18320 H 1814.46 -4.65149 -1.72773 0
M  V30 18321 N 1813.63 -0.312197 -1.54477 0
M  V30 18322 C 1814.91 0.347462 -1.92489 0
M  V30 18323 C 1815.29 1.70797 -1.24063 0
M  V30 18324 O 1814.63 2.25313 -0.380296 0
M  V30 18325 C 1814.84 0.450992 -3.46074 0
M  V30 18326 C 1816.19 0.716618 -4.18509 0
M  V30 18327 O 1817.22 0.534364 -3.52169 0
M  V30 18328 O 1816.07 1.06744 -5.35974 0
M  V30 18329 H 1813.17 0.196248 -0.803378 0
M  V30 18330 H 1815.71 -0.361078 -1.65814 0
M  V30 18331 H 1814.49 -0.504982 -3.88028 0
M  V30 18332 H 1814.11 1.20756 -3.78819 0
M  V30 18333 N 1815.11 1.57549 -0.040136 0
M  V30 18334 C 1816.35 1.92535 0.637037 0
M  V30 18335 C 1816.69 0.917836 1.71141 0
M  V30 18336 O 1815.96 -0.057824 1.94414 0
M  V30 18337 C 1816.24 3.37955 1.24333 0
M  V30 18338 C 1816.1 4.49449 0.177761 0
M  V30 18339 C 1817.42 3.8355 2.15818 0
M  V30 18340 H 1814.53 0.700157 0.230107 0
M  V30 18341 H 1817.18 1.89739 -0.0996468 0
M  V30 18342 H 1815.33 3.40468 1.87119 0
M  V30 18343 H 1817 4.59065 -0.453507 0
M  V30 18344 H 1815.24 4.30961 -0.495486 0
M  V30 18345 H 1815.91 5.48256 0.641792 0
M  V30 18346 H 1818.39 3.82842 1.63006 0
M  V30 18347 H 1817.26 4.85974 2.55188 0
M  V30 18348 H 1817.53 3.19678 3.05382 0
M  V30 18349 N 1816.58 -0.233136 1.55866 0
M  V30 18350 C 1817.83 -0.96064 1.78604 0
M  V30 18351 C 1818.16 -1.84444 0.607795 0
M  V30 18352 O 1817.44 -1.9048 -0.39342 0
M  V30 18353 C 1817.72 -1.80946 3.11337 0
M  V30 18354 C 1817.57 -0.952929 4.3959 0
M  V30 18355 C 1818.89 -2.78941 3.40411 0
M  V30 18356 H 1816.01 -0.347809 0.649767 0
M  V30 18357 H 1818.65 -0.230233 1.886 0
M  V30 18358 H 1816.8 -2.43219 3.02946 0
M  V30 18359 H 1818.48 -0.347831 4.59987 0
M  V30 18360 H 1816.72 -0.257846 4.33033 0
M  V30 18361 H 1817.39 -1.58096 5.28876 0
M  V30 18362 H 1819.87 -2.26804 3.48854 0
M  V30 18363 H 1818.74 -3.35443 4.34475 0
M  V30 18364 H 1819 -3.561 2.62003 0
M  V30 18365 N 1818.06 -1.49479 -0.499372 0
M  V30 18366 C 1819.01 -1.66756 -1.62158 0
M  V30 18367 C 1820.01 -0.533485 -1.6078 0
M  V30 18368 O 1821.21 -0.713167 -1.65269 0
M  V30 18369 H 1817.59 -0.525853 -0.537571 0
M  V30 18370 H 1819.56 -2.60947 -1.44738 0
M  V30 18371 C 1818.31 -1.75287 -3.00283 0
M  V30 18372 H 1817.63 -2.61928 -3.02049 0
M  V30 18373 H 1819.07 -1.91411 -3.78336 0
M  V30 18374 C 1817.53 -0.498056 -3.33198 0
M  V30 18375 O 1818.06 0.375528 -3.99941 0
M  V30 18376 N 1816.26 -0.360513 -2.88355 0
M  V30 18377 H 1815.81 -1.0724 -2.34216 0
M  V30 18378 H 1815.77 0.477981 -3.10745 0
M  V30 18379 N 1819.54 0.750537 -1.38581 0
M  V30 18380 C 1820.47 1.87785 -1.38777 0
M  V30 18381 C 1821.45 1.68204 -0.253244 0
M  V30 18382 O 1822.64 1.88752 -0.456779 0
M  V30 18383 C 1819.77 3.2535 -1.21511 0
M  V30 18384 C 1818.72 3.59538 -2.32199 0
M  V30 18385 C 1818.05 4.95873 -2.00036 0
M  V30 18386 C 1819.35 3.64102 -3.74469 0
M  V30 18387 H 1821.04 1.87879 -2.33113 0
M  V30 18388 H 1818.59 0.902504 -1.12209 0
M  V30 18389 H 1820.54 4.03872 -1.20272 0
M  V30 18390 H 1819.26 3.25744 -0.236366 0
M  V30 18391 H 1817.92 2.83336 -2.32629 0
M  V30 18392 H 1817.57 4.9283 -1.00638 0
M  V30 18393 H 1817.27 5.19716 -2.7417 0
M  V30 18394 H 1818.8 5.7677 -2.00421 0
M  V30 18395 H 1820.21 4.32731 -3.76054 0
M  V30 18396 H 1818.61 3.99455 -4.47834 0
M  V30 18397 H 1819.68 2.64259 -4.06565 0
M  V30 18398 N 1821.02 1.235 0.979051 0
M  V30 18399 C 1822.25 1.09462 1.75572 0
M  V30 18400 C 1822.66 -0.3538 1.85455 0
M  V30 18401 O 1822.02 -1.24467 1.3347 0
M  V30 18402 C 1822.07 1.71562 3.18196 0
M  V30 18403 O 1821.79 3.1074 3.08824 0
M  V30 18404 C 1823.29 1.62984 4.12251 0
M  V30 18405 H 1820.51 0.383013 0.550946 0
M  V30 18406 H 1823.06 1.63378 1.22995 0
M  V30 18407 H 1821.21 1.21676 3.67796 0
M  V30 18408 H 1821.63 3.40888 3.98617 0
M  V30 18409 H 1823.1 2.11135 5.10025 0
M  V30 18410 H 1823.58 0.588907 4.35234 0
M  V30 18411 H 1824.18 2.12242 3.68556 0
M  V30 18412 N 1822.5 -1.17802 1.04693 0
M  V30 18413 C 1823.74 -1.89625 0.762995 0
M  V30 18414 C 1824.1 -1.78906 -0.696901 0
M  V30 18415 O 1825.3 -2.45498 -1.09472 0
M  V30 18416 C 1823.57 -3.35787 1.224 0
M  V30 18417 S 1825.13 -4.25638 1.06667 0
M  V30 18418 H 1821.95 -0.654723 0.277235 0
M  V30 18419 H 1824.55 -1.42304 1.34052 0
M  V30 18420 H 1823.26 -3.41121 2.28176 0
M  V30 18421 H 1822.79 -3.8815 0.640532 0
M  V30 18422 H 1824.8 -4.96199 -0.0121683 0
M  V30 18423 N 1823.98 -0.827251 -1.34143 0
M  V30 18424 C 1824.89 -0.254285 -2.33218 0
M  V30 18425 C 1825.9 0.613602 -1.62822 0
M  V30 18426 O 1827.08 0.520477 -1.94558 0
M  V30 18427 C 1824.14 0.570817 -3.41969 0
M  V30 18428 C 1823.2 -0.319978 -4.28106 0
M  V30 18429 C 1822.44 0.465839 -5.31663 0
M  V30 18430 O 1822.66 1.6987 -5.44518 0
M  V30 18431 O 1821.59 -0.154094 -6.01703 0
M  V30 18432 H 1825.42 -1.07441 -2.8406 0
M  V30 18433 H 1823 -0.589493 -1.37278 0
M  V30 18434 H 1824.89 1.04009 -4.08363 0
M  V30 18435 H 1823.56 1.3682 -2.93363 0
M  V30 18436 H 1822.47 -0.836843 -3.6462 0
M  V30 18437 H 1823.8 -1.08183 -4.80164 0
M  V30 18438 N 1825.45 1.46436 -0.582609 0
M  V30 18439 C 1826.42 2.28769 0.140502 0
M  V30 18440 C 1827.42 1.38385 0.818911 0
M  V30 18441 O 1828.61 1.60763 0.670882 0
M  V30 18442 C 1825.74 3.18765 1.20836 0
M  V30 18443 H 1826.93 2.94178 -0.583049 0
M  V30 18444 H 1824.48 1.52544 -0.340575 0
M  V30 18445 H 1825.22 2.58103 1.9635 0
M  V30 18446 H 1825 3.85312 0.726417 0
M  V30 18447 H 1826.49 3.80735 1.71553 0
M  V30 18448 N 1826.93 0.320385 1.54309 0
M  V30 18449 C 1828.17 -0.283775 2.02421 0
M  V30 18450 C 1828.54 -1.49594 1.20357 0
M  V30 18451 O 1829.74 -2.17275 1.58256 0
M  V30 18452 C 1828.01 -0.612699 3.52109 0
M  V30 18453 S 1829.57 -1.19697 4.22159 0
M  V30 18454 H 1826.38 -0.0860212 0.705777 0
M  V30 18455 H 1828.99 0.452768 1.90185 0
M  V30 18456 H 1827.69 0.277697 4.09459 0
M  V30 18457 H 1827.22 -1.37952 3.68419 0
M  V30 18458 H 1829.24 -2.48394 4.29552 0
M  V30 18459 N 1828.41 -1.57525 0.0484906 0
M  V30 18460 C 1829.34 -2.08313 -0.955941 0
M  V30 18461 C 1830.35 -1.01042 -1.2765 0
M  V30 18462 O 1831.54 -1.28615 -1.23776 0
M  V30 18463 C 1828.64 -2.509 -2.27821 0
M  V30 18464 C 1827.82 -3.81476 -2.13997 0
M  V30 18465 C 1826.88 -4.10404 -3.29325 0
M  V30 18466 O 1825.9 -4.80366 -3.05348 0
M  V30 18467 N 1827.1 -3.62104 -4.53719 0
M  V30 18468 H 1829.87 -2.95111 -0.522472 0
M  V30 18469 H 1827.43 -1.61312 -0.137816 0
M  V30 18470 H 1829.42 -2.6733 -3.03837 0
M  V30 18471 H 1827.99 -1.69365 -2.62744 0
M  V30 18472 H 1827.21 -3.74654 -1.22589 0
M  V30 18473 H 1828.5 -4.6699 -2.01985 0
M  V30 18474 H 1827.9 -3.05541 -4.7609 0
M  V30 18475 H 1826.45 -3.83778 -5.26838 0
M  V30 18476 N 1829.89 0.224867 -1.55988 0
M  V30 18477 C 1830.8 1.2997 -1.95307 0
M  V30 18478 C 1831.81 1.51463 -0.856444 0
M  V30 18479 O 1832.99 1.64658 -1.15973 0
M  V30 18480 C 1830.05 2.63009 -2.25892 0
M  V30 18481 C 1829.12 2.49847 -3.49106 0
M  V30 18482 C 1828.35 3.76541 -3.78223 0
M  V30 18483 O 1828.57 4.7941 -3.09066 0
M  V30 18484 O 1827.51 3.73852 -4.71718 0
M  V30 18485 H 1831.33 0.996093 -2.869 0
M  V30 18486 H 1828.92 0.427457 -1.43154 0
M  V30 18487 H 1830.8 3.41586 -2.46774 0
M  V30 18488 H 1829.47 2.93057 -1.37474 0
M  V30 18489 H 1828.38 1.69482 -3.33507 0
M  V30 18490 H 1829.71 2.24739 -4.37896 0
M  V30 18491 N 1831.37 1.49742 0.491438 0
M  V30 18492 C 1832.78 1.52802 1.07278 0
M  V30 18493 C 1833.13 0.319712 1.93578 0
M  V30 18494 O 1832.25 -0.569524 2.08771 0
M  V30 18495 C 1832.85 2.76896 1.95228 0
M  V30 18496 C 1831.41 2.82703 2.48508 0
M  V30 18497 C 1830.55 2.4684 1.26355 0
M  V30 18498 H 1833.5 1.56301 0.274925 0
M  V30 18499 H 1833.53 2.57599 2.80041 0
M  V30 18500 H 1833.04 3.64821 1.32391 0
M  V30 18501 H 1831.14 1.99081 3.14956 0
M  V30 18502 H 1831.25 3.85108 2.85006 0
M  V30 18503 H 1829.62 1.98828 1.59184 0
M  V30 18504 H 1830.4 3.3705 0.652109 0
M  V30 18505 N 1832.84 -0.743177 1.38977 0
M  V30 18506 C 1834.09 -1.49959 1.35486 0
M  V30 18507 C 1834.41 -1.94933 -0.0512044 0
M  V30 18508 O 1833.68 -1.684 -1.0009 0
M  V30 18509 H 1832.26 -0.556277 0.498562 0
M  V30 18510 H 1834.93 -0.882776 1.73762 0
M  V30 18511 H 1834.02 -2.38559 2.01237 0
M  V30 18512 N 1834.32 -1.24018 -0.972487 0
M  V30 18513 C 1835.57 -1.07489 -1.71145 0
M  V30 18514 C 1835.89 0.387798 -1.91105 0
M  V30 18515 O 1835.16 1.27725 -1.48537 0
M  V30 18516 H 1833.74 -0.394765 -0.634168 0
M  V30 18517 H 1836.4 -1.55861 -1.17018 0
M  V30 18518 H 1835.5 -1.56913 -2.69786 0
M  V30 18519 N 1835.8 1.17245 -1.05316 0
M  V30 18520 C 1836.73 2.23491 -0.67631 0
M  V30 18521 C 1837.71 1.66937 0.326507 0
M  V30 18522 O 1838.9 1.93127 0.203823 0
M  V30 18523 C 1836.03 3.47262 -0.0515755 0
M  V30 18524 C 1834.98 4.16646 -0.97929 0
M  V30 18525 C 1834.31 5.34254 -0.218369 0
M  V30 18526 C 1835.61 4.68736 -2.30399 0
M  V30 18527 H 1837.3 2.55269 -1.56455 0
M  V30 18528 H 1834.85 1.22699 -0.753714 0
M  V30 18529 H 1836.8 4.20805 0.223865 0
M  V30 18530 H 1835.52 3.14755 0.871614 0
M  V30 18531 H 1834.18 3.45017 -1.23931 0
M  V30 18532 H 1833.83 4.97998 0.707624 0
M  V30 18533 H 1833.53 5.81615 -0.83654 0
M  V30 18534 H 1835.05 6.1058 0.0497574 0
M  V30 18535 H 1836.47 5.3391 -2.08837 0
M  V30 18536 H 1834.87 5.2668 -2.87625 0
M  V30 18537 H 1835.94 3.85477 -2.94169 0
M  V30 18538 N 1837.28 0.834353 1.33702 0
M  V30 18539 C 1838.52 0.428521 1.98221 0
M  V30 18540 C 1838.86 -1.00858 1.65956 0
M  V30 18541 O 1838.13 -1.70437 0.937094 0
M  V30 18542 C 1838.42 0.644357 3.54288 0
M  V30 18543 C 1838.27 2.1284 3.96256 0
M  V30 18544 C 1839.59 0.0876063 4.40013 0
M  V30 18545 H 1836.71 0.15717 0.720046 0
M  V30 18546 H 1839.35 1.04903 1.58415 0
M  V30 18547 H 1837.5 0.116173 3.88326 0
M  V30 18548 H 1839.17 2.72111 3.72496 0
M  V30 18549 H 1837.41 2.61461 3.46151 0
M  V30 18550 H 1838.08 2.23019 5.04942 0
M  V30 18551 H 1840.56 0.539025 4.12594 0
M  V30 18552 H 1839.44 0.268345 5.48244 0
M  V30 18553 H 1839.7 -1.00829 4.30449 0
M  V30 18554 N 1838.76 -1.46125 0.590367 0
M  V30 18555 C 1840 -2.02646 0.0789983 0
M  V30 18556 C 1840.34 -1.45996 -1.28058 0
M  V30 18557 O 1839.61 -0.627981 -1.84083 0
M  V30 18558 C 1839.89 -3.60094 0.0214749 0
M  V30 18559 C 1839.75 -4.27112 1.41049 0
M  V30 18560 C 1841.07 -4.34889 -0.675236 0
M  V30 18561 H 1838.18 -0.736382 0.0301818 0
M  V30 18562 H 1840.83 -1.7418 0.759037 0
M  V30 18563 H 1838.98 -3.84477 -0.557648 0
M  V30 18564 H 1840.65 -4.13969 2.03537 0
M  V30 18565 H 1838.89 -3.86178 1.97607 0
M  V30 18566 H 1839.56 -5.3592 1.32264 0
M  V30 18567 H 1842.04 -4.15697 -0.183176 0
M  V30 18568 H 1840.91 -5.44615 -0.684538 0
M  V30 18569 H 1841.18 -4.06503 -1.73804 0
M  V30 18570 N 1840.23 -0.328564 -1.54137 0
M  V30 18571 C 1841.65 0.158467 -1.86026 0
M  V30 18572 C 1842 1.51216 -1.25012 0
M  V30 18573 O 1841.12 2.09081 -0.558029 0
M  V30 18574 C 1841.72 0.294317 -3.37519 0
M  V30 18575 C 1840.28 0.72557 -3.69341 0
M  V30 18576 C 1839.42 -0.149724 -2.76895 0
M  V30 18577 H 1842.37 -0.548678 -1.48913 0
M  V30 18578 H 1842.39 1.12438 -3.63508 0
M  V30 18579 H 1841.91 -0.691071 -3.81898 0
M  V30 18580 H 1840.01 1.72052 -3.30498 0
M  V30 18581 H 1840.12 0.525853 -4.76205 0
M  V30 18582 H 1838.48 0.375531 -2.51916 0
M  V30 18583 H 1839.27 -1.13197 -3.24101 0
M  V30 18584 N 1841.71 1.57497 -0.0568439 0
M  V30 18585 C 1843.12 1.80477 0.478027 0
M  V30 18586 C 1843.47 0.969549 1.7057 0
M  V30 18587 O 1842.6 0.187756 2.15584 0
M  V30 18588 C 1843.19 3.27332 0.874013 0
M  V30 18589 C 1841.75 3.5121 1.35383 0
M  V30 18590 C 1840.9 2.75308 0.331752 0
M  V30 18591 H 1843.85 1.56162 -0.282678 0
M  V30 18592 H 1843.87 3.38563 1.73653 0
M  V30 18593 H 1843.38 3.88095 -0.019701 0
M  V30 18594 H 1841.49 2.95734 2.26655 0
M  V30 18595 H 1841.6 4.59919 1.34208 0
M  V30 18596 H 1839.96 2.41616 0.805851 0
M  V30 18597 H 1840.75 3.38801 -0.553975 0
M  V30 18598 N 1843.19 -0.216591 1.56105 0
M  V30 18599 C 1844.42 -0.957013 1.83436 0
M  V30 18600 C 1844.83 -1.77743 0.636612 0
M  V30 18601 O 1844.19 -1.78178 -0.394833 0
M  V30 18602 C 1844.24 -1.87058 3.09341 0
M  V30 18603 O 1843.96 -1.08331 4.24495 0
M  V30 18604 C 1845.46 -2.72448 3.49695 0
M  V30 18605 H 1842.68 -0.280249 0.609673 0
M  V30 18606 H 1845.23 -0.230324 2.03199 0
M  V30 18607 H 1843.38 -2.55116 2.91539 0
M  V30 18608 H 1843.8 -1.70391 4.96052 0
M  V30 18609 H 1845.27 -3.32244 4.40815 0
M  V30 18610 H 1845.75 -3.4509 2.71679 0
M  V30 18611 H 1846.35 -2.09796 3.69954 0
M  V30 18612 N 1844.67 -1.5 -0.48349 0
M  V30 18613 C 1845.95 -1.50879 -1.24478 0
M  V30 18614 C 1846.33 -0.246393 -2.09657 0
M  V30 18615 O 1845.67 0.77066 -2.15112 0
M  V30 18616 C 1845.88 -2.79762 -2.08648 0
M  V30 18617 C 1847.23 -3.29941 -2.67253 0
M  V30 18618 O 1848.26 -2.80999 -2.18901 0
M  V30 18619 O 1847.11 -4.15224 -3.55319 0
M  V30 18620 H 1844.21 -0.604649 -0.564206 0
M  V30 18621 H 1846.75 -1.6228 -0.496325 0
M  V30 18622 H 1845.53 -3.63123 -1.45799 0
M  V30 18623 H 1845.15 -2.71306 -2.90652 0
M  V30 18624 N 1846.15 0.735796 -1.39369 0
M  V30 18625 C 1847.11 1.83148 -1.37802 0
M  V30 18626 C 1848.11 1.58426 -0.27528 0
M  V30 18627 O 1849.3 1.65841 -0.53314 0
M  V30 18628 C 1846.43 3.20923 -1.14984 0
M  V30 18629 H 1847.62 1.85941 -2.353 0
M  V30 18630 H 1845.18 0.939367 -1.24922 0
M  V30 18631 H 1845.91 3.23791 -0.181648 0
M  V30 18632 H 1845.7 3.40264 -1.94841 0
M  V30 18633 H 1847.19 4.00984 -1.16626 0
M  V30 18634 N 1847.63 1.24532 0.965897 0
M  V30 18635 C 1849.04 1.07886 1.52373 0
M  V30 18636 C 1849.39 -0.349136 1.93069 0
M  V30 18637 O 1848.51 -1.23774 1.77508 0
M  V30 18638 C 1849.11 1.95224 2.76899 0
M  V30 18639 C 1847.67 1.82796 3.29033 0
M  V30 18640 C 1846.81 1.9005 2.01931 0
M  V30 18641 H 1849.76 1.37982 0.783997 0
M  V30 18642 H 1849.79 1.48558 3.50301 0
M  V30 18643 H 1849.3 2.99148 2.47249 0
M  V30 18644 H 1847.4 0.817115 3.6353 0
M  V30 18645 H 1847.51 2.66989 3.97811 0
M  V30 18646 H 1845.88 1.338 2.16725 0
M  V30 18647 H 1846.66 2.95558 1.74644 0
M  V30 18648 N 1849.1 -1.16685 1.05936 0
M  V30 18649 C 1850.35 -1.87405 0.775061 0
M  V30 18650 C 1850.68 -1.81279 -0.696543 0
M  V30 18651 O 1849.96 -1.22595 -1.50999 0
M  V30 18652 C 1850.24 -3.37124 1.26569 0
M  V30 18653 C 1850.09 -3.5196 2.80078 0
M  V30 18654 C 1851.41 -4.31401 0.870695 0
M  V30 18655 H 1848.53 -0.680488 0.283028 0
M  V30 18656 H 1851.17 -1.37174 1.31466 0
M  V30 18657 H 1849.32 -3.80033 0.806653 0
M  V30 18658 H 1851 -3.18014 3.34163 0
M  V30 18659 H 1849.24 -2.9399 3.18986 0
M  V30 18660 H 1849.91 -4.5709 3.09471 0
M  V30 18661 H 1852.39 -3.96373 1.266 0
M  V30 18662 H 1851.26 -5.34676 1.2415 0
M  V30 18663 H 1851.52 -4.41529 -0.224692 0
M  V30 18664 N 1850.58 -0.841432 -1.33258 0
M  V30 18665 C 1851.81 -0.45101 -2.02437 0
M  V30 18666 C 1852.23 0.940811 -1.62881 0
M  V30 18667 O 1851.59 1.61559 -0.82271 0
M  V30 18668 C 1851.64 -0.58237 -3.55866 0
M  V30 18669 O 1850.74 0.390326 -4.10549 0
M  V30 18670 H 1850.08 -0.182996 -0.638285 0
M  V30 18671 H 1852.61 -1.13697 -1.701 0
M  V30 18672 H 1852.62 -0.464967 -4.05342 0
M  V30 18673 H 1851.3 -1.59739 -3.84 0
M  V30 18674 H 1849.87 0.230266 -3.72188 0
M  V30 18675 N 1852.06 1.4581 -0.598108 0
M  V30 18676 C 1853.47 1.85871 -0.175736 0
M  V30 18677 C 1853.82 1.49969 1.26505 0
M  V30 18678 O 1852.95 0.921857 1.95782 0
M  V30 18679 C 1853.54 3.37359 -0.312157 0
M  V30 18680 C 1852.1 3.76359 0.0554534 0
M  V30 18681 C 1851.25 2.6979 -0.640999 0
M  V30 18682 H 1854.2 1.36745 -0.805383 0
M  V30 18683 H 1854.22 3.7773 0.458274 0
M  V30 18684 H 1853.73 3.63458 -1.36088 0
M  V30 18685 H 1851.83 3.55878 1.10372 0
M  V30 18686 H 1851.95 4.77951 -0.331592 0
M  V30 18687 H 1850.31 2.54576 -0.0796238 0
M  V30 18688 H 1851.09 2.98726 -1.69167 0
M  V30 18689 N 1853.54 0.336733 1.53961 0
M  V30 18690 C 1854.77 -0.263446 2.05216 0
M  V30 18691 C 1855.18 -1.44752 1.21212 0
M  V30 18692 O 1854.54 -1.80837 0.245844 0
M  V30 18693 C 1854.59 -0.685127 3.54948 0
M  V30 18694 O 1854.31 0.451854 4.35764 0
M  V30 18695 C 1855.81 -1.34674 4.22348 0
M  V30 18696 H 1853.03 -0.0520687 0.668977 0
M  V30 18697 H 1855.57 0.486744 1.98623 0
M  V30 18698 H 1853.73 -1.38527 3.61786 0
M  V30 18699 H 1854.14 0.117076 5.24369 0
M  V30 18700 H 1855.62 -1.59261 5.28526 0
M  V30 18701 H 1856.09 -2.29818 3.74273 0
M  V30 18702 H 1856.7 -0.688817 4.19685 0
M  V30 18703 N 1855.02 -1.57465 0.0651956 0
M  V30 18704 C 1856.24 -1.9756 -0.614633 0
M  V30 18705 C 1856.66 -0.943308 -1.63546 0
M  V30 18706 O 1856.02 0.0708362 -1.82362 0
M  V30 18707 C 1856.07 -3.37735 -1.28909 0
M  V30 18708 O 1855.79 -4.37008 -0.309131 0
M  V30 18709 C 1857.29 -3.92667 -2.05736 0
M  V30 18710 H 1854.51 -0.64987 -0.167061 0
M  V30 18711 H 1857.05 -2.0405 0.135647 0
M  V30 18712 H 1855.21 -3.32352 -1.9905 0
M  V30 18713 H 1855.62 -5.18483 -0.792206 0
M  V30 18714 H 1857.1 -4.92988 -2.48329 0
M  V30 18715 H 1857.57 -3.28851 -2.91124 0
M  V30 18716 H 1858.18 -4.01431 -1.40476 0
M  V30 18717 N 1856.49 0.20831 -1.56217 0
M  V30 18718 C 1857.42 1.26115 -1.96513 0
M  V30 18719 C 1858.4 1.48185 -0.835183 0
M  V30 18720 O 1859.59 1.60145 -1.09851 0
M  V30 18721 C 1856.72 2.6082 -2.29326 0
M  V30 18722 C 1855.67 2.53385 -3.44935 0
M  V30 18723 C 1855 3.92241 -3.63388 0
M  V30 18724 C 1856.3 2.07026 -4.79518 0
M  V30 18725 H 1857.99 0.92635 -2.84709 0
M  V30 18726 H 1855.54 0.444169 -1.36979 0
M  V30 18727 H 1857.49 3.34644 -2.56109 0
M  V30 18728 H 1856.22 2.96014 -1.37997 0
M  V30 18729 H 1854.88 1.82018 -3.18222 0
M  V30 18730 H 1854.52 4.24766 -2.69413 0
M  V30 18731 H 1854.22 3.88145 -4.41154 0
M  V30 18732 H 1855.75 4.67707 -3.92533 0
M  V30 18733 H 1857.16 2.70601 -5.05419 0
M  V30 18734 H 1855.56 2.13961 -5.60661 0
M  V30 18735 H 1856.63 1.02298 -4.73986 0
M  V30 18736 N 1857.97 1.50255 0.475528 0
M  V30 18737 C 1859.2 1.64532 1.24951 0
M  V30 18738 C 1859.61 0.326223 1.86366 0
M  V30 18739 O 1858.95 -0.701313 1.69786 0
M  V30 18740 C 1859.01 2.67528 2.40143 0
M  V30 18741 C 1858.68 4.11204 1.99399 0
M  V30 18742 C 1859.68 4.97213 1.51906 0
M  V30 18743 C 1857.36 4.57094 2.08256 0
M  V30 18744 C 1859.35 6.27158 1.13805 0
M  V30 18745 C 1857.04 5.87046 1.69766 0
M  V30 18746 C 1858.04 6.71903 1.22618 0
M  V30 18747 O 1857.73 7.9943 0.846604 0
M  V30 18748 H 1857.46 0.556201 0.384209 0
M  V30 18749 H 1860.01 1.972 0.574555 0
M  V30 18750 H 1858.24 2.30094 3.10795 0
M  V30 18751 H 1859.93 2.71072 3.02117 0
M  V30 18752 H 1860.7 4.62977 1.44489 0
M  V30 18753 H 1856.58 3.91194 2.43903 0
M  V30 18754 H 1860.12 6.93345 0.769334 0
M  V30 18755 H 1856.02 6.20804 1.76841 0
M  V30 18756 H 1856.79 8.12662 0.975845 0
M  V30 18757 N 1859.45 -0.728395 1.39758 0
M  V30 18758 C 1860.7 -1.49028 1.37544 0
M  V30 18759 C 1861.03 -1.94182 -0.0265175 0
M  V30 18760 O 1860.3 -1.67257 -0.992737 0
M  V30 18761 C 1860.59 -2.72535 2.35365 0
M  V30 18762 C 1860.44 -2.33358 3.84531 0
M  V30 18763 C 1861.76 -3.74656 2.30914 0
M  V30 18764 H 1858.88 -0.540587 0.500934 0
M  V30 18765 H 1861.52 -0.832335 1.70799 0
M  V30 18766 H 1859.67 -3.28674 2.07137 0
M  V30 18767 H 1861.34 -1.828 4.23535 0
M  V30 18768 H 1859.58 -1.65508 4.00986 0
M  V30 18769 H 1860.26 -3.21832 4.48473 0
M  V30 18770 H 1862.73 -3.28117 2.55888 0
M  V30 18771 H 1861.61 -4.58729 3.01428 0
M  V30 18772 H 1861.87 -4.22047 1.31639 0
M  V30 18773 N 1860.93 -1.25042 -0.959279 0
M  V30 18774 C 1861.84 -1.06749 -2.08906 0
M  V30 18775 C 1862.85 -0.00591805 -1.73999 0
M  V30 18776 O 1864.03 -0.205876 -2.00345 0
M  V30 18777 C 1861.09 -0.683353 -3.39899 0
M  V30 18778 C 1860.16 -1.82235 -3.88702 0
M  V30 18779 C 1859.39 -1.45644 -5.13443 0
M  V30 18780 O 1859.61 -0.350012 -5.69325 0
M  V30 18781 O 1858.55 -2.28502 -5.5684 0
M  V30 18782 H 1862.37 -2.01485 -2.27238 0
M  V30 18783 H 1859.96 -1.03938 -1.07318 0
M  V30 18784 H 1861.84 -0.481036 -4.18645 0
M  V30 18785 H 1860.51 0.234796 -3.22847 0
M  V30 18786 H 1859.42 -2.07948 -3.10979 0
M  V30 18787 H 1860.75 -2.71957 -4.10244 0
M  V30 18788 N 1862.41 1.16121 -1.06553 0
M  V30 18789 C 1863.68 1.82752 -0.697202 0
M  V30 18790 C 1864.06 1.94474 0.821172 0
M  V30 18791 O 1863.41 1.48988 1.73248 0
M  V30 18792 C 1863.62 3.19592 -1.4022 0
M  V30 18793 C 1864.97 3.95333 -1.5491 0
M  V30 18794 O 1865.99 3.29119 -1.36232 0
M  V30 18795 O 1864.85 5.14028 -1.85574 0
M  V30 18796 H 1861.95 0.789214 -0.247125 0
M  V30 18797 H 1864.49 1.23302 -1.16597 0
M  V30 18798 H 1863.26 3.06111 -2.43745 0
M  V30 18799 H 1862.89 3.86722 -0.923686 0
M  V30 18800 N 1863.88 0.848487 1.3281 0
M  V30 18801 C 1865.13 0.445116 1.96727 0
M  V30 18802 C 1865.45 -1.00311 1.6792 0
M  V30 18803 O 1866.65 -1.51162 2.25527 0
M  V30 18804 C 1865.11 0.745015 3.52104 0
M  V30 18805 C 1864.72 2.20856 3.89778 0
M  V30 18806 C 1866.46 0.409065 4.22524 0
M  V30 18807 C 1864.37 2.452 5.38174 0
M  V30 18808 H 1863.3 0.162715 0.736233 0
M  V30 18809 H 1865.95 1.03841 1.51292 0
M  V30 18810 H 1864.33 0.0812291 3.95917 0
M  V30 18811 H 1865.5 2.91362 3.56994 0
M  V30 18812 H 1863.82 2.50842 3.32366 0
M  V30 18813 H 1866.42 0.568453 5.3167 0
M  V30 18814 H 1866.76 -0.648796 4.11213 0
M  V30 18815 H 1867.29 1.02848 3.84275 0
M  V30 18816 H 1864.03 3.49588 5.54499 0
M  V30 18817 H 1863.55 1.79265 5.72384 0
M  V30 18818 H 1865.23 2.28838 6.0518 0
M  V30 18819 N 1865.36 -1.4549 0.605832 0
M  V30 18820 C 1866.59 -2.07135 0.104838 0
M  V30 18821 C 1867.01 -1.4478 -1.20085 0
M  V30 18822 O 1866.37 -0.539875 -1.73075 0
M  V30 18823 C 1866.42 -3.60593 -0.0231858 0
M  V30 18824 O 1865.52 -3.98173 -1.07386 0
M  V30 18825 H 1864.86 -0.659945 0.0732691 0
M  V30 18826 H 1867.39 -1.8677 0.835343 0
M  V30 18827 H 1867.4 -4.07396 -0.221964 0
M  V30 18828 H 1866.08 -4.05364 0.930211 0
M  V30 18829 H 1864.66 -3.63044 -0.851689 0
M  V30 18830 N 1866.84 -0.344893 -1.5378 0
M  V30 18831 C 1867.75 0.519687 -2.28772 0
M  V30 18832 C 1868.77 1.11076 -1.33934 0
M  V30 18833 O 1869.94 1.12615 -1.66972 0
M  V30 18834 C 1867.01 1.65417 -3.04693 0
M  V30 18835 C 1866.07 1.09275 -4.1516 0
M  V30 18836 C 1865.3 2.17316 -4.87452 0
M  V30 18837 O 1865.52 3.38061 -4.59425 0
M  V30 18838 O 1864.46 1.81535 -5.73872 0
M  V30 18839 H 1868.28 -0.0899625 -3.03567 0
M  V30 18840 H 1865.87 -0.109899 -1.48995 0
M  V30 18841 H 1867.75 2.31421 -3.52168 0
M  V30 18842 H 1866.43 2.24961 -2.32754 0
M  V30 18843 H 1865.33 0.397193 -3.71985 0
M  V30 18844 H 1866.67 0.542156 -4.89205 0
M  V30 18845 N 1868.32 1.57428 -0.0735454 0
M  V30 18846 C 1869.73 1.80973 0.458858 0
M  V30 18847 C 1870.08 0.987586 1.69532 0
M  V30 18848 O 1869.21 0.210611 2.15373 0
M  V30 18849 C 1869.8 3.28241 0.839246 0
M  V30 18850 C 1868.36 3.52626 1.3165 0
M  V30 18851 C 1867.51 2.75645 0.302533 0
M  V30 18852 H 1870.46 1.55854 -0.299225 0
M  V30 18853 H 1870.48 3.40386 1.70052 0
M  V30 18854 H 1869.99 3.88052 -0.0608625 0
M  V30 18855 H 1868.09 2.98121 2.23505 0
M  V30 18856 H 1868.2 4.61316 1.29322 0
M  V30 18857 H 1866.57 2.42457 0.780179 0
M  V30 18858 H 1867.35 3.38194 -0.589878 0
M  V30 18859 N 1869.8 -0.200022 1.56326 0
M  V30 18860 C 1871.21 -0.765141 1.70301 0
M  V30 18861 C 1871.56 -1.84066 0.679277 0
M  V30 18862 O 1870.68 -2.15768 -0.165308 0
M  V30 18863 C 1871.28 -1.39466 3.08763 0
M  V30 18864 C 1869.84 -1.90692 3.2452 0
M  V30 18865 C 1868.98 -0.77502 2.66249 0
M  V30 18866 H 1871.94 0.024977 1.5868 0
M  V30 18867 H 1871.96 -2.26396 3.05819 0
M  V30 18868 H 1871.47 -0.61165 3.8325 0
M  V30 18869 H 1869.57 -2.71728 2.54941 0
M  V30 18870 H 1869.68 -2.0721 4.31973 0
M  V30 18871 H 1868.05 -1.18802 2.25296 0
M  V30 18872 H 1868.83 -0.00432851 3.433 0
M  V30 18873 N 1871.27 -1.50505 -0.467553 0
M  V30 18874 C 1872.2 -1.72558 -1.57309 0
M  V30 18875 C 1873.19 -0.574619 -1.601 0
M  V30 18876 O 1874.37 -0.814135 -1.76311 0
M  V30 18877 C 1871.5 -1.82296 -2.9561 0
M  V30 18878 C 1870.45 -2.97513 -3.07685 0
M  V30 18879 C 1869.78 -2.92398 -4.47669 0
M  V30 18880 C 1871.08 -4.37968 -2.84573 0
M  V30 18881 H 1872.77 -2.65122 -1.39107 0
M  V30 18882 H 1870.32 -1.2758 -0.667776 0
M  V30 18883 H 1872.27 -1.96308 -3.72882 0
M  V30 18884 H 1871 -0.863562 -3.14976 0
M  V30 18885 H 1869.66 -2.83157 -2.32847 0
M  V30 18886 H 1869.3 -1.94297 -4.63959 0
M  V30 18887 H 1869 -3.69749 -4.56683 0
M  V30 18888 H 1870.53 -3.08464 -5.26956 0
M  V30 18889 H 1871.94 -4.52831 -3.51593 0
M  V30 18890 H 1870.34 -5.16796 -3.05028 0
M  V30 18891 H 1871.41 -4.50093 -1.80402 0
M  V30 18892 N 1872.75 0.720973 -1.40142 0
M  V30 18893 C 1873.7 1.82653 -1.36462 0
M  V30 18894 C 1874.69 1.59053 -0.243068 0
M  V30 18895 O 1875.88 1.70318 -0.481742 0
M  V30 18896 C 1873.01 3.20728 -1.22428 0
M  V30 18897 C 1872.09 3.50109 -2.39342 0
M  V30 18898 N 1872.48 3.50339 -3.64823 0
M  V30 18899 C 1870.78 3.80541 -2.32604 0
M  V30 18900 C 1871.48 3.77912 -4.42219 0
M  V30 18901 N 1870.46 3.96392 -3.71987 0
M  V30 18902 H 1874.26 1.81157 -2.31429 0
M  V30 18903 H 1871.78 0.919857 -1.33837 0
M  V30 18904 H 1873.77 3.99889 -1.17874 0
M  V30 18905 H 1872.43 3.23454 -0.284229 0
M  V30 18906 H 1873.44 3.31317 -3.98057 0
M  V30 18907 H 1870.12 3.90789 -1.46937 0
M  V30 18908 H 1871.51 3.8444 -5.51049 0
M  V30 18909 N 1874.23 1.25549 0.952634 0
M  V30 18910 C 1875.51 1.01186 1.67394 0
M  V30 18911 C 1875.89 -0.461292 2.05998 0
M  V30 18912 O 1875.24 -1.43909 1.77489 0
M  V30 18913 C 1875.45 1.94954 2.89472 0
M  V30 18914 C 1876.79 2.22911 3.6138 0
M  V30 18915 O 1877.82 1.92728 2.99557 0
M  V30 18916 O 1876.68 2.74246 4.72706 0
M  V30 18917 H 1873.77 0.383874 0.732509 0
M  V30 18918 H 1876.32 1.36712 1.00538 0
M  V30 18919 H 1875.09 2.94416 2.5775 0
M  V30 18920 H 1874.71 1.59837 3.64058 0
M  V30 18921 N 1875.71 -1.15554 1.07168 0
M  V30 18922 C 1876.96 -1.86296 0.793718 0
M  V30 18923 C 1877.28 -1.8222 -0.680145 0
M  V30 18924 O 1876.54 -1.23899 -1.51485 0
M  V30 18925 C 1876.84 -3.3502 1.24484 0
M  V30 18926 C 1876.5 -3.59292 2.72434 0
M  V30 18927 C 1875.17 -3.65625 3.12844 0
M  V30 18928 C 1877.52 -3.69147 3.6794 0
M  V30 18929 C 1874.85 -3.79323 4.47584 0
M  V30 18930 C 1877.2 -3.84368 5.02438 0
M  V30 18931 C 1875.86 -3.88946 5.42473 0
M  V30 18932 H 1875.13 -0.681707 0.290442 0
M  V30 18933 H 1877.78 -1.36575 1.34236 0
M  V30 18934 H 1876.08 -3.86934 0.615546 0
M  V30 18935 H 1877.78 -3.88158 1.00669 0
M  V30 18936 H 1874.37 -3.55002 2.40149 0
M  V30 18937 H 1878.55 -3.63556 3.37847 0
M  V30 18938 H 1873.81 -3.81124 4.78074 0
M  V30 18939 H 1877.98 -3.90935 5.76318 0
M  V30 18940 H 1875.61 -3.99312 6.4688 0
M  V30 18941 N 1877.19 -0.855519 -1.32358 0
M  V30 18942 C 1878.42 -0.472645 -2.01121 0
M  V30 18943 C 1878.83 0.935468 -1.64456 0
M  V30 18944 O 1878.17 1.62204 -0.862292 0
M  V30 18945 C 1878.23 -0.533025 -3.55527 0
M  V30 18946 C 1877.89 -1.90018 -4.15622 0
M  V30 18947 C 1878.89 -2.86576 -4.33786 0
M  V30 18948 C 1876.58 -2.19756 -4.51677 0
M  V30 18949 C 1878.57 -4.11023 -4.87175 0
M  V30 18950 C 1876.26 -3.44456 -5.0477 0
M  V30 18951 C 1877.26 -4.39905 -5.22468 0
M  V30 18952 O 1876.94 -5.62397 -5.74426 0
M  V30 18953 H 1876.68 -0.184097 -0.650449 0
M  V30 18954 H 1879.23 -1.15437 -1.69892 0
M  V30 18955 H 1877.46 0.205561 -3.86153 0
M  V30 18956 H 1879.15 -0.165631 -4.05562 0
M  V30 18957 H 1879.91 -2.64905 -4.06264 0
M  V30 18958 H 1875.79 -1.46247 -4.37187 0
M  V30 18959 H 1879.34 -4.85532 -5.00903 0
M  V30 18960 H 1875.23 -3.65976 -5.31725 0
M  V30 18961 H 1876 -5.64367 -5.92817 0
M  V30 18962 N 1878.67 1.45167 -0.61354 0
M  V30 18963 C 1879.91 2.04081 -0.114146 0
M  V30 18964 C 1880.27 1.47081 1.23414 0
M  V30 18965 O 1881.47 1.97386 1.82461 0
M  V30 18966 C 1879.74 3.57307 -0.0817425 0
M  V30 18967 S 1881.3 4.37357 0.355593 0
M  V30 18968 H 1878.12 0.709061 -0.0524763 0
M  V30 18969 H 1880.72 1.77795 -0.81298 0
M  V30 18970 H 1879.42 3.96302 -1.06645 0
M  V30 18971 H 1878.96 3.88177 0.638898 0
M  V30 18972 H 1880.97 4.69566 1.6038 0
M  V30 18973 N 1880.14 0.353044 1.53595 0
M  V30 18974 C 1881.37 -0.244309 2.05956 0
M  V30 18975 C 1881.79 -1.42681 1.22571 0
M  V30 18976 O 1881.15 -1.79681 0.241723 0
M  V30 18977 C 1881.2 -0.628083 3.55088 0
M  V30 18978 O 1880.3 -1.72693 3.74501 0
M  V30 18979 H 1879.64 -0.038537 0.662881 0
M  V30 18980 H 1882.17 0.510013 1.98141 0
M  V30 18981 H 1882.18 -0.902597 3.97891 0
M  V30 18982 H 1880.86 0.236643 4.15226 0
M  V30 18983 H 1879.44 -1.44895 3.43599 0
M  V30 18984 N 1881.62 -1.57387 0.0818932 0
M  V30 18985 C 1883.04 -1.57217 -0.274755 0
M  V30 18986 C 1883.24 -1.09207 -1.6934 0
M  V30 18987 O 1882.29 -0.762532 -2.40711 0
M  V30 18988 C 1883.61 -3.00606 -0.075209 0
M  V30 18989 C 1885.15 -3.12669 -0.143973 0
M  V30 18990 C 1885.63 -4.57992 0.0274161 0
M  V30 18991 N 1887.12 -4.63192 -0.0278563 0
M  V30 18992 C 1887.86 -5.73344 0.0801936 0
M  V30 18993 N 1887.35 -6.92376 0.242334 0
M  V30 18994 N 1889.14 -5.62096 0.0224057 0
M  V30 18995 H 1881.3 -1.86907 1.00894 0
M  V30 18996 H 1883.56 -0.8621 0.39432 0
M  V30 18997 H 1883.26 -3.39881 0.904105 0
M  V30 18998 H 1883.14 -3.68107 -0.823213 0
M  V30 18999 H 1885.53 -2.73274 -1.11378 0
M  V30 19000 H 1885.61 -2.47785 0.635303 0
M  V30 19001 H 1885.25 -4.98078 0.994034 0
M  V30 19002 H 1885.18 -5.2092 -0.77139 0
M  V30 19003 H 1887.67 -3.77598 -0.151172 0
M  V30 19004 H 1887.98 -7.72151 0.316652 0
M  V30 19005 H 1886.33 -6.94444 0.277829 0
M  V30 19006 H 1889.52 -4.67987 -0.103039 0
M  V30 19007 H 1889.69 -6.47907 0.110065 0
M  V30 19008 N 1883.1 0.191729 -1.56429 0
M  V30 19009 C 1884.03 1.24024 -1.97839 0
M  V30 19010 C 1885.01 1.47291 -0.850853 0
M  V30 19011 O 1886.2 1.58971 -1.11543 0
M  V30 19012 C 1883.33 2.58373 -2.32079 0
M  V30 19013 C 1882.28 2.49712 -3.47603 0
M  V30 19014 C 1881.61 3.88365 -3.67528 0
M  V30 19015 C 1882.91 2.01929 -4.81687 0
M  V30 19016 H 1884.6 0.8961 -2.85675 0
M  V30 19017 H 1882.15 0.429616 -1.37442 0
M  V30 19018 H 1884.1 3.31908 -2.59643 0
M  V30 19019 H 1882.82 2.94534 -1.41129 0
M  V30 19020 H 1881.48 1.78632 -3.20135 0
M  V30 19021 H 1881.13 4.21884 -2.73903 0
M  V30 19022 H 1880.83 3.83444 -4.45246 0
M  V30 19023 H 1882.35 4.63518 -3.97472 0
M  V30 19024 H 1883.77 2.65225 -5.0826 0
M  V30 19025 H 1882.16 2.08002 -5.62899 0
M  V30 19026 H 1883.23 0.972649 -4.75045 0
M  V30 19027 N 1884.58 1.50751 0.459565 0
M  V30 19028 C 1885.51 1.73389 1.56392 0
M  V30 19029 C 1886.49 0.583101 1.59793 0
M  V30 19030 O 1887.67 0.823474 1.75876 0
M  V30 19031 C 1884.8 1.83861 2.94639 0
M  V30 19032 C 1883.76 2.9914 3.06103 0
M  V30 19033 C 1883.08 2.94768 4.46112 0
M  V30 19034 C 1884.38 4.39471 2.82246 0
M  V30 19035 H 1886.08 2.65856 1.37699 0
M  V30 19036 H 1883.62 1.27933 0.661001 0
M  V30 19037 H 1885.58 1.98283 3.71836 0
M  V30 19038 H 1884.3 0.880254 3.14514 0
M  V30 19039 H 1882.96 2.84388 2.31342 0
M  V30 19040 H 1882.61 1.96755 4.62922 0
M  V30 19041 H 1882.31 3.72166 4.54716 0
M  V30 19042 H 1883.83 3.11254 5.25313 0
M  V30 19043 H 1885.25 4.54689 3.49186 0
M  V30 19044 H 1883.64 5.18406 3.02283 0
M  V30 19045 H 1884.71 4.51043 1.78012 0
M  V30 19046 N 1886.06 -0.713531 1.40522 0
M  V30 19047 C 1887.33 -1.46672 1.29409 0
M  V30 19048 C 1887.71 -2.10922 -0.0866293 0
M  V30 19049 O 1887.06 -2.00303 -1.09959 0
M  V30 19050 C 1887.27 -2.50076 2.4344 0
M  V30 19051 C 1888.62 -3.15848 2.8377 0
M  V30 19052 O 1889.64 -2.60396 2.43048 0
M  V30 19053 O 1888.5 -4.16238 3.5413 0
M  V30 19054 H 1885.6 -0.652333 0.508322 0
M  V30 19055 H 1888.14 -0.745531 1.52446 0
M  V30 19056 H 1886.91 -2.01129 3.35653 0
M  V30 19057 H 1886.54 -3.29728 2.22183 0
M  V30 19058 N 1887.53 -1.26053 -0.945962 0
M  V30 19059 C 1888.46 -1.09687 -2.06134 0
M  V30 19060 C 1889.44 -0.00341513 -1.701 0
M  V30 19061 O 1890.63 -0.174559 -1.93414 0
M  V30 19062 C 1887.76 -0.724007 -3.3967 0
M  V30 19063 C 1886.71 -1.76866 -3.89747 0
M  V30 19064 C 1886.04 -1.25025 -5.19878 0
M  V30 19065 C 1887.34 -3.16923 -4.15159 0
M  V30 19066 H 1889.03 -2.02986 -2.20084 0
M  V30 19067 H 1886.58 -0.977346 -1.05754 0
M  V30 19068 H 1888.53 -0.596411 -4.17158 0
M  V30 19069 H 1887.26 0.244695 -3.25682 0
M  V30 19070 H 1885.92 -1.88485 -3.14435 0
M  V30 19071 H 1885.56 -0.271527 -5.02267 0
M  V30 19072 H 1885.26 -1.94853 -5.54352 0
M  V30 19073 H 1886.79 -1.13523 -5.99954 0
M  V30 19074 H 1888.2 -3.08409 -4.83277 0
M  V30 19075 H 1886.6 -3.84299 -4.60906 0
M  V30 19076 H 1887.67 -3.63337 -3.21114 0
M  V30 19077 N 1889.01 1.14984 -1.07779 0
M  V30 19078 C 1890.26 1.86148 -0.804777 0
M  V30 19079 C 1890.59 1.82364 0.667615 0
M  V30 19080 O 1889.87 1.24982 1.4903 0
M  V30 19081 C 1890.15 3.35067 -1.31916 0
M  V30 19082 C 1890 3.4746 -2.85642 0
M  V30 19083 C 1891.32 4.29961 -0.939217 0
M  V30 19084 H 1888.44 0.675899 -0.293818 0
M  V30 19085 H 1891.08 1.35065 -1.33632 0
M  V30 19086 H 1889.23 3.78702 -0.867011 0
M  V30 19087 H 1890.9 3.12658 -3.3918 0
M  V30 19088 H 1889.15 2.88878 -3.23623 0
M  V30 19089 H 1889.82 4.52109 -3.16704 0
M  V30 19090 H 1892.29 3.94309 -1.3289 0
M  V30 19091 H 1891.17 5.32633 -1.32641 0
M  V30 19092 H 1891.43 4.4183 0.15442 0
M  V30 19093 N 1890.49 0.862526 1.31902 0
M  V30 19094 C 1891.74 0.469775 1.96976 0
M  V30 19095 C 1892.06 -0.976339 1.6822 0
M  V30 19096 O 1891.32 -1.70131 0.967153 0
M  V30 19097 C 1891.62 0.664872 3.51161 0
M  V30 19098 C 1891.28 2.08264 3.99921 0
M  V30 19099 C 1889.95 2.47039 4.12947 0
M  V30 19100 C 1892.3 3.00762 4.25666 0
M  V30 19101 C 1889.63 3.77568 4.49065 0
M  V30 19102 C 1891.98 4.30797 4.63245 0
M  V30 19103 C 1890.64 4.69496 4.74478 0
M  V30 19104 H 1889.91 0.171903 0.720785 0
M  V30 19105 H 1892.56 1.09409 1.57169 0
M  V30 19106 H 1890.86 -0.0426255 3.91777 0
M  V30 19107 H 1892.56 0.340921 3.99548 0
M  V30 19108 H 1889.15 1.77158 3.90273 0
M  V30 19109 H 1893.34 2.72034 4.15104 0
M  V30 19110 H 1888.59 4.07323 4.55958 0
M  V30 19111 H 1892.77 5.02527 4.8212 0
M  V30 19112 H 1890.39 5.70682 5.02221 0
M  V30 19113 N 1891.97 -1.4484 0.62123 0
M  V30 19114 C 1892.9 -2.33374 -0.0766286 0
M  V30 19115 C 1893.88 -1.47631 -0.844932 0
M  V30 19116 O 1895.06 -1.76373 -0.81278 0
M  V30 19117 C 1892.19 -3.30552 -1.0655 0
M  V30 19118 C 1891.15 -4.26037 -0.409496 0
M  V30 19119 C 1890.47 -5.13007 -1.50757 0
M  V30 19120 C 1891.77 -5.17881 0.677994 0
M  V30 19121 H 1893.47 -2.91975 0.662658 0
M  V30 19122 H 1891.01 -1.40397 0.320117 0
M  V30 19123 H 1892.97 -3.91367 -1.56237 0
M  V30 19124 H 1891.69 -2.70139 -1.83555 0
M  V30 19125 H 1890.35 -3.66539 0.0666321 0
M  V30 19126 H 1890 -4.48954 -2.26825 0
M  V30 19127 H 1889.7 -5.777 -1.07407 0
M  V30 19128 H 1891.22 -5.76692 -2.00645 0
M  V30 19129 H 1892.64 -5.72689 0.264637 0
M  V30 19130 H 1891.03 -5.91124 1.03405 0
M  V30 19131 H 1892.1 -4.59488 1.54914 0
M  V30 19132 N 1893.45 -0.361184 -1.53405 0
M  V30 19133 C 1894.38 0.479368 -2.28526 0
M  V30 19134 C 1895.36 1.08768 -1.3078 0
M  V30 19135 O 1896.54 1.10576 -1.59645 0
M  V30 19136 C 1893.67 1.6215 -3.07123 0
M  V30 19137 C 1892.63 1.14065 -4.12521 0
M  V30 19138 C 1891.95 2.37267 -4.79175 0
M  V30 19139 C 1893.25 0.228522 -5.218 0
M  V30 19140 H 1894.95 -0.147344 -2.99037 0
M  V30 19141 H 1892.49 -0.0723051 -1.43818 0
M  V30 19142 H 1894.45 2.21612 -3.58422 0
M  V30 19143 H 1893.17 2.27538 -2.34295 0
M  V30 19144 H 1891.83 0.568735 -3.62162 0
M  V30 19145 H 1891.48 3.01102 -4.02923 0
M  V30 19146 H 1891.18 2.05768 -5.50394 0
M  V30 19147 H 1892.7 2.97424 -5.33265 0
M  V30 19148 H 1894.11 0.730497 -5.68627 0
M  V30 19149 H 1892.51 0.00460259 -6.001 0
M  V30 19150 H 1893.58 -0.730537 -4.79365 0
M  V30 19151 N 1894.92 1.57341 -0.0902386 0
M  V30 19152 C 1896.2 1.85627 0.616611 0
M  V30 19153 C 1896.58 0.986193 1.86648 0
M  V30 19154 O 1895.93 0.0573148 2.28428 0
M  V30 19155 C 1896.14 3.36196 0.936645 0
M  V30 19156 C 1897.49 4.04139 1.30219 0
M  V30 19157 O 1898.51 3.41049 1.02781 0
M  V30 19158 O 1897.37 5.1545 1.81586 0
M  V30 19159 H 1894.46 0.76748 0.308065 0
M  V30 19160 H 1897.01 1.69257 -0.122568 0
M  V30 19161 H 1895.78 3.91268 0.0497354 0
M  V30 19162 H 1895.41 3.57895 1.73197 0
M  V30 19163 N 1896.4 -0.183431 1.56529 0
M  V30 19164 C 1897.65 -0.900214 1.80944 0
M  V30 19165 C 1897.97 -1.83302 0.665246 0
M  V30 19166 O 1897.24 -1.9334 -0.315697 0
M  V30 19167 H 1895.82 -0.335409 0.667465 0
M  V30 19168 H 1898.48 -0.186146 1.94009 0
M  V30 19169 H 1897.58 -1.48437 2.74541 0
M  V30 19170 N 1897.88 -1.50992 -0.451564 0
M  V30 19171 C 1899.11 -1.67021 -1.22958 0
M  V30 19172 C 1899.53 -0.36115 -1.846 0
M  V30 19173 O 1898.89 0.677193 -1.68178 0
M  V30 19174 C 1898.94 -2.77744 -2.29979 0
M  V30 19175 O 1898.04 -2.40356 -3.35116 0
M  V30 19176 H 1897.38 -0.557369 -0.360882 0
M  V30 19177 H 1899.91 -1.97479 -0.535073 0
M  V30 19178 H 1899.92 -3.01406 -2.74988 0
M  V30 19179 H 1898.6 -3.72742 -1.84488 0
M  V30 19180 H 1897.17 -2.27214 -2.95683 0
M  V30 19181 N 1899.36 0.706069 -1.40899 0
M  V30 19182 C 1900.58 1.50008 -1.43221 0
M  V30 19183 C 1901.01 1.88065 -0.0362158 0
M  V30 19184 O 1900.37 1.5392 0.958036 0
M  V30 19185 C 1900.41 2.74578 -2.33751 0
M  V30 19186 O 1899.52 3.71657 -1.78731 0
M  V30 19187 H 1898.86 0.451899 -0.486501 0
M  V30 19188 H 1901.39 0.868772 -1.85239 0
M  V30 19189 H 1901.4 3.23002 -2.49266 0
M  V30 19190 H 1900.07 2.46214 -3.35189 0
M  V30 19191 H 1898.65 3.30544 -1.72612 0
M  V30 19192 N 1900.84 1.26553 0.939264 0
M  V30 19193 C 1902.25 1.03707 1.21314 0
M  V30 19194 C 1902.45 -0.236596 2.00106 0
M  V30 19195 O 1901.51 -0.945218 2.34141 0
M  V30 19196 C 1902.82 2.26961 1.97254 0
M  V30 19197 C 1904.37 2.31881 2.10238 0
M  V30 19198 C 1904.84 3.54833 2.89582 0
M  V30 19199 N 1906.34 3.55321 2.97155 0
M  V30 19200 C 1907.07 4.47125 3.58981 0
M  V30 19201 N 1906.57 5.49219 4.22292 0
M  V30 19202 N 1908.36 4.34772 3.56272 0
M  V30 19203 H 1900.51 2.08355 0.412571 0
M  V30 19204 H 1902.77 0.915775 0.245073 0
M  V30 19205 H 1902.48 3.19612 1.46769 0
M  V30 19206 H 1902.35 2.3136 2.97913 0
M  V30 19207 H 1904.74 1.39743 2.59915 0
M  V30 19208 H 1904.82 2.31492 1.08836 0
M  V30 19209 H 1904.47 4.47301 2.40591 0
M  V30 19210 H 1904.4 3.52471 3.91244 0
M  V30 19211 H 1906.89 2.81479 2.52147 0
M  V30 19212 H 1907.2 6.15454 4.67371 0
M  V30 19213 H 1905.54 5.53074 4.20873 0
M  V30 19214 H 1908.74 3.5423 3.06005 0
M  V30 19215 H 1908.91 5.06511 4.04167 0
M  V30 19216 N 1902.31 -1.14411 1.08387 0
M  V30 19217 C 1903.24 -2.21619 0.735327 0
M  V30 19218 C 1904.23 -1.67744 -0.282132 0
M  V30 19219 O 1905.41 -1.936 -0.152547 0
M  V30 19220 C 1902.54 -3.47003 0.143628 0
M  V30 19221 C 1901.49 -4.13903 1.08941 0
M  V30 19222 C 1900.82 -5.33487 0.359941 0
M  V30 19223 C 1902.12 -4.62463 2.42746 0
M  V30 19224 H 1903.81 -2.51031 1.63168 0
M  V30 19225 H 1901.36 -1.20658 0.785981 0
M  V30 19226 H 1903.31 -4.21251 -0.112217 0
M  V30 19227 H 1902.04 -3.16955 -0.787856 0
M  V30 19228 H 1900.7 -3.4161 1.33035 0
M  V30 19229 H 1900.34 -4.99699 -0.57534 0
M  V30 19230 H 1900.04 -5.79192 0.990451 0
M  V30 19231 H 1901.57 -6.10497 0.112145 0
M  V30 19232 H 1902.98 -5.28185 2.22919 0
M  V30 19233 H 1901.38 -5.18869 3.01488 0
M  V30 19234 H 1902.45 -3.77542 3.04286 0
M  V30 19235 N 1903.79 -0.869509 -1.31443 0
M  V30 19236 C 1905.02 -0.493849 -2.01435 0
M  V30 19237 C 1905.44 0.906049 -1.6484 0
M  V30 19238 O 1904.8 1.59777 -0.856794 0
M  V30 19239 C 1904.85 -0.657723 -3.54551 0
M  V30 19240 O 1903.95 0.303155 -4.11284 0
M  V30 19241 H 1903.29 -0.196494 -0.63426 0
M  V30 19242 H 1905.82 -1.1728 -1.6765 0
M  V30 19243 H 1905.83 -0.550841 -4.04264 0
M  V30 19244 H 1904.51 -1.67848 -3.80526 0
M  V30 19245 H 1903.09 0.151268 -3.72593 0
M  V30 19246 N 1905.27 1.44508 -0.628902 0
M  V30 19247 C 1906.18 2.34468 0.0786233 0
M  V30 19248 C 1907.2 1.52489 0.838046 0
M  V30 19249 O 1908.37 1.85224 0.790813 0
M  V30 19250 C 1905.44 3.30435 1.04945 0
M  V30 19251 C 1904.5 4.28322 0.289643 0
M  V30 19252 C 1903.73 5.19704 1.21422 0
M  V30 19253 O 1903.95 5.14967 2.45286 0
M  V30 19254 O 1902.89 5.97819 0.699748 0
M  V30 19255 H 1906.71 2.96414 -0.661222 0
M  V30 19256 H 1904.3 1.44244 -0.3891 0
M  V30 19257 H 1906.18 3.89513 1.60804 0
M  V30 19258 H 1904.86 2.71025 1.76994 0
M  V30 19259 H 1903.76 3.72797 -0.311936 0
M  V30 19260 H 1905.1 4.90646 -0.390789 0
M  V30 19261 N 1906.75 0.369315 1.53212 0
M  V30 19262 C 1907.71 -0.463128 2.24472 0
M  V30 19263 C 1908.71 -1.00667 1.2539 0
M  V30 19264 O 1909.9 -0.891832 1.4964 0
M  V30 19265 C 1907.03 -1.6477 2.98435 0
M  V30 19266 H 1908.23 0.160479 2.9947 0
M  V30 19267 H 1905.78 0.121068 1.5583 0
M  V30 19268 H 1906.52 -2.30929 2.27689 0
M  V30 19269 H 1906.3 -1.26487 3.71138 0
M  V30 19270 H 1907.79 -2.23753 3.52596 0
M  V30 19271 N 1908.23 -1.57291 0.0985816 0
M  V30 19272 C 1909.14 -2.17742 -0.873245 0
M  V30 19273 C 1910.15 -1.14784 -1.3077 0
M  V30 19274 O 1911.33 -1.47169 -1.37489 0
M  V30 19275 C 1908.39 -2.74864 -2.11308 0
M  V30 19276 C 1907.46 -3.92789 -1.73249 0
M  V30 19277 C 1906.69 -4.47177 -2.91322 0
M  V30 19278 O 1906.91 -4.00497 -4.06151 0
M  V30 19279 O 1905.85 -5.38151 -2.69587 0
M  V30 19280 H 1909.67 -3.012 -0.388902 0
M  V30 19281 H 1907.26 -1.48868 -0.125955 0
M  V30 19282 H 1909.14 -3.11359 -2.8396 0
M  V30 19283 H 1907.81 -1.9445 -2.58787 0
M  V30 19284 H 1906.72 -3.61099 -0.977663 0
M  V30 19285 H 1908.05 -4.74577 -1.3053 0
M  V30 19286 N 1909.71 0.175127 -1.56624 0
M  V30 19287 C 1910.95 0.892368 -1.81777 0
M  V30 19288 C 1911.28 1.8241 -0.675051 0
M  V30 19289 O 1910.54 1.9276 0.337944 0
M  V30 19290 C 1910.83 1.72397 -3.13072 0
M  V30 19291 C 1910.5 0.941494 -4.40961 0
M  V30 19292 C 1909.16 0.725524 -4.75699 0
M  V30 19293 C 1911.51 0.392358 -5.19721 0
M  V30 19294 C 1908.84 -0.0507428 -5.86678 0
M  V30 19295 C 1911.19 -0.370801 -6.31512 0
M  V30 19296 C 1909.86 -0.597606 -6.64819 0
M  V30 19297 H 1909.13 0.326541 -0.665171 0
M  V30 19298 H 1911.78 0.157524 -1.90851 0
M  V30 19299 H 1910.08 2.52809 -2.99324 0
M  V30 19300 H 1911.78 2.28189 -3.29743 0
M  V30 19301 H 1908.37 1.11986 -4.13711 0
M  V30 19302 H 1912.55 0.546561 -4.93281 0
M  V30 19303 H 1907.81 -0.236241 -6.10943 0
M  V30 19304 H 1911.98 -0.803585 -6.91748 0
M  V30 19305 H 1909.61 -1.201 -7.50653 0
M  V30 19306 N 1911.18 1.5123 0.44355 0
M  V30 19307 C 1912.09 1.74928 1.56324 0
M  V30 19308 C 1913.11 0.633267 1.62067 0
M  V30 19309 O 1914.29 0.914808 1.79425 0
M  V30 19310 C 1911.35 1.86361 2.92354 0
M  V30 19311 C 1910.41 3.10196 2.96778 0
M  V30 19312 C 1909.64 3.21073 4.26319 0
M  V30 19313 O 1909.87 2.38043 5.18355 0
M  V30 19314 O 1908.8 4.14008 4.369 0
M  V30 19315 H 1912.63 2.69898 1.39243 0
M  V30 19316 H 1910.21 1.35656 0.62592 0
M  V30 19317 H 1912.09 1.95901 3.73096 0
M  V30 19318 H 1910.77 0.945775 3.09575 0
M  V30 19319 H 1909.68 3.06138 2.15013 0
M  V30 19320 H 1911.01 4.01648 2.84499 0
M  V30 19321 N 1912.66 -0.698586 1.41271 0
M  V30 19322 C 1913.91 -1.46077 1.40674 0
M  V30 19323 C 1914.24 -1.94194 0.0146774 0
M  V30 19324 O 1913.52 -1.69325 -0.957036 0
M  V30 19325 C 1913.8 -2.67481 2.41093 0
M  V30 19326 C 1913.65 -2.25149 3.89394 0
M  V30 19327 C 1914.97 -3.69673 2.38809 0
M  V30 19328 H 1912.09 -0.529839 0.512288 0
M  V30 19329 H 1914.73 -0.795918 1.72526 0
M  V30 19330 H 1912.88 -3.24206 2.14062 0
M  V30 19331 H 1914.55 -1.73775 4.27317 0
M  V30 19332 H 1912.8 -1.56965 4.04406 0
M  V30 19333 H 1913.47 -3.12247 4.55199 0
M  V30 19334 H 1915.94 -3.22615 2.6279 0
M  V30 19335 H 1914.82 -4.52232 3.1109 0
M  V30 19336 H 1915.08 -4.1916 1.40562 0
M  V30 19337 N 1914.14 -1.27049 -0.93254 0
M  V30 19338 C 1915.07 -1.11867 -2.04959 0
M  V30 19339 C 1916.05 -0.0214563 -1.70086 0
M  V30 19340 O 1917.24 -0.195063 -1.93218 0
M  V30 19341 C 1914.37 -0.759993 -3.38883 0
M  V30 19342 C 1913.32 -1.8099 -3.87849 0
M  V30 19343 C 1912.65 -1.30532 -5.18522 0
M  V30 19344 C 1913.95 -3.21309 -4.11774 0
M  V30 19345 H 1915.64 -2.05309 -2.17918 0
M  V30 19346 H 1913.19 -0.988507 -1.04712 0
M  V30 19347 H 1915.14 -0.640623 -4.16502 0
M  V30 19348 H 1913.86 0.210139 -3.25923 0
M  V30 19349 H 1912.52 -1.91809 -3.12418 0
M  V30 19350 H 1912.17 -0.324784 -5.0195 0
M  V30 19351 H 1911.87 -2.00722 -5.52254 0
M  V30 19352 H 1913.39 -1.19879 -5.98716 0
M  V30 19353 H 1914.81 -3.13517 -4.79979 0
M  V30 19354 H 1913.2 -3.89166 -4.56804 0
M  V30 19355 H 1914.27 -3.66722 -3.17243 0
M  V30 19356 N 1915.62 1.13835 -1.08993 0
M  V30 19357 C 1916.56 2.19107 -0.725298 0
M  V30 19358 C 1917.53 1.63524 0.291368 0
M  V30 19359 O 1918.72 1.90005 0.174014 0
M  V30 19360 C 1915.86 3.44786 -0.147212 0
M  V30 19361 C 1914.97 4.14492 -1.21738 0
M  V30 19362 C 1914.11 5.27772 -0.602519 0
M  V30 19363 C 1913.15 5.89321 -1.65431 0
M  V30 19364 N 1912.28 6.9404 -1.0608 0
M  V30 19365 H 1917.12 2.49646 -1.6273 0
M  V30 19366 H 1914.66 1.22585 -0.813108 0
M  V30 19367 H 1916.62 4.16692 0.205719 0
M  V30 19368 H 1915.25 3.14712 0.718077 0
M  V30 19369 H 1914.3 3.40914 -1.68766 0
M  V30 19370 H 1915.61 4.56325 -2.01417 0
M  V30 19371 H 1914.77 6.06376 -0.198177 0
M  V30 19372 H 1913.51 4.87177 0.225868 0
M  V30 19373 H 1912.51 5.09415 -2.06824 0
M  V30 19374 H 1913.74 6.3199 -2.48528 0
M  V30 19375 H 1911.68 6.5551 -0.253616 0
M  V30 19376 H 1911.6 7.34391 -1.79461 0
M  V30 19377 H 1912.87 7.76506 -0.682517 0
M  V30 19378 N 1917.1 0.876467 1.3098 0
M  V30 19379 C 1918.06 0.341893 2.26636 0
M  V30 19380 C 1919.06 -0.510816 1.52471 0
M  V30 19381 O 1920.25 -0.31919 1.71251 0
M  V30 19382 C 1917.38 -0.513725 3.37007 0
M  V30 19383 H 1918.57 1.18642 2.75434 0
M  V30 19384 H 1916.13 0.652602 1.42024 0
M  V30 19385 H 1916.86 -1.37919 2.93511 0
M  V30 19386 H 1916.65 0.0969443 3.9198 0
M  V30 19387 H 1918.14 -0.87981 4.08227 0
M  V30 19388 N 1918.57 -1.44173 0.636557 0
M  V30 19389 C 1919.82 -2.01993 0.143216 0
M  V30 19390 C 1920.15 -1.50104 -1.23689 0
M  V30 19391 O 1919.4 -0.677627 -1.83594 0
M  V30 19392 C 1919.7 -3.57299 0.0849933 0
M  V30 19393 C 1919.37 -4.28464 1.40461 0
M  V30 19394 C 1918.03 -4.47622 1.76601 0
M  V30 19395 C 1920.38 -4.68908 2.27541 0
M  V30 19396 C 1917.71 -5.04485 2.99519 0
M  V30 19397 C 1920.06 -5.27133 3.49734 0
M  V30 19398 C 1918.73 -5.44509 3.86091 0
M  V30 19399 H 1918 -0.739144 0.0524066 0
M  V30 19400 H 1920.64 -1.72868 0.823952 0
M  V30 19401 H 1918.95 -3.85869 -0.679134 0
M  V30 19402 H 1920.65 -3.99774 -0.31333 0
M  V30 19403 H 1917.24 -4.13886 1.11337 0
M  V30 19404 H 1921.42 -4.53815 2.00913 0
M  V30 19405 H 1916.68 -5.16125 3.27758 0
M  V30 19406 H 1920.85 -5.5742 4.1744 0
M  V30 19407 H 1918.48 -5.88336 4.81419 0
M  V30 19408 N 1920.05 -0.377435 -1.53014 0
M  V30 19409 C 1921.3 0.208838 -2.01722 0
M  V30 19410 C 1921.63 1.47446 -1.26385 0
M  V30 19411 O 1920.91 1.91122 -0.360903 0
M  V30 19412 C 1921.19 0.4888 -3.56767 0
M  V30 19413 C 1921.04 -0.791285 -4.42785 0
M  V30 19414 C 1922.36 1.28443 -4.2094 0
M  V30 19415 H 1919.48 0.0744281 -0.733232 0
M  V30 19416 H 1922.12 -0.504664 -1.83175 0
M  V30 19417 H 1920.27 1.09662 -3.72702 0
M  V30 19418 H 1921.94 -1.42848 -4.38625 0
M  V30 19419 H 1920.19 -1.40914 -4.10275 0
M  V30 19420 H 1920.86 -0.550199 -5.49251 0
M  V30 19421 H 1923.33 0.770147 -4.08911 0
M  V30 19422 H 1922.21 1.44906 -5.29427 0
M  V30 19423 H 1922.47 2.29631 -3.77786 0
M  V30 19424 N 1921.53 1.57237 -0.106922 0
M  V30 19425 C 1922.78 1.95064 0.554803 0
M  V30 19426 C 1923.11 0.989597 1.67095 0
M  V30 19427 O 1922.38 0.0246857 1.94484 0
M  V30 19428 C 1922.67 3.42924 1.09887 0
M  V30 19429 C 1922.52 4.49798 -0.0130257 0
M  V30 19430 C 1923.84 3.92358 1.99356 0
M  V30 19431 H 1920.96 0.709287 0.200204 0
M  V30 19432 H 1923.6 1.89145 -0.180032 0
M  V30 19433 H 1921.75 3.48098 1.7251 0
M  V30 19434 H 1923.42 4.56729 -0.647804 0
M  V30 19435 H 1921.67 4.28472 -0.677825 0
M  V30 19436 H 1922.34 5.50485 0.40868 0
M  V30 19437 H 1924.81 3.89411 1.46622 0
M  V30 19438 H 1923.69 4.9636 2.34346 0
M  V30 19439 H 1923.95 3.32343 2.91549 0
M  V30 19440 N 1923.01 -0.166818 1.56715 0
M  V30 19441 C 1924.29 -0.910255 1.73129 0
M  V30 19442 C 1924.67 -2.002 0.669555 0
M  V30 19443 O 1924.01 -2.2632 -0.314899 0
M  V30 19444 C 1924.22 -1.47087 3.16491 0
M  V30 19445 C 1925.57 -1.94204 3.77584 0
M  V30 19446 O 1926.6 -1.56872 3.19796 0
M  V30 19447 O 1925.45 -2.62988 4.79061 0
M  V30 19448 H 1922.55 -0.428766 0.70717 0
M  V30 19449 H 1925.09 -0.154295 1.68997 0
M  V30 19450 H 1923.87 -0.685322 3.85252 0
M  V30 19451 H 1923.49 -2.29089 3.24967 0
M  V30 19452 N 1924.49 -1.51463 -0.435524 0
M  V30 19453 C 1925.42 -1.67594 -1.54879 0
M  V30 19454 C 1926.4 -0.523516 -1.53942 0
M  V30 19455 O 1927.58 -0.747582 -1.73042 0
M  V30 19456 C 1924.71 -1.69117 -2.93457 0
M  V30 19457 C 1923.75 -2.90346 -3.12413 0
M  V30 19458 S 1924.59 -4.51129 -2.88518 0
M  V30 19459 C 1925.74 -4.554 -4.29374 0
M  V30 19460 H 1925.98 -2.61757 -1.40963 0
M  V30 19461 H 1923.51 -1.4117 -0.625338 0
M  V30 19462 H 1925.47 -1.70679 -3.73335 0
M  V30 19463 H 1924.13 -0.761275 -3.04735 0
M  V30 19464 H 1923.32 -2.87818 -4.13735 0
M  V30 19465 H 1922.92 -2.86534 -2.40362 0
M  V30 19466 H 1925.22 -4.31152 -5.22603 0
M  V30 19467 H 1926.16 -5.5722 -4.36935 0
M  V30 19468 H 1926.57 -3.84704 -4.13113 0
M  V30 19469 N 1925.96 0.691085 -1.4164 0
M  V30 19470 C 1926.9 1.81547 -1.3826 0
M  V30 19471 C 1927.88 1.60679 -0.249192 0
M  V30 19472 O 1929.06 1.83369 -0.436821 0
M  V30 19473 C 1926.19 3.18298 -1.15777 0
M  V30 19474 C 1925.23 3.57948 -2.31896 0
M  V30 19475 S 1926.07 3.6224 -3.94388 0
M  V30 19476 C 1927.22 5.0171 -3.74217 0
M  V30 19477 H 1927.45 1.84138 -2.33411 0
M  V30 19478 H 1924.99 0.860221 -1.28217 0
M  V30 19479 H 1926.95 3.9724 -1.03492 0
M  V30 19480 H 1925.61 3.13312 -0.222389 0
M  V30 19481 H 1924.8 4.57304 -2.1187 0
M  V30 19482 H 1924.4 2.86325 -2.40612 0
M  V30 19483 H 1926.69 5.89336 -3.342 0
M  V30 19484 H 1927.64 5.26778 -4.73192 0
M  V30 19485 H 1928.04 4.73459 -3.07403 0
M  V30 19486 N 1927.44 1.27542 0.925789 0
M  V30 19487 C 1928.35 1.1225 2.06002 0
M  V30 19488 C 1929.37 0.0520487 1.73922 0
M  V30 19489 O 1930.54 0.258921 1.99729 0
M  V30 19490 C 1927.61 0.773231 3.37967 0
M  V30 19491 C 1926.67 1.92476 3.83733 0
M  V30 19492 C 1925.9 1.59206 5.09401 0
M  V30 19493 O 1926.13 0.500836 5.68197 0
M  V30 19494 O 1925.06 2.43185 5.50586 0
M  V30 19495 H 1928.89 2.07439 2.21817 0
M  V30 19496 H 1926.47 1.06747 1.04525 0
M  V30 19497 H 1928.35 0.591863 4.17223 0
M  V30 19498 H 1927.03 -0.149116 3.23356 0
M  V30 19499 H 1925.94 2.1612 3.05357 0
M  V30 19500 H 1927.27 2.82738 4.02889 0
M  V30 19501 N 1928.92 -1.13255 1.09595 0
M  V30 19502 C 1930.34 -1.36563 0.825994 0
M  V30 19503 C 1930.54 -1.93595 -0.558844 0
M  V30 19504 O 1929.59 -2.15654 -1.31338 0
M  V30 19505 C 1930.91 -2.31535 1.91864 0
M  V30 19506 C 1932.45 -2.45147 1.94607 0
M  V30 19507 C 1932.93 -3.43427 3.03021 0
M  V30 19508 N 1934.42 -3.50979 3.02271 0
M  V30 19509 C 1935.15 -4.2691 3.82799 0
M  V30 19510 N 1934.65 -5.05981 4.73239 0
M  V30 19511 N 1936.44 -4.22229 3.71051 0
M  V30 19512 H 1928.59 -0.745889 1.98872 0
M  V30 19513 H 1930.86 -0.390727 0.863734 0
M  V30 19514 H 1930.56 -1.96788 2.91492 0
M  V30 19515 H 1930.44 -3.3157 1.79837 0
M  V30 19516 H 1932.82 -2.7918 0.956178 0
M  V30 19517 H 1932.91 -1.45031 2.10712 0
M  V30 19518 H 1932.55 -3.10126 4.02225 0
M  V30 19519 H 1932.48 -4.43352 2.84159 0
M  V30 19520 H 1934.97 -2.94562 2.36731 0
M  V30 19521 H 1935.28 -5.61231 5.31262 0
M  V30 19522 H 1933.63 -5.05208 4.77274 0
M  V30 19523 H 1936.82 -3.59534 2.99755 0
M  V30 19524 H 1936.99 -4.81152 4.34047 0
M  V30 19525 N 1930.4 -0.883401 -1.30514 0
M  V30 19526 C 1931.33 -0.36516 -2.30627 0
M  V30 19527 C 1932.31 0.551149 -1.60923 0
M  V30 19528 O 1933.49 0.465333 -1.88543 0
M  V30 19529 C 1930.62 0.422552 -3.4472 0
M  V30 19530 C 1929.58 -0.401856 -4.26109 0
M  V30 19531 C 1928.9 0.512363 -5.3224 0
M  V30 19532 C 1930.2 -1.64313 -4.95781 0
M  V30 19533 H 1931.9 -1.20175 -2.74223 0
M  V30 19534 H 1929.44 -0.579315 -1.31833 0
M  V30 19535 H 1931.4 0.795726 -4.13819 0
M  V30 19536 H 1930.12 1.29278 -2.99925 0
M  V30 19537 H 1928.78 -0.75715 -3.58696 0
M  V30 19538 H 1928.43 1.38025 -4.83692 0
M  V30 19539 H 1928.13 -0.0354331 -5.87589 0
M  V30 19540 H 1929.65 0.882088 -6.04195 0
M  V30 19541 H 1931.07 -1.34063 -5.57405 0
M  V30 19542 H 1929.46 -2.13101 -5.60989 0
M  V30 19543 H 1930.53 -2.38843 -4.21998 0
M  V30 19544 N 1931.88 1.43833 -0.644194 0
M  V30 19545 C 1933.29 1.56542 -0.310952 0
M  V30 19546 C 1933.49 1.62946 1.18536 0
M  V30 19547 O 1932.55 1.57961 1.96989 0
M  V30 19548 C 1933.86 2.83074 -1.01437 0
M  V30 19549 C 1935.41 2.96805 -0.993759 0
M  V30 19550 C 1935.88 4.26158 -1.6779 0
M  V30 19551 N 1937.38 4.33002 -1.64511 0
M  V30 19552 C 1938.11 5.31837 -2.14328 0
M  V30 19553 N 1937.61 6.37003 -2.72394 0
M  V30 19554 N 1939.4 5.23431 -2.04881 0
M  V30 19555 H 1931.55 1.37919 -1.61531 0
M  V30 19556 H 1933.81 0.661778 -0.678789 0
M  V30 19557 H 1933.52 2.84372 -2.06943 0
M  V30 19558 H 1933.39 3.73016 -0.560273 0
M  V30 19559 H 1935.78 2.95053 0.0528599 0
M  V30 19560 H 1935.86 2.08177 -1.48647 0
M  V30 19561 H 1935.51 4.28671 -2.72404 0
M  V30 19562 H 1935.44 5.13667 -1.15992 0
M  V30 19563 H 1937.93 3.57621 -1.22129 0
M  V30 19564 H 1938.24 7.08724 -3.08107 0
M  V30 19565 H 1936.58 6.37652 -2.76451 0
M  V30 19566 H 1939.78 4.40186 -1.59229 0
M  V30 19567 H 1939.95 6.00301 -2.44015 0
M  V30 19568 N 1933.35 0.385544 1.52811 0
M  V30 19569 C 1934.6 -0.19907 2.00715 0
M  V30 19570 C 1934.92 -1.48216 1.27638 0
M  V30 19571 O 1936.12 -2.14659 1.66234 0
M  V30 19572 C 1934.58 -0.405311 3.5761 0
M  V30 19573 C 1934.19 0.864306 4.39584 0
M  V30 19574 C 1935.93 -0.946495 4.13814 0
M  V30 19575 C 1933.84 0.626551 5.88072 0
M  V30 19576 H 1932.77 -0.0781676 0.749937 0
M  V30 19577 H 1935.42 0.507365 1.76346 0
M  V30 19578 H 1933.8 -1.1735 3.78213 0
M  V30 19579 H 1934.97 1.63683 4.30749 0
M  V30 19580 H 1933.29 1.33017 3.94583 0
M  V30 19581 H 1935.89 -1.14002 5.22406 0
M  V30 19582 H 1936.23 -1.91447 3.69667 0
M  V30 19583 H 1936.76 -0.23797 3.97088 0
M  V30 19584 H 1933.5 1.56542 6.36534 0
M  V30 19585 H 1933.02 -0.107102 5.99704 0
M  V30 19586 H 1934.7 0.259654 6.46479 0
M  V30 19587 N 1934.83 -1.57178 0.115259 0
M  V30 19588 C 1936.06 -1.99842 -0.554802 0
M  V30 19589 C 1936.48 -0.994368 -1.59668 0
M  V30 19590 O 1935.84 0.0344531 -1.81267 0
M  V30 19591 C 1935.89 -3.41399 -1.16099 0
M  V30 19592 O 1934.99 -3.43868 -2.27659 0
M  V30 19593 H 1934.33 -0.649301 -0.138937 0
M  V30 19594 H 1936.86 -2.03594 0.202629 0
M  V30 19595 H 1936.87 -3.79527 -1.49743 0
M  V30 19596 H 1935.55 -4.13993 -0.397827 0
M  V30 19597 H 1934.13 -3.17555 -1.95482 0
M  V30 19598 N 1936.31 0.158505 -1.56801 0
M  V30 19599 C 1937.24 1.22086 -1.93978 0
M  V30 19600 C 1938.26 1.39798 -0.834291 0
M  V30 19601 O 1939.45 1.39573 -1.11272 0
M  V30 19602 C 1936.55 2.58757 -2.18857 0
M  V30 19603 C 1935.72 2.62175 -3.50118 0
M  V30 19604 C 1934.78 3.80301 -3.63673 0
M  V30 19605 O 1933.8 3.65706 -4.36174 0
M  V30 19606 N 1935.01 4.97286 -2.99477 0
M  V30 19607 H 1937.77 0.904964 -2.8571 0
M  V30 19608 H 1935.33 0.348168 -1.58112 0
M  V30 19609 H 1937.32 3.3627 -2.25177 0
M  V30 19610 H 1935.89 2.82685 -1.33446 0
M  V30 19611 H 1935.11 1.70662 -3.55342 0
M  V30 19612 H 1936.4 2.61481 -4.36469 0
M  V30 19613 H 1935.8 5.12046 -2.40469 0
M  V30 19614 H 1934.36 5.72616 -3.11375 0
M  V30 19615 N 1937.79 1.51692 0.427485 0
M  V30 19616 C 1938.74 1.73716 1.51958 0
M  V30 19617 C 1939.71 0.579073 1.55679 0
M  V30 19618 O 1940.89 0.814605 1.72536 0
M  V30 19619 C 1938.03 1.87709 2.89585 0
M  V30 19620 C 1937.14 3.15297 2.95317 0
M  V30 19621 C 1936.28 3.19827 4.24128 0
M  V30 19622 C 1935.32 4.4169 4.23764 0
M  V30 19623 N 1934.46 4.43715 5.44116 0
M  V30 19624 H 1939.3 2.66933 1.3248 0
M  V30 19625 H 1936.83 1.32283 0.643393 0
M  V30 19626 H 1938.79 1.93804 3.69454 0
M  V30 19627 H 1937.42 0.978912 3.07599 0
M  V30 19628 H 1936.47 3.18464 2.08051 0
M  V30 19629 H 1937.78 4.05182 2.90911 0
M  V30 19630 H 1936.94 3.24892 5.12377 0
M  V30 19631 H 1935.68 2.27848 4.31204 0
M  V30 19632 H 1934.68 4.36791 3.33907 0
M  V30 19633 H 1935.91 5.34944 4.18343 0
M  V30 19634 H 1933.85 3.5461 5.51894 0
M  V30 19635 H 1933.77 5.27421 5.4163 0
M  V30 19636 H 1935.04 4.52986 6.34369 0
M  V30 19637 N 1939.27 -0.683564 1.42004 0
M  V30 19638 C 1940.51 -1.44433 1.43215 0
M  V30 19639 C 1940.87 -1.92348 0.0445644 0
M  V30 19640 O 1940.16 -1.6742 -0.931726 0
M  V30 19641 C 1940.36 -2.66286 2.38383 0
M  V30 19642 C 1940.18 -2.30293 3.86258 0
M  V30 19643 C 1938.95 -2.20076 4.54857 0
M  V30 19644 C 1941.15 -1.92498 4.76916 0
M  V30 19645 N 1939.13 -1.77094 5.87802 0
M  V30 19646 C 1940.51 -1.60367 5.98901 0
M  V30 19647 C 1942.56 -1.79413 4.64452 0
M  V30 19648 C 1941.26 -1.16466 7.09809 0
M  V30 19649 C 1943.29 -1.36916 5.75333 0
M  V30 19650 C 1942.65 -1.05704 6.96424 0
M  V30 19651 H 1938.75 -0.525345 0.579255 0
M  V30 19652 H 1941.33 -0.789697 1.77966 0
M  V30 19653 H 1939.51 -3.29452 2.05708 0
M  V30 19654 H 1941.24 -3.32829 2.30233 0
M  V30 19655 H 1937.99 -2.38861 4.08953 0
M  V30 19656 H 1938.42 -1.58051 6.58292 0
M  V30 19657 H 1943.06 -2.02193 3.71319 0
M  V30 19658 H 1940.78 -0.924313 8.02796 0
M  V30 19659 H 1944.36 -1.27325 5.67697 0
M  V30 19660 H 1943.24 -0.733189 7.80765 0
M  V30 19661 N 1940.75 -1.28031 -0.919012 0
M  V30 19662 C 1941.99 -1.15048 -1.67008 0
M  V30 19663 C 1942.32 0.301301 -1.91848 0
M  V30 19664 O 1941.6 1.21964 -1.51509 0
M  V30 19665 C 1941.88 -1.94388 -3.03126 0
M  V30 19666 C 1941.74 -3.476 -2.85473 0
M  V30 19667 C 1943.05 -1.75517 -4.03586 0
M  V30 19668 H 1940.17 -0.419311 -0.606091 0
M  V30 19669 H 1942.82 -1.57287 -1.06587 0
M  V30 19670 H 1940.97 -1.58493 -3.547 0
M  V30 19671 H 1942.64 -3.93372 -2.40949 0
M  V30 19672 H 1940.88 -3.73499 -2.20637 0
M  V30 19673 H 1941.55 -3.98365 -3.82111 0
M  V30 19674 H 1944.03 -2.06832 -3.61054 0
M  V30 19675 H 1942.9 -2.33411 -4.968 0
M  V30 19676 H 1943.16 -0.705309 -4.36438 0
M  V30 19677 N 1942.22 1.12672 -1.10194 0
M  V30 19678 C 1943.64 1.36123 -0.833225 0
M  V30 19679 C 1943.84 1.93889 0.548569 0
M  V30 19680 O 1942.9 2.16347 1.30192 0
M  V30 19681 C 1944.21 2.30515 -1.93089 0
M  V30 19682 C 1945.76 2.44111 -1.95905 0
M  V30 19683 C 1946.23 3.41816 -3.04838 0
M  V30 19684 N 1947.72 3.49371 -3.04128 0
M  V30 19685 C 1948.46 4.24874 -3.85058 0
M  V30 19686 N 1947.95 5.03464 -4.75916 0
M  V30 19687 N 1949.75 4.20255 -3.73285 0
M  V30 19688 H 1941.9 0.735332 -1.99265 0
M  V30 19689 H 1944.16 0.386141 -0.865794 0
M  V30 19690 H 1943.87 1.95239 -2.92531 0
M  V30 19691 H 1943.74 3.30611 -1.81593 0
M  V30 19692 H 1946.13 2.78669 -0.97097 0
M  V30 19693 H 1946.21 1.43911 -2.11479 0
M  V30 19694 H 1945.85 3.07988 -4.03864 0
M  V30 19695 H 1945.78 4.41839 -2.86506 0
M  V30 19696 H 1948.27 2.93303 -2.38289 0
M  V30 19697 H 1948.59 5.58406 -5.34231 0
M  V30 19698 H 1946.93 5.02669 -4.79946 0
M  V30 19699 H 1950.12 3.57939 -3.01658 0
M  V30 19700 H 1950.3 4.78843 -4.36593 0
M  V30 19701 N 1943.7 0.89031 1.30043 0
M  V30 19702 C 1944.95 0.512208 1.96225 0
M  V30 19703 C 1945.28 -0.937287 1.70084 0
M  V30 19704 O 1944.56 -1.66309 1.00854 0
M  V30 19705 C 1944.84 0.794043 3.51236 0
M  V30 19706 C 1944.69 2.29456 3.86872 0
M  V30 19707 C 1946.01 0.274152 4.39245 0
M  V30 19708 H 1943.13 0.187568 0.712732 0
M  V30 19709 H 1945.77 1.11528 1.53823 0
M  V30 19710 H 1943.92 0.28077 3.87484 0
M  V30 19711 H 1945.59 2.87665 3.6062 0
M  V30 19712 H 1943.84 2.75907 3.34751 0
M  V30 19713 H 1944.51 2.44235 4.95029 0
M  V30 19714 H 1946.98 0.713535 4.09936 0
M  V30 19715 H 1945.86 0.500633 5.46612 0
M  V30 19716 H 1946.12 -0.824812 4.34338 0
M  V30 19717 N 1945.18 -1.43489 0.651812 0
M  V30 19718 C 1946.14 -2.29179 -0.0311937 0
M  V30 19719 C 1947.14 -1.42135 -0.751953 0
M  V30 19720 O 1948.33 -1.63781 -0.593416 0
M  V30 19721 C 1945.46 -3.24168 -1.0549 0
M  V30 19722 H 1946.66 -2.91061 0.722741 0
M  V30 19723 H 1944.21 -1.50746 0.412968 0
M  V30 19724 H 1944.95 -2.67177 -1.83812 0
M  V30 19725 H 1944.73 -3.88339 -0.541752 0
M  V30 19726 H 1946.22 -3.88487 -1.53193 0
M  V30 19727 N 1946.66 -0.393643 -1.52605 0
M  V30 19728 C 1947.9 0.187431 -2.01932 0
M  V30 19729 C 1948.24 1.46098 -1.27942 0
M  V30 19730 O 1947.51 1.90729 -0.381154 0
M  V30 19731 C 1947.79 0.450933 -3.57265 0
M  V30 19732 C 1947.65 -0.838204 -4.41921 0
M  V30 19733 C 1948.97 1.23971 -4.22278 0
M  V30 19734 H 1946.09 0.0666471 -0.73398 0
M  V30 19735 H 1948.73 -0.524064 -1.8263 0
M  V30 19736 H 1946.88 1.05703 -3.73844 0
M  V30 19737 H 1948.55 -1.47492 -4.37086 0
M  V30 19738 H 1946.79 -1.45258 -4.08757 0
M  V30 19739 H 1947.46 -0.608424 -5.48637 0
M  V30 19740 H 1949.94 0.726733 -4.09705 0
M  V30 19741 H 1948.82 1.39283 -5.30935 0
M  V30 19742 H 1949.08 2.25611 -3.802 0
M  V30 19743 N 1948.14 1.57115 -0.123593 0
M  V30 19744 C 1949.38 1.95641 0.534082 0
M  V30 19745 C 1949.71 1.00726 1.66036 0
M  V30 19746 O 1948.99 0.045312 1.94447 0
M  V30 19747 C 1949.27 3.4407 1.06244 0
M  V30 19748 C 1949.13 4.49759 -0.0607321 0
M  V30 19749 C 1950.44 3.94451 1.95183 0
M  V30 19750 H 1947.56 0.71137 0.19267 0
M  V30 19751 H 1950.21 1.88944 -0.200083 0
M  V30 19752 H 1948.36 3.49909 1.68808 0
M  V30 19753 H 1950.03 4.56016 -0.69621 0
M  V30 19754 H 1948.27 4.27729 -0.723232 0
M  V30 19755 H 1948.94 5.50888 0.350271 0
M  V30 19756 H 1951.42 3.90945 1.42483 0
M  V30 19757 H 1950.29 4.98817 2.29069 0
M  V30 19758 H 1950.55 3.35417 2.88007 0
M  V30 19759 N 1949.61 -0.150187 1.56883 0
M  V30 19760 C 1950.52 -1.20504 2.01286 0
M  V30 19761 C 1951.54 -1.47204 0.927733 0
M  V30 19762 O 1952.72 -1.58937 1.23697 0
M  V30 19763 C 1949.78 -2.51932 2.38184 0
M  V30 19764 C 1948.84 -2.32906 3.60629 0
M  V30 19765 C 1948.07 -3.58067 3.95757 0
M  V30 19766 O 1948.3 -4.64119 3.31587 0
M  V30 19767 O 1947.23 -3.5092 4.89018 0
M  V30 19768 H 1951.06 -0.858075 2.91326 0
M  V30 19769 H 1948.64 -0.358669 1.45031 0
M  V30 19770 H 1950.52 -3.29423 2.6279 0
M  V30 19771 H 1949.2 -2.86165 1.513 0
M  V30 19772 H 1948.11 -1.53377 3.41213 0
M  V30 19773 H 1949.44 -2.0359 4.4812 0
M  V30 19774 N 1951.09 -1.51916 -0.419434 0
M  V30 19775 C 1952.32 -1.69057 -1.18758 0
M  V30 19776 C 1952.73 -0.395167 -1.85027 0
M  V30 19777 O 1952.07 0.637815 -1.72272 0
M  V30 19778 C 1952.14 -2.76257 -2.30049 0
M  V30 19779 C 1951.8 -4.18321 -1.84001 0
M  V30 19780 C 1952.8 -5.02508 -1.33347 0
M  V30 19781 C 1950.48 -4.64508 -1.91147 0
M  V30 19782 C 1952.48 -6.3095 -0.904498 0
M  V30 19783 C 1950.16 -5.92942 -1.47861 0
M  V30 19784 C 1951.16 -6.75991 -0.975967 0
M  V30 19785 O 1950.85 -8.02021 -0.549318 0
M  V30 19786 H 1950.58 -0.570077 -0.363302 0
M  V30 19787 H 1953.13 -1.99197 -0.50097 0
M  V30 19788 H 1951.36 -2.4147 -3.02042 0
M  V30 19789 H 1953.05 -2.82098 -2.91848 0
M  V30 19790 H 1953.82 -4.68021 -1.27206 0
M  V30 19791 H 1949.7 -3.99976 -2.29216 0
M  V30 19792 H 1953.24 -6.95722 -0.511474 0
M  V30 19793 H 1949.14 -6.2694 -1.53678 0
M  V30 19794 H 1949.91 -8.15724 -0.673558 0
M  V30 19795 N 1952.57 0.676023 -1.42365 0
M  V30 19796 C 1953.52 1.78219 -1.42204 0
M  V30 19797 C 1954.5 1.582 -0.293546 0
M  V30 19798 O 1955.7 1.68699 -0.535684 0
M  V30 19799 C 1952.83 3.1667 -1.3257 0
M  V30 19800 C 1951.91 3.42317 -2.50359 0
M  V30 19801 N 1952.3 3.38555 -3.75784 0
M  V30 19802 C 1950.6 3.72948 -2.44593 0
M  V30 19803 C 1951.3 3.63652 -4.54018 0
M  V30 19804 N 1950.28 3.84357 -3.8441 0
M  V30 19805 H 1954.08 1.73702 -2.37075 0
M  V30 19806 H 1951.59 0.876812 -1.36696 0
M  V30 19807 H 1953.59 3.95937 -1.30536 0
M  V30 19808 H 1952.25 3.22386 -0.38699 0
M  V30 19809 H 1953.26 3.18485 -4.08396 0
M  V30 19810 H 1949.94 3.85916 -1.59295 0
M  V30 19811 H 1951.33 3.66715 -5.63001 0
M  V30 19812 N 1954.05 1.28517 0.912209 0
M  V30 19813 C 1955.33 1.0646 1.6409 0
M  V30 19814 C 1955.71 -0.395521 2.07362 0
M  V30 19815 O 1955.05 -1.3819 1.81978 0
M  V30 19816 C 1955.26 2.04064 2.83123 0
M  V30 19817 C 1956.61 2.34295 3.54106 0
M  V30 19818 O 1957.64 2.0216 2.93274 0
M  V30 19819 O 1956.49 2.89146 4.63742 0
M  V30 19820 H 1953.59 0.406984 0.719926 0
M  V30 19821 H 1956.13 1.39841 0.961378 0
M  V30 19822 H 1954.91 3.02467 2.48253 0
M  V30 19823 H 1954.53 1.71338 3.58788 0
M  V30 19824 N 1955.53 -1.12086 1.1079 0
M  V30 19825 C 1956.77 -1.83314 0.850901 0
M  V30 19826 C 1957.1 -1.84703 -0.625275 0
M  V30 19827 O 1956.37 -1.31277 -1.45406 0
M  V30 19828 H 1954.95 -0.678817 0.311797 0
M  V30 19829 H 1957.61 -1.35707 1.39891 0
M  V30 19830 H 1956.7 -2.87393 1.21704 0
M  V30 19831 N 1957 -0.897194 -1.29569 0
M  V30 19832 C 1958.23 -0.536465 -2.00342 0
M  V30 19833 C 1958.65 0.87088 -1.66725 0
M  V30 19834 O 1958.01 1.57924 -0.890492 0
M  V30 19835 C 1958.06 -0.732781 -3.53076 0
M  V30 19836 O 1957.16 0.215848 -4.11835 0
M  V30 19837 H 1956.51 -0.209904 -0.62995 0
M  V30 19838 H 1959.04 -1.20809 -1.65125 0
M  V30 19839 H 1959.05 -0.636468 -4.03005 0
M  V30 19840 H 1957.72 -1.75882 -3.7688 0
M  V30 19841 H 1956.3 0.0722012 -3.7283 0
M  V30 19842 N 1958.48 1.43142 -0.659413 0
M  V30 19843 C 1959.43 2.27943 0.0508556 0
M  V30 19844 C 1960.42 1.40243 0.788715 0
M  V30 19845 O 1961.61 1.63823 0.670161 0
M  V30 19846 C 1958.74 3.28037 1.01225 0
M  V30 19847 C 1957.82 4.23223 0.272538 0
M  V30 19848 N 1958.21 5.00731 -0.714288 0
M  V30 19849 C 1956.51 4.43038 0.51313 0
M  V30 19850 C 1957.21 5.7014 -1.15391 0
M  V30 19851 N 1956.19 5.41415 -0.486918 0
M  V30 19852 H 1959.99 2.85287 -0.706293 0
M  V30 19853 H 1957.51 1.5492 -0.487201 0
M  V30 19854 H 1959.5 3.87575 1.53594 0
M  V30 19855 H 1958.16 2.72255 1.76939 0
M  V30 19856 H 1959.17 5.0623 -1.09325 0
M  V30 19857 H 1955.85 3.98318 1.25096 0
M  V30 19858 H 1957.24 6.42347 -1.97079 0
M  V30 19859 N 1959.96 0.40173 1.52394 0
M  V30 19860 C 1960.92 -0.41541 2.25404 0
M  V30 19861 C 1961.92 -0.979848 1.27498 0
M  V30 19862 O 1963.11 -0.859891 1.51498 0
M  V30 19863 C 1960.25 -1.58403 3.01863 0
M  V30 19864 H 1961.44 0.223965 2.99063 0
M  V30 19865 H 1958.99 0.154095 1.55539 0
M  V30 19866 H 1959.73 -2.26048 2.32536 0
M  V30 19867 H 1959.51 -1.18586 3.73737 0
M  V30 19868 H 1961 -2.16224 3.57263 0
M  V30 19869 N 1961.44 -1.57047 0.131923 0
M  V30 19870 C 1962.67 -1.99699 -0.52952 0
M  V30 19871 C 1963.08 -1.01077 -1.59938 0
M  V30 19872 O 1962.42 0.00256808 -1.837 0
M  V30 19873 C 1962.48 -3.38777 -1.20293 0
M  V30 19874 C 1962.15 -4.56145 -0.279483 0
M  V30 19875 C 1963.14 -5.17614 0.486981 0
M  V30 19876 C 1960.83 -5.01953 -0.186784 0
M  V30 19877 C 1962.82 -6.2329 1.33375 0
M  V30 19878 C 1960.51 -6.07486 0.6636 0
M  V30 19879 C 1961.51 -6.68023 1.42248 0
M  V30 19880 O 1961.19 -7.71516 2.25873 0
M  V30 19881 H 1960.93 -0.660552 -0.143691 0
M  V30 19882 H 1963.48 -2.0423 0.218962 0
M  V30 19883 H 1961.71 -3.31039 -1.99875 0
M  V30 19884 H 1963.4 -3.65634 -1.76258 0
M  V30 19885 H 1964.17 -4.83132 0.425311 0
M  V30 19886 H 1960.04 -4.54572 -0.76718 0
M  V30 19887 H 1963.59 -6.7047 1.92655 0
M  V30 19888 H 1959.49 -6.41397 0.726617 0
M  V30 19889 H 1960.25 -7.8867 2.18955 0
M  V30 19890 N 1962.92 0.141865 -1.5696 0
M  V30 19891 C 1964.17 0.852066 -1.82819 0
M  V30 19892 C 1964.48 1.82103 -0.713987 0
M  V30 19893 O 1965.68 2.57575 -0.858321 0
M  V30 19894 C 1964.14 1.56589 -3.24049 0
M  V30 19895 C 1963.75 0.639071 -4.43418 0
M  V30 19896 C 1965.49 2.26257 -3.59177 0
M  V30 19897 C 1963.4 1.35481 -5.75673 0
M  V30 19898 H 1962.33 0.321934 -0.681817 0
M  V30 19899 H 1964.98 0.104791 -1.83201 0
M  V30 19900 H 1963.36 2.35898 -3.1807 0
M  V30 19901 H 1964.54 -0.119159 -4.60646 0
M  V30 19902 H 1962.85 0.0505413 -4.16369 0
M  V30 19903 H 1965.45 2.80455 -4.55246 0
M  V30 19904 H 1965.79 3.02992 -2.85485 0
M  V30 19905 H 1966.32 1.53861 -3.6684 0
M  V30 19906 H 1963.06 0.629214 -6.52473 0
M  V30 19907 H 1962.58 2.08562 -5.62372 0
M  V30 19908 H 1964.26 1.89432 -6.18647 0
M  V30 19909 N 1964.39 1.52136 0.411372 0
M  V30 19910 C 1965.64 1.65757 1.15624 0
M  V30 19911 C 1965.96 0.388771 1.91085 0
M  V30 19912 O 1965.23 -0.596276 1.86605 0
M  V30 19913 H 1963.81 0.610955 0.429817 0
M  V30 19914 H 1966.48 1.8917 0.469114 0
M  V30 19915 H 1965.57 2.49759 1.87155 0
M  V30 19916 N 1965.87 -0.668464 1.42721 0
M  V30 19917 C 1966.8 -1.79375 1.49489 0
M  V30 19918 C 1967.78 -1.66442 0.350881 0
M  V30 19919 O 1968.97 -1.85767 0.566049 0
M  V30 19920 C 1966.1 -3.17712 1.40273 0
M  V30 19921 C 1965.05 -3.45389 2.52766 0
M  V30 19922 C 1964.38 -4.83367 2.28606 0
M  V30 19923 C 1965.68 -3.4165 3.95061 0
M  V30 19924 H 1967.37 -1.73968 2.43671 0
M  V30 19925 H 1964.92 -0.835548 1.1728 0
M  V30 19926 H 1966.87 -3.96173 1.43614 0
M  V30 19927 H 1965.6 -3.23811 0.425882 0
M  V30 19928 H 1964.26 -2.69292 2.48752 0
M  V30 19929 H 1963.9 -4.86124 1.292 0
M  V30 19930 H 1963.6 -5.02847 3.04005 0
M  V30 19931 H 1965.13 -5.64104 2.33707 0
M  V30 19932 H 1966.54 -4.1007 4.00644 0
M  V30 19933 H 1964.94 -3.72666 4.70362 0
M  V30 19934 H 1966.01 -2.40106 4.2128 0
M  V30 19935 N 1967.35 -1.28999 -0.905381 0
M  V30 19936 C 1968.3 -1.13642 -2.00883 0
M  V30 19937 C 1969.27 -0.0312703 -1.66071 0
M  V30 19938 O 1970.45 -0.197747 -1.89773 0
M  V30 19939 C 1967.59 -0.813027 -3.35386 0
M  V30 19940 C 1966.71 -1.99806 -3.83017 0
M  V30 19941 C 1965.84 -1.61454 -5.06069 0
M  V30 19942 C 1964.88 -2.76572 -5.46054 0
M  V30 19943 N 1964.02 -2.38655 -6.60294 0
M  V30 19944 H 1968.86 -2.08052 -2.1335 0
M  V30 19945 H 1966.39 -1.03539 -1.0449 0
M  V30 19946 H 1968.35 -0.606238 -4.12772 0
M  V30 19947 H 1966.98 0.094156 -3.22663 0
M  V30 19948 H 1966.03 -2.31672 -3.01715 0
M  V30 19949 H 1967.35 -2.86084 -4.08604 0
M  V30 19950 H 1966.5 -1.3703 -5.91023 0
M  V30 19951 H 1965.24 -0.723154 -4.82309 0
M  V30 19952 H 1964.24 -3.01684 -4.59638 0
M  V30 19953 H 1965.47 -3.66365 -5.71798 0
M  V30 19954 H 1963.42 -1.51997 -6.38148 0
M  V30 19955 H 1963.33 -3.18468 -6.85649 0
M  V30 19956 H 1964.6 -2.17536 -7.48531 0
M  V30 19957 N 1968.83 1.11497 -1.11383 0
M  V30 19958 C 1970.11 1.79631 -0.774086 0
M  V30 19959 C 1970.49 1.97781 0.737951 0
M  V30 19960 O 1969.83 1.56202 1.66773 0
M  V30 19961 C 1970.04 3.13357 -1.53649 0
M  V30 19962 C 1971.39 3.88407 -1.71538 0
M  V30 19963 O 1972.42 3.23045 -1.50069 0
M  V30 19964 O 1971.28 5.05694 -2.07209 0
M  V30 19965 H 1968.37 0.778022 -0.280376 0
M  V30 19966 H 1970.92 1.18245 -1.21722 0
M  V30 19967 H 1969.69 2.95498 -2.56509 0
M  V30 19968 H 1969.31 3.82456 -1.08688 0
M  V30 19969 N 1970.31 0.904053 1.29092 0
M  V30 19970 C 1971.72 0.600783 1.47861 0
M  V30 19971 C 1971.92 -0.856554 1.82388 0
M  V30 19972 O 1970.98 -1.6364 1.92297 0
M  V30 19973 C 1972.29 1.53035 2.58845 0
M  V30 19974 C 1973.84 1.53602 2.72719 0
M  V30 19975 C 1974.32 2.45197 3.86836 0
M  V30 19976 N 1975.81 2.43269 3.94176 0
M  V30 19977 C 1976.54 3.10843 4.81834 0
M  V30 19978 N 1976.04 3.87712 5.74153 0
M  V30 19979 N 1977.83 2.99979 4.75362 0
M  V30 19980 H 1969.98 1.84656 1.04957 0
M  V30 19981 H 1972.24 0.791479 0.52179 0
M  V30 19982 H 1971.95 2.5689 2.4021 0
M  V30 19983 H 1971.82 1.25414 3.5574 0
M  V30 19984 H 1974.21 0.504899 2.90749 0
M  V30 19985 H 1974.29 1.85262 1.76385 0
M  V30 19986 H 1973.94 3.48406 3.69562 0
M  V30 19987 H 1973.87 2.10844 4.82548 0
M  V30 19988 H 1976.36 1.87423 3.28148 0
M  V30 19989 H 1976.67 4.36317 6.37846 0
M  V30 19990 H 1975.02 3.91818 5.74024 0
M  V30 19991 H 1978.21 2.39437 4.02228 0
M  V30 19992 H 1978.38 3.52916 5.43465 0
M  V30 19993 N 1971.79 -1.4279 0.666995 0
M  V30 19994 C 1972.73 -2.30794 -0.0161644 0
M  V30 19995 C 1973.7 -1.45527 -0.800701 0
M  V30 19996 O 1974.89 -1.74372 -0.774527 0
M  V30 19997 C 1972.03 -3.31276 -0.966974 0
M  V30 19998 C 1971.14 -4.31637 -0.177086 0
M  V30 19999 C 1970.28 -5.19195 -1.12294 0
M  V30 20000 C 1969.31 -6.1124 -0.324284 0
M  V30 20001 N 1968.45 -6.91376 -1.22244 0
M  V30 20002 H 1973.29 -2.88662 0.74014 0
M  V30 20003 H 1970.83 -1.42194 0.376738 0
M  V30 20004 H 1972.79 -3.88054 -1.53198 0
M  V30 20005 H 1971.42 -2.75025 -1.69 0
M  V30 20006 H 1970.47 -3.77041 0.504428 0
M  V30 20007 H 1971.78 -4.96826 0.443328 0
M  V30 20008 H 1970.93 -5.80667 -1.75813 0
M  V30 20009 H 1969.67 -4.54164 -1.77725 0
M  V30 20010 H 1968.68 -5.48843 0.324174 0
M  V30 20011 H 1969.9 -6.78318 0.325818 0
M  V30 20012 H 1967.85 -6.28981 -1.86329 0
M  V30 20013 H 1967.77 -7.5314 -0.656918 0
M  V30 20014 H 1969.03 -7.57342 -1.84535 0
M  V30 20015 N 1973.26 -0.409806 -1.52179 0
M  V30 20016 C 1974.68 -0.0607174 -1.59484 0
M  V30 20017 C 1974.88 1.42703 -1.42261 0
M  V30 20018 O 1973.94 2.19394 -1.24991 0
M  V30 20019 C 1975.25 -0.556238 -2.95511 0
M  V30 20020 C 1976.8 -0.514272 -3.08746 0
M  V30 20021 C 1977.27 -0.986314 -4.47254 0
M  V30 20022 N 1978.76 -0.943162 -4.53496 0
M  V30 20023 C 1979.5 -1.27959 -5.5894 0
M  V30 20024 N 1978.99 -1.6875 -6.71934 0
M  V30 20025 N 1980.79 -1.19951 -5.49152 0
M  V30 20026 H 1972.94 -1.37813 -1.61621 0
M  V30 20027 H 1975.2 -0.566181 -0.760357 0
M  V30 20028 H 1974.91 -1.5961 -3.13397 0
M  V30 20029 H 1974.78 0.033749 -3.77185 0
M  V30 20030 H 1977.17 0.516546 -2.90544 0
M  V30 20031 H 1977.25 -1.14032 -2.28977 0
M  V30 20032 H 1976.89 -2.01546 -4.66199 0
M  V30 20033 H 1976.82 -0.337071 -5.2552 0
M  V30 20034 H 1979.31 -0.64326 -3.72385 0
M  V30 20035 H 1979.63 -1.9273 -7.48381 0
M  V30 20036 H 1977.97 -1.72654 -6.73213 0
M  V30 20037 H 1981.16 -0.879693 -4.5976 0
M  V30 20038 H 1981.34 -1.465 -6.31222 0
M  V30 20039 N 1974.74 1.56975 -0.14025 0
M  V30 20040 C 1976.15 1.82757 0.381688 0
M  V30 20041 C 1976.5 1.0586 1.65191 0
M  V30 20042 O 1975.63 0.301768 2.14286 0
M  V30 20043 C 1976.22 3.31505 0.699272 0
M  V30 20044 C 1974.78 3.57892 1.16576 0
M  V30 20045 C 1973.93 2.7668 0.185351 0
M  V30 20046 H 1976.88 1.54444 -0.365058 0
M  V30 20047 H 1976.9 3.47292 1.55462 0
M  V30 20048 H 1976.41 3.87445 -0.225394 0
M  V30 20049 H 1974.51 3.07332 2.1066 0
M  V30 20050 H 1974.63 4.66386 1.0964 0
M  V30 20051 H 1972.99 2.45548 0.676642 0
M  V30 20052 H 1973.77 3.35388 -0.732787 0
M  V30 20053 N 1976.22 -0.133539 1.57033 0
M  V30 20054 C 1977.44 -0.862393 1.8862 0
M  V30 20055 C 1977.87 -1.73328 0.730696 0
M  V30 20056 O 1977.23 -1.78466 -0.319297 0
M  V30 20057 C 1977.28 -1.68381 3.18873 0
M  V30 20058 O 1976.38 -2.78939 3.03755 0
M  V30 20059 H 1975.72 -0.239391 0.619345 0
M  V30 20060 H 1978.25 -0.120306 2.04246 0
M  V30 20061 H 1978.26 -2.07606 3.51232 0
M  V30 20062 H 1976.94 -1.0444 4.02573 0
M  V30 20063 H 1975.51 -2.43022 2.82833 0
M  V30 20064 N 1977.7 -1.52352 -0.403298 0
M  V30 20065 C 1978.61 -1.79011 -1.51631 0
M  V30 20066 C 1979.62 -0.676014 -1.60331 0
M  V30 20067 O 1980.8 -0.962058 -1.76936 0
M  V30 20068 C 1977.86 -1.94046 -2.8731 0
M  V30 20069 C 1976.93 -3.17955 -2.88449 0
M  V30 20070 C 1976.16 -3.32264 -4.17656 0
M  V30 20071 O 1976.38 -2.51703 -5.11861 0
M  V30 20072 O 1975.32 -4.25446 -4.25769 0
M  V30 20073 H 1979.14 -2.73495 -1.32038 0
M  V30 20074 H 1976.73 -1.37268 -0.589733 0
M  V30 20075 H 1978.61 -2.05724 -3.67771 0
M  V30 20076 H 1977.28 -1.02752 -3.06959 0
M  V30 20077 H 1976.19 -3.11731 -2.0682 0
M  V30 20078 H 1977.52 -4.0905 -2.7375 0
M  V30 20079 N 1979.18 0.660885 -1.43074 0
M  V30 20080 C 1980.11 1.78579 -1.50438 0
M  V30 20081 C 1981.09 1.66253 -0.359703 0
M  V30 20082 O 1982.27 1.85465 -0.575893 0
M  V30 20083 C 1979.4 3.16963 -1.41956 0
M  V30 20084 C 1978.36 3.44043 -2.54594 0
M  V30 20085 C 1977.68 4.82147 -2.31166 0
M  V30 20086 C 1978.98 3.3955 -3.96867 0
M  V30 20087 H 1980.68 1.72673 -2.4459 0
M  V30 20088 H 1978.22 0.829317 -1.17721 0
M  V30 20089 H 1980.17 3.95406 -1.45713 0
M  V30 20090 H 1978.9 3.23581 -0.443048 0
M  V30 20091 H 1977.56 2.67969 -2.50177 0
M  V30 20092 H 1977.21 4.85432 -1.31776 0
M  V30 20093 H 1976.91 5.01228 -3.06667 0
M  V30 20094 H 1978.43 5.62857 -2.36695 0
M  V30 20095 H 1979.84 4.0794 -4.02813 0
M  V30 20096 H 1978.24 3.70166 -4.72332 0
M  V30 20097 H 1979.31 2.37868 -4.22548 0
M  V30 20098 N 1980.65 1.29477 0.898527 0
M  V30 20099 C 1982.07 1.07514 1.17953 0
M  V30 20100 C 1982.27 -0.172814 2.00758 0
M  V30 20101 O 1981.33 -0.87025 2.37029 0
M  V30 20102 C 1982.64 2.33121 1.89934 0
M  V30 20103 C 1984.19 2.38452 2.02755 0
M  V30 20104 C 1984.66 3.63866 2.78146 0
M  V30 20105 N 1986.15 3.64595 2.857 0
M  V30 20106 C 1986.89 4.58319 3.44574 0
M  V30 20107 N 1986.38 5.62376 4.04605 0
M  V30 20108 N 1988.18 4.45887 3.42259 0
M  V30 20109 H 1980.33 2.09562 0.346076 0
M  V30 20110 H 1982.59 0.923108 0.215814 0
M  V30 20111 H 1982.3 3.2412 1.36526 0
M  V30 20112 H 1982.17 2.40721 2.90402 0
M  V30 20113 H 1984.56 1.47941 2.55338 0
M  V30 20114 H 1984.64 2.34837 1.01416 0
M  V30 20115 H 1984.28 4.54729 2.26239 0
M  V30 20116 H 1984.21 3.6474 3.79832 0
M  V30 20117 H 1986.7 2.89358 2.43064 0
M  V30 20118 H 1987.02 6.30012 4.47555 0
M  V30 20119 H 1985.36 5.66184 4.03064 0
M  V30 20120 H 1988.55 3.63786 2.9458 0
M  V30 20121 H 1988.73 5.19113 3.87848 0
M  V30 20122 N 1982.13 -1.10905 1.11972 0
M  V30 20123 C 1983.55 -1.3478 0.854776 0
M  V30 20124 C 1983.75 -1.94737 -0.517653 0
M  V30 20125 O 1982.8 -2.18391 -1.26734 0
M  V30 20126 C 1984.12 -2.27414 1.96732 0
M  V30 20127 C 1985.67 -2.40964 1.99764 0
M  V30 20128 C 1986.14 -3.36923 3.10237 0
M  V30 20129 N 1987.63 -3.44488 3.09648 0
M  V30 20130 C 1988.37 -4.18695 3.91768 0
M  V30 20131 N 1987.86 -4.95829 4.83865 0
M  V30 20132 N 1989.66 -4.14263 3.79924 0
M  V30 20133 H 1981.81 -0.703538 2.0041 0
M  V30 20134 H 1984.07 -0.372318 0.871828 0
M  V30 20135 H 1983.78 -1.90561 2.956 0
M  V30 20136 H 1983.65 -3.27681 1.86829 0
M  V30 20137 H 1986.04 -2.77089 1.01518 0
M  V30 20138 H 1986.12 -1.40529 2.13741 0
M  V30 20139 H 1985.76 -3.01524 4.08712 0
M  V30 20140 H 1985.69 -4.37225 2.93499 0
M  V30 20141 H 1988.18 -2.89475 2.42925 0
M  V30 20142 H 1988.5 -5.49836 5.43047 0
M  V30 20143 H 1986.84 -4.9497 4.87883 0
M  V30 20144 H 1990.03 -3.53095 3.07314 0
M  V30 20145 H 1990.2 -4.71837 4.44155 0
M  V30 20146 N 1983.61 -0.910886 -1.2861 0
M  V30 20147 C 1984.86 -0.53847 -1.94379 0
M  V30 20148 C 1985.17 0.92185 -1.72515 0
M  V30 20149 O 1986.38 1.40229 -2.32482 0
M  V30 20150 C 1984.83 -0.91216 -3.48149 0
M  V30 20151 C 1984.44 -2.39201 -3.78796 0
M  V30 20152 C 1986.19 -0.610192 -4.20092 0
M  V30 20153 C 1984.09 -2.70598 -5.25862 0
M  V30 20154 H 1983.02 -0.197657 -0.727632 0
M  V30 20155 H 1985.67 -1.10941 -1.46165 0
M  V30 20156 H 1984.06 -0.270034 -3.95078 0
M  V30 20157 H 1985.23 -3.08063 -3.42686 0
M  V30 20158 H 1983.55 -2.66414 -3.20019 0
M  V30 20159 H 1986.14 -0.821472 -5.28352 0
M  V30 20160 H 1986.49 0.451862 -4.1384 0
M  V30 20161 H 1987.02 -1.21066 -3.7893 0
M  V30 20162 H 1983.76 -3.75645 -5.37188 0
M  V30 20163 H 1983.28 -2.0637 -5.6318 0
M  V30 20164 H 1984.96 -2.57451 -5.93572 0
M  V30 20165 N 1985.09 1.42434 -0.674558 0
M  V30 20166 C 1986.05 2.29199 -0.00527063 0
M  V30 20167 C 1987.05 1.43313 0.729245 0
M  V30 20168 O 1988.24 1.64704 0.567284 0
M  V30 20169 C 1985.37 3.25805 1.0032 0
M  V30 20170 H 1986.57 2.89874 -0.768954 0
M  V30 20171 H 1984.12 1.5007 -0.436898 0
M  V30 20172 H 1984.85 2.70068 1.79538 0
M  V30 20173 H 1984.64 3.89152 0.479902 0
M  V30 20174 H 1986.13 3.90875 1.46993 0
M  V30 20175 N 1986.57 0.417871 1.51959 0
M  V30 20176 C 1987.79 -0.156736 2.06807 0
M  V30 20177 C 1988.22 -1.37354 1.28512 0
M  V30 20178 O 1987.57 -1.78494 0.317715 0
M  V30 20179 C 1987.62 -0.476913 3.57432 0
M  V30 20180 O 1986.73 -1.56654 3.81488 0
M  V30 20181 H 1986.07 -0.0103873 0.663919 0
M  V30 20182 H 1988.6 0.593593 1.958 0
M  V30 20183 H 1988.61 -0.733026 4.01361 0
M  V30 20184 H 1987.28 0.412542 4.13849 0
M  V30 20185 H 1985.86 -1.30191 3.49435 0
M  V30 20186 N 1988.04 -1.56898 0.148573 0
M  V30 20187 C 1988.98 -2.13971 -0.821526 0
M  V30 20188 C 1989.99 -1.08955 -1.20965 0
M  V30 20189 O 1991.18 -1.36226 -1.15346 0
M  V30 20190 C 1988.28 -2.6488 -2.11404 0
M  V30 20191 C 1987.45 -3.94313 -1.89303 0
M  V30 20192 C 1986.51 -4.30517 -3.02558 0
M  V30 20193 O 1985.54 -4.98812 -2.74181 0
M  V30 20194 N 1986.74 -3.90226 -4.29772 0
M  V30 20195 H 1989.5 -2.97836 -0.333735 0
M  V30 20196 H 1987.06 -1.61862 -0.0349479 0
M  V30 20197 H 1989.06 -2.86112 -2.8622 0
M  V30 20198 H 1987.63 -1.85731 -2.51441 0
M  V30 20199 H 1986.85 -3.81692 -0.985147 0
M  V30 20200 H 1988.13 -4.7889 -1.71877 0
M  V30 20201 H 1987.53 -3.352 -4.55694 0
M  V30 20202 H 1986.09 -4.16506 -5.01364 0
M  V30 20203 N 1989.52 0.125209 -1.57102 0
M  V30 20204 C 1990.77 0.835321 -1.84798 0
M  V30 20205 C 1991.1 1.79819 -0.73341 0
M  V30 20206 O 1990.38 1.92737 0.261268 0
M  V30 20207 C 1990.66 1.59069 -3.23062 0
M  V30 20208 C 1990.51 0.647841 -4.4511 0
M  V30 20209 C 1991.83 2.54829 -3.58818 0
M  V30 20210 H 1988.95 0.302222 -0.672184 0
M  V30 20211 H 1991.59 0.0997638 -1.89738 0
M  V30 20212 H 1989.74 2.21772 -3.18982 0
M  V30 20213 H 1991.41 0.0301293 -4.6129 0
M  V30 20214 H 1989.66 -0.041074 -4.33781 0
M  V30 20215 H 1990.33 1.21288 -5.3851 0
M  V30 20216 H 1992.8 2.02233 -3.63649 0
M  V30 20217 H 1991.68 3.04716 -4.56551 0
M  V30 20218 H 1991.94 3.37205 -2.85911 0
M  V30 20219 N 1991 1.52564 0.395213 0
M  V30 20220 C 1991.95 1.769 1.48239 0
M  V30 20221 C 1992.92 0.611965 1.54416 0
M  V30 20222 O 1994.1 0.851019 1.7077 0
M  V30 20223 C 1991.24 1.93809 2.85538 0
M  V30 20224 C 1990.36 3.2149 2.88562 0
M  V30 20225 C 1989.49 3.28751 4.17248 0
M  V30 20226 C 1988.53 4.5058 4.143 0
M  V30 20227 N 1987.67 4.55156 5.34581 0
M  V30 20228 H 1992.51 2.69683 1.26788 0
M  V30 20229 H 1990.04 1.33618 0.615189 0
M  V30 20230 H 1992 2.01597 3.6526 0
M  V30 20231 H 1990.63 1.04394 3.05453 0
M  V30 20232 H 1989.68 3.22805 2.01249 0
M  V30 20233 H 1991 4.11262 2.82251 0
M  V30 20234 H 1990.15 3.35687 5.0537 0
M  V30 20235 H 1988.89 2.36943 4.26274 0
M  V30 20236 H 1987.89 4.43775 3.24567 0
M  V30 20237 H 1989.12 5.43698 4.06902 0
M  V30 20238 H 1987.06 3.66237 5.44248 0
M  V30 20239 H 1986.98 5.38791 5.30321 0
M  V30 20240 H 1988.25 4.6634 6.24618 0
M  V30 20241 N 1992.48 -0.653289 1.43422 0
M  V30 20242 C 1993.71 -1.43884 1.4826 0
M  V30 20243 C 1994.12 -1.88941 0.099053 0
M  V30 20244 O 1993.46 -1.60087 -0.900983 0
M  V30 20245 C 1993.52 -2.70658 2.3661 0
M  V30 20246 C 1993.19 -2.47542 3.84151 0
M  V30 20247 C 1994.18 -2.10769 4.75261 0
M  V30 20248 C 1991.87 -2.61868 4.28638 0
M  V30 20249 C 1993.86 -1.8862 6.08853 0
M  V30 20250 C 1991.55 -2.39334 5.62283 0
M  V30 20251 C 1992.55 -2.02766 6.52208 0
M  V30 20252 O 1992.23 -1.80467 7.83382 0
M  V30 20253 H 1991.97 -0.448491 0.505798 0
M  V30 20254 H 1994.52 -0.808217 1.88831 0
M  V30 20255 H 1992.75 -3.3628 1.90927 0
M  V30 20256 H 1994.44 -3.32607 2.32652 0
M  V30 20257 H 1995.21 -1.99277 4.42169 0
M  V30 20258 H 1991.08 -2.89306 3.58919 0
M  V30 20259 H 1994.63 -1.60001 6.79003 0
M  V30 20260 H 1990.53 -2.50429 5.94942 0
M  V30 20261 H 1991.29 -1.94893 7.94959 0
M  V30 20262 N 1993.96 -1.29952 -0.891648 0
M  V30 20263 C 1994.92 -1.15756 -1.97821 0
M  V30 20264 C 1995.92 -0.0906975 -1.60544 0
M  V30 20265 O 1997.11 -0.338283 -1.70884 0
M  V30 20266 C 1994.24 -0.771976 -3.32044 0
M  V30 20267 H 1995.43 -2.12281 -2.11842 0
M  V30 20268 H 1992.99 -1.13253 -1.07719 0
M  V30 20269 H 1993.72 0.193059 -3.23725 0
M  V30 20270 H 1993.51 -1.54291 -3.60467 0
M  V30 20271 H 1995 -0.695941 -4.1176 0
M  V30 20272 N 1995.44 1.1031 -1.12559 0
M  V30 20273 C 1996.68 1.81937 -0.879957 0
M  V30 20274 C 1997 1.85675 0.595811 0
M  V30 20275 O 1996.27 1.33574 1.433 0
M  V30 20276 H 1994.85 0.67377 -0.322556 0
M  V30 20277 H 1997.52 1.33464 -1.42033 0
M  V30 20278 H 1996.61 2.8542 -1.26261 0
M  V30 20279 N 1996.91 0.917694 1.28125 0
M  V30 20280 C 1998.14 0.56827 1.99463 0
M  V30 20281 C 1998.56 -0.844246 1.6809 0
M  V30 20282 O 1997.92 -1.56487 0.915504 0
M  V30 20283 C 1997.97 0.788859 3.51866 0
M  V30 20284 O 1997.07 -0.150301 4.12126 0
M  V30 20285 H 1996.41 0.219899 0.626531 0
M  V30 20286 H 1998.94 1.23421 1.63182 0
M  V30 20287 H 1998.95 0.700502 4.01942 0
M  V30 20288 H 1997.63 1.81855 3.74034 0
M  V30 20289 H 1996.21 -0.012878 3.72898 0
M  V30 20290 N 1998.39 -1.42074 0.682102 0
M  V30 20291 C 1999.32 -2.29179 -0.0307054 0
M  V30 20292 C 2000.34 -1.44071 -0.758119 0
M  V30 20293 O 2001.53 -1.67715 -0.611062 0
M  V30 20294 C 1998.63 -3.21654 -1.06734 0
M  V30 20295 C 1997.8 -4.35453 -0.41228 0
M  V30 20296 C 1996.86 -5.08596 -1.34969 0
M  V30 20297 O 1995.88 -5.6286 -0.847209 0
M  V30 20298 N 1997.09 -5.14794 -2.68267 0
M  V30 20299 H 1999.85 -2.90995 0.71706 0
M  V30 20300 H 1997.41 -1.5308 0.52708 0
M  V30 20301 H 1999.4 -3.67453 -1.69589 0
M  V30 20302 H 1997.97 -2.61239 -1.71677 0
M  V30 20303 H 1997.19 -3.92207 0.395908 0
M  V30 20304 H 1998.48 -5.08781 0.0437707 0
M  V30 20305 H 1997.88 -4.72131 -3.11623 0
M  V30 20306 H 1996.44 -5.64215 -3.26351 0
M  V30 20307 N 1999.87 -0.425924 -1.51735 0
M  V30 20308 C 2001.12 0.144557 -2.02284 0
M  V30 20309 C 2001.45 1.43351 -1.31012 0
M  V30 20310 O 2000.72 1.89877 -0.421524 0
M  V30 20311 C 2001.01 0.37505 -3.58142 0
M  V30 20312 C 2000.86 -0.931753 -4.40044 0
M  V30 20313 C 2002.18 1.14986 -4.24813 0
M  V30 20314 H 1999.3 0.0510632 -0.735229 0
M  V30 20315 H 2001.94 -0.562685 -1.81477 0
M  V30 20316 H 2000.09 0.977495 -3.76002 0
M  V30 20317 H 2001.76 -1.5673 -4.33859 0
M  V30 20318 H 2000 -1.53896 -4.05584 0
M  V30 20319 H 2000.68 -0.724661 -5.47223 0
M  V30 20320 H 2003.15 0.639666 -4.11154 0
M  V30 20321 H 2002.03 1.27989 -5.3377 0
M  V30 20322 H 2002.29 2.17496 -3.849 0
M  V30 20323 N 2001.35 1.56817 -0.156891 0
M  V30 20324 C 2002.31 2.16058 0.764967 0
M  V30 20325 C 2003.31 1.10488 1.16829 0
M  V30 20326 O 2004.5 1.36077 1.0876 0
M  V30 20327 C 2001.63 2.73173 2.03935 0
M  V30 20328 H 2002.83 2.98861 0.249482 0
M  V30 20329 H 2000.38 1.56025 0.0926074 0
M  V30 20330 H 2001.11 1.94064 2.59827 0
M  V30 20331 H 2000.9 3.50417 1.75926 0
M  V30 20332 H 2002.39 3.18783 2.69754 0
M  V30 20333 N 2002.83 -0.116876 1.57166 0
M  V30 20334 C 2004.05 -0.842338 1.89524 0
M  V30 20335 C 2004.48 -1.72543 0.749039 0
M  V30 20336 O 2003.83 -1.78795 -0.30035 0
M  V30 20337 C 2003.88 -1.64989 3.20641 0
M  V30 20338 O 2002.99 -2.75701 3.06696 0
M  V30 20339 H 2002.33 -0.232809 0.621849 0
M  V30 20340 H 2004.86 -0.0986366 2.04362 0
M  V30 20341 H 2004.87 -2.03869 3.53414 0
M  V30 20342 H 2003.54 -1.00164 4.03658 0
M  V30 20343 H 2002.12 -2.40009 2.85395 0
M  V30 20344 N 2004.3 -1.52772 -0.387116 0
M  V30 20345 C 2005.53 -1.71787 -1.15312 0
M  V30 20346 C 2005.95 -0.437082 -1.83671 0
M  V30 20347 O 2005.3 0.588573 -1.72749 0
M  V30 20348 C 2005.35 -2.86869 -2.19974 0
M  V30 20349 O 2005.08 -4.0999 -1.54402 0
M  V30 20350 C 2006.58 -3.17579 -3.09287 0
M  V30 20351 H 2003.8 -0.575118 -0.345659 0
M  V30 20352 H 2006.34 -1.99428 -0.452607 0
M  V30 20353 H 2004.5 -2.61684 -2.85658 0
M  V30 20354 H 2004.91 -4.7428 -2.23961 0
M  V30 20355 H 2006.38 -4.01562 -3.7875 0
M  V30 20356 H 2006.86 -2.3204 -3.729 0
M  V30 20357 H 2007.47 -3.44611 -2.49246 0
M  V30 20358 N 2005.78 0.645673 -1.43767 0
M  V30 20359 C 2007.01 1.43799 -1.49454 0
M  V30 20360 C 2007.43 1.87742 -0.115948 0
M  V30 20361 O 2006.79 1.57845 0.891891 0
M  V30 20362 C 2006.84 2.64416 -2.45186 0
M  V30 20363 O 2005.94 3.63742 -1.94334 0
M  V30 20364 H 2005.28 0.430858 -0.50523 0
M  V30 20365 H 2007.81 0.789424 -1.88757 0
M  V30 20366 H 2007.82 3.12139 -2.62741 0
M  V30 20367 H 2006.5 2.31776 -3.4533 0
M  V30 20368 H 2005.07 3.22926 -1.86476 0
M  V30 20369 N 2007.26 1.30423 0.884744 0
M  V30 20370 C 2008.17 1.18747 2.02327 0
M  V30 20371 C 2009.19 0.107354 1.73669 0
M  V30 20372 O 2010.36 0.322332 1.98804 0
M  V30 20373 C 2007.43 0.880361 3.35336 0
M  V30 20374 C 2006.49 2.04587 3.77416 0
M  V30 20375 C 2005.72 1.75332 5.04078 0
M  V30 20376 O 2005.94 0.68135 5.66316 0
M  V30 20377 O 2004.88 2.60579 5.4257 0
M  V30 20378 H 2008.7 2.14391 2.15105 0
M  V30 20379 H 2006.29 1.10019 1.01076 0
M  V30 20380 H 2008.17 0.7243 4.15129 0
M  V30 20381 H 2006.85 -0.0461673 3.23667 0
M  V30 20382 H 2005.75 2.25726 2.98326 0
M  V30 20383 H 2007.09 2.95413 3.9369 0
M  V30 20384 N 2008.74 -1.09711 1.13142 0
M  V30 20385 C 2009.98 -1.82097 0.892675 0
M  V30 20386 C 2010.32 -1.85341 -0.579846 0
M  V30 20387 O 2009.59 -1.3195 -1.42897 0
M  V30 20388 C 2009.87 -3.28392 1.47752 0
M  V30 20389 C 2009.73 -3.33436 3.01895 0
M  V30 20390 C 2011.05 -4.24991 1.14329 0
M  V30 20391 H 2008.17 -0.661111 0.325732 0
M  V30 20392 H 2010.81 -1.28535 1.39924 0
M  V30 20393 H 2008.96 -3.74134 1.04671 0
M  V30 20394 H 2010.63 -2.96119 3.53711 0
M  V30 20395 H 2008.87 -2.73109 3.37037 0
M  V30 20396 H 2009.54 -4.36484 3.37914 0
M  V30 20397 H 2012.02 -3.8752 1.51551 0
M  V30 20398 H 2010.9 -5.25698 1.57902 0
M  V30 20399 H 2011.16 -4.42064 0.0565583 0
M  V30 20400 N 2010.22 -0.924476 -1.27637 0
M  V30 20401 C 2011.15 -0.438348 -2.29349 0
M  V30 20402 C 2012.13 0.499673 -1.62595 0
M  V30 20403 O 2013.31 0.405114 -1.89928 0
M  V30 20404 C 2010.44 0.312668 -3.4589 0
M  V30 20405 C 2009.4 -0.537216 -4.24615 0
M  V30 20406 C 2008.72 0.342776 -5.336 0
M  V30 20407 C 2010.02 -1.80003 -4.90302 0
M  V30 20408 H 2011.72 -1.28838 -2.70261 0
M  V30 20409 H 2009.26 -0.620964 -1.29923 0
M  V30 20410 H 2011.22 0.66367 -4.16141 0
M  V30 20411 H 2009.94 1.1967 -3.03886 0
M  V30 20412 H 2008.6 -0.870883 -3.56106 0
M  V30 20413 H 2008.25 1.22567 -4.87838 0
M  V30 20414 H 2007.95 -0.222352 -5.87179 0
M  V30 20415 H 2009.47 0.689422 -6.06695 0
M  V30 20416 H 2010.88 -1.51729 -5.52857 0
M  V30 20417 H 2009.28 -2.3084 -5.53925 0
M  V30 20418 H 2010.35 -2.52148 -4.14186 0
M  V30 20419 N 2011.69 1.41711 -0.689627 0
M  V30 20420 C 2012.64 2.30791 -0.020555 0
M  V30 20421 C 2013.61 1.46782 0.777447 0
M  V30 20422 O 2014.8 1.75582 0.746688 0
M  V30 20423 C 2011.94 3.32772 0.914149 0
M  V30 20424 C 2011.05 4.31864 0.108394 0
M  V30 20425 C 2010.18 5.20916 1.0402 0
M  V30 20426 C 2009.22 6.11679 0.227 0
M  V30 20427 N 2008.36 6.93233 1.11229 0
M  V30 20428 H 2013.2 2.87448 -0.78597 0
M  V30 20429 H 2010.74 1.41576 -0.399313 0
M  V30 20430 H 2012.7 3.90442 1.47005 0
M  V30 20431 H 2011.33 2.77679 1.64603 0
M  V30 20432 H 2010.38 3.7619 -0.564348 0
M  V30 20433 H 2011.69 4.96058 -0.522312 0
M  V30 20434 H 2010.84 5.83391 1.66553 0
M  V30 20435 H 2009.58 4.56934 1.70477 0
M  V30 20436 H 2008.59 5.48258 -0.411449 0
M  V30 20437 H 2009.81 6.77714 -0.433691 0
M  V30 20438 H 2007.76 6.31866 1.76299 0
M  V30 20439 H 2007.68 7.5409 0.537017 0
M  V30 20440 H 2008.94 7.60182 1.72463 0
M  V30 20441 N 2013.17 0.433965 1.51507 0
M  V30 20442 C 2014.4 -0.132211 2.06177 0
M  V30 20443 C 2014.81 -1.37301 1.30174 0
M  V30 20444 O 2014.15 -1.80262 0.353712 0
M  V30 20445 C 2014.22 -0.523141 3.55673 0
M  V30 20446 C 2013.88 0.610379 4.52905 0
M  V30 20447 C 2014.88 1.4815 4.98345 0
M  V30 20448 C 2012.56 0.79015 4.96046 0
M  V30 20449 C 2014.56 2.51711 5.85594 0
M  V30 20450 C 2012.24 1.82904 5.83086 0
M  V30 20451 C 2013.24 2.69091 6.27757 0
M  V30 20452 O 2012.93 3.71197 7.13069 0
M  V30 20453 H 2012.66 -0.0128686 0.675878 0
M  V30 20454 H 2015.21 0.610848 1.96107 0
M  V30 20455 H 2013.44 -1.31885 3.63515 0
M  V30 20456 H 2015.13 -1.02008 3.92873 0
M  V30 20457 H 2015.9 1.35413 4.65713 0
M  V30 20458 H 2011.78 0.12889 4.6082 0
M  V30 20459 H 2015.32 3.19016 6.20383 0
M  V30 20460 H 2011.22 1.95662 6.15131 0
M  V30 20461 H 2011.99 3.67738 7.31239 0
M  V30 20462 N 2014.65 -1.56732 0.165206 0
M  V30 20463 C 2015.88 -2.01069 -0.487749 0
M  V30 20464 C 2016.29 -1.04541 -1.57215 0
M  V30 20465 O 2015.65 -0.0452829 -1.82444 0
M  V30 20466 C 2015.7 -3.45249 -1.07169 0
M  V30 20467 O 2015.42 -4.38089 -0.0305845 0
M  V30 20468 C 2016.92 -4.04956 -1.80348 0
M  V30 20469 H 2014.14 -0.659179 -0.125394 0
M  V30 20470 H 2016.69 -2.02774 0.26514 0
M  V30 20471 H 2014.84 -3.44338 -1.77511 0
M  V30 20472 H 2015.26 -5.22471 -0.460866 0
M  V30 20473 H 2016.73 -5.07783 -2.16474 0
M  V30 20474 H 2017.21 -3.467 -2.69621 0
M  V30 20475 H 2017.81 -4.09552 -1.14662 0
M  V30 20476 N 2016.13 0.10854 -1.57226 0
M  V30 20477 C 2017.06 1.13362 -2.04135 0
M  V30 20478 C 2018.04 1.42573 -0.927733 0
M  V30 20479 O 2019.22 1.52835 -1.19813 0
M  V30 20480 C 2016.35 2.45708 -2.45449 0
M  V30 20481 C 2015.31 2.30935 -3.60351 0
M  V30 20482 C 2014.63 3.68337 -3.87597 0
M  V30 20483 C 2015.93 1.76112 -4.91713 0
M  V30 20484 H 2017.63 0.74341 -2.90024 0
M  V30 20485 H 2015.17 0.356157 -1.39526 0
M  V30 20486 H 2017.13 3.17679 -2.76872 0
M  V30 20487 H 2015.85 2.86639 -1.56544 0
M  V30 20488 H 2014.51 1.61411 -3.29153 0
M  V30 20489 H 2014.16 4.06772 -2.95881 0
M  V30 20490 H 2013.86 3.59303 -4.64946 0
M  V30 20491 H 2015.38 4.41797 -4.21483 0
M  V30 20492 H 2016.8 2.3791 -5.21605 0
M  V30 20493 H 2015.19 1.77872 -5.73133 0
M  V30 20494 H 2016.26 0.71947 -4.79533 0
M  V30 20495 N 2017.61 1.52975 0.379009 0
M  V30 20496 C 2018.85 1.68505 1.12304 0
M  V30 20497 C 2019.18 0.430012 1.89687 0
M  V30 20498 O 2018.44 -0.587809 1.86664 0
M  V30 20499 C 2018.74 2.8776 2.11964 0
M  V30 20500 C 2018.4 4.24806 1.51163 0
M  V30 20501 C 2017.06 4.62077 1.34308 0
M  V30 20502 C 2019.42 5.10087 1.07053 0
M  V30 20503 C 2016.74 5.82277 0.719058 0
M  V30 20504 C 2019.1 6.30921 0.460559 0
M  V30 20505 C 2017.76 6.66915 0.279391 0
M  V30 20506 H 2017.03 0.616604 0.41095 0
M  V30 20507 H 2019.68 1.87137 0.406443 0
M  V30 20508 H 2017.98 2.63586 2.89879 0
M  V30 20509 H 2019.68 2.96971 2.69461 0
M  V30 20510 H 2016.27 3.95453 1.65272 0
M  V30 20511 H 2020.45 4.81854 1.18872 0
M  V30 20512 H 2015.71 6.08765 0.566983 0
M  V30 20513 H 2019.88 6.96312 0.110504 0
M  V30 20514 H 2017.51 7.5992 -0.206228 0
M  V30 20515 N 2019.08 -0.63804 1.44107 0
M  V30 20516 C 2020.02 -1.76333 1.46421 0
M  V30 20517 C 2021.03 -1.58805 0.358429 0
M  V30 20518 O 2022.22 -1.67246 0.623768 0
M  V30 20519 C 2019.32 -3.13967 1.27586 0
M  V30 20520 C 2018.49 -3.58016 2.51283 0
M  V30 20521 C 2017.55 -4.74503 2.27449 0
M  V30 20522 O 2016.58 -4.83167 3.00895 0
M  V30 20523 N 2017.78 -5.6574 1.3007 0
M  V30 20524 H 2020.54 -1.74822 2.43429 0
M  V30 20525 H 2018.1 -0.822384 1.39458 0
M  V30 20526 H 2020.1 -3.89605 1.09499 0
M  V30 20527 H 2018.67 -3.10162 0.389684 0
M  V30 20528 H 2017.89 -2.7266 2.84693 0
M  V30 20529 H 2019.17 -3.84197 3.33572 0
M  V30 20530 H 2018.57 -5.61427 0.693968 0
M  V30 20531 H 2017.13 -6.41037 1.17964 0
M  V30 20532 N 2020.56 -1.3089 -0.877815 0
M  V30 20533 C 2021.81 -1.19488 -1.62498 0
M  V30 20534 C 2022.12 0.247666 -1.94026 0
M  V30 20535 O 2023.33 0.483286 -2.67164 0
M  V30 20536 C 2021.79 -2.09126 -2.92906 0
M  V30 20537 C 2021.39 -3.58331 -2.68891 0
M  V30 20538 C 2023.14 -2.06505 -3.70885 0
M  V30 20539 C 2021.05 -4.40003 -3.9516 0
M  V30 20540 H 2019.98 -0.44363 -0.609679 0
M  V30 20541 H 2022.63 -1.5569 -0.971235 0
M  V30 20542 H 2021.01 -1.65815 -3.59613 0
M  V30 20543 H 2022.18 -4.09838 -2.10642 0
M  V30 20544 H 2020.5 -3.62849 -2.04278 0
M  V30 20545 H 2023.09 -2.64772 -4.64543 0
M  V30 20546 H 2023.44 -1.05026 -4.02834 0
M  V30 20547 H 2023.97 -2.47975 -3.11052 0
M  V30 20548 H 2020.71 -5.42205 -3.68366 0
M  V30 20549 H 2020.23 -3.93258 -4.52889 0
M  V30 20550 H 2021.91 -4.5181 -4.63117 0
M  V30 20551 N 2022.04 1.0911 -1.13723 0
M  V30 20552 C 2023.29 1.81352 -0.900984 0
M  V30 20553 C 2023.62 1.85876 0.572749 0
M  V30 20554 O 2022.87 1.3252 1.44003 0
M  V30 20555 C 2023.17 3.27193 -1.43805 0
M  V30 20556 C 2022.84 3.42797 -2.92918 0
M  V30 20557 C 2021.5 3.46763 -3.33629 0
M  V30 20558 C 2023.85 3.47067 -3.88837 0
M  V30 20559 C 2021.18 3.52582 -4.68938 0
M  V30 20560 C 2023.53 3.5442 -5.23993 0
M  V30 20561 C 2022.19 3.56657 -5.64227 0
M  V30 20562 H 2021.46 0.663614 -0.329694 0
M  V30 20563 H 2024.11 1.28517 -1.41971 0
M  V30 20564 H 2022.42 3.82687 -0.840093 0
M  V30 20565 H 2024.11 3.81628 -1.23129 0
M  V30 20566 H 2020.7 3.40397 -2.60438 0
M  V30 20567 H 2024.89 3.4324 -3.58469 0
M  V30 20568 H 2020.14 3.52602 -4.99481 0
M  V30 20569 H 2024.32 3.56669 -5.9813 0
M  V30 20570 H 2021.94 3.60918 -6.69061 0
M  V30 20571 N 2023.52 0.931232 1.27145 0
M  V30 20572 C 2024.74 0.589393 1.98849 0
M  V30 20573 C 2025.17 -0.82637 1.68976 0
M  V30 20574 O 2024.53 -1.55507 0.93205 0
M  V30 20575 C 2024.57 0.826135 3.51009 0
M  V30 20576 O 2023.68 -0.106581 4.12262 0
M  V30 20577 H 2023.02 0.226532 0.624163 0
M  V30 20578 H 2025.55 1.25145 1.61864 0
M  V30 20579 H 2025.56 0.743094 4.01176 0
M  V30 20580 H 2024.23 1.85812 3.72084 0
M  V30 20581 H 2022.81 0.0266735 3.7289 0
M  V30 20582 N 2025 -1.41343 0.697132 0
M  V30 20583 C 2025.94 -2.30777 0.0327941 0
M  V30 20584 C 2026.91 -1.47192 -0.769652 0
M  V30 20585 O 2028.1 -1.75976 -0.737366 0
M  V30 20586 C 2025.24 -3.33252 -0.896488 0
M  V30 20587 C 2024.35 -4.31915 -0.0854899 0
M  V30 20588 C 2023.49 -5.2146 -1.01256 0
M  V30 20589 C 2022.53 -6.11791 -0.194558 0
M  V30 20590 N 2021.66 -6.93813 -1.07551 0
M  V30 20591 H 2026.5 -2.87027 0.801203 0
M  V30 20592 H 2024.04 -1.41363 0.406815 0
M  V30 20593 H 2026 -3.91216 -1.44933 0
M  V30 20594 H 2024.63 -2.78548 -1.63128 0
M  V30 20595 H 2023.68 -3.75886 0.58429 0
M  V30 20596 H 2024.99 -4.95774 0.548612 0
M  V30 20597 H 2024.15 -5.84266 -1.63457 0
M  V30 20598 H 2022.89 -4.57832 -1.68051 0
M  V30 20599 H 2021.89 -5.48032 0.440518 0
M  V30 20600 H 2023.12 -6.77474 0.469626 0
M  V30 20601 H 2021.06 -6.32792 -1.72946 0
M  V30 20602 H 2020.98 -7.54364 -0.497018 0
M  V30 20603 H 2022.25 -7.61086 -1.68429 0
M  V30 20604 N 2026.48 -0.441993 -1.51275 0
M  V30 20605 C 2027.72 0.124439 -2.01316 0
M  V30 20606 C 2028.04 1.43376 -1.33051 0
M  V30 20607 O 2029.24 2.08342 -1.74086 0
M  V30 20608 C 2027.7 0.272307 -3.58868 0
M  V30 20609 C 2027.31 -1.02686 -4.36073 0
M  V30 20610 C 2029.05 0.792259 -4.17041 0
M  V30 20611 C 2026.96 -0.844378 -5.85341 0
M  V30 20612 H 2025.89 0.0502803 -0.752322 0
M  V30 20613 H 2028.54 -0.572465 -1.74342 0
M  V30 20614 H 2026.92 1.03232 -3.82308 0
M  V30 20615 H 2028.1 -1.79557 -4.24377 0
M  V30 20616 H 2026.41 -1.4757 -3.89374 0
M  V30 20617 H 2029.01 0.94535 -5.26277 0
M  V30 20618 H 2029.35 1.77595 -3.76518 0
M  V30 20619 H 2029.88 0.0904292 -3.97697 0
M  V30 20620 H 2026.62 -1.80058 -6.30285 0
M  V30 20621 H 2026.14 -0.115549 -5.99689 0
M  V30 20622 H 2027.82 -0.499412 -6.4507 0
M  V30 20623 N 2027.95 1.56642 -0.173515 0
M  V30 20624 C 2029.23 1.88634 0.517348 0
M  V30 20625 C 2029.61 1.08374 1.81158 0
M  V30 20626 O 2028.96 0.178319 2.27803 0
M  V30 20627 C 2029.17 3.40689 0.757118 0
M  V30 20628 C 2030.52 4.10473 1.08614 0
M  V30 20629 O 2031.54 3.46018 0.845582 0
M  V30 20630 O 2030.4 5.24351 1.54008 0
M  V30 20631 H 2027.49 0.782731 0.266949 0
M  V30 20632 H 2030.04 1.68369 -0.212115 0
M  V30 20633 H 2028.81 3.90982 -0.157737 0
M  V30 20634 H 2028.43 3.66572 1.53982 0
M  V30 20635 N 2029.43 -0.1002 1.57281 0
M  V30 20636 C 2030.85 -0.454271 1.52998 0
M  V30 20637 C 2031.05 -1.80807 0.889451 0
M  V30 20638 O 2030.1 -2.479 0.479781 0
M  V30 20639 C 2031.42 -0.421457 2.97732 0
M  V30 20640 C 2032.96 -0.503676 3.08921 0
M  V30 20641 C 2033.44 -0.501062 4.55251 0
M  V30 20642 N 2034.93 -0.561964 4.59778 0
M  V30 20643 C 2035.67 -0.581696 5.70442 0
M  V30 20644 N 2035.16 -0.557942 6.9055 0
M  V30 20645 N 2036.95 -0.626123 5.58602 0
M  V30 20646 H 2029.11 0.786609 1.97297 0
M  V30 20647 H 2031.37 0.292244 0.90183 0
M  V30 20648 H 2031.07 0.506016 3.48041 0
M  V30 20649 H 2030.95 -1.24233 3.56154 0
M  V30 20650 H 2033.34 -1.42157 2.58603 0
M  V30 20651 H 2033.42 0.345241 2.5346 0
M  V30 20652 H 2033.06 0.412865 5.06219 0
M  V30 20653 H 2032.99 -1.36712 5.08544 0
M  V30 20654 H 2035.48 -0.585723 3.73333 0
M  V30 20655 H 2035.79 -0.576141 7.70649 0
M  V30 20656 H 2034.14 -0.52507 6.93014 0
M  V30 20657 H 2037.33 -0.642175 4.63674 0
M  V30 20658 H 2037.5 -0.638033 6.44851 0
M  V30 20659 N 2030.91 -1.53174 -0.370891 0
M  V30 20660 C 2032.32 -1.60843 -0.94796 0
M  V30 20661 C 2032.67 -0.472528 -1.90425 0
M  V30 20662 O 2031.8 0.401822 -2.12637 0
M  V30 20663 C 2032.39 -2.91534 -1.72607 0
M  V30 20664 C 2030.95 -3.01557 -2.25257 0
M  V30 20665 C 2030.1 -2.561 -1.0634 0
M  V30 20666 H 2033.05 -1.57991 -0.149852 0
M  V30 20667 H 2033.07 -2.79038 -2.58685 0
M  V30 20668 H 2032.58 -3.74188 -1.02982 0
M  V30 20669 H 2030.68 -2.23479 -2.9814 0
M  V30 20670 H 2030.8 -4.06538 -2.53502 0
M  V30 20671 H 2029.16 -2.10849 -1.42881 0
M  V30 20672 H 2029.94 -3.41166 -0.38221 0
M  V30 20673 N 2032.39 0.630389 -1.44443 0
M  V30 20674 C 2033.3 1.77101 -1.53859 0
M  V30 20675 C 2034.31 1.68749 -0.424221 0
M  V30 20676 O 2035.49 1.89513 -0.681673 0
M  V30 20677 C 2032.55 3.13487 -1.48077 0
M  V30 20678 C 2031.62 3.33464 -2.7037 0
M  V30 20679 C 2030.85 4.63344 -2.64855 0
M  V30 20680 O 2031.07 5.44196 -1.70899 0
M  V30 20681 O 2030.01 4.85539 -3.55718 0
M  V30 20682 H 2033.83 1.7211 -2.50223 0
M  V30 20683 H 2031.42 0.791704 -1.26698 0
M  V30 20684 H 2033.3 3.94788 -1.47378 0
M  V30 20685 H 2031.97 3.19018 -0.54856 0
M  V30 20686 H 2030.88 2.51839 -2.76637 0
M  V30 20687 H 2032.21 3.32795 -3.6264 0
M  V30 20688 N 2033.87 1.31354 0.870861 0
M  V30 20689 C 2034.83 1.18889 1.95954 0
M  V30 20690 C 2035.83 0.116227 1.60379 0
M  V30 20691 O 2037.02 0.365426 1.70324 0
M  V30 20692 C 2034.15 0.824704 3.30774 0
M  V30 20693 H 2035.34 2.15624 2.08438 0
M  V30 20694 H 2032.9 1.14952 1.05904 0
M  V30 20695 H 2033.63 -0.141533 3.23991 0
M  V30 20696 H 2033.42 1.60006 3.57967 0
M  V30 20697 H 2034.91 0.761361 4.10601 0
M  V30 20698 N 2035.34 -1.08505 1.143 0
M  V30 20699 C 2036.57 -1.85155 0.934475 0
M  V30 20700 C 2036.99 -1.81002 -0.511866 0
M  V30 20701 O 2036.35 -1.19437 -1.36398 0
M  V30 20702 C 2036.4 -3.30656 1.43871 0
M  V30 20703 O 2035.5 -4.07557 0.630143 0
M  V30 20704 H 2034.84 -0.573775 0.334183 0
M  V30 20705 H 2037.37 -1.36959 1.51998 0
M  V30 20706 H 2037.38 -3.815 1.44644 0
M  V30 20707 H 2036.06 -3.32995 2.49173 0
M  V30 20708 H 2034.64 -3.66441 0.691067 0
M  V30 20709 N 2036.82 -0.937962 -1.26649 0
M  V30 20710 C 2038.24 -0.639774 -1.46216 0
M  V30 20711 C 2038.44 0.807896 -1.84595 0
M  V30 20712 O 2037.49 1.58484 -1.96568 0
M  V30 20713 C 2038.81 -1.59844 -2.54697 0
M  V30 20714 C 2040.35 -1.60779 -2.6855 0
M  V30 20715 C 2040.83 -2.55367 -3.80199 0
M  V30 20716 N 2042.32 -2.53634 -3.87587 0
M  V30 20717 C 2043.06 -3.23509 -4.73423 0
M  V30 20718 N 2042.55 -4.02798 -5.63671 0
M  V30 20719 N 2044.34 -3.12477 -4.67242 0
M  V30 20720 H 2036.5 -1.87374 -1.00025 0
M  V30 20721 H 2038.76 -0.805036 -0.500621 0
M  V30 20722 H 2038.46 -2.63168 -2.33314 0
M  V30 20723 H 2038.34 -1.34802 -3.5229 0
M  V30 20724 H 2040.73 -0.581808 -2.89308 0
M  V30 20725 H 2040.81 -1.89873 -1.71411 0
M  V30 20726 H 2040.45 -3.58081 -3.60195 0
M  V30 20727 H 2040.38 -2.23564 -4.76788 0
M  V30 20728 H 2042.87 -1.96058 -3.23063 0
M  V30 20729 H 2043.18 -4.53075 -6.26053 0
M  V30 20730 H 2041.53 -4.069 -5.63434 0
M  V30 20731 H 2044.72 -2.50018 -3.95738 0
M  V30 20732 H 2044.89 -3.67201 -5.33917 0
M  V30 20733 N 2038.3 1.40971 -0.704618 0
M  V30 20734 C 2039.55 2.00309 -0.236478 0
M  V30 20735 C 2039.86 1.56482 1.17358 0
M  V30 20736 O 2041.07 2.08442 1.73966 0
M  V30 20737 C 2039.52 3.57974 -0.371877 0
M  V30 20738 C 2039.13 4.10779 -1.78788 0
M  V30 20739 C 2040.88 4.24485 0.0360284 0
M  V30 20740 C 2038.78 5.60909 -1.87445 0
M  V30 20741 H 2037.71 0.749233 -0.0846557 0
M  V30 20742 H 2040.36 1.61342 -0.874125 0
M  V30 20743 H 2038.75 3.94587 0.334172 0
M  V30 20744 H 2039.92 3.85565 -2.52342 0
M  V30 20745 H 2038.23 3.56826 -2.14626 0
M  V30 20746 H 2040.83 5.34699 -0.00808813 0
M  V30 20747 H 2041.17 4.02149 1.07621 0
M  V30 20748 H 2041.71 3.92938 -0.620069 0
M  V30 20749 H 2038.45 5.88084 -2.89546 0
M  V30 20750 H 2037.97 5.88021 -1.18287 0
M  V30 20751 H 2039.65 6.25831 -1.6415 0
M  V30 20752 N 2039.78 0.45001 1.51039 0
M  V30 20753 C 2041.01 -0.110496 2.06605 0
M  V30 20754 C 2041.42 -1.35362 1.31615 0
M  V30 20755 O 2040.78 -1.78515 0.379306 0
M  V30 20756 C 2040.83 -0.419948 3.59052 0
M  V30 20757 O 2040.55 0.773848 4.31211 0
M  V30 20758 C 2042.05 -1.02974 4.31174 0
M  V30 20759 H 2039.27 -0.00230221 0.670996 0
M  V30 20760 H 2041.82 0.632737 1.94465 0
M  V30 20761 H 2039.97 -1.11309 3.71065 0
M  V30 20762 H 2040.38 0.505717 5.22056 0
M  V30 20763 H 2041.86 -1.19617 5.38884 0
M  V30 20764 H 2042.34 -2.01422 3.9029 0
M  V30 20765 H 2042.94 -0.375607 4.23638 0
M  V30 20766 N 2041.26 -1.56548 0.18182 0
M  V30 20767 C 2042.19 -2.21471 -0.739774 0
M  V30 20768 C 2043.17 -1.17361 -1.23128 0
M  V30 20769 O 2044.35 -1.45825 -1.28253 0
M  V30 20770 C 2041.48 -2.86369 -1.96494 0
M  V30 20771 C 2040.44 -3.96609 -1.60888 0
M  V30 20772 C 2039.76 -4.48607 -2.90957 0
M  V30 20773 C 2041.06 -5.15681 -0.828895 0
M  V30 20774 H 2042.76 -2.98741 -0.19858 0
M  V30 20775 H 2040.3 -1.43692 -0.0940725 0
M  V30 20776 H 2042.26 -3.30466 -2.61477 0
M  V30 20777 H 2040.98 -2.06485 -2.53045 0
M  V30 20778 H 2039.64 -3.53184 -0.982694 0
M  V30 20779 H 2039.29 -3.65501 -3.45569 0
M  V30 20780 H 2038.99 -5.22984 -2.67882 0
M  V30 20781 H 2040.51 -4.95397 -3.56951 0
M  V30 20782 H 2041.92 -5.56405 -1.38153 0
M  V30 20783 H 2040.32 -5.96041 -0.696789 0
M  V30 20784 H 2041.39 -4.84592 0.172711 0
M  V30 20785 N 2042.73 0.0918577 -1.57332 0
M  V30 20786 C 2043.66 1.11191 -2.05326 0
M  V30 20787 C 2044.65 1.41581 -0.942802 0
M  V30 20788 O 2045.83 1.51555 -1.21428 0
M  V30 20789 C 2042.96 2.4309 -2.48041 0
M  V30 20790 C 2041.91 2.271 -3.6278 0
M  V30 20791 C 2041.24 3.64205 -3.91482 0
M  V30 20792 C 2042.54 1.70886 -4.93554 0
M  V30 20793 H 2044.23 0.712608 -2.90796 0
M  V30 20794 H 2041.78 0.341338 -1.39896 0
M  V30 20795 H 2043.73 3.14724 -2.80226 0
M  V30 20796 H 2042.46 2.84962 -1.59575 0
M  V30 20797 H 2041.12 1.57911 -3.30847 0
M  V30 20798 H 2040.76 4.03611 -3.00179 0
M  V30 20799 H 2040.46 3.54352 -4.68731 0
M  V30 20800 H 2041.99 4.37302 -4.26145 0
M  V30 20801 H 2043.4 2.32364 -5.24099 0
M  V30 20802 H 2041.8 1.71783 -5.74987 0
M  V30 20803 H 2042.87 0.668569 -4.80269 0
M  V30 20804 N 2044.21 1.53368 0.362763 0
M  V30 20805 C 2045.14 1.82984 1.45048 0
M  V30 20806 C 2046.12 0.683544 1.55762 0
M  V30 20807 O 2047.31 0.933658 1.70283 0
M  V30 20808 C 2044.44 2.02227 2.8235 0
M  V30 20809 C 2043.39 3.18002 2.86459 0
M  V30 20810 C 2042.72 3.22543 4.26463 0
M  V30 20811 C 2044.02 4.56531 2.53726 0
M  V30 20812 H 2045.71 2.74075 1.20513 0
M  V30 20813 H 2043.26 1.31877 0.578302 0
M  V30 20814 H 2045.21 2.21529 3.58473 0
M  V30 20815 H 2043.94 1.07849 3.08279 0
M  V30 20816 H 2042.59 2.98525 2.12787 0
M  V30 20817 H 2042.24 2.25797 4.49472 0
M  V30 20818 H 2041.94 4.00331 4.30127 0
M  V30 20819 H 2043.47 3.44032 5.04455 0
M  V30 20820 H 2044.88 4.75975 3.19563 0
M  V30 20821 H 2043.28 5.36581 2.68703 0
M  V30 20822 H 2044.35 4.61451 1.48967 0
M  V30 20823 N 2045.69 -0.62272 1.44776 0
M  V30 20824 C 2046.62 -1.74744 1.46764 0
M  V30 20825 C 2047.6 -1.59307 0.325571 0
M  V30 20826 O 2048.79 -1.81076 0.523811 0
M  V30 20827 C 2045.91 -3.12411 1.30832 0
M  V30 20828 C 2044.96 -3.46476 2.4871 0
M  V30 20829 S 2045.79 -3.43011 4.11222 0
M  V30 20830 C 2046.95 -4.83284 3.97728 0
M  V30 20831 H 2047.18 -1.72792 2.41931 0
M  V30 20832 H 2044.71 -0.798067 1.32175 0
M  V30 20833 H 2046.67 -3.9185 1.22327 0
M  V30 20834 H 2045.33 -3.11894 0.371621 0
M  V30 20835 H 2044.53 -4.46675 2.33447 0
M  V30 20836 H 2044.13 -2.74519 2.53998 0
M  V30 20837 H 2046.42 -5.72719 3.61937 0
M  V30 20838 H 2047.36 -5.03602 4.97786 0
M  V30 20839 H 2047.77 -4.58254 3.29642 0
M  V30 20840 N 2047.17 -1.31814 -0.863883 0
M  V30 20841 C 2048.13 -1.19926 -1.95321 0
M  V30 20842 C 2049.13 -0.124731 -1.60316 0
M  V30 20843 O 2050.32 -0.374454 -1.70128 0
M  V30 20844 C 2047.45 -0.842234 -3.30332 0
M  V30 20845 H 2048.65 -2.16727 -2.07291 0
M  V30 20846 H 2046.2 -1.15512 -1.05293 0
M  V30 20847 H 2046.93 0.124348 -3.24062 0
M  V30 20848 H 2046.72 -1.61902 -3.57114 0
M  V30 20849 H 2048.21 -0.783125 -4.10191 0
M  V30 20850 N 2048.65 1.07897 -1.14873 0
M  V30 20851 C 2049.87 1.84657 -0.944281 0
M  V30 20852 C 2050.3 1.8127 0.50226 0
M  V30 20853 O 2049.65 1.20159 1.35763 0
M  V30 20854 C 2049.7 3.29889 -1.45622 0
M  V30 20855 O 2048.81 4.07217 -0.651748 0
M  V30 20856 H 2048.15 0.571994 -0.337222 0
M  V30 20857 H 2050.68 1.36151 -1.52723 0
M  V30 20858 H 2050.69 3.80727 -1.46665 0
M  V30 20859 H 2049.36 3.31668 -2.50936 0
M  V30 20860 H 2047.94 3.66069 -0.710491 0
M  V30 20861 N 2050.12 0.944665 1.2615 0
M  V30 20862 C 2051.06 0.414303 2.25424 0
M  V30 20863 C 2052.07 -0.464345 1.56037 0
M  V30 20864 O 2053.26 -0.274229 1.76381 0
M  V30 20865 C 2050.36 -0.423331 3.36246 0
M  V30 20866 C 2049.53 0.439977 4.35182 0
M  V30 20867 C 2048.59 -0.337801 5.25115 0
M  V30 20868 O 2047.62 0.260373 5.68604 0
M  V30 20869 N 2048.82 -1.63346 5.57044 0
M  V30 20870 H 2051.58 1.26775 2.71566 0
M  V30 20871 H 2049.14 0.813928 1.39953 0
M  V30 20872 H 2051.14 -0.951131 3.93364 0
M  V30 20873 H 2049.71 -1.17759 2.89571 0
M  V30 20874 H 2048.93 1.14896 3.77084 0
M  V30 20875 H 2050.21 1.02957 4.98274 0
M  V30 20876 H 2049.61 -2.14152 5.23599 0
M  V30 20877 H 2048.17 -2.10743 6.16791 0
M  V30 20878 N 2051.6 -1.40596 0.712085 0
M  V30 20879 C 2052.51 -2.34528 0.0582122 0
M  V30 20880 C 2053.53 -1.57115 -0.747715 0
M  V30 20881 O 2054.7 -1.8952 -0.681477 0
M  V30 20882 C 2051.77 -3.35992 -0.855008 0
M  V30 20883 C 2050.83 -4.29282 -0.0394267 0
M  V30 20884 C 2050.06 -5.25899 -0.909154 0
M  V30 20885 O 2050.29 -5.28392 -2.14845 0
M  V30 20886 O 2049.22 -6.00881 -0.350012 0
M  V30 20887 H 2053.05 -2.92055 0.832915 0
M  V30 20888 H 2050.63 -1.4173 0.472537 0
M  V30 20889 H 2052.51 -3.98225 -1.3782 0
M  V30 20890 H 2051.19 -2.80883 -1.60892 0
M  V30 20891 H 2050.1 -3.70344 0.528757 0
M  V30 20892 H 2051.43 -4.87533 0.676185 0
M  V30 20893 N 2053.08 -0.458013 -1.50798 0
M  V30 20894 C 2054.49 0.00023852 -1.867 0
M  V30 20895 C 2054.84 1.40078 -1.37378 0
M  V30 20896 O 2053.97 2.036 -0.733219 0
M  V30 20897 C 2054.56 0.00720883 -3.38799 0
M  V30 20898 C 2053.12 0.409942 -3.74161 0
M  V30 20899 C 2052.27 -0.383856 -2.7463 0
M  V30 20900 H 2055.22 -0.672909 -1.43728 0
M  V30 20901 H 2055.24 0.812262 -3.71729 0
M  V30 20902 H 2054.75 -1.01225 -3.74667 0
M  V30 20903 H 2052.85 1.43423 -3.4389 0
M  V30 20904 H 2052.97 0.120374 -4.78949 0
M  V30 20905 H 2051.33 0.16068 -2.54193 0
M  V30 20906 H 2052.11 -1.40258 -3.13341 0
M  V30 20907 N 2054.56 1.56449 -0.190119 0
M  V30 20908 C 2055.49 2.16074 0.764507 0
M  V30 20909 C 2056.5 1.12124 1.18034 0
M  V30 20910 O 2057.69 1.39237 1.11693 0
M  V30 20911 C 2054.79 2.70392 2.04307 0
M  V30 20912 C 2053.97 3.99194 1.78782 0
M  V30 20913 C 2053.03 4.38388 2.91037 0
M  V30 20914 O 2052.05 5.05906 2.60859 0
M  V30 20915 N 2053.25 4.01483 4.19275 0
M  V30 20916 H 2056.02 2.98616 0.254652 0
M  V30 20917 H 2053.58 1.61898 -0.00797932 0
M  V30 20918 H 2055.57 2.936 2.78534 0
M  V30 20919 H 2054.14 1.92333 2.46428 0
M  V30 20920 H 2053.36 3.84169 0.883602 0
M  V30 20921 H 2054.65 4.83279 1.5912 0
M  V30 20922 H 2054.05 3.47164 4.46647 0
M  V30 20923 H 2052.6 4.29652 4.90145 0
M  V30 20924 N 2056.04 -0.0835127 1.57379 0
M  V30 20925 C 2057.45 -0.438018 1.53472 0
M  V30 20926 C 2057.65 -1.79853 0.908578 0
M  V30 20927 O 2056.71 -2.47377 0.506047 0
M  V30 20928 C 2058.02 -0.389855 2.98162 0
M  V30 20929 C 2059.57 -0.470883 3.09438 0
M  V30 20930 C 2060.05 -0.452749 4.55757 0
M  V30 20931 N 2061.54 -0.513166 4.60349 0
M  V30 20932 C 2062.27 -0.52116 5.71027 0
M  V30 20933 N 2061.77 -0.484668 6.91103 0
M  V30 20934 N 2063.56 -0.566841 5.59235 0
M  V30 20935 H 2055.71 0.807491 1.96452 0
M  V30 20936 H 2057.97 0.301793 0.89868 0
M  V30 20937 H 2057.68 0.542902 3.47484 0
M  V30 20938 H 2057.55 -1.20449 3.57452 0
M  V30 20939 H 2059.94 -1.39406 2.60096 0
M  V30 20940 H 2060.02 0.372104 2.53079 0
M  V30 20941 H 2059.67 0.466533 5.05753 0
M  V30 20942 H 2059.6 -1.31311 5.09966 0
M  V30 20943 H 2062.09 -0.546093 3.73933 0
M  V30 20944 H 2062.4 -0.494371 7.71217 0
M  V30 20945 H 2060.75 -0.451537 6.93532 0
M  V30 20946 H 2063.94 -0.59296 4.64329 0
M  V30 20947 H 2064.11 -0.569602 6.45492 0
M  V30 20948 N 2057.52 -1.53558 -0.354624 0
M  V30 20949 C 2058.45 -1.75568 -1.45778 0
M  V30 20950 C 2059.43 -0.604381 -1.5095 0
M  V30 20951 O 2060.61 -0.838257 -1.68836 0
M  V30 20952 C 2057.74 -1.84435 -2.8408 0
M  V30 20953 C 2056.78 -3.06498 -2.96583 0
M  V30 20954 S 2057.62 -4.65789 -2.64199 0
M  V30 20955 C 2058.77 -4.7752 -4.0463 0
M  V30 20956 H 2059.01 -2.68861 -1.2689 0
M  V30 20957 H 2056.54 -1.44286 -0.549628 0
M  V30 20958 H 2058.5 -1.90229 -3.63762 0
M  V30 20959 H 2057.16 -0.921738 -3.00271 0
M  V30 20960 H 2056.35 -3.09344 -3.97897 0
M  V30 20961 H 2055.95 -2.98873 -2.24836 0
M  V30 20962 H 2058.24 -4.58248 -4.99014 0
M  V30 20963 H 2059.19 -5.79597 -4.06784 0
M  V30 20964 H 2059.6 -4.06062 -3.9214 0
M  V30 20965 N 2058.99 0.615033 -1.45104 0
M  V30 20966 C 2060.22 1.40596 -1.52471 0
M  V30 20967 C 2060.64 1.87454 -0.155745 0
M  V30 20968 O 2060 1.59701 0.858209 0
M  V30 20969 C 2060.05 2.59156 -2.5074 0
M  V30 20970 O 2059.15 3.59538 -2.02006 0
M  V30 20971 H 2058.49 0.420045 -0.514255 0
M  V30 20972 H 2061.02 0.749208 -1.90389 0
M  V30 20973 H 2061.03 3.06496 -2.69303 0
M  V30 20974 H 2059.71 2.24399 -3.50169 0
M  V30 20975 H 2058.29 3.18897 -1.93284 0
M  V30 20976 N 2060.47 1.3227 0.85688 0
M  V30 20977 C 2061.89 1.11212 1.14473 0
M  V30 20978 C 2062.09 -0.108857 2.01206 0
M  V30 20979 O 2061.14 -0.7944 2.39678 0
M  V30 20980 C 2062.46 2.39046 1.82421 0
M  V30 20981 C 2064 2.44782 1.95066 0
M  V30 20982 C 2064.48 3.72531 2.66429 0
M  V30 20983 N 2065.97 3.735 2.73956 0
M  V30 20984 C 2066.71 4.69049 3.29819 0
M  V30 20985 N 2066.2 5.74963 3.86509 0
M  V30 20986 N 2067.99 4.5655 3.27901 0
M  V30 20987 H 2060.15 2.10557 0.279231 0
M  V30 20988 H 2062.41 0.929507 0.186337 0
M  V30 20989 H 2062.11 3.28299 1.26145 0
M  V30 20990 H 2061.99 2.49838 2.82596 0
M  V30 20991 H 2064.38 1.5599 2.50502 0
M  V30 20992 H 2064.46 2.37944 0.938939 0
M  V30 20993 H 2064.1 4.61696 2.11658 0
M  V30 20994 H 2064.03 3.76639 3.68036 0
M  V30 20995 H 2066.52 2.96945 2.33735 0
M  V30 20996 H 2066.83 6.43931 4.27285 0
M  V30 20997 H 2065.18 5.7872 3.84848 0
M  V30 20998 H 2068.37 3.72973 2.82858 0
M  V30 20999 H 2068.54 5.31189 3.71136 0
M  V30 21000 N 2061.95 -1.07287 1.15444 0
M  V30 21001 C 2062.9 -2.16605 0.847634 0
M  V30 21002 C 2063.89 -1.68449 -0.179217 0
M  V30 21003 O 2065.1 -1.79968 -0.0341862 0
M  V30 21004 H 2061.47 -0.706921 0.25645 0
M  V30 21005 H 2063.44 -2.397 1.77726 0
M  V30 21006 C 2062.19 -3.45893 0.354062 0
M  V30 21007 H 2061.52 -3.83333 1.1356 0
M  V30 21008 H 2062.96 -4.23626 0.178055 0
M  V30 21009 C 2061.41 -3.23966 -0.924544 0
M  V30 21010 O 2061.94 -3.48604 -1.99594 0
M  V30 21011 N 2060.15 -2.77449 -0.864314 0
M  V30 21012 H 2059.7 -2.57599 0.00774481 0
M  V30 21013 H 2059.66 -2.63157 -1.72034 0
M  V30 21014 N 2063.43 -0.951342 -1.25647 0
M  V30 21015 C 2064.67 -0.604351 -1.93271 0
M  V30 21016 C 2065 0.858137 -1.74546 0
M  V30 21017 O 2064.26 1.63065 -1.08206 0
M  V30 21018 C 2064.56 -0.9052 -3.45747 0
M  V30 21019 C 2064.22 -2.35319 -3.84624 0
M  V30 21020 C 2062.88 -2.74899 -3.94948 0
M  V30 21021 C 2065.24 -3.29371 -4.03936 0
M  V30 21022 C 2062.56 -4.07606 -4.21989 0
M  V30 21023 C 2064.92 -4.61686 -4.32468 0
M  V30 21024 C 2063.58 -5.01067 -4.41009 0
M  V30 21025 H 2062.85 -0.221148 -0.70723 0
M  V30 21026 H 2065.5 -1.19976 -1.49258 0
M  V30 21027 H 2063.8 -0.227362 -3.9114 0
M  V30 21028 H 2065.5 -0.615351 -3.9625 0
M  V30 21029 H 2062.09 -2.03622 -3.77142 0
M  V30 21030 H 2066.27 -2.99984 -3.95378 0
M  V30 21031 H 2061.53 -4.37766 -4.26815 0
M  V30 21032 H 2065.7 -5.34545 -4.46357 0
M  V30 21033 H 2063.33 -6.03923 -4.61715 0
M  V30 21034 N 2064.91 1.40216 -0.719531 0
M  V30 21035 C 2066.15 2.01112 -0.261127 0
M  V30 21036 C 2066.48 1.56933 1.14393 0
M  V30 21037 O 2065.76 0.791168 1.77682 0
M  V30 21038 C 2066.04 3.58438 -0.345592 0
M  V30 21039 C 2065.9 4.12679 -1.78931 0
M  V30 21040 C 2067.21 4.39202 0.280948 0
M  V30 21041 H 2064.33 0.730674 -0.0963582 0
M  V30 21042 H 2066.98 1.66639 -0.912774 0
M  V30 21043 H 2065.13 3.87936 0.209226 0
M  V30 21044 H 2066.8 3.93963 -2.39982 0
M  V30 21045 H 2065.04 3.66819 -2.31574 0
M  V30 21046 H 2065.71 5.21835 -1.79978 0
M  V30 21047 H 2068.19 4.15658 -0.191834 0
M  V30 21048 H 2067.06 5.48566 0.191422 0
M  V30 21049 H 2067.32 4.205 1.36499 0
M  V30 21050 N 2066.38 0.466004 1.50553 0
M  V30 21051 C 2067.8 0.119867 1.59149 0
M  V30 21052 C 2068 -1.37324 1.47459 0
M  V30 21053 O 2067.06 -2.14604 1.33047 0
M  V30 21054 C 2068.37 0.665532 2.93243 0
M  V30 21055 C 2069.92 0.628507 3.06625 0
M  V30 21056 C 2070.39 1.15163 4.43285 0
M  V30 21057 N 2071.88 1.11082 4.49683 0
M  V30 21058 C 2072.62 1.48615 5.53806 0
M  V30 21059 N 2072.11 1.93573 6.65208 0
M  V30 21060 N 2073.91 1.4025 5.44322 0
M  V30 21061 H 2066.06 1.43716 1.56395 0
M  V30 21062 H 2068.32 0.594011 0.73882 0
M  V30 21063 H 2068.03 1.71132 3.07257 0
M  V30 21064 H 2067.9 0.106264 3.7705 0
M  V30 21065 H 2070.29 -0.408356 2.92261 0
M  V30 21066 H 2070.37 1.22452 2.24587 0
M  V30 21067 H 2070.01 2.1871 4.58398 0
M  V30 21068 H 2069.94 0.531882 5.23907 0
M  V30 21069 H 2072.43 0.781025 3.69741 0
M  V30 21070 H 2072.75 2.20373 7.40713 0
M  V30 21071 H 2071.09 1.97521 6.66341 0
M  V30 21072 H 2074.28 1.04972 4.56178 0
M  V30 21073 H 2074.46 1.69827 6.2535 0
M  V30 21074 N 2067.86 -1.56346 0.198413 0
M  V30 21075 C 2069.09 -2.01765 -0.444344 0
M  V30 21076 C 2069.5 -1.0777 -1.55507 0
M  V30 21077 O 2068.84 -0.0753476 -1.83545 0
M  V30 21078 C 2068.9 -3.43574 -1.05816 0
M  V30 21079 C 2068.57 -4.5692 -0.0857655 0
M  V30 21080 C 2069.57 -5.15083 0.706081 0
M  V30 21081 C 2067.25 -5.02293 0.0262794 0
M  V30 21082 C 2069.24 -6.17072 1.5969 0
M  V30 21083 C 2066.93 -6.04125 0.920659 0
M  V30 21084 C 2067.93 -6.61388 1.70453 0
M  V30 21085 O 2067.62 -7.61242 2.58392 0
M  V30 21086 H 2067.35 -0.666052 -0.115545 0
M  V30 21087 H 2069.9 -2.03117 0.305386 0
M  V30 21088 H 2068.13 -3.39219 -1.85654 0
M  V30 21089 H 2069.82 -3.7278 -1.60592 0
M  V30 21090 H 2070.59 -4.80893 0.629841 0
M  V30 21091 H 2066.47 -4.57416 -0.57369 0
M  V30 21092 H 2070.01 -6.61695 2.20919 0
M  V30 21093 H 2065.91 -6.37738 0.998002 0
M  V30 21094 H 2066.68 -7.78674 2.52208 0
M  V30 21095 N 2069.34 0.0751653 -1.57421 0
M  V30 21096 C 2070.59 0.776106 -1.87362 0
M  V30 21097 C 2070.92 1.77394 -0.790247 0
M  V30 21098 O 2070.19 1.93471 0.199817 0
M  V30 21099 C 2070.48 1.4871 -3.27959 0
M  V30 21100 C 2070.33 0.505905 -4.46946 0
M  V30 21101 C 2071.65 2.43284 -3.66744 0
M  V30 21102 H 2068.77 0.280684 -0.681458 0
M  V30 21103 H 2071.41 0.0393497 -1.89959 0
M  V30 21104 H 2069.56 2.11512 -3.25876 0
M  V30 21105 H 2071.23 -0.116642 -4.61153 0
M  V30 21106 H 2069.48 -0.179057 -4.3343 0
M  V30 21107 H 2070.15 1.04094 -5.42096 0
M  V30 21108 H 2072.62 1.90562 -3.69899 0
M  V30 21109 H 2071.5 2.90037 -4.66015 0
M  V30 21110 H 2071.76 3.27938 -2.96494 0
M  V30 21111 N 2070.82 1.53744 0.346476 0
M  V30 21112 C 2071.75 1.77836 1.44592 0
M  V30 21113 C 2072.76 0.659581 1.4884 0
M  V30 21114 O 2073.95 0.936252 1.51976 0
M  V30 21115 C 2071.05 1.86049 2.83265 0
M  V30 21116 C 2070.23 3.1594 3.02491 0
M  V30 21117 C 2069.28 3.15147 4.21389 0
M  V30 21118 O 2068.31 3.88879 4.15646 0
M  V30 21119 N 2069.51 2.37309 5.29778 0
M  V30 21120 H 2072.28 2.72709 1.24297 0
M  V30 21121 H 2069.84 1.52758 0.536336 0
M  V30 21122 H 2071.83 1.82973 3.60975 0
M  V30 21123 H 2070.4 0.983753 2.96717 0
M  V30 21124 H 2069.62 3.32163 2.12277 0
M  V30 21125 H 2070.91 4.01743 3.12217 0
M  V30 21126 H 2070.31 1.76952 5.37312 0
M  V30 21127 H 2068.86 2.40034 6.05992 0
M  V30 21128 N 2072.3 -0.607329 1.45428 0
M  V30 21129 C 2073.54 -1.36363 1.49163 0
M  V30 21130 C 2073.87 -1.94533 0.134827 0
M  V30 21131 O 2073.14 -1.77174 -0.835838 0
M  V30 21132 H 2071.72 -0.506225 0.549314 0
M  V30 21133 H 2074.38 -0.713138 1.81385 0
M  V30 21134 H 2073.47 -2.18292 2.23058 0
M  V30 21135 N 2073.77 -1.32722 -0.849853 0
M  V30 21136 C 2074.7 -1.24675 -1.97429 0
M  V30 21137 C 2075.69 -0.129581 -1.69606 0
M  V30 21138 O 2076.87 -0.317548 -1.91586 0
M  V30 21139 C 2074 -0.973971 -3.33363 0
M  V30 21140 C 2072.95 -2.05289 -3.75553 0
M  V30 21141 C 2072.28 -1.63244 -5.09171 0
M  V30 21142 C 2073.58 -3.46845 -3.90507 0
M  V30 21143 H 2075.27 -2.18753 -2.0442 0
M  V30 21144 H 2072.82 -1.0531 -0.982132 0
M  V30 21145 H 2074.77 -0.904206 -4.11585 0
M  V30 21146 H 2073.5 0.00243816 -3.266 0
M  V30 21147 H 2072.16 -2.11289 -2.99587 0
M  V30 21148 H 2071.8 -0.643348 -4.98869 0
M  V30 21149 H 2071.5 -2.35437 -5.38371 0
M  V30 21150 H 2073.03 -1.57713 -5.8988 0
M  V30 21151 H 2074.44 -3.43408 -4.59069 0
M  V30 21152 H 2072.84 -4.17429 -4.3113 0
M  V30 21153 H 2073.91 -3.86155 -2.93278 0
M  V30 21154 N 2075.25 1.06673 -1.16011 0
M  V30 21155 C 2076.2 2.14051 -0.863174 0
M  V30 21156 C 2077.17 1.65046 0.186783 0
M  V30 21157 O 2078.35 1.90727 0.0528262 0
M  V30 21158 C 2075.49 3.43152 -0.366184 0
M  V30 21159 C 2074.61 4.05911 -1.47852 0
M  V30 21160 C 2073.74 5.22872 -0.936942 0
M  V30 21161 C 2072.78 5.77607 -2.02574 0
M  V30 21162 N 2071.92 6.85889 -1.50004 0
M  V30 21163 H 2076.76 2.38791 -1.78277 0
M  V30 21164 H 2074.3 1.17165 -0.889421 0
M  V30 21165 H 2076.25 4.17157 -0.0596984 0
M  V30 21166 H 2074.88 3.18641 0.516479 0
M  V30 21167 H 2073.94 3.29491 -1.90105 0
M  V30 21168 H 2075.25 4.42592 -2.3003 0
M  V30 21169 H 2074.4 6.03888 -0.583409 0
M  V30 21170 H 2073.14 4.87627 -0.0844157 0
M  V30 21171 H 2072.15 4.95231 -2.38802 0
M  V30 21172 H 2073.37 6.14905 -2.88217 0
M  V30 21173 H 2071.32 6.5257 -0.669982 0
M  V30 21174 H 2071.23 7.21491 -2.25802 0
M  V30 21175 H 2072.5 7.70594 -1.17496 0
M  V30 21176 N 2076.73 0.957992 1.25141 0
M  V30 21177 C 2077.68 0.479695 2.2576 0
M  V30 21178 C 2078.65 -0.469606 1.59323 0
M  V30 21179 O 2079.83 -0.382116 1.86935 0
M  V30 21180 C 2076.97 -0.233227 3.44311 0
M  V30 21181 C 2076.09 0.753705 4.25374 0
M  V30 21182 C 2075.22 0.0178808 5.31197 0
M  V30 21183 C 2074.26 0.995522 6.0395 0
M  V30 21184 N 2073.4 0.290349 7.01499 0
M  V30 21185 H 2078.24 1.3426 2.66042 0
M  V30 21186 H 2075.77 0.673224 1.3079 0
M  V30 21187 H 2077.73 -0.663168 4.11896 0
M  V30 21188 H 2076.36 -1.06015 3.04894 0
M  V30 21189 H 2075.41 1.30212 3.5742 0
M  V30 21190 H 2076.73 1.4996 4.75724 0
M  V30 21191 H 2075.88 -0.470532 6.04873 0
M  V30 21192 H 2074.62 -0.760784 4.8173 0
M  V30 21193 H 2073.62 1.4949 5.29087 0
M  V30 21194 H 2074.85 1.77447 6.55507 0
M  V30 21195 H 2072.79 -0.469516 6.54318 0
M  V30 21196 H 2072.71 0.975282 7.49683 0
M  V30 21197 H 2073.98 -0.176416 7.793 0
M  V30 21198 N 2078.21 -1.39832 0.726957 0
M  V30 21199 C 2079.16 -2.30655 0.0817379 0
M  V30 21200 C 2080.13 -1.48792 -0.738257 0
M  V30 21201 O 2081.31 -1.775 -0.699873 0
M  V30 21202 C 2078.45 -3.35079 -0.825599 0
M  V30 21203 C 2077.56 -4.32 0.006145 0
M  V30 21204 C 2076.7 -5.23491 -0.90172 0
M  V30 21205 C 2075.74 -6.12066 -0.064744 0
M  V30 21206 N 2074.87 -6.95939 -0.928103 0
M  V30 21207 H 2079.71 -2.85263 0.861906 0
M  V30 21208 H 2077.25 -1.40468 0.436709 0
M  V30 21209 H 2079.21 -3.94203 -1.36602 0
M  V30 21210 H 2077.84 -2.81946 -1.57183 0
M  V30 21211 H 2076.89 -3.74562 0.66389 0
M  V30 21212 H 2078.2 -4.94499 0.65365 0
M  V30 21213 H 2077.36 -5.87602 -1.51027 0
M  V30 21214 H 2076.1 -4.61294 -1.58302 0
M  V30 21215 H 2075.1 -5.46975 0.556665 0
M  V30 21216 H 2076.33 -6.76326 0.613222 0
M  V30 21217 H 2074.27 -6.36318 -1.59484 0
M  V30 21218 H 2074.19 -7.55249 -0.336895 0
M  V30 21219 H 2075.46 -7.64487 -1.52247 0
M  V30 21220 N 2079.69 -0.473982 -1.50304 0
M  V30 21221 C 2080.63 0.318686 -2.28589 0
M  V30 21222 C 2081.6 0.984628 -1.3377 0
M  V30 21223 O 2082.79 0.996508 -1.62709 0
M  V30 21224 C 2079.93 1.39305 -3.15734 0
M  V30 21225 C 2079.04 0.7416 -4.25587 0
M  V30 21226 C 2078.18 1.79411 -4.99985 0
M  V30 21227 C 2077.22 1.12306 -6.01709 0
M  V30 21228 N 2076.35 2.11854 -6.69374 0
M  V30 21229 H 2081.19 -0.3552 -2.95876 0
M  V30 21230 H 2078.73 -0.187014 -1.45906 0
M  V30 21231 H 2080.69 2.02764 -3.64613 0
M  V30 21232 H 2079.32 2.03607 -2.50488 0
M  V30 21233 H 2078.37 -0.00562528 -3.804 0
M  V30 21234 H 2079.68 0.212032 -4.98349 0
M  V30 21235 H 2078.84 2.50443 -5.52597 0
M  V30 21236 H 2077.57 2.35749 -4.26936 0
M  V30 21237 H 2076.58 0.398372 -5.48355 0
M  V30 21238 H 2077.8 0.566533 -6.76733 0
M  V30 21239 H 2075.75 2.67204 -5.99114 0
M  V30 21240 H 2075.67 1.6389 -7.38022 0
M  V30 21241 H 2076.94 2.82258 -7.26602 0
M  V30 21242 N 2081.16 1.56239 -0.206702 0
M  V30 21243 C 2082.41 1.98197 0.429627 0
M  V30 21244 C 2082.74 1.09386 1.60463 0
M  V30 21245 O 2082.02 0.148321 1.93934 0
M  V30 21246 C 2082.3 3.49218 0.878562 0
M  V30 21247 C 2082.15 4.48805 -0.299054 0
M  V30 21248 C 2083.47 4.04243 1.74 0
M  V30 21249 H 2080.59 0.720583 0.154691 0
M  V30 21250 H 2083.23 1.87617 -0.299957 0
M  V30 21251 H 2081.38 3.58365 1.50023 0
M  V30 21252 H 2083.06 4.51684 -0.936956 0
M  V30 21253 H 2081.3 4.23294 -0.948945 0
M  V30 21254 H 2081.97 5.5197 0.0577652 0
M  V30 21255 H 2084.45 3.97948 1.2156 0
M  V30 21256 H 2083.32 5.10259 2.02305 0
M  V30 21257 H 2083.58 3.50212 2.69823 0
M  V30 21258 N 2082.64 -0.0668159 1.57458 0
M  V30 21259 C 2083.89 -0.76387 1.86676 0
M  V30 21260 C 2084.2 -1.78489 0.800057 0
M  V30 21261 O 2085.41 -2.53187 0.980236 0
M  V30 21262 C 2083.87 -1.4095 3.31151 0
M  V30 21263 C 2083.47 -0.426782 4.45963 0
M  V30 21264 C 2085.22 -2.08863 3.69563 0
M  V30 21265 C 2083.13 -1.07861 5.81481 0
M  V30 21266 H 2082.06 -0.289037 0.6964 0
M  V30 21267 H 2084.71 -0.0172645 1.83492 0
M  V30 21268 H 2083.09 -2.20453 3.28962 0
M  V30 21269 H 2084.26 0.338803 4.59553 0
M  V30 21270 H 2082.58 0.148171 4.16136 0
M  V30 21271 H 2085.17 -2.58415 4.68109 0
M  V30 21272 H 2085.52 -2.89026 2.99616 0
M  V30 21273 H 2086.05 -1.36184 3.73763 0
M  V30 21274 H 2082.79 -0.317194 6.54732 0
M  V30 21275 H 2082.31 -1.81493 5.71682 0
M  V30 21276 H 2083.99 -1.597 6.26981 0
M  V30 21277 N 2084.12 -1.53926 -0.338317 0
M  V30 21278 C 2085.37 -1.71678 -1.07957 0
M  V30 21279 C 2085.7 -0.481294 -1.88141 0
M  V30 21280 O 2084.98 0.521709 -1.87372 0
M  V30 21281 C 2085.26 -2.98347 -2.01646 0
M  V30 21282 C 2085.11 -4.32114 -1.24889 0
M  V30 21283 C 2086.43 -3.20708 -3.01388 0
M  V30 21284 H 2083.55 -0.62468 -0.39108 0
M  V30 21285 H 2086.19 -1.86604 -0.357623 0
M  V30 21286 H 2084.34 -2.85752 -2.63207 0
M  V30 21287 H 2086.01 -4.56568 -0.659021 0
M  V30 21288 H 2084.26 -4.30287 -0.550962 0
M  V30 21289 H 2084.93 -5.16935 -1.93604 0
M  V30 21290 H 2087.4 -3.32667 -2.49943 0
M  V30 21291 H 2086.28 -4.10723 -3.6414 0
M  V30 21292 H 2086.54 -2.37246 -3.7305 0
M  V30 21293 N 2085.6 0.599608 -1.45748 0
M  V30 21294 C 2086.85 1.35451 -1.49452 0
M  V30 21295 C 2087.16 1.95072 -0.143637 0
M  V30 21296 O 2088.37 2.71437 -0.0583691 0
M  V30 21297 C 2086.82 2.454 -2.63262 0
M  V30 21298 C 2086.43 1.92156 -4.04698 0
M  V30 21299 C 2088.18 3.22339 -2.7622 0
M  V30 21300 C 2086.08 2.99633 -5.09876 0
M  V30 21301 H 2085.01 0.509134 -0.556146 0
M  V30 21302 H 2087.66 0.641777 -1.71911 0
M  V30 21303 H 2086.05 3.19395 -2.34101 0
M  V30 21304 H 2087.22 1.24817 -4.43574 0
M  V30 21305 H 2085.53 1.27937 -3.96259 0
M  V30 21306 H 2088.13 4.02519 -3.5197 0
M  V30 21307 H 2088.47 3.73854 -1.83135 0
M  V30 21308 H 2089.01 2.55446 -3.04946 0
M  V30 21309 H 2085.75 2.53026 -6.04697 0
M  V30 21310 H 2085.27 3.65514 -4.75562 0
M  V30 21311 H 2086.95 3.63878 -5.34978 0
M  V30 21312 N 2087.08 1.33171 0.842803 0
M  V30 21313 C 2088.49 1.21918 1.41397 0
M  V30 21314 C 2088.84 -0.163526 1.95517 0
M  V30 21315 O 2087.96 -1.06291 1.88497 0
M  V30 21316 C 2088.56 2.20727 2.57031 0
M  V30 21317 C 2087.12 2.13325 3.10112 0
M  V30 21318 C 2086.27 2.08432 1.82897 0
M  V30 21319 H 2089.22 1.44827 0.648912 0
M  V30 21320 H 2089.24 1.81271 3.34546 0
M  V30 21321 H 2088.75 3.21352 2.1761 0
M  V30 21322 H 2086.85 1.15989 3.54087 0
M  V30 21323 H 2086.96 3.03691 3.70552 0
M  V30 21324 H 2085.33 1.53848 2.02985 0
M  V30 21325 H 2086.11 3.10858 1.45678 0
M  V30 21326 N 2088.56 -1.06056 1.16576 0
M  V30 21327 C 2089.8 -1.79164 0.950155 0
M  V30 21328 C 2090.13 -1.87092 -0.520588 0
M  V30 21329 O 2089.41 -1.36429 -1.38627 0
M  V30 21330 C 2089.69 -3.23525 1.58125 0
M  V30 21331 C 2089.55 -3.23663 3.1235 0
M  V30 21332 C 2090.86 -4.21138 1.27792 0
M  V30 21333 H 2087.98 -0.650413 0.3466 0
M  V30 21334 H 2090.63 -1.24019 1.43942 0
M  V30 21335 H 2088.78 -3.70615 1.16521 0
M  V30 21336 H 2090.45 -2.84716 3.62953 0
M  V30 21337 H 2088.69 -2.62248 3.45555 0
M  V30 21338 H 2089.36 -4.25512 3.51629 0
M  V30 21339 H 2091.84 -3.82502 1.63803 0
M  V30 21340 H 2090.71 -5.20408 1.74547 0
M  V30 21341 H 2090.97 -4.4166 0.197169 0
M  V30 21342 N 2090.03 -0.964615 -1.24631 0
M  V30 21343 C 2091.28 -0.623582 -1.92239 0
M  V30 21344 C 2091.6 0.843493 -1.75813 0
M  V30 21345 O 2090.87 1.60179 -1.12781 0
M  V30 21346 H 2089.45 -0.227644 -0.711468 0
M  V30 21347 H 2092.11 -1.22502 -1.51589 0
M  V30 21348 H 2091.21 -0.861514 -2.99974 0
M  V30 21349 N 2091.51 1.39445 -0.734362 0
M  V30 21350 C 2092.76 1.99762 -0.278913 0
M  V30 21351 C 2093.07 1.58936 1.14012 0
M  V30 21352 O 2094.28 2.12085 1.69506 0
M  V30 21353 C 2092.74 3.57104 -0.447725 0
M  V30 21354 C 2092.34 4.06894 -1.87461 0
M  V30 21355 C 2094.09 4.24466 -0.0540192 0
M  V30 21356 C 2091.99 5.56806 -1.993 0
M  V30 21357 H 2090.92 0.747268 -0.100529 0
M  V30 21358 H 2093.58 1.59452 -0.908151 0
M  V30 21359 H 2091.96 3.95208 0.250399 0
M  V30 21360 H 2093.13 3.80126 -2.60463 0
M  V30 21361 H 2091.45 3.52193 -2.22147 0
M  V30 21362 H 2094.04 5.34562 -0.121504 0
M  V30 21363 H 2094.39 4.04341 0.990665 0
M  V30 21364 H 2094.92 3.91534 -0.703277 0
M  V30 21365 H 2091.66 5.8181 -3.01955 0
M  V30 21366 H 2091.18 5.85379 -1.30734 0
M  V30 21367 H 2092.86 6.22208 -1.77387 0
M  V30 21368 N 2092.99 0.481946 1.5005 0
M  V30 21369 C 2094.24 -0.069141 2.01982 0
M  V30 21370 C 2094.56 -1.39233 1.36525 0
M  V30 21371 O 2093.83 -1.89032 0.514174 0
M  V30 21372 H 2092.41 -0.0285419 0.746455 0
M  V30 21373 H 2095.07 0.634845 1.84271 0
M  V30 21374 H 2094.17 -0.212743 3.11374 0
M  V30 21375 N 2094.47 -1.56127 0.214985 0
M  V30 21376 C 2095.88 -1.8437 -0.294058 0
M  V30 21377 C 2096.23 -1.13621 -1.59952 0
M  V30 21378 O 2095.35 -0.403663 -2.12602 0
M  V30 21379 C 2095.95 -3.34464 -0.540311 0
M  V30 21380 C 2094.51 -3.63047 -0.993677 0
M  V30 21381 C 2093.66 -2.77249 -0.0531319 0
M  V30 21382 H 2096.61 -1.52527 0.43833 0
M  V30 21383 H 2096.63 -3.54314 -1.38716 0
M  V30 21384 H 2096.14 -3.85928 0.409992 0
M  V30 21385 H 2094.24 -3.17033 -1.95757 0
M  V30 21386 H 2094.35 -4.71086 -0.872629 0
M  V30 21387 H 2092.72 -2.48496 -0.558718 0
M  V30 21388 H 2093.5 -3.3151 0.891971 0
M  V30 21389 N 2095.95 0.0584645 -1.57492 0
M  V30 21390 C 2096.9 1.07525 -2.01053 0
M  V30 21391 C 2097.88 1.33726 -0.894772 0
M  V30 21392 O 2099.07 1.33803 -1.15869 0
M  V30 21393 C 2096.2 2.38516 -2.46911 0
M  V30 21394 C 2095.29 2.15532 -3.65249 0
M  V30 21395 N 2095.68 1.62515 -4.78981 0
M  V30 21396 C 2093.98 2.45948 -3.72056 0
M  V30 21397 C 2094.68 1.54656 -5.60764 0
M  V30 21398 N 2093.65 2.01181 -5.05002 0
M  V30 21399 H 2097.45 0.658876 -2.86419 0
M  V30 21400 H 2094.97 0.265312 -1.60218 0
M  V30 21401 H 2096.97 3.12135 -2.76365 0
M  V30 21402 H 2095.63 2.80858 -1.62938 0
M  V30 21403 H 2096.64 1.31192 -5.01008 0
M  V30 21404 H 2093.31 2.91566 -2.98824 0
M  V30 21405 H 2094.7 1.14405 -6.62088 0
M  V30 21406 N 2097.42 1.54103 0.330149 0
M  V30 21407 C 2098.39 1.82317 1.389 0
M  V30 21408 C 2099.39 0.694711 1.45019 0
M  V30 21409 O 2100.58 0.963016 1.45161 0
M  V30 21410 C 2097.71 1.97727 2.77699 0
M  V30 21411 H 2098.9 2.76916 1.15141 0
M  V30 21412 H 2096.45 1.4572 0.565276 0
M  V30 21413 H 2097.19 1.05316 3.06723 0
M  V30 21414 H 2096.97 2.79837 2.74652 0
M  V30 21415 H 2098.46 2.21026 3.54313 0
M  V30 21416 N 2098.9 -0.59187 1.46064 0
M  V30 21417 C 2099.85 -1.72268 1.5629 0
M  V30 21418 C 2100.84 -1.63802 0.431898 0
M  V30 21419 O 2102.05 -1.69406 0.608421 0
M  V30 21420 H 2098.43 -0.569403 0.491207 0
M  V30 21421 H 2100.4 -1.60773 2.51385 0
M  V30 21422 C 2099.15 -3.10656 1.56166 0
M  V30 21423 H 2098.47 -3.17837 2.42527 0
M  V30 21424 H 2099.91 -3.89565 1.67377 0
M  V30 21425 C 2098.37 -3.35661 0.288718 0
M  V30 21426 O 2098.9 -3.9681 -0.624892 0
M  V30 21427 N 2097.1 -2.90045 0.179487 0
M  V30 21428 H 2096.65 -2.40464 0.92384 0
M  V30 21429 H 2096.61 -3.07148 -0.671367 0
M  V30 21430 N 2100.38 -1.33616 -0.835729 0
M  V30 21431 C 2101.31 -1.26762 -1.96096 0
M  V30 21432 C 2102.29 -0.147563 -1.69459 0
M  V30 21433 O 2103.48 -0.33785 -1.91239 0
M  V30 21434 C 2100.61 -1.00927 -3.32312 0
M  V30 21435 C 2099.56 -2.09261 -3.73355 0
M  V30 21436 C 2098.89 -1.68635 -5.07411 0
M  V30 21437 C 2100.19 -3.50968 -3.86806 0
M  V30 21438 H 2101.88 -2.20908 -2.02089 0
M  V30 21439 H 2099.43 -1.06346 -0.970907 0
M  V30 21440 H 2101.38 -0.947809 -4.10603 0
M  V30 21441 H 2100.1 -0.0322023 -3.26584 0
M  V30 21442 H 2098.76 -2.14455 -2.97329 0
M  V30 21443 H 2098.41 -0.696223 -4.98158 0
M  V30 21444 H 2098.11 -2.41134 -5.35844 0
M  V30 21445 H 2099.63 -1.63961 -5.88175 0
M  V30 21446 H 2101.05 -3.48257 -4.55401 0
M  V30 21447 H 2099.45 -4.21978 -4.26678 0
M  V30 21448 H 2100.52 -3.89244 -2.89166 0
M  V30 21449 N 2101.86 1.05436 -1.17136 0
M  V30 21450 C 2102.81 2.13124 -0.885828 0
M  V30 21451 C 2103.78 1.65235 0.169267 0
M  V30 21452 O 2104.96 1.90772 0.032594 0
M  V30 21453 C 2102.1 3.42744 -0.40256 0
M  V30 21454 C 2101.21 4.0432 -1.52149 0
M  V30 21455 C 2100.35 5.21849 -0.992347 0
M  V30 21456 C 2099.39 5.75426 -2.08689 0
M  V30 21457 N 2098.52 6.84259 -1.5727 0
M  V30 21458 H 2103.36 2.36887 -1.808 0
M  V30 21459 H 2100.9 1.16215 -0.901798 0
M  V30 21460 H 2102.86 4.17071 -0.10394 0
M  V30 21461 H 2101.49 3.19171 0.482653 0
M  V30 21462 H 2100.54 3.27456 -1.93589 0
M  V30 21463 H 2101.85 4.40127 -2.34711 0
M  V30 21464 H 2101.01 6.03236 -0.647426 0
M  V30 21465 H 2099.75 4.8751 -0.13613 0
M  V30 21466 H 2098.75 4.9267 -2.44041 0
M  V30 21467 H 2099.98 6.11813 -2.94722 0
M  V30 21468 H 2097.92 6.51822 -0.739158 0
M  V30 21469 H 2097.84 7.19055 -2.33442 0
M  V30 21470 H 2099.11 7.69304 -1.25663 0
M  V30 21471 N 2103.34 0.971211 1.24118 0
M  V30 21472 C 2104.27 0.462026 2.24495 0
M  V30 21473 C 2105.28 -0.431143 1.56987 0
M  V30 21474 O 2106.47 -0.236754 1.76923 0
M  V30 21475 C 2103.57 -0.351913 3.37068 0
M  V30 21476 C 2102.74 0.532187 4.3415 0
M  V30 21477 C 2101.8 -0.22634 5.25713 0
M  V30 21478 O 2100.83 0.380923 5.67924 0
M  V30 21479 N 2102.03 -1.51493 5.60384 0
M  V30 21480 H 2104.8 1.32507 2.68816 0
M  V30 21481 H 2102.36 0.843431 1.38195 0
M  V30 21482 H 2104.35 -0.867478 3.95293 0
M  V30 21483 H 2102.92 -1.1159 2.92004 0
M  V30 21484 H 2102.14 1.22869 3.74562 0
M  V30 21485 H 2103.43 1.13503 4.95978 0
M  V30 21486 H 2102.82 -2.02997 5.28023 0
M  V30 21487 H 2101.38 -1.97612 6.21122 0
M  V30 21488 N 2104.81 -1.39054 0.741747 0
M  V30 21489 C 2106.06 -1.99612 0.289503 0
M  V30 21490 C 2106.38 -1.59538 -1.13168 0
M  V30 21491 O 2107.58 -2.12981 -1.68379 0
M  V30 21492 C 2106.04 -3.56862 0.466657 0
M  V30 21493 C 2105.65 -4.05894 1.89616 0
M  V30 21494 C 2107.39 -4.24431 0.0765289 0
M  V30 21495 C 2105.3 -5.55742 2.0225 0
M  V30 21496 H 2104.23 -0.746725 0.10449 0
M  V30 21497 H 2106.88 -1.58968 0.916594 0
M  V30 21498 H 2105.26 -3.95335 -0.229437 0
M  V30 21499 H 2106.43 -3.78739 2.62475 0
M  V30 21500 H 2104.75 -3.5101 2.24011 0
M  V30 21501 H 2107.35 -5.3449 0.149851 0
M  V30 21502 H 2107.69 -4.04861 -0.969208 0
M  V30 21503 H 2108.22 -3.91156 0.724031 0
M  V30 21504 H 2104.96 -5.80201 3.05036 0
M  V30 21505 H 2104.48 -5.84678 1.33836 0
M  V30 21506 H 2106.16 -6.21258 1.80685 0
M  V30 21507 N 2106.29 -0.489897 -1.49792 0
M  V30 21508 C 2107.71 -0.145171 -1.58938 0
M  V30 21509 C 2107.91 1.34961 -1.49625 0
M  V30 21510 O 2106.96 2.1246 -1.36444 0
M  V30 21511 C 2108.28 -0.7121 -2.92147 0
M  V30 21512 C 2109.83 -0.677209 -3.05586 0
M  V30 21513 C 2110.3 -1.22201 -4.41397 0
M  V30 21514 N 2111.79 -1.18222 -4.47859 0
M  V30 21515 C 2112.53 -1.57407 -5.51372 0
M  V30 21516 N 2112.02 -2.04131 -6.62044 0
M  V30 21517 N 2113.82 -1.48892 -5.42022 0
M  V30 21518 H 2105.97 -1.46186 -1.54089 0
M  V30 21519 H 2108.23 -0.60569 -0.729276 0
M  V30 21520 H 2107.94 -1.75998 -3.04496 0
M  V30 21521 H 2107.81 -0.166236 -3.76834 0
M  V30 21522 H 2110.2 0.361809 -2.92874 0
M  V30 21523 H 2110.28 -1.26009 -2.2261 0
M  V30 21524 H 2109.92 -2.25975 -4.5486 0
M  V30 21525 H 2109.85 -0.615163 -5.22995 0
M  V30 21526 H 2112.34 -0.839749 -3.68452 0
M  V30 21527 H 2112.66 -2.32129 -7.37113 0
M  V30 21528 H 2111 -2.08097 -6.63114 0
M  V30 21529 H 2114.19 -1.12217 -4.5445 0
M  V30 21530 H 2114.36 -1.79754 -6.22569 0
M  V30 21531 N 2107.77 1.56011 -0.223262 0
M  V30 21532 C 2108.7 2.23355 0.680795 0
M  V30 21533 C 2109.68 1.20584 1.19973 0
M  V30 21534 O 2110.87 1.49174 1.24342 0
M  V30 21535 C 2108 2.91478 1.88833 0
M  V30 21536 C 2106.95 4.00736 1.50316 0
M  V30 21537 C 2106.28 4.56164 2.7896 0
M  V30 21538 C 2107.58 5.17697 0.69188 0
M  V30 21539 H 2109.27 2.99162 0.119304 0
M  V30 21540 H 2106.82 1.43891 0.055942 0
M  V30 21541 H 2108.77 3.37282 2.52623 0
M  V30 21542 H 2107.49 2.13121 2.47481 0
M  V30 21543 H 2106.15 3.55665 0.888708 0
M  V30 21544 H 2105.8 3.74535 3.35757 0
M  V30 21545 H 2105.5 5.29903 2.53922 0
M  V30 21546 H 2107.02 5.04687 3.43691 0
M  V30 21547 H 2108.44 5.59872 1.23353 0
M  V30 21548 H 2106.84 5.97679 0.538515 0
M  V30 21549 H 2107.91 4.83964 -0.301131 0
M  V30 21550 N 2109.25 -0.0501116 1.5752 0
M  V30 21551 C 2110.5 -0.744028 1.87476 0
M  V30 21552 C 2110.81 -1.77631 0.818943 0
M  V30 21553 O 2112.02 -2.52133 1.00703 0
M  V30 21554 C 2110.47 -1.37429 3.32628 0
M  V30 21555 C 2110.08 -0.379458 4.4639 0
M  V30 21556 C 2111.82 -2.04931 3.71757 0
M  V30 21557 C 2109.73 -1.01687 5.82592 0
M  V30 21558 H 2108.66 -0.281635 0.699427 0
M  V30 21559 H 2111.31 0.00219827 1.835 0
M  V30 21560 H 2109.69 -2.16952 3.31282 0
M  V30 21561 H 2110.87 0.387526 4.59168 0
M  V30 21562 H 2109.18 0.1923 4.15956 0
M  V30 21563 H 2111.78 -2.53436 4.70823 0
M  V30 21564 H 2112.12 -2.85832 3.02665 0
M  V30 21565 H 2112.66 -1.32212 3.75186 0
M  V30 21566 H 2109.4 -0.247733 6.55032 0
M  V30 21567 H 2108.92 -1.7542 5.73575 0
M  V30 21568 H 2110.59 -1.53041 6.28639 0
M  V30 21569 N 2110.73 -1.54276 -0.321972 0
M  V30 21570 C 2111.64 -1.86797 -1.41929 0
M  V30 21571 C 2112.65 -0.760051 -1.56522 0
M  V30 21572 O 2113.83 -1.0545 -1.71588 0
M  V30 21573 C 2110.89 -2.09003 -2.7662 0
M  V30 21574 C 2109.95 -3.32799 -2.71189 0
M  V30 21575 C 2109.19 -3.53936 -3.99456 0
M  V30 21576 O 2109.41 -2.78482 -4.97799 0
M  V30 21577 O 2108.34 -4.47417 -4.02619 0
M  V30 21578 H 2112.17 -2.8011 -1.17355 0
M  V30 21579 H 2109.76 -1.40201 -0.516141 0
M  V30 21580 H 2111.64 -2.2493 -3.56349 0
M  V30 21581 H 2110.31 -1.18879 -3.01081 0
M  V30 21582 H 2109.22 -3.22256 -1.90006 0
M  V30 21583 H 2110.55 -4.22986 -2.51683 0
M  V30 21584 N 2112.2 0.584116 -1.46376 0
M  V30 21585 C 2113.15 1.69328 -1.56833 0
M  V30 21586 C 2114.12 1.60891 -0.412719 0
M  V30 21587 O 2115.31 1.80124 -0.629286 0
M  V30 21588 C 2112.45 3.07663 -1.56324 0
M  V30 21589 C 2111.56 3.26736 -2.82609 0
M  V30 21590 C 2110.69 4.55312 -2.73613 0
M  V30 21591 C 2109.73 4.67723 -3.94844 0
M  V30 21592 N 2108.87 5.87624 -3.84243 0
M  V30 21593 H 2113.71 1.59727 -2.51577 0
M  V30 21594 H 2111.25 0.778493 -1.24811 0
M  V30 21595 H 2113.21 3.87731 -1.54014 0
M  V30 21596 H 2111.84 3.16165 -0.651131 0
M  V30 21597 H 2110.89 2.40283 -2.94904 0
M  V30 21598 H 2112.2 3.31775 -3.72461 0
M  V30 21599 H 2111.35 5.43606 -2.69401 0
M  V30 21600 H 2110.09 4.52709 -1.81399 0
M  V30 21601 H 2109.1 3.77847 -3.99389 0
M  V30 21602 H 2110.32 4.72106 -4.88152 0
M  V30 21603 H 2108.27 5.86021 -2.94814 0
M  V30 21604 H 2108.19 5.93925 -4.67749 0
M  V30 21605 H 2109.45 6.78352 -3.84003 0
M  V30 21606 N 2113.68 1.34058 0.828631 0
M  V30 21607 C 2114.62 1.21002 1.94657 0
M  V30 21608 C 2115.63 0.138478 1.6221 0
M  V30 21609 O 2116.82 0.389824 1.74191 0
M  V30 21610 C 2113.92 0.835704 3.28434 0
M  V30 21611 C 2113.09 2.00103 3.88944 0
M  V30 21612 C 2112.15 1.60604 5.01092 0
M  V30 21613 O 2111.18 2.32182 5.19692 0
M  V30 21614 N 2112.38 0.516907 5.78194 0
M  V30 21615 H 2115.14 2.17309 2.0639 0
M  V30 21616 H 2112.7 1.26938 1.00491 0
M  V30 21617 H 2114.7 0.553361 4.00899 0
M  V30 21618 H 2113.27 -0.0370007 3.12578 0
M  V30 21619 H 2112.49 2.44843 3.08943 0
M  V30 21620 H 2113.77 2.78052 4.26104 0
M  V30 21621 H 2113.17 -0.0782718 5.65646 0
M  V30 21622 H 2111.73 0.294274 6.51135 0
M  V30 21623 N 2115.16 -1.04814 1.17694 0
M  V30 21624 C 2116.12 -2.10819 0.899339 0
M  V30 21625 C 2117.12 -1.60409 -0.112116 0
M  V30 21626 O 2118.31 -1.73783 0.120484 0
M  V30 21627 C 2115.45 -3.39121 0.34786 0
M  V30 21628 H 2116.64 -2.36878 1.83926 0
M  V30 21629 H 2114.19 -1.21119 0.987923 0
M  V30 21630 H 2114.93 -3.1872 -0.599026 0
M  V30 21631 H 2114.71 -3.77022 1.07688 0
M  V30 21632 H 2116.2 -4.17245 0.172084 0
M  V30 21633 N 2116.64 -0.977779 -1.23601 0
M  V30 21634 C 2118.05 -0.682573 -1.73775 0
M  V30 21635 C 2118.4 0.801323 -1.7909 0
M  V30 21636 O 2117.53 1.6268 -1.42703 0
M  V30 21637 C 2118.12 -1.23234 -3.15593 0
M  V30 21638 C 2116.68 -0.986829 -3.63234 0
M  V30 21639 C 2115.83 -1.36164 -2.41567 0
M  V30 21640 H 2118.78 -1.15193 -1.09162 0
M  V30 21641 H 2118.8 -0.603486 -3.75684 0
M  V30 21642 H 2118.31 -2.31235 -3.11692 0
M  V30 21643 H 2116.41 0.0772124 -3.7252 0
M  V30 21644 H 2116.53 -1.63956 -4.50172 0
M  V30 21645 H 2114.89 -0.780079 -2.4246 0
M  V30 21646 H 2115.67 -2.45136 -2.4034 0
M  V30 21647 N 2118.12 1.38658 -0.749111 0
M  V30 21648 C 2119.03 2.34291 -0.120373 0
M  V30 21649 C 2120.04 1.59043 0.705796 0
M  V30 21650 O 2121.22 1.9126 0.63099 0
M  V30 21651 C 2118.28 3.38141 0.765626 0
M  V30 21652 C 2117.35 4.29236 -0.0744037 0
M  V30 21653 C 2116.58 5.28125 0.769401 0
M  V30 21654 O 2116.8 5.33902 2.0076 0
M  V30 21655 O 2115.74 6.01598 0.190576 0
M  V30 21656 H 2119.56 2.89744 -0.910056 0
M  V30 21657 H 2117.15 1.40428 -0.509948 0
M  V30 21658 H 2119.03 4.0174 1.27214 0
M  V30 21659 H 2117.7 2.8505 1.53388 0
M  V30 21660 H 2116.61 3.68812 -0.626761 0
M  V30 21661 H 2117.94 4.85569 -0.805208 0
M  V30 21662 N 2119.6 0.497834 1.49531 0
M  V30 21663 C 2120.54 -0.296019 2.30709 0
M  V30 21664 C 2121.54 -0.965727 1.39176 0
M  V30 21665 O 2122.74 -0.893777 1.56242 0
M  V30 21666 H 2119.12 -0.114319 0.74326 0
M  V30 21667 H 2121.09 0.408679 2.95588 0
M  V30 21668 C 2119.84 -1.34956 3.20441 0
M  V30 21669 H 2119.16 -0.843631 3.90798 0
M  V30 21670 H 2120.6 -1.87706 3.80187 0
M  V30 21671 C 2119.06 -2.36602 2.39836 0
M  V30 21672 O 2119.59 -3.4242 2.10027 0
M  V30 21673 N 2117.8 -2.08992 2.01918 0
M  V30 21674 H 2117.34 -1.2296 2.2636 0
M  V30 21675 H 2117.3 -2.7723 1.48293 0
M  V30 21676 N 2121.07 -1.5589 0.231532 0
M  V30 21677 C 2122.02 -2.20725 -0.674461 0
M  V30 21678 C 2122.99 -1.16607 -1.18288 0
M  V30 21679 O 2124.18 -1.44999 -1.24016 0
M  V30 21680 C 2121.32 -2.89876 -1.87259 0
M  V30 21681 C 2120.43 -4.08613 -1.40213 0
M  V30 21682 C 2119.56 -4.6552 -2.55861 0
M  V30 21683 C 2118.6 -5.76537 -2.05601 0
M  V30 21684 N 2117.74 -6.27692 -3.14558 0
M  V30 21685 H 2122.58 -2.97779 -0.114866 0
M  V30 21686 H 2120.12 -1.47031 -0.0449395 0
M  V30 21687 H 2122.07 -3.28159 -2.57619 0
M  V30 21688 H 2120.7 -2.15324 -2.4049 0
M  V30 21689 H 2119.76 -3.75748 -0.593106 0
M  V30 21690 H 2121.07 -4.88802 -0.993676 0
M  V30 21691 H 2120.22 -5.06297 -3.34288 0
M  V30 21692 H 2118.96 -3.84514 -3.00001 0
M  V30 21693 H 2117.97 -5.35252 -1.25639 0
M  V30 21694 H 2119.19 -6.59384 -1.62449 0
M  V30 21695 H 2117.14 -5.49597 -3.58161 0
M  V30 21696 H 2117.05 -7.03032 -2.77996 0
M  V30 21697 H 2118.32 -6.73127 -3.93091 0
M  V30 21698 N 2122.55 0.0417572 -1.57545 0
M  V30 21699 C 2123.51 1.03085 -2.0471 0
M  V30 21700 C 2124.51 1.29808 -0.94903 0
M  V30 21701 O 2125.7 1.25024 -1.21304 0
M  V30 21702 C 2122.84 2.367 -2.45329 0
M  V30 21703 H 2124.03 0.623701 -2.93343 0
M  V30 21704 H 2121.58 0.288275 -1.53619 0
M  V30 21705 H 2122.32 2.82188 -1.59813 0
M  V30 21706 H 2122.1 2.18637 -3.25485 0
M  V30 21707 H 2123.59 3.07737 -2.8229 0
M  V30 21708 N 2124.03 1.54445 0.313786 0
M  V30 21709 C 2125.28 1.73117 1.05056 0
M  V30 21710 C 2125.6 0.510078 1.87692 0
M  V30 21711 O 2124.86 -0.508109 1.88989 0
M  V30 21712 C 2125.16 2.96492 1.99568 0
M  V30 21713 C 2124.82 4.30835 1.3301 0
M  V30 21714 C 2123.49 4.67357 1.14589 0
M  V30 21715 C 2125.84 5.14169 0.853216 0
M  V30 21716 C 2123.17 5.84803 0.471447 0
M  V30 21717 C 2125.52 6.32307 0.192549 0
M  V30 21718 C 2124.18 6.675 -0.00372174 0
M  V30 21719 H 2123.45 0.633479 0.384428 0
M  V30 21720 H 2126.1 1.88693 0.326706 0
M  V30 21721 H 2124.4 2.75643 2.78438 0
M  V30 21722 H 2126.1 3.08133 2.56623 0
M  V30 21723 H 2122.69 4.02107 1.48351 0
M  V30 21724 H 2126.88 4.86462 0.983284 0
M  V30 21725 H 2122.13 6.10622 0.308274 0
M  V30 21726 H 2126.31 6.96154 -0.184925 0
M  V30 21727 H 2123.93 7.58362 -0.52835 0
M  V30 21728 N 2125.51 -0.576345 1.46683 0
M  V30 21729 C 2126.75 -1.3363 1.52548 0
M  V30 21730 C 2127.09 -1.93371 0.179205 0
M  V30 21731 O 2126.36 -1.76827 -0.810088 0
M  V30 21732 C 2126.64 -2.46086 2.62895 0
M  V30 21733 C 2126.5 -1.91338 4.07075 0
M  V30 21734 C 2127.82 -3.48104 2.6928 0
M  V30 21735 H 2124.94 -0.484517 0.555349 0
M  V30 21736 H 2127.58 -0.646838 1.78651 0
M  V30 21737 H 2125.73 -3.04898 2.40769 0
M  V30 21738 H 2127.4 -1.36934 4.40507 0
M  V30 21739 H 2125.64 -1.22127 4.16254 0
M  V30 21740 H 2126.31 -2.72545 4.80024 0
M  V30 21741 H 2128.79 -2.99183 2.89187 0
M  V30 21742 H 2127.67 -4.2424 3.48298 0
M  V30 21743 H 2127.93 -4.05739 1.7558 0
M  V30 21744 N 2126.99 -1.34495 -0.82151 0
M  V30 21745 C 2127.92 -1.28835 -1.94741 0
M  V30 21746 C 2128.9 -0.165528 -1.69293 0
M  V30 21747 O 2130.08 -0.358115 -1.9087 0
M  V30 21748 C 2127.21 -1.04446 -3.31222 0
M  V30 21749 C 2126.17 -2.13209 -3.71114 0
M  V30 21750 C 2125.49 -1.74007 -5.05594 0
M  V30 21751 C 2126.79 -3.55051 -3.83062 0
M  V30 21752 H 2128.49 -2.23039 -1.99734 0
M  V30 21753 H 2126.03 -1.07369 -0.959573 0
M  V30 21754 H 2127.98 -0.991306 -4.09574 0
M  V30 21755 H 2126.71 -0.0668391 -3.26532 0
M  V30 21756 H 2125.37 -2.17597 -2.95038 0
M  V30 21757 H 2125.02 -0.749021 -4.97392 0
M  V30 21758 H 2124.72 -2.46803 -5.33256 0
M  V30 21759 H 2126.24 -1.7019 -5.86402 0
M  V30 21760 H 2127.65 -3.53068 -4.51681 0
M  V30 21761 H 2126.05 -4.2648 -4.22179 0
M  V30 21762 H 2127.12 -3.92289 -2.85021 0
M  V30 21763 N 2128.46 1.04188 -1.18248 0
M  V30 21764 C 2129.69 1.81559 -1.00255 0
M  V30 21765 C 2130.11 1.82777 0.444336 0
M  V30 21766 O 2129.47 1.24417 1.31872 0
M  V30 21767 C 2129.52 3.25089 -1.56044 0
M  V30 21768 O 2128.62 4.04938 -0.780971 0
M  V30 21769 H 2127.97 0.560976 -0.355248 0
M  V30 21770 H 2130.5 1.31223 -1.56977 0
M  V30 21771 H 2130.51 3.75869 -1.58703 0
M  V30 21772 H 2129.18 3.23517 -2.61361 0
M  V30 21773 H 2127.76 3.63623 -0.826593 0
M  V30 21774 N 2129.94 0.98432 1.23081 0
M  V30 21775 C 2131.17 0.673202 1.9617 0
M  V30 21776 C 2131.59 -0.753958 1.72328 0
M  V30 21777 O 2130.95 -1.51414 0.997167 0
M  V30 21778 C 2131 0.974266 3.47189 0
M  V30 21779 O 2130.1 0.0683695 4.12343 0
M  V30 21780 H 2129.44 0.252801 0.613993 0
M  V30 21781 H 2131.97 1.31898 1.5641 0
M  V30 21782 H 2131.98 0.912577 3.97663 0
M  V30 21783 H 2130.66 2.01426 3.63868 0
M  V30 21784 H 2129.24 0.184805 3.72442 0
M  V30 21785 N 2131.42 -1.38259 0.756453 0
M  V30 21786 C 2132.67 -2.00349 0.314356 0
M  V30 21787 C 2133 -1.5991 -1.10192 0
M  V30 21788 O 2132.27 -0.837999 -1.75522 0
M  V30 21789 C 2132.56 -3.57396 0.440504 0
M  V30 21790 C 2132.41 -4.0779 1.8981 0
M  V30 21791 C 2133.73 -4.39793 -0.164403 0
M  V30 21792 H 2130.85 -0.727862 0.115697 0
M  V30 21793 H 2133.49 -1.6416 0.956635 0
M  V30 21794 H 2131.64 -3.88355 -0.106298 0
M  V30 21795 H 2133.31 -3.87461 2.50343 0
M  V30 21796 H 2131.56 -3.6055 2.41218 0
M  V30 21797 H 2132.23 -5.1688 1.9375 0
M  V30 21798 H 2134.7 -4.15003 0.301971 0
M  V30 21799 H 2133.58 -5.48881 -0.0459121 0
M  V30 21800 H 2133.84 -4.23971 -1.25303 0
M  V30 21801 N 2132.9 -0.505757 -1.49264 0
M  V30 21802 C 2134.18 0.100315 -1.95343 0
M  V30 21803 C 2134.56 1.53667 -1.44739 0
M  V30 21804 O 2133.9 2.18663 -0.663221 0
M  V30 21805 C 2134.11 0.00805543 -3.48999 0
M  V30 21806 C 2135.46 0.179587 -4.2422 0
M  V30 21807 O 2136.49 0.0830161 -3.56103 0
M  V30 21808 O 2135.34 0.378466 -5.45188 0
M  V30 21809 H 2132.44 0.0926837 -0.82179 0
M  V30 21810 H 2134.98 -0.568634 -1.59889 0
M  V30 21811 H 2133.76 -0.993441 -3.78479 0
M  V30 21812 H 2133.38 0.716938 -3.91083 0
M  V30 21813 N 2134.38 1.55765 -0.239796 0
M  V30 21814 C 2135.29 2.2472 0.673658 0
M  V30 21815 C 2136.3 1.26091 1.19904 0
M  V30 21816 O 2137.48 1.5895 1.23681 0
M  V30 21817 C 2134.54 2.92772 1.85702 0
M  V30 21818 C 2133.6 4.06792 1.37182 0
M  V30 21819 C 2132.84 4.7159 2.49878 0
M  V30 21820 O 2133.06 4.35437 3.68443 0
M  V30 21821 O 2131.99 5.60237 2.2004 0
M  V30 21822 H 2135.82 3.03478 0.116142 0
M  V30 21823 H 2133.41 1.49398 -0.00858773 0
M  V30 21824 H 2135.29 3.3566 2.54774 0
M  V30 21825 H 2133.96 2.1696 2.40229 0
M  V30 21826 H 2132.87 3.68435 0.648582 0
M  V30 21827 H 2134.2 4.84401 0.872717 0
M  V30 21828 N 2135.85 -0.0334016 1.57565 0
M  V30 21829 C 2136.78 -1.03494 2.09312 0
M  V30 21830 C 2137.77 -1.37985 0.9947 0
M  V30 21831 O 2138.95 -1.46944 1.26969 0
M  V30 21832 C 2136.08 -2.33717 2.56892 0
M  V30 21833 C 2135.03 -2.1348 3.70959 0
M  V30 21834 C 2134.36 -3.49425 4.0473 0
M  V30 21835 C 2135.66 -1.52451 4.99556 0
M  V30 21836 H 2137.35 -0.60419 2.9324 0
M  V30 21837 H 2134.9 -0.289182 1.41066 0
M  V30 21838 H 2136.85 -3.04107 2.91714 0
M  V30 21839 H 2135.58 -2.78843 1.70041 0
M  V30 21840 H 2134.24 -1.45523 3.3648 0
M  V30 21841 H 2133.88 -3.92192 3.14952 0
M  V30 21842 H 2133.58 -3.36711 4.81559 0
M  V30 21843 H 2135.11 -4.21184 4.42082 0
M  V30 21844 H 2136.52 -2.12753 5.32362 0
M  V30 21845 H 2134.92 -1.50324 5.80967 0
M  V30 21846 H 2135.99 -0.48986 4.82419 0
M  V30 21847 N 2137.33 -1.54609 -0.305591 0
M  V30 21848 C 2138.24 -1.88292 -1.3994 0
M  V30 21849 C 2139.26 -0.77661 -1.55707 0
M  V30 21850 O 2140.43 -1.07264 -1.7046 0
M  V30 21851 C 2137.5 -2.11925 -2.74388 0
M  V30 21852 C 2136.56 -3.35656 -2.67644 0
M  V30 21853 C 2135.79 -3.58152 -3.9568 0
M  V30 21854 O 2136.02 -2.83746 -4.94818 0
M  V30 21855 O 2134.95 -4.51662 -3.97851 0
M  V30 21856 H 2138.78 -2.81339 -1.14378 0
M  V30 21857 H 2136.36 -1.40741 -0.501242 0
M  V30 21858 H 2138.24 -2.28697 -3.53943 0
M  V30 21859 H 2136.92 -1.22065 -2.99803 0
M  V30 21860 H 2135.83 -3.24253 -1.86577 0
M  V30 21861 H 2137.16 -4.25631 -2.47182 0
M  V30 21862 N 2138.81 0.568558 -1.46987 0
M  V30 21863 C 2139.74 1.69147 -1.54668 0
M  V30 21864 C 2140.76 1.56914 -0.433789 0
M  V30 21865 O 2141.94 1.6408 -0.702853 0
M  V30 21866 C 2139.04 3.07522 -1.4242 0
M  V30 21867 C 2138.22 3.45619 -2.68078 0
M  V30 21868 C 2137.28 4.63111 -2.49829 0
M  V30 21869 O 2136.3 4.68261 -3.23605 0
M  V30 21870 N 2137.5 5.5889 -1.56914 0
M  V30 21871 H 2140.27 1.63008 -2.51492 0
M  V30 21872 H 2137.83 0.75491 -1.43223 0
M  V30 21873 H 2139.82 3.83937 -1.27963 0
M  V30 21874 H 2138.39 3.07949 -0.537222 0
M  V30 21875 H 2137.61 2.58767 -2.97378 0
M  V30 21876 H 2138.9 3.67844 -3.51523 0
M  V30 21877 H 2138.3 5.57477 -0.961042 0
M  V30 21878 H 2136.86 6.34678 -1.48414 0
M  V30 21879 N 2140.29 1.34929 0.814366 0
M  V30 21880 C 2141.22 1.2306 1.93362 0
M  V30 21881 C 2142.23 0.155675 1.62054 0
M  V30 21882 O 2143.42 0.408278 1.73768 0
M  V30 21883 C 2140.52 0.870492 3.2753 0
M  V30 21884 C 2139.7 2.04217 3.868 0
M  V30 21885 C 2138.75 1.65909 4.9936 0
M  V30 21886 O 2137.78 2.37681 5.172 0
M  V30 21887 N 2138.98 0.578203 5.77613 0
M  V30 21888 H 2141.75 2.19486 2.04074 0
M  V30 21889 H 2139.31 1.27996 0.991391 0
M  V30 21890 H 2141.3 0.59585 4.0029 0
M  V30 21891 H 2139.87 -0.00384556 3.126 0
M  V30 21892 H 2139.09 2.48106 3.06328 0
M  V30 21893 H 2140.38 2.82556 4.23131 0
M  V30 21894 H 2139.78 -0.0182731 5.65697 0
M  V30 21895 H 2138.33 0.363319 6.50787 0
M  V30 21896 N 2141.77 -1.0356 1.18799 0
M  V30 21897 C 2143.18 -1.29071 0.938761 0
M  V30 21898 C 2143.38 -1.97635 -0.39276 0
M  V30 21899 O 2142.44 -2.26009 -1.12588 0
M  V30 21900 C 2143.75 -2.14442 2.10797 0
M  V30 21901 C 2145.3 -2.27772 2.14684 0
M  V30 21902 C 2145.77 -3.16511 3.31036 0
M  V30 21903 N 2147.27 -3.24099 3.30929 0
M  V30 21904 C 2148 -3.92932 4.17603 0
M  V30 21905 N 2147.5 -4.64053 5.14419 0
M  V30 21906 N 2149.29 -3.89263 4.05501 0
M  V30 21907 H 2141.44 -0.57466 2.04478 0
M  V30 21908 H 2143.7 -0.316119 0.893741 0
M  V30 21909 H 2143.41 -1.71376 3.07121 0
M  V30 21910 H 2143.28 -3.15136 2.0729 0
M  V30 21911 H 2145.67 -2.70072 1.18934 0
M  V30 21912 H 2145.75 -1.26651 2.22246 0
M  V30 21913 H 2145.4 -2.74921 4.27061 0
M  V30 21914 H 2145.33 -4.17675 3.20711 0
M  V30 21915 H 2147.82 -2.7344 2.60843 0
M  V30 21916 H 2148.13 -5.14187 5.76916 0
M  V30 21917 H 2146.47 -4.62941 5.18373 0
M  V30 21918 H 2149.67 -3.32836 3.29147 0
M  V30 21919 H 2149.84 -4.42635 4.73263 0
M  V30 21920 N 2143.25 -0.990834 -1.22557 0
M  V30 21921 C 2144.52 -0.581554 -1.86755 0
M  V30 21922 C 2144.9 0.941178 -1.88958 0
M  V30 21923 O 2144.25 1.82226 -1.37862 0
M  V30 21924 C 2144.46 -1.19961 -3.27735 0
M  V30 21925 C 2145.81 -1.29885 -4.04246 0
M  V30 21926 O 2146.83 -1.15385 -3.36994 0
M  V30 21927 O 2145.69 -1.53066 -5.24626 0
M  V30 21928 H 2142.79 -0.197289 -0.803123 0
M  V30 21929 H 2145.33 -1.08658 -1.30351 0
M  V30 21930 H 2144.1 -2.24125 -3.20755 0
M  V30 21931 H 2143.73 -0.680045 -3.91741 0
M  V30 21932 N 2144.72 1.37856 -0.763775 0
M  V30 21933 C 2145.63 2.3415 -0.145216 0
M  V30 21934 C 2146.65 1.59782 0.688888 0
M  V30 21935 O 2147.83 1.91919 0.610668 0
M  V30 21936 C 2144.89 3.38934 0.729718 0
M  V30 21937 C 2143.95 4.29132 -0.119926 0
M  V30 21938 C 2143.18 5.28911 0.713343 0
M  V30 21939 O 2143.41 5.36002 1.95086 0
M  V30 21940 O 2142.34 6.01767 0.126758 0
M  V30 21941 H 2146.17 2.88763 -0.940736 0
M  V30 21942 H 2143.75 1.39879 -0.524814 0
M  V30 21943 H 2145.63 4.03066 1.22946 0
M  V30 21944 H 2144.31 2.86661 1.50356 0
M  V30 21945 H 2143.22 3.68127 -0.665843 0
M  V30 21946 H 2144.55 4.84688 -0.856664 0
M  V30 21947 N 2146.2 0.513665 1.48994 0
M  V30 21948 C 2147.45 -0.0282469 2.0168 0
M  V30 21949 C 2147.76 -1.36865 1.3974 0
M  V30 21950 O 2148.97 -1.99799 1.83828 0
M  V30 21951 C 2147.43 -0.100776 3.59759 0
M  V30 21952 C 2147.03 1.23375 4.30677 0
M  V30 21953 C 2148.78 -0.592381 4.20346 0
M  V30 21954 C 2146.68 1.12269 5.80646 0
M  V30 21955 H 2145.61 -0.0143288 0.753864 0
M  V30 21956 H 2148.27 0.654994 1.71412 0
M  V30 21957 H 2146.65 -0.848743 3.86798 0
M  V30 21958 H 2147.82 1.996 4.15327 0
M  V30 21959 H 2146.14 1.65979 3.8189 0
M  V30 21960 H 2148.73 -0.69318 5.30188 0
M  V30 21961 H 2149.08 -1.59429 3.84562 0
M  V30 21962 H 2149.61 0.0994202 3.97676 0
M  V30 21963 H 2146.35 2.09925 6.20976 0
M  V30 21964 H 2145.87 0.401536 5.98454 0
M  V30 21965 H 2147.55 0.806614 6.41952 0
M  V30 21966 N 2147.68 -1.55636 0.248053 0
M  V30 21967 C 2148.93 -1.99266 -0.376927 0
M  V30 21968 C 2149.26 -1.13602 -1.57506 0
M  V30 21969 O 2148.53 -0.199686 -1.93472 0
M  V30 21970 C 2148.82 -3.51425 -0.785664 0
M  V30 21971 C 2148.67 -4.47854 0.417942 0
M  V30 21972 C 2149.99 -4.08714 -1.63221 0
M  V30 21973 H 2147.11 -0.724431 -0.135531 0
M  V30 21974 H 2149.75 -1.86756 0.349594 0
M  V30 21975 H 2147.9 -3.62216 -1.40469 0
M  V30 21976 H 2149.57 -4.49041 1.05638 0
M  V30 21977 H 2147.81 -4.20629 1.06084 0
M  V30 21978 H 2148.49 -5.51929 0.0886002 0
M  V30 21979 H 2150.96 -4.01031 -1.10966 0
M  V30 21980 H 2149.84 -5.15443 -1.88706 0
M  V30 21981 H 2150.1 -3.57242 -2.60443 0
M  V30 21982 N 2149.16 0.0250451 -1.5758 0
M  V30 21983 C 2150.38 0.730408 -1.94113 0
M  V30 21984 C 2150.81 1.67882 -0.848362 0
M  V30 21985 O 2150.17 1.80242 0.195596 0
M  V30 21986 C 2150.21 1.46014 -3.29715 0
M  V30 21987 O 2149.32 2.57351 -3.22249 0
M  V30 21988 H 2148.66 0.196157 -0.634365 0
M  V30 21989 H 2151.19 -0.0206802 -2.0459 0
M  V30 21990 H 2151.2 1.82917 -3.64699 0
M  V30 21991 H 2149.87 0.764593 -4.08811 0
M  V30 21992 H 2148.45 2.22961 -2.98903 0
M  V30 21993 N 2150.64 1.54769 0.297388 0
M  V30 21994 C 2151.87 1.77959 1.04948 0
M  V30 21995 C 2152.27 0.54095 1.81302 0
M  V30 21996 O 2151.62 -0.498902 1.76796 0
M  V30 21997 C 2151.68 2.93664 2.07368 0
M  V30 21998 C 2151.34 4.3162 1.50177 0
M  V30 21999 C 2152.34 5.11516 0.929935 0
M  V30 22000 C 2150.02 4.78229 1.53631 0
M  V30 22001 C 2152.02 6.36142 0.400253 0
M  V30 22002 C 2149.71 6.02817 1.00276 0
M  V30 22003 C 2150.7 6.81609 0.435703 0
M  V30 22004 O 2150.39 8.0385 -0.0897463 0
M  V30 22005 H 2150.12 0.597144 0.316852 0
M  V30 22006 H 2152.68 2.02548 0.341093 0
M  V30 22007 H 2150.91 2.64708 2.81898 0
M  V30 22008 H 2152.6 3.04398 2.68509 0
M  V30 22009 H 2153.36 4.76649 0.896125 0
M  V30 22010 H 2149.24 4.16926 1.96707 0
M  V30 22011 H 2152.79 6.97587 -0.0430005 0
M  V30 22012 H 2148.68 6.37169 1.03373 0
M  V30 22013 H 2149.45 8.18497 0.0232118 0
M  V30 22014 N 2152.11 -0.560755 1.47286 0
M  V30 22015 C 2153.04 -1.67792 1.62383 0
M  V30 22016 C 2154.02 -1.6338 0.473377 0
M  V30 22017 O 2155.21 -1.81057 0.702288 0
M  V30 22018 C 2152.34 -3.06431 1.63454 0
M  V30 22019 C 2151.29 -3.25688 2.7769 0
M  V30 22020 C 2150.62 -4.65078 2.63831 0
M  V30 22021 C 2151.92 -3.11404 4.19315 0
M  V30 22022 H 2153.61 -1.55414 2.55904 0
M  V30 22023 H 2151.16 -0.746251 1.23155 0
M  V30 22024 H 2153.11 -3.84428 1.72606 0
M  V30 22025 H 2151.84 -3.1976 0.664904 0
M  V30 22026 H 2150.5 -2.50098 2.68042 0
M  V30 22027 H 2150.14 -4.75201 1.64904 0
M  V30 22028 H 2149.84 -4.78911 3.40467 0
M  V30 22029 H 2151.37 -5.45214 2.74907 0
M  V30 22030 H 2152.78 -3.79222 4.29958 0
M  V30 22031 H 2151.18 -3.36749 4.9671 0
M  V30 22032 H 2152.25 -2.08195 4.3793 0
M  V30 22033 N 2153.59 -1.35359 -0.807199 0
M  V30 22034 C 2154.83 -1.29962 -1.57763 0
M  V30 22035 C 2155.2 0.124572 -1.91595 0
M  V30 22036 O 2156.4 0.302903 -2.67088 0
M  V30 22037 C 2154.67 -2.18018 -2.83202 0
M  V30 22038 S 2156.23 -2.3013 -3.73611 0
M  V30 22039 H 2153.04 -0.461874 -0.540549 0
M  V30 22040 H 2155.65 -1.70743 -0.952207 0
M  V30 22041 H 2154.35 -3.20473 -2.56369 0
M  V30 22042 H 2153.88 -1.78191 -3.5073 0
M  V30 22043 H 2155.9 -1.48567 -4.73437 0
M  V30 22044 N 2155.07 1.02928 -1.19346 0
M  V30 22045 C 2156.35 1.73394 -0.905199 0
M  V30 22046 C 2156.73 2.02711 0.589208 0
M  V30 22047 O 2156.07 1.68142 1.54727 0
M  V30 22048 C 2156.28 3.01097 -1.7647 0
M  V30 22049 C 2157.63 3.74613 -1.99876 0
M  V30 22050 O 2158.66 3.11023 -1.73618 0
M  V30 22051 O 2157.52 4.88931 -2.44149 0
M  V30 22052 H 2154.61 0.755081 -0.337316 0
M  V30 22053 H 2157.16 1.08891 -1.30157 0
M  V30 22054 H 2155.93 2.75657 -2.77721 0
M  V30 22055 H 2155.55 3.7334 -1.36758 0
M  V30 22056 N 2156.55 0.997319 1.2203 0
M  V30 22057 C 2157.48 0.571319 2.26403 0
M  V30 22058 C 2158.46 -0.404025 1.65232 0
M  V30 22059 O 2159.64 -0.293692 1.91966 0
M  V30 22060 C 2156.77 -0.110472 3.47124 0
M  V30 22061 C 2155.73 0.783865 4.20761 0
M  V30 22062 C 2155.05 -0.0310887 5.34691 0
M  V30 22063 C 2156.35 2.08283 4.78974 0
M  V30 22064 H 2158.05 1.44376 2.6229 0
M  V30 22065 H 2155.59 0.695656 1.26082 0
M  V30 22066 H 2157.55 -0.419919 4.19303 0
M  V30 22067 H 2156.27 -1.01749 3.10346 0
M  V30 22068 H 2154.93 1.07702 3.50422 0
M  V30 22069 H 2154.58 -0.939162 4.94155 0
M  V30 22070 H 2154.28 0.564316 5.84884 0
M  V30 22071 H 2155.8 -0.334528 6.09683 0
M  V30 22072 H 2157.22 1.83704 5.43071 0
M  V30 22073 H 2155.61 2.62743 5.39524 0
M  V30 22074 H 2156.68 2.75867 3.9878 0
M  V30 22075 N 2158.03 -1.37449 0.771075 0
M  V30 22076 C 2158.99 -2.28619 0.163149 0
M  V30 22077 C 2159.99 -1.47996 -0.628787 0
M  V30 22078 O 2161.18 -1.68221 -0.452475 0
M  V30 22079 C 2158.31 -3.31942 -0.776372 0
M  V30 22080 H 2159.5 -2.83888 0.966816 0
M  V30 22081 H 2157.06 -1.46703 0.53924 0
M  V30 22082 H 2157.79 -2.81794 -1.60507 0
M  V30 22083 H 2157.58 -3.91534 -0.210683 0
M  V30 22084 H 2159.07 -4.00072 -1.19717 0
M  V30 22085 N 2159.5 -0.52156 -1.4872 0
M  V30 22086 C 2160.92 -0.0789475 -1.86533 0
M  V30 22087 C 2161.27 1.34125 -1.43196 0
M  V30 22088 O 2160.39 2.00307 -0.818913 0
M  V30 22089 C 2160.99 -0.136494 -3.38525 0
M  V30 22090 C 2159.55 0.250879 -3.75563 0
M  V30 22091 C 2158.69 -0.499991 -2.72755 0
M  V30 22092 H 2161.64 -0.733264 -1.40744 0
M  V30 22093 H 2161.66 0.653868 -3.7484 0
M  V30 22094 H 2161.18 -1.17024 -3.70036 0
M  V30 22095 H 2159.28 1.28709 -3.49664 0
M  V30 22096 H 2159.39 -0.0828724 -4.79028 0
M  V30 22097 H 2157.75 0.0527232 -2.54645 0
M  V30 22098 H 2158.54 -1.53421 -3.0711 0
M  V30 22099 N 2160.98 1.55502 -0.256304 0
M  V30 22100 C 2161.89 2.25422 0.649785 0
M  V30 22101 C 2162.91 1.27356 1.1856 0
M  V30 22102 O 2164.08 1.60253 1.21988 0
M  V30 22103 C 2161.15 2.94725 1.82587 0
M  V30 22104 C 2160.21 4.08224 1.32859 0
M  V30 22105 C 2159.44 4.74213 2.44862 0
M  V30 22106 O 2159.67 4.39321 3.63804 0
M  V30 22107 O 2158.6 5.6254 2.14086 0
M  V30 22108 H 2162.43 3.03584 0.083948 0
M  V30 22109 H 2160.01 1.4938 -0.0244329 0
M  V30 22110 H 2161.89 3.38344 2.512 0
M  V30 22111 H 2160.57 2.19495 2.37915 0
M  V30 22112 H 2159.48 3.69102 0.609468 0
M  V30 22113 H 2160.81 4.853 0.82129 0
M  V30 22114 N 2162.46 -0.0166879 1.57591 0
M  V30 22115 C 2163.42 -0.998156 2.06324 0
M  V30 22116 C 2164.42 -1.28282 0.969561 0
M  V30 22117 O 2165.61 -1.23078 1.23278 0
M  V30 22118 C 2162.75 -2.32767 2.49063 0
M  V30 22119 H 2163.94 -0.576954 2.94298 0
M  V30 22120 H 2161.49 -0.263799 1.54058 0
M  V30 22121 H 2162.23 -2.7961 1.64282 0
M  V30 22122 H 2162.01 -2.13431 3.28922 0
M  V30 22123 H 2163.5 -3.03207 2.87151 0
M  V30 22124 N 2163.94 -1.54924 -0.289176 0
M  V30 22125 C 2165.35 -1.65642 -0.861368 0
M  V30 22126 C 2165.7 -0.572803 -1.87652 0
M  V30 22127 O 2164.83 0.288543 -2.14468 0
M  V30 22128 C 2165.42 -3.00274 -1.56911 0
M  V30 22129 C 2163.98 -3.13073 -2.08955 0
M  V30 22130 C 2163.13 -2.61377 -0.926152 0
M  V30 22131 H 2166.08 -1.58563 -0.0658933 0
M  V30 22132 H 2166.1 -2.92358 -2.4353 0
M  V30 22133 H 2165.61 -3.7912 -0.830021 0
M  V30 22134 H 2163.71 -2.38969 -2.85875 0
M  V30 22135 H 2163.82 -4.19404 -2.31596 0
M  V30 22136 H 2162.19 -2.18126 -1.31503 0
M  V30 22137 H 2162.97 -3.42712 -0.200828 0
M  V30 22138 N 2165.42 0.552936 -1.47582 0
M  V30 22139 C 2166.83 1.13504 -1.48235 0
M  V30 22140 C 2167.18 1.94734 -0.239394 0
M  V30 22141 O 2166.3 2.06238 0.655364 0
M  V30 22142 C 2166.9 2.06511 -2.68586 0
M  V30 22143 C 2165.46 2.59985 -2.72185 0
M  V30 22144 C 2164.6 1.36454 -2.41404 0
M  V30 22145 H 2167.56 0.339321 -1.5503 0
M  V30 22146 H 2167.58 2.90453 -2.45799 0
M  V30 22147 H 2167.09 1.47363 -3.59034 0
M  V30 22148 H 2165.19 3.22919 -1.85887 0
M  V30 22149 H 2165.3 3.00687 -3.72994 0
M  V30 22150 H 2163.67 1.6727 -1.92076 0
M  V30 22151 H 2164.45 0.790922 -3.34065 0
M  V30 22152 N 2166.89 1.35785 0.800009 0
M  V30 22153 C 2168.31 1.26354 1.37446 0
M  V30 22154 C 2168.66 -0.101241 1.95939 0
M  V30 22155 O 2167.78 -1.00241 1.91783 0
M  V30 22156 C 2168.38 2.28793 2.49878 0
M  V30 22157 C 2166.94 2.23083 3.03168 0
M  V30 22158 C 2166.08 2.14145 1.76174 0
M  V30 22159 H 2169.03 1.46818 0.602508 0
M  V30 22160 H 2169.05 1.91822 3.2861 0
M  V30 22161 H 2168.57 3.28113 2.07277 0
M  V30 22162 H 2166.67 1.27195 3.50217 0
M  V30 22163 H 2166.78 3.15326 3.60703 0
M  V30 22164 H 2165.14 1.60228 1.97987 0
M  V30 22165 H 2165.93 3.15335 1.35715 0
M  V30 22166 N 2168.37 -1.02294 1.19891 0
M  V30 22167 C 2169.6 -1.79404 1.03062 0
M  V30 22168 C 2170.02 -1.84059 -0.420428 0
M  V30 22169 O 2169.37 -1.28896 -1.29198 0
M  V30 22170 C 2169.42 -3.24174 1.59979 0
M  V30 22171 O 2169.14 -3.19825 2.99405 0
M  V30 22172 C 2170.65 -4.17859 1.48016 0
M  V30 22173 H 2167.87 -0.564396 0.362902 0
M  V30 22174 H 2170.41 -1.28805 1.58838 0
M  V30 22175 H 2168.56 -3.71943 1.08338 0
M  V30 22176 H 2168.98 -4.10647 3.26296 0
M  V30 22177 H 2170.45 -5.17305 1.92611 0
M  V30 22178 H 2170.93 -4.37074 0.431619 0
M  V30 22179 H 2171.54 -3.75968 1.98817 0
M  V30 22180 N 2169.85 -1.00378 -1.21499 0
M  V30 22181 C 2170.78 -0.583318 -2.26097 0
M  V30 22182 C 2171.76 0.395257 -1.65444 0
M  V30 22183 O 2172.95 0.283508 -1.92119 0
M  V30 22184 C 2170.08 0.0920619 -3.47178 0
M  V30 22185 C 2169.03 -0.806168 -4.20339 0
M  V30 22186 C 2168.36 0.0027323 -5.347 0
M  V30 22187 C 2169.66 -2.1082 -4.77862 0
M  V30 22188 H 2171.35 -1.45765 -2.6152 0
M  V30 22189 H 2168.9 -0.702333 -1.25711 0
M  V30 22190 H 2170.85 0.397677 -4.19519 0
M  V30 22191 H 2169.57 1.00102 -3.10881 0
M  V30 22192 H 2168.23 -1.09559 -3.49846 0
M  V30 22193 H 2167.88 0.912942 -4.94646 0
M  V30 22194 H 2167.58 -0.595326 -5.84576 0
M  V30 22195 H 2169.1 0.302191 -6.09852 0
M  V30 22196 H 2170.52 -1.86581 -5.42089 0
M  V30 22197 H 2168.92 -2.656 -5.38123 0
M  V30 22198 H 2169.99 -2.77978 -3.97311 0
M  V30 22199 N 2171.33 1.37038 -0.778354 0
M  V30 22200 C 2172.74 1.82137 -0.41025 0
M  V30 22201 C 2173.09 1.64814 1.06446 0
M  V30 22202 O 2172.22 1.16292 1.82497 0
M  V30 22203 C 2172.81 3.30668 -0.737859 0
M  V30 22204 C 2171.37 3.74019 -0.422727 0
M  V30 22205 C 2170.52 2.59471 -0.978272 0
M  V30 22206 H 2173.47 1.25416 -0.972446 0
M  V30 22207 H 2173.49 3.80492 -0.0249048 0
M  V30 22208 H 2173 3.43244 -1.81123 0
M  V30 22209 H 2171.1 3.67009 0.643056 0
M  V30 22210 H 2171.21 4.69876 -0.935598 0
M  V30 22211 H 2169.58 2.51506 -0.402125 0
M  V30 22212 H 2170.36 2.74837 -2.05717 0
M  V30 22213 N 2172.81 0.529439 1.48441 0
M  V30 22214 C 2174.22 0.0888387 1.86489 0
M  V30 22215 C 2174.57 -1.33364 1.43905 0
M  V30 22216 O 2173.69 -1.9987 0.829524 0
M  V30 22217 C 2174.29 0.154445 3.38448 0
M  V30 22218 C 2172.85 -0.230958 3.75691 0
M  V30 22219 C 2172 0.514449 2.72486 0
M  V30 22220 H 2174.95 0.740717 1.40353 0
M  V30 22221 H 2174.97 -0.63398 3.75181 0
M  V30 22222 H 2174.48 1.18985 3.69411 0
M  V30 22223 H 2172.58 -1.26853 3.50341 0
M  V30 22224 H 2172.69 0.108275 4.78978 0
M  V30 22225 H 2171.06 -0.039218 2.5467 0
M  V30 22226 H 2171.84 1.55048 3.06293 0
M  V30 22227 N 2174.29 -1.55364 0.264547 0
M  V30 22228 C 2175.56 -1.9133 -0.406489 0
M  V30 22229 C 2175.94 -1.18752 -1.74531 0
M  V30 22230 O 2175.29 -0.310831 -2.26376 0
M  V30 22231 C 2175.5 -3.44523 -0.557199 0
M  V30 22232 C 2176.85 -4.16107 -0.844973 0
M  V30 22233 O 2177.87 -3.50359 -0.642406 0
M  V30 22234 O 2176.73 -5.32438 -1.23175 0
M  V30 22235 H 2173.83 -0.796963 -0.220859 0
M  V30 22236 H 2176.37 -1.66846 0.309918 0
M  V30 22237 H 2175.14 -3.89397 0.385423 0
M  V30 22238 H 2174.77 -3.74926 -1.32348 0
M  V30 22239 N 2175.76 0.00833021 -1.57598 0
M  V30 22240 C 2176.7 1.0361 -2.03323 0
M  V30 22241 C 2177.67 1.33969 -0.921475 0
M  V30 22242 O 2178.86 1.46274 -1.18895 0
M  V30 22243 C 2175.99 2.36579 -2.4238 0
M  V30 22244 C 2175.03 2.21938 -3.64205 0
M  V30 22245 S 2175.86 1.55325 -5.12479 0
M  V30 22246 C 2177.02 2.89741 -5.54798 0
M  V30 22247 H 2177.25 0.646724 -2.90181 0
M  V30 22248 H 2174.79 0.218949 -1.5284 0
M  V30 22249 H 2176.74 3.13037 -2.65552 0
M  V30 22250 H 2175.41 2.72658 -1.55937 0
M  V30 22251 H 2174.6 3.20148 -3.89257 0
M  V30 22252 H 2174.2 1.53624 -3.40992 0
M  V30 22253 H 2176.49 3.86052 -5.56749 0
M  V30 22254 H 2177.44 2.69399 -6.54851 0
M  V30 22255 H 2177.84 2.93267 -4.82343 0
M  V30 22256 N 2177.24 1.55075 0.280956 0
M  V30 22257 C 2178.2 1.86644 1.33029 0
M  V30 22258 C 2179.2 0.740496 1.42735 0
M  V30 22259 O 2180.39 1.00871 1.42023 0
M  V30 22260 C 2177.53 2.06462 2.71268 0
M  V30 22261 H 2178.72 2.80439 1.06273 0
M  V30 22262 H 2176.27 1.47445 0.51863 0
M  V30 22263 H 2177.01 1.15021 3.03217 0
M  V30 22264 H 2176.79 2.88433 2.65611 0
M  V30 22265 H 2178.28 2.32186 3.47101 0
M  V30 22266 N 2178.72 -0.545102 1.47873 0
M  V30 22267 C 2179.65 -1.66665 1.57339 0
M  V30 22268 C 2180.66 -1.56204 0.458698 0
M  V30 22269 O 2181.85 -1.62941 0.728868 0
M  V30 22270 C 2178.95 -3.05217 1.47295 0
M  V30 22271 C 2178.13 -3.41311 2.73543 0
M  V30 22272 C 2177.19 -4.59078 2.57165 0
M  V30 22273 O 2176.21 -4.63053 3.31014 0
M  V30 22274 N 2177.41 -5.56323 1.65786 0
M  V30 22275 H 2180.18 -1.58986 2.54054 0
M  V30 22276 H 2177.74 -0.732029 1.44405 0
M  V30 22277 H 2179.73 -3.81853 1.34055 0
M  V30 22278 H 2178.3 -3.07056 0.586146 0
M  V30 22279 H 2177.52 -2.54003 3.01457 0
M  V30 22280 H 2178.81 -3.62205 3.5733 0
M  V30 22281 H 2178.21 -5.55877 1.04961 0
M  V30 22282 H 2176.76 -6.32237 1.58492 0
M  V30 22283 N 2180.2 -1.36208 -0.792797 0
M  V30 22284 C 2181.44 -1.30442 -1.55282 0
M  V30 22285 C 2181.78 0.117071 -1.93847 0
M  V30 22286 O 2181.05 1.06968 -1.62444 0
M  V30 22287 C 2181.33 -2.22396 -2.83218 0
M  V30 22288 C 2181.19 -3.73227 -2.51042 0
M  V30 22289 C 2182.51 -2.13185 -3.85019 0
M  V30 22290 H 2179.63 -0.475171 -0.563366 0
M  V30 22291 H 2182.27 -1.6673 -0.911103 0
M  V30 22292 H 2180.42 -1.9158 -3.37979 0
M  V30 22293 H 2182.09 -4.14547 -2.02358 0
M  V30 22294 H 2180.33 -3.92829 -1.84033 0
M  V30 22295 H 2181 -4.32972 -3.42402 0
M  V30 22296 H 2183.48 -2.40303 -3.39696 0
M  V30 22297 H 2182.36 -2.797 -4.72291 0
M  V30 22298 H 2182.62 -1.11808 -4.27728 0
M  V30 22299 N 2181.68 1.01656 -1.20431 0
M  V30 22300 C 2182.9 1.78855 -1.04012 0
M  V30 22301 C 2183.32 1.8428 0.410661 0
M  V30 22302 O 2182.68 1.29579 1.28512 0
M  V30 22303 C 2182.73 3.23321 -1.61696 0
M  V30 22304 O 2182.45 3.18233 -3.01097 0
M  V30 22305 C 2183.95 4.17068 -1.5023 0
M  V30 22306 H 2181.17 0.562464 -0.36589 0
M  V30 22307 H 2183.71 1.27961 -1.59519 0
M  V30 22308 H 2181.87 3.71363 -1.10309 0
M  V30 22309 H 2182.28 4.08911 -3.28469 0
M  V30 22310 H 2183.76 5.16277 -1.95352 0
M  V30 22311 H 2184.23 4.36839 -0.454792 0
M  V30 22312 H 2184.84 3.74908 -2.00808 0
M  V30 22313 N 2183.15 1.01021 1.20965 0
M  V30 22314 C 2184.4 0.696906 1.9045 0
M  V30 22315 C 2184.73 -0.770906 1.78243 0
M  V30 22316 O 2184.01 -1.55939 1.16246 0
M  V30 22317 C 2184.29 1.1252 3.42069 0
M  V30 22318 C 2184.14 2.65285 3.63241 0
M  V30 22319 C 2185.46 0.691566 4.34632 0
M  V30 22320 H 2182.58 0.254648 0.691609 0
M  V30 22321 H 2185.22 1.25681 1.42493 0
M  V30 22322 H 2183.37 0.648818 3.83044 0
M  V30 22323 H 2185.05 3.20727 3.3156 0
M  V30 22324 H 2183.29 3.06557 3.06929 0
M  V30 22325 H 2183.96 2.90306 4.69496 0
M  V30 22326 H 2186.44 1.10101 4.01269 0
M  V30 22327 H 2185.31 1.01935 5.39352 0
M  V30 22328 H 2185.57 -0.407073 4.40222 0
M  V30 22329 N 2184.63 -1.36623 0.78561 0
M  V30 22330 C 2185.88 -1.98948 0.355551 0
M  V30 22331 C 2186.2 -1.62665 -1.07541 0
M  V30 22332 O 2185.47 -0.89879 -1.74065 0
M  V30 22333 H 2184.05 -0.735869 0.128476 0
M  V30 22334 H 2186.71 -1.66881 1.00681 0
M  V30 22335 H 2185.81 -3.08921 0.444316 0
M  V30 22336 N 2186.11 -0.537304 -1.48158 0
M  V30 22337 C 2187.52 -0.0987274 -1.86439 0
M  V30 22338 C 2187.87 1.32599 -1.4461 0
M  V30 22339 O 2187 1.99427 -0.840112 0
M  V30 22340 C 2187.59 -0.172391 -3.38361 0
M  V30 22341 C 2186.15 0.211031 -3.75808 0
M  V30 22342 C 2185.3 -0.528892 -2.7221 0
M  V30 22343 H 2188.25 -0.74815 -1.39959 0
M  V30 22344 H 2188.27 0.614074 -3.75512 0
M  V30 22345 H 2187.78 -1.20942 -3.68774 0
M  V30 22346 H 2185.88 1.24993 -3.51009 0
M  V30 22347 H 2186 -0.133675 -4.78913 0
M  V30 22348 H 2184.36 0.0257117 -2.54687 0
M  V30 22349 H 2185.14 -1.5667 -3.05466 0
M  V30 22350 N 2187.59 1.55221 -0.272782 0
M  V30 22351 C 2188.84 1.99151 0.343986 0
M  V30 22352 C 2189.16 1.16259 1.56553 0
M  V30 22353 O 2188.43 0.25154 1.94278 0
M  V30 22354 H 2187.01 0.735586 0.130087 0
M  V30 22355 H 2189.67 1.91208 -0.377577 0
M  V30 22356 H 2188.77 3.05562 0.635452 0
M  V30 22357 N 2189.07 2.77022e-05 1.576 0
M  V30 22358 C 2190 -0.990304 2.1146 0
M  V30 22359 C 2190.98 -1.35844 1.02374 0
M  V30 22360 O 2192.16 -1.44218 1.30057 0
M  V30 22361 C 2189.29 -2.28215 2.61792 0
M  V30 22362 C 2188.25 -2.05563 3.75404 0
M  V30 22363 C 2187.57 -3.40761 4.12051 0
M  V30 22364 C 2188.87 -1.4182 5.02677 0
M  V30 22365 H 2190.57 -0.541853 2.94456 0
M  V30 22366 H 2188.11 -0.259194 1.41648 0
M  V30 22367 H 2190.07 -2.97851 2.98099 0
M  V30 22368 H 2188.79 -2.75174 1.75918 0
M  V30 22369 H 2187.45 -1.38353 3.39491 0
M  V30 22370 H 2187.1 -3.85423 3.232 0
M  V30 22371 H 2186.8 -3.26421 4.88593 0
M  V30 22372 H 2188.32 -4.11712 4.50916 0
M  V30 22373 H 2189.73 -2.01413 5.36755 0
M  V30 22374 H 2188.13 -1.37967 5.84025 0
M  V30 22375 H 2189.2 -0.387421 4.8335 0
M  V30 22376 N 2190.54 -1.55222 -0.272728 0
M  V30 22377 C 2191.47 -1.9113 -1.34133 0
M  V30 22378 C 2192.46 -0.773195 -1.51511 0
M  V30 22379 O 2193.64 -1.03135 -1.6455 0
M  V30 22380 C 2190.77 -2.18345 -2.70079 0
M  V30 22381 C 2189.72 -3.34162 -2.67431 0
M  V30 22382 C 2189.05 -3.46858 -4.06932 0
M  V30 22383 C 2190.35 -4.70547 -2.26677 0
M  V30 22384 H 2192.04 -2.80635 -1.04328 0
M  V30 22385 H 2189.59 -1.35025 -0.50043 0
M  V30 22386 H 2191.54 -2.42052 -3.44948 0
M  V30 22387 H 2190.27 -1.25639 -3.01467 0
M  V30 22388 H 2188.93 -3.10423 -1.9502 0
M  V30 22389 H 2188.57 -2.51618 -4.35542 0
M  V30 22390 H 2188.27 -4.24727 -4.06055 0
M  V30 22391 H 2189.8 -3.72858 -4.83539 0
M  V30 22392 H 2191.21 -4.93797 -2.91268 0
M  V30 22393 H 2189.61 -5.51334 -2.36961 0
M  V30 22394 H 2190.68 -4.69351 -1.2181 0
M  V30 22395 N 2192.02 0.537252 -1.4816 0
M  V30 22396 C 2193.27 1.29091 -1.55499 0
M  V30 22397 C 2193.59 1.93669 -0.227488 0
M  V30 22398 O 2192.86 1.8096 0.750354 0
M  V30 22399 H 2191.44 0.47944 -0.572841 0
M  V30 22400 H 2194.1 0.625785 -1.8458 0
M  V30 22401 H 2193.2 2.07401 -2.33219 0
M  V30 22402 N 2193.5 1.36626 0.785562 0
M  V30 22403 C 2194.75 1.31264 1.54588 0
M  V30 22404 C 2195.08 -0.106789 1.93906 0
M  V30 22405 O 2194.35 -1.06105 1.63009 0
M  V30 22406 C 2194.64 2.23894 2.82034 0
M  V30 22407 C 2194.49 3.74553 2.49059 0
M  V30 22408 C 2195.81 2.15224 3.83884 0
M  V30 22409 H 2192.93 0.478152 0.560838 0
M  V30 22410 H 2195.57 1.67211 0.902248 0
M  V30 22411 H 2193.72 1.93369 3.36958 0
M  V30 22412 H 2195.39 4.15614 2.00157 0
M  V30 22413 H 2193.64 3.93799 1.81947 0
M  V30 22414 H 2194.31 4.34782 3.40101 0
M  V30 22415 H 2196.78 2.42101 3.38417 0
M  V30 22416 H 2195.66 2.82201 4.70801 0
M  V30 22417 H 2195.92 1.14075 4.27129 0
M  V30 22418 N 2194.98 -1.01016 1.20969 0
M  V30 22419 C 2196.2 -1.78837 1.05034 0
M  V30 22420 C 2196.63 -1.8389 -0.39572 0
M  V30 22421 O 2195.99 -1.2787 -1.28527 0
M  V30 22422 C 2196.03 -3.20837 1.64608 0
M  V30 22423 O 2195.14 -4.02725 0.888059 0
M  V30 22424 H 2194.48 -0.55136 0.369997 0
M  V30 22425 H 2197.01 -1.27015 1.60401 0
M  V30 22426 H 2197.02 -3.71529 1.68613 0
M  V30 22427 H 2195.69 -3.16474 2.69846 0
M  V30 22428 H 2194.27 -3.61304 0.922711 0
M  V30 22429 N 2196.46 -1.01661 -1.20428 0
M  V30 22430 C 2197.68 -0.725166 -1.93776 0
M  V30 22431 C 2198.1 0.714135 -1.74773 0
M  V30 22432 O 2197.46 1.48438 -1.06171 0
M  V30 22433 C 2197.51 -1.05136 -3.45874 0
M  V30 22434 O 2197.23 -2.43412 -3.64255 0
M  V30 22435 C 2198.73 -0.780967 -4.36367 0
M  V30 22436 H 2195.95 -0.266294 -0.615896 0
M  V30 22437 H 2198.49 -1.35779 -1.52919 0
M  V30 22438 H 2196.65 -0.464133 -3.8461 0
M  V30 22439 H 2197.06 -2.55177 -4.58241 0
M  V30 22440 H 2198.54 -1.05928 -5.41741 0
M  V30 22441 H 2199.01 0.28486 -4.38275 0
M  V30 22442 H 2199.62 -1.35034 -4.03294 0
M  V30 22443 N 2197.93 1.36205 -0.792844 0
M  V30 22444 C 2198.86 2.32573 -0.207894 0
M  V30 22445 C 2199.85 1.56815 0.659028 0
M  V30 22446 O 2201.03 1.84952 0.592143 0
M  V30 22447 C 2198.16 3.4106 0.655389 0
M  V30 22448 C 2197.11 4.27854 -0.111917 0
M  V30 22449 C 2196.44 5.27539 0.872181 0
M  V30 22450 C 2197.74 5.05784 -1.30308 0
M  V30 22451 H 2199.43 2.81743 -1.01299 0
M  V30 22452 H 2196.98 1.35459 -0.488564 0
M  V30 22453 H 2198.93 4.07469 1.07457 0
M  V30 22454 H 2197.66 2.90466 1.49323 0
M  V30 22455 H 2196.32 3.63005 -0.512116 0
M  V30 22456 H 2195.96 4.73217 1.70514 0
M  V30 22457 H 2195.66 5.86477 0.363188 0
M  V30 22458 H 2197.19 5.96821 1.28986 0
M  V30 22459 H 2198.6 5.65214 -0.959478 0
M  V30 22460 H 2197 5.7415 -1.7456 0
M  V30 22461 H 2198.07 4.37226 -2.0967 0
M  V30 22462 N 2199.41 0.545154 1.47871 0
M  V30 22463 C 2200.66 0.0165886 2.02093 0
M  V30 22464 C 2200.98 -1.33317 1.42308 0
M  V30 22465 O 2200.25 -1.86681 0.593886 0
M  V30 22466 H 2198.83 0.00314351 0.746993 0
M  V30 22467 H 2201.49 0.712429 1.81412 0
M  V30 22468 H 2200.59 -0.0804873 3.11996 0
M  V30 22469 N 2200.89 -1.55074 0.28101 0
M  V30 22470 C 2202.3 -1.85451 -0.215596 0
M  V30 22471 C 2202.65 -1.20303 -1.54989 0
M  V30 22472 O 2201.78 -0.493472 -2.10698 0
M  V30 22473 C 2202.37 -3.36455 -0.397967 0
M  V30 22474 C 2200.93 -3.66935 -0.838802 0
M  V30 22475 C 2200.08 -2.77225 0.0645067 0
M  V30 22476 H 2203.03 -1.5053 0.502627 0
M  V30 22477 H 2203.05 -3.59878 -1.23563 0
M  V30 22478 H 2202.56 -3.83842 0.573309 0
M  V30 22479 H 2200.66 -3.25051 -1.82134 0
M  V30 22480 H 2200.78 -4.74363 -0.67204 0
M  V30 22481 H 2199.14 -2.50642 -0.452819 0
M  V30 22482 H 2199.92 -3.27428 1.03177 0
M  V30 22483 N 2202.37 -0.00838561 -1.57598 0
M  V30 22484 C 2203.32 0.980309 -2.08946 0
M  V30 22485 C 2204.29 1.33612 -0.986761 0
M  V30 22486 O 2205.47 1.43304 -1.25971 0
M  V30 22487 C 2202.61 2.2643 -2.60429 0
M  V30 22488 C 2201.72 1.96678 -3.84632 0
M  V30 22489 C 2200.86 3.1922 -4.24584 0
M  V30 22490 C 2199.9 2.85192 -5.41601 0
M  V30 22491 N 2199.04 4.00297 -5.76807 0
M  V30 22492 H 2203.88 0.535499 -2.93149 0
M  V30 22493 H 2201.41 0.252751 -1.44912 0
M  V30 22494 H 2203.37 3.01504 -2.88359 0
M  V30 22495 H 2202 2.68565 -1.79088 0
M  V30 22496 H 2201.05 1.11936 -3.63558 0
M  V30 22497 H 2202.36 1.67603 -4.69799 0
M  V30 22498 H 2201.52 4.02633 -4.53841 0
M  V30 22499 H 2200.26 3.51441 -3.38143 0
M  V30 22500 H 2199.26 2.00189 -5.12059 0
M  V30 22501 H 2200.49 2.54211 -6.29725 0
M  V30 22502 H 2198.43 4.32398 -4.93323 0
M  V30 22503 H 2198.35 3.74774 -6.56567 0
M  V30 22504 H 2199.62 4.84473 -6.1066 0
M  V30 22505 N 2203.85 1.55365 0.264492 0
M  V30 22506 C 2205.26 1.47395 0.612125 0
M  V30 22507 C 2205.46 0.695052 1.89133 0
M  V30 22508 O 2204.52 0.217319 2.51563 0
M  V30 22509 C 2205.83 2.91675 0.731184 0
M  V30 22510 C 2207.38 3.01941 0.824677 0
M  V30 22511 C 2207.86 4.47492 0.975443 0
M  V30 22512 N 2209.35 4.51356 1.04075 0
M  V30 22513 C 2210.08 5.61203 1.17636 0
M  V30 22514 N 2209.58 6.80899 1.27862 0
M  V30 22515 N 2211.37 5.48963 1.20814 0
M  V30 22516 H 2203.52 2.04455 -0.575492 0
M  V30 22517 H 2205.78 0.927493 -0.196115 0
M  V30 22518 H 2205.49 3.51427 -0.138454 0
M  V30 22519 H 2205.36 3.41172 1.60877 0
M  V30 22520 H 2207.75 2.42279 1.68478 0
M  V30 22521 H 2207.83 2.55682 -0.0776929 0
M  V30 22522 H 2207.48 5.07758 0.119969 0
M  V30 22523 H 2207.41 4.91415 1.89259 0
M  V30 22524 H 2209.9 3.65138 0.973782 0
M  V30 22525 H 2210.21 7.60367 1.38067 0
M  V30 22526 H 2208.56 6.83694 1.24851 0
M  V30 22527 H 2211.75 4.5439 1.12461 0
M  V30 22528 H 2211.92 6.34613 1.31038 0
M  V30 22529 N 2205.33 -0.529387 1.48443 0
M  V30 22530 C 2206.27 -1.65484 1.63455 0
M  V30 22531 C 2207.27 -1.61822 0.500983 0
M  V30 22532 O 2208.47 -1.66673 0.679725 0
M  V30 22533 H 2204.85 -0.548057 0.514915 0
M  V30 22534 H 2206.82 -1.49966 2.57978 0
M  V30 22535 C 2205.57 -3.03753 1.69202 0
M  V30 22536 H 2204.89 -3.07265 2.5579 0
M  V30 22537 H 2206.33 -3.82115 1.83749 0
M  V30 22538 C 2204.79 -3.34134 0.430823 0
M  V30 22539 O 2205.32 -3.99103 -0.45603 0
M  V30 22540 N 2203.53 -2.89023 0.302344 0
M  V30 22541 H 2203.07 -2.36329 1.025 0
M  V30 22542 H 2203.03 -3.09719 -0.540491 0
M  V30 22543 N 2206.8 -1.37041 -0.778305 0
M  V30 22544 C 2208.03 -1.35235 -1.57246 0
M  V30 22545 C 2208.45 0.0615238 -1.87999 0
M  V30 22546 O 2207.81 1.0367 -1.48736 0
M  V30 22547 C 2207.86 -2.19172 -2.86349 0
M  V30 22548 O 2206.96 -1.59184 -3.80439 0
M  V30 22549 H 2206.3 -0.46237 -0.47656 0
M  V30 22550 H 2208.83 -1.80476 -0.963821 0
M  V30 22551 H 2208.84 -2.32151 -3.35514 0
M  V30 22552 H 2207.52 -3.21947 -2.63293 0
M  V30 22553 H 2206.1 -1.55209 -3.39064 0
M  V30 22554 N 2208.28 1.00373 -1.21503 0
M  V30 22555 C 2209.21 2.0889 -0.918706 0
M  V30 22556 C 2210.19 1.62045 0.134248 0
M  V30 22557 O 2211.38 1.88499 0.00500942 0
M  V30 22558 C 2208.5 3.36565 -0.379704 0
M  V30 22559 C 2207.55 4.0232 -1.41566 0
M  V30 22560 S 2208.38 4.44568 -2.98528 0
M  V30 22561 C 2209.54 5.75428 -2.46238 0
M  V30 22562 H 2209.77 2.33704 -1.83766 0
M  V30 22563 H 2207.3 1.13671 -1.04491 0
M  V30 22564 H 2209.26 4.10431 -0.0752917 0
M  V30 22565 H 2207.92 3.098 0.517954 0
M  V30 22566 H 2207.12 4.94218 -0.988163 0
M  V30 22567 H 2206.72 3.34734 -1.66821 0
M  V30 22568 H 2209.01 6.51238 -1.86803 0
M  V30 22569 H 2209.95 6.22991 -3.36583 0
M  V30 22570 H 2210.36 5.32309 -1.87904 0
M  V30 22571 N 2209.76 1.02298 1.19887 0
M  V30 22572 C 2211.01 0.717066 1.897 0
M  V30 22573 C 2211.34 -0.751958 1.79051 0
M  V30 22574 O 2210.61 -1.54698 1.17894 0
M  V30 22575 C 2210.9 1.16142 3.40856 0
M  V30 22576 C 2210.75 2.69123 3.60407 0
M  V30 22577 C 2212.07 0.737625 4.33875 0
M  V30 22578 H 2209.19 0.261969 0.68887 0
M  V30 22579 H 2211.83 1.27186 1.41152 0
M  V30 22580 H 2209.98 0.689409 3.82334 0
M  V30 22581 H 2211.65 3.24226 3.28139 0
M  V30 22582 H 2209.89 3.09795 3.0366 0
M  V30 22583 H 2210.57 2.95269 4.66391 0
M  V30 22584 H 2213.04 1.14351 4.00079 0
M  V30 22585 H 2211.92 1.0765 5.3824 0
M  V30 22586 H 2212.18 -0.360359 4.40629 0
M  V30 22587 N 2211.24 -1.35782 0.800057 0
M  V30 22588 C 2212.17 -2.32459 0.220225 0
M  V30 22589 C 2213.15 -1.57162 -0.650702 0
M  V30 22590 O 2214.33 -1.85264 -0.582326 0
M  V30 22591 C 2211.46 -3.41403 -0.637293 0
M  V30 22592 C 2210.42 -4.27788 0.134606 0
M  V30 22593 C 2209.74 -5.27994 -0.844192 0
M  V30 22594 C 2211.04 -5.05086 1.32988 0
M  V30 22595 H 2212.74 -2.81201 1.02792 0
M  V30 22596 H 2210.28 -1.35198 0.495741 0
M  V30 22597 H 2212.24 -4.08033 -1.05295 0
M  V30 22598 H 2210.96 -2.91253 -1.4778 0
M  V30 22599 H 2209.62 -3.62729 0.53136 0
M  V30 22600 H 2209.27 -4.74114 -1.68002 0
M  V30 22601 H 2208.97 -5.86661 -0.332081 0
M  V30 22602 H 2210.49 -5.97496 -1.25819 0
M  V30 22603 H 2211.91 -5.64697 0.989439 0
M  V30 22604 H 2210.3 -5.73217 1.77603 0
M  V30 22605 H 2211.37 -4.36108 2.11986 0
M  V30 22606 N 2212.72 -0.552988 -1.4758 0
M  V30 22607 C 2213.99 0.0381172 -1.95563 0
M  V30 22608 C 2214.37 1.48985 -1.49555 0
M  V30 22609 O 2213.72 2.16443 -0.732452 0
M  V30 22610 C 2213.93 -0.10298 -3.48848 0
M  V30 22611 C 2215.28 0.0445335 -4.24577 0
M  V30 22612 O 2216.3 -0.0303175 -3.56187 0
M  V30 22613 O 2215.16 0.204827 -5.46116 0
M  V30 22614 H 2212.26 0.0664922 -0.824323 0
M  V30 22615 H 2214.8 -0.619213 -1.57999 0
M  V30 22616 H 2213.57 -1.11335 -3.75127 0
M  V30 22617 H 2213.2 0.592155 -3.93166 0
M  V30 22618 N 2214.19 1.54923 -0.28923 0
M  V30 22619 C 2215.44 2.00196 0.323963 0
M  V30 22620 C 2215.77 1.17738 1.54439 0
M  V30 22621 O 2215.05 0.250912 1.92875 0
M  V30 22622 C 2215.33 3.53384 0.692214 0
M  V30 22623 C 2215.18 4.46589 -0.536535 0
M  V30 22624 C 2216.5 4.12898 1.52327 0
M  V30 22625 H 2213.62 0.72777 0.116277 0
M  V30 22626 H 2216.26 1.85764 -0.398987 0
M  V30 22627 H 2214.41 3.65813 1.30816 0
M  V30 22628 H 2216.09 4.46083 -1.17507 0
M  V30 22629 H 2214.33 4.17668 -1.17199 0
M  V30 22630 H 2215 5.515 -0.234903 0
M  V30 22631 H 2217.48 4.03832 1.00295 0
M  V30 22632 H 2216.35 5.20265 1.74973 0
M  V30 22633 H 2216.61 3.64022 2.50879 0
M  V30 22634 N 2215.67 0.0167433 1.57591 0
M  V30 22635 C 2216.63 -0.954167 2.08395 0
M  V30 22636 C 2217.63 -1.26196 0.996553 0
M  V30 22637 O 2218.82 -1.20436 1.25861 0
M  V30 22638 C 2215.96 -2.27431 2.53944 0
M  V30 22639 H 2217.15 -0.514399 2.95455 0
M  V30 22640 H 2214.7 -0.231062 1.54583 0
M  V30 22641 H 2215.44 -2.76063 1.70176 0
M  V30 22642 H 2215.22 -2.06406 3.33375 0
M  V30 22643 H 2216.71 -2.97048 2.93517 0
M  V30 22644 N 2217.15 -1.55503 -0.256249 0
M  V30 22645 C 2218.4 -1.76897 -0.985588 0
M  V30 22646 C 2218.73 -0.579387 -1.8567 0
M  V30 22647 O 2217.98 0.437617 -1.90744 0
M  V30 22648 C 2218.28 -3.03694 -1.88427 0
M  V30 22649 C 2217.95 -4.35475 -1.16928 0
M  V30 22650 C 2216.61 -4.71288 -0.971647 0
M  V30 22651 C 2218.96 -5.16981 -0.661798 0
M  V30 22652 C 2216.29 -5.8615 -0.254076 0
M  V30 22653 C 2218.64 -6.32586 0.0422602 0
M  V30 22654 C 2217.3 -6.67026 0.251457 0
M  V30 22655 H 2216.57 -0.647311 -0.360652 0
M  V30 22656 H 2219.22 -1.89775 -0.256449 0
M  V30 22657 H 2217.53 -2.85788 -2.68016 0
M  V30 22658 H 2219.22 -3.17445 -2.4501 0
M  V30 22659 H 2215.81 -4.07336 -1.33325 0
M  V30 22660 H 2220 -4.89776 -0.802059 0
M  V30 22661 H 2215.25 -6.11346 -0.0814334 0
M  V30 22662 H 2219.43 -6.94988 0.443171 0
M  V30 22663 H 2217.05 -7.55878 0.809447 0
M  V30 22664 N 2218.63 0.521507 -1.48721 0
M  V30 22665 C 2219.87 1.27876 -1.57403 0
M  V30 22666 C 2220.21 1.92573 -0.25085 0
M  V30 22667 O 2219.48 1.79712 0.743902 0
M  V30 22668 C 2219.77 2.36159 -2.71847 0
M  V30 22669 C 2219.62 1.76098 -4.13896 0
M  V30 22670 C 2220.94 3.3787 -2.82014 0
M  V30 22671 H 2218.06 0.463571 -0.572949 0
M  V30 22672 H 2220.7 0.580088 -1.80928 0
M  V30 22673 H 2218.85 2.95752 -2.51919 0
M  V30 22674 H 2220.52 1.20491 -4.45286 0
M  V30 22675 H 2218.76 1.06594 -4.205 0
M  V30 22676 H 2219.43 2.54541 -4.89809 0
M  V30 22677 H 2221.91 2.88244 -3.00091 0
M  V30 22678 H 2220.79 4.11021 -3.63803 0
M  V30 22679 H 2221.05 3.98943 -1.90518 0
M  V30 22680 N 2220.11 1.37452 0.771027 0
M  V30 22681 C 2221.04 1.35974 1.89825 0
M  V30 22682 C 2222.02 0.228246 1.68562 0
M  V30 22683 O 2223.2 0.428708 1.89409 0
M  V30 22684 C 2220.33 1.16668 3.27118 0
M  V30 22685 C 2219.29 2.26836 3.62946 0
M  V30 22686 C 2218.61 1.92652 4.98788 0
M  V30 22687 C 2219.91 3.69023 3.6962 0
M  V30 22688 H 2221.61 2.30299 1.91319 0
M  V30 22689 H 2219.15 1.10857 0.919062 0
M  V30 22690 H 2221.11 1.14263 4.05613 0
M  V30 22691 H 2219.83 0.187983 3.26059 0
M  V30 22692 H 2218.49 2.28397 2.86759 0
M  V30 22693 H 2218.14 0.933108 4.94269 0
M  V30 22694 H 2217.84 2.66425 5.23729 0
M  V30 22695 H 2219.36 1.91836 5.79682 0
M  V30 22696 H 2220.77 3.69588 4.38266 0
M  V30 22697 H 2219.17 4.41855 4.06059 0
M  V30 22698 H 2220.24 4.02597 2.70266 0
M  V30 22699 N 2221.58 -0.997276 1.22033 0
M  V30 22700 C 2222.49 -2.1209 1.00275 0
M  V30 22701 C 2223.51 -1.73935 -0.0475905 0
M  V30 22702 O 2224.69 -2.00883 0.144171 0
M  V30 22703 C 2221.75 -3.41839 0.578509 0
M  V30 22704 C 2220.81 -3.94122 1.70196 0
M  V30 22705 C 2220.05 -5.17679 1.29787 0
M  V30 22706 O 2220.27 -5.70132 0.174776 0
M  V30 22707 O 2219.2 -5.63603 2.11271 0
M  V30 22708 H 2223.03 -2.33327 1.94402 0
M  V30 22709 H 2220.61 -1.10464 1.00589 0
M  V30 22710 H 2222.5 -4.19927 0.352072 0
M  V30 22711 H 2221.17 -3.21973 -0.333962 0
M  V30 22712 H 2220.08 -3.17227 1.98287 0
M  V30 22713 H 2221.41 -4.18413 2.59213 0
M  V30 22714 N 2223.06 -1.02932 -1.19343 0
M  V30 22715 C 2224.31 -0.724607 -1.88663 0
M  V30 22716 C 2224.63 0.749112 -1.80037 0
M  V30 22717 O 2223.9 1.53976 -1.21113 0
M  V30 22718 H 2222.48 -0.265037 -0.698401 0
M  V30 22719 H 2225.14 -1.30365 -1.44883 0
M  V30 22720 H 2224.24 -1.01931 -2.94985 0
M  V30 22721 N 2224.54 1.35356 -0.807246 0
M  V30 22722 C 2225.77 2.03519 -0.399345 0
M  V30 22723 C 2226.19 1.60434 0.981958 0
M  V30 22724 O 2225.55 0.781328 1.636 0
M  V30 22725 C 2225.6 3.57233 -0.491615 0
M  V30 22726 O 2224.7 4.09422 0.494682 0
M  V30 22727 H 2224.04 0.642736 -0.166693 0
M  V30 22728 H 2226.57 1.72939 -1.09331 0
M  V30 22729 H 2226.58 4.06394 -0.361659 0
M  V30 22730 H 2225.26 3.87941 -1.49914 0
M  V30 22731 H 2223.83 3.71482 0.324911 0
M  V30 22732 N 2226.02 0.560807 1.47284 0
M  V30 22733 C 2227.3 -0.0277455 1.9558 0
M  V30 22734 C 2227.68 -1.4819 1.50343 0
M  V30 22735 O 2227.02 -2.16051 0.74392 0
M  V30 22736 C 2227.23 0.121479 3.48789 0
M  V30 22737 C 2228.58 -0.0220166 4.24594 0
M  V30 22738 O 2229.61 0.0492065 3.56166 0
M  V30 22739 O 2228.46 -0.175862 5.46217 0
M  V30 22740 H 2225.56 -0.0621197 0.824664 0
M  V30 22741 H 2228.1 0.627584 1.57669 0
M  V30 22742 H 2226.88 1.13323 3.74531 0
M  V30 22743 H 2226.5 -0.571296 3.93474 0
M  V30 22744 N 2227.5 -1.54768 0.297442 0
M  V30 22745 C 2228.44 -2.23387 -0.580237 0
M  V30 22746 C 2229.41 -1.21519 -1.13236 0
M  V30 22747 O 2230.6 -1.50129 -1.17754 0
M  V30 22748 C 2227.74 -2.97558 -1.74796 0
M  V30 22749 C 2226.85 -4.14192 -1.22757 0
M  V30 22750 C 2225.99 -4.75953 -2.35887 0
M  V30 22751 C 2225.03 -5.84738 -1.80963 0
M  V30 22752 N 2224.16 -6.40469 -2.87653 0
M  V30 22753 H 2229 -2.97998 0.0115357 0
M  V30 22754 H 2226.54 -1.4709 0.0174619 0
M  V30 22755 H 2228.5 -3.3879 -2.43469 0
M  V30 22756 H 2227.13 -2.2533 -2.31141 0
M  V30 22757 H 2226.18 -3.77925 -0.433205 0
M  V30 22758 H 2227.49 -4.92577 -0.785464 0
M  V30 22759 H 2226.65 -5.20019 -3.12514 0
M  V30 22760 H 2225.38 -3.96892 -2.83422 0
M  V30 22761 H 2224.39 -5.40099 -1.02824 0
M  V30 22762 H 2225.61 -6.6568 -1.34337 0
M  V30 22763 H 2223.56 -5.64293 -3.34528 0
M  V30 22764 H 2223.48 -7.1419 -2.47927 0
M  V30 22765 H 2224.75 -6.89193 -3.64188 0
M  V30 22766 N 2228.97 -0.0251005 -1.5758 0
M  V30 22767 C 2230.22 0.653733 -1.90812 0
M  V30 22768 C 2230.54 1.73521 -0.902761 0
M  V30 22769 O 2231.74 2.47041 -1.12618 0
M  V30 22770 C 2230.2 1.21403 -3.38806 0
M  V30 22771 C 2229.81 0.166047 -4.47692 0
M  V30 22772 C 2231.55 1.86961 -3.81111 0
M  V30 22773 C 2229.46 0.737752 -5.8678 0
M  V30 22774 H 2228.39 0.247944 -0.712067 0
M  V30 22775 H 2231.04 -0.0897459 -1.8328 0
M  V30 22776 H 2229.42 2.00899 -3.41256 0
M  V30 22777 H 2230.59 -0.606159 -4.56796 0
M  V30 22778 H 2228.91 -0.390539 -4.14565 0
M  V30 22779 H 2231.51 2.30683 -4.82379 0
M  V30 22780 H 2231.85 2.71066 -3.15958 0
M  V30 22781 H 2232.38 1.14161 -3.81067 0
M  V30 22782 H 2229.12 -0.0650729 -6.55468 0
M  V30 22783 H 2228.64 1.47854 -5.81291 0
M  V30 22784 H 2230.32 1.22873 -6.35225 0
M  V30 22785 N 2230.45 1.55637 0.247999 0
M  V30 22786 C 2231.7 1.77066 0.974264 0
M  V30 22787 C 2232.02 0.588882 1.85896 0
M  V30 22788 O 2231.29 -0.395373 1.91869 0
M  V30 22789 H 2229.87 0.653025 0.362722 0
M  V30 22790 H 2232.53 1.93073 0.26621 0
M  V30 22791 H 2231.63 2.68168 1.59662 0
M  V30 22792 N 2231.93 -0.513613 1.48996 0
M  V30 22793 C 2232.84 -1.64314 1.67446 0
M  V30 22794 C 2233.86 -1.64845 0.556976 0
M  V30 22795 O 2235.03 -1.83497 0.830114 0
M  V30 22796 C 2232.1 -3.00729 1.7252 0
M  V30 22797 C 2231.16 -3.10925 2.96014 0
M  V30 22798 C 2230.39 -4.40832 3.00837 0
M  V30 22799 O 2230.62 -5.28895 2.13604 0
M  V30 22800 O 2229.55 -4.55737 3.93176 0
M  V30 22801 H 2233.38 -1.51682 2.63109 0
M  V30 22802 H 2230.96 -0.688519 1.32589 0
M  V30 22803 H 2232.84 -3.81828 1.78284 0
M  V30 22804 H 2231.52 -3.1365 0.800333 0
M  V30 22805 H 2230.42 -2.2906 2.95774 0
M  V30 22806 H 2231.76 -3.02926 3.87939 0
M  V30 22807 N 2233.41 -1.37859 -0.763727 0
M  V30 22808 C 2234.37 -1.34084 -1.85887 0
M  V30 22809 C 2235.37 -0.243305 -1.58949 0
M  V30 22810 O 2236.56 -0.499619 -1.66882 0
M  V30 22811 C 2233.69 -1.08495 -3.23174 0
M  V30 22812 H 2234.89 -2.31506 -1.90644 0
M  V30 22813 H 2232.44 -1.23004 -0.964345 0
M  V30 22814 H 2233.18 -0.116375 -3.24091 0
M  V30 22815 H 2232.96 -1.87946 -3.4412 0
M  V30 22816 H 2234.45 -1.08524 -4.03252 0
M  V30 22817 N 2234.89 0.990791 -1.22561 0
M  V30 22818 C 2236.16 1.70426 -0.959905 0
M  V30 22819 C 2236.54 2.04482 0.524419 0
M  V30 22820 O 2235.89 1.7298 1.49299 0
M  V30 22821 C 2236.1 2.9533 -1.8596 0
M  V30 22822 C 2237.45 3.68064 -2.11693 0
M  V30 22823 O 2238.47 3.05342 -1.83425 0
M  V30 22824 O 2237.33 4.80916 -2.5958 0
M  V30 22825 H 2234.43 0.743967 -0.361167 0
M  V30 22826 H 2236.97 1.04695 -1.33556 0
M  V30 22827 H 2235.75 2.66682 -2.86351 0
M  V30 22828 H 2235.37 3.68801 -1.48566 0
M  V30 22829 N 2236.37 1.03564 1.18795 0
M  V30 22830 C 2237.61 0.736056 1.88649 0
M  V30 22831 C 2237.94 -0.735857 1.80043 0
M  V30 22832 O 2237.2 -1.55223 1.19182 0
M  V30 22833 C 2237.49 1.14123 3.3869 0
M  V30 22834 C 2237.16 2.61256 3.675 0
M  V30 22835 C 2235.82 3.01453 3.75072 0
M  V30 22836 C 2238.17 3.56415 3.80287 0
M  V30 22837 C 2235.5 4.35707 3.92907 0
M  V30 22838 C 2237.85 4.90381 3.99636 0
M  V30 22839 C 2236.52 5.30256 4.05443 0
M  V30 22840 H 2235.79 0.269342 0.690316 0
M  V30 22841 H 2238.44 1.29973 1.40639 0
M  V30 22842 H 2236.74 0.49627 3.88644 0
M  V30 22843 H 2238.44 0.886858 3.9107 0
M  V30 22844 H 2235.03 2.29119 3.62219 0
M  V30 22845 H 2239.21 3.26508 3.73773 0
M  V30 22846 H 2234.47 4.66128 3.95645 0
M  V30 22847 H 2238.64 5.64024 4.08473 0
M  V30 22848 H 2236.27 6.34295 4.19015 0
M  V30 22849 N 2237.84 -1.34926 0.814413 0
M  V30 22850 C 2238.79 -2.31572 0.218465 0
M  V30 22851 C 2239.79 -1.57004 -0.6361 0
M  V30 22852 O 2240.99 -1.7207 -0.52839 0
M  V30 22853 H 2237.37 -0.750207 0.0518931 0
M  V30 22854 H 2239.34 -2.7937 1.04857 0
M  V30 22855 C 2238.09 -3.42271 -0.612009 0
M  V30 22856 H 2237.41 -3.99784 0.0362281 0
M  V30 22857 H 2238.85 -4.12154 -0.995245 0
M  V30 22858 C 2237.31 -2.85987 -1.78082 0
M  V30 22859 O 2237.84 -2.80173 -2.87865 0
M  V30 22860 N 2236.04 -2.42927 -1.59484 0
M  V30 22861 H 2235.59 -2.47855 -0.701831 0
M  V30 22862 H 2235.55 -2.05617 -2.37842 0
M  V30 22863 N 2239.32 -0.56861 -1.46985 0
M  V30 22864 C 2240.74 -0.229217 -1.57945 0
M  V30 22865 C 2240.94 1.2684 -1.56569 0
M  V30 22866 O 2239.99 2.04928 -1.47515 0
M  V30 22867 C 2241.31 -0.865959 -2.87961 0
M  V30 22868 C 2242.85 -0.838241 -3.01567 0
M  V30 22869 C 2243.33 -1.45426 -4.34298 0
M  V30 22870 N 2244.82 -1.41796 -4.40963 0
M  V30 22871 C 2245.56 -1.86413 -5.42253 0
M  V30 22872 N 2245.05 -2.38937 -6.50293 0
M  V30 22873 N 2246.84 -1.77414 -5.33367 0
M  V30 22874 H 2239 -1.54148 -1.46123 0
M  V30 22875 H 2241.26 -0.643496 -0.696144 0
M  V30 22876 H 2240.96 -1.91891 -2.94738 0
M  V30 22877 H 2240.84 -0.365753 -3.75423 0
M  V30 22878 H 2243.23 0.206054 -2.9438 0
M  V30 22879 H 2243.31 -1.37632 -2.15618 0
M  V30 22880 H 2242.95 -2.49768 -4.42242 0
M  V30 22881 H 2242.88 -0.891527 -5.18998 0
M  V30 22882 H 2245.37 -1.03388 -3.63482 0
M  V30 22883 H 2245.68 -2.70876 -7.23772 0
M  V30 22884 H 2244.03 -2.42955 -6.51151 0
M  V30 22885 H 2247.22 -1.36148 -4.47863 0
M  V30 22886 H 2247.39 -2.12503 -6.12166 0
M  V30 22887 N 2240.8 1.54608 -0.305646 0
M  V30 22888 C 2242.02 2.05107 0.307526 0
M  V30 22889 C 2242.45 1.18125 1.46383 0
M  V30 22890 O 2241.81 0.186356 1.8034 0
M  V30 22891 C 2241.86 3.52989 0.736978 0
M  V30 22892 O 2240.96 3.69013 1.84128 0
M  V30 22893 H 2240.3 0.661382 0.0589027 0
M  V30 22894 H 2242.83 1.99616 -0.448842 0
M  V30 22895 H 2242.84 3.94927 1.02452 0
M  V30 22896 H 2241.52 4.15758 -0.108847 0
M  V30 22897 H 2240.09 3.3898 1.55392 0
M  V30 22898 N 2242.28 0.033457 1.57564 0
M  V30 22899 C 2243.22 -0.946944 2.10479 0
M  V30 22900 C 2244.19 -1.32025 1.00789 0
M  V30 22901 O 2245.38 -1.41282 1.28235 0
M  V30 22902 C 2242.52 -2.22259 2.63998 0
M  V30 22903 C 2241.63 -1.90534 3.87712 0
M  V30 22904 C 2240.77 -3.12425 4.29609 0
M  V30 22905 C 2239.81 -2.7654 5.4607 0
M  V30 22906 N 2238.94 -3.9107 5.83103 0
M  V30 22907 H 2243.78 -0.488794 2.93964 0
M  V30 22908 H 2241.32 -0.229664 1.45296 0
M  V30 22909 H 2243.28 -2.96878 2.93119 0
M  V30 22910 H 2241.91 -2.65682 1.83338 0
M  V30 22911 H 2240.96 -1.06138 3.65293 0
M  V30 22912 H 2242.27 -1.60107 4.72406 0
M  V30 22913 H 2241.43 -3.95361 4.60189 0
M  V30 22914 H 2240.17 -3.46017 3.43691 0
M  V30 22915 H 2239.17 -1.92017 5.15179 0
M  V30 22916 H 2240.4 -2.4416 6.3369 0
M  V30 22917 H 2238.34 -4.24495 5.0014 0
M  V30 22918 H 2238.26 -3.64282 6.62446 0
M  V30 22919 H 2239.53 -4.74697 6.1829 0
M  V30 22920 N 2243.76 -1.55766 -0.239741 0
M  V30 22921 C 2244.67 -1.94058 -1.31828 0
M  V30 22922 C 2245.68 -0.841952 -1.52273 0
M  V30 22923 O 2246.86 -1.14397 -1.65757 0
M  V30 22924 C 2243.92 -2.23372 -2.65152 0
M  V30 22925 C 2242.98 -3.46706 -2.53167 0
M  V30 22926 C 2242.22 -3.74612 -3.80133 0
M  V30 22927 O 2242.44 -3.04477 -4.82338 0
M  V30 22928 O 2241.37 -4.6813 -3.78336 0
M  V30 22929 H 2245.2 -2.85937 -1.02342 0
M  V30 22930 H 2242.78 -1.4274 -0.441098 0
M  V30 22931 H 2244.67 -2.43503 -3.43925 0
M  V30 22932 H 2243.34 -1.34671 -2.94356 0
M  V30 22933 H 2242.25 -3.31874 -1.72656 0
M  V30 22934 H 2243.58 -4.35732 -2.28907 0
M  V30 22935 N 2245.23 0.505704 -1.49266 0
M  V30 22936 C 2246.48 1.26012 -1.58515 0
M  V30 22937 C 2246.81 1.9262 -0.269754 0
M  V30 22938 O 2246.06 1.81089 0.741965 0
M  V30 22939 C 2246.36 2.35303 -2.69012 0
M  V30 22940 C 2246.03 1.86185 -4.10665 0
M  V30 22941 C 2244.69 1.72508 -4.49215 0
M  V30 22942 C 2247.04 1.49366 -4.99339 0
M  V30 22943 C 2244.37 1.20384 -5.74216 0
M  V30 22944 C 2246.72 0.986962 -6.24853 0
M  V30 22945 C 2245.39 0.836553 -6.62237 0
M  V30 22946 H 2244.66 0.461112 -0.580049 0
M  V30 22947 H 2247.3 0.561633 -1.83079 0
M  V30 22948 H 2245.61 3.10921 -2.38401 0
M  V30 22949 H 2247.31 2.93369 -2.73378 0
M  V30 22950 H 2243.9 1.97788 -3.80234 0
M  V30 22951 H 2248.08 1.58782 -4.70215 0
M  V30 22952 H 2243.34 1.07447 -6.01885 0
M  V30 22953 H 2247.51 0.692861 -6.92945 0
M  V30 22954 H 2245.14 0.430474 -7.5898 0
M  V30 22955 N 2246.71 1.38262 0.756405 0
M  V30 22956 C 2247.65 1.29641 1.87799 0
M  V30 22957 C 2248.62 0.173967 1.61667 0
M  V30 22958 O 2249.81 0.350807 1.85207 0
M  V30 22959 C 2246.93 1.00803 3.23352 0
M  V30 22960 C 2245.98 2.14946 3.68376 0
M  V30 22961 S 2246.81 3.77061 3.80244 0
M  V30 22962 C 2247.97 3.50406 5.1862 0
M  V30 22963 H 2248.2 2.24567 1.94825 0
M  V30 22964 H 2245.74 1.24064 0.919095 0
M  V30 22965 H 2247.69 0.848484 4.01635 0
M  V30 22966 H 2246.35 0.0759921 3.14008 0
M  V30 22967 H 2245.55 1.90307 4.6669 0
M  V30 22968 H 2245.15 2.26993 2.97238 0
M  V30 22969 H 2247.44 3.06345 6.04284 0
M  V30 22970 H 2248.38 4.48103 5.48278 0
M  V30 22971 H 2248.79 2.84982 4.87284 0
M  V30 22972 N 2248.19 -0.984277 1.23084 0
M  V30 22973 C 2249.1 -2.11015 1.02518 0
M  V30 22974 C 2250.12 -1.73976 -0.0291397 0
M  V30 22975 O 2251.29 -2.00719 0.165469 0
M  V30 22976 C 2248.36 -3.41207 0.614733 0
M  V30 22977 C 2247.42 -3.92294 1.74366 0
M  V30 22978 C 2246.65 -5.16273 1.3527 0
M  V30 22979 O 2246.87 -5.69915 0.235236 0
M  V30 22980 O 2245.81 -5.6133 2.17237 0
M  V30 22981 H 2249.63 -2.31252 1.96866 0
M  V30 22982 H 2247.22 -1.0939 1.01755 0
M  V30 22983 H 2249.1 -4.1953 0.396591 0
M  V30 22984 H 2247.78 -3.22309 -0.299794 0
M  V30 22985 H 2246.68 -3.15106 2.01641 0
M  V30 22986 H 2248.02 -4.1564 2.63637 0
M  V30 22987 N 2249.67 -1.04192 -1.18244 0
M  V30 22988 C 2250.58 -0.644516 -2.25573 0
M  V30 22989 C 2251.59 0.329796 -1.70846 0
M  V30 22990 O 2252.77 0.184408 -2.00554 0
M  V30 22991 C 2249.84 -0.0149379 -3.46697 0
M  V30 22992 C 2248.9 -1.03841 -4.16552 0
M  V30 22993 C 2248.13 -0.438785 -5.31893 0
M  V30 22994 O 2248.35 0.754653 -5.65386 0
M  V30 22995 O 2247.29 -1.1681 -5.90457 0
M  V30 22996 H 2251.11 -1.53873 -2.61833 0
M  V30 22997 H 2248.7 -0.812876 -1.2535 0
M  V30 22998 H 2250.58 0.335464 -4.20063 0
M  V30 22999 H 2249.25 0.853083 -3.12257 0
M  V30 23000 H 2248.16 -1.44063 -3.45249 0
M  V30 23001 H 2249.49 -1.87724 -4.54995 0
M  V30 23002 N 2251.15 1.34492 -0.821557 0
M  V30 23003 C 2252.39 1.98621 -0.409587 0
M  V30 23004 C 2252.73 1.64986 1.02437 0
M  V30 23005 O 2252 0.920788 1.71324 0
M  V30 23006 C 2252.28 3.54887 -0.610521 0
M  V30 23007 C 2252.14 3.98269 -2.0905 0
M  V30 23008 C 2253.46 4.40076 -0.0456153 0
M  V30 23009 H 2250.57 0.721513 -0.150292 0
M  V30 23010 H 2253.22 1.59409 -1.03387 0
M  V30 23011 H 2251.37 3.88419 -0.0791123 0
M  V30 23012 H 2253.04 3.75076 -2.68544 0
M  V30 23013 H 2251.28 3.48631 -2.58146 0
M  V30 23014 H 2251.95 5.07047 -2.18191 0
M  V30 23015 H 2254.43 4.13089 -0.49963 0
M  V30 23016 H 2253.3 5.48475 -0.216018 0
M  V30 23017 H 2253.57 4.29467 1.04932 0
M  V30 23018 N 2252.62 0.576397 1.46681 0
M  V30 23019 C 2253.87 0.057318 2.01619 0
M  V30 23020 C 2254.19 -1.30815 1.45419 0
M  V30 23021 O 2255.39 -1.91822 1.92137 0
M  V30 23022 C 2253.85 0.0519003 3.59863 0
M  V30 23023 C 2253.46 1.4153 4.25057 0
M  V30 23024 C 2255.2 -0.413565 4.22481 0
M  V30 23025 C 2253.11 1.36795 5.75362 0
M  V30 23026 H 2252.04 0.017658 0.753793 0
M  V30 23027 H 2254.69 0.727106 1.6848 0
M  V30 23028 H 2253.07 -0.683925 3.90049 0
M  V30 23029 H 2254.24 2.17036 4.06488 0
M  V30 23030 H 2252.56 1.82027 3.74507 0
M  V30 23031 H 2255.16 -0.467685 5.32651 0
M  V30 23032 H 2255.5 -1.42975 3.90978 0
M  V30 23033 H 2256.03 0.267999 3.96896 0
M  V30 23034 H 2252.77 2.36074 6.11514 0
M  V30 23035 H 2252.29 0.655 5.96213 0
M  V30 23036 H 2253.97 1.07816 6.37953 0
M  V30 23037 N 2254.1 -1.54444 0.313841 0
M  V30 23038 C 2255.03 -2.21466 -0.590386 0
M  V30 23039 C 2256.05 -1.21149 -1.08751 0
M  V30 23040 O 2257.24 -1.47672 -1.00276 0
M  V30 23041 C 2254.34 -2.85772 -1.82174 0
M  V30 23042 C 2253.51 -4.12138 -1.46495 0
M  V30 23043 C 2252.57 -4.60129 -2.5528 0
M  V30 23044 O 2251.59 -5.25036 -2.19832 0
M  V30 23045 N 2252.8 -4.33532 -3.86045 0
M  V30 23046 H 2255.56 -2.99695 -0.0165506 0
M  V30 23047 H 2253.12 -1.61323 0.136607 0
M  V30 23048 H 2255.11 -3.14805 -2.54322 0
M  V30 23049 H 2253.68 -2.11307 -2.30365 0
M  V30 23050 H 2252.9 -3.89976 -0.575527 0
M  V30 23051 H 2254.19 -4.94395 -1.20213 0
M  V30 23052 H 2253.59 -3.81559 -4.17647 0
M  V30 23053 H 2252.15 -4.67243 -4.54453 0
M  V30 23054 N 2255.58 -0.0418125 -1.57545 0
M  V30 23055 C 2257 0.314677 -1.56467 0
M  V30 23056 C 2257.2 1.72064 -1.04862 0
M  V30 23057 O 2256.25 2.42573 -0.701025 0
M  V30 23058 C 2257.57 0.151687 -3.00317 0
M  V30 23059 C 2259.11 0.223498 -3.12201 0
M  V30 23060 C 2259.59 0.089149 -4.57913 0
M  V30 23061 N 2261.08 0.145727 -4.62971 0
M  V30 23062 C 2261.81 0.0657451 -5.73362 0
M  V30 23063 N 2261.31 -0.06605 -6.92769 0
M  V30 23064 N 2263.1 0.120652 -5.6197 0
M  V30 23065 H 2255.25 -0.961048 -1.89414 0
M  V30 23066 H 2257.52 -0.372252 -0.871856 0
M  V30 23067 H 2257.22 -0.817315 -3.42071 0
M  V30 23068 H 2257.1 0.916628 -3.65893 0
M  V30 23069 H 2259.48 1.18297 -2.70351 0
M  V30 23070 H 2259.57 -0.572037 -2.49322 0
M  V30 23071 H 2259.21 -0.866955 -5.00446 0
M  V30 23072 H 2259.14 0.903711 -5.18788 0
M  V30 23073 H 2261.63 0.24722 -3.7709 0
M  V30 23074 H 2261.94 -0.120041 -7.72707 0
M  V30 23075 H 2260.29 -0.101007 -6.94927 0
M  V30 23076 H 2263.48 0.222105 -4.67573 0
M  V30 23077 H 2263.65 0.0548596 -6.47977 0
M  V30 23078 N 2257.06 1.55891 0.231477 0
M  V30 23079 C 2257.99 1.86597 1.31365 0
M  V30 23080 C 2258.97 0.722423 1.4567 0
M  V30 23081 O 2260.15 0.969771 1.61641 0
M  V30 23082 C 2257.28 2.06426 2.68526 0
M  V30 23083 C 2256.33 3.29097 2.71289 0
M  V30 23084 S 2257.16 4.8531 2.2635 0
M  V30 23085 C 2258.32 5.08164 3.65405 0
M  V30 23086 H 2258.55 2.78094 1.05123 0
M  V30 23087 H 2256.08 1.48197 0.433232 0
M  V30 23088 H 2258.04 2.18534 3.47496 0
M  V30 23089 H 2256.7 1.15743 2.91997 0
M  V30 23090 H 2255.89 3.39985 3.72057 0
M  V30 23091 H 2255.5 3.15794 2.00375 0
M  V30 23092 H 2257.79 4.96453 4.61021 0
M  V30 23093 H 2258.73 6.10089 3.59439 0
M  V30 23094 H 2259.14 4.35939 3.58632 0
M  V30 23095 N 2258.54 -0.497781 1.49532 0
M  V30 23096 C 2259.81 -1.25912 1.49685 0
M  V30 23097 C 2260.19 -2.09883 0.226376 0
M  V30 23098 O 2259.54 -2.14367 -0.791152 0
M  V30 23099 C 2259.75 -2.11308 2.77759 0
M  V30 23100 C 2261.1 -2.70389 3.27376 0
M  V30 23101 O 2262.12 -2.21573 2.78898 0
M  V30 23102 O 2260.98 -3.59265 4.11814 0
M  V30 23103 H 2258.08 -0.56995 0.599238 0
M  V30 23104 H 2260.62 -0.511788 1.61799 0
M  V30 23105 H 2259.39 -1.49257 3.61715 0
M  V30 23106 H 2259.02 -2.93228 2.6852 0
M  V30 23107 N 2260.01 -1.38661 -0.749062 0
M  V30 23108 C 2261.26 -1.35317 -1.51054 0
M  V30 23109 C 2261.59 0.055341 -1.94121 0
M  V30 23110 O 2260.87 1.01746 -1.65765 0
M  V30 23111 C 2261.15 -2.31293 -2.75999 0
M  V30 23112 C 2261 -3.81024 -2.39041 0
M  V30 23113 C 2262.32 -2.25327 -3.78042 0
M  V30 23114 H 2259.44 -0.492854 -0.547963 0
M  V30 23115 H 2262.08 -1.69544 -0.857598 0
M  V30 23116 H 2260.23 -2.02235 -3.31713 0
M  V30 23117 H 2261.91 -4.20775 -1.89067 0
M  V30 23118 H 2260.15 -3.98485 -1.71442 0
M  V30 23119 H 2260.82 -4.43646 -3.28454 0
M  V30 23120 H 2263.3 -2.50989 -3.31879 0
M  V30 23121 H 2262.17 -2.94584 -4.63154 0
M  V30 23122 H 2262.43 -1.2536 -4.23954 0
M  V30 23123 N 2261.49 0.977736 -1.23605 0
M  V30 23124 C 2262.74 1.71599 -1.06762 0
M  V30 23125 C 2263.06 1.90939 0.395895 0
M  V30 23126 O 2262.33 1.47994 1.28353 0
M  V30 23127 H 2260.91 0.635836 -0.392074 0
M  V30 23128 H 2263.57 1.17678 -1.55364 0
M  V30 23129 H 2262.67 2.70449 -1.55768 0
M  V30 23130 N 2262.97 1.04818 1.1769 0
M  V30 23131 C 2263.9 0.603861 2.21102 0
M  V30 23132 C 2264.92 -0.330432 1.59411 0
M  V30 23133 O 2266.11 -0.123758 1.7807 0
M  V30 23134 C 2263.21 -0.136838 3.38624 0
M  V30 23135 C 2262.38 0.807213 4.29887 0
M  V30 23136 C 2261.44 0.108452 5.26088 0
M  V30 23137 O 2260.46 0.741331 5.64352 0
M  V30 23138 N 2261.67 -1.15548 5.68884 0
M  V30 23139 H 2264.43 1.49334 2.59845 0
M  V30 23140 H 2261.99 0.92961 1.32551 0
M  V30 23141 H 2263.98 -0.614331 4.0001 0
M  V30 23142 H 2262.55 -0.927941 2.9851 0
M  V30 23143 H 2261.77 1.46441 3.6599 0
M  V30 23144 H 2263.06 1.44816 4.87756 0
M  V30 23145 H 2262.46 -1.69006 5.39864 0
M  V30 23146 H 2261.02 -1.57711 6.32432 0
M  V30 23147 N 2264.45 -1.34055 0.828678 0
M  V30 23148 C 2265.73 -1.9259 0.341842 0
M  V30 23149 C 2266.11 -1.75607 -1.17155 0
M  V30 23150 O 2265.45 -1.13827 -1.9813 0
M  V30 23151 C 2265.66 -3.40229 0.777512 0
M  V30 23152 C 2267.01 -4.17381 0.779652 0
M  V30 23153 O 2268.04 -3.48838 0.720461 0
M  V30 23154 O 2266.9 -5.39721 0.858091 0
M  V30 23155 H 2263.99 -0.821569 0.0946229 0
M  V30 23156 H 2266.54 -1.42992 0.913852 0
M  V30 23157 H 2265.31 -3.46416 1.81966 0
M  V30 23158 H 2264.93 -3.97185 0.181514 0
M  V30 23159 N 2265.93 -0.584167 -1.46374 0
M  V30 23160 C 2267.15 -0.0740769 -2.07268 0
M  V30 23161 C 2267.58 1.22221 -1.42981 0
M  V30 23162 O 2266.94 1.73858 -0.514123 0
M  V30 23163 C 2266.98 0.0767136 -3.60518 0
M  V30 23164 O 2266.09 1.13285 -3.96535 0
M  V30 23165 H 2265.43 -0.0634641 -0.66096 0
M  V30 23166 H 2267.96 -0.807525 -1.8799 0
M  V30 23167 H 2267.97 0.282418 -4.07021 0
M  V30 23168 H 2266.64 -0.869932 -4.067 0
M  V30 23169 H 2265.22 0.905489 -3.61739 0
M  V30 23170 N 2267.41 1.54275 -0.322027 0
M  V30 23171 C 2268.65 1.9972 0.281896 0
M  V30 23172 C 2268.97 1.214 1.53367 0
M  V30 23173 O 2270.17 1.57215 2.2135 0
M  V30 23174 C 2268.63 3.55629 0.552837 0
M  V30 23175 C 2268.24 4.42782 -0.681799 0
M  V30 23176 C 2269.98 4.09546 1.1168 0
M  V30 23177 C 2267.89 5.9016 -0.382846 0
M  V30 23178 H 2266.82 0.746064 0.109111 0
M  V30 23179 H 2269.47 1.78294 -0.434011 0
M  V30 23180 H 2267.85 3.73037 1.32889 0
M  V30 23181 H 2269.03 4.37149 -1.45731 0
M  V30 23182 H 2267.34 3.99746 -1.16587 0
M  V30 23183 H 2269.94 5.17245 1.35506 0
M  V30 23184 H 2270.28 3.61435 2.06569 0
M  V30 23185 H 2270.81 3.95764 0.401963 0
M  V30 23186 H 2267.55 6.42462 -1.30087 0
M  V30 23187 H 2267.07 5.98749 0.354989 0
M  V30 23188 H 2268.75 6.47 0.00788784 0
M  V30 23189 N 2268.88 0.0501669 1.5752 0
M  V30 23190 C 2269.83 -0.934194 2.07983 0
M  V30 23191 C 2270.82 -1.27244 0.984767 0
M  V30 23192 O 2272.01 -1.25503 1.24811 0
M  V30 23193 C 2269.14 -2.2094 2.62755 0
M  V30 23194 C 2268.22 -1.89859 3.79229 0
M  V30 23195 N 2268.62 -1.29133 4.89038 0
M  V30 23196 C 2266.91 -2.19734 3.88115 0
M  V30 23197 C 2267.61 -1.15659 5.70086 0
M  V30 23198 N 2266.59 -1.65914 5.17662 0
M  V30 23199 H 2270.39 -0.460002 2.90278 0
M  V30 23200 H 2267.91 -0.154311 1.61665 0
M  V30 23201 H 2269.9 -2.92355 2.97211 0
M  V30 23202 H 2268.56 -2.68966 1.81899 0
M  V30 23203 H 2269.57 -0.963667 5.08855 0
M  V30 23204 H 2266.25 -2.70288 3.18199 0
M  V30 23205 H 2267.64 -0.685238 6.68397 0
M  V30 23206 N 2270.36 -1.56011 -0.223207 0
M  V30 23207 C 2271.61 -1.79213 -0.949248 0
M  V30 23208 C 2271.94 -0.619527 -1.84053 0
M  V30 23209 O 2271.22 0.381283 -1.90726 0
M  V30 23210 C 2271.5 -3.12483 -1.7896 0
M  V30 23211 C 2271.35 -4.40188 -0.92492 0
M  V30 23212 C 2272.67 -3.4218 -2.76768 0
M  V30 23213 H 2269.79 -0.651969 -0.343665 0
M  V30 23214 H 2272.43 -1.88743 -0.21822 0
M  V30 23215 H 2270.58 -3.04489 -2.41285 0
M  V30 23216 H 2272.25 -4.60199 -0.318535 0
M  V30 23217 H 2270.5 -4.33188 -0.230268 0
M  V30 23218 H 2271.17 -5.29872 -1.54726 0
M  V30 23219 H 2273.64 -3.50291 -2.24578 0
M  V30 23220 H 2272.52 -4.36603 -3.3267 0
M  V30 23221 H 2272.78 -2.64265 -3.54424 0
M  V30 23222 N 2271.84 0.489844 -1.49794 0
M  V30 23223 C 2273.07 1.26699 -1.6357 0
M  V30 23224 C 2273.48 1.86213 -0.311498 0
M  V30 23225 O 2272.84 1.68359 0.704386 0
M  V30 23226 C 2272.89 2.38924 -2.71289 0
M  V30 23227 O 2272.61 1.81854 -3.98573 0
M  V30 23228 C 2274.11 3.30115 -2.9587 0
M  V30 23229 H 2271.33 0.383871 -0.550349 0
M  V30 23230 H 2273.88 0.58683 -1.95899 0
M  V30 23231 H 2272.03 3.02749 -2.41706 0
M  V30 23232 H 2272.45 2.55614 -4.57997 0
M  V30 23233 H 2273.92 4.05114 -3.74948 0
M  V30 23234 H 2274.4 3.87779 -2.06213 0
M  V30 23235 H 2275 2.72046 -3.26912 0
M  V30 23236 N 2273.32 1.39056 0.741698 0
M  V30 23237 C 2274.56 1.36116 1.50334 0
M  V30 23238 C 2274.9 -0.0450455 1.94148 0
M  V30 23239 O 2274.17 -1.00865 1.66302 0
M  V30 23240 C 2274.45 2.32754 2.74768 0
M  V30 23241 C 2274.31 3.82287 2.37017 0
M  V30 23242 C 2275.63 2.27328 3.76842 0
M  V30 23243 H 2272.75 0.495753 0.545342 0
M  V30 23244 H 2275.39 1.69997 0.848595 0
M  V30 23245 H 2273.54 2.03991 3.30635 0
M  V30 23246 H 2275.21 4.21771 1.86833 0
M  V30 23247 H 2273.45 3.99388 1.69327 0
M  V30 23248 H 2274.12 4.45382 3.26097 0
M  V30 23249 H 2276.6 2.52745 3.30543 0
M  V30 23250 H 2275.48 2.97037 4.61585 0
M  V30 23251 H 2275.74 1.27606 4.23284 0
M  V30 23252 N 2274.8 -0.971167 1.24121 0
M  V30 23253 C 2275.73 -2.08302 1.05511 0
M  V30 23254 C 2276.71 -1.70072 -0.0308565 0
M  V30 23255 O 2277.89 -1.93726 0.135556 0
M  V30 23256 C 2275.02 -3.41059 0.655425 0
M  V30 23257 C 2273.98 -3.93231 1.68978 0
M  V30 23258 C 2273.3 -5.22291 1.14525 0
M  V30 23259 C 2274.6 -4.2146 3.08494 0
M  V30 23260 H 2276.3 -2.24129 1.98511 0
M  V30 23261 H 2273.84 -1.07702 0.95584 0
M  V30 23262 H 2275.79 -4.18275 0.512243 0
M  V30 23263 H 2274.52 -3.25123 -0.310263 0
M  V30 23264 H 2273.18 -3.18168 1.82111 0
M  V30 23265 H 2272.83 -5.02712 0.170277 0
M  V30 23266 H 2272.53 -5.58165 1.83645 0
M  V30 23267 H 2274.05 -6.0212 1.01412 0
M  V30 23268 H 2275.46 -4.89393 2.98609 0
M  V30 23269 H 2273.86 -4.68555 3.74935 0
M  V30 23270 H 2274.93 -3.2837 3.56793 0
M  V30 23271 N 2276.27 -1.05441 -1.17133 0
M  V30 23272 C 2277.21 -0.615578 -2.20779 0
M  V30 23273 C 2278.22 0.321973 -1.59584 0
M  V30 23274 O 2279.41 0.114313 -1.78134 0
M  V30 23275 C 2276.51 0.118878 -3.38691 0
M  V30 23276 C 2275.68 -0.829999 -4.29453 0
M  V30 23277 C 2274.74 -0.13635 -5.26023 0
M  V30 23278 O 2273.77 -0.771249 -5.63951 0
M  V30 23279 N 2274.97 1.1253 -5.69489 0
M  V30 23280 H 2277.73 -1.5071 -2.59049 0
M  V30 23281 H 2275.29 -0.936627 -1.32056 0
M  V30 23282 H 2277.29 0.593108 -4.0033 0
M  V30 23283 H 2275.86 0.912097 -2.98998 0
M  V30 23284 H 2275.08 -1.4838 -3.65208 0
M  V30 23285 H 2276.36 -1.474 -4.86981 0
M  V30 23286 H 2275.76 1.6614 -5.40753 0
M  V30 23287 H 2274.32 1.54355 -6.3326 0
M  V30 23288 N 2277.75 1.33613 -0.835776 0
M  V30 23289 C 2278.98 2.018 -0.442736 0
M  V30 23290 C 2279.39 1.63049 0.959779 0
M  V30 23291 O 2278.73 0.838117 1.63466 0
M  V30 23292 C 2278.8 3.56279 -0.480188 0
M  V30 23293 C 2278.46 4.18397 -1.83828 0
M  V30 23294 C 2279.46 4.37993 -2.80104 0
M  V30 23295 C 2277.14 4.5489 -2.13027 0
M  V30 23296 C 2279.14 4.93223 -4.03745 0
M  V30 23297 C 2276.82 5.09828 -3.36925 0
M  V30 23298 C 2277.82 5.28941 -4.32101 0
M  V30 23299 O 2277.51 5.82711 -5.53807 0
M  V30 23300 H 2277.24 0.65311 -0.174421 0
M  V30 23301 H 2279.79 1.71587 -1.12903 0
M  V30 23302 H 2278.02 3.85806 0.262863 0
M  V30 23303 H 2279.71 4.05763 -0.105406 0
M  V30 23304 H 2280.48 4.10151 -2.58845 0
M  V30 23305 H 2276.36 4.3931 -1.39741 0
M  V30 23306 H 2279.9 5.08056 -4.78043 0
M  V30 23307 H 2275.8 5.371 -3.58042 0
M  V30 23308 H 2276.57 6.0113 -5.55504 0
M  V30 23309 N 2279.23 0.591922 1.46062 0
M  V30 23310 C 2280.46 0.0850678 2.07225 0
M  V30 23311 C 2280.88 -1.21461 1.43628 0
M  V30 23312 O 2280.24 -1.73583 0.523336 0
M  V30 23313 C 2280.29 -0.0575933 3.60554 0
M  V30 23314 O 2279.39 -1.11181 3.9713 0
M  V30 23315 H 2278.73 0.0669684 0.660614 0
M  V30 23316 H 2281.26 0.817483 1.87559 0
M  V30 23317 H 2281.27 -0.260829 4.07165 0
M  V30 23318 H 2279.95 0.891488 4.06233 0
M  V30 23319 H 2278.52 -0.886292 3.62214 0
M  V30 23320 N 2280.71 -1.54102 0.330204 0
M  V30 23321 C 2281.94 -2.04805 -0.271748 0
M  V30 23322 C 2282.35 -1.20561 -1.45814 0
M  V30 23323 O 2281.69 -0.230632 -1.82246 0
M  V30 23324 C 2281.75 -3.51306 -0.763176 0
M  V30 23325 C 2281.42 -4.56002 0.301785 0
M  V30 23326 C 2282.41 -5.07246 1.14008 0
M  V30 23327 C 2280.1 -5.00263 0.451881 0
M  V30 23328 C 2282.09 -6.01318 2.11413 0
M  V30 23329 C 2279.78 -5.94149 1.42935 0
M  V30 23330 C 2280.78 -6.44563 2.25893 0
M  V30 23331 O 2280.46 -7.36604 3.21978 0
M  V30 23332 H 2280.2 -0.673448 -0.0586812 0
M  V30 23333 H 2282.75 -1.99798 0.47643 0
M  V30 23334 H 2280.98 -3.53733 -1.56238 0
M  V30 23335 H 2282.67 -3.85049 -1.28421 0
M  V30 23336 H 2283.44 -4.73825 1.03513 0
M  V30 23337 H 2279.31 -4.60633 -0.183963 0
M  V30 23338 H 2282.86 -6.40592 2.76203 0
M  V30 23339 H 2278.76 -6.26986 1.5349 0
M  V30 23340 H 2279.52 -7.54498 3.17294 0
M  V30 23341 N 2282.19 -0.0585199 -1.57491 0
M  V30 23342 C 2283.12 0.948933 -2.07534 0
M  V30 23343 C 2284.1 1.2994 -0.977467 0
M  V30 23344 O 2285.28 1.411 -1.24992 0
M  V30 23345 C 2282.41 2.26086 -2.52196 0
M  V30 23346 C 2281.45 2.06291 -3.73291 0
M  V30 23347 S 2282.29 1.33449 -5.18605 0
M  V30 23348 C 2283.44 2.6595 -5.66588 0
M  V30 23349 H 2283.68 0.523067 -2.92662 0
M  V30 23350 H 2281.21 0.153927 -1.53631 0
M  V30 23351 H 2283.17 3.01493 -2.7859 0
M  V30 23352 H 2281.83 2.65799 -1.67361 0
M  V30 23353 H 2281.02 3.0335 -4.02486 0
M  V30 23354 H 2280.62 1.39023 -3.47201 0
M  V30 23355 H 2282.92 3.62091 -5.72622 0
M  V30 23356 H 2283.86 2.41382 -6.65688 0
M  V30 23357 H 2284.27 2.72546 -4.94347 0
M  V30 23358 N 2283.66 1.56128 0.21493 0
M  V30 23359 C 2284.91 1.79713 0.93973 0
M  V30 23360 C 2285.24 0.629279 1.83722 0
M  V30 23361 O 2284.52 -0.371163 1.90926 0
M  V30 23362 C 2284.8 3.13427 1.773 0
M  V30 23363 C 2284.65 4.40672 0.901562 0
M  V30 23364 C 2285.97 3.43643 2.7495 0
M  V30 23365 H 2283.09 0.653782 0.340203 0
M  V30 23366 H 2285.73 1.88856 0.208207 0
M  V30 23367 H 2283.88 3.05764 2.39667 0
M  V30 23368 H 2285.56 4.60361 0.294125 0
M  V30 23369 H 2283.8 4.33304 0.207291 0
M  V30 23370 H 2284.47 5.30685 1.51913 0
M  V30 23371 H 2286.95 3.51477 2.22717 0
M  V30 23372 H 2285.82 4.38361 3.3035 0
M  V30 23373 H 2286.08 2.66141 3.53018 0
M  V30 23374 N 2285.14 -0.481893 1.50052 0
M  V30 23375 C 2286.37 -1.25829 1.64239 0
M  V30 23376 C 2286.79 -1.86045 0.321369 0
M  V30 23377 O 2286.14 -1.6873 -0.695448 0
M  V30 23378 C 2286.19 -2.37482 2.72552 0
M  V30 23379 O 2285.91 -1.79738 3.99532 0
M  V30 23380 C 2287.42 -3.28541 2.97616 0
M  V30 23381 H 2284.64 -0.380947 0.552377 0
M  V30 23382 H 2287.18 -0.576433 1.96208 0
M  V30 23383 H 2285.33 -3.01463 2.43308 0
M  V30 23384 H 2285.75 -2.53182 4.59347 0
M  V30 23385 H 2287.22 -4.0312 3.77092 0
M  V30 23386 H 2287.7 -3.8668 2.08266 0
M  V30 23387 H 2288.31 -2.70308 3.2835 0
M  V30 23388 N 2286.62 -1.39448 -0.734313 0
M  V30 23389 C 2287.87 -1.36911 -1.4961 0
M  V30 23390 C 2288.2 0.0347488 -1.94169 0
M  V30 23391 O 2287.47 0.999818 -1.66835 0
M  V30 23392 C 2287.76 -2.34208 -2.7353 0
M  V30 23393 C 2287.61 -3.83538 -2.34986 0
M  V30 23394 C 2288.93 -2.29324 -3.75631 0
M  V30 23395 H 2286.05 -0.498638 -0.542705 0
M  V30 23396 H 2288.69 -1.70444 -0.839567 0
M  V30 23397 H 2286.84 -2.05742 -3.29549 0
M  V30 23398 H 2288.51 -4.22756 -1.84593 0
M  V30 23399 H 2286.76 -4.00281 -1.67206 0
M  V30 23400 H 2287.43 -4.47105 -3.2373 0
M  V30 23401 H 2289.9 -2.54495 -3.29198 0
M  V30 23402 H 2288.78 -2.9948 -4.60003 0
M  V30 23403 H 2289.04 -1.29849 -4.22601 0
M  V30 23404 N 2288.1 0.964571 -1.24635 0
M  V30 23405 C 2289.01 2.09357 -1.05863 0
M  V30 23406 C 2290.02 1.74 0.00145797 0
M  V30 23407 O 2291.2 2.0043 -0.197381 0
M  V30 23408 C 2288.27 3.40185 -0.668938 0
M  V30 23409 C 2287.33 3.89471 -1.80585 0
M  V30 23410 C 2286.56 5.14056 -1.43466 0
M  V30 23411 O 2286.78 5.69468 -0.325875 0
M  V30 23412 O 2285.72 5.57803 -2.26139 0
M  V30 23413 H 2289.54 2.28091 -2.0052 0
M  V30 23414 H 2287.13 1.07758 -1.03482 0
M  V30 23415 H 2289.01 4.18846 -0.463285 0
M  V30 23416 H 2287.68 3.22745 0.24848 0
M  V30 23417 H 2286.59 3.11858 -2.06628 0
M  V30 23418 H 2287.92 4.11393 -2.70216 0
M  V30 23419 N 2289.58 1.0606 1.16572 0
M  V30 23420 C 2290.81 0.79543 1.90674 0
M  V30 23421 C 2291.21 -0.653704 1.77548 0
M  V30 23422 O 2290.56 -1.45905 1.11613 0
M  V30 23423 C 2290.62 1.1077 3.42009 0
M  V30 23424 C 2290.28 2.55478 3.7892 0
M  V30 23425 C 2291.28 3.53706 3.81036 0
M  V30 23426 C 2288.97 2.90716 4.09621 0
M  V30 23427 C 2290.96 4.85212 4.13337 0
M  V30 23428 C 2288.65 4.22423 4.4159 0
M  V30 23429 C 2289.64 5.19482 4.43427 0
M  V30 23430 O 2289.33 6.48825 4.74638 0
M  V30 23431 H 2289.06 0.288069 0.611549 0
M  V30 23432 H 2291.62 1.41686 1.48709 0
M  V30 23433 H 2289.85 0.429196 3.84311 0
M  V30 23434 H 2291.54 0.827147 3.97383 0
M  V30 23435 H 2292.3 3.27823 3.57431 0
M  V30 23436 H 2288.18 2.15826 4.07357 0
M  V30 23437 H 2291.73 5.60964 4.14686 0
M  V30 23438 H 2287.62 4.48065 4.64659 0
M  V30 23439 H 2288.39 6.53779 4.92459 0
M  V30 23440 N 2291.06 -1.33168 0.84285 0
M  V30 23441 C 2292.47 -1.79972 0.496682 0
M  V30 23442 C 2292.82 -1.69705 -0.984611 0
M  V30 23443 O 2291.94 -1.24866 -1.76741 0
M  V30 23444 C 2292.54 -3.26771 0.894784 0
M  V30 23445 C 2291.1 -3.71576 0.600695 0
M  V30 23446 C 2290.24 -2.54508 1.10095 0
M  V30 23447 H 2293.19 -1.20633 1.03118 0
M  V30 23448 H 2293.22 -3.7994 0.206414 0
M  V30 23449 H 2292.73 -3.34211 1.97293 0
M  V30 23450 H 2290.83 -3.69659 -0.467219 0
M  V30 23451 H 2290.94 -4.64877 1.15872 0
M  V30 23452 H 2289.31 -2.49301 0.521664 0
M  V30 23453 H 2290.09 -2.64709 2.18596 0
M  V30 23454 N 2292.53 -0.599659 -1.45746 0
M  V30 23455 C 2293.78 -0.091764 -2.02292 0
M  V30 23456 C 2294.11 1.27469 -1.46908 0
M  V30 23457 O 2293.36 1.85259 -0.630684 0
M  V30 23458 C 2293.66 0.00596476 -3.574 0
M  V30 23459 C 2293.33 -1.29511 -4.319 0
M  V30 23460 C 2291.99 -1.65152 -4.51971 0
M  V30 23461 C 2294.34 -2.15533 -4.74547 0
M  V30 23462 C 2291.67 -2.86583 -5.11944 0
M  V30 23463 C 2294.02 -3.36206 -5.35862 0
M  V30 23464 C 2292.69 -3.72109 -5.54158 0
M  V30 23465 H 2291.96 -0.0335788 -0.740239 0
M  V30 23466 H 2294.6 -0.779691 -1.74909 0
M  V30 23467 H 2292.91 0.777115 -3.84016 0
M  V30 23468 H 2294.61 0.414968 -3.98847 0
M  V30 23469 H 2291.2 -1.00768 -4.16586 0
M  V30 23470 H 2295.38 -1.89298 -4.58781 0
M  V30 23471 H 2290.64 -3.14516 -5.24299 0
M  V30 23472 H 2294.81 -4.03119 -5.67863 0
M  V30 23473 H 2292.44 -4.6629 -6.00398 0
M  V30 23474 N 2294.01 1.53925 -0.338371 0
M  V30 23475 C 2295.24 2.05714 0.263951 0
M  V30 23476 C 2295.66 1.21204 1.43845 0
M  V30 23477 O 2295.02 0.224567 1.79904 0
M  V30 23478 C 2295.07 3.54472 0.661938 0
M  V30 23479 O 2294.17 3.72836 1.76259 0
M  V30 23480 H 2293.51 0.662483 0.0448606 0
M  V30 23481 H 2296.04 1.98619 -0.491083 0
M  V30 23482 H 2296.05 3.97012 0.940524 0
M  V30 23483 H 2294.73 4.15433 -0.19701 0
M  V30 23484 H 2293.3 3.422 1.48167 0
M  V30 23485 N 2295.49 0.0668712 1.57458 0
M  V30 23486 C 2296.4 -0.916937 2.15938 0
M  V30 23487 C 2297.42 -1.33056 1.12126 0
M  V30 23488 O 2298.59 -1.40426 1.44369 0
M  V30 23489 C 2295.66 -2.16802 2.70551 0
M  V30 23490 C 2294.72 -1.81128 3.89219 0
M  V30 23491 C 2293.95 -3.00272 4.41217 0
M  V30 23492 O 2294.17 -4.14137 3.92233 0
M  V30 23493 O 2293.11 -2.80375 5.3261 0
M  V30 23494 H 2296.93 -0.449508 3.00355 0
M  V30 23495 H 2294.52 -0.155923 1.48584 0
M  V30 23496 H 2296.4 -2.90176 3.05575 0
M  V30 23497 H 2295.08 -2.62653 1.89196 0
M  V30 23498 H 2293.98 -1.05022 3.59056 0
M  V30 23499 H 2295.32 -1.40065 4.7185 0
M  V30 23500 N 2296.97 -1.56239 -0.206647 0
M  V30 23501 C 2297.93 -1.92778 -1.23973 0
M  V30 23502 C 2298.93 -0.807754 -1.39039 0
M  V30 23503 O 2300.12 -1.07532 -1.37049 0
M  V30 23504 C 2297.25 -2.19169 -2.61108 0
M  V30 23505 H 2298.45 -2.8519 -0.927714 0
M  V30 23506 H 2296 -1.49751 -0.447692 0
M  V30 23507 H 2296.73 -1.29357 -2.97384 0
M  V30 23508 H 2296.52 -3.00777 -2.51547 0
M  V30 23509 H 2298.01 -2.48482 -3.35628 0
M  V30 23510 N 2298.45 0.473929 -1.50305 0
M  V30 23511 C 2299.38 1.58968 -1.65112 0
M  V30 23512 C 2300.39 1.53838 -0.532703 0
M  V30 23513 O 2301.58 1.59278 -0.805779 0
M  V30 23514 C 2298.68 2.97842 -1.61689 0
M  V30 23515 C 2297.85 3.27871 -2.89516 0
M  V30 23516 C 2296.91 4.46285 -2.78775 0
M  V30 23517 O 2295.94 4.46733 -3.5273 0
M  V30 23518 N 2297.14 5.4778 -1.9214 0
M  V30 23519 H 2299.9 1.46684 -2.6135 0
M  V30 23520 H 2297.47 0.662298 -1.47734 0
M  V30 23521 H 2299.46 3.75022 -1.52121 0
M  V30 23522 H 2298.03 3.03909 -0.731979 0
M  V30 23523 H 2297.25 2.39331 -3.13232 0
M  V30 23524 H 2298.54 3.44744 -3.74205 0
M  V30 23525 H 2297.93 5.50237 -1.31363 0
M  V30 23526 H 2296.49 6.23955 -1.88477 0
M  V30 23527 N 2299.92 1.39835 0.726907 0
M  V30 23528 C 2301.15 1.40978 1.52118 0
M  V30 23529 C 2301.57 0.00829336 1.88098 0
M  V30 23530 O 2300.93 -0.98078 1.52481 0
M  V30 23531 C 2300.98 2.29649 2.78017 0
M  V30 23532 O 2300.08 1.73194 3.74269 0
M  V30 23533 H 2299.42 0.479739 0.459071 0
M  V30 23534 H 2301.95 1.83929 0.896175 0
M  V30 23535 H 2301.96 2.44443 3.26667 0
M  V30 23536 H 2300.64 3.31497 2.51163 0
M  V30 23537 H 2299.22 1.67686 3.3307 0
M  V30 23538 N 2301.4 -0.957948 1.25144 0
M  V30 23539 C 2302.35 -2.05411 1.05239 0
M  V30 23540 C 2303.32 -1.66058 -0.0374269 0
M  V30 23541 O 2304.5 -1.90428 0.119106 0
M  V30 23542 C 2301.64 -3.38461 0.673649 0
M  V30 23543 C 2300.76 -3.90951 1.83797 0
M  V30 23544 C 2299.89 -5.12313 1.4039 0
M  V30 23545 C 2298.93 -5.57023 2.53756 0
M  V30 23546 N 2298.07 -6.69598 2.11147 0
M  V30 23547 H 2302.91 -2.21771 1.99052 0
M  V30 23548 H 2300.44 -1.08682 0.991297 0
M  V30 23549 H 2302.4 -4.14926 0.435037 0
M  V30 23550 H 2301.03 -3.21997 -0.227497 0
M  V30 23551 H 2300.08 -3.11037 2.18998 0
M  V30 23552 H 2301.4 -4.20084 2.68944 0
M  V30 23553 H 2300.55 -5.96183 1.12474 0
M  V30 23554 H 2299.29 -4.84887 0.5231 0
M  V30 23555 H 2298.29 -4.71719 2.8242 0
M  V30 23556 H 2299.52 -5.86458 3.42408 0
M  V30 23557 H 2297.47 -6.43887 1.25479 0
M  V30 23558 H 2297.38 -6.98231 2.89844 0
M  V30 23559 H 2298.65 -7.56886 1.86399 0
M  V30 23560 N 2302.88 -1.06677 -1.16008 0
M  V30 23561 C 2304.13 -0.784262 -1.86263 0
M  V30 23562 C 2304.45 0.691456 -1.82329 0
M  V30 23563 O 2303.72 1.50045 -1.2595 0
M  V30 23564 H 2302.3 -0.287122 -0.689616 0
M  V30 23565 H 2304.96 -1.34908 -1.40662 0
M  V30 23566 H 2304.06 -1.11264 -2.91593 0
M  V30 23567 N 2304.36 1.32719 -0.8499 0
M  V30 23568 C 2305.63 1.92021 -0.372439 0
M  V30 23569 C 2306.01 1.77449 1.14346 0
M  V30 23570 O 2305.36 1.16965 1.96294 0
M  V30 23571 C 2305.57 3.38949 -0.831541 0
M  V30 23572 C 2306.92 4.16087 -0.845955 0
M  V30 23573 O 2307.94 3.47647 -0.775867 0
M  V30 23574 O 2306.8 5.38288 -0.943848 0
M  V30 23575 H 2303.9 0.81996 -0.107681 0
M  V30 23576 H 2306.44 1.4152 -0.936485 0
M  V30 23577 H 2305.22 3.43477 -1.87454 0
M  V30 23578 H 2304.84 3.96846 -0.244679 0
M  V30 23579 N 2305.84 0.60738 1.45426 0
M  V30 23580 C 2307.09 0.100071 2.01452 0
M  V30 23581 C 2307.4 -1.27701 1.48161 0
M  V30 23582 O 2308.6 -1.87703 1.96162 0
M  V30 23583 C 2307.06 0.128221 3.59672 0
M  V30 23584 C 2306.67 1.50514 4.21959 0
M  V30 23585 C 2308.41 -0.323857 4.23263 0
M  V30 23586 C 2306.32 1.48969 5.72331 0
M  V30 23587 H 2305.25 0.0336431 0.753249 0
M  V30 23588 H 2307.9 0.762679 1.669 0
M  V30 23589 H 2306.28 -0.601036 3.91412 0
M  V30 23590 H 2307.46 2.25609 4.01792 0
M  V30 23591 H 2305.77 1.8993 3.70561 0
M  V30 23592 H 2308.37 -0.354597 5.33523 0
M  V30 23593 H 2308.71 -1.34649 3.93923 0
M  V30 23594 H 2309.24 0.352126 3.96238 0
M  V30 23595 H 2305.98 2.48992 6.06369 0
M  V30 23596 H 2305.5 0.781318 5.94689 0
M  V30 23597 H 2307.18 1.21324 6.35523 0
M  V30 23598 N 2307.31 -1.53743 0.34653 0
M  V30 23599 C 2308.24 -2.28059 -0.501153 0
M  V30 23600 C 2309.23 -1.29736 -1.10011 0
M  V30 23601 O 2310.41 -1.58583 -1.12094 0
M  V30 23602 C 2307.54 -3.05562 -1.65073 0
M  V30 23603 C 2306.49 -4.11413 -1.17996 0
M  V30 23604 C 2305.82 -4.76889 -2.41829 0
M  V30 23605 C 2307.12 -5.21558 -0.278303 0
M  V30 23606 H 2308.81 -2.99164 0.118803 0
M  V30 23607 H 2306.36 -1.43881 0.0585784 0
M  V30 23608 H 2308.31 -3.56291 -2.25022 0
M  V30 23609 H 2307.04 -2.32113 -2.29763 0
M  V30 23610 H 2305.7 -3.61602 -0.603268 0
M  V30 23611 H 2305.34 -4.00031 -3.04933 0
M  V30 23612 H 2305.04 -5.48405 -2.1101 0
M  V30 23613 H 2306.57 -5.30403 -3.02499 0
M  V30 23614 H 2307.98 -5.67904 -0.784723 0
M  V30 23615 H 2306.38 -6.00068 -0.0618652 0
M  V30 23616 H 2307.45 -4.80041 0.684761 0
M  V30 23617 N 2308.79 -0.0752207 -1.5742 0
M  V30 23618 C 2309.72 0.920446 -2.09906 0
M  V30 23619 C 2310.74 1.25916 -1.03194 0
M  V30 23620 O 2311.93 1.21575 -1.30697 0
M  V30 23621 C 2309.03 2.2353 -2.5473 0
M  V30 23622 C 2308.2 2.07491 -3.85053 0
M  V30 23623 C 2307.26 3.22311 -4.15935 0
M  V30 23624 O 2306.28 2.97151 -4.85479 0
M  V30 23625 N 2307.49 4.47507 -3.69753 0
M  V30 23626 H 2310.25 0.472307 -2.95955 0
M  V30 23627 H 2307.81 0.110416 -1.61523 0
M  V30 23628 H 2309.8 2.99255 -2.72449 0
M  V30 23629 H 2308.37 2.59831 -1.738 0
M  V30 23630 H 2307.59 1.16213 -3.76681 0
M  V30 23631 H 2308.88 1.94029 -4.70351 0
M  V30 23632 H 2308.28 4.70835 -3.13578 0
M  V30 23633 H 2306.84 5.20248 -3.92665 0
M  V30 23634 N 2310.27 1.56347 0.198358 0
M  V30 23635 C 2311.69 1.49858 0.549059 0
M  V30 23636 C 2311.89 0.774644 1.86015 0
M  V30 23637 O 2310.94 0.32382 2.50415 0
M  V30 23638 C 2312.26 2.94514 0.606816 0
M  V30 23639 C 2313.8 3.05167 0.695872 0
M  V30 23640 C 2314.28 4.51227 0.784769 0
M  V30 23641 N 2315.77 4.55364 0.848383 0
M  V30 23642 C 2316.5 5.65688 0.937279 0
M  V30 23643 N 2316 6.85709 0.98868 0
M  V30 23644 N 2317.79 5.53593 0.974215 0
M  V30 23645 H 2309.94 2.0183 -0.661691 0
M  V30 23646 H 2312.21 0.91834 -0.235277 0
M  V30 23647 H 2311.91 3.50524 -0.287381 0
M  V30 23648 H 2311.79 3.47689 1.46262 0
M  V30 23649 H 2314.17 2.49207 1.5805 0
M  V30 23650 H 2314.26 2.55122 -0.186066 0
M  V30 23651 H 2313.9 5.0781 -0.0954964 0
M  V30 23652 H 2313.83 4.99 1.68246 0
M  V30 23653 H 2316.32 3.6894 0.818038 0
M  V30 23654 H 2316.63 7.65538 1.05693 0
M  V30 23655 H 2314.98 6.88374 0.957413 0
M  V30 23656 H 2318.17 4.58751 0.930873 0
M  V30 23657 H 2318.34 6.39599 1.04004 0
M  V30 23658 N 2311.75 -0.465951 1.50554 0
M  V30 23659 C 2312.99 -1.21946 1.6204 0
M  V30 23660 C 2313.33 -1.91509 0.32215 0
M  V30 23661 O 2312.6 -1.82349 -0.676691 0
M  V30 23662 C 2312.89 -2.25907 2.80425 0
M  V30 23663 C 2312.74 -1.60615 4.20146 0
M  V30 23664 C 2314.06 -3.27171 2.94359 0
M  V30 23665 H 2311.18 -0.441987 0.589759 0
M  V30 23666 H 2313.82 -0.512538 1.82956 0
M  V30 23667 H 2311.97 -2.86198 2.62722 0
M  V30 23668 H 2313.64 -1.03881 4.49451 0
M  V30 23669 H 2311.88 -0.909137 4.24166 0
M  V30 23670 H 2312.55 -2.36187 4.98919 0
M  V30 23671 H 2315.03 -2.76907 3.10583 0
M  V30 23672 H 2313.91 -3.97236 3.78807 0
M  V30 23673 H 2314.17 -3.91597 2.05193 0
M  V30 23674 N 2313.23 -1.40218 -0.719481 0
M  V30 23675 C 2314.64 -1.22163 -1.02705 0
M  V30 23676 C 2314.84 -0.094091 -2.0128 0
M  V30 23677 O 2313.9 0.549274 -2.46453 0
M  V30 23678 C 2315.21 -2.56184 -1.5745 0
M  V30 23679 C 2316.76 -2.63162 -1.69454 0
M  V30 23680 C 2317.23 -3.97442 -2.27605 0
M  V30 23681 N 2318.73 -3.99163 -2.34995 0
M  V30 23682 C 2319.46 -4.99847 -2.80963 0
M  V30 23683 N 2318.96 -6.10926 -3.26712 0
M  V30 23684 N 2320.75 -4.87218 -2.80312 0
M  V30 23685 H 2312.9 -2.12297 -0.0660118 0
M  V30 23686 H 2315.16 -0.943536 -0.0918912 0
M  V30 23687 H 2314.87 -3.39323 -0.924814 0
M  V30 23688 H 2314.74 -2.76998 -2.56031 0
M  V30 23689 H 2317.13 -1.80397 -2.3354 0
M  V30 23690 H 2317.21 -2.46183 -0.694824 0
M  V30 23691 H 2316.86 -4.80645 -1.64141 0
M  V30 23692 H 2316.79 -4.1175 -3.28283 0
M  V30 23693 H 2319.28 -3.18951 -2.0268 0
M  V30 23694 H 2319.59 -6.83647 -3.60343 0
M  V30 23695 H 2317.93 -6.14497 -3.24681 0
M  V30 23696 H 2321.13 -3.99535 -2.43905 0
M  V30 23697 H 2321.3 -5.65828 -3.15821 0
M  V30 23698 N 2314.7 0.951297 -1.25651 0
M  V30 23699 C 2315.61 2.08222 -1.08077 0
M  V30 23700 C 2316.63 1.73992 -0.0169971 0
M  V30 23701 O 2317.81 2.0021 -0.218628 0
M  V30 23702 C 2314.87 3.39457 -0.704982 0
M  V30 23703 C 2313.93 3.87534 -1.84706 0
M  V30 23704 C 2313.17 5.12505 -1.48911 0
M  V30 23705 O 2313.39 5.69091 -0.386256 0
M  V30 23706 O 2312.32 5.55373 -2.32043 0
M  V30 23707 H 2316.15 2.25951 -2.02928 0
M  V30 23708 H 2313.73 1.06654 -1.0462 0
M  V30 23709 H 2315.62 4.18331 -0.507683 0
M  V30 23710 H 2314.29 3.2299 0.214234 0
M  V30 23711 H 2313.2 3.09649 -2.09924 0
M  V30 23712 H 2314.53 4.08504 -2.74564 0
M  V30 23713 N 2316.18 1.07291 1.1544 0
M  V30 23714 C 2317.43 0.790702 1.85555 0
M  V30 23715 C 2317.74 -0.685706 1.83187 0
M  V30 23716 O 2318.95 -1.08266 2.48979 0
M  V30 23717 C 2317.41 1.36439 3.33035 0
M  V30 23718 C 2317.01 2.87176 3.43851 0
M  V30 23719 C 2318.76 1.16017 4.08338 0
M  V30 23720 C 2316.67 3.37739 4.85476 0
M  V30 23721 H 2315.6 0.29211 0.695117 0
M  V30 23722 H 2318.25 1.2929 1.30217 0
M  V30 23723 H 2316.63 0.789932 3.88041 0
M  V30 23724 H 2317.8 3.5066 2.98955 0
M  V30 23725 H 2316.12 3.06381 2.81992 0
M  V30 23726 H 2318.71 1.51271 5.12856 0
M  V30 23727 H 2319.06 0.0991739 4.16182 0
M  V30 23728 H 2319.59 1.70095 3.596 0
M  V30 23729 H 2316.33 4.43361 4.82816 0
M  V30 23730 H 2315.85 2.79008 5.30956 0
M  V30 23731 H 2317.53 3.33658 5.5433 0
M  V30 23732 N 2317.66 -1.32267 0.856927 0
M  V30 23733 C 2319.08 -1.4993 0.547087 0
M  V30 23734 C 2319.28 -1.79182 -0.92175 0
M  V30 23735 O 2318.33 -1.86273 -1.70466 0
M  V30 23736 C 2319.65 -2.64194 1.43604 0
M  V30 23737 C 2321.19 -2.78079 1.4367 0
M  V30 23738 C 2321.67 -3.95424 2.31092 0
M  V30 23739 N 2323.16 -4.0269 2.289 0
M  V30 23740 C 2323.89 -4.92727 2.9327 0
M  V30 23741 N 2323.39 -5.87757 3.66761 0
M  V30 23742 N 2325.18 -4.85868 2.82646 0
M  V30 23743 H 2317.33 -1.11546 1.80752 0
M  V30 23744 H 2319.6 -0.549984 0.772154 0
M  V30 23745 H 2319.3 -2.49315 2.48063 0
M  V30 23746 H 2319.18 -3.6003 1.12508 0
M  V30 23747 H 2321.56 -2.9238 0.399753 0
M  V30 23748 H 2321.65 -1.82949 1.78783 0
M  V30 23749 H 2321.29 -3.81882 3.34856 0
M  V30 23750 H 2321.22 -4.89835 1.93311 0
M  V30 23751 H 2323.71 -3.34691 1.75471 0
M  V30 23752 H 2324.02 -6.53161 4.13039 0
M  V30 23753 H 2322.37 -5.87776 3.70869 0
M  V30 23754 H 2325.56 -4.10598 2.24781 0
M  V30 23755 H 2325.73 -5.55835 3.33094 0
M  V30 23756 N 2319.14 -0.615084 -1.45102 0
M  V30 23757 C 2320.37 -0.119632 -2.06253 0
M  V30 23758 C 2320.78 1.20442 -1.45912 0
M  V30 23759 O 2320.12 1.74619 -0.570415 0
M  V30 23760 C 2320.18 0.086496 -3.59396 0
M  V30 23761 C 2319.85 -1.15691 -4.42114 0
M  V30 23762 C 2320.84 -2.07684 -4.76617 0
M  V30 23763 C 2318.53 -1.38783 -4.82747 0
M  V30 23764 C 2320.52 -3.21092 -5.50617 0
M  V30 23765 C 2318.21 -2.52491 -5.56499 0
M  V30 23766 C 2319.21 -3.43473 -5.90352 0
M  V30 23767 O 2318.89 -4.55201 -6.62607 0
M  V30 23768 H 2318.63 -0.069463 -0.672422 0
M  V30 23769 H 2321.18 -0.844918 -1.87217 0
M  V30 23770 H 2319.41 0.866757 -3.76861 0
M  V30 23771 H 2321.1 0.534484 -4.02366 0
M  V30 23772 H 2321.87 -1.91071 -4.45777 0
M  V30 23773 H 2317.74 -0.688625 -4.55828 0
M  V30 23774 H 2321.29 -3.9213 -5.76958 0
M  V30 23775 H 2317.19 -2.69053 -5.86754 0
M  V30 23776 H 2317.95 -4.53978 -6.81063 0
M  V30 23777 N 2320.62 1.53557 -0.354678 0
M  V30 23778 C 2321.55 2.22953 0.53146 0
M  V30 23779 C 2322.56 1.2399 1.05501 0
M  V30 23780 O 2323.75 1.50279 0.963252 0
M  V30 23781 C 2320.85 2.90502 1.74533 0
M  V30 23782 C 2320.02 4.15878 1.35516 0
M  V30 23783 C 2319.08 4.66735 2.42991 0
M  V30 23784 O 2318.11 5.30679 2.05835 0
M  V30 23785 N 2319.31 4.43614 3.74415 0
M  V30 23786 H 2322.08 2.99634 -0.0629142 0
M  V30 23787 H 2319.64 1.60904 -0.17933 0
M  V30 23788 H 2321.63 3.21437 2.45886 0
M  V30 23789 H 2320.2 2.1734 2.24682 0
M  V30 23790 H 2319.42 3.91365 0.471929 0
M  V30 23791 H 2320.71 4.97408 1.07062 0
M  V30 23792 H 2320.11 3.92498 4.07384 0
M  V30 23793 H 2318.66 4.79128 4.41905 0
M  V30 23794 N 2322.1 0.083568 1.57378 0
M  V30 23795 C 2323.34 -0.581684 1.93548 0
M  V30 23796 C 2323.66 -1.69433 0.96527 0
M  V30 23797 O 2322.93 -1.95894 0.0153713 0
M  V30 23798 H 2321.51 -0.217861 0.714525 0
M  V30 23799 H 2324.18 0.144192 1.94366 0
M  V30 23800 H 2323.27 -0.999371 2.95667 0
M  V30 23801 N 2323.57 -1.5645 -0.190064 0
M  V30 23802 C 2324.82 -1.8056 -0.907876 0
M  V30 23803 C 2325.14 -0.65747 -1.83582 0
M  V30 23804 O 2324.41 0.32389 -1.93204 0
M  V30 23805 H 2322.99 -0.666038 -0.338235 0
M  V30 23806 H 2325.65 -1.93928 -0.194369 0
M  V30 23807 H 2324.75 -2.73909 -1.496 0
M  V30 23808 N 2325.05 0.45796 -1.50799 0
M  V30 23809 C 2326 1.57497 -1.71165 0
M  V30 23810 C 2326.99 1.59248 -0.57762 0
M  V30 23811 O 2328.2 1.6324 -0.758472 0
M  V30 23812 H 2324.57 0.522866 -0.540477 0
M  V30 23813 H 2326.55 1.37487 -2.64839 0
M  V30 23814 C 2325.29 2.95334 -1.83502 0
M  V30 23815 H 2324.62 2.94711 -2.70158 0
M  V30 23816 H 2326.06 3.72913 -2.01771 0
M  V30 23817 C 2324.52 3.31698 -0.589752 0
M  V30 23818 O 2325.05 4.00824 0.265093 0
M  V30 23819 N 2323.25 2.87251 -0.439896 0
M  V30 23820 H 2322.8 2.3117 -1.13659 0
M  V30 23821 H 2322.76 3.11945 0.392105 0
M  V30 23822 N 2326.53 1.40598 0.712035 0
M  V30 23823 C 2327.95 1.22706 1.02056 0
M  V30 23824 C 2328.15 0.104764 2.01227 0
M  V30 23825 O 2327.2 -0.536197 2.46741 0
M  V30 23826 C 2328.51 2.57015 1.56089 0
M  V30 23827 C 2330.06 2.64057 1.68056 0
M  V30 23828 C 2330.54 3.98644 2.25494 0
M  V30 23829 N 2332.03 4.00404 2.32875 0
M  V30 23830 C 2332.76 5.0133 2.78308 0
M  V30 23831 N 2332.26 6.1265 3.23468 0
M  V30 23832 N 2334.05 4.88698 2.77725 0
M  V30 23833 H 2326.2 2.12329 0.0547523 0
M  V30 23834 H 2328.47 0.94401 0.0868861 0
M  V30 23835 H 2328.17 3.39809 0.906806 0
M  V30 23836 H 2328.05 2.78352 2.54559 0
M  V30 23837 H 2330.43 1.81633 2.3258 0
M  V30 23838 H 2330.51 2.46548 0.681759 0
M  V30 23839 H 2330.16 4.81509 1.6159 0
M  V30 23840 H 2330.09 4.13485 3.26094 0
M  V30 23841 H 2332.58 3.20021 2.00985 0
M  V30 23842 H 2332.89 6.85548 3.56713 0
M  V30 23843 H 2331.24 6.16211 3.21418 0
M  V30 23844 H 2334.43 4.00823 2.41783 0
M  V30 23845 H 2334.6 5.67495 3.12816 0
M  V30 23846 N 2328.01 -0.94462 1.26153 0
M  V30 23847 C 2329.24 -1.72487 1.14262 0
M  V30 23848 C 2329.65 -1.86361 -0.302523 0
M  V30 23849 O 2329.01 -1.36852 -1.20739 0
M  V30 23850 C 2329.06 -3.13344 1.80272 0
M  V30 23851 O 2328.78 -3.00137 3.19138 0
M  V30 23852 C 2330.28 -4.076 1.7429 0
M  V30 23853 H 2327.5 -0.540174 0.398061 0
M  V30 23854 H 2330.04 -1.18443 1.66708 0
M  V30 23855 H 2328.2 -3.643 1.31772 0
M  V30 23856 H 2328.61 -3.89065 3.51751 0
M  V30 23857 H 2330.09 -5.04009 2.2512 0
M  V30 23858 H 2330.56 -4.33444 0.708708 0
M  V30 23859 H 2331.17 -3.62563 2.22325 0
M  V30 23860 N 2329.49 -1.07901 -1.1487 0
M  V30 23861 C 2330.43 -0.698766 -2.21856 0
M  V30 23862 C 2331.43 0.293057 -1.66846 0
M  V30 23863 O 2332.63 0.156173 -1.79321 0
M  V30 23864 H 2329.01 -0.207912 -0.722687 0
M  V30 23865 H 2330.98 -1.61058 -2.51203 0
M  V30 23866 C 2329.73 -0.118641 -3.47498 0
M  V30 23867 H 2329.05 -0.872982 -3.90153 0
M  V30 23868 H 2330.49 0.109684 -4.23858 0
M  V30 23869 C 2328.95 1.14215 -3.16949 0
M  V30 23870 O 2329.48 2.22779 -3.34264 0
M  V30 23871 N 2327.69 1.05051 -2.70948 0
M  V30 23872 H 2327.23 0.166993 -2.57058 0
M  V30 23873 H 2327.19 1.89487 -2.50883 0
M  V30 23874 N 2330.96 1.31811 -0.863929 0
M  V30 23875 C 2332.19 2.01107 -0.486147 0
M  V30 23876 C 2332.61 1.64883 0.919726 0
M  V30 23877 O 2331.96 0.874921 1.6016 0
M  V30 23878 C 2332.01 3.5603 -0.626498 0
M  V30 23879 O 2331.74 3.90956 -1.977 0
M  V30 23880 C 2333.24 4.42601 -0.248935 0
M  V30 23881 H 2330.46 0.643519 -0.190063 0
M  V30 23882 H 2333 1.6818 -1.16343 0
M  V30 23883 H 2331.16 3.874 0.00315907 0
M  V30 23884 H 2331.57 4.85674 -1.98042 0
M  V30 23885 H 2333.04 5.50562 -0.398113 0
M  V30 23886 H 2333.52 4.3164 0.811413 0
M  V30 23887 H 2334.13 4.16637 -0.854044 0
M  V30 23888 N 2332.44 0.62277 1.44773 0
M  V30 23889 C 2333.69 0.12369 2.01721 0
M  V30 23890 C 2334.01 -1.25587 1.49174 0
M  V30 23891 O 2333.28 -1.83271 0.692006 0
M  V30 23892 H 2331.86 0.0427356 0.745777 0
M  V30 23893 H 2334.52 0.80759 1.77381 0
M  V30 23894 H 2333.62 0.0850082 3.11984 0
M  V30 23895 N 2333.92 -1.53367 0.362817 0
M  V30 23896 C 2334.85 -2.28577 -0.476936 0
M  V30 23897 C 2335.83 -1.30896 -1.08629 0
M  V30 23898 O 2337.02 -1.59763 -1.10406 0
M  V30 23899 C 2334.15 -3.07296 -1.61823 0
M  V30 23900 C 2333.1 -4.12642 -1.13626 0
M  V30 23901 C 2332.43 -4.79427 -2.36757 0
M  V30 23902 C 2333.73 -5.21824 -0.222969 0
M  V30 23903 H 2335.42 -2.99021 0.150526 0
M  V30 23904 H 2332.97 -1.43811 0.0738356 0
M  V30 23905 H 2334.92 -3.58657 -2.21231 0
M  V30 23906 H 2333.64 -2.34537 -2.27288 0
M  V30 23907 H 2332.3 -3.62222 -0.564881 0
M  V30 23908 H 2331.95 -4.03243 -3.00673 0
M  V30 23909 H 2331.65 -5.50612 -2.05182 0
M  V30 23910 H 2333.17 -5.33581 -2.96856 0
M  V30 23911 H 2334.59 -5.68704 -0.724445 0
M  V30 23912 H 2332.98 -6.001 0.00178349 0
M  V30 23913 H 2334.05 -4.79287 0.735638 0
M  V30 23914 N 2335.4 -0.091913 -1.57332 0
M  V30 23915 C 2336.36 0.853653 -2.1271 0
M  V30 23916 C 2337.36 1.21298 -1.05563 0
M  V30 23917 O 2338.55 1.14294 -1.31463 0
M  V30 23918 C 2335.68 2.15056 -2.64506 0
M  V30 23919 H 2336.88 0.372848 -2.97573 0
M  V30 23920 H 2334.43 0.157045 -1.55509 0
M  V30 23921 H 2335.16 2.67629 -1.83154 0
M  V30 23922 H 2334.95 1.90266 -3.42843 0
M  V30 23923 H 2336.44 2.82705 -3.07356 0
M  V30 23924 N 2336.88 1.56548 0.181765 0
M  V30 23925 C 2337.81 1.98625 1.22761 0
M  V30 23926 C 2338.79 0.860215 1.46746 0
M  V30 23927 O 2339.97 1.12553 1.58257 0
M  V30 23928 C 2337.1 2.3372 2.5689 0
M  V30 23929 C 2336.06 3.49186 2.47494 0
M  V30 23930 C 2335.38 3.69993 3.86017 0
M  V30 23931 C 2336.68 4.82963 1.98857 0
M  V30 23932 H 2338.38 2.8624 0.877892 0
M  V30 23933 H 2335.92 1.37713 0.420856 0
M  V30 23934 H 2337.88 2.61752 3.30248 0
M  V30 23935 H 2336.6 1.43002 2.93629 0
M  V30 23936 H 2335.26 3.21265 1.7659 0
M  V30 23937 H 2334.91 2.76584 4.20132 0
M  V30 23938 H 2334.61 4.47679 3.80601 0
M  V30 23939 H 2336.13 4.00415 4.60977 0
M  V30 23940 H 2337.54 5.09939 2.61983 0
M  V30 23941 H 2335.94 5.64212 2.04414 0
M  V30 23942 H 2337.01 4.75654 0.942381 0
M  V30 23943 N 2338.35 -0.449957 1.5104 0
M  V30 23944 C 2339.77 -0.785438 1.38935 0
M  V30 23945 C 2339.97 -1.96136 0.461851 0
M  V30 23946 O 2339.03 -2.52348 -0.0876945 0
M  V30 23947 C 2340.34 -1.07765 2.80726 0
M  V30 23948 C 2341.89 -1.18285 2.89789 0
M  V30 23949 C 2342.36 -1.50807 4.32459 0
M  V30 23950 N 2343.85 -1.57757 4.35508 0
M  V30 23951 C 2344.59 -1.84468 5.42917 0
M  V30 23952 N 2344.08 -2.09056 6.60505 0
M  V30 23953 N 2345.88 -1.86146 5.30383 0
M  V30 23954 H 2338.03 0.324684 2.09904 0
M  V30 23955 H 2340.29 0.0828123 0.944376 0
M  V30 23956 H 2340 -0.286437 3.50532 0
M  V30 23957 H 2339.87 -2.00853 3.19277 0
M  V30 23958 H 2342.26 -1.96471 2.20189 0
M  V30 23959 H 2342.34 -0.231269 2.54752 0
M  V30 23960 H 2341.98 -0.731534 5.02604 0
M  V30 23961 H 2341.91 -2.4715 4.64999 0
M  V30 23962 H 2344.4 -1.40709 3.50727 0
M  V30 23963 H 2344.72 -2.28772 7.38162 0
M  V30 23964 H 2343.06 -2.06405 6.63643 0
M  V30 23965 H 2346.25 -1.66447 4.37508 0
M  V30 23966 H 2346.43 -2.06626 6.14174 0
M  V30 23967 N 2339.83 -1.40974 -0.704569 0
M  V30 23968 C 2341.06 -1.42977 -1.49135 0
M  V30 23969 C 2341.47 -0.0308739 -1.89175 0
M  V30 23970 O 2340.81 0.95811 -1.56735 0
M  V30 23971 C 2340.88 -2.26699 -2.79012 0
M  V30 23972 C 2340.54 -3.74977 -2.6123 0
M  V30 23973 C 2341.54 -4.67353 -2.27765 0
M  V30 23974 C 2339.22 -4.18918 -2.77151 0
M  V30 23975 C 2341.22 -6.01657 -2.10447 0
M  V30 23976 C 2338.9 -5.53289 -2.5945 0
M  V30 23977 C 2339.9 -6.44474 -2.26147 0
M  V30 23978 O 2339.59 -7.76367 -2.08591 0
M  V30 23979 H 2339.32 -0.489301 -0.466434 0
M  V30 23980 H 2341.87 -1.85794 -0.875767 0
M  V30 23981 H 2340.1 -1.78679 -3.42944 0
M  V30 23982 H 2341.79 -2.2051 -3.40778 0
M  V30 23983 H 2342.56 -4.34698 -2.15088 0
M  V30 23984 H 2338.44 -3.48256 -3.02058 0
M  V30 23985 H 2341.98 -6.72794 -1.84375 0
M  V30 23986 H 2337.88 -5.85527 -2.71715 0
M  V30 23987 H 2338.65 -7.87416 -2.23425 0
M  V30 23988 N 2341.31 0.937917 -1.26653 0
M  V30 23989 C 2342.24 2.05431 -1.10997 0
M  V30 23990 C 2343.22 1.70094 -0.014246 0
M  V30 23991 O 2344.41 1.93299 -0.186871 0
M  V30 23992 C 2341.54 3.39202 -0.745621 0
M  V30 23993 C 2340.49 3.88612 -1.79344 0
M  V30 23994 C 2339.82 5.19071 -1.28333 0
M  V30 23995 C 2341.12 4.13133 -3.1956 0
M  V30 23996 H 2342.81 2.18787 -2.04384 0
M  V30 23997 H 2340.36 1.0513 -0.98406 0
M  V30 23998 H 2342.31 4.1677 -0.622961 0
M  V30 23999 H 2341.03 3.25831 0.223953 0
M  V30 24000 H 2339.69 3.13228 -1.90483 0
M  V30 24001 H 2339.34 5.02084 -0.303503 0
M  V30 24002 H 2339.04 5.531 -1.98379 0
M  V30 24003 H 2340.56 5.99219 -1.1734 0
M  V30 24004 H 2341.98 4.81304 -3.1148 0
M  V30 24005 H 2340.38 4.5845 -3.87226 0
M  V30 24006 H 2341.45 3.18794 -3.65374 0
M  V30 24007 N 2342.79 1.08509 1.14296 0
M  V30 24008 C 2344.01 0.837035 1.89759 0
M  V30 24009 C 2344.44 -0.605196 1.78098 0
M  V30 24010 O 2343.8 -1.42418 1.1219 0
M  V30 24011 C 2343.84 1.26501 3.37683 0
M  V30 24012 O 2342.95 0.417587 4.1028 0
M  V30 24013 H 2342.29 0.303927 0.590359 0
M  V30 24014 H 2344.82 1.44679 1.44669 0
M  V30 24015 H 2344.83 1.24632 3.88498 0
M  V30 24016 H 2343.5 2.3154 3.45488 0
M  V30 24017 H 2342.08 0.499786 3.69536 0
M  V30 24018 N 2344.27 -1.31351 0.870907 0
M  V30 24019 C 2345.54 -1.91405 0.40294 0
M  V30 24020 C 2345.92 -1.79246 -1.11509 0
M  V30 24021 O 2345.27 -1.20073 -1.94409 0
M  V30 24022 C 2345.48 -3.37583 0.88536 0
M  V30 24023 C 2346.83 -4.14689 0.912044 0
M  V30 24024 O 2347.85 -3.46369 0.831076 0
M  V30 24025 O 2346.71 -5.36718 1.02936 0
M  V30 24026 H 2343.81 -0.818143 0.120713 0
M  V30 24027 H 2346.35 -1.40013 0.958881 0
M  V30 24028 H 2345.12 -3.40451 1.92895 0
M  V30 24029 H 2344.75 -3.96407 0.307783 0
M  V30 24030 N 2345.74 -0.630439 -1.44441 0
M  V30 24031 C 2346.69 0.0967703 -2.27795 0
M  V30 24032 C 2347.68 0.81681 -1.38625 0
M  V30 24033 O 2348.87 0.703031 -1.62439 0
M  V30 24034 C 2346 1.07813 -3.25931 0
M  V30 24035 C 2345.09 0.357752 -4.22588 0
M  V30 24036 N 2345.48 -0.613258 -5.02069 0
M  V30 24037 C 2343.77 0.602287 -4.41915 0
M  V30 24038 C 2344.48 -1.03881 -5.72349 0
M  V30 24039 N 2343.45 -0.377737 -5.42286 0
M  V30 24040 H 2347.25 -0.648672 -2.86652 0
M  V30 24041 H 2344.77 -0.455889 -1.5587 0
M  V30 24042 H 2346.76 1.61371 -3.84402 0
M  V30 24043 H 2345.42 1.82388 -2.68635 0
M  V30 24044 H 2346.44 -0.991036 -5.0833 0
M  V30 24045 H 2343.11 1.33096 -3.95717 0
M  V30 24046 H 2344.5 -1.84097 -6.46187 0
M  V30 24047 N 2347.22 1.53172 -0.370945 0
M  V30 24048 C 2348.45 2.06227 0.220257 0
M  V30 24049 C 2348.87 1.24228 1.41241 0
M  V30 24050 O 2348.23 0.262677 1.79387 0
M  V30 24051 C 2348.28 3.55797 0.5866 0
M  V30 24052 O 2347.38 3.76491 1.68311 0
M  V30 24053 H 2346.72 0.663285 0.0307982 0
M  V30 24054 H 2349.25 1.97533 -0.533102 0
M  V30 24055 H 2349.26 3.98917 0.8561 0
M  V30 24056 H 2347.94 4.14922 -0.285086 0
M  V30 24057 H 2346.52 3.45266 1.40875 0
M  V30 24058 N 2348.7 0.100255 1.57281 0
M  V30 24059 C 2349.95 -0.562234 1.94538 0
M  V30 24060 C 2350.28 -1.6787 0.982344 0
M  V30 24061 O 2349.53 -1.957 0.00284375 0
M  V30 24062 C 2349.83 -1.15253 3.38307 0
M  V30 24063 C 2349.5 -0.159329 4.50618 0
M  V30 24064 C 2348.16 0.113826 4.81065 0
M  V30 24065 C 2350.51 0.518552 5.18614 0
M  V30 24066 C 2347.84 1.07147 5.76833 0
M  V30 24067 C 2350.19 1.4647 6.1541 0
M  V30 24068 C 2348.85 1.74603 6.44259 0
M  V30 24069 H 2348.12 -0.205736 0.711866 0
M  V30 24070 H 2350.77 0.177184 1.90679 0
M  V30 24071 H 2349.08 -1.9683 3.3877 0
M  V30 24072 H 2350.77 -1.6729 3.64438 0
M  V30 24073 H 2347.36 -0.382416 4.26891 0
M  V30 24074 H 2351.55 0.320668 4.95263 0
M  V30 24075 H 2346.8 1.29638 5.97498 0
M  V30 24076 H 2350.98 1.99575 6.6719 0
M  V30 24077 H 2348.6 2.48966 7.18276 0
M  V30 24078 N 2350.18 -1.56643 -0.17346 0
M  V30 24079 C 2351.11 -1.99273 -1.21706 0
M  V30 24080 C 2352.09 -0.867985 -1.46287 0
M  V30 24081 O 2353.28 -1.13391 -1.57658 0
M  V30 24082 C 2350.41 -2.35079 -2.55647 0
M  V30 24083 C 2349.36 -3.50494 -2.45639 0
M  V30 24084 C 2348.69 -3.72035 -3.84049 0
M  V30 24085 C 2349.99 -4.84011 -1.96293 0
M  V30 24086 H 2351.68 -2.86702 -0.8627 0
M  V30 24087 H 2349.23 -1.37934 -0.413547 0
M  V30 24088 H 2351.18 -2.63499 -3.28856 0
M  V30 24089 H 2349.9 -1.44557 -2.92867 0
M  V30 24090 H 2348.56 -3.22197 -1.74884 0
M  V30 24091 H 2348.21 -2.78808 -4.18659 0
M  V30 24092 H 2347.91 -4.49691 -3.78222 0
M  V30 24093 H 2349.43 -4.02854 -4.58847 0
M  V30 24094 H 2350.85 -5.11321 -2.59275 0
M  V30 24095 H 2349.24 -5.65288 -2.01419 0
M  V30 24096 H 2350.31 -4.76148 -0.917143 0
M  V30 24097 N 2351.66 0.44194 -1.51277 0
M  V30 24098 C 2352.9 1.19352 -1.6396 0
M  V30 24099 C 2353.24 1.90973 -0.352577 0
M  V30 24100 O 2352.51 1.83402 0.647595 0
M  V30 24101 C 2352.79 2.21417 -2.83983 0
M  V30 24102 C 2352.65 1.5391 -4.22648 0
M  V30 24103 C 2353.97 3.22446 -2.99527 0
M  V30 24104 H 2351.09 0.432549 -0.596716 0
M  V30 24105 H 2353.73 0.483366 -1.83749 0
M  V30 24106 H 2351.88 2.81982 -2.67242 0
M  V30 24107 H 2353.55 0.967177 -4.51047 0
M  V30 24108 H 2351.79 0.84154 -4.25559 0
M  V30 24109 H 2352.46 2.2822 -5.02613 0
M  V30 24110 H 2354.94 2.71931 -3.14949 0
M  V30 24111 H 2353.82 3.91159 -3.85079 0
M  V30 24112 H 2354.08 3.88283 -2.11397 0
M  V30 24113 N 2353.14 1.41345 0.697083 0
M  V30 24114 C 2354.36 1.44173 1.49093 0
M  V30 24115 C 2354.79 0.0481899 1.88038 0
M  V30 24116 O 2354.14 -0.948216 1.54527 0
M  V30 24117 C 2354.19 2.35495 2.73084 0
M  V30 24118 O 2353.3 1.81094 3.70511 0
M  V30 24119 H 2352.64 0.489369 0.448792 0
M  V30 24120 H 2355.17 1.85789 0.856959 0
M  V30 24121 H 2355.18 2.51317 3.21409 0
M  V30 24122 H 2353.85 3.3675 2.44075 0
M  V30 24123 H 2352.43 1.74714 3.29438 0
M  V30 24124 N 2354.61 -0.931187 1.27148 0
M  V30 24125 C 2355.55 -2.03544 1.05368 0
M  V30 24126 C 2356.56 -1.62796 0.0108724 0
M  V30 24127 O 2357.75 -1.76711 0.252051 0
M  V30 24128 C 2354.85 -3.33976 0.575625 0
M  V30 24129 C 2354.02 -4.03436 1.68992 0
M  V30 24130 C 2353.08 -5.12141 1.20822 0
M  V30 24131 O 2352.11 -5.36297 1.90721 0
M  V30 24132 N 2353.31 -5.80467 0.0619871 0
M  V30 24133 H 2356.07 -2.22793 2.00458 0
M  V30 24134 H 2353.63 -1.10134 1.18668 0
M  V30 24135 H 2355.63 -4.04003 0.237335 0
M  V30 24136 H 2354.2 -3.11326 -0.281961 0
M  V30 24137 H 2353.42 -3.27188 2.19867 0
M  V30 24138 H 2354.7 -4.46592 2.43788 0
M  V30 24139 H 2354.1 -5.63291 -0.521522 0
M  V30 24140 H 2352.66 -6.51438 -0.21715 0
M  V30 24141 N 2356.09 -1.09114 -1.13719 0
M  V30 24142 C 2357.34 -0.823594 -1.84557 0
M  V30 24143 C 2357.66 0.652625 -1.83755 0
M  V30 24144 O 2356.93 1.47339 -1.29104 0
M  V30 24145 H 2355.51 -0.301685 -0.68337 0
M  V30 24146 H 2358.17 -1.37861 -1.37769 0
M  V30 24147 H 2357.27 -1.17425 -2.89168 0
M  V30 24148 N 2357.57 1.30887 -0.877861 0
M  V30 24149 C 2358.85 1.91188 -0.413085 0
M  V30 24150 C 2359.23 1.79834 1.10557 0
M  V30 24151 O 2358.57 1.21102 1.93769 0
M  V30 24152 C 2358.78 3.37109 -0.90325 0
M  V30 24153 C 2360.13 4.14199 -0.934023 0
M  V30 24154 O 2361.16 3.45923 -0.849434 0
M  V30 24155 O 2360.02 5.36165 -1.05781 0
M  V30 24156 H 2357.11 0.817491 -0.12505 0
M  V30 24157 H 2359.66 1.39502 -0.966293 0
M  V30 24158 H 2358.43 3.39424 -1.94698 0
M  V30 24159 H 2358.05 3.96238 -0.328801 0
M  V30 24160 N 2359.05 0.638091 1.44105 0
M  V30 24161 C 2360.46 0.304314 1.56672 0
M  V30 24162 C 2360.66 -1.19225 1.62442 0
M  V30 24163 O 2359.72 -1.97657 1.57124 0
M  V30 24164 C 2361.03 1.00236 2.83502 0
M  V30 24165 C 2362.58 0.981168 2.97224 0
M  V30 24166 C 2363.06 1.65982 4.26865 0
M  V30 24167 N 2364.55 1.62674 4.33695 0
M  V30 24168 C 2365.28 2.12072 5.32741 0
M  V30 24169 N 2364.78 2.69692 6.38152 0
M  V30 24170 N 2366.57 2.0266 5.24295 0
M  V30 24171 H 2358.72 1.60945 1.38602 0
M  V30 24172 H 2360.98 0.675977 0.66465 0
M  V30 24173 H 2360.69 2.05735 2.85247 0
M  V30 24174 H 2360.56 0.544456 3.7325 0
M  V30 24175 H 2362.95 -0.065367 2.95028 0
M  V30 24176 H 2363.03 1.47763 2.08806 0
M  V30 24177 H 2362.68 2.70584 4.29822 0
M  V30 24178 H 2362.61 1.13813 5.14154 0
M  V30 24179 H 2365.1 1.20612 3.58136 0
M  V30 24180 H 2365.41 3.05099 7.10024 0
M  V30 24181 H 2363.76 2.73746 6.38818 0
M  V30 24182 H 2366.95 1.57361 4.40857 0
M  V30 24183 H 2367.12 2.41468 6.0133 0
M  V30 24184 N 2360.53 -1.52973 0.379063 0
M  V30 24185 C 2361.44 -2.29872 -0.468599 0
M  V30 24186 C 2362.45 -1.36375 -1.08065 0
M  V30 24187 O 2363.63 -1.6944 -1.08868 0
M  V30 24188 C 2360.69 -3.08303 -1.58589 0
M  V30 24189 C 2359.75 -4.17491 -0.999997 0
M  V30 24190 C 2358.99 -4.92172 -2.06404 0
M  V30 24191 O 2359.21 -4.66841 -3.27743 0
M  V30 24192 O 2358.14 -5.77773 -1.68707 0
M  V30 24193 H 2361.97 -3.03291 0.157561 0
M  V30 24194 H 2359.55 -1.48713 0.143061 0
M  V30 24195 H 2361.44 -3.57235 -2.23519 0
M  V30 24196 H 2360.11 -2.37707 -2.1972 0
M  V30 24197 H 2359.02 -3.72778 -0.314233 0
M  V30 24198 H 2360.35 -4.90291 -0.433049 0
M  V30 24199 N 2362 -0.108595 -1.57225 0
M  V30 24200 C 2362.94 0.875714 -2.11811 0
M  V30 24201 C 2363.95 1.23699 -1.05841 0
M  V30 24202 O 2365.14 1.18775 -1.33247 0
M  V30 24203 C 2362.24 2.18076 -2.59415 0
M  V30 24204 C 2361.41 1.99277 -3.89368 0
M  V30 24205 C 2360.47 3.13416 -4.22678 0
M  V30 24206 O 2359.5 2.86786 -4.91673 0
M  V30 24207 N 2360.7 4.39564 -3.79162 0
M  V30 24208 H 2363.46 0.409424 -2.9689 0
M  V30 24209 H 2361.02 0.0761296 -1.61721 0
M  V30 24210 H 2363.02 2.93409 -2.78735 0
M  V30 24211 H 2361.59 2.56086 -1.79272 0
M  V30 24212 H 2360.81 1.08197 -3.79061 0
M  V30 24213 H 2362.09 1.84009 -4.74361 0
M  V30 24214 H 2361.49 4.64078 -3.23494 0
M  V30 24215 H 2360.05 5.11802 -4.03611 0
M  V30 24216 N 2363.48 1.56732 0.16515 0
M  V30 24217 C 2364.44 1.95997 1.18818 0
M  V30 24218 C 2365.44 0.844334 1.36849 0
M  V30 24219 O 2366.63 1.11128 1.3415 0
M  V30 24220 C 2363.77 2.26015 2.55206 0
M  V30 24221 H 2364.96 2.8755 0.851774 0
M  V30 24222 H 2362.51 1.50885 0.407831 0
M  V30 24223 H 2363.25 1.37196 2.9385 0
M  V30 24224 H 2363.03 3.0734 2.43484 0
M  V30 24225 H 2364.52 2.57294 3.28922 0
M  V30 24226 N 2364.96 -0.433911 1.51509 0
M  V30 24227 C 2366.37 -1.01366 1.56786 0
M  V30 24228 C 2366.72 -1.92216 0.393383 0
M  V30 24229 O 2365.85 -2.10793 -0.489404 0
M  V30 24230 C 2366.44 -1.84515 2.84147 0
M  V30 24231 C 2365 -2.37533 2.91984 0
M  V30 24232 C 2364.15 -1.16839 2.51484 0
M  V30 24233 H 2367.1 -0.215053 1.57236 0
M  V30 24234 H 2367.12 -2.70002 2.68103 0
M  V30 24235 H 2366.63 -1.18366 3.69609 0
M  V30 24236 H 2364.73 -3.07126 2.1096 0
M  V30 24237 H 2364.85 -2.70096 3.95708 0
M  V30 24238 H 2363.21 -1.51477 2.0476 0
M  V30 24239 H 2363.99 -0.522955 3.39293 0
M  V30 24240 N 2366.44 -1.41713 -0.689577 0
M  V30 24241 C 2367.39 -1.44245 -1.82472 0
M  V30 24242 C 2368.38 -0.319803 -1.66354 0
M  V30 24243 O 2369.59 -0.492119 -1.73142 0
M  V30 24244 H 2365.96 -0.451455 -0.601409 0
M  V30 24245 H 2367.93 -2.39902 -1.77453 0
M  V30 24246 C 2366.68 -1.34736 -3.20533 0
M  V30 24247 H 2366 -2.20411 -3.33555 0
M  V30 24248 H 2367.44 -1.40569 -4.0002 0
M  V30 24249 C 2365.9 -0.0603873 -3.36846 0
M  V30 24250 O 2366.43 0.892594 -3.91658 0
M  V30 24251 N 2364.64 0.0176528 -2.90595 0
M  V30 24252 H 2364.19 -0.758615 -2.46176 0
M  V30 24253 H 2364.14 0.878148 -3.01887 0
M  V30 24254 N 2367.92 0.924431 -1.2764 0
M  V30 24255 C 2368.85 2.04242 -1.1317 0
M  V30 24256 C 2369.83 1.70069 -0.0322859 0
M  V30 24257 O 2371.01 1.9309 -0.207362 0
M  V30 24258 C 2368.14 3.38392 -0.781556 0
M  V30 24259 C 2367.1 3.86688 -1.83456 0
M  V30 24260 C 2366.42 5.17681 -1.33831 0
M  V30 24261 C 2367.72 4.0972 -3.23924 0
M  V30 24262 H 2369.42 2.16607 -2.06693 0
M  V30 24263 H 2366.96 1.0408 -0.995155 0
M  V30 24264 H 2368.92 4.16086 -0.66713 0
M  V30 24265 H 2367.64 3.2605 0.189381 0
M  V30 24266 H 2366.3 3.1119 -1.93794 0
M  V30 24267 H 2365.95 5.01733 -0.356738 0
M  V30 24268 H 2365.65 5.50965 -2.04234 0
M  V30 24269 H 2367.17 5.97941 -1.23689 0
M  V30 24270 H 2368.58 4.77973 -3.16567 0
M  V30 24271 H 2366.98 4.54317 -3.92067 0
M  V30 24272 H 2368.05 3.14901 -3.68735 0
M  V30 24273 N 2369.39 1.09715 1.13139 0
M  V30 24274 C 2370.64 0.836257 1.84755 0
M  V30 24275 C 2370.97 -0.636566 1.83471 0
M  V30 24276 O 2370.25 -1.46887 1.27493 0
M  V30 24277 C 2370.53 1.37584 3.3278 0
M  V30 24278 C 2370.38 2.91499 3.42562 0
M  V30 24279 C 2371.7 1.01206 4.28305 0
M  V30 24280 H 2368.82 0.305248 0.670815 0
M  V30 24281 H 2371.46 1.35905 1.32777 0
M  V30 24282 H 2369.61 0.931164 3.77176 0
M  V30 24283 H 2371.29 3.44438 3.06856 0
M  V30 24284 H 2369.53 3.2848 2.83343 0
M  V30 24285 H 2370.2 3.24332 4.46668 0
M  V30 24286 H 2372.68 1.39563 3.91997 0
M  V30 24287 H 2371.55 1.41662 5.30305 0
M  V30 24288 H 2371.81 -0.0794056 4.42029 0
M  V30 24289 N 2370.87 -1.30419 0.88479 0
M  V30 24290 C 2372.1 -2.00018 0.517328 0
M  V30 24291 C 2372.51 -1.66499 -0.898603 0
M  V30 24292 O 2371.85 -0.898209 -1.60243 0
M  V30 24293 C 2371.92 -3.54251 0.612088 0
M  V30 24294 C 2371.58 -4.11287 1.99229 0
M  V30 24295 C 2372.58 -4.27295 2.96167 0
M  V30 24296 C 2370.26 -4.4667 2.29763 0
M  V30 24297 C 2372.26 -4.77898 4.21773 0
M  V30 24298 C 2369.94 -4.96972 3.55615 0
M  V30 24299 C 2370.94 -5.12539 4.51434 0
M  V30 24300 O 2370.63 -5.61756 5.75053 0
M  V30 24301 H 2370.36 -0.646187 0.198541 0
M  V30 24302 H 2372.91 -1.67279 1.19193 0
M  V30 24303 H 2371.14 -3.86515 -0.119493 0
M  V30 24304 H 2372.83 -4.05092 0.25593 0
M  V30 24305 H 2373.6 -4.00262 2.73889 0
M  V30 24306 H 2369.48 -4.33821 1.5595 0
M  V30 24307 H 2373.02 -4.89964 4.9657 0
M  V30 24308 H 2368.92 -5.23441 3.7773 0
M  V30 24309 H 2369.69 -5.80099 5.77432 0
M  V30 24310 N 2372.35 -0.645724 -1.43764 0
M  V30 24311 C 2373.28 0.100032 -2.27981 0
M  V30 24312 C 2374.26 0.837169 -1.39392 0
M  V30 24313 O 2375.45 0.838276 -1.68835 0
M  V30 24314 C 2372.57 1.14818 -3.18645 0
M  V30 24315 C 2371.62 0.509935 -4.23441 0
M  V30 24316 S 2372.45 -0.710917 -5.3076 0
M  V30 24317 C 2373.61 0.33688 -6.24993 0
M  V30 24318 H 2373.84 -0.614373 -2.90883 0
M  V30 24319 H 2371.37 -0.43433 -1.48165 0
M  V30 24320 H 2373.33 1.74792 -3.71427 0
M  V30 24321 H 2371.99 1.83486 -2.54935 0
M  V30 24322 H 2371.19 1.29982 -4.8695 0
M  V30 24323 H 2370.79 -0.0155235 -3.73997 0
M  V30 24324 H 2373.08 1.20525 -6.66693 0
M  V30 24325 H 2374.02 -0.263003 -7.07611 0
M  V30 24326 H 2374.43 0.669326 -5.60518 0
M  V30 24327 N 2373.83 1.5277 -0.38717 0
M  V30 24328 C 2375.07 2.01851 0.19599 0
M  V30 24329 C 2375.41 1.27321 1.46639 0
M  V30 24330 O 2374.68 0.373065 1.90889 0
M  V30 24331 C 2374.97 3.57071 0.466073 0
M  V30 24332 C 2374.82 4.42272 -0.819463 0
M  V30 24333 C 2376.14 4.21749 1.2576 0
M  V30 24334 H 2373.26 0.733691 0.0697579 0
M  V30 24335 H 2375.9 1.8285 -0.516318 0
M  V30 24336 H 2374.05 3.73392 1.07287 0
M  V30 24337 H 2375.72 4.37707 -1.45638 0
M  V30 24338 H 2373.96 4.09369 -1.43524 0
M  V30 24339 H 2374.63 5.4889 -0.585161 0
M  V30 24340 H 2377.11 4.09393 0.744095 0
M  V30 24341 H 2375.99 5.30339 1.41532 0
M  V30 24342 H 2376.25 3.7924 2.27221 0
M  V30 24343 N 2375.31 0.116931 1.57166 0
M  V30 24344 C 2376.53 -0.549348 1.99474 0
M  V30 24345 C 2376.95 -1.60356 0.996569 0
M  V30 24346 O 2376.31 -1.82497 -0.0108411 0
M  V30 24347 C 2376.36 -1.17735 3.4179 0
M  V30 24348 O 2376.08 -0.165285 4.37788 0
M  V30 24349 C 2377.58 -1.92715 3.99219 0
M  V30 24350 H 2374.8 -0.145605 0.655012 0
M  V30 24351 H 2377.34 0.20266 2.03493 0
M  V30 24352 H 2375.5 -1.88016 3.38717 0
M  V30 24353 H 2375.91 -0.621312 5.20807 0
M  V30 24354 H 2377.39 -2.31986 5.00886 0
M  V30 24355 H 2377.86 -2.80155 3.38245 0
M  V30 24356 H 2378.47 -1.27202 4.05832 0
M  V30 24357 N 2376.78 -1.56818 -0.156836 0
M  V30 24358 C 2378.03 -1.82445 -0.869372 0
M  V30 24359 C 2378.35 -0.696262 -1.82146 0
M  V30 24360 O 2377.62 0.282836 -1.93847 0
M  V30 24361 H 2376.2 -0.673062 -0.324031 0
M  V30 24362 H 2378.87 -1.94297 -0.15319 0
M  V30 24363 H 2377.96 -2.77021 -1.43756 0
M  V30 24364 N 2378.26 0.425871 -1.51737 0
M  V30 24365 C 2379.21 1.53831 -1.74467 0
M  V30 24366 C 2380.2 1.57987 -0.611269 0
M  V30 24367 O 2381.41 1.61594 -0.792927 0
M  V30 24368 H 2377.79 0.511284 -0.551446 0
M  V30 24369 H 2379.76 1.31838 -2.67696 0
M  V30 24370 C 2378.51 2.91376 -1.89725 0
M  V30 24371 H 2377.83 2.88914 -2.76349 0
M  V30 24372 H 2379.27 3.6855 -2.09636 0
M  V30 24373 C 2377.73 3.30372 -0.659978 0
M  V30 24374 O 2378.26 4.01296 0.180013 0
M  V30 24375 N 2376.46 2.86254 -0.500727 0
M  V30 24376 H 2376.01 2.28707 -1.18537 0
M  V30 24377 H 2375.97 3.12707 0.325848 0
M  V30 24378 N 2379.74 1.42077 0.682052 0
M  V30 24379 C 2381.15 1.37548 1.26243 0
M  V30 24380 C 2381.5 0.0651826 1.96092 0
M  V30 24381 O 2380.63 -0.836262 1.99589 0
M  V30 24382 C 2381.22 2.49147 2.29589 0
M  V30 24383 C 2379.78 2.47974 2.83171 0
M  V30 24384 C 2378.93 2.28305 1.57391 0
M  V30 24385 H 2381.88 1.51396 0.475911 0
M  V30 24386 H 2381.9 2.18982 3.11171 0
M  V30 24387 H 2381.41 3.44499 1.78723 0
M  V30 24388 H 2379.51 1.56419 3.38177 0
M  V30 24389 H 2379.63 3.44761 3.32681 0
M  V30 24390 H 2377.99 1.76431 1.83696 0
M  V30 24391 H 2378.77 3.25703 1.08501 0
M  V30 24392 N 2381.22 -0.917649 1.28129 0
M  V30 24393 C 2382.18 -2.00113 1.11747 0
M  V30 24394 C 2383.18 -1.60694 0.0583334 0
M  V30 24395 O 2384.37 -1.71531 0.303785 0
M  V30 24396 C 2381.5 -3.33532 0.704921 0
M  V30 24397 H 2382.7 -2.16076 2.0797 0
M  V30 24398 H 2380.25 -1.09979 1.1106 0
M  V30 24399 H 2380.99 -3.2327 -0.258242 0
M  V30 24400 H 2380.77 -3.63503 1.46997 0
M  V30 24401 H 2382.26 -4.13079 0.612841 0
M  V30 24402 N 2382.7 -1.10314 -1.12555 0
M  V30 24403 C 2383.92 -0.867118 -1.88403 0
M  V30 24404 C 2384.35 0.576786 -1.79039 0
M  V30 24405 O 2383.71 1.40616 -1.14442 0
M  V30 24406 C 2383.75 -1.31857 -3.35628 0
M  V30 24407 O 2382.86 -0.482806 -4.09564 0
M  V30 24408 H 2382.2 -0.313281 -0.585449 0
M  V30 24409 H 2384.73 -1.46962 -1.42349 0
M  V30 24410 H 2384.74 -1.30796 -3.86466 0
M  V30 24411 H 2383.41 -2.37007 -3.41761 0
M  V30 24412 H 2381.99 -0.558513 -3.68694 0
M  V30 24413 N 2384.18 1.29948 -0.891694 0
M  V30 24414 C 2385.45 1.90739 -0.43334 0
M  V30 24415 C 2385.83 1.80997 1.08643 0
M  V30 24416 O 2385.18 1.23151 1.92474 0
M  V30 24417 C 2385.39 3.36132 -0.938955 0
M  V30 24418 C 2386.74 4.13185 -0.977902 0
M  V30 24419 O 2387.76 3.45003 -0.886076 0
M  V30 24420 O 2386.62 5.35013 -1.11462 0
M  V30 24421 H 2383.72 0.816119 -0.133713 0
M  V30 24422 H 2386.26 1.38469 -0.981035 0
M  V30 24423 H 2385.03 3.3734 -1.98287 0
M  V30 24424 H 2384.66 3.95867 -0.370809 0
M  V30 24425 N 2385.65 0.653339 1.4342 0
M  V30 24426 C 2386.56 -0.0388153 2.34568 0
M  V30 24427 C 2387.58 -0.812043 1.53889 0
M  V30 24428 O 2388.76 -0.759261 1.8654 0
M  V30 24429 C 2385.82 -0.99321 3.32169 0
M  V30 24430 C 2384.88 -0.216902 4.28752 0
M  V30 24431 C 2384.11 -1.12584 5.2169 0
M  V30 24432 O 2384.34 -2.3651 5.19056 0
M  V30 24433 O 2383.27 -0.598179 5.9892 0
M  V30 24434 H 2387.1 0.711438 2.95249 0
M  V30 24435 H 2384.68 0.413527 1.43563 0
M  V30 24436 H 2386.56 -1.54169 3.92186 0
M  V30 24437 H 2385.24 -1.72369 2.7399 0
M  V30 24438 H 2384.15 0.375166 3.72214 0
M  V30 24439 H 2385.48 0.474011 4.89912 0
M  V30 24440 N 2387.13 -1.52563 0.395266 0
M  V30 24441 C 2388.38 -2.00838 -0.186286 0
M  V30 24442 C 2388.69 -1.28579 -1.474 0
M  V30 24443 O 2389.9 -1.67597 -2.13597 0
M  V30 24444 C 2388.36 -3.57861 -0.382533 0
M  V30 24445 C 2387.96 -4.39024 0.892279 0
M  V30 24446 C 2389.71 -4.14408 -0.920127 0
M  V30 24447 C 2387.61 -5.87661 0.663983 0
M  V30 24448 H 2386.54 -0.75042 -0.0733909 0
M  V30 24449 H 2389.2 -1.7602 0.518583 0
M  V30 24450 H 2387.58 -3.78952 -1.1494 0
M  V30 24451 H 2388.75 -4.29698 1.66422 0
M  V30 24452 H 2387.07 -3.93728 1.35526 0
M  V30 24453 H 2389.66 -5.23121 -1.10674 0
M  V30 24454 H 2390.01 -3.70879 -1.89089 0
M  V30 24455 H 2390.54 -3.97231 -0.212681 0
M  V30 24456 H 2387.28 -6.35524 1.60592 0
M  V30 24457 H 2386.8 -5.9976 -0.0689139 0
M  V30 24458 H 2388.48 -6.463 0.300813 0
M  V30 24459 N 2388.61 -0.125265 -1.57101 0
M  V30 24460 C 2389.56 0.822617 -2.15642 0
M  V30 24461 C 2390.53 1.25925 -1.08315 0
M  V30 24462 O 2391.71 1.33565 -1.36254 0
M  V30 24463 C 2388.85 2.06489 -2.76508 0
M  V30 24464 C 2387.96 1.67605 -3.98161 0
M  V30 24465 C 2387.1 2.86846 -4.47094 0
M  V30 24466 C 2386.14 2.44232 -5.61264 0
M  V30 24467 N 2385.28 3.56408 -6.04911 0
M  V30 24468 H 2390.12 0.316573 -2.96314 0
M  V30 24469 H 2387.65 0.144562 -1.46388 0
M  V30 24470 H 2389.61 2.79284 -3.0993 0
M  V30 24471 H 2388.24 2.54541 -1.98516 0
M  V30 24472 H 2387.29 0.846595 -3.7086 0
M  V30 24473 H 2388.6 1.32292 -4.80937 0
M  V30 24474 H 2387.76 3.67859 -4.82457 0
M  V30 24475 H 2386.5 3.2539 -3.63281 0
M  V30 24476 H 2385.5 1.61654 -5.25498 0
M  V30 24477 H 2386.73 2.06799 -6.46847 0
M  V30 24478 H 2384.67 3.94613 -5.24038 0
M  V30 24479 H 2384.59 3.25039 -6.82558 0
M  V30 24480 H 2385.86 4.37841 -6.44915 0
M  V30 24481 N 2390.09 1.56899 0.148518 0
M  V30 24482 C 2391.5 1.51529 0.501104 0
M  V30 24483 C 2391.7 0.833431 1.83456 0
M  V30 24484 O 2390.76 0.403324 2.49258 0
M  V30 24485 C 2392.07 2.96295 0.512812 0
M  V30 24486 C 2393.62 3.07226 0.598433 0
M  V30 24487 C 2394.1 4.53495 0.640818 0
M  V30 24488 N 2395.59 4.57833 0.703082 0
M  V30 24489 C 2396.32 5.68383 0.756835 0
M  V30 24490 N 2395.82 6.88507 0.770026 0
M  V30 24491 N 2397.61 5.56412 0.7976 0
M  V30 24492 H 2389.76 1.99623 -0.725567 0
M  V30 24493 H 2392.02 0.91039 -0.264374 0
M  V30 24494 H 2391.73 3.49432 -0.398753 0
M  V30 24495 H 2391.6 3.52166 1.35126 0
M  V30 24496 H 2393.99 2.54109 1.50042 0
M  V30 24497 H 2394.07 2.54401 -0.267137 0
M  V30 24498 H 2393.72 5.07249 -0.257004 0
M  V30 24499 H 2393.65 5.041 1.52286 0
M  V30 24500 H 2396.14 3.71356 0.700248 0
M  V30 24501 H 2396.45 7.68513 0.812848 0
M  V30 24502 H 2394.8 6.91071 0.737927 0
M  V30 24503 H 2397.99 4.6148 0.784454 0
M  V30 24504 H 2398.16 6.42584 0.836027 0
M  V30 24505 N 2391.57 -0.417818 1.51961 0
M  V30 24506 C 2392.5 -1.51551 1.77636 0
M  V30 24507 C 2393.48 -1.58125 0.626946 0
M  V30 24508 O 2394.66 -1.73539 0.871662 0
M  V30 24509 C 2391.79 -2.89457 1.91917 0
M  V30 24510 C 2390.75 -2.97737 3.07468 0
M  V30 24511 C 2390.07 -4.37813 3.06959 0
M  V30 24512 C 2391.37 -2.70019 4.47087 0
M  V30 24513 H 2393.07 -1.30315 2.69552 0
M  V30 24514 H 2390.61 -0.625469 1.29707 0
M  V30 24515 H 2392.56 -3.66226 2.08461 0
M  V30 24516 H 2391.29 -3.11967 0.966653 0
M  V30 24517 H 2389.95 -2.23411 2.9066 0
M  V30 24518 H 2389.6 -4.5732 2.09446 0
M  V30 24519 H 2389.3 -4.4428 3.84564 0
M  V30 24520 H 2390.82 -5.16529 3.25622 0
M  V30 24521 H 2392.23 -3.36514 4.64145 0
M  V30 24522 H 2390.63 -2.87872 5.26545 0
M  V30 24523 H 2391.7 -1.65506 4.5578 0
M  V30 24524 N 2393.04 -1.42436 -0.674508 0
M  V30 24525 C 2394.45 -1.38216 -1.25512 0
M  V30 24526 C 2394.81 -0.0755809 -1.96054 0
M  V30 24527 O 2393.93 0.825665 -2.00029 0
M  V30 24528 C 2394.53 -2.50361 -2.28265 0
M  V30 24529 C 2393.08 -2.49472 -2.81852 0
M  V30 24530 C 2392.23 -2.29137 -1.56178 0
M  V30 24531 H 2395.18 -1.51646 -0.467875 0
M  V30 24532 H 2395.2 -2.20629 -3.10005 0
M  V30 24533 H 2394.72 -3.45442 -1.76894 0
M  V30 24534 H 2392.82 -1.5821 -3.37343 0
M  V30 24535 H 2392.93 -3.46521 -3.30848 0
M  V30 24536 H 2391.29 -1.77403 -1.82758 0
M  V30 24537 H 2392.08 -3.26274 -1.06773 0
M  V30 24538 N 2394.52 0.910841 -1.28614 0
M  V30 24539 C 2395.77 1.65699 -1.15708 0
M  V30 24540 C 2396.09 1.92769 0.294126 0
M  V30 24541 O 2395.36 1.5459 1.20328 0
M  V30 24542 H 2393.94 0.614159 -0.425227 0
M  V30 24543 H 2396.6 1.09277 -1.61383 0
M  V30 24544 H 2395.7 2.61812 -1.69885 0
M  V30 24545 N 2396 1.10909 1.11969 0
M  V30 24546 C 2397.28 0.766464 1.79957 0
M  V30 24547 C 2397.66 -0.746328 1.97467 0
M  V30 24548 O 2397.01 -1.67434 1.55494 0
M  V30 24549 C 2397.22 1.5232 3.14006 0
M  V30 24550 C 2398.56 1.6989 3.89131 0
M  V30 24551 O 2399.59 1.48698 3.23678 0
M  V30 24552 O 2398.45 2.05063 5.06568 0
M  V30 24553 H 2395.54 0.277076 0.779203 0
M  V30 24554 H 2398.09 1.21219 1.1876 0
M  V30 24555 H 2396.86 2.55254 2.96583 0
M  V30 24556 H 2396.48 1.07065 3.82914 0
M  V30 24557 N 2397.48 -1.29474 0.898573 0
M  V30 24558 C 2398.73 -1.94884 0.519898 0
M  V30 24559 C 2399.04 -1.71627 -0.93827 0
M  V30 24560 O 2400.25 -2.31134 -1.42441 0
M  V30 24561 C 2398.7 -3.49003 0.878898 0
M  V30 24562 C 2398.31 -3.81062 2.35576 0
M  V30 24563 C 2400.05 -4.20655 0.570078 0
M  V30 24564 C 2397.96 -5.2842 2.65568 0
M  V30 24565 H 2396.89 -0.729485 0.190704 0
M  V30 24566 H 2399.54 -1.47217 1.09541 0
M  V30 24567 H 2397.92 -3.95318 0.232322 0
M  V30 24568 H 2399.1 -3.4561 3.04779 0
M  V30 24569 H 2397.41 -3.22547 2.63349 0
M  V30 24570 H 2400.01 -5.29112 0.771018 0
M  V30 24571 H 2400.35 -4.1339 -0.491331 0
M  V30 24572 H 2400.89 -3.80068 1.17444 0
M  V30 24573 H 2397.63 -5.40748 3.70502 0
M  V30 24574 H 2397.15 -5.65123 2.00987 0
M  V30 24575 H 2398.82 -5.96002 2.51775 0
M  V30 24576 N 2398.96 -0.660936 -1.43071 0
M  V30 24577 C 2399.89 0.0647239 -2.29109 0
M  V30 24578 C 2400.9 0.779423 -1.4293 0
M  V30 24579 O 2402.09 0.635892 -1.66789 0
M  V30 24580 C 2399.19 1.11498 -3.20034 0
M  V30 24581 C 2398.36 0.476878 -4.34793 0
M  V30 24582 C 2397.42 1.42504 -5.06536 0
M  V30 24583 O 2396.45 0.930672 -5.6154 0
M  V30 24584 N 2397.65 2.7588 -5.10755 0
M  V30 24585 H 2400.42 -0.673782 -2.92028 0
M  V30 24586 H 2397.98 -0.504297 -1.53846 0
M  V30 24587 H 2399.97 1.75025 -3.64895 0
M  V30 24588 H 2398.54 1.75537 -2.58661 0
M  V30 24589 H 2397.76 -0.337641 -3.92751 0
M  V30 24590 H 2399.05 0.0317631 -5.0879 0
M  V30 24591 H 2398.44 3.18597 -4.67453 0
M  V30 24592 H 2397 3.3469 -5.59308 0
M  V30 24593 N 2400.43 1.52351 -0.403352 0
M  V30 24594 C 2401.68 2.02047 0.17457 0
M  V30 24595 C 2402.01 1.2887 1.4528 0
M  V30 24596 O 2401.29 0.393291 1.90482 0
M  V30 24597 C 2401.57 3.57545 0.428175 0
M  V30 24598 C 2401.42 4.41378 -0.866326 0
M  V30 24599 C 2402.74 4.23059 1.2128 0
M  V30 24600 H 2399.86 0.73439 0.0619722 0
M  V30 24601 H 2402.5 1.82292 -0.535682 0
M  V30 24602 H 2400.65 3.74509 1.03321 0
M  V30 24603 H 2402.33 4.36138 -1.50272 0
M  V30 24604 H 2400.57 4.07824 -1.47858 0
M  V30 24605 H 2401.24 5.48238 -0.643345 0
M  V30 24606 H 2403.72 4.10159 0.700631 0
M  V30 24607 H 2402.59 5.31811 1.35899 0
M  V30 24608 H 2402.85 3.81629 2.23186 0
M  V30 24609 N 2401.91 0.133594 1.57033 0
M  V30 24610 C 2403.16 -0.521614 1.95977 0
M  V30 24611 C 2403.49 -1.65391 1.01782 0
M  V30 24612 O 2402.77 -1.94414 0.0576923 0
M  V30 24613 C 2403.05 -1.04051 3.4474 0
M  V30 24614 C 2402.9 0.0893688 4.49711 0
M  V30 24615 C 2404.22 -1.92668 3.95686 0
M  V30 24616 H 2401.34 -0.188136 0.712582 0
M  V30 24617 H 2403.98 0.21211 1.88812 0
M  V30 24618 H 2402.13 -1.66577 3.50976 0
M  V30 24619 H 2403.8 0.725232 4.55563 0
M  V30 24620 H 2402.05 0.750453 4.27259 0
M  V30 24621 H 2402.72 -0.315187 5.51099 0
M  V30 24622 H 2405.19 -1.39991 3.91844 0
M  V30 24623 H 2404.07 -2.25888 5.00266 0
M  V30 24624 H 2404.33 -2.85866 3.37244 0
M  V30 24625 N 2403.39 -1.56975 -0.140195 0
M  V30 24626 C 2404.8 -1.73098 -0.699566 0
M  V30 24627 C 2405.15 -0.749054 -1.81338 0
M  V30 24628 O 2404.28 0.0828122 -2.16241 0
M  V30 24629 C 2404.87 -3.13862 -1.27577 0
M  V30 24630 C 2403.43 -3.31564 -1.78164 0
M  V30 24631 C 2402.58 -2.69014 -0.672807 0
M  V30 24632 H 2405.53 -1.58469 0.0855394 0
M  V30 24633 H 2405.55 -3.14239 -2.14556 0
M  V30 24634 H 2405.06 -3.85306 -0.464887 0
M  V30 24635 H 2403.16 -2.65129 -2.61796 0
M  V30 24636 H 2403.28 -4.39569 -1.90567 0
M  V30 24637 H 2401.64 -2.29667 -1.10114 0
M  V30 24638 H 2402.42 -3.43066 0.126739 0
M  V30 24639 N 2404.87 0.409753 -1.5218 0
M  V30 24640 C 2406.12 1.15385 -1.65436 0
M  V30 24641 C 2406.43 1.91671 -0.39009 0
M  V30 24642 O 2407.64 2.68501 -0.402446 0
M  V30 24643 C 2406.09 2.09997 -2.92283 0
M  V30 24644 C 2405.7 1.39231 -4.25815 0
M  V30 24645 C 2407.44 2.8467 -3.14902 0
M  V30 24646 C 2405.35 2.32489 -5.43786 0
M  V30 24647 H 2404.28 0.434421 -0.616274 0
M  V30 24648 H 2406.93 0.41837 -1.78667 0
M  V30 24649 H 2405.31 2.87095 -2.72749 0
M  V30 24650 H 2406.49 0.675019 -4.55829 0
M  V30 24651 H 2404.8 0.766025 -4.09293 0
M  V30 24652 H 2407.4 3.54586 -4.00216 0
M  V30 24653 H 2407.74 3.47584 -2.29109 0
M  V30 24654 H 2408.28 2.14671 -3.34904 0
M  V30 24655 H 2405.02 1.74222 -6.31923 0
M  V30 24656 H 2404.54 3.02192 -5.18112 0
M  V30 24657 H 2406.21 2.93028 -5.7684 0
M  V30 24658 N 2406.35 1.42792 0.666944 0
M  V30 24659 C 2407.59 1.43397 1.42414 0
M  V30 24660 C 2407.92 0.0542716 1.94924 0
M  V30 24661 O 2407.19 -0.908385 1.73566 0
M  V30 24662 H 2405.77 0.527911 0.528506 0
M  V30 24663 H 2408.43 1.78281 0.787531 0
M  V30 24664 H 2407.52 2.13841 2.27329 0
M  V30 24665 N 2407.82 -0.904008 1.29095 0
M  V30 24666 C 2409.07 -1.65654 1.16989 0
M  V30 24667 C 2409.4 -1.92187 -0.278891 0
M  V30 24668 O 2408.68 -1.52922 -1.20188 0
M  V30 24669 C 2408.96 -3.00836 1.97913 0
M  V30 24670 C 2408.81 -2.81396 3.50908 0
M  V30 24671 C 2410.13 -4.0151 1.80215 0
M  V30 24672 H 2407.25 -0.601157 0.426356 0
M  V30 24673 H 2409.89 -1.04744 1.5852 0
M  V30 24674 H 2408.04 -3.52826 1.62622 0
M  V30 24675 H 2409.72 -2.36341 3.96157 0
M  V30 24676 H 2407.96 -2.16263 3.76049 0
M  V30 24677 H 2408.63 -3.77436 4.02798 0
M  V30 24678 H 2411.11 -3.58615 2.11031 0
M  V30 24679 H 2409.98 -4.94042 2.39193 0
M  V30 24680 H 2410.24 -4.35585 0.756196 0
M  V30 24681 N 2409.3 -1.11501 -1.11379 0
M  V30 24682 C 2410.55 -0.862556 -1.82769 0
M  V30 24683 C 2410.87 0.613501 -1.85098 0
M  V30 24684 O 2410.14 1.44568 -1.32201 0
M  V30 24685 H 2408.72 -0.316112 -0.676817 0
M  V30 24686 H 2411.38 -1.40753 -1.34813 0
M  V30 24687 H 2410.48 -1.23532 -2.86612 0
M  V30 24688 N 2410.78 1.28995 -0.905426 0
M  V30 24689 C 2412.19 1.77397 -0.581984 0
M  V30 24690 C 2412.54 1.7421 0.902521 0
M  V30 24691 O 2411.67 1.33157 1.70582 0
M  V30 24692 C 2412.26 3.22129 -1.04967 0
M  V30 24693 C 2410.82 3.68287 -0.777294 0
M  V30 24694 C 2409.97 2.48965 -1.22113 0
M  V30 24695 H 2412.92 1.15576 -1.08756 0
M  V30 24696 H 2412.94 3.78522 -0.387453 0
M  V30 24697 H 2412.45 3.24417 -2.13014 0
M  V30 24698 H 2410.55 3.71467 0.290318 0
M  V30 24699 H 2410.67 4.58819 -1.3792 0
M  V30 24700 H 2409.03 2.46528 -0.640014 0
M  V30 24701 H 2409.81 2.53978 -2.30977 0
M  V30 24702 N 2412.26 0.668514 1.42719 0
M  V30 24703 C 2413.21 -0.0254448 2.32586 0
M  V30 24704 C 2414.2 -0.79715 1.49472 0
M  V30 24705 O 2415.41 -0.705823 1.65584 0
M  V30 24706 H 2411.78 -0.0270207 0.751514 0
M  V30 24707 H 2413.75 0.749987 2.88821 0
M  V30 24708 C 2412.5 -0.967368 3.33972 0
M  V30 24709 H 2411.83 -0.382978 3.97961 0
M  V30 24710 H 2413.27 -1.42174 3.99453 0
M  V30 24711 C 2411.72 -2.07075 2.65747 0
M  V30 24712 O 2412.25 -3.15644 2.48459 0
M  V30 24713 N 2410.46 -1.84066 2.24873 0
M  V30 24714 H 2410.01 -0.957738 2.39134 0
M  V30 24715 H 2409.97 -2.58083 1.79557 0
M  V30 24716 N 2413.74 -1.52135 0.411426 0
M  V30 24717 C 2414.7 -2.25664 -0.401049 0
M  V30 24718 C 2415.7 -1.28119 -0.97171 0
M  V30 24719 O 2416.89 -1.52042 -0.850227 0
M  V30 24720 C 2414.02 -3.02866 -1.56477 0
M  V30 24721 H 2415.22 -2.98914 0.243003 0
M  V30 24722 H 2412.77 -1.55437 0.163995 0
M  V30 24723 H 2413.5 -2.33971 -2.24562 0
M  V30 24724 H 2413.29 -3.74485 -1.16204 0
M  V30 24725 H 2414.78 -3.58633 -2.13945 0
M  V30 24726 N 2415.22 -0.14192 -1.5696 0
M  V30 24727 C 2416.16 0.816836 -2.17786 0
M  V30 24728 C 2417.16 1.25897 -1.13342 0
M  V30 24729 O 2418.36 1.22804 -1.31602 0
M  V30 24730 H 2414.74 0.281603 -0.697283 0
M  V30 24731 H 2416.71 0.279569 -2.97087 0
M  V30 24732 C 2415.46 2.04797 -2.80987 0
M  V30 24733 H 2414.78 1.71674 -3.61065 0
M  V30 24734 H 2416.22 2.69835 -3.27055 0
M  V30 24735 C 2414.68 2.85267 -1.79233 0
M  V30 24736 O 2415.21 3.81438 -1.25968 0
M  V30 24737 N 2413.42 2.49702 -1.48652 0
M  V30 24738 H 2412.96 1.7156 -1.92158 0
M  V30 24739 H 2412.92 3.03835 -0.808168 0
M  V30 24740 N 2416.69 1.57047 0.131868 0
M  V30 24741 C 2417.94 1.84442 0.843147 0
M  V30 24742 C 2418.27 0.725781 1.80128 0
M  V30 24743 O 2417.55 -0.269436 1.92625 0
M  V30 24744 C 2417.83 3.22385 1.60437 0
M  V30 24745 C 2417.68 4.44832 0.666704 0
M  V30 24746 C 2419 3.57735 2.56347 0
M  V30 24747 H 2416.12 0.670896 0.305069 0
M  V30 24748 H 2418.76 1.89694 0.107806 0
M  V30 24749 H 2416.91 3.18039 2.23122 0
M  V30 24750 H 2418.59 4.61273 0.0496835 0
M  V30 24751 H 2416.83 4.33794 -0.0226853 0
M  V30 24752 H 2417.5 5.37991 1.23569 0
M  V30 24753 H 2419.98 3.62789 2.03773 0
M  V30 24754 H 2418.85 4.55256 3.06649 0
M  V30 24755 H 2419.11 2.84479 3.38414 0
M  V30 24756 N 2418.17 -0.401677 1.52395 0
M  V30 24757 C 2419.1 -1.50909 1.72508 0
M  V30 24758 C 2420.12 -1.51121 0.605494 0
M  V30 24759 O 2421.31 -1.55252 0.880855 0
M  V30 24760 C 2418.41 -2.89788 1.75716 0
M  V30 24761 C 2417.58 -3.13684 3.04829 0
M  V30 24762 C 2416.64 -4.32476 2.99751 0
M  V30 24763 O 2415.66 -4.29395 3.73642 0
M  V30 24764 N 2416.87 -5.37989 2.18056 0
M  V30 24765 H 2419.63 -1.34048 2.68051 0
M  V30 24766 H 2417.19 -0.591058 1.50725 0
M  V30 24767 H 2419.18 -3.67337 1.69841 0
M  V30 24768 H 2417.75 -3.00071 0.876144 0
M  V30 24769 H 2416.97 -2.24113 3.24294 0
M  V30 24770 H 2418.26 -3.26498 3.90227 0
M  V30 24771 H 2417.66 -5.43342 1.57466 0
M  V30 24772 H 2416.22 -6.14252 2.18032 0
M  V30 24773 N 2419.65 -1.43144 -0.659362 0
M  V30 24774 C 2420.56 -1.50259 -1.80165 0
M  V30 24775 C 2421.58 -0.390136 -1.6957 0
M  V30 24776 O 2422.75 -0.643352 -1.90848 0
M  V30 24777 C 2419.82 -1.41731 -3.16407 0
M  V30 24778 C 2418.88 -2.63597 -3.38844 0
M  V30 24779 C 2418.11 -2.55466 -4.68586 0
M  V30 24780 O 2418.33 -1.59901 -5.47529 0
M  V30 24781 O 2417.27 -3.45863 -4.92608 0
M  V30 24782 H 2421.09 -2.46705 -1.77117 0
M  V30 24783 H 2418.68 -1.25077 -0.81707 0
M  V30 24784 H 2420.56 -1.39394 -3.97677 0
M  V30 24785 H 2419.24 -0.484174 -3.20058 0
M  V30 24786 H 2418.14 -2.71507 -2.57361 0
M  V30 24787 H 2419.48 -3.55862 -3.40034 0
M  V30 24788 N 2421.13 0.897149 -1.29572 0
M  V30 24789 C 2422.06 2.01796 -1.17476 0
M  V30 24790 C 2423.04 1.69963 -0.0683529 0
M  V30 24791 O 2424.22 1.92606 -0.248273 0
M  V30 24792 C 2421.35 3.36658 -0.853158 0
M  V30 24793 C 2420.31 3.8271 -1.91617 0
M  V30 24794 C 2419.63 5.14726 -1.44782 0
M  V30 24795 C 2420.93 4.02757 -3.32542 0
M  V30 24796 H 2422.63 2.12174 -2.11241 0
M  V30 24797 H 2420.17 1.01946 -1.01701 0
M  V30 24798 H 2422.13 4.14577 -0.755238 0
M  V30 24799 H 2420.85 3.26379 0.120179 0
M  V30 24800 H 2419.51 3.07009 -2.00352 0
M  V30 24801 H 2419.16 5.00864 -0.463083 0
M  V30 24802 H 2418.86 5.46509 -2.15875 0
M  V30 24803 H 2420.38 5.95183 -1.36345 0
M  V30 24804 H 2421.8 4.71151 -3.26634 0
M  V30 24805 H 2420.19 4.45898 -4.01615 0
M  V30 24806 H 2421.26 3.07009 -3.75331 0
M  V30 24807 N 2422.61 1.1209 1.10786 0
M  V30 24808 C 2423.52 0.798377 2.20597 0
M  V30 24809 C 2424.53 -0.21132 1.72712 0
M  V30 24810 O 2425.71 -0.0458123 2.01348 0
M  V30 24811 C 2422.77 0.253734 3.4577 0
M  V30 24812 C 2421.83 1.3229 4.08409 0
M  V30 24813 C 2421.07 0.804153 5.27607 0
M  V30 24814 O 2421.29 -0.363378 5.69241 0
M  V30 24815 O 2420.22 1.57208 5.81007 0
M  V30 24816 H 2424.05 1.71545 2.50611 0
M  V30 24817 H 2421.63 0.897296 1.19453 0
M  V30 24818 H 2423.52 -0.045295 4.21376 0
M  V30 24819 H 2422.19 -0.635949 3.17392 0
M  V30 24820 H 2421.1 1.67505 3.34504 0
M  V30 24821 H 2422.43 2.18622 4.40982 0
M  V30 24822 N 2424.08 -1.28513 0.912254 0
M  V30 24823 C 2425.5 -1.47475 0.610185 0
M  V30 24824 C 2425.7 -1.8293 -0.844923 0
M  V30 24825 O 2424.76 -1.93335 -1.62412 0
M  V30 24826 C 2426.07 -2.57865 1.5468 0
M  V30 24827 C 2427.62 -2.71735 1.55335 0
M  V30 24828 C 2428.09 -3.85267 2.47655 0
M  V30 24829 N 2429.58 -3.92619 2.45774 0
M  V30 24830 C 2430.32 -4.79845 3.13905 0
M  V30 24831 N 2429.81 -5.71672 3.9136 0
M  V30 24832 N 2431.61 -4.73443 3.02999 0
M  V30 24833 H 2423.76 -1.03779 1.8532 0
M  V30 24834 H 2426.02 -0.516739 0.794786 0
M  V30 24835 H 2425.73 -2.38569 2.58414 0
M  V30 24836 H 2425.6 -3.54934 1.27677 0
M  V30 24837 H 2427.99 -2.90421 0.523401 0
M  V30 24838 H 2428.07 -1.75202 1.86381 0
M  V30 24839 H 2427.71 -3.67336 3.50752 0
M  V30 24840 H 2427.64 -4.81195 2.13912 0
M  V30 24841 H 2430.13 -3.26948 1.89509 0
M  V30 24842 H 2430.45 -6.35054 4.4037 0
M  V30 24843 H 2428.79 -5.71517 3.95465 0
M  V30 24844 H 2431.98 -4.00695 2.41994 0
M  V30 24845 H 2432.16 -5.41207 3.56369 0
M  V30 24846 N 2425.56 -0.676073 -1.42362 0
M  V30 24847 C 2426.81 -0.196073 -2.00745 0
M  V30 24848 C 2427.12 1.20487 -1.54085 0
M  V30 24849 O 2428.33 1.78131 -2.04895 0
M  V30 24850 C 2426.79 -0.299679 -3.5865 0
M  V30 24851 C 2426.39 -1.70475 -4.14297 0
M  V30 24852 C 2428.14 0.121544 -4.24326 0
M  V30 24853 C 2426.05 -1.76106 -5.64571 0
M  V30 24854 H 2424.98 -0.0695433 -0.750786 0
M  V30 24855 H 2427.63 -0.841441 -1.63071 0
M  V30 24856 H 2426.01 0.413604 -3.93834 0
M  V30 24857 H 2427.18 -2.44522 -3.90571 0
M  V30 24858 H 2425.5 -2.07394 -3.61077 0
M  V30 24859 H 2428.09 0.0996423 -5.34607 0
M  V30 24860 H 2428.44 1.15701 -3.99899 0
M  V30 24861 H 2428.97 -0.540775 -3.94107 0
M  V30 24862 H 2425.71 -2.77639 -5.93799 0
M  V30 24863 H 2425.23 -1.06416 -5.90284 0
M  V30 24864 H 2426.91 -1.51507 -6.29011 0
M  V30 24865 N 2427.04 1.51915 -0.419488 0
M  V30 24866 C 2428.29 2.01523 0.152602 0
M  V30 24867 C 2428.61 1.30651 1.44759 0
M  V30 24868 O 2427.88 0.435569 1.90996 0
M  V30 24869 H 2426.46 0.744636 0.0593835 0
M  V30 24870 H 2429.12 1.86738 -0.558105 0
M  V30 24871 H 2428.22 3.10228 0.341315 0
M  V30 24872 N 2428.52 0.150242 1.56882 0
M  V30 24873 C 2429.76 -0.494393 1.973 0
M  V30 24874 C 2430.12 -1.62264 1.03383 0
M  V30 24875 O 2429.41 -1.91474 0.0694833 0
M  V30 24876 C 2429.61 -1.04431 3.41802 0
M  V30 24877 C 2429.44 0.0291242 4.49691 0
M  V30 24878 C 2428.21 0.471649 5.03094 0
M  V30 24879 C 2430.4 0.821792 5.07692 0
M  V30 24880 N 2428.39 1.52759 5.9459 0
M  V30 24881 C 2429.76 1.72816 5.95428 0
M  V30 24882 C 2431.81 0.86922 4.90254 0
M  V30 24883 C 2430.51 2.67789 6.67594 0
M  V30 24884 C 2432.54 1.8068 5.63124 0
M  V30 24885 C 2431.9 2.70068 6.50571 0
M  V30 24886 H 2428 -0.149625 0.767552 0
M  V30 24887 H 2430.59 0.245594 1.93145 0
M  V30 24888 H 2428.76 -1.7539 3.46544 0
M  V30 24889 H 2430.49 -1.65583 3.69275 0
M  V30 24890 H 2427.24 0.0732933 4.73543 0
M  V30 24891 H 2427.67 2.05542 6.45044 0
M  V30 24892 H 2432.31 0.192208 4.22363 0
M  V30 24893 H 2430.03 3.36489 7.34712 0
M  V30 24894 H 2433.61 1.84934 5.51626 0
M  V30 24895 H 2432.49 3.41436 7.05968 0
M  V30 24896 N 2430 -1.57115 -0.123538 0
M  V30 24897 C 2431.41 -1.7383 -0.681167 0
M  V30 24898 C 2431.76 -0.768246 -1.80534 0
M  V30 24899 O 2430.88 0.0598723 -2.16317 0
M  V30 24900 C 2431.48 -3.15198 -1.2424 0
M  V30 24901 C 2430.04 -3.33435 -1.74637 0
M  V30 24902 C 2429.18 -2.69713 -0.644237 0
M  V30 24903 H 2432.14 -1.5837 0.102342 0
M  V30 24904 H 2432.16 -3.16497 -2.11211 0
M  V30 24905 H 2431.67 -3.85777 -0.423995 0
M  V30 24906 H 2429.77 -2.67891 -2.5897 0
M  V30 24907 H 2429.88 -4.41566 -1.85894 0
M  V30 24908 H 2428.25 -2.30822 -1.07672 0
M  V30 24909 H 2429.03 -3.42912 0.163118 0
M  V30 24910 N 2431.47 0.393589 -1.52606 0
M  V30 24911 C 2432.42 1.50096 -1.77691 0
M  V30 24912 C 2433.42 1.56655 -0.644643 0
M  V30 24913 O 2434.62 1.59876 -0.827025 0
M  V30 24914 H 2431 0.499472 -0.562167 0
M  V30 24915 H 2432.97 1.26131 -2.70432 0
M  V30 24916 C 2431.72 2.87286 -1.95863 0
M  V30 24917 H 2431.04 2.82987 -2.82415 0
M  V30 24918 H 2432.48 3.6402 -2.17406 0
M  V30 24919 C 2430.94 3.28898 -0.729906 0
M  V30 24920 O 2431.47 4.01588 0.0948511 0
M  V30 24921 N 2429.68 2.85127 -0.561333 0
M  V30 24922 H 2429.22 2.26141 -1.23361 0
M  V30 24923 H 2429.18 3.13328 0.259445 0
M  V30 24924 N 2432.95 1.43492 0.651762 0
M  V30 24925 C 2433.92 1.48432 1.74644 0
M  V30 24926 C 2434.92 0.368845 1.56513 0
M  V30 24927 O 2436.11 0.630651 1.62384 0
M  V30 24928 C 2433.24 1.33833 3.13531 0
M  V30 24929 H 2434.43 2.45923 1.71644 0
M  V30 24930 H 2431.98 1.30279 0.86355 0
M  V30 24931 H 2432.72 0.373546 3.22141 0
M  V30 24932 H 2432.5 2.14697 3.28097 0
M  V30 24933 H 2433.99 1.40225 3.93353 0
M  V30 24934 N 2434.43 -0.890264 1.30046 0
M  V30 24935 C 2435.84 -1.457 1.16741 0
M  V30 24936 C 2436.19 -1.94801 -0.233905 0
M  V30 24937 O 2435.32 -1.84543 -1.13018 0
M  V30 24938 C 2435.91 -2.64821 2.11318 0
M  V30 24939 C 2434.47 -3.17601 2.02007 0
M  V30 24940 C 2433.62 -1.90293 2.01703 0
M  V30 24941 H 2436.57 -0.700701 1.42393 0
M  V30 24942 H 2436.59 -3.40864 1.69092 0
M  V30 24943 H 2436.1 -2.29054 3.13298 0
M  V30 24944 H 2434.2 -3.58038 1.03148 0
M  V30 24945 H 2434.32 -3.81259 2.90135 0
M  V30 24946 H 2432.68 -2.08399 1.4643 0
M  V30 24947 H 2433.46 -1.5679 3.05404 0
M  V30 24948 N 2435.91 -1.12676 -1.1019 0
M  V30 24949 C 2437.16 -0.878332 -1.81572 0
M  V30 24950 C 2437.47 0.597525 -1.8625 0
M  V30 24951 O 2438.68 0.962636 -2.53861 0
M  V30 24952 C 2437.13 -1.52173 -3.26146 0
M  V30 24953 C 2436.74 -3.03255 -3.29758 0
M  V30 24954 C 2438.48 -1.35367 -4.02338 0
M  V30 24955 C 2436.39 -3.60517 -4.68809 0
M  V30 24956 H 2435.32 -0.324942 -0.680388 0
M  V30 24957 H 2437.97 -1.35355 -1.239 0
M  V30 24958 H 2436.35 -0.974172 -3.83831 0
M  V30 24959 H 2437.53 -3.64525 -2.81884 0
M  V30 24960 H 2435.84 -3.19486 -2.67053 0
M  V30 24961 H 2438.44 -1.75568 -5.05054 0
M  V30 24962 H 2438.78 -0.297627 -4.15235 0
M  V30 24963 H 2439.32 -1.87059 -3.51075 0
M  V30 24964 H 2436.06 -4.65892 -4.61112 0
M  V30 24965 H 2435.58 -3.04023 -5.1704 0
M  V30 24966 H 2437.25 -3.59726 -5.37779 0
M  V30 24967 N 2437.39 1.28028 -0.919057 0
M  V30 24968 C 2438.32 2.29532 -0.428622 0
M  V30 24969 C 2439.3 1.62382 0.506561 0
M  V30 24970 O 2440.48 1.89754 0.413162 0
M  V30 24971 C 2437.61 3.45754 0.327328 0
M  V30 24972 C 2436.57 4.24839 -0.519212 0
M  V30 24973 C 2435.89 5.3345 0.365393 0
M  V30 24974 C 2437.19 4.91061 -1.77923 0
M  V30 24975 H 2438.89 2.70805 -1.27692 0
M  V30 24976 H 2436.43 1.30185 -0.615451 0
M  V30 24977 H 2438.39 4.15856 0.681305 0
M  V30 24978 H 2437.11 3.03376 1.20957 0
M  V30 24979 H 2435.77 3.56472 -0.855779 0
M  V30 24980 H 2435.42 4.87314 1.24634 0
M  V30 24981 H 2435.12 5.87268 -0.197459 0
M  V30 24982 H 2436.64 6.06398 0.715134 0
M  V30 24983 H 2438.05 5.53496 -1.49384 0
M  V30 24984 H 2436.45 5.54898 -2.2849 0
M  V30 24985 H 2437.52 4.15251 -2.50389 0
M  V30 24986 N 2438.86 0.683613 1.42002 0
M  V30 24987 C 2440.11 0.206716 2.00638 0
M  V30 24988 C 2440.43 -1.19668 1.54722 0
M  V30 24989 O 2441.63 -1.77041 2.05836 0
M  V30 24990 C 2440.09 0.318695 3.58486 0
M  V30 24991 C 2439.7 1.7267 4.13387 0
M  V30 24992 C 2441.44 -0.0990395 4.24384 0
M  V30 24993 C 2439.35 1.79097 5.63629 0
M  V30 24994 H 2438.28 0.0735239 0.750407 0
M  V30 24995 H 2440.93 0.850077 1.62622 0
M  V30 24996 H 2439.31 -0.392712 3.94048 0
M  V30 24997 H 2440.48 2.4659 3.89269 0
M  V30 24998 H 2438.8 2.09305 3.59972 0
M  V30 24999 H 2441.4 -0.0712894 5.34652 0
M  V30 25000 H 2441.74 -1.13579 4.00507 0
M  V30 25001 H 2442.27 0.561668 3.93815 0
M  V30 25002 H 2439.01 2.80784 5.92318 0
M  V30 25003 H 2438.53 1.09545 5.89712 0
M  V30 25004 H 2440.21 1.54841 6.28198 0
M  V30 25005 N 2440.34 -1.5169 0.427538 0
M  V30 25006 C 2441.28 -2.25235 -0.424481 0
M  V30 25007 C 2442.29 -1.28882 -0.994648 0
M  V30 25008 O 2443.48 -1.54703 -0.890455 0
M  V30 25009 C 2440.58 -2.98498 -1.60474 0
M  V30 25010 C 2439.75 -4.2187 -1.1552 0
M  V30 25011 C 2438.81 -4.77797 -2.20446 0
M  V30 25012 O 2437.84 -5.39896 -1.80281 0
M  V30 25013 N 2439.04 -4.60973 -3.52823 0
M  V30 25014 H 2441.8 -2.98993 0.205802 0
M  V30 25015 H 2439.36 -1.59865 0.255895 0
M  V30 25016 H 2441.36 -3.32803 -2.3027 0
M  V30 25017 H 2439.93 -2.27813 -2.14057 0
M  V30 25018 H 2439.15 -3.93171 -0.284667 0
M  V30 25019 H 2440.43 -5.0195 -0.832085 0
M  V30 25020 H 2439.83 -4.11488 -3.88193 0
M  V30 25021 H 2438.39 -4.99666 -4.18542 0
M  V30 25022 N 2441.82 -0.15856 -1.568 0
M  V30 25023 C 2443.1 0.535324 -1.88132 0
M  V30 25024 C 2443.48 1.82184 -1.06641 0
M  V30 25025 O 2442.83 2.27963 -0.156573 0
M  V30 25026 C 2443.04 0.789593 -3.39951 0
M  V30 25027 C 2444.38 1.12526 -4.09418 0
M  V30 25028 O 2445.41 0.878562 -3.45195 0
M  V30 25029 O 2444.27 1.59005 -5.22857 0
M  V30 25030 H 2441.36 0.274406 -0.780148 0
M  V30 25031 H 2443.91 -0.196039 -1.68564 0
M  V30 25032 H 2442.68 -0.120422 -3.91115 0
M  V30 25033 H 2442.3 1.57473 -3.65086 0
M  V30 25034 N 2443.3 1.57178 0.115204 0
M  V30 25035 C 2444.55 1.85052 0.822319 0
M  V30 25036 C 2444.87 0.744199 1.797 0
M  V30 25037 O 2444.13 -0.264106 1.9391 0
M  V30 25038 C 2444.43 3.19426 1.60319 0
M  V30 25039 C 2444.09 4.44234 0.772458 0
M  V30 25040 C 2442.76 4.78122 0.543384 0
M  V30 25041 C 2445.11 5.2084 0.193654 0
M  V30 25042 C 2442.44 5.86057 -0.274686 0
M  V30 25043 C 2444.79 6.29636 -0.611628 0
M  V30 25044 C 2443.45 6.62053 -0.850983 0
M  V30 25045 H 2442.72 0.677153 0.300908 0
M  V30 25046 H 2445.37 1.91313 0.0845466 0
M  V30 25047 H 2443.67 3.08757 2.41197 0
M  V30 25048 H 2445.37 3.38215 2.15434 0
M  V30 25049 H 2441.96 4.17685 0.961096 0
M  V30 25050 H 2446.15 4.95008 0.357839 0
M  V30 25051 H 2441.4 6.09596 -0.469313 0
M  V30 25052 H 2445.58 6.88176 -1.06709 0
M  V30 25053 H 2443.2 7.45521 -1.4867 0
M  V30 25054 N 2444.78 -0.38549 1.52813 0
M  V30 25055 C 2445.69 -1.49532 1.80769 0
M  V30 25056 C 2446.7 -1.59531 0.694679 0
M  V30 25057 O 2447.88 -1.75801 0.982642 0
M  V30 25058 C 2444.94 -2.85026 1.97386 0
M  V30 25059 C 2444.01 -2.84719 3.213 0
M  V30 25060 C 2443.24 -4.1375 3.37115 0
M  V30 25061 O 2443.46 -5.08889 2.57659 0
M  V30 25062 O 2442.4 -4.20775 4.30386 0
M  V30 25063 H 2446.22 -1.28838 2.75017 0
M  V30 25064 H 2443.81 -0.573673 1.37947 0
M  V30 25065 H 2445.69 -3.65345 2.10003 0
M  V30 25066 H 2444.36 -3.05739 1.06327 0
M  V30 25067 H 2443.27 -2.03168 3.14123 0
M  V30 25068 H 2444.6 -2.68958 4.12217 0
M  V30 25069 N 2446.26 -1.43835 -0.644143 0
M  V30 25070 C 2447.48 -1.4939 -1.43144 0
M  V30 25071 C 2447.9 -0.114616 -1.88452 0
M  V30 25072 O 2447.26 0.876961 -1.60049 0
M  V30 25073 C 2447.31 -2.44753 -2.66042 0
M  V30 25074 O 2447.03 -3.77318 -2.22627 0
M  V30 25075 C 2448.53 -2.59641 -3.59307 0
M  V30 25076 H 2445.75 -0.507085 -0.439438 0
M  V30 25077 H 2448.29 -1.8867 -0.788917 0
M  V30 25078 H 2446.45 -2.08644 -3.26415 0
M  V30 25079 H 2446.86 -4.28685 -3.02208 0
M  V30 25080 H 2448.34 -3.30424 -4.42181 0
M  V30 25081 H 2448.81 -1.64435 -4.07257 0
M  V30 25082 H 2449.42 -2.96599 -3.0481 0
M  V30 25083 N 2447.73 0.883355 -1.30517 0
M  V30 25084 C 2448.66 2.00538 -1.1961 0
M  V30 25085 C 2449.64 1.69881 -0.0863759 0
M  V30 25086 O 2450.83 1.92332 -0.268687 0
M  V30 25087 C 2447.96 3.35734 -0.888817 0
M  V30 25088 C 2446.91 3.80656 -1.95665 0
M  V30 25089 C 2446.24 5.13161 -1.50233 0
M  V30 25090 C 2447.54 3.99207 -3.36795 0
M  V30 25091 H 2449.23 2.09921 -2.13479 0
M  V30 25092 H 2446.78 1.00861 -1.02776 0
M  V30 25093 H 2448.73 4.13753 -0.799167 0
M  V30 25094 H 2447.46 3.26488 0.0855552 0
M  V30 25095 H 2446.12 3.04867 -2.03597 0
M  V30 25096 H 2445.76 5.00344 -0.51618 0
M  V30 25097 H 2445.46 5.44188 -2.21659 0
M  V30 25098 H 2446.99 5.93703 -1.4265 0
M  V30 25099 H 2448.4 4.6766 -3.31613 0
M  V30 25100 H 2446.8 4.41614 -4.06322 0
M  V30 25101 H 2447.87 3.03011 -3.78566 0
M  V30 25102 N 2449.21 1.13259 1.09591 0
M  V30 25103 C 2450.62 0.906302 1.63227 0
M  V30 25104 C 2450.97 -0.557545 1.88111 0
M  V30 25105 O 2450.1 -1.42388 1.62956 0
M  V30 25106 C 2450.69 1.63872 2.96532 0
M  V30 25107 C 2449.25 1.45834 3.47001 0
M  V30 25108 C 2448.4 1.66902 2.21447 0
M  V30 25109 H 2451.35 1.28613 0.929757 0
M  V30 25110 H 2451.37 1.09482 3.64409 0
M  V30 25111 H 2450.88 2.70409 2.78389 0
M  V30 25112 H 2448.98 0.415913 3.70271 0
M  V30 25113 H 2449.1 2.22027 4.24548 0
M  V30 25114 H 2447.46 1.09375 2.3002 0
M  V30 25115 H 2448.24 2.74756 2.05826 0
M  V30 25116 N 2450.69 -1.27539 0.925834 0
M  V30 25117 C 2452.11 -1.4682 0.625793 0
M  V30 25118 C 2452.31 -1.83816 -0.825474 0
M  V30 25119 O 2451.36 -1.95047 -1.60353 0
M  V30 25120 C 2452.67 -2.5621 1.57406 0
M  V30 25121 C 2454.22 -2.70072 1.58209 0
M  V30 25122 C 2454.7 -3.82619 2.51728 0
M  V30 25123 N 2456.19 -3.8999 2.49924 0
M  V30 25124 C 2456.92 -4.76489 3.18976 0
M  V30 25125 N 2456.42 -5.67489 3.97401 0
M  V30 25126 N 2458.21 -4.70202 3.08004 0
M  V30 25127 H 2450.36 -1.01808 1.86411 0
M  V30 25128 H 2452.63 -0.50828 0.800222 0
M  V30 25129 H 2452.33 -2.35815 2.6093 0
M  V30 25130 H 2452.21 -3.5356 1.31434 0
M  V30 25131 H 2454.59 -2.8985 0.554175 0
M  V30 25132 H 2454.67 -1.73215 1.88229 0
M  V30 25133 H 2454.32 -3.63595 3.54628 0
M  V30 25134 H 2454.25 -4.78899 2.19004 0
M  V30 25135 H 2456.74 -3.24919 1.92966 0
M  V30 25136 H 2457.05 -6.30348 4.47081 0
M  V30 25137 H 2455.4 -5.67291 4.01505 0
M  V30 25138 H 2458.59 -3.98106 2.4623 0
M  V30 25139 H 2458.76 -5.37397 3.62089 0
M  V30 25140 N 2452.17 -0.691135 -1.41637 0
M  V30 25141 C 2453.08 -0.0233899 -2.34588 0
M  V30 25142 C 2454.09 0.770957 -1.55988 0
M  V30 25143 O 2455.27 0.709536 -1.88488 0
M  V30 25144 C 2452.33 0.904792 -3.34686 0
M  V30 25145 C 2451.4 0.10315 -4.29176 0
M  V30 25146 C 2450.63 0.987124 -5.24492 0
M  V30 25147 O 2450.85 2.22665 -5.25144 0
M  V30 25148 O 2449.79 0.439175 -6.00296 0
M  V30 25149 H 2453.61 -0.789468 -2.93259 0
M  V30 25150 H 2451.2 -0.451445 -1.42416 0
M  V30 25151 H 2453.08 1.43717 -3.96136 0
M  V30 25152 H 2451.75 1.65044 -2.78464 0
M  V30 25153 H 2450.66 -0.473721 -3.71089 0
M  V30 25154 H 2451.99 -0.603735 -4.88483 0
M  V30 25155 N 2453.65 1.51461 -0.435577 0
M  V30 25156 C 2454.61 2.26273 0.365097 0
M  V30 25157 C 2455.61 1.29649 0.951204 0
M  V30 25158 O 2456.8 1.53375 0.825931 0
M  V30 25159 C 2453.93 3.05317 1.51639 0
M  V30 25160 H 2455.12 2.98489 -0.290526 0
M  V30 25161 H 2452.68 1.55157 -0.188703 0
M  V30 25162 H 2453.41 2.37514 2.20812 0
M  V30 25163 H 2453.2 3.76286 1.10232 0
M  V30 25164 H 2454.69 3.61991 2.08212 0
M  V30 25165 N 2455.12 0.166873 1.56714 0
M  V30 25166 C 2456.54 -0.350614 1.83378 0
M  V30 25167 C 2456.89 -1.6337 1.08649 0
M  V30 25168 O 2456.01 -2.13743 0.338096 0
M  V30 25169 C 2456.61 -0.642905 3.32644 0
M  V30 25170 C 2455.17 -1.10485 3.5982 0
M  V30 25171 C 2454.31 -0.138363 2.76955 0
M  V30 25172 H 2457.26 0.39122 1.53802 0
M  V30 25173 H 2457.28 -1.49545 3.49881 0
M  V30 25174 H 2456.8 0.291123 3.87007 0
M  V30 25175 H 2454.9 -2.05413 3.10864 0
M  V30 25176 H 2455.01 -1.01708 4.6818 0
M  V30 25177 H 2453.37 -0.634868 2.46661 0
M  V30 25178 H 2454.16 0.789608 3.34096 0
M  V30 25179 N 2456.6 -1.57237 -0.106866 0
M  V30 25180 C 2457.88 -1.76478 -0.843495 0
M  V30 25181 C 2458.26 -0.745499 -1.97498 0
M  V30 25182 O 2457.61 0.228266 -2.27357 0
M  V30 25183 C 2457.82 -3.21875 -1.34897 0
M  V30 25184 C 2459.17 -3.84723 -1.79647 0
M  V30 25185 O 2460.19 -3.25552 -1.44548 0
M  V30 25186 O 2459.05 -4.88752 -2.44506 0
M  V30 25187 H 2456.14 -0.723024 -0.401455 0
M  V30 25188 H 2458.69 -1.69463 -0.0896629 0
M  V30 25189 H 2457.46 -3.87587 -0.537742 0
M  V30 25190 H 2457.08 -3.33477 -2.16516 0
M  V30 25191 N 2458.08 0.377381 -1.53015 0
M  V30 25192 C 2459.01 1.46788 -1.81592 0
M  V30 25193 C 2459.99 1.56407 -0.66865 0
M  V30 25194 O 2461.18 1.71167 -0.917367 0
M  V30 25195 C 2458.31 2.84267 -1.99524 0
M  V30 25196 C 2457.26 2.8948 -3.15254 0
M  V30 25197 C 2456.59 4.29521 -3.18459 0
M  V30 25198 C 2457.89 2.58071 -4.54089 0
M  V30 25199 H 2459.58 1.23123 -2.72912 0
M  V30 25200 H 2457.13 0.59086 -1.3132 0
M  V30 25201 H 2459.08 3.60571 -2.18098 0
M  V30 25202 H 2457.8 3.09294 -1.04903 0
M  V30 25203 H 2456.46 2.15626 -2.96481 0
M  V30 25204 H 2456.11 4.51606 -2.21498 0
M  V30 25205 H 2455.81 4.33927 -3.96208 0
M  V30 25206 H 2457.33 5.07715 -3.39202 0
M  V30 25207 H 2458.75 3.2409 -4.72904 0
M  V30 25208 H 2457.15 2.73811 -5.33992 0
M  V30 25209 H 2458.22 1.53364 -4.60008 0
M  V30 25210 N 2459.56 1.44175 0.636506 0
M  V30 25211 C 2460.8 1.46892 1.39823 0
M  V30 25212 C 2461.14 0.0990926 1.93947 0
M  V30 25213 O 2460.41 -0.882514 1.73326 0
M  V30 25214 C 2460.7 2.52494 2.56746 0
M  V30 25215 C 2460.55 3.98815 2.08007 0
M  V30 25216 C 2461.87 2.54655 3.58941 0
M  V30 25217 H 2458.99 0.534839 0.507066 0
M  V30 25218 H 2461.63 1.75823 0.720157 0
M  V30 25219 H 2459.78 2.27955 3.14593 0
M  V30 25220 H 2461.45 4.34468 1.55032 0
M  V30 25221 H 2459.69 4.10848 1.39235 0
M  V30 25222 H 2460.36 4.68344 2.92161 0
M  V30 25223 H 2462.84 2.76568 3.10885 0
M  V30 25224 H 2461.72 3.30457 4.3828 0
M  V30 25225 H 2461.98 1.58653 4.12652 0
M  V30 25226 N 2461.04 -0.876421 1.30983 0
M  V30 25227 C 2461.97 -1.99901 1.20672 0
M  V30 25228 C 2462.95 -1.69832 0.0953838 0
M  V30 25229 O 2464.13 -1.92187 0.278884 0
M  V30 25230 C 2461.26 -3.35258 0.906609 0
M  V30 25231 C 2460.22 -3.79613 1.97681 0
M  V30 25232 C 2459.54 -5.12357 1.52952 0
M  V30 25233 C 2460.84 -3.97416 3.38907 0
M  V30 25234 H 2462.54 -2.08786 2.1459 0
M  V30 25235 H 2460.08 -1.00315 1.0331 0
M  V30 25236 H 2462.04 -4.13323 0.821098 0
M  V30 25237 H 2460.76 -3.26529 -0.0682395 0
M  V30 25238 H 2459.42 -3.03783 2.05211 0
M  V30 25239 H 2459.07 -5.00064 0.542707 0
M  V30 25240 H 2458.77 -5.43005 2.24542 0
M  V30 25241 H 2460.29 -5.92938 1.45796 0
M  V30 25242 H 2461.7 -4.65894 3.34089 0
M  V30 25243 H 2460.1 -4.39453 4.08658 0
M  V30 25244 H 2461.17 -3.00999 3.80168 0
M  V30 25245 N 2462.51 -1.13839 -1.08989 0
M  V30 25246 C 2463.45 -0.77765 -2.15604 0
M  V30 25247 C 2464.46 0.202711 -1.61533 0
M  V30 25248 O 2465.65 -0.0181369 -1.78491 0
M  V30 25249 C 2462.75 -0.132682 -3.3864 0
M  V30 25250 C 2461.92 -1.14627 -4.22113 0
M  V30 25251 C 2460.98 -0.526166 -5.23563 0
M  V30 25252 O 2460.01 -1.18745 -5.56676 0
M  V30 25253 N 2461.21 0.699765 -5.76267 0
M  V30 25254 H 2463.97 -1.6951 -2.47156 0
M  V30 25255 H 2461.53 -1.032 -1.24745 0
M  V30 25256 H 2463.53 0.294519 -4.03627 0
M  V30 25257 H 2462.1 0.687795 -3.0494 0
M  V30 25258 H 2461.32 -1.75061 -3.53196 0
M  V30 25259 H 2462.6 -1.83117 -4.74706 0
M  V30 25260 H 2462 1.25571 -5.51587 0
M  V30 25261 H 2460.56 1.06956 -6.42965 0
M  V30 25262 N 2463.99 1.27046 -0.932584 0
M  V30 25263 C 2465.41 1.46486 -0.63357 0
M  V30 25264 C 2465.61 1.84251 0.815714 0
M  V30 25265 O 2464.66 1.95895 1.59316 0
M  V30 25266 C 2465.98 2.55372 -1.58763 0
M  V30 25267 C 2467.53 2.69229 -1.59639 0
M  V30 25268 C 2468 3.81278 -2.53753 0
M  V30 25269 N 2469.49 3.88659 -2.51989 0
M  V30 25270 C 2470.23 4.74791 -3.21499 0
M  V30 25271 N 2469.72 5.65374 -4.00405 0
M  V30 25272 N 2471.52 4.68562 -3.10493 0
M  V30 25273 H 2463.67 1.00818 -1.86948 0
M  V30 25274 H 2465.93 0.50403 -0.802906 0
M  V30 25275 H 2465.64 2.34428 -2.62177 0
M  V30 25276 H 2465.51 3.52858 -1.33307 0
M  V30 25277 H 2467.9 2.89552 -0.569539 0
M  V30 25278 H 2467.98 1.72214 -1.89145 0
M  V30 25279 H 2467.62 3.61709 -3.56551 0
M  V30 25280 H 2467.55 4.77731 -2.21541 0
M  V30 25281 H 2470.04 3.23891 -1.94686 0
M  V30 25282 H 2470.36 6.27968 -4.50417 0
M  V30 25283 H 2468.7 5.65154 -4.04508 0
M  V30 25284 H 2471.89 3.96795 -2.48338 0
M  V30 25285 H 2472.06 5.35469 -3.64934 0
M  V30 25286 N 2465.47 0.698636 1.41269 0
M  V30 25287 C 2466.71 0.235098 2.03043 0
M  V30 25288 C 2467.07 -1.14465 1.54148 0
M  V30 25289 O 2468.28 -1.70422 2.0787 0
M  V30 25290 C 2466.55 0.293714 3.56191 0
M  V30 25291 S 2468.11 -0.0953282 4.38696 0
M  V30 25292 H 2464.92 0.0944772 0.704695 0
M  V30 25293 H 2467.53 0.917094 1.72655 0
M  V30 25294 H 2466.23 1.29983 3.89272 0
M  V30 25295 H 2465.76 -0.407329 3.91286 0
M  V30 25296 H 2467.78 -1.32221 4.78259 0
M  V30 25297 N 2466.95 -1.51228 0.443603 0
M  V30 25298 C 2468.19 -2.04048 -0.119853 0
M  V30 25299 C 2468.55 -1.32012 -1.39416 0
M  V30 25300 O 2469.75 -1.75239 -2.03826 0
M  V30 25301 C 2468.02 -3.55899 -0.32717 0
M  V30 25302 S 2469.58 -4.30427 -0.853132 0
M  V30 25303 H 2466.4 -0.710412 -0.0289085 0
M  V30 25304 H 2469 -1.85921 0.604445 0
M  V30 25305 H 2467.71 -4.05894 0.606516 0
M  V30 25306 H 2467.24 -3.78331 -1.07837 0
M  V30 25307 H 2469.25 -4.48159 -2.12997 0
M  V30 25308 N 2468.43 -0.175182 -1.56623 0
M  V30 25309 C 2469.65 0.478102 -2.01814 0
M  V30 25310 C 2470.08 1.55755 -1.0546 0
M  V30 25311 O 2469.43 1.81267 -0.0347758 0
M  V30 25312 C 2469.48 1.02981 -3.45583 0
M  V30 25313 O 2468.59 2.14364 -3.52309 0
M  V30 25314 H 2467.93 0.114047 -0.654132 0
M  V30 25315 H 2470.46 -0.280209 -2.02672 0
M  V30 25316 H 2470.47 1.35145 -3.84967 0
M  V30 25317 H 2469.14 0.239483 -4.1521 0
M  V30 25318 H 2467.72 1.83216 -3.24786 0
M  V30 25319 N 2469.91 1.57292 0.0985263 0
M  V30 25320 C 2471.15 1.85546 0.80106 0
M  V30 25321 C 2471.47 0.763385 1.79436 0
M  V30 25322 O 2470.74 -0.210696 1.94764 0
M  V30 25323 H 2469.32 0.684625 0.298828 0
M  V30 25324 H 2471.99 1.94732 0.0809722 0
M  V30 25325 H 2471.08 2.82166 1.33375 0
M  V30 25326 N 2471.38 -0.369261 1.53213 0
M  V30 25327 C 2472.29 -1.47606 1.82345 0
M  V30 25328 C 2473.31 -1.58785 0.71156 0
M  V30 25329 O 2474.49 -1.74749 1.00123 0
M  V30 25330 C 2471.55 -2.82916 2.00398 0
M  V30 25331 C 2470.61 -2.81295 3.24302 0
M  V30 25332 C 2469.84 -4.10151 3.41485 0
M  V30 25333 O 2470.07 -5.06127 2.63042 0
M  V30 25334 O 2469 -4.16187 4.34824 0
M  V30 25335 H 2472.83 -1.25913 2.76368 0
M  V30 25336 H 2470.41 -0.559009 1.38548 0
M  V30 25337 H 2472.29 -3.63097 2.13866 0
M  V30 25338 H 2470.97 -3.04594 1.09564 0
M  V30 25339 H 2469.88 -1.99825 3.1626 0
M  V30 25340 H 2471.21 -2.64571 4.15046 0
M  V30 25341 N 2472.86 -1.4451 -0.628851 0
M  V30 25342 C 2474.11 -1.47122 -1.38562 0
M  V30 25343 C 2474.43 -0.105933 -1.94712 0
M  V30 25344 O 2473.7 0.862048 -1.75913 0
M  V30 25345 H 2472.28 -0.541738 -0.514324 0
M  V30 25346 H 2474.94 -1.80306 -0.739986 0
M  V30 25347 H 2474.04 -2.19793 -2.21579 0
M  V30 25348 N 2474.34 0.869463 -1.31446 0
M  V30 25349 C 2475.27 1.99259 -1.2173 0
M  V30 25350 C 2476.25 1.69779 -0.104389 0
M  V30 25351 O 2477.44 1.92036 -0.289072 0
M  V30 25352 C 2474.57 3.34772 -0.924376 0
M  V30 25353 C 2473.52 3.78559 -1.99692 0
M  V30 25354 C 2472.85 5.11539 -1.55667 0
M  V30 25355 C 2474.15 3.95613 -3.4101 0
M  V30 25356 H 2475.84 2.07645 -2.15694 0
M  V30 25357 H 2473.39 0.997657 -1.0384 0
M  V30 25358 H 2475.34 4.12882 -0.843006 0
M  V30 25359 H 2474.06 3.2656 0.0509219 0
M  V30 25360 H 2472.72 3.02691 -2.06819 0
M  V30 25361 H 2472.37 4.99769 -0.569219 0
M  V30 25362 H 2472.07 5.41807 -2.27419 0
M  V30 25363 H 2473.59 5.92157 -1.48939 0
M  V30 25364 H 2475.01 4.64116 -3.36555 0
M  V30 25365 H 2473.4 4.37279 -4.10983 0
M  V30 25366 H 2474.47 2.98979 -3.81759 0
M  V30 25367 N 2475.82 1.14415 1.08383 0
M  V30 25368 C 2476.75 0.789073 2.15189 0
M  V30 25369 C 2477.76 -0.194141 1.61638 0
M  V30 25370 O 2478.95 0.0276024 1.78479 0
M  V30 25371 C 2476.05 0.150639 3.38565 0
M  V30 25372 C 2475.22 1.16864 4.21499 0
M  V30 25373 C 2474.28 0.553924 5.23276 0
M  V30 25374 O 2473.31 1.21695 5.56039 0
M  V30 25375 N 2474.51 -0.669194 5.7663 0
M  V30 25376 H 2477.28 1.70819 2.46254 0
M  V30 25377 H 2474.84 1.0386 1.24196 0
M  V30 25378 H 2476.83 -0.27311 4.03777 0
M  V30 25379 H 2475.4 -0.671614 3.053 0
M  V30 25380 H 2474.62 1.76932 3.52262 0
M  V30 25381 H 2475.91 1.85632 4.73728 0
M  V30 25382 H 2475.31 -1.22644 5.52245 0
M  V30 25383 H 2473.86 -1.03545 6.43523 0
M  V30 25384 N 2477.3 -1.26549 0.939309 0
M  V30 25385 C 2478.54 -1.93132 0.581635 0
M  V30 25386 C 2478.86 -1.74525 -0.883193 0
M  V30 25387 O 2480.06 -2.35548 -1.35016 0
M  V30 25388 C 2478.52 -3.46031 0.989486 0
M  V30 25389 C 2478.13 -3.73374 2.4758 0
M  V30 25390 C 2479.87 -4.18628 0.703617 0
M  V30 25391 C 2477.78 -5.19704 2.82245 0
M  V30 25392 H 2476.71 -0.723048 0.213816 0
M  V30 25393 H 2479.36 -1.43658 1.14169 0
M  V30 25394 H 2477.74 -3.94379 0.357972 0
M  V30 25395 H 2478.92 -3.35739 3.1562 0
M  V30 25396 H 2477.23 -3.14005 2.73477 0
M  V30 25397 H 2479.83 -5.26391 0.938961 0
M  V30 25398 H 2480.17 -4.14744 -0.359566 0
M  V30 25399 H 2480.7 -3.76139 1.29476 0
M  V30 25400 H 2477.44 -5.28687 3.87518 0
M  V30 25401 H 2476.96 -5.58443 2.18864 0
M  V30 25402 H 2478.64 -5.8769 2.70609 0
M  V30 25403 N 2478.77 -0.706118 -1.40896 0
M  V30 25404 C 2480.18 -0.315085 -1.84022 0
M  V30 25405 C 2480.54 1.14863 -1.59062 0
M  V30 25406 O 2479.66 1.88292 -1.06655 0
M  V30 25407 C 2480.26 -0.565097 -3.34054 0
M  V30 25408 C 2478.81 -0.227872 -3.7571 0
M  V30 25409 C 2477.96 -0.842168 -2.64202 0
M  V30 25410 H 2480.91 -0.905986 -1.30298 0
M  V30 25411 H 2480.93 0.172776 -3.80108 0
M  V30 25412 H 2480.45 -1.63048 -3.52189 0
M  V30 25413 H 2478.55 0.832831 -3.63173 0
M  V30 25414 H 2478.66 -0.690257 -4.74102 0
M  V30 25415 H 2477.02 -0.270938 -2.53255 0
M  V30 25416 H 2477.81 -1.91163 -2.85152 0
M  V30 25417 N 2480.25 1.50991 -0.451617 0
M  V30 25418 C 2481.48 2.06616 0.108298 0
M  V30 25419 C 2481.89 1.31759 1.35222 0
M  V30 25420 O 2481.25 0.381206 1.78474 0
M  V30 25421 C 2481.3 3.59097 0.416127 0
M  V30 25422 O 2481.02 4.31129 -0.778436 0
M  V30 25423 C 2482.52 4.31284 1.02515 0
M  V30 25424 H 2479.74 0.670998 0.00158816 0
M  V30 25425 H 2482.29 1.94398 -0.634806 0
M  V30 25426 H 2480.44 3.71183 1.10914 0
M  V30 25427 H 2480.86 5.22002 -0.511273 0
M  V30 25428 H 2482.33 5.39011 1.19044 0
M  V30 25429 H 2482.81 3.90504 2.01006 0
M  V30 25430 H 2483.41 4.23678 0.371099 0
M  V30 25431 N 2481.73 0.183486 1.56528 0
M  V30 25432 C 2482.66 -0.737417 2.2155 0
M  V30 25433 C 2483.64 -1.23003 1.17492 0
M  V30 25434 O 2484.83 -1.28098 1.45961 0
M  V30 25435 C 2481.96 -1.96189 2.86578 0
M  V30 25436 C 2480.91 -1.60466 3.9678 0
M  V30 25437 C 2480.24 -2.90479 4.48917 0
M  V30 25438 C 2481.54 -0.823406 5.15769 0
M  V30 25439 H 2483.23 -0.195401 2.98762 0
M  V30 25440 H 2480.78 -0.0925433 1.43702 0
M  V30 25441 H 2482.73 -2.61125 3.30744 0
M  V30 25442 H 2481.45 -2.52825 2.06754 0
M  V30 25443 H 2480.11 -0.978935 3.53288 0
M  V30 25444 H 2479.76 -3.4518 3.65869 0
M  V30 25445 H 2479.46 -2.67326 5.23269 0
M  V30 25446 H 2480.98 -3.56423 4.95777 0
M  V30 25447 H 2482.4 -1.37561 5.56552 0
M  V30 25448 H 2480.79 -0.690446 5.96115 0
M  V30 25449 H 2481.86 0.177867 4.84574 0
M  V30 25450 N 2483.21 -1.57342 -0.0901833 0
M  V30 25451 C 2484.43 -1.90927 -0.810049 0
M  V30 25452 C 2484.86 -0.778217 -1.71247 0
M  V30 25453 O 2484.22 0.269959 -1.79279 0
M  V30 25454 C 2484.26 -3.23396 -1.59523 0
M  V30 25455 O 2483.37 -3.11332 -2.70456 0
M  V30 25456 H 2482.71 -0.625711 -0.22222 0
M  V30 25457 H 2485.24 -2.045 -0.0639357 0
M  V30 25458 H 2485.25 -3.56823 -1.97841 0
M  V30 25459 H 2483.92 -4.053 -0.932983 0
M  V30 25460 H 2482.5 -2.89428 -2.3513 0
M  V30 25461 N 2484.69 0.36113 -1.53407 0
M  V30 25462 C 2486.1 0.937699 -1.61444 0
M  V30 25463 C 2486.45 1.9012 -0.484643 0
M  V30 25464 O 2485.57 2.12888 0.388275 0
M  V30 25465 C 2486.17 1.70748 -2.92627 0
M  V30 25466 C 2484.73 2.23332 -3.02985 0
M  V30 25467 C 2483.87 1.04707 -2.56772 0
M  V30 25468 H 2486.83 0.139789 -1.58083 0
M  V30 25469 H 2486.85 2.56903 -2.8068 0
M  V30 25470 H 2486.36 1.00597 -3.74836 0
M  V30 25471 H 2484.46 2.96711 -2.25373 0
M  V30 25472 H 2484.57 2.50909 -4.08144 0
M  V30 25473 H 2482.94 1.41535 -2.11754 0
M  V30 25474 H 2483.72 0.360479 -3.41402 0
M  V30 25475 N 2486.16 1.44842 0.621179 0
M  V30 25476 C 2487.13 1.52103 1.71457 0
M  V30 25477 C 2488.13 0.40196 1.55695 0
M  V30 25478 O 2489.32 0.664953 1.61009 0
M  V30 25479 C 2486.45 1.40453 3.10622 0
M  V30 25480 H 2487.64 2.49509 1.66389 0
M  V30 25481 H 2485.2 1.32081 0.835721 0
M  V30 25482 H 2485.93 0.441793 3.21277 0
M  V30 25483 H 2485.72 2.21608 3.23469 0
M  V30 25484 H 2487.21 1.48537 3.9029 0
M  V30 25485 N 2487.64 -0.862479 1.31905 0
M  V30 25486 C 2489.05 -1.43191 1.19805 0
M  V30 25487 C 2489.4 -1.95253 -0.192532 0
M  V30 25488 O 2488.53 -1.86898 -1.09078 0
M  V30 25489 C 2489.12 -2.60279 2.16887 0
M  V30 25490 C 2487.68 -3.13245 2.08698 0
M  V30 25491 C 2486.83 -1.85971 2.05694 0
M  V30 25492 H 2489.78 -0.67034 1.43848 0
M  V30 25493 H 2489.8 -3.372 1.76284 0
M  V30 25494 H 2489.31 -2.22357 3.18086 0
M  V30 25495 H 2487.42 -3.55769 1.1072 0
M  V30 25496 H 2487.53 -3.75019 2.98157 0
M  V30 25497 H 2485.89 -2.05246 1.50818 0
M  V30 25498 H 2486.68 -1.50277 3.08661 0
M  V30 25499 N 2489.12 -1.14988 -1.07775 0
M  V30 25500 C 2490.4 -0.832726 -1.76989 0
M  V30 25501 C 2490.78 0.672525 -2.00101 0
M  V30 25502 O 2490.13 1.61547 -1.61601 0
M  V30 25503 C 2490.34 -1.63869 -3.08136 0
M  V30 25504 C 2491.68 -1.84215 -3.82557 0
M  V30 25505 O 2492.71 -1.60609 -3.17936 0
M  V30 25506 O 2491.57 -2.23723 -4.98608 0
M  V30 25507 H 2488.66 -0.305804 -0.768383 0
M  V30 25508 H 2491.21 -1.25543 -1.14179 0
M  V30 25509 H 2489.98 -2.66085 -2.86905 0
M  V30 25510 H 2489.6 -1.21203 -3.78676 0
M  V30 25511 N 2490.6 1.26049 -0.946007 0
M  V30 25512 C 2491.84 1.95281 -0.603699 0
M  V30 25513 C 2492.2 1.72536 0.842347 0
M  V30 25514 O 2493.4 2.35613 1.29383 0
M  V30 25515 C 2491.67 3.44753 -0.942353 0
M  V30 25516 S 2493.23 4.32996 -0.711318 0
M  V30 25517 H 2490.05 0.675392 -0.222188 0
M  V30 25518 H 2492.65 1.52894 -1.21835 0
M  V30 25519 H 2491.36 3.58809 -1.99209 0
M  V30 25520 H 2490.89 3.92116 -0.317615 0
M  V30 25521 H 2492.9 4.94401 0.422134 0
M  V30 25522 N 2492.08 0.71358 1.4052 0
M  V30 25523 C 2493.3 0.260386 2.05759 0
M  V30 25524 C 2493.73 -1.08851 1.53405 0
M  V30 25525 O 2493.08 -1.68523 0.668565 0
M  V30 25526 C 2493.13 0.248185 3.59745 0
M  V30 25527 O 2492.24 -0.771239 4.05124 0
M  V30 25528 H 2491.58 0.122715 0.652562 0
M  V30 25529 H 2494.11 0.973499 1.79956 0
M  V30 25530 H 2494.12 0.0851846 4.07911 0
M  V30 25531 H 2492.79 1.23256 3.97216 0
M  V30 25532 H 2491.37 -0.576125 3.68423 0
M  V30 25533 N 2493.55 -1.50749 0.459618 0
M  V30 25534 C 2494.49 -2.26085 -0.37661 0
M  V30 25535 C 2495.5 -1.30963 -0.967086 0
M  V30 25536 O 2496.69 -1.56557 -0.85744 0
M  V30 25537 C 2493.79 -3.01835 -1.54106 0
M  V30 25538 C 2492.96 -4.24225 -1.06545 0
M  V30 25539 C 2492.02 -4.82366 -2.10261 0
M  V30 25540 O 2491.05 -5.43598 -1.68788 0
M  V30 25541 N 2492.25 -4.68353 -3.42966 0
M  V30 25542 H 2495.01 -2.98489 0.269176 0
M  V30 25543 H 2492.57 -1.59286 0.289748 0
M  V30 25544 H 2494.57 -3.37612 -2.23159 0
M  V30 25545 H 2493.14 -2.32302 -2.09176 0
M  V30 25546 H 2492.36 -3.93686 -0.201205 0
M  V30 25547 H 2493.64 -5.03602 -0.725427 0
M  V30 25548 H 2493.04 -4.1963 -3.79378 0
M  V30 25549 H 2491.6 -5.08431 -4.07849 0
M  V30 25550 N 2495.03 -0.191784 -1.56429 0
M  V30 25551 C 2496.44 0.321396 -1.83913 0
M  V30 25552 C 2496.79 1.61621 -1.11234 0
M  V30 25553 O 2495.92 2.13178 -0.372058 0
M  V30 25554 C 2496.51 0.589903 -3.33625 0
M  V30 25555 C 2495.07 1.04746 -3.61532 0
M  V30 25556 C 2494.22 0.094284 -2.7714 0
M  V30 25557 H 2497.17 -0.415639 -1.5316 0
M  V30 25558 H 2497.19 1.4396 -3.52215 0
M  V30 25559 H 2496.7 -0.352656 -3.86494 0
M  V30 25560 H 2494.81 2.00441 -3.14092 0
M  V30 25561 H 2494.92 0.942466 -4.69739 0
M  V30 25562 H 2493.28 0.595546 -2.4764 0
M  V30 25563 H 2494.07 -0.842659 -3.32797 0
M  V30 25564 N 2496.51 1.57387 0.0818378 0
M  V30 25565 C 2497.44 2.0603 1.09881 0
M  V30 25566 C 2498.42 0.951798 1.40978 0
M  V30 25567 O 2499.61 1.2239 1.50779 0
M  V30 25568 C 2496.74 2.49584 2.41506 0
M  V30 25569 C 2495.69 3.64219 2.24786 0
M  V30 25570 C 2495.02 3.93793 3.61705 0
M  V30 25571 C 2496.32 4.94632 1.6774 0
M  V30 25572 H 2498.01 2.91244 0.694077 0
M  V30 25573 H 2495.56 1.4011 0.332424 0
M  V30 25574 H 2497.51 2.82224 3.12934 0
M  V30 25575 H 2496.23 1.61386 2.8394 0
M  V30 25576 H 2494.89 3.31846 1.55801 0
M  V30 25577 H 2494.54 3.02743 4.01691 0
M  V30 25578 H 2494.24 4.70978 3.5136 0
M  V30 25579 H 2495.76 4.28921 4.34579 0
M  V30 25580 H 2497.18 5.25568 2.29023 0
M  V30 25581 H 2495.58 5.7607 1.68118 0
M  V30 25582 H 2496.65 4.80685 0.637975 0
M  V30 25583 N 2497.99 -0.35299 1.53596 0
M  V30 25584 C 2499.27 -1.11072 1.61004 0
M  V30 25585 C 2499.65 -2.06769 0.425393 0
M  V30 25586 O 2498.99 -2.20931 -0.583229 0
M  V30 25587 C 2499.2 -1.83872 2.96635 0
M  V30 25588 C 2500.55 -2.37955 3.51657 0
M  V30 25589 O 2501.58 -1.93981 2.98747 0
M  V30 25590 O 2500.43 -3.18378 4.44182 0
M  V30 25591 H 2497.53 -0.510239 0.650834 0
M  V30 25592 H 2500.07 -0.355241 1.6594 0
M  V30 25593 H 2498.85 -1.14101 3.74295 0
M  V30 25594 H 2498.47 -2.66299 2.95246 0
M  V30 25595 N 2499.47 -1.45169 -0.613489 0
M  V30 25596 C 2500.71 -1.49098 -1.37469 0
M  V30 25597 C 2501.05 -0.129935 -1.93765 0
M  V30 25598 O 2500.32 0.854827 -1.74708 0
M  V30 25599 C 2500.6 -2.56547 -2.52697 0
M  V30 25600 C 2500.46 -4.02074 -2.01636 0
M  V30 25601 C 2501.78 -2.60333 -3.54844 0
M  V30 25602 H 2498.9 -0.542839 -0.498493 0
M  V30 25603 H 2501.54 -1.76946 -0.692094 0
M  V30 25604 H 2499.69 -2.32931 -3.10927 0
M  V30 25605 H 2501.36 -4.3688 -1.481 0
M  V30 25606 H 2499.6 -4.13011 -1.32681 0
M  V30 25607 H 2500.27 -4.72933 -2.84673 0
M  V30 25608 H 2502.75 -2.81479 -3.06445 0
M  V30 25609 H 2501.63 -3.37388 -4.32967 0
M  V30 25610 H 2501.89 -1.65198 -4.10076 0
M  V30 25611 N 2500.95 0.855472 -1.32361 0
M  V30 25612 C 2502.19 1.60446 -1.22229 0
M  V30 25613 C 2502.51 1.94418 0.214698 0
M  V30 25614 O 2503.71 2.67946 0.43787 0
M  V30 25615 C 2502.17 2.89315 -2.14068 0
M  V30 25616 C 2501.78 2.62771 -3.62844 0
M  V30 25617 C 2503.52 3.67327 -2.1277 0
M  V30 25618 C 2501.43 3.87635 -4.46647 0
M  V30 25619 H 2500.36 0.602061 -0.453915 0
M  V30 25620 H 2503.01 0.94467 -1.57316 0
M  V30 25621 H 2501.39 3.56747 -1.71895 0
M  V30 25622 H 2502.57 2.03655 -4.13354 0
M  V30 25623 H 2500.88 1.9809 -3.66264 0
M  V30 25624 H 2503.48 4.59982 -2.72619 0
M  V30 25625 H 2503.82 4.00993 -1.11848 0
M  V30 25626 H 2504.35 3.06798 -2.53219 0
M  V30 25627 H 2501.09 3.5911 -5.4838 0
M  V30 25628 H 2500.61 4.46149 -4.00888 0
M  V30 25629 H 2502.29 4.55381 -4.59605 0
M  V30 25630 N 2502.42 1.15558 1.07164 0
M  V30 25631 C 2503.35 0.877084 2.16401 0
M  V30 25632 C 2504.33 -0.173082 1.69217 0
M  V30 25633 O 2505.52 -0.0270498 1.94181 0
M  V30 25634 C 2502.65 0.367693 3.45348 0
M  V30 25635 C 2501.6 1.35475 4.05993 0
M  V30 25636 C 2500.93 0.704131 5.30043 0
M  V30 25637 C 2502.23 2.7214 4.45799 0
M  V30 25638 H 2503.92 1.79057 2.39956 0
M  V30 25639 H 2501.47 0.862351 1.15323 0
M  V30 25640 H 2503.42 0.160391 4.21095 0
M  V30 25641 H 2502.15 -0.58127 3.21386 0
M  V30 25642 H 2500.81 1.54845 3.32293 0
M  V30 25643 H 2500.45 -0.25104 5.02373 0
M  V30 25644 H 2500.15 1.36287 5.71576 0
M  V30 25645 H 2501.68 0.506647 6.08494 0
M  V30 25646 H 2503.09 2.56604 5.12667 0
M  V30 25647 H 2501.49 3.34406 4.9829 0
M  V30 25648 H 2502.56 3.2806 3.57078 0
M  V30 25649 N 2503.9 -1.25546 0.952678 0
M  V30 25650 C 2504.83 -2.28315 0.489327 0
M  V30 25651 C 2505.81 -1.63668 -0.46333 0
M  V30 25652 O 2507 -1.90783 -0.362707 0
M  V30 25653 C 2504.13 -3.465 -0.235542 0
M  V30 25654 C 2503.08 -4.23313 0.631668 0
M  V30 25655 C 2502.41 -5.34231 -0.223829 0
M  V30 25656 C 2503.71 -4.86171 1.9088 0
M  V30 25657 H 2505.4 -2.67324 1.34827 0
M  V30 25658 H 2502.95 -1.28508 0.64975 0
M  V30 25659 H 2504.9 -4.17516 -0.570809 0
M  V30 25660 H 2503.62 -3.06476 -1.12871 0
M  V30 25661 H 2502.28 -3.54077 0.949991 0
M  V30 25662 H 2501.93 -4.90448 -1.1167 0
M  V30 25663 H 2501.63 -5.86538 0.353094 0
M  V30 25664 H 2503.16 -6.08081 -0.554107 0
M  V30 25665 H 2504.57 -5.4934 1.64006 0
M  V30 25666 H 2502.97 -5.48645 2.43122 0
M  V30 25667 H 2504.04 -4.08466 2.61311 0
M  V30 25668 N 2505.38 -0.721022 -1.40139 0
M  V30 25669 C 2506.31 -0.0868031 -2.33339 0
M  V30 25670 C 2507.29 0.739596 -1.5318 0
M  V30 25671 O 2508.48 0.687417 -1.81627 0
M  V30 25672 C 2505.61 0.831668 -3.37195 0
M  V30 25673 C 2504.56 0.110483 -4.27857 0
M  V30 25674 C 2503.89 1.14503 -5.22296 0
M  V30 25675 C 2505.19 -1.03859 -5.1187 0
M  V30 25676 H 2506.88 -0.86527 -2.86624 0
M  V30 25677 H 2504.43 -0.41754 -1.37814 0
M  V30 25678 H 2506.38 1.28478 -4.01337 0
M  V30 25679 H 2505.1 1.64209 -2.82317 0
M  V30 25680 H 2503.76 -0.322861 -3.65176 0
M  V30 25681 H 2503.41 1.94865 -4.6372 0
M  V30 25682 H 2503.11 0.667344 -5.83798 0
M  V30 25683 H 2504.63 1.59814 -5.89315 0
M  V30 25684 H 2506.05 -0.664582 -5.69435 0
M  V30 25685 H 2504.44 -1.445 -5.82443 0
M  V30 25686 H 2505.51 -1.86676 -4.47527 0
M  V30 25687 N 2506.86 1.50503 -0.467606 0
M  V30 25688 C 2508.13 1.95024 0.149996 0
M  V30 25689 C 2508.51 1.40782 1.57301 0
M  V30 25690 O 2507.86 0.607358 2.2028 0
M  V30 25691 C 2508.07 3.48866 0.0968711 0
M  V30 25692 C 2509.42 4.23626 0.28749 0
M  V30 25693 O 2510.44 3.55777 0.173615 0
M  V30 25694 O 2509.3 5.44048 0.51709 0
M  V30 25695 H 2506.4 0.819165 0.113568 0
M  V30 25696 H 2508.94 1.61285 -0.527758 0
M  V30 25697 H 2507.72 3.80885 -0.896798 0
M  V30 25698 H 2507.34 3.89132 0.816234 0
M  V30 25699 N 2508.34 0.200077 1.56325 0
M  V30 25700 C 2509.58 -0.436513 1.9733 0
M  V30 25701 C 2509.9 -1.61806 1.08829 0
M  V30 25702 O 2509.17 -1.9524 0.160638 0
M  V30 25703 H 2507.75 -0.164259 0.728717 0
M  V30 25704 H 2510.42 0.287971 1.92761 0
M  V30 25705 H 2509.51 -0.777299 3.02266 0
M  V30 25706 N 2509.81 -1.57429 -0.0734901 0
M  V30 25707 C 2511.04 -1.91775 -0.789753 0
M  V30 25708 C 2511.46 -0.796336 -1.70412 0
M  V30 25709 O 2510.82 0.250929 -1.79555 0
M  V30 25710 C 2510.87 -3.25069 -1.56084 0
M  V30 25711 O 2509.97 -3.14183 -2.67138 0
M  V30 25712 H 2509.31 -0.628033 -0.215571 0
M  V30 25713 H 2511.84 -2.04556 -0.0422421 0
M  V30 25714 H 2511.85 -3.58902 -1.94045 0
M  V30 25715 H 2510.53 -4.06267 -0.889943 0
M  V30 25716 H 2509.11 -2.91905 -2.32047 0
M  V30 25717 N 2511.29 0.344839 -1.53781 0
M  V30 25718 C 2512.52 1.10974 -1.75213 0
M  V30 25719 C 2512.94 1.81622 -0.489392 0
M  V30 25720 O 2512.3 1.72503 0.557895 0
M  V30 25721 C 2512.35 2.09988 -2.93151 0
M  V30 25722 O 2511.45 3.17482 -2.63209 0
M  V30 25723 H 2510.79 0.321011 -0.581247 0
M  V30 25724 H 2513.32 0.395626 -2.00739 0
M  V30 25725 H 2513.33 2.53232 -3.19903 0
M  V30 25726 H 2512.01 1.57963 -3.84734 0
M  V30 25727 H 2510.58 2.79065 -2.4734 0
M  V30 25728 N 2512.77 1.45492 0.605781 0
M  V30 25729 C 2513.99 1.53363 1.39623 0
M  V30 25730 C 2514.42 0.167678 1.87351 0
M  V30 25731 O 2513.78 -0.848023 1.60244 0
M  V30 25732 C 2513.83 2.52385 2.57554 0
M  V30 25733 O 2512.93 2.04291 3.58244 0
M  V30 25734 H 2512.27 0.516919 0.416762 0
M  V30 25735 H 2514.8 1.90862 0.73707 0
M  V30 25736 H 2514.81 2.71249 3.04775 0
M  V30 25737 H 2513.49 3.5159 2.22165 0
M  V30 25738 H 2512.06 1.95311 3.1766 0
M  V30 25739 N 2514.25 -0.848441 1.32813 0
M  V30 25740 C 2515.5 -1.60306 1.23727 0
M  V30 25741 C 2515.82 -1.93476 -0.199366 0
M  V30 25742 O 2515.08 -1.58052 -1.15404 0
M  V30 25743 C 2515.38 -2.92877 2.04836 0
M  V30 25744 C 2515.04 -2.79111 3.5413 0
M  V30 25745 C 2513.71 -2.75063 3.94834 0
M  V30 25746 C 2516.06 -2.64598 4.49041 0
M  V30 25747 C 2513.39 -2.5439 5.2868 0
M  V30 25748 C 2515.74 -2.45459 5.83037 0
M  V30 25749 C 2514.4 -2.39808 6.22935 0
M  V30 25750 H 2513.67 -0.586601 0.452748 0
M  V30 25751 H 2516.32 -0.983714 1.64303 0
M  V30 25752 H 2514.62 -3.58965 1.57008 0
M  V30 25753 H 2516.32 -3.50299 1.9517 0
M  V30 25754 H 2512.91 -2.83088 3.21806 0
M  V30 25755 H 2517.09 -2.66765 4.18509 0
M  V30 25756 H 2512.35 -2.48455 5.58641 0
M  V30 25757 H 2516.52 -2.33211 6.5619 0
M  V30 25758 H 2514.15 -2.23549 7.26588 0
M  V30 25759 N 2515.73 -1.16125 -1.06549 0
M  V30 25760 C 2517.14 -0.94926 -1.60767 0
M  V30 25761 C 2517.49 0.507474 -1.89523 0
M  V30 25762 O 2516.61 1.38018 -1.66673 0
M  V30 25763 C 2517.21 -1.71676 -2.92083 0
M  V30 25764 C 2515.77 -1.54983 -3.43012 0
M  V30 25765 C 2514.91 -1.72715 -2.16944 0
M  V30 25766 H 2517.87 -1.31033 -0.895331 0
M  V30 25767 H 2517.89 -1.19105 -3.61378 0
M  V30 25768 H 2517.4 -2.77695 -2.71122 0
M  V30 25769 H 2515.5 -0.513938 -3.69039 0
M  V30 25770 H 2515.61 -2.33206 -4.18512 0
M  V30 25771 H 2513.98 -1.15435 -2.27039 0
M  V30 25772 H 2514.76 -2.80116 -1.98468 0
M  V30 25773 N 2517.2 1.25039 -0.959323 0
M  V30 25774 C 2518.17 2.23951 -0.487717 0
M  V30 25775 C 2519.17 1.55454 0.411162 0
M  V30 25776 O 2520.36 1.72956 0.207794 0
M  V30 25777 C 2517.49 3.39623 0.294748 0
M  V30 25778 H 2518.68 2.67187 -1.36203 0
M  V30 25779 H 2516.24 1.37507 -0.743066 0
M  V30 25780 H 2516.97 3.01815 1.18652 0
M  V30 25781 H 2516.76 3.90533 -0.350189 0
M  V30 25782 H 2518.25 4.13061 0.614017 0
M  V30 25783 N 2518.68 0.728444 1.39755 0
M  V30 25784 C 2519.91 0.282195 2.05471 0
M  V30 25785 C 2520.33 -1.07218 1.54551 0
M  V30 25786 O 2519.69 -1.67804 0.686401 0
M  V30 25787 C 2519.74 0.286327 3.59461 0
M  V30 25788 O 2518.84 -0.728227 4.05919 0
M  V30 25789 H 2518.18 0.129629 0.651224 0
M  V30 25790 H 2520.71 0.992531 1.78913 0
M  V30 25791 H 2520.72 0.128444 4.07798 0
M  V30 25792 H 2519.4 1.27463 3.95886 0
M  V30 25793 H 2517.98 -0.537017 3.69013 0
M  V30 25794 N 2520.16 -1.50253 0.475581 0
M  V30 25795 C 2521.39 -2.06463 -0.0753036 0
M  V30 25796 C 2521.8 -1.3391 -1.33659 0
M  V30 25797 O 2521.14 -0.403288 -1.79219 0
M  V30 25798 C 2521.2 -3.56981 -0.424858 0
M  V30 25799 C 2520.87 -4.5105 0.735045 0
M  V30 25800 C 2521.86 -4.9407 1.61836 0
M  V30 25801 C 2519.55 -4.93679 0.926644 0
M  V30 25802 C 2521.54 -5.7843 2.67764 0
M  V30 25803 C 2519.23 -5.7782 1.98914 0
M  V30 25804 C 2520.23 -6.20098 2.86301 0
M  V30 25805 O 2519.92 -7.02561 3.90721 0
M  V30 25806 H 2519.65 -0.675975 0.00577496 0
M  V30 25807 H 2522.2 -1.94347 0.664696 0
M  V30 25808 H 2520.43 -3.67014 -1.21811 0
M  V30 25809 H 2522.12 -3.95537 -0.911353 0
M  V30 25810 H 2522.89 -4.61801 1.48204 0
M  V30 25811 H 2518.77 -4.60289 0.255921 0
M  V30 25812 H 2522.31 -6.11349 3.36003 0
M  V30 25813 H 2518.21 -6.09502 2.12551 0
M  V30 25814 H 2518.98 -7.2082 3.87764 0
M  V30 25815 N 2521.64 -0.208365 -1.56217 0
M  V30 25816 C 2522.89 0.426885 -1.97949 0
M  V30 25817 C 2523.21 1.60704 -1.09565 0
M  V30 25818 O 2522.47 1.95215 -0.13765 0
M  V30 25819 C 2522.77 0.916736 -3.45443 0
M  V30 25820 C 2522.43 -0.151471 -4.50646 0
M  V30 25821 C 2521.1 -0.444951 -4.79138 0
M  V30 25822 C 2523.45 -0.874582 -5.1381 0
M  V30 25823 C 2520.78 -1.46629 -5.68082 0
M  V30 25824 C 2523.13 -1.88516 -6.03858 0
M  V30 25825 C 2521.79 -2.1857 -6.30701 0
M  V30 25826 H 2521.06 0.156208 -0.724348 0
M  V30 25827 H 2523.71 -0.308117 -1.89005 0
M  V30 25828 H 2522.01 1.73026 -3.51524 0
M  V30 25829 H 2523.71 1.41788 -3.75096 0
M  V30 25830 H 2520.3 0.0874314 -4.28511 0
M  V30 25831 H 2524.48 -0.661083 -4.91877 0
M  V30 25832 H 2519.74 -1.70491 -5.87148 0
M  V30 25833 H 2523.91 -2.45063 -6.51857 0
M  V30 25834 H 2521.54 -2.97855 -6.99419 0
M  V30 25835 N 2523.12 1.57465 0.0651402 0
M  V30 25836 C 2524.39 1.78652 0.796408 0
M  V30 25837 C 2524.77 0.7976 1.95452 0
M  V30 25838 O 2524.12 -0.167906 2.27882 0
M  V30 25839 C 2524.33 3.25339 1.26316 0
M  V30 25840 C 2525.68 3.89351 1.69384 0
M  V30 25841 O 2526.7 3.2927 1.35866 0
M  V30 25842 O 2525.56 4.95063 2.31462 0
M  V30 25843 H 2522.66 0.733413 0.382144 0
M  V30 25844 H 2525.2 1.69641 0.0447013 0
M  V30 25845 H 2523.97 3.88877 0.434791 0
M  V30 25846 H 2523.6 3.391 2.07598 0
M  V30 25847 N 2524.59 -0.336679 1.53962 0
M  V30 25848 C 2525.5 -1.43705 1.85435 0
M  V30 25849 C 2526.52 -1.5724 0.745081 0
M  V30 25850 O 2527.7 -1.72586 1.03807 0
M  V30 25851 C 2524.76 -2.78602 2.06354 0
M  V30 25852 C 2523.82 -2.74353 3.30196 0
M  V30 25853 C 2523.06 -4.02815 3.50108 0
M  V30 25854 O 2523.28 -5.00434 2.73719 0
M  V30 25855 O 2522.21 -4.0687 4.43554 0
M  V30 25856 H 2526.04 -1.20023 2.78977 0
M  V30 25857 H 2523.62 -0.529496 1.39702 0
M  V30 25858 H 2525.51 -3.58479 2.21519 0
M  V30 25859 H 2524.18 -3.02201 1.16 0
M  V30 25860 H 2523.09 -1.93072 3.20428 0
M  V30 25861 H 2524.42 -2.55707 4.20565 0
M  V30 25862 N 2526.07 -1.45812 -0.598057 0
M  V30 25863 C 2527.01 -1.49709 -1.72228 0
M  V30 25864 C 2527.98 -0.352563 -1.58732 0
M  V30 25865 O 2529.17 -0.55447 -1.80161 0
M  V30 25866 C 2526.29 -1.36115 -3.10146 0
M  V30 25867 C 2525.34 -2.54555 -3.42205 0
M  V30 25868 S 2526.17 -4.16985 -3.35982 0
M  V30 25869 C 2527.33 -4.05873 -4.76464 0
M  V30 25870 H 2527.56 -2.44828 -1.6866 0
M  V30 25871 H 2525.1 -1.33511 -0.775518 0
M  V30 25872 H 2527.05 -1.2896 -3.89717 0
M  V30 25873 H 2525.71 -0.424505 -3.11218 0
M  V30 25874 H 2524.91 -2.40995 -4.42648 0
M  V30 25875 H 2524.51 -2.58621 -2.70169 0
M  V30 25876 H 2526.8 -3.71606 -5.66494 0
M  V30 25877 H 2527.74 -5.06262 -4.9508 0
M  V30 25878 H 2528.15 -3.37372 -4.52593 0
M  V30 25879 N 2527.55 0.841385 -1.33261 0
M  V30 25880 C 2528.5 1.95101 -1.23305 0
M  V30 25881 C 2529.47 1.6572 -0.112233 0
M  V30 25882 O 2530.65 1.88582 -0.290072 0
M  V30 25883 C 2527.79 3.31022 -0.975641 0
M  V30 25884 C 2526.91 3.72815 -2.18249 0
M  V30 25885 C 2526.04 4.97592 -1.85945 0
M  V30 25886 C 2525.08 5.31914 -3.02876 0
M  V30 25887 N 2524.22 6.47868 -2.70576 0
M  V30 25888 H 2529.06 2.02948 -2.18211 0
M  V30 25889 H 2526.59 0.993154 -1.08512 0
M  V30 25890 H 2528.55 4.09324 -0.806842 0
M  V30 25891 H 2527.18 3.22738 -0.0633322 0
M  V30 25892 H 2526.23 2.90057 -2.46112 0
M  V30 25893 H 2527.55 3.94164 -3.05673 0
M  V30 25894 H 2526.7 5.83636 -1.65694 0
M  V30 25895 H 2525.44 4.78208 -0.957536 0
M  V30 25896 H 2524.44 4.44376 -3.23743 0
M  V30 25897 H 2525.67 5.53248 -3.93818 0
M  V30 25898 H 2523.61 6.29975 -1.82941 0
M  V30 25899 H 2523.53 6.693 -3.51531 0
M  V30 25900 H 2524.8 7.3703 -2.53787 0
M  V30 25901 N 2529.03 1.16688 1.05932 0
M  V30 25902 C 2530.25 0.975487 1.83027 0
M  V30 25903 C 2530.68 -0.47142 1.82097 0
M  V30 25904 O 2530.04 -1.33704 1.22446 0
M  V30 25905 C 2530.09 1.51201 3.27369 0
M  V30 25906 O 2529.19 0.720772 4.06053 0
M  V30 25907 H 2528.53 0.346882 0.566188 0
M  V30 25908 H 2531.06 1.55011 1.33539 0
M  V30 25909 H 2531.07 1.53106 3.78183 0
M  V30 25910 H 2529.75 2.56529 3.27362 0
M  V30 25911 H 2528.32 0.772522 3.6481 0
M  V30 25912 N 2530.51 -1.24529 0.96594 0
M  V30 25913 C 2531.75 -1.92553 0.626865 0
M  V30 25914 C 2532.08 -1.75535 -0.837708 0
M  V30 25915 O 2531.34 -1.10101 -1.61791 0
M  V30 25916 C 2531.64 -3.44667 0.945489 0
M  V30 25917 C 2531.3 -3.81852 2.39792 0
M  V30 25918 C 2529.96 -3.91713 2.7949 0
M  V30 25919 C 2532.32 -4.00065 3.34062 0
M  V30 25920 C 2529.64 -4.17203 4.12503 0
M  V30 25921 C 2532 -4.27051 4.66702 0
M  V30 25922 C 2530.66 -4.35131 5.06179 0
M  V30 25923 H 2529.93 -0.704601 0.229386 0
M  V30 25924 H 2532.58 -1.47848 1.2171 0
M  V30 25925 H 2530.88 -3.90848 0.272995 0
M  V30 25926 H 2532.58 -3.95505 0.661553 0
M  V30 25927 H 2529.17 -3.7474 2.0801 0
M  V30 25928 H 2533.35 -3.9185 3.04577 0
M  V30 25929 H 2528.61 -4.21677 4.42717 0
M  V30 25930 H 2532.78 -4.40088 5.39718 0
M  V30 25931 H 2530.41 -4.54636 6.0927 0
M  V30 25932 N 2531.99 -0.735845 -1.39367 0
M  V30 25933 C 2532.95 -0.104914 -2.2896 0
M  V30 25934 C 2533.95 0.666248 -1.46348 0
M  V30 25935 O 2535.14 0.49514 -1.67015 0
M  V30 25936 C 2532.27 0.860598 -3.29858 0
M  V30 25937 H 2533.46 -0.894255 -2.86257 0
M  V30 25938 H 2531.02 -0.50173 -1.48028 0
M  V30 25939 H 2531.75 1.67626 -2.77618 0
M  V30 25940 H 2531.54 0.310258 -3.90871 0
M  V30 25941 H 2533.03 1.2986 -3.96896 0
M  V30 25942 N 2533.46 1.49999 -0.483543 0
M  V30 25943 C 2534.41 2.28788 0.304124 0
M  V30 25944 C 2535.38 1.34394 0.97609 0
M  V30 25945 O 2536.57 1.63341 0.986128 0
M  V30 25946 C 2533.71 3.16615 1.37292 0
M  V30 25947 C 2532.82 4.26051 0.714486 0
M  V30 25948 C 2531.95 5.01117 1.76223 0
M  V30 25949 C 2530.99 6.02412 1.08472 0
M  V30 25950 N 2530.13 6.7071 2.07588 0
M  V30 25951 H 2534.97 2.95643 -0.374033 0
M  V30 25952 H 2532.51 1.45784 -0.1963 0
M  V30 25953 H 2534.46 3.65896 2.00439 0
M  V30 25954 H 2533.09 2.51779 2.02007 0
M  V30 25955 H 2532.15 3.80388 -0.0298467 0
M  V30 25956 H 2533.46 4.98474 0.180296 0
M  V30 25957 H 2532.61 5.5418 2.46919 0
M  V30 25958 H 2531.35 4.28428 2.33025 0
M  V30 25959 H 2530.36 5.48597 0.363448 0
M  V30 25960 H 2531.58 6.7708 0.523432 0
M  V30 25961 H 2529.53 6.00804 2.63384 0
M  V30 25962 H 2529.44 7.3905 1.59188 0
M  V30 25963 H 2530.71 7.28385 2.77626 0
M  V30 25964 N 2534.94 0.216646 1.56104 0
M  V30 25965 C 2535.9 -0.681923 2.18821 0
M  V30 25966 C 2536.9 -1.12526 1.14868 0
M  V30 25967 O 2538.09 -1.03485 1.4013 0
M  V30 25968 C 2535.23 -1.93357 2.80759 0
M  V30 25969 H 2536.42 -0.135201 2.99595 0
M  V30 25970 H 2533.97 -0.0329729 1.56265 0
M  V30 25971 H 2534.71 -2.52228 2.03842 0
M  V30 25972 H 2534.49 -1.6242 3.56878 0
M  V30 25973 H 2535.98 -2.57387 3.28849 0
M  V30 25974 N 2536.42 -1.57498 -0.0567885 0
M  V30 25975 C 2537.67 -1.87976 -0.753071 0
M  V30 25976 C 2537.99 -0.810381 -1.76814 0
M  V30 25977 O 2537.25 0.191956 -1.94756 0
M  V30 25978 C 2537.55 -3.25156 -1.48353 0
M  V30 25979 C 2537.21 -4.46795 -0.607051 0
M  V30 25980 C 2535.88 -4.79809 -0.365557 0
M  V30 25981 C 2538.23 -5.212 -0.000214364 0
M  V30 25982 C 2535.56 -5.84633 0.492008 0
M  V30 25983 C 2537.91 -6.26932 0.844892 0
M  V30 25984 C 2536.57 -6.58439 1.09611 0
M  V30 25985 H 2535.84 -0.687854 -0.275568 0
M  V30 25986 H 2538.49 -1.91495 -0.0134837 0
M  V30 25987 H 2536.79 -3.17497 -2.29572 0
M  V30 25988 H 2538.49 -3.45977 -2.02733 0
M  V30 25989 H 2535.08 -4.20964 -0.805413 0
M  V30 25990 H 2539.27 -4.95995 -0.173874 0
M  V30 25991 H 2534.52 -6.07434 0.695237 0
M  V30 25992 H 2538.7 -6.83741 1.32177 0
M  V30 25993 H 2536.32 -7.39489 1.76237 0
M  V30 25994 N 2537.9 0.328509 -1.54138 0
M  V30 25995 C 2539.15 1.06453 -1.7132 0
M  V30 25996 C 2539.46 1.89333 -0.491142 0
M  V30 25997 O 2540.67 2.6599 -0.544207 0
M  V30 25998 C 2539.12 1.94209 -3.03003 0
M  V30 25999 C 2538.73 1.16464 -4.32597 0
M  V30 26000 C 2540.47 2.67577 -3.29549 0
M  V30 26001 C 2538.38 2.03337 -5.55345 0
M  V30 26002 H 2537.31 0.401143 -0.638436 0
M  V30 26003 H 2539.96 0.323074 -1.80634 0
M  V30 26004 H 2538.34 2.72234 -2.87584 0
M  V30 26005 H 2539.52 0.432445 -4.58766 0
M  V30 26006 H 2537.83 0.54799 -4.12778 0
M  V30 26007 H 2540.43 3.32872 -4.1845 0
M  V30 26008 H 2540.77 3.34951 -2.47212 0
M  V30 26009 H 2541.31 1.96617 -3.45813 0
M  V30 26010 H 2538.04 1.4048 -6.4027 0
M  V30 26011 H 2537.56 2.74303 -5.33402 0
M  V30 26012 H 2539.24 2.62039 -5.91561 0
M  V30 26013 N 2539.38 1.46127 0.590316 0
M  V30 26014 C 2540.6 1.54835 1.37988 0
M  V30 26015 C 2541.03 0.187539 1.87163 0
M  V30 26016 O 2540.38 -0.830979 1.61135 0
M  V30 26017 C 2540.43 2.55102 2.54863 0
M  V30 26018 O 2539.54 2.08079 3.56057 0
M  V30 26019 H 2538.88 0.521311 0.411256 0
M  V30 26020 H 2541.41 1.91633 0.716785 0
M  V30 26021 H 2541.42 2.74466 3.01881 0
M  V30 26022 H 2540.09 3.53927 2.18423 0
M  V30 26023 H 2538.67 1.98669 3.15571 0
M  V30 26024 N 2540.85 -0.834306 1.33705 0
M  V30 26025 C 2541.8 -1.94445 1.24338 0
M  V30 26026 C 2542.77 -1.65659 0.12102 0
M  V30 26027 O 2543.96 -1.88426 0.300068 0
M  V30 26028 C 2541.1 -3.30499 0.993182 0
M  V30 26029 C 2540.21 -3.71653 2.20223 0
M  V30 26030 C 2539.34 -4.96599 1.88581 0
M  V30 26031 C 2538.38 -5.303 3.05692 0
M  V30 26032 N 2537.52 -6.46424 2.74008 0
M  V30 26033 H 2542.36 -2.01788 2.19284 0
M  V30 26034 H 2539.9 -0.987385 1.09037 0
M  V30 26035 H 2541.85 -4.0889 0.828538 0
M  V30 26036 H 2540.48 -3.227 0.0804469 0
M  V30 26037 H 2539.54 -2.88747 2.47647 0
M  V30 26038 H 2540.85 -3.92537 3.07759 0
M  V30 26039 H 2540 -5.82749 1.68787 0
M  V30 26040 H 2538.74 -4.77693 0.982883 0
M  V30 26041 H 2537.75 -4.42653 3.26095 0
M  V30 26042 H 2538.97 -5.51152 3.96747 0
M  V30 26043 H 2536.92 -6.28996 1.86279 0
M  V30 26044 H 2536.83 -6.67426 3.55075 0
M  V30 26045 H 2538.1 -7.35673 2.57692 0
M  V30 26046 N 2542.33 -1.17248 -1.05312 0
M  V30 26047 C 2543.29 -0.890394 -2.11198 0
M  V30 26048 C 2544.29 0.118915 -1.6036 0
M  V30 26049 O 2545.48 -0.113116 -1.73832 0
M  V30 26050 C 2542.62 -0.333481 -3.39265 0
M  V30 26051 H 2543.81 -1.8292 -2.37656 0
M  V30 26052 H 2541.36 -0.98278 -1.21537 0
M  V30 26053 H 2542.1 0.612531 -3.18463 0
M  V30 26054 H 2541.88 -1.06089 -3.77475 0
M  V30 26055 H 2543.37 -0.154395 -4.17314 0
M  V30 26056 N 2543.81 1.24015 -0.972531 0
M  V30 26057 C 2544.76 2.27193 -0.498602 0
M  V30 26058 C 2545.75 1.63577 0.440343 0
M  V30 26059 O 2546.96 1.77221 0.315102 0
M  V30 26060 H 2543.33 0.73832 -0.142787 0
M  V30 26061 H 2545.3 2.64536 -1.38069 0
M  V30 26062 C 2544.05 3.47175 0.191011 0
M  V30 26063 H 2543.38 3.96372 -0.522387 0
M  V30 26064 H 2544.82 4.21201 0.486371 0
M  V30 26065 C 2543.28 3.0553 1.41962 0
M  V30 26066 O 2543.81 3.13117 2.51636 0
M  V30 26067 N 2542.01 2.60526 1.28741 0
M  V30 26068 H 2541.56 2.54553 0.395044 0
M  V30 26069 H 2541.52 2.33028 2.11057 0
M  V30 26070 N 2545.29 0.743226 1.38974 0
M  V30 26071 C 2546.54 0.291627 1.99581 0
M  V30 26072 C 2546.85 -1.12998 1.59658 0
M  V30 26073 O 2548.06 -1.68152 2.1316 0
M  V30 26074 C 2546.51 0.470454 3.56812 0
M  V30 26075 C 2546.12 1.90048 4.05692 0
M  V30 26076 C 2547.86 0.0810455 4.24423 0
M  V30 26077 C 2545.77 2.02842 5.55526 0
M  V30 26078 H 2544.7 0.105285 0.746613 0
M  V30 26079 H 2547.35 0.918286 1.5887 0
M  V30 26080 H 2545.73 -0.225229 3.95359 0
M  V30 26081 H 2546.91 2.62878 3.7846 0
M  V30 26082 H 2545.22 2.24385 3.50771 0
M  V30 26083 H 2547.82 0.155539 5.34474 0
M  V30 26084 H 2548.16 -0.964899 4.04963 0
M  V30 26085 H 2548.7 0.728193 3.91078 0
M  V30 26086 H 2545.44 3.05654 5.79876 0
M  V30 26087 H 2544.96 1.34458 5.84535 0
M  V30 26088 H 2546.63 1.81346 6.21066 0
M  V30 26089 N 2546.77 -1.4974 0.491491 0
M  V30 26090 C 2548.01 -2.02022 -0.0562786 0
M  V30 26091 C 2548.34 -1.37409 -1.38361 0
M  V30 26092 O 2547.61 -0.5262 -1.88701 0
M  V30 26093 H 2546.19 -0.746621 -0.0237883 0
M  V30 26094 H 2548.85 -1.83863 0.646565 0
M  V30 26095 H 2547.94 -3.11503 -0.192912 0
M  V30 26096 N 2548.24 -0.224922 -1.55987 0
M  V30 26097 C 2549.66 0.282313 -1.84553 0
M  V30 26098 C 2550.01 1.59225 -1.14637 0
M  V30 26099 O 2549.13 2.1234 -0.417192 0
M  V30 26100 C 2549.73 0.519003 -3.34801 0
M  V30 26101 C 2548.29 0.97054 -3.63672 0
M  V30 26102 C 2547.43 0.0354773 -2.77277 0
M  V30 26103 H 2550.38 -0.448033 -1.52244 0
M  V30 26104 H 2550.4 1.36457 -3.5519 0
M  V30 26105 H 2549.92 -0.434558 -3.85659 0
M  V30 26106 H 2548.02 1.93734 -3.18273 0
M  V30 26107 H 2548.13 0.842615 -4.71632 0
M  V30 26108 H 2546.49 0.542884 -2.48847 0
M  V30 26109 H 2547.28 -0.913061 -3.30935 0
M  V30 26110 N 2549.72 1.57526 0.0484352 0
M  V30 26111 C 2551.14 1.54409 0.403723 0
M  V30 26112 C 2551.34 0.948415 1.77785 0
M  V30 26113 O 2550.39 0.561026 2.46188 0
M  V30 26114 C 2551.71 2.98957 0.323341 0
M  V30 26115 C 2553.26 3.1041 0.401837 0
M  V30 26116 C 2553.73 4.56652 0.351115 0
M  V30 26117 N 2555.22 4.61377 0.410495 0
M  V30 26118 C 2555.96 5.72046 0.393833 0
M  V30 26119 N 2555.45 6.92011 0.330602 0
M  V30 26120 N 2557.25 5.60358 0.442128 0
M  V30 26121 H 2549.4 1.94604 -0.851051 0
M  V30 26122 H 2551.66 0.891734 -0.321736 0
M  V30 26123 H 2551.37 3.46189 -0.620171 0
M  V30 26124 H 2551.24 3.60046 1.12456 0
M  V30 26125 H 2553.63 2.63137 1.33578 0
M  V30 26126 H 2553.71 2.52187 -0.428386 0
M  V30 26127 H 2553.35 5.04588 -0.579075 0
M  V30 26128 H 2553.28 5.12764 1.19919 0
M  V30 26129 H 2555.77 3.75057 0.462663 0
M  V30 26130 H 2556.09 7.72127 0.322457 0
M  V30 26131 H 2554.43 6.94365 0.296938 0
M  V30 26132 H 2557.62 4.65535 0.489382 0
M  V30 26133 H 2557.79 6.466 0.425675 0
M  V30 26134 N 2551.2 -0.32033 1.5431 0
M  V30 26135 C 2552.13 -1.39947 1.86915 0
M  V30 26136 C 2553.11 -1.53817 0.726238 0
M  V30 26137 O 2554.3 -1.67644 0.980262 0
M  V30 26138 C 2551.43 -2.76666 2.09936 0
M  V30 26139 C 2550.38 -2.77581 3.25781 0
M  V30 26140 C 2549.71 -4.17406 3.34181 0
M  V30 26141 C 2551.01 -2.4104 4.63354 0
M  V30 26142 H 2552.7 -1.12909 2.77294 0
M  V30 26143 H 2550.25 -0.541715 1.33422 0
M  V30 26144 H 2552.2 -3.52228 2.3133 0
M  V30 26145 H 2550.92 -3.05188 1.1631 0
M  V30 26146 H 2549.58 -2.04474 3.04279 0
M  V30 26147 H 2549.23 -4.43074 2.38106 0
M  V30 26148 H 2548.93 -4.18923 4.1204 0
M  V30 26149 H 2550.45 -4.94776 3.57812 0
M  V30 26150 H 2551.87 -3.06315 4.84607 0
M  V30 26151 H 2550.27 -2.53803 5.43787 0
M  V30 26152 H 2551.34 -1.36185 4.65383 0
M  V30 26153 N 2552.68 -1.46438 -0.582558 0
M  V30 26154 C 2553.91 -1.55327 -1.36679 0
M  V30 26155 C 2554.32 -0.194442 -1.87796 0
M  V30 26156 O 2553.68 0.80829 -1.63624 0
M  V30 26157 C 2553.73 -2.55817 -2.55421 0
M  V30 26158 O 2553.45 -3.86421 -2.06423 0
M  V30 26159 C 2554.95 -2.74647 -3.47971 0
M  V30 26160 H 2552.17 -0.525266 -0.417536 0
M  V30 26161 H 2554.72 -1.91846 -0.708185 0
M  V30 26162 H 2552.87 -2.22301 -3.17272 0
M  V30 26163 H 2553.28 -4.41116 -2.83754 0
M  V30 26164 H 2554.76 -3.48881 -4.27769 0
M  V30 26165 H 2555.24 -1.8156 -3.99916 0
M  V30 26166 H 2555.84 -3.0926 -2.91956 0
M  V30 26167 N 2554.16 0.827204 -1.34146 0
M  V30 26168 C 2555.09 1.94528 -1.21209 0
M  V30 26169 C 2556.1 1.62195 -0.140204 0
M  V30 26170 O 2557.29 1.7415 -0.391678 0
M  V30 26171 C 2554.39 3.28345 -0.839199 0
M  V30 26172 C 2553.56 3.88731 -2.00517 0
M  V30 26173 C 2552.62 5.00921 -1.61137 0
M  V30 26174 O 2551.65 5.19445 -2.32735 0
M  V30 26175 N 2552.85 5.78139 -0.52306 0
M  V30 26176 H 2555.62 2.06159 -2.17529 0
M  V30 26177 H 2553.18 1.00356 -1.27044 0
M  V30 26178 H 2555.17 4.0084 -0.557627 0
M  V30 26179 H 2553.74 3.12582 0.0336744 0
M  V30 26180 H 2552.96 3.08682 -2.45172 0
M  V30 26181 H 2554.25 4.25807 -2.78506 0
M  V30 26182 H 2553.64 5.65654 0.0722524 0
M  V30 26183 H 2552.2 6.51104 -0.301203 0
M  V30 26184 N 2555.63 1.17805 1.04688 0
M  V30 26185 C 2556.88 0.971 1.78043 0
M  V30 26186 C 2557.21 -0.498718 1.87687 0
M  V30 26187 O 2556.49 -1.37025 1.38038 0
M  V30 26188 C 2556.77 1.6189 3.21658 0
M  V30 26189 C 2556.62 3.16106 3.19995 0
M  V30 26190 C 2557.94 1.32698 4.19618 0
M  V30 26191 H 2555.06 0.354167 0.646324 0
M  V30 26192 H 2557.7 1.4538 1.22331 0
M  V30 26193 H 2555.85 1.20838 3.6923 0
M  V30 26194 H 2557.53 3.66251 2.80461 0
M  V30 26195 H 2555.77 3.48592 2.58197 0
M  V30 26196 H 2556.44 3.56571 4.2138 0
M  V30 26197 H 2558.92 1.68256 3.80564 0
M  V30 26198 H 2557.79 1.80608 5.18336 0
M  V30 26199 H 2558.05 0.248699 4.414 0
M  V30 26200 N 2557.11 -1.23497 0.979094 0
M  V30 26201 C 2558.34 -1.96454 0.66488 0
M  V30 26202 C 2558.76 -1.72007 -0.761256 0
M  V30 26203 O 2558.12 -0.99074 -1.51836 0
M  V30 26204 C 2558.17 -3.47599 0.95954 0
M  V30 26205 O 2557.27 -4.12369 0.0508893 0
M  V30 26206 H 2556.61 -0.615059 0.250196 0
M  V30 26207 H 2559.14 -1.56968 1.31233 0
M  V30 26208 H 2559.15 -3.98046 0.895712 0
M  V30 26209 H 2557.83 -3.64719 1.99882 0
M  V30 26210 H 2556.41 -3.72517 0.169015 0
M  V30 26211 N 2558.59 -0.750586 -1.38578 0
M  V30 26212 C 2559.84 -0.30586 -2.0048 0
M  V30 26213 C 2560.17 1.10869 -1.59442 0
M  V30 26214 O 2559.45 1.75875 -0.830551 0
M  V30 26215 C 2559.73 -0.42535 -3.57579 0
M  V30 26216 C 2559.58 -1.88079 -4.08591 0
M  V30 26217 C 2560.9 0.183045 -4.39719 0
M  V30 26218 H 2558.02 -0.11261 -0.728346 0
M  V30 26219 H 2560.66 -0.949667 -1.64564 0
M  V30 26220 H 2558.81 0.122759 -3.88306 0
M  V30 26221 H 2560.48 -2.48698 -3.88519 0
M  V30 26222 H 2558.73 -2.39687 -3.61569 0
M  V30 26223 H 2559.4 -1.91557 -5.17697 0
M  V30 26224 H 2561.87 -0.284376 -4.15127 0
M  V30 26225 H 2560.75 0.0691792 -5.48856 0
M  V30 26226 H 2561.01 1.27099 -4.23436 0
M  V30 26227 N 2560.07 1.49477 -0.499425 0
M  V30 26228 C 2561 2.31943 0.269203 0
M  V30 26229 C 2561.98 1.40144 0.96403 0
M  V30 26230 O 2563.17 1.69054 0.955737 0
M  V30 26231 C 2560.3 3.20617 1.33499 0
M  V30 26232 C 2559.25 4.21196 0.760128 0
M  V30 26233 C 2558.58 4.98796 1.92631 0
M  V30 26234 C 2559.88 5.21712 -0.247753 0
M  V30 26235 H 2561.57 2.96452 -0.419134 0
M  V30 26236 H 2559.12 1.42562 -0.203013 0
M  V30 26237 H 2561.07 3.77119 1.88041 0
M  V30 26238 H 2559.79 2.54048 2.05249 0
M  V30 26239 H 2558.45 3.65837 0.236466 0
M  V30 26240 H 2558.1 4.28676 2.63146 0
M  V30 26241 H 2557.8 5.6685 1.54775 0
M  V30 26242 H 2559.32 5.58141 2.4761 0
M  V30 26243 H 2560.74 5.72917 0.209479 0
M  V30 26244 H 2559.13 5.97647 -0.542067 0
M  V30 26245 H 2560.2 4.70718 -1.16417 0
M  V30 26246 N 2561.55 0.233191 1.55865 0
M  V30 26247 C 2562.48 -0.704629 2.181 0
M  V30 26248 C 2563.49 -1.14897 1.15336 0
M  V30 26249 O 2564.68 -1.07811 1.42264 0
M  V30 26250 C 2561.78 -1.96772 2.75924 0
M  V30 26251 C 2560.95 -1.67706 4.03972 0
M  V30 26252 C 2560.01 -2.78837 4.46247 0
M  V30 26253 O 2559.04 -2.46809 5.12908 0
M  V30 26254 N 2560.24 -4.08044 4.12893 0
M  V30 26255 H 2563.01 -0.172205 2.99205 0
M  V30 26256 H 2560.57 0.0526229 1.61814 0
M  V30 26257 H 2562.56 -2.70331 3.01169 0
M  V30 26258 H 2561.13 -2.41031 1.99055 0
M  V30 26259 H 2560.35 -0.777323 3.8646 0
M  V30 26260 H 2561.64 -1.45732 4.87483 0
M  V30 26261 H 2561.04 -4.36903 3.59349 0
M  V30 26262 H 2559.59 -4.7811 4.43005 0
M  V30 26263 N 2563.03 -1.57549 -0.0400806 0
M  V30 26264 C 2564.26 -1.92736 -0.744081 0
M  V30 26265 C 2564.66 -0.830378 -1.70004 0
M  V30 26266 O 2564.01 0.202828 -1.82577 0
M  V30 26267 C 2564.07 -3.23643 -1.56511 0
M  V30 26268 C 2563.73 -4.50379 -0.775121 0
M  V30 26269 C 2564.73 -5.19838 -0.0802413 0
M  V30 26270 C 2562.41 -4.96924 -0.732915 0
M  V30 26271 C 2564.41 -6.34115 0.646265 0
M  V30 26272 C 2562.1 -6.111 -0.0026558 0
M  V30 26273 C 2563.09 -6.79549 0.685705 0
M  V30 26274 O 2562.78 -7.91542 1.40413 0
M  V30 26275 H 2562.51 -0.640949 -0.21485 0
M  V30 26276 H 2565.07 -2.05399 -0.00500065 0
M  V30 26277 H 2563.3 -3.07275 -2.34774 0
M  V30 26278 H 2564.99 -3.44238 -2.1507 0
M  V30 26279 H 2565.75 -4.84889 -0.10395 0
M  V30 26280 H 2561.63 -4.43498 -1.2582 0
M  V30 26281 H 2565.18 -6.87477 1.1841 0
M  V30 26282 H 2561.07 -6.45496 0.0230147 0
M  V30 26283 H 2561.84 -8.0784 1.31667 0
M  V30 26284 N 2564.5 0.312142 -1.54478 0
M  V30 26285 C 2565.75 1.04665 -1.72886 0
M  V30 26286 C 2566.07 1.88172 -0.51151 0
M  V30 26287 O 2565.34 1.9007 0.474373 0
M  V30 26288 H 2563.92 0.389414 -0.637468 0
M  V30 26289 H 2566.58 0.345818 -1.91807 0
M  V30 26290 H 2565.68 1.70615 -2.61337 0
M  V30 26291 N 2565.98 1.46745 0.574784 0
M  V30 26292 C 2567.21 1.5629 1.36338 0
M  V30 26293 C 2567.63 0.20738 1.86953 0
M  V30 26294 O 2566.99 -0.813842 1.62007 0
M  V30 26295 C 2567.04 2.57791 2.52143 0
M  V30 26296 O 2566.14 2.11844 3.5383 0
M  V30 26297 H 2565.48 0.525643 0.405703 0
M  V30 26298 H 2568.01 1.92383 0.696419 0
M  V30 26299 H 2568.02 2.77653 2.98953 0
M  V30 26300 H 2566.7 3.56224 2.14657 0
M  V30 26301 H 2565.27 2.02005 3.13446 0
M  V30 26302 N 2567.46 -0.820078 1.34583 0
M  V30 26303 C 2568.71 -1.57149 1.2644 0
M  V30 26304 C 2569.02 -1.94919 -0.163076 0
M  V30 26305 O 2570.23 -2.69013 -0.366675 0
M  V30 26306 C 2568.68 -2.83537 2.21663 0
M  V30 26307 C 2568.29 -2.53058 3.69683 0
M  V30 26308 C 2570.04 -3.61557 2.22434 0
M  V30 26309 C 2567.94 -3.75656 4.56767 0
M  V30 26310 H 2566.87 -0.589815 0.469718 0
M  V30 26311 H 2569.52 -0.902628 1.59765 0
M  V30 26312 H 2567.91 -3.52064 1.81293 0
M  V30 26313 H 2569.08 -1.92624 4.18608 0
M  V30 26314 H 2567.39 -1.88309 3.71387 0
M  V30 26315 H 2569.99 -4.52592 2.84718 0
M  V30 26316 H 2570.33 -3.97887 1.22441 0
M  V30 26317 H 2570.87 -2.99977 2.61264 0
M  V30 26318 H 2567.61 -3.44445 5.57708 0
M  V30 26319 H 2567.13 -4.35363 4.12576 0
M  V30 26320 H 2568.81 -4.43036 4.71517 0
M  V30 26321 N 2568.94 -1.18359 -1.04062 0
M  V30 26322 C 2570.17 -1.00387 -1.80915 0
M  V30 26323 C 2570.58 0.447706 -1.83415 0
M  V30 26324 O 2569.94 1.31097 -1.26964 0
M  V30 26325 C 2569.99 -1.55149 -3.26513 0
M  V30 26326 O 2569.71 -2.94624 -3.24235 0
M  V30 26327 C 2571.21 -1.41796 -4.2001 0
M  V30 26328 H 2568.43 -0.354484 -0.569721 0
M  V30 26329 H 2570.97 -1.56909 -1.31149 0
M  V30 26330 H 2569.13 -1.02804 -3.7351 0
M  V30 26331 H 2569.54 -3.20164 -4.15446 0
M  V30 26332 H 2571.02 -1.84911 -5.20108 0
M  V30 26333 H 2571.49 -0.366687 -4.37667 0
M  V30 26334 H 2572.1 -1.93214 -3.78878 0
M  V30 26335 N 2570.42 1.22976 -0.98563 0
M  V30 26336 C 2571.64 1.95558 -0.675617 0
M  V30 26337 C 2572.06 1.72899 0.758382 0
M  V30 26338 O 2571.42 1.02359 1.51092 0
M  V30 26339 C 2571.47 3.48438 -0.962992 0
M  V30 26340 O 2571.19 3.70332 -2.34063 0
M  V30 26341 C 2572.69 4.38213 -0.669662 0
M  V30 26342 H 2569.91 0.622474 -0.250534 0
M  V30 26343 H 2572.45 1.56325 -1.31843 0
M  V30 26344 H 2570.61 3.85666 -0.366101 0
M  V30 26345 H 2571.02 4.64587 -2.43432 0
M  V30 26346 H 2572.5 5.44261 -0.921063 0
M  V30 26347 H 2572.97 4.37408 0.396307 0
M  V30 26348 H 2573.58 4.066 -1.24727 0
M  V30 26349 N 2571.89 0.757924 1.38178 0
M  V30 26350 C 2573.14 0.312779 1.9926 0
M  V30 26351 C 2573.46 -1.11298 1.60848 0
M  V30 26352 O 2574.66 -1.65882 2.14932 0
M  V30 26353 C 2573.12 0.508272 3.56293 0
M  V30 26354 C 2572.73 1.9434 4.03653 0
M  V30 26355 C 2574.47 0.126057 4.24313 0
M  V30 26356 C 2572.38 2.08722 5.53343 0
M  V30 26357 H 2571.31 0.113198 0.745454 0
M  V30 26358 H 2573.96 0.935084 1.57887 0
M  V30 26359 H 2572.34 -0.183284 3.95576 0
M  V30 26360 H 2573.51 2.66878 3.7565 0
M  V30 26361 H 2571.83 2.28093 3.48372 0
M  V30 26362 H 2574.43 0.212219 5.34279 0
M  V30 26363 H 2574.77 -0.921893 4.05964 0
M  V30 26364 H 2575.3 0.769631 3.90284 0
M  V30 26365 H 2572.04 3.11787 5.76601 0
M  V30 26366 H 2571.56 1.4065 5.83076 0
M  V30 26367 H 2573.24 1.87923 6.19107 0
M  V30 26368 N 2573.37 -1.4921 0.507345 0
M  V30 26369 C 2574.65 -1.95353 -0.0982359 0
M  V30 26370 C 2575.03 -1.44903 -1.53513 0
M  V30 26371 O 2574.38 -0.665548 -2.18593 0
M  V30 26372 C 2574.59 -3.49 -0.00434148 0
M  V30 26373 C 2575.94 -4.24239 -0.175072 0
M  V30 26374 O 2576.96 -3.56112 -0.0792265 0
M  V30 26375 O 2575.82 -5.45228 -0.372664 0
M  V30 26376 H 2572.91 -0.821888 -0.0918091 0
M  V30 26377 H 2575.46 -1.59829 0.570335 0
M  V30 26378 H 2574.23 -3.78373 0.997468 0
M  V30 26379 H 2573.85 -3.91159 -0.712776 0
M  V30 26380 N 2574.85 -0.241454 -1.55739 0
M  V30 26381 C 2576.1 0.385371 -1.99105 0
M  V30 26382 C 2576.43 1.57986 -1.12933 0
M  V30 26383 O 2575.7 1.93555 -0.191483 0
M  V30 26384 C 2575.99 0.800554 -3.51089 0
M  V30 26385 C 2575.84 -0.398953 -4.48027 0
M  V30 26386 C 2577.16 1.64952 -4.08018 0
M  V30 26387 H 2574.28 0.138601 -0.72385 0
M  V30 26388 H 2576.92 -0.341675 -1.86903 0
M  V30 26389 H 2575.07 1.42003 -3.61618 0
M  V30 26390 H 2576.74 -1.03734 -4.49485 0
M  V30 26391 H 2574.99 -1.043 -4.21075 0
M  V30 26392 H 2575.66 -0.0652026 -5.51961 0
M  V30 26393 H 2578.13 1.12665 -4.00557 0
M  V30 26394 H 2577.01 1.90889 -5.14638 0
M  V30 26395 H 2577.27 2.61955 -3.56135 0
M  V30 26396 N 2576.33 1.57568 0.0317248 0
M  V30 26397 C 2577.74 1.77506 0.57866 0
M  V30 26398 C 2578.09 0.872195 1.75748 0
M  V30 26399 O 2577.22 0.0663487 2.16298 0
M  V30 26400 C 2577.81 3.21905 1.05652 0
M  V30 26401 C 2576.37 3.4305 1.549 0
M  V30 26402 C 2575.52 2.7301 0.485891 0
M  V30 26403 H 2578.47 1.57504 -0.194502 0
M  V30 26404 H 2578.49 3.28273 1.92399 0
M  V30 26405 H 2578 3.87593 0.198354 0
M  V30 26406 H 2576.1 2.82534 2.4291 0
M  V30 26407 H 2576.21 4.51653 1.59833 0
M  V30 26408 H 2574.58 2.36707 0.940313 0
M  V30 26409 H 2575.36 3.41378 -0.362769 0
M  V30 26410 N 2577.81 -0.303946 1.54641 0
M  V30 26411 C 2579.05 -1.03715 1.74971 0
M  V30 26412 C 2579.41 -1.85028 0.527493 0
M  V30 26413 O 2578.7 -1.85487 -0.48011 0
M  V30 26414 C 2578.89 -1.97676 2.97756 0
M  V30 26415 C 2578.72 -1.25606 4.31802 0
M  V30 26416 C 2577.49 -0.984431 4.95618 0
M  V30 26417 C 2579.69 -0.661991 5.10022 0
M  V30 26418 N 2577.67 -0.233686 6.13455 0
M  V30 26419 C 2579.04 -0.0438646 6.19984 0
M  V30 26420 C 2581.1 -0.566748 4.94664 0
M  V30 26421 C 2579.8 0.660286 7.16263 0
M  V30 26422 C 2581.83 0.123741 5.91271 0
M  V30 26423 C 2581.19 0.730731 7.006 0
M  V30 26424 H 2577.29 -0.36255 0.692879 0
M  V30 26425 H 2579.87 -0.316102 1.92117 0
M  V30 26426 H 2578.04 -2.67035 2.82041 0
M  V30 26427 H 2579.78 -2.64127 3.06625 0
M  V30 26428 H 2576.53 -1.28183 4.55923 0
M  V30 26429 H 2576.96 0.128115 6.76879 0
M  V30 26430 H 2581.6 -1.02173 4.10269 0
M  V30 26431 H 2579.32 1.12705 8.00202 0
M  V30 26432 H 2582.9 0.197338 5.81465 0
M  V30 26433 H 2581.78 1.25653 7.74068 0
M  V30 26434 N 2579.28 -1.47047 -0.566994 0
M  V30 26435 C 2580.23 -1.59191 -1.69591 0
M  V30 26436 C 2581.23 -0.459638 -1.63045 0
M  V30 26437 O 2582.43 -0.637087 -1.68348 0
M  V30 26438 H 2578.81 -0.500801 -0.560984 0
M  V30 26439 H 2580.78 -2.54078 -1.56483 0
M  V30 26440 C 2579.53 -1.61417 -3.07961 0
M  V30 26441 H 2578.85 -2.47887 -3.13675 0
M  V30 26442 H 2580.29 -1.73965 -3.86668 0
M  V30 26443 C 2578.75 -0.345649 -3.35122 0
M  V30 26444 O 2579.28 0.557451 -3.97813 0
M  V30 26445 N 2577.49 -0.228691 -2.89699 0
M  V30 26446 H 2577.03 -0.964521 -2.38861 0
M  V30 26447 H 2576.99 0.619138 -3.08243 0
M  V30 26448 N 2580.76 0.812929 -1.35016 0
M  V30 26449 C 2582.01 1.57202 -1.28123 0
M  V30 26450 C 2582.34 1.93652 0.145835 0
M  V30 26451 O 2581.62 1.60838 1.09368 0
M  V30 26452 C 2581.9 2.86488 -2.18167 0
M  V30 26453 C 2581.75 2.56555 -3.69459 0
M  V30 26454 C 2583.07 3.88142 -2.07446 0
M  V30 26455 H 2580.19 0.570358 -0.466756 0
M  V30 26456 H 2582.83 0.935754 -1.65359 0
M  V30 26457 H 2580.98 3.40785 -1.86541 0
M  V30 26458 H 2582.65 2.0849 -4.11497 0
M  V30 26459 H 2580.9 1.89844 -3.90053 0
M  V30 26460 H 2581.57 3.48792 -4.27841 0
M  V30 26461 H 2584.04 3.43226 -2.35234 0
M  V30 26462 H 2582.92 4.76391 -2.72658 0
M  V30 26463 H 2583.18 4.29341 -1.05446 0
M  V30 26464 N 2582.24 1.18909 1.03433 0
M  V30 26465 C 2583.49 0.989829 1.77003 0
M  V30 26466 C 2583.82 -0.478783 1.88205 0
M  V30 26467 O 2583.09 -1.35553 1.39483 0
M  V30 26468 C 2583.38 1.65293 3.19922 0
M  V30 26469 C 2583.23 3.19482 3.16625 0
M  V30 26470 C 2584.55 1.37141 4.18187 0
M  V30 26471 H 2581.67 0.361002 0.642531 0
M  V30 26472 H 2584.31 1.46669 1.20782 0
M  V30 26473 H 2582.46 1.24747 3.67927 0
M  V30 26474 H 2584.13 3.69205 2.7656 0
M  V30 26475 H 2582.38 3.51311 2.54485 0
M  V30 26476 H 2583.05 3.61021 4.17574 0
M  V30 26477 H 2585.52 1.72283 3.78758 0
M  V30 26478 H 2584.4 1.86096 5.16391 0
M  V30 26479 H 2584.66 0.295502 4.41111 0
M  V30 26480 N 2583.72 -1.22452 0.992137 0
M  V30 26481 C 2585.13 -1.72967 0.702807 0
M  V30 26482 C 2585.48 -1.80013 -0.780368 0
M  V30 26483 O 2584.61 -1.44591 -1.61004 0
M  V30 26484 C 2585.2 -3.14133 1.26909 0
M  V30 26485 C 2583.76 -3.62057 1.02915 0
M  V30 26486 C 2582.91 -2.39962 1.38974 0
M  V30 26487 H 2585.86 -1.0781 1.16459 0
M  V30 26488 H 2585.88 -3.74954 0.647289 0
M  V30 26489 H 2585.39 -3.08973 2.34856 0
M  V30 26490 H 2583.49 -3.72585 -0.0337324 0
M  V30 26491 H 2583.6 -4.48228 1.69199 0
M  V30 26492 H 2581.97 -2.41533 0.808322 0
M  V30 26493 H 2582.75 -2.37463 2.47924 0
M  V30 26494 N 2585.2 -0.765242 -1.37774 0
M  V30 26495 C 2586.11 -0.147707 -2.34135 0
M  V30 26496 C 2587.12 0.687187 -1.59855 0
M  V30 26497 O 2588.3 0.608626 -1.91984 0
M  V30 26498 C 2585.36 0.726111 -3.39011 0
M  V30 26499 C 2584.42 -0.124492 -4.29119 0
M  V30 26500 C 2583.66 0.707715 -5.28987 0
M  V30 26501 O 2583.88 1.94515 -5.36209 0
M  V30 26502 O 2582.81 0.120354 -6.0178 0
M  V30 26503 H 2586.64 -0.943808 -2.88662 0
M  V30 26504 H 2584.23 -0.526302 -1.39823 0
M  V30 26505 H 2586.11 1.22517 -4.03197 0
M  V30 26506 H 2584.78 1.50051 -2.86821 0
M  V30 26507 H 2583.69 -0.669761 -3.68056 0
M  V30 26508 H 2585.02 -0.861821 -4.84596 0
M  V30 26509 N 2586.67 1.48939 -0.515251 0
M  V30 26510 C 2587.62 2.29381 0.255526 0
M  V30 26511 C 2588.59 1.36434 0.947363 0
M  V30 26512 O 2589.78 1.65396 0.951259 0
M  V30 26513 C 2586.92 3.19456 1.30545 0
M  V30 26514 C 2586.03 4.2747 0.623954 0
M  V30 26515 C 2585.16 5.04743 1.65554 0
M  V30 26516 C 2584.2 6.04577 0.956695 0
M  V30 26517 N 2583.34 6.74962 1.93314 0
M  V30 26518 H 2588.18 2.94783 -0.436659 0
M  V30 26519 H 2585.72 1.45335 -0.227179 0
M  V30 26520 H 2587.68 3.70066 1.92632 0
M  V30 26521 H 2586.31 2.56008 1.96621 0
M  V30 26522 H 2585.36 3.80239 -0.110526 0
M  V30 26523 H 2586.67 4.98744 0.0745215 0
M  V30 26524 H 2585.82 5.59293 2.35109 0
M  V30 26525 H 2584.56 4.33274 2.23885 0
M  V30 26526 H 2583.57 5.49245 0.247001 0
M  V30 26527 H 2584.79 6.78038 0.379695 0
M  V30 26528 H 2582.74 6.06255 2.50581 0
M  V30 26529 H 2582.66 7.42261 1.43476 0
M  V30 26530 H 2583.92 7.3411 2.62113 0
M  V30 26531 N 2588.15 0.249709 1.55609 0
M  V30 26532 C 2589.12 -0.635355 2.20218 0
M  V30 26533 C 2590.12 -1.10064 1.17229 0
M  V30 26534 O 2591.31 -1.0049 1.42294 0
M  V30 26535 C 2588.44 -1.87358 2.84798 0
M  V30 26536 H 2589.63 -0.0716225 2.99814 0
M  V30 26537 H 2587.18 0.000180708 1.563 0
M  V30 26538 H 2587.92 -2.47848 2.09146 0
M  V30 26539 H 2587.7 -1.54813 3.60243 0
M  V30 26540 H 2589.19 -2.50354 3.34234 0
M  V30 26541 N 2589.63 -1.57583 -0.0233682 0
M  V30 26542 C 2590.58 -2.03398 -1.0302 0
M  V30 26543 C 2591.57 -0.924338 -1.317 0
M  V30 26544 O 2592.76 -1.18821 -1.31189 0
M  V30 26545 C 2589.89 -2.52163 -2.32957 0
M  V30 26546 C 2588.97 -3.69959 -2.07342 0
M  V30 26547 N 2589.36 -4.82482 -1.51805 0
M  V30 26548 C 2587.66 -3.77442 -2.37599 0
M  V30 26549 C 2588.36 -5.6407 -1.42126 0
M  V30 26550 N 2587.34 -5.09358 -1.89882 0
M  V30 26551 H 2591.14 -2.87816 -0.594911 0
M  V30 26552 H 2588.65 -1.60769 -0.229557 0
M  V30 26553 H 2590.65 -2.83249 -3.05901 0
M  V30 26554 H 2589.31 -1.69154 -2.77159 0
M  V30 26555 H 2590.32 -5.03806 -1.19999 0
M  V30 26556 H 2587 -3.05244 -2.84837 0
M  V30 26557 H 2588.39 -6.64473 -0.996288 0
M  V30 26558 N 2591.11 0.29574 -1.548 0
M  V30 26559 C 2592.04 1.36955 -1.89118 0
M  V30 26560 C 2593.02 1.52643 -0.750617 0
M  V30 26561 O 2594.21 1.66063 -1.00681 0
M  V30 26562 C 2591.34 2.73291 -2.14311 0
M  V30 26563 C 2590.29 2.72363 -3.30155 0
M  V30 26564 C 2589.62 4.12036 -3.40779 0
M  V30 26565 C 2590.92 2.33638 -4.6713 0
M  V30 26566 H 2592.61 1.08483 -2.79055 0
M  V30 26567 H 2590.16 0.52042 -1.34267 0
M  V30 26568 H 2592.11 3.48503 -2.36904 0
M  V30 26569 H 2590.83 3.03299 -1.2115 0
M  V30 26570 H 2589.49 1.99607 -3.07494 0
M  V30 26571 H 2589.14 4.3923 -2.45125 0
M  V30 26572 H 2588.84 4.12315 -4.18653 0
M  V30 26573 H 2590.36 4.8902 -3.65638 0
M  V30 26574 H 2591.78 2.98567 -4.89419 0
M  V30 26575 H 2590.17 2.4512 -5.47756 0
M  V30 26576 H 2591.24 1.28764 -4.67491 0
M  V30 26577 N 2592.59 1.47346 0.559187 0
M  V30 26578 C 2593.52 1.62561 1.67619 0
M  V30 26579 C 2594.5 0.475115 1.6333 0
M  V30 26580 O 2595.68 0.704214 1.80982 0
M  V30 26581 C 2592.81 1.6378 3.06257 0
M  V30 26582 C 2591.77 2.78036 3.25392 0
M  V30 26583 C 2591.09 2.64326 4.64796 0
M  V30 26584 C 2592.39 4.19646 3.10957 0
M  V30 26585 H 2594.09 2.56069 1.55142 0
M  V30 26586 H 2591.63 1.23234 0.74494 0
M  V30 26587 H 2593.59 1.73015 3.84244 0
M  V30 26588 H 2592.31 0.668306 3.19689 0
M  V30 26589 H 2590.97 2.68308 2.49812 0
M  V30 26590 H 2590.62 1.65409 4.75025 0
M  V30 26591 H 2590.32 3.40977 4.78549 0
M  V30 26592 H 2591.84 2.75487 5.44921 0
M  V30 26593 H 2593.26 4.30361 3.78764 0
M  V30 26594 H 2591.65 4.97068 3.3622 0
M  V30 26595 H 2592.72 4.38152 2.07729 0
M  V30 26596 N 2594.07 -0.805758 1.35445 0
M  V30 26597 C 2595.29 -1.59938 1.3204 0
M  V30 26598 C 2595.72 -1.87837 -0.0993885 0
M  V30 26599 O 2595.07 -1.46617 -1.06645 0
M  V30 26600 C 2595.12 -2.90707 2.13359 0
M  V30 26601 O 2594.23 -3.83569 1.51487 0
M  V30 26602 H 2593.57 -0.485779 0.452675 0
M  V30 26603 H 2596.1 -0.999987 1.78498 0
M  V30 26604 H 2596.11 -3.40124 2.25344 0
M  V30 26605 H 2594.78 -2.69726 3.16577 0
M  V30 26606 H 2593.36 -3.42122 1.48346 0
M  V30 26607 N 2595.54 -1.19456 -1.02801 0
M  V30 26608 C 2596.47 -0.956795 -2.12997 0
M  V30 26609 C 2597.45 0.110159 -1.69743 0
M  V30 26610 O 2598.64 -0.0450379 -1.94148 0
M  V30 26611 C 2595.77 -0.495614 -3.43745 0
M  V30 26612 C 2594.72 -1.5045 -4.00685 0
M  V30 26613 C 2594.05 -0.900368 -5.27065 0
M  V30 26614 C 2595.35 -2.88498 -4.35392 0
M  V30 26615 H 2597.04 -1.8784 -2.33145 0
M  V30 26616 H 2594.59 -0.904559 -1.12043 0
M  V30 26617 H 2596.54 -0.316567 -4.20209 0
M  V30 26618 H 2595.27 0.461589 -3.23322 0
M  V30 26619 H 2593.93 -1.67071 -3.26317 0
M  V30 26620 H 2593.57 0.0644145 -5.02959 0
M  V30 26621 H 2593.27 -1.57407 -5.66124 0
M  V30 26622 H 2594.8 -0.732136 -6.06195 0
M  V30 26623 H 2596.21 -2.75455 -5.0279 0
M  V30 26624 H 2594.61 -3.52669 -4.85535 0
M  V30 26625 H 2595.68 -3.41087 -3.44656 0
M  V30 26626 N 2597.02 1.21924 -0.998617 0
M  V30 26627 C 2598.27 1.91106 -0.678701 0
M  V30 26628 C 2598.6 1.775 0.787879 0
M  V30 26629 O 2597.88 1.14753 1.57041 0
M  V30 26630 C 2598.16 3.43127 -1.09251 0
M  V30 26631 C 2598.01 3.65756 -2.61807 0
M  V30 26632 C 2599.33 4.35273 -0.650061 0
M  V30 26633 H 2596.45 0.694008 -0.248037 0
M  V30 26634 H 2599.09 1.43686 -1.24316 0
M  V30 26635 H 2597.24 3.83646 -0.612238 0
M  V30 26636 H 2598.91 3.34605 -3.17549 0
M  V30 26637 H 2597.16 3.0984 -3.03614 0
M  V30 26638 H 2597.83 4.72245 -2.85813 0
M  V30 26639 H 2600.3 4.02301 -1.06267 0
M  V30 26640 H 2599.18 5.403 -0.967838 0
M  V30 26641 H 2599.44 4.39813 0.449061 0
M  V30 26642 N 2598.5 0.772537 1.37367 0
M  V30 26643 C 2599.78 0.261914 1.93839 0
M  V30 26644 C 2600.16 -1.24316 1.70613 0
M  V30 26645 O 2599.5 -2.02668 1.05537 0
M  V30 26646 C 2599.71 0.636162 3.43153 0
M  V30 26647 C 2601.06 0.606398 4.20248 0
M  V30 26648 O 2602.09 0.5756 3.51519 0
M  V30 26649 O 2600.95 0.634182 5.42808 0
M  V30 26650 H 2598.04 0.06057 0.824779 0
M  V30 26651 H 2600.59 0.853943 1.46649 0
M  V30 26652 H 2599.36 1.67486 3.53644 0
M  V30 26653 H 2598.98 0.0171215 3.97596 0
M  V30 26654 N 2599.98 -1.48664 0.523142 0
M  V30 26655 C 2601.22 -2.02796 -0.0134606 0
M  V30 26656 C 2601.56 -1.40007 -1.3458 0
M  V30 26657 O 2600.83 -0.543414 -1.86755 0
M  V30 26658 C 2601.11 -3.59817 -0.142697 0
M  V30 26659 C 2600.97 -4.33098 1.21433 0
M  V30 26660 C 2602.29 -4.31359 -0.87278 0
M  V30 26661 H 2599.41 -0.736992 -0.00341778 0
M  V30 26662 H 2602.05 -1.77459 0.678847 0
M  V30 26663 H 2600.2 -3.81535 -0.732334 0
M  V30 26664 H 2601.87 -4.22817 1.84455 0
M  V30 26665 H 2600.11 -3.94785 1.79798 0
M  V30 26666 H 2600.78 -5.41392 1.07697 0
M  V30 26667 H 2603.26 -4.14429 -0.372482 0
M  V30 26668 H 2602.14 -5.40928 -0.93209 0
M  V30 26669 H 2602.4 -3.98157 -1.92154 0
M  V30 26670 N 2601.46 -0.257958 -1.55475 0
M  V30 26671 C 2602.39 0.677823 -2.17901 0
M  V30 26672 C 2603.37 1.16481 -1.1345 0
M  V30 26673 O 2604.55 1.24093 -1.41892 0
M  V30 26674 C 2601.68 1.92244 -2.78855 0
M  V30 26675 C 2600.72 1.57239 -3.96457 0
M  V30 26676 S 2601.56 0.665408 -5.3135 0
M  V30 26677 C 2602.71 1.91878 -5.95763 0
M  V30 26678 H 2602.95 0.147344 -2.96935 0
M  V30 26679 H 2600.48 -0.0423295 -1.54342 0
M  V30 26680 H 2602.44 2.63691 -3.14606 0
M  V30 26681 H 2601.1 2.42405 -1.99746 0
M  V30 26682 H 2600.29 2.49807 -4.37736 0
M  V30 26683 H 2599.89 0.938262 -3.6204 0
M  V30 26684 H 2602.18 2.86477 -6.13952 0
M  V30 26685 H 2603.13 1.5493 -6.90943 0
M  V30 26686 H 2603.54 2.07591 -5.24944 0
M  V30 26687 N 2602.93 1.57593 0.0150108 0
M  V30 26688 C 2603.87 2.04293 1.03909 0
M  V30 26689 C 2604.88 0.958169 1.31617 0
M  V30 26690 O 2606.07 1.23524 1.28857 0
M  V30 26691 C 2603.17 2.41518 2.37744 0
M  V30 26692 C 2602.34 3.72545 2.29192 0
M  V30 26693 C 2601.4 3.96804 3.45591 0
M  V30 26694 O 2600.43 4.67674 3.24453 0
M  V30 26695 N 2601.63 3.43531 4.67939 0
M  V30 26696 H 2604.39 2.92766 0.640939 0
M  V30 26697 H 2601.95 1.60626 0.202691 0
M  V30 26698 H 2603.95 2.54872 3.1436 0
M  V30 26699 H 2602.52 1.58642 2.69354 0
M  V30 26700 H 2601.74 3.69411 1.37584 0
M  V30 26701 H 2603.02 4.58473 2.20634 0
M  V30 26702 H 2602.42 2.86113 4.88012 0
M  V30 26703 H 2600.98 3.62241 5.41871 0
M  V30 26704 N 2604.41 -0.287527 1.54955 0
M  V30 26705 C 2605.83 -0.633938 1.4647 0
M  V30 26706 C 2606.03 -1.90144 0.666898 0
M  V30 26707 O 2605.08 -2.51858 0.17995 0
M  V30 26708 C 2606.4 -0.774402 2.90557 0
M  V30 26709 C 2607.95 -0.86941 3.00683 0
M  V30 26710 C 2608.42 -1.04177 4.45995 0
M  V30 26711 N 2609.91 -1.10764 4.49762 0
M  V30 26712 C 2610.65 -1.25954 5.59395 0
M  V30 26713 N 2610.14 -1.37956 6.78926 0
M  V30 26714 N 2611.94 -1.2895 5.47109 0
M  V30 26715 H 2604.09 0.545077 2.05287 0
M  V30 26716 H 2606.35 0.182325 0.930302 0
M  V30 26717 H 2606.06 0.0862688 3.51594 0
M  V30 26718 H 2605.93 -1.65924 3.38746 0
M  V30 26719 H 2608.32 -1.72056 2.39752 0
M  V30 26720 H 2608.4 0.0397281 2.55769 0
M  V30 26721 H 2608.04 -0.195333 5.07524 0
M  V30 26722 H 2607.97 -1.96533 4.88551 0
M  V30 26723 H 2610.46 -1.02788 3.63652 0
M  V30 26724 H 2610.78 -1.4934 7.58233 0
M  V30 26725 H 2609.12 -1.34987 6.81765 0
M  V30 26726 H 2612.31 -1.19194 4.5267 0
M  V30 26727 H 2612.48 -1.40444 6.32597 0
M  V30 26728 N 2605.89 -1.47641 -0.551365 0
M  V30 26729 C 2606.8 -1.6321 -1.68522 0
M  V30 26730 C 2607.82 -0.514844 -1.66209 0
M  V30 26731 O 2608.99 -0.783146 -1.8555 0
M  V30 26732 C 2606.06 -1.64811 -3.05022 0
M  V30 26733 C 2605.12 -2.88005 -3.18357 0
M  V30 26734 C 2604.35 -2.89521 -4.48345 0
M  V30 26735 O 2604.57 -2.00074 -5.3416 0
M  V30 26736 O 2603.51 -3.81451 -4.65595 0
M  V30 26737 H 2607.33 -2.59163 -1.58329 0
M  V30 26738 H 2604.92 -1.30794 -0.72204 0
M  V30 26739 H 2606.8 -1.68509 -3.86242 0
M  V30 26740 H 2605.48 -0.720252 -3.15585 0
M  V30 26741 H 2604.38 -2.89849 -2.36513 0
M  V30 26742 H 2605.72 -3.80104 -3.127 0
M  V30 26743 N 2607.37 0.798563 -1.3587 0
M  V30 26744 C 2608.62 1.55296 -1.29335 0
M  V30 26745 C 2608.94 1.94568 0.129695 0
M  V30 26746 O 2608.21 1.64231 1.06793 0
M  V30 26747 H 2606.79 0.575911 -0.475747 0
M  V30 26748 H 2609.45 0.952063 -1.70064 0
M  V30 26749 H 2608.55 2.46472 -1.91462 0
M  V30 26750 N 2608.85 1.19999 1.02166 0
M  V30 26751 C 2610.09 1.00507 1.75336 0
M  V30 26752 C 2610.42 -0.464473 1.89388 0
M  V30 26753 O 2609.69 -1.33605 1.43271 0
M  V30 26754 H 2608.27 0.368896 0.649557 0
M  V30 26755 H 2610.93 1.51021 1.23202 0
M  V30 26756 H 2610.02 1.45917 2.75889 0
M  V30 26757 N 2610.32 -1.21392 1.00507 0
M  V30 26758 C 2611.74 -1.72212 0.721112 0
M  V30 26759 C 2612.09 -1.80831 -0.761231 0
M  V30 26760 O 2611.21 -1.46291 -1.59461 0
M  V30 26761 C 2611.81 -3.12769 1.30233 0
M  V30 26762 C 2610.37 -3.60945 1.0675 0
M  V30 26763 C 2609.51 -2.38474 1.41511 0
M  V30 26764 H 2612.46 -1.06568 1.17596 0
M  V30 26765 H 2612.48 -3.74246 0.687021 0
M  V30 26766 H 2612 -3.06464 2.3812 0
M  V30 26767 H 2610.1 -3.726 0.00578711 0
M  V30 26768 H 2610.21 -4.46408 1.73944 0
M  V30 26769 H 2608.57 -2.40662 0.833894 0
M  V30 26770 H 2609.36 -2.3482 2.50429 0
M  V30 26771 N 2611.8 -0.779811 -1.36955 0
M  V30 26772 C 2613.03 -0.35826 -2.04282 0
M  V30 26773 C 2613.45 1.01408 -1.58423 0
M  V30 26774 O 2612.81 1.65141 -0.748208 0
M  V30 26775 C 2612.86 -0.419542 -3.58151 0
M  V30 26776 O 2611.96 0.57707 -4.08343 0
M  V30 26777 H 2611.3 -0.15371 -0.645964 0
M  V30 26778 H 2613.83 -1.05825 -1.75106 0
M  V30 26779 H 2613.84 -0.279707 -4.0704 0
M  V30 26780 H 2612.52 -1.42068 -3.90883 0
M  V30 26781 H 2611.1 0.39969 -3.70752 0
M  V30 26782 N 2613.28 1.48384 -0.531019 0
M  V30 26783 C 2614.21 2.27624 0.268313 0
M  V30 26784 C 2615.23 1.35428 0.903501 0
M  V30 26785 O 2616.41 1.6047 0.781768 0
M  V30 26786 C 2613.51 3.08844 1.3953 0
M  V30 26787 C 2612.69 4.28825 0.861837 0
M  V30 26788 C 2611.75 4.91848 1.87008 0
M  V30 26789 O 2610.77 5.51032 1.4266 0
M  V30 26790 N 2611.97 4.84183 3.20229 0
M  V30 26791 H 2614.74 2.96865 -0.411283 0
M  V30 26792 H 2612.3 1.57722 -0.365415 0
M  V30 26793 H 2614.29 3.47875 2.06797 0
M  V30 26794 H 2612.86 2.42017 1.97854 0
M  V30 26795 H 2612.08 3.94198 0.0131433 0
M  V30 26796 H 2613.37 5.0649 0.484326 0
M  V30 26797 H 2612.77 4.37252 3.58925 0
M  V30 26798 H 2611.33 5.27311 3.83127 0
M  V30 26799 N 2614.76 0.2662 1.55336 0
M  V30 26800 C 2616.01 -0.353714 1.98574 0
M  V30 26801 C 2616.32 -1.57644 1.15792 0
M  V30 26802 O 2617.53 -2.26873 1.49133 0
M  V30 26803 C 2615.98 -0.680685 3.53404 0
M  V30 26804 C 2615.59 0.521729 4.44952 0
M  V30 26805 C 2617.33 -1.26372 4.05254 0
M  V30 26806 C 2615.24 0.169839 5.91156 0
M  V30 26807 H 2614.17 -0.135936 0.741645 0
M  V30 26808 H 2616.82 0.369452 1.79742 0
M  V30 26809 H 2615.2 -1.46251 3.68004 0
M  V30 26810 H 2616.38 1.29877 4.42118 0
M  V30 26811 H 2614.69 1.021 4.03689 0
M  V30 26812 H 2617.29 -1.54065 5.12023 0
M  V30 26813 H 2617.63 -2.19465 3.53753 0
M  V30 26814 H 2618.17 -0.544378 3.94058 0
M  V30 26815 H 2614.91 1.06841 6.46734 0
M  V30 26816 H 2614.43 -0.570612 5.9708 0
M  V30 26817 H 2616.1 -0.241132 6.46551 0
M  V30 26818 N 2616.24 -1.57599 -0.0066531 0
M  V30 26819 C 2617.48 -1.89901 -0.691518 0
M  V30 26820 C 2617.81 -0.866703 -1.7468 0
M  V30 26821 O 2617.08 0.0967845 -1.95661 0
M  V30 26822 H 2615.66 -0.700883 -0.258404 0
M  V30 26823 H 2618.32 -1.94873 0.0326997 0
M  V30 26824 H 2617.41 -2.89462 -1.16697 0
M  V30 26825 N 2617.72 0.279305 -1.55105 0
M  V30 26826 C 2618.99 1.03264 -1.6612 0
M  V30 26827 C 2619.37 2.04504 -0.523561 0
M  V30 26828 O 2618.72 2.23462 0.477155 0
M  V30 26829 C 2618.93 1.6951 -3.0507 0
M  V30 26830 C 2620.28 2.20906 -3.6261 0
M  V30 26831 O 2621.3 1.79507 -3.07662 0
M  V30 26832 O 2620.16 2.96823 -4.58867 0
M  V30 26833 H 2617.26 0.478606 -0.674437 0
M  V30 26834 H 2619.8 0.275664 -1.67446 0
M  V30 26835 H 2618.57 0.961134 -3.79312 0
M  V30 26836 H 2618.2 2.51909 -3.07616 0
M  V30 26837 N 2619.19 1.47931 0.543528 0
M  V30 26838 C 2620.16 1.60978 1.63153 0
M  V30 26839 C 2621.16 0.483926 1.53345 0
M  V30 26840 O 2622.35 0.749366 1.57258 0
M  V30 26841 C 2619.48 1.56721 3.0274 0
M  V30 26842 H 2620.67 2.57978 1.52929 0
M  V30 26843 H 2618.22 1.36325 0.764533 0
M  V30 26844 H 2618.96 0.611474 3.18483 0
M  V30 26845 H 2618.74 2.38443 3.11267 0
M  V30 26846 H 2620.23 1.69017 3.81868 0
M  V30 26847 N 2620.67 -0.791347 1.36292 0
M  V30 26848 C 2621.6 -1.91822 1.33141 0
M  V30 26849 C 2622.58 -1.68882 0.203198 0
M  V30 26850 O 2623.77 -1.90024 0.400543 0
M  V30 26851 C 2620.9 -3.28814 1.11799 0
M  V30 26852 C 2619.85 -3.66273 2.21423 0
M  V30 26853 C 2619.18 -5.01593 1.85227 0
M  V30 26854 C 2620.48 -3.75058 3.63495 0
M  V30 26855 H 2622.17 -1.94716 2.27433 0
M  V30 26856 H 2619.72 -0.935418 1.0948 0
M  V30 26857 H 2621.67 -4.07264 1.08229 0
M  V30 26858 H 2620.39 -3.26302 0.139559 0
M  V30 26859 H 2619.05 -2.90118 2.24115 0
M  V30 26860 H 2618.7 -4.956 0.859631 0
M  V30 26861 H 2618.4 -5.27626 2.58621 0
M  V30 26862 H 2619.93 -5.82466 1.8321 0
M  V30 26863 H 2621.34 -4.43705 3.63042 0
M  V30 26864 H 2619.74 -4.12574 4.35778 0
M  V30 26865 H 2620.81 -2.76212 3.98541 0
M  V30 26866 N 2622.15 -1.2054 -1.01528 0
M  V30 26867 C 2623.4 -1.01435 -1.74801 0
M  V30 26868 C 2623.72 0.454423 -1.89631 0
M  V30 26869 O 2622.99 1.32843 -1.43977 0
M  V30 26870 H 2621.57 -0.372336 -0.647592 0
M  V30 26871 H 2624.23 -1.51672 -1.224 0
M  V30 26872 H 2623.33 -1.47378 -2.75111 0
M  V30 26873 N 2623.63 1.20858 -1.01149 0
M  V30 26874 C 2624.87 1.90094 -0.697898 0
M  V30 26875 C 2625.2 1.78524 0.771982 0
M  V30 26876 O 2624.46 1.1603 1.57593 0
M  V30 26877 C 2624.76 3.4092 -1.07276 0
M  V30 26878 C 2624.42 3.72689 -2.53799 0
M  V30 26879 C 2623.08 3.8107 -2.93835 0
M  V30 26880 C 2625.44 3.8739 -3.4868 0
M  V30 26881 C 2622.76 4.01606 -4.27703 0
M  V30 26882 C 2625.12 4.09435 -4.8223 0
M  V30 26883 C 2623.78 4.16045 -5.2198 0
M  V30 26884 H 2623.05 0.695602 -0.255379 0
M  V30 26885 H 2625.7 1.43229 -1.27113 0
M  V30 26886 H 2624 3.89565 -0.417867 0
M  V30 26887 H 2625.7 3.92778 -0.807887 0
M  V30 26888 H 2622.29 3.66761 -2.21775 0
M  V30 26889 H 2626.47 3.80276 -3.18911 0
M  V30 26890 H 2621.73 4.04956 -4.58062 0
M  V30 26891 H 2625.9 4.19753 -5.5568 0
M  V30 26892 H 2623.53 4.3171 -6.25724 0
M  V30 26893 N 2625.11 0.787064 1.3654 0
M  V30 26894 C 2626.07 0.189818 2.28413 0
M  V30 26895 C 2627.07 -0.611473 1.4872 0
M  V30 26896 O 2628.26 -0.432813 1.68738 0
M  V30 26897 C 2625.39 -0.73758 3.32825 0
M  V30 26898 H 2626.58 0.999881 2.82741 0
M  V30 26899 H 2624.14 0.556324 1.46064 0
M  V30 26900 H 2624.87 -1.57207 2.83648 0
M  V30 26901 H 2624.66 -0.164975 3.91753 0
M  V30 26902 H 2626.15 -1.1504 4.01442 0
M  V30 26903 N 2626.58 -1.48101 0.53888 0
M  V30 26904 C 2627.83 -2.02798 0.0080493 0
M  V30 26905 C 2628.16 -1.41426 -1.33087 0
M  V30 26906 O 2627.44 -0.563191 -1.86168 0
M  V30 26907 C 2627.72 -3.59948 -0.104526 0
M  V30 26908 C 2627.57 -4.31786 1.2602 0
M  V30 26909 C 2628.89 -4.3226 -0.826979 0
M  V30 26910 H 2626.01 -0.736987 0.0043992 0
M  V30 26911 H 2628.65 -1.76729 0.697631 0
M  V30 26912 H 2626.8 -3.8229 -0.691825 0
M  V30 26913 H 2628.48 -4.20837 1.88929 0
M  V30 26914 H 2626.72 -3.92856 1.83975 0
M  V30 26915 H 2627.39 -5.40219 1.13433 0
M  V30 26916 H 2629.87 -4.14801 -0.328505 0
M  V30 26917 H 2628.74 -5.41886 -0.874665 0
M  V30 26918 H 2629 -4.00173 -1.8792 0
M  V30 26919 N 2628.06 -0.274434 -1.55192 0
M  V30 26920 C 2629.48 0.0797262 -1.59401 0
M  V30 26921 C 2629.68 1.54657 -1.29165 0
M  V30 26922 O 2628.73 2.29533 -1.05219 0
M  V30 26923 C 2630.05 -0.294291 -2.99256 0
M  V30 26924 C 2631.59 -0.240851 -3.12072 0
M  V30 26925 C 2632.07 -0.589298 -4.54193 0
M  V30 26926 N 2633.56 -0.540825 -4.60032 0
M  V30 26927 C 2634.3 -0.783247 -5.68025 0
M  V30 26928 N 2633.79 -1.09025 -6.84168 0
M  V30 26929 N 2635.58 -0.712091 -5.57571 0
M  V30 26930 H 2627.74 -1.2307 -1.73111 0
M  V30 26931 H 2630 -0.497143 -0.807188 0
M  V30 26932 H 2629.7 -1.3144 -3.26215 0
M  V30 26933 H 2629.58 0.365215 -3.75428 0
M  V30 26934 H 2631.97 0.769973 -2.84878 0
M  V30 26935 H 2632.05 -0.934605 -2.38115 0
M  V30 26936 H 2631.69 -1.59781 -4.82113 0
M  V30 26937 H 2631.62 0.126238 -5.26449 0
M  V30 26938 H 2634.11 -0.313393 -3.76598 0
M  V30 26939 H 2634.42 -1.26191 -7.62427 0
M  V30 26940 H 2632.77 -1.12801 -6.85785 0
M  V30 26941 H 2635.96 -0.472096 -4.65713 0
M  V30 26942 H 2636.13 -0.904402 -6.41658 0
M  V30 26943 N 2629.54 1.576 -0.00170483 0
M  V30 26944 C 2630.77 1.94641 0.692719 0
M  V30 26945 C 2631.18 0.875159 1.67743 0
M  V30 26946 O 2630.52 -0.15435 1.8305 0
M  V30 26947 C 2630.58 3.27679 1.47875 0
M  V30 26948 C 2630.25 4.52275 0.655438 0
M  V30 26949 C 2631.24 5.19868 -0.0576128 0
M  V30 26950 C 2628.93 4.98693 0.600907 0
M  V30 26951 C 2630.92 6.32179 -0.814163 0
M  V30 26952 C 2628.61 6.10892 -0.159367 0
M  V30 26953 C 2629.61 6.77492 -0.865634 0
M  V30 26954 O 2629.3 7.87541 -1.6135 0
M  V30 26955 H 2629.03 0.64642 0.19778 0
M  V30 26956 H 2631.58 2.0534 -0.0494591 0
M  V30 26957 H 2629.81 3.13392 2.26545 0
M  V30 26958 H 2631.5 3.49819 2.05867 0
M  V30 26959 H 2632.27 4.84994 -0.0246464 0
M  V30 26960 H 2628.15 4.46678 1.14017 0
M  V30 26961 H 2631.69 6.84096 -1.36596 0
M  V30 26962 H 2627.59 6.45208 -0.194148 0
M  V30 26963 H 2628.35 8.04066 -1.53039 0
M  V30 26964 N 2631.02 -0.271076 1.55251 0
M  V30 26965 C 2631.95 -1.33929 1.91272 0
M  V30 26966 C 2632.93 -1.51429 0.774806 0
M  V30 26967 O 2634.11 -1.6444 1.0331 0
M  V30 26968 C 2631.24 -2.69847 2.18632 0
M  V30 26969 C 2630.2 -2.67076 3.34447 0
M  V30 26970 C 2629.52 -4.06563 3.47291 0
M  V30 26971 C 2630.82 -2.26176 4.70788 0
M  V30 26972 H 2632.52 -1.0403 2.80746 0
M  V30 26973 H 2630.06 -0.498993 1.35078 0
M  V30 26974 H 2632.02 -3.4469 2.42419 0
M  V30 26975 H 2630.74 -3.01333 1.2596 0
M  V30 26976 H 2629.4 -1.9469 3.10631 0
M  V30 26977 H 2629.05 -4.35274 2.52082 0
M  V30 26978 H 2628.75 -4.05603 4.25159 0
M  V30 26979 H 2630.27 -4.83142 3.73372 0
M  V30 26980 H 2631.69 -2.90743 4.94107 0
M  V30 26981 H 2630.08 -2.36375 5.51586 0
M  V30 26982 H 2631.15 -1.2131 4.6948 0
M  V30 26983 N 2632.5 -1.48217 -0.535675 0
M  V30 26984 C 2633.72 -1.59596 -1.31669 0
M  V30 26985 C 2634.14 -0.254089 -1.87082 0
M  V30 26986 O 2633.5 0.755825 -1.66113 0
M  V30 26987 C 2633.55 -2.63813 -2.47154 0
M  V30 26988 O 2633.27 -3.92793 -1.94025 0
M  V30 26989 C 2634.77 -2.85579 -3.39057 0
M  V30 26990 H 2631.99 -0.538284 -0.400614 0
M  V30 26991 H 2634.53 -1.94002 -0.646793 0
M  V30 26992 H 2632.69 -2.32282 -3.10039 0
M  V30 26993 H 2633.1 -4.49921 -2.69577 0
M  V30 26994 H 2634.58 -3.62314 -4.16453 0
M  V30 26995 H 2635.05 -1.94191 -3.93937 0
M  V30 26996 H 2635.66 -3.18392 -2.8197 0
M  V30 26997 N 2633.97 0.784108 -1.3671 0
M  V30 26998 C 2635.2 1.57817 -1.34568 0
M  V30 26999 C 2635.62 1.87972 0.0694927 0
M  V30 27000 O 2634.98 1.48295 1.04299 0
M  V30 27001 C 2635.03 2.87276 -2.17957 0
M  V30 27002 O 2634.13 3.81111 -1.5757 0
M  V30 27003 H 2633.48 0.478516 -0.460346 0
M  V30 27004 H 2636.01 0.971463 -1.80066 0
M  V30 27005 H 2636.02 3.36496 -2.30727 0
M  V30 27006 H 2634.69 2.64655 -3.20828 0
M  V30 27007 H 2633.27 3.39719 -1.5377 0
M  V30 27008 N 2635.45 1.21076 1.00888 0
M  V30 27009 C 2636.36 0.982462 2.13037 0
M  V30 27010 C 2637.38 -0.0641856 1.73882 0
M  V30 27011 O 2638.55 0.124996 2.01012 0
M  V30 27012 C 2635.62 0.545864 3.42376 0
M  V30 27013 C 2634.68 1.66427 3.95728 0
M  V30 27014 C 2633.91 1.24841 5.18893 0
M  V30 27015 O 2634.14 0.120365 5.70273 0
M  V30 27016 O 2633.07 2.05883 5.65593 0
M  V30 27017 H 2636.9 1.92167 2.35171 0
M  V30 27018 H 2634.48 0.995305 1.11418 0
M  V30 27019 H 2636.36 0.311986 4.20244 0
M  V30 27020 H 2635.04 -0.364671 3.21639 0
M  V30 27021 H 2633.95 1.95251 3.19105 0
M  V30 27022 H 2635.28 2.55209 4.20867 0
M  V30 27023 N 2636.93 -1.2032 1.01789 0
M  V30 27024 C 2637.86 -2.21866 0.533921 0
M  V30 27025 C 2638.84 -1.571 -0.419333 0
M  V30 27026 O 2640.03 -1.85426 -0.339029 0
M  V30 27027 C 2637.15 -3.37966 -0.22284 0
M  V30 27028 C 2636.2 -4.21042 0.680165 0
M  V30 27029 S 2637.03 -4.90441 2.15006 0
M  V30 27030 C 2638.19 -6.09961 1.4035 0
M  V30 27031 H 2638.42 -2.62575 1.39434 0
M  V30 27032 H 2635.95 -1.30391 0.82689 0
M  V30 27033 H 2637.91 -4.05267 -0.653354 0
M  V30 27034 H 2636.57 -2.95715 -1.05885 0
M  V30 27035 H 2635.77 -5.03907 0.096559 0
M  V30 27036 H 2635.37 -3.59002 1.04851 0
M  V30 27037 H 2637.66 -6.74036 0.684189 0
M  V30 27038 H 2638.6 -6.72784 2.20835 0
M  V30 27039 H 2639.01 -5.57185 0.905814 0
M  V30 27040 N 2638.41 -0.794293 -1.3612 0
M  V30 27041 C 2639.36 -0.169057 -2.27372 0
M  V30 27042 C 2640.34 0.649887 -1.47191 0
M  V30 27043 O 2641.53 0.50916 -1.69519 0
M  V30 27044 C 2638.66 0.691396 -3.36266 0
M  V30 27045 C 2637.75 -0.136605 -4.2388 0
M  V30 27046 N 2638.14 -1.19353 -4.91516 0
M  V30 27047 C 2636.44 0.0837716 -4.45921 0
M  V30 27048 C 2637.14 -1.698 -5.56366 0
M  V30 27049 N 2636.12 -1.00643 -5.34202 0
M  V30 27050 H 2639.92 -0.977946 -2.77152 0
M  V30 27051 H 2637.43 -0.634234 -1.49503 0
M  V30 27052 H 2639.43 1.15527 -4.00574 0
M  V30 27053 H 2638.09 1.49877 -2.8804 0
M  V30 27054 H 2639.1 -1.57603 -4.93337 0
M  V30 27055 H 2635.78 0.861269 -4.0852 0
M  V30 27056 H 2637.17 -2.58066 -6.20364 0
M  V30 27057 N 2639.89 1.47813 -0.546727 0
M  V30 27058 C 2641.13 2.02091 -0.0187392 0
M  V30 27059 C 2641.46 1.42449 1.33166 0
M  V30 27060 O 2640.73 0.595872 1.86618 0
M  V30 27061 H 2639.31 0.74699 -0.00393844 0
M  V30 27062 H 2641.97 1.81336 -0.714359 0
M  V30 27063 H 2641.06 3.12005 0.0771671 0
M  V30 27064 N 2641.36 0.28266 1.55044 0
M  V30 27065 C 2642.33 -0.588501 2.21516 0
M  V30 27066 C 2643.33 -1.07552 1.19537 0
M  V30 27067 O 2644.52 -0.974489 1.44393 0
M  V30 27068 C 2641.65 -1.81275 2.88708 0
M  V30 27069 H 2642.84 -0.00801126 2.99899 0
M  V30 27070 H 2640.4 0.0333342 1.56264 0
M  V30 27071 H 2641.13 -2.43356 2.14356 0
M  V30 27072 H 2640.92 -1.47137 3.63446 0
M  V30 27073 H 2642.41 -2.43208 3.3947 0
M  V30 27074 N 2642.84 -1.57597 0.0100627 0
M  V30 27075 C 2644.26 -1.55801 -0.346137 0
M  V30 27076 C 2644.46 -1.01375 -1.74142 0
M  V30 27077 O 2643.51 -0.652011 -2.43937 0
M  V30 27078 C 2644.83 -2.99951 -0.212163 0
M  V30 27079 C 2646.38 -3.11687 -0.286354 0
M  V30 27080 C 2646.85 -4.57641 -0.181389 0
M  V30 27081 N 2648.34 -4.62583 -0.238974 0
M  V30 27082 C 2649.08 -5.73113 -0.18125 0
M  V30 27083 N 2648.57 -6.92761 -0.0735392 0
M  V30 27084 N 2650.37 -5.61613 -0.23385 0
M  V30 27085 H 2642.52 -1.91312 0.92269 0
M  V30 27086 H 2644.78 -0.879179 0.354611 0
M  V30 27087 H 2644.49 -3.43649 0.74823 0
M  V30 27088 H 2644.36 -3.63972 -0.99016 0
M  V30 27089 H 2646.75 -2.67913 -1.2372 0
M  V30 27090 H 2646.83 -2.50424 0.521689 0
M  V30 27091 H 2646.47 -5.02091 0.765951 0
M  V30 27092 H 2646.4 -5.16862 -1.00805 0
M  V30 27093 H 2648.89 -3.76516 -0.323144 0
M  V30 27094 H 2649.21 -7.72792 -0.0356645 0
M  V30 27095 H 2647.55 -6.94989 -0.0390239 0
M  V30 27096 H 2650.74 -4.6703 -0.316265 0
M  V30 27097 H 2650.91 -6.47735 -0.1854 0
M  V30 27098 N 2644.32 0.262839 -1.55393 0
M  V30 27099 C 2645.73 0.833129 -1.6708 0
M  V30 27100 C 2646.08 1.86653 -0.604571 0
M  V30 27101 O 2645.21 2.14927 0.2521 0
M  V30 27102 C 2645.8 1.51792 -3.02894 0
M  V30 27103 C 2644.36 2.03611 -3.16575 0
M  V30 27104 C 2643.51 0.881655 -2.62911 0
M  V30 27105 H 2646.46 0.0389707 -1.58652 0
M  V30 27106 H 2646.48 2.38533 -2.9645 0
M  V30 27107 H 2645.99 0.765553 -3.80475 0
M  V30 27108 H 2644.09 2.81778 -2.43787 0
M  V30 27109 H 2644.21 2.24444 -4.23275 0
M  V30 27110 H 2642.57 1.27782 -2.20327 0
M  V30 27111 H 2643.35 0.14263 -3.43004 0
M  V30 27112 N 2645.8 1.48499 0.527807 0
M  V30 27113 C 2647.05 1.56318 1.28098 0
M  V30 27114 C 2647.37 0.239815 1.9352 0
M  V30 27115 O 2646.64 -0.738817 1.81434 0
M  V30 27116 H 2645.22 0.575882 0.475783 0
M  V30 27117 H 2647.88 1.84975 0.614019 0
M  V30 27118 H 2646.98 2.34535 2.05912 0
M  V30 27119 N 2647.28 -0.776847 1.37123 0
M  V30 27120 C 2648.24 -1.87158 1.32304 0
M  V30 27121 C 2649.24 -1.59174 0.228127 0
M  V30 27122 O 2650.43 -1.67351 0.483672 0
M  V30 27123 C 2647.56 -3.24195 1.05406 0
M  V30 27124 H 2648.76 -1.92844 2.29676 0
M  V30 27125 H 2646.31 -0.976038 1.22079 0
M  V30 27126 H 2647.04 -3.24187 0.0854442 0
M  V30 27127 H 2646.83 -3.45898 1.84654 0
M  V30 27128 H 2648.32 -4.04269 1.04671 0
M  V30 27129 N 2648.76 -1.2161 -1.00244 0
M  V30 27130 C 2649.98 -1.0617 -1.78165 0
M  V30 27131 C 2650.41 0.384002 -1.84139 0
M  V30 27132 O 2649.76 1.2771 -1.28685 0
M  V30 27133 C 2649.81 -1.66648 -3.19783 0
M  V30 27134 O 2648.92 -0.913684 -4.02151 0
M  V30 27135 H 2648.26 -0.3735 -0.548993 0
M  V30 27136 H 2650.79 -1.61206 -1.25991 0
M  V30 27137 H 2650.8 -1.70975 -3.70448 0
M  V30 27138 H 2649.47 -2.71856 -3.14749 0
M  V30 27139 H 2648.05 -0.945698 -3.60709 0
M  V30 27140 N 2650.23 1.19778 -1.02425 0
M  V30 27141 C 2651.18 2.22836 -0.601062 0
M  V30 27142 C 2652.15 1.61629 0.382772 0
M  V30 27143 O 2653.34 1.88727 0.280481 0
M  V30 27144 C 2650.48 3.45068 0.0467148 0
M  V30 27145 C 2649.59 4.20677 -0.982604 0
M  V30 27146 C 2648.72 5.30323 -0.305075 0
M  V30 27147 C 2647.76 5.97684 -1.32062 0
M  V30 27148 N 2646.9 6.98903 -0.669228 0
M  V30 27149 H 2651.74 2.58393 -1.48448 0
M  V30 27150 H 2649.28 1.26959 -0.742958 0
M  V30 27151 H 2651.23 4.14879 0.439484 0
M  V30 27152 H 2649.86 3.10181 0.893742 0
M  V30 27153 H 2648.92 3.49857 -1.49347 0
M  V30 27154 H 2650.23 4.6692 -1.75464 0
M  V30 27155 H 2649.38 6.06532 0.142786 0
M  V30 27156 H 2648.12 4.85138 0.499197 0
M  V30 27157 H 2647.13 5.2023 -1.7788 0
M  V30 27158 H 2648.35 6.44953 -2.12631 0
M  V30 27159 H 2646.3 6.55899 0.115037 0
M  V30 27160 H 2646.21 7.43313 -1.37921 0
M  V30 27161 H 2647.48 7.79114 -0.245213 0
M  V30 27162 N 2651.71 0.801501 1.35697 0
M  V30 27163 C 2652.67 0.214034 2.28198 0
M  V30 27164 C 2653.67 -0.595665 1.4936 0
M  V30 27165 O 2654.86 -0.414891 1.69187 0
M  V30 27166 C 2652 -0.702238 3.33589 0
M  V30 27167 H 2653.19 1.02981 2.81664 0
M  V30 27168 H 2650.74 0.571785 1.45466 0
M  V30 27169 H 2651.48 -1.5419 2.853 0
M  V30 27170 H 2651.26 -0.123415 3.91906 0
M  V30 27171 H 2652.75 -1.10775 4.02639 0
M  V30 27172 N 2653.19 -1.47521 0.554558 0
M  V30 27173 C 2654.44 -2.02778 0.0295583 0
M  V30 27174 C 2654.77 -1.4283 -1.3158 0
M  V30 27175 O 2654.04 -0.582905 -1.8556 0
M  V30 27176 C 2654.33 -3.60039 -0.0663424 0
M  V30 27177 C 2654.18 -4.30425 1.30592 0
M  V30 27178 C 2655.5 -4.33113 -0.781086 0
M  V30 27179 H 2652.62 -0.736899 0.0122157 0
M  V30 27180 H 2655.26 -1.75979 0.716336 0
M  V30 27181 H 2653.41 -3.83003 -0.65124 0
M  V30 27182 H 2655.08 -4.18809 1.93382 0
M  V30 27183 H 2653.32 -3.90882 1.88131 0
M  V30 27184 H 2654 -5.38986 1.19156 0
M  V30 27185 H 2656.47 -4.15126 -0.284492 0
M  V30 27186 H 2655.35 -5.42784 -0.817142 0
M  V30 27187 H 2655.61 -4.02144 -1.83665 0
M  V30 27188 N 2654.67 -0.290879 -1.54892 0
M  V30 27189 C 2655.91 0.321832 -2.0023 0
M  V30 27190 C 2656.25 1.54314 -1.17902 0
M  V30 27191 O 2655.52 1.92848 -0.252964 0
M  V30 27192 C 2655.8 0.688453 -3.53458 0
M  V30 27193 C 2655.66 -0.541287 -4.46531 0
M  V30 27194 C 2656.98 1.51888 -4.13059 0
M  V30 27195 H 2654.1 0.115502 -0.727893 0
M  V30 27196 H 2656.74 -0.400963 -1.85721 0
M  V30 27197 H 2654.89 1.30427 -3.65952 0
M  V30 27198 H 2656.56 -1.17981 -4.45958 0
M  V30 27199 H 2654.8 -1.17643 -4.17543 0
M  V30 27200 H 2655.47 -0.240772 -5.51475 0
M  V30 27201 H 2657.95 0.998649 -4.03938 0
M  V30 27202 H 2656.83 1.74419 -5.20451 0
M  V30 27203 H 2657.09 2.50492 -3.64289 0
M  V30 27204 N 2656.15 1.57589 -0.0184203 0
M  V30 27205 C 2657.39 1.90533 0.661816 0
M  V30 27206 C 2657.71 0.895397 1.73902 0
M  V30 27207 O 2658.91 1.1157 2.47516 0
M  V30 27208 C 2657.37 3.38288 1.22838 0
M  V30 27209 C 2656.98 4.47618 0.185024 0
M  V30 27210 C 2658.72 3.80316 1.88575 0
M  V30 27211 C 2656.63 5.86462 0.76262 0
M  V30 27212 H 2655.56 0.71101 0.25096 0
M  V30 27213 H 2658.21 1.83317 -0.0819757 0
M  V30 27214 H 2656.59 3.40401 2.02344 0
M  V30 27215 H 2657.77 4.57049 -0.58679 0
M  V30 27216 H 2656.08 4.14726 -0.372962 0
M  V30 27217 H 2658.68 4.81397 2.32726 0
M  V30 27218 H 2659.02 3.14806 2.72402 0
M  V30 27219 H 2659.55 3.8058 1.15775 0
M  V30 27220 H 2656.29 6.55489 -0.0372865 0
M  V30 27221 H 2655.81 5.80659 1.50317 0
M  V30 27222 H 2657.49 6.34699 1.25565 0
M  V30 27223 N 2657.62 -0.254594 1.5553 0
M  V30 27224 C 2658.55 -1.31893 1.92682 0
M  V30 27225 C 2659.53 -1.50599 0.790824 0
M  V30 27226 O 2660.72 -1.63335 1.05048 0
M  V30 27227 C 2657.85 -2.67513 2.21482 0
M  V30 27228 C 2656.8 -2.63513 3.37261 0
M  V30 27229 C 2656.13 -4.02856 3.51583 0
M  V30 27230 C 2657.43 -2.2117 4.73161 0
M  V30 27231 H 2659.12 -1.01046 2.81833 0
M  V30 27232 H 2656.67 -0.484638 1.356 0
M  V30 27233 H 2658.62 -3.42099 2.46061 0
M  V30 27234 H 2657.35 -2.9998 1.29149 0
M  V30 27235 H 2656.01 -1.91384 3.12678 0
M  V30 27236 H 2655.65 -4.32576 2.56684 0
M  V30 27237 H 2655.35 -4.0107 4.29437 0
M  V30 27238 H 2656.88 -4.79154 3.78475 0
M  V30 27239 H 2658.29 -2.85486 4.97163 0
M  V30 27240 H 2656.69 -2.30511 5.54062 0
M  V30 27241 H 2657.76 -1.16324 4.70741 0
M  V30 27242 N 2659.1 -1.48777 -0.519925 0
M  V30 27243 C 2660.35 -1.57539 -1.27708 0
M  V30 27244 C 2660.68 -0.2529 -1.92546 0
M  V30 27245 O 2659.96 0.741989 -1.79791 0
M  V30 27246 C 2660.24 -2.72098 -2.3587 0
M  V30 27247 C 2660.09 -4.14083 -1.75657 0
M  V30 27248 C 2661.41 -2.82373 -3.3757 0
M  V30 27249 H 2658.53 -0.573442 -0.462961 0
M  V30 27250 H 2661.17 -1.8099 -0.578162 0
M  V30 27251 H 2659.32 -2.52233 -2.95484 0
M  V30 27252 H 2660.99 -4.45414 -1.20017 0
M  V30 27253 H 2659.24 -4.20613 -1.06146 0
M  V30 27254 H 2659.91 -4.90079 -2.5402 0
M  V30 27255 H 2662.38 -3.00398 -2.87924 0
M  V30 27256 H 2661.26 -3.6424 -4.10634 0
M  V30 27257 H 2661.52 -1.90943 -3.9874 0
M  V30 27258 N 2660.58 0.769564 -1.37534 0
M  V30 27259 C 2661.81 1.55868 -1.36061 0
M  V30 27260 C 2662.22 1.88724 0.0535109 0
M  V30 27261 O 2661.58 1.51611 1.01588 0
M  V30 27262 C 2661.63 2.86763 -2.20112 0
M  V30 27263 O 2661.35 2.55315 -3.56014 0
M  V30 27264 C 2662.85 3.80983 -2.26643 0
M  V30 27265 H 2660.07 0.482813 -0.465975 0
M  V30 27266 H 2662.62 0.953654 -1.80902 0
M  V30 27267 H 2660.77 3.43684 -1.78774 0
M  V30 27268 H 2661.19 3.39151 -4.00096 0
M  V30 27269 H 2662.66 4.69826 -2.89771 0
M  V30 27270 H 2663.14 4.20272 -1.27547 0
M  V30 27271 H 2663.74 3.29991 -2.68302 0
M  V30 27272 N 2662.06 1.22139 0.995977 0
M  V30 27273 C 2663.34 0.952672 1.70832 0
M  V30 27274 C 2663.72 -0.533083 2.04258 0
M  V30 27275 O 2663.06 -1.50031 1.72345 0
M  V30 27276 C 2663.27 1.84706 2.96116 0
M  V30 27277 C 2664.62 2.10131 3.68958 0
M  V30 27278 O 2665.65 1.82129 3.06117 0
M  V30 27279 O 2664.5 2.57539 4.82012 0
M  V30 27280 H 2661.6 0.35801 0.745492 0
M  V30 27281 H 2664.14 1.33111 1.0526 0
M  V30 27282 H 2662.92 2.85218 2.67893 0
M  V30 27283 H 2662.54 1.47002 3.69427 0
M  V30 27284 N 2663.54 -1.19233 1.03059 0
M  V30 27285 C 2664.78 -1.89239 0.729131 0
M  V30 27286 C 2665.12 -1.79526 -0.740541 0
M  V30 27287 O 2664.39 -1.18876 -1.53944 0
M  V30 27288 C 2664.67 -3.4011 1.1831 0
M  V30 27289 C 2664.53 -3.58686 2.71412 0
M  V30 27290 C 2665.85 -4.33396 0.765237 0
M  V30 27291 H 2662.96 -0.687188 0.26635 0
M  V30 27292 H 2665.61 -1.40339 1.28082 0
M  V30 27293 H 2663.76 -3.81887 0.71374 0
M  V30 27294 H 2665.43 -3.26068 3.26308 0
M  V30 27295 H 2663.67 -3.01681 3.11722 0
M  V30 27296 H 2664.34 -4.64501 2.98233 0
M  V30 27297 H 2666.82 -3.99343 1.16896 0
M  V30 27298 H 2665.69 -5.37544 1.11075 0
M  V30 27299 H 2665.96 -4.40849 -0.332295 0
M  V30 27300 N 2665.01 -0.808686 -1.3527 0
M  V30 27301 C 2666.24 -0.401511 -2.03476 0
M  V30 27302 C 2666.66 0.98025 -1.60539 0
M  V30 27303 O 2666.02 1.63517 -0.783068 0
M  V30 27304 C 2666.07 -0.495416 -3.57181 0
M  V30 27305 O 2665.17 0.490325 -4.09475 0
M  V30 27306 H 2664.52 -0.167377 -0.642558 0
M  V30 27307 H 2667.05 -1.09515 -1.72822 0
M  V30 27308 H 2667.06 -0.365983 -4.06355 0
M  V30 27309 H 2665.73 -1.50327 -3.87782 0
M  V30 27310 H 2664.31 0.320958 -3.71516 0
M  V30 27311 N 2666.49 1.47225 -0.562374 0
M  V30 27312 C 2667.74 2.0276 -0.0403117 0
M  V30 27313 C 2668.07 1.43526 1.30821 0
M  V30 27314 O 2667.35 0.592737 1.85248 0
M  V30 27315 C 2667.63 3.60069 0.0472477 0
M  V30 27316 C 2667.48 4.29726 -1.32873 0
M  V30 27317 C 2668.8 4.33521 0.758106 0
M  V30 27318 H 2665.92 0.736824 -0.0161235 0
M  V30 27319 H 2668.56 1.75597 -0.725659 0
M  V30 27320 H 2666.71 3.83343 0.630919 0
M  V30 27321 H 2668.38 4.17778 -1.956 0
M  V30 27322 H 2666.63 3.89879 -1.90202 0
M  V30 27323 H 2667.3 5.38346 -1.22013 0
M  V30 27324 H 2669.77 4.15271 0.262473 0
M  V30 27325 H 2668.65 5.43209 0.788345 0
M  V30 27326 H 2668.91 4.03112 1.8153 0
M  V30 27327 N 2667.97 0.299089 1.54736 0
M  V30 27328 C 2669.25 -0.363768 1.92188 0
M  V30 27329 C 2669.63 -1.71843 1.2261 0
M  V30 27330 O 2668.98 -2.25627 0.36118 0
M  V30 27331 C 2669.19 -0.480317 3.45679 0
M  V30 27332 C 2670.53 -0.752074 4.17886 0
M  V30 27333 O 2671.56 -0.564202 3.51703 0
M  V30 27334 O 2670.42 -1.11284 5.3505 0
M  V30 27335 H 2667.51 -0.203052 0.801685 0
M  V30 27336 H 2670.06 0.347007 1.66114 0
M  V30 27337 H 2668.83 0.472067 3.88442 0
M  V30 27338 H 2668.45 -1.23963 3.77781 0
M  V30 27339 N 2669.45 -1.57577 0.0267774 0
M  V30 27340 C 2670.67 -1.96409 -0.666193 0
M  V30 27341 C 2671.1 -0.9031 -1.65002 0
M  V30 27342 O 2670.46 0.136231 -1.80787 0
M  V30 27343 C 2670.5 -3.34338 -1.35095 0
M  V30 27344 O 2669.61 -3.30536 -2.46617 0
M  V30 27345 H 2668.95 -0.640471 -0.175194 0
M  V30 27346 H 2671.48 -2.04411 0.0879336 0
M  V30 27347 H 2671.49 -3.70516 -1.70828 0
M  V30 27348 H 2670.16 -4.11104 -0.629771 0
M  V30 27349 H 2668.74 -3.06072 -2.13013 0
M  V30 27350 N 2670.93 0.246342 -1.55663 0
M  V30 27351 C 2672.17 0.975747 -1.77784 0
M  V30 27352 C 2672.51 1.84952 -0.592136 0
M  V30 27353 O 2671.78 1.90139 0.409554 0
M  V30 27354 C 2672.06 1.83579 -3.09792 0
M  V30 27355 C 2671.92 0.990164 -4.38766 0
M  V30 27356 C 2673.24 2.81817 -3.38034 0
M  V30 27357 H 2670.35 0.353306 -0.646795 0
M  V30 27358 H 2673 0.246215 -1.88398 0
M  V30 27359 H 2671.15 2.45779 -3.00874 0
M  V30 27360 H 2672.82 0.386816 -4.59675 0
M  V30 27361 H 2671.06 0.29455 -4.32799 0
M  V30 27362 H 2671.73 1.62574 -5.27516 0
M  V30 27363 H 2674.21 2.29754 -3.46919 0
M  V30 27364 H 2673.08 3.39115 -4.31616 0
M  V30 27365 H 2673.35 3.58308 -2.58974 0
M  V30 27366 N 2672.4 1.4905 0.512027 0
M  V30 27367 C 2673.68 1.48476 1.27335 0
M  V30 27368 C 2674.06 0.206338 2.10089 0
M  V30 27369 O 2673.41 -0.811571 2.13602 0
M  V30 27370 C 2673.62 2.7573 2.13949 0
M  V30 27371 C 2674.97 3.2478 2.73501 0
M  V30 27372 O 2675.99 2.76771 2.24224 0
M  V30 27373 O 2674.85 4.08367 3.63178 0
M  V30 27374 H 2671.94 0.593772 0.575642 0
M  V30 27375 H 2674.49 1.61303 0.527204 0
M  V30 27376 H 2673.26 3.60275 1.52702 0
M  V30 27377 H 2672.89 2.6571 2.95777 0
M  V30 27378 N 2673.88 -0.762259 1.3794 0
M  V30 27379 C 2674.85 -1.85744 1.34282 0
M  V30 27380 C 2675.85 -1.58923 0.244997 0
M  V30 27381 O 2677.04 -1.66828 0.501394 0
M  V30 27382 C 2674.17 -3.23059 1.08838 0
M  V30 27383 H 2675.36 -1.90397 2.31709 0
M  V30 27384 H 2672.91 -0.963035 1.23107 0
M  V30 27385 H 2673.65 -3.24079 0.119824 0
M  V30 27386 H 2673.43 -3.4392 1.88312 0
M  V30 27387 H 2674.92 -4.03137 1.08953 0
M  V30 27388 N 2675.36 -1.22666 -0.989486 0
M  V30 27389 C 2676.32 -1.00109 -2.06181 0
M  V30 27390 C 2677.32 0.0337443 -1.60765 0
M  V30 27391 O 2678.51 -0.205102 -1.72988 0
M  V30 27392 C 2675.65 -0.512849 -3.3702 0
M  V30 27393 H 2676.84 -1.9526 -2.27626 0
M  V30 27394 H 2674.39 -1.04582 -1.16156 0
M  V30 27395 H 2675.13 0.44286 -3.21262 0
M  V30 27396 H 2674.91 -1.25949 -3.71321 0
M  V30 27397 H 2676.4 -0.375388 -4.15909 0
M  V30 27398 N 2676.84 1.18685 -1.0369 0
M  V30 27399 C 2677.8 2.20396 -0.629154 0
M  V30 27400 C 2678.8 1.57755 0.311467 0
M  V30 27401 O 2679.99 1.73928 0.0973801 0
M  V30 27402 C 2677.12 3.4081 0.0781632 0
M  V30 27403 H 2678.32 2.57984 -1.52919 0
M  V30 27404 H 2675.87 1.32503 -0.829011 0
M  V30 27405 H 2676.61 3.0875 0.992178 0
M  V30 27406 H 2676.39 3.87515 -0.597845 0
M  V30 27407 H 2677.88 4.1613 0.350082 0
M  V30 27408 N 2678.32 0.815849 1.34839 0
M  V30 27409 C 2679.59 0.32345 1.92907 0
M  V30 27410 C 2679.97 -1.18825 1.74481 0
M  V30 27411 O 2679.32 -1.99207 1.11932 0
M  V30 27412 C 2679.53 0.745012 3.40955 0
M  V30 27413 C 2680.88 0.739789 4.18106 0
M  V30 27414 O 2681.9 0.687141 3.49509 0
M  V30 27415 O 2680.76 0.806551 5.40516 0
M  V30 27416 H 2677.86 0.086779 0.822434 0
M  V30 27417 H 2680.4 0.900166 1.43858 0
M  V30 27418 H 2679.18 1.78652 3.48137 0
M  V30 27419 H 2678.8 0.143605 3.97341 0
M  V30 27420 N 2679.8 -1.46924 0.570174 0
M  V30 27421 C 2680.76 -2.28642 -0.159893 0
M  V30 27422 C 2681.76 -1.37686 -0.830614 0
M  V30 27423 O 2682.95 -1.60189 -0.684487 0
M  V30 27424 C 2680.08 -3.17729 -1.23535 0
M  V30 27425 H 2681.27 -2.94661 0.558087 0
M  V30 27426 H 2678.83 -1.52828 0.32763 0
M  V30 27427 H 2679.56 -2.56429 -1.98531 0
M  V30 27428 H 2679.35 -3.84683 -0.759058 0
M  V30 27429 H 2680.84 -3.79267 -1.74775 0
M  V30 27430 N 2681.27 -0.307291 -1.54575 0
M  V30 27431 C 2682.24 0.553185 -2.22424 0
M  V30 27432 C 2683.24 1.05637 -1.21233 0
M  V30 27433 O 2684.43 0.951394 -1.45925 0
M  V30 27434 C 2681.56 1.76659 -2.91555 0
M  V30 27435 H 2682.75 -0.0397011 -2.99874 0
M  V30 27436 H 2680.3 -0.0581903 -1.56192 0
M  V30 27437 H 2681.04 2.39915 -2.18201 0
M  V30 27438 H 2680.82 1.41337 -3.65741 0
M  V30 27439 H 2682.31 2.37777 -3.43296 0
M  V30 27440 N 2682.75 1.57561 -0.0351337 0
M  V30 27441 C 2684.17 1.56332 0.321306 0
M  V30 27442 C 2684.37 1.04132 1.72507 0
M  V30 27443 O 2683.42 0.690736 2.42868 0
M  V30 27444 C 2684.74 3.0025 0.164416 0
M  V30 27445 C 2686.28 3.12103 0.236731 0
M  V30 27446 C 2686.76 4.57871 0.10856 0
M  V30 27447 N 2688.25 4.62905 0.165351 0
M  V30 27448 C 2688.99 5.73329 0.0900498 0
M  V30 27449 N 2688.48 6.9279 -0.0366823 0
M  V30 27450 N 2690.27 5.61914 0.144473 0
M  V30 27451 H 2682.43 1.8982 -0.95301 0
M  V30 27452 H 2684.69 0.873426 -0.368553 0
M  V30 27453 H 2684.39 3.42415 -0.802806 0
M  V30 27454 H 2684.27 3.65501 0.93213 0
M  V30 27455 H 2686.66 2.69848 1.19442 0
M  V30 27456 H 2686.74 2.49562 -0.561463 0
M  V30 27457 H 2686.38 5.00809 -0.845732 0
M  V30 27458 H 2686.31 5.184 0.925694 0
M  V30 27459 H 2688.8 3.76982 0.263203 0
M  V30 27460 H 2689.11 7.72751 -0.0872845 0
M  V30 27461 H 2687.46 6.94963 -0.0715477 0
M  V30 27462 H 2690.65 4.67474 0.241924 0
M  V30 27463 H 2690.82 6.47948 0.0823274 0
M  V30 27464 N 2684.23 -0.238084 1.55791 0
M  V30 27465 C 2685.45 -0.9864 1.82442 0
M  V30 27466 C 2685.88 -1.77819 0.613345 0
M  V30 27467 O 2685.24 -1.75936 -0.437736 0
M  V30 27468 C 2685.29 -1.89295 3.0692 0
M  V30 27469 O 2684.39 -2.98596 2.84454 0
M  V30 27470 H 2683.73 -0.280207 0.60198 0
M  V30 27471 H 2686.26 -0.256402 2.02987 0
M  V30 27472 H 2686.27 -2.30593 3.36587 0
M  V30 27473 H 2684.95 -1.31084 3.94702 0
M  V30 27474 H 2683.52 -2.61363 2.65977 0
M  V30 27475 N 2685.71 -1.4932 -0.504115 0
M  V30 27476 C 2686.66 -1.66241 -1.62686 0
M  V30 27477 C 2687.65 -0.528377 -1.60949 0
M  V30 27478 O 2688.86 -0.707916 -1.65495 0
M  V30 27479 H 2685.23 -0.524143 -0.539238 0
M  V30 27480 H 2687.2 -2.60486 -1.45566 0
M  V30 27481 C 2685.95 -1.74333 -3.00838 0
M  V30 27482 H 2685.27 -2.60968 -3.02879 0
M  V30 27483 H 2686.71 -1.90208 -3.78942 0
M  V30 27484 C 2685.17 -0.487474 -3.33355 0
M  V30 27485 O 2685.7 0.388223 -3.9982 0
M  V30 27486 N 2683.91 -0.351357 -2.88468 0
M  V30 27487 H 2683.46 -1.06496 -2.34556 0
M  V30 27488 H 2683.41 0.487844 -3.10592 0
M  V30 27489 N 2687.19 0.754933 -1.38342 0
M  V30 27490 C 2688.6 1.05781 -1.1951 0
M  V30 27491 C 2688.8 2.01454 -0.0428359 0
M  V30 27492 O 2687.86 2.44976 0.611817 0
M  V30 27493 C 2689.17 1.63919 -2.52094 0
M  V30 27494 C 2690.72 1.76096 -2.58765 0
M  V30 27495 C 2691.19 2.37645 -3.91521 0
M  V30 27496 N 2692.68 2.45078 -3.93054 0
M  V30 27497 C 2693.42 2.93593 -4.92535 0
M  V30 27498 N 2692.92 3.42154 -6.02414 0
M  V30 27499 N 2694.71 2.92621 -4.79926 0
M  V30 27500 H 2686.86 0.120019 -2.12061 0
M  V30 27501 H 2689.12 0.115874 -0.940892 0
M  V30 27502 H 2688.83 1.01087 -3.36859 0
M  V30 27503 H 2688.7 2.62998 -2.70392 0
M  V30 27504 H 2691.09 2.38055 -1.74395 0
M  V30 27505 H 2691.17 0.757251 -2.44335 0
M  V30 27506 H 2690.81 1.7632 -4.76312 0
M  V30 27507 H 2690.74 3.38655 -4.03262 0
M  V30 27508 H 2693.24 2.10731 -3.13689 0
M  V30 27509 H 2693.55 3.77625 -6.74255 0
M  V30 27510 H 2691.89 3.40215 -6.06036 0
M  V30 27511 H 2695.08 2.53994 -3.93198 0
M  V30 27512 H 2695.26 3.30118 -5.57607 0
M  V30 27513 N 2688.66 1.23189 0.982967 0
M  V30 27514 C 2689.91 1.06401 1.72646 0
M  V30 27515 C 2690.24 -0.398528 1.90067 0
M  V30 27516 O 2689.52 -1.29515 1.45107 0
M  V30 27517 C 2689.8 1.78713 3.12624 0
M  V30 27518 C 2689.65 3.32624 3.02789 0
M  V30 27519 C 2690.97 1.54754 4.11994 0
M  V30 27520 H 2688.09 0.387929 0.626642 0
M  V30 27521 H 2690.73 1.5166 1.14452 0
M  V30 27522 H 2688.88 1.4024 3.62305 0
M  V30 27523 H 2690.56 3.80602 2.60652 0
M  V30 27524 H 2688.8 3.61789 2.39356 0
M  V30 27525 H 2689.47 3.78407 4.01886 0
M  V30 27526 H 2691.95 1.88192 3.7111 0
M  V30 27527 H 2690.82 2.0783 5.08033 0
M  V30 27528 H 2691.08 0.482326 4.39461 0
M  V30 27529 N 2690.14 -1.18133 1.04318 0
M  V30 27530 C 2691.37 -1.92112 0.768151 0
M  V30 27531 C 2691.78 -1.7632 -0.675026 0
M  V30 27532 O 2691.14 -1.09452 -1.46036 0
M  V30 27533 C 2691.19 -3.43446 1.12814 0
M  V30 27534 O 2690.91 -3.58743 2.51466 0
M  V30 27535 C 2692.41 -4.34519 0.877976 0
M  V30 27536 H 2689.63 -0.609812 0.279948 0
M  V30 27537 H 2692.18 -1.49857 1.39151 0
M  V30 27538 H 2690.33 -3.8348 0.549691 0
M  V30 27539 H 2690.75 -4.52443 2.65321 0
M  V30 27540 H 2692.22 -5.39247 1.17969 0
M  V30 27541 H 2692.7 -4.38801 -0.187162 0
M  V30 27542 H 2693.3 -4.00186 1.43984 0
M  V30 27543 N 2691.62 -0.822988 -1.34405 0
M  V30 27544 C 2692.87 -0.411701 -1.98577 0
M  V30 27545 C 2693.2 1.02262 -1.65095 0
M  V30 27546 O 2692.47 1.71225 -0.922611 0
M  V30 27547 C 2692.76 -0.614297 -3.54822 0
M  V30 27548 C 2692.61 -2.09473 -3.98046 0
M  V30 27549 C 2693.93 -0.0502984 -4.40071 0
M  V30 27550 H 2691.05 -0.15106 -0.721353 0
M  V30 27551 H 2693.69 -1.03556 -1.59299 0
M  V30 27552 H 2691.84 -0.0832457 -3.88411 0
M  V30 27553 H 2693.51 -2.68943 -3.7479 0
M  V30 27554 H 2691.76 -2.58516 -3.48356 0
M  V30 27555 H 2692.43 -2.1873 -5.06815 0
M  V30 27556 H 2694.9 -0.504026 -4.13036 0
M  V30 27557 H 2693.78 -0.221855 -5.48451 0
M  V30 27558 H 2694.04 1.04475 -4.29578 0
M  V30 27559 N 2693.1 1.4662 -0.577957 0
M  V30 27560 C 2694.35 2.02406 -0.0617234 0
M  V30 27561 C 2694.67 1.44999 1.29636 0
M  V30 27562 O 2693.93 0.603113 1.86175 0
M  V30 27563 C 2694.23 3.57351 0.0590204 0
M  V30 27564 C 2693.89 4.33775 -1.23085 0
M  V30 27565 C 2692.56 4.54373 -1.58424 0
M  V30 27566 C 2694.91 4.77694 -2.08465 0
M  V30 27567 C 2692.24 5.16142 -2.78952 0
M  V30 27568 C 2694.59 5.40794 -3.28214 0
M  V30 27569 C 2693.25 5.59621 -3.63841 0
M  V30 27570 H 2692.52 0.740656 -0.0225862 0
M  V30 27571 H 2695.17 1.76047 -0.75364 0
M  V30 27572 H 2693.47 3.8282 0.834037 0
M  V30 27573 H 2695.17 3.98187 0.474132 0
M  V30 27574 H 2691.76 4.18036 -0.945725 0
M  V30 27575 H 2695.94 4.6154 -1.82467 0
M  V30 27576 H 2691.2 5.2891 -3.06698 0
M  V30 27577 H 2695.37 5.73785 -3.94644 0
M  V30 27578 H 2693 6.07254 -4.57326 0
M  V30 27579 N 2694.58 0.315484 1.5441 0
M  V30 27580 C 2695.99 -0.174233 1.85885 0
M  V30 27581 C 2696.34 -1.52271 1.23726 0
M  V30 27582 O 2695.46 -2.09547 0.540283 0
M  V30 27583 C 2696.06 -0.322922 3.37258 0
M  V30 27584 C 2694.62 -0.756857 3.68712 0
M  V30 27585 C 2693.76 0.126244 2.77012 0
M  V30 27586 H 2696.72 0.536034 1.49373 0
M  V30 27587 H 2696.74 -1.15516 3.62541 0
M  V30 27588 H 2696.25 0.658669 3.8247 0
M  V30 27589 H 2694.35 -1.74848 3.29027 0
M  V30 27590 H 2694.46 -0.566207 4.75742 0
M  V30 27591 H 2692.83 -0.396875 2.51589 0
M  V30 27592 H 2693.61 1.10445 3.25049 0
M  V30 27593 N 2696.05 -1.5754 0.0434891 0
M  V30 27594 C 2697.3 -1.91562 -0.63142 0
M  V30 27595 C 2697.62 -0.92295 -1.72456 0
M  V30 27596 O 2698.82 -1.15494 -2.4571 0
M  V30 27597 C 2697.28 -3.402 -1.17441 0
M  V30 27598 C 2696.89 -4.47855 -0.113788 0
M  V30 27599 C 2698.63 -3.83267 -1.825 0
M  V30 27600 C 2696.54 -5.87601 -0.669222 0
M  V30 27601 H 2695.47 -0.714912 -0.239617 0
M  V30 27602 H 2698.12 -1.83163 0.111129 0
M  V30 27603 H 2696.5 -3.43577 -1.96903 0
M  V30 27604 H 2697.67 -4.56057 0.659428 0
M  V30 27605 H 2695.99 -4.14081 0.438894 0
M  V30 27606 H 2698.59 -4.85038 -2.25038 0
M  V30 27607 H 2698.93 -3.191 -2.6736 0
M  V30 27608 H 2699.46 -3.82374 -1.09706 0
M  V30 27609 H 2696.2 -6.55347 0.141564 0
M  V30 27610 H 2695.72 -5.82977 -1.4106 0
M  V30 27611 H 2697.4 -6.36616 -1.15451 0
M  V30 27612 N 2697.53 0.229818 -1.55915 0
M  V30 27613 C 2698.78 0.953534 -1.78191 0
M  V30 27614 C 2699.1 1.85196 -0.610536 0
M  V30 27615 O 2698.37 1.92317 0.372955 0
M  V30 27616 H 2696.95 0.355076 -0.657214 0
M  V30 27617 H 2699.61 0.243659 -1.93371 0
M  V30 27618 H 2698.71 1.56522 -2.70014 0
M  V30 27619 N 2699.01 1.49585 0.49619 0
M  V30 27620 C 2700.26 1.58561 1.24665 0
M  V30 27621 C 2700.57 0.279737 1.93589 0
M  V30 27622 O 2701.78 0.248095 2.70364 0
M  V30 27623 C 2700.23 2.79783 2.26384 0
M  V30 27624 C 2699.84 4.17148 1.63377 0
M  V30 27625 C 2701.59 2.98091 3.02228 0
M  V30 27626 C 2699.49 5.29587 2.63234 0
M  V30 27627 H 2698.42 0.590397 0.468985 0
M  V30 27628 H 2701.07 1.75979 0.519954 0
M  V30 27629 H 2699.46 2.55869 3.02237 0
M  V30 27630 H 2700.63 4.51218 0.934831 0
M  V30 27631 H 2698.95 4.04237 0.99905 0
M  V30 27632 H 2701.54 3.79264 3.76913 0
M  V30 27633 H 2701.89 2.08838 3.60129 0
M  V30 27634 H 2702.42 3.22067 2.3349 0
M  V30 27635 H 2699.16 6.20915 2.10108 0
M  V30 27636 H 2698.68 4.99965 3.31354 0
M  V30 27637 H 2700.36 5.59121 3.25566 0
M  V30 27638 N 2700.49 -0.747586 1.3874 0
M  V30 27639 C 2701.74 -1.50389 1.3501 0
M  V30 27640 C 2702.06 -1.94916 -0.0573931 0
M  V30 27641 O 2701.33 -1.68082 -1.00625 0
M  V30 27642 H 2699.91 -0.557857 0.496794 0
M  V30 27643 H 2702.57 -0.888289 1.7348 0
M  V30 27644 H 2701.67 -2.39196 2.00478 0
M  V30 27645 N 2701.97 -1.23709 -0.97642 0
M  V30 27646 C 2703.24 -0.979729 -1.69295 0
M  V30 27647 C 2703.62 0.500519 -2.05081 0
M  V30 27648 O 2702.97 1.4727 -1.7471 0
M  V30 27649 C 2703.18 -1.89394 -2.9314 0
M  V30 27650 C 2704.53 -2.15974 -3.65569 0
M  V30 27651 O 2705.55 -1.86976 -3.0318 0
M  V30 27652 O 2704.41 -2.65175 -4.77854 0
M  V30 27653 H 2701.51 -0.369825 -0.739702 0
M  V30 27654 H 2704.05 -1.34769 -1.03129 0
M  V30 27655 H 2702.82 -2.89443 -2.63322 0
M  V30 27656 H 2702.45 -1.5286 -3.67042 0
M  V30 27657 N 2703.44 1.17579 -1.04943 0
M  V30 27658 C 2704.86 1.3978 -0.770307 0
M  V30 27659 C 2705.06 1.91187 0.636383 0
M  V30 27660 O 2704.12 2.10188 1.39919 0
M  V30 27661 C 2705.43 2.39077 -1.82381 0
M  V30 27662 C 2706.98 2.52788 -1.84573 0
M  V30 27663 C 2707.45 3.55356 -2.88939 0
M  V30 27664 N 2708.94 3.62872 -2.87886 0
M  V30 27665 C 2709.68 4.41986 -3.65289 0
M  V30 27666 N 2709.17 5.24635 -4.5247 0
M  V30 27667 N 2710.97 4.36835 -3.5374 0
M  V30 27668 H 2703.12 0.825403 -1.95706 0
M  V30 27669 H 2705.38 0.425207 -0.847292 0
M  V30 27670 H 2705.09 2.08371 -2.83327 0
M  V30 27671 H 2704.96 3.38546 -1.66333 0
M  V30 27672 H 2707.35 2.82805 -0.842929 0
M  V30 27673 H 2707.43 1.53402 -2.04698 0
M  V30 27674 H 2707.07 3.26078 -3.89404 0
M  V30 27675 H 2707 4.5444 -2.66067 0
M  V30 27676 H 2709.49 3.0386 -2.24671 0
M  V30 27677 H 2709.81 5.82178 -5.08221 0
M  V30 27678 H 2708.15 5.24025 -4.56533 0
M  V30 27679 H 2711.34 3.71318 -2.85027 0
M  V30 27680 H 2711.52 4.98248 -4.1431 0
M  V30 27681 N 2704.92 0.830104 1.33967 0
M  V30 27682 C 2706.15 0.434178 2.01986 0
M  V30 27683 C 2706.56 -0.966682 1.6264 0
M  V30 27684 O 2705.9 -1.6382 0.83118 0
M  V30 27685 C 2705.97 0.465081 3.56479 0
M  V30 27686 C 2705.63 1.82052 4.19173 0
M  V30 27687 C 2706.63 2.78245 4.39176 0
M  V30 27688 C 2704.31 2.11097 4.55789 0
M  V30 27689 C 2706.31 4.01651 4.9493 0
M  V30 27690 C 2703.99 3.34761 5.11252 0
M  V30 27691 C 2704.99 4.29854 5.30767 0
M  V30 27692 O 2704.68 5.51332 5.85054 0
M  V30 27693 H 2704.41 0.171651 0.653844 0
M  V30 27694 H 2706.96 1.12174 1.72064 0
M  V30 27695 H 2705.19 -0.279216 3.85691 0
M  V30 27696 H 2706.88 0.0882048 4.05804 0
M  V30 27697 H 2707.65 2.57104 4.11245 0
M  V30 27698 H 2703.53 1.37878 4.39899 0
M  V30 27699 H 2707.07 4.75885 5.10078 0
M  V30 27700 H 2702.97 3.55762 5.38613 0
M  V30 27701 H 2703.74 5.52951 6.0348 0
M  V30 27702 N 2706.4 -1.46311 0.585725 0
M  V30 27703 C 2707.68 -1.95599 0.00545469 0
M  V30 27704 C 2708.06 -1.52837 -1.45617 0
M  V30 27705 O 2707.41 -0.780484 -2.14757 0
M  V30 27706 C 2707.62 -3.48532 0.180662 0
M  V30 27707 C 2708.96 -4.2457 0.0500537 0
M  V30 27708 O 2709.99 -3.56031 0.109652 0
M  V30 27709 O 2708.85 -5.46437 -0.0831265 0
M  V30 27710 H 2705.94 -0.825599 -0.0481136 0
M  V30 27711 H 2708.49 -1.56581 0.654255 0
M  V30 27712 H 2707.26 -3.72554 1.19663 0
M  V30 27713 H 2706.88 -3.94387 -0.504429 0
M  V30 27714 N 2707.88 -0.323668 -1.54241 0
M  V30 27715 C 2708.84 0.529563 -2.22998 0
M  V30 27716 C 2709.84 1.04345 -1.22347 0
M  V30 27717 O 2711.03 0.935863 -1.46926 0
M  V30 27718 C 2708.16 1.73557 -2.93412 0
M  V30 27719 H 2709.36 -0.0715045 -2.99815 0
M  V30 27720 H 2706.91 -0.0747533 -1.56121 0
M  V30 27721 H 2707.65 2.37587 -2.20733 0
M  V30 27722 H 2707.43 1.37449 -3.67219 0
M  V30 27723 H 2708.92 2.34122 -3.45799 0
M  V30 27724 N 2709.36 1.57515 -0.0518432 0
M  V30 27725 C 2710.32 2.10468 0.90751 0
M  V30 27726 C 2711.32 1.02442 1.23945 0
M  V30 27727 O 2712.51 1.28512 1.17602 0
M  V30 27728 C 2709.64 2.58948 2.21718 0
M  V30 27729 H 2710.84 2.96528 0.448457 0
M  V30 27730 H 2708.39 1.55059 0.19657 0
M  V30 27731 H 2709.12 1.76283 2.72203 0
M  V30 27732 H 2708.91 3.3789 1.98929 0
M  V30 27733 H 2710.4 3.00061 2.90436 0
M  V30 27734 N 2710.84 -0.221546 1.56035 0
M  V30 27735 C 2711.77 -1.29802 1.88902 0
M  V30 27736 C 2712.78 -1.43045 0.777294 0
M  V30 27737 O 2713.97 -1.43943 1.05559 0
M  V30 27738 C 2711.07 -2.67363 2.08255 0
M  V30 27739 C 2710.24 -2.76068 3.39272 0
M  V30 27740 C 2709.3 -3.94643 3.48056 0
M  V30 27741 O 2708.33 -3.82981 4.21087 0
M  V30 27742 N 2709.53 -5.08948 2.792 0
M  V30 27743 H 2712.29 -1.01933 2.81833 0
M  V30 27744 H 2709.86 -0.411584 1.56581 0
M  V30 27745 H 2711.85 -3.45069 2.11447 0
M  V30 27746 H 2710.42 -2.87832 1.21949 0
M  V30 27747 H 2709.64 -1.84839 3.48178 0
M  V30 27748 H 2710.93 -2.78853 4.2558 0
M  V30 27749 H 2710.32 -5.21318 2.19645 0
M  V30 27750 H 2708.88 -5.84695 2.88053 0
M  V30 27751 N 2712.31 -1.49846 -0.48825 0
M  V30 27752 C 2713.24 -1.70373 -1.59672 0
M  V30 27753 C 2714.22 -0.552501 -1.60877 0
M  V30 27754 O 2715.41 -0.789761 -1.77416 0
M  V30 27755 C 2712.54 -1.78205 -2.98094 0
M  V30 27756 C 2711.49 -2.93244 -3.11756 0
M  V30 27757 C 2710.82 -2.86201 -4.51656 0
M  V30 27758 C 2712.12 -4.34004 -2.90581 0
M  V30 27759 H 2713.81 -2.6318 -1.42747 0
M  V30 27760 H 2711.36 -1.26648 -0.685295 0
M  V30 27761 H 2713.31 -1.91151 -3.75552 0
M  V30 27762 H 2712.04 -0.820073 -3.16137 0
M  V30 27763 H 2710.7 -2.79922 -2.36727 0
M  V30 27764 H 2710.34 -1.87885 -4.66592 0
M  V30 27765 H 2710.04 -3.6342 -4.61735 0
M  V30 27766 H 2711.57 -3.01172 -5.31157 0
M  V30 27767 H 2712.98 -4.47942 -3.578 0
M  V30 27768 H 2711.38 -5.12543 -3.12121 0
M  V30 27769 H 2712.45 -4.47564 -1.86587 0
M  V30 27770 N 2713.79 0.740218 -1.39135 0
M  V30 27771 C 2715.21 1.04507 -1.20625 0
M  V30 27772 C 2715.41 2.01398 -0.0642005 0
M  V30 27773 O 2714.46 2.45611 0.5858 0
M  V30 27774 C 2715.78 1.61236 -2.53818 0
M  V30 27775 C 2717.32 1.73342 -2.60618 0
M  V30 27776 C 2717.8 2.33479 -3.94019 0
M  V30 27777 N 2719.29 2.40895 -3.95631 0
M  V30 27778 C 2720.03 2.88352 -4.95621 0
M  V30 27779 N 2719.52 3.35745 -6.06009 0
M  V30 27780 N 2721.31 2.87514 -4.83003 0
M  V30 27781 H 2713.47 0.0975203 -2.12176 0
M  V30 27782 H 2715.73 0.105888 -0.942068 0
M  V30 27783 H 2715.43 0.975085 -3.37913 0
M  V30 27784 H 2715.31 2.60115 -2.73166 0
M  V30 27785 H 2717.7 2.36192 -1.7691 0
M  V30 27786 H 2717.78 0.731293 -2.45124 0
M  V30 27787 H 2717.42 1.71258 -4.78156 0
M  V30 27788 H 2717.35 3.34359 -4.06831 0
M  V30 27789 H 2719.84 2.07392 -3.15907 0
M  V30 27790 H 2720.15 3.70452 -6.78222 0
M  V30 27791 H 2718.5 3.33768 -6.0961 0
M  V30 27792 H 2721.69 2.49809 -3.9587 0
M  V30 27793 H 2721.86 3.24186 -5.61077 0
M  V30 27794 N 2715.27 1.24225 0.969846 0
M  V30 27795 C 2716.52 1.07469 1.70685 0
M  V30 27796 C 2716.83 -0.386828 1.91737 0
M  V30 27797 O 2718.04 -0.674535 2.62987 0
M  V30 27798 C 2716.49 1.87477 3.07214 0
M  V30 27799 C 2716.1 3.38025 2.94012 0
M  V30 27800 C 2717.85 1.79244 3.84801 0
M  V30 27801 C 2715.75 4.10386 4.25837 0
M  V30 27802 H 2714.68 0.398547 0.64006 0
M  V30 27803 H 2717.33 1.48287 1.08089 0
M  V30 27804 H 2715.72 1.39472 3.70626 0
M  V30 27805 H 2716.89 3.93594 2.39625 0
M  V30 27806 H 2715.2 3.47187 2.29892 0
M  V30 27807 H 2717.8 2.30611 4.82413 0
M  V30 27808 H 2718.14 0.757269 4.09355 0
M  V30 27809 H 2718.68 2.24918 3.28111 0
M  V30 27810 H 2715.42 5.14253 4.06477 0
M  V30 27811 H 2714.94 3.59603 4.80048 0
M  V30 27812 H 2716.62 4.17265 4.94468 0
M  V30 27813 N 2716.75 -1.1702 1.05565 0
M  V30 27814 C 2717.68 -2.23347 0.681065 0
M  V30 27815 C 2718.66 -1.67006 -0.322954 0
M  V30 27816 O 2719.84 -1.9317 -0.199712 0
M  V30 27817 C 2716.97 -3.4725 0.0589663 0
M  V30 27818 C 2715.93 -4.16437 0.988155 0
M  V30 27819 C 2715.25 -5.34206 0.22974 0
M  V30 27820 C 2716.55 -4.68245 2.31396 0
M  V30 27821 H 2718.25 -2.54936 1.56997 0
M  V30 27822 H 2715.79 -1.22539 0.756324 0
M  V30 27823 H 2717.75 -4.20852 -0.214908 0
M  V30 27824 H 2716.47 -3.14939 -0.864913 0
M  V30 27825 H 2715.13 -3.44752 1.24666 0
M  V30 27826 H 2714.78 -4.98147 -0.697024 0
M  V30 27827 H 2714.48 -5.81435 0.848917 0
M  V30 27828 H 2716 -6.10589 -0.0367621 0
M  V30 27829 H 2717.42 -5.33464 2.09973 0
M  V30 27830 H 2715.81 -5.26067 2.88745 0
M  V30 27831 H 2716.88 -3.8485 2.94989 0
M  V30 27832 N 2718.23 -0.837197 -1.33524 0
M  V30 27833 C 2719.19 -0.274461 -2.27551 0
M  V30 27834 C 2720.19 0.555855 -1.50887 0
M  V30 27835 O 2721.38 0.369888 -1.70228 0
M  V30 27836 C 2718.51 0.613546 -3.35333 0
M  V30 27837 H 2719.7 -1.10413 -2.78835 0
M  V30 27838 H 2717.26 -0.610151 -1.43899 0
M  V30 27839 H 2717.99 1.46572 -2.89288 0
M  V30 27840 H 2717.78 0.0194652 -3.92095 0
M  V30 27841 H 2719.27 1.00061 -4.05435 0
M  V30 27842 N 2719.7 1.45999 -0.593476 0
M  V30 27843 C 2720.95 2.01929 -0.0830235 0
M  V30 27844 C 2721.27 1.46614 1.28567 0
M  V30 27845 O 2720.54 0.654942 1.84628 0
M  V30 27846 H 2719.12 0.746486 -0.0277013 0
M  V30 27847 H 2721.78 1.78972 -0.771688 0
M  V30 27848 H 2720.88 3.12092 -0.0221338 0
M  V30 27849 N 2721.18 0.331843 1.54067 0
M  V30 27850 C 2722.59 -0.154507 1.8606 0
M  V30 27851 C 2722.94 -1.5095 1.25334 0
M  V30 27852 O 2722.07 -2.08962 0.562478 0
M  V30 27853 C 2722.66 -0.287133 3.37581 0
M  V30 27854 C 2721.22 -0.717708 3.69494 0
M  V30 27855 C 2720.37 0.155617 2.76863 0
M  V30 27856 H 2723.32 0.551847 1.48796 0
M  V30 27857 H 2723.34 -1.11664 3.63746 0
M  V30 27858 H 2722.85 0.699198 3.8175 0
M  V30 27859 H 2720.96 -1.71349 3.30863 0
M  V30 27860 H 2721.07 -0.515716 4.76316 0
M  V30 27861 H 2719.43 -0.370169 2.51996 0
M  V30 27862 H 2720.22 1.13887 3.23859 0
M  V30 27863 N 2722.66 -1.57485 0.0601958 0
M  V30 27864 C 2723.62 -2.10947 -0.896336 0
M  V30 27865 C 2724.62 -1.03098 -1.234 0
M  V30 27866 O 2725.81 -1.29134 -1.16919 0
M  V30 27867 C 2722.95 -2.6012 -2.20342 0
M  V30 27868 H 2724.14 -2.96762 -0.432726 0
M  V30 27869 H 2721.69 -1.55161 -0.188344 0
M  V30 27870 H 2722.43 -1.77724 -2.71265 0
M  V30 27871 H 2722.21 -3.3894 -1.97134 0
M  V30 27872 H 2723.7 -3.01597 -2.8884 0
M  V30 27873 N 2724.14 0.213268 -1.5615 0
M  V30 27874 C 2725.39 0.93458 -1.79193 0
M  V30 27875 C 2725.71 1.84538 -0.630145 0
M  V30 27876 O 2724.98 1.92702 0.352536 0
M  V30 27877 H 2723.56 0.348085 -0.660943 0
M  V30 27878 H 2726.22 0.223136 -1.93618 0
M  V30 27879 H 2725.32 1.53649 -2.71658 0
M  V30 27880 N 2725.62 1.50103 0.480296 0
M  V30 27881 C 2726.89 1.51144 1.24157 0
M  V30 27882 C 2727.27 0.250855 2.09604 0
M  V30 27883 O 2726.62 -0.76608 2.15275 0
M  V30 27884 C 2726.83 2.80206 2.08052 0
M  V30 27885 C 2728.18 3.30509 2.6655 0
M  V30 27886 O 2729.2 2.81465 2.18303 0
M  V30 27887 O 2728.06 4.15979 3.54435 0
M  V30 27888 H 2725.16 0.605849 0.562918 0
M  V30 27889 H 2727.7 1.62385 0.49287 0
M  V30 27890 H 2726.47 3.63433 1.45026 0
M  V30 27891 H 2726.1 2.71924 2.90074 0
M  V30 27892 N 2727.09 -0.732829 1.39526 0
M  V30 27893 C 2728.32 -1.52714 1.40332 0
M  V30 27894 C 2728.74 -1.881 0.000319637 0
M  V30 27895 O 2728.1 -1.52064 -0.987235 0
M  V30 27896 C 2728.15 -2.78988 2.28468 0
M  V30 27897 O 2727.25 -3.75 1.71606 0
M  V30 27898 H 2726.6 -0.461101 0.477789 0
M  V30 27899 H 2729.13 -0.903964 1.83547 0
M  V30 27900 H 2729.14 -3.277 2.43056 0
M  V30 27901 H 2727.81 -2.52566 3.30429 0
M  V30 27902 H 2726.39 -3.33778 1.66273 0
M  V30 27903 N 2728.57 -1.24737 -0.963244 0
M  V30 27904 C 2729.52 -1.04142 -2.07984 0
M  V30 27905 C 2730.51 0.0250258 -1.69382 0
M  V30 27906 O 2731.72 -0.129894 -1.79531 0
M  V30 27907 H 2728.1 -0.31978 -0.680621 0
M  V30 27908 H 2730.07 -1.98822 -2.22514 0
M  V30 27909 C 2728.82 -0.667675 -3.41229 0
M  V30 27910 H 2728.14 -1.48007 -3.71395 0
M  V30 27911 H 2729.58 -0.56321 -4.20243 0
M  V30 27912 C 2728.04 0.625589 -3.31041 0
M  V30 27913 O 2728.57 1.67009 -3.65337 0
M  V30 27914 N 2726.77 0.607983 -2.84169 0
M  V30 27915 H 2726.32 -0.242368 -2.56457 0
M  V30 27916 H 2726.28 1.47347 -2.77734 0
M  V30 27917 N 2730.05 1.16459 -1.06184 0
M  V30 27918 C 2731.3 1.8724 -0.779048 0
M  V30 27919 C 2731.63 1.81426 0.692683 0
M  V30 27920 O 2730.9 1.22916 1.50738 0
M  V30 27921 C 2731.19 3.36853 -1.27286 0
M  V30 27922 C 2731.04 3.51364 -2.80827 0
M  V30 27923 C 2732.36 4.31215 -0.879875 0
M  V30 27924 H 2729.48 0.679884 -0.284476 0
M  V30 27925 H 2732.12 1.36894 -1.31758 0
M  V30 27926 H 2730.27 3.79861 -0.814739 0
M  V30 27927 H 2731.94 3.17302 -3.34839 0
M  V30 27928 H 2730.19 2.9331 -3.19611 0
M  V30 27929 H 2730.86 4.56431 -3.10443 0
M  V30 27930 H 2733.33 3.96103 -1.27443 0
M  V30 27931 H 2732.21 5.3441 -1.25288 0
M  V30 27932 H 2732.47 4.41575 0.215295 0
M  V30 27933 N 2731.53 0.844266 1.33079 0
M  V30 27934 C 2732.77 0.44324 1.97897 0
M  V30 27935 C 2733.11 -0.996221 1.66701 0
M  V30 27936 O 2732.38 -1.69736 0.949734 0
M  V30 27937 C 2732.67 0.670668 3.53799 0
M  V30 27938 C 2732.52 2.15779 3.94664 0
M  V30 27939 C 2733.84 0.120304 4.39936 0
M  V30 27940 H 2730.96 0.162517 0.718858 0
M  V30 27941 H 2733.6 1.06078 1.57631 0
M  V30 27942 H 2731.75 0.145028 3.88229 0
M  V30 27943 H 2733.42 2.74871 3.70464 0
M  V30 27944 H 2731.66 2.64026 3.44199 0
M  V30 27945 H 2732.33 2.26765 5.03271 0
M  V30 27946 H 2734.81 0.569672 4.12182 0
M  V30 27947 H 2733.69 0.309081 5.48029 0
M  V30 27948 H 2733.95 -0.976271 4.31186 0
M  V30 27949 N 2733.01 -1.45682 0.60121 0
M  V30 27950 C 2733.95 -2.30481 -0.121356 0
M  V30 27951 C 2734.92 -1.41725 -0.866207 0
M  V30 27952 O 2736.11 -1.7066 -0.85321 0
M  V30 27953 C 2733.25 -3.26523 -1.11698 0
M  V30 27954 C 2732.36 -4.30381 -0.373665 0
M  V30 27955 C 2731.5 -5.13536 -1.35845 0
M  V30 27956 C 2730.54 -6.09127 -0.602582 0
M  V30 27957 N 2729.67 -6.85085 -1.53633 0
M  V30 27958 H 2734.51 -2.91736 0.607783 0
M  V30 27959 H 2732.05 -1.43763 0.311527 0
M  V30 27960 H 2734.01 -3.80667 -1.70729 0
M  V30 27961 H 2732.64 -2.67036 -1.81361 0
M  V30 27962 H 2731.69 -3.78948 0.332028 0
M  V30 27963 H 2733 -4.9833 0.216388 0
M  V30 27964 H 2732.16 -5.72049 -2.02101 0
M  V30 27965 H 2730.89 -4.45591 -1.98243 0
M  V30 27966 H 2729.9 -5.49751 0.0736448 0
M  V30 27967 H 2731.12 -6.79098 0.016266 0
M  V30 27968 H 2729.07 -6.19833 -2.14808 0
M  V30 27969 H 2728.99 -7.49363 -0.999557 0
M  V30 27970 H 2730.26 -7.48143 -2.18867 0
M  V30 27971 N 2734.48 -0.340009 -1.53889 0
M  V30 27972 C 2735.41 0.510816 -2.27844 0
M  V30 27973 C 2736.4 1.1056 -1.29269 0
M  V30 27974 O 2737.58 1.12766 -1.58106 0
M  V30 27975 C 2734.71 1.66367 -3.0486 0
M  V30 27976 C 2733.66 1.19739 -4.10909 0
M  V30 27977 C 2732.99 2.43848 -4.75859 0
M  V30 27978 C 2734.29 0.30041 -5.21435 0
M  V30 27979 H 2735.98 -0.10612 -2.99212 0
M  V30 27980 H 2733.53 -0.0524786 -1.43904 0
M  V30 27981 H 2735.48 2.26531 -3.55333 0
M  V30 27982 H 2734.21 2.30745 -2.31137 0
M  V30 27983 H 2732.87 0.618591 -3.61343 0
M  V30 27984 H 2732.51 3.06626 -3.98735 0
M  V30 27985 H 2732.21 2.13333 -5.47506 0
M  V30 27986 H 2733.74 3.04744 -5.29115 0
M  V30 27987 H 2735.15 0.80879 -5.67566 0
M  V30 27988 H 2733.55 0.0873021 -6.00036 0
M  V30 27989 H 2734.62 -0.664406 -4.80327 0
M  V30 27990 N 2735.96 1.57451 -0.0685468 0
M  V30 27991 C 2736.9 2.09514 0.929336 0
M  V30 27992 C 2737.91 1.02659 1.26353 0
M  V30 27993 O 2739.1 1.30181 1.22128 0
M  V30 27994 C 2736.2 2.53781 2.24608 0
M  V30 27995 C 2735.37 3.8417 2.09122 0
M  V30 27996 C 2734.43 4.14565 3.24072 0
M  V30 27997 O 2733.46 4.84215 2.99206 0
M  V30 27998 N 2734.66 3.67853 4.49071 0
M  V30 27999 H 2737.42 2.95752 0.484849 0
M  V30 28000 H 2734.98 1.61475 0.117262 0
M  V30 28001 H 2736.98 2.71178 3.00408 0
M  V30 28002 H 2735.55 1.72697 2.60566 0
M  V30 28003 H 2734.77 3.76185 1.17808 0
M  V30 28004 H 2736.05 4.69524 1.96021 0
M  V30 28005 H 2735.45 3.11579 4.7216 0
M  V30 28006 H 2734.01 3.90456 5.21908 0
M  V30 28007 N 2737.44 -0.204984 1.56261 0
M  V30 28008 C 2738.86 -0.555406 1.49624 0
M  V30 28009 C 2739.06 -1.86342 0.766752 0
M  V30 28010 O 2738.11 -2.5055 0.313202 0
M  V30 28011 C 2739.43 -0.619296 2.94254 0
M  V30 28012 C 2740.97 -0.708802 3.04869 0
M  V30 28013 C 2741.45 -0.80389 4.5089 0
M  V30 28014 N 2742.94 -0.867678 4.55001 0
M  V30 28015 C 2743.68 -0.96125 5.65285 0
M  V30 28016 N 2743.17 -1.01774 6.85284 0
M  V30 28017 N 2744.96 -0.997674 5.53175 0
M  V30 28018 H 2737.12 0.653129 2.02109 0
M  V30 28019 H 2739.38 0.231382 0.919329 0
M  V30 28020 H 2739.08 0.27252 3.50643 0
M  V30 28021 H 2738.96 -1.47734 3.47065 0
M  V30 28022 H 2741.35 -1.59105 2.48535 0
M  V30 28023 H 2741.43 0.17525 2.55199 0
M  V30 28024 H 2741.07 0.073969 5.07846 0
M  V30 28025 H 2741 -1.7036 4.98282 0
M  V30 28026 H 2743.49 -0.83367 3.6859 0
M  V30 28027 H 2743.8 -1.08938 7.65083 0
M  V30 28028 H 2742.15 -0.986585 6.87962 0
M  V30 28029 H 2745.34 -0.950312 4.58352 0
M  V30 28030 H 2745.51 -1.06714 6.39153 0
M  V30 28031 N 2738.92 -1.50356 -0.472329 0
M  V30 28032 C 2740.17 -1.60524 -1.22127 0
M  V30 28033 C 2740.48 -0.3105 -1.9312 0
M  V30 28034 O 2741.69 -0.291076 -2.69935 0
M  V30 28035 C 2740.14 -2.83349 -2.21904 0
M  V30 28036 C 2739.75 -4.19694 -1.5672 0
M  V30 28037 C 2741.5 -3.02862 -2.97448 0
M  V30 28038 C 2739.4 -5.33707 -2.54775 0
M  V30 28039 H 2738.33 -0.597784 -0.459533 0
M  V30 28040 H 2740.98 -1.76784 -0.491891 0
M  V30 28041 H 2739.37 -2.60645 -2.98128 0
M  V30 28042 H 2740.54 -4.52648 -0.862928 0
M  V30 28043 H 2738.85 -4.05776 -0.934613 0
M  V30 28044 H 2741.45 -3.85212 -3.70831 0
M  V30 28045 H 2741.79 -2.14541 -3.56761 0
M  V30 28046 H 2742.33 -3.25741 -2.28336 0
M  V30 28047 H 2739.07 -6.24179 -2.00203 0
M  V30 28048 H 2738.59 -5.05173 -3.23358 0
M  V30 28049 H 2740.27 -5.64229 -3.16629 0
M  V30 28050 N 2740.4 0.725419 -1.39912 0
M  V30 28051 C 2741.31 1.86978 -1.41691 0
M  V30 28052 C 2742.32 1.71205 -0.31061 0
M  V30 28053 O 2743.5 1.93641 -0.553624 0
M  V30 28054 C 2740.56 3.22674 -1.26817 0
M  V30 28055 C 2739.63 3.50771 -2.47504 0
M  V30 28056 C 2738.86 4.79993 -2.33329 0
M  V30 28057 O 2739.08 5.54392 -1.34185 0
M  V30 28058 O 2738.02 5.08205 -3.22507 0
M  V30 28059 H 2741.84 1.88432 -2.38174 0
M  V30 28060 H 2739.43 0.874527 -1.2113 0
M  V30 28061 H 2741.31 4.03747 -1.20691 0
M  V30 28062 H 2739.98 3.21969 -0.334345 0
M  V30 28063 H 2738.89 2.69747 -2.59206 0
M  V30 28064 H 2740.22 3.56264 -3.39612 0
M  V30 28065 N 2741.88 1.25246 0.956615 0
M  V30 28066 C 2743.15 1.00654 1.67715 0
M  V30 28067 C 2743.53 -0.46783 2.05851 0
M  V30 28068 O 2742.88 -1.44472 1.77031 0
M  V30 28069 C 2743.09 1.94034 2.9009 0
M  V30 28070 C 2744.44 2.21763 3.62086 0
M  V30 28071 O 2745.46 1.91776 3.00167 0
M  V30 28072 O 2744.32 2.72744 4.73575 0
M  V30 28073 H 2741.42 0.381546 0.733724 0
M  V30 28074 H 2743.96 1.36392 1.00972 0
M  V30 28075 H 2742.73 2.93596 2.58683 0
M  V30 28076 H 2742.36 1.5868 3.64563 0
M  V30 28077 N 2743.35 -1.15894 1.068 0
M  V30 28078 C 2744.28 -2.22612 0.704716 0
M  V30 28079 C 2745.26 -1.67339 -0.305222 0
M  V30 28080 O 2746.45 -1.93371 -0.179213 0
M  V30 28081 C 2743.58 -3.47168 0.0957935 0
M  V30 28082 C 2742.53 -4.15365 1.03227 0
M  V30 28083 C 2741.86 -5.33933 0.286386 0
M  V30 28084 C 2743.16 -4.65764 2.3635 0
M  V30 28085 H 2744.85 -2.53256 1.59693 0
M  V30 28086 H 2742.4 -1.2173 0.769278 0
M  V30 28087 H 2744.35 -4.21056 -0.170259 0
M  V30 28088 H 2743.08 -3.15839 -0.831461 0
M  V30 28089 H 2741.74 -3.43411 1.28315 0
M  V30 28090 H 2741.38 -4.98858 -0.644149 0
M  V30 28091 H 2741.08 -5.80502 0.910538 0
M  V30 28092 H 2742.61 -6.10594 0.0280011 0
M  V30 28093 H 2744.02 -5.31207 2.15619 0
M  V30 28094 H 2742.42 -5.22975 2.94308 0
M  V30 28095 H 2743.49 -3.817 2.99054 0
M  V30 28096 N 2744.83 -0.851312 -1.32629 0
M  V30 28097 C 2746.24 -0.508132 -1.79652 0
M  V30 28098 C 2746.59 0.973785 -1.70329 0
M  V30 28099 O 2745.72 1.75942 -1.25989 0
M  V30 28100 C 2746.31 -0.915573 -3.26194 0
M  V30 28101 C 2744.87 -0.624342 -3.71186 0
M  V30 28102 C 2744.02 -1.11714 -2.53802 0
M  V30 28103 H 2746.97 -1.03884 -1.19974 0
M  V30 28104 H 2746.99 -0.230602 -3.79801 0
M  V30 28105 H 2746.5 -1.99417 -3.32948 0
M  V30 28106 H 2744.6 0.443672 -3.69949 0
M  V30 28107 H 2744.72 -1.18829 -4.6413 0
M  V30 28108 H 2743.08 -0.537527 -2.48963 0
M  V30 28109 H 2743.86 -2.20277 -2.63311 0
M  V30 28110 N 2746.31 1.45361 -0.608928 0
M  V30 28111 C 2747.54 2.06602 -0.111049 0
M  V30 28112 C 2747.95 1.45334 1.20513 0
M  V30 28113 O 2747.31 0.568008 1.73436 0
M  V30 28114 C 2747.36 3.61484 0.0336244 0
M  V30 28115 O 2747.08 4.20465 -1.23048 0
M  V30 28116 C 2748.58 4.39713 0.562805 0
M  V30 28117 H 2745.8 0.667395 -0.0694571 0
M  V30 28118 H 2748.35 1.86585 -0.83704 0
M  V30 28119 H 2746.5 3.80839 0.709949 0
M  V30 28120 H 2746.92 5.13656 -1.06103 0
M  V30 28121 H 2748.39 5.48584 0.613117 0
M  V30 28122 H 2748.87 4.09589 1.58535 0
M  V30 28123 H 2749.47 4.25226 -0.0795201 0
M  V30 28124 N 2747.79 0.348166 1.53706 0
M  V30 28125 C 2748.72 -0.549628 2.21482 0
M  V30 28126 C 2749.7 -1.09669 1.20048 0
M  V30 28127 O 2750.88 -1.15609 1.48885 0
M  V30 28128 C 2748.01 -1.75659 2.89589 0
M  V30 28129 C 2747.06 -1.33857 4.0495 0
M  V30 28130 S 2747.89 -0.354483 5.34325 0
M  V30 28131 C 2749.04 -1.56817 6.05937 0
M  V30 28132 H 2749.28 0.0260278 2.97289 0
M  V30 28133 H 2746.81 0.132243 1.53833 0
M  V30 28134 H 2748.77 -2.449 3.29445 0
M  V30 28135 H 2747.43 -2.30347 2.13539 0
M  V30 28136 H 2746.62 -2.23861 4.51556 0
M  V30 28137 H 2746.22 -0.725586 3.66894 0
M  V30 28138 H 2748.52 -2.50194 6.2961 0
M  V30 28139 H 2749.46 -1.14382 6.98801 0
M  V30 28140 H 2749.87 -1.76632 5.36154 0
M  V30 28141 N 2749.27 -1.57412 0.0768958 0
M  V30 28142 C 2750.51 -1.93969 -0.591927 0
M  V30 28143 C 2750.84 -0.957529 -1.68953 0
M  V30 28144 O 2750.12 0.0124334 -1.94496 0
M  V30 28145 C 2750.4 -3.40764 -1.16412 0
M  V30 28146 C 2750.26 -4.49741 -0.0728142 0
M  V30 28147 C 2751.57 -3.88483 -2.06807 0
M  V30 28148 H 2748.69 -0.705337 -0.213703 0
M  V30 28149 H 2751.34 -1.89454 0.143903 0
M  V30 28150 H 2749.49 -3.44743 -1.79122 0
M  V30 28151 H 2751.16 -4.57882 0.560526 0
M  V30 28152 H 2749.4 -4.29687 0.595934 0
M  V30 28153 H 2750.07 -5.49605 -0.513658 0
M  V30 28154 H 2752.55 -3.86542 -1.54027 0
M  V30 28155 H 2751.42 -4.91797 -2.43776 0
M  V30 28156 H 2751.68 -3.26719 -2.97838 0
M  V30 28157 N 2750.74 0.196695 -1.56368 0
M  V30 28158 C 2751.97 0.933575 -1.8464 0
M  V30 28159 C 2752.39 1.76918 -0.659195 0
M  V30 28160 O 2751.74 1.78666 0.372111 0
M  V30 28161 C 2751.8 1.83103 -3.11698 0
M  V30 28162 O 2751.52 1.02917 -4.2584 0
M  V30 28163 C 2753.02 2.67973 -3.53137 0
M  V30 28164 H 2750.24 0.272463 -0.613193 0
M  V30 28165 H 2752.78 0.204429 -2.03476 0
M  V30 28166 H 2750.94 2.51382 -2.94764 0
M  V30 28167 H 2751.35 1.6406 -4.98181 0
M  V30 28168 H 2752.82 3.26604 -4.4501 0
M  V30 28169 H 2753.3 3.41603 -2.76051 0
M  V30 28170 H 2753.91 2.05068 -3.72595 0
M  V30 28171 N 2752.22 1.50604 0.464349 0
M  V30 28172 C 2753.15 1.72892 1.56941 0
M  V30 28173 C 2754.13 0.578025 1.59978 0
M  V30 28174 O 2755.32 0.817886 1.76137 0
M  V30 28175 C 2752.45 1.82925 2.95222 0
M  V30 28176 C 2751.4 2.98167 3.07051 0
M  V30 28177 C 2750.73 2.9335 4.47045 0
M  V30 28178 C 2752.03 4.38572 2.8364 0
M  V30 28179 H 2753.72 2.65417 1.38542 0
M  V30 28180 H 2751.27 1.27722 0.665059 0
M  V30 28181 H 2753.22 1.97101 3.72464 0
M  V30 28182 H 2751.95 0.870264 3.14792 0
M  V30 28183 H 2750.6 2.83652 2.32243 0
M  V30 28184 H 2750.25 1.95284 4.63544 0
M  V30 28185 H 2749.95 3.7072 4.55895 0
M  V30 28186 H 2751.48 3.09584 5.26298 0
M  V30 28187 H 2752.89 4.53578 3.50628 0
M  V30 28188 H 2751.29 5.17444 3.03928 0
M  V30 28189 H 2752.36 4.50475 1.79443 0
M  V30 28190 N 2753.7 -0.717989 1.40295 0
M  V30 28191 C 2754.95 -1.47491 1.38169 0
M  V30 28192 C 2755.27 -1.94993 -0.0160357 0
M  V30 28193 O 2754.54 -1.70178 -0.970367 0
M  V30 28194 H 2753.12 -0.547194 0.508515 0
M  V30 28195 H 2755.78 -0.851291 1.75326 0
M  V30 28196 H 2754.88 -2.3489 2.05507 0
M  V30 28197 N 2755.18 -1.25752 -0.94996 0
M  V30 28198 C 2756.13 -1.06342 -2.06867 0
M  V30 28199 C 2757.12 0.00705923 -1.69399 0
M  V30 28200 O 2758.33 -0.148929 -1.79383 0
M  V30 28201 H 2754.7 -0.326981 -0.677191 0
M  V30 28202 H 2756.67 -2.01171 -2.20393 0
M  V30 28203 C 2755.42 -0.703829 -3.40502 0
M  V30 28204 H 2754.74 -1.51937 -3.69804 0
M  V30 28205 H 2756.18 -0.60775 -4.19622 0
M  V30 28206 C 2754.64 0.590442 -3.31686 0
M  V30 28207 O 2755.17 1.63125 -3.67087 0
M  V30 28208 N 2753.38 0.577809 -2.84798 0
M  V30 28209 H 2752.93 -0.269555 -2.56186 0
M  V30 28210 H 2752.88 1.44393 -2.79281 0
M  V30 28211 N 2756.66 1.15326 -1.07413 0
M  V30 28212 C 2757.88 1.90549 -0.818889 0
M  V30 28213 C 2758.31 1.77513 0.622163 0
M  V30 28214 O 2757.66 1.10826 1.43482 0
M  V30 28215 C 2757.71 3.38875 -1.23273 0
M  V30 28216 O 2756.82 4.1066 -0.378418 0
M  V30 28217 H 2756.16 0.593233 -0.29828 0
M  V30 28218 H 2758.69 1.46043 -1.43292 0
M  V30 28219 H 2758.7 3.8967 -1.20919 0
M  V30 28220 H 2757.37 3.47682 -2.28232 0
M  V30 28221 H 2755.95 3.69996 -0.464502 0
M  V30 28222 N 2758.13 0.858334 1.32176 0
M  V30 28223 C 2759.38 0.463518 1.97124 0
M  V30 28224 C 2759.71 -0.981675 1.67909 0
M  V30 28225 O 2758.96 -1.70437 0.961747 0
M  V30 28226 C 2759.26 0.65372 3.51371 0
M  V30 28227 C 2758.93 2.06994 4.0058 0
M  V30 28228 C 2757.59 2.45727 4.13729 0
M  V30 28229 C 2759.94 2.99409 4.26619 0
M  V30 28230 C 2757.27 3.7614 4.50262 0
M  V30 28231 C 2759.62 4.29324 4.64611 0
M  V30 28232 C 2758.29 4.67987 4.75966 0
M  V30 28233 H 2757.56 0.169613 0.721327 0
M  V30 28234 H 2760.2 1.08909 1.57515 0
M  V30 28235 H 2758.51 -0.0550639 3.91761 0
M  V30 28236 H 2760.21 0.328234 3.99654 0
M  V30 28237 H 2756.8 1.75918 3.90833 0
M  V30 28238 H 2760.98 2.70715 4.15965 0
M  V30 28239 H 2756.24 4.05873 4.57249 0
M  V30 28240 H 2760.41 5.00994 4.83713 0
M  V30 28241 H 2758.04 5.69084 5.04031 0
M  V30 28242 N 2759.61 -1.45036 0.616628 0
M  V30 28243 C 2760.54 -2.33349 -0.0840377 0
M  V30 28244 C 2761.52 -1.47362 -0.849615 0
M  V30 28245 O 2762.71 -1.76114 -0.818376 0
M  V30 28246 C 2759.84 -3.30212 -1.07599 0
M  V30 28247 C 2758.79 -4.25904 -0.423021 0
M  V30 28248 C 2758.12 -5.12526 -1.52385 0
M  V30 28249 C 2759.42 -5.18093 0.661549 0
M  V30 28250 H 2761.11 -2.92184 0.653385 0
M  V30 28251 H 2758.66 -1.40498 0.315658 0
M  V30 28252 H 2760.61 -3.90869 -1.57479 0
M  V30 28253 H 2759.34 -2.69555 -1.84412 0
M  V30 28254 H 2757.99 -3.66559 0.0549944 0
M  V30 28255 H 2757.64 -4.48231 -2.28249 0
M  V30 28256 H 2757.34 -5.77356 -1.09241 0
M  V30 28257 H 2758.87 -5.76052 -2.02474 0
M  V30 28258 H 2760.28 -5.7277 0.246453 0
M  V30 28259 H 2758.68 -5.91449 1.01527 0
M  V30 28260 H 2759.75 -4.59978 1.53454 0
M  V30 28261 N 2761.09 -0.356312 -1.53519 0
M  V30 28262 C 2762.04 0.510776 -2.22205 0
M  V30 28263 C 2763.02 1.05603 -1.21395 0
M  V30 28264 O 2764.22 0.987613 -1.46885 0
M  V30 28265 C 2761.35 1.65472 -3.00789 0
M  V30 28266 C 2760.43 1.12279 -4.08967 0
M  V30 28267 N 2760.82 0.313102 -5.0483 0
M  V30 28268 C 2759.12 1.39849 -4.23507 0
M  V30 28269 C 2759.82 0.02293 -5.81695 0
M  V30 28270 N 2758.8 0.618049 -5.40075 0
M  V30 28271 H 2762.6 -0.114763 -2.93676 0
M  V30 28272 H 2760.11 -0.163839 -1.61571 0
M  V30 28273 H 2762.11 2.288 -3.48506 0
M  V30 28274 H 2760.77 2.28341 -2.30847 0
M  V30 28275 H 2761.78 -0.0469113 -5.17879 0
M  V30 28276 H 2758.46 2.03064 -3.6479 0
M  V30 28277 H 2759.85 -0.631045 -6.6893 0
M  V30 28278 N 2762.57 1.57369 -0.0852427 0
M  V30 28279 C 2763.52 2.13479 0.877231 0
M  V30 28280 C 2764.49 1.05076 1.2864 0
M  V30 28281 O 2765.67 1.3281 1.36989 0
M  V30 28282 C 2762.81 2.71163 2.13459 0
M  V30 28283 C 2761.92 3.93767 1.77684 0
M  V30 28284 C 2761.06 4.39649 2.98132 0
M  V30 28285 C 2760.1 5.54867 2.58437 0
M  V30 28286 N 2759.23 5.95645 3.71687 0
M  V30 28287 H 2764.07 2.95412 0.391881 0
M  V30 28288 H 2761.61 1.45973 0.18177 0
M  V30 28289 H 2763.57 3.02722 2.87081 0
M  V30 28290 H 2762.2 1.91974 2.59511 0
M  V30 28291 H 2761.25 3.68585 0.940703 0
M  V30 28292 H 2762.56 4.77414 1.44489 0
M  V30 28293 H 2761.72 4.72939 3.80018 0
M  V30 28294 H 2760.46 3.54882 3.3453 0
M  V30 28295 H 2759.46 5.21214 1.74975 0
M  V30 28296 H 2760.69 6.41375 2.23194 0
M  V30 28297 H 2758.63 5.13826 4.07822 0
M  V30 28298 H 2758.55 6.74065 3.42305 0
M  V30 28299 H 2759.82 6.33563 4.54112 0
M  V30 28300 N 2764.05 -0.188399 1.5647 0
M  V30 28301 C 2764.98 -1.23602 1.98103 0
M  V30 28302 C 2765.96 -1.47109 0.853986 0
M  V30 28303 O 2767.14 -1.58733 1.11881 0
M  V30 28304 C 2764.27 -2.57878 2.32629 0
M  V30 28305 C 2763.23 -2.48972 3.48134 0
M  V30 28306 C 2762.55 -3.87582 3.68354 0
M  V30 28307 C 2763.85 -2.00903 4.82115 0
M  V30 28308 H 2765.55 -0.890018 2.85865 0
M  V30 28309 H 2763.09 -0.42669 1.37533 0
M  V30 28310 H 2765.05 -3.31355 2.60349 0
M  V30 28311 H 2763.77 -2.94233 1.41756 0
M  V30 28312 H 2762.43 -1.7795 3.20514 0
M  V30 28313 H 2762.08 -4.213 2.748 0
M  V30 28314 H 2761.78 -3.82496 4.46062 0
M  V30 28315 H 2763.3 -4.62671 3.98457 0
M  V30 28316 H 2764.71 -2.64142 5.08824 0
M  V30 28317 H 2763.11 -2.06804 5.6334 0
M  V30 28318 H 2764.18 -0.962536 4.75251 0
M  V30 28319 N 2765.53 -1.50848 -0.456355 0
M  V30 28320 C 2766.77 -1.6422 -1.21701 0
M  V30 28321 C 2767.13 -0.341892 -1.88931 0
M  V30 28322 O 2768.33 -0.351184 -2.66496 0
M  V30 28323 C 2766.6 -2.79966 -2.22157 0
M  V30 28324 S 2768.16 -3.13558 -3.06964 0
M  V30 28325 H 2764.98 -0.578761 -0.412985 0
M  V30 28326 H 2767.58 -1.88687 -0.511604 0
M  V30 28327 H 2766.28 -3.72907 -1.71372 0
M  V30 28328 H 2765.82 -2.5763 -2.97305 0
M  V30 28329 H 2767.83 -2.58521 -4.23534 0
M  V30 28330 N 2767 0.710538 -1.40674 0
M  V30 28331 C 2768.23 1.50462 -1.42744 0
M  V30 28332 C 2768.65 1.88076 -0.0302447 0
M  V30 28333 O 2768.01 1.53615 0.962918 0
M  V30 28334 C 2768.06 2.75318 -2.32878 0
M  V30 28335 O 2767.16 3.72222 -1.77551 0
M  V30 28336 H 2766.5 0.453441 -0.485064 0
M  V30 28337 H 2769.03 0.874648 -1.84962 0
M  V30 28338 H 2769.04 3.23792 -2.48239 0
M  V30 28339 H 2767.72 2.47277 -3.34405 0
M  V30 28340 H 2766.3 3.3109 -1.71562 0
M  V30 28341 N 2768.48 1.26254 0.943277 0
M  V30 28342 C 2769.73 1.11454 1.6859 0
M  V30 28343 C 2770.05 -0.343089 1.91958 0
M  V30 28344 O 2769.32 -1.24223 1.51477 0
M  V30 28345 H 2767.9 0.409459 0.624782 0
M  V30 28346 H 2770.56 1.5855 1.13348 0
M  V30 28347 H 2769.66 1.63167 2.66051 0
M  V30 28348 N 2769.96 -1.14755 1.08024 0
M  V30 28349 C 2771.21 -1.85701 0.807541 0
M  V30 28350 C 2771.53 -1.82721 -0.666585 0
M  V30 28351 O 2770.79 -1.25021 -1.5056 0
M  V30 28352 C 2771.09 -3.34086 1.2697 0
M  V30 28353 C 2770.75 -3.57258 2.75096 0
M  V30 28354 C 2769.42 -3.6329 3.15553 0
M  V30 28355 C 2771.77 -3.66402 3.70673 0
M  V30 28356 C 2769.1 -3.75986 4.5039 0
M  V30 28357 C 2771.45 -3.80623 5.05281 0
M  V30 28358 C 2770.11 -3.84904 5.45349 0
M  V30 28359 H 2769.38 -0.67953 0.2955 0
M  V30 28360 H 2772.03 -1.35574 1.35248 0
M  V30 28361 H 2770.33 -3.86466 0.644284 0
M  V30 28362 H 2772.03 -3.87399 1.03551 0
M  V30 28363 H 2768.62 -3.53207 2.42781 0
M  V30 28364 H 2772.81 -3.61035 3.4054 0
M  V30 28365 H 2768.06 -3.7756 4.80893 0
M  V30 28366 H 2772.24 -3.86642 5.79207 0
M  V30 28367 H 2769.86 -3.94494 6.4983 0
M  V30 28368 N 2771.44 -0.865331 -1.31719 0
M  V30 28369 C 2772.68 -0.474668 -1.97167 0
M  V30 28370 C 2773.02 0.969574 -1.68264 0
M  V30 28371 O 2772.29 1.68204 -0.976618 0
M  V30 28372 C 2772.57 -0.72687 -3.52688 0
M  V30 28373 C 2772.43 -2.22031 -3.91181 0
M  V30 28374 C 2773.75 -0.190278 -4.39688 0
M  V30 28375 H 2770.87 -0.173933 -0.716182 0
M  V30 28376 H 2773.51 -1.08572 -1.55924 0
M  V30 28377 H 2771.66 -0.206774 -3.87949 0
M  V30 28378 H 2773.33 -2.8073 -3.66044 0
M  V30 28379 H 2771.57 -2.69468 -3.39955 0
M  V30 28380 H 2772.24 -2.34743 -4.99599 0
M  V30 28381 H 2774.72 -0.635175 -4.11223 0
M  V30 28382 H 2773.6 -0.396228 -5.47468 0
M  V30 28383 H 2773.86 0.907549 -4.32685 0
M  V30 28384 N 2772.92 1.44707 -0.624311 0
M  V30 28385 C 2774.33 1.56955 -0.28935 0
M  V30 28386 C 2774.53 1.61297 1.2077 0
M  V30 28387 O 2773.59 1.55231 1.99147 0
M  V30 28388 C 2774.9 2.84445 -0.975265 0
M  V30 28389 C 2776.45 2.98147 -0.952762 0
M  V30 28390 C 2776.92 4.2843 -1.61901 0
M  V30 28391 N 2778.41 4.35228 -1.58528 0
M  V30 28392 C 2779.15 5.3474 -2.06979 0
M  V30 28393 N 2778.65 6.40697 -2.6359 0
M  V30 28394 N 2780.44 5.26205 -1.97648 0
M  V30 28395 H 2772.59 1.40132 -1.59615 0
M  V30 28396 H 2774.85 0.67107 -0.669604 0
M  V30 28397 H 2774.56 2.87197 -2.03004 0
M  V30 28398 H 2774.43 3.73752 -0.508815 0
M  V30 28399 H 2776.82 2.94952 0.0935162 0
M  V30 28400 H 2776.9 2.10206 -1.45764 0
M  V30 28401 H 2776.54 4.32384 -2.6647 0
M  V30 28402 H 2776.47 5.15216 -1.08902 0
M  V30 28403 H 2778.97 3.5927 -1.17189 0
M  V30 28404 H 2779.28 7.12903 -2.9831 0
M  V30 28405 H 2777.62 6.41401 -2.67637 0
M  V30 28406 H 2780.81 4.42339 -1.53147 0
M  V30 28407 H 2780.99 6.03606 -2.35719 0
M  V30 28408 N 2774.39 0.364449 1.53328 0
M  V30 28409 C 2775.64 -0.226712 2.00422 0
M  V30 28410 C 2775.96 -1.49961 1.25583 0
M  V30 28411 O 2777.16 -2.1693 1.6326 0
M  V30 28412 C 2775.62 -0.454555 3.57018 0
M  V30 28413 C 2775.23 0.803645 4.40733 0
M  V30 28414 C 2776.97 -1.00343 4.1247 0
M  V30 28415 C 2774.88 0.545449 5.88879 0
M  V30 28416 H 2773.81 -0.0884951 0.748789 0
M  V30 28417 H 2776.46 0.483014 1.77029 0
M  V30 28418 H 2774.84 -1.22551 3.7656 0
M  V30 28419 H 2776.01 1.57731 4.32964 0
M  V30 28420 H 2774.33 1.27566 3.96378 0
M  V30 28421 H 2776.93 -1.21191 5.20785 0
M  V30 28422 H 2777.27 -1.96523 3.66994 0
M  V30 28423 H 2777.8 -0.29267 3.96722 0
M  V30 28424 H 2774.54 1.47755 6.3863 0
M  V30 28425 H 2774.06 -0.189737 5.995 0
M  V30 28426 H 2775.74 0.170538 6.46775 0
M  V30 28427 N 2775.87 -1.57322 0.0935872 0
M  V30 28428 C 2777.11 -1.96179 -0.573866 0
M  V30 28429 C 2777.48 -0.974289 -1.65444 0
M  V30 28430 O 2778.68 -1.2513 -2.37899 0
M  V30 28431 C 2776.95 -3.39528 -1.11606 0
M  V30 28432 S 2778.51 -4.0038 -1.79559 0
M  V30 28433 H 2775.32 -0.685885 -0.187303 0
M  V30 28434 H 2777.93 -1.94736 0.172631 0
M  V30 28435 H 2776.63 -4.09166 -0.318078 0
M  V30 28436 H 2776.16 -3.44563 -1.89842 0
M  V30 28437 H 2778.18 -3.89061 -3.07971 0
M  V30 28438 N 2777.35 0.180099 -1.56568 0
M  V30 28439 C 2778.28 1.25159 -1.90815 0
M  V30 28440 C 2779.26 1.43216 -0.769925 0
M  V30 28441 O 2780.44 1.58365 -1.02239 0
M  V30 28442 C 2777.57 2.61594 -2.15143 0
M  V30 28443 C 2776.62 2.60322 -3.37838 0
M  V30 28444 S 2777.45 2.10271 -4.9249 0
M  V30 28445 C 2778.61 3.485 -5.19903 0
M  V30 28446 H 2778.84 0.959233 -2.814 0
M  V30 28447 H 2776.37 0.384274 -1.49542 0
M  V30 28448 H 2778.33 3.40123 -2.29841 0
M  V30 28449 H 2776.99 2.88034 -1.25281 0
M  V30 28450 H 2776.18 3.60678 -3.52034 0
M  V30 28451 H 2775.79 1.89884 -3.22211 0
M  V30 28452 H 2778.08 4.4445 -5.11342 0
M  V30 28453 H 2779.02 3.39187 -6.21577 0
M  V30 28454 H 2779.43 3.44106 -4.47495 0
M  V30 28455 N 2778.83 1.51088 0.448349 0
M  V30 28456 C 2780.1 1.53743 1.20923 0
M  V30 28457 C 2780.48 0.295258 2.09025 0
M  V30 28458 O 2779.83 -0.720245 2.16852 0
M  V30 28459 C 2780.04 2.84556 2.02062 0
M  V30 28460 C 2781.39 3.36088 2.5948 0
M  V30 28461 O 2782.41 2.86032 2.12284 0
M  V30 28462 O 2781.27 4.23403 3.45531 0
M  V30 28463 H 2778.37 0.617653 0.54994 0
M  V30 28464 H 2780.91 1.63394 0.458315 0
M  V30 28465 H 2779.69 3.66427 1.37284 0
M  V30 28466 H 2779.31 2.78016 2.84241 0
M  V30 28467 N 2780.31 -0.703068 1.41049 0
M  V30 28468 C 2781.22 -1.847 1.44648 0
M  V30 28469 C 2782.23 -1.70689 0.337808 0
M  V30 28470 O 2783.41 -1.92736 0.584361 0
M  V30 28471 C 2780.47 -3.20615 1.31934 0
M  V30 28472 C 2779.53 -3.46789 2.53053 0
M  V30 28473 C 2778.77 -4.7622 2.40936 0
M  V30 28474 O 2778.99 -5.52187 1.42988 0
M  V30 28475 O 2777.92 -5.0301 3.30552 0
M  V30 28476 H 2781.75 -1.84619 2.41142 0
M  V30 28477 H 2779.34 -0.855145 1.22506 0
M  V30 28478 H 2781.22 -4.01776 1.27099 0
M  V30 28479 H 2779.89 -3.21396 0.385525 0
M  V30 28480 H 2778.8 -2.65589 2.63464 0
M  V30 28481 H 2780.13 -3.50816 3.45237 0
M  V30 28482 N 2781.78 -1.26752 -0.936569 0
M  V30 28483 C 2783.06 -1.03309 -1.66092 0
M  V30 28484 C 2783.44 0.435021 -2.06569 0
M  V30 28485 O 2782.79 1.41637 -1.79307 0
M  V30 28486 C 2783 -1.98624 -2.86966 0
M  V30 28487 C 2784.35 -2.27495 -3.58512 0
M  V30 28488 O 2785.37 -1.96527 -2.97078 0
M  V30 28489 O 2784.23 -2.80243 -4.69176 0
M  V30 28490 H 2781.32 -0.393171 -0.727561 0
M  V30 28491 H 2783.87 -1.37981 -0.98789 0
M  V30 28492 H 2782.64 -2.97674 -2.5398 0
M  V30 28493 H 2782.27 -1.6446 -3.61993 0
M  V30 28494 N 2783.26 1.1418 -1.08631 0
M  V30 28495 C 2784.51 1.84905 -0.815763 0
M  V30 28496 C 2784.83 1.83476 0.660409 0
M  V30 28497 O 2784.1 1.28479 1.47885 0
M  V30 28498 H 2782.68 0.684643 -0.298785 0
M  V30 28499 H 2785.34 1.38352 -1.37276 0
M  V30 28500 H 2784.44 2.89663 -1.16198 0
M  V30 28501 N 2784.74 0.872304 1.31258 0
M  V30 28502 C 2785.69 0.318938 2.30403 0
M  V30 28503 C 2786.68 -0.567239 1.59621 0
M  V30 28504 O 2787.89 -0.45308 1.74204 0
M  V30 28505 H 2784.26 0.0844605 0.747242 0
M  V30 28506 H 2786.23 1.16903 2.74547 0
M  V30 28507 C 2784.98 -0.462623 3.44609 0
M  V30 28508 H 2784.31 0.210006 3.99248 0
M  V30 28509 H 2785.75 -0.815113 4.16091 0
M  V30 28510 C 2784.21 -1.6548 2.93459 0
M  V30 28511 O 2784.74 -2.75411 2.92423 0
M  V30 28512 N 2782.94 -1.48771 2.49631 0
M  V30 28513 H 2782.49 -0.593408 2.50672 0
M  V30 28514 H 2782.45 -2.28678 2.15763 0
M  V30 28515 N 2786.22 -1.44374 0.631976 0
M  V30 28516 C 2787.13 -2.34484 -0.0736328 0
M  V30 28517 C 2788.14 -1.52667 -0.834798 0
M  V30 28518 O 2789.32 -1.85392 -0.786869 0
M  V30 28519 C 2786.39 -3.30658 -1.04241 0
M  V30 28520 C 2785.45 -4.28382 -0.280527 0
M  V30 28521 C 2784.68 -5.19961 -1.20316 0
M  V30 28522 O 2784.9 -5.15488 -2.44189 0
M  V30 28523 O 2783.84 -5.97966 -0.687023 0
M  V30 28524 H 2787.66 -2.96273 0.667529 0
M  V30 28525 H 2785.25 -1.44161 0.392169 0
M  V30 28526 H 2787.13 -3.89854 -1.59974 0
M  V30 28527 H 2785.8 -2.71401 -1.76417 0
M  V30 28528 H 2784.71 -3.7273 0.31987 0
M  V30 28529 H 2786.04 -4.90562 0.40123 0
M  V30 28530 N 2787.7 -0.372575 -1.53133 0
M  V30 28531 C 2788.64 0.470591 -2.25952 0
M  V30 28532 C 2789.61 1.07174 -1.26897 0
M  V30 28533 O 2790.8 1.10292 -1.55693 0
M  V30 28534 C 2787.94 1.60074 -3.05729 0
M  V30 28535 C 2787.05 1.02409 -4.19686 0
M  V30 28536 C 2786.19 2.12392 -4.86891 0
M  V30 28537 C 2785.23 1.52228 -5.92869 0
M  V30 28538 N 2784.36 2.56072 -6.53737 0
M  V30 28539 H 2789.2 -0.156868 -2.97587 0
M  V30 28540 H 2786.74 -0.089183 -1.46829 0
M  V30 28541 H 2788.7 2.26655 -3.50262 0
M  V30 28542 H 2787.33 2.19876 -2.36335 0
M  V30 28543 H 2786.38 0.248359 -3.79588 0
M  V30 28544 H 2787.69 0.544279 -4.95822 0
M  V30 28545 H 2786.85 2.86778 -5.34643 0
M  V30 28546 H 2785.58 2.63727 -4.10243 0
M  V30 28547 H 2784.59 0.763589 -5.44472 0
M  V30 28548 H 2785.81 1.01709 -6.7144 0
M  V30 28549 H 2783.76 3.06607 -5.79938 0
M  V30 28550 H 2783.68 2.12798 -7.25433 0
M  V30 28551 H 2784.95 3.30139 -7.06136 0
M  V30 28552 N 2789.17 1.5727 -0.101929 0
M  V30 28553 C 2790.59 1.57554 0.254712 0
M  V30 28554 C 2790.79 1.11355 1.67935 0
M  V30 28555 O 2789.85 0.793124 2.3972 0
M  V30 28556 C 2791.16 3.00677 0.0369221 0
M  V30 28557 C 2792.71 3.12827 0.104144 0
M  V30 28558 C 2793.18 4.5792 -0.085737 0
M  V30 28559 N 2794.67 4.6319 -0.0311313 0
M  V30 28560 C 2795.41 5.73195 -0.1532 0
M  V30 28561 N 2794.9 6.92011 -0.330485 0
M  V30 28562 N 2796.7 5.62021 -0.0939841 0
M  V30 28563 H 2788.85 1.85607 -1.03266 0
M  V30 28564 H 2791.11 0.857008 -0.405266 0
M  V30 28565 H 2790.82 3.38702 -0.947314 0
M  V30 28566 H 2790.69 3.69126 0.77627 0
M  V30 28567 H 2793.08 2.74671 1.07889 0
M  V30 28568 H 2793.16 2.46956 -0.666806 0
M  V30 28569 H 2792.8 4.96771 -1.05738 0
M  V30 28570 H 2792.73 5.2186 0.70499 0
M  V30 28571 H 2795.22 3.77759 0.103075 0
M  V30 28572 H 2795.54 7.71685 -0.414956 0
M  V30 28573 H 2793.88 6.94034 -0.366241 0
M  V30 28574 H 2797.07 4.6808 0.0434346 0
M  V30 28575 H 2797.25 6.47714 -0.192563 0
M  V30 28576 N 2790.65 -0.171793 1.56661 0
M  V30 28577 C 2792.06 -0.734299 1.71654 0
M  V30 28578 C 2792.41 -1.82811 0.712367 0
M  V30 28579 O 2791.54 -2.16031 -0.126363 0
M  V30 28580 C 2792.13 -1.33874 3.11228 0
M  V30 28581 C 2790.69 -1.84808 3.27907 0
M  V30 28582 C 2789.84 -0.72687 2.67604 0
M  V30 28583 H 2792.79 0.0535944 1.58609 0
M  V30 28584 H 2792.81 -2.20843 3.09853 0
M  V30 28585 H 2792.32 -0.542423 3.84291 0
M  V30 28586 H 2790.43 -2.67085 2.59801 0
M  V30 28587 H 2790.54 -1.99384 4.35641 0
M  V30 28588 H 2788.9 -1.14719 2.27402 0
M  V30 28589 H 2789.69 0.0575937 3.43252 0
M  V30 28590 N 2792.13 -1.51324 -0.44033 0
M  V30 28591 C 2793.38 -1.6352 -1.18767 0
M  V30 28592 C 2793.7 -0.352234 -1.91792 0
M  V30 28593 O 2792.97 0.631779 -1.85433 0
M  V30 28594 H 2791.55 -0.602642 -0.441398 0
M  V30 28595 H 2794.21 -1.8824 -0.505129 0
M  V30 28596 H 2793.31 -2.46141 -1.91887 0
M  V30 28597 N 2793.61 0.695578 -1.41419 0
M  V30 28598 C 2794.89 1.45012 -1.31266 0
M  V30 28599 C 2795.27 2.11015 0.0597623 0
M  V30 28600 O 2794.61 2.01687 1.074 0
M  V30 28601 C 2794.82 2.46956 -2.46605 0
M  V30 28602 C 2796.17 3.12209 -2.87769 0
M  V30 28603 O 2797.2 2.5728 -2.46344 0
M  V30 28604 O 2796.05 4.11694 -3.59402 0
M  V30 28605 H 2793.15 0.645807 -0.516587 0
M  V30 28606 H 2795.69 0.726057 -1.53383 0
M  V30 28607 H 2794.47 1.96839 -3.38187 0
M  V30 28608 H 2794.09 3.26872 -2.26364 0
M  V30 28609 N 2795.09 1.27247 0.929833 0
M  V30 28610 C 2796.33 1.13628 1.67978 0
M  V30 28611 C 2796.67 -0.317555 1.91586 0
M  V30 28612 O 2795.94 -1.23244 1.5047 0
M  V30 28613 C 2796.22 1.91812 3.04763 0
M  V30 28614 C 2796.08 3.45167 2.88409 0
M  V30 28615 C 2797.4 1.72089 4.0506 0
M  V30 28616 H 2794.52 0.414158 0.609625 0
M  V30 28617 H 2797.16 1.56378 1.07917 0
M  V30 28618 H 2795.31 1.5548 3.56031 0
M  V30 28619 H 2796.98 3.91315 2.44275 0
M  V30 28620 H 2795.22 3.71615 2.23796 0
M  V30 28621 H 2795.89 3.95111 3.85475 0
M  V30 28622 H 2798.37 2.03763 3.62794 0
M  V30 28623 H 2797.25 2.29191 4.98761 0
M  V30 28624 H 2797.51 0.668282 4.3702 0
M  V30 28625 N 2796.57 -1.13603 1.09235 0
M  V30 28626 C 2797.81 -1.85322 0.838288 0
M  V30 28627 C 2798.17 -1.81818 -0.629282 0
M  V30 28628 O 2797.46 -1.24396 -1.45727 0
M  V30 28629 C 2797.65 -3.3272 1.30506 0
M  V30 28630 C 2797.48 -3.50578 2.81647 0
M  V30 28631 C 2796.25 -3.64935 3.49501 0
M  V30 28632 C 2798.45 -3.46785 3.79795 0
M  V30 28633 N 2796.43 -3.71034 4.89088 0
M  V30 28634 C 2797.8 -3.59231 5.05325 0
M  V30 28635 C 2799.86 -3.30174 3.72679 0
M  V30 28636 C 2798.56 -3.5678 6.2458 0
M  V30 28637 C 2800.59 -3.29031 4.91419 0
M  V30 28638 C 2799.95 -3.42025 6.15791 0
M  V30 28639 H 2796.05 -0.694423 0.359584 0
M  V30 28640 H 2798.63 -1.36095 1.39234 0
M  V30 28641 H 2796.8 -3.80518 0.778478 0
M  V30 28642 H 2798.54 -3.92239 0.996533 0
M  V30 28643 H 2795.29 -3.66525 2.99927 0
M  V30 28644 H 2795.71 -3.77779 5.61793 0
M  V30 28645 H 2800.36 -3.19032 2.7745 0
M  V30 28646 H 2798.07 -3.66696 7.20111 0
M  V30 28647 H 2801.66 -3.17378 4.87609 0
M  V30 28648 H 2800.54 -3.41098 7.06132 0
M  V30 28649 N 2798.04 -0.879253 -1.30793 0
M  V30 28650 C 2799.27 -0.509584 -2.00526 0
M  V30 28651 C 2799.69 0.900421 -1.65945 0
M  V30 28652 O 2799.04 1.59129 -0.893553 0
M  V30 28653 C 2799.09 -0.668005 -3.55274 0
M  V30 28654 O 2798.82 -2.02249 -3.88622 0
M  V30 28655 C 2800.32 -0.300572 -4.4228 0
M  V30 28656 H 2797.54 -0.19756 -0.641257 0
M  V30 28657 H 2800.08 -1.18298 -1.66811 0
M  V30 28658 H 2798.24 -0.0420524 -3.87377 0
M  V30 28659 H 2798.65 -2.03697 -4.8333 0
M  V30 28660 H 2800.12 -0.462339 -5.5006 0
M  V30 28661 H 2800.6 0.760984 -4.32557 0
M  V30 28662 H 2801.21 -0.902609 -4.15612 0
M  V30 28663 N 2799.52 1.44037 -0.639624 0
M  V30 28664 C 2800.45 2.33453 0.0469033 0
M  V30 28665 C 2801.43 1.48695 0.826064 0
M  V30 28666 O 2802.62 1.77394 0.790254 0
M  V30 28667 C 2799.75 3.31882 1.02332 0
M  V30 28668 C 2798.7 4.26523 0.355209 0
M  V30 28669 C 2798.03 5.14885 1.44212 0
M  V30 28670 C 2799.33 5.16975 -0.743889 0
M  V30 28671 H 2801.02 2.91107 -0.699786 0
M  V30 28672 H 2798.57 1.39978 -0.33797 0
M  V30 28673 H 2800.52 3.93325 1.5124 0
M  V30 28674 H 2799.24 2.72455 1.801 0
M  V30 28675 H 2797.9 3.66425 -0.113304 0
M  V30 28676 H 2797.55 4.51806 2.21089 0
M  V30 28677 H 2797.25 5.79021 1.00042 0
M  V30 28678 H 2798.78 5.79201 1.93284 0
M  V30 28679 H 2800.19 5.72305 -0.337545 0
M  V30 28680 H 2798.59 5.89759 -1.10924 0
M  V30 28681 H 2799.66 4.57478 -1.60753 0
M  V30 28682 N 2801 0.380691 1.52933 0
M  V30 28683 C 2802.41 -0.0952356 1.86457 0
M  V30 28684 C 2802.76 -1.46886 1.30073 0
M  V30 28685 O 2801.89 -2.07067 0.628673 0
M  V30 28686 C 2802.48 -0.179589 3.38324 0
M  V30 28687 C 2801.04 -0.599793 3.7159 0
M  V30 28688 C 2800.19 0.243621 2.76228 0
M  V30 28689 H 2803.14 0.598906 1.46965 0
M  V30 28690 H 2803.16 -1.00035 3.67115 0
M  V30 28691 H 2802.67 0.820295 3.79332 0
M  V30 28692 H 2800.77 -1.60736 3.36147 0
M  V30 28693 H 2800.89 -0.363919 4.77716 0
M  V30 28694 H 2799.25 -0.289811 2.53046 0
M  V30 28695 H 2800.03 1.24132 3.20072 0
M  V30 28696 N 2802.48 -1.57214 0.110268 0
M  V30 28697 C 2803.75 -1.86397 -0.592923 0
M  V30 28698 C 2804.13 -1.00988 -1.85377 0
M  V30 28699 O 2803.48 -0.0863994 -2.28337 0
M  V30 28700 C 2803.69 -3.37362 -0.893756 0
M  V30 28701 C 2805.04 -4.05764 -1.25062 0
M  V30 28702 O 2806.06 -3.4233 -0.984296 0
M  V30 28703 O 2804.92 -5.17721 -1.75008 0
M  V30 28704 H 2802.02 -0.771341 -0.298266 0
M  V30 28705 H 2804.56 -1.69087 0.144112 0
M  V30 28706 H 2803.34 -3.913 9.48118e-05 0
M  V30 28707 H 2802.96 -3.60071 -1.68625 0
M  V30 28708 N 2803.96 0.163482 -1.5675 0
M  V30 28709 C 2804.89 1.22702 -1.9359 0
M  V30 28710 C 2805.9 1.40062 -0.829849 0
M  V30 28711 O 2807.09 1.39926 -1.10829 0
M  V30 28712 C 2804.19 2.5945 -2.18034 0
M  V30 28713 C 2803.36 2.63285 -3.49284 0
M  V30 28714 C 2802.42 3.81453 -3.62464 0
M  V30 28715 O 2801.45 3.67089 -4.35011 0
M  V30 28716 N 2802.65 4.98235 -2.97897 0
M  V30 28717 H 2805.41 0.914031 -2.85422 0
M  V30 28718 H 2802.98 0.353186 -1.58001 0
M  V30 28719 H 2804.97 3.36983 -2.24108 0
M  V30 28720 H 2803.54 2.83107 -1.32548 0
M  V30 28721 H 2802.76 1.7179 -3.54798 0
M  V30 28722 H 2804.05 2.62865 -4.35637 0
M  V30 28723 H 2803.44 5.12807 -2.38842 0
M  V30 28724 H 2802 5.73602 -3.09555 0
M  V30 28725 N 2805.43 1.51555 0.432299 0
M  V30 28726 C 2806.67 1.66135 1.19073 0
M  V30 28727 C 2807.04 0.371906 1.88364 0
M  V30 28728 O 2808.24 0.393537 2.65904 0
M  V30 28729 C 2806.51 2.83465 2.17675 0
M  V30 28730 S 2808.07 3.18402 3.01937 0
M  V30 28731 H 2804.89 0.585258 0.403725 0
M  V30 28732 H 2807.49 1.89477 0.481521 0
M  V30 28733 H 2806.19 3.75586 1.65418 0
M  V30 28734 H 2805.72 2.62327 2.93169 0
M  V30 28735 H 2807.74 2.65226 4.19368 0
M  V30 28736 N 2806.91 -0.688069 1.41786 0
M  V30 28737 C 2807.86 -1.79418 1.40688 0
M  V30 28738 C 2808.85 -1.58443 0.280123 0
M  V30 28739 O 2810.04 -1.69147 0.521362 0
M  V30 28740 C 2807.17 -3.17783 1.2988 0
M  V30 28741 C 2806.25 -3.44428 2.47448 0
M  V30 28742 N 2806.64 -3.41729 3.72901 0
M  V30 28743 C 2804.94 -3.75008 2.41422 0
M  V30 28744 C 2805.64 -3.67488 4.50918 0
M  V30 28745 N 2804.62 -3.87602 3.81138 0
M  V30 28746 H 2808.42 -1.75706 2.35594 0
M  V30 28747 H 2805.93 -0.888369 1.35948 0
M  V30 28748 H 2807.93 -3.97029 1.27175 0
M  V30 28749 H 2806.59 -3.22702 0.359644 0
M  V30 28750 H 2807.6 -3.21936 4.05682 0
M  V30 28751 H 2804.28 -3.87253 1.56018 0
M  V30 28752 H 2805.67 -3.71475 5.59872 0
M  V30 28753 N 2808.39 -1.27739 -0.923072 0
M  V30 28754 C 2809.62 -1.17174 -1.70523 0
M  V30 28755 C 2810.03 0.270848 -1.86847 0
M  V30 28756 O 2809.39 1.18399 -1.38881 0
M  V30 28757 C 2809.44 -1.85564 -3.10239 0
M  V30 28758 O 2809.16 -3.24187 -2.94677 0
M  V30 28759 C 2810.66 -1.81183 -4.04583 0
M  V30 28760 H 2807.88 -0.407172 -0.53334 0
M  V30 28761 H 2810.43 -1.68694 -1.15596 0
M  V30 28762 H 2808.58 -1.37937 -3.62011 0
M  V30 28763 H 2809 -3.58304 -3.83039 0
M  V30 28764 H 2810.47 -2.33642 -5.00115 0
M  V30 28765 H 2810.95 -0.782175 -4.32179 0
M  V30 28766 H 2811.55 -2.28447 -3.58737 0
M  V30 28767 N 2809.87 1.13022 -1.09836 0
M  V30 28768 C 2811.11 1.84666 -0.838222 0
M  V30 28769 C 2811.45 1.83538 0.634613 0
M  V30 28770 O 2810.72 1.27649 1.46751 0
M  V30 28771 C 2811.01 3.32633 -1.37938 0
M  V30 28772 C 2810.86 3.42251 -2.91863 0
M  V30 28773 C 2812.18 4.28197 -1.01662 0
M  V30 28774 H 2809.3 0.67049 -0.305962 0
M  V30 28775 H 2811.94 1.32633 -1.36046 0
M  V30 28776 H 2810.09 3.77077 -0.935177 0
M  V30 28777 H 2811.76 3.06489 -3.44764 0
M  V30 28778 H 2810 2.82994 -3.28781 0
M  V30 28779 H 2810.67 4.46323 -3.24807 0
M  V30 28780 H 2813.15 3.91848 -1.3998 0
M  V30 28781 H 2812.03 5.30154 -1.42226 0
M  V30 28782 H 2812.29 4.42037 0.0747017 0
M  V30 28783 N 2811.35 0.886177 1.30325 0
M  V30 28784 C 2812.57 0.520211 2.00253 0
M  V30 28785 C 2812.99 -0.891608 1.66421 0
M  V30 28786 O 2812.35 -1.58652 0.901979 0
M  V30 28787 C 2812.4 0.686837 3.54915 0
M  V30 28788 O 2812.12 2.04307 3.87544 0
M  V30 28789 C 2813.62 0.324022 4.42114 0
M  V30 28790 H 2810.84 0.200958 0.640201 0
M  V30 28791 H 2813.38 1.19181 1.66181 0
M  V30 28792 H 2811.54 0.0625954 3.87349 0
M  V30 28793 H 2811.95 2.06257 4.82243 0
M  V30 28794 H 2813.43 0.491503 5.49807 0
M  V30 28795 H 2813.9 -0.738034 4.32955 0
M  V30 28796 H 2814.51 0.924638 4.15127 0
M  V30 28797 N 2812.82 -1.43695 0.647253 0
M  V30 28798 C 2814.06 -2.03759 0.161746 0
M  V30 28799 C 2814.43 -1.49922 -1.19948 0
M  V30 28800 O 2815.63 -2.01591 -1.77805 0
M  V30 28801 C 2813.9 -3.57018 0.165113 0
M  V30 28802 S 2815.46 -4.38068 -0.25342 0
M  V30 28803 H 2812.28 -0.707643 0.0690109 0
M  V30 28804 H 2814.88 -1.75849 0.854254 0
M  V30 28805 H 2813.58 -3.93705 1.15865 0
M  V30 28806 H 2813.11 -3.89563 -0.548126 0
M  V30 28807 H 2815.13 -4.73182 -1.49377 0
M  V30 28808 N 2814.3 -0.388796 -1.52729 0
M  V30 28809 C 2815.23 0.481665 -2.24082 0
M  V30 28810 C 2816.25 1.02713 -1.26309 0
M  V30 28811 O 2817.44 0.929538 -1.52387 0
M  V30 28812 C 2814.54 1.68019 -2.94318 0
M  V30 28813 C 2813.71 1.26219 -4.18793 0
M  V30 28814 C 2812.77 2.32534 -4.72032 0
M  V30 28815 O 2811.79 1.93963 -5.35133 0
M  V30 28816 N 2813 3.6444 -4.51845 0
M  V30 28817 H 2815.76 -0.129643 -2.99419 0
M  V30 28818 H 2813.32 -0.215128 -1.60464 0
M  V30 28819 H 2815.31 2.38665 -3.26835 0
M  V30 28820 H 2813.88 2.19785 -2.22291 0
M  V30 28821 H 2813.1 0.384634 -3.92319 0
M  V30 28822 H 2814.39 0.959559 -4.9967 0
M  V30 28823 H 2813.79 3.9854 -4.01475 0
M  V30 28824 H 2812.35 4.31123 -4.88852 0
M  V30 28825 N 2815.78 1.57153 -0.118604 0
M  V30 28826 C 2817.19 1.82213 0.406838 0
M  V30 28827 C 2817.54 1.03574 1.66634 0
M  V30 28828 O 2816.67 0.272209 2.14681 0
M  V30 28829 C 2817.26 3.3051 0.744891 0
M  V30 28830 C 2815.82 3.56252 1.21497 0
M  V30 28831 C 2814.97 2.76398 0.223462 0
M  V30 28832 H 2817.92 1.54933 -0.34374 0
M  V30 28833 H 2817.94 3.45117 1.60234 0
M  V30 28834 H 2817.45 3.87719 -0.171979 0
M  V30 28835 H 2815.55 3.044 2.14875 0
M  V30 28836 H 2815.67 4.64831 1.16057 0
M  V30 28837 H 2814.03 2.44592 0.710417 0
M  V30 28838 H 2814.81 3.36366 -0.686498 0
M  V30 28839 N 2817.26 -0.155167 1.56834 0
M  V30 28840 C 2818.54 -0.897364 1.73801 0
M  V30 28841 C 2818.92 -1.99697 0.684415 0
M  V30 28842 O 2818.26 -2.26548 -0.298071 0
M  V30 28843 C 2818.47 -1.44731 3.17575 0
M  V30 28844 C 2819.82 -1.91393 3.79017 0
M  V30 28845 O 2820.85 -1.54491 3.20953 0
M  V30 28846 O 2819.7 -2.5942 4.81003 0
M  V30 28847 H 2816.8 -0.423498 0.710337 0
M  V30 28848 H 2819.34 -0.141731 1.69107 0
M  V30 28849 H 2818.12 -0.656673 3.85751 0
M  V30 28850 H 2817.74 -2.26668 3.26661 0
M  V30 28851 N 2818.74 -1.51782 -0.424256 0
M  V30 28852 C 2819.98 -1.64771 -1.17025 0
M  V30 28853 C 2820.31 -0.372557 -1.91408 0
M  V30 28854 O 2819.58 0.612076 -1.86093 0
M  V30 28855 H 2818.16 -0.607289 -0.434981 0
M  V30 28856 H 2820.82 -1.88766 -0.485135 0
M  V30 28857 H 2819.91 -2.48163 -1.89266 0
M  V30 28858 N 2820.21 0.68054 -1.42149 0
M  V30 28859 C 2821.15 1.80603 -1.41122 0
M  V30 28860 C 2822.16 1.59799 -0.311127 0
M  V30 28861 O 2823.35 1.69025 -0.573843 0
M  V30 28862 C 2820.45 3.17616 -1.18209 0
M  V30 28863 C 2819.62 3.65318 -2.40544 0
M  V30 28864 C 2818.68 4.81047 -2.13262 0
M  V30 28865 O 2817.71 4.91887 -2.86419 0
M  V30 28866 N 2818.91 5.69352 -1.13218 0
M  V30 28867 H 2821.67 1.81971 -2.38131 0
M  V30 28868 H 2819.23 0.863422 -1.36955 0
M  V30 28869 H 2821.23 3.92684 -0.978849 0
M  V30 28870 H 2819.8 3.11182 -0.297435 0
M  V30 28871 H 2819.02 2.80992 -2.76473 0
M  V30 28872 H 2820.3 3.9393 -3.22019 0
M  V30 28873 H 2819.7 5.6324 -0.526992 0
M  V30 28874 H 2818.26 6.44256 -0.988812 0
M  V30 28875 N 2821.69 1.28226 0.916285 0
M  V30 28876 C 2822.92 1.18076 1.69899 0
M  V30 28877 C 2823.34 -0.260935 1.86988 0
M  V30 28878 O 2822.69 -1.17661 1.39507 0
M  V30 28879 C 2822.74 1.87207 3.0925 0
M  V30 28880 O 2822.46 3.25745 2.92954 0
M  V30 28881 C 2823.97 1.83327 4.03617 0
M  V30 28882 H 2821.19 0.409995 0.531173 0
M  V30 28883 H 2823.73 1.69305 1.147 0
M  V30 28884 H 2821.88 1.39855 3.61275 0
M  V30 28885 H 2822.3 3.6033 3.81133 0
M  V30 28886 H 2823.77 2.36291 4.98869 0
M  V30 28887 H 2824.25 0.805083 4.31758 0
M  V30 28888 H 2824.86 2.30346 3.5752 0
M  V30 28889 N 2823.17 -1.12438 1.10433 0
M  V30 28890 C 2824.1 -2.20257 0.775181 0
M  V30 28891 C 2825.08 -1.68226 -0.25183 0
M  V30 28892 O 2826.27 -1.93844 -0.117603 0
M  V30 28893 C 2823.4 -3.46687 0.206194 0
M  V30 28894 C 2822.35 -4.11871 1.16389 0
M  V30 28895 C 2821.68 -5.32751 0.456108 0
M  V30 28896 C 2822.98 -4.58009 2.51048 0
M  V30 28897 H 2824.67 -2.48047 1.67669 0
M  V30 28898 H 2822.22 -1.19221 0.807616 0
M  V30 28899 H 2824.17 -4.21384 -0.036217 0
M  V30 28900 H 2822.89 -3.18324 -0.730558 0
M  V30 28901 H 2821.55 -3.39154 1.39175 0
M  V30 28902 H 2821.2 -5.00655 -0.485115 0
M  V30 28903 H 2820.9 -5.77312 1.09476 0
M  V30 28904 H 2822.42 -6.10195 0.222243 0
M  V30 28905 H 2823.84 -5.24079 2.3241 0
M  V30 28906 H 2822.24 -5.13347 3.10798 0
M  V30 28907 H 2823.31 -3.71992 3.11046 0
M  V30 28908 N 2824.65 -0.893076 -1.29853 0
M  V30 28909 C 2825.58 -0.382289 -2.30349 0
M  V30 28910 C 2826.56 0.539174 -1.61329 0
M  V30 28911 O 2827.75 0.451309 -1.88883 0
M  V30 28912 C 2824.88 0.396922 -3.45024 0
M  V30 28913 C 2823.83 -0.433512 -4.25799 0
M  V30 28914 C 2823.16 0.472796 -5.32606 0
M  V30 28915 C 2824.46 -1.67993 -4.94546 0
M  V30 28916 H 2826.15 -1.2221 -2.73322 0
M  V30 28917 H 2823.7 -0.589096 -1.31399 0
M  V30 28918 H 2825.65 0.764951 -4.14399 0
M  V30 28919 H 2824.37 1.27045 -3.00877 0
M  V30 28920 H 2823.03 -0.783786 -3.58123 0
M  V30 28921 H 2822.68 1.34427 -4.84704 0
M  V30 28922 H 2822.38 -0.0790991 -5.87547 0
M  V30 28923 H 2823.9 0.837163 -6.04834 0
M  V30 28924 H 2825.32 -1.38202 -5.56393 0
M  V30 28925 H 2823.71 -2.17264 -5.59389 0
M  V30 28926 H 2824.78 -2.41972 -4.20211 0
M  V30 28927 N 2826.13 1.4335 -0.654865 0
M  V30 28928 C 2827.07 2.30772 0.0357308 0
M  V30 28929 C 2828.04 1.44843 0.81301 0
M  V30 28930 O 2829.23 1.73709 0.789283 0
M  V30 28931 C 2826.37 3.30444 0.995025 0
M  V30 28932 C 2825.48 4.31471 0.213675 0
M  V30 28933 C 2824.62 5.18224 1.16692 0
M  V30 28934 C 2823.66 6.10943 0.376094 0
M  V30 28935 N 2822.79 6.90315 1.28101 0
M  V30 28936 H 2827.63 2.89279 -0.71564 0
M  V30 28937 H 2825.17 1.42508 -0.36467 0
M  V30 28938 H 2827.13 3.86741 1.56483 0
M  V30 28939 H 2825.76 2.73583 1.71325 0
M  V30 28940 H 2824.81 3.77455 -0.472444 0
M  V30 28941 H 2826.12 4.97184 -0.401191 0
M  V30 28942 H 2825.28 5.79156 1.8073 0
M  V30 28943 H 2824.02 4.52641 1.81569 0
M  V30 28944 H 2823.02 5.49099 -0.27763 0
M  V30 28945 H 2824.25 6.7857 -0.268298 0
M  V30 28946 H 2822.19 6.27379 1.91655 0
M  V30 28947 H 2822.11 7.52556 0.720747 0
M  V30 28948 H 2823.38 7.5575 1.90949 0
M  V30 28949 N 2827.61 0.39689 1.52521 0
M  V30 28950 C 2828.83 -0.185222 2.06571 0
M  V30 28951 C 2829.26 -1.39112 1.26607 0
M  V30 28952 O 2828.61 -1.78915 0.293086 0
M  V30 28953 C 2828.66 -0.526126 3.56741 0
M  V30 28954 O 2827.77 -1.61896 3.79293 0
M  V30 28955 H 2827.11 -0.0195358 0.663713 0
M  V30 28956 H 2829.64 0.566553 1.96599 0
M  V30 28957 H 2829.65 -0.788268 4.00313 0
M  V30 28958 H 2828.32 0.35547 4.14378 0
M  V30 28959 H 2826.9 -1.34994 3.47607 0
M  V30 28960 N 2829.08 -1.57088 0.126936 0
M  V30 28961 C 2830.03 -2.12292 -0.83164 0
M  V30 28962 C 2831.02 -1.04566 -1.2229 0
M  V30 28963 O 2832.21 -1.30784 -1.19266 0
M  V30 28964 C 2829.34 -2.73219 -2.07861 0
M  V30 28965 C 2828.42 -3.88038 -1.71136 0
M  V30 28966 N 2828.82 -4.94754 -1.05127 0
M  V30 28967 C 2827.11 -3.9837 -2.00542 0
M  V30 28968 C 2827.81 -5.75049 -0.877156 0
M  V30 28969 N 2826.79 -5.25138 -1.40468 0
M  V30 28970 H 2830.59 -2.92176 -0.317874 0
M  V30 28971 H 2828.11 -1.62225 -0.0752767 0
M  V30 28972 H 2830.1 -3.11116 -2.77511 0
M  V30 28973 H 2828.76 -1.94801 -2.59774 0
M  V30 28974 H 2829.77 -5.1295 -0.71433 0
M  V30 28975 H 2826.45 -3.31004 -2.54446 0
M  V30 28976 H 2827.84 -6.70943 -0.358418 0
M  V30 28977 N 2830.56 0.146848 -1.56914 0
M  V30 28978 C 2831.98 0.499492 -1.51582 0
M  V30 28979 C 2832.18 1.83367 -0.835383 0
M  V30 28980 O 2831.23 2.49215 -0.405976 0
M  V30 28981 C 2832.55 0.509659 -2.96349 0
M  V30 28982 C 2834.09 0.595163 -3.07289 0
M  V30 28983 C 2834.57 0.635991 -4.53563 0
M  V30 28984 N 2836.06 0.69821 -4.57907 0
M  V30 28985 C 2836.8 0.750786 -5.68464 0
M  V30 28986 N 2836.29 0.762699 -6.88589 0
M  V30 28987 N 2838.08 0.791679 -5.56497 0
M  V30 28988 H 2830.24 -0.727691 -1.99546 0
M  V30 28989 H 2832.5 -0.265343 -0.910108 0
M  V30 28990 H 2832.2 -0.402471 -3.4939 0
M  V30 28991 H 2832.08 1.34752 -3.52309 0
M  V30 28992 H 2834.47 1.49771 -2.54269 0
M  V30 28993 H 2834.55 -0.269845 -2.54373 0
M  V30 28994 H 2834.19 -0.262402 -5.07222 0
M  V30 28995 H 2834.12 1.51749 -5.04262 0
M  V30 28996 H 2836.61 0.696296 -3.7143 0
M  V30 28997 H 2836.92 0.804669 -7.68599 0
M  V30 28998 H 2835.27 0.730573 -6.9115 0
M  V30 28999 H 2838.46 0.779543 -4.61563 0
M  V30 29000 H 2838.63 0.829188 -6.42673 0
M  V30 29001 N 2832.04 1.52005 0.4162 0
M  V30 29002 C 2833.29 1.65962 1.16552 0
M  V30 29003 C 2833.62 0.38494 1.90347 0
M  V30 29004 O 2832.89 -0.616372 1.84475 0
M  V30 29005 C 2833.18 2.877 2.16565 0
M  V30 29006 C 2833.03 4.252 1.46714 0
M  V30 29007 C 2834.35 3.04957 3.17316 0
M  V30 29008 H 2831.47 0.603972 0.422358 0
M  V30 29009 H 2834.11 1.84543 0.452109 0
M  V30 29010 H 2832.26 2.71989 2.77406 0
M  V30 29011 H 2833.93 4.52624 0.89048 0
M  V30 29012 H 2832.17 4.26926 0.769188 0
M  V30 29013 H 2832.85 5.06414 2.19656 0
M  V30 29014 H 2835.32 3.19519 2.66546 0
M  V30 29015 H 2834.2 3.91663 3.84567 0
M  V30 29016 H 2834.46 2.17957 3.84639 0
M  V30 29017 N 2833.52 -0.672992 1.42508 0
M  V30 29018 C 2834.47 -1.80776 1.46365 0
M  V30 29019 C 2835.46 -1.65969 0.339195 0
M  V30 29020 O 2836.67 -1.72556 0.512292 0
M  V30 29021 H 2833.04 -0.596099 0.458443 0
M  V30 29022 H 2835.01 -1.74641 2.41956 0
M  V30 29023 C 2833.76 -3.18939 1.38468 0
M  V30 29024 H 2833.08 -3.3096 2.24289 0
M  V30 29025 H 2834.52 -3.98353 1.45228 0
M  V30 29026 C 2832.98 -3.36752 0.0996946 0
M  V30 29027 O 2833.51 -3.92673 -0.846825 0
M  V30 29028 N 2831.72 -2.90595 0.0162621 0
M  V30 29029 H 2831.27 -2.45274 0.787293 0
M  V30 29030 H 2831.22 -3.02892 -0.842857 0
M  V30 29031 N 2835 -1.2871 -0.909472 0
M  V30 29032 C 2836.24 -1.17371 -1.67342 0
M  V30 29033 C 2836.6 0.272385 -1.90058 0
M  V30 29034 O 2837.8 0.50857 -2.63945 0
M  V30 29035 C 2836.07 -1.95461 -2.99215 0
M  V30 29036 S 2837.63 -2.00544 -3.90291 0
M  V30 29037 H 2834.45 -0.418682 -0.574653 0
M  V30 29038 H 2837.05 -1.62867 -1.08141 0
M  V30 29039 H 2835.75 -2.99685 -2.80388 0
M  V30 29040 H 2835.29 -1.50531 -3.63461 0
M  V30 29041 H 2837.3 -1.11504 -4.83509 0
M  V30 29042 N 2836.47 1.1185 -1.11028 0
M  V30 29043 C 2837.75 1.79876 -0.768379 0
M  V30 29044 C 2838.13 1.97546 0.744226 0
M  V30 29045 O 2837.48 1.55672 1.67268 0
M  V30 29046 C 2837.69 3.13844 -1.52654 0
M  V30 29047 C 2839.04 3.8895 -1.70304 0
M  V30 29048 O 2840.06 3.23519 -1.49042 0
M  V30 29049 O 2838.92 5.0635 -2.05602 0
M  V30 29050 H 2836.01 0.778908 -0.277905 0
M  V30 29051 H 2838.56 1.18631 -1.21346 0
M  V30 29052 H 2837.33 2.96311 -2.55569 0
M  V30 29053 H 2836.95 3.82799 -1.07473 0
M  V30 29054 N 2837.95 0.89995 1.29378 0
M  V30 29055 C 2839.37 0.596085 1.48051 0
M  V30 29056 C 2839.57 -0.86234 1.82115 0
M  V30 29057 O 2838.62 -1.6425 1.91777 0
M  V30 29058 C 2839.94 1.52212 2.5933 0
M  V30 29059 C 2841.48 1.52735 2.73205 0
M  V30 29060 C 2841.96 2.43968 3.87613 0
M  V30 29061 N 2843.45 2.42016 3.94946 0
M  V30 29062 C 2844.19 3.09312 4.82819 0
M  V30 29063 N 2843.68 3.85887 5.75381 0
M  V30 29064 N 2845.47 2.98468 4.76312 0
M  V30 29065 H 2837.63 1.84321 1.05543 0
M  V30 29066 H 2839.89 0.789819 0.5243 0
M  V30 29067 H 2839.59 2.56126 2.41024 0
M  V30 29068 H 2839.47 1.24284 3.56137 0
M  V30 29069 H 2841.86 0.495665 2.90907 0
M  V30 29070 H 2841.94 1.84701 1.76972 0
M  V30 29071 H 2841.58 3.47231 3.70666 0
M  V30 29072 H 2841.51 2.09311 4.83215 0
M  V30 29073 H 2844 1.8638 3.28741 0
M  V30 29074 H 2844.31 4.3429 6.39228 0
M  V30 29075 H 2842.66 3.89994 5.75265 0
M  V30 29076 H 2845.85 2.38159 4.02986 0
M  V30 29077 H 2846.02 3.51189 5.44583 0
M  V30 29078 N 2839.43 -1.43001 0.662458 0
M  V30 29079 C 2840.68 -2.01303 0.179272 0
M  V30 29080 C 2841 -1.52581 -1.21425 0
M  V30 29081 O 2840.27 -0.742284 -1.81292 0
M  V30 29082 H 2838.85 -0.744314 0.0632856 0
M  V30 29083 H 2841.51 -1.75086 0.856199 0
M  V30 29084 H 2840.61 -3.11631 0.171012 0
M  V30 29085 N 2840.91 -0.404973 -1.52308 0
M  V30 29086 C 2841.84 0.41372 -2.29806 0
M  V30 29087 C 2842.82 1.04978 -1.33842 0
M  V30 29088 O 2844 1.05958 -1.62747 0
M  V30 29089 C 2841.13 1.53287 -3.11641 0
M  V30 29090 C 2840.09 1.02203 -4.15618 0
M  V30 29091 C 2839.41 2.23446 -4.85774 0
M  V30 29092 C 2840.71 0.0789807 -5.2224 0
M  V30 29093 H 2842.41 -0.23293 -2.98493 0
M  V30 29094 H 2839.95 -0.113466 -1.43552 0
M  V30 29095 H 2841.91 2.11256 -3.64622 0
M  V30 29096 H 2840.63 2.20734 -2.40716 0
M  V30 29097 H 2839.29 0.464776 -3.63642 0
M  V30 29098 H 2838.94 2.89438 -4.11381 0
M  V30 29099 H 2838.64 1.8992 -5.56061 0
M  V30 29100 H 2840.16 2.82029 -5.41565 0
M  V30 29101 H 2841.58 0.567338 -5.70486 0
M  V30 29102 H 2839.97 -0.167272 -5.99867 0
M  V30 29103 H 2841.04 -0.867531 -4.77076 0
M  V30 29104 N 2842.39 1.57018 -0.135265 0
M  V30 29105 C 2843.8 1.58059 0.221235 0
M  V30 29106 C 2844 1.14892 1.65536 0
M  V30 29107 O 2843.06 0.843793 2.37984 0
M  V30 29108 C 2844.37 3.00688 -0.0268643 0
M  V30 29109 C 2845.92 3.12977 0.0377656 0
M  V30 29110 C 2846.39 4.57635 -0.182849 0
M  V30 29111 N 2847.89 4.63019 -0.129374 0
M  V30 29112 C 2848.62 5.72741 -0.274749 0
M  V30 29113 N 2848.12 6.91155 -0.477197 0
M  V30 29114 N 2849.91 5.61696 -0.213176 0
M  V30 29115 H 2842.06 1.83375 -1.0718 0
M  V30 29116 H 2844.32 0.848219 -0.423353 0
M  V30 29117 H 2844.03 3.36616 -1.01894 0
M  V30 29118 H 2843.9 3.70689 0.697798 0
M  V30 29119 H 2846.29 2.76897 1.02039 0
M  V30 29120 H 2846.37 2.45486 -0.719039 0
M  V30 29121 H 2846.02 4.94417 -1.16252 0
M  V30 29122 H 2845.95 5.23238 0.594138 0
M  V30 29123 H 2848.44 3.77893 0.0229231 0
M  V30 29124 H 2848.75 7.70631 -0.578548 0
M  V30 29125 H 2847.09 6.93101 -0.513374 0
M  V30 29126 H 2850.29 4.68067 -0.0558619 0
M  V30 29127 H 2850.46 6.4716 -0.32991 0
M  V30 29128 N 2843.86 -0.138524 1.5699 0
M  V30 29129 C 2845.28 -0.697724 1.73172 0
M  V30 29130 C 2845.63 -1.81259 0.750984 0
M  V30 29131 O 2844.75 -2.1625 -0.080511 0
M  V30 29132 C 2845.35 -1.27242 3.13998 0
M  V30 29133 C 2843.91 -1.77811 3.31753 0
M  V30 29134 C 2843.05 -0.669944 2.69086 0
M  V30 29135 H 2846 0.0872257 1.5846 0
M  V30 29136 H 2846.02 -2.14221 3.14467 0
M  V30 29137 H 2845.54 -0.460787 3.85355 0
M  V30 29138 H 2843.64 -2.61514 2.65407 0
M  V30 29139 H 2843.75 -1.90099 4.39772 0
M  V30 29140 H 2842.11 -1.0987 2.29784 0
M  V30 29141 H 2842.9 0.13039 3.43052 0
M  V30 29142 N 2845.34 -1.52224 -0.408133 0
M  V30 29143 C 2846.57 -1.70474 -1.18124 0
M  V30 29144 C 2846.99 -0.413872 -1.8349 0
M  V30 29145 O 2846.35 0.628748 -1.70048 0
M  V30 29146 C 2846.4 -2.84217 -2.2193 0
M  V30 29147 O 2845.5 -2.49856 -3.28094 0
M  V30 29148 H 2844.84 -0.567476 -0.344771 0
M  V30 29149 H 2847.37 -1.98931 -0.478293 0
M  V30 29150 H 2847.38 -3.09158 -2.66243 0
M  V30 29151 H 2846.06 -3.77873 -1.73737 0
M  V30 29152 H 2844.64 -2.35589 -2.89054 0
M  V30 29153 N 2846.82 0.665425 -1.42863 0
M  V30 29154 C 2848.06 1.43735 -1.45326 0
M  V30 29155 C 2848.42 1.91869 -0.0708307 0
M  V30 29156 O 2849.63 2.68783 0.029838 0
M  V30 29157 C 2847.9 2.59573 -2.45676 0
M  V30 29158 S 2849.46 3.48283 -2.66916 0
M  V30 29159 H 2846.27 0.4908 -0.514428 0
M  V30 29160 H 2848.88 0.773714 -1.79538 0
M  V30 29161 H 2847.58 2.22465 -3.44873 0
M  V30 29162 H 2847.11 3.308 -2.1292 0
M  V30 29163 H 2849.13 4.55883 -1.95922 0
M  V30 29164 N 2848.3 1.29191 0.902633 0
M  V30 29165 C 2849.71 1.15345 1.46807 0
M  V30 29166 C 2850.06 -0.252483 1.94569 0
M  V30 29167 O 2849.19 -1.14773 1.83456 0
M  V30 29168 C 2849.78 2.08781 2.66826 0
M  V30 29169 C 2848.34 1.98967 3.19514 0
M  V30 29170 C 2847.49 1.99878 1.92209 0
M  V30 29171 H 2850.44 1.41718 0.714257 0
M  V30 29172 H 2850.46 1.65832 3.42462 0
M  V30 29173 H 2849.97 3.11098 2.32033 0
M  V30 29174 H 2848.07 0.997273 3.59006 0
M  V30 29175 H 2848.18 2.86483 3.8401 0
M  V30 29176 H 2846.55 1.44435 2.09787 0
M  V30 29177 H 2847.33 3.03894 1.59697 0
M  V30 29178 N 2849.78 -1.1126 1.1162 0
M  V30 29179 C 2850.72 -2.19439 0.77133 0
M  V30 29180 C 2851.72 -1.67719 -0.238043 0
M  V30 29181 O 2852.92 -1.79738 -0.0971312 0
M  V30 29182 H 2849.3 -0.715461 0.23156 0
M  V30 29183 H 2851.27 -2.45772 1.6923 0
M  V30 29184 C 2850.02 -3.4692 0.232826 0
M  V30 29185 H 2849.34 -3.87072 1.00078 0
M  V30 29186 H 2850.78 -4.2399 0.0297306 0
M  V30 29187 C 2849.24 -3.20533 -1.03732 0
M  V30 29188 O 2849.77 -3.41408 -2.11669 0
M  V30 29189 N 2847.98 -2.74255 -0.960857 0
M  V30 29190 H 2847.52 -2.57468 -0.0823871 0
M  V30 29191 H 2847.48 -2.56977 -1.81136 0
M  V30 29192 N 2851.25 -0.906798 -1.28899 0
M  V30 29193 C 2852.48 -0.551338 -1.99938 0
M  V30 29194 C 2852.9 0.858466 -1.67368 0
M  V30 29195 O 2852.26 1.57258 -0.902204 0
M  V30 29196 C 2852.31 -0.758999 -3.52522 0
M  V30 29197 O 2851.41 0.185236 -4.11984 0
M  V30 29198 H 2850.76 -0.214579 -0.628372 0
M  V30 29199 H 2853.29 -1.22033 -1.64223 0
M  V30 29200 H 2853.3 -0.6664 -4.02521 0
M  V30 29201 H 2851.97 -1.78678 -3.75562 0
M  V30 29202 H 2850.55 0.0444922 -3.72873 0
M  V30 29203 N 2852.73 1.42648 -0.670032 0
M  V30 29204 C 2853.66 2.29145 0.0501343 0
M  V30 29205 C 2854.68 1.43423 0.770306 0
M  V30 29206 O 2855.87 1.67191 0.625259 0
M  V30 29207 C 2852.97 3.20737 1.09458 0
M  V30 29208 C 2852.14 4.35087 0.449183 0
M  V30 29209 C 2851.2 5.07433 1.39276 0
M  V30 29210 O 2850.22 5.62121 0.894898 0
M  V30 29211 N 2851.43 5.12501 2.72622 0
M  V30 29212 H 2854.19 2.91593 -0.692363 0
M  V30 29213 H 2851.75 1.53521 -0.514083 0
M  V30 29214 H 2853.74 3.66002 1.72698 0
M  V30 29215 H 2852.31 2.59774 1.73886 0
M  V30 29216 H 2851.53 3.92528 -0.362642 0
M  V30 29217 H 2852.82 5.088 -0.00063421 0
M  V30 29218 H 2852.22 4.69472 3.15614 0
M  V30 29219 H 2850.78 5.61428 3.31122 0
M  V30 29220 N 2854.21 0.413044 1.52091 0
M  V30 29221 C 2855.44 -0.163301 2.06756 0
M  V30 29222 C 2855.86 -1.37762 1.28075 0
M  V30 29223 O 2855.22 -1.78594 0.312046 0
M  V30 29224 C 2855.27 -0.488259 3.57279 0
M  V30 29225 O 2854.37 -1.57864 3.80989 0
M  V30 29226 H 2853.71 -0.0124951 0.663882 0
M  V30 29227 H 2856.24 0.587373 1.95987 0
M  V30 29228 H 2856.25 -0.745765 4.01126 0
M  V30 29229 H 2854.93 0.3994 4.13978 0
M  V30 29230 H 2853.5 -1.313 3.4902 0
M  V30 29231 N 2855.69 -1.56945 0.143591 0
M  V30 29232 C 2857.1 -1.82838 -0.377798 0
M  V30 29233 C 2857.45 -1.06212 -1.64965 0
M  V30 29234 O 2856.58 -0.306328 -2.14221 0
M  V30 29235 C 2857.17 -3.31653 -0.692215 0
M  V30 29236 C 2855.73 -3.5814 -1.15814 0
M  V30 29237 C 2854.88 -2.76719 -0.179461 0
M  V30 29238 H 2857.83 -1.54366 0.368345 0
M  V30 29239 H 2857.85 -3.47622 -1.54723 0
M  V30 29240 H 2857.36 -3.87396 0.23364 0
M  V30 29241 H 2855.46 -3.0778 -2.10005 0
M  V30 29242 H 2855.58 -4.66618 -1.08647 0
M  V30 29243 H 2853.94 -2.45691 -0.671415 0
M  V30 29244 H 2854.72 -3.35231 0.739924 0
M  V30 29245 N 2857.17 0.130197 -1.57061 0
M  V30 29246 C 2858.41 0.841184 -1.84532 0
M  V30 29247 C 2858.75 1.80051 -0.727698 0
M  V30 29248 O 2858.02 1.92653 0.267386 0
M  V30 29249 C 2858.3 1.60094 -3.22555 0
M  V30 29250 C 2858.16 0.66197 -4.44902 0
M  V30 29251 C 2859.48 2.55967 -3.58007 0
M  V30 29252 H 2856.6 0.304355 -0.671221 0
M  V30 29253 H 2859.24 0.105787 -1.89705 0
M  V30 29254 H 2857.39 2.22784 -3.18276 0
M  V30 29255 H 2859.06 0.0447748 -4.61278 0
M  V30 29256 H 2857.3 -0.0273016 -4.33791 0
M  V30 29257 H 2857.97 1.22997 -5.38122 0
M  V30 29258 H 2860.45 2.03387 -3.63005 0
M  V30 29259 H 2859.33 3.06164 -4.55582 0
M  V30 29260 H 2859.59 3.38111 -2.84839 0
M  V30 29261 N 2858.65 1.52438 0.400055 0
M  V30 29262 C 2859.59 1.76429 1.488 0
M  V30 29263 C 2860.56 0.607059 1.54609 0
M  V30 29264 O 2861.75 0.845593 1.71039 0
M  V30 29265 C 2858.89 1.92901 2.86152 0
M  V30 29266 C 2858 3.20572 2.89581 0
M  V30 29267 C 2857.14 3.27425 4.1829 0
M  V30 29268 C 2856.17 4.49262 4.15728 0
M  V30 29269 N 2855.31 4.53457 5.36024 0
M  V30 29270 H 2860.15 2.69279 1.27644 0
M  V30 29271 H 2857.69 1.33422 0.619428 0
M  V30 29272 H 2859.65 2.00436 3.65898 0
M  V30 29273 H 2858.28 1.03423 3.05783 0
M  V30 29274 H 2857.33 3.22164 2.02273 0
M  V30 29275 H 2858.64 4.10363 2.83555 0
M  V30 29276 H 2857.79 3.34081 5.06433 0
M  V30 29277 H 2856.53 2.35588 4.27024 0
M  V30 29278 H 2855.54 4.42743 3.25974 0
M  V30 29279 H 2856.76 5.42403 4.08627 0
M  V30 29280 H 2854.71 3.64507 5.45408 0
M  V30 29281 H 2854.63 5.37105 5.32028 0
M  V30 29282 H 2855.89 4.64354 6.26095 0
M  V30 29283 N 2860.12 -0.657839 1.43214 0
M  V30 29284 C 2861.37 -1.41988 1.448 0
M  V30 29285 C 2861.7 -1.94073 0.0702901 0
M  V30 29286 O 2860.98 -1.71997 -0.908147 0
M  V30 29287 C 2861.26 -2.60466 2.48655 0
M  V30 29288 C 2861.11 -2.13904 3.95683 0
M  V30 29289 C 2862.43 -3.62682 2.49299 0
M  V30 29290 H 2859.55 -0.51495 0.527253 0
M  V30 29291 H 2862.19 -0.746179 1.74735 0
M  V30 29292 H 2860.34 -3.17942 2.2326 0
M  V30 29293 H 2862.02 -1.61465 4.32119 0
M  V30 29294 H 2860.26 -1.45318 4.08736 0
M  V30 29295 H 2860.93 -2.99081 4.63955 0
M  V30 29296 H 2863.41 -3.14956 2.71922 0
M  V30 29297 H 2862.28 -4.43137 3.23915 0
M  V30 29298 H 2862.54 -4.14962 1.52509 0
M  V30 29299 N 2861.6 -1.29668 -0.895769 0
M  V30 29300 C 2862.51 -1.17028 -2.03327 0
M  V30 29301 C 2863.53 -0.0926267 -1.73753 0
M  V30 29302 O 2864.7 -0.305466 -1.9907 0
M  V30 29303 C 2861.77 -0.8519 -3.36071 0
M  V30 29304 C 2860.83 -2.0138 -3.79137 0
M  V30 29305 C 2860.06 -1.71052 -5.05546 0
M  V30 29306 O 2860.29 -0.633312 -5.66873 0
M  V30 29307 O 2859.22 -2.55969 -5.4476 0
M  V30 29308 H 2863.05 -2.1256 -2.16915 0
M  V30 29309 H 2860.63 -1.09158 -1.02005 0
M  V30 29310 H 2862.51 -0.689079 -4.15728 0
M  V30 29311 H 2861.19 0.0736065 -3.23616 0
M  V30 29312 H 2860.09 -2.23188 -3.0023 0
M  V30 29313 H 2861.43 -2.92065 -3.96181 0
M  V30 29314 N 2863.08 1.10667 -1.12208 0
M  V30 29315 C 2863.99 2.20512 -0.800724 0
M  V30 29316 C 2865.01 1.72734 0.209482 0
M  V30 29317 O 2866.18 2.01353 0.0436696 0
M  V30 29318 C 2863.25 3.45743 -0.257414 0
M  V30 29319 C 2862.31 4.08268 -1.32725 0
M  V30 29320 C 2861.54 5.27521 -0.809767 0
M  V30 29321 O 2861.76 5.6928 0.35732 0
M  V30 29322 O 2860.7 5.80839 -1.57826 0
M  V30 29323 H 2864.52 2.50429 -1.71811 0
M  V30 29324 H 2862.11 1.19357 -0.898567 0
M  V30 29325 H 2863.99 4.2138 0.0408108 0
M  V30 29326 H 2862.67 3.17459 0.632572 0
M  V30 29327 H 2861.57 3.34326 -1.6786 0
M  V30 29328 H 2862.91 4.40749 -2.19091 0
M  V30 29329 N 2864.56 0.913621 1.28416 0
M  V30 29330 C 2865.79 0.562571 1.99105 0
M  V30 29331 C 2866.2 -0.856107 1.68274 0
M  V30 29332 O 2865.56 -1.56703 0.935429 0
M  V30 29333 C 2865.61 0.761965 3.53378 0
M  V30 29334 O 2865.33 2.12482 3.83123 0
M  V30 29335 C 2866.83 0.417729 4.41327 0
M  V30 29336 H 2864.05 0.214492 0.635794 0
M  V30 29337 H 2866.59 1.22679 1.63616 0
M  V30 29338 H 2864.75 0.144744 3.8713 0
M  V30 29339 H 2865.16 2.1644 4.77759 0
M  V30 29340 H 2866.64 0.608015 5.48641 0
M  V30 29341 H 2867.11 -0.646031 4.34423 0
M  V30 29342 H 2867.72 1.01248 4.13072 0
M  V30 29343 N 2866.04 -1.4229 0.677588 0
M  V30 29344 C 2867.28 -2.0337 0.20493 0
M  V30 29345 C 2867.64 -1.52432 -1.16741 0
M  V30 29346 O 2868.84 -2.05317 -1.73489 0
M  V30 29347 C 2867.11 -3.56588 0.240805 0
M  V30 29348 S 2868.67 -4.38507 -0.160443 0
M  V30 29349 H 2865.49 -0.70602 0.0840056 0
M  V30 29350 H 2868.09 -1.73997 0.891362 0
M  V30 29351 H 2866.79 -3.91158 1.2419 0
M  V30 29352 H 2866.33 -3.90638 -0.46537 0
M  V30 29353 H 2868.34 -4.76244 -1.39307 0
M  V30 29354 N 2867.51 -0.421104 -1.5187 0
M  V30 29355 C 2868.76 0.150457 -2.01539 0
M  V30 29356 C 2869.08 1.4462 -1.30805 0
M  V30 29357 O 2868.35 1.9095 -0.437601 0
M  V30 29358 H 2866.93 0.058591 -0.744699 0
M  V30 29359 H 2869.59 -0.560092 -1.86679 0
M  V30 29360 H 2868.69 0.338013 -3.10264 0
M  V30 29361 N 2868.99 1.56866 -0.151912 0
M  V30 29362 C 2870.23 1.98174 0.500661 0
M  V30 29363 C 2870.6 1.03502 1.61714 0
M  V30 29364 O 2871.8 1.33873 2.33091 0
M  V30 29365 C 2870.07 3.43436 0.989273 0
M  V30 29366 S 2871.63 4.06768 1.64575 0
M  V30 29367 H 2868.45 0.692364 0.161718 0
M  V30 29368 H 2871.05 1.93961 -0.244788 0
M  V30 29369 H 2869.75 4.10064 0.166 0
M  V30 29370 H 2869.28 3.51372 1.76923 0
M  V30 29371 H 2871.3 4.00223 2.93319 0
M  V30 29372 N 2870.47 -0.121866 1.57128 0
M  V30 29373 C 2871.89 -0.475313 1.52358 0
M  V30 29374 C 2872.09 -1.82015 0.864449 0
M  V30 29375 O 2871.14 -2.48538 0.445572 0
M  V30 29376 C 2872.46 -0.462448 2.97123 0
M  V30 29377 C 2874 -0.546201 3.08197 0
M  V30 29378 C 2874.48 -0.563753 4.54517 0
M  V30 29379 N 2875.97 -0.625272 4.5896 0
M  V30 29380 C 2876.7 -0.660254 5.69586 0
M  V30 29381 N 2876.2 -0.653054 6.89715 0
M  V30 29382 N 2877.99 -0.703045 5.57686 0
M  V30 29383 H 2870.14 0.759344 1.98363 0
M  V30 29384 H 2872.41 0.279788 0.905772 0
M  V30 29385 H 2872.11 0.458005 3.48705 0
M  V30 29386 H 2871.99 -1.2913 3.54409 0
M  V30 29387 H 2874.37 -1.45707 2.56619 0
M  V30 29388 H 2874.46 0.310279 2.53911 0
M  V30 29389 H 2874.1 0.343063 5.0674 0
M  V30 29390 H 2874.03 -1.43708 5.06612 0
M  V30 29391 H 2876.52 -0.637117 3.72491 0
M  V30 29392 H 2876.83 -0.68229 7.69782 0
M  V30 29393 H 2875.18 -0.620524 6.92224 0
M  V30 29394 H 2878.37 -0.706013 4.62745 0
M  V30 29395 H 2878.54 -0.726839 6.43911 0
M  V30 29396 N 2871.95 -1.52648 -0.391965 0
M  V30 29397 C 2873.19 -1.68747 -1.1356 0
M  V30 29398 C 2873.55 -0.420718 -1.87744 0
M  V30 29399 O 2872.84 0.585497 -1.82435 0
M  V30 29400 C 2873.04 -2.85953 -2.14396 0
M  V30 29401 C 2872.87 -4.23905 -1.50116 0
M  V30 29402 C 2871.64 -4.8917 -1.26651 0
M  V30 29403 C 2873.83 -5.05396 -0.952844 0
M  V30 29404 N 2871.82 -6.11112 -0.584447 0
M  V30 29405 C 2873.19 -6.18717 -0.398675 0
M  V30 29406 C 2875.24 -4.90609 -0.848967 0
M  V30 29407 C 2873.94 -7.18868 0.249211 0
M  V30 29408 C 2875.97 -5.91009 -0.214908 0
M  V30 29409 C 2875.33 -7.03634 0.328506 0
M  V30 29410 H 2871.43 -0.670991 -0.401616 0
M  V30 29411 H 2874.02 -1.89992 -0.425552 0
M  V30 29412 H 2872.19 -2.66293 -2.82741 0
M  V30 29413 H 2873.92 -2.91004 -2.81245 0
M  V30 29414 H 2870.67 -4.47839 -1.5407 0
M  V30 29415 H 2871.1 -6.76502 -0.259544 0
M  V30 29416 H 2875.74 -4.03748 -1.2549 0
M  V30 29417 H 2873.46 -8.05341 0.66716 0
M  V30 29418 H 2877.04 -5.81641 -0.135819 0
M  V30 29419 H 2875.92 -7.79991 0.811394 0
M  V30 29420 N 2873.43 0.650235 -1.43561 0
M  V30 29421 C 2874.65 1.43776 -1.48782 0
M  V30 29422 C 2875.07 1.88499 -0.106626 0
M  V30 29423 O 2874.43 1.59676 0.883738 0
M  V30 29424 C 2874.48 2.67077 -2.43623 0
M  V30 29425 O 2874.2 2.24224 -3.76371 0
M  V30 29426 C 2875.7 3.60404 -2.58116 0
M  V30 29427 H 2872.92 0.441584 -0.505217 0
M  V30 29428 H 2875.46 0.796908 -1.88334 0
M  V30 29429 H 2873.62 3.27296 -2.07258 0
M  V30 29430 H 2874.03 3.04023 -4.274 0
M  V30 29431 H 2875.51 4.43578 -3.28547 0
M  V30 29432 H 2875.98 4.0795 -1.62707 0
M  V30 29433 H 2876.59 3.06065 -2.95304 0
M  V30 29434 N 2874.9 1.30141 0.88888 0
M  V30 29435 C 2876.14 1.20018 1.65454 0
M  V30 29436 C 2876.51 -0.242114 1.90467 0
M  V30 29437 O 2877.71 -0.466514 2.64721 0
M  V30 29438 C 2875.98 2.00196 2.96068 0
M  V30 29439 S 2877.54 2.06728 3.87051 0
M  V30 29440 H 2874.36 0.427771 0.56792 0
M  V30 29441 H 2876.96 1.64567 1.05537 0
M  V30 29442 H 2875.66 3.04107 2.75584 0
M  V30 29443 H 2875.19 1.56294 3.6102 0
M  V30 29444 H 2877.21 1.19183 4.81674 0
M  V30 29445 N 2876.38 -1.1007 1.12794 0
M  V30 29446 C 2877.79 -1.6361 0.899375 0
M  V30 29447 C 2878.14 -1.87873 -0.565514 0
M  V30 29448 O 2877.27 -1.6235 -1.43078 0
M  V30 29449 C 2877.86 -2.97224 1.62613 0
M  V30 29450 C 2876.42 -3.47616 1.44362 0
M  V30 29451 C 2875.57 -2.22153 1.65962 0
M  V30 29452 H 2878.52 -0.935201 1.28217 0
M  V30 29453 H 2878.54 -3.6487 1.07936 0
M  V30 29454 H 2878.05 -2.79533 2.69226 0
M  V30 29455 H 2876.16 -3.70444 0.400213 0
M  V30 29456 H 2876.27 -4.25485 2.20226 0
M  V30 29457 H 2874.63 -2.30482 1.08399 0
M  V30 29458 H 2875.42 -2.06988 2.73881 0
M  V30 29459 N 2877.86 -0.920419 -1.2793 0
M  V30 29460 C 2879.1 -0.564232 -1.96458 0
M  V30 29461 C 2879.46 0.876937 -1.70803 0
M  V30 29462 O 2880.67 1.34103 -2.32959 0
M  V30 29463 C 2878.94 -0.872702 -3.46581 0
M  V30 29464 S 2880.5 -0.623935 -4.34341 0
M  V30 29465 H 2877.31 -0.208535 -0.679731 0
M  V30 29466 H 2879.92 -1.1873 -1.55317 0
M  V30 29467 H 2878.62 -1.9194 -3.6275 0
M  V30 29468 H 2878.15 -0.238548 -3.92676 0
M  V30 29469 H 2880.17 0.521658 -4.9345 0
M  V30 29470 N 2879.34 1.41929 -0.685124 0
M  V30 29471 C 2880.58 2.01689 -0.212007 0
M  V30 29472 C 2880.92 1.54096 1.18186 0
M  V30 29473 O 2880.19 0.747604 1.79558 0
M  V30 29474 C 2880.48 3.59174 -0.258083 0
M  V30 29475 C 2880.33 4.16919 -1.68814 0
M  V30 29476 C 2881.65 4.38387 0.387967 0
M  V30 29477 H 2878.77 0.732806 -0.0785116 0
M  V30 29478 H 2881.41 1.68815 -0.871867 0
M  V30 29479 H 2879.56 3.87311 0.303764 0
M  V30 29480 H 2881.23 3.99697 -2.30303 0
M  V30 29481 H 2879.47 3.72357 -2.2256 0
M  V30 29482 H 2880.14 5.26069 -1.67199 0
M  V30 29483 H 2882.62 4.16002 -0.0904163 0
M  V30 29484 H 2881.5 5.47936 0.325136 0
M  V30 29485 H 2881.76 4.17046 1.46713 0
M  V30 29486 N 2880.82 0.429152 1.51644 0
M  V30 29487 C 2882.06 -0.139318 2.03925 0
M  V30 29488 C 2882.42 -1.40669 1.30676 0
M  V30 29489 O 2883.62 -2.05488 1.73286 0
M  V30 29490 C 2881.89 -0.361116 3.55571 0
M  V30 29491 S 2883.45 -0.894166 4.29593 0
M  V30 29492 H 2880.27 -0.0356861 0.710104 0
M  V30 29493 H 2882.87 0.586677 1.8649 0
M  V30 29494 H 2881.58 0.567757 4.06454 0
M  V30 29495 H 2881.11 -1.11442 3.77285 0
M  V30 29496 H 2883.12 -2.17264 4.46106 0
M  V30 29497 N 2882.29 -1.56783 0.160229 0
M  V30 29498 C 2883.52 -2.00913 -0.49413 0
M  V30 29499 C 2883.94 -1.04041 -1.57546 0
M  V30 29500 O 2883.29 -0.0394902 -1.82457 0
M  V30 29501 C 2883.35 -3.44907 -1.08265 0
M  V30 29502 O 2883.07 -4.38077 -0.0444934 0
M  V30 29503 C 2884.57 -4.04382 -1.81633 0
M  V30 29504 H 2881.79 -0.658778 -0.127486 0
M  V30 29505 H 2884.33 -2.02857 0.258701 0
M  V30 29506 H 2882.49 -3.43773 -1.78603 0
M  V30 29507 H 2882.9 -5.22322 -0.477452 0
M  V30 29508 H 2884.37 -5.07093 -2.18085 0
M  V30 29509 H 2884.85 -3.45842 -2.70721 0
M  V30 29510 H 2885.46 -4.09186 -1.15962 0
M  V30 29511 N 2883.77 0.113531 -1.57191 0
M  V30 29512 C 2885.02 0.818729 -1.84773 0
M  V30 29513 C 2885.34 1.80157 -0.746228 0
M  V30 29514 O 2884.61 1.94554 0.229271 0
M  V30 29515 H 2883.19 0.305347 -0.681742 0
M  V30 29516 H 2885.85 0.0995502 -1.94646 0
M  V30 29517 H 2884.95 1.36062 -2.8088 0
M  V30 29518 N 2885.25 1.52854 0.383864 0
M  V30 29519 C 2886.48 1.72332 1.15397 0
M  V30 29520 C 2886.9 0.443012 1.82809 0
M  V30 29521 O 2886.26 -0.601615 1.71027 0
M  V30 29522 C 2886.31 2.87712 2.17381 0
M  V30 29523 O 2885.41 2.55044 3.24078 0
M  V30 29524 H 2884.75 0.572889 0.335699 0
M  V30 29525 H 2887.28 1.99667 0.446585 0
M  V30 29526 H 2887.29 3.13355 2.61291 0
M  V30 29527 H 2885.97 3.8059 1.67703 0
M  V30 29528 H 2884.54 2.40158 2.85269 0
M  V30 29529 N 2886.73 -0.642612 1.43904 0
M  V30 29530 C 2887.95 -1.43481 1.4976 0
M  V30 29531 C 2888.38 -1.87717 0.119944 0
M  V30 29532 O 2887.74 -1.58034 -0.88853 0
M  V30 29533 C 2887.79 -2.63894 2.45749 0
M  V30 29534 O 2886.89 -3.63327 1.95108 0
M  V30 29535 H 2886.23 -0.429782 0.506146 0
M  V30 29536 H 2888.76 -0.785404 1.88925 0
M  V30 29537 H 2888.77 -3.1158 2.63405 0
M  V30 29538 H 2887.45 -2.3104 3.45822 0
M  V30 29539 H 2886.02 -3.22528 1.87163 0
M  V30 29540 N 2888.21 -1.30611 -0.881966 0
M  V30 29541 C 2889.44 -1.22539 -1.66708 0
M  V30 29542 C 2889.85 0.211267 -1.87614 0
M  V30 29543 O 2889.21 1.1392 -1.42578 0
M  V30 29544 C 2889.26 -1.9534 -3.04178 0
M  V30 29545 O 2888.98 -3.33398 -2.84214 0
M  V30 29546 C 2890.48 -1.93963 -3.98614 0
M  V30 29547 H 2887.7 -0.423934 -0.520116 0
M  V30 29548 H 2890.24 -1.72287 -1.10171 0
M  V30 29549 H 2888.4 -1.49384 -3.5744 0
M  V30 29550 H 2888.81 -3.70309 -3.71446 0
M  V30 29551 H 2890.29 -2.49435 -4.92429 0
M  V30 29552 H 2890.76 -0.919273 -4.29472 0
M  V30 29553 H 2891.37 -2.39744 -3.51287 0
M  V30 29554 N 2889.69 1.0947 -1.13376 0
M  V30 29555 C 2891.1 1.33681 -0.87187 0
M  V30 29556 C 2891.3 1.95381 0.492812 0
M  V30 29557 O 2890.36 2.19988 1.23943 0
M  V30 29558 C 2891.67 2.2489 -1.99612 0
M  V30 29559 C 2893.22 2.384 -2.02816 0
M  V30 29560 C 2893.69 3.32945 -3.14503 0
M  V30 29561 N 2895.18 3.40517 -3.1401 0
M  V30 29562 C 2895.92 4.13672 -3.97068 0
M  V30 29563 N 2895.42 4.89627 -4.9014 0
M  V30 29564 N 2897.21 4.09392 -3.85169 0
M  V30 29565 H 2889.36 0.677959 -2.0129 0
M  V30 29566 H 2891.62 0.361185 -0.876498 0
M  V30 29567 H 2891.33 1.86781 -2.98003 0
M  V30 29568 H 2891.2 3.25275 -1.90987 0
M  V30 29569 H 2893.59 2.75773 -1.05038 0
M  V30 29570 H 2893.67 1.37795 -2.15513 0
M  V30 29571 H 2893.31 2.96295 -4.12519 0
M  V30 29572 H 2893.24 4.33452 -2.99043 0
M  V30 29573 H 2895.74 2.86358 -2.46592 0
M  V30 29574 H 2896.05 5.42876 -5.50005 0
M  V30 29575 H 2894.39 4.88717 -4.94146 0
M  V30 29576 H 2897.58 3.49153 -3.11785 0
M  V30 29577 H 2897.76 4.66143 -4.50128 0
M  V30 29578 N 2891.16 0.92719 1.2744 0
M  V30 29579 C 2892.11 0.396917 2.24519 0
M  V30 29580 C 2893.1 -0.498528 1.52982 0
M  V30 29581 O 2894.29 -0.336056 1.7378 0
M  V30 29582 C 2891.42 -0.349634 3.41515 0
M  V30 29583 C 2890.5 0.5623 4.20356 0
M  V30 29584 N 2890.9 1.6819 4.77017 0
M  V30 29585 C 2889.19 0.365213 4.44502 0
M  V30 29586 C 2889.89 2.24905 5.36463 0
M  V30 29587 N 2888.87 1.53869 5.21369 0
M  V30 29588 H 2892.67 1.25178 2.65909 0
M  V30 29589 H 2890.19 0.781405 1.42365 0
M  V30 29590 H 2892.18 -0.746464 4.10163 0
M  V30 29591 H 2890.84 -1.20143 3.01655 0
M  V30 29592 H 2891.85 2.06429 4.74981 0
M  V30 29593 H 2888.53 -0.445964 4.15111 0
M  V30 29594 H 2889.92 3.19161 5.91258 0
M  V30 29595 N 2892.64 -1.41564 0.692641 0
M  V30 29596 C 2893.89 -2.00502 0.219487 0
M  V30 29597 C 2894.2 -1.55481 -1.1868 0
M  V30 29598 O 2895.41 -2.06959 -1.75727 0
M  V30 29599 C 2893.87 -3.58276 0.341514 0
M  V30 29600 C 2893.47 -4.1228 1.75299 0
M  V30 29601 C 2895.22 -4.24439 -0.0720153 0
M  V30 29602 C 2893.12 -5.62478 1.82682 0
M  V30 29603 H 2892.05 -0.749923 0.0783006 0
M  V30 29604 H 2894.71 -1.62078 0.860414 0
M  V30 29605 H 2893.09 -3.9429 -0.367614 0
M  V30 29606 H 2894.26 -3.87691 2.49064 0
M  V30 29607 H 2892.58 -3.58632 2.11593 0
M  V30 29608 H 2895.17 -5.34687 -0.0372445 0
M  V30 29609 H 2895.52 -4.01222 -1.11026 0
M  V30 29610 H 2896.05 -3.93449 0.586733 0
M  V30 29611 H 2892.79 -5.90518 2.8455 0
M  V30 29612 H 2892.31 -5.89002 1.13298 0
M  V30 29613 H 2893.99 -6.272 1.58838 0
M  V30 29614 N 2894.12 -0.437188 -1.51415 0
M  V30 29615 C 2895.37 0.12952 -2.02386 0
M  V30 29616 C 2895.7 1.42373 -1.32074 0
M  V30 29617 O 2894.97 1.89559 -0.435624 0
M  V30 29618 C 2895.26 0.348424 -3.5841 0
M  V30 29619 C 2895.11 -0.96443 -4.39339 0
M  V30 29620 C 2896.43 1.11826 -4.25656 0
M  V30 29621 H 2893.55 0.045598 -0.735588 0
M  V30 29622 H 2896.19 -0.576156 -1.81054 0
M  V30 29623 H 2894.34 0.949525 -3.76718 0
M  V30 29624 H 2896.01 -1.5995 -4.32682 0
M  V30 29625 H 2894.25 -1.56905 -4.04429 0
M  V30 29626 H 2894.93 -0.765308 -5.46669 0
M  V30 29627 H 2897.4 0.609093 -4.11618 0
M  V30 29628 H 2896.28 1.24019 -5.34706 0
M  V30 29629 H 2896.54 2.1463 -3.86506 0
M  V30 29630 N 2895.6 1.56696 -0.168541 0
M  V30 29631 C 2896.83 2.01172 0.483468 0
M  V30 29632 C 2897.24 1.04875 1.56992 0
M  V30 29633 O 2896.6 0.0491658 1.82434 0
M  V30 29634 C 2896.65 3.45476 1.06434 0
M  V30 29635 O 2896.37 4.38095 0.0212604 0
M  V30 29636 C 2897.87 4.05339 1.79485 0
M  V30 29637 H 2895.09 0.659445 0.123991 0
M  V30 29638 H 2897.63 2.02717 -0.269455 0
M  V30 29639 H 2895.79 3.44715 1.76778 0
M  V30 29640 H 2896.2 5.22568 0.449745 0
M  V30 29641 H 2897.68 5.08242 2.15392 0
M  V30 29642 H 2898.15 3.47273 2.68883 0
M  V30 29643 H 2898.76 4.09795 1.1379 0
M  V30 29644 N 2897.08 -0.105193 1.57249 0
M  V30 29645 C 2898.32 -0.810519 1.85572 0
M  V30 29646 C 2898.65 -1.79222 0.755626 0
M  V30 29647 O 2897.91 -1.94074 -0.251754 0
M  V30 29648 C 2898.2 -1.58282 3.2044 0
M  V30 29649 C 2897.87 -0.744156 4.44717 0
M  V30 29650 C 2896.53 -0.512929 4.78458 0
M  V30 29651 C 2898.88 -0.160486 5.20953 0
M  V30 29652 C 2896.21 0.311997 5.8587 0
M  V30 29653 C 2898.56 0.651707 6.29234 0
M  V30 29654 C 2897.23 0.893121 6.61498 0
M  V30 29655 H 2896.5 -0.29659 0.679055 0
M  V30 29656 H 2899.15 -0.0723632 1.91363 0
M  V30 29657 H 2897.45 -2.39226 3.10287 0
M  V30 29658 H 2899.15 -2.13276 3.3958 0
M  V30 29659 H 2895.74 -0.934481 4.18289 0
M  V30 29660 H 2899.92 -0.326313 4.95226 0
M  V30 29661 H 2895.18 0.508119 6.09285 0
M  V30 29662 H 2899.35 1.11089 6.87482 0
M  V30 29663 H 2896.98 1.53414 7.44559 0
M  V30 29664 N 2898.55 -1.53055 -0.375752 0
M  V30 29665 C 2899.83 -1.59338 -1.1345 0
M  V30 29666 C 2900.21 -0.394651 -2.07378 0
M  V30 29667 O 2899.56 0.615962 -2.20041 0
M  V30 29668 C 2899.77 -2.93872 -1.88255 0
M  V30 29669 C 2901.12 -3.48086 -2.43149 0
M  V30 29670 O 2902.14 -2.95834 -1.98395 0
M  V30 29671 O 2901 -4.39407 -3.24937 0
M  V30 29672 H 2898.09 -0.643188 -0.519845 0
M  V30 29673 H 2900.64 -1.65394 -0.379836 0
M  V30 29674 H 2899.41 -3.7256 -1.19645 0
M  V30 29675 H 2899.04 -2.91261 -2.70653 0
M  V30 29676 N 2900.03 0.634971 -1.44242 0
M  V30 29677 C 2901.28 1.39185 -1.46533 0
M  V30 29678 C 2901.6 1.94755 -0.0976783 0
M  V30 29679 O 2900.87 1.75546 0.869497 0
M  V30 29680 H 2899.45 0.516615 -0.539553 0
M  V30 29681 H 2902.11 0.747623 -1.79991 0
M  V30 29682 H 2901.21 2.22509 -2.18852 0
M  V30 29683 N 2901.51 1.31076 0.875027 0
M  V30 29684 C 2902.44 1.14117 1.98771 0
M  V30 29685 C 2903.46 0.0816405 1.62595 0
M  V30 29686 O 2904.64 0.328641 1.75449 0
M  V30 29687 C 2901.74 0.720282 3.31157 0
M  V30 29688 C 2900.92 1.86373 3.95707 0
M  V30 29689 C 2899.98 1.42973 5.06404 0
M  V30 29690 O 2899 2.13857 5.27498 0
M  V30 29691 N 2900.2 0.314296 5.79649 0
M  V30 29692 H 2902.97 2.09955 2.13867 0
M  V30 29693 H 2900.53 1.23344 1.04871 0
M  V30 29694 H 2902.52 0.412758 4.0259 0
M  V30 29695 H 2901.09 -0.146341 3.12257 0
M  V30 29696 H 2900.31 2.33884 3.1732 0
M  V30 29697 H 2901.6 2.62974 4.35571 0
M  V30 29698 H 2901 -0.276129 5.65026 0
M  V30 29699 H 2899.56 0.0662787 6.51766 0
M  V30 29700 N 2902.99 -1.08867 1.13955 0
M  V30 29701 C 2903.94 -2.17753 0.817703 0
M  V30 29702 C 2904.93 -1.68186 -0.202414 0
M  V30 29703 O 2906.14 -1.79903 -0.0589843 0
M  V30 29704 H 2902.51 -0.710388 0.246684 0
M  V30 29705 H 2904.48 -2.42127 1.74405 0
M  V30 29706 C 2903.23 -3.46348 0.306361 0
M  V30 29707 H 2902.55 -3.84862 1.08266 0
M  V30 29708 H 2903.99 -4.23831 0.119658 0
M  V30 29709 C 2902.45 -3.22661 -0.969102 0
M  V30 29710 O 2902.98 -3.45821 -2.0438 0
M  V30 29711 N 2901.19 -2.76232 -0.902468 0
M  V30 29712 H 2900.74 -2.57585 -0.0277557 0
M  V30 29713 H 2900.69 -2.60761 -1.75644 0
M  V30 29714 N 2904.47 -0.933936 -1.26946 0
M  V30 29715 C 2905.71 -0.577659 -1.94086 0
M  V30 29716 C 2906.04 0.88211 -1.73347 0
M  V30 29717 O 2905.3 1.6454 -1.05948 0
M  V30 29718 C 2905.6 -0.857467 -3.46961 0
M  V30 29719 C 2905.26 -2.29996 -3.8783 0
M  V30 29720 C 2903.92 -2.6943 -3.98699 0
M  V30 29721 C 2906.28 -3.23773 -4.08437 0
M  V30 29722 C 2903.6 -4.01752 -4.27566 0
M  V30 29723 C 2905.96 -4.55682 -4.3879 0
M  V30 29724 C 2904.62 -4.94941 -4.47872 0
M  V30 29725 H 2903.89 -0.21138 -0.710211 0
M  V30 29726 H 2906.54 -1.17908 -1.50897 0
M  V30 29727 H 2904.84 -0.173438 -3.91416 0
M  V30 29728 H 2906.54 -0.560685 -3.97061 0
M  V30 29729 H 2903.13 -1.98406 -3.79912 0
M  V30 29730 H 2907.31 -2.94506 -3.99474 0
M  V30 29731 H 2902.57 -4.31842 -4.32808 0
M  V30 29732 H 2906.74 -5.28343 -4.53681 0
M  V30 29733 H 2904.37 -5.97503 -4.69994 0
M  V30 29734 N 2905.94 1.41194 -0.700139 0
M  V30 29735 C 2906.89 2.30769 -0.0377058 0
M  V30 29736 C 2907.86 1.47356 0.766518 0
M  V30 29737 O 2909.05 1.76133 0.733619 0
M  V30 29738 C 2906.19 3.33442 0.889394 0
M  V30 29739 C 2905.3 4.31933 0.0762971 0
M  V30 29740 C 2904.43 5.21675 1.00146 0
M  V30 29741 C 2903.47 6.11831 0.181536 0
M  V30 29742 N 2902.61 6.94041 1.06074 0
M  V30 29743 H 2907.45 2.86856 -0.80731 0
M  V30 29744 H 2904.99 1.41276 -0.409823 0
M  V30 29745 H 2906.95 3.91524 1.441 0
M  V30 29746 H 2905.58 2.78895 1.62535 0
M  V30 29747 H 2904.63 3.75761 -0.592289 0
M  V30 29748 H 2905.94 4.95656 -0.559163 0
M  V30 29749 H 2905.09 5.84613 1.62213 0
M  V30 29750 H 2903.83 4.58189 1.67077 0
M  V30 29751 H 2902.84 5.47937 -0.452181 0
M  V30 29752 H 2904.06 6.77373 -0.484044 0
M  V30 29753 H 2902.01 6.33159 1.71599 0
M  V30 29754 H 2901.93 7.54469 0.480962 0
M  V30 29755 H 2903.19 7.61443 1.66809 0
M  V30 29756 N 2907.42 0.445212 1.51181 0
M  V30 29757 C 2908.35 -0.352645 2.30822 0
M  V30 29758 C 2909.33 -1.01393 1.36578 0
M  V30 29759 O 2910.52 -1.01606 1.65499 0
M  V30 29760 C 2907.65 -1.4497 3.15596 0
M  V30 29761 C 2906.6 -0.911479 4.18182 0
M  V30 29762 C 2905.93 -2.10488 4.91527 0
M  V30 29763 C 2907.23 0.0595098 5.22266 0
M  V30 29764 H 2908.92 0.311988 2.9777 0
M  V30 29765 H 2906.47 0.151487 1.43201 0
M  V30 29766 H 2908.42 -2.01514 3.70095 0
M  V30 29767 H 2907.15 -2.14274 2.46484 0
M  V30 29768 H 2905.8 -0.3682 3.64746 0
M  V30 29769 H 2905.45 -2.78429 4.18911 0
M  V30 29770 H 2905.15 -1.7511 5.60901 0
M  V30 29771 H 2906.68 -2.67571 5.48852 0
M  V30 29772 H 2908.09 -0.415884 5.7179 0
M  V30 29773 H 2906.49 0.326258 5.99212 0
M  V30 29774 H 2907.56 0.993714 4.74609 0
M  V30 29775 N 2908.9 -1.56605 0.176849 0
M  V30 29776 C 2910.13 -2.01426 -0.472793 0
M  V30 29777 C 2910.54 -1.05706 -1.56434 0
M  V30 29778 O 2909.9 -0.05884 -1.82405 0
M  V30 29779 C 2909.95 -3.46036 -1.04601 0
M  V30 29780 O 2909.67 -4.381 0.00197309 0
M  V30 29781 C 2911.17 -4.06285 -1.77333 0
M  V30 29782 H 2908.39 -0.660093 -0.120492 0
M  V30 29783 H 2910.94 -2.02571 0.280202 0
M  V30 29784 H 2909.09 -3.45648 -1.74947 0
M  V30 29785 H 2909.51 -5.22799 -0.422026 0
M  V30 29786 H 2910.98 -5.09377 -2.12694 0
M  V30 29787 H 2911.46 -3.48694 -2.67037 0
M  V30 29788 H 2912.06 -4.10393 -1.11616 0
M  V30 29789 N 2910.38 0.0968524 -1.57302 0
M  V30 29790 C 2911.63 0.799085 -1.85631 0
M  V30 29791 C 2911.95 1.79355 -0.765294 0
M  V30 29792 O 2911.22 1.94786 0.208623 0
M  V30 29793 H 2909.8 0.298099 -0.684942 0
M  V30 29794 H 2912.46 0.0788999 -1.9474 0
M  V30 29795 H 2911.56 1.33075 -2.82307 0
M  V30 29796 N 2911.86 1.53252 0.36763 0
M  V30 29797 C 2913.08 1.73546 1.13562 0
M  V30 29798 C 2913.51 0.462376 1.82329 0
M  V30 29799 O 2912.86 -0.583442 1.71656 0
M  V30 29800 C 2912.91 2.90001 2.14317 0
M  V30 29801 O 2912.02 2.58467 3.21355 0
M  V30 29802 H 2911.36 0.576418 0.329604 0
M  V30 29803 H 2913.89 2.00129 0.425382 0
M  V30 29804 H 2913.9 3.16108 2.57953 0
M  V30 29805 H 2912.57 3.82347 1.63657 0
M  V30 29806 H 2911.15 2.4317 2.82706 0
M  V30 29807 N 2913.34 -0.627313 1.44577 0
M  V30 29808 C 2914.58 -1.39832 1.49085 0
M  V30 29809 C 2914.94 -1.91614 0.121677 0
M  V30 29810 O 2916.14 -2.68768 0.0414357 0
M  V30 29811 C 2914.41 -2.52968 2.52472 0
M  V30 29812 S 2915.97 -3.41084 2.76056 0
M  V30 29813 H 2912.79 -0.476988 0.52726 0
M  V30 29814 H 2915.39 -0.725841 1.81526 0
M  V30 29815 H 2914.09 -2.13243 3.5065 0
M  V30 29816 H 2913.63 -3.25039 2.21616 0
M  V30 29817 H 2915.64 -4.50528 2.0794 0
M  V30 29818 N 2914.81 -1.31539 -0.868063 0
M  V30 29819 C 2916.04 -1.24435 -1.65924 0
M  V30 29820 C 2916.46 0.186903 -1.87169 0
M  V30 29821 O 2915.82 1.13369 -1.41482 0
M  V30 29822 C 2915.87 -1.99565 -3.00343 0
M  V30 29823 O 2914.97 -1.33429 -3.90218 0
M  V30 29824 H 2914.31 -0.429521 -0.506367 0
M  V30 29825 H 2916.84 -1.73639 -1.08216 0
M  V30 29826 H 2916.85 -2.09233 -3.50265 0
M  V30 29827 H 2915.53 -3.0365 -2.842 0
M  V30 29828 H 2914.11 -1.32225 -3.4867 0
M  V30 29829 N 2916.29 1.08262 -1.1453 0
M  V30 29830 C 2917.52 1.84149 -0.936636 0
M  V30 29831 C 2917.93 1.81963 0.518266 0
M  V30 29832 O 2917.27 1.22274 1.37094 0
M  V30 29833 C 2917.33 3.32706 -1.36188 0
M  V30 29834 C 2917 3.58624 -2.83263 0
M  V30 29835 C 2918 3.53343 -3.81372 0
M  V30 29836 C 2915.68 3.86587 -3.20711 0
M  V30 29837 C 2917.67 3.75659 -5.14936 0
M  V30 29838 C 2915.36 4.08556 -4.54451 0
M  V30 29839 C 2916.36 4.03085 -5.51372 0
M  V30 29840 O 2916.05 4.24476 -6.82697 0
M  V30 29841 H 2915.78 0.588142 -0.333264 0
M  V30 29842 H 2918.33 1.37627 -1.52473 0
M  V30 29843 H 2916.56 3.79992 -0.71713 0
M  V30 29844 H 2918.25 3.90033 -1.12379 0
M  V30 29845 H 2919.02 3.31753 -3.53787 0
M  V30 29846 H 2914.9 3.89964 -2.45864 0
M  V30 29847 H 2918.44 3.71305 -5.90575 0
M  V30 29848 H 2914.34 4.29631 -4.81755 0
M  V30 29849 H 2915.11 4.41873 -6.88978 0
M  V30 29850 N 2917.77 0.940655 1.26449 0
M  V30 29851 C 2919.02 0.588814 1.94064 0
M  V30 29852 C 2919.35 -0.869822 1.73631 0
M  V30 29853 O 2918.62 -1.62223 1.07302 0
M  V30 29854 C 2918.91 0.93126 3.4785 0
M  V30 29855 C 2918.76 2.4446 3.7757 0
M  V30 29856 C 2920.08 0.446306 4.37831 0
M  V30 29857 H 2917.2 0.215392 0.704823 0
M  V30 29858 H 2919.84 1.17478 1.49328 0
M  V30 29859 H 2917.99 0.432607 3.86084 0
M  V30 29860 H 2919.66 3.01594 3.49054 0
M  V30 29861 H 2917.9 2.8883 3.23666 0
M  V30 29862 H 2918.58 2.63472 4.85063 0
M  V30 29863 H 2921.05 0.873849 4.06821 0
M  V30 29864 H 2919.93 0.714744 5.44227 0
M  V30 29865 H 2920.19 -0.653738 4.3724 0
M  V30 29866 N 2919.25 -1.40821 0.707617 0
M  V30 29867 C 2920.18 -2.33411 0.0645335 0
M  V30 29868 C 2921.16 -1.52467 -0.754179 0
M  V30 29869 O 2922.34 -1.80962 -0.704717 0
M  V30 29870 C 2919.47 -3.36386 -0.863806 0
M  V30 29871 C 2918.43 -4.27732 -0.151305 0
M  V30 29872 C 2917.75 -5.2118 -1.19482 0
M  V30 29873 C 2919.05 -5.12837 0.989697 0
M  V30 29874 H 2920.75 -2.87437 0.83788 0
M  V30 29875 H 2918.29 -1.38206 0.404371 0
M  V30 29876 H 2920.25 -4.00093 -1.32302 0
M  V30 29877 H 2918.97 -2.80737 -1.66896 0
M  V30 29878 H 2917.63 -3.65467 0.288001 0
M  V30 29879 H 2917.28 -4.6184 -1.99281 0
M  V30 29880 H 2916.98 -5.83135 -0.723021 0
M  V30 29881 H 2918.5 -5.87763 -1.6543 0
M  V30 29882 H 2919.92 -5.70043 0.610215 0
M  V30 29883 H 2918.31 -5.83795 1.38936 0
M  V30 29884 H 2919.38 -4.49288 1.82397 0
M  V30 29885 N 2920.73 -0.453223 -1.50943 0
M  V30 29886 C 2921.97 0.107887 -2.02212 0
M  V30 29887 C 2922.3 1.41316 -1.33641 0
M  V30 29888 O 2921.56 1.90569 -0.445187 0
M  V30 29889 C 2921.85 0.357881 -3.55604 0
M  V30 29890 C 2921.52 -0.863505 -4.42554 0
M  V30 29891 C 2920.18 -1.19842 -4.66038 0
M  V30 29892 C 2922.53 -1.67755 -4.93465 0
M  V30 29893 C 2919.86 -2.34777 -5.37677 0
M  V30 29894 C 2922.21 -2.81803 -5.66365 0
M  V30 29895 C 2920.88 -3.1573 -5.88108 0
M  V30 29896 H 2920.15 0.0394786 -0.739948 0
M  V30 29897 H 2922.8 -0.603662 -1.81737 0
M  V30 29898 H 2921.1 1.15149 -3.74497 0
M  V30 29899 H 2922.8 0.805712 -3.92822 0
M  V30 29900 H 2919.39 -0.592553 -4.24484 0
M  V30 29901 H 2923.57 -1.432 -4.75192 0
M  V30 29902 H 2918.83 -2.61358 -5.52722 0
M  V30 29903 H 2923 -3.4524 -6.048 0
M  V30 29904 H 2920.63 -4.049 -6.43397 0
M  V30 29905 N 2922.2 1.56509 -0.185151 0
M  V30 29906 C 2923.14 2.1583 0.771363 0
M  V30 29907 C 2924.15 1.11749 1.1839 0
M  V30 29908 O 2925.34 1.38881 1.12135 0
M  V30 29909 C 2922.44 2.69742 2.05164 0
M  V30 29910 C 2921.61 3.98624 1.80049 0
M  V30 29911 C 2920.67 4.37461 2.92428 0
M  V30 29912 O 2919.7 5.05075 2.62464 0
M  V30 29913 N 2920.9 4.0015 4.20547 0
M  V30 29914 H 2923.66 2.98534 0.264131 0
M  V30 29915 H 2921.22 1.619 -0.00283914 0
M  V30 29916 H 2923.22 2.92714 2.79465 0
M  V30 29917 H 2921.79 1.91549 2.47038 0
M  V30 29918 H 2921.01 3.83887 0.895795 0
M  V30 29919 H 2922.29 4.82771 1.60653 0
M  V30 29920 H 2921.69 3.45744 4.47747 0
M  V30 29921 H 2920.25 4.28094 4.91507 0
M  V30 29922 N 2923.68 -0.0885089 1.57351 0
M  V30 29923 C 2924.63 -1.12572 2.03544 0
M  V30 29924 C 2925.62 -1.4108 0.937693 0
M  V30 29925 O 2926.83 -1.40684 1.12286 0
M  V30 29926 H 2923.2 -0.380284 0.648759 0
M  V30 29927 H 2925.18 -0.709855 2.89834 0
M  V30 29928 C 2923.92 -2.43587 2.48114 0
M  V30 29929 H 2923.25 -2.22496 3.32168 0
M  V30 29930 H 2924.69 -3.14648 2.84205 0
M  V30 29931 C 2923.15 -3.08356 1.35713 0
M  V30 29932 O 2923.68 -3.95731 0.689922 0
M  V30 29933 N 2921.88 -2.68712 1.10646 0
M  V30 29934 H 2921.43 -1.97751 1.65083 0
M  V30 29935 H 2921.39 -3.12373 0.35641 0
M  V30 29936 N 2925.16 -1.53445 -0.359498 0
M  V30 29937 C 2926.11 -1.80312 -1.4407 0
M  V30 29938 C 2927.08 -0.647837 -1.52945 0
M  V30 29939 O 2928.26 -0.890644 -1.68737 0
M  V30 29940 C 2925.4 -2.0042 -2.80937 0
M  V30 29941 C 2924.51 -3.28137 -2.8098 0
M  V30 29942 C 2923.65 -3.384 -4.09462 0
M  V30 29943 C 2922.69 -4.60126 -4.03671 0
M  V30 29944 N 2921.83 -4.67509 -5.23813 0
M  V30 29945 H 2926.67 -2.72568 -1.2046 0
M  V30 29946 H 2924.2 -1.35018 -0.583836 0
M  V30 29947 H 2926.16 -2.10067 -3.60455 0
M  V30 29948 H 2924.79 -1.11494 -3.02934 0
M  V30 29949 H 2923.84 -3.27414 -1.9366 0
M  V30 29950 H 2925.15 -4.17737 -2.72575 0
M  V30 29951 H 2924.31 -3.47391 -4.97398 0
M  V30 29952 H 2923.05 -2.46827 -4.20628 0
M  V30 29953 H 2922.05 -4.5123 -3.14121 0
M  V30 29954 H 2923.28 -5.53046 -3.94102 0
M  V30 29955 H 2921.22 -3.7884 -5.35552 0
M  V30 29956 H 2921.14 -5.51022 -5.17601 0
M  V30 29957 H 2922.41 -4.80791 -6.13564 0
M  V30 29958 N 2926.64 0.619637 -1.44908 0
M  V30 29959 C 2927.55 1.75952 -1.55171 0
M  V30 29960 C 2928.56 1.6843 -0.43675 0
M  V30 29961 O 2929.74 1.89001 -0.695738 0
M  V30 29962 C 2926.8 3.12378 -1.50403 0
M  V30 29963 C 2925.87 3.31446 -2.72841 0
M  V30 29964 C 2925.1 4.61363 -2.68291 0
M  V30 29965 O 2925.32 5.42911 -1.74939 0
M  V30 29966 O 2924.26 4.82882 -3.59316 0
M  V30 29967 H 2928.08 1.70246 -2.51496 0
M  V30 29968 H 2925.67 0.782266 -1.27283 0
M  V30 29969 H 2927.55 3.93682 -1.50308 0
M  V30 29970 H 2926.22 3.18602 -0.572253 0
M  V30 29971 H 2925.13 2.49776 -2.78501 0
M  V30 29972 H 2926.46 3.30091 -3.65104 0
M  V30 29973 N 2928.12 1.31997 0.861075 0
M  V30 29974 C 2929.05 1.16219 1.97549 0
M  V30 29975 C 2930.06 0.0988813 1.62499 0
M  V30 29976 O 2931.25 0.347231 1.7509 0
M  V30 29977 C 2928.35 0.755365 3.30375 0
M  V30 29978 C 2927.52 1.90559 3.93708 0
M  V30 29979 C 2926.58 1.48337 5.04859 0
M  V30 29980 O 2925.61 2.1944 5.252 0
M  V30 29981 N 2926.81 0.375758 5.79283 0
M  V30 29982 H 2929.58 2.12212 2.11628 0
M  V30 29983 H 2927.14 1.24449 1.03557 0
M  V30 29984 H 2929.13 0.455435 4.02129 0
M  V30 29985 H 2927.7 -0.113214 3.12395 0
M  V30 29986 H 2926.92 2.37237 3.14821 0
M  V30 29987 H 2928.21 2.67579 4.32757 0
M  V30 29988 H 2927.6 -0.216185 5.65287 0
M  V30 29989 H 2926.16 0.135404 6.51659 0
M  V30 29990 N 2929.59 -1.07653 1.15103 0
M  V30 29991 C 2930.87 -1.769 0.834609 0
M  V30 29992 C 2931.25 -2.00172 -0.670396 0
M  V30 29993 O 2930.6 -1.61772 -1.61375 0
M  V30 29994 C 2930.81 -3.07962 1.64197 0
M  V30 29995 C 2932.16 -3.82361 1.84622 0
M  V30 29996 O 2933.18 -3.17765 1.60947 0
M  V30 29997 O 2932.04 -4.9837 2.24253 0
M  V30 29998 H 2929.13 -0.768057 0.306622 0
M  V30 29999 H 2931.68 -1.14046 1.25665 0
M  V30 30000 H 2930.45 -2.86621 2.66391 0
M  V30 30001 H 2930.08 -3.78547 1.21606 0
M  V30 30002 N 2931.07 -0.947348 -1.25949 0
M  V30 30003 C 2932 -0.479644 -2.28521 0
M  V30 30004 C 2932.98 0.470264 -1.6347 0
M  V30 30005 O 2934.17 0.370791 -1.90627 0
M  V30 30006 C 2931.3 0.250228 -3.46397 0
M  V30 30007 C 2930.25 -0.613718 -4.23577 0
M  V30 30008 C 2929.58 0.246474 -5.34132 0
M  V30 30009 C 2930.88 -1.88817 -4.86976 0
M  V30 30010 H 2932.57 -1.33692 -2.67893 0
M  V30 30011 H 2930.12 -0.644297 -1.28782 0
M  V30 30012 H 2932.07 0.588502 -4.1727 0
M  V30 30013 H 2930.8 1.1417 -3.05995 0
M  V30 30014 H 2929.45 -0.934973 -3.54477 0
M  V30 30015 H 2929.1 1.13748 -4.8997 0
M  V30 30016 H 2928.8 -0.328227 -5.86683 0
M  V30 30017 H 2930.33 0.579879 -6.0784 0
M  V30 30018 H 2931.74 -1.61676 -5.50031 0
M  V30 30019 H 2930.14 -2.40794 -5.49671 0
M  V30 30020 H 2931.21 -2.59577 -4.0957 0
M  V30 30021 N 2932.55 1.40444 -0.715075 0
M  V30 30022 C 2933.46 2.34515 -0.0632036 0
M  V30 30023 C 2934.48 1.57274 0.744369 0
M  V30 30024 O 2935.65 1.89665 0.677442 0
M  V30 30025 C 2932.72 3.36173 0.847855 0
M  V30 30026 C 2931.78 4.29289 0.0302901 0
M  V30 30027 C 2931.01 5.26092 0.897959 0
M  V30 30028 O 2931.23 5.28848 2.1372 0
M  V30 30029 O 2930.17 6.00955 0.337223 0
M  V30 30030 H 2933.99 2.91877 -0.839129 0
M  V30 30031 H 2931.58 1.41629 -0.475552 0
M  V30 30032 H 2933.46 3.98518 1.36973 0
M  V30 30033 H 2932.14 2.81225 1.60294 0
M  V30 30034 H 2931.04 3.70231 -0.536638 0
M  V30 30035 H 2932.38 4.87388 -0.68656 0
M  V30 30036 N 2934.03 0.461222 1.507 0
M  V30 30037 C 2935.27 -0.0973054 2.02566 0
M  V30 30038 C 2935.61 -1.40254 1.34322 0
M  V30 30039 O 2934.88 -1.88842 0.465726 0
M  V30 30040 C 2935.17 -0.29136 3.58919 0
M  V30 30041 C 2935.02 1.0342 4.37749 0
M  V30 30042 C 2936.34 -1.0504 4.27381 0
M  V30 30043 H 2933.46 -0.0338896 0.73622 0
M  V30 30044 H 2936.1 0.604887 1.80114 0
M  V30 30045 H 2934.25 -0.889473 3.78181 0
M  V30 30046 H 2935.92 1.66813 4.30083 0
M  V30 30047 H 2934.16 1.6332 4.01882 0
M  V30 30048 H 2934.83 0.852181 5.45382 0
M  V30 30049 H 2937.31 -0.543531 4.12535 0
M  V30 30050 H 2936.19 -1.15497 5.36611 0
M  V30 30051 H 2936.45 -2.08453 3.89871 0
M  V30 30052 N 2935.51 -1.56408 0.193449 0
M  V30 30053 C 2936.76 -1.96708 -0.44596 0
M  V30 30054 C 2937.07 -1.08312 -1.62874 0
M  V30 30055 O 2938.27 -1.38388 -2.33583 0
M  V30 30056 C 2936.73 -3.49844 -0.844801 0
M  V30 30057 C 2936.34 -4.46901 0.313598 0
M  V30 30058 C 2938.08 -3.98917 -1.45139 0
M  V30 30059 C 2935.99 -5.91305 -0.10611 0
M  V30 30060 H 2934.92 -0.734496 -0.170385 0
M  V30 30061 H 2937.57 -1.8127 0.285204 0
M  V30 30062 H 2935.95 -3.60781 -1.63258 0
M  V30 30063 H 2937.13 -4.47696 1.09111 0
M  V30 30064 H 2935.44 -4.08012 0.831572 0
M  V30 30065 H 2938.04 -5.04279 -1.77783 0
M  V30 30066 H 2938.38 -3.4313 -2.35728 0
M  V30 30067 H 2938.91 -3.91089 -0.727606 0
M  V30 30068 H 2935.65 -6.51014 0.765557 0
M  V30 30069 H 2935.17 -5.93768 -0.848519 0
M  V30 30070 H 2936.85 -6.44722 -0.542474 0
M  V30 30071 N 2936.98 0.0801629 -1.57396 0
M  V30 30072 C 2937.91 1.09662 -2.06147 0
M  V30 30073 C 2938.9 1.40877 -0.953298 0
M  V30 30074 O 2940.08 1.50649 -1.2255 0
M  V30 30075 C 2937.21 2.4124 -2.49841 0
M  V30 30076 C 2936.16 2.24398 -3.64458 0
M  V30 30077 C 2935.49 3.61286 -3.94178 0
M  V30 30078 C 2936.79 1.67214 -4.9481 0
M  V30 30079 H 2938.48 0.690977 -2.91317 0
M  V30 30080 H 2936.03 0.330932 -1.40146 0
M  V30 30081 H 2937.98 3.12633 -2.82557 0
M  V30 30082 H 2936.71 2.83768 -1.61688 0
M  V30 30083 H 2935.37 1.55448 -3.32011 0
M  V30 30084 H 2935.01 4.01369 -3.0317 0
M  V30 30085 H 2934.71 3.50859 -4.71351 0
M  V30 30086 H 2936.24 4.34123 -4.29383 0
M  V30 30087 H 2937.65 2.28463 -5.25811 0
M  V30 30088 H 2936.05 1.67505 -5.76248 0
M  V30 30089 H 2937.12 0.632859 -4.80752 0
M  V30 30090 N 2938.46 1.53634 0.351355 0
M  V30 30091 C 2939.41 1.77454 1.43157 0
M  V30 30092 C 2940.4 0.629486 1.48075 0
M  V30 30093 O 2941.59 0.888626 1.53077 0
M  V30 30094 C 2938.72 1.9806 2.80405 0
M  V30 30095 C 2937.8 3.18608 2.7991 0
M  V30 30096 N 2938.19 4.40236 2.49049 0
M  V30 30097 C 2936.49 3.19619 3.11062 0
M  V30 30098 C 2937.19 5.2205 2.56591 0
M  V30 30099 N 2936.17 4.58585 2.91892 0
M  V30 30100 H 2939.97 2.69091 1.18183 0
M  V30 30101 H 2937.49 1.52452 0.559658 0
M  V30 30102 H 2939.48 2.13257 3.58227 0
M  V30 30103 H 2938.14 1.0766 3.06332 0
M  V30 30104 H 2939.15 4.67722 2.22387 0
M  V30 30105 H 2935.83 2.3916 3.42211 0
M  V30 30106 H 2937.22 6.29105 2.35957 0
M  V30 30107 N 2939.94 -0.611943 1.45234 0
M  V30 30108 C 2940.89 -1.74406 1.53901 0
M  V30 30109 C 2941.88 -1.64381 0.409283 0
M  V30 30110 O 2943.09 -1.70228 0.585018 0
M  V30 30111 H 2939.46 -0.576118 0.483313 0
M  V30 30112 H 2941.43 -1.64222 2.49146 0
M  V30 30113 C 2940.18 -3.12779 1.5187 0
M  V30 30114 H 2939.51 -3.21149 2.38124 0
M  V30 30115 H 2940.95 -3.91835 1.61993 0
M  V30 30116 C 2939.41 -3.36027 0.242433 0
M  V30 30117 O 2939.94 -3.95911 -0.679518 0
M  V30 30118 N 2938.14 -2.90265 0.139499 0
M  V30 30119 H 2937.69 -2.41714 0.890614 0
M  V30 30120 H 2937.65 -3.06194 -0.713632 0
M  V30 30121 N 2941.42 -1.32452 -0.854063 0
M  V30 30122 C 2942.67 -1.22803 -1.60511 0
M  V30 30123 C 2942.99 0.210039 -1.93866 0
M  V30 30124 O 2942.26 1.13493 -1.59675 0
M  V30 30125 H 2940.84 -0.451526 -0.595091 0
M  V30 30126 H 2943.5 -1.65982 -1.02157 0
M  V30 30127 H 2942.6 -1.81107 -2.54178 0
M  V30 30128 N 2942.9 1.07041 -1.15672 0
M  V30 30129 C 2943.86 2.12497 -0.858943 0
M  V30 30130 C 2944.86 1.60165 0.142707 0
M  V30 30131 O 2946.05 1.73981 -0.0872984 0
M  V30 30132 C 2943.18 3.39723 -0.28308 0
M  V30 30133 H 2944.38 2.40345 -1.79372 0
M  V30 30134 H 2941.93 1.22982 -0.964629 0
M  V30 30135 H 2942.66 3.17518 0.65974 0
M  V30 30136 H 2942.45 3.79009 -1.00473 0
M  V30 30137 H 2943.94 4.17498 -0.0924277 0
M  V30 30138 N 2944.38 0.954014 1.25445 0
M  V30 30139 C 2945.62 0.616121 1.94893 0
M  V30 30140 C 2945.98 -0.831344 1.73068 0
M  V30 30141 O 2947.18 -1.2788 2.36432 0
M  V30 30142 C 2945.45 0.964285 3.44146 0
M  V30 30143 S 2947.01 0.738874 4.32534 0
M  V30 30144 H 2943.83 0.226484 0.673963 0
M  V30 30145 H 2946.43 1.22806 1.52115 0
M  V30 30146 H 2945.13 2.0149 3.57533 0
M  V30 30147 H 2944.67 0.342576 3.91906 0
M  V30 30148 H 2946.68 -0.390645 4.9466 0
M  V30 30149 N 2945.85 -1.40063 0.722513 0
M  V30 30150 C 2947.08 -2.05589 0.273483 0
M  V30 30151 C 2947.5 -1.54095 -1.07872 0
M  V30 30152 O 2946.86 -0.679282 -1.68094 0
M  V30 30153 C 2946.91 -3.5958 0.271087 0
M  V30 30154 O 2946.01 -4.05607 -0.745427 0
M  V30 30155 H 2945.35 -0.651767 0.126867 0
M  V30 30156 H 2947.88 -1.79332 0.984938 0
M  V30 30157 H 2947.89 -4.07849 0.111156 0
M  V30 30158 H 2946.57 -3.96423 1.25783 0
M  V30 30159 H 2945.15 -3.68782 -0.552655 0
M  V30 30160 N 2947.33 -0.469207 -1.50453 0
M  V30 30161 C 2948.74 -0.0136362 -1.86695 0
M  V30 30162 C 2949.09 1.39053 -1.38415 0
M  V30 30163 O 2948.22 2.03049 -0.748329 0
M  V30 30164 C 2948.81 -0.0179694 -3.38795 0
M  V30 30165 C 2947.37 0.382125 -3.74455 0
M  V30 30166 C 2946.52 -0.404255 -2.74338 0
M  V30 30167 H 2949.47 -0.683572 -1.43224 0
M  V30 30168 H 2949.49 0.784614 -3.72323 0
M  V30 30169 H 2949 -1.04006 -3.73904 0
M  V30 30170 H 2947.1 1.40864 -3.44947 0
M  V30 30171 H 2947.22 0.0847778 -4.79025 0
M  V30 30172 H 2945.58 0.141785 -2.54305 0
M  V30 30173 H 2946.36 -1.42582 -3.1229 0
M  V30 30174 N 2948.81 1.56303 -0.201741 0
M  V30 30175 C 2950.06 1.97376 0.434412 0
M  V30 30176 C 2950.38 1.09001 1.6169 0
M  V30 30177 O 2949.65 0.162716 1.95223 0
M  V30 30178 H 2948.23 0.728891 0.163484 0
M  V30 30179 H 2950.89 1.9273 -0.290022 0
M  V30 30180 H 2949.99 3.02348 0.774082 0
M  V30 30181 N 2950.29 -0.0718147 1.57436 0
M  V30 30182 C 2951.25 -1.06973 2.02705 0
M  V30 30183 C 2952.25 -1.31595 0.924085 0
M  V30 30184 O 2953.44 -1.27316 1.18896 0
M  V30 30185 C 2950.57 -2.41338 2.40767 0
M  V30 30186 H 2951.77 -0.679568 2.92099 0
M  V30 30187 H 2949.32 -0.317538 1.5304 0
M  V30 30188 H 2950.05 -2.85187 1.54399 0
M  V30 30189 H 2949.84 -2.24809 3.21253 0
M  V30 30190 H 2951.33 -3.13068 2.76366 0
M  V30 30191 N 2951.77 -1.53818 -0.343203 0
M  V30 30192 C 2953.18 -1.44089 -0.68633 0
M  V30 30193 C 2953.38 -0.597916 -1.92425 0
M  V30 30194 O 2952.44 -0.0890362 -2.52343 0
M  V30 30195 C 2953.75 -2.87577 -0.878648 0
M  V30 30196 C 2955.3 -2.97353 -0.977243 0
M  V30 30197 C 2955.77 -4.41949 -1.20187 0
M  V30 30198 N 2957.26 -4.45476 -1.26907 0
M  V30 30199 C 2958 -5.54491 -1.46039 0
M  V30 30200 N 2957.5 -6.73511 -1.62342 0
M  V30 30201 N 2959.29 -5.42105 -1.4859 0
M  V30 30202 H 2951.44 -2.07118 0.470715 0
M  V30 30203 H 2953.7 -0.93627 0.148668 0
M  V30 30204 H 2953.41 -3.51677 -0.0405402 0
M  V30 30205 H 2953.28 -3.32544 -1.78028 0
M  V30 30206 H 2955.67 -2.33393 -1.80587 0
M  V30 30207 H 2955.75 -2.55746 -0.0525048 0
M  V30 30208 H 2955.39 -5.0649 -0.378173 0
M  V30 30209 H 2955.32 -4.81148 -2.14018 0
M  V30 30210 H 2957.82 -3.5971 -1.15831 0
M  V30 30211 H 2958.13 -7.52356 -1.76578 0
M  V30 30212 H 2956.47 -6.76455 -1.59478 0
M  V30 30213 H 2959.66 -4.48079 -1.35436 0
M  V30 30214 H 2959.84 -6.27123 -1.63159 0
M  V30 30215 N 2953.24 0.604233 -1.45557 0
M  V30 30216 C 2954.18 1.72868 -1.50497 0
M  V30 30217 C 2955.19 1.57925 -0.395396 0
M  V30 30218 O 2956.38 1.65745 -0.662633 0
M  V30 30219 C 2953.48 3.10903 -1.34879 0
M  V30 30220 C 2952.65 3.52054 -2.5957 0
M  V30 30221 C 2951.71 4.69066 -2.38461 0
M  V30 30222 O 2950.74 4.76013 -3.1209 0
M  V30 30223 N 2951.94 5.6255 -1.43239 0
M  V30 30224 H 2954.7 1.69092 -2.47443 0
M  V30 30225 H 2952.26 0.789611 -1.41339 0
M  V30 30226 H 2954.26 3.86943 -1.18563 0
M  V30 30227 H 2952.83 3.09168 -0.461967 0
M  V30 30228 H 2952.05 2.65941 -2.90979 0
M  V30 30229 H 2953.33 3.76307 -3.42448 0
M  V30 30230 H 2952.73 5.59655 -0.824813 0
M  V30 30231 H 2951.29 6.38109 -1.32893 0
M  V30 30232 N 2954.72 1.32903 0.847027 0
M  V30 30233 C 2955.97 1.23652 1.59858 0
M  V30 30234 C 2956.29 -0.199754 1.93974 0
M  V30 30235 O 2955.56 -1.12645 1.60275 0
M  V30 30236 H 2954.14 0.454676 0.592688 0
M  V30 30237 H 2956.8 1.66521 1.01275 0
M  V30 30238 H 2955.9 1.82452 2.53214 0
M  V30 30239 N 2956.2 -1.06426 1.16238 0
M  V30 30240 C 2957.44 -1.80786 0.953722 0
M  V30 30241 C 2957.8 -1.85117 -0.509463 0
M  V30 30242 O 2959 -2.55444 -0.836777 0
M  V30 30243 C 2957.28 -3.2144 1.56241 0
M  V30 30244 S 2958.83 -4.12431 1.4982 0
M  V30 30245 H 2955.65 -0.622786 0.343015 0
M  V30 30246 H 2958.25 -1.27783 1.47959 0
M  V30 30247 H 2956.96 -3.15881 2.62006 0
M  V30 30248 H 2956.49 -3.79519 1.03581 0
M  V30 30249 H 2958.5 -4.93699 0.497537 0
M  V30 30250 N 2957.68 -0.960653 -1.24937 0
M  V30 30251 C 2958.61 -0.429843 -2.24115 0
M  V30 30252 C 2959.59 0.492161 -1.54973 0
M  V30 30253 O 2960.77 0.425158 -1.83643 0
M  V30 30254 C 2957.9 0.380253 -3.36559 0
M  V30 30255 C 2956.95 -0.483015 -4.23756 0
M  V30 30256 S 2957.78 -1.91894 -4.99937 0
M  V30 30257 C 2958.94 -1.11743 -6.15844 0
M  V30 30258 H 2959.17 -1.27034 -2.68793 0
M  V30 30259 H 2956.7 -0.765165 -1.34107 0
M  V30 30260 H 2958.66 0.841693 -4.01778 0
M  V30 30261 H 2957.32 1.19564 -2.90454 0
M  V30 30262 H 2956.51 0.13861 -5.03809 0
M  V30 30263 H 2956.12 -0.879903 -3.63502 0
M  V30 30264 H 2958.41 -0.369017 -6.76494 0
M  V30 30265 H 2959.35 -1.8921 -6.82353 0
M  V30 30266 H 2959.76 -0.64491 -5.60804 0
M  V30 30267 N 2959.16 1.39677 -0.729931 0
M  V30 30268 C 2960.1 2.30637 -0.0866469 0
M  V30 30269 C 2961.07 1.48948 0.735089 0
M  V30 30270 O 2962.26 1.77649 0.696094 0
M  V30 30271 C 2959.4 3.35254 0.818465 0
M  V30 30272 C 2958.51 4.31997 -0.0153394 0
M  V30 30273 C 2957.65 5.23681 0.890577 0
M  V30 30274 C 2956.69 6.12078 0.051717 0
M  V30 30275 N 2955.82 6.96135 0.913289 0
M  V30 30276 H 2960.66 2.85079 -0.867975 0
M  V30 30277 H 2958.2 1.40375 -0.439697 0
M  V30 30278 H 2960.16 3.94493 1.35763 0
M  V30 30279 H 2958.79 2.8228 1.56582 0
M  V30 30280 H 2957.84 3.7442 -0.67186 0
M  V30 30281 H 2959.15 4.94358 -0.664173 0
M  V30 30282 H 2958.31 5.87922 1.49776 0
M  V30 30283 H 2957.04 4.61629 1.5732 0
M  V30 30284 H 2956.05 5.46855 -0.568305 0
M  V30 30285 H 2957.27 6.76194 -0.627616 0
M  V30 30286 H 2955.22 6.36656 1.5813 0
M  V30 30287 H 2955.14 7.55319 0.32082 0
M  V30 30288 H 2956.41 7.6481 1.5062 0
M  V30 30289 N 2960.63 0.47718 1.50202 0
M  V30 30290 C 2961.86 -0.0754622 2.07263 0
M  V30 30291 C 2962.28 -1.32206 1.33803 0
M  V30 30292 O 2961.64 -1.7711 0.387513 0
M  V30 30293 C 2961.69 -0.336285 3.59029 0
M  V30 30294 O 2960.79 -1.41563 3.87342 0
M  V30 30295 H 2960.14 0.0156737 0.663815 0
M  V30 30296 H 2962.67 0.66997 1.9332 0
M  V30 30297 H 2962.68 -0.574963 4.03928 0
M  V30 30298 H 2961.35 0.574623 4.11911 0
M  V30 30299 H 2959.93 -1.16379 3.54275 0
M  V30 30300 N 2962.11 -1.56194 0.210027 0
M  V30 30301 C 2963.36 -1.9717 -0.425072 0
M  V30 30302 C 2963.67 -1.10034 -1.61716 0
M  V30 30303 O 2964.88 -1.40857 -2.32102 0
M  V30 30304 C 2963.34 -3.50721 -0.807648 0
M  V30 30305 C 2962.94 -4.46543 0.36098 0
M  V30 30306 C 2964.69 -4.00434 -1.40899 0
M  V30 30307 C 2962.6 -5.91384 -0.043388 0
M  V30 30308 H 2961.53 -0.736262 -0.162585 0
M  V30 30309 H 2964.18 -1.80957 0.304414 0
M  V30 30310 H 2962.56 -3.62492 -1.59423 0
M  V30 30311 H 2963.73 -4.46513 1.13853 0
M  V30 30312 H 2962.05 -4.07107 0.8748 0
M  V30 30313 H 2964.64 -5.06136 -1.72424 0
M  V30 30314 H 2964.99 -3.45611 -2.32075 0
M  V30 30315 H 2965.52 -3.91839 -0.686085 0
M  V30 30316 H 2962.26 -6.50166 0.834563 0
M  V30 30317 H 2961.78 -5.94634 -0.785494 0
M  V30 30318 H 2963.46 -6.45261 -0.474062 0
M  V30 30319 N 2963.59 0.0634645 -1.57472 0
M  V30 30320 C 2964.5 1.09223 -2.07623 0
M  V30 30321 C 2965.52 1.41866 -1.00748 0
M  V30 30322 O 2966.69 1.51875 -1.32272 0
M  V30 30323 C 2963.76 2.38417 -2.51711 0
M  V30 30324 C 2962.82 2.1267 -3.72921 0
M  V30 30325 C 2962.05 3.35703 -4.14897 0
M  V30 30326 O 2962.27 4.45131 -3.56671 0
M  V30 30327 O 2961.21 3.23425 -5.07622 0
M  V30 30328 H 2965.03 0.696153 -2.95614 0
M  V30 30329 H 2962.62 0.278164 -1.46788 0
M  V30 30330 H 2964.5 3.14433 -2.80553 0
M  V30 30331 H 2963.18 2.77388 -1.66847 0
M  V30 30332 H 2962.08 1.34331 -3.4915 0
M  V30 30333 H 2963.42 1.78574 -4.58663 0
M  V30 30334 N 2965.07 1.53998 0.33504 0
M  V30 30335 C 2966.31 1.71907 1.07591 0
M  V30 30336 C 2966.65 0.485297 1.88039 0
M  V30 30337 O 2965.92 -0.51772 1.87483 0
M  V30 30338 C 2966.21 2.98775 2.01011 0
M  V30 30339 C 2966.06 4.32379 1.23969 0
M  V30 30340 C 2967.38 3.21348 3.00705 0
M  V30 30341 H 2964.5 0.625511 0.389749 0
M  V30 30342 H 2967.14 1.8668 0.353651 0
M  V30 30343 H 2965.29 2.86312 2.62598 0
M  V30 30344 H 2966.96 4.56708 0.649303 0
M  V30 30345 H 2965.2 4.30403 0.541803 0
M  V30 30346 H 2965.87 5.17346 1.92503 0
M  V30 30347 H 2968.35 3.33199 2.49235 0
M  V30 30348 H 2967.23 4.11497 3.63265 0
M  V30 30349 H 2967.49 2.3804 3.72545 0
M  V30 30350 N 2966.55 -0.596505 1.45875 0
M  V30 30351 C 2967.49 -1.70652 1.55392 0
M  V30 30352 C 2968.46 -1.61235 0.399064 0
M  V30 30353 O 2969.65 -1.80651 0.613992 0
M  V30 30354 C 2966.79 -3.08978 1.5371 0
M  V30 30355 C 2965.9 -3.2912 2.79828 0
M  V30 30356 C 2965.04 -4.57616 2.69743 0
M  V30 30357 C 2964.08 -4.71054 3.90864 0
M  V30 30358 N 2963.21 -5.9086 3.79247 0
M  V30 30359 H 2968.05 -1.61855 2.50214 0
M  V30 30360 H 2965.59 -0.789047 1.24147 0
M  V30 30361 H 2967.55 -3.89023 1.50722 0
M  V30 30362 H 2966.18 -3.16705 0.624303 0
M  V30 30363 H 2965.23 -2.42774 2.92856 0
M  V30 30364 H 2966.54 -3.34921 3.69634 0
M  V30 30365 H 2965.7 -5.45871 2.64783 0
M  V30 30366 H 2964.43 -4.54231 1.77555 0
M  V30 30367 H 2963.44 -3.8122 3.96171 0
M  V30 30368 H 2964.66 -4.76228 4.84132 0
M  V30 30369 H 2962.61 -5.88499 2.89835 0
M  V30 30370 H 2962.53 -5.97869 4.62697 0
M  V30 30371 H 2963.8 -6.81583 3.78239 0
M  V30 30372 N 2968.02 -1.3335 -0.839967 0
M  V30 30373 C 2968.97 -1.20082 -1.93815 0
M  V30 30374 C 2969.96 -0.104006 -1.60564 0
M  V30 30375 O 2971.15 -0.331994 -1.73859 0
M  V30 30376 C 2968.28 -0.941089 -3.30149 0
M  V30 30377 C 2967.37 -2.08029 -3.69574 0
M  V30 30378 N 2967.76 -3.33016 -3.80702 0
M  V30 30379 C 2966.05 -1.98674 -3.99305 0
M  V30 30380 C 2966.76 -4.07725 -4.14892 0
M  V30 30381 N 2965.73 -3.36154 -4.27202 0
M  V30 30382 H 2969.53 -2.14821 -2.00572 0
M  V30 30383 H 2967.05 -1.25342 -1.03262 0
M  V30 30384 H 2969.04 -0.826966 -4.08616 0
M  V30 30385 H 2967.7 -0.00222445 -3.247 0
M  V30 30386 H 2968.72 -3.67777 -3.64637 0
M  V30 30387 H 2965.39 -1.1244 -4.02074 0
M  V30 30388 H 2966.78 -5.15577 -4.30848 0
M  V30 30389 N 2969.5 1.05808 -1.16801 0
M  V30 30390 C 2970.73 1.82923 -0.977435 0
M  V30 30391 C 2971.15 1.82147 0.469482 0
M  V30 30392 O 2970.51 1.22588 1.33574 0
M  V30 30393 C 2970.56 3.27208 -1.51549 0
M  V30 30394 O 2969.66 4.05976 -0.725093 0
M  V30 30395 H 2969 0.565819 -0.347484 0
M  V30 30396 H 2971.53 1.33374 -1.55154 0
M  V30 30397 H 2971.54 3.7802 -1.53508 0
M  V30 30398 H 2970.22 3.27088 -2.56877 0
M  V30 30399 H 2968.8 3.64728 -0.776404 0
M  V30 30400 N 2970.98 0.967265 1.24426 0
M  V30 30401 C 2971.94 0.501966 2.23636 0
M  V30 30402 C 2972.94 -0.401256 1.55713 0
M  V30 30403 O 2974.13 -0.196777 1.73085 0
M  V30 30404 C 2971.27 -0.273117 3.39804 0
M  V30 30405 H 2972.46 1.37901 2.66314 0
M  V30 30406 H 2970.01 0.751807 1.37031 0
M  V30 30407 H 2970.75 -1.16728 3.02564 0
M  V30 30408 H 2970.53 0.375049 3.90302 0
M  V30 30409 H 2972.02 -0.587703 4.13444 0
M  V30 30410 N 2972.46 -1.39288 0.737328 0
M  V30 30411 C 2973.39 -2.33221 0.114029 0
M  V30 30412 C 2974.37 -1.54032 -0.721668 0
M  V30 30413 O 2975.56 -1.82416 -0.666174 0
M  V30 30414 C 2972.69 -3.38143 -0.792259 0
M  V30 30415 C 2971.64 -4.27957 -0.0605426 0
M  V30 30416 C 2970.97 -5.23597 -1.084 0
M  V30 30417 C 2972.27 -5.10623 1.09826 0
M  V30 30418 H 2973.96 -2.85595 0.898661 0
M  V30 30419 H 2971.51 -1.37317 0.433595 0
M  V30 30420 H 2973.46 -4.02809 -1.23786 0
M  V30 30421 H 2972.18 -2.84214 -1.60903 0
M  V30 30422 H 2970.84 -3.64774 0.365457 0
M  V30 30423 H 2970.49 -4.65963 -1.8944 0
M  V30 30424 H 2970.19 -5.84537 -0.599166 0
M  V30 30425 H 2971.71 -5.9114 -1.52925 0
M  V30 30426 H 2973.13 -5.68621 0.730992 0
M  V30 30427 H 2971.52 -5.80717 1.51288 0
M  V30 30428 H 2972.59 -4.45318 1.91886 0
M  V30 30429 N 2973.94 -0.485139 -1.49947 0
M  V30 30430 C 2975.16 0.0644695 -2.073 0
M  V30 30431 C 2975.59 1.31494 -1.34502 0
M  V30 30432 O 2974.95 1.76902 -0.396901 0
M  V30 30433 C 2974.99 0.31724 -3.59202 0
M  V30 30434 O 2974.1 1.39507 -3.88087 0
M  V30 30435 H 2973.44 -0.0191938 -0.663723 0
M  V30 30436 H 2975.97 -0.680212 -1.92962 0
M  V30 30437 H 2975.98 0.553533 -4.04228 0
M  V30 30438 H 2974.65 -0.59646 -4.11601 0
M  V30 30439 H 2973.23 1.14498 -3.54887 0
M  V30 30440 N 2975.42 1.56081 -0.218307 0
M  V30 30441 C 2976.66 1.98511 0.414886 0
M  V30 30442 C 2976.99 1.10575 1.59646 0
M  V30 30443 O 2976.27 0.162729 1.93818 0
M  V30 30444 C 2976.55 3.49861 0.852585 0
M  V30 30445 C 2976.41 4.4857 -0.332399 0
M  V30 30446 C 2977.72 4.05524 1.70991 0
M  V30 30447 H 2974.84 0.721713 0.149331 0
M  V30 30448 H 2977.49 1.87389 -0.313891 0
M  V30 30449 H 2975.64 3.5947 1.47356 0
M  V30 30450 H 2977.31 4.50976 -0.970497 0
M  V30 30451 H 2975.55 4.22577 -0.980376 0
M  V30 30452 H 2976.22 5.51997 0.0167437 0
M  V30 30453 H 2978.7 3.9884 1.18599 0
M  V30 30454 H 2977.57 5.11748 1.98508 0
M  V30 30455 H 2977.83 3.52207 2.67213 0
M  V30 30456 N 2976.89 -0.0551124 1.57504 0
M  V30 30457 C 2977.8 -1.0812 2.082 0
M  V30 30458 C 2978.82 -1.41329 1.01499 0
M  V30 30459 O 2980 -1.51172 1.33075 0
M  V30 30460 C 2977.06 -2.37078 2.52972 0
M  V30 30461 C 2976.12 -2.10689 3.74044 0
M  V30 30462 C 2975.35 -3.33498 4.16671 0
M  V30 30463 O 2975.58 -4.43233 3.59027 0
M  V30 30464 O 2974.51 -3.20729 5.0933 0
M  V30 30465 H 2978.34 -0.680466 2.95979 0
M  V30 30466 H 2975.92 -0.270376 1.46933 0
M  V30 30467 H 2977.8 -3.12941 2.82216 0
M  V30 30468 H 2976.48 -2.76499 1.68315 0
M  V30 30469 H 2975.39 -1.32478 3.49858 0
M  V30 30470 H 2976.72 -1.7614 4.59604 0
M  V30 30471 N 2978.37 -1.54173 -0.326869 0
M  V30 30472 C 2979.3 -1.8632 -1.40738 0
M  V30 30473 C 2980.28 -0.719711 -1.54124 0
M  V30 30474 O 2981.47 -0.973147 -1.68058 0
M  V30 30475 C 2978.6 -2.08762 -2.77553 0
M  V30 30476 C 2977.55 -3.24601 -2.78959 0
M  V30 30477 C 2976.88 -3.32408 -4.18819 0
M  V30 30478 C 2978.18 -4.62328 -2.43002 0
M  V30 30479 H 2979.87 -2.76813 -1.14083 0
M  V30 30480 H 2977.42 -1.33191 -0.547366 0
M  V30 30481 H 2979.37 -2.29835 -3.53205 0
M  V30 30482 H 2978.09 -1.15015 -3.05678 0
M  V30 30483 H 2976.75 -3.0341 -2.05762 0
M  V30 30484 H 2976.4 -2.36226 -4.44079 0
M  V30 30485 H 2976.1 -4.1026 -4.20666 0
M  V30 30486 H 2977.63 -3.55712 -4.96288 0
M  V30 30487 H 2979.04 -4.83304 -3.08367 0
M  V30 30488 H 2977.44 -5.42706 -2.56106 0
M  V30 30489 H 2978.51 -4.64802 -1.38157 0
M  V30 30490 N 2979.85 0.58876 -1.4619 0
M  V30 30491 C 2980.8 1.69301 -1.52713 0
M  V30 30492 C 2981.78 1.56137 -0.388606 0
M  V30 30493 O 2982.98 1.65154 -0.636645 0
M  V30 30494 C 2980.1 3.08081 -1.51463 0
M  V30 30495 C 2979.19 3.26563 -2.70587 0
M  V30 30496 N 2979.58 3.15229 -3.95556 0
M  V30 30497 C 2977.88 3.57486 -2.66682 0
M  V30 30498 C 2978.58 3.35552 -4.75163 0
M  V30 30499 N 2977.56 3.60425 -4.06933 0
M  V30 30500 H 2981.36 1.59059 -2.47139 0
M  V30 30501 H 2978.87 0.792608 -1.41744 0
M  V30 30502 H 2980.87 3.87325 -1.54223 0
M  V30 30503 H 2979.53 3.19458 -0.581092 0
M  V30 30504 H 2980.54 2.93225 -4.26895 0
M  V30 30505 H 2977.22 3.75585 -1.82324 0
M  V30 30506 H 2978.61 3.32024 -5.84132 0
M  V30 30507 N 2981.33 1.33794 0.832883 0
M  V30 30508 C 2982.55 1.28791 1.62566 0
M  V30 30509 C 2982.98 -0.137213 1.87599 0
M  V30 30510 O 2982.34 -1.09578 1.44438 0
M  V30 30511 C 2982.38 2.07458 2.94946 0
M  V30 30512 O 2981.49 1.43728 3.86544 0
M  V30 30513 H 2980.83 0.442796 0.494801 0
M  V30 30514 H 2983.36 1.76447 1.03575 0
M  V30 30515 H 2983.37 2.18446 3.44595 0
M  V30 30516 H 2982.04 3.11078 2.76049 0
M  V30 30517 H 2980.62 1.41423 3.45042 0
M  V30 30518 N 2982.81 -1.05187 1.1736 0
M  V30 30519 C 2984.08 -1.7509 0.871944 0
M  V30 30520 C 2984.46 -2.01549 -0.627785 0
M  V30 30521 O 2983.81 -1.65159 -1.57907 0
M  V30 30522 C 2984.02 -3.0441 1.70692 0
M  V30 30523 C 2985.37 -3.78359 1.92691 0
M  V30 30524 O 2986.39 -3.14279 1.67651 0
M  V30 30525 O 2985.25 -4.93501 2.34774 0
M  V30 30526 H 2982.35 -0.761381 0.322845 0
M  V30 30527 H 2984.89 -1.11355 1.28056 0
M  V30 30528 H 2983.66 -2.80906 2.7241 0
M  V30 30529 H 2983.29 -3.75882 1.29608 0
M  V30 30530 N 2984.28 -0.97385 -1.23911 0
M  V30 30531 C 2985.22 -0.453589 -2.23647 0
M  V30 30532 C 2986.19 0.475697 -1.55486 0
M  V30 30533 O 2987.38 0.405656 -1.84083 0
M  V30 30534 C 2984.51 0.344535 -3.36943 0
M  V30 30535 C 2983.55 -0.527933 -4.2322 0
M  V30 30536 S 2984.38 -1.97185 -4.97874 0
M  V30 30537 C 2985.54 -1.18269 -6.14625 0
M  V30 30538 H 2985.77 -1.29877 -2.67431 0
M  V30 30539 H 2983.31 -0.779346 -1.33288 0
M  V30 30540 H 2985.26 0.799032 -4.02648 0
M  V30 30541 H 2983.93 1.16477 -2.91705 0
M  V30 30542 H 2983.12 0.0851669 -5.03928 0
M  V30 30543 H 2982.72 -0.918408 -3.62548 0
M  V30 30544 H 2985.01 -0.440748 -6.76065 0
M  V30 30545 H 2985.96 -1.96437 -6.80307 0
M  V30 30546 H 2986.36 -0.704355 -5.60088 0
M  V30 30547 N 2985.76 1.38895 -0.744705 0
M  V30 30548 C 2986.67 2.34328 -0.112933 0
M  V30 30549 C 2987.69 1.58818 0.710842 0
M  V30 30550 O 2988.86 1.91059 0.637059 0
M  V30 30551 C 2985.93 3.37896 0.776357 0
M  V30 30552 C 2984.99 4.29257 -0.0607754 0
M  V30 30553 C 2984.22 5.27878 0.786165 0
M  V30 30554 O 2984.45 5.33262 2.02454 0
M  V30 30555 O 2983.38 6.01535 0.209676 0
M  V30 30556 H 2987.21 2.90032 -0.900852 0
M  V30 30557 H 2984.79 1.40589 -0.505487 0
M  V30 30558 H 2986.67 4.01334 1.28489 0
M  V30 30559 H 2985.35 2.84562 1.54292 0
M  V30 30560 H 2984.25 3.69009 -0.615049 0
M  V30 30561 H 2985.59 4.85822 -0.789787 0
M  V30 30562 N 2987.24 0.493084 1.49688 0
M  V30 30563 C 2988.49 -0.0543162 2.02727 0
M  V30 30564 C 2988.82 -1.37373 1.37267 0
M  V30 30565 O 2988.09 -1.87811 0.505677 0
M  V30 30566 C 2988.38 -0.215162 3.59457 0
M  V30 30567 C 2988.23 1.12682 4.35457 0
M  V30 30568 C 2989.55 -0.959511 4.29513 0
M  V30 30569 H 2986.67 -0.0182657 0.736774 0
M  V30 30570 H 2989.31 0.642956 1.78791 0
M  V30 30571 H 2987.46 -0.809055 3.79982 0
M  V30 30572 H 2989.13 1.75899 4.26447 0
M  V30 30573 H 2987.38 1.71808 3.98327 0
M  V30 30574 H 2988.05 0.967673 5.43452 0
M  V30 30575 H 2990.52 -0.455904 4.13595 0
M  V30 30576 H 2989.4 -1.04088 5.3894 0
M  V30 30577 H 2989.66 -2.00137 3.94205 0
M  V30 30578 N 2988.72 -1.55963 0.226582 0
M  V30 30579 C 2989.95 -2.02828 -0.408471 0
M  V30 30580 C 2990.36 -1.1063 -1.52992 0
M  V30 30581 O 2989.72 -0.116841 -1.82126 0
M  V30 30582 C 2989.77 -3.49189 -0.935389 0
M  V30 30583 O 2989.49 -4.37872 0.14135 0
M  V30 30584 C 2990.99 -4.11721 -1.64318 0
M  V30 30585 H 2988.21 -0.663592 -0.0994303 0
M  V30 30586 H 2990.76 -2.01577 0.344506 0
M  V30 30587 H 2988.91 -3.51038 -1.63862 0
M  V30 30588 H 2989.32 -5.23877 -0.255488 0
M  V30 30589 H 2990.8 -5.15886 -1.96381 0
M  V30 30590 H 2991.28 -3.57013 -2.55809 0
M  V30 30591 H 2991.88 -4.13736 -0.985028 0
M  V30 30592 N 2990.2 0.0467589 -1.57531 0
M  V30 30593 C 2991.44 0.742185 -1.88731 0
M  V30 30594 C 2991.78 1.7594 -0.822115 0
M  V30 30595 O 2991.05 1.938 0.164888 0
M  V30 30596 C 2991.33 1.42771 -3.30588 0
M  V30 30597 C 2991.19 0.425206 -4.47786 0
M  V30 30598 C 2992.51 2.36629 -3.71072 0
M  V30 30599 H 2989.62 0.268347 -0.68641 0
M  V30 30600 H 2992.27 0.00508001 -1.89999 0
M  V30 30601 H 2990.42 2.056 -3.29638 0
M  V30 30602 H 2992.09 -0.199802 -4.60867 0
M  V30 30603 H 2990.33 -0.257207 -4.33037 0
M  V30 30604 H 2991 0.942991 -5.43886 0
M  V30 30605 H 2993.48 1.83859 -3.73276 0
M  V30 30606 H 2992.35 2.81585 -4.7117 0
M  V30 30607 H 2992.62 3.22537 -3.02361 0
M  V30 30608 N 2991.67 1.54344 0.318688 0
M  V30 30609 C 2992.62 1.848 1.41251 0
M  V30 30610 C 2993.62 0.720283 1.53324 0
M  V30 30611 O 2994.82 0.904019 1.55652 0
M  V30 30612 H 2991.2 0.58586 0.471458 0
M  V30 30613 H 2993.17 2.76262 1.1279 0
M  V30 30614 C 2991.92 2.09642 2.77391 0
M  V30 30615 H 2991.24 2.95881 2.68876 0
M  V30 30616 H 2992.68 2.34902 3.52983 0
M  V30 30617 C 2991.14 0.889455 3.24947 0
M  V30 30618 O 2991.67 0.101133 4.01573 0
M  V30 30619 N 2989.88 0.699734 2.8205 0
M  V30 30620 H 2989.42 1.34244 2.19855 0
M  V30 30621 H 2989.38 -0.106313 3.1422 0
M  V30 30622 N 2993.15 -0.580999 1.465 0
M  V30 30623 C 2994.4 -1.3365 1.51598 0
M  V30 30624 C 2994.72 -1.94258 0.169893 0
M  V30 30625 O 2993.99 -1.78653 -0.803745 0
M  V30 30626 H 2992.57 -0.496234 0.558355 0
M  V30 30627 H 2995.23 -0.680306 1.82641 0
M  V30 30628 H 2994.33 -2.14233 2.26959 0
M  V30 30629 N 2994.63 -1.34234 -0.825776 0
M  V30 30630 C 2996.05 -1.13853 -1.11846 0
M  V30 30631 C 2996.25 0.0618677 -2.01405 0
M  V30 30632 O 2995.3 0.738244 -2.41467 0
M  V30 30633 C 2996.62 -2.43238 -1.76792 0
M  V30 30634 C 2998.16 -2.49268 -1.893 0
M  V30 30635 C 2998.64 -3.78648 -2.57662 0
M  V30 30636 N 3000.13 -3.79792 -2.65164 0
M  V30 30637 C 3000.86 -4.76619 -3.18781 0
M  V30 30638 N 3000.36 -5.83827 -3.72985 0
M  V30 30639 N 3002.15 -4.64078 -3.17156 0
M  V30 30640 H 2994.3 -2.11151 -0.230012 0
M  V30 30641 H 2996.57 -0.933602 -0.164592 0
M  V30 30642 H 2996.27 -3.31154 -1.18449 0
M  V30 30643 H 2996.15 -2.56366 -2.76688 0
M  V30 30644 H 2998.53 -1.61794 -2.46793 0
M  V30 30645 H 2998.62 -2.40071 -0.883148 0
M  V30 30646 H 2998.26 -4.6651 -2.00824 0
M  V30 30647 H 2998.19 -3.85126 -3.59145 0
M  V30 30648 H 3000.68 -3.02319 -2.26741 0
M  V30 30649 H 3000.99 -6.53729 -4.12139 0
M  V30 30650 H 2999.34 -5.87545 -3.71236 0
M  V30 30651 H 3002.53 -3.79474 -2.74076 0
M  V30 30652 H 3002.7 -5.39706 -3.58638 0
M  V30 30653 N 2996.11 1.04563 -1.17917 0
M  V30 30654 C 2997.04 2.14394 -0.92507 0
M  V30 30655 C 2998.02 1.69561 0.135345 0
M  V30 30656 O 2999.2 1.94193 -0.0162115 0
M  V30 30657 C 2996.33 3.44443 -0.44453 0
M  V30 30658 C 2995.29 4.02875 -1.44486 0
M  V30 30659 C 2994.61 5.28343 -0.822025 0
M  V30 30660 C 2995.91 4.39627 -2.82003 0
M  V30 30661 H 2997.61 2.35908 -1.84358 0
M  V30 30662 H 2995.15 1.13374 -0.887826 0
M  V30 30663 H 2997.11 4.20633 -0.254152 0
M  V30 30664 H 2995.83 3.22601 0.509536 0
M  V30 30665 H 2994.49 3.28761 -1.62208 0
M  V30 30666 H 2994.14 5.02808 0.139072 0
M  V30 30667 H 2993.84 5.68399 -1.48986 0
M  V30 30668 H 2995.36 6.07215 -0.642065 0
M  V30 30669 H 2996.78 5.06823 -2.67961 0
M  V30 30670 H 2995.17 4.90717 -3.45423 0
M  V30 30671 H 2996.24 3.49681 -3.35933 0
M  V30 30672 N 2997.59 0.980408 1.23393 0
M  V30 30673 C 2998.83 0.650256 1.92092 0
M  V30 30674 C 2999.17 -0.814142 1.7631 0
M  V30 30675 O 2998.44 -1.58728 1.12409 0
M  V30 30676 C 2998.72 1.04145 3.44711 0
M  V30 30677 C 2998.58 2.56348 3.69602 0
M  V30 30678 C 2999.9 0.585372 4.3619 0
M  V30 30679 H 2997.01 0.237707 0.697613 0
M  V30 30680 H 2999.66 1.22169 1.45515 0
M  V30 30681 H 2997.81 0.555218 3.84512 0
M  V30 30682 H 2999.48 3.12546 3.39282 0
M  V30 30683 H 2997.72 2.98981 3.14313 0
M  V30 30684 H 2998.39 2.78771 4.76436 0
M  V30 30685 H 3000.87 1.00283 4.03835 0
M  V30 30686 H 2999.74 0.887524 5.41677 0
M  V30 30687 H 3000.01 -0.514303 4.39098 0
M  V30 30688 N 2999.06 -1.38498 0.75206 0
M  V30 30689 C 3000.29 -2.04963 0.317029 0
M  V30 30690 C 3000.71 -1.56348 -1.0458 0
M  V30 30691 O 3000.07 -0.714784 -1.66615 0
M  V30 30692 C 3000.12 -3.58924 0.347298 0
M  V30 30693 O 2999.22 -4.07097 -0.659224 0
M  V30 30694 H 2998.57 -0.64893 0.140664 0
M  V30 30695 H 3001.1 -1.77203 1.02276 0
M  V30 30696 H 3001.11 -4.07521 0.197642 0
M  V30 30697 H 2999.78 -3.93666 1.34164 0
M  V30 30698 H 2998.36 -3.69871 -0.474306 0
M  V30 30699 N 3000.54 -0.501015 -1.49424 0
M  V30 30700 C 3001.79 0.0435643 -2.02753 0
M  V30 30701 C 3002.12 1.36644 -1.37993 0
M  V30 30702 O 3001.4 1.87541 -0.51563 0
M  V30 30703 C 3001.68 0.196097 -3.59566 0
M  V30 30704 C 3001.53 -1.1499 -4.34853 0
M  V30 30705 C 3002.85 0.936719 -4.30016 0
M  V30 30706 H 2999.97 0.0143581 -0.73686 0
M  V30 30707 H 3002.61 -0.652428 -1.78447 0
M  V30 30708 H 3000.76 0.788892 -3.80406 0
M  V30 30709 H 3002.43 -1.78158 -4.25509 0
M  V30 30710 H 3000.68 -1.73918 -3.97411 0
M  V30 30711 H 3001.35 -0.99648 -5.42931 0
M  V30 30712 H 3003.82 0.433964 -4.13831 0
M  V30 30713 H 3002.7 1.01229 -5.39485 0
M  V30 30714 H 3002.96 1.98043 -3.95261 0
M  V30 30715 N 3002.02 1.5584 -0.234849 0
M  V30 30716 C 3003.43 1.84729 0.270556 0
M  V30 30717 C 3003.78 1.15649 1.58492 0
M  V30 30718 O 3002.91 0.430704 2.12071 0
M  V30 30719 C 3003.5 3.35125 0.497674 0
M  V30 30720 C 3002.06 3.64283 0.947364 0
M  V30 30721 C 3001.21 2.77294 0.0178213 0
M  V30 30722 H 3004.16 1.51956 -0.457718 0
M  V30 30723 H 3004.18 3.56052 1.34192 0
M  V30 30724 H 3003.69 3.85375 -0.459105 0
M  V30 30725 H 3001.79 3.195 1.91703 0
M  V30 30726 H 3001.91 4.72159 0.812568 0
M  V30 30727 H 3000.27 2.49188 0.527028 0
M  V30 30728 H 3001.05 3.30347 -0.934114 0
M  V30 30729 N 3003.5 -0.038404 1.57553 0
M  V30 30730 C 3004.73 -0.74203 1.92815 0
M  V30 30731 C 3005.14 -1.69916 0.832186 0
M  V30 30732 O 3004.48 -1.82598 -0.200885 0
M  V30 30733 C 3004.54 -1.56166 3.23809 0
M  V30 30734 C 3004.21 -0.770327 4.50461 0
M  V30 30735 C 3005.2 -0.0747093 5.19846 0
M  V30 30736 C 3002.89 -0.727627 4.97002 0
M  V30 30737 C 3004.88 0.653013 6.34046 0
M  V30 30738 C 3002.57 0.00384734 6.111 0
M  V30 30739 C 3003.57 0.692936 6.79476 0
M  V30 30740 O 3003.26 1.41255 7.91393 0
M  V30 30741 H 3002.99 -0.214167 0.641177 0
M  V30 30742 H 3005.54 -0.00281485 2.054 0
M  V30 30743 H 3003.77 -2.34447 3.07525 0
M  V30 30744 H 3005.46 -2.14703 3.44467 0
M  V30 30745 H 3006.23 -0.0987897 4.84899 0
M  V30 30746 H 3002.11 -1.25347 4.43632 0
M  V30 30747 H 3005.65 1.19142 6.87351 0
M  V30 30748 H 3001.55 0.0298838 6.45493 0
M  V30 30749 H 3002.31 1.32526 8.077 0
M  V30 30750 N 3004.98 -1.54511 -0.310498 0
M  V30 30751 C 3006.22 -1.73597 -1.04843 0
M  V30 30752 C 3006.56 -0.515151 -1.87243 0
M  V30 30753 O 3005.83 0.487827 -1.88283 0
M  V30 30754 C 3006.11 -3.01936 -1.96232 0
M  V30 30755 C 3005.97 -4.34297 -1.17075 0
M  V30 30756 C 3007.29 -3.26092 -2.95554 0
M  V30 30757 H 3004.41 -0.631633 -0.379749 0
M  V30 30758 H 3007.05 -1.87219 -0.323907 0
M  V30 30759 H 3005.2 -2.90453 -2.5801 0
M  V30 30760 H 3006.87 -4.57683 -0.576562 0
M  V30 30761 H 3005.11 -4.31211 -0.473261 0
M  V30 30762 H 3005.78 -5.20343 -1.84248 0
M  V30 30763 H 3008.26 -3.37122 -2.43902 0
M  V30 30764 H 3007.14 -4.17224 -3.56672 0
M  V30 30765 H 3007.4 -2.43936 -3.6871 0
M  V30 30766 N 3006.46 0.573222 -1.46806 0
M  V30 30767 C 3007.7 1.32844 -1.52305 0
M  V30 30768 C 3008.02 1.94166 -0.180193 0
M  V30 30769 O 3007.29 1.79076 0.794259 0
M  V30 30770 H 3005.87 0.493266 -0.560979 0
M  V30 30771 H 3008.54 0.67061 -1.83 0
M  V30 30772 H 3007.63 2.13027 -2.28092 0
M  V30 30773 N 3007.93 1.3467 0.818645 0
M  V30 30774 C 3009.18 1.27015 1.57199 0
M  V30 30775 C 3009.5 -0.158565 1.94354 0
M  V30 30776 O 3008.77 -1.0922 1.62628 0
M  V30 30777 H 3007.35 0.467145 0.58291 0
M  V30 30778 H 3010.01 1.68632 0.977204 0
M  V30 30779 H 3009.11 1.87782 2.49287 0
M  V30 30780 N 3009.41 -1.03936 1.1847 0
M  V30 30781 C 3010.36 -2.14089 0.909323 0
M  V30 30782 C 3011.35 -1.68894 -0.130898 0
M  V30 30783 O 3012.56 -1.79992 0.0173719 0
M  V30 30784 H 3008.93 -0.699286 0.276592 0
M  V30 30785 H 3010.91 -2.34512 1.84518 0
M  V30 30786 C 3009.65 -3.44737 0.452983 0
M  V30 30787 H 3008.98 -3.79923 1.24492 0
M  V30 30788 H 3010.42 -4.22942 0.299312 0
M  V30 30789 C 3008.88 -3.26481 -0.831378 0
M  V30 30790 O 3009.41 -3.54178 -1.89528 0
M  V30 30791 N 3007.61 -2.79811 -0.784496 0
M  V30 30792 H 3007.16 -2.57471 0.0815199 0
M  V30 30793 H 3007.12 -2.67976 -1.64426 0
M  V30 30794 N 3010.89 -0.986938 -1.22871 0
M  V30 30795 C 3011.82 -0.477284 -2.23153 0
M  V30 30796 C 3012.8 0.459178 -1.55982 0
M  V30 30797 O 3013.98 0.386109 -1.84503 0
M  V30 30798 C 3011.11 0.308778 -3.3729 0
M  V30 30799 C 3010.16 -0.572792 -4.22636 0
M  V30 30800 S 3010.99 -2.02455 -4.95754 0
M  V30 30801 C 3012.15 -1.24781 -6.13336 0
M  V30 30802 H 3012.38 -1.32707 -2.66038 0
M  V30 30803 H 3009.91 -0.793439 -1.32453 0
M  V30 30804 H 3011.87 0.756281 -4.03473 0
M  V30 30805 H 3010.53 1.13376 -2.92924 0
M  V30 30806 H 3009.72 0.0317138 -5.0399 0
M  V30 30807 H 3009.33 -0.956809 -3.61554 0
M  V30 30808 H 3011.62 -0.512429 -6.75559 0
M  V30 30809 H 3012.56 -2.03641 -6.78186 0
M  V30 30810 H 3012.97 -0.76372 -5.5931 0
M  V30 30811 N 3012.37 1.38098 -0.759394 0
M  V30 30812 C 3013.28 2.34195 -0.137781 0
M  V30 30813 C 3014.29 1.59563 0.693957 0
M  V30 30814 O 3015.47 1.91724 0.616759 0
M  V30 30815 C 3012.53 3.387 0.740475 0
M  V30 30816 C 3011.6 4.29168 -0.1063 0
M  V30 30817 C 3010.83 5.28682 0.730132 0
M  V30 30818 O 3011.05 5.35379 1.96787 0
M  V30 30819 O 3009.99 6.01723 0.145863 0
M  V30 30820 H 3013.81 2.8906 -0.931563 0
M  V30 30821 H 3011.4 1.40045 -0.52037 0
M  V30 30822 H 3013.28 4.02674 1.24225 0
M  V30 30823 H 3011.95 2.86183 1.51266 0
M  V30 30824 H 3010.86 3.68336 -0.654152 0
M  V30 30825 H 3012.19 4.84957 -0.841271 0
M  V30 30826 N 3013.85 0.508932 1.49156 0
M  V30 30827 C 3015.09 -0.0328112 2.02773 0
M  V30 30828 C 3015.42 -1.3591 1.38716 0
M  V30 30829 O 3014.7 -1.87265 0.525569 0
M  V30 30830 C 3014.98 -0.177025 3.59665 0
M  V30 30831 C 3014.84 1.17295 4.34237 0
M  V30 30832 C 3016.15 -0.913901 4.30507 0
M  V30 30833 H 3013.27 -0.0104502 0.736926 0
M  V30 30834 H 3015.92 0.661883 1.78099 0
M  V30 30835 H 3014.07 -0.768707 3.80819 0
M  V30 30836 H 3015.74 1.80412 4.24558 0
M  V30 30837 H 3013.98 1.76023 3.96483 0
M  V30 30838 H 3014.65 1.02526 5.42395 0
M  V30 30839 H 3017.13 -0.412011 4.14055 0
M  V30 30840 H 3016 -0.983664 5.40014 0
M  V30 30841 H 3016.26 -1.95944 3.96306 0
M  V30 30842 N 3015.32 -1.55714 0.243111 0
M  V30 30843 C 3016.27 -2.22611 -0.67431 0
M  V30 30844 C 3017.27 -1.21245 -1.18305 0
M  V30 30845 O 3018.47 -1.39267 -1.14038 0
M  V30 30846 H 3014.85 -0.714032 -0.235928 0
M  V30 30847 H 3016.82 -2.98273 -0.0868922 0
M  V30 30848 C 3015.57 -2.9364 -1.862 0
M  V30 30849 H 3014.89 -3.7141 -1.47969 0
M  V30 30850 H 3016.33 -3.43818 -2.48124 0
M  V30 30851 C 3014.79 -1.97303 -2.73081 0
M  V30 30852 O 3015.32 -1.50368 -3.72495 0
M  V30 30853 N 3013.52 -1.64486 -2.39568 0
M  V30 30854 H 3013.07 -2.02849 -1.58777 0
M  V30 30855 H 3013.03 -1.00293 -2.97974 0
M  V30 30856 N 3016.8 0.030048 -1.57571 0
M  V30 30857 C 3018.05 0.722126 -1.89508 0
M  V30 30858 C 3018.38 1.75058 -0.84073 0
M  V30 30859 O 3017.66 1.93964 0.144324 0
M  V30 30860 C 3017.94 1.39256 -3.32084 0
M  V30 30861 C 3017.79 0.377689 -4.48212 0
M  V30 30862 C 3019.11 2.3268 -3.73561 0
M  V30 30863 H 3016.23 0.261051 -0.689218 0
M  V30 30864 H 3018.87 -0.0150722 -1.89994 0
M  V30 30865 H 3017.02 2.02092 -3.318 0
M  V30 30866 H 3018.69 -0.248672 -4.60629 0
M  V30 30867 H 3016.94 -0.303121 -4.3274 0
M  V30 30868 H 3017.61 0.885251 -5.44855 0
M  V30 30869 H 3020.08 1.7989 -3.75205 0
M  V30 30870 H 3018.96 2.76571 -4.7413 0
M  V30 30871 H 3019.22 3.19312 -3.05765 0
M  V30 30872 N 3018.28 1.54674 0.3023 0
M  V30 30873 C 3019.51 1.77625 1.05513 0
M  V30 30874 C 3019.92 0.535191 1.81473 0
M  V30 30875 O 3019.26 -0.504512 1.76636 0
M  V30 30876 C 3019.32 2.93004 2.083 0
M  V30 30877 C 3018.99 4.31141 1.51546 0
M  V30 30878 C 3019.98 5.11218 0.946171 0
M  V30 30879 C 3017.67 4.77739 1.55148 0
M  V30 30880 C 3019.66 6.36012 0.420448 0
M  V30 30881 C 3017.35 6.02495 1.02189 0
M  V30 30882 C 3018.35 6.81467 0.457342 0
M  V30 30883 O 3018.04 8.03874 -0.0642243 0
M  V30 30884 H 3017.77 0.596135 0.318746 0
M  V30 30885 H 3020.32 2.02439 0.347522 0
M  V30 30886 H 3018.55 2.63812 2.82737 0
M  V30 30887 H 3020.24 3.03544 2.69474 0
M  V30 30888 H 3021.01 4.76362 0.911254 0
M  V30 30889 H 3016.89 4.163 1.98029 0
M  V30 30890 H 3020.43 6.97597 -0.0208524 0
M  V30 30891 H 3016.33 6.36838 1.05395 0
M  V30 30892 H 3017.1 8.18485 0.0491983 0
M  V30 30893 N 3019.76 -0.565428 1.47108 0
M  V30 30894 C 3021.01 -1.32035 1.53007 0
M  V30 30895 C 3021.33 -1.94067 0.190487 0
M  V30 30896 O 3020.6 -1.79495 -0.784751 0
M  V30 30897 H 3019.18 -0.490284 0.563587 0
M  V30 30898 H 3021.84 -0.660896 1.83353 0
M  V30 30899 H 3020.94 -2.11814 2.29219 0
M  V30 30900 N 3021.24 -1.35102 -0.811492 0
M  V30 30901 C 3022.2 -1.27499 -1.90465 0
M  V30 30902 C 3023.2 -0.187544 -1.59703 0
M  V30 30903 O 3024.39 -0.440925 -1.68527 0
M  V30 30904 C 3021.52 -0.971211 -3.26773 0
M  V30 30905 H 3022.71 -2.24694 -1.98627 0
M  V30 30906 H 3020.27 -1.19555 -1.00679 0
M  V30 30907 H 3021 -0.0029127 -3.243 0
M  V30 30908 H 3020.79 -1.75791 -3.50485 0
M  V30 30909 H 3022.28 -0.943486 -4.06802 0
M  V30 30910 N 3022.71 1.03306 -1.19019 0
M  V30 30911 C 3023.96 1.76037 -0.984573 0
M  V30 30912 C 3024.28 1.89469 0.485903 0
M  V30 30913 O 3025.48 2.59128 0.810233 0
M  V30 30914 C 3023.94 3.16537 -1.71266 0
M  V30 30915 C 3023.55 3.11174 -3.22296 0
M  V30 30916 C 3025.29 3.93592 -1.59013 0
M  V30 30917 C 3023.2 4.4658 -3.87712 0
M  V30 30918 H 3022.13 0.659898 -0.364761 0
M  V30 30919 H 3024.78 1.15646 -1.42472 0
M  V30 30920 H 3023.16 3.7737 -1.20032 0
M  V30 30921 H 3024.33 2.59747 -3.80616 0
M  V30 30922 H 3022.65 2.47616 -3.34776 0
M  V30 30923 H 3025.25 4.93741 -2.05241 0
M  V30 30924 H 3025.59 4.12736 -0.543607 0
M  V30 30925 H 3026.12 3.39351 -2.0757 0
M  V30 30926 H 3022.86 4.32641 -4.92445 0
M  V30 30927 H 3022.38 4.98079 -3.34181 0
M  V30 30928 H 3024.06 5.15475 -3.91017 0
M  V30 30929 N 3024.19 0.99344 1.22346 0
M  V30 30930 C 3025.13 0.489112 2.22897 0
M  V30 30931 C 3026.1 -0.4509 1.56223 0
M  V30 30932 O 3027.29 -0.376319 1.84705 0
M  V30 30933 C 3024.41 -0.290887 3.37449 0
M  V30 30934 C 3023.46 0.595197 4.22326 0
M  V30 30935 S 3024.29 2.05081 4.94674 0
M  V30 30936 C 3025.45 1.28032 6.12665 0
M  V30 30937 H 3025.68 1.34116 2.65331 0
M  V30 30938 H 3023.22 0.800452 1.32031 0
M  V30 30939 H 3025.17 -0.734873 4.03869 0
M  V30 30940 H 3023.83 -1.11821 2.93521 0
M  V30 30941 H 3023.03 -0.00498554 5.04 0
M  V30 30942 H 3022.63 0.97597 3.61041 0
M  V30 30943 H 3024.92 0.548248 6.75278 0
M  V30 30944 H 3025.86 2.07235 6.77096 0
M  V30 30945 H 3026.27 0.793371 5.58897 0
M  V30 30946 N 3025.67 -1.37693 0.766707 0
M  V30 30947 C 3026.62 -2.27667 0.123213 0
M  V30 30948 C 3027.6 -1.45852 -0.67941 0
M  V30 30949 O 3028.8 -1.68458 -0.543211 0
M  V30 30950 C 3025.93 -3.34804 -0.759005 0
M  V30 30951 C 3025.01 -4.24069 0.0511755 0
M  V30 30952 N 3025.4 -4.93821 1.09426 0
M  V30 30953 C 3023.7 -4.45662 -0.173597 0
M  V30 30954 C 3024.4 -5.59674 1.58556 0
M  V30 30955 N 3023.38 -5.36121 0.898597 0
M  V30 30956 H 3027.18 -2.79066 0.921908 0
M  V30 30957 H 3024.69 -1.50751 0.603984 0
M  V30 30958 H 3026.69 -3.98165 -1.23574 0
M  V30 30959 H 3025.35 -2.84962 -1.5565 0
M  V30 30960 H 3026.36 -4.96412 1.47632 0
M  V30 30961 H 3023.04 -4.06702 -0.943401 0
M  V30 30962 H 3024.43 -6.25437 2.45515 0
M  V30 30963 N 3027.15 -0.516835 -1.48884 0
M  V30 30964 C 3028.06 0.257252 -2.33185 0
M  V30 30965 C 3029.07 0.951926 -1.45652 0
M  V30 30966 O 3030.25 0.929803 -1.78652 0
M  V30 30967 C 3027.32 1.29845 -3.21467 0
M  V30 30968 C 3026.38 0.615533 -4.24864 0
M  V30 30969 C 3025.61 1.60713 -5.08927 0
M  V30 30970 O 3025.83 2.83854 -4.94755 0
M  V30 30971 O 3024.77 1.15374 -5.90739 0
M  V30 30972 H 3028.59 -0.433183 -3.00595 0
M  V30 30973 H 3026.18 -0.277934 -1.46792 0
M  V30 30974 H 3028.06 1.90048 -3.76111 0
M  V30 30975 H 3026.73 1.97153 -2.56734 0
M  V30 30976 H 3025.64 -0.0266486 -3.74091 0
M  V30 30977 H 3026.97 -0.0153736 -4.92198 0
M  V30 30978 N 3028.63 1.55583 -0.251365 0
M  V30 30979 C 3029.87 1.99346 0.372685 0
M  V30 30980 C 3030.21 1.13937 1.57264 0
M  V30 30981 O 3029.48 0.203804 1.93429 0
M  V30 30982 C 3029.76 3.51591 0.778183 0
M  V30 30983 C 3029.62 4.47764 -0.427473 0
M  V30 30984 C 3030.94 4.0906 1.62351 0
M  V30 30985 H 3028.05 0.724718 0.133989 0
M  V30 30986 H 3030.7 1.86681 -0.353569 0
M  V30 30987 H 3028.85 3.62515 1.39698 0
M  V30 30988 H 3030.52 4.48816 -1.06594 0
M  V30 30989 H 3028.76 4.20402 -1.06979 0
M  V30 30990 H 3029.43 5.51909 -0.100347 0
M  V30 30991 H 3031.91 4.01266 1.10113 0
M  V30 30992 H 3030.78 5.15843 1.87608 0
M  V30 30993 H 3031.05 3.57796 2.59682 0
M  V30 30994 N 3030.1 -0.0216912 1.57585 0
M  V30 30995 C 3031.52 -0.377457 1.55072 0
M  V30 30996 C 3031.72 -1.76149 0.978454 0
M  V30 30997 O 3030.78 -2.45201 0.602731 0
M  V30 30998 C 3032.09 -0.272552 2.99462 0
M  V30 30999 C 3033.64 -0.349093 3.11047 0
M  V30 31000 C 3034.11 -0.273556 4.57182 0
M  V30 31001 N 3035.6 -0.332125 4.62008 0
M  V30 31002 C 3036.34 -0.296682 5.72632 0
M  V30 31003 N 3035.83 -0.213099 6.92472 0
M  V30 31004 N 3037.63 -0.346954 5.61028 0
M  V30 31005 H 3029.78 0.883959 1.93132 0
M  V30 31006 H 3032.04 0.336825 0.886145 0
M  V30 31007 H 3031.75 0.678841 3.45086 0
M  V30 31008 H 3031.62 -1.06329 3.61903 0
M  V30 31009 H 3034.01 -1.29092 2.65366 0
M  V30 31010 H 3034.09 0.471129 2.51424 0
M  V30 31011 H 3033.73 0.664637 5.03533 0
M  V30 31012 H 3033.66 -1.11198 5.14726 0
M  V30 31013 H 3036.15 -0.398937 3.75788 0
M  V30 31014 H 3036.47 -0.191356 7.72563 0
M  V30 31015 H 3034.81 -0.179039 6.94769 0
M  V30 31016 H 3038 -0.410296 4.66298 0
M  V30 31017 H 3038.18 -0.315865 6.4723 0
M  V30 31018 N 3031.58 -1.54832 -0.294093 0
M  V30 31019 C 3032.83 -1.74441 -1.02843 0
M  V30 31020 C 3033.16 -0.533938 -1.87028 0
M  V30 31021 O 3032.41 0.484001 -1.8962 0
M  V30 31022 C 3032.71 -2.99009 -1.95776 0
M  V30 31023 C 3032.38 -4.32494 -1.27513 0
M  V30 31024 C 3031.04 -4.68779 -1.08628 0
M  V30 31025 C 3033.39 -5.15214 -0.78767 0
M  V30 31026 C 3030.72 -5.85356 -0.396937 0
M  V30 31027 C 3033.07 -6.32501 -0.112012 0
M  V30 31028 C 3031.74 -6.67441 0.0887244 0
M  V30 31029 H 3031.01 -0.638323 -0.37633 0
M  V30 31030 H 3033.65 -1.89093 -0.302651 0
M  V30 31031 H 3031.96 -2.79167 -2.74906 0
M  V30 31032 H 3033.66 -3.11376 -2.52678 0
M  V30 31033 H 3030.25 -4.03963 -1.43218 0
M  V30 31034 H 3034.43 -4.87675 -0.921255 0
M  V30 31035 H 3029.69 -6.10965 -0.230489 0
M  V30 31036 H 3033.86 -6.95862 0.273562 0
M  V30 31037 H 3031.49 -7.57627 0.624881 0
M  V30 31038 N 3033.06 0.557619 -1.47405 0
M  V30 31039 C 3034.01 1.68574 -1.60268 0
M  V30 31040 C 3035 1.62749 -0.47001 0
M  V30 31041 O 3036.21 1.67939 -0.647794 0
M  V30 31042 H 3032.58 0.557784 -0.504362 0
M  V30 31043 H 3034.56 1.54862 -2.55069 0
M  V30 31044 C 3033.3 3.06927 -1.63374 0
M  V30 31045 H 3032.63 3.1209 -2.49879 0
M  V30 31046 H 3034.07 3.85552 -1.76424 0
M  V30 31047 C 3032.53 3.34895 -0.36698 0
M  V30 31048 O 3033.06 3.9816 0.53211 0
M  V30 31049 N 3031.26 2.89547 -0.247133 0
M  V30 31050 H 3030.81 2.38242 -0.979711 0
M  V30 31051 H 3030.77 3.08631 0.599498 0
M  V30 31052 N 3034.54 1.35531 0.804316 0
M  V30 31053 C 3035.49 1.25178 1.90563 0
M  V30 31054 C 3036.47 0.14654 1.60231 0
M  V30 31055 O 3037.67 0.377973 1.72917 0
M  V30 31056 C 3034.79 1.02829 3.27538 0
M  V30 31057 C 3033.88 2.17755 3.63928 0
M  V30 31058 N 3034.27 3.42993 3.71738 0
M  V30 31059 C 3032.57 2.09191 3.93897 0
M  V30 31060 C 3033.27 4.18581 4.03936 0
M  V30 31061 N 3032.25 3.47362 4.18139 0
M  V30 31062 H 3036.05 2.20063 1.94806 0
M  V30 31063 H 3033.56 1.28036 0.999028 0
M  V30 31064 H 3035.56 0.935012 4.0628 0
M  V30 31065 H 3034.22 0.0883121 3.2458 0
M  V30 31066 H 3035.23 3.77316 3.54758 0
M  V30 31067 H 3031.91 1.23061 3.98951 0
M  V30 31068 H 3033.3 5.26819 4.17027 0
M  V30 31069 N 3036.02 -1.02674 1.19565 0
M  V30 31070 C 3036.95 -2.12895 0.959061 0
M  V30 31071 C 3037.93 -1.69755 -0.108352 0
M  V30 31072 O 3039.11 -1.94143 0.0471039 0
M  V30 31073 C 3036.24 -3.43693 0.499271 0
M  V30 31074 C 3035.2 -4.00525 1.50877 0
M  V30 31075 C 3034.52 -5.26969 0.905976 0
M  V30 31076 C 3035.82 -4.35085 2.88961 0
M  V30 31077 H 3037.52 -2.32945 1.88088 0
M  V30 31078 H 3035.06 -1.11947 0.905751 0
M  V30 31079 H 3037.02 -4.20175 0.321039 0
M  V30 31080 H 3035.74 -3.23371 -0.458148 0
M  V30 31081 H 3034.4 -3.26139 1.67418 0
M  V30 31082 H 3034.05 -5.02965 -0.0590622 0
M  V30 31083 H 3033.75 -5.65956 1.5801 0
M  V30 31084 H 3035.27 -6.06117 0.738587 0
M  V30 31085 H 3036.69 -5.02496 2.7599 0
M  V30 31086 H 3035.08 -4.8516 3.53186 0
M  V30 31087 H 3036.15 -3.44293 3.41453 0
M  V30 31088 N 3037.5 -0.999914 -1.21817 0
M  V30 31089 C 3038.74 -0.678385 -1.90374 0
M  V30 31090 C 3039.06 0.792792 -1.78157 0
M  V30 31091 O 3038.33 1.56883 -1.17322 0
M  V30 31092 H 3036.91 -0.247927 -0.704657 0
M  V30 31093 H 3039.58 -1.26793 -1.48019 0
M  V30 31094 H 3038.67 -0.947076 -2.97383 0
M  V30 31095 N 3038.97 1.37284 -0.773999 0
M  V30 31096 C 3039.92 2.27598 -0.135285 0
M  V30 31097 C 3040.91 1.4621 0.671666 0
M  V30 31098 O 3042.1 1.68744 0.534269 0
M  V30 31099 C 3039.23 3.35202 0.741239 0
M  V30 31100 C 3038.31 4.24036 -0.0736642 0
M  V30 31101 N 3038.71 4.93234 -1.12044 0
M  V30 31102 C 3037 4.45748 0.14996 0
M  V30 31103 C 3037.7 5.58825 -1.61522 0
M  V30 31104 N 3036.68 5.35637 -0.927016 0
M  V30 31105 H 3040.48 2.78574 -0.936695 0
M  V30 31106 H 3038 1.50428 -0.61197 0
M  V30 31107 H 3039.99 3.98814 1.21461 0
M  V30 31108 H 3038.65 2.85783 1.54137 0
M  V30 31109 H 3039.66 4.95623 -1.50262 0
M  V30 31110 H 3036.34 4.07196 0.921819 0
M  V30 31111 H 3037.73 6.24127 -2.48829 0
M  V30 31112 N 3040.45 0.524724 1.48608 0
M  V30 31113 C 3041.7 -0.0132582 2.01696 0
M  V30 31114 C 3042.01 -1.35823 1.40753 0
M  V30 31115 O 3043.22 -1.98427 1.85308 0
M  V30 31116 C 3041.68 -0.074038 3.59824 0
M  V30 31117 C 3041.28 1.26572 4.29748 0
M  V30 31118 C 3043.03 -0.561126 4.20775 0
M  V30 31119 C 3040.93 1.16581 5.79796 0
M  V30 31120 H 3039.86 -0.00872605 0.75395 0
M  V30 31121 H 3042.52 0.667714 1.70921 0
M  V30 31122 H 3040.9 -0.819975 3.87418 0
M  V30 31123 H 3042.07 2.02681 4.13832 0
M  V30 31124 H 3040.39 1.68813 3.80646 0
M  V30 31125 H 3042.98 -0.653759 5.30688 0
M  V30 31126 H 3043.33 -1.56566 3.85736 0
M  V30 31127 H 3043.86 0.128971 3.97591 0
M  V30 31128 H 3040.6 2.14534 6.19399 0
M  V30 31129 H 3040.12 0.445999 5.9814 0
M  V30 31130 H 3041.8 0.854299 6.41335 0
M  V30 31131 N 3041.93 -1.55447 0.259613 0
M  V30 31132 C 3043.18 -1.99246 -0.361572 0
M  V30 31133 C 3043.5 -1.1479 -1.57015 0
M  V30 31134 O 3042.76 -0.201759 -1.94657 0
M  V30 31135 C 3043.06 -3.4827 -0.802666 0
M  V30 31136 C 3042.72 -4.49904 0.299551 0
M  V30 31137 C 3041.39 -4.77416 0.602241 0
M  V30 31138 C 3043.74 -5.10657 1.04304 0
M  V30 31139 C 3041.07 -5.62954 1.65227 0
M  V30 31140 C 3043.42 -5.97333 2.08268 0
M  V30 31141 C 3042.08 -6.23174 2.39188 0
M  V30 31142 H 3041.35 -0.729092 -0.132309 0
M  V30 31143 H 3044 -1.8789 0.370092 0
M  V30 31144 H 3042.3 -3.57023 -1.61375 0
M  V30 31145 H 3044 -3.79555 -1.29378 0
M  V30 31146 H 3040.59 -4.28567 0.053501 0
M  V30 31147 H 3044.78 -4.89438 0.822444 0
M  V30 31148 H 3040.03 -5.81225 1.89703 0
M  V30 31149 H 3044.21 -6.43447 2.66362 0
M  V30 31150 H 3041.83 -6.89248 3.20689 0
M  V30 31151 N 3043.41 0.0133338 -1.57594 0
M  V30 31152 C 3044.64 0.712294 -1.94252 0
M  V30 31153 C 3045.05 1.68042 -0.860659 0
M  V30 31154 O 3044.41 1.81783 0.1616 0
M  V30 31155 C 3044.46 1.45575 -3.30893 0
M  V30 31156 O 3044.18 0.526463 -4.34925 0
M  V30 31157 C 3045.68 2.25043 -3.8193 0
M  V30 31158 H 3042.9 0.19923 -0.64074 0
M  V30 31159 H 3045.44 -0.0338215 -2.04472 0
M  V30 31160 H 3043.6 2.15361 -3.22023 0
M  V30 31161 H 3044.01 1.04953 -5.13892 0
M  V30 31162 H 3045.49 2.72581 -4.80004 0
M  V30 31163 H 3045.96 3.07146 -3.13939 0
M  V30 31164 H 3046.57 1.60301 -3.93934 0
M  V30 31165 N 3044.89 1.54985 0.285878 0
M  V30 31166 C 3046.13 1.74984 1.01917 0
M  V30 31167 C 3046.46 0.543849 1.86742 0
M  V30 31168 O 3045.72 -0.473938 1.89874 0
M  V30 31169 C 3046.01 3.00043 1.94188 0
M  V30 31170 C 3045.68 4.33164 1.25217 0
M  V30 31171 C 3044.34 4.69348 1.06141 0
M  V30 31172 C 3046.69 5.15624 0.760336 0
M  V30 31173 C 3044.02 5.85558 0.365888 0
M  V30 31174 C 3046.37 6.32551 0.0784675 0
M  V30 31175 C 3045.04 6.67385 -0.124119 0
M  V30 31176 H 3044.31 0.64031 0.372939 0
M  V30 31177 H 3046.96 1.89251 0.292618 0
M  V30 31178 H 3045.26 2.80621 2.73421 0
M  V30 31179 H 3046.96 3.12711 2.51023 0
M  V30 31180 H 3043.55 4.04717 1.41074 0
M  V30 31181 H 3047.73 4.88156 0.89538 0
M  V30 31182 H 3042.99 6.11079 0.198085 0
M  V30 31183 H 3047.16 6.95708 -0.310462 0
M  V30 31184 H 3044.79 7.57285 -0.665051 0
M  V30 31185 N 3046.36 -0.549794 1.47699 0
M  V30 31186 C 3047.59 -1.33185 1.58333 0
M  V30 31187 C 3048.01 -1.87316 0.236226 0
M  V30 31188 O 3047.36 -1.65384 -0.771641 0
M  V30 31189 C 3047.42 -2.4966 2.61443 0
M  V30 31190 O 3047.14 -1.97764 3.90923 0
M  V30 31191 C 3048.64 -3.41767 2.8233 0
M  V30 31192 H 3045.86 -0.405732 0.534437 0
M  V30 31193 H 3048.4 -0.665275 1.93376 0
M  V30 31194 H 3046.56 -3.12241 2.29313 0
M  V30 31195 H 3046.97 -2.73858 4.47328 0
M  V30 31196 H 3048.44 -4.19891 3.58323 0
M  V30 31197 H 3048.92 -3.95772 1.90423 0
M  V30 31198 H 3049.53 -2.84995 3.15687 0
M  V30 31199 N 3047.84 -1.35955 -0.797117 0
M  V30 31200 C 3049.25 -1.26647 -1.37177 0
M  V30 31201 C 3049.6 0.0970702 -1.9596 0
M  V30 31202 O 3048.73 0.998321 -1.91996 0
M  V30 31203 C 3049.32 -2.29324 -2.49391 0
M  V30 31204 C 3047.88 -2.23728 -3.02693 0
M  V30 31205 C 3047.03 -2.1452 -1.75717 0
M  V30 31206 H 3049.98 -1.46946 -0.599381 0
M  V30 31207 H 3050 -1.92521 -3.28201 0
M  V30 31208 H 3049.51 -3.28553 -2.06578 0
M  V30 31209 H 3047.62 -1.2794 -3.49946 0
M  V30 31210 H 3047.73 -3.16093 -3.60031 0
M  V30 31211 H 3046.09 -1.60649 -1.97646 0
M  V30 31212 H 3046.88 -3.15624 -1.35043 0
M  V30 31213 N 3049.32 1.02038 -1.20108 0
M  V30 31214 C 3050.25 2.10608 -0.904273 0
M  V30 31215 C 3051.27 1.62452 0.106459 0
M  V30 31216 O 3052.45 1.78068 -0.124066 0
M  V30 31217 C 3049.55 3.37255 -0.333483 0
M  V30 31218 C 3048.73 4.14564 -1.39484 0
M  V30 31219 C 3047.79 5.19516 -0.836052 0
M  V30 31220 O 3046.81 5.48645 -1.51583 0
M  V30 31221 N 3048.01 5.79405 0.356429 0
M  V30 31222 H 3050.78 2.36658 -1.83884 0
M  V30 31223 H 3048.34 1.18398 -1.10424 0
M  V30 31224 H 3050.33 4.04663 0.0543859 0
M  V30 31225 H 3048.9 3.08485 0.505554 0
M  V30 31226 H 3048.12 3.4218 -1.9572 0
M  V30 31227 H 3049.41 4.62998 -2.10975 0
M  V30 31228 H 3048.81 5.58069 0.926045 0
M  V30 31229 H 3047.37 6.4818 0.685979 0
M  V30 31230 N 3050.8 1.00636 1.21285 0
M  V30 31231 C 3051.75 0.561065 2.25732 0
M  V30 31232 C 3052.74 -0.395066 1.64729 0
M  V30 31233 O 3053.95 -0.26611 1.78022 0
M  V30 31234 H 3050.32 0.163094 0.734101 0
M  V30 31235 H 3052.29 1.45312 2.60628 0
M  V30 31236 C 3051.04 -0.0951976 3.4757 0
M  V30 31237 H 3050.36 0.631496 3.94781 0
M  V30 31238 H 3051.8 -0.370031 4.22382 0
M  V30 31239 C 3050.26 -1.33482 3.09328 0
M  V30 31240 O 3050.79 -2.42906 3.19937 0
M  V30 31241 N 3049 -1.21508 2.63978 0
M  V30 31242 H 3048.55 -0.324696 2.55545 0
M  V30 31243 H 3048.5 -2.04551 2.3876 0
M  V30 31244 N 3052.28 -1.36872 0.781268 0
M  V30 31245 C 3053.22 -2.32036 0.16193 0
M  V30 31246 C 3054.22 -1.55406 -0.674197 0
M  V30 31247 O 3055.42 -1.7073 -0.570193 0
M  V30 31248 H 3051.8 -0.75125 0.0335834 0
M  V30 31249 H 3053.77 -2.81844 0.980128 0
M  V30 31250 C 3052.52 -3.40677 -0.695292 0
M  V30 31251 H 3051.84 -3.99753 -0.0612723 0
M  V30 31252 H 3053.28 -4.09604 -1.09546 0
M  V30 31253 C 3051.74 -2.81559 -1.85003 0
M  V30 31254 O 3052.27 -2.7307 -2.94611 0
M  V30 31255 N 3050.48 -2.38965 -1.6536 0
M  V30 31256 H 3050.02 -2.4607 -0.762063 0
M  V30 31257 H 3049.98 -1.99756 -2.42786 0
M  V30 31258 N 3053.75 -0.532597 -1.48328 0
M  V30 31259 C 3054.66 0.232505 -2.33445 0
M  V30 31260 C 3055.68 0.936424 -1.46653 0
M  V30 31261 O 3056.86 0.910802 -1.79628 0
M  V30 31262 C 3053.92 1.26428 -3.22826 0
M  V30 31263 C 3052.98 0.570436 -4.25493 0
M  V30 31264 C 3052.22 1.55306 -5.10603 0
M  V30 31265 O 3052.44 2.78591 -4.97738 0
M  V30 31266 O 3051.37 1.09102 -5.91929 0
M  V30 31267 H 3055.2 -0.465041 -3.00118 0
M  V30 31268 H 3052.78 -0.293487 -1.46489 0
M  V30 31269 H 3054.67 1.86048 -3.78106 0
M  V30 31270 H 3053.34 1.94419 -2.58811 0
M  V30 31271 H 3052.25 -0.0663244 -3.74041 0
M  V30 31272 H 3053.58 -0.0675769 -4.92154 0
M  V30 31273 N 3055.23 1.55307 -0.267853 0
M  V30 31274 C 3056.48 1.99435 0.351001 0
M  V30 31275 C 3056.81 1.15621 1.56404 0
M  V30 31276 O 3056.06 0.212079 1.94547 0
M  V30 31277 C 3056.36 3.48691 0.784185 0
M  V30 31278 C 3056.03 4.49739 -0.323407 0
M  V30 31279 C 3054.69 4.7709 -0.627551 0
M  V30 31280 C 3057.04 5.10096 -1.07011 0
M  V30 31281 C 3054.37 5.6207 -1.6821 0
M  V30 31282 C 3056.72 5.96221 -2.11433 0
M  V30 31283 C 3055.39 6.21896 -2.4249 0
M  V30 31284 H 3054.66 0.729784 0.12844 0
M  V30 31285 H 3057.3 1.87691 -0.380051 0
M  V30 31286 H 3055.61 3.57874 1.59479 0
M  V30 31287 H 3057.3 3.80236 1.27364 0
M  V30 31288 H 3053.89 4.28532 -0.0762282 0
M  V30 31289 H 3058.08 4.88995 -0.848388 0
M  V30 31290 H 3053.33 5.80211 -1.92782 0
M  V30 31291 H 3057.51 6.42026 -2.6977 0
M  V30 31292 H 3055.14 6.87537 -3.2434 0
M  V30 31293 N 3056.71 -0.00497598 1.57599 0
M  V30 31294 C 3057.64 -1.02606 2.0495 0
M  V30 31295 C 3058.66 -1.31004 0.96653 0
M  V30 31296 O 3059.84 -1.28068 1.24342 0
M  V30 31297 C 3056.94 -2.36202 2.43027 0
M  V30 31298 C 3056.12 -2.26815 3.73997 0
M  V30 31299 C 3055.18 -3.43058 3.98996 0
M  V30 31300 O 3054.2 -3.21468 4.6973 0
M  V30 31301 N 3055.4 -4.65742 3.46504 0
M  V30 31302 H 3058.17 -0.622284 2.93168 0
M  V30 31303 H 3055.73 -0.19246 1.60752 0
M  V30 31304 H 3057.72 -3.12731 2.56869 0
M  V30 31305 H 3056.29 -2.68338 1.60354 0
M  V30 31306 H 3055.51 -1.35229 3.70279 0
M  V30 31307 H 3056.8 -2.17711 4.59869 0
M  V30 31308 H 3056.2 -4.86181 2.89214 0
M  V30 31309 H 3054.76 -5.39554 3.65684 0
M  V30 31310 N 3058.19 -1.55135 -0.277654 0
M  V30 31311 C 3059.12 -1.90703 -1.34739 0
M  V30 31312 C 3060.1 -0.76838 -1.51756 0
M  V30 31313 O 3061.28 -1.02612 -1.64877 0
M  V30 31314 C 3058.41 -2.17486 -2.70771 0
M  V30 31315 C 3057.37 -3.33312 -2.68491 0
M  V30 31316 C 3056.69 -3.45564 -4.08031 0
M  V30 31317 C 3057.99 -4.69825 -2.2817 0
M  V30 31318 H 3059.69 -2.80302 -1.05219 0
M  V30 31319 H 3057.23 -1.34865 -0.504715 0
M  V30 31320 H 3059.19 -2.40955 -3.45714 0
M  V30 31321 H 3057.91 -1.24681 -3.01864 0
M  V30 31322 H 3056.57 -3.09803 -1.96005 0
M  V30 31323 H 3056.22 -2.50234 -4.36339 0
M  V30 31324 H 3055.92 -4.23436 -4.07401 0
M  V30 31325 H 3057.44 -3.71321 -4.8472 0
M  V30 31326 H 3058.86 -4.9287 -2.92835 0
M  V30 31327 H 3057.25 -5.50579 -2.38711 0
M  V30 31328 H 3058.32 -4.68962 -1.23299 0
M  V30 31329 N 3059.67 0.541953 -1.47989 0
M  V30 31330 C 3060.6 1.66329 -1.57693 0
M  V30 31331 C 3061.61 1.56106 -0.462022 0
M  V30 31332 O 3062.8 1.62785 -0.732334 0
M  V30 31333 C 3059.9 3.04903 -1.47944 0
M  V30 31334 C 3059.07 3.40728 -2.74269 0
M  V30 31335 C 3058.13 4.5853 -2.58142 0
M  V30 31336 O 3057.16 4.62348 -3.31999 0
M  V30 31337 N 3058.36 5.55969 -1.66969 0
M  V30 31338 H 3061.13 1.58445 -2.54392 0
M  V30 31339 H 3058.69 0.728954 -1.44561 0
M  V30 31340 H 3060.68 3.81566 -1.34867 0
M  V30 31341 H 3059.25 3.0693 -0.59268 0
M  V30 31342 H 3058.47 2.53361 -3.01997 0
M  V30 31343 H 3059.76 3.61444 -3.581 0
M  V30 31344 H 3059.15 5.55653 -1.06144 0
M  V30 31345 H 3057.71 6.31898 -1.59838 0
M  V30 31346 N 3061.15 1.36376 0.789896 0
M  V30 31347 C 3062.08 1.33345 1.91681 0
M  V30 31348 C 3063.06 0.204995 1.6886 0
M  V30 31349 O 3064.24 0.402565 1.89982 0
M  V30 31350 C 3061.37 1.12148 3.28694 0
M  V30 31351 C 3060.33 2.21813 3.66037 0
M  V30 31352 C 3059.65 1.8576 5.01395 0
M  V30 31353 C 3060.95 3.63894 3.74671 0
M  V30 31354 H 3062.65 2.2764 1.94474 0
M  V30 31355 H 3060.19 1.0958 0.934252 0
M  V30 31356 H 3062.14 1.08663 4.07149 0
M  V30 31357 H 3060.87 0.143031 3.26287 0
M  V30 31358 H 3059.53 2.24423 2.89879 0
M  V30 31359 H 3059.18 0.864904 4.95508 0
M  V30 31360 H 3058.88 2.59182 5.2735 0
M  V30 31361 H 3060.4 1.8383 5.82271 0
M  V30 31362 H 3061.81 3.63514 4.43318 0
M  V30 31363 H 3060.21 4.36217 4.1211 0
M  V30 31364 H 3061.28 3.98834 2.75788 0
M  V30 31365 N 3062.62 -1.014 1.20647 0
M  V30 31366 C 3063.85 -1.7917 1.04465 0
M  V30 31367 C 3064.27 -1.83764 -0.401556 0
M  V30 31368 O 3063.63 -1.27461 -1.28932 0
M  V30 31369 C 3063.68 -3.21358 1.63589 0
M  V30 31370 O 3062.78 -4.03005 0.875268 0
M  V30 31371 H 3062.12 -0.552532 0.368245 0
M  V30 31372 H 3064.65 -1.27523 1.59997 0
M  V30 31373 H 3064.66 -3.72062 1.67433 0
M  V30 31374 H 3063.34 -3.17329 2.6884 0
M  V30 31375 H 3061.92 -3.61595 0.911235 0
M  V30 31376 N 3064.1 -1.01278 -1.2075 0
M  V30 31377 C 3065.51 -0.732063 -1.71749 0
M  V30 31378 C 3065.86 0.749701 -1.81312 0
M  V30 31379 O 3064.99 1.58527 -1.47303 0
M  V30 31380 C 3065.58 -1.32222 -3.11934 0
M  V30 31381 C 3064.14 -1.09046 -3.60258 0
M  V30 31382 C 3063.29 -1.43026 -2.37568 0
M  V30 31383 H 3066.24 -1.18272 -1.05818 0
M  V30 31384 H 3066.26 -0.710837 -3.73801 0
M  V30 31385 H 3065.77 -2.40067 -3.04942 0
M  V30 31386 H 3063.87 -0.0295119 -3.72588 0
M  V30 31387 H 3063.99 -1.76782 -4.45292 0
M  V30 31388 H 3062.35 -0.849201 -2.40126 0
M  V30 31389 H 3063.13 -2.51919 -2.33221 0
M  V30 31390 N 3065.58 1.36456 -0.788516 0
M  V30 31391 C 3066.53 2.30062 -0.18439 0
M  V30 31392 C 3067.5 1.51932 0.671253 0
M  V30 31393 O 3068.68 1.80442 0.62012 0
M  V30 31394 C 3065.82 3.38424 0.675536 0
M  V30 31395 C 3064.93 4.31543 -0.19855 0
M  V30 31396 C 3064.07 5.26987 0.667664 0
M  V30 31397 C 3063.11 6.11747 -0.207933 0
M  V30 31398 N 3062.25 6.99382 0.617212 0
M  V30 31399 H 3067.09 2.81141 -0.988106 0
M  V30 31400 H 3064.62 1.38384 -0.498839 0
M  V30 31401 H 3066.58 3.99896 1.18909 0
M  V30 31402 H 3065.21 2.88667 1.44469 0
M  V30 31403 H 3064.26 3.71233 -0.83006 0
M  V30 31404 H 3065.57 4.91097 -0.87325 0
M  V30 31405 H 3064.73 5.93745 1.24706 0
M  V30 31406 H 3063.47 4.67886 1.37599 0
M  V30 31407 H 3062.47 5.43952 -0.799734 0
M  V30 31408 H 3063.7 6.72923 -0.913848 0
M  V30 31409 H 3061.64 6.4279 1.30985 0
M  V30 31410 H 3061.56 7.56 0.000174369 0
M  V30 31411 H 3062.83 7.7051 1.18046 0
M  V30 31412 N 3067.06 0.540456 1.48043 0
M  V30 31413 C 3068.29 0.0145517 2.06895 0
M  V30 31414 C 3068.7 -1.27161 1.39554 0
M  V30 31415 O 3068.06 -1.75896 0.486485 0
M  V30 31416 C 3068.11 -0.202214 3.60934 0
M  V30 31417 O 3067.83 1.033 4.25747 0
M  V30 31418 C 3069.33 -0.76731 4.36609 0
M  V30 31419 H 3066.55 0.0382486 0.669909 0
M  V30 31420 H 3069.09 0.749091 1.90286 0
M  V30 31421 H 3067.25 -0.886831 3.77113 0
M  V30 31422 H 3067.66 0.820259 5.18046 0
M  V30 31423 H 3069.14 -0.868354 5.45127 0
M  V30 31424 H 3069.61 -1.77469 4.01748 0
M  V30 31425 H 3070.22 -0.118927 4.25134 0
M  V30 31426 N 3068.54 -1.55163 0.276085 0
M  V30 31427 C 3069.78 -1.99618 -0.340419 0
M  V30 31428 C 3070.11 -1.16449 -1.55788 0
M  V30 31429 O 3069.37 -0.222393 -1.94432 0
M  V30 31430 C 3069.66 -3.49102 -0.765682 0
M  V30 31431 C 3069.33 -4.49561 0.347253 0
M  V30 31432 C 3067.99 -4.76751 0.652844 0
M  V30 31433 C 3070.34 -5.09522 1.09714 0
M  V30 31434 C 3067.67 -5.6117 1.71189 0
M  V30 31435 C 3070.02 -5.95091 2.14592 0
M  V30 31436 C 3068.69 -6.20602 2.45784 0
M  V30 31437 H 3067.96 -0.730454 -0.124568 0
M  V30 31438 H 3070.61 -1.87487 0.389999 0
M  V30 31439 H 3068.91 -3.58714 -1.57579 0
M  V30 31440 H 3070.61 -3.80906 -1.25346 0
M  V30 31441 H 3067.2 -4.28486 0.0989532 0
M  V30 31442 H 3071.38 -4.88538 0.874309 0
M  V30 31443 H 3066.64 -5.79181 1.95857 0
M  V30 31444 H 3070.81 -6.40586 2.73171 0
M  V30 31445 H 3068.44 -6.85808 3.27982 0
M  V30 31446 N 3070.01 -0.00338196 -1.576 0
M  V30 31447 C 3070.98 0.971801 -2.07578 0
M  V30 31448 C 3071.98 1.27036 -0.985819 0
M  V30 31449 O 3073.17 1.21498 -1.24835 0
M  V30 31450 C 3070.3 2.29576 -2.52007 0
M  V30 31451 H 3071.49 0.53943 -2.95009 0
M  V30 31452 H 3069.04 0.244159 -1.54381 0
M  V30 31453 H 3069.78 2.77495 -1.6783 0
M  V30 31454 H 3069.56 2.09225 -3.31613 0
M  V30 31455 H 3071.05 2.99525 -2.90988 0
M  V30 31456 N 3071.49 1.5528 0.269423 0
M  V30 31457 C 3072.72 1.80417 1.02296 0
M  V30 31458 C 3073.14 0.577394 1.79019 0
M  V30 31459 O 3072.5 -0.473094 1.75019 0
M  V30 31460 C 3072.55 3.03044 1.9544 0
M  V30 31461 O 3071.65 2.7838 3.04267 0
M  V30 31462 H 3070.99 0.596212 0.292279 0
M  V30 31463 H 3073.52 2.02429 0.297247 0
M  V30 31464 H 3073.53 3.31873 2.37327 0
M  V30 31465 H 3072.21 3.91981 1.3901 0
M  V30 31466 H 3070.78 2.60657 2.66669 0
M  V30 31467 N 3072.97 -0.534097 1.48274 0
M  V30 31468 C 3073.92 -1.63908 1.6249 0
M  V30 31469 C 3074.89 -1.59397 0.46709 0
M  V30 31470 O 3076.07 -1.77884 0.69006 0
M  V30 31471 C 3073.21 -3.0218 1.66676 0
M  V30 31472 C 3072.32 -3.16955 2.93536 0
M  V30 31473 C 3071.46 -4.45763 2.8891 0
M  V30 31474 C 3070.5 -4.54052 4.10491 0
M  V30 31475 N 3069.64 -5.74243 4.03966 0
M  V30 31476 H 3074.48 -1.51096 2.56854 0
M  V30 31477 H 3072.01 -0.735682 1.27382 0
M  V30 31478 H 3073.97 -3.8228 1.67086 0
M  V30 31479 H 3072.6 -3.13773 0.758066 0
M  V30 31480 H 3071.65 -2.30135 3.0289 0
M  V30 31481 H 3072.96 -3.18942 3.83507 0
M  V30 31482 H 3072.12 -5.34149 2.87697 0
M  V30 31483 H 3070.86 -4.46291 1.9666 0
M  V30 31484 H 3069.86 -3.64074 4.11984 0
M  V30 31485 H 3071.09 -4.55265 5.03895 0
M  V30 31486 H 3069.03 -5.75677 3.14535 0
M  V30 31487 H 3068.95 -5.77707 4.87638 0
M  V30 31488 H 3070.22 -6.64928 4.06806 0
M  V30 31489 N 3074.45 -1.36793 -0.782652 0
M  V30 31490 C 3075.68 -1.34568 -1.5716 0
M  V30 31491 C 3076.09 0.0715169 -1.88664 0
M  V30 31492 O 3075.45 1.0303 -1.50635 0
M  V30 31493 C 3075.5 -2.17365 -2.8885 0
M  V30 31494 O 3075.22 -3.53561 -2.587 0
M  V30 31495 C 3076.72 -2.22997 -3.83128 0
M  V30 31496 H 3073.94 -0.461347 -0.487237 0
M  V30 31497 H 3076.48 -1.79984 -0.970873 0
M  V30 31498 H 3074.64 -1.75487 -3.45374 0
M  V30 31499 H 3075.05 -3.96841 -3.42954 0
M  V30 31500 H 3076.53 -2.85275 -4.7257 0
M  V30 31501 H 3077 -1.23531 -4.2147 0
M  V30 31502 H 3077.61 -2.65141 -3.32536 0
M  V30 31503 N 3075.93 1.00759 -1.21184 0
M  V30 31504 C 3077.16 1.77819 -1.05185 0
M  V30 31505 C 3077.56 1.84891 0.401495 0
M  V30 31506 O 3076.91 1.30746 1.2904 0
M  V30 31507 C 3076.97 3.23371 -1.57071 0
M  V30 31508 C 3076.63 3.39883 -3.05497 0
M  V30 31509 C 3077.63 3.28374 -4.03071 0
M  V30 31510 C 3075.32 3.65409 -3.44647 0
M  V30 31511 C 3077.31 3.4215 -5.37784 0
M  V30 31512 C 3075 3.78827 -4.79513 0
M  V30 31513 C 3075.99 3.67204 -5.75891 0
M  V30 31514 O 3075.68 3.80199 -7.0831 0
M  V30 31515 H 3075.41 0.565757 -0.369993 0
M  V30 31516 H 3077.97 1.27652 -1.60917 0
M  V30 31517 H 3076.2 3.74662 -0.957339 0
M  V30 31518 H 3077.89 3.82097 -1.36956 0
M  V30 31519 H 3078.65 3.08582 -3.74169 0
M  V30 31520 H 3074.53 3.73539 -2.70166 0
M  V30 31521 H 3078.08 3.32995 -6.12993 0
M  V30 31522 H 3073.97 3.98123 -5.08103 0
M  V30 31523 H 3074.74 3.97163 -7.15684 0
M  V30 31524 N 3077.4 1.01917 1.20211 0
M  V30 31525 C 3078.65 0.708586 1.89271 0
M  V30 31526 C 3078.97 -0.764349 1.79395 0
M  V30 31527 O 3078.24 -1.54997 1.19803 0
M  V30 31528 H 3076.82 0.259106 0.700623 0
M  V30 31529 H 3079.49 1.29132 1.45983 0
M  V30 31530 H 3078.58 0.994267 2.95839 0
M  V30 31531 N 3078.88 -1.36036 0.795742 0
M  V30 31532 C 3079.81 -2.32528 0.212843 0
M  V30 31533 C 3080.79 -1.56955 -0.655689 0
M  V30 31534 O 3081.98 -1.85078 -0.588205 0
M  V30 31535 C 3079.11 -3.41199 -0.648129 0
M  V30 31536 C 3078.06 -4.27829 0.121023 0
M  V30 31537 C 3077.39 -5.27723 -0.860951 0
M  V30 31538 C 3078.69 -5.05505 1.31384 0
M  V30 31539 H 3080.38 -2.81526 1.01898 0
M  V30 31540 H 3077.93 -1.35354 0.491446 0
M  V30 31541 H 3079.88 -4.07697 -1.0659 0
M  V30 31542 H 3078.61 -2.90783 -1.48704 0
M  V30 31543 H 3077.26 -3.62896 0.519841 0
M  V30 31544 H 3076.91 -4.73578 -1.69507 0
M  V30 31545 H 3076.61 -5.86552 -0.350705 0
M  V30 31546 H 3078.14 -5.97094 -1.27715 0
M  V30 31547 H 3079.55 -5.65009 0.971506 0
M  V30 31548 H 3077.95 -5.73778 1.75782 0
M  V30 31549 H 3079.02 -4.36779 2.106 0
M  V30 31550 N 3080.36 -0.5483 -1.47755 0
M  V30 31551 C 3081.6 -0.0231714 -2.04387 0
M  V30 31552 C 3081.96 1.2984 -1.41441 0
M  V30 31553 O 3083.17 1.91068 -1.89067 0
M  V30 31554 C 3081.44 0.0774192 -3.57316 0
M  V30 31555 S 3083 0.549961 -4.3534 0
M  V30 31556 H 3079.81 -0.0208553 -0.710694 0
M  V30 31557 H 3082.42 -0.733016 -1.81238 0
M  V30 31558 H 3081.12 -0.888951 -4.00657 0
M  V30 31559 H 3080.65 0.811089 -3.84948 0
M  V30 31560 H 3082.67 1.81127 -4.6196 0
M  V30 31561 N 3081.84 1.55014 -0.28431 0
M  V30 31562 C 3083.09 1.99401 0.329177 0
M  V30 31563 C 3083.41 1.17419 1.55685 0
M  V30 31564 O 3082.68 0.265971 1.94086 0
M  V30 31565 H 3081.26 0.736532 0.124617 0
M  V30 31566 H 3083.92 1.90922 -0.391776 0
M  V30 31567 H 3083.02 3.06026 0.612726 0
M  V30 31568 N 3083.32 0.0117398 1.57596 0
M  V30 31569 C 3084.57 -0.669887 1.90251 0
M  V30 31570 C 3084.88 -1.7428 0.888017 0
M  V30 31571 O 3086.08 -2.47987 1.1052 0
M  V30 31572 C 3084.54 -1.24271 3.37764 0
M  V30 31573 C 3084.15 -0.203997 4.47535 0
M  V30 31574 C 3085.89 -1.90185 3.79513 0
M  V30 31575 C 3083.8 -0.787474 5.86134 0
M  V30 31576 H 3082.73 -0.253972 0.70994 0
M  V30 31577 H 3085.38 0.074204 1.8335 0
M  V30 31578 H 3083.76 -2.03785 3.3954 0
M  V30 31579 H 3084.94 0.56741 4.57293 0
M  V30 31580 H 3083.25 0.355378 4.14881 0
M  V30 31581 H 3085.85 -2.34765 4.80406 0
M  V30 31582 H 3086.19 -2.73734 3.13648 0
M  V30 31583 H 3086.72 -1.17387 3.80086 0
M  V30 31584 H 3083.46 0.0094994 6.55499 0
M  V30 31585 H 3082.98 -1.52777 5.80017 0
M  V30 31586 H 3084.66 -1.28254 6.34161 0
M  V30 31587 N 3084.79 -1.55421 -0.261185 0
M  V30 31588 C 3086.03 -1.7834 -0.998716 0
M  V30 31589 C 3086.4 -0.578947 -1.83063 0
M  V30 31590 O 3087.6 -0.68662 -2.59883 0
M  V30 31591 C 3085.87 -3.05901 -1.84822 0
M  V30 31592 S 3087.43 -3.49986 -2.6468 0
M  V30 31593 H 3084.25 -0.626502 -0.336179 0
M  V30 31594 H 3086.85 -1.93655 -0.267956 0
M  V30 31595 H 3085.55 -3.91644 -1.22651 0
M  V30 31596 H 3085.08 -2.93284 -2.62198 0
M  V30 31597 H 3087.1 -3.10191 -3.87293 0
M  V30 31598 N 3086.27 0.526227 -1.48555 0
M  V30 31599 C 3087.55 1.28746 -1.47254 0
M  V30 31600 C 3087.93 2.10276 -0.186281 0
M  V30 31601 O 3087.28 2.12818 0.831916 0
M  V30 31602 C 3087.49 2.1657 -2.73675 0
M  V30 31603 C 3088.84 2.76588 -3.22156 0
M  V30 31604 O 3089.86 2.26855 -2.74618 0
M  V30 31605 O 3088.72 3.67059 -4.04883 0
M  V30 31606 H 3085.81 0.581282 -0.588252 0
M  V30 31607 H 3088.36 0.542572 -1.60793 0
M  V30 31608 H 3087.13 1.56133 -3.58801 0
M  V30 31609 H 3086.75 2.98299 -2.62876 0
M  V30 31610 N 3087.75 1.37206 0.775387 0
M  V30 31611 C 3088.66 1.34859 1.91964 0
M  V30 31612 C 3089.68 0.248687 1.72214 0
M  V30 31613 O 3090.85 0.483455 1.95511 0
M  V30 31614 C 3087.92 1.15102 3.27036 0
M  V30 31615 C 3086.98 2.34697 3.59466 0
M  V30 31616 C 3086.21 2.15873 4.88093 0
M  V30 31617 O 3086.43 1.14112 5.58869 0
M  V30 31618 O 3085.37 3.03976 5.19502 0
M  V30 31619 H 3089.19 2.31226 1.96896 0
M  V30 31620 H 3086.78 1.17898 0.917627 0
M  V30 31621 H 3088.66 1.06057 4.07835 0
M  V30 31622 H 3087.34 0.218055 3.22965 0
M  V30 31623 H 3086.24 2.49313 2.78916 0
M  V30 31624 H 3087.58 3.26548 3.68276 0
M  V30 31625 N 3089.23 -1.00115 1.21716 0
M  V30 31626 C 3090.18 -2.11088 0.976974 0
M  V30 31627 C 3091.17 -1.69224 -0.0770998 0
M  V30 31628 O 3092.38 -1.79845 0.0746261 0
M  V30 31629 H 3088.75 -0.690132 0.298699 0
M  V30 31630 H 3090.72 -2.28523 1.91885 0
M  V30 31631 C 3089.47 -3.43121 0.562429 0
M  V30 31632 H 3088.79 -3.7577 1.36516 0
M  V30 31633 H 3090.23 -4.21776 0.433716 0
M  V30 31634 C 3088.69 -3.28961 -0.72709 0
M  V30 31635 O 3089.22 -3.60028 -1.78164 0
M  V30 31636 N 3087.43 -2.82165 -0.695079 0
M  V30 31637 H 3086.98 -2.57081 0.163391 0
M  V30 31638 H 3086.93 -2.73072 -1.55818 0
M  V30 31639 N 3090.71 -1.02553 -1.19669 0
M  V30 31640 C 3091.96 -0.718613 -1.88892 0
M  V30 31641 C 3092.28 0.754824 -1.79798 0
M  V30 31642 O 3091.55 1.54359 -1.20623 0
M  V30 31643 H 3090.13 -0.262818 -0.699239 0
M  V30 31644 H 3092.79 -1.29904 -1.45296 0
M  V30 31645 H 3091.88 -1.00994 -2.95308 0
M  V30 31646 N 3092.19 1.35612 -0.802945 0
M  V30 31647 C 3093.15 2.28176 -0.216462 0
M  V30 31648 C 3094.15 1.49424 0.594075 0
M  V30 31649 O 3095.34 1.69231 0.413091 0
M  V30 31650 C 3092.47 3.33663 0.698688 0
M  V30 31651 H 3093.66 2.81555 -1.03281 0
M  V30 31652 H 3091.22 1.45405 -0.573332 0
M  V30 31653 H 3091.95 2.85464 1.53886 0
M  V30 31654 H 3091.74 3.91919 0.119245 0
M  V30 31655 H 3093.23 4.02757 1.10347 0
M  V30 31656 N 3093.66 0.556128 1.47462 0
M  V30 31657 C 3094.61 -0.205258 2.31693 0
M  V30 31658 C 3095.61 -0.910369 1.42859 0
M  V30 31659 O 3096.81 -0.831778 1.59629 0
M  V30 31660 H 3093.19 -0.0850644 0.747173 0
M  V30 31661 H 3095.16 0.524356 2.93757 0
M  V30 31662 C 3093.91 -1.22278 3.2549 0
M  V30 31663 H 3093.23 -0.689628 3.93807 0
M  V30 31664 H 3094.67 -1.72643 3.8726 0
M  V30 31665 C 3093.13 -2.27008 2.48935 0
M  V30 31666 O 3093.66 -3.33915 2.23302 0
M  V30 31667 N 3091.86 -2.00907 2.09963 0
M  V30 31668 H 3091.41 -1.13982 2.3101 0
M  V30 31669 H 3091.37 -2.71197 1.59058 0
M  V30 31670 N 3095.14 -1.54861 0.292527 0
M  V30 31671 C 3096.42 -1.92032 -0.371912 0
M  V30 31672 C 3096.8 -1.21881 -1.72361 0
M  V30 31673 O 3096.15 -0.351613 -2.25779 0
M  V30 31674 C 3096.36 -3.45472 -0.494966 0
M  V30 31675 C 3097.7 -4.17564 -0.769782 0
M  V30 31676 O 3098.73 -3.51461 -0.579106 0
M  V30 31677 O 3097.59 -5.34573 -1.13551 0
M  V30 31678 H 3094.68 -0.800817 -0.206449 0
M  V30 31679 H 3097.23 -1.6626 0.339962 0
M  V30 31680 H 3096 -3.88639 0.455596 0
M  V30 31681 H 3095.62 -3.77253 -1.25564 0
M  V30 31682 N 3096.62 -0.0200973 -1.57587 0
M  V30 31683 C 3097.87 0.660491 -1.91426 0
M  V30 31684 C 3098.19 1.72651 -0.895656 0
M  V30 31685 O 3097.45 1.95461 0.0967366 0
M  V30 31686 C 3097.75 1.32317 -3.32004 0
M  V30 31687 C 3097.41 0.388408 -4.49224 0
M  V30 31688 C 3096.08 0.131099 -4.81021 0
M  V30 31689 C 3098.43 -0.253997 -5.20581 0
M  V30 31690 C 3095.76 -0.776573 -5.81538 0
M  V30 31691 C 3098.11 -1.14967 -6.22065 0
M  V30 31692 C 3096.77 -1.41596 -6.52309 0
M  V30 31693 H 3096.04 0.241691 -0.700476 0
M  V30 31694 H 3098.69 -0.0799327 -1.91333 0
M  V30 31695 H 3096.99 2.13813 -3.28316 0
M  V30 31696 H 3098.69 1.85617 -3.55454 0
M  V30 31697 H 3095.28 0.599132 -4.24392 0
M  V30 31698 H 3099.47 -0.0682513 -4.96253 0
M  V30 31699 H 3094.72 -0.990681 -6.0332 0
M  V30 31700 H 3098.9 -1.65369 -6.76481 0
M  V30 31701 H 3096.52 -2.12096 -7.30013 0
M  V30 31702 N 3098.1 1.55557 0.252939 0
M  V30 31703 C 3099.03 1.84769 1.33924 0
M  V30 31704 C 3100.01 0.702279 1.46652 0
M  V30 31705 O 3101.19 0.947403 1.62962 0
M  V30 31706 C 3098.32 2.02706 2.71345 0
M  V30 31707 C 3097.37 3.25327 2.75798 0
M  V30 31708 S 3098.2 4.82145 2.33016 0
M  V30 31709 C 3099.35 5.0308 3.72373 0
M  V30 31710 H 3099.59 2.76619 1.08946 0
M  V30 31711 H 3097.12 1.47586 0.453614 0
M  V30 31712 H 3099.08 2.13724 3.50474 0
M  V30 31713 H 3097.74 1.11708 2.93564 0
M  V30 31714 H 3096.93 3.34825 3.76707 0
M  V30 31715 H 3096.53 3.13003 2.04708 0
M  V30 31716 H 3098.83 4.90052 4.67819 0
M  V30 31717 H 3099.77 6.05078 3.67813 0
M  V30 31718 H 3100.18 4.30956 3.64606 0
M  V30 31719 N 3099.58 -0.518341 1.48832 0
M  V30 31720 C 3100.51 -1.63072 1.67122 0
M  V30 31721 C 3101.49 -1.61958 0.519976 0
M  V30 31722 O 3102.67 -1.78971 0.753855 0
M  V30 31723 C 3099.8 -3.01624 1.72163 0
M  V30 31724 C 3098.76 -3.17601 2.86904 0
M  V30 31725 C 3098.08 -4.5733 2.77043 0
M  V30 31726 C 3099.38 -2.99266 4.28062 0
M  V30 31727 H 3101.08 -1.48021 2.6025 0
M  V30 31728 H 3098.62 -0.710672 1.25242 0
M  V30 31729 H 3100.57 -3.79327 1.83545 0
M  V30 31730 H 3099.3 -3.17725 0.756213 0
M  V30 31731 H 3097.96 -2.42318 2.75095 0
M  V30 31732 H 3097.61 -4.70283 1.78446 0
M  V30 31733 H 3097.31 -4.68963 3.54044 0
M  V30 31734 H 3098.83 -5.37117 2.9041 0
M  V30 31735 H 3100.24 -3.66752 4.40643 0
M  V30 31736 H 3098.64 -3.22384 5.06151 0
M  V30 31737 H 3099.71 -1.95567 4.43714 0
M  V30 31738 N 3101.05 -1.37615 -0.7681 0
M  V30 31739 C 3102.47 -1.18495 -1.06917 0
M  V30 31740 C 3102.67 -0.0236107 -2.01486 0
M  V30 31741 O 3101.73 0.635166 -2.44381 0
M  V30 31742 C 3103.04 -2.50518 -1.66317 0
M  V30 31743 C 3104.59 -2.57073 -1.78557 0
M  V30 31744 C 3105.06 -3.89235 -2.41371 0
M  V30 31745 N 3106.55 -3.90697 -2.48817 0
M  V30 31746 C 3107.29 -4.89711 -2.98279 0
M  V30 31747 N 3106.78 -5.99122 -3.47887 0
M  V30 31748 N 3108.58 -4.77112 -2.97187 0
M  V30 31749 H 3100.73 -2.11936 -0.140249 0
M  V30 31750 H 3102.99 -0.939743 -0.124847 0
M  V30 31751 H 3102.7 -3.3588 -1.04297 0
M  V30 31752 H 3102.57 -2.6787 -2.65566 0
M  V30 31753 H 3104.96 -1.72116 -2.39709 0
M  V30 31754 H 3105.04 -2.43601 -0.780531 0
M  V30 31755 H 3104.68 -4.74608 -1.80857 0
M  V30 31756 H 3104.61 -4.00012 -3.42488 0
M  V30 31757 H 3107.1 -3.11664 -2.13715 0
M  V30 31758 H 3107.42 -6.7062 -3.84042 0
M  V30 31759 H 3105.76 -6.02762 -3.45982 0
M  V30 31760 H 3108.95 -3.90757 -2.57734 0
M  V30 31761 H 3109.13 -5.54432 -3.35424 0
M  V30 31762 N 3102.53 0.994677 -1.22245 0
M  V30 31763 C 3103.81 1.7073 -0.954489 0
M  V30 31764 C 3104.19 2.04315 0.530909 0
M  V30 31765 O 3103.54 1.72505 1.49848 0
M  V30 31766 C 3103.75 2.95919 -1.85021 0
M  V30 31767 C 3105.09 3.68734 -2.10523 0
M  V30 31768 O 3106.12 3.05923 -1.82455 0
M  V30 31769 O 3104.98 4.81738 -2.58052 0
M  V30 31770 H 3102.07 0.74511 -0.358803 0
M  V30 31771 H 3104.62 1.05118 -1.33223 0
M  V30 31772 H 3103.39 2.67589 -2.85502 0
M  V30 31773 H 3103.01 3.6927 -1.47395 0
M  V30 31774 N 3104.01 1.03186 1.19123 0
M  V30 31775 C 3105.26 0.728621 1.88509 0
M  V30 31776 C 3105.58 -0.745279 1.80196 0
M  V30 31777 O 3104.85 -1.53718 1.2144 0
M  V30 31778 H 3103.43 0.266523 0.697836 0
M  V30 31779 H 3106.09 1.30673 1.44605 0
M  V30 31780 H 3105.19 1.02559 2.94768 0
M  V30 31781 N 3105.49 -1.35184 0.810125 0
M  V30 31782 C 3106.72 -2.02903 0.404732 0
M  V30 31783 C 3107.13 -1.61044 -0.985406 0
M  V30 31784 O 3106.49 -0.809687 -1.63555 0
M  V30 31785 C 3106.54 -3.58265 0.482556 0
M  V30 31786 O 3106.26 -3.98603 1.81789 0
M  V30 31787 C 3107.76 -4.43244 0.070423 0
M  V30 31788 H 3104.98 -0.650654 0.163983 0
M  V30 31789 H 3107.53 -1.72731 1.09473 0
M  V30 31790 H 3105.68 -3.87073 -0.159228 0
M  V30 31791 H 3106.09 -4.93259 1.78315 0
M  V30 31792 H 3107.57 -5.51719 0.175985 0
M  V30 31793 H 3108.05 -4.2802 -0.984649 0
M  V30 31794 H 3108.65 -4.19739 0.685501 0
M  V30 31795 N 3106.97 -0.56394 -1.47165 0
M  V30 31796 C 3108.21 -0.0424694 -2.02756 0
M  V30 31797 C 3108.55 1.30668 -1.43665 0
M  V30 31798 O 3107.82 1.85185 -0.594708 0
M  V30 31799 C 3108.1 0.043416 -3.60074 0
M  V30 31800 C 3107.96 -1.3333 -4.29585 0
M  V30 31801 C 3109.28 0.753492 -4.33602 0
M  V30 31802 H 3106.39 -0.0169076 -0.736806 0
M  V30 31803 H 3109.04 -0.727527 -1.75519 0
M  V30 31804 H 3107.19 0.626839 -3.8341 0
M  V30 31805 H 3108.86 -1.96045 -4.17569 0
M  V30 31806 H 3107.1 -1.90617 -3.89676 0
M  V30 31807 H 3107.77 -1.22586 -5.38216 0
M  V30 31808 H 3110.25 0.258053 -4.15299 0
M  V30 31809 H 3109.12 0.782564 -5.43293 0
M  V30 31810 H 3109.39 1.81101 -4.03305 0
M  V30 31811 N 3108.44 1.54704 -0.300735 0
M  V30 31812 C 3109.67 2.04546 0.311234 0
M  V30 31813 C 3110.09 1.17803 1.47539 0
M  V30 31814 O 3109.44 0.203602 1.81361 0
M  V30 31815 C 3109.5 3.53254 0.767721 0
M  V30 31816 O 3109.22 4.36699 -0.350104 0
M  V30 31817 C 3110.72 4.19092 1.44487 0
M  V30 31818 H 3107.94 0.66758 0.0676562 0
M  V30 31819 H 3110.48 1.99704 -0.440289 0
M  V30 31820 H 3108.64 3.58457 1.46927 0
M  V30 31821 H 3109.05 5.245 0.00524818 0
M  V30 31822 H 3110.52 5.24668 1.71544 0
M  V30 31823 H 3111 3.68812 2.38484 0
M  V30 31824 H 3111.61 4.17964 0.786507 0
M  V30 31825 N 3109.92 0.0284543 1.57574 0
M  V30 31826 C 3111.15 -0.660541 1.96073 0
M  V30 31827 C 3111.57 -1.65701 0.90491 0
M  V30 31828 O 3110.92 -1.82148 -0.113347 0
M  V30 31829 C 3110.97 -1.3675 3.34636 0
M  V30 31830 O 3110.69 -0.410965 4.36168 0
M  V30 31831 C 3112.2 -2.14838 3.87762 0
M  V30 31832 H 3109.42 -0.182172 0.645797 0
M  V30 31833 H 3111.96 0.0880217 2.0431 0
M  V30 31834 H 3110.11 -2.06747 3.27619 0
M  V30 31835 H 3110.53 -0.912909 5.16494 0
M  V30 31836 H 3112 -2.59758 4.87062 0
M  V30 31837 H 3112.48 -2.98714 3.21973 0
M  V30 31838 H 3113.09 -1.498 3.98045 0
M  V30 31839 N 3111.4 -1.55689 -0.244686 0
M  V30 31840 C 3112.68 -1.68379 -0.995377 0
M  V30 31841 C 3113.06 -0.568985 -2.03287 0
M  V30 31842 O 3112.41 0.42726 -2.2447 0
M  V30 31843 C 3112.62 -3.0877 -1.62672 0
M  V30 31844 C 3113.96 -3.6744 -2.12774 0
M  V30 31845 O 3114.99 -3.11584 -1.72609 0
M  V30 31846 O 3113.85 -4.65365 -2.86528 0
M  V30 31847 H 3110.94 -0.684931 -0.463464 0
M  V30 31848 H 3113.49 -1.68019 -0.238297 0
M  V30 31849 H 3112.26 -3.81359 -0.876402 0
M  V30 31850 H 3111.88 -3.13151 -2.44995 0
M  V30 31851 N 3112.88 0.510441 -1.49105 0
M  V30 31852 C 3114.12 1.26441 -1.59324 0
M  V30 31853 C 3114.48 1.90464 -0.272224 0
M  V30 31854 O 3113.77 1.77283 0.726731 0
M  V30 31855 C 3113.97 2.36156 -2.68263 0
M  V30 31856 C 3113.8 1.8289 -4.1083 0
M  V30 31857 C 3112.57 1.64614 -4.77734 0
M  V30 31858 C 3114.76 1.34616 -4.9637 0
M  V30 31859 N 3112.75 1.06179 -6.04648 0
M  V30 31860 C 3114.12 0.882548 -6.13686 0
M  V30 31861 C 3116.17 1.23101 -4.82442 0
M  V30 31862 C 3114.87 0.31518 -7.18609 0
M  V30 31863 C 3116.9 0.677623 -5.87505 0
M  V30 31864 C 3116.26 0.224184 -7.04043 0
M  V30 31865 H 3112.36 0.452988 -0.637437 0
M  V30 31866 H 3114.95 0.573204 -1.86071 0
M  V30 31867 H 3113.12 3.02749 -2.43305 0
M  V30 31868 H 3114.85 3.03195 -2.68057 0
M  V30 31869 H 3111.6 1.88708 -4.3438 0
M  V30 31870 H 3112.03 0.789152 -6.72385 0
M  V30 31871 H 3116.67 1.56759 -3.92666 0
M  V30 31872 H 3114.39 -0.0336845 -8.08093 0
M  V30 31873 H 3117.97 0.591433 -5.78786 0
M  V30 31874 H 3116.85 -0.19735 -7.83952 0
M  V30 31875 N 3114.36 1.38021 0.760791 0
M  V30 31876 C 3115.3 1.3467 1.87437 0
M  V30 31877 C 3116.27 0.210415 1.64762 0
M  V30 31878 O 3117.46 0.401512 1.86528 0
M  V30 31879 C 3114.6 1.17043 3.24646 0
M  V30 31880 C 3113.71 2.39996 3.59201 0
M  V30 31881 C 3112.85 2.15156 4.85676 0
M  V30 31882 C 3111.89 3.33919 5.12996 0
M  V30 31883 N 3111.02 3.0856 6.30663 0
M  V30 31884 H 3115.86 2.29874 1.89636 0
M  V30 31885 H 3113.4 1.14217 0.926984 0
M  V30 31886 H 3115.36 1.04842 4.03812 0
M  V30 31887 H 3113.99 0.254814 3.21793 0
M  V30 31888 H 3113.04 2.62898 2.74935 0
M  V30 31889 H 3114.35 3.28534 3.75323 0
M  V30 31890 H 3113.51 2.00049 5.7277 0
M  V30 31891 H 3112.24 1.23974 4.7168 0
M  V30 31892 H 3111.25 3.49553 4.24373 0
M  V30 31893 H 3112.47 4.25968 5.28894 0
M  V30 31894 H 3110.42 2.20017 6.18004 0
M  V30 31895 H 3110.34 3.90644 6.47251 0
M  V30 31896 H 3111.61 2.97093 7.20664 0
M  V30 31897 N 3115.83 -0.98818 1.22771 0
M  V30 31898 C 3117.06 -1.76379 1.08158 0
M  V30 31899 C 3117.48 -1.85188 -0.36754 0
M  V30 31900 O 3116.83 -1.32543 -1.25453 0
M  V30 31901 C 3116.89 -3.19459 1.69198 0
M  V30 31902 O 3116.61 -3.11119 3.08442 0
M  V30 31903 C 3118.11 -4.13448 1.59923 0
M  V30 31904 H 3115.33 -0.553771 0.378918 0
M  V30 31905 H 3117.87 -1.24203 1.62462 0
M  V30 31906 H 3116.03 -3.68688 1.18946 0
M  V30 31907 H 3116.44 -4.01134 3.37923 0
M  V30 31908 H 3117.91 -5.11577 2.07348 0
M  V30 31909 H 3118.39 -4.35659 0.556623 0
M  V30 31910 H 3119 -3.70119 2.09504 0
M  V30 31911 N 3117.31 -1.03816 -1.18575 0
M  V30 31912 C 3118.24 -0.647834 -2.24333 0
M  V30 31913 C 3119.22 0.34771 -1.66508 0
M  V30 31914 O 3120.41 0.228367 -1.92853 0
M  V30 31915 C 3117.54 -0.00741027 -3.47299 0
M  V30 31916 C 3116.49 -0.926226 -4.17858 0
M  V30 31917 C 3115.82 -0.150411 -5.34488 0
M  V30 31918 C 3117.12 -2.2442 -4.71628 0
M  V30 31919 H 3118.81 -1.53196 -2.57238 0
M  V30 31920 H 3116.36 -0.738049 -1.23648 0
M  V30 31921 H 3118.31 0.27736 -4.20486 0
M  V30 31922 H 3117.04 0.911571 -3.13621 0
M  V30 31923 H 3115.69 -1.19534 -3.46565 0
M  V30 31924 H 3115.34 0.770897 -4.97058 0
M  V30 31925 H 3115.04 -0.762509 -5.82632 0
M  V30 31926 H 3116.57 0.127401 -6.10467 0
M  V30 31927 H 3117.98 -2.02031 -5.36523 0
M  V30 31928 H 3116.38 -2.80904 -5.30295 0
M  V30 31929 H 3117.45 -2.89243 -3.89187 0
M  V30 31930 N 3118.79 1.34753 -0.817283 0
M  V30 31931 C 3120.04 1.9875 -0.403279 0
M  V30 31932 C 3120.37 1.6466 1.0296 0
M  V30 31933 O 3119.64 0.915344 1.71615 0
M  V30 31934 C 3119.93 3.55079 -0.59925 0
M  V30 31935 C 3119.78 3.98931 -2.07784 0
M  V30 31936 C 3121.1 4.40089 -0.0316429 0
M  V30 31937 H 3118.22 0.721987 -0.148001 0
M  V30 31938 H 3120.86 1.59736 -1.0288 0
M  V30 31939 H 3119.01 3.88443 -0.0667799 0
M  V30 31940 H 3120.68 3.75927 -2.67352 0
M  V30 31941 H 3118.93 3.49448 -2.57037 0
M  V30 31942 H 3119.6 5.07737 -2.1658 0
M  V30 31943 H 3122.07 4.13246 -0.486512 0
M  V30 31944 H 3120.95 5.48541 -0.198604 0
M  V30 31945 H 3121.21 4.29132 1.06295 0
M  V30 31946 N 3120.27 0.571737 1.46864 0
M  V30 31947 C 3121.2 -0.205439 2.28277 0
M  V30 31948 C 3122.21 -0.86581 1.37868 0
M  V30 31949 O 3123.4 -0.737218 1.62565 0
M  V30 31950 C 3120.5 -1.3096 3.12574 0
M  V30 31951 C 3119.68 -0.743252 4.31039 0
M  V30 31952 C 3118.74 -1.73373 4.96818 0
M  V30 31953 O 3117.76 -1.2741 5.54757 0
M  V30 31954 N 3118.96 -3.06755 4.9283 0
M  V30 31955 H 3121.73 0.492992 2.95617 0
M  V30 31956 H 3119.29 0.408771 1.56655 0
M  V30 31957 H 3121.28 -1.97125 3.53446 0
M  V30 31958 H 3119.85 -1.91105 2.47381 0
M  V30 31959 H 3119.07 0.0955697 3.94084 0
M  V30 31960 H 3120.36 -0.344467 5.07633 0
M  V30 31961 H 3119.76 -3.4673 4.46984 0
M  V30 31962 H 3118.31 -3.68439 5.37676 0
M  V30 31963 N 3121.75 -1.54542 0.308935 0
M  V30 31964 C 3122.66 -2.27497 -0.572899 0
M  V30 31965 C 3123.67 -1.31307 -1.14169 0
M  V30 31966 O 3124.85 -1.64301 -1.16478 0
M  V30 31967 C 3121.91 -3.00753 -1.72478 0
M  V30 31968 C 3120.98 -4.12498 -1.18927 0
M  V30 31969 C 3120.21 -4.82251 -2.28626 0
M  V30 31970 O 3120.43 -4.51416 -3.48683 0
M  V30 31971 O 3119.37 -5.69482 -1.94869 0
M  V30 31972 H 3123.19 -3.03694 0.0191411 0
M  V30 31973 H 3120.78 -1.49211 0.0751205 0
M  V30 31974 H 3122.66 -3.46675 -2.39571 0
M  V30 31975 H 3121.33 -2.27444 -2.30328 0
M  V30 31976 H 3120.24 -3.70958 -0.483839 0
M  V30 31977 H 3121.57 -4.87808 -0.6561 0
M  V30 31978 N 3123.23 -0.0368104 -1.57557 0
M  V30 31979 C 3124.47 0.635272 -1.93225 0
M  V30 31980 C 3124.83 1.69292 -0.914224 0
M  V30 31981 O 3124.12 1.91477 0.0686637 0
M  V30 31982 C 3124.31 1.28788 -3.33389 0
M  V30 31983 C 3124.14 0.294976 -4.48732 0
M  V30 31984 C 3122.91 -0.107919 -5.05185 0
M  V30 31985 C 3125.11 -0.453839 -5.12294 0
M  V30 31986 N 3123.09 -1.09519 -6.04052 0
M  V30 31987 C 3124.46 -1.29463 -6.06333 0
M  V30 31988 C 3126.52 -0.513709 -4.95243 0
M  V30 31989 C 3125.22 -2.1899 -6.85154 0
M  V30 31990 C 3127.25 -1.39634 -5.74679 0
M  V30 31991 C 3126.61 -2.22489 -6.6834 0
M  V30 31992 H 3122.71 0.204542 -0.754776 0
M  V30 31993 H 3125.29 -0.105785 -1.94412 0
M  V30 31994 H 3123.46 1.99904 -3.33006 0
M  V30 31995 H 3125.2 1.91761 -3.56384 0
M  V30 31996 H 3121.95 0.268108 -4.72841 0
M  V30 31997 H 3122.37 -1.58529 -6.58177 0
M  V30 31998 H 3127.02 0.112625 -4.2265 0
M  V30 31999 H 3124.73 -2.82674 -7.57047 0
M  V30 32000 H 3128.32 -1.44706 -5.63517 0
M  V30 32001 H 3127.2 -2.8968 -7.28735 0
M  V30 32002 N 3124.7 1.55817 0.236426 0
M  V30 32003 C 3125.93 1.82204 0.980263 0
M  V30 32004 C 3126.35 0.613957 1.78539 0
M  V30 32005 O 3125.7 -0.41746 1.77661 0
M  V30 32006 C 3125.75 3.06937 1.90977 0
M  V30 32007 O 3125.48 4.23083 1.13721 0
M  V30 32008 C 3126.98 3.46202 2.76873 0
M  V30 32009 H 3124.2 0.60606 0.28798 0
M  V30 32010 H 3126.74 2.02889 0.256146 0
M  V30 32011 H 3124.9 2.88271 2.58802 0
M  V30 32012 H 3125.31 4.93845 1.76685 0
M  V30 32013 H 3126.78 4.36554 3.37823 0
M  V30 32014 H 3127.26 2.67268 3.48517 0
M  V30 32015 H 3127.87 3.67256 2.14484 0
M  V30 32016 N 3126.18 -0.502526 1.49373 0
M  V30 32017 C 3127.43 -1.25861 1.59018 0
M  V30 32018 C 3127.76 -1.92238 0.275353 0
M  V30 32019 O 3127.04 -1.80645 -0.720956 0
M  V30 32020 C 3127.32 -2.32678 2.74832 0
M  V30 32021 C 3127.17 -1.70813 4.16105 0
M  V30 32022 C 3128.49 -3.34251 2.86294 0
M  V30 32023 H 3125.61 -0.456237 0.578806 0
M  V30 32024 H 3128.25 -0.557 1.81652 0
M  V30 32025 H 3126.4 -2.9252 2.55665 0
M  V30 32026 H 3128.07 -1.1481 4.46784 0
M  V30 32027 H 3126.32 -1.0123 4.21823 0
M  V30 32028 H 3126.99 -2.48283 4.93011 0
M  V30 32029 H 3129.46 -2.84399 3.03738 0
M  V30 32030 H 3128.34 -4.06355 3.69008 0
M  V30 32031 H 3128.6 -3.96484 1.95583 0
M  V30 32032 N 3127.66 -1.38422 -0.75346 0
M  V30 32033 C 3128.59 -1.3155 -1.87689 0
M  V30 32034 C 3129.6 -0.227699 -1.612 0
M  V30 32035 O 3130.79 -0.485268 -1.71777 0
M  V30 32036 C 3127.89 -1.01551 -3.23327 0
M  V30 32037 C 3127.07 -2.21243 -3.7732 0
M  V30 32038 C 3126.13 -1.87986 -4.91475 0
M  V30 32039 O 3125.15 -2.60481 -5.06101 0
M  V30 32040 N 3126.35 -0.834897 -5.74465 0
M  V30 32041 H 3129.12 -2.28357 -1.94095 0
M  V30 32042 H 3126.68 -1.32285 -0.933398 0
M  V30 32043 H 3128.67 -0.773547 -3.97238 0
M  V30 32044 H 3127.24 -0.135389 -3.12307 0
M  V30 32045 H 3126.46 -2.61504 -2.94974 0
M  V30 32046 H 3127.75 -3.01122 -4.10126 0
M  V30 32047 H 3127.15 -0.233705 -5.65217 0
M  V30 32048 H 3125.7 -0.652817 -6.48523 0
M  V30 32049 N 3129.14 0.981655 -1.23294 0
M  V30 32050 C 3130.55 1.24762 -0.995317 0
M  V30 32051 C 3130.75 1.99188 0.304344 0
M  V30 32052 O 3129.81 2.30799 1.0241 0
M  V30 32053 C 3131.12 2.0484 -2.20139 0
M  V30 32054 C 3132.67 2.17984 -2.24615 0
M  V30 32055 C 3133.15 3.01452 -3.44805 0
M  V30 32056 N 3134.64 3.09037 -3.45036 0
M  V30 32057 C 3135.37 3.73942 -4.34689 0
M  V30 32058 N 3134.87 4.40681 -5.34577 0
M  V30 32059 N 3136.66 3.70816 -4.22436 0
M  V30 32060 H 3128.81 0.483016 -2.06835 0
M  V30 32061 H 3131.07 0.275998 -0.906934 0
M  V30 32062 H 3130.78 1.57527 -3.14449 0
M  V30 32063 H 3130.65 3.0559 -2.21121 0
M  V30 32064 H 3133.04 2.64506 -1.30845 0
M  V30 32065 H 3133.12 1.16627 -2.27666 0
M  V30 32066 H 3132.77 2.55627 -4.38882 0
M  V30 32067 H 3132.7 4.02976 -3.38996 0
M  V30 32068 H 3135.19 2.6155 -2.72763 0
M  V30 32069 H 3135.5 4.87981 -5.99245 0
M  V30 32070 H 3133.85 4.39393 -5.38478 0
M  V30 32071 H 3137.04 3.17845 -3.43645 0
M  V30 32072 H 3137.21 4.21117 -4.92508 0
M  V30 32073 N 3130.62 1.04444 1.18022 0
M  V30 32074 C 3132.03 0.777342 1.69748 0
M  V30 32075 C 3132.38 -0.701366 1.83236 0
M  V30 32076 O 3131.5 -1.54565 1.51455 0
M  V30 32077 C 3132.1 1.40446 3.08319 0
M  V30 32078 C 3130.66 1.18559 3.5724 0
M  V30 32079 C 3129.8 1.49275 2.33693 0
M  V30 32080 H 3132.75 1.21036 1.02645 0
M  V30 32081 H 3132.78 0.809694 3.71785 0
M  V30 32082 H 3132.29 2.48067 2.9847 0
M  V30 32083 H 3130.39 0.128287 3.72379 0
M  V30 32084 H 3130.5 1.88526 4.40448 0
M  V30 32085 H 3128.87 0.912568 2.3779 0
M  V30 32086 H 3129.65 2.58014 2.26459 0
M  V30 32087 N 3132.09 -1.34317 0.824418 0
M  V30 32088 C 3133.34 -1.97848 0.412385 0
M  V30 32089 C 3133.66 -1.65678 -1.02838 0
M  V30 32090 O 3132.93 -0.948275 -1.71419 0
M  V30 32091 H 3131.51 -0.731887 0.149499 0
M  V30 32092 H 3134.17 -1.63929 1.05419 0
M  V30 32093 H 3133.27 -3.07522 0.532611 0
M  V30 32094 N 3133.57 -0.579517 -1.46558 0
M  V30 32095 C 3134.5 0.19333 -2.28383 0
M  V30 32096 C 3135.52 0.858487 -1.38325 0
M  V30 32097 O 3136.71 0.728586 -1.62954 0
M  V30 32098 C 3133.81 1.293 -3.13264 0
M  V30 32099 C 3132.98 0.720383 -4.31427 0
M  V30 32100 C 3132.04 1.70736 -4.97731 0
M  V30 32101 O 3131.06 1.24466 -5.55425 0
M  V30 32102 N 3132.27 3.04137 -4.9445 0
M  V30 32103 H 3135.03 -0.508663 -2.95352 0
M  V30 32104 H 3132.59 -0.417073 -1.56436 0
M  V30 32105 H 3134.58 1.95248 -3.54486 0
M  V30 32106 H 3133.15 1.8979 -2.48391 0
M  V30 32107 H 3132.37 -0.116468 -3.94028 0
M  V30 32108 H 3133.66 0.317541 -5.07808 0
M  V30 32109 H 3133.06 3.44355 -4.48817 0
M  V30 32110 H 3131.62 3.65583 -5.39623 0
M  V30 32111 N 3135.05 1.54376 -0.317127 0
M  V30 32112 C 3136.28 2.04864 0.289522 0
M  V30 32113 C 3136.69 1.19361 1.46282 0
M  V30 32114 O 3136.05 0.222827 1.81135 0
M  V30 32115 C 3136.1 3.54048 0.73021 0
M  V30 32116 O 3135.82 4.36303 -0.396402 0
M  V30 32117 C 3137.32 4.20601 1.40034 0
M  V30 32118 H 3134.54 0.66826 0.0605719 0
M  V30 32119 H 3137.09 1.99226 -0.461446 0
M  V30 32120 H 3135.24 3.59995 1.43117 0
M  V30 32121 H 3135.66 5.24476 -0.0503823 0
M  V30 32122 H 3137.13 5.26458 1.65969 0
M  V30 32123 H 3137.61 3.7132 2.34559 0
M  V30 32124 H 3138.21 4.18775 0.742132 0
M  V30 32125 N 3136.53 0.0451655 1.57535 0
M  V30 32126 C 3137.77 -0.633921 1.94321 0
M  V30 32127 C 3138.13 -1.68361 0.922954 0
M  V30 32128 O 3139.33 -2.41634 1.17755 0
M  V30 32129 C 3137.6 -1.21993 3.35935 0
M  V30 32130 S 3139.16 -1.91786 3.94669 0
M  V30 32131 H 3135.98 -0.208306 0.679801 0
M  V30 32132 H 3138.58 0.112667 1.95175 0
M  V30 32133 H 3137.29 -0.443749 4.07994 0
M  V30 32134 H 3136.82 -2.00347 3.38562 0
M  V30 32135 H 3138.83 -3.19789 3.79407 0
M  V30 32136 N 3138.01 -1.5594 -0.228159 0
M  V30 32137 C 3138.94 -1.8835 -1.30602 0
M  V30 32138 C 3139.95 -0.771223 -1.43374 0
M  V30 32139 O 3141.14 -1.04948 -1.44389 0
M  V30 32140 C 3138.24 -2.07119 -2.68244 0
M  V30 32141 C 3137.41 -3.38099 -2.77503 0
M  V30 32142 C 3136.47 -3.4638 -3.96115 0
M  V30 32143 O 3135.5 -4.1946 -3.84763 0
M  V30 32144 N 3136.7 -2.7704 -5.10127 0
M  V30 32145 H 3139.47 -2.81398 -1.03127 0
M  V30 32146 H 3137.03 -1.56405 -0.418218 0
M  V30 32147 H 3139.02 -2.09982 -3.45962 0
M  V30 32148 H 3137.59 -1.20728 -2.88346 0
M  V30 32149 H 3136.81 -3.47391 -1.86314 0
M  V30 32150 H 3138.1 -4.24394 -2.80654 0
M  V30 32151 H 3137.49 -2.17433 -5.22245 0
M  V30 32152 H 3136.05 -2.85572 -5.85911 0
M  V30 32153 N 3139.48 0.494597 -1.49638 0
M  V30 32154 C 3140.9 1.076 -1.52575 0
M  V30 32155 C 3141.25 1.93645 -0.315625 0
M  V30 32156 O 3140.37 2.0865 0.573929 0
M  V30 32157 C 3140.97 1.95812 -2.76483 0
M  V30 32158 C 3139.53 2.49104 -2.82178 0
M  V30 32159 C 3138.67 1.26875 -2.46572 0
M  V30 32160 H 3141.62 0.278224 -1.56242 0
M  V30 32161 H 3141.64 2.80584 -2.57008 0
M  V30 32162 H 3141.16 1.33161 -3.64541 0
M  V30 32163 H 3139.26 3.15376 -1.98416 0
M  V30 32164 H 3139.37 2.85818 -3.84506 0
M  V30 32165 H 3137.73 1.59603 -1.98491 0
M  V30 32166 H 3138.52 0.659222 -3.36911 0
M  V30 32167 N 3140.96 1.3882 0.746109 0
M  V30 32168 C 3142.21 1.34752 1.50083 0
M  V30 32169 C 3142.52 -0.0574442 1.95516 0
M  V30 32170 O 3143.73 -0.220682 2.70602 0
M  V30 32171 C 3142.19 2.3667 2.71137 0
M  V30 32172 C 3141.79 3.82825 2.32699 0
M  V30 32173 C 3143.54 2.41659 3.49001 0
M  V30 32174 C 3141.45 4.76411 3.50409 0
M  V30 32175 H 3140.38 0.500922 0.563554 0
M  V30 32176 H 3143.03 1.64412 0.814922 0
M  V30 32177 H 3141.41 2.00064 3.41746 0
M  V30 32178 H 3142.58 4.28411 1.69708 0
M  V30 32179 H 3140.9 3.81026 1.67953 0
M  V30 32180 H 3143.49 3.08774 4.36535 0
M  V30 32181 H 3143.84 1.43775 3.90684 0
M  V30 32182 H 3144.37 2.77102 2.85411 0
M  V30 32183 H 3141.11 5.75516 3.13785 0
M  V30 32184 H 3140.63 4.35513 4.12418 0
M  V30 32185 H 3142.31 4.94783 4.16892 0
M  V30 32186 N 3142.44 -0.975103 1.23812 0
M  V30 32187 C 3143.37 -2.08636 1.04849 0
M  V30 32188 C 3144.35 -1.70061 -0.036256 0
M  V30 32189 O 3145.54 -1.93768 0.129404 0
M  V30 32190 C 3142.67 -3.41266 0.644594 0
M  V30 32191 C 3141.62 -3.93765 1.67728 0
M  V30 32192 C 3140.95 -5.22652 1.12867 0
M  V30 32193 C 3142.25 -4.22437 3.07155 0
M  V30 32194 H 3143.94 -2.24758 1.97799 0
M  V30 32195 H 3141.49 -1.08005 0.952416 0
M  V30 32196 H 3143.44 -4.18436 0.498961 0
M  V30 32197 H 3142.16 -3.25023 -0.320583 0
M  V30 32198 H 3140.82 -3.18745 1.811 0
M  V30 32199 H 3140.47 -5.02763 0.154316 0
M  V30 32200 H 3140.17 -5.58745 1.81872 0
M  V30 32201 H 3141.69 -6.02439 0.994997 0
M  V30 32202 H 3143.11 -4.90338 2.97054 0
M  V30 32203 H 3141.51 -4.69743 3.73445 0
M  V30 32204 H 3142.58 -3.29501 3.55749 0
M  V30 32205 N 3143.92 -1.05068 -1.17467 0
M  V30 32206 C 3144.83 -0.661262 -2.25088 0
M  V30 32207 C 3145.84 0.31709 -1.71086 0
M  V30 32208 O 3147.02 0.169498 -2.00685 0
M  V30 32209 C 3144.09 -0.0407024 -3.46676 0
M  V30 32210 C 3143.15 -1.06934 -4.15769 0
M  V30 32211 C 3142.38 -0.478301 -5.31552 0
M  V30 32212 O 3142.6 0.712615 -5.65931 0
M  V30 32213 O 3141.54 -1.21195 -5.89572 0
M  V30 32214 H 3145.36 -1.55815 -2.60683 0
M  V30 32215 H 3142.95 -0.822169 -1.24743 0
M  V30 32216 H 3144.83 0.304238 -4.203 0
M  V30 32217 H 3143.5 0.829854 -3.12882 0
M  V30 32218 H 3142.41 -1.46625 -3.44168 0
M  V30 32219 H 3143.74 -1.911 -4.53587 0
M  V30 32220 N 3145.4 1.33878 -0.831529 0
M  V30 32221 C 3146.31 2.33135 -0.261729 0
M  V30 32222 C 3147.32 1.63017 0.608401 0
M  V30 32223 O 3148.5 1.94724 0.514263 0
M  V30 32224 C 3145.56 3.42149 0.559897 0
M  V30 32225 C 3144.62 4.28002 -0.333644 0
M  V30 32226 C 3143.86 5.31809 0.448863 0
M  V30 32227 O 3144.08 5.45058 1.68131 0
M  V30 32228 O 3143.01 6.0165 -0.173302 0
M  V30 32229 H 3146.84 2.83715 -1.08348 0
M  V30 32230 H 3144.43 1.37089 -0.593873 0
M  V30 32231 H 3146.31 4.08693 1.02705 0
M  V30 32232 H 3144.98 2.93798 1.35883 0
M  V30 32233 H 3143.89 3.64351 -0.84848 0
M  V30 32234 H 3145.22 4.79816 -1.09715 0
M  V30 32235 N 3146.87 0.587281 1.46249 0
M  V30 32236 C 3147.81 -0.181216 2.28482 0
M  V30 32237 C 3148.82 -0.851139 1.38778 0
M  V30 32238 O 3150.01 -0.719934 1.63338 0
M  V30 32239 C 3147.11 -1.27637 3.13946 0
M  V30 32240 C 3146.28 -0.697493 4.31803 0
M  V30 32241 C 3145.34 -1.68094 4.98629 0
M  V30 32242 O 3144.37 -1.21519 5.56077 0
M  V30 32243 N 3145.57 -3.01511 4.96056 0
M  V30 32244 H 3148.33 0.524319 2.95078 0
M  V30 32245 H 3145.89 0.425364 1.56212 0
M  V30 32246 H 3147.89 -1.93365 3.55517 0
M  V30 32247 H 3146.46 -1.88471 2.49394 0
M  V30 32248 H 3145.68 0.137362 3.93961 0
M  V30 32249 H 3146.96 -0.290606 5.07969 0
M  V30 32250 H 3146.36 -3.4197 4.50636 0
M  V30 32251 H 3144.92 -3.62716 5.41554 0
M  V30 32252 N 3148.35 -1.54206 0.325309 0
M  V30 32253 C 3149.59 -2.0251 -0.277312 0
M  V30 32254 C 3149.96 -1.20834 -1.49209 0
M  V30 32255 O 3151.16 -1.58949 -2.16769 0
M  V30 32256 C 3149.43 -3.52303 -0.601455 0
M  V30 32257 S 3150.99 -4.22539 -1.18348 0
M  V30 32258 H 3147.81 -0.706048 -0.0837675 0
M  V30 32259 H 3150.41 -1.90039 0.458837 0
M  V30 32260 H 3149.11 -4.09369 0.290768 0
M  V30 32261 H 3148.64 -3.68858 -1.36776 0
M  V30 32262 H 3150.66 -4.30343 -2.47021 0
M  V30 32263 N 3149.83 -0.0535194 -1.57509 0
M  V30 32264 C 3150.76 0.917961 -2.14699 0
M  V30 32265 C 3151.74 1.32291 -1.06926 0
M  V30 32266 O 3152.93 1.3972 -1.34877 0
M  V30 32267 C 3150.06 2.19198 -2.69387 0
M  V30 32268 C 3149.01 1.92703 -3.82164 0
M  V30 32269 C 3148.34 3.26579 -4.23379 0
M  V30 32270 C 3149.64 1.24677 -5.07201 0
M  V30 32271 H 3151.33 0.441598 -2.96125 0
M  V30 32272 H 3148.88 0.210968 -1.42446 0
M  V30 32273 H 3150.83 2.87561 -3.08036 0
M  V30 32274 H 3149.55 2.69044 -1.85156 0
M  V30 32275 H 3148.21 1.26751 -3.43991 0
M  V30 32276 H 3147.86 3.74231 -3.36095 0
M  V30 32277 H 3147.56 3.09649 -4.99391 0
M  V30 32278 H 3149.09 3.9617 -4.6463 0
M  V30 32279 H 3150.5 1.83078 -5.43282 0
M  V30 32280 H 3148.9 1.18065 -5.88371 0
M  V30 32281 H 3149.97 0.223142 -4.84386 0
M  V30 32282 N 3151.31 1.56059 0.219886 0
M  V30 32283 C 3152.56 1.79414 0.945431 0
M  V30 32284 C 3152.89 0.623443 1.83921 0
M  V30 32285 O 3152.16 -0.377223 1.90807 0
M  V30 32286 C 3152.45 3.12863 1.78294 0
M  V30 32287 C 3152.3 4.40384 0.915549 0
M  V30 32288 C 3153.62 3.42769 2.76039 0
M  V30 32289 H 3150.74 0.652699 0.342277 0
M  V30 32290 H 3153.38 1.88789 0.214202 0
M  V30 32291 H 3151.53 3.05002 2.40637 0
M  V30 32292 H 3153.2 4.60266 0.308739 0
M  V30 32293 H 3151.44 4.33236 0.221047 0
M  V30 32294 H 3152.12 5.302 1.53597 0
M  V30 32295 H 3154.59 3.50768 2.23832 0
M  V30 32296 H 3153.47 4.3731 3.3174 0
M  V30 32297 H 3153.73 2.65018 3.53861 0
M  V30 32298 N 3152.79 -0.486655 1.49898 0
M  V30 32299 C 3154.2 -1.06789 1.53144 0
M  V30 32300 C 3154.55 -1.93475 0.32589 0
M  V30 32301 O 3153.67 -2.08952 -0.562856 0
M  V30 32302 C 3154.27 -1.94343 2.77518 0
M  V30 32303 C 3152.83 -2.47604 2.83495 0
M  V30 32304 C 3151.98 -1.25566 2.47242 0
M  V30 32305 H 3154.93 -0.269934 1.56387 0
M  V30 32306 H 3154.95 -2.79217 2.58492 0
M  V30 32307 H 3154.46 -1.31226 3.65242 0
M  V30 32308 H 3152.56 -3.14319 2.00085 0
M  V30 32309 H 3152.67 -2.83775 3.86016 0
M  V30 32310 H 3151.04 -1.58549 1.99335 0
M  V30 32311 H 3151.82 -0.641345 3.37256 0
M  V30 32312 N 3154.27 -1.39214 -0.738737 0
M  V30 32313 C 3155.54 -1.26745 -1.4898 0
M  V30 32314 C 3155.92 0.124623 -2.10732 0
M  V30 32315 O 3155.27 1.13551 -1.98289 0
M  V30 32316 C 3155.48 -2.38894 -2.54422 0
M  V30 32317 C 3156.83 -2.78032 -3.2091 0
M  V30 32318 O 3157.85 -2.38316 -2.64734 0
M  V30 32319 O 3156.71 -3.46572 -4.22552 0
M  V30 32320 H 3153.81 -0.496484 -0.661387 0
M  V30 32321 H 3156.35 -1.51078 -0.77288 0
M  V30 32322 H 3155.12 -3.31974 -2.07145 0
M  V30 32323 H 3154.75 -2.16206 -3.33678 0
M  V30 32324 N 3155.74 0.968523 -1.24328 0
M  V30 32325 C 3156.97 1.75169 -1.11043 0
M  V30 32326 C 3157.39 1.85128 0.333077 0
M  V30 32327 O 3156.75 1.32158 1.24112 0
M  V30 32328 C 3156.8 3.15065 -1.75403 0
M  V30 32329 O 3155.9 3.99479 -1.02424 0
M  V30 32330 H 3155.24 0.538485 -0.388498 0
M  V30 32331 H 3157.77 1.21497 -1.64619 0
M  V30 32332 H 3157.78 3.65592 -1.81126 0
M  V30 32333 H 3156.46 3.07133 -2.80432 0
M  V30 32334 H 3155.04 3.57964 -1.04481 0
M  V30 32335 N 3157.22 1.0569 1.16908 0
M  V30 32336 C 3158.45 0.790512 1.91744 0
M  V30 32337 C 3158.87 -0.648447 1.76569 0
M  V30 32338 O 3158.23 -1.45112 1.08684 0
M  V30 32339 C 3158.28 1.18228 3.40668 0
M  V30 32340 O 3157.38 0.317413 4.11177 0
M  V30 32341 H 3156.72 0.289441 0.597595 0
M  V30 32342 H 3159.25 1.41108 1.48154 0
M  V30 32343 H 3159.26 1.15121 3.91422 0
M  V30 32344 H 3157.94 2.23046 3.51032 0
M  V30 32345 H 3156.51 0.409524 3.70644 0
M  V30 32346 N 3158.7 -1.33435 0.838617 0
M  V30 32347 C 3159.65 -2.26694 0.243721 0
M  V30 32348 C 3160.63 -1.49248 -0.601142 0
M  V30 32349 O 3161.83 -1.71101 -0.453151 0
M  V30 32350 C 3158.95 -3.38357 -0.580465 0
M  V30 32351 C 3158.04 -4.23202 0.275893 0
M  V30 32352 N 3158.43 -4.87327 1.35449 0
M  V30 32353 C 3156.73 -4.45956 0.0628831 0
M  V30 32354 C 3157.43 -5.50482 1.88 0
M  V30 32355 N 3156.41 -5.30604 1.18152 0
M  V30 32356 H 3160.21 -2.73787 1.06854 0
M  V30 32357 H 3157.72 -1.47337 0.683044 0
M  V30 32358 H 3159.72 -4.04155 -1.02294 0
M  V30 32359 H 3158.38 -2.92812 -1.40326 0
M  V30 32360 H 3159.39 -4.87889 1.73738 0
M  V30 32361 H 3156.07 -4.11131 -0.726491 0
M  V30 32362 H 3157.46 -6.11544 2.78323 0
M  V30 32363 N 3160.18 -0.595029 -1.45935 0
M  V30 32364 C 3161.42 -0.0881838 -2.0421 0
M  V30 32365 C 3161.78 1.25275 -1.455 0
M  V30 32366 O 3162.98 1.84957 -1.9505 0
M  V30 32367 C 3161.25 -0.0362974 -3.57382 0
M  V30 32368 S 3162.81 0.411183 -4.36869 0
M  V30 32369 H 3159.63 -0.0434549 -0.709671 0
M  V30 32370 H 3162.23 -0.790304 -1.78814 0
M  V30 32371 H 3160.94 -1.01597 -3.97626 0
M  V30 32372 H 3160.47 0.68821 -3.87333 0
M  V30 32373 H 3162.48 1.66339 -4.67489 0
M  V30 32374 N 3161.66 1.54031 -0.333483 0
M  V30 32375 C 3162.59 2.222 0.562135 0
M  V30 32376 C 3163.6 1.22524 1.07199 0
M  V30 32377 O 3164.79 1.48937 0.983871 0
M  V30 32378 C 3161.89 2.88069 1.7852 0
M  V30 32379 C 3161.06 4.1397 1.41235 0
M  V30 32380 C 3160.12 4.63342 2.494 0
M  V30 32381 O 3159.15 5.27792 2.13128 0
M  V30 32382 N 3160.35 4.38412 3.80493 0
M  V30 32383 H 3163.11 2.99692 -0.0216156 0
M  V30 32384 H 3160.68 1.61136 -0.157139 0
M  V30 32385 H 3162.67 3.18018 2.50293 0
M  V30 32386 H 3161.24 2.14223 2.27656 0
M  V30 32387 H 3160.46 3.90677 0.525819 0
M  V30 32388 H 3161.75 4.95886 1.13907 0
M  V30 32389 H 3161.14 3.86847 4.12754 0
M  V30 32390 H 3159.7 4.72992 4.48466 0
M  V30 32391 N 3163.13 0.0618717 1.57479 0
M  V30 32392 C 3164.38 -0.610409 1.93396 0
M  V30 32393 C 3164.71 -1.69859 0.941364 0
M  V30 32394 O 3163.99 -1.94475 -0.030992 0
M  V30 32395 C 3164.27 -1.19658 3.39638 0
M  V30 32396 C 3164.12 -0.115726 4.49651 0
M  V30 32397 C 3165.44 -2.10505 3.86491 0
M  V30 32398 H 3162.56 -0.220424 0.703265 0
M  V30 32399 H 3165.2 0.125819 1.89583 0
M  V30 32400 H 3163.35 -1.82403 3.43018 0
M  V30 32401 H 3165.03 0.516809 4.58396 0
M  V30 32402 H 3163.27 0.554905 4.30236 0
M  V30 32403 H 3163.94 -0.566079 5.4909 0
M  V30 32404 H 3166.42 -1.57708 3.85055 0
M  V30 32405 H 3165.29 -2.48458 4.89449 0
M  V30 32406 H 3165.55 -3.00942 3.23862 0
M  V30 32407 N 3164.61 -1.56173 -0.211607 0
M  V30 32408 C 3165.54 -1.96246 -1.26529 0
M  V30 32409 C 3166.52 -0.832054 -1.48361 0
M  V30 32410 O 3167.71 -1.09513 -1.60376 0
M  V30 32411 C 3164.84 -2.28775 -2.61303 0
M  V30 32412 C 3163.79 -3.44399 -2.54112 0
M  V30 32413 C 3163.12 -3.62559 -3.93007 0
M  V30 32414 C 3164.42 -4.7908 -2.08038 0
M  V30 32415 H 3166.11 -2.84513 -0.932357 0
M  V30 32416 H 3163.66 -1.36885 -0.44706 0
M  V30 32417 H 3165.61 -2.55402 -3.35184 0
M  V30 32418 H 3164.34 -1.37372 -2.96305 0
M  V30 32419 H 3162.99 -3.17837 -1.82689 0
M  V30 32420 H 3162.64 -2.68516 -4.25333 0
M  V30 32421 H 3162.34 -4.40334 -3.89075 0
M  V30 32422 H 3163.87 -3.91545 -4.68535 0
M  V30 32423 H 3165.28 -5.04846 -2.71667 0
M  V30 32424 H 3163.68 -5.60208 -2.15144 0
M  V30 32425 H 3164.75 -4.73769 -1.03298 0
M  V30 32426 N 3166.09 0.478699 -1.50154 0
M  V30 32427 C 3167.02 1.58584 -1.71387 0
M  V30 32428 C 3168 1.60522 -0.562733 0
M  V30 32429 O 3169.19 1.76909 -0.801041 0
M  V30 32430 C 3166.32 2.96954 -1.80099 0
M  V30 32431 C 3165.27 3.09882 -2.95224 0
M  V30 32432 C 3164.6 4.49824 -2.89071 0
M  V30 32433 C 3165.9 2.87812 -4.35846 0
M  V30 32434 H 3167.59 1.41069 -2.64083 0
M  V30 32435 H 3165.14 0.677217 -1.27082 0
M  V30 32436 H 3167.09 3.74327 -1.93538 0
M  V30 32437 H 3165.81 3.15608 -0.840186 0
M  V30 32438 H 3164.47 2.34939 -2.81423 0
M  V30 32439 H 3164.12 4.65386 -1.90852 0
M  V30 32440 H 3163.82 4.59412 -3.66353 0
M  V30 32441 H 3165.34 5.29228 -3.04548 0
M  V30 32442 H 3166.76 3.5494 -4.50212 0
M  V30 32443 H 3165.16 3.08851 -5.1452 0
M  V30 32444 H 3166.23 1.83734 -4.48743 0
M  V30 32445 N 3167.57 1.39603 0.731343 0
M  V30 32446 C 3168.5 1.41355 1.85852 0
M  V30 32447 C 3169.48 0.27643 1.67839 0
M  V30 32448 O 3170.66 0.48278 1.88103 0
M  V30 32449 C 3167.79 1.25989 3.23642 0
M  V30 32450 C 3166.75 2.37138 3.563 0
M  V30 32451 C 3166.07 2.06859 4.93065 0
M  V30 32452 C 3167.37 3.79458 3.589 0
M  V30 32453 H 3169.07 2.35684 1.84644 0
M  V30 32454 H 3166.61 1.13444 0.886935 0
M  V30 32455 H 3168.57 1.25834 4.02174 0
M  V30 32456 H 3167.29 0.281292 3.25386 0
M  V30 32457 H 3165.95 2.36516 2.80099 0
M  V30 32458 H 3165.6 1.07429 4.91394 0
M  V30 32459 H 3165.3 2.81315 5.15883 0
M  V30 32460 H 3166.82 2.0836 5.7395 0
M  V30 32461 H 3168.24 3.81989 4.27501 0
M  V30 32462 H 3166.63 4.53304 3.93238 0
M  V30 32463 H 3167.7 4.10173 2.58624 0
M  V30 32464 N 3169.05 -0.961916 1.2484 0
M  V30 32465 C 3170.46 -1.52028 1.08371 0
M  V30 32466 C 3170.81 -1.93179 -0.342971 0
M  V30 32467 O 3169.93 -1.77902 -1.23206 0
M  V30 32468 C 3170.53 -2.76274 1.96107 0
M  V30 32469 C 3169.09 -3.28448 1.83845 0
M  V30 32470 C 3168.23 -2.01323 1.90694 0
M  V30 32471 H 3171.19 -0.779588 1.38232 0
M  V30 32472 H 3171.21 -3.49825 1.49676 0
M  V30 32473 H 3170.72 -2.46293 2.99936 0
M  V30 32474 H 3168.82 -3.63267 0.828717 0
M  V30 32475 H 3168.93 -3.96956 2.68258 0
M  V30 32476 H 3167.3 -2.16296 1.34492 0
M  V30 32477 H 3168.08 -1.73699 2.96114 0
M  V30 32478 N 3170.52 -1.06308 -1.16346 0
M  V30 32479 C 3171.45 -0.695273 -2.22909 0
M  V30 32480 C 3172.44 0.312313 -1.67208 0
M  V30 32481 O 3173.62 0.187408 -1.93294 0
M  V30 32482 C 3170.75 -0.0810759 -3.47205 0
M  V30 32483 C 3169.7 -1.01465 -4.15799 0
M  V30 32484 C 3169.03 -0.26375 -5.34049 0
M  V30 32485 C 3170.33 -2.34373 -4.66762 0
M  V30 32486 H 3172.02 -1.58618 -2.53931 0
M  V30 32487 H 3169.57 -0.764111 -1.22055 0
M  V30 32488 H 3171.52 0.188106 -4.2098 0
M  V30 32489 H 3170.25 0.844842 -3.15484 0
M  V30 32490 H 3168.91 -1.26858 -3.43951 0
M  V30 32491 H 3168.55 0.665291 -4.98581 0
M  V30 32492 H 3168.25 -0.885922 -5.80883 0
M  V30 32493 H 3169.78 -0.00211727 -6.106 0
M  V30 32494 H 3171.19 -2.13366 -5.32117 0
M  V30 32495 H 3169.59 -2.92089 -5.24218 0
M  V30 32496 H 3170.66 -2.97433 -3.82964 0
M  V30 32497 N 3172 1.32989 -0.845682 0
M  V30 32498 C 3173.25 1.97557 -0.444687 0
M  V30 32499 C 3173.58 1.66964 0.997653 0
M  V30 32500 O 3172.83 0.94544 1.71347 0
M  V30 32501 C 3173.13 3.51978 -0.620162 0
M  V30 32502 C 3172.8 4.02537 -2.03162 0
M  V30 32503 C 3171.46 4.16055 -2.41768 0
M  V30 32504 C 3173.81 4.29456 -2.95325 0
M  V30 32505 C 3171.14 4.5383 -3.71826 0
M  V30 32506 C 3173.49 4.68686 -4.24871 0
M  V30 32507 C 3172.16 4.8041 -4.63424 0
M  V30 32508 H 3171.43 0.722912 -0.162723 0
M  V30 32509 H 3174.07 1.58547 -1.07401 0
M  V30 32510 H 3172.38 3.91691 0.0924442 0
M  V30 32511 H 3174.07 3.99949 -0.290083 0
M  V30 32512 H 3170.66 3.92494 -1.72181 0
M  V30 32513 H 3174.85 4.1853 -2.66733 0
M  V30 32514 H 3170.1 4.61101 -4.01492 0
M  V30 32515 H 3174.28 4.88472 -4.96355 0
M  V30 32516 H 3171.91 5.09438 -5.64249 0
M  V30 32517 N 3173.48 0.60276 1.45618 0
M  V30 32518 C 3174.44 -0.108922 2.28941 0
M  V30 32519 C 3175.44 -0.799738 1.39502 0
M  V30 32520 O 3176.63 -0.648635 1.61674 0
M  V30 32521 C 3173.77 -1.16426 3.20402 0
M  V30 32522 H 3174.96 0.623586 2.93345 0
M  V30 32523 H 3172.51 0.361591 1.5206 0
M  V30 32524 H 3173.25 -1.92769 2.60788 0
M  V30 32525 H 3173.03 -0.67318 3.86278 0
M  V30 32526 H 3174.52 -1.66283 3.83066 0
M  V30 32527 N 3174.96 -1.53852 0.341647 0
M  V30 32528 C 3175.87 -2.28661 -0.524515 0
M  V30 32529 C 3176.88 -1.33699 -1.11358 0
M  V30 32530 O 3178.06 -1.66734 -1.12967 0
M  V30 32531 C 3175.13 -3.04344 -1.6606 0
M  V30 32532 C 3174.19 -4.14928 -1.10151 0
M  V30 32533 C 3173.42 -4.86992 -2.18345 0
M  V30 32534 O 3173.64 -4.5871 -3.3903 0
M  V30 32535 O 3172.58 -5.73487 -1.82746 0
M  V30 32536 H 3176.4 -3.03585 0.0835547 0
M  V30 32537 H 3173.99 -1.49018 0.106753 0
M  V30 32538 H 3175.87 -3.51679 -2.32164 0
M  V30 32539 H 3174.54 -2.32279 -2.25451 0
M  V30 32540 H 3173.45 -3.71901 -0.405044 0
M  V30 32541 H 3174.78 -4.89089 -0.552481 0
M  V30 32542 N 3176.44 -0.0702223 -1.57443 0
M  V30 32543 C 3177.68 0.602926 -1.95305 0
M  V30 32544 C 3178.04 1.66872 -0.949622 0
M  V30 32545 O 3179.24 2.3973 -1.21584 0
M  V30 32546 C 3177.51 1.16634 -3.37833 0
M  V30 32547 S 3179.07 1.85483 -3.9767 0
M  V30 32548 H 3175.89 0.197464 -0.683029 0
M  V30 32549 H 3178.49 -0.143704 -1.94971 0
M  V30 32550 H 3177.2 0.378784 -4.08648 0
M  V30 32551 H 3176.73 1.94936 -3.41707 0
M  V30 32552 H 3178.74 3.13712 -3.84446 0
M  V30 32553 N 3177.91 1.56283 0.203321 0
M  V30 32554 C 3178.86 1.90291 1.25592 0
M  V30 32555 C 3179.85 0.767757 1.41401 0
M  V30 32556 O 3181.04 1.03048 1.4391 0
M  V30 32557 C 3178.17 2.23885 2.60251 0
M  V30 32558 C 3177.26 3.43837 2.48268 0
M  V30 32559 N 3177.65 4.6197 2.05955 0
M  V30 32560 C 3175.94 3.47813 2.79182 0
M  V30 32561 C 3176.65 5.4413 2.05664 0
M  V30 32562 N 3175.62 4.84318 2.46854 0
M  V30 32563 H 3179.42 2.7913 0.919967 0
M  V30 32564 H 3176.94 1.57092 0.411802 0
M  V30 32565 H 3178.93 2.46431 3.3627 0
M  V30 32566 H 3177.59 1.36368 2.94676 0
M  V30 32567 H 3178.61 4.8679 1.76794 0
M  V30 32568 H 3175.28 2.70689 3.17858 0
M  V30 32569 H 3176.67 6.48731 1.74921 0
M  V30 32570 N 3179.39 -0.470729 1.50406 0
M  V30 32571 C 3180.34 -1.56868 1.69296 0
M  V30 32572 C 3181.31 -1.57273 0.534276 0
M  V30 32573 O 3182.5 -1.74797 0.764886 0
M  V30 32574 C 3179.64 -2.94839 1.79343 0
M  V30 32575 C 3178.75 -3.0422 3.06715 0
M  V30 32576 C 3177.88 -4.33108 3.07556 0
M  V30 32577 C 3176.92 -4.36233 4.2938 0
M  V30 32578 N 3176.06 -5.56593 4.27958 0
M  V30 32579 H 3180.9 -1.40066 2.63031 0
M  V30 32580 H 3178.44 -0.680993 1.30387 0
M  V30 32581 H 3180.39 -3.7485 1.83149 0
M  V30 32582 H 3179.02 -3.10275 0.890466 0
M  V30 32583 H 3178.08 -2.17081 3.12378 0
M  V30 32584 H 3179.39 -3.02389 3.96689 0
M  V30 32585 H 3178.54 -5.21466 3.10093 0
M  V30 32586 H 3177.28 -4.37549 2.15412 0
M  V30 32587 H 3176.29 -3.46272 4.27054 0
M  V30 32588 H 3177.51 -4.33484 5.22751 0
M  V30 32589 H 3175.46 -5.61818 3.38668 0
M  V30 32590 H 3175.37 -5.56504 5.11702 0
M  V30 32591 H 3176.64 -6.47075 4.34642 0
M  V30 32592 N 3180.87 -1.39989 -0.72393 0
M  V30 32593 C 3182.12 -1.38019 -1.48589 0
M  V30 32594 C 3182.45 0.0203181 -1.94189 0
M  V30 32595 O 3181.73 0.987392 -1.67573 0
M  V30 32596 C 3182.01 -2.36234 -2.71782 0
M  V30 32597 C 3181.86 -3.85274 -2.32129 0
M  V30 32598 C 3183.18 -2.32109 -3.73917 0
M  V30 32599 H 3180.3 -0.502657 -0.538985 0
M  V30 32600 H 3182.94 -1.71064 -0.826878 0
M  V30 32601 H 3181.09 -2.08185 -3.28011 0
M  V30 32602 H 3182.76 -4.24117 -1.81447 0
M  V30 32603 H 3181.01 -4.01512 -1.64227 0
M  V30 32604 H 3181.68 -4.49498 -3.20398 0
M  V30 32605 H 3184.15 -2.56934 -3.27298 0
M  V30 32606 H 3183.03 -3.0289 -4.57765 0
M  V30 32607 H 3183.29 -1.32986 -4.21624 0
M  V30 32608 N 3182.35 0.955282 -1.25348 0
M  V30 32609 C 3183.28 2.06941 -1.08155 0
M  V30 32610 C 3184.26 1.70098 0.00919608 0
M  V30 32611 O 3185.45 1.93538 -0.160215 0
M  V30 32612 C 3182.58 3.40197 -0.698805 0
M  V30 32613 C 3181.53 3.91047 -1.73972 0
M  V30 32614 C 3180.86 5.2079 -1.21167 0
M  V30 32615 C 3182.16 4.17497 -3.13836 0
M  V30 32616 H 3183.85 2.21583 -2.01349 0
M  V30 32617 H 3181.4 1.06476 -0.969478 0
M  V30 32618 H 3183.35 4.17589 -0.565467 0
M  V30 32619 H 3182.07 3.25492 0.268834 0
M  V30 32620 H 3180.73 3.15823 -1.86148 0
M  V30 32621 H 3180.38 5.02454 -0.234281 0
M  V30 32622 H 3180.08 5.55781 -1.90738 0
M  V30 32623 H 3181.6 6.00779 -1.09071 0
M  V30 32624 H 3183.02 4.8555 -3.04817 0
M  V30 32625 H 3181.41 4.63743 -3.80871 0
M  V30 32626 H 3182.48 3.23799 -3.60946 0
M  V30 32627 N 3183.83 1.06924 1.1578 0
M  V30 32628 C 3184.79 0.689693 2.18577 0
M  V30 32629 C 3185.79 -0.267844 1.58554 0
M  V30 32630 O 3186.98 -0.049379 1.7413 0
M  V30 32631 C 3184.11 0.0158519 3.40896 0
M  V30 32632 H 3185.31 1.59976 2.53669 0
M  V30 32633 H 3182.86 0.865237 1.30167 0
M  V30 32634 H 3183.59 -0.906657 3.11368 0
M  V30 32635 H 3183.38 0.704482 3.85719 0
M  V30 32636 H 3184.87 -0.235193 4.16937 0
M  V30 32637 N 3185.31 -1.32538 0.852723 0
M  V30 32638 C 3186.72 -1.79598 0.510043 0
M  V30 32639 C 3187.07 -1.70432 -0.971972 0
M  V30 32640 O 3186.19 -1.26176 -1.75808 0
M  V30 32641 C 3186.79 -3.26097 0.919043 0
M  V30 32642 C 3185.35 -3.71119 0.628292 0
M  V30 32643 C 3184.49 -2.53683 1.11984 0
M  V30 32644 H 3187.44 -1.19864 1.04011 0
M  V30 32645 H 3187.47 -3.79776 0.234644 0
M  V30 32646 H 3186.98 -3.32736 1.99771 0
M  V30 32647 H 3185.08 -3.69996 -0.439735 0
M  V30 32648 H 3185.19 -4.64003 1.19323 0
M  V30 32649 H 3183.56 -2.48906 0.540176 0
M  V30 32650 H 3184.34 -2.63077 2.20557 0
M  V30 32651 N 3186.78 -0.610474 -1.45296 0
M  V30 32652 C 3187.75 0.0967792 -2.28996 0
M  V30 32653 C 3188.75 0.792328 -1.39924 0
M  V30 32654 O 3189.94 0.640052 -1.62015 0
M  V30 32655 C 3187.07 1.14726 -3.21015 0
M  V30 32656 H 3188.26 -0.639134 -2.9301 0
M  V30 32657 H 3185.81 -0.36965 -1.51866 0
M  V30 32658 H 3186.55 1.91384 -2.61807 0
M  V30 32659 H 3186.33 0.652685 -3.8663 0
M  V30 32660 H 3187.82 1.64249 -3.83943 0
M  V30 32661 N 3188.26 1.53669 -0.349801 0
M  V30 32662 C 3189.49 2.05432 0.246002 0
M  V30 32663 C 3189.9 1.22437 1.43717 0
M  V30 32664 O 3189.26 0.261198 1.80621 0
M  V30 32665 C 3189.31 3.55517 0.654947 0
M  V30 32666 O 3189.03 4.35364 -0.488859 0
M  V30 32667 C 3190.53 4.23477 1.31081 0
M  V30 32668 H 3187.75 0.669395 0.0463834 0
M  V30 32669 H 3190.3 1.98202 -0.503601 0
M  V30 32670 H 3188.45 3.6295 1.35448 0
M  V30 32671 H 3188.87 5.24251 -0.16162 0
M  V30 32672 H 3190.34 5.2986 1.54765 0
M  V30 32673 H 3190.82 3.76212 2.2663 0
M  V30 32674 H 3191.42 4.20255 0.653137 0
M  V30 32675 N 3189.74 0.0785709 1.57404 0
M  V30 32676 C 3190.99 -0.58899 1.93745 0
M  V30 32677 C 3191.31 -1.69208 0.959117 0
M  V30 32678 O 3190.57 -1.95685 -0.024126 0
M  V30 32679 C 3190.87 -1.19904 3.36687 0
M  V30 32680 C 3190.53 -0.221414 4.50356 0
M  V30 32681 C 3189.2 0.0475193 4.81177 0
M  V30 32682 C 3191.55 0.447032 5.19279 0
M  V30 32683 C 3188.88 0.991872 5.78255 0
M  V30 32684 C 3191.23 1.37975 6.1737 0
M  V30 32685 C 3189.89 1.65708 6.46604 0
M  V30 32686 H 3189.16 -0.215527 0.708964 0
M  V30 32687 H 3191.81 0.15089 1.90905 0
M  V30 32688 H 3190.11 -2.0148 3.36025 0
M  V30 32689 H 3191.81 -1.72297 3.62098 0
M  V30 32690 H 3188.4 -0.441209 4.26323 0
M  V30 32691 H 3192.59 0.252385 4.95658 0
M  V30 32692 H 3187.84 1.21392 5.99228 0
M  V30 32693 H 3192.02 1.90362 6.69877 0
M  V30 32694 H 3189.64 2.39044 7.21639 0
M  V30 32695 N 3191.22 -1.56389 -0.19503 0
M  V30 32696 C 3192.45 -1.84472 -0.930259 0
M  V30 32697 C 3192.86 -0.658932 -1.77355 0
M  V30 32698 O 3192.2 0.381633 -1.79692 0
M  V30 32699 C 3192.26 -3.06657 -1.8762 0
M  V30 32700 C 3191.92 -4.40557 -1.21486 0
M  V30 32701 C 3192.92 -5.16521 -0.591756 0
M  V30 32702 C 3190.61 -4.87292 -1.21869 0
M  V30 32703 C 3192.6 -6.37397 0.0186863 0
M  V30 32704 C 3190.29 -6.08104 -0.604417 0
M  V30 32705 C 3191.29 -6.82999 0.0131932 0
M  V30 32706 O 3190.97 -8.01522 0.617844 0
M  V30 32707 H 3190.71 -0.616677 -0.276922 0
M  V30 32708 H 3193.26 -2.04352 -0.207241 0
M  V30 32709 H 3191.49 -2.82662 -2.63892 0
M  V30 32710 H 3193.18 -3.21386 -2.47923 0
M  V30 32711 H 3193.94 -4.81508 -0.580933 0
M  V30 32712 H 3189.82 -4.28952 -1.68881 0
M  V30 32713 H 3193.37 -6.95796 0.501363 0
M  V30 32714 H 3189.26 -6.42585 -0.612742 0
M  V30 32715 H 3190.03 -8.1688 0.514756 0
M  V30 32716 N 3192.7 0.462746 -1.50653 0
M  V30 32717 C 3193.66 1.5421 -1.69564 0
M  V30 32718 C 3194.66 1.50504 -0.566132 0
M  V30 32719 O 3195.85 1.52976 -0.8333 0
M  V30 32720 C 3192.98 2.93823 -1.72861 0
M  V30 32721 H 3194.17 1.38757 -2.65869 0
M  V30 32722 H 3191.73 0.689703 -1.4026 0
M  V30 32723 H 3192.46 3.14711 -0.782785 0
M  V30 32724 H 3192.25 2.97919 -2.54925 0
M  V30 32725 H 3193.74 3.7217 -1.89417 0
M  V30 32726 N 3194.17 1.40371 0.716495 0
M  V30 32727 C 3195.42 1.37905 1.47191 0
M  V30 32728 C 3195.74 -0.0159595 1.95593 0
M  V30 32729 O 3196.94 -0.163234 2.71009 0
M  V30 32730 C 3195.4 2.42368 2.66056 0
M  V30 32731 C 3195.01 3.87675 2.24526 0
M  V30 32732 C 3196.75 2.49007 3.43796 0
M  V30 32733 C 3194.66 4.83736 3.40225 0
M  V30 32734 H 3193.59 0.512763 0.552802 0
M  V30 32735 H 3196.24 1.66103 0.779865 0
M  V30 32736 H 3194.62 2.07268 3.37426 0
M  V30 32737 H 3195.79 4.31914 1.60582 0
M  V30 32738 H 3194.11 3.84503 1.59833 0
M  V30 32739 H 3196.71 3.17964 4.29887 0
M  V30 32740 H 3197.05 1.5203 3.87547 0
M  V30 32741 H 3197.58 2.83093 2.79469 0
M  V30 32742 H 3194.32 5.82043 3.01507 0
M  V30 32743 H 3193.84 4.44163 4.03088 0
M  V30 32744 H 3195.52 5.03514 4.06303 0
M  V30 32745 N 3195.65 -0.948621 1.25853 0
M  V30 32746 C 3196.89 -1.70872 1.12169 0
M  V30 32747 C 3197.26 -1.89131 -0.3307 0
M  V30 32748 O 3198.46 -2.62256 -0.589494 0
M  V30 32749 C 3196.73 -3.05084 1.86167 0
M  V30 32750 S 3198.29 -3.96274 1.88448 0
M  V30 32751 H 3195.11 -0.587256 0.400813 0
M  V30 32752 H 3197.71 -1.13098 1.59465 0
M  V30 32753 H 3196.41 -2.89471 2.90921 0
M  V30 32754 H 3195.94 -3.67918 1.39283 0
M  V30 32755 H 3197.96 -4.86709 0.965836 0
M  V30 32756 N 3197.13 -1.07536 -1.15212 0
M  V30 32757 C 3198.06 -0.6553 -2.19633 0
M  V30 32758 C 3199.08 0.293137 -1.60139 0
M  V30 32759 O 3200.26 0.0821643 -1.78311 0
M  V30 32760 C 3197.36 0.0577685 -3.38851 0
M  V30 32761 C 3196.54 -0.907325 -4.27886 0
M  V30 32762 C 3195.6 -0.231208 -5.25692 0
M  V30 32763 O 3194.62 -0.872845 -5.62468 0
M  V30 32764 N 3195.82 1.0224 -5.71426 0
M  V30 32765 H 3198.59 -1.55358 -2.56289 0
M  V30 32766 H 3196.15 -0.960294 -1.30346 0
M  V30 32767 H 3198.14 0.520804 -4.01335 0
M  V30 32768 H 3196.71 0.858018 -3.00594 0
M  V30 32769 H 3195.93 -1.54943 -3.62473 0
M  V30 32770 H 3197.22 -1.5616 -4.84243 0
M  V30 32771 H 3196.62 1.5636 -5.43662 0
M  V30 32772 H 3195.18 1.42908 -6.35941 0
M  V30 32773 N 3198.61 1.32084 -0.85974 0
M  V30 32774 C 3199.54 2.27659 -0.265298 0
M  V30 32775 C 3200.55 1.52649 0.565862 0
M  V30 32776 O 3201.74 1.74198 0.389523 0
M  V30 32777 C 3198.84 3.32738 0.643338 0
M  V30 32778 C 3198.02 4.37132 -0.153101 0
M  V30 32779 C 3197.07 5.21761 0.682085 0
M  V30 32780 O 3196.1 5.69086 0.113778 0
M  V30 32781 N 3197.3 5.45108 1.99592 0
M  V30 32782 H 3200.07 2.79309 -1.08658 0
M  V30 32783 H 3197.63 1.44998 -0.720216 0
M  V30 32784 H 3199.62 3.86265 1.20753 0
M  V30 32785 H 3198.19 2.81209 1.3653 0
M  V30 32786 H 3197.41 3.83818 -0.898724 0
M  V30 32787 H 3198.7 5.03962 -0.699966 0
M  V30 32788 H 3198.1 5.08397 2.48091 0
M  V30 32789 H 3196.65 6.01612 2.50812 0
M  V30 32790 N 3200.09 0.618171 1.4497 0
M  V30 32791 C 3201.36 0.0490238 1.95539 0
M  V30 32792 C 3201.74 -1.42176 1.56042 0
M  V30 32793 O 3201.09 -2.12965 0.828128 0
M  V30 32794 C 3201.3 0.258254 3.48043 0
M  V30 32795 C 3202.65 0.144616 4.24354 0
M  V30 32796 O 3203.67 0.188932 3.55699 0
M  V30 32797 O 3202.53 0.038615 5.46486 0
M  V30 32798 H 3199.63 -0.0297111 0.826466 0
M  V30 32799 H 3202.17 0.688971 1.55085 0
M  V30 32800 H 3200.94 1.27932 3.69796 0
M  V30 32801 H 3200.57 -0.416453 3.95413 0
M  V30 32802 N 3201.56 -1.53481 0.357946 0
M  V30 32803 C 3202.79 -2.06033 -0.237733 0
M  V30 32804 C 3203.21 -1.23026 -1.42289 0
M  V30 32805 O 3202.57 -0.247459 -1.79603 0
M  V30 32806 C 3202.62 -3.55287 -0.616744 0
M  V30 32807 O 3201.72 -3.7505 -1.71497 0
M  V30 32808 H 3201.07 -0.663 -0.0364205 0
M  V30 32809 H 3203.6 -1.97978 0.516336 0
M  V30 32810 H 3203.61 -3.98177 -0.88989 0
M  V30 32811 H 3202.28 -4.15149 0.249898 0
M  V30 32812 H 3200.86 -3.44059 -1.43797 0
M  V30 32813 N 3203.04 -0.0869173 -1.5736 0
M  V30 32814 C 3204.28 0.582177 -1.95934 0
M  V30 32815 C 3204.65 1.65855 -0.967267 0
M  V30 32816 O 3205.85 2.38427 -1.2412 0
M  V30 32817 C 3204.12 1.13044 -3.39051 0
M  V30 32818 S 3205.68 1.81255 -3.99615 0
M  V30 32819 H 3202.5 0.190209 -0.685085 0
M  V30 32820 H 3205.1 -0.164375 -1.94808 0
M  V30 32821 H 3203.8 0.33542 -4.09027 0
M  V30 32822 H 3203.33 1.913 -3.43755 0
M  V30 32823 H 3205.35 3.09617 -3.87752 0
M  V30 32824 N 3204.52 1.5649 0.186734 0
M  V30 32825 C 3205.47 1.91612 1.23566 0
M  V30 32826 C 3206.45 0.782711 1.40579 0
M  V30 32827 O 3207.65 1.04569 1.42809 0
M  V30 32828 C 3204.78 2.26633 2.57861 0
M  V30 32829 C 3203.86 3.46451 2.44607 0
M  V30 32830 N 3204.25 4.64128 2.01044 0
M  V30 32831 C 3202.55 3.50754 2.75477 0
M  V30 32832 C 3203.25 5.4628 1.99882 0
M  V30 32833 N 3202.23 4.86909 2.41703 0
M  V30 32834 H 3206.03 2.80091 0.89031 0
M  V30 32835 H 3203.54 1.5752 0.395117 0
M  V30 32836 H 3205.54 2.49983 3.33637 0
M  V30 32837 H 3204.2 1.39486 2.93213 0
M  V30 32838 H 3205.21 4.88637 1.71621 0
M  V30 32839 H 3201.89 2.74045 3.14969 0
M  V30 32840 H 3203.28 6.5055 1.6803 0
M  V30 32841 N 3206 -0.45475 1.50897 0
M  V30 32842 C 3206.93 -1.56852 1.67123 0
M  V30 32843 C 3207.94 -1.53147 0.55225 0
M  V30 32844 O 3209.13 -1.58239 0.825997 0
M  V30 32845 C 3206.23 -2.95759 1.65469 0
M  V30 32846 C 3205.41 -3.24158 2.93668 0
M  V30 32847 C 3204.46 -4.42699 2.84436 0
M  V30 32848 O 3203.49 -4.42205 3.5839 0
M  V30 32849 N 3204.69 -5.45288 1.991 0
M  V30 32850 H 3207.46 -1.43344 2.63197 0
M  V30 32851 H 3205.02 -0.643431 1.48565 0
M  V30 32852 H 3207.01 -3.73054 1.56884 0
M  V30 32853 H 3205.58 -3.02952 0.770621 0
M  V30 32854 H 3204.8 -2.35322 3.16255 0
M  V30 32855 H 3206.09 -3.39951 3.78564 0
M  V30 32856 H 3205.49 -5.48519 1.38359 0
M  V30 32857 H 3204.04 -6.21504 1.96407 0
M  V30 32858 N 3207.48 -1.40749 -0.709041 0
M  V30 32859 C 3208.39 -1.43864 -1.85311 0
M  V30 32860 C 3209.4 -0.330569 -1.70831 0
M  V30 32861 O 3210.58 -0.576185 -1.92982 0
M  V30 32862 C 3207.64 -1.30574 -3.21172 0
M  V30 32863 C 3206.7 -2.5158 -3.47859 0
M  V30 32864 C 3205.94 -2.38915 -4.77237 0
M  V30 32865 O 3206.16 -1.40646 -5.52788 0
M  V30 32866 O 3205.09 -3.28416 -5.04407 0
M  V30 32867 H 3208.92 -2.40357 -1.8564 0
M  V30 32868 H 3206.51 -1.22142 -0.860331 0
M  V30 32869 H 3208.39 -1.25395 -4.02311 0
M  V30 32870 H 3207.06 -0.371898 -3.21557 0
M  V30 32871 H 3205.97 -2.62336 -2.66703 0
M  V30 32872 H 3207.3 -3.43747 -3.52277 0
M  V30 32873 N 3208.96 0.941933 -1.26354 0
M  V30 32874 C 3209.89 2.0443 -1.03638 0
M  V30 32875 C 3210.9 1.628 0.00293003 0
M  V30 32876 O 3212.09 1.76919 -0.23706 0
M  V30 32877 C 3209.19 3.34452 -0.547289 0
M  V30 32878 C 3208.36 4.04854 -1.65566 0
M  V30 32879 C 3207.42 5.13147 -1.16475 0
M  V30 32880 O 3206.45 5.37894 -1.86168 0
M  V30 32881 N 3207.65 5.80499 -0.0127723 0
M  V30 32882 H 3210.41 2.24484 -1.98562 0
M  V30 32883 H 3207.98 1.11136 -1.1773 0
M  V30 32884 H 3209.97 4.0419 -0.203075 0
M  V30 32885 H 3208.54 3.11076 0.308346 0
M  V30 32886 H 3207.76 3.29041 -2.17085 0
M  V30 32887 H 3209.05 4.48643 -2.39993 0
M  V30 32888 H 3208.44 5.62829 0.569259 0
M  V30 32889 H 3207 6.51231 0.272372 0
M  V30 32890 N 3210.43 1.08146 1.1464 0
M  V30 32891 C 3211.68 0.810716 1.8589 0
M  V30 32892 C 3212.01 -0.661789 1.82576 0
M  V30 32893 O 3211.29 -1.4863 1.25457 0
M  V30 32894 C 3211.57 1.32985 3.34644 0
M  V30 32895 C 3211.42 2.8675 3.46546 0
M  V30 32896 C 3212.74 0.952939 4.29659 0
M  V30 32897 H 3209.86 0.295975 0.674958 0
M  V30 32898 H 3212.5 1.34062 1.34638 0
M  V30 32899 H 3210.65 0.879096 3.78423 0
M  V30 32900 H 3212.33 3.40176 3.11573 0
M  V30 32901 H 3210.57 3.24544 2.87843 0
M  V30 32902 H 3211.24 3.18146 4.51096 0
M  V30 32903 H 3213.72 1.34148 3.93883 0
M  V30 32904 H 3212.59 1.3434 5.32207 0
M  V30 32905 H 3212.85 -0.140314 4.41877 0
M  V30 32906 N 3211.91 -1.31626 0.866732 0
M  V30 32907 C 3213.15 -1.98623 0.482514 0
M  V30 32908 C 3213.52 -1.67031 -0.946815 0
M  V30 32909 O 3214.72 -2.27214 -1.43622 0
M  V30 32910 C 3212.99 -3.49894 0.728644 0
M  V30 32911 S 3214.55 -4.3655 0.443801 0
M  V30 32912 H 3211.36 -0.687773 0.18025 0
M  V30 32913 H 3213.97 -1.60094 1.12206 0
M  V30 32914 H 3212.67 -3.70376 1.76776 0
M  V30 32915 H 3212.2 -3.93327 0.0759722 0
M  V30 32916 H 3214.22 -4.90871 -0.725254 0
M  V30 32917 N 3213.39 -0.62585 -1.4464 0
M  V30 32918 C 3214.3 0.0835721 -2.34451 0
M  V30 32919 C 3215.32 0.841263 -1.52311 0
M  V30 32920 O 3216.49 0.794721 -1.85057 0
M  V30 32921 C 3213.56 1.05642 -3.30213 0
M  V30 32922 C 3212.62 0.298683 -4.2826 0
M  V30 32923 C 3211.85 1.22519 -5.19447 0
M  V30 32924 O 3212.07 2.46372 -5.14448 0
M  V30 32925 O 3211.01 0.712365 -5.9767 0
M  V30 32926 H 3214.83 -0.654964 -2.96553 0
M  V30 32927 H 3212.42 -0.386055 -1.44326 0
M  V30 32928 H 3214.3 1.61625 -3.89172 0
M  V30 32929 H 3212.98 1.77566 -2.70651 0
M  V30 32930 H 3211.88 -0.304066 -3.72862 0
M  V30 32931 H 3213.22 -0.380431 -4.90728 0
M  V30 32932 N 3214.87 1.53289 -0.36608 0
M  V30 32933 C 3216.11 2.01561 0.223788 0
M  V30 32934 C 3216.45 1.25288 1.48379 0
M  V30 32935 O 3215.72 0.346723 1.91385 0
M  V30 32936 C 3216 3.56395 0.515237 0
M  V30 32937 C 3215.86 4.4336 -0.758435 0
M  V30 32938 C 3217.18 4.19976 1.3156 0
M  V30 32939 H 3214.3 0.73266 0.0798623 0
M  V30 32940 H 3216.94 1.83544 -0.49107 0
M  V30 32941 H 3215.09 3.71878 1.12422 0
M  V30 32942 H 3216.76 4.39672 -1.39592 0
M  V30 32943 H 3215 4.11308 -1.37869 0
M  V30 32944 H 3215.67 5.49644 -0.509463 0
M  V30 32945 H 3218.15 4.08328 0.800442 0
M  V30 32946 H 3217.03 5.28339 1.48827 0
M  V30 32947 H 3217.29 3.76073 2.32426 0
M  V30 32948 N 3216.35 0.0952613 1.57312 0
M  V30 32949 C 3217.59 -0.568097 1.93534 0
M  V30 32950 C 3217.91 -1.69328 0.979151 0
M  V30 32951 O 3219.11 -2.4178 1.2351 0
M  V30 32952 C 3217.57 -1.06192 3.43877 0
M  V30 32953 C 3217.18 0.0335184 4.47987 0
M  V30 32954 C 3218.92 -1.69801 3.8906 0
M  V30 32955 C 3216.83 -0.47567 5.89484 0
M  V30 32956 H 3215.76 -0.215982 0.722404 0
M  V30 32957 H 3218.41 0.171289 1.82699 0
M  V30 32958 H 3216.79 -1.855 3.49865 0
M  V30 32959 H 3217.97 0.809014 4.53643 0
M  V30 32960 H 3216.28 0.574797 4.12414 0
M  V30 32961 H 3218.88 -2.08969 4.92175 0
M  V30 32962 H 3219.22 -2.56724 3.27717 0
M  V30 32963 H 3219.75 -0.970747 3.85774 0
M  V30 32964 H 3216.49 0.356952 6.54527 0
M  V30 32965 H 3216.01 -1.21817 5.873 0
M  V30 32966 H 3217.69 -0.944584 6.40068 0
M  V30 32967 N 3217.82 -1.56587 -0.178432 0
M  V30 32968 C 3218.79 -1.94983 -1.20476 0
M  V30 32969 C 3219.79 -0.832701 -1.3756 0
M  V30 32970 O 3220.98 -1.09987 -1.35087 0
M  V30 32971 C 3218.11 -2.23843 -2.57113 0
M  V30 32972 H 3219.3 -2.86817 -0.876122 0
M  V30 32973 H 3216.85 -1.50534 -0.420608 0
M  V30 32974 H 3217.59 -1.347 -2.95002 0
M  V30 32975 H 3217.37 -3.05265 -2.4608 0
M  V30 32976 H 3218.86 -2.54496 -3.31092 0
M  V30 32977 N 3219.3 0.446741 -1.51136 0
M  V30 32978 C 3220.53 1.22424 -1.67413 0
M  V30 32979 C 3220.95 1.84484 -0.367041 0
M  V30 32980 O 3220.31 1.68393 0.671821 0
M  V30 32981 C 3220.36 2.29092 -2.78477 0
M  V30 32982 O 3219.46 3.34347 -2.41425 0
M  V30 32983 H 3218.8 0.359101 -0.558518 0
M  V30 32984 H 3221.33 0.528765 -1.97649 0
M  V30 32985 H 3221.34 2.74025 -3.02282 0
M  V30 32986 H 3220.02 1.83297 -3.7333 0
M  V30 32987 H 3218.59 2.94956 -2.28157 0
M  V30 32988 N 3220.78 1.41123 0.701567 0
M  V30 32989 C 3222.01 1.43294 1.4883 0
M  V30 32990 C 3222.42 0.0349001 1.89168 0
M  V30 32991 O 3221.76 -0.954772 1.56939 0
M  V30 32992 C 3221.82 2.27292 2.78529 0
M  V30 32993 C 3221.49 3.75532 2.60431 0
M  V30 32994 C 3222.48 4.67837 2.2677 0
M  V30 32995 C 3220.17 4.19507 2.76259 0
M  V30 32996 C 3222.16 6.02103 2.09166 0
M  V30 32997 C 3219.85 5.5384 2.58271 0
M  V30 32998 C 3220.85 6.44954 2.24775 0
M  V30 32999 O 3220.54 7.76809 2.06938 0
M  V30 33000 H 3220.27 0.490292 0.465392 0
M  V30 33001 H 3222.82 1.8598 0.871811 0
M  V30 33002 H 3221.05 1.79409 3.42563 0
M  V30 33003 H 3222.74 2.21235 3.40308 0
M  V30 33004 H 3223.51 4.35155 2.14162 0
M  V30 33005 H 3219.39 3.48898 3.01316 0
M  V30 33006 H 3222.93 6.73185 1.82943 0
M  V30 33007 H 3218.83 5.86104 2.70468 0
M  V30 33008 H 3219.59 7.8789 2.21748 0
M  V30 33009 N 3222.26 -0.935219 1.26852 0
M  V30 33010 C 3223.22 -2.01634 1.08979 0
M  V30 33011 C 3224.22 -1.60759 0.0361826 0
M  V30 33012 O 3225.41 -1.71933 0.280118 0
M  V30 33013 C 3222.54 -3.34472 0.65889 0
M  V30 33014 H 3223.74 -2.18921 2.04972 0
M  V30 33015 H 3221.29 -1.11499 1.09533 0
M  V30 33016 H 3222.02 -3.22884 -0.302768 0
M  V30 33017 H 3221.81 -3.65494 1.41973 0
M  V30 33018 H 3223.3 -4.13884 0.555856 0
M  V30 33019 N 3223.74 -1.08752 -1.14065 0
M  V30 33020 C 3224.69 -0.690233 -2.17301 0
M  V30 33021 C 3225.67 0.291921 -1.5823 0
M  V30 33022 O 3226.86 0.10338 -1.76698 0
M  V30 33023 C 3223.99 -0.104896 -3.4314 0
M  V30 33024 C 3223.08 -1.11305 -4.09233 0
M  V30 33025 N 3223.47 -2.29773 -4.50597 0
M  V30 33026 C 3221.77 -0.949611 -4.35773 0
M  V30 33027 C 3222.47 -2.93848 -5.02024 0
M  V30 33028 N 3221.44 -2.2144 -4.96453 0
M  V30 33029 H 3225.25 -1.59231 -2.47028 0
M  V30 33030 H 3222.76 -0.962745 -1.30786 0
M  V30 33031 H 3224.76 0.197704 -4.16431 0
M  V30 33032 H 3223.42 0.792116 -3.1489 0
M  V30 33033 H 3224.43 -2.67407 -4.43524 0
M  V30 33034 H 3221.1 -0.106701 -4.17364 0
M  V30 33035 H 3222.49 -3.9452 -5.43878 0
M  V30 33036 N 3225.21 1.31165 -0.873701 0
M  V30 33037 C 3226.14 2.30891 -0.348052 0
M  V30 33038 C 3227.13 1.6051 0.563064 0
M  V30 33039 O 3228.31 1.88192 0.479299 0
M  V30 33040 C 3225.44 3.44397 0.448097 0
M  V30 33041 C 3224.39 4.26395 -0.370254 0
M  V30 33042 C 3223.72 5.31845 0.551809 0
M  V30 33043 C 3225.02 4.96985 -1.60633 0
M  V30 33044 H 3226.71 2.75107 -1.18139 0
M  V30 33045 H 3224.26 1.32259 -0.569525 0
M  V30 33046 H 3226.21 4.13218 0.826385 0
M  V30 33047 H 3224.94 2.98958 1.31498 0
M  V30 33048 H 3223.6 3.59247 -0.730535 0
M  V30 33049 H 3223.24 4.82655 1.41607 0
M  V30 33050 H 3222.94 5.87599 0.0081315 0
M  V30 33051 H 3224.47 6.03524 0.926859 0
M  V30 33052 H 3225.88 5.58383 -1.29927 0
M  V30 33053 H 3224.28 5.62553 -2.08936 0
M  V30 33054 H 3225.35 4.23757 -2.35708 0
M  V30 33055 N 3226.69 0.633512 1.44307 0
M  V30 33056 C 3227.93 0.142295 2.03904 0
M  V30 33057 C 3228.3 -1.21373 1.4877 0
M  V30 33058 O 3229.5 -1.7972 1.99885 0
M  V30 33059 C 3227.77 0.131038 3.5716 0
M  V30 33060 S 3229.33 -0.29521 4.37806 0
M  V30 33061 H 3226.15 0.0622553 0.708269 0
M  V30 33062 H 3228.75 0.837436 1.76656 0
M  V30 33063 H 3227.45 1.12103 3.94792 0
M  V30 33064 H 3226.98 -0.585274 3.89022 0
M  V30 33065 H 3229 -1.53885 4.71735 0
M  V30 33066 N 3228.17 -1.53093 0.374204 0
M  V30 33067 C 3229.59 -1.59583 0.0235063 0
M  V30 33068 C 3229.79 -1.38894 -1.45982 0
M  V30 33069 O 3228.84 -1.1984 -2.22249 0
M  V30 33070 C 3230.16 -2.96727 0.487169 0
M  V30 33071 C 3231.7 -3.09862 0.442128 0
M  V30 33072 C 3232.18 -4.49432 0.881738 0
M  V30 33073 N 3233.67 -4.55572 0.837142 0
M  V30 33074 C 3234.4 -5.61772 1.14888 0
M  V30 33075 N 3233.9 -6.75687 1.53034 0
M  V30 33076 N 3235.69 -5.518 1.07112 0
M  V30 33077 H 3227.84 -1.64791 1.34006 0
M  V30 33078 H 3230.11 -0.773354 0.548294 0
M  V30 33079 H 3229.81 -3.17034 1.52258 0
M  V30 33080 H 3229.69 -3.77004 -0.121706 0
M  V30 33081 H 3232.07 -2.8926 -0.584165 0
M  V30 33082 H 3232.16 -2.31574 1.08661 0
M  V30 33083 H 3231.8 -4.70773 1.90619 0
M  V30 33084 H 3231.73 -5.26163 0.214419 0
M  V30 33085 H 3234.22 -3.73784 0.556239 0
M  V30 33086 H 3234.53 -7.52673 1.75224 0
M  V30 33087 H 3232.88 -6.77056 1.56907 0
M  V30 33088 H 3236.07 -4.61686 0.77223 0
M  V30 33089 H 3236.24 -6.34467 1.31739 0
M  V30 33090 N 3229.65 -0.103603 -1.57259 0
M  V30 33091 C 3230.88 0.56624 -1.99001 0
M  V30 33092 C 3231.29 1.61195 -0.982938 0
M  V30 33093 O 3230.65 1.82481 0.0263129 0
M  V30 33094 C 3230.7 1.20629 -3.4078 0
M  V30 33095 O 3230.42 0.202395 -4.37632 0
M  V30 33096 C 3231.92 1.96093 -3.97571 0
M  V30 33097 H 3229.14 0.151153 -0.653754 0
M  V30 33098 H 3231.69 -0.185401 -2.03658 0
M  V30 33099 H 3229.84 1.9088 -3.3711 0
M  V30 33100 H 3230.25 0.665444 -5.20262 0
M  V30 33101 H 3231.73 2.36224 -4.98901 0
M  V30 33102 H 3232.21 2.83013 -3.35858 0
M  V30 33103 H 3232.81 1.30638 -4.04739 0
M  V30 33104 N 3231.13 1.56679 0.170126 0
M  V30 33105 C 3232.07 1.97422 1.22993 0
M  V30 33106 C 3233.07 0.863143 1.45761 0
M  V30 33107 O 3234.27 1.04826 1.46327 0
M  V30 33108 H 3230.65 0.628129 0.413471 0
M  V30 33109 H 3232.62 2.85755 0.859452 0
M  V30 33110 C 3231.37 2.35126 2.56146 0
M  V30 33111 H 3230.69 3.20162 2.3945 0
M  V30 33112 H 3232.13 2.67477 3.28986 0
M  V30 33113 C 3230.59 1.19512 3.14989 0
M  V30 33114 O 3231.12 0.483427 3.9878 0
M  V30 33115 N 3229.33 0.965381 2.74096 0
M  V30 33116 H 3228.87 1.54588 2.06059 0
M  V30 33117 H 3228.83 0.193667 3.13803 0
M  V30 33118 N 3232.6 -0.43872 1.5137 0
M  V30 33119 C 3233.85 -1.18592 1.63647 0
M  V30 33120 C 3234.17 -1.91755 0.354275 0
M  V30 33121 O 3233.44 -1.855 -0.629805 0
M  V30 33122 H 3232.02 -0.440756 0.603111 0
M  V30 33123 H 3234.69 -0.503126 1.88294 0
M  V30 33124 H 3233.78 -1.91625 2.46346 0
M  V30 33125 N 3234.08 -1.41493 -0.694073 0
M  V30 33126 C 3235.33 -1.4114 -1.45628 0
M  V30 33127 C 3235.66 -0.0208769 -1.94189 0
M  V30 33128 O 3234.94 0.951625 -1.6963 0
M  V30 33129 C 3235.22 -2.41946 -2.6671 0
M  V30 33130 C 3235.07 -3.90111 -2.23905 0
M  V30 33131 C 3236.39 -2.39988 -3.68909 0
M  V30 33132 H 3233.51 -0.513977 -0.528201 0
M  V30 33133 H 3236.15 -1.72779 -0.790406 0
M  V30 33134 H 3234.3 -2.15096 -3.23521 0
M  V30 33135 H 3235.97 -4.2787 -1.7241 0
M  V30 33136 H 3234.22 -4.04905 -1.55673 0
M  V30 33137 H 3234.89 -4.56193 -3.10792 0
M  V30 33138 H 3237.36 -2.63819 -3.21774 0
M  V30 33139 H 3236.24 -3.12532 -4.51237 0
M  V30 33140 H 3236.5 -1.419 -4.18709 0
M  V30 33141 N 3235.56 0.928479 -1.27346 0
M  V30 33142 C 3236.8 1.69066 -1.14874 0
M  V30 33143 C 3237.16 1.89633 0.30057 0
M  V30 33144 O 3238.37 2.63161 0.547697 0
M  V30 33145 C 3236.64 3.02084 -1.90997 0
M  V30 33146 S 3238.2 3.93225 -1.94728 0
M  V30 33147 H 3235.01 0.580805 -0.410105 0
M  V30 33148 H 3237.62 1.10547 -1.61244 0
M  V30 33149 H 3236.32 2.84806 -2.95489 0
M  V30 33150 H 3235.85 3.65656 -1.45118 0
M  V30 33151 H 3237.87 4.85111 -1.04314 0
M  V30 33152 N 3237.04 1.09355 1.13486 0
M  V30 33153 C 3238.28 0.830387 1.8502 0
M  V30 33154 C 3238.62 -0.642387 1.83268 0
M  V30 33155 O 3237.89 -1.47291 1.27026 0
M  V30 33156 C 3238.18 1.36527 3.33215 0
M  V30 33157 C 3238.03 2.9041 3.43486 0
M  V30 33158 C 3239.35 0.998457 4.28624 0
M  V30 33159 H 3236.47 0.303117 0.671781 0
M  V30 33160 H 3239.11 1.35483 1.33208 0
M  V30 33161 H 3237.26 0.919184 3.7747 0
M  V30 33162 H 3238.93 3.43462 3.07948 0
M  V30 33163 H 3237.17 3.27578 2.84385 0
M  V30 33164 H 3237.84 3.22912 4.47696 0
M  V30 33165 H 3240.32 1.38318 3.92438 0
M  V30 33166 H 3239.2 1.39978 5.30752 0
M  V30 33167 H 3239.46 -0.0934393 4.42001 0
M  V30 33168 N 3238.52 -1.307 0.880644 0
M  V30 33169 C 3239.79 -1.911 0.417154 0
M  V30 33170 C 3240.17 -1.80069 -1.10174 0
M  V30 33171 O 3239.52 -1.21515 -1.93511 0
M  V30 33172 C 3239.73 -3.36916 0.910423 0
M  V30 33173 C 3241.08 -4.14 0.942837 0
M  V30 33174 O 3242.1 -3.45742 0.856794 0
M  V30 33175 O 3240.96 -5.35938 1.06922 0
M  V30 33176 H 3238.06 -0.817223 0.126789 0
M  V30 33177 H 3240.6 -1.39296 0.96926 0
M  V30 33178 H 3239.38 -3.39009 1.9542 0
M  V30 33179 H 3239 -3.96167 0.337234 0
M  V30 33180 N 3240 -0.641156 -1.43969 0
M  V30 33181 C 3241.24 -0.158442 -2.02782 0
M  V30 33182 C 3241.6 1.20983 -1.49602 0
M  V30 33183 O 3240.89 1.79333 -0.674549 0
M  V30 33184 C 3241.08 -0.0963996 -3.5727 0
M  V30 33185 C 3240.91 -1.45712 -4.25439 0
M  V30 33186 C 3239.68 -2.04645 -4.62005 0
M  V30 33187 C 3241.88 -2.39305 -4.55234 0
M  V30 33188 N 3239.86 -3.33848 -5.15188 0
M  V30 33189 C 3241.23 -3.5313 -5.09607 0
M  V30 33190 C 3243.29 -2.38258 -4.37193 0
M  V30 33191 C 3241.99 -4.66117 -5.47838 0
M  V30 33192 C 3244.02 -3.50317 -4.76478 0
M  V30 33193 C 3243.38 -4.62867 -5.30974 0
M  V30 33194 H 3239.48 -0.10213 -0.775302 0
M  V30 33195 H 3242.06 -0.846835 -1.75319 0
M  V30 33196 H 3240.23 0.561302 -3.84323 0
M  V30 33197 H 3241.97 0.396069 -4.02757 0
M  V30 33198 H 3238.72 -1.57482 -4.4665 0
M  V30 33199 H 3239.14 -3.99931 -5.46246 0
M  V30 33200 H 3243.79 -1.52487 -3.94344 0
M  V30 33201 H 3241.5 -5.52589 -5.89636 0
M  V30 33202 H 3245.09 -3.50695 -4.64224 0
M  V30 33203 H 3243.97 -5.48143 -5.60811 0
M  V30 33204 N 3241.47 1.52892 -0.382318 0
M  V30 33205 C 3242.89 1.59568 -0.031969 0
M  V30 33206 C 3243.09 1.39667 1.45243 0
M  V30 33207 O 3242.15 1.21017 2.2161 0
M  V30 33208 C 3243.46 2.96465 -0.502898 0
M  V30 33209 C 3245.01 3.09623 -0.458554 0
M  V30 33210 C 3245.48 4.48958 -0.90556 0
M  V30 33211 N 3246.97 4.55122 -0.861291 0
M  V30 33212 C 3247.71 5.61155 -1.17866 0
M  V30 33213 N 3247.2 6.74866 -1.56615 0
M  V30 33214 N 3249 5.51224 -1.10037 0
M  V30 33215 H 3241.15 1.64078 -1.34878 0
M  V30 33216 H 3243.41 0.770436 -0.552388 0
M  V30 33217 H 3243.12 3.16222 -1.53937 0
M  V30 33218 H 3242.99 3.77063 0.101711 0
M  V30 33219 H 3245.38 2.89566 0.568817 0
M  V30 33220 H 3245.46 2.30994 -1.09888 0
M  V30 33221 H 3245.1 4.69755 -1.93113 0
M  V30 33222 H 3245.03 5.26042 -0.242319 0
M  V30 33223 H 3247.52 3.73484 -0.576054 0
M  V30 33224 H 3247.84 7.51733 -1.79214 0
M  V30 33225 H 3246.18 6.76215 -1.60495 0
M  V30 33226 H 3249.37 4.6127 -0.796704 0
M  V30 33227 H 3249.55 6.3376 -1.35102 0
M  V30 33228 N 3242.95 0.111941 1.57202 0
M  V30 33229 C 3244.18 -0.555678 1.99298 0
M  V30 33230 C 3244.59 -1.60671 0.991473 0
M  V30 33231 O 3243.95 -1.82492 -0.0166351 0
M  V30 33232 C 3244 -1.1882 3.41415 0
M  V30 33233 O 3243.72 -0.179184 4.37733 0
M  V30 33234 C 3245.22 -1.93982 3.98605 0
M  V30 33235 H 3242.44 -0.147684 0.654546 0
M  V30 33236 H 3244.99 0.196199 2.03557 0
M  V30 33237 H 3243.14 -1.8909 3.38118 0
M  V30 33238 H 3243.56 -0.637844 5.20607 0
M  V30 33239 H 3245.03 -2.33575 5.00147 0
M  V30 33240 H 3245.51 -2.81227 3.37354 0
M  V30 33241 H 3246.11 -1.2849 4.05426 0
M  V30 33242 N 3244.43 -1.56767 -0.161814 0
M  V30 33243 C 3245.84 -1.72118 -0.723354 0
M  V30 33244 C 3246.19 -0.723993 -1.82353 0
M  V30 33245 O 3245.32 0.112605 -2.16107 0
M  V30 33246 C 3245.91 -3.12075 -1.3189 0
M  V30 33247 C 3244.47 -3.29077 -1.82716 0
M  V30 33248 C 3243.62 -2.68061 -0.709816 0
M  V30 33249 H 3246.57 -1.58572 0.0636926 0
M  V30 33250 H 3246.59 -3.11252 -2.18866 0
M  V30 33251 H 3246.1 -3.84628 -0.517942 0
M  V30 33252 H 3244.2 -2.61496 -2.65425 0
M  V30 33253 H 3244.32 -4.36901 -1.96606 0
M  V30 33254 H 3242.68 -2.28128 -1.13269 0
M  V30 33255 H 3243.46 -3.43208 0.0794488 0
M  V30 33256 N 3245.91 0.430686 -1.51601 0
M  V30 33257 C 3247.18 1.1912 -1.55144 0
M  V30 33258 C 3247.56 2.08666 -0.319632 0
M  V30 33259 O 3246.91 2.17678 0.694888 0
M  V30 33260 C 3247.12 1.98727 -2.86895 0
M  V30 33261 C 3248.47 2.5554 -3.39094 0
M  V30 33262 O 3249.49 2.08931 -2.8849 0
M  V30 33263 O 3248.35 3.40566 -4.27407 0
M  V30 33264 H 3245.45 0.542694 -0.624029 0
M  V30 33265 H 3247.99 0.439215 -1.63918 0
M  V30 33266 H 3246.77 1.32999 -3.68004 0
M  V30 33267 H 3246.39 2.80977 -2.81314 0
M  V30 33268 N 3247.39 1.4186 0.686559 0
M  V30 33269 C 3248.63 1.417 1.44663 0
M  V30 33270 C 3248.96 0.0292784 1.94478 0
M  V30 33271 O 3248.22 -0.960391 1.70514 0
M  V30 33272 C 3248.51 2.3782 2.66789 0
M  V30 33273 C 3248.18 3.84464 2.35581 0
M  V30 33274 C 3246.84 4.2441 2.2678 0
M  V30 33275 C 3249.19 4.77013 2.1002 0
M  V30 33276 C 3246.52 5.54902 1.90528 0
M  V30 33277 C 3248.87 6.07834 1.75274 0
M  V30 33278 C 3247.54 6.46792 1.64976 0
M  V30 33279 H 3246.81 0.518518 0.529358 0
M  V30 33280 H 3249.46 1.7472 0.783907 0
M  V30 33281 H 3247.76 1.98086 3.38037 0
M  V30 33282 H 3249.46 2.34967 3.24949 0
M  V30 33283 H 3246.05 3.52831 2.43328 0
M  V30 33284 H 3250.23 4.46947 2.15758 0
M  V30 33285 H 3245.49 5.83958 1.81115 0
M  V30 33286 H 3249.66 6.79041 1.54518 0
M  V30 33287 H 3247.29 7.47817 1.36654 0
M  V30 33288 N 3248.86 -0.921712 1.27837 0
M  V30 33289 C 3250.1 -1.68455 1.15769 0
M  V30 33290 C 3250.47 -1.89789 -0.290509 0
M  V30 33291 O 3251.67 -2.63448 -0.533733 0
M  V30 33292 C 3249.94 -3.01067 1.92597 0
M  V30 33293 S 3251.5 -3.92187 1.96811 0
M  V30 33294 H 3248.32 -0.578622 0.41318 0
M  V30 33295 H 3250.92 -1.09691 1.61828 0
M  V30 33296 H 3249.62 -2.83235 2.96996 0
M  V30 33297 H 3249.15 -3.64881 1.47056 0
M  V30 33298 H 3251.17 -4.84551 1.06886 0
M  V30 33299 N 3250.34 -1.09956 -1.12905 0
M  V30 33300 C 3251.3 -0.747402 -2.16671 0
M  V30 33301 C 3252.3 0.225713 -1.59208 0
M  V30 33302 O 3253.49 0.0031942 -1.742 0
M  V30 33303 C 3250.63 -0.106229 -3.40734 0
M  V30 33304 H 3251.82 -1.66645 -2.49338 0
M  V30 33305 H 3249.37 -0.899444 -1.27827 0
M  V30 33306 H 3250.11 0.823785 -3.13663 0
M  V30 33307 H 3249.89 -0.806501 -3.83716 0
M  V30 33308 H 3251.38 0.124567 -4.17414 0
M  V30 33309 N 3251.82 1.30231 -0.887563 0
M  V30 33310 C 3252.75 2.26208 -0.300854 0
M  V30 33311 C 3253.73 1.51901 0.580061 0
M  V30 33312 O 3254.91 1.80908 0.529579 0
M  V30 33313 C 3252.04 3.3383 0.572277 0
M  V30 33314 C 3251.09 4.25826 -0.239663 0
M  V30 33315 S 3251.92 5.10101 -1.62962 0
M  V30 33316 C 3253.08 6.21231 -0.763089 0
M  V30 33317 H 3253.31 2.75624 -1.1144 0
M  V30 33318 H 3250.84 1.38267 -0.687147 0
M  V30 33319 H 3252.8 3.96302 1.07029 0
M  V30 33320 H 3251.46 2.83133 1.35994 0
M  V30 33321 H 3250.65 5.0219 0.426766 0
M  V30 33322 H 3250.26 3.67943 -0.67039 0
M  V30 33323 H 3252.55 6.77497 0.0188163 0
M  V30 33324 H 3253.49 6.92064 -1.49842 0
M  V30 33325 H 3253.9 5.63576 -0.322846 0
M  V30 33326 N 3253.3 0.648782 1.43627 0
M  V30 33327 C 3254.52 0.16632 2.06732 0
M  V30 33328 C 3254.95 -1.15731 1.48283 0
M  V30 33329 O 3254.31 -1.71395 0.591048 0
M  V30 33330 C 3254.35 0.0839365 3.60502 0
M  V30 33331 O 3253.46 -0.955114 4.01187 0
M  V30 33332 H 3252.8 0.0928401 0.657478 0
M  V30 33333 H 3255.33 0.890453 1.84207 0
M  V30 33334 H 3255.34 -0.100851 4.07875 0
M  V30 33335 H 3254.01 1.05021 4.02422 0
M  V30 33336 H 3252.59 -0.743473 3.65413 0
M  V30 33337 N 3254.78 -1.52688 0.390421 0
M  V30 33338 C 3256.02 -2.03504 -0.191171 0
M  V30 33339 C 3256.38 -1.27053 -1.4395 0
M  V30 33340 O 3257.58 -1.68 -2.09832 0
M  V30 33341 C 3255.85 -3.54537 -0.45149 0
M  V30 33342 S 3257.41 -4.27178 -1.0032 0
M  V30 33343 H 3254.23 -0.708966 -0.0537463 0
M  V30 33344 H 3256.83 -1.87922 0.539026 0
M  V30 33345 H 3255.54 -4.07767 0.464133 0
M  V30 33346 H 3255.07 -3.74327 -1.21008 0
M  V30 33347 H 3257.08 -4.40432 -2.28547 0
M  V30 33348 N 3256.25 -0.120276 -1.5714 0
M  V30 33349 C 3257.67 0.404899 -1.82257 0
M  V30 33350 C 3258.02 1.66524 -1.03751 0
M  V30 33351 O 3257.14 2.14652 -0.274493 0
M  V30 33352 C 3257.74 0.741373 -3.30589 0
M  V30 33353 C 3256.3 1.21118 -3.56381 0
M  V30 33354 C 3255.44 0.220521 -2.76422 0
M  V30 33355 H 3258.39 -0.345388 -1.54896 0
M  V30 33356 H 3258.41 1.59866 -3.45287 0
M  V30 33357 H 3257.93 -0.176105 -3.877 0
M  V30 33358 H 3256.03 2.14551 -3.04629 0
M  V30 33359 H 3256.14 1.15562 -4.64954 0
M  V30 33360 H 3254.5 0.707814 -2.44667 0
M  V30 33361 H 3255.29 -0.690077 -3.36293 0
M  V30 33362 N 3257.73 1.56851 0.153498 0
M  V30 33363 C 3259.14 1.72499 0.714216 0
M  V30 33364 C 3259.49 0.733653 1.81967 0
M  V30 33365 O 3258.62 -0.101142 2.16164 0
M  V30 33366 C 3259.21 3.1277 1.30233 0
M  V30 33367 C 3257.77 3.30042 1.80968 0
M  V30 33368 C 3256.92 2.68434 0.69559 0
M  V30 33369 H 3259.87 1.58536 -0.0721011 0
M  V30 33370 H 3259.89 3.12409 2.17212 0
M  V30 33371 H 3259.4 3.84898 0.497537 0
M  V30 33372 H 3257.51 2.629 2.64035 0
M  V30 33373 H 3257.62 4.37938 1.94287 0
M  V30 33374 H 3255.98 2.28725 1.12057 0
M  V30 33375 H 3256.77 3.43161 -0.0976488 0
M  V30 33376 N 3259.21 -0.42264 1.51827 0
M  V30 33377 C 3260.44 -1.19745 1.69339 0
M  V30 33378 C 3260.86 -1.83877 0.396344 0
M  V30 33379 O 3260.22 -1.69441 -0.644946 0
M  V30 33380 C 3260.27 -2.24632 2.82086 0
M  V30 33381 O 3259.37 -3.30464 2.46713 0
M  V30 33382 H 3258.71 -0.35017 0.56416 0
M  V30 33383 H 3261.24 -0.497254 1.98465 0
M  V30 33384 H 3261.25 -2.69181 3.06603 0
M  V30 33385 H 3259.93 -1.77335 3.76198 0
M  V30 33386 H 3258.5 -2.91289 2.32821 0
M  V30 33387 N 3260.69 -1.42222 -0.679027 0
M  V30 33388 C 3261.62 -1.48155 -1.80478 0
M  V30 33389 C 3262.6 -0.338532 -1.66697 0
M  V30 33390 O 3263.78 -0.552261 -1.86182 0
M  V30 33391 C 3260.91 -1.37914 -3.18743 0
M  V30 33392 C 3259.87 -2.50198 -3.47253 0
M  V30 33393 C 3259.19 -2.25016 -4.85048 0
M  V30 33394 C 3260.49 -3.92517 -3.44569 0
M  V30 33395 H 3262.19 -2.42374 -1.7577 0
M  V30 33396 H 3259.73 -1.16657 -0.84422 0
M  V30 33397 H 3261.69 -1.40673 -3.97227 0
M  V30 33398 H 3260.41 -0.401863 -3.24118 0
M  V30 33399 H 3259.07 -2.46749 -2.71128 0
M  V30 33400 H 3258.72 -1.25593 -4.87068 0
M  V30 33401 H 3258.42 -3.00268 -5.05087 0
M  V30 33402 H 3259.94 -2.29518 -5.65821 0
M  V30 33403 H 3261.36 -3.97592 -4.13029 0
M  V30 33404 H 3259.75 -4.67586 -3.76143 0
M  V30 33405 H 3260.82 -4.19489 -2.43223 0
M  V30 33406 N 3262.17 0.91492 -1.28324 0
M  V30 33407 C 3263.41 1.6664 -1.15581 0
M  V30 33408 C 3263.75 1.91944 0.295175 0
M  V30 33409 O 3263.02 1.51898 1.2148 0
M  V30 33410 C 3263.3 3.02503 -1.95355 0
M  V30 33411 C 3263.16 2.84361 -3.48509 0
M  V30 33412 C 3264.48 4.03024 -1.76805 0
M  V30 33413 H 3261.59 0.60475 -0.421244 0
M  V30 33414 H 3264.24 1.06085 -1.57626 0
M  V30 33415 H 3262.39 3.54192 -1.59625 0
M  V30 33416 H 3264.06 2.39692 -3.94139 0
M  V30 33417 H 3262.3 2.19444 -3.74202 0
M  V30 33418 H 3262.97 3.80838 -3.99583 0
M  V30 33419 H 3265.45 3.60392 -2.07983 0
M  V30 33420 H 3264.32 4.96053 -2.34996 0
M  V30 33421 H 3264.59 4.3621 -0.719239 0
M  V30 33422 N 3263.64 1.10553 1.1232 0
M  V30 33423 C 3264.87 0.86964 1.87406 0
M  V30 33424 C 3265.28 -0.583528 1.79977 0
M  V30 33425 O 3264.63 -1.41413 1.17253 0
M  V30 33426 C 3264.69 1.24105 3.37399 0
M  V30 33427 C 3264.35 2.7015 3.68603 0
M  V30 33428 C 3265.35 3.68386 3.66863 0
M  V30 33429 C 3263.03 3.06566 3.97898 0
M  V30 33430 C 3265.03 5.01059 3.93979 0
M  V30 33431 C 3262.71 4.39426 4.24674 0
M  V30 33432 C 3263.71 5.36482 4.22701 0
M  V30 33433 O 3263.4 6.66951 4.48812 0
M  V30 33434 H 3263.13 0.311845 0.599774 0
M  V30 33435 H 3265.69 1.47412 1.43034 0
M  V30 33436 H 3263.92 0.579673 3.82331 0
M  V30 33437 H 3265.61 0.982447 3.93831 0
M  V30 33438 H 3266.37 3.41597 3.44291 0
M  V30 33439 H 3262.25 2.31645 3.98574 0
M  V30 33440 H 3265.79 5.76805 3.92354 0
M  V30 33441 H 3261.69 4.65953 4.46719 0
M  V30 33442 H 3262.46 6.726 4.66425 0
M  V30 33443 N 3265.12 -1.29758 0.894457 0
M  V30 33444 C 3266.07 -2.29828 0.357999 0
M  V30 33445 C 3267.06 -1.6056 -0.540065 0
M  V30 33446 O 3268.27 -1.74948 -0.423447 0
M  V30 33447 H 3264.65 -0.745701 0.0971314 0
M  V30 33448 H 3266.62 -2.72523 1.21547 0
M  V30 33449 C 3265.37 -3.45344 -0.404065 0
M  V30 33450 H 3264.69 -3.98834 0.277741 0
M  V30 33451 H 3266.13 -4.17415 -0.744372 0
M  V30 33452 C 3264.59 -2.96225 -1.60475 0
M  V30 33453 O 3265.12 -2.97056 -2.70408 0
M  V30 33454 N 3263.32 -2.5212 -1.44513 0
M  V30 33455 H 3262.87 -2.51643 -0.550776 0
M  V30 33456 H 3262.83 -2.19614 -2.24983 0
M  V30 33457 N 3266.6 -0.65639 -1.4328 0
M  V30 33458 C 3267.55 0.0556669 -2.27932 0
M  V30 33459 C 3268.53 0.791673 -1.40076 0
M  V30 33460 O 3269.73 0.673617 -1.63681 0
M  V30 33461 C 3266.86 1.01917 -3.27823 0
M  V30 33462 C 3265.94 0.28147 -4.23165 0
M  V30 33463 N 3266.33 -0.703717 -5.00881 0
M  V30 33464 C 3264.63 0.522481 -4.42929 0
M  V30 33465 C 3265.33 -1.14187 -5.70382 0
M  V30 33466 N 3264.31 -0.475489 -5.41516 0
M  V30 33467 H 3268.11 -0.70027 -2.85436 0
M  V30 33468 H 3265.62 -0.48393 -1.55022 0
M  V30 33469 H 3267.62 1.54411 -3.8725 0
M  V30 33470 H 3266.28 1.77513 -2.71881 0
M  V30 33471 H 3267.29 -1.08256 -5.06459 0
M  V30 33472 H 3263.97 1.25937 -3.98053 0
M  V30 33473 H 3265.36 -1.95722 -6.42762 0
M  V30 33474 N 3268.08 1.52478 -0.398513 0
M  V30 33475 C 3269.32 2.03603 0.180376 0
M  V30 33476 C 3269.68 1.27815 1.43274 0
M  V30 33477 O 3270.88 1.6911 2.08938 0
M  V30 33478 C 3269.16 3.54771 0.432682 0
M  V30 33479 S 3270.71 4.27704 0.980536 0
M  V30 33480 H 3267.53 0.709241 0.0499857 0
M  V30 33481 H 3270.13 1.87634 -0.548985 0
M  V30 33482 H 3268.84 4.07515 -0.485751 0
M  V30 33483 H 3268.37 3.74963 1.19021 0
M  V30 33484 H 3270.38 4.41638 2.26208 0
M  V30 33485 N 3269.56 0.128608 1.57074 0
M  V30 33486 C 3270.47 -0.831494 2.1937 0
M  V30 33487 C 3271.48 -1.28553 1.17261 0
M  V30 33488 O 3272.66 -1.34653 1.49768 0
M  V30 33489 C 3269.72 -2.06019 2.7885 0
M  V30 33490 C 3268.79 -1.65715 3.96026 0
M  V30 33491 C 3268.02 -2.82727 4.5266 0
M  V30 33492 O 3268.24 -3.98427 4.08182 0
M  V30 33493 O 3267.18 -2.59258 5.43202 0
M  V30 33494 H 3271 -0.331299 3.01888 0
M  V30 33495 H 3268.59 -0.0974964 1.49082 0
M  V30 33496 H 3270.47 -2.77961 3.16726 0
M  V30 33497 H 3269.14 -2.55026 1.99358 0
M  V30 33498 H 3268.05 -0.90851 3.62901 0
M  V30 33499 H 3269.38 -1.21441 4.76983 0
M  V30 33500 N 3271.04 -1.5693 -0.145178 0
M  V30 33501 C 3271.99 -1.94821 -1.18443 0
M  V30 33502 C 3272.97 -0.819708 -1.38454 0
M  V30 33503 O 3274.16 -1.08318 -1.39986 0
M  V30 33504 C 3271.29 -2.3339 -2.51762 0
M  V30 33505 C 3270.38 -3.52815 -2.35335 0
M  V30 33506 N 3270.77 -4.69295 -1.88667 0
M  V30 33507 C 3269.07 -3.57935 -2.6608 0
M  V30 33508 C 3269.77 -5.51388 -1.85328 0
M  V30 33509 N 3268.74 -4.93147 -2.28708 0
M  V30 33510 H 3272.54 -2.82353 -0.815736 0
M  V30 33511 H 3270.06 -1.58512 -0.353214 0
M  V30 33512 H 3272.06 -2.58741 -3.26892 0
M  V30 33513 H 3270.72 -1.47211 -2.89412 0
M  V30 33514 H 3271.73 -4.93016 -1.58606 0
M  V30 33515 H 3268.4 -2.823 -3.07592 0
M  V30 33516 H 3269.79 -6.54776 -1.50723 0
M  V30 33517 N 3272.51 0.414582 -1.52049 0
M  V30 33518 C 3273.76 1.15974 -1.65513 0
M  V30 33519 C 3274.08 1.91167 -0.384737 0
M  V30 33520 O 3273.35 1.86479 0.600214 0
M  V30 33521 H 3271.93 0.431105 -0.610047 0
M  V30 33522 H 3274.59 0.473106 -1.89071 0
M  V30 33523 H 3273.69 1.87682 -2.49363 0
M  V30 33524 N 3273.99 1.4258 0.671475 0
M  V30 33525 C 3275.23 1.44715 1.4435 0
M  V30 33526 C 3275.6 0.0626965 1.91898 0
M  V30 33527 O 3276.8 -0.0412317 2.68768 0
M  V30 33528 C 3275.07 2.44573 2.60612 0
M  V30 33529 S 3276.63 2.65437 3.49412 0
M  V30 33530 H 3273.44 0.512343 0.492976 0
M  V30 33531 H 3276.05 1.79208 0.781318 0
M  V30 33532 H 3274.75 3.43927 2.23925 0
M  V30 33533 H 3274.28 2.11516 3.317 0
M  V30 33534 H 3276.3 1.93988 4.56709 0
M  V30 33535 N 3275.47 -0.908102 1.28807 0
M  V30 33536 C 3276.88 -1.47295 1.14722 0
M  V30 33537 C 3277.23 -1.9446 -0.260729 0
M  V30 33538 O 3276.36 -1.82968 -1.1555 0
M  V30 33539 C 3276.95 -2.67708 2.07648 0
M  V30 33540 C 3275.51 -3.20355 1.9761 0
M  V30 33541 C 3274.66 -1.93054 1.99061 0
M  V30 33542 H 3277.61 -0.720258 1.41414 0
M  V30 33543 H 3277.63 -3.43162 1.64379 0
M  V30 33544 H 3277.14 -2.3335 3.10112 0
M  V30 33545 H 3275.24 -3.59425 0.982045 0
M  V30 33546 H 3275.36 -3.85221 2.84853 0
M  V30 33547 H 3273.72 -2.10397 1.43545 0
M  V30 33548 H 3274.5 -1.60984 3.03215 0
M  V30 33549 N 3276.95 -1.11147 -1.11732 0
M  V30 33550 C 3278.36 -0.84476 -1.3541 0
M  V30 33551 C 3278.56 0.532077 -1.94348 0
M  V30 33552 O 3277.62 1.2835 -2.17446 0
M  V30 33553 C 3278.93 -1.95041 -2.28866 0
M  V30 33554 C 3280.48 -1.97972 -2.42438 0
M  V30 33555 C 3280.96 -3.07731 -3.39213 0
M  V30 33556 N 3282.45 -3.07086 -3.46775 0
M  V30 33557 C 3283.18 -3.88653 -4.21588 0
M  V30 33558 N 3282.68 -4.80176 -4.99403 0
M  V30 33559 N 3284.47 -3.76842 -4.17069 0
M  V30 33560 H 3276.62 -1.99883 -0.718377 0
M  V30 33561 H 3278.88 -0.869043 -0.378771 0
M  V30 33562 H 3278.59 -2.94179 -1.92747 0
M  V30 33563 H 3278.46 -1.84395 -3.29057 0
M  V30 33564 H 3280.85 -0.99461 -2.77834 0
M  V30 33565 H 3280.93 -2.12694 -1.4211 0
M  V30 33566 H 3280.58 -4.06466 -3.04546 0
M  V30 33567 H 3280.51 -2.90249 -4.39389 0
M  V30 33568 H 3283 -2.40773 -2.91268 0
M  V30 33569 H 3283.31 -5.38956 -5.53847 0
M  V30 33570 H 3281.66 -4.84199 -4.98574 0
M  V30 33571 H 3284.85 -3.04688 -3.55363 0
M  V30 33572 H 3285.02 -4.40645 -4.75117 0
M  V30 33573 N 3278.43 1.29282 -0.901326 0
M  V30 33574 C 3279.38 2.25273 -0.351602 0
M  V30 33575 C 3280.36 1.51947 0.529249 0
M  V30 33576 O 3281.55 1.73068 0.371001 0
M  V30 33577 C 3278.68 3.40741 0.41837 0
M  V30 33578 C 3277.77 4.21403 -0.477494 0
M  V30 33579 N 3278.16 4.80309 -1.58546 0
M  V30 33580 C 3276.46 4.45148 -0.275583 0
M  V30 33581 C 3277.16 5.40886 -2.1405 0
M  V30 33582 N 3276.13 5.24363 -1.43333 0
M  V30 33583 H 3279.93 2.68377 -1.19795 0
M  V30 33584 H 3277.45 1.43911 -0.752563 0
M  V30 33585 H 3279.45 4.08576 0.82895 0
M  V30 33586 H 3278.11 2.99173 1.26196 0
M  V30 33587 H 3279.12 4.79044 -1.96818 0
M  V30 33588 H 3275.79 4.14129 0.529508 0
M  V30 33589 H 3277.18 5.97568 -3.07184 0
M  V30 33590 N 3279.9 0.663979 1.4293 0
M  V30 33591 C 3281.14 0.185514 2.03556 0
M  V30 33592 C 3281.51 -1.1819 1.51311 0
M  V30 33593 O 3282.71 -1.7544 2.03652 0
M  V30 33594 C 3280.98 0.206767 3.56801 0
M  V30 33595 S 3282.54 -0.202278 4.38334 0
M  V30 33596 H 3279.36 0.0772647 0.706789 0
M  V30 33597 H 3281.96 0.874719 1.7484 0
M  V30 33598 H 3280.66 1.20452 3.92326 0
M  V30 33599 H 3280.19 -0.502625 3.90176 0
M  V30 33600 H 3282.21 -1.43845 4.74893 0
M  V30 33601 N 3281.38 -1.52265 0.406593 0
M  V30 33602 C 3282.66 -1.94261 -0.228443 0
M  V30 33603 C 3283.04 -1.3433 -1.62845 0
M  V30 33604 O 3282.39 -0.518121 -2.22548 0
M  V30 33605 C 3282.6 -3.48192 -0.23734 0
M  V30 33606 C 3283.94 -4.22123 -0.457922 0
M  V30 33607 O 3284.97 -3.54788 -0.316806 0
M  V30 33608 O 3283.83 -5.41523 -0.735851 0
M  V30 33609 H 3280.92 -0.813925 -0.146477 0
M  V30 33610 H 3283.47 -1.6328 0.462353 0
M  V30 33611 H 3282.24 -3.84188 0.742624 0
M  V30 33612 H 3281.86 -3.85527 -0.972341 0
M  V30 33613 N 3282.86 -0.136936 -1.57004 0
M  V30 33614 C 3284.11 0.515656 -1.95411 0
M  V30 33615 C 3284.43 1.66059 -1.02222 0
M  V30 33616 O 3283.7 1.95729 -0.0818516 0
M  V30 33617 H 3282.28 0.193484 -0.721507 0
M  V30 33618 H 3284.94 -0.21008 -1.93764 0
M  V30 33619 H 3284.04 0.898442 -2.98889 0
M  V30 33620 N 3284.34 1.57005 0.136853 0
M  V30 33621 C 3285.29 1.99986 1.18778 0
M  V30 33622 C 3286.28 0.893867 1.43897 0
M  V30 33623 O 3287.49 1.07906 1.4407 0
M  V30 33624 H 3283.86 0.636758 0.400054 0
M  V30 33625 H 3285.83 2.87514 0.798645 0
M  V30 33626 C 3284.58 2.40507 2.51101 0
M  V30 33627 H 3283.9 3.25169 2.32605 0
M  V30 33628 H 3285.34 2.74395 3.23239 0
M  V30 33629 C 3283.8 1.26167 3.12384 0
M  V30 33630 O 3284.33 0.567906 3.97665 0
M  V30 33631 N 3282.54 1.0233 2.71987 0
M  V30 33632 H 3282.09 1.58924 2.02733 0
M  V30 33633 H 3282.04 0.260185 3.13322 0
M  V30 33634 N 3285.82 -0.406513 1.52267 0
M  V30 33635 C 3287.06 -1.15493 1.66701 0
M  V30 33636 C 3287.4 -1.90098 0.397052 0
M  V30 33637 O 3286.67 -1.84864 -0.604614 0
M  V30 33638 C 3286.95 -2.14729 2.89073 0
M  V30 33639 C 3286.81 -1.44004 4.26125 0
M  V30 33640 C 3288.13 -3.15368 3.06971 0
M  V30 33641 H 3285.24 -0.418504 0.606649 0
M  V30 33642 H 3287.89 -0.440349 1.84827 0
M  V30 33643 H 3286.04 -2.75668 2.7375 0
M  V30 33644 H 3287.71 -0.861642 4.53181 0
M  V30 33645 H 3285.95 -0.741989 4.27407 0
M  V30 33646 H 3286.62 -2.16427 5.07803 0
M  V30 33647 H 3289.1 -2.64506 3.21209 0
M  V30 33648 H 3287.97 -3.82065 3.94104 0
M  V30 33649 H 3288.24 -3.83243 2.20402 0
M  V30 33650 N 3287.29 -1.42934 -0.663904 0
M  V30 33651 C 3288.52 -1.47614 -1.45688 0
M  V30 33652 C 3288.94 -0.0920636 -1.87875 0
M  V30 33653 O 3288.3 0.911892 -1.56698 0
M  V30 33654 C 3288.35 -2.41804 -2.67513 0
M  V30 33655 O 3287.45 -1.89692 -3.66184 0
M  V30 33656 H 3286.8 -0.49971 -0.437248 0
M  V30 33657 H 3289.33 -1.87738 -0.813364 0
M  V30 33658 H 3289.34 -2.5875 -3.15456 0
M  V30 33659 H 3288.01 -3.42354 -2.36149 0
M  V30 33660 H 3286.59 -1.82355 -3.25271 0
M  V30 33661 N 3288.77 0.901258 -1.29287 0
M  V30 33662 C 3290 1.69037 -1.20172 0
M  V30 33663 C 3290.42 1.86633 0.234476 0
M  V30 33664 O 3289.78 1.38551 1.16933 0
M  V30 33665 C 3289.83 3.05325 -1.91857 0
M  V30 33666 O 3288.93 3.93488 -1.23455 0
M  V30 33667 H 3288.27 0.517134 -0.416495 0
M  V30 33668 H 3290.8 1.126 -1.70828 0
M  V30 33669 H 3290.81 3.55477 -2.00251 0
M  V30 33670 H 3289.49 2.91836 -2.96319 0
M  V30 33671 H 3288.07 3.51922 -1.23309 0
M  V30 33672 N 3290.25 1.11738 1.11141 0
M  V30 33673 C 3291.49 0.878151 1.84575 0
M  V30 33674 C 3291.85 -0.585573 1.82853 0
M  V30 33675 O 3293.06 -0.941688 2.51765 0
M  V30 33676 C 3291.33 1.42816 3.27625 0
M  V30 33677 S 3292.89 1.32637 4.18274 0
M  V30 33678 H 3289.7 0.316969 0.636437 0
M  V30 33679 H 3292.31 1.42548 1.33792 0
M  V30 33680 H 3291.01 2.4872 3.26445 0
M  V30 33681 H 3290.54 0.877993 3.83477 0
M  V30 33682 H 3292.56 0.292965 4.95334 0
M  V30 33683 N 3291.73 -1.28802 0.90817 0
M  V30 33684 C 3292.98 -1.94825 0.537374 0
M  V30 33685 C 3293.3 -1.71883 -0.920932 0
M  V30 33686 O 3292.57 -1.05537 -1.65042 0
M  V30 33687 H 3291.15 -0.720898 0.195742 0
M  V30 33688 H 3293.81 -1.56893 1.15631 0
M  V30 33689 H 3292.91 -3.03512 0.727105 0
M  V30 33690 N 3293.21 -0.67155 -1.42576 0
M  V30 33691 C 3294.48 -0.121563 -1.95222 0
M  V30 33692 C 3294.86 1.36287 -1.61212 0
M  V30 33693 O 3294.21 2.09745 -0.906598 0
M  V30 33694 C 3294.42 -0.38725 -3.46845 0
M  V30 33695 C 3295.77 -0.302012 -4.23525 0
M  V30 33696 O 3296.79 -0.320817 -3.54752 0
M  V30 33697 O 3295.65 -0.241413 -5.45967 0
M  V30 33698 H 3292.75 -0.000983152 -0.826999 0
M  V30 33699 H 3295.29 -0.746055 -1.52421 0
M  V30 33700 H 3294.06 -1.41569 -3.64793 0
M  V30 33701 H 3293.69 0.269411 -3.96686 0
M  V30 33702 N 3294.68 1.52047 -0.414663 0
M  V30 33703 C 3295.63 2.23993 0.42557 0
M  V30 33704 C 3296.62 1.25338 1.00892 0
M  V30 33705 O 3297.81 1.50548 0.930816 0
M  V30 33706 C 3294.94 3.06887 1.53868 0
M  V30 33707 C 3294.03 4.12956 0.96584 0
M  V30 33708 N 3294.42 5.05657 0.120141 0
M  V30 33709 C 3292.71 4.28538 1.23578 0
M  V30 33710 C 3293.42 5.81359 -0.199165 0
M  V30 33711 N 3292.39 5.42041 0.41141 0
M  V30 33712 H 3296.19 2.93024 -0.226798 0
M  V30 33713 H 3293.71 1.60828 -0.225404 0
M  V30 33714 H 3295.7 3.56987 2.15328 0
M  V30 33715 H 3294.36 2.39396 2.19362 0
M  V30 33716 H 3295.38 5.17322 -0.244592 0
M  V30 33717 H 3292.05 3.72276 1.88989 0
M  V30 33718 H 3293.44 6.66033 -0.885967 0
M  V30 33719 N 3296.16 0.145261 1.56929 0
M  V30 33720 C 3297.57 -0.375852 1.82878 0
M  V30 33721 C 3297.92 -1.64852 1.06387 0
M  V30 33722 O 3297.05 -2.14188 0.308608 0
M  V30 33723 C 3297.64 -0.688686 3.31727 0
M  V30 33724 C 3296.2 -1.15433 3.58263 0
M  V30 33725 C 3295.35 -0.176517 2.76738 0
M  V30 33726 H 3298.3 0.369987 1.54327 0
M  V30 33727 H 3298.32 -1.54353 3.47787 0
M  V30 33728 H 3297.83 0.237762 3.87371 0
M  V30 33729 H 3295.94 -2.09677 3.08003 0
M  V30 33730 H 3296.05 -1.0815 4.66734 0
M  V30 33731 H 3294.41 -0.6688 2.45762 0
M  V30 33732 H 3295.2 0.743491 3.35152 0
M  V30 33733 N 3297.64 -1.57075 -0.128525 0
M  V30 33734 C 3298.87 -1.88894 -0.856367 0
M  V30 33735 C 3299.29 -0.736226 -1.73093 0
M  V30 33736 O 3298.65 0.313597 -1.78567 0
M  V30 33737 C 3298.7 -3.19409 -1.67362 0
M  V30 33738 O 3297.8 -3.04644 -2.77967 0
M  V30 33739 H 3297.14 -0.620106 -0.237413 0
M  V30 33740 H 3299.67 -2.04283 -0.113785 0
M  V30 33741 H 3299.68 -3.51893 -2.06484 0
M  V30 33742 H 3298.36 -4.02905 -1.03154 0
M  V30 33743 H 3296.93 -2.83608 -2.42118 0
M  V30 33744 N 3299.12 0.398432 -1.5248 0
M  V30 33745 C 3300.03 1.51059 -1.79495 0
M  V30 33746 C 3301.05 1.60114 -0.681129 0
M  V30 33747 O 3302.22 1.76628 -0.967702 0
M  V30 33748 C 3299.29 2.86689 -1.94963 0
M  V30 33749 C 3298.35 2.87432 -3.18875 0
M  V30 33750 C 3297.58 4.16593 -3.33595 0
M  V30 33751 O 3297.8 5.11055 -2.53336 0
M  V30 33752 O 3296.74 4.24409 -4.26803 0
M  V30 33753 H 3300.56 1.31165 -2.73915 0
M  V30 33754 H 3298.15 0.585347 -1.37456 0
M  V30 33755 H 3300.03 3.67112 -2.06898 0
M  V30 33756 H 3298.71 3.06629 -1.03731 0
M  V30 33757 H 3297.61 2.05824 -3.12389 0
M  V30 33758 H 3298.95 2.72443 -4.09922 0
M  V30 33759 N 3300.6 1.43284 0.656314 0
M  V30 33760 C 3301.85 1.44451 1.41345 0
M  V30 33761 C 3302.17 0.068756 1.94879 0
M  V30 33762 O 3301.44 -0.895461 1.74236 0
M  V30 33763 H 3300.02 0.531824 0.524568 0
M  V30 33764 H 3302.68 1.78861 0.77426 0
M  V30 33765 H 3301.77 2.15525 2.25733 0
M  V30 33766 N 3302.08 -0.894389 1.29763 0
M  V30 33767 C 3303.32 -1.65961 1.19316 0
M  V30 33768 C 3303.68 -1.90363 -0.250186 0
M  V30 33769 O 3304.88 -2.64521 -0.477732 0
M  V30 33770 C 3303.15 -2.96914 1.98939 0
M  V30 33771 S 3304.71 -3.87924 2.05086 0
M  V30 33772 H 3301.53 -0.569728 0.42536 0
M  V30 33773 H 3304.13 -1.06233 1.64118 0
M  V30 33774 H 3302.83 -2.76871 3.02937 0
M  V30 33775 H 3302.37 -3.6168 1.54762 0
M  V30 33776 H 3304.38 -4.82175 1.1714 0
M  V30 33777 N 3303.55 -1.12326 -1.10547 0
M  V30 33778 C 3304.8 -0.877849 -1.82483 0
M  V30 33779 C 3305.13 0.59634 -1.85132 0
M  V30 33780 O 3304.38 1.45677 -1.30678 0
M  V30 33781 C 3304.68 -1.39632 -3.28995 0
M  V30 33782 C 3304.35 -2.88535 -3.46495 0
M  V30 33783 C 3303.01 -3.29193 -3.50978 0
M  V30 33784 C 3305.36 -3.84391 -3.51984 0
M  V30 33785 C 3302.69 -4.64416 -3.58517 0
M  V30 33786 C 3305.04 -5.19444 -3.61055 0
M  V30 33787 C 3303.71 -5.59646 -3.63803 0
M  V30 33788 H 3302.98 -0.321228 -0.667753 0
M  V30 33789 H 3305.62 -1.40325 -1.30312 0
M  V30 33790 H 3303.93 -0.791359 -3.83725 0
M  V30 33791 H 3305.63 -1.18266 -3.83163 0
M  V30 33792 H 3302.22 -2.56088 -3.43681 0
M  V30 33793 H 3306.4 -3.54075 -3.47771 0
M  V30 33794 H 3301.66 -4.94957 -3.58926 0
M  V30 33795 H 3305.83 -5.93546 -3.64247 0
M  V30 33796 H 3303.46 -6.64417 -3.69397 0
M  V30 33797 N 3305.03 1.28319 -0.914988 0
M  V30 33798 C 3306.27 1.96696 -0.555899 0
M  V30 33799 C 3306.64 1.7043 0.88417 0
M  V30 33800 O 3307.84 2.32388 1.3509 0
M  V30 33801 C 3306.11 3.46948 -0.858003 0
M  V30 33802 S 3307.67 4.34602 -0.605518 0
M  V30 33803 H 3304.48 0.680609 -0.205652 0
M  V30 33804 H 3307.09 1.55819 -1.1807 0
M  V30 33805 H 3305.79 3.6356 -1.904 0
M  V30 33806 H 3305.32 3.92774 -0.2219 0
M  V30 33807 H 3307.34 4.93225 0.542571 0
M  V30 33808 N 3306.51 0.679102 1.42218 0
M  V30 33809 C 3307.92 0.279909 1.8459 0
M  V30 33810 C 3308.27 -1.17878 1.56841 0
M  V30 33811 O 3307.4 -1.90293 1.03042 0
M  V30 33812 C 3307.99 0.501244 3.35072 0
M  V30 33813 C 3306.55 0.156131 3.76076 0
M  V30 33814 C 3305.7 0.791596 2.65761 0
M  V30 33815 H 3308.65 0.880955 1.32003 0
M  V30 33816 H 3308.67 -0.245282 3.79709 0
M  V30 33817 H 3308.18 1.56298 3.55236 0
M  V30 33818 H 3306.28 -0.901986 3.61518 0
M  V30 33819 H 3306.4 0.599656 4.75332 0
M  V30 33820 H 3304.76 0.222558 2.53726 0
M  V30 33821 H 3305.54 1.85687 2.88748 0
M  V30 33822 N 3307.99 -1.51825 0.42272 0
M  V30 33823 C 3309.4 -1.86649 -0.0437801 0
M  V30 33824 C 3309.75 -1.34074 -1.43243 0
M  V30 33825 O 3308.87 -0.685537 -2.05254 0
M  V30 33826 C 3309.47 -3.3869 -0.0862207 0
M  V30 33827 C 3308.03 -3.73103 -0.497091 0
M  V30 33828 C 3307.18 -2.75451 0.319703 0
M  V30 33829 H 3310.13 -1.45258 0.639207 0
M  V30 33830 H 3310.15 -3.69734 -0.898735 0
M  V30 33831 H 3309.66 -3.76926 0.924591 0
M  V30 33832 H 3307.76 -3.40452 -1.51405 0
M  V30 33833 H 3307.87 -4.78538 -0.232041 0
M  V30 33834 H 3306.24 -2.53749 -0.219918 0
M  V30 33835 H 3307.02 -3.16527 1.32912 0
M  V30 33836 N 3309.47 -0.153581 -1.5685 0
M  V30 33837 C 3310.74 0.541295 -1.87961 0
M  V30 33838 C 3311.12 1.82521 -1.06062 0
M  V30 33839 O 3310.47 2.28011 -0.149335 0
M  V30 33840 C 3310.68 0.800382 -3.39698 0
M  V30 33841 C 3312.03 1.13825 -4.09059 0
M  V30 33842 O 3313.05 0.889517 -3.44915 0
M  V30 33843 O 3311.91 1.60664 -5.2235 0
M  V30 33844 H 3309.01 0.276881 -0.779273 0
M  V30 33845 H 3311.55 -0.190687 -1.68625 0
M  V30 33846 H 3310.32 -0.108004 -3.91151 0
M  V30 33847 H 3309.95 1.58631 -3.64585 0
M  V30 33848 N 3310.94 1.57141 0.120193 0
M  V30 33849 C 3311.89 2.00254 1.14748 0
M  V30 33850 C 3312.86 0.874487 1.41216 0
M  V30 33851 O 3314.05 1.13862 1.53102 0
M  V30 33852 C 3311.19 2.41091 2.46919 0
M  V30 33853 C 3310.3 3.67307 2.27397 0
M  V30 33854 C 3309.43 3.97131 3.5279 0
M  V30 33855 C 3308.47 5.16533 3.2842 0
M  V30 33856 N 3307.61 5.42233 4.46013 0
M  V30 33857 H 3312.45 2.87804 0.772834 0
M  V30 33858 H 3309.99 1.42368 0.370112 0
M  V30 33859 H 3311.94 2.62805 3.24021 0
M  V30 33860 H 3310.57 1.56585 2.82278 0
M  V30 33861 H 3309.63 3.53216 1.41218 0
M  V30 33862 H 3310.94 4.54562 2.05365 0
M  V30 33863 H 3310.09 4.19487 4.3831 0
M  V30 33864 H 3308.83 3.0835 3.77852 0
M  V30 33865 H 3307.84 4.94024 2.4129 0
M  V30 33866 H 3309.06 6.06891 3.0473 0
M  V30 33867 H 3307.01 4.56409 4.71197 0
M  V30 33868 H 3306.92 6.23809 4.27081 0
M  V30 33869 H 3308.19 5.69107 5.3267 0
M  V30 33870 N 3312.42 -0.39034 1.5269 0
M  V30 33871 C 3313.67 -1.13719 1.67916 0
M  V30 33872 C 3314 -1.89666 0.417192 0
M  V30 33873 O 3313.28 -1.85495 -0.584972 0
M  V30 33874 C 3313.56 -2.11651 2.91335 0
M  V30 33875 C 3313.41 -1.39476 4.27629 0
M  V30 33876 C 3314.73 -3.12094 3.10299 0
M  V30 33877 H 3311.85 -0.412046 0.611054 0
M  V30 33878 H 3314.49 -0.420721 1.85283 0
M  V30 33879 H 3312.64 -2.72749 2.76659 0
M  V30 33880 H 3314.31 -0.813528 4.5407 0
M  V30 33881 H 3312.56 -0.696615 4.2817 0
M  V30 33882 H 3313.23 -2.11029 5.10069 0
M  V30 33883 H 3315.7 -2.61085 3.23997 0
M  V30 33884 H 3314.58 -3.77863 3.98134 0
M  V30 33885 H 3314.84 -3.80884 2.24454 0
M  V30 33886 N 3313.9 -1.4363 -0.648706 0
M  V30 33887 C 3314.83 -1.43592 -1.7736 0
M  V30 33888 C 3315.81 -0.296811 -1.59868 0
M  V30 33889 O 3317 -0.491097 -1.8199 0
M  V30 33890 C 3314.12 -1.25181 -3.14718 0
M  V30 33891 C 3313.17 -2.42426 -3.50901 0
M  V30 33892 S 3314 -4.04975 -3.50365 0
M  V30 33893 C 3315.16 -3.88955 -4.90372 0
M  V30 33894 H 3315.39 -2.38778 -1.77123 0
M  V30 33895 H 3312.92 -1.30716 -0.821755 0
M  V30 33896 H 3314.88 -1.15246 -3.93991 0
M  V30 33897 H 3313.54 -0.315358 -3.12513 0
M  V30 33898 H 3312.74 -2.25361 -4.50809 0
M  V30 33899 H 3312.34 -2.4901 -2.79052 0
M  V30 33900 H 3314.63 -3.51558 -5.79148 0
M  V30 33901 H 3315.57 -4.88631 -5.1249 0
M  V30 33902 H 3315.98 -3.21331 -4.64119 0
M  V30 33903 N 3315.38 0.887495 -1.30236 0
M  V30 33904 C 3316.31 2.00917 -1.18973 0
M  V30 33905 C 3317.29 1.69907 -0.0809818 0
M  V30 33906 O 3318.47 1.92417 -0.26258 0
M  V30 33907 C 3315.6 3.36015 -0.878153 0
M  V30 33908 C 3314.56 3.81275 -1.94456 0
M  V30 33909 C 3313.88 5.13635 -1.48603 0
M  V30 33910 C 3315.18 4.00275 -3.35526 0
M  V30 33911 H 3316.88 2.10598 -2.12812 0
M  V30 33912 H 3314.42 1.01187 -1.02456 0
M  V30 33913 H 3316.38 4.14004 -0.786027 0
M  V30 33914 H 3315.1 3.26459 0.0959205 0
M  V30 33915 H 3313.76 3.05512 -2.02628 0
M  V30 33916 H 3313.41 5.00506 -0.500292 0
M  V30 33917 H 3313.11 5.44889 -2.1993 0
M  V30 33918 H 3314.63 5.94153 -1.40764 0
M  V30 33919 H 3316.05 4.6871 -3.30127 0
M  V30 33920 H 3314.44 4.42901 -4.04918 0
M  V30 33921 H 3315.51 3.04211 -3.77602 0
M  V30 33922 N 3316.86 1.12911 1.0995 0
M  V30 33923 C 3317.77 0.814749 2.19998 0
M  V30 33924 C 3318.78 -0.198479 1.72864 0
M  V30 33925 O 3319.96 -0.0308478 2.01376 0
M  V30 33926 C 3317.02 0.279424 3.45572 0
M  V30 33927 C 3316.08 1.35322 4.07414 0
M  V30 33928 C 3315.32 0.84334 5.26995 0
M  V30 33929 O 3315.54 -0.321064 5.69496 0
M  V30 33930 O 3314.47 1.61522 5.79823 0
M  V30 33931 H 3318.3 1.73403 2.4933 0
M  V30 33932 H 3315.89 0.906149 1.18783 0
M  V30 33933 H 3317.77 -0.0139791 4.21398 0
M  V30 33934 H 3316.44 -0.612345 3.17855 0
M  V30 33935 H 3315.35 1.69986 3.3325 0
M  V30 33936 H 3316.68 2.21893 4.39345 0
M  V30 33937 N 3318.33 -1.27832 0.92178 0
M  V30 33938 C 3319.58 -1.94244 0.558008 0
M  V30 33939 C 3319.9 -1.7285 -0.90265 0
M  V30 33940 O 3319.17 -1.07282 -1.63913 0
M  V30 33941 H 3317.75 -0.718782 0.203377 0
M  V30 33942 H 3320.42 -1.55658 1.17289 0
M  V30 33943 H 3319.51 -3.02724 0.759256 0
M  V30 33944 N 3319.81 -0.686634 -1.41856 0
M  V30 33945 C 3321.04 -0.221073 -2.06218 0
M  V30 33946 C 3321.46 1.11759 -1.51299 0
M  V30 33947 O 3320.82 1.69768 -0.636283 0
M  V30 33948 C 3320.87 -0.179488 -3.60153 0
M  V30 33949 O 3319.97 0.848411 -4.03579 0
M  V30 33950 H 3319.31 -0.110239 -0.654785 0
M  V30 33951 H 3321.84 -0.93898 -1.81781 0
M  V30 33952 H 3321.85 -0.00732504 -4.07999 0
M  V30 33953 H 3320.53 -1.15654 -3.99496 0
M  V30 33954 H 3319.11 0.646328 -3.67256 0
M  V30 33955 N 3321.29 1.51599 -0.430766 0
M  V30 33956 C 3322.53 2.03939 0.137148 0
M  V30 33957 C 3322.89 1.30825 1.4053 0
M  V30 33958 O 3324.1 1.73504 2.05304 0
M  V30 33959 C 3322.37 3.55609 0.357332 0
M  V30 33960 S 3323.93 4.29688 0.889593 0
M  V30 33961 H 3320.74 0.710141 0.0349304 0
M  V30 33962 H 3323.35 1.86427 -0.588661 0
M  V30 33963 H 3322.05 4.06393 -0.572082 0
M  V30 33964 H 3321.58 3.77404 1.11041 0
M  V30 33965 H 3323.6 4.46337 2.16789 0
M  V30 33966 N 3322.77 0.161897 1.56766 0
M  V30 33967 C 3324.01 -0.486181 1.96886 0
M  V30 33968 C 3324.35 -1.63528 1.04748 0
M  V30 33969 O 3323.62 -1.94279 0.0927497 0
M  V30 33970 C 3323.91 -0.978159 3.4656 0
M  V30 33971 C 3323.76 0.170469 4.49477 0
M  V30 33972 C 3325.08 -1.85499 3.99096 0
M  V30 33973 H 3322.2 -0.175253 0.71586 0
M  V30 33974 H 3324.84 0.246132 1.88399 0
M  V30 33975 H 3322.99 -1.60219 3.53924 0
M  V30 33976 H 3324.66 0.807285 4.54181 0
M  V30 33977 H 3322.9 0.827396 4.25836 0
M  V30 33978 H 3323.57 -0.215733 5.51578 0
M  V30 33979 H 3326.05 -1.32901 3.94305 0
M  V30 33980 H 3324.93 -2.16828 5.04259 0
M  V30 33981 H 3325.19 -2.79736 3.42345 0
M  V30 33982 N 3324.25 -1.57203 -0.111858 0
M  V30 33983 C 3325.66 -1.74332 -0.66823 0
M  V30 33984 C 3326.01 -0.781641 -1.79958 0
M  V30 33985 O 3325.13 0.0437949 -2.16356 0
M  V30 33986 C 3325.73 -3.16113 -1.21895 0
M  V30 33987 C 3324.29 -3.34724 -1.72154 0
M  V30 33988 C 3323.43 -2.70184 -0.624175 0
M  V30 33989 H 3326.39 -1.58289 0.114109 0
M  V30 33990 H 3326.41 -3.18058 -2.08853 0
M  V30 33991 H 3325.92 -3.86081 -0.395314 0
M  V30 33992 H 3324.02 -2.69808 -2.56972 0
M  V30 33993 H 3324.13 -4.42935 -1.82607 0
M  V30 33994 H 3322.5 -2.31616 -1.05954 0
M  V30 33995 H 3323.28 -3.42782 0.188598 0
M  V30 33996 N 3325.72 0.382237 -1.52894 0
M  V30 33997 C 3326.63 1.49147 -1.81087 0
M  V30 33998 C 3327.65 1.59383 -0.698073 0
M  V30 33999 O 3328.83 1.75592 -0.986381 0
M  V30 34000 C 3325.89 2.84605 -1.97992 0
M  V30 34001 C 3324.95 2.84034 -3.21905 0
M  V30 34002 C 3324.19 4.13031 -3.37995 0
M  V30 34003 O 3324.41 5.08339 -2.58742 0
M  V30 34004 O 3323.34 4.19858 -4.3128 0
M  V30 34005 H 3327.17 1.28252 -2.75291 0
M  V30 34006 H 3324.75 0.570735 -1.38069 0
M  V30 34007 H 3326.64 3.64897 -2.1078 0
M  V30 34008 H 3325.31 3.05512 -1.06978 0
M  V30 34009 H 3324.22 2.02499 -3.14555 0
M  V30 34010 H 3325.55 2.6808 -4.12788 0
M  V30 34011 N 3327.2 1.43972 0.64108 0
M  V30 34012 C 3328.11 1.52541 1.78237 0
M  V30 34013 C 3329.13 0.411698 1.69059 0
M  V30 34014 O 3330.31 0.667604 1.90013 0
M  V30 34015 C 3327.37 1.45749 3.14576 0
M  V30 34016 C 3326.43 2.67891 3.3546 0
M  V30 34017 C 3325.66 2.61412 4.65295 0
M  V30 34018 O 3325.89 1.6686 5.45448 0
M  V30 34019 O 3324.82 3.52108 4.88163 0
M  V30 34020 H 3328.65 2.4894 1.73961 0
M  V30 34021 H 3326.23 1.26108 0.801076 0
M  V30 34022 H 3328.11 1.44447 3.9587 0
M  V30 34023 H 3326.79 0.524893 3.19416 0
M  V30 34024 H 3325.7 2.74762 2.53883 0
M  V30 34025 H 3327.03 3.60163 3.35475 0
M  V30 34026 N 3328.68 -0.880575 1.30704 0
M  V30 34027 C 3329.64 -1.9683 1.17433 0
M  V30 34028 C 3330.64 -1.60461 0.104334 0
M  V30 34029 O 3331.83 -1.7059 0.352788 0
M  V30 34030 C 3328.97 -3.31376 0.800158 0
M  V30 34031 H 3330.16 -2.1003 2.14073 0
M  V30 34032 H 3327.71 -1.06753 1.14164 0
M  V30 34033 H 3328.45 -3.23877 -0.165549 0
M  V30 34034 H 3328.23 -3.59144 1.57348 0
M  V30 34035 H 3329.72 -4.11154 0.730898 0
M  V30 34036 N 3330.16 -1.13492 -1.09349 0
M  V30 34037 C 3331.4 -0.907404 -1.83154 0
M  V30 34038 C 3331.76 0.556409 -1.83761 0
M  V30 34039 O 3332.96 0.901515 -2.53231 0
M  V30 34040 C 3331.24 -1.4801 -3.25312 0
M  V30 34041 S 3332.79 -1.39275 -4.1611 0
M  V30 34042 H 3329.61 -0.327054 -0.631313 0
M  V30 34043 H 3332.21 -1.44659 -1.31507 0
M  V30 34044 H 3330.92 -2.53882 -3.22447 0
M  V30 34045 H 3330.45 -0.938889 -3.82032 0
M  V30 34046 H 3332.46 -0.371732 -4.94806 0
M  V30 34047 N 3331.64 1.27341 -0.928546 0
M  V30 34048 C 3332.87 1.98435 -0.585769 0
M  V30 34049 C 3333.28 1.69262 0.83641 0
M  V30 34050 O 3332.64 0.953653 1.55601 0
M  V30 34051 C 3332.69 3.52465 -0.803154 0
M  V30 34052 O 3332.41 3.80617 -2.16938 0
M  V30 34053 C 3333.91 4.4081 -0.469205 0
M  V30 34054 H 3331.13 0.633247 -0.221898 0
M  V30 34055 H 3333.67 1.62173 -1.2458 0
M  V30 34056 H 3331.83 3.86934 -0.189914 0
M  V30 34057 H 3332.24 4.75201 -2.22001 0
M  V30 34058 H 3333.72 5.47894 -0.672002 0
M  V30 34059 H 3334.19 4.35147 0.595288 0
M  V30 34060 H 3334.8 4.11863 -1.06062 0
M  V30 34061 N 3333.12 0.694147 1.4149 0
M  V30 34062 C 3334.05 -0.0112339 2.29197 0
M  V30 34063 C 3335.06 -0.745852 1.4471 0
M  V30 34064 O 3336.25 -0.596791 1.68228 0
M  V30 34065 C 3333.35 -1.03998 3.22549 0
M  V30 34066 C 3332.52 -0.375271 4.35787 0
M  V30 34067 C 3331.58 -1.30643 5.09724 0
M  V30 34068 O 3330.61 -0.79936 5.63559 0
M  V30 34069 N 3331.81 -2.63884 5.17055 0
M  V30 34070 H 3334.57 0.741756 2.90376 0
M  V30 34071 H 3332.14 0.540066 1.52627 0
M  V30 34072 H 3334.13 -1.66461 3.6888 0
M  V30 34073 H 3332.7 -1.69452 2.62688 0
M  V30 34074 H 3331.92 0.429214 3.91856 0
M  V30 34075 H 3333.21 0.0869935 5.08726 0
M  V30 34076 H 3332.6 -3.07601 4.74761 0
M  V30 34077 H 3331.16 -3.21545 5.66967 0
M  V30 34078 N 3334.59 -1.51368 0.438799 0
M  V30 34079 C 3335.83 -2.04009 -0.126331 0
M  V30 34080 C 3336.2 -1.31569 -1.39835 0
M  V30 34081 O 3337.4 -1.74591 -2.04381 0
M  V30 34082 C 3335.67 -3.55794 -0.338468 0
M  V30 34083 S 3337.23 -4.30154 -0.866794 0
M  V30 34084 H 3334.05 -0.710317 -0.0311638 0
M  V30 34085 H 3336.65 -1.86112 0.59854 0
M  V30 34086 H 3335.35 -4.06084 0.593626 0
M  V30 34087 H 3334.88 -3.77987 -1.09038 0
M  V30 34088 H 3336.9 -4.47481 -2.14419 0
M  V30 34089 N 3336.07 -0.170208 -1.56678 0
M  V30 34090 C 3337.32 0.475113 -1.96024 0
M  V30 34091 C 3337.63 1.64464 -1.05882 0
M  V30 34092 O 3338.84 2.35612 -1.34905 0
M  V30 34093 C 3337.3 0.896643 -3.48552 0
M  V30 34094 C 3336.9 -0.247221 -4.47317 0
M  V30 34095 C 3338.65 1.51045 -3.96719 0
M  V30 34096 C 3336.55 0.193878 -5.91082 0
M  V30 34097 H 3335.48 0.18127 -0.731886 0
M  V30 34098 H 3338.14 -0.258262 -1.81673 0
M  V30 34099 H 3336.52 1.68596 -3.58317 0
M  V30 34100 H 3337.69 -1.02453 -4.49266 0
M  V30 34101 H 3336.01 -0.77091 -4.09202 0
M  V30 34102 H 3338.6 1.85249 -5.01584 0
M  V30 34103 H 3338.95 2.40796 -3.39593 0
M  V30 34104 H 3339.48 0.785584 -3.89966 0
M  V30 34105 H 3336.22 -0.668829 -6.52079 0
M  V30 34106 H 3335.74 0.936571 -5.92443 0
M  V30 34107 H 3337.42 0.638124 -6.43845 0
M  V30 34108 N 3337.55 1.5726 0.10352 0
M  V30 34109 C 3338.8 1.85291 0.806947 0
M  V30 34110 C 3339.12 0.757684 1.79678 0
M  V30 34111 O 3338.39 -0.216878 1.94696 0
M  V30 34112 H 3336.97 0.683672 0.301 0
M  V30 34113 H 3339.63 1.94705 0.0871544 0
M  V30 34114 H 3338.73 2.81741 1.34271 0
M  V30 34115 N 3339.03 -0.374123 1.53095 0
M  V30 34116 C 3339.94 -1.48184 1.81875 0
M  V30 34117 C 3340.95 -1.59011 0.706515 0
M  V30 34118 O 3342.13 -1.75066 0.995679 0
M  V30 34119 C 3339.19 -2.83551 1.99499 0
M  V30 34120 C 3338.26 -2.82323 3.23407 0
M  V30 34121 C 3337.49 -4.11233 3.40181 0
M  V30 34122 O 3337.71 -5.0696 2.61434 0
M  V30 34123 O 3336.65 -4.17565 4.33501 0
M  V30 34124 H 3340.47 -1.2679 2.75967 0
M  V30 34125 H 3338.06 -0.563405 1.38369 0
M  V30 34126 H 3339.94 -3.63774 2.12712 0
M  V30 34127 H 3338.61 -3.0494 1.08597 0
M  V30 34128 H 3337.52 -2.00828 3.15624 0
M  V30 34129 H 3338.85 -2.65887 4.14204 0
M  V30 34130 N 3340.51 -1.4431 -0.633436 0
M  V30 34131 C 3341.78 -1.37447 -1.39168 0
M  V30 34132 C 3342.16 -0.0320365 -2.11076 0
M  V30 34133 O 3341.51 0.985294 -2.06165 0
M  V30 34134 C 3341.72 -2.57108 -2.36001 0
M  V30 34135 C 3343.07 -3.01071 -2.99402 0
M  V30 34136 O 3344.09 -2.57297 -2.46327 0
M  V30 34137 O 3342.95 -3.76961 -3.9568 0
M  V30 34138 H 3340.05 -0.544177 -0.622737 0
M  V30 34139 H 3342.59 -1.56395 -0.658685 0
M  V30 34140 H 3341.36 -3.46425 -1.81949 0
M  V30 34141 H 3340.99 -2.40361 -3.16721 0
M  V30 34142 N 3341.98 0.873632 -1.3117 0
M  V30 34143 C 3343.23 1.62317 -1.20407 0
M  V30 34144 C 3343.55 1.93532 0.238795 0
M  V30 34145 O 3342.82 1.57973 1.15851 0
M  V30 34146 H 3341.4 0.601728 -0.442642 0
M  V30 34147 H 3344.07 1.0461 -1.64447 0
M  V30 34148 H 3343.16 2.56839 -1.77314 0
M  V30 34149 N 3343.46 1.1407 1.08746 0
M  V30 34150 C 3344.71 0.908113 1.81332 0
M  V30 34151 C 3345.04 -0.564079 1.85827 0
M  V30 34152 O 3344.32 -1.41771 1.33159 0
M  V30 34153 C 3344.6 1.50537 3.27125 0
M  V30 34154 C 3344.45 3.04717 3.30859 0
M  V30 34155 C 3345.77 1.17935 4.24004 0
M  V30 34156 H 3342.89 0.331337 0.65832 0
M  V30 34157 H 3345.53 1.41011 1.27342 0
M  V30 34158 H 3343.68 1.07845 3.73231 0
M  V30 34159 H 3345.35 3.56214 2.93103 0
M  V30 34160 H 3343.6 3.39345 2.70235 0
M  V30 34161 H 3344.27 3.4161 4.33597 0
M  V30 34162 H 3346.74 1.54838 3.86218 0
M  V30 34163 H 3345.62 1.62363 5.24337 0
M  V30 34164 H 3345.88 0.0941126 4.42 0
M  V30 34165 N 3344.94 -1.26847 0.935286 0
M  V30 34166 C 3345.87 -2.25725 0.397579 0
M  V30 34167 C 3346.89 -1.55689 -0.475901 0
M  V30 34168 O 3348.07 -1.76173 -0.287298 0
M  V30 34169 C 3345.17 -3.35923 -0.448249 0
M  V30 34170 C 3344.35 -4.35496 0.407701 0
M  V30 34171 C 3343.41 -5.2485 -0.376723 0
M  V30 34172 O 3342.43 -5.68782 0.218209 0
M  V30 34173 N 3343.63 -5.55818 -1.67471 0
M  V30 34174 H 3346.4 -2.72499 1.24758 0
M  V30 34175 H 3343.96 -1.40553 0.803529 0
M  V30 34176 H 3345.95 -3.92648 -0.980269 0
M  V30 34177 H 3344.52 -2.8869 -1.19903 0
M  V30 34178 H 3343.74 -3.77926 1.12097 0
M  V30 34179 H 3345.03 -4.99024 0.9926 0
M  V30 34180 H 3344.43 -5.21997 -2.18028 0
M  V30 34181 H 3342.99 -6.15211 -2.1531 0
M  V30 34182 N 3346.42 -0.701641 -1.4112 0
M  V30 34183 C 3347.37 -0.0168762 -2.27994 0
M  V30 34184 C 3348.35 0.746708 -1.42524 0
M  V30 34185 O 3349.54 0.621202 -1.65741 0
M  V30 34186 C 3346.67 0.914359 -3.30899 0
M  V30 34187 C 3345.76 0.146701 -4.23846 0
M  V30 34188 N 3346.15 -0.862712 -4.98388 0
M  V30 34189 C 3344.45 0.381302 -4.44367 0
M  V30 34190 C 3345.15 -1.32276 -5.66461 0
M  V30 34191 N 3344.13 -0.647527 -5.3973 0
M  V30 34192 H 3347.93 -0.790725 -2.83063 0
M  V30 34193 H 3345.44 -0.533004 -1.53404 0
M  V30 34194 H 3347.44 1.42013 -3.91967 0
M  V30 34195 H 3346.1 1.68774 -2.7739 0
M  V30 34196 H 3347.11 -1.24314 -5.02759 0
M  V30 34197 H 3343.79 1.13209 -4.01858 0
M  V30 34198 H 3345.18 -2.16072 -6.36209 0
M  V30 34199 N 3347.9 1.51133 -0.446821 0
M  V30 34200 C 3348.83 2.25757 0.395764 0
M  V30 34201 C 3349.84 1.30138 0.978155 0
M  V30 34202 O 3351.03 1.55825 0.870682 0
M  V30 34203 C 3348.13 3.00518 1.5666 0
M  V30 34204 C 3347.3 4.23306 1.10138 0
M  V30 34205 C 3346.36 4.80566 2.14343 0
M  V30 34206 O 3345.39 5.42148 1.73391 0
M  V30 34207 N 3346.59 4.65429 3.46924 0
M  V30 34208 H 3349.36 2.98706 -0.24386 0
M  V30 34209 H 3346.92 1.59526 -0.276233 0
M  V30 34210 H 3348.91 3.35708 2.26013 0
M  V30 34211 H 3347.48 2.3052 2.11138 0
M  V30 34212 H 3346.7 3.93501 0.234575 0
M  V30 34213 H 3347.99 5.02969 0.768097 0
M  V30 34214 H 3347.38 4.16398 3.82922 0
M  V30 34215 H 3345.94 5.04955 4.12145 0
M  V30 34216 N 3349.37 0.178515 1.56586 0
M  V30 34217 C 3350.62 -0.464583 1.97099 0
M  V30 34218 C 3350.95 -1.62765 1.06479 0
M  V30 34219 O 3350.2 -1.95442 0.100371 0
M  V30 34220 C 3350.5 -0.982492 3.4363 0
M  V30 34221 C 3350.17 0.0654438 4.50853 0
M  V30 34222 C 3348.83 0.353433 4.799 0
M  V30 34223 C 3351.18 0.77637 5.15385 0
M  V30 34224 C 3348.51 1.35761 5.70776 0
M  V30 34225 C 3350.86 1.76958 6.07345 0
M  V30 34226 C 3349.53 2.06494 6.34757 0
M  V30 34227 H 3348.8 -0.170003 0.721235 0
M  V30 34228 H 3351.44 0.271992 1.89559 0
M  V30 34229 H 3349.75 -1.79703 3.48158 0
M  V30 34230 H 3351.45 -1.4892 3.72322 0
M  V30 34231 H 3348.04 -0.169191 4.28266 0
M  V30 34232 H 3352.22 0.567094 4.93049 0
M  V30 34233 H 3347.48 1.59255 5.90295 0
M  V30 34234 H 3351.65 2.32578 6.56415 0
M  V30 34235 H 3349.28 2.84453 7.04975 0
M  V30 34236 N 3350.85 -1.57312 -0.0951784 0
M  V30 34237 C 3351.78 -2.05091 -1.11624 0
M  V30 34238 C 3352.76 -0.939812 -1.4178 0
M  V30 34239 O 3353.95 -1.21107 -1.51811 0
M  V30 34240 C 3351.08 -2.47527 -2.43613 0
M  V30 34241 C 3350.03 -3.623 -2.27866 0
M  V30 34242 C 3349.36 -3.90713 -3.65031 0
M  V30 34243 C 3350.66 -4.93192 -1.71928 0
M  V30 34244 H 3352.35 -2.90645 -0.718744 0
M  V30 34245 H 3349.9 -1.39824 -0.34429 0
M  V30 34246 H 3351.85 -2.79561 -3.15315 0
M  V30 34247 H 3350.58 -1.58973 -2.85298 0
M  V30 34248 H 3349.23 -3.30513 -1.58609 0
M  V30 34249 H 3348.88 -2.99326 -4.04244 0
M  V30 34250 H 3348.58 -4.67982 -3.5534 0
M  V30 34251 H 3350.11 -4.25221 -4.382 0
M  V30 34252 H 3351.52 -5.23607 -2.3347 0
M  V30 34253 H 3349.92 -5.74624 -1.72996 0
M  V30 34254 H 3350.99 -4.80127 -0.678705 0
M  V30 34255 N 3352.33 0.365999 -1.53291 0
M  V30 34256 C 3353.24 1.47218 -1.82658 0
M  V30 34257 C 3354.26 1.58634 -0.714938 0
M  V30 34258 O 3355.43 1.74536 -1.00495 0
M  V30 34259 C 3352.5 2.82489 -2.01 0
M  V30 34260 C 3351.56 2.80604 -3.249 0
M  V30 34261 C 3350.79 4.09423 -3.42357 0
M  V30 34262 O 3351.01 5.05566 -2.64119 0
M  V30 34263 O 3349.95 4.1526 -4.35709 0
M  V30 34264 H 3353.77 1.25325 -2.76636 0
M  V30 34265 H 3351.36 0.556059 -1.38666 0
M  V30 34266 H 3353.24 3.62641 -2.14638 0
M  V30 34267 H 3351.92 3.0436 -1.10212 0
M  V30 34268 H 3350.82 1.99152 -3.16685 0
M  V30 34269 H 3352.16 2.63687 -4.15608 0
M  V30 34270 N 3353.81 1.44644 0.625774 0
M  V30 34271 C 3354.77 1.51558 1.71939 0
M  V30 34272 C 3355.77 0.397015 1.55822 0
M  V30 34273 O 3356.96 0.659838 1.6122 0
M  V30 34274 C 3354.09 1.39466 3.11066 0
M  V30 34275 H 3355.29 2.48979 1.67181 0
M  V30 34276 H 3352.84 1.31815 0.839911 0
M  V30 34277 H 3353.57 0.431591 3.21415 0
M  V30 34278 H 3353.36 2.2058 3.24171 0
M  V30 34279 H 3354.85 1.47297 3.9076 0
M  V30 34280 N 3355.29 -0.866663 1.31631 0
M  V30 34281 C 3356.53 -1.62226 1.22696 0
M  V30 34282 C 3356.89 -1.91227 -0.2121 0
M  V30 34283 O 3356.18 -1.53514 -1.14647 0
M  V30 34284 C 3356.37 -2.95672 2.0078 0
M  V30 34285 C 3356.2 -2.79701 3.52132 0
M  V30 34286 C 3354.97 -2.78715 4.21481 0
M  V30 34287 C 3357.17 -2.54322 4.47018 0
M  V30 34288 N 3355.15 -2.53828 5.58967 0
M  V30 34289 C 3356.52 -2.3873 5.72196 0
M  V30 34290 C 3358.58 -2.39693 4.36408 0
M  V30 34291 C 3357.28 -2.09996 6.87964 0
M  V30 34292 C 3359.31 -2.12348 5.51962 0
M  V30 34293 C 3358.67 -1.97547 6.76132 0
M  V30 34294 H 3354.77 -0.597836 0.504099 0
M  V30 34295 H 3357.35 -1.01976 1.65858 0
M  V30 34296 H 3355.52 -3.53922 1.59981 0
M  V30 34297 H 3357.26 -3.60536 1.83837 0
M  V30 34298 H 3354.01 -2.91217 3.73483 0
M  V30 34299 H 3354.44 -2.44347 6.31367 0
M  V30 34300 H 3359.08 -2.49862 3.4107 0
M  V30 34301 H 3356.8 -1.98565 7.83325 0
M  V30 34302 H 3360.38 -2.01824 5.45672 0
M  V30 34303 H 3359.26 -1.76687 7.64036 0
M  V30 34304 N 3356.77 -1.14645 -1.0814 0
M  V30 34305 C 3358.01 -0.917717 -1.80847 0
M  V30 34306 C 3358.34 0.554217 -1.86124 0
M  V30 34307 O 3357.62 1.41062 -1.33909 0
M  V30 34308 C 3357.9 -1.5227 -3.26322 0
M  V30 34309 C 3357.76 -3.06467 -3.29239 0
M  V30 34310 C 3359.07 -1.20182 -4.23372 0
M  V30 34311 H 3356.19 -0.334823 -0.656553 0
M  V30 34312 H 3358.84 -1.41684 -1.26592 0
M  V30 34313 H 3356.99 -1.09823 -3.72654 0
M  V30 34314 H 3358.66 -3.57763 -2.9121 0
M  V30 34315 H 3356.9 -3.40774 -2.68432 0
M  V30 34316 H 3357.57 -3.43905 -4.31779 0
M  V30 34317 H 3360.05 -1.56884 -3.85391 0
M  V30 34318 H 3358.92 -1.65141 -5.23469 0
M  V30 34319 H 3359.18 -0.117552 -4.41944 0
M  V30 34320 N 3358.24 1.26349 -0.942 0
M  V30 34321 C 3359.65 1.75658 -0.632553 0
M  V30 34322 C 3360.01 1.76723 0.852256 0
M  V30 34323 O 3359.13 1.37988 1.66698 0
M  V30 34324 C 3359.73 3.18991 -1.1415 0
M  V30 34325 C 3358.28 3.65909 -0.882455 0
M  V30 34326 C 3357.43 2.45366 -1.29193 0
M  V30 34327 H 3360.38 1.12414 -1.12021 0
M  V30 34328 H 3360.4 3.77257 -0.495706 0
M  V30 34329 H 3359.92 3.18183 -2.22218 0
M  V30 34330 H 3358.02 3.72146 0.183808 0
M  V30 34331 H 3358.13 4.54681 -1.51004 0
M  V30 34332 H 3356.49 2.44594 -0.710359 0
M  V30 34333 H 3357.28 2.47258 -2.38156 0
M  V30 34334 N 3359.72 0.709115 1.40746 0
M  V30 34335 C 3361 0.17328 1.94831 0
M  V30 34336 C 3361.38 -1.31964 1.64768 0
M  V30 34337 O 3360.73 -2.07268 0.96189 0
M  V30 34338 C 3360.94 0.479074 3.45696 0
M  V30 34339 C 3362.28 0.414196 4.22575 0
M  V30 34340 O 3363.31 0.414761 3.53777 0
M  V30 34341 O 3362.17 0.386082 5.45135 0
M  V30 34342 H 3359.26 0.0229092 0.826683 0
M  V30 34343 H 3361.81 0.786205 1.50389 0
M  V30 34344 H 3360.58 1.51191 3.60911 0
M  V30 34345 H 3360.2 -0.164142 3.97261 0
M  V30 34346 N 3361.2 -1.50894 0.454829 0
M  V30 34347 C 3362.15 -2.25043 -0.366033 0
M  V30 34348 C 3363.13 -1.27969 -0.975331 0
M  V30 34349 O 3364.33 -1.52963 -0.890573 0
M  V30 34350 C 3361.45 -3.10858 -1.45678 0
M  V30 34351 C 3360.54 -4.15371 -0.856013 0
M  V30 34352 N 3360.93 -5.05798 0.0139676 0
M  V30 34353 C 3359.23 -4.31663 -1.12173 0
M  V30 34354 C 3359.93 -5.80627 0.353232 0
M  V30 34355 N 3358.91 -5.42941 -0.267552 0
M  V30 34356 H 3362.71 -2.92319 0.304408 0
M  V30 34357 H 3360.22 -1.60174 0.267966 0
M  V30 34358 H 3362.22 -3.6257 -2.05787 0
M  V30 34359 H 3360.88 -2.45128 -2.12937 0
M  V30 34360 H 3361.89 -5.16492 0.381664 0
M  V30 34361 H 3358.57 -3.77156 -1.79052 0
M  V30 34362 H 3359.96 -6.6345 1.06224 0
M  V30 34363 N 3362.68 -0.186817 -1.56489 0
M  V30 34364 C 3363.61 0.769066 -2.15912 0
M  V30 34365 C 3364.62 1.18271 -1.11875 0
M  V30 34366 O 3365.81 1.11987 -1.39001 0
M  V30 34367 C 3362.91 2.04877 -2.6996 0
M  V30 34368 C 3362.08 1.79624 -3.98816 0
M  V30 34369 C 3361.14 2.91962 -4.37772 0
M  V30 34370 O 3360.17 2.61927 -5.05354 0
M  V30 34371 N 3361.37 4.20121 -4.00598 0
M  V30 34372 H 3364.14 0.260954 -2.98562 0
M  V30 34373 H 3361.7 -0.00456203 -1.61899 0
M  V30 34374 H 3363.69 2.79153 -2.93011 0
M  V30 34375 H 3362.26 2.46834 -1.91812 0
M  V30 34376 H 3361.48 0.891709 -3.83982 0
M  V30 34377 H 3362.77 1.60139 -4.82942 0
M  V30 34378 H 3362.17 4.47379 -3.46221 0
M  V30 34379 H 3360.72 4.91051 -4.28617 0
M  V30 34380 N 3364.16 1.57361 0.0868344 0
M  V30 34381 C 3365.57 1.75373 0.640411 0
M  V30 34382 C 3365.92 0.810172 1.78692 0
M  V30 34383 O 3365.04 -0.00936909 2.16398 0
M  V30 34384 C 3365.64 3.18012 1.1685 0
M  V30 34385 C 3364.2 3.3742 1.66807 0
M  V30 34386 C 3363.34 2.71143 0.581112 0
M  V30 34387 H 3366.29 1.58088 -0.139277 0
M  V30 34388 H 3366.32 3.2134 2.03766 0
M  V30 34389 H 3365.83 3.86661 0.333841 0
M  V30 34390 H 3363.93 2.73862 2.52647 0
M  V30 34391 H 3364.04 4.45784 1.75537 0
M  V30 34392 H 3362.41 2.33272 1.02255 0
M  V30 34393 H 3363.19 3.42438 -0.243107 0
M  V30 34394 N 3365.63 -0.357865 1.53483 0
M  V30 34395 C 3366.87 -1.10828 1.71745 0
M  V30 34396 C 3367.24 -1.86326 0.463336 0
M  V30 34397 O 3368.44 -2.63668 0.522761 0
M  V30 34398 C 3366.71 -2.0359 2.93745 0
M  V30 34399 S 3368.27 -2.86048 3.32749 0
M  V30 34400 H 3365.09 -0.374699 0.604253 0
M  V30 34401 H 3367.69 -0.388532 1.916 0
M  V30 34402 H 3366.39 -1.46902 3.83207 0
M  V30 34403 H 3365.92 -2.80025 2.76314 0
M  V30 34404 H 3367.94 -4.05933 2.85365 0
M  V30 34405 N 3367.11 -1.44974 -0.618094 0
M  V30 34406 C 3368.04 -1.4884 -1.74296 0
M  V30 34407 C 3369.06 -0.380308 -1.58296 0
M  V30 34408 O 3370.25 -0.646787 -1.6637 0
M  V30 34409 C 3367.35 -1.31906 -3.12176 0
M  V30 34410 C 3366.52 -2.56199 -3.54515 0
M  V30 34411 C 3365.58 -2.33975 -4.7132 0
M  V30 34412 O 3364.6 -3.07534 -4.78969 0
M  V30 34413 N 3365.81 -1.37864 -5.63892 0
M  V30 34414 H 3368.57 -2.45818 -1.71446 0
M  V30 34415 H 3366.13 -1.40579 -0.803062 0
M  V30 34416 H 3368.12 -1.14865 -3.88057 0
M  V30 34417 H 3366.69 -0.432445 -3.09594 0
M  V30 34418 H 3365.91 -2.88428 -2.68706 0
M  V30 34419 H 3367.2 -3.38842 -3.79557 0
M  V30 34420 H 3366.6 -0.771371 -5.60416 0
M  V30 34421 H 3365.16 -1.26798 -6.39348 0
M  V30 34422 N 3368.59 0.85967 -1.32089 0
M  V30 34423 C 3369.84 1.60833 -1.21719 0
M  V30 34424 C 3370.15 1.94349 0.22087 0
M  V30 34425 O 3371.36 2.67805 0.446375 0
M  V30 34426 C 3369.81 2.89993 -2.13148 0
M  V30 34427 C 3369.42 2.63921 -3.62008 0
M  V30 34428 C 3371.17 3.68001 -2.11603 0
M  V30 34429 C 3369.07 3.89051 -4.45414 0
M  V30 34430 H 3368 0.603499 -0.452001 0
M  V30 34431 H 3370.65 0.94966 -1.57015 0
M  V30 34432 H 3369.04 3.57291 -1.70761 0
M  V30 34433 H 3370.21 2.04966 -4.12705 0
M  V30 34434 H 3368.52 1.99252 -3.65633 0
M  V30 34435 H 3371.12 4.60845 -2.71157 0
M  V30 34436 H 3371.46 4.01346 -1.10575 0
M  V30 34437 H 3372 3.076 -2.52244 0
M  V30 34438 H 3368.74 3.60849 -5.47237 0
M  V30 34439 H 3368.26 4.4742 -3.99469 0
M  V30 34440 H 3369.94 4.56838 -4.58157 0
M  V30 34441 N 3370.07 1.15217 1.0753 0
M  V30 34442 C 3371.31 0.936428 1.81688 0
M  V30 34443 C 3371.67 -0.527104 1.84623 0
M  V30 34444 O 3372.87 -0.861114 2.54634 0
M  V30 34445 C 3371.14 1.53166 3.22916 0
M  V30 34446 S 3372.7 1.45877 4.13842 0
M  V30 34447 H 3369.52 0.337056 0.62603 0
M  V30 34448 H 3372.12 1.46733 1.29189 0
M  V30 34449 H 3370.83 2.5898 3.18367 0
M  V30 34450 H 3370.36 0.999548 3.8049 0
M  V30 34451 H 3372.37 0.450404 4.94152 0
M  V30 34452 N 3371.55 -1.25848 0.948687 0
M  V30 34453 C 3372.77 -1.97478 0.617264 0
M  V30 34454 C 3373.19 -1.70571 -0.809376 0
M  V30 34455 O 3372.55 -0.978287 -1.54064 0
M  V30 34456 C 3372.6 -3.51143 0.859127 0
M  V30 34457 O 3372.32 -3.77118 2.22966 0
M  V30 34458 C 3373.82 -4.40008 0.539275 0
M  V30 34459 H 3371.04 -0.629637 0.231944 0
M  V30 34460 H 3373.58 -1.60171 1.27144 0
M  V30 34461 H 3371.74 -3.86583 0.251448 0
M  V30 34462 H 3372.15 -4.71609 2.29533 0
M  V30 34463 H 3373.63 -5.46756 0.759083 0
M  V30 34464 H 3374.1 -4.36039 -0.525985 0
M  V30 34465 H 3374.71 -4.10123 1.12601 0
M  V30 34466 N 3373.02 -0.716569 -1.40368 0
M  V30 34467 C 3374.26 -0.260935 -2.02728 0
M  V30 34468 C 3374.63 1.12493 -1.55593 0
M  V30 34469 O 3375.83 1.67761 -2.10023 0
M  V30 34470 C 3374.1 -0.339049 -3.55788 0
M  V30 34471 S 3375.66 0.0394545 -4.38782 0
M  V30 34472 H 3372.48 -0.103444 -0.703435 0
M  V30 34473 H 3375.08 -0.939007 -1.71473 0
M  V30 34474 H 3373.78 -1.3493 -3.87585 0
M  V30 34475 H 3373.31 0.357467 -3.91773 0
M  V30 34476 H 3375.33 1.2612 -4.79904 0
M  V30 34477 N 3374.5 1.50651 -0.462825 0
M  V30 34478 C 3375.43 2.31218 0.325683 0
M  V30 34479 C 3376.41 1.37752 0.997918 0
M  V30 34480 O 3377.6 1.66673 0.996678 0
M  V30 34481 C 3374.73 3.17266 1.41277 0
M  V30 34482 C 3373.68 4.19217 0.862613 0
M  V30 34483 C 3373.01 4.9395 2.04737 0
M  V30 34484 C 3374.31 5.22161 -0.120457 0
M  V30 34485 H 3376 2.97386 -0.346718 0
M  V30 34486 H 3373.55 1.43014 -0.168188 0
M  V30 34487 H 3375.5 3.72421 1.97181 0
M  V30 34488 H 3374.23 2.48968 2.11383 0
M  V30 34489 H 3372.88 3.65151 0.325607 0
M  V30 34490 H 3372.53 4.22131 2.73522 0
M  V30 34491 H 3372.23 5.62907 1.68552 0
M  V30 34492 H 3373.76 5.51937 2.61147 0
M  V30 34493 H 3375.17 5.72236 0.349126 0
M  V30 34494 H 3373.57 5.98791 -0.396166 0
M  V30 34495 H 3374.64 4.73417 -1.04904 0
M  V30 34496 N 3375.98 0.195113 1.56388 0
M  V30 34497 C 3377.21 -0.452363 2.02407 0
M  V30 34498 C 3377.63 -1.544 1.07435 0
M  V30 34499 O 3376.99 -1.81208 0.0578564 0
M  V30 34500 C 3377.04 -0.985717 3.46866 0
M  V30 34501 O 3376.14 -2.09861 3.5501 0
M  V30 34502 H 3375.48 -0.105708 0.655532 0
M  V30 34503 H 3378.01 0.305995 2.02299 0
M  V30 34504 H 3378.02 -1.30231 3.86657 0
M  V30 34505 H 3376.7 -0.186589 4.15481 0
M  V30 34506 H 3375.27 -1.79065 3.27093 0
M  V30 34507 N 3377.46 -1.57404 -0.0784879 0
M  V30 34508 C 3378.71 -1.86551 -0.777366 0
M  V30 34509 C 3379.03 -0.786173 -1.7845 0
M  V30 34510 O 3378.3 0.185876 -1.95016 0
M  V30 34511 H 3376.88 -0.688375 -0.290085 0
M  V30 34512 H 3379.54 -1.94819 -0.0561675 0
M  V30 34513 H 3378.64 -2.83841 -1.29771 0
M  V30 34514 N 3378.94 0.34972 -1.53671 0
M  V30 34515 C 3380.35 0.692431 -1.43797 0
M  V30 34516 C 3380.55 1.92676 -0.589753 0
M  V30 34517 O 3379.61 2.52378 -0.0783383 0
M  V30 34518 C 3380.92 0.89083 -2.87202 0
M  V30 34519 C 3382.47 0.98984 -2.96936 0
M  V30 34520 C 3382.94 1.2206 -4.41436 0
M  V30 34521 N 3384.44 1.28794 -4.44934 0
M  V30 34522 C 3385.17 1.48388 -5.53867 0
M  V30 34523 N 3384.67 1.65196 -6.72817 0
M  V30 34524 N 3386.46 1.50886 -5.4147 0
M  V30 34525 H 3378.61 -0.461931 -2.07316 0
M  V30 34526 H 3380.87 -0.144698 -0.936892 0
M  V30 34527 H 3380.58 0.0554477 -3.51656 0
M  V30 34528 H 3380.45 1.79436 -3.31787 0
M  V30 34529 H 3382.84 1.81575 -2.32625 0
M  V30 34530 H 3382.92 0.0633456 -2.55722 0
M  V30 34531 H 3382.57 0.39964 -5.06325 0
M  V30 34532 H 3382.5 2.16056 -4.80237 0
M  V30 34533 H 3384.99 1.17355 -3.59216 0
M  V30 34534 H 3385.3 1.79765 -7.51601 0
M  V30 34535 H 3383.64 1.62344 -6.75773 0
M  V30 34536 H 3386.84 1.37334 -4.47501 0
M  V30 34537 H 3387.01 1.65815 -6.26426 0
M  V30 34538 N 3380.41 1.45299 0.610397 0
M  V30 34539 C 3381.36 1.53756 1.72127 0
M  V30 34540 C 3382.33 0.38366 1.61608 0
M  V30 34541 O 3383.52 0.596726 1.81229 0
M  V30 34542 C 3380.66 1.50755 3.1043 0
M  V30 34543 C 3379.77 2.76675 3.31775 0
M  V30 34544 C 3378.9 2.65364 4.60169 0
M  V30 34545 C 3377.94 3.86351 4.74762 0
M  V30 34546 N 3377.08 3.73592 5.94452 0
M  V30 34547 H 3381.92 2.48658 1.64235 0
M  V30 34548 H 3379.46 1.23388 0.800857 0
M  V30 34549 H 3381.42 1.47003 3.90443 0
M  V30 34550 H 3380.05 0.594054 3.17287 0
M  V30 34551 H 3379.1 2.90527 2.45558 0
M  V30 34552 H 3380.41 3.66422 3.38433 0
M  V30 34553 H 3379.56 2.59562 5.48372 0
M  V30 34554 H 3378.3 1.73212 4.55904 0
M  V30 34555 H 3377.31 3.92515 3.84983 0
M  V30 34556 H 3378.53 4.79566 4.80826 0
M  V30 34557 H 3376.48 2.84207 5.91238 0
M  V30 34558 H 3376.4 4.56971 6.02257 0
M  V30 34559 H 3377.66 3.71717 6.85162 0
M  V30 34560 N 3381.89 -0.852653 1.32543 0
M  V30 34561 C 3383.14 -1.60936 1.234 0
M  V30 34562 C 3383.47 -1.93133 -0.20326 0
M  V30 34563 O 3382.75 -1.57521 -1.14094 0
M  V30 34564 C 3383.03 -2.92838 2.09566 0
M  V30 34565 C 3382.88 -2.6741 3.6168 0
M  V30 34566 C 3384.2 -3.94129 1.95832 0
M  V30 34567 H 3381.32 -0.583963 0.449618 0
M  V30 34568 H 3383.96 -0.984432 1.62508 0
M  V30 34569 H 3382.11 -3.46173 1.76342 0
M  V30 34570 H 3383.78 -2.20614 4.05126 0
M  V30 34571 H 3382.03 -2.0134 3.84245 0
M  V30 34572 H 3382.7 -3.61339 4.17298 0
M  V30 34573 H 3385.17 -3.50058 2.24941 0
M  V30 34574 H 3384.05 -4.84276 2.58396 0
M  V30 34575 H 3384.31 -4.32282 0.926542 0
M  V30 34576 N 3383.37 -1.15786 -1.06918 0
M  V30 34577 C 3384.32 -0.854544 -2.16334 0
M  V30 34578 C 3385.31 0.173838 -1.68506 0
M  V30 34579 O 3386.52 0.0284405 -1.79978 0
M  V30 34580 H 3382.89 -0.258706 -0.706099 0
M  V30 34581 H 3384.86 -1.7849 -2.39132 0
M  V30 34582 C 3383.61 -0.365103 -3.45778 0
M  V30 34583 H 3382.94 -1.14783 -3.82969 0
M  V30 34584 H 3384.38 -0.191579 -4.23567 0
M  V30 34585 C 3382.84 0.914196 -3.24259 0
M  V30 34586 O 3383.37 1.98481 -3.4924 0
M  V30 34587 N 3381.57 0.855452 -2.77724 0
M  V30 34588 H 3381.12 -0.0159686 -2.57595 0
M  V30 34589 H 3381.08 1.71193 -2.63705 0
M  V30 34590 N 3384.85 1.25343 -0.955348 0
M  V30 34591 C 3386.09 1.94827 -0.618195 0
M  V30 34592 C 3386.45 1.73157 0.829501 0
M  V30 34593 O 3387.65 2.36568 1.27628 0
M  V30 34594 C 3385.92 3.44043 -0.967947 0
M  V30 34595 S 3387.48 4.32456 -0.743477 0
M  V30 34596 H 3384.3 0.673722 -0.227201 0
M  V30 34597 H 3386.9 1.51984 -1.22968 0
M  V30 34598 H 3385.61 3.57319 -2.0187 0
M  V30 34599 H 3385.14 3.91869 -0.346746 0
M  V30 34600 H 3387.15 4.94701 0.38538 0
M  V30 34601 N 3386.33 0.724003 1.39986 0
M  V30 34602 C 3387.56 0.277056 2.05037 0
M  V30 34603 C 3387.97 -1.08418 1.54567 0
M  V30 34604 O 3387.33 -1.68298 0.705824 0
M  V30 34605 C 3387.38 0.257573 3.60581 0
M  V30 34606 O 3387.1 1.56507 4.09191 0
M  V30 34607 C 3388.6 -0.206894 4.42817 0
M  V30 34608 H 3385.82 0.122974 0.659635 0
M  V30 34609 H 3388.36 0.984571 1.79239 0
M  V30 34610 H 3386.52 -0.400969 3.85319 0
M  V30 34611 H 3386.93 1.47121 5.03444 0
M  V30 34612 H 3388.41 -0.169373 5.5174 0
M  V30 34613 H 3388.88 -1.25038 4.21025 0
M  V30 34614 H 3389.49 0.421679 4.23204 0
M  V30 34615 N 3387.81 -1.50403 0.470808 0
M  V30 34616 C 3389.03 -2.06738 -0.0819771 0
M  V30 34617 C 3389.45 -1.33471 -1.33533 0
M  V30 34618 O 3388.81 -0.403903 -1.77974 0
M  V30 34619 C 3388.86 -3.59598 -0.370364 0
M  V30 34620 O 3388.58 -4.30102 0.833275 0
M  V30 34621 C 3390.08 -4.32554 -0.970146 0
M  V30 34622 H 3387.3 -0.670964 0.00695682 0
M  V30 34623 H 3389.84 -1.93574 0.65951 0
M  V30 34624 H 3388 -3.72565 -1.06178 0
M  V30 34625 H 3388.41 -5.21309 0.577706 0
M  V30 34626 H 3389.89 -5.40483 -1.1217 0
M  V30 34627 H 3390.36 -3.93032 -1.96017 0
M  V30 34628 H 3390.97 -4.24116 -0.317115 0
M  V30 34629 N 3389.28 -0.203404 -1.56282 0
M  V30 34630 C 3390.22 0.746122 -2.16716 0
M  V30 34631 C 3391.23 1.17077 -1.13123 0
M  V30 34632 O 3392.42 1.10506 -1.4018 0
M  V30 34633 C 3389.52 2.02002 -2.72118 0
M  V30 34634 C 3388.69 1.75384 -4.00698 0
M  V30 34635 C 3387.75 2.87302 -4.40844 0
M  V30 34636 O 3386.78 2.56552 -5.08104 0
M  V30 34637 N 3387.98 4.15849 -4.05031 0
M  V30 34638 H 3390.74 0.229273 -2.98822 0
M  V30 34639 H 3388.3 -0.0217334 -1.61885 0
M  V30 34640 H 3390.3 2.7603 -2.95956 0
M  V30 34641 H 3388.87 2.44786 -1.94419 0
M  V30 34642 H 3388.09 0.850932 -3.84906 0
M  V30 34643 H 3389.37 1.55008 -4.84613 0
M  V30 34644 H 3388.77 4.43682 -3.50946 0
M  V30 34645 H 3387.33 4.86477 -4.33801 0
M  V30 34646 N 3390.76 1.57444 0.0701393 0
M  V30 34647 C 3392.17 1.76042 0.621774 0
M  V30 34648 C 3392.52 0.829079 1.77822 0
M  V30 34649 O 3391.65 0.0135833 2.16396 0
M  V30 34650 C 3392.24 3.19233 1.13471 0
M  V30 34651 C 3390.8 3.3917 1.63219 0
M  V30 34652 C 3389.95 2.71744 0.552321 0
M  V30 34653 H 3392.9 1.57931 -0.156036 0
M  V30 34654 H 3392.92 3.23483 2.00346 0
M  V30 34655 H 3392.43 3.86994 0.292812 0
M  V30 34656 H 3390.53 2.76526 2.49728 0
M  V30 34657 H 3390.65 4.47621 1.70799 0
M  V30 34658 H 3389.01 2.34344 0.997756 0
M  V30 34659 H 3389.79 3.42161 -0.279414 0
M  V30 34660 N 3392.24 -0.341566 1.53854 0
M  V30 34661 C 3393.48 -1.09001 1.72911 0
M  V30 34662 C 3393.84 -1.85824 0.483072 0
M  V30 34663 O 3395.04 -2.63098 0.550697 0
M  V30 34664 C 3393.32 -2.00463 2.95887 0
M  V30 34665 S 3394.87 -2.82502 3.35765 0
M  V30 34666 H 3391.69 -0.368269 0.608193 0
M  V30 34667 H 3394.29 -0.368188 1.92002 0
M  V30 34668 H 3393 -1.42829 3.84744 0
M  V30 34669 H 3392.53 -2.77079 2.79268 0
M  V30 34670 H 3394.54 -4.02883 2.89654 0
M  V30 34671 N 3393.72 -1.45621 -0.602683 0
M  V30 34672 C 3395.13 -1.44299 -1.18468 0
M  V30 34673 C 3395.48 -0.173195 -1.95434 0
M  V30 34674 O 3394.6 0.72495 -2.03896 0
M  V30 34675 C 3395.2 -2.61426 -2.15504 0
M  V30 34676 C 3393.76 -2.63209 -2.69069 0
M  V30 34677 C 3392.91 -2.36636 -1.44564 0
M  V30 34678 H 3395.86 -1.5379 -0.391718 0
M  V30 34679 H 3395.88 -2.35805 -2.98624 0
M  V30 34680 H 3395.39 -3.53829 -1.59458 0
M  V30 34681 H 3393.49 -1.74826 -3.29039 0
M  V30 34682 H 3393.6 -3.62579 -3.13167 0
M  V30 34683 H 3391.97 -1.86291 -1.73689 0
M  V30 34684 H 3392.75 -3.31189 -0.903794 0
M  V30 34685 N 3395.2 0.845612 -1.32993 0
M  V30 34686 C 3396.42 1.63266 -1.2709 0
M  V30 34687 C 3396.84 1.88126 0.159448 0
M  V30 34688 O 3396.2 1.45665 1.09945 0
M  V30 34689 C 3396.25 2.98676 -2.03654 0
M  V30 34690 O 3395.97 2.74912 -3.41109 0
M  V30 34691 C 3397.47 3.93114 -2.04882 0
M  V30 34692 H 3394.69 0.508228 -0.438116 0
M  V30 34693 H 3397.23 1.05378 -1.75259 0
M  V30 34694 H 3395.39 3.53184 -1.59184 0
M  V30 34695 H 3395.8 3.61092 -3.80411 0
M  V30 34696 H 3397.28 4.85363 -2.6292 0
M  V30 34697 H 3397.75 4.26773 -1.03736 0
M  V30 34698 H 3398.36 3.44542 -2.4934 0
M  V30 34699 N 3396.67 1.16351 1.06302 0
M  V30 34700 C 3397.64 0.872457 2.11945 0
M  V30 34701 C 3398.64 -0.132506 1.60253 0
M  V30 34702 O 3399.83 0.0983747 1.73922 0
M  V30 34703 C 3396.96 0.304706 3.39535 0
M  V30 34704 H 3398.15 1.80899 2.39198 0
M  V30 34705 H 3395.7 0.97244 1.22365 0
M  V30 34706 H 3396.44 -0.639509 3.17932 0
M  V30 34707 H 3396.22 1.02885 3.78361 0
M  V30 34708 H 3397.71 0.11901 4.1743 0
M  V30 34709 N 3398.15 -1.24835 0.961982 0
M  V30 34710 C 3399.1 -2.25606 0.486899 0
M  V30 34711 C 3400.07 -1.59472 -0.464518 0
M  V30 34712 O 3401.25 -1.87056 -0.376146 0
M  V30 34713 C 3398.39 -3.44384 -0.222233 0
M  V30 34714 C 3397.51 -4.25132 0.767281 0
M  V30 34715 C 3396.64 -5.31189 0.0348392 0
M  V30 34716 C 3395.68 -6.03629 1.0148 0
M  V30 34717 N 3394.82 -7.01403 0.312743 0
M  V30 34718 H 3399.66 -2.65612 1.35109 0
M  V30 34719 H 3397.19 -1.30575 0.677396 0
M  V30 34720 H 3399.15 -4.12105 -0.650014 0
M  V30 34721 H 3397.78 -3.05231 -1.05041 0
M  V30 34722 H 3396.83 -3.57002 1.31352 0
M  V30 34723 H 3398.15 -4.75243 1.51478 0
M  V30 34724 H 3397.3 -6.0502 -0.451219 0
M  V30 34725 H 3396.04 -4.8197 -0.745401 0
M  V30 34726 H 3395.04 -5.28607 1.51179 0
M  V30 34727 H 3396.27 -6.54937 1.79539 0
M  V30 34728 H 3394.22 -6.54464 -0.448625 0
M  V30 34729 H 3394.13 -7.49368 0.999211 0
M  V30 34730 H 3395.4 -7.79353 -0.151536 0
M  V30 34731 N 3399.63 -0.731417 -1.396 0
M  V30 34732 C 3400.59 -0.0976439 -2.28992 0
M  V30 34733 C 3401.59 0.670891 -1.46136 0
M  V30 34734 O 3402.78 0.50044 -1.66857 0
M  V30 34735 C 3399.91 0.871066 -3.29583 0
M  V30 34736 H 3401.11 -0.885162 -2.8654 0
M  V30 34737 H 3398.66 -0.497028 -1.48187 0
M  V30 34738 H 3399.4 1.68507 -2.77085 0
M  V30 34739 H 3399.18 0.322666 -3.9077 0
M  V30 34740 H 3400.67 1.31119 -3.96481 0
M  V30 34741 N 3401.11 1.50152 -0.478778 0
M  V30 34742 C 3402.52 1.86683 -0.0255235 0
M  V30 34743 C 3402.87 1.39298 1.38169 0
M  V30 34744 O 3402 0.761243 2.02569 0
M  V30 34745 C 3402.59 3.38777 -0.0395414 0
M  V30 34746 C 3401.15 3.74691 0.358274 0
M  V30 34747 C 3400.3 2.74075 -0.421715 0
M  V30 34748 H 3403.25 1.42785 -0.692678 0
M  V30 34749 H 3403.27 3.72815 0.760891 0
M  V30 34750 H 3402.78 3.73234 -1.06385 0
M  V30 34751 H 3400.88 3.45837 1.38665 0
M  V30 34752 H 3400.99 4.79069 0.0542747 0
M  V30 34753 H 3399.36 2.5439 0.125589 0
M  V30 34754 H 3400.14 3.11376 -1.44568 0
M  V30 34755 N 3402.59 0.211689 1.56172 0
M  V30 34756 C 3403.81 -0.427807 2.02429 0
M  V30 34757 C 3404.23 -1.54041 1.09165 0
M  V30 34758 O 3403.59 -1.82229 0.0994569 0
M  V30 34759 C 3403.64 -0.968666 3.4828 0
M  V30 34760 O 3403.36 0.0995611 4.37987 0
M  V30 34761 C 3404.86 -1.68239 4.10135 0
M  V30 34762 H 3402.08 -0.105758 0.662613 0
M  V30 34763 H 3404.62 0.325256 2.01897 0
M  V30 34764 H 3402.78 -1.67204 3.49459 0
M  V30 34765 H 3403.19 -0.305466 5.2361 0
M  V30 34766 H 3404.67 -2.01295 5.13989 0
M  V30 34767 H 3405.14 -2.59204 3.54556 0
M  V30 34768 H 3405.75 -1.02446 4.12777 0
M  V30 34769 N 3404.06 -1.57479 -0.0617887 0
M  V30 34770 C 3405.3 -1.89574 -0.764262 0
M  V30 34771 C 3405.67 -0.806635 -1.74234 0
M  V30 34772 O 3406.87 -1.01095 -2.49065 0
M  V30 34773 C 3405.14 -3.26887 -1.44498 0
M  V30 34774 S 3406.7 -3.80752 -2.18113 0
M  V30 34775 H 3403.52 -0.664107 -0.253934 0
M  V30 34776 H 3406.12 -1.9549 -0.019972 0
M  V30 34777 H 3404.82 -4.04045 -0.719454 0
M  V30 34778 H 3404.35 -3.24194 -2.22849 0
M  V30 34779 H 3406.37 -3.56843 -3.44786 0
M  V30 34780 N 3405.54 0.333401 -1.54033 0
M  V30 34781 C 3406.79 1.07037 -1.71428 0
M  V30 34782 C 3407.11 1.88859 -0.485529 0
M  V30 34783 O 3406.38 1.89398 0.500522 0
M  V30 34784 H 3404.96 0.398162 -0.632041 0
M  V30 34785 H 3407.62 0.372219 -1.91313 0
M  V30 34786 H 3406.72 1.742 -2.58961 0
M  V30 34787 N 3407.02 1.45939 0.594952 0
M  V30 34788 C 3407.95 1.58425 1.71533 0
M  V30 34789 C 3408.93 0.435145 1.6444 0
M  V30 34790 O 3410.12 0.659871 1.82645 0
M  V30 34791 C 3407.25 1.56263 3.1016 0
M  V30 34792 C 3406.2 2.70019 3.32075 0
M  V30 34793 C 3405.53 2.52913 4.71104 0
M  V30 34794 C 3406.83 4.11938 3.21098 0
M  V30 34795 H 3408.52 2.5221 1.6134 0
M  V30 34796 H 3406.07 1.21381 0.774769 0
M  V30 34797 H 3408.02 1.63593 3.88349 0
M  V30 34798 H 3406.74 0.590149 3.21224 0
M  V30 34799 H 3405.4 2.62137 2.56281 0
M  V30 34800 H 3405.05 1.53776 4.78917 0
M  V30 34801 H 3404.75 3.29205 4.86721 0
M  V30 34802 H 3406.27 2.62117 5.51477 0
M  V30 34803 H 3407.69 4.20997 3.89146 0
M  V30 34804 H 3406.09 4.88721 3.48241 0
M  V30 34805 H 3407.16 4.32956 2.18351 0
M  V30 34806 N 3408.5 -0.838547 1.3344 0
M  V30 34807 C 3409.74 -1.60751 1.26247 0
M  V30 34808 C 3410.1 -1.91253 -0.169222 0
M  V30 34809 O 3411.3 -2.66309 -0.36511 0
M  V30 34810 C 3409.57 -2.88209 2.11353 0
M  V30 34811 S 3411.13 -3.78877 2.21354 0
M  V30 34812 H 3407.95 -0.551174 0.449141 0
M  V30 34813 H 3410.55 -0.991769 1.68476 0
M  V30 34814 H 3409.26 -2.63773 3.14407 0
M  V30 34815 H 3408.79 -3.5479 1.69963 0
M  V30 34816 H 3410.8 -4.76773 1.37485 0
M  V30 34817 N 3409.98 -1.16914 -1.05683 0
M  V30 34818 C 3410.89 -0.895838 -2.16822 0
M  V30 34819 C 3411.9 0.134185 -1.73482 0
M  V30 34820 O 3413.08 -0.0439129 -2.01352 0
M  V30 34821 C 3410.14 -0.407488 -3.44297 0
M  V30 34822 C 3409.2 -1.50349 -4.02111 0
M  V30 34823 C 3408.44 -1.03835 -5.23502 0
M  V30 34824 O 3408.66 0.109478 -5.70295 0
M  V30 34825 O 3407.59 -1.8293 -5.73428 0
M  V30 34826 H 3411.42 -1.82537 -2.42722 0
M  V30 34827 H 3409.01 -0.94961 -1.15338 0
M  V30 34828 H 3410.89 -0.14243 -4.21159 0
M  V30 34829 H 3409.56 0.493953 -3.19909 0
M  V30 34830 H 3408.47 -1.82237 -3.26712 0
M  V30 34831 H 3409.8 -2.38046 -4.30807 0
M  V30 34832 N 3411.45 1.24323 -0.968589 0
M  V30 34833 C 3412.7 1.92704 -0.631897 0
M  V30 34834 C 3413.03 1.75526 0.830929 0
M  V30 34835 O 3412.31 1.10889 1.59793 0
M  V30 34836 C 3412.59 3.45689 -1.00851 0
M  V30 34837 C 3412.44 3.72031 -2.5281 0
M  V30 34838 C 3413.76 4.36728 -0.543723 0
M  V30 34839 H 3410.88 0.69985 -0.231039 0
M  V30 34840 H 3413.52 1.46674 -1.20775 0
M  V30 34841 H 3411.67 3.85024 -0.518502 0
M  V30 34842 H 3413.35 3.42249 -3.09295 0
M  V30 34843 H 3411.59 3.17152 -2.95968 0
M  V30 34844 H 3412.26 4.79074 -2.74212 0
M  V30 34845 H 3414.74 4.04773 -0.964254 0
M  V30 34846 H 3413.61 5.42499 -0.835795 0
M  V30 34847 H 3413.87 4.38588 0.556179 0
M  V30 34848 N 3412.93 0.73881 1.3921 0
M  V30 34849 C 3413.9 0.109787 2.28937 0
M  V30 34850 C 3414.9 -0.663132 1.4649 0
M  V30 34851 O 3416.09 -0.491584 1.6712 0
M  V30 34852 C 3413.22 -0.853575 3.30041 0
M  V30 34853 H 3414.41 0.900345 2.86066 0
M  V30 34854 H 3411.96 0.504879 1.47921 0
M  V30 34855 H 3412.7 -1.67035 2.77974 0
M  V30 34856 H 3412.48 -0.301938 3.90936 0
M  V30 34857 H 3413.97 -1.29015 3.97171 0
M  V30 34858 N 3414.41 -1.49895 0.486734 0
M  V30 34859 C 3415.83 -1.58969 0.141816 0
M  V30 34860 C 3416.03 -1.4934 -1.35277 0
M  V30 34861 O 3415.08 -1.35996 -2.12747 0
M  V30 34862 C 3416.4 -2.92296 0.705932 0
M  V30 34863 C 3417.94 -3.05728 0.670757 0
M  V30 34864 C 3418.42 -4.41654 1.21269 0
M  V30 34865 N 3419.91 -4.48108 1.17277 0
M  V30 34866 C 3420.64 -5.51703 1.56243 0
M  V30 34867 N 3420.14 -6.62474 2.02733 0
M  V30 34868 N 3421.93 -5.42335 1.47748 0
M  V30 34869 H 3414.08 -1.54397 1.4586 0
M  V30 34870 H 3416.35 -0.730553 0.604149 0
M  V30 34871 H 3416.05 -3.04866 1.75355 0
M  V30 34872 H 3415.93 -3.76868 0.158282 0
M  V30 34873 H 3418.31 -2.92797 -0.36799 0
M  V30 34874 H 3418.4 -2.22876 1.25539 0
M  V30 34875 H 3418.04 -4.55336 2.25014 0
M  V30 34876 H 3417.97 -5.23123 0.604123 0
M  V30 34877 H 3420.46 -3.68628 0.83197 0
M  V30 34878 H 3420.77 -7.37601 2.30573 0
M  V30 34879 H 3419.12 -6.63552 2.06697 0
M  V30 34880 H 3422.31 -4.54686 1.11257 0
M  V30 34881 H 3422.48 -6.22947 1.7844 0
M  V30 34882 N 3415.89 -0.219968 -1.56057 0
M  V30 34883 C 3416.82 0.685508 -2.23211 0
M  V30 34884 C 3417.8 1.20227 -1.2033 0
M  V30 34885 O 3418.99 1.24656 -1.48911 0
M  V30 34886 C 3416.12 1.89447 -2.91079 0
M  V30 34887 C 3415.07 1.51161 -4.00418 0
M  V30 34888 C 3414.4 2.79922 -4.55574 0
M  V30 34889 C 3415.7 0.702805 -5.1755 0
M  V30 34890 H 3417.39 0.125619 -2.99136 0
M  V30 34891 H 3414.94 0.058979 -1.43879 0
M  V30 34892 H 3416.89 2.53335 -3.36748 0
M  V30 34893 H 3415.61 2.4793 -2.12598 0
M  V30 34894 H 3414.27 0.896213 -3.55477 0
M  V30 34895 H 3413.92 3.36547 -3.73825 0
M  V30 34896 H 3413.62 2.5504 -5.29366 0
M  V30 34897 H 3415.14 3.44755 -5.03961 0
M  V30 34898 H 3416.56 1.24534 -5.59611 0
M  V30 34899 H 3414.95 0.551129 -5.97564 0
M  V30 34900 H 3416.02 -0.290915 -4.84027 0
M  V30 34901 N 3417.37 1.57509 0.0534363 0
M  V30 34902 C 3418.78 1.5428 0.408623 0
M  V30 34903 C 3418.98 0.942766 1.78085 0
M  V30 34904 O 3418.04 0.553207 2.46365 0
M  V30 34905 C 3419.35 2.98852 0.332831 0
M  V30 34906 C 3420.9 3.10281 0.411691 0
M  V30 34907 C 3421.38 4.56538 0.365611 0
M  V30 34908 N 3422.87 4.61245 0.425141 0
M  V30 34909 C 3423.6 5.71918 0.411993 0
M  V30 34910 N 3423.1 6.91902 0.352571 0
M  V30 34911 N 3424.89 5.60215 0.459917 0
M  V30 34912 H 3417.04 1.94874 -0.844868 0
M  V30 34913 H 3419.3 0.892751 -0.318903 0
M  V30 34914 H 3419.01 3.46384 -0.609177 0
M  V30 34915 H 3418.88 3.59688 1.13599 0
M  V30 34916 H 3421.27 2.62711 1.34413 0
M  V30 34917 H 3421.35 2.52322 -0.420378 0
M  V30 34918 H 3421 5.04769 -0.563052 0
M  V30 34919 H 3420.93 5.12381 1.21546 0
M  V30 34920 H 3423.42 3.74908 0.474568 0
M  V30 34921 H 3423.73 7.72021 0.346969 0
M  V30 34922 H 3422.08 6.94268 0.318982 0
M  V30 34923 H 3425.27 4.65377 0.50416 0
M  V30 34924 H 3425.44 6.46462 0.446202 0
M  V30 34925 N 3418.85 -0.325228 1.54208 0
M  V30 34926 C 3419.78 -1.42124 1.79815 0
M  V30 34927 C 3420.79 -1.47916 0.680056 0
M  V30 34928 O 3421.98 -1.50669 0.957134 0
M  V30 34929 C 3419.08 -2.80671 1.8994 0
M  V30 34930 C 3418.25 -2.98103 3.20084 0
M  V30 34931 C 3417.31 -4.17 3.20932 0
M  V30 34932 O 3416.34 -4.1024 3.94578 0
M  V30 34933 N 3417.54 -5.26453 2.44597 0
M  V30 34934 H 3420.3 -1.20522 2.74398 0
M  V30 34935 H 3417.87 -0.515206 1.53484 0
M  V30 34936 H 3419.86 -3.58416 1.87937 0
M  V30 34937 H 3418.43 -2.95331 1.0246 0
M  V30 34938 H 3417.65 -2.07673 3.35061 0
M  V30 34939 H 3418.94 -3.06644 4.06013 0
M  V30 34940 H 3418.33 -5.3482 1.84349 0
M  V30 34941 H 3416.89 -6.02623 2.48373 0
M  V30 34942 N 3420.32 -1.46252 -0.587204 0
M  V30 34943 C 3421.27 -1.56839 -1.71768 0
M  V30 34944 C 3422.27 -0.437125 -1.63663 0
M  V30 34945 O 3423.47 -0.613827 -1.6921 0
M  V30 34946 H 3419.85 -0.493022 -0.567832 0
M  V30 34947 H 3421.82 -2.51897 -1.5997 0
M  V30 34948 C 3420.57 -1.57157 -3.10156 0
M  V30 34949 H 3419.89 -2.43541 -3.17061 0
M  V30 34950 H 3421.33 -1.6862 -3.89029 0
M  V30 34951 C 3419.79 -0.299433 -3.35567 0
M  V30 34952 O 3420.32 0.612221 -3.97007 0
M  V30 34953 N 3418.52 -0.188746 -2.89986 0
M  V30 34954 H 3418.07 -0.931512 -2.40168 0
M  V30 34955 H 3418.03 0.661558 -3.07361 0
M  V30 34956 N 3421.8 0.831459 -1.33883 0
M  V30 34957 C 3422.76 1.92336 -1.24657 0
M  V30 34958 C 3423.76 1.59963 -0.163816 0
M  V30 34959 O 3424.95 1.69163 -0.415859 0
M  V30 34960 C 3422.09 3.28178 -0.922594 0
M  V30 34961 H 3423.28 2.01941 -2.21721 0
M  V30 34962 H 3420.83 1.02443 -1.18047 0
M  V30 34963 H 3421.57 3.24268 0.0452302 0
M  V30 34964 H 3421.35 3.53056 -1.70569 0
M  V30 34965 H 3422.84 4.08158 -0.882992 0
M  V30 34966 N 3423.28 1.17472 1.05062 0
M  V30 34967 C 3424.56 0.873807 1.74997 0
M  V30 34968 C 3424.94 -0.62564 2.01616 0
M  V30 34969 O 3424.28 -1.57731 1.65327 0
M  V30 34970 C 3424.49 1.71016 3.04228 0
M  V30 34971 C 3425.84 1.93093 3.78154 0
M  V30 34972 O 3426.87 1.67985 3.14101 0
M  V30 34973 O 3425.73 2.35299 4.93251 0
M  V30 34974 H 3422.82 0.323655 0.761037 0
M  V30 34975 H 3425.37 1.28174 1.11218 0
M  V30 34976 H 3424.14 2.72709 2.80616 0
M  V30 34977 H 3423.76 1.30008 3.75744 0
M  V30 34978 N 3424.76 -1.23807 0.975168 0
M  V30 34979 C 3425.69 -2.24346 0.46919 0
M  V30 34980 C 3426.7 -1.57124 -0.426129 0
M  V30 34981 O 3427.89 -1.76998 -0.231105 0
M  V30 34982 C 3424.99 -3.37179 -0.34115 0
M  V30 34983 C 3424.16 -4.33978 0.546044 0
M  V30 34984 C 3423.22 -5.25783 -0.209555 0
M  V30 34985 O 3422.25 -5.67799 0.399053 0
M  V30 34986 N 3423.45 -5.60865 -1.49704 0
M  V30 34987 H 3426.22 -2.68392 1.33364 0
M  V30 34988 H 3423.78 -1.37925 0.847838 0
M  V30 34989 H 3425.77 -3.95568 -0.854854 0
M  V30 34990 H 3424.34 -2.92359 -1.10658 0
M  V30 34991 H 3423.56 -3.74168 1.24064 0
M  V30 34992 H 3424.85 -4.95613 1.15086 0
M  V30 34993 H 3424.25 -5.28669 -2.0131 0
M  V30 34994 H 3422.8 -6.2175 -1.95628 0
M  V30 34995 N 3426.24 -0.746182 -1.38816 0
M  V30 34996 C 3427.48 -0.303878 -2.02129 0
M  V30 34997 C 3427.84 1.09167 -1.57945 0
M  V30 34998 O 3429.04 1.63268 -2.13535 0
M  V30 34999 C 3427.31 -0.414441 -3.54989 0
M  V30 35000 S 3428.87 -0.0536266 -4.38767 0
M  V30 35001 H 3425.69 -0.118341 -0.701082 0
M  V30 35002 H 3428.29 -0.975167 -1.69442 0
M  V30 35003 H 3426.99 -1.43121 -3.84636 0
M  V30 35004 H 3426.53 0.274286 -3.92443 0
M  V30 35005 H 3428.54 1.15912 -4.82472 0
M  V30 35006 N 3427.71 1.49635 -0.494676 0
M  V30 35007 C 3428.95 2.04338 0.050527 0
M  V30 35008 C 3429.32 1.36668 1.34855 0
M  V30 35009 O 3430.52 1.82056 1.9776 0
M  V30 35010 C 3428.79 3.56805 0.206185 0
M  V30 35011 S 3430.35 4.33074 0.706548 0
M  V30 35012 H 3427.17 0.710984 0.00477943 0
M  V30 35013 H 3429.77 1.83763 -0.667201 0
M  V30 35014 H 3428.47 4.03601 -0.743933 0
M  V30 35015 H 3428 3.81774 0.949339 0
M  V30 35016 H 3430.02 4.5513 1.97664 0
M  V30 35017 N 3429.19 0.228241 1.55939 0
M  V30 35018 C 3430.6 -0.278384 1.84613 0
M  V30 35019 C 3430.95 -1.58981 1.14976 0
M  V30 35020 O 3430.08 -2.12251 0.421711 0
M  V30 35021 C 3430.67 -0.511876 3.34911 0
M  V30 35022 C 3429.23 -0.962797 3.63878 0
M  V30 35023 C 3428.38 -0.0295758 2.77284 0
M  V30 35024 H 3431.33 0.451272 1.52149 0
M  V30 35025 H 3431.35 -1.357 3.55479 0
M  V30 35026 H 3430.86 0.442765 3.85566 0
M  V30 35027 H 3428.96 -1.93056 3.18685 0
M  V30 35028 H 3429.08 -0.832576 4.7181 0
M  V30 35029 H 3427.44 -0.537586 2.48962 0
M  V30 35030 H 3428.22 0.920102 3.3074 0
M  V30 35031 N 3430.67 -1.57536 -0.0450825 0
M  V30 35032 C 3431.58 -2.08884 -1.06793 0
M  V30 35033 C 3432.6 -1.02397 -1.4068 0
M  V30 35034 O 3433.77 -1.34035 -1.50321 0
M  V30 35035 C 3430.84 -2.54476 -2.35463 0
M  V30 35036 C 3429.9 -3.75378 -2.08303 0
M  V30 35037 C 3429.13 -4.18786 -3.30838 0
M  V30 35038 O 3429.35 -3.61842 -4.40938 0
M  V30 35039 O 3428.29 -5.11362 -3.17479 0
M  V30 35040 H 3432.11 -2.96406 -0.661606 0
M  V30 35041 H 3429.7 -1.47102 -0.261014 0
M  V30 35042 H 3431.58 -2.84203 -3.11138 0
M  V30 35043 H 3430.26 -1.70072 -2.75422 0
M  V30 35044 H 3429.16 -3.50694 -1.30247 0
M  V30 35045 H 3430.5 -4.60716 -1.73209 0
M  V30 35046 N 3432.15 0.317045 -1.54378 0
M  V30 35047 C 3433.38 1.07203 -1.7661 0
M  V30 35048 C 3433.79 1.81975 -0.51785 0
M  V30 35049 O 3433.13 1.76147 0.521344 0
M  V30 35050 C 3433.19 2.11086 -2.91003 0
M  V30 35051 C 3432.86 1.55653 -4.29675 0
M  V30 35052 C 3433.85 0.994909 -5.10292 0
M  V30 35053 C 3431.54 1.597 -4.76237 0
M  V30 35054 C 3433.53 0.481118 -6.35582 0
M  V30 35055 C 3431.22 1.07934 -6.01493 0
M  V30 35056 C 3432.22 0.522348 -6.81 0
M  V30 35057 O 3431.9 0.0124861 -8.03899 0
M  V30 35058 H 3431.64 0.32442 -0.593066 0
M  V30 35059 H 3434.19 0.366824 -2.02098 0
M  V30 35060 H 3432.42 2.85241 -2.61102 0
M  V30 35061 H 3434.11 2.72358 -3.00958 0
M  V30 35062 H 3434.88 0.956668 -4.75471 0
M  V30 35063 H 3430.75 2.01993 -4.14391 0
M  V30 35064 H 3434.3 0.0457148 -6.97585 0
M  V30 35065 H 3430.2 1.11467 -6.35803 0
M  V30 35066 H 3430.96 0.127298 -8.18401 0
M  V30 35067 N 3433.63 1.46561 0.57944 0
M  V30 35068 C 3434.54 1.59964 1.71606 0
M  V30 35069 C 3435.55 0.483031 1.67161 0
M  V30 35070 O 3436.73 0.747594 1.87011 0
M  V30 35071 C 3433.79 1.5896 3.08111 0
M  V30 35072 C 3432.85 2.81878 3.23796 0
M  V30 35073 C 3432.09 2.80912 4.53789 0
M  V30 35074 O 3432.31 1.89844 5.3788 0
M  V30 35075 O 3431.24 3.72496 4.7279 0
M  V30 35076 H 3435.07 2.56095 1.63246 0
M  V30 35077 H 3432.66 1.29392 0.746868 0
M  V30 35078 H 3434.54 1.61107 3.89387 0
M  V30 35079 H 3433.21 0.659896 3.16902 0
M  V30 35080 H 3432.12 2.85283 2.42001 0
M  V30 35081 H 3433.45 3.74068 3.19897 0
M  V30 35082 N 3435.1 -0.824347 1.34322 0
M  V30 35083 C 3436.34 -1.59403 1.27945 0
M  V30 35084 C 3436.71 -1.91422 -0.148927 0
M  V30 35085 O 3437.91 -2.66681 -0.336844 0
M  V30 35086 C 3436.18 -2.85951 2.14398 0
M  V30 35087 S 3437.74 -3.76508 2.2536 0
M  V30 35088 H 3434.56 -0.546379 0.454962 0
M  V30 35089 H 3437.16 -0.973844 1.69519 0
M  V30 35090 H 3435.86 -2.60424 3.17187 0
M  V30 35091 H 3435.39 -3.52968 1.73716 0
M  V30 35092 H 3437.41 -4.75288 1.42534 0
M  V30 35093 N 3436.58 -1.18028 -1.04437 0
M  V30 35094 C 3437.83 -0.974787 -1.77836 0
M  V30 35095 C 3438.16 0.494722 -1.87793 0
M  V30 35096 O 3437.44 1.36731 -1.38329 0
M  V30 35097 C 3437.72 -1.62574 -3.21312 0
M  V30 35098 C 3437.57 -3.16786 -3.19322 0
M  V30 35099 C 3438.89 -1.33591 -4.19335 0
M  V30 35100 H 3436.01 -0.355541 -0.645569 0
M  V30 35101 H 3438.65 -1.4564 -1.22021 0
M  V30 35102 H 3436.8 -1.21623 -3.68972 0
M  V30 35103 H 3438.47 -3.66847 -2.79681 0
M  V30 35104 H 3436.72 -3.49141 -2.57455 0
M  V30 35105 H 3437.39 -3.57467 -4.2062 0
M  V30 35106 H 3439.86 -1.69066 -3.80205 0
M  V30 35107 H 3438.74 -1.81711 -5.1795 0
M  V30 35108 H 3439 -0.258093 -4.41346 0
M  V30 35109 N 3438.06 1.23288 -0.98172 0
M  V30 35110 C 3439.3 1.93472 -0.659382 0
M  V30 35111 C 3439.66 1.74877 0.792586 0
M  V30 35112 O 3440.87 2.39222 1.22581 0
M  V30 35113 C 3439.14 3.41912 -1.04071 0
M  V30 35114 S 3440.7 4.30781 -0.835039 0
M  V30 35115 H 3437.51 0.668751 -0.24144 0
M  V30 35116 H 3440.12 1.49342 -1.26164 0
M  V30 35117 H 3438.82 3.52956 -2.09404 0
M  V30 35118 H 3438.35 3.91045 -0.429789 0
M  V30 35119 H 3440.37 4.95407 0.28036 0
M  V30 35120 N 3439.54 0.753533 1.38418 0
M  V30 35121 C 3440.82 0.235176 1.94181 0
M  V30 35122 C 3441.2 -1.26656 1.68883 0
M  V30 35123 O 3440.54 -2.04103 1.02734 0
M  V30 35124 C 3440.75 0.588812 3.43997 0
M  V30 35125 C 3442.1 0.548426 4.21043 0
M  V30 35126 O 3443.13 0.527102 3.52278 0
M  V30 35127 O 3441.98 0.559317 5.4363 0
M  V30 35128 H 3439.08 0.0491979 0.825535 0
M  V30 35129 H 3441.62 0.833652 1.47812 0
M  V30 35130 H 3440.4 1.62597 3.55919 0
M  V30 35131 H 3440.02 -0.037673 3.97582 0
M  V30 35132 N 3441.02 -1.49371 0.502605 0
M  V30 35133 C 3442.43 -1.86618 0.0552198 0
M  V30 35134 C 3442.78 -1.41478 -1.35935 0
M  V30 35135 O 3441.9 -0.793374 -2.01332 0
M  V30 35136 C 3442.5 -3.38671 0.0934329 0
M  V30 35137 C 3441.06 -3.75214 -0.298619 0
M  V30 35138 C 3440.2 -2.73369 0.465264 0
M  V30 35139 H 3443.16 -1.41665 0.715306 0
M  V30 35140 H 3443.18 -3.73978 -0.701483 0
M  V30 35141 H 3442.69 -3.71495 1.12309 0
M  V30 35142 H 3440.79 -3.47999 -1.33145 0
M  V30 35143 H 3440.9 -4.79095 0.0219479 0
M  V30 35144 H 3439.27 -2.54558 -0.0851021 0
M  V30 35145 H 3440.05 -3.09037 1.49503 0
M  V30 35146 N 3442.49 -0.236508 -1.55815 0
M  V30 35147 C 3443.74 0.39169 -1.98981 0
M  V30 35148 C 3444.07 1.58344 -1.12431 0
M  V30 35149 O 3443.35 1.93615 -0.185337 0
M  V30 35150 C 3443.63 0.811697 -3.50833 0
M  V30 35151 C 3443.48 -0.384726 -4.48152 0
M  V30 35152 C 3444.8 1.66247 -4.07492 0
M  V30 35153 H 3441.92 0.140899 -0.723406 0
M  V30 35154 H 3444.56 -0.335739 -1.8701 0
M  V30 35155 H 3442.71 1.43151 -3.61165 0
M  V30 35156 H 3444.39 -1.02306 -4.49812 0
M  V30 35157 H 3442.63 -1.02963 -4.21404 0
M  V30 35158 H 3443.3 -0.047678 -5.51979 0
M  V30 35159 H 3445.78 1.13936 -4.00197 0
M  V30 35160 H 3444.65 1.92522 -5.1403 0
M  V30 35161 H 3444.91 2.63084 -3.55302 0
M  V30 35162 N 3443.97 1.57557 0.0367273 0
M  V30 35163 C 3445.2 1.93566 0.744779 0
M  V30 35164 C 3445.62 0.835892 1.68507 0
M  V30 35165 O 3444.98 -0.208954 1.80092 0
M  V30 35166 C 3445.03 3.28624 1.48455 0
M  V30 35167 O 3444.13 3.20332 2.59733 0
M  V30 35168 H 3443.47 0.632893 0.200855 0
M  V30 35169 H 3446 2.04599 -0.0055114 0
M  V30 35170 H 3446.01 3.63333 1.85616 0
M  V30 35171 H 3444.69 4.08233 0.794881 0
M  V30 35172 H 3443.27 2.97241 2.25171 0
M  V30 35173 N 3445.45 -0.308854 1.54544 0
M  V30 35174 C 3446.69 -1.05308 1.75184 0
M  V30 35175 C 3447.06 -1.84757 0.52238 0
M  V30 35176 O 3448.26 -2.61871 0.60638 0
M  V30 35177 C 3446.53 -1.94142 3.00073 0
M  V30 35178 S 3448.09 -2.75317 3.41681 0
M  V30 35179 H 3444.9 -0.355285 0.615868 0
M  V30 35180 H 3447.51 -0.327379 1.92739 0
M  V30 35181 H 3446.21 -1.34636 3.87687 0
M  V30 35182 H 3445.74 -2.71093 2.85083 0
M  V30 35183 H 3447.76 -3.96649 2.98135 0
M  V30 35184 N 3446.93 -1.46867 -0.571659 0
M  V30 35185 C 3448.21 -1.43226 -1.33213 0
M  V30 35186 C 3448.59 -0.121532 -2.1075 0
M  V30 35187 O 3447.93 0.896966 -2.10159 0
M  V30 35188 C 3448.14 -2.66886 -2.24884 0
M  V30 35189 C 3449.49 -3.13498 -2.86363 0
M  V30 35190 O 3450.52 -2.67513 -2.35192 0
M  V30 35191 O 3449.38 -3.93404 -3.79335 0
M  V30 35192 H 3446.47 -0.570099 -0.599096 0
M  V30 35193 H 3449.02 -1.59048 -0.59176 0
M  V30 35194 H 3447.79 -3.5383 -1.67093 0
M  V30 35195 H 3447.41 -2.53578 -3.06241 0
M  V30 35196 N 3448.41 0.817212 -1.34757 0
M  V30 35197 C 3449.34 1.94328 -1.29456 0
M  V30 35198 C 3450.32 1.69239 -0.170932 0
M  V30 35199 O 3451.5 1.90754 -0.364206 0
M  V30 35200 C 3448.63 3.30887 -1.05503 0
M  V30 35201 C 3447.59 3.70432 -2.14393 0
M  V30 35202 C 3446.91 5.05036 -1.75621 0
M  V30 35203 C 3448.21 3.81926 -3.56272 0
M  V30 35204 H 3449.91 1.99021 -2.23676 0
M  V30 35205 H 3447.45 0.95614 -1.07675 0
M  V30 35206 H 3449.41 4.09256 -1.00438 0
M  V30 35207 H 3448.13 3.26509 -0.0772633 0
M  V30 35208 H 3446.79 2.94342 -2.18537 0
M  V30 35209 H 3446.44 4.9715 -0.764896 0
M  V30 35210 H 3446.14 5.32465 -2.48504 0
M  V30 35211 H 3447.66 5.85856 -1.72061 0
M  V30 35212 H 3449.08 4.50552 -3.54508 0
M  V30 35213 H 3447.47 4.20815 -4.27826 0
M  V30 35214 H 3448.54 2.83768 -3.93197 0
M  V30 35215 N 3449.89 1.1858 1.0381 0
M  V30 35216 C 3451.3 0.986524 1.58507 0
M  V30 35217 C 3451.65 -0.463103 1.90656 0
M  V30 35218 O 3450.77 -1.3409 1.69849 0
M  V30 35219 C 3451.37 1.78446 2.87997 0
M  V30 35220 C 3449.93 1.62946 3.39301 0
M  V30 35221 C 3449.07 1.77731 2.12854 0
M  V30 35222 H 3452.02 1.33086 0.864505 0
M  V30 35223 H 3452.05 1.27507 3.585 0
M  V30 35224 H 3451.56 2.83947 2.64567 0
M  V30 35225 H 3449.66 0.599929 3.67739 0
M  V30 35226 H 3449.77 2.4291 4.12955 0
M  V30 35227 H 3448.14 1.20703 2.24283 0
M  V30 35228 H 3448.92 2.84672 1.91877 0
M  V30 35229 N 3451.36 -1.22766 0.988245 0
M  V30 35230 C 3452.77 -1.73189 0.697311 0
M  V30 35231 C 3453.13 -1.79764 -0.786079 0
M  V30 35232 O 3452.25 -1.4408 -1.61462 0
M  V30 35233 C 3452.85 -3.14535 1.25911 0
M  V30 35234 C 3451.4 -3.62382 1.01765 0
M  V30 35235 C 3450.55 -2.40402 1.38211 0
M  V30 35236 H 3453.5 -1.08179 1.16116 0
M  V30 35237 H 3453.52 -3.75158 0.635381 0
M  V30 35238 H 3453.04 -3.09717 2.33874 0
M  V30 35239 H 3451.14 -3.72572 -0.0455615 0
M  V30 35240 H 3451.25 -4.48763 1.67775 0
M  V30 35241 H 3449.61 -2.41789 0.800649 0
M  V30 35242 H 3450.4 -2.38249 2.47169 0
M  V30 35243 N 3452.84 -0.760864 -1.38017 0
M  V30 35244 C 3454.09 -0.320751 -2.00247 0
M  V30 35245 C 3454.42 1.09681 -1.60261 0
M  V30 35246 O 3453.7 1.75253 -0.843598 0
M  V30 35247 C 3453.98 -0.451912 -3.57253 0
M  V30 35248 C 3453.83 -1.9111 -4.07182 0
M  V30 35249 C 3455.15 0.150362 -4.39843 0
M  V30 35250 H 3452.27 -0.11802 -0.727489 0
M  V30 35251 H 3454.91 -0.96187 -1.63854 0
M  V30 35252 H 3453.06 0.0938989 -3.88387 0
M  V30 35253 H 3454.73 -2.51578 -3.8666 0
M  V30 35254 H 3452.98 -2.42368 -3.59778 0
M  V30 35255 H 3453.65 -1.95399 -5.16259 0
M  V30 35256 H 3456.12 -0.315218 -4.14904 0
M  V30 35257 H 3455 0.0283888 -5.48893 0
M  V30 35258 H 3455.26 1.23948 -4.24369 0
M  V30 35259 N 3454.32 1.49102 -0.510519 0
M  V30 35260 C 3455.73 1.86586 -0.0651159 0
M  V30 35261 C 3456.08 1.42197 1.35183 0
M  V30 35262 O 3455.21 0.80404 2.00908 0
M  V30 35263 C 3455.8 3.38617 -0.111392 0
M  V30 35264 C 3454.36 3.75367 0.278716 0
M  V30 35265 C 3453.51 2.73118 -0.479755 0
M  V30 35266 H 3456.46 1.41284 -0.722809 0
M  V30 35267 H 3456.48 3.74345 0.68164 0
M  V30 35268 H 3455.99 3.70894 -1.14278 0
M  V30 35269 H 3454.09 3.487 1.31298 0
M  V30 35270 H 3454.21 4.79077 -0.0473552 0
M  V30 35271 H 3452.57 2.54599 0.0716011 0
M  V30 35272 H 3453.35 3.08239 -1.5114 0
M  V30 35273 N 3455.8 0.244768 1.55688 0
M  V30 35274 C 3456.75 -0.669558 2.17947 0
M  V30 35275 C 3457.73 -1.14076 1.1347 0
M  V30 35276 O 3458.92 -1.09088 1.39387 0
M  V30 35277 C 3456.05 -1.86716 2.88084 0
M  V30 35278 C 3455.14 -1.41456 3.99814 0
M  V30 35279 N 3455.53 -0.676043 5.01262 0
M  V30 35280 C 3453.83 -1.70001 4.1233 0
M  V30 35281 C 3454.53 -0.442011 5.80018 0
M  V30 35282 N 3453.5 -1.00559 5.34218 0
M  V30 35283 H 3457.31 -0.0971436 2.93739 0
M  V30 35284 H 3454.82 0.0469931 1.62332 0
M  V30 35285 H 3456.82 -2.53316 3.31114 0
M  V30 35286 H 3455.48 -2.44382 2.13794 0
M  V30 35287 H 3456.49 -0.326368 5.16871 0
M  V30 35288 H 3453.17 -2.28821 3.4921 0
M  V30 35289 H 3454.56 0.147408 6.71738 0
M  V30 35290 N 3457.28 -1.57574 -0.0283712 0
M  V30 35291 C 3458.52 -1.91153 -0.723879 0
M  V30 35292 C 3458.88 -0.843411 -1.72484 0
M  V30 35293 O 3460.08 -1.06355 -2.46864 0
M  V30 35294 C 3458.35 -3.29879 -1.37531 0
M  V30 35295 S 3459.91 -3.85293 -2.09988 0
M  V30 35296 H 3456.73 -0.669344 -0.239791 0
M  V30 35297 H 3459.33 -1.95488 0.0214987 0
M  V30 35298 H 3458.03 -4.0548 -0.633588 0
M  V30 35299 H 3457.57 -3.28848 -2.15923 0
M  V30 35300 H 3459.58 -3.64076 -3.3714 0
M  V30 35301 N 3458.75 0.300654 -1.54706 0
M  V30 35302 C 3459.66 1.39338 -1.88738 0
M  V30 35303 C 3460.68 1.55459 -0.781577 0
M  V30 35304 O 3461.86 1.70116 -1.07807 0
M  V30 35305 C 3458.92 2.7371 -2.128 0
M  V30 35306 C 3457.98 2.66571 -3.36509 0
M  V30 35307 C 3457.21 3.94534 -3.59414 0
M  V30 35308 O 3457.44 4.93909 -2.85324 0
M  V30 35309 O 3456.37 3.96407 -4.5293 0
M  V30 35310 H 3460.2 1.13479 -2.81702 0
M  V30 35311 H 3457.78 0.496746 -1.409 0
M  V30 35312 H 3459.66 3.53211 -2.29826 0
M  V30 35313 H 3458.34 2.99412 -1.23022 0
M  V30 35314 H 3457.25 1.85541 -3.24847 0
M  V30 35315 H 3458.58 2.45822 -4.26418 0
M  V30 35316 N 3460.23 1.47168 0.563863 0
M  V30 35317 C 3461.65 1.32539 0.889133 0
M  V30 35318 C 3461.85 0.310889 1.99087 0
M  V30 35319 O 3460.9 -0.279936 2.50943 0
M  V30 35320 C 3462.22 2.71687 1.28866 0
M  V30 35321 C 3463.77 2.79922 1.40046 0
M  V30 35322 C 3464.24 4.19695 1.83357 0
M  V30 35323 N 3465.73 4.22205 1.90519 0
M  V30 35324 C 3466.47 5.27264 2.25345 0
M  V30 35325 N 3465.96 6.42633 2.58832 0
M  V30 35326 N 3467.76 5.14638 2.26062 0
M  V30 35327 H 3459.91 2.11769 -0.163619 0
M  V30 35328 H 3462.17 0.947941 -0.0105317 0
M  V30 35329 H 3461.88 3.47325 0.552996 0
M  V30 35330 H 3461.75 3.03025 2.24623 0
M  V30 35331 H 3464.14 2.0456 2.12695 0
M  V30 35332 H 3464.22 2.52246 0.424927 0
M  V30 35333 H 3463.86 4.95559 1.1128 0
M  V30 35334 H 3463.79 4.44791 2.81901 0
M  V30 35335 H 3466.28 3.38971 1.67053 0
M  V30 35336 H 3466.6 7.1856 2.84414 0
M  V30 35337 H 3464.94 6.45964 2.56428 0
M  V30 35338 H 3468.13 4.23536 1.99336 0
M  V30 35339 H 3468.3 5.96623 2.52874 0
M  V30 35340 N 3461.71 -0.810054 1.35188 0
M  V30 35341 C 3462.96 -1.56387 1.28014 0
M  V30 35342 C 3463.28 -1.94451 -0.146186 0
M  V30 35343 O 3462.55 -1.6332 -1.08182 0
M  V30 35344 H 3461.13 -0.579924 0.470847 0
M  V30 35345 H 3463.79 -0.966447 1.69251 0
M  V30 35346 H 3462.89 -2.48087 1.89366 0
M  V30 35347 N 3463.19 -1.19129 -1.0318 0
M  V30 35348 C 3464.12 -0.950028 -2.133 0
M  V30 35349 C 3465.1 0.115547 -1.69707 0
M  V30 35350 O 3466.28 -0.0388736 -1.94161 0
M  V30 35351 C 3463.41 -0.484697 -3.43901 0
M  V30 35352 C 3462.37 -1.49177 -4.01161 0
M  V30 35353 C 3461.69 -0.883629 -5.27348 0
M  V30 35354 C 3462.99 -2.87114 -4.36306 0
M  V30 35355 H 3464.69 -1.87099 -2.3374 0
M  V30 35356 H 3462.23 -0.900997 -1.1233 0
M  V30 35357 H 3464.19 -0.303224 -4.20308 0
M  V30 35358 H 3462.91 0.471852 -3.23174 0
M  V30 35359 H 3461.57 -1.66034 -3.26846 0
M  V30 35360 H 3461.22 0.0803828 -5.02936 0
M  V30 35361 H 3460.92 -1.55609 -5.66621 0
M  V30 35362 H 3462.44 -0.712886 -6.06424 0
M  V30 35363 H 3463.86 -2.73857 -5.03662 0
M  V30 35364 H 3462.25 -3.51126 -4.86652 0
M  V30 35365 H 3463.32 -3.39991 -3.45737 0
M  V30 35366 N 3464.67 1.2224 -0.994741 0
M  V30 35367 C 3465.6 2.23571 -0.504822 0
M  V30 35368 C 3466.61 1.57782 0.401078 0
M  V30 35369 O 3467.8 1.77343 0.202917 0
M  V30 35370 C 3464.9 3.37679 0.287465 0
M  V30 35371 C 3464.07 4.33055 -0.615017 0
M  V30 35372 C 3463.13 5.26049 0.125881 0
M  V30 35373 O 3462.16 5.67093 -0.489334 0
M  V30 35374 N 3463.36 5.63175 1.40762 0
M  V30 35375 H 3466.13 2.66236 -1.37617 0
M  V30 35376 H 3463.69 1.36559 -0.869674 0
M  V30 35377 H 3465.68 3.96878 0.791815 0
M  V30 35378 H 3464.25 2.94082 1.05992 0
M  V30 35379 H 3463.47 3.72147 -1.30001 0
M  V30 35380 H 3464.76 4.9372 -1.22956 0
M  V30 35381 H 3464.15 5.31804 1.92874 0
M  V30 35382 H 3462.71 6.24783 1.85712 0
M  V30 35383 N 3466.14 0.768172 1.37611 0
M  V30 35384 C 3467.56 0.396735 1.82436 0
M  V30 35385 C 3467.91 -1.07665 1.64021 0
M  V30 35386 O 3467.03 -1.83354 1.14935 0
M  V30 35387 C 3467.63 0.713323 3.31206 0
M  V30 35388 C 3466.19 0.394986 3.74322 0
M  V30 35389 C 3465.33 0.959008 2.60189 0
M  V30 35390 H 3468.28 0.963121 1.26134 0
M  V30 35391 H 3468.3 -0.0033054 3.805 0
M  V30 35392 H 3467.82 1.78573 3.44577 0
M  V30 35393 H 3465.92 -0.670248 3.66522 0
M  V30 35394 H 3466.03 0.900736 4.70557 0
M  V30 35395 H 3464.39 0.383468 2.51797 0
M  V30 35396 H 3465.18 2.03674 2.76354 0
M  V30 35397 N 3467.62 -1.48829 0.518419 0
M  V30 35398 C 3468.85 -2.06894 -0.0161636 0
M  V30 35399 C 3469.27 -1.37651 -1.29219 0
M  V30 35400 O 3468.62 -0.46032 -1.76599 0
M  V30 35401 C 3468.67 -3.60594 -0.255773 0
M  V30 35402 O 3468.39 -4.27234 0.969688 0
M  V30 35403 C 3469.9 -4.35422 -0.832041 0
M  V30 35404 H 3467.12 -0.670403 0.0282995 0
M  V30 35405 H 3469.66 -1.91377 0.72076 0
M  V30 35406 H 3467.81 -3.75755 -0.942716 0
M  V30 35407 H 3468.23 -5.19207 0.743264 0
M  V30 35408 H 3469.7 -5.43778 -0.949183 0
M  V30 35409 H 3470.18 -3.99069 -1.83414 0
M  V30 35410 H 3470.79 -4.2491 -0.182025 0
M  V30 35411 N 3469.1 -0.253021 -1.55556 0
M  V30 35412 C 3470.03 0.638007 -2.24615 0
M  V30 35413 C 3471.01 1.17648 -1.22854 0
M  V30 35414 O 3472.2 1.2147 -1.51521 0
M  V30 35415 C 3469.33 1.83231 -2.95032 0
M  V30 35416 C 3468.28 1.42634 -4.03534 0
M  V30 35417 C 3467.61 2.70196 -4.61409 0
M  V30 35418 C 3468.91 0.592867 -5.18924 0
M  V30 35419 H 3470.6 0.0621391 -2.99336 0
M  V30 35420 H 3468.15 0.0284469 -1.43972 0
M  V30 35421 H 3470.1 2.46135 -3.42046 0
M  V30 35422 H 3468.82 2.43365 -2.17809 0
M  V30 35423 H 3467.48 0.820609 -3.57298 0
M  V30 35424 H 3467.13 3.28542 -3.8088 0
M  V30 35425 H 3466.83 2.43754 -5.34657 0
M  V30 35426 H 3468.35 3.33988 -5.1116 0
M  V30 35427 H 3469.77 1.12636 -5.62126 0
M  V30 35428 H 3468.17 0.424253 -5.98598 0
M  V30 35429 H 3469.24 -0.393519 -4.83301 0
M  V30 35430 N 3470.58 1.57587 0.0200142 0
M  V30 35431 C 3471.81 1.93949 0.720522 0
M  V30 35432 C 3472.22 0.853528 1.68405 0
M  V30 35433 O 3471.58 -0.169305 1.81713 0
M  V30 35434 C 3471.63 3.30273 1.46976 0
M  V30 35435 O 3471.35 4.34698 0.544895 0
M  V30 35436 C 3472.85 3.80972 2.2666 0
M  V30 35437 H 3470.07 0.63989 0.201945 0
M  V30 35438 H 3472.62 2.04485 -0.0251534 0
M  V30 35439 H 3470.77 3.21107 2.16724 0
M  V30 35440 H 3471.18 5.13443 1.0713 0
M  V30 35441 H 3472.66 4.78844 2.74613 0
M  V30 35442 H 3473.14 3.12635 3.08474 0
M  V30 35443 H 3473.74 3.93251 1.61969 0
M  V30 35444 N 3472.06 -0.292445 1.54863 0
M  V30 35445 C 3473 -1.38094 1.87171 0
M  V30 35446 C 3474 -1.52079 0.746203 0
M  V30 35447 O 3475.2 -1.54095 0.930308 0
M  V30 35448 H 3471.58 -0.461446 0.593777 0
M  V30 35449 H 3473.55 -1.08085 2.78137 0
M  V30 35450 C 3472.3 -2.73793 2.1432 0
M  V30 35451 H 3471.62 -2.63815 3.00402 0
M  V30 35452 H 3473.06 -3.48945 2.4086 0
M  V30 35453 C 3471.52 -3.2339 0.94448 0
M  V30 35454 O 3472.05 -4.01343 0.169278 0
M  V30 35455 N 3470.26 -2.80821 0.747506 0
M  V30 35456 H 3469.8 -2.17545 1.37956 0
M  V30 35457 H 3469.76 -3.14355 -0.0529647 0
M  V30 35458 N 3473.53 -1.47465 -0.55605 0
M  V30 35459 C 3474.95 -1.47995 -1.13817 0
M  V30 35460 C 3475.3 -0.235283 -1.94784 0
M  V30 35461 O 3474.42 0.659716 -2.06099 0
M  V30 35462 C 3475.02 -2.6815 -2.07078 0
M  V30 35463 C 3473.58 -2.71636 -2.60559 0
M  V30 35464 C 3472.72 -2.41115 -1.36963 0
M  V30 35465 H 3475.67 -1.54958 -0.342592 0
M  V30 35466 H 3475.69 -2.45186 -2.90971 0
M  V30 35467 H 3475.21 -3.58723 -1.48121 0
M  V30 35468 H 3473.31 -1.85205 -3.23311 0
M  V30 35469 H 3473.42 -3.72358 -3.01473 0
M  V30 35470 H 3471.78 -1.91722 -1.67675 0
M  V30 35471 H 3472.57 -3.33897 -0.797971 0
M  V30 35472 N 3475.01 0.802873 -1.35616 0
M  V30 35473 C 3476.26 1.55706 -1.28841 0
M  V30 35474 C 3476.58 1.94526 0.135872 0
M  V30 35475 O 3475.85 1.63892 1.07314 0
M  V30 35476 H 3474.43 0.577419 -0.473916 0
M  V30 35477 H 3477.09 0.957457 -1.69761 0
M  V30 35478 H 3476.19 2.47079 -1.90679 0
M  V30 35479 N 3476.49 1.19674 1.02547 0
M  V30 35480 C 3477.4 0.95301 2.14371 0
M  V30 35481 C 3478.42 -0.0881421 1.73777 0
M  V30 35482 O 3479.59 0.0972825 2.01165 0
M  V30 35483 C 3476.66 0.498629 3.43096 0
M  V30 35484 C 3475.72 1.60958 3.97984 0
M  V30 35485 C 3474.95 1.17678 5.20565 0
M  V30 35486 O 3475.18 0.0417638 5.70385 0
M  V30 35487 O 3474.11 1.98069 5.68377 0
M  V30 35488 H 3477.94 1.88908 2.37797 0
M  V30 35489 H 3475.52 0.979856 1.12779 0
M  V30 35490 H 3477.4 0.254042 4.20634 0
M  V30 35491 H 3476.08 -0.408961 3.21106 0
M  V30 35492 H 3474.98 1.90835 3.21765 0
M  V30 35493 H 3476.32 2.49385 4.24344 0
M  V30 35494 N 3477.97 -1.21711 1.00121 0
M  V30 35495 C 3479.21 -1.92399 0.690078 0
M  V30 35496 C 3479.57 -1.76116 -0.764664 0
M  V30 35497 O 3480.77 -2.41142 -1.1876 0
M  V30 35498 C 3479.05 -3.40213 1.09497 0
M  V30 35499 S 3480.6 -4.29398 0.903467 0
M  V30 35500 H 3477.42 -0.664825 0.252049 0
M  V30 35501 H 3480.02 -1.47315 1.28524 0
M  V30 35502 H 3478.73 -3.4958 2.14993 0
M  V30 35503 H 3478.26 -3.90312 0.491947 0
M  V30 35504 H 3480.27 -4.95791 -0.20151 0
M  V30 35505 N 3479.45 -0.775459 -1.37202 0
M  V30 35506 C 3480.86 -0.455515 -1.52962 0
M  V30 35507 C 3481.06 1.02831 -1.73286 0
M  V30 35508 O 3480.12 1.81408 -1.75635 0
M  V30 35509 C 3481.43 -1.27382 -2.72387 0
M  V30 35510 C 3482.98 -1.26609 -2.8625 0
M  V30 35511 C 3483.46 -2.06782 -4.08662 0
M  V30 35512 N 3484.95 -2.04156 -4.15782 0
M  V30 35513 C 3485.68 -2.62969 -5.09544 0
M  V30 35514 N 3485.18 -3.30585 -6.08839 0
M  V30 35515 N 3486.97 -2.52779 -5.02055 0
M  V30 35516 H 3479.12 -1.73683 -1.22262 0
M  V30 35517 H 3481.38 -0.737519 -0.595625 0
M  V30 35518 H 3481.09 -2.32549 -2.63845 0
M  V30 35519 H 3480.96 -0.905532 -3.66169 0
M  V30 35520 H 3483.35 -0.222396 -2.94261 0
M  V30 35521 H 3483.43 -1.67404 -1.93415 0
M  V30 35522 H 3483.08 -3.11175 -4.01413 0
M  V30 35523 H 3483.01 -1.63367 -5.00618 0
M  V30 35524 H 3485.5 -1.54932 -3.4468 0
M  V30 35525 H 3485.81 -3.72827 -6.76919 0
M  V30 35526 H 3484.16 -3.34685 -6.09107 0
M  V30 35527 H 3487.35 -1.99566 -4.23428 0
M  V30 35528 H 3487.52 -2.98908 -5.74942 0
M  V30 35529 N 3480.93 1.48552 -0.526305 0
M  V30 35530 C 3482.34 1.86507 -0.0849022 0
M  V30 35531 C 3482.69 1.43623 1.33667 0
M  V30 35532 O 3481.81 0.825303 2.00044 0
M  V30 35533 C 3482.41 3.3848 -0.147301 0
M  V30 35534 C 3480.97 3.75641 0.238888 0
M  V30 35535 C 3480.11 2.72594 -0.508696 0
M  V30 35536 H 3483.06 1.40509 -0.737753 0
M  V30 35537 H 3483.09 3.75047 0.641898 0
M  V30 35538 H 3482.6 3.69661 -1.18205 0
M  V30 35539 H 3480.7 3.50073 1.27592 0
M  V30 35540 H 3480.81 4.78999 -0.098165 0
M  V30 35541 H 3479.18 2.54661 0.0445934 0
M  V30 35542 H 3479.96 3.06619 -1.54401 0
M  V30 35543 N 3482.4 0.261267 1.55419 0
M  V30 35544 C 3483.35 -0.648284 2.23383 0
M  V30 35545 C 3484.35 -1.16882 1.22618 0
M  V30 35546 O 3485.55 -1.12405 1.40589 0
M  V30 35547 H 3481.93 -0.227579 0.716737 0
M  V30 35548 H 3483.9 -0.0520764 2.98355 0
M  V30 35549 C 3482.65 -1.82761 2.95794 0
M  V30 35550 H 3481.97 -1.43624 3.73112 0
M  V30 35551 H 3483.41 -2.44094 3.4669 0
M  V30 35552 C 3481.87 -2.7076 2.00477 0
M  V30 35553 O 3482.4 -3.70715 1.54705 0
M  V30 35554 N 3480.6 -2.37632 1.67271 0
M  V30 35555 H 3480.15 -1.56399 2.04688 0
M  V30 35556 H 3480.11 -2.96783 1.03764 0
M  V30 35557 N 3483.88 -1.57596 -0.0116567 0
M  V30 35558 C 3485.13 -1.90056 -0.698925 0
M  V30 35559 C 3485.46 -0.860689 -1.7442 0
M  V30 35560 O 3484.71 0.136098 -1.95226 0
M  V30 35561 C 3485.01 -3.29271 -1.38979 0
M  V30 35562 C 3484.68 -4.4835 -0.478837 0
M  V30 35563 C 3483.34 -4.8066 -0.227986 0
M  V30 35564 C 3485.69 -5.20987 0.149061 0
M  V30 35565 C 3483.02 -5.82984 0.65925 0
M  V30 35566 C 3485.37 -6.24255 1.0241 0
M  V30 35567 C 3484.03 -6.55029 1.28425 0
M  V30 35568 H 3483.3 -0.695464 -0.255755 0
M  V30 35569 H 3485.95 -1.91455 0.0413676 0
M  V30 35570 H 3484.26 -3.23941 -2.20384 0
M  V30 35571 H 3485.95 -3.51642 -1.92741 0
M  V30 35572 H 3482.54 -4.23099 -0.684515 0
M  V30 35573 H 3486.73 -4.9629 -0.0317454 0
M  V30 35574 H 3481.98 -6.05194 0.868926 0
M  V30 35575 H 3486.16 -6.79675 1.51706 0
M  V30 35576 H 3483.78 -7.34138 1.97345 0
M  V30 35577 N 3485.36 0.284228 -1.55016 0
M  V30 35578 C 3486.59 1.03583 -1.79104 0
M  V30 35579 C 3487 1.80342 -0.558765 0
M  V30 35580 O 3486.36 1.76294 0.471894 0
M  V30 35581 C 3486.41 2.00325 -3.00919 0
M  V30 35582 O 3486.13 1.26677 -4.19386 0
M  V30 35583 C 3487.63 2.87388 -3.37525 0
M  V30 35584 H 3484.85 0.30648 -0.596918 0
M  V30 35585 H 3487.4 0.318415 -2.02006 0
M  V30 35586 H 3485.55 2.67545 -2.80176 0
M  V30 35587 H 3485.97 1.91788 -4.88178 0
M  V30 35588 H 3487.44 3.51088 -4.2596 0
M  V30 35589 H 3487.92 3.56571 -2.56425 0
M  V30 35590 H 3488.52 2.25676 -3.60487 0
M  V30 35591 N 3486.84 1.47758 0.548222 0
M  V30 35592 C 3488.08 1.56428 1.31566 0
M  V30 35593 C 3488.44 0.225105 1.90676 0
M  V30 35594 O 3489.64 0.186699 2.68151 0
M  V30 35595 C 3487.91 2.6578 2.38947 0
M  V30 35596 S 3489.47 2.94095 3.25659 0
M  V30 35597 H 3486.29 0.55228 0.447781 0
M  V30 35598 H 3488.89 1.85185 0.626627 0
M  V30 35599 H 3487.6 3.61667 1.93971 0
M  V30 35600 H 3487.13 2.38866 3.1258 0
M  V30 35601 H 3489.14 2.31996 4.38625 0
M  V30 35602 N 3488.32 -0.79567 1.3604 0
M  V30 35603 C 3489.28 -1.88964 1.29713 0
M  V30 35604 C 3490.28 -1.59473 0.20617 0
M  V30 35605 O 3491.47 -1.68001 0.460563 0
M  V30 35606 C 3488.6 -3.25617 1.00928 0
M  V30 35607 H 3489.79 -1.95991 2.26997 0
M  V30 35608 H 3487.35 -0.992769 1.20722 0
M  V30 35609 H 3488.08 -3.24274 0.0407597 0
M  V30 35610 H 3487.87 -3.4841 1.79869 0
M  V30 35611 H 3489.36 -4.05673 0.990897 0
M  V30 35612 N 3489.79 -1.20217 -1.0191 0
M  V30 35613 C 3491.03 -1.02205 -1.77013 0
M  V30 35614 C 3491.4 0.438418 -1.86928 0
M  V30 35615 O 3492.6 0.738645 -2.58452 0
M  V30 35616 C 3490.87 -1.68399 -3.15241 0
M  V30 35617 S 3492.43 -1.65456 -4.06411 0
M  V30 35618 H 3489.25 -0.366541 -0.609236 0
M  V30 35619 H 3491.85 -1.52729 -1.22041 0
M  V30 35620 H 3490.55 -2.73874 -3.05648 0
M  V30 35621 H 3490.08 -1.17995 -3.75288 0
M  V30 35622 H 3492.1 -0.685657 -4.9144 0
M  V30 35623 N 3491.27 1.21178 -1.00765 0
M  V30 35624 C 3492.69 1.42389 -0.72093 0
M  V30 35625 C 3492.89 1.88843 0.702885 0
M  V30 35626 O 3491.94 2.05164 1.47187 0
M  V30 35627 C 3493.26 2.45312 -1.73904 0
M  V30 35628 C 3494.81 2.59091 -1.75616 0
M  V30 35629 C 3495.28 3.65248 -2.76329 0
M  V30 35630 N 3496.77 3.72722 -2.75014 0
M  V30 35631 C 3497.51 4.54496 -3.49602 0
M  V30 35632 N 3497 5.40145 -4.33838 0
M  V30 35633 N 3498.8 4.48944 -3.3824 0
M  V30 35634 H 3490.95 0.89337 -1.92698 0
M  V30 35635 H 3493.21 0.454591 -0.831896 0
M  V30 35636 H 3492.92 2.18157 -2.75863 0
M  V30 35637 H 3492.79 3.44158 -1.54386 0
M  V30 35638 H 3495.18 2.85581 -0.743467 0
M  V30 35639 H 3495.26 1.6047 -1.99206 0
M  V30 35640 H 3494.9 3.39503 -3.77757 0
M  V30 35641 H 3494.83 4.63471 -2.50004 0
M  V30 35642 H 3497.32 3.11535 -2.13903 0
M  V30 35643 H 3497.64 5.99603 -4.87541 0
M  V30 35644 H 3495.98 5.39677 -4.37919 0
M  V30 35645 H 3499.17 3.81063 -2.71861 0
M  V30 35646 H 3499.34 5.12438 -3.96624 0
M  V30 35647 N 3492.75 0.782725 1.36789 0
M  V30 35648 C 3493.7 0.174636 2.30138 0
M  V30 35649 C 3494.67 -0.677688 1.51646 0
M  V30 35650 O 3495.85 -0.627764 1.80177 0
M  V30 35651 C 3492.99 -0.689876 3.38134 0
M  V30 35652 C 3492.11 0.180255 4.31624 0
M  V30 35653 C 3491.24 -0.689997 5.267 0
M  V30 35654 C 3490.28 0.181998 6.11829 0
M  V30 35655 N 3489.42 -0.646854 6.99114 0
M  V30 35656 H 3494.26 0.976179 2.81558 0
M  V30 35657 H 3491.79 0.492969 1.38594 0
M  V30 35658 H 3493.75 -1.20603 3.99388 0
M  V30 35659 H 3492.38 -1.45691 2.88052 0
M  V30 35660 H 3491.43 0.814316 3.71582 0
M  V30 35661 H 3492.75 0.852424 4.91462 0
M  V30 35662 H 3491.9 -1.27221 5.93211 0
M  V30 35663 H 3490.64 -1.39581 4.67299 0
M  V30 35664 H 3489.64 0.776668 5.44287 0
M  V30 35665 H 3490.87 0.885314 6.73305 0
M  V30 35666 H 3488.81 -1.33708 6.42229 0
M  V30 35667 H 3488.73 -0.0322219 7.55993 0
M  V30 35668 H 3490 -1.21311 7.70002 0
M  V30 35669 N 3494.23 -1.48271 0.534176 0
M  V30 35670 C 3495.14 -2.3347 -0.230021 0
M  V30 35671 C 3496.15 -1.46753 -0.934863 0
M  V30 35672 O 3497.33 -1.79725 -0.90889 0
M  V30 35673 C 3494.4 -3.22961 -1.26085 0
M  V30 35674 C 3493.46 -4.25554 -0.565908 0
M  V30 35675 C 3492.69 -5.10768 -1.54762 0
M  V30 35676 O 3492.91 -4.98034 -2.78061 0
M  V30 35677 O 3491.85 -5.92045 -1.08472 0
M  V30 35678 H 3495.67 -3.00069 0.468235 0
M  V30 35679 H 3493.26 -1.46458 0.295046 0
M  V30 35680 H 3495.14 -3.78304 -1.85646 0
M  V30 35681 H 3493.81 -2.59017 -1.94144 0
M  V30 35682 H 3492.72 -3.74034 0.0703048 0
M  V30 35683 H 3494.05 -4.92146 0.0728142 0
M  V30 35684 N 3495.71 -0.269505 -1.55279 0
M  V30 35685 C 3496.62 0.630611 -2.25966 0
M  V30 35686 C 3497.63 1.17474 -1.28359 0
M  V30 35687 O 3498.81 1.20622 -1.61283 0
M  V30 35688 C 3495.87 1.80076 -2.96266 0
M  V30 35689 C 3494.93 1.29386 -4.09338 0
M  V30 35690 C 3494.17 2.40824 -4.76276 0
M  V30 35691 O 3494.39 3.60059 -4.42396 0
M  V30 35692 O 3493.32 2.09299 -5.64338 0
M  V30 35693 H 3497.15 0.0581535 -3.03644 0
M  V30 35694 H 3494.74 -0.0371228 -1.49354 0
M  V30 35695 H 3496.62 2.48317 -3.40466 0
M  V30 35696 H 3495.29 2.36041 -2.21509 0
M  V30 35697 H 3494.2 0.578089 -3.69606 0
M  V30 35698 H 3495.53 0.780031 -4.8598 0
M  V30 35699 N 3497.18 1.576 0.00329885 0
M  V30 35700 C 3498.42 1.9228 0.693376 0
M  V30 35701 C 3498.79 0.870745 1.7112 0
M  V30 35702 O 3499.99 1.10269 2.45141 0
M  V30 35703 C 3498.26 3.32025 1.32266 0
M  V30 35704 S 3499.82 3.88585 2.03832 0
M  V30 35705 H 3496.64 0.673074 0.229112 0
M  V30 35706 H 3499.24 1.95429 -0.0525965 0
M  V30 35707 H 3497.94 4.06436 0.569 0
M  V30 35708 H 3497.47 3.32242 2.10664 0
M  V30 35709 H 3499.49 3.69394 3.31305 0
M  V30 35710 N 3498.66 -0.276003 1.55164 0
M  V30 35711 C 3499.61 -1.3411 1.87838 0
M  V30 35712 C 3500.58 -1.49219 0.729588 0
M  V30 35713 O 3501.76 -1.63674 0.980578 0
M  V30 35714 C 3498.9 -2.69689 2.15318 0
M  V30 35715 C 3498.02 -2.62827 3.4285 0
M  V30 35716 C 3497.15 -3.90565 3.60045 0
M  V30 35717 C 3496.19 -3.78201 4.8128 0
M  V30 35718 N 3495.33 -4.97768 4.95148 0
M  V30 35719 H 3500.17 -1.05546 2.78683 0
M  V30 35720 H 3497.71 -0.509977 1.37977 0
M  V30 35721 H 3499.66 -3.48569 2.29249 0
M  V30 35722 H 3498.29 -2.96462 1.27711 0
M  V30 35723 H 3497.35 -1.75673 3.37406 0
M  V30 35724 H 3498.66 -2.49589 4.31864 0
M  V30 35725 H 3497.81 -4.77886 3.73777 0
M  V30 35726 H 3496.55 -4.06666 2.6921 0
M  V30 35727 H 3495.56 -2.89263 4.67554 0
M  V30 35728 H 3496.78 -3.63622 5.73547 0
M  V30 35729 H 3494.73 -5.14285 4.07243 0
M  V30 35730 H 3494.64 -4.8705 5.78203 0
M  V30 35731 H 3495.91 -5.8667 5.13263 0
M  V30 35732 N 3500.14 -1.48046 -0.540378 0
M  V30 35733 C 3501.56 -1.33937 -0.867934 0
M  V30 35734 C 3501.76 -0.342522 -1.98567 0
M  V30 35735 O 3500.81 0.239977 -2.51357 0
M  V30 35736 C 3502.13 -2.73703 -1.24527 0
M  V30 35737 C 3503.67 -2.82114 -1.35575 0
M  V30 35738 C 3504.15 -4.22559 -1.76657 0
M  V30 35739 N 3505.64 -4.25182 -1.83778 0
M  V30 35740 C 3506.37 -5.30782 -2.16929 0
M  V30 35741 N 3505.87 -6.4667 -2.48576 0
M  V30 35742 N 3507.66 -5.18169 -2.17846 0
M  V30 35743 H 3499.81 -2.11482 0.197289 0
M  V30 35744 H 3502.08 -0.947654 0.0256113 0
M  V30 35745 H 3501.78 -3.48161 -0.49767 0
M  V30 35746 H 3501.66 -3.0656 -2.19774 0
M  V30 35747 H 3504.04 -2.07918 -2.09413 0
M  V30 35748 H 3504.13 -2.5289 -0.384743 0
M  V30 35749 H 3503.77 -4.97267 -1.03382 0
M  V30 35750 H 3503.7 -4.4922 -2.74789 0
M  V30 35751 H 3506.19 -3.41586 -1.61639 0
M  V30 35752 H 3506.5 -7.22994 -2.72947 0
M  V30 35753 H 3504.85 -6.49962 -2.46118 0
M  V30 35754 H 3508.04 -4.26654 -1.92572 0
M  V30 35755 H 3508.21 -6.0057 -2.43351 0
M  V30 35756 N 3501.62 0.788444 -1.3646 0
M  V30 35757 C 3502.86 1.54865 -1.30938 0
M  V30 35758 C 3503.2 1.93883 0.110882 0
M  V30 35759 O 3502.47 1.62785 1.06449 0
M  V30 35760 C 3502.76 2.82506 -2.23299 0
M  V30 35761 C 3502.61 2.49849 -3.74026 0
M  V30 35762 C 3503.93 3.84337 -2.14413 0
M  V30 35763 H 3501.05 0.561846 -0.476968 0
M  V30 35764 H 3503.69 0.905776 -1.6702 0
M  V30 35765 H 3501.84 3.37365 -1.92658 0
M  V30 35766 H 3503.51 2.01033 -4.15191 0
M  V30 35767 H 3501.75 1.82778 -3.93414 0
M  V30 35768 H 3502.42 3.41018 -4.34063 0
M  V30 35769 H 3504.9 3.38927 -2.41387 0
M  V30 35770 H 3503.78 4.71396 -2.81207 0
M  V30 35771 H 3504.04 4.27369 -1.13173 0
M  V30 35772 N 3503.1 1.20755 1.01271 0
M  V30 35773 C 3504.32 1.04656 1.79058 0
M  V30 35774 C 3504.75 -0.3996 1.83806 0
M  V30 35775 O 3504.1 -1.28796 1.27598 0
M  V30 35776 C 3504.15 1.6393 3.21184 0
M  V30 35777 O 3503.26 0.879557 4.02911 0
M  V30 35778 H 3502.6 0.368832 0.55214 0
M  V30 35779 H 3505.13 1.60132 1.27353 0
M  V30 35780 H 3505.14 1.67828 3.71884 0
M  V30 35781 H 3503.81 2.69178 3.17043 0
M  V30 35782 H 3502.39 0.915083 3.61498 0
M  V30 35783 N 3504.58 -1.20642 1.01406 0
M  V30 35784 C 3505.99 -1.71671 0.733891 0
M  V30 35785 C 3506.34 -1.81391 -0.747772 0
M  V30 35786 O 3505.46 -1.47472 -1.5837 0
M  V30 35787 C 3506.06 -3.11793 1.32554 0
M  V30 35788 C 3504.62 -3.60142 1.09429 0
M  V30 35789 C 3503.76 -2.37416 1.43279 0
M  V30 35790 H 3506.71 -1.05692 1.18385 0
M  V30 35791 H 3506.74 -3.73725 0.714814 0
M  V30 35792 H 3506.25 -3.04686 2.40391 0
M  V30 35793 H 3504.35 -3.72585 0.0334768 0
M  V30 35794 H 3504.46 -4.45103 1.77256 0
M  V30 35795 H 3502.83 -2.40036 0.851756 0
M  V30 35796 H 3503.61 -2.32952 2.52167 0
M  V30 35797 N 3506.05 -0.789968 -1.36372 0
M  V30 35798 C 3507.46 -0.425709 -1.81782 0
M  V30 35799 C 3507.82 1.05042 -1.65713 0
M  V30 35800 O 3506.94 1.81503 -1.17838 0
M  V30 35801 C 3507.54 -0.765924 -3.30029 0
M  V30 35802 C 3506.09 -0.454487 -3.73646 0
M  V30 35803 C 3505.24 -1.00028 -2.5863 0
M  V30 35804 H 3508.19 -0.983066 -1.24585 0
M  V30 35805 H 3508.21 -0.0572292 -3.80457 0
M  V30 35806 H 3507.73 -1.84032 -3.41692 0
M  V30 35807 H 3505.83 0.611853 -3.67542 0
M  V30 35808 H 3505.94 -0.975483 -4.69064 0
M  V30 35809 H 3504.3 -0.423478 -2.51155 0
M  V30 35810 H 3505.09 -2.08045 -2.73079 0
M  V30 35811 N 3507.53 1.47986 -0.542031 0
M  V30 35812 C 3508.76 2.07395 -0.0147199 0
M  V30 35813 C 3509.18 1.39424 1.26263 0
M  V30 35814 O 3508.54 0.464149 1.75258 0
M  V30 35815 C 3508.59 3.60151 0.179874 0
M  V30 35816 O 3507.69 3.9313 1.24589 0
M  V30 35817 H 3507.03 0.662506 -0.0445193 0
M  V30 35818 H 3509.56 1.90224 -0.753385 0
M  V30 35819 H 3509.57 4.06046 0.398805 0
M  V30 35820 H 3508.25 4.09024 -0.753165 0
M  V30 35821 H 3506.82 3.58999 1.00866 0
M  V30 35822 N 3509.01 0.277736 1.55133 0
M  V30 35823 C 3510.25 -0.339454 2.01562 0
M  V30 35824 C 3510.61 -1.52854 1.16188 0
M  V30 35825 O 3511.81 -2.21554 1.52208 0
M  V30 35826 C 3510.09 -0.709506 3.50287 0
M  V30 35827 S 3511.64 -1.31286 4.187 0
M  V30 35828 H 3508.46 -0.105439 0.703138 0
M  V30 35829 H 3511.06 0.400182 1.9136 0
M  V30 35830 H 3509.77 0.164747 4.10069 0
M  V30 35831 H 3509.3 -1.48053 3.64477 0
M  V30 35832 H 3511.31 -2.60138 4.22543 0
M  V30 35833 N 3510.49 -1.57599 0.00505908 0
M  V30 35834 C 3511.9 -1.78808 -0.537074 0
M  V30 35835 C 3512.25 -0.912976 -1.73664 0
M  V30 35836 O 3511.37 -0.116813 -2.16084 0
M  V30 35837 C 3511.97 -3.24284 -0.981103 0
M  V30 35838 C 3510.53 -3.46571 -1.46851 0
M  V30 35839 C 3509.68 -2.7407 -0.42204 0
M  V30 35840 H 3512.63 -1.57007 0.23121 0
M  V30 35841 H 3512.65 -3.32674 -1.84684 0
M  V30 35842 H 3512.16 -3.8795 -0.107839 0
M  V30 35843 H 3510.26 -2.88126 -2.3625 0
M  V30 35844 H 3510.37 -4.5526 -1.49248 0
M  V30 35845 H 3508.74 -2.38837 -0.884811 0
M  V30 35846 H 3509.52 -3.40438 0.442345 0
M  V30 35847 N 3511.97 0.267771 -1.55309 0
M  V30 35848 C 3513.38 0.838429 -1.66815 0
M  V30 35849 C 3513.73 1.86844 -0.598642 0
M  V30 35850 O 3512.85 2.14845 0.258922 0
M  V30 35851 C 3513.45 1.52753 -3.0241 0
M  V30 35852 C 3512.01 2.04615 -3.15927 0
M  V30 35853 C 3511.15 0.889998 -2.6263 0
M  V30 35854 H 3514.1 0.0440076 -1.58639 0
M  V30 35855 H 3514.13 2.39473 -2.95691 0
M  V30 35856 H 3513.64 0.777628 -3.8023 0
M  V30 35857 H 3511.74 2.8255 -2.42891 0
M  V30 35858 H 3511.85 2.25787 -4.2256 0
M  V30 35859 H 3510.22 1.28481 -2.1992 0
M  V30 35860 H 3511 0.153519 -3.42957 0
M  V30 35861 N 3513.44 1.48331 0.532519 0
M  V30 35862 C 3514.39 1.59065 1.63347 0
M  V30 35863 C 3515.38 0.447932 1.54539 0
M  V30 35864 O 3516.57 0.699233 1.62603 0
M  V30 35865 C 3513.7 1.63114 3.02074 0
M  V30 35866 C 3512.78 2.82857 3.15995 0
M  V30 35867 N 3513.18 4.07302 2.99898 0
M  V30 35868 C 3511.47 2.80136 3.47044 0
M  V30 35869 C 3512.17 4.87627 3.17167 0
M  V30 35870 N 3511.15 4.20397 3.44627 0
M  V30 35871 H 3514.95 2.53031 1.49508 0
M  V30 35872 H 3512.47 1.44667 0.737915 0
M  V30 35873 H 3514.46 1.68898 3.81155 0
M  V30 35874 H 3513.12 0.70263 3.17007 0
M  V30 35875 H 3514.13 4.37779 2.76713 0
M  V30 35876 H 3510.81 1.9653 3.68351 0
M  V30 35877 H 3512.2 5.96382 3.09481 0
M  V30 35878 N 3514.92 -0.781196 1.36876 0
M  V30 35879 C 3516.34 -1.08042 1.17469 0
M  V30 35880 C 3516.54 -2.015 0.00438341 0
M  V30 35881 O 3515.59 -2.43763 -0.658456 0
M  V30 35882 C 3516.91 -1.687 2.4892 0
M  V30 35883 C 3518.45 -1.81002 2.55357 0
M  V30 35884 C 3518.93 -2.45074 3.86915 0
M  V30 35885 N 3520.42 -2.52534 3.88305 0
M  V30 35886 C 3521.16 -3.02939 4.86843 0
M  V30 35887 N 3520.65 -3.53588 5.95775 0
M  V30 35888 N 3522.44 -3.01726 4.74255 0
M  V30 35889 H 3514.6 -0.160466 2.11793 0
M  V30 35890 H 3516.86 -0.133808 0.938509 0
M  V30 35891 H 3516.56 -1.07497 3.34869 0
M  V30 35892 H 3516.44 -2.6811 2.65324 0
M  V30 35893 H 3518.83 -2.4134 1.6982 0
M  V30 35894 H 3518.91 -0.803741 2.42845 0
M  V30 35895 H 3518.55 -1.85378 4.72861 0
M  V30 35896 H 3518.48 -3.46289 3.96726 0
M  V30 35897 H 3520.97 -2.16679 3.09611 0
M  V30 35898 H 3521.28 -3.90423 6.66925 0
M  V30 35899 H 3519.63 -3.51718 5.99433 0
M  V30 35900 H 3522.82 -2.61451 3.88279 0
M  V30 35901 H 3522.99 -3.40699 5.51206 0
M  V30 35902 N 3516.4 -1.21291 -1.0063 0
M  V30 35903 C 3517.33 -0.995058 -2.11236 0
M  V30 35904 C 3518.31 0.0795238 -1.69914 0
M  V30 35905 O 3519.5 -0.0800493 -1.94035 0
M  V30 35906 C 3516.63 -0.557535 -3.42796 0
M  V30 35907 C 3515.58 -1.57653 -3.97906 0
M  V30 35908 C 3514.91 -0.995289 -5.25355 0
M  V30 35909 C 3516.21 -2.96304 -4.30117 0
M  V30 35910 H 3517.9 -1.92014 -2.29719 0
M  V30 35911 H 3515.45 -0.924621 -1.10394 0
M  V30 35912 H 3517.4 -0.39231 -4.1957 0
M  V30 35913 H 3516.12 0.403196 -3.24102 0
M  V30 35914 H 3514.78 -1.7293 -3.2325 0
M  V30 35915 H 3514.43 -0.0263154 -5.02993 0
M  V30 35916 H 3514.13 -1.67593 -5.63193 0
M  V30 35917 H 3515.65 -0.841357 -6.04776 0
M  V30 35918 H 3517.07 -2.84479 -4.97739 0
M  V30 35919 H 3515.46 -3.6137 -4.79095 0
M  V30 35920 H 3516.53 -3.47248 -3.38448 0
M  V30 35921 N 3517.88 1.20103 -1.02045 0
M  V30 35922 C 3519.29 1.71279 -0.742984 0
M  V30 35923 C 3519.64 1.81785 0.738141 0
M  V30 35924 O 3518.76 1.4831 1.57585 0
M  V30 35925 C 3519.36 3.11086 -1.34206 0
M  V30 35926 C 3517.92 3.59557 -1.11337 0
M  V30 35927 C 3517.07 2.36653 -1.44536 0
M  V30 35928 H 3520.02 1.05062 -1.18944 0
M  V30 35929 H 3520.04 3.73341 -0.734624 0
M  V30 35930 H 3519.55 3.03407 -2.42004 0
M  V30 35931 H 3517.65 3.72562 -0.0532354 0
M  V30 35932 H 3517.76 4.44157 -1.79614 0
M  V30 35933 H 3516.13 2.39581 -0.864474 0
M  V30 35934 H 3516.91 2.31612 -2.53399 0
M  V30 35935 N 3519.36 0.797189 1.35951 0
M  V30 35936 C 3520.58 0.385352 2.0328 0
M  V30 35937 C 3521 -1.00073 1.60096 0
M  V30 35938 O 3520.36 -1.6432 0.794043 0
M  V30 35939 C 3520.41 0.448347 3.58709 0
M  V30 35940 O 3520.13 1.77977 4.00319 0
M  V30 35941 C 3521.63 0.0281244 4.43291 0
M  V30 35942 H 3518.85 0.157767 0.652189 0
M  V30 35943 H 3521.39 1.0782 1.73768 0
M  V30 35944 H 3519.55 -0.196156 3.86903 0
M  V30 35945 H 3519.96 1.736 4.94938 0
M  V30 35946 H 3521.44 0.123331 5.51862 0
M  V30 35947 H 3521.91 -1.02545 4.27061 0
M  V30 35948 H 3522.52 0.645417 4.20374 0
M  V30 35949 N 3520.83 -1.47696 0.549872 0
M  V30 35950 C 3521.76 -2.32723 -0.190323 0
M  V30 35951 C 3522.75 -1.43336 -0.915907 0
M  V30 35952 O 3523.93 -1.72201 -0.897807 0
M  V30 35953 C 3521.06 -3.24964 -1.2254 0
M  V30 35954 C 3520.01 -4.23533 -0.616731 0
M  V30 35955 C 3519.34 -5.05047 -1.75591 0
M  V30 35956 C 3520.64 -5.20571 0.424686 0
M  V30 35957 H 3522.33 -2.94858 0.519513 0
M  V30 35958 H 3519.88 -1.41791 0.251284 0
M  V30 35959 H 3521.83 -3.83284 -1.75133 0
M  V30 35960 H 3520.56 -2.60868 -1.96508 0
M  V30 35961 H 3519.22 -3.66428 -0.11216 0
M  V30 35962 H 3518.86 -4.3736 -2.48445 0
M  V30 35963 H 3518.56 -5.71776 -1.35446 0
M  V30 35964 H 3520.09 -5.66224 -2.28524 0
M  V30 35965 H 3521.5 -5.73298 -0.0149018 0
M  V30 35966 H 3519.9 -5.95463 0.744605 0
M  V30 35967 H 3520.97 -4.66495 1.32327 0
M  V30 35968 N 3522.31 -0.285959 -1.54984 0
M  V30 35969 C 3523.73 0.0678781 -1.59456 0
M  V30 35970 C 3523.93 1.53693 -1.30311 0
M  V30 35971 O 3522.98 2.28744 -1.06922 0
M  V30 35972 C 3524.3 -0.316522 -2.99029 0
M  V30 35973 C 3525.85 -0.264036 -3.11884 0
M  V30 35974 C 3526.32 -0.623035 -4.53743 0
M  V30 35975 N 3527.81 -0.574998 -4.59617 0
M  V30 35976 C 3528.55 -0.825439 -5.67428 0
M  V30 35977 N 3528.04 -1.14106 -6.83339 0
M  V30 35978 N 3529.84 -0.753508 -5.57027 0
M  V30 35979 H 3521.99 -1.24353 -1.72192 0
M  V30 35980 H 3524.25 -0.503128 -0.803471 0
M  V30 35981 H 3523.96 -1.33861 -3.25229 0
M  V30 35982 H 3523.83 0.337305 -3.75689 0
M  V30 35983 H 3526.22 0.748781 -2.85442 0
M  V30 35984 H 3526.3 -0.952275 -2.37414 0
M  V30 35985 H 3525.94 -1.63359 -4.80912 0
M  V30 35986 H 3525.87 0.0871113 -5.26528 0
M  V30 35987 H 3528.36 -0.341371 -3.76355 0
M  V30 35988 H 3528.68 -1.31854 -7.61469 0
M  V30 35989 H 3527.02 -1.17895 -6.84928 0
M  V30 35990 H 3530.21 -0.506693 -4.6535 0
M  V30 35991 H 3530.38 -0.952063 -6.40968 0
M  V30 35992 N 3523.79 1.57594 -0.0134169 0
M  V30 35993 C 3524.74 2.09258 0.973634 0
M  V30 35994 C 3525.71 0.991022 1.33297 0
M  V30 35995 O 3526.89 1.26428 1.42901 0
M  V30 35996 C 3524.03 2.61151 2.25598 0
M  V30 35997 C 3523.15 3.85258 1.95449 0
M  V30 35998 C 3522.28 4.25601 3.17863 0
M  V30 35999 C 3521.32 5.42509 2.83462 0
M  V30 36000 N 3520.46 5.78082 3.98453 0
M  V30 36001 H 3525.3 2.93319 0.526138 0
M  V30 36002 H 3522.83 1.44992 0.248123 0
M  V30 36003 H 3524.79 2.8932 3.00582 0
M  V30 36004 H 3523.42 1.79944 2.67992 0
M  V30 36005 H 3522.47 3.63914 1.10775 0
M  V30 36006 H 3523.79 4.70331 1.66102 0
M  V30 36007 H 3522.94 4.55124 4.01182 0
M  V30 36008 H 3521.68 3.39263 3.50359 0
M  V30 36009 H 3520.68 5.12696 1.98553 0
M  V30 36010 H 3521.91 6.30533 2.52199 0
M  V30 36011 H 3519.85 4.94701 4.30821 0
M  V30 36012 H 3519.77 6.5776 3.72676 0
M  V30 36013 H 3521.04 6.12204 4.82521 0
M  V30 36014 N 3525.27 -0.259531 1.55448 0
M  V30 36015 C 3526.5 -1.0072 1.80729 0
M  V30 36016 C 3526.91 -1.7943 0.587385 0
M  V30 36017 O 3526.27 -1.77022 -0.443788 0
M  V30 36018 C 3526.32 -1.95512 3.04068 0
M  V30 36019 O 3526.04 -1.19989 4.21348 0
M  V30 36020 C 3527.54 -2.81982 3.42054 0
M  V30 36021 H 3524.76 -0.296945 0.601718 0
M  V30 36022 H 3527.31 -0.286237 2.02487 0
M  V30 36023 H 3525.46 -2.63053 2.84397 0
M  V30 36024 H 3525.87 -1.83997 4.91167 0
M  V30 36025 H 3527.35 -3.44266 4.31491 0
M  V30 36026 H 3527.83 -3.52447 2.62065 0
M  V30 36027 H 3528.43 -2.19912 3.64031 0
M  V30 36028 N 3526.75 -1.48611 -0.524645 0
M  V30 36029 C 3527.68 -1.59624 -1.64478 0
M  V30 36030 C 3528.69 -0.480208 -1.55557 0
M  V30 36031 O 3529.88 -0.751282 -1.6192 0
M  V30 36032 C 3526.98 -1.51492 -3.03156 0
M  V30 36033 C 3526.15 -2.78226 -3.37504 0
M  V30 36034 C 3525.21 -2.63475 -4.55486 0
M  V30 36035 O 3524.24 -3.37372 -4.58442 0
M  V30 36036 N 3525.44 -1.73446 -5.53982 0
M  V30 36037 H 3528.21 -2.56224 -1.55466 0
M  V30 36038 H 3525.77 -1.45402 -0.712033 0
M  V30 36039 H 3527.76 -1.39311 -3.79966 0
M  V30 36040 H 3526.33 -0.62846 -3.06217 0
M  V30 36041 H 3525.55 -3.04933 -2.49819 0
M  V30 36042 H 3526.84 -3.62294 -3.5724 0
M  V30 36043 H 3526.23 -1.12621 -5.54376 0
M  V30 36044 H 3524.79 -1.67201 -6.2999 0
M  V30 36045 N 3528.22 0.773926 -1.37289 0
M  V30 36046 C 3529.46 1.54545 -1.33773 0
M  V30 36047 C 3529.83 1.91842 0.0777797 0
M  V30 36048 O 3531.03 2.67748 0.237635 0
M  V30 36049 C 3529.3 2.77797 -2.24864 0
M  V30 36050 S 3530.86 3.67884 -2.39179 0
M  V30 36051 H 3527.68 0.529117 -0.474927 0
M  V30 36052 H 3530.28 0.910257 -1.73016 0
M  V30 36053 H 3528.98 2.48472 -3.26634 0
M  V30 36054 H 3528.51 3.46277 -1.86697 0
M  V30 36055 H 3530.53 4.6967 -1.60076 0
M  V30 36056 N 3529.7 1.21823 0.99985 0
M  V30 36057 C 3530.94 1.05008 1.75365 0
M  V30 36058 C 3531.31 -0.408623 1.87601 0
M  V30 36059 O 3532.51 -0.697434 2.59594 0
M  V30 36060 C 3530.78 1.73393 3.12522 0
M  V30 36061 S 3532.34 1.71901 4.03727 0
M  V30 36062 H 3529.16 0.376187 0.603328 0
M  V30 36063 H 3531.76 1.54652 1.19596 0
M  V30 36064 H 3530.46 2.78702 3.01253 0
M  V30 36065 H 3529.99 1.2395 3.73363 0
M  V30 36066 H 3532.01 0.763754 4.90287 0
M  V30 36067 N 3531.18 -1.1956 1.0268 0
M  V30 36068 C 3532.46 -1.84945 0.636772 0
M  V30 36069 C 3532.84 -1.9167 -0.884634 0
M  V30 36070 O 3532.19 -1.43215 -1.7805 0
M  V30 36071 C 3532.4 -3.24027 1.29643 0
M  V30 36072 C 3533.74 -4.0021 1.41835 0
M  V30 36073 O 3534.77 -3.33418 1.25344 0
M  V30 36074 O 3533.63 -5.19848 1.68583 0
M  V30 36075 H 3530.72 -0.796908 0.221058 0
M  V30 36076 H 3533.27 -1.27066 1.12482 0
M  V30 36077 H 3532.04 -3.13956 2.33554 0
M  V30 36078 H 3531.66 -3.89548 0.796109 0
M  V30 36079 N 3532.66 -0.804387 -1.35526 0
M  V30 36080 C 3533.57 -0.214705 -2.33615 0
M  V30 36081 C 3534.58 0.641121 -1.61758 0
M  V30 36082 O 3535.76 0.55339 -1.93648 0
M  V30 36083 C 3532.83 0.628718 -3.40952 0
M  V30 36084 C 3531.89 -0.247344 -4.28587 0
M  V30 36085 C 3531.12 0.555918 -5.30797 0
M  V30 36086 O 3531.34 1.79078 -5.4156 0
M  V30 36087 O 3530.28 -0.0520495 -6.01877 0
M  V30 36088 H 3534.1 -1.0261 -2.85841 0
M  V30 36089 H 3531.69 -0.566132 -1.38258 0
M  V30 36090 H 3533.57 1.10918 -4.0654 0
M  V30 36091 H 3532.24 1.41775 -2.91001 0
M  V30 36092 H 3531.15 -0.7749 -3.65986 0
M  V30 36093 H 3532.48 -1.00026 -4.81929 0
M  V30 36094 N 3534.14 1.47403 -0.557697 0
M  V30 36095 C 3535.37 2.06564 -0.0386401 0
M  V30 36096 C 3535.78 1.41076 1.26072 0
M  V30 36097 O 3535.12 0.501484 1.76722 0
M  V30 36098 C 3535.18 3.5878 0.227397 0
M  V30 36099 C 3534.84 4.46311 -0.982604 0
M  V30 36100 C 3535.84 4.84396 -1.8883 0
M  V30 36101 C 3533.53 4.87819 -1.19741 0
M  V30 36102 C 3535.52 5.62787 -2.99248 0
M  V30 36103 C 3533.21 5.65975 -2.30469 0
M  V30 36104 C 3534.21 6.0337 -3.20053 0
M  V30 36105 O 3533.89 6.79951 -4.28861 0
M  V30 36106 H 3533.63 0.674629 -0.0430348 0
M  V30 36107 H 3536.18 1.90387 -0.770835 0
M  V30 36108 H 3534.41 3.73171 1.01391 0
M  V30 36109 H 3536.1 3.9996 0.691895 0
M  V30 36110 H 3536.86 4.52928 -1.73439 0
M  V30 36111 H 3532.74 4.58178 -0.509304 0
M  V30 36112 H 3536.29 5.91894 -3.69197 0
M  V30 36113 H 3532.18 5.96856 -2.45832 0
M  V30 36114 H 3532.95 6.98345 -4.26915 0
M  V30 36115 N 3535.62 0.294175 1.5483 0
M  V30 36116 C 3536.53 -0.594582 2.2694 0
M  V30 36117 C 3537.54 -1.15417 1.30211 0
M  V30 36118 O 3538.72 -1.18041 1.63182 0
M  V30 36119 C 3535.78 -1.7534 2.99093 0
M  V30 36120 C 3534.84 -1.22858 4.11345 0
M  V30 36121 C 3534.08 -2.33217 4.80047 0
M  V30 36122 O 3534.3 -3.52975 4.48068 0
M  V30 36123 O 3533.23 -2.00294 5.67596 0
M  V30 36124 H 3537.06 -0.00983897 3.03698 0
M  V30 36125 H 3534.64 0.060879 1.49276 0
M  V30 36126 H 3536.53 -2.42869 3.44373 0
M  V30 36127 H 3535.2 -2.32488 2.25236 0
M  V30 36128 H 3534.11 -0.519214 3.70479 0
M  V30 36129 H 3535.44 -0.702617 4.87159 0
M  V30 36130 N 3537.09 -1.57585 0.0217743 0
M  V30 36131 C 3538.33 -1.93359 -0.662699 0
M  V30 36132 C 3538.7 -0.897859 -1.69713 0
M  V30 36133 O 3539.9 -1.14155 -2.43356 0
M  V30 36134 C 3538.17 -3.34087 -1.26967 0
M  V30 36135 S 3539.73 -3.91778 -1.97624 0
M  V30 36136 H 3536.55 -0.676634 -0.218375 0
M  V30 36137 H 3539.15 -1.95321 0.0836809 0
M  V30 36138 H 3537.85 -4.0729 -0.504267 0
M  V30 36139 H 3537.38 -3.35551 -2.05351 0
M  V30 36140 H 3539.4 -3.74618 -3.25386 0
M  V30 36141 N 3538.57 0.251283 -1.55584 0
M  V30 36142 C 3539.53 1.2944 -1.8915 0
M  V30 36143 C 3540.53 1.41295 -0.767625 0
M  V30 36144 O 3541.72 1.40071 -1.03565 0
M  V30 36145 C 3538.86 2.67275 -2.11606 0
M  V30 36146 H 3540.05 1.00896 -2.82418 0
M  V30 36147 H 3537.6 0.490372 -1.48408 0
M  V30 36148 H 3538.34 3.00965 -1.20792 0
M  V30 36149 H 3538.12 2.60053 -2.93454 0
M  V30 36150 H 3539.61 3.42603 -2.38774 0
M  V30 36151 N 3540.05 1.48887 0.516757 0
M  V30 36152 C 3541.29 1.59184 1.28218 0
M  V30 36153 C 3541.65 0.2655 1.90155 0
M  V30 36154 O 3542.85 0.243536 2.67694 0
M  V30 36155 C 3541.13 2.70789 2.33255 0
M  V30 36156 S 3542.68 3.00936 3.19347 0
M  V30 36157 H 3539.5 0.561654 0.435966 0
M  V30 36158 H 3542.1 1.86473 0.587205 0
M  V30 36159 H 3540.81 3.657 1.86256 0
M  V30 36160 H 3540.34 2.45443 3.07443 0
M  V30 36161 H 3542.35 2.41248 4.33606 0
M  V30 36162 N 3541.53 -0.766635 1.37697 0
M  V30 36163 C 3542.48 -1.90145 1.33969 0
M  V30 36164 C 3543.47 -1.67864 0.22763 0
M  V30 36165 O 3544.68 -1.75591 0.395943 0
M  V30 36166 H 3541.05 -0.625377 0.417622 0
M  V30 36167 H 3543.02 -1.90406 2.29757 0
M  V30 36168 C 3541.77 -3.27472 1.16865 0
M  V30 36169 H 3541.09 -3.45196 2.01692 0
M  V30 36170 H 3542.53 -4.0716 1.18308 0
M  V30 36171 C 3540.99 -3.36667 -0.125359 0
M  V30 36172 O 3541.52 -3.86143 -1.1071 0
M  V30 36173 N 3539.73 -2.90056 -0.177789 0
M  V30 36174 H 3539.28 -2.49983 0.621781 0
M  V30 36175 H 3539.23 -2.96588 -1.0432 0
M  V30 36176 N 3543.01 -1.22351 -0.993375 0
M  V30 36177 C 3544.25 -1.05936 -1.74805 0
M  V30 36178 C 3544.61 0.398669 -1.87815 0
M  V30 36179 O 3545.81 0.683657 -2.59961 0
M  V30 36180 C 3544.08 -1.75048 -3.11598 0
M  V30 36181 S 3545.64 -1.74039 -4.0281 0
M  V30 36182 H 3542.46 -0.379382 -0.601324 0
M  V30 36183 H 3545.06 -1.55284 -1.18774 0
M  V30 36184 H 3543.76 -2.80296 -2.9977 0
M  V30 36185 H 3543.3 -1.25929 -3.727 0
M  V30 36186 H 3545.31 -0.789745 -4.89875 0
M  V30 36187 N 3544.48 1.19014 -1.03313 0
M  V30 36188 C 3545.73 1.89084 -0.733157 0
M  V30 36189 C 3546.06 1.79683 0.736719 0
M  V30 36190 O 3545.34 1.19204 1.5369 0
M  V30 36191 C 3545.62 3.39857 -1.19034 0
M  V30 36192 C 3545.47 3.58107 -2.72175 0
M  V30 36193 C 3546.79 4.33232 -0.774459 0
M  V30 36194 H 3543.91 0.686619 -0.267812 0
M  V30 36195 H 3546.55 1.40066 -1.2838 0
M  V30 36196 H 3544.7 3.81735 -0.721866 0
M  V30 36197 H 3546.38 3.25373 -3.27002 0
M  V30 36198 H 3544.62 3.01017 -3.12364 0
M  V30 36199 H 3545.29 4.63865 -2.99221 0
M  V30 36200 H 3547.77 3.99093 -1.17746 0
M  V30 36201 H 3546.64 5.37306 -1.12219 0
M  V30 36202 H 3546.9 4.40919 0.322911 0
M  V30 36203 N 3545.96 0.811563 1.35098 0
M  V30 36204 C 3546.91 0.213577 2.31617 0
M  V30 36205 C 3547.9 -0.639413 1.56869 0
M  V30 36206 O 3549.11 -0.532021 1.71958 0
M  V30 36207 H 3545.48 0.0503095 0.750315 0
M  V30 36208 H 3547.46 1.04267 2.79591 0
M  V30 36209 C 3546.2 -0.619233 3.42141 0
M  V30 36210 H 3545.53 0.0277895 3.9979 0
M  V30 36211 H 3546.97 -1.00394 4.11943 0
M  V30 36212 C 3545.43 -1.78685 2.8561 0
M  V30 36213 O 3545.96 -2.88455 2.79565 0
M  V30 36214 N 3544.16 -1.59996 2.42589 0
M  V30 36215 H 3543.71 -0.707061 2.47706 0
M  V30 36216 H 3543.67 -2.38276 2.05115 0
M  V30 36217 N 3547.44 -1.47105 0.565506 0
M  V30 36218 C 3548.66 -2.07345 0.0477128 0
M  V30 36219 C 3549.09 -1.41416 -1.24029 0
M  V30 36220 O 3548.45 -0.491972 -1.74497 0
M  V30 36221 C 3548.5 -3.60392 -0.122554 0
M  V30 36222 O 3547.6 -3.95063 -1.18319 0
M  V30 36223 H 3546.94 -0.661714 0.0550535 0
M  V30 36224 H 3549.47 -1.89002 0.783553 0
M  V30 36225 H 3549.48 -4.06629 -0.334156 0
M  V30 36226 H 3548.16 -4.07774 0.818141 0
M  V30 36227 H 3546.73 -3.60559 -0.951418 0
M  V30 36228 N 3548.92 -0.302382 -1.54672 0
M  V30 36229 C 3550.15 0.309057 -2.04579 0
M  V30 36230 C 3550.56 1.47414 -1.1796 0
M  V30 36231 O 3549.92 1.81339 -0.205532 0
M  V30 36232 C 3549.97 0.763961 -3.53335 0
M  V30 36233 O 3549.69 -0.354751 -4.36661 0
M  V30 36234 C 3551.19 1.44041 -4.19246 0
M  V30 36235 H 3548.41 0.0669458 -0.667652 0
M  V30 36236 H 3550.96 -0.442414 -1.99657 0
M  V30 36237 H 3549.11 1.46545 -3.58613 0
M  V30 36238 H 3549.52 -0.000333382 -5.245 0
M  V30 36239 H 3551 1.70985 -5.2485 0
M  V30 36240 H 3551.48 2.38091 -3.69065 0
M  V30 36241 H 3552.08 0.782059 -4.18048 0
M  V30 36242 N 3550.4 1.57571 -0.0301311 0
M  V30 36243 C 3551.64 1.92127 0.649249 0
M  V30 36244 C 3551.98 0.90695 1.71721 0
M  V30 36245 O 3551.25 -0.0701677 1.94373 0
M  V30 36246 C 3551.53 3.37158 1.26476 0
M  V30 36247 C 3551.39 4.49327 0.206296 0
M  V30 36248 C 3552.71 3.82172 2.18249 0
M  V30 36249 H 3549.82 0.698682 0.234548 0
M  V30 36250 H 3552.47 1.89798 -0.0875967 0
M  V30 36251 H 3550.62 3.39273 1.89277 0
M  V30 36252 H 3552.29 4.59344 -0.424348 0
M  V30 36253 H 3550.53 4.31267 -0.468111 0
M  V30 36254 H 3551.2 5.47838 0.676593 0
M  V30 36255 H 3553.68 3.81799 1.65434 0
M  V30 36256 H 3552.55 4.84343 2.58268 0
M  V30 36257 H 3552.82 3.17733 3.07406 0
M  V30 36258 N 3551.87 -0.243029 1.55715 0
M  V30 36259 C 3553.1 -0.992187 1.82127 0
M  V30 36260 C 3553.52 -1.78013 0.607696 0
M  V30 36261 O 3552.88 -1.75796 -0.44332 0
M  V30 36262 C 3552.93 -1.90268 3.06317 0
M  V30 36263 O 3552.03 -2.99498 2.83505 0
M  V30 36264 H 3551.38 -0.282117 0.601087 0
M  V30 36265 H 3553.91 -0.262845 2.02905 0
M  V30 36266 H 3553.92 -2.3166 3.35854 0
M  V30 36267 H 3552.59 -1.32337 3.94284 0
M  V30 36268 H 3551.17 -2.62206 2.65146 0
M  V30 36269 N 3553.35 -1.49159 -0.508854 0
M  V30 36270 C 3554.59 -1.59861 -1.27372 0
M  V30 36271 C 3554.96 -0.27558 -1.90012 0
M  V30 36272 O 3556.16 -0.257729 -2.67562 0
M  V30 36273 C 3554.43 -2.72022 -2.31816 0
M  V30 36274 S 3555.99 -3.02626 -3.17747 0
M  V30 36275 H 3552.81 -0.563958 -0.432981 0
M  V30 36276 H 3555.41 -1.86782 -0.577308 0
M  V30 36277 H 3554.11 -3.66683 -1.84314 0
M  V30 36278 H 3553.64 -2.4707 -3.06137 0
M  V30 36279 H 3555.66 -2.43544 -4.3232 0
M  V30 36280 N 3554.83 0.759322 -1.38102 0
M  V30 36281 C 3556.24 1.33632 -1.30381 0
M  V30 36282 C 3556.59 1.96153 0.0429934 0
M  V30 36283 O 3555.72 1.94676 0.944995 0
M  V30 36284 C 3556.31 2.42972 -2.36114 0
M  V30 36285 C 3554.87 2.96408 -2.3199 0
M  V30 36286 C 3554.02 1.69735 -2.19284 0
M  V30 36287 H 3556.97 0.55863 -1.48543 0
M  V30 36288 H 3556.99 3.22767 -2.01499 0
M  V30 36289 H 3556.5 1.97439 -3.34125 0
M  V30 36290 H 3554.6 3.46284 -1.37542 0
M  V30 36291 H 3554.72 3.51177 -3.25901 0
M  V30 36292 H 3553.08 1.93141 -1.66039 0
M  V30 36293 H 3553.86 1.26288 -3.19228 0
M  V30 36294 N 3556.31 1.22876 0.986873 0
M  V30 36295 C 3557.24 1.02854 2.09627 0
M  V30 36296 C 3558.22 -0.0524819 1.70019 0
M  V30 36297 O 3559.4 0.110908 1.93883 0
M  V30 36298 C 3556.53 0.612 3.41865 0
M  V30 36299 C 3555.49 1.63963 3.95348 0
M  V30 36300 C 3554.81 1.07874 5.23705 0
M  V30 36301 C 3556.11 3.0311 4.25349 0
M  V30 36302 H 3557.81 1.95645 2.26635 0
M  V30 36303 H 3555.35 0.942067 1.08909 0
M  V30 36304 H 3557.31 0.45901 4.18893 0
M  V30 36305 H 3556.03 -0.351583 3.24702 0
M  V30 36306 H 3554.69 1.7805 3.20458 0
M  V30 36307 H 3554.34 0.106334 5.02888 0
M  V30 36308 H 3554.04 1.76532 5.60455 0
M  V30 36309 H 3555.56 0.937466 6.03361 0
M  V30 36310 H 3556.98 2.92362 4.93151 0
M  V30 36311 H 3555.37 3.68946 4.73285 0
M  V30 36312 H 3556.44 3.52589 3.3288 0
M  V30 36313 N 3557.79 -1.18464 1.03942 0
M  V30 36314 C 3559.03 -1.88041 0.740609 0
M  V30 36315 C 3559.36 -1.80667 -0.73379 0
M  V30 36316 O 3558.63 -1.22416 -1.52941 0
M  V30 36317 H 3557.21 -0.696124 0.270961 0
M  V30 36318 H 3559.87 -1.4377 1.31591 0
M  V30 36319 H 3558.96 -2.94109 1.04434 0
M  V30 36320 N 3559.26 -0.818716 -1.34665 0
M  V30 36321 C 3560.49 -0.417038 -2.02347 0
M  V30 36322 C 3560.9 0.980436 -1.61815 0
M  V30 36323 O 3560.25 1.64519 -0.817261 0
M  V30 36324 C 3560.31 -0.434841 -3.5686 0
M  V30 36325 C 3559.97 -1.78492 -4.20701 0
M  V30 36326 C 3560.97 -2.74512 -4.41519 0
M  V30 36327 C 3558.65 -2.07225 -4.57562 0
M  V30 36328 C 3560.65 -3.9744 -4.98317 0
M  V30 36329 C 3558.33 -3.30414 -5.14072 0
M  V30 36330 C 3559.33 -4.25339 -5.34393 0
M  V30 36331 O 3559.02 -5.46352 -5.89707 0
M  V30 36332 H 3558.75 -0.166101 -0.655276 0
M  V30 36333 H 3561.31 -1.10711 -1.73009 0
M  V30 36334 H 3559.54 0.311905 -3.8544 0
M  V30 36335 H 3561.23 -0.0537971 -4.05864 0
M  V30 36336 H 3561.99 -2.53608 -4.1341 0
M  V30 36337 H 3557.87 -1.34143 -4.41052 0
M  V30 36338 H 3561.41 -4.71543 -5.14094 0
M  V30 36339 H 3557.31 -3.51183 -5.41609 0
M  V30 36340 H 3558.08 -5.47815 -6.08146 0
M  V30 36341 N 3560.74 1.46803 -0.573299 0
M  V30 36342 C 3561.67 2.32996 0.153275 0
M  V30 36343 C 3562.65 1.44775 0.892988 0
M  V30 36344 O 3563.84 1.73607 0.870298 0
M  V30 36345 C 3560.97 3.26872 1.17354 0
M  V30 36346 C 3559.92 4.24461 0.549272 0
M  V30 36347 C 3559.25 5.07776 1.67533 0
M  V30 36348 C 3560.55 5.19829 -0.507451 0
M  V30 36349 H 3562.24 2.93994 -0.566356 0
M  V30 36350 H 3559.79 1.41373 -0.27381 0
M  V30 36351 H 3561.74 3.86022 1.69013 0
M  V30 36352 H 3560.47 2.63962 1.92333 0
M  V30 36353 H 3559.12 3.6656 0.0538498 0
M  V30 36354 H 3558.77 4.41258 2.41455 0
M  V30 36355 H 3558.47 5.73859 1.26333 0
M  V30 36356 H 3560 5.69788 2.19486 0
M  V30 36357 H 3561.41 5.73249 -0.0763069 0
M  V30 36358 H 3559.81 5.94203 -0.839243 0
M  V30 36359 H 3560.88 4.64331 -1.39731 0
M  V30 36360 N 3562.22 0.31058 1.54509 0
M  V30 36361 C 3563.18 -0.54845 2.22541 0
M  V30 36362 C 3564.18 -1.05379 1.21458 0
M  V30 36363 O 3565.37 -0.948286 1.46127 0
M  V30 36364 C 3562.51 -1.76038 2.9193 0
M  V30 36365 H 3563.7 0.0460833 2.99865 0
M  V30 36366 H 3561.25 0.0615145 1.56179 0
M  V30 36367 H 3561.99 -2.3945 2.18711 0
M  V30 36368 H 3561.77 -1.40558 3.66041 0
M  V30 36369 H 3563.26 -2.37045 3.43801 0
M  V30 36370 N 3563.7 -1.57553 0.0384871 0
M  V30 36371 C 3564.92 -1.96899 -0.651578 0
M  V30 36372 C 3565.35 -0.915337 -1.64326 0
M  V30 36373 O 3564.71 0.122792 -1.80884 0
M  V30 36374 C 3564.76 -3.35332 -1.32607 0
M  V30 36375 O 3563.86 -3.32359 -2.44154 0
M  V30 36376 H 3563.2 -0.641755 -0.17043 0
M  V30 36377 H 3565.73 -2.0434 0.103122 0
M  V30 36378 H 3565.74 -3.71775 -1.6807 0
M  V30 36379 H 3564.42 -4.11561 -0.599203 0
M  V30 36380 H 3562.99 -3.07646 -2.10733 0
M  V30 36381 N 3565.18 0.234767 -1.55842 0
M  V30 36382 C 3566.41 0.978323 -1.82309 0
M  V30 36383 C 3566.82 1.78473 -0.615857 0
M  V30 36384 O 3566.18 1.77706 0.415569 0
M  V30 36385 C 3566.23 1.9065 -3.0714 0
M  V30 36386 O 3565.95 1.13271 -4.23204 0
M  V30 36387 C 3567.45 2.76505 -3.46497 0
M  V30 36388 H 3564.67 0.287335 -0.606366 0
M  V30 36389 H 3567.21 0.253987 -2.02917 0
M  V30 36390 H 3565.37 2.58496 -2.88546 0
M  V30 36391 H 3565.78 1.7616 -4.94032 0
M  V30 36392 H 3567.26 3.37358 -4.36914 0
M  V30 36393 H 3567.73 3.48233 -2.67639 0
M  V30 36394 H 3568.34 2.14093 -3.67484 0
M  V30 36395 N 3566.66 1.49427 0.500936 0
M  V30 36396 C 3567.62 1.65584 1.58475 0
M  V30 36397 C 3568.62 0.527646 1.51896 0
M  V30 36398 O 3569.81 0.794099 1.55047 0
M  V30 36399 C 3566.94 1.65327 2.98127 0
M  V30 36400 H 3568.13 2.62252 1.45478 0
M  V30 36401 H 3565.69 1.38459 0.725175 0
M  V30 36402 H 3566.42 0.702439 3.16601 0
M  V30 36403 H 3566.21 2.4726 3.0431 0
M  V30 36404 H 3567.7 1.79884 3.7687 0
M  V30 36405 N 3568.13 -0.751987 1.38502 0
M  V30 36406 C 3569.36 -1.54123 1.38035 0
M  V30 36407 C 3569.78 -1.88777 -0.0294734 0
M  V30 36408 O 3569.13 -1.52893 -0.996495 0
M  V30 36409 C 3569.18 -2.83937 2.23746 0
M  V30 36410 O 3568.91 -2.50761 3.59236 0
M  V30 36411 C 3570.41 -3.78066 2.31476 0
M  V30 36412 H 3567.63 -0.47684 0.472086 0
M  V30 36413 H 3570.17 -0.93054 1.82102 0
M  V30 36414 H 3568.33 -3.41379 1.83136 0
M  V30 36415 H 3568.74 -3.34029 4.04382 0
M  V30 36416 H 3570.21 -4.66098 2.95731 0
M  V30 36417 H 3570.69 -4.18613 1.32889 0
M  V30 36418 H 3571.3 -3.26547 2.72483 0
M  V30 36419 N 3569.61 -1.23398 -0.980343 0
M  V30 36420 C 3570.56 -1.01266 -2.09399 0
M  V30 36421 C 3571.55 0.048366 -1.69331 0
M  V30 36422 O 3572.76 -0.105141 -1.79693 0
M  V30 36423 H 3569.13 -0.31037 -0.684963 0
M  V30 36424 H 3571.11 -1.95736 -2.25233 0
M  V30 36425 C 3569.85 -0.620586 -3.42117 0
M  V30 36426 H 3569.18 -1.42874 -3.73399 0
M  V30 36427 H 3570.62 -0.505243 -4.20979 0
M  V30 36428 C 3569.08 0.67115 -3.30147 0
M  V30 36429 O 3569.61 1.72028 -3.63 0
M  V30 36430 N 3567.81 0.647087 -2.83304 0
M  V30 36431 H 3567.36 -0.207002 -2.56767 0
M  V30 36432 H 3567.32 1.5116 -2.75677 0
M  V30 36433 N 3571.09 1.17911 -1.04569 0
M  V30 36434 C 3572.37 1.83908 -0.666115 0
M  V30 36435 C 3572.75 1.93053 0.854029 0
M  V30 36436 O 3572.09 1.46029 1.75749 0
M  V30 36437 C 3572.3 3.21924 -1.34781 0
M  V30 36438 C 3573.65 3.97903 -1.48184 0
M  V30 36439 O 3574.68 3.31381 -1.30632 0
M  V30 36440 O 3573.54 5.171 -1.76832 0
M  V30 36441 H 3570.63 0.79329 -0.233708 0
M  V30 36442 H 3573.18 1.25261 -1.14489 0
M  V30 36443 H 3571.95 3.102 -2.38519 0
M  V30 36444 H 3571.57 3.88232 -0.857982 0
M  V30 36445 N 3572.57 0.825847 1.34229 0
M  V30 36446 C 3573.81 0.421208 2.00013 0
M  V30 36447 C 3574.17 -0.99773 1.64041 0
M  V30 36448 O 3575.37 -1.50541 2.2269 0
M  V30 36449 C 3573.64 0.620705 3.51969 0
M  V30 36450 S 3575.2 0.309349 4.37708 0
M  V30 36451 H 3572.02 0.159015 0.69299 0
M  V30 36452 H 3574.62 1.0723 1.63469 0
M  V30 36453 H 3573.33 1.65303 3.75637 0
M  V30 36454 H 3572.86 -0.045014 3.93374 0
M  V30 36455 H 3574.87 -0.875857 4.88409 0
M  V30 36456 N 3574.05 -1.46497 0.581077 0
M  V30 36457 C 3575.29 -2.01993 0.0659007 0
M  V30 36458 C 3575.61 -1.45519 -1.29805 0
M  V30 36459 O 3574.88 -0.639265 -1.85176 0
M  V30 36460 H 3573.46 -0.746694 0.0213716 0
M  V30 36461 H 3576.13 -1.7962 0.756487 0
M  V30 36462 H 3575.22 -3.121 -0.00432642 0
M  V30 36463 N 3575.52 -0.31877 -1.54343 0
M  V30 36464 C 3576.76 0.285894 -2.02391 0
M  V30 36465 C 3577.13 1.4972 -1.202 0
M  V30 36466 O 3578.33 2.1744 -1.58029 0
M  V30 36467 C 3576.6 0.616384 -3.52045 0
M  V30 36468 S 3578.16 1.20138 -4.22033 0
M  V30 36469 H 3574.98 0.0867598 -0.705687 0
M  V30 36470 H 3577.58 -0.450777 -1.90232 0
M  V30 36471 H 3576.28 -0.273411 -4.09488 0
M  V30 36472 H 3575.81 1.38338 -3.68275 0
M  V30 36473 H 3577.83 2.48844 -4.29292 0
M  V30 36474 N 3577 1.5753 -0.0468419 0
M  V30 36475 C 3578.23 1.9683 0.637613 0
M  V30 36476 C 3578.64 0.924187 1.64634 0
M  V30 36477 O 3578 -0.0920819 1.82268 0
M  V30 36478 C 3578.05 3.3621 1.32836 0
M  V30 36479 O 3577.77 4.36618 0.360034 0
M  V30 36480 C 3579.27 3.90243 2.10298 0
M  V30 36481 H 3576.49 0.64788 0.174623 0
M  V30 36482 H 3579.04 2.04194 -0.11186 0
M  V30 36483 H 3577.19 3.3001 2.02909 0
M  V30 36484 H 3577.61 5.17524 0.85257 0
M  V30 36485 H 3579.08 4.90061 2.54056 0
M  V30 36486 H 3579.56 3.25437 2.94937 0
M  V30 36487 H 3580.16 3.99766 1.45144 0
M  V30 36488 N 3578.48 -0.226499 1.55964 0
M  V30 36489 C 3579.71 -0.968641 1.82825 0
M  V30 36490 C 3580.12 -1.78144 0.625313 0
M  V30 36491 O 3579.48 -1.77923 -0.406139 0
M  V30 36492 C 3579.53 -1.89018 3.08147 0
M  V30 36493 O 3579.25 -1.11025 4.23798 0
M  V30 36494 C 3580.75 -2.74663 3.47958 0
M  V30 36495 H 3577.97 -0.284115 0.607881 0
M  V30 36496 H 3580.52 -0.243222 2.03048 0
M  V30 36497 H 3578.67 -2.56962 2.89913 0
M  V30 36498 H 3579.09 -1.73537 4.9496 0
M  V30 36499 H 3580.56 -3.35036 4.38696 0
M  V30 36500 H 3581.04 -3.46809 2.69482 0
M  V30 36501 H 3581.64 -2.12141 3.68614 0
M  V30 36502 N 3579.96 -1.4969 -0.493005 0
M  V30 36503 C 3581.19 -1.63302 -1.27044 0
M  V30 36504 C 3581.6 -0.307567 -1.86278 0
M  V30 36505 O 3580.96 0.707939 -1.6821 0
M  V30 36506 C 3581.01 -2.70784 -2.39496 0
M  V30 36507 O 3580.73 -3.98189 -1.82695 0
M  V30 36508 C 3582.23 -2.95172 -3.30739 0
M  V30 36509 H 3579.45 -0.549537 -0.385032 0
M  V30 36510 H 3582 -1.95775 -0.590964 0
M  V30 36511 H 3580.15 -2.41066 -3.03259 0
M  V30 36512 H 3580.56 -4.57457 -2.5658 0
M  V30 36513 H 3582.04 -3.74092 -4.05905 0
M  V30 36514 H 3582.52 -2.05394 -3.88214 0
M  V30 36515 H 3583.12 -3.26337 -2.72735 0
M  V30 36516 N 3581.44 0.744631 -1.38899 0
M  V30 36517 C 3582.66 1.53389 -1.38851 0
M  V30 36518 C 3583.08 1.8879 0.0194617 0
M  V30 36519 O 3582.44 1.53419 0.988372 0
M  V30 36520 C 3582.49 2.82746 -2.25248 0
M  V30 36521 O 3582.21 2.48852 -3.60561 0
M  V30 36522 C 3583.71 3.76833 -2.33478 0
M  V30 36523 H 3580.93 0.474329 -0.474608 0
M  V30 36524 H 3583.47 0.92087 -1.82593 0
M  V30 36525 H 3581.63 3.40403 -1.84944 0
M  V30 36526 H 3582.04 3.31879 -4.06148 0
M  V30 36527 H 3583.52 4.64523 -2.98198 0
M  V30 36528 H 3583.99 4.17903 -1.35107 0
M  V30 36529 H 3584.6 3.25098 -2.74211 0
M  V30 36530 N 3582.91 1.23916 0.973785 0
M  V30 36531 C 3584.15 1.08704 1.73098 0
M  V30 36532 C 3584.52 -0.368739 1.88426 0
M  V30 36533 O 3585.72 -0.642213 2.61015 0
M  V30 36534 C 3583.99 1.79983 3.08773 0
M  V30 36535 S 3585.55 1.80426 3.9999 0
M  V30 36536 H 3582.37 0.3889 0.595212 0
M  V30 36537 H 3584.97 1.57154 1.16288 0
M  V30 36538 H 3583.67 2.8503 2.95273 0
M  V30 36539 H 3583.2 1.31842 3.7065 0
M  V30 36540 H 3585.22 0.86758 4.88557 0
M  V30 36541 N 3584.39 -1.17355 1.05193 0
M  V30 36542 C 3585.32 -2.23562 0.673971 0
M  V30 36543 C 3586.3 -1.66903 -0.328254 0
M  V30 36544 O 3587.49 -1.93106 -0.205844 0
M  V30 36545 C 3584.62 -3.47267 0.0479411 0
M  V30 36546 C 3583.57 -4.16748 0.974929 0
M  V30 36547 C 3582.9 -5.34276 0.212778 0
M  V30 36548 C 3584.2 -4.68977 2.29908 0
M  V30 36549 H 3585.89 -2.55433 1.56187 0
M  V30 36550 H 3583.44 -1.22778 0.752429 0
M  V30 36551 H 3585.39 -4.20781 -0.228269 0
M  V30 36552 H 3584.12 -3.14663 -0.874908 0
M  V30 36553 H 3582.77 -3.45146 1.2357 0
M  V30 36554 H 3582.42 -4.97923 -0.712836 0
M  V30 36555 H 3582.12 -5.81702 0.830453 0
M  V30 36556 H 3583.65 -6.10574 -0.0561476 0
M  V30 36557 H 3585.06 -5.34128 2.08278 0
M  V30 36558 H 3583.46 -5.26981 2.87073 0
M  V30 36559 H 3584.53 -3.85785 2.93765 0
M  V30 36560 N 3585.87 -0.832954 -1.3379 0
M  V30 36561 C 3587.28 -0.483326 -1.80335 0
M  V30 36562 C 3587.63 0.997166 -1.68971 0
M  V30 36563 O 3586.76 1.77662 -1.23553 0
M  V30 36564 C 3587.35 -0.870533 -3.27425 0
M  V30 36565 C 3585.91 -0.57313 -3.72011 0
M  V30 36566 C 3585.06 -1.08206 -2.55317 0
M  V30 36567 H 3588.01 -1.0222 -1.21395 0
M  V30 36568 H 3588.03 -0.17824 -3.80082 0
M  V30 36569 H 3587.54 -1.9481 -3.35665 0
M  V30 36570 H 3585.64 0.494613 -3.69303 0
M  V30 36571 H 3585.76 -1.12422 -4.65723 0
M  V30 36572 H 3584.12 -0.503167 -2.4968 0
M  V30 36573 H 3584.9 -2.16627 -2.66322 0
M  V30 36574 N 3587.35 1.46186 -0.588837 0
M  V30 36575 C 3588.63 1.95598 -0.00961769 0
M  V30 36576 C 3589.01 1.53146 1.45291 0
M  V30 36577 O 3588.35 0.785053 2.14591 0
M  V30 36578 C 3588.56 3.48493 -0.188079 0
M  V30 36579 C 3589.91 4.24559 -0.0590898 0
M  V30 36580 O 3590.94 3.56007 -0.117229 0
M  V30 36581 O 3589.79 5.46453 0.0714963 0
M  V30 36582 H 3586.89 0.8257 0.0463563 0
M  V30 36583 H 3589.43 1.56441 -0.657586 0
M  V30 36584 H 3588.21 3.72298 -1.20456 0
M  V30 36585 H 3587.83 3.94494 0.496034 0
M  V30 36586 N 3588.83 0.32695 1.54171 0
M  V30 36587 C 3589.77 -0.537461 2.24455 0
M  V30 36588 C 3590.74 -1.10894 1.2366 0
M  V30 36589 O 3591.93 -1.14865 1.5235 0
M  V30 36590 C 3589.07 -1.6908 3.00842 0
M  V30 36591 C 3588.18 -1.14823 4.16461 0
M  V30 36592 C 3587.32 -2.26752 4.80372 0
M  V30 36593 C 3586.36 -1.69761 5.88088 0
M  V30 36594 N 3585.49 -2.75367 6.45846 0
M  V30 36595 H 3590.33 0.0684546 2.97921 0
M  V30 36596 H 3587.87 0.0455545 1.47029 0
M  V30 36597 H 3589.83 -2.36953 3.43379 0
M  V30 36598 H 3588.46 -2.26795 2.29704 0
M  V30 36599 H 3587.51 -0.360938 3.78684 0
M  V30 36600 H 3588.82 -0.691233 4.93987 0
M  V30 36601 H 3587.98 -3.02524 5.25894 0
M  V30 36602 H 3586.71 -2.75789 4.02233 0
M  V30 36603 H 3585.72 -0.92489 5.41965 0
M  V30 36604 H 3586.94 -1.21597 6.68125 0
M  V30 36605 H 3584.89 -3.23689 5.7058 0
M  V30 36606 H 3584.81 -2.3424 7.18796 0
M  V30 36607 H 3586.08 -3.50957 6.96024 0
M  V30 36608 N 3590.3 -1.57503 0.0551955 0
M  V30 36609 C 3591.55 -1.93135 -0.618602 0
M  V30 36610 C 3591.88 -0.934155 -1.70256 0
M  V30 36611 O 3591.16 0.0392357 -1.9446 0
M  V30 36612 C 3591.44 -3.39128 -1.21097 0
M  V30 36613 C 3591.29 -4.49598 -0.134786 0
M  V30 36614 C 3592.61 -3.85596 -2.12141 0
M  V30 36615 H 3589.73 -0.702325 -0.223403 0
M  V30 36616 H 3592.37 -1.89635 0.117781 0
M  V30 36617 H 3590.52 -3.42242 -1.83856 0
M  V30 36618 H 3592.2 -4.58611 0.497372 0
M  V30 36619 H 3590.44 -4.30468 0.536662 0
M  V30 36620 H 3591.11 -5.48845 -0.589351 0
M  V30 36621 H 3593.59 -3.84383 -1.59339 0
M  V30 36622 H 3592.46 -4.88391 -2.5053 0
M  V30 36623 H 3592.72 -3.22583 -3.02312 0
M  V30 36624 N 3591.78 0.218225 -1.56082 0
M  V30 36625 C 3593.02 0.949156 -1.81026 0
M  V30 36626 C 3593.39 1.81397 -0.62921 0
M  V30 36627 O 3594.59 2.5789 -0.758027 0
M  V30 36628 C 3592.86 1.76316 -3.10882 0
M  V30 36629 S 3594.42 2.54928 -3.57152 0
M  V30 36630 H 3591.24 0.318774 -0.635535 0
M  V30 36631 H 3593.84 0.214449 -1.9432 0
M  V30 36632 H 3592.54 1.11804 -3.94877 0
M  V30 36633 H 3592.07 2.54011 -3.00403 0
M  V30 36634 H 3594.09 3.78592 -3.20753 0
M  V30 36635 N 3593.26 1.4995 0.485059 0
M  V30 36636 C 3594.51 1.60476 1.23997 0
M  V30 36637 C 3594.84 0.29777 1.91904 0
M  V30 36638 O 3594.12 -0.699825 1.81474 0
M  V30 36639 C 3594.4 2.77529 2.29455 0
M  V30 36640 C 3594.25 4.1807 1.65945 0
M  V30 36641 C 3595.57 2.90175 3.30887 0
M  V30 36642 H 3592.69 0.584091 0.449451 0
M  V30 36643 H 3595.33 1.8229 0.535763 0
M  V30 36644 H 3593.48 2.59061 2.89516 0
M  V30 36645 H 3595.15 4.48094 1.09588 0
M  V30 36646 H 3593.4 4.22976 0.963004 0
M  V30 36647 H 3594.07 4.95875 2.42513 0
M  V30 36648 H 3596.54 3.07036 2.80835 0
M  V30 36649 H 3595.42 3.73725 4.02021 0
M  V30 36650 H 3595.68 2.00197 3.94175 0
M  V30 36651 N 3594.74 -0.737255 1.39292 0
M  V30 36652 C 3595.69 -1.84231 1.34324 0
M  V30 36653 C 3596.67 -1.59326 0.224517 0
M  V30 36654 O 3597.87 -1.70868 0.461862 0
M  V30 36655 C 3594.99 -3.22133 1.18682 0
M  V30 36656 C 3594.08 -3.52874 2.35246 0
M  V30 36657 N 3594.47 -3.54567 3.60716 0
M  V30 36658 C 3592.77 -3.83225 2.28154 0
M  V30 36659 C 3593.47 -3.8304 4.37785 0
M  V30 36660 N 3592.45 -4.00699 3.67343 0
M  V30 36661 H 3596.25 -1.83841 2.29303 0
M  V30 36662 H 3593.76 -0.93539 1.32756 0
M  V30 36663 H 3595.76 -4.01236 1.13206 0
M  V30 36664 H 3594.42 -3.23763 0.246518 0
M  V30 36665 H 3595.43 -3.35933 3.9417 0
M  V30 36666 H 3592.11 -3.92474 1.42373 0
M  V30 36667 H 3593.5 -3.90836 5.46532 0
M  V30 36668 N 3596.22 -1.24431 -0.967199 0
M  V30 36669 C 3597.63 -1.00981 -1.23592 0
M  V30 36670 C 3597.83 0.281077 -1.9953 0
M  V30 36671 O 3596.89 0.997099 -2.31979 0
M  V30 36672 C 3598.2 -2.22514 -2.02257 0
M  V30 36673 C 3599.75 -2.27144 -2.15348 0
M  V30 36674 C 3600.23 -3.483 -2.97408 0
M  V30 36675 N 3601.72 -3.48619 -3.0499 0
M  V30 36676 C 3602.45 -4.39024 -3.68844 0
M  V30 36677 N 3601.95 -5.39683 -4.34412 0
M  V30 36678 N 3603.74 -4.26735 -3.6586 0
M  V30 36679 H 3595.89 -2.07385 -0.458844 0
M  V30 36680 H 3598.15 -0.910093 -0.265395 0
M  V30 36681 H 3597.86 -3.16266 -1.53846 0
M  V30 36682 H 3597.73 -2.24672 -3.02989 0
M  V30 36683 H 3600.12 -1.33923 -2.62961 0
M  V30 36684 H 3600.2 -2.29012 -1.13962 0
M  V30 36685 H 3599.85 -4.41835 -2.50488 0
M  V30 36686 H 3599.78 -3.43675 -3.98992 0
M  V30 36687 H 3602.27 -2.75797 -2.58349 0
M  V30 36688 H 3602.58 -6.04899 -4.80954 0
M  V30 36689 H 3600.93 -5.43569 -4.33079 0
M  V30 36690 H 3604.12 -3.47331 -3.13813 0
M  V30 36691 H 3604.29 -4.9739 -4.1534 0
M  V30 36692 N 3597.7 1.16795 -1.05814 0
M  V30 36693 C 3598.92 1.9166 -0.792552 0
M  V30 36694 C 3599.35 1.76638 0.646567 0
M  V30 36695 O 3598.7 1.08838 1.44996 0
M  V30 36696 C 3598.75 3.40542 -1.18591 0
M  V30 36697 O 3597.86 4.11143 -0.321789 0
M  V30 36698 H 3597.2 0.597287 -0.290077 0
M  V30 36699 H 3599.73 1.48004 -1.41266 0
M  V30 36700 H 3599.74 3.91299 -1.15537 0
M  V30 36701 H 3598.41 3.50794 -2.23419 0
M  V30 36702 H 3596.99 3.70601 -0.413469 0
M  V30 36703 N 3599.17 0.840037 1.33346 0
M  V30 36704 C 3600.4 0.449829 2.01951 0
M  V30 36705 C 3600.82 -0.949288 1.63199 0
M  V30 36706 O 3600.17 -1.61711 0.845919 0
M  V30 36707 C 3600.22 0.562241 3.57101 0
M  V30 36708 O 3599.95 1.90623 3.94455 0
M  V30 36709 C 3601.45 0.16914 4.42977 0
M  V30 36710 H 3598.67 0.178436 0.64684 0
M  V30 36711 H 3601.21 1.13293 1.70249 0
M  V30 36712 H 3599.37 -0.0729664 3.87331 0
M  V30 36713 H 3599.78 1.89258 4.89164 0
M  V30 36714 H 3601.25 0.298839 5.5119 0
M  V30 36715 H 3601.73 -0.889061 4.30107 0
M  V30 36716 H 3602.34 0.778829 4.18108 0
M  V30 36717 N 3600.65 -1.45872 0.596582 0
M  V30 36718 C 3601.9 -2.0152 0.0851331 0
M  V30 36719 C 3602.21 -1.4721 -1.28796 0
M  V30 36720 O 3603.42 -1.94765 -1.89153 0
M  V30 36721 C 3601.88 -3.59757 0.101551 0
M  V30 36722 C 3601.48 -4.23063 1.47382 0
M  V30 36723 C 3603.23 -4.23011 -0.355229 0
M  V30 36724 C 3601.13 -5.73419 1.44721 0
M  V30 36725 H 3600.06 -0.753478 0.0280576 0
M  V30 36726 H 3602.72 -1.6746 0.750285 0
M  V30 36727 H 3601.1 -3.90956 -0.630039 0
M  V30 36728 H 3602.27 -4.03454 2.22624 0
M  V30 36729 H 3600.59 -3.71959 1.87177 0
M  V30 36730 H 3603.18 -5.33245 -0.394142 0
M  V30 36731 H 3603.53 -3.92914 -1.37566 0
M  V30 36732 H 3604.06 -3.96489 0.322739 0
M  V30 36733 H 3600.8 -6.08198 2.44489 0
M  V30 36734 H 3600.32 -5.95252 0.737207 0
M  V30 36735 H 3602 -6.36405 1.16609 0
M  V30 36736 N 3602.13 -0.335122 -1.53996 0
M  V30 36737 C 3603.36 0.265209 -2.04891 0
M  V30 36738 C 3603.77 1.45428 -1.21026 0
M  V30 36739 O 3603.11 1.82172 -0.236449 0
M  V30 36740 C 3603.17 0.751957 -3.51548 0
M  V30 36741 C 3602.84 -0.316341 -4.55904 0
M  V30 36742 C 3603.83 -1.15626 -5.06879 0
M  V30 36743 C 3601.52 -0.467849 -5.00116 0
M  V30 36744 C 3603.51 -2.13332 -6.0064 0
M  V30 36745 C 3601.2 -1.44831 -5.9369 0
M  V30 36746 C 3602.2 -2.2795 -6.43838 0
M  V30 36747 O 3601.89 -3.24328 -7.35572 0
M  V30 36748 H 3601.62 0.0565309 -0.673632 0
M  V30 36749 H 3604.17 -0.482806 -1.99645 0
M  V30 36750 H 3602.4 1.55107 -3.5423 0
M  V30 36751 H 3604.09 1.27191 -3.85457 0
M  V30 36752 H 3604.86 -1.05026 -4.73492 0
M  V30 36753 H 3600.74 0.169257 -4.60689 0
M  V30 36754 H 3604.28 -2.78247 -6.39707 0
M  V30 36755 H 3600.18 -1.55491 -6.26493 0
M  V30 36756 H 3600.94 -3.19701 -7.53481 0
M  V30 36757 N 3603.61 1.57472 -0.0635475 0
M  V30 36758 C 3605.02 1.80678 0.470341 0
M  V30 36759 C 3605.37 0.976801 1.70156 0
M  V30 36760 O 3604.49 0.196931 2.15502 0
M  V30 36761 C 3605.09 3.27701 0.860072 0
M  V30 36762 C 3603.65 3.51783 1.33887 0
M  V30 36763 C 3602.8 2.75447 0.32003 0
M  V30 36764 H 3605.75 1.5604 -0.289322 0
M  V30 36765 H 3605.77 3.39299 1.7221 0
M  V30 36766 H 3605.28 3.88083 -0.0362207 0
M  V30 36767 H 3603.38 2.96696 2.25394 0
M  V30 36768 H 3603.49 4.60486 1.32249 0
M  V30 36769 H 3601.86 2.41957 0.795558 0
M  V30 36770 H 3602.64 3.38562 -0.568392 0
M  V30 36771 N 3605.09 -0.209945 1.56195 0
M  V30 36772 C 3606.33 -0.933988 1.80013 0
M  V30 36773 C 3606.66 -1.8352 0.635141 0
M  V30 36774 O 3605.94 -1.91043 -0.365066 0
M  V30 36775 C 3606.22 -1.76299 3.13992 0
M  V30 36776 C 3606.08 -0.887489 4.40958 0
M  V30 36777 C 3607.39 -2.73851 3.44519 0
M  V30 36778 H 3604.51 -0.338114 0.654865 0
M  V30 36779 H 3607.16 -0.202177 1.88921 0
M  V30 36780 H 3605.31 -2.3869 3.06528 0
M  V30 36781 H 3606.98 -0.279426 4.60453 0
M  V30 36782 H 3605.22 -0.193457 4.33368 0
M  V30 36783 H 3605.89 -1.50218 5.31167 0
M  V30 36784 H 3608.37 -2.21594 3.52186 0
M  V30 36785 H 3607.24 -3.28949 4.39413 0
M  V30 36786 H 3607.5 -3.52166 2.67266 0
M  V30 36787 N 3606.56 -1.50205 -0.4771 0
M  V30 36788 C 3607.81 -1.60576 -1.22719 0
M  V30 36789 C 3608.13 -0.30536 -1.92594 0
M  V30 36790 O 3607.4 0.67681 -1.83837 0
M  V30 36791 H 3605.98 -0.591699 -0.455962 0
M  V30 36792 H 3608.64 -1.86953 -0.550883 0
M  V30 36793 H 3607.74 -2.41389 -1.97833 0
M  V30 36794 N 3608.04 0.729857 -1.39681 0
M  V30 36795 C 3608.97 1.85429 -1.34717 0
M  V30 36796 C 3609.99 1.6079 -0.255027 0
M  V30 36797 O 3611.18 1.70929 -0.514354 0
M  V30 36798 C 3608.28 3.21557 -1.07024 0
M  V30 36799 C 3607.45 3.73511 -2.27615 0
M  V30 36800 C 3606.51 4.88213 -1.96301 0
M  V30 36801 O 3605.53 5.01607 -2.69034 0
M  V30 36802 N 3606.74 5.72965 -0.932282 0
M  V30 36803 H 3609.5 1.90191 -2.31619 0
M  V30 36804 H 3607.06 0.91081 -1.3385 0
M  V30 36805 H 3609.05 3.95868 -0.840859 0
M  V30 36806 H 3607.62 3.12032 -0.188378 0
M  V30 36807 H 3606.84 2.90493 -2.66473 0
M  V30 36808 H 3608.13 4.04956 -3.0804 0
M  V30 36809 H 3607.53 5.64739 -0.329607 0
M  V30 36810 H 3606.09 6.47321 -0.762798 0
M  V30 36811 N 3609.52 1.24942 0.960587 0
M  V30 36812 C 3610.77 1.09336 1.70446 0
M  V30 36813 C 3611.1 -0.366653 1.91013 0
M  V30 36814 O 3610.35 -1.28695 1.47432 0
M  V30 36815 C 3610.65 1.78624 3.09561 0
M  V30 36816 C 3610.32 3.2855 3.08813 0
M  V30 36817 C 3608.98 3.69451 3.08317 0
M  V30 36818 C 3611.33 4.24362 3.02599 0
M  V30 36819 C 3608.66 5.04587 2.99347 0
M  V30 36820 C 3611.01 5.59515 2.95171 0
M  V30 36821 C 3609.67 5.99753 2.93006 0
M  V30 36822 H 3608.94 0.400089 0.623707 0
M  V30 36823 H 3611.59 1.55138 1.1227 0
M  V30 36824 H 3609.9 1.25237 3.71245 0
M  V30 36825 H 3611.59 1.64008 3.65927 0
M  V30 36826 H 3608.18 2.96002 3.09969 0
M  V30 36827 H 3612.37 3.93758 3.02106 0
M  V30 36828 H 3607.62 5.34951 2.96036 0
M  V30 36829 H 3611.8 6.33455 2.89322 0
M  V30 36830 H 3609.42 7.04426 2.85811 0
M  V30 36831 N 3611 -1.16233 1.06432 0
M  V30 36832 C 3612.24 -1.87311 0.792847 0
M  V30 36833 C 3612.6 -1.80229 -0.673432 0
M  V30 36834 O 3611.89 -1.20805 -1.48717 0
M  V30 36835 C 3612.09 -3.35804 1.22354 0
M  V30 36836 C 3611.92 -3.57342 2.73015 0
M  V30 36837 C 3610.69 -3.73349 3.40498 0
M  V30 36838 C 3612.88 -3.55944 3.71226 0
M  V30 36839 N 3610.87 -3.8285 4.79895 0
M  V30 36840 C 3612.24 -3.71446 4.96415 0
M  V30 36841 C 3614.29 -3.39164 3.64516 0
M  V30 36842 C 3612.99 -3.71905 6.15694 0
M  V30 36843 C 3615.02 -3.40916 4.83249 0
M  V30 36844 C 3614.38 -3.56939 6.07267 0
M  V30 36845 H 3610.48 -0.702985 0.342543 0
M  V30 36846 H 3613.07 -1.3945 1.35874 0
M  V30 36847 H 3611.24 -3.82304 0.685455 0
M  V30 36848 H 3612.97 -3.94552 0.900587 0
M  V30 36849 H 3609.72 -3.7373 2.909 0
M  V30 36850 H 3610.15 -3.91367 5.52414 0
M  V30 36851 H 3614.79 -3.25703 2.69588 0
M  V30 36852 H 3612.51 -3.84147 7.10955 0
M  V30 36853 H 3616.09 -3.29174 4.79725 0
M  V30 36854 H 3614.97 -3.58216 6.97604 0
M  V30 36855 N 3612.48 -0.847097 -1.32899 0
M  V30 36856 C 3613.39 -0.288919 -2.32814 0
M  V30 36857 C 3614.4 0.589335 -1.63716 0
M  V30 36858 O 3615.58 0.491503 -1.95311 0
M  V30 36859 C 3612.64 0.519928 -3.42779 0
M  V30 36860 C 3611.7 -0.383571 -4.27583 0
M  V30 36861 C 3610.94 0.386768 -5.32297 0
M  V30 36862 O 3611.16 1.61758 -5.46983 0
M  V30 36863 O 3610.09 -0.243506 -6.01407 0
M  V30 36864 H 3613.92 -1.11651 -2.82432 0
M  V30 36865 H 3611.51 -0.609831 -1.36387 0
M  V30 36866 H 3613.39 0.979285 -4.09863 0
M  V30 36867 H 3612.06 1.32445 -2.95364 0
M  V30 36868 H 3610.97 -0.890943 -3.63336 0
M  V30 36869 H 3612.3 -1.15308 -4.78503 0
M  V30 36870 N 3613.95 1.45554 -0.604309 0
M  V30 36871 C 3614.86 2.34301 0.118367 0
M  V30 36872 C 3615.88 1.51046 0.863781 0
M  V30 36873 O 3617.06 1.83857 0.822106 0
M  V30 36874 C 3614.12 3.28608 1.10532 0
M  V30 36875 C 3613.18 4.27769 0.362226 0
M  V30 36876 C 3612.42 5.17571 1.30217 0
M  V30 36877 O 3612.64 5.10734 2.53982 0
M  V30 36878 O 3611.57 5.96546 0.801011 0
M  V30 36879 H 3615.4 2.97493 -0.610868 0
M  V30 36880 H 3612.98 1.44883 -0.364587 0
M  V30 36881 H 3614.87 3.8673 1.67385 0
M  V30 36882 H 3613.54 2.67985 1.81564 0
M  V30 36883 H 3612.45 3.73273 -0.248681 0
M  V30 36884 H 3613.78 4.91238 -0.307541 0
M  V30 36885 N 3615.43 0.343284 1.53816 0
M  V30 36886 C 3616.68 -0.25281 2.00513 0
M  V30 36887 C 3617 -1.51089 1.23277 0
M  V30 36888 O 3616.27 -1.92929 0.339874 0
M  V30 36889 H 3614.85 -0.0964072 0.740753 0
M  V30 36890 H 3617.51 0.46438 1.89287 0
M  V30 36891 H 3616.61 -0.495445 3.08142 0
M  V30 36892 N 3616.91 -1.57436 0.0718977 0
M  V30 36893 C 3618.15 -1.95369 -0.600847 0
M  V30 36894 C 3618.51 -0.951397 -1.66771 0
M  V30 36895 O 3619.72 -1.21839 -2.39601 0
M  V30 36896 C 3617.99 -3.37957 -1.16274 0
M  V30 36897 S 3619.55 -3.97867 -1.8506 0
M  V30 36898 H 3616.36 -0.683239 -0.196737 0
M  V30 36899 H 3618.97 -1.94956 0.145778 0
M  V30 36900 H 3617.67 -4.08688 -0.374435 0
M  V30 36901 H 3617.2 -3.41914 -1.94572 0
M  V30 36902 H 3619.22 -3.8478 -3.13303 0
M  V30 36903 N 3618.39 0.201658 -1.56305 0
M  V30 36904 C 3619.67 0.948565 -1.7106 0
M  V30 36905 C 3620.05 2.01641 -0.624829 0
M  V30 36906 O 3619.39 2.25563 0.365195 0
M  V30 36907 C 3619.6 1.54095 -3.13138 0
M  V30 36908 C 3620.95 2.0256 -3.73168 0
M  V30 36909 O 3621.98 1.63951 -3.16226 0
M  V30 36910 O 3620.83 2.73585 -4.73089 0
M  V30 36911 H 3617.93 0.444399 -0.697451 0
M  V30 36912 H 3620.47 0.191872 -1.68612 0
M  V30 36913 H 3619.25 0.770901 -3.83631 0
M  V30 36914 H 3618.87 2.36266 -3.19788 0
M  V30 36915 N 3619.87 1.50456 0.469128 0
M  V30 36916 C 3621.11 1.61783 1.22288 0
M  V30 36917 C 3621.45 0.318107 1.91577 0
M  V30 36918 O 3620.72 -0.680538 1.82206 0
M  V30 36919 C 3621 2.79947 2.26499 0
M  V30 36920 C 3620.86 4.19806 1.61501 0
M  V30 36921 C 3622.18 2.93668 3.27791 0
M  V30 36922 H 3619.29 0.588825 0.443231 0
M  V30 36923 H 3621.94 1.82848 0.516398 0
M  V30 36924 H 3620.09 2.62117 2.86752 0
M  V30 36925 H 3621.76 4.49231 1.0483 0
M  V30 36926 H 3620 4.23974 0.918088 0
M  V30 36927 H 3620.67 4.98419 2.3724 0
M  V30 36928 H 3623.15 3.09997 2.77562 0
M  V30 36929 H 3622.02 3.77968 3.98034 0
M  V30 36930 H 3622.29 2.04366 3.92029 0
M  V30 36931 N 3621.34 -0.722439 1.40066 0
M  V30 36932 C 3622.58 -1.49473 1.39417 0
M  V30 36933 C 3622.95 -1.91999 -0.00652504 0
M  V30 36934 O 3624.15 -2.68445 -0.138098 0
M  V30 36935 C 3622.42 -2.6926 2.35019 0
M  V30 36936 S 3623.98 -3.58754 2.52668 0
M  V30 36937 H 3620.8 -0.511126 0.494238 0
M  V30 36938 H 3623.4 -0.845416 1.76275 0
M  V30 36939 H 3622.1 -2.36178 3.35631 0
M  V30 36940 H 3621.63 -3.39109 1.9942 0
M  V30 36941 H 3623.65 -4.63406 1.77397 0
M  V30 36942 N 3622.82 -1.2545 -0.953947 0
M  V30 36943 C 3624.05 -1.12981 -1.73329 0
M  V30 36944 C 3624.47 0.316331 -1.86131 0
M  V30 36945 O 3623.82 1.2175 -1.35953 0
M  V30 36946 C 3623.87 -1.77944 -3.14672 0
M  V30 36947 O 3623.6 -3.16905 -3.02495 0
M  V30 36948 C 3625.1 -1.71264 -4.08881 0
M  V30 36949 H 3622.32 -0.394045 -0.543111 0
M  V30 36950 H 3624.86 -1.65825 -1.19675 0
M  V30 36951 H 3623.02 -1.29068 -3.65267 0
M  V30 36952 H 3623.43 -3.48857 -3.91662 0
M  V30 36953 H 3624.9 -2.21377 -5.05664 0
M  V30 36954 H 3625.38 -0.676553 -4.33958 0
M  V30 36955 H 3625.99 -2.19631 -3.64201 0
M  V30 36956 N 3624.3 1.15667 -1.07047 0
M  V30 36957 C 3625.54 1.88048 -0.801078 0
M  V30 36958 C 3625.91 1.80275 0.660682 0
M  V30 36959 O 3627.11 2.47656 1.04499 0
M  V30 36960 C 3625.38 3.33251 -1.29146 0
M  V30 36961 S 3626.94 4.234 -1.15228 0
M  V30 36962 H 3623.75 0.648999 -0.290381 0
M  V30 36963 H 3626.36 1.39572 -1.36894 0
M  V30 36964 H 3625.06 3.36451 -2.35009 0
M  V30 36965 H 3624.59 3.8678 -0.718673 0
M  V30 36966 H 3626.61 4.96122 -0.0878932 0
M  V30 36967 N 3625.78 0.854133 1.32447 0
M  V30 36968 C 3627.01 0.471223 2.01462 0
M  V30 36969 C 3627.42 -0.931925 1.64197 0
M  V30 36970 O 3626.78 -1.60805 0.863023 0
M  V30 36971 C 3626.83 0.600085 3.56485 0
M  V30 36972 O 3626.55 1.94796 3.92411 0
M  V30 36973 C 3628.05 0.216114 4.42773 0
M  V30 36974 H 3625.27 0.185287 0.644911 0
M  V30 36975 H 3627.82 1.15093 1.69038 0
M  V30 36976 H 3625.97 -0.0318807 3.87387 0
M  V30 36977 H 3626.39 1.94436 4.87129 0
M  V30 36978 H 3627.86 0.357283 5.50843 0
M  V30 36979 H 3628.34 -0.843393 4.31026 0
M  V30 36980 H 3628.94 0.823132 4.17258 0
M  V30 36981 N 3627.26 -1.45231 0.61202 0
M  V30 36982 C 3628.53 -1.95558 0.0407344 0
M  V30 36983 C 3628.91 -1.55438 -1.42836 0
M  V30 36984 O 3628.26 -0.819093 -2.13315 0
M  V30 36985 C 3628.47 -3.4815 0.243498 0
M  V30 36986 C 3629.82 -4.24411 0.126626 0
M  V30 36987 O 3630.84 -3.55775 0.173852 0
M  V30 36988 O 3629.7 -5.46498 0.0154487 0
M  V30 36989 H 3626.8 -0.826333 -0.0332143 0
M  V30 36990 H 3629.34 -1.55375 0.682391 0
M  V30 36991 H 3628.12 -3.70335 1.26364 0
M  V30 36992 H 3627.74 -3.95233 -0.433211 0
M  V30 36993 N 3628.74 -0.351436 -1.53632 0
M  V30 36994 C 3629.67 0.544913 -2.21599 0
M  V30 36995 C 3630.65 1.09413 -1.20281 0
M  V30 36996 O 3631.83 1.15292 -1.49131 0
M  V30 36997 C 3628.96 1.75042 -2.89962 0
M  V30 36998 C 3628 1.32995 -4.05234 0
M  V30 36999 S 3628.84 0.34311 -5.344 0
M  V30 37000 C 3629.99 1.55527 -6.06269 0
M  V30 37001 H 3630.23 -0.032355 -2.97282 0
M  V30 37002 H 3627.76 -0.135517 -1.53804 0
M  V30 37003 H 3629.72 2.44198 -3.29966 0
M  V30 37004 H 3628.38 2.29892 -2.14029 0
M  V30 37005 H 3627.57 2.22899 -4.52031 0
M  V30 37006 H 3627.17 0.717776 -3.67048 0
M  V30 37007 H 3629.46 2.48854 -6.30141 0
M  V30 37008 H 3630.41 1.12895 -6.99042 0
M  V30 37009 H 3630.82 1.75491 -5.36529 0
M  V30 37010 N 3630.21 1.57396 -0.0802459 0
M  V30 37011 C 3631.12 2.1671 0.898559 0
M  V30 37012 C 3632.14 1.13252 1.32098 0
M  V30 37013 O 3633.32 1.45557 1.39195 0
M  V30 37014 C 3630.38 2.72383 2.14496 0
M  V30 37015 C 3629.44 3.90743 1.77815 0
M  V30 37016 C 3628.67 4.43752 2.96513 0
M  V30 37017 O 3628.9 3.95737 4.1079 0
M  V30 37018 O 3627.83 5.34973 2.7584 0
M  V30 37019 H 3631.66 3.00726 0.423974 0
M  V30 37020 H 3629.24 1.48711 0.143294 0
M  V30 37021 H 3631.12 3.08029 2.87569 0
M  V30 37022 H 3629.8 1.91421 2.61036 0
M  V30 37023 H 3628.71 3.59935 1.01967 0
M  V30 37024 H 3630.04 4.73023 1.36051 0
M  V30 37025 N 3631.69 -0.193366 1.56409 0
M  V30 37026 C 3632.97 -0.93948 1.71561 0
M  V30 37027 C 3633.35 -2.01307 0.635514 0
M  V30 37028 O 3632.7 -2.25753 -0.353228 0
M  V30 37029 C 3632.91 -1.52432 3.13951 0
M  V30 37030 C 3634.25 -2.00578 3.74237 0
M  V30 37031 O 3635.28 -1.62271 3.17091 0
M  V30 37032 O 3634.14 -2.71073 4.74533 0
M  V30 37033 H 3631.23 -0.440694 0.699798 0
M  V30 37034 H 3633.78 -0.182927 1.68711 0
M  V30 37035 H 3632.55 -0.750545 3.84035 0
M  V30 37036 H 3632.17 -2.34566 3.21036 0
M  V30 37037 N 3633.17 -1.50702 -0.461142 0
M  V30 37038 C 3634.13 -1.69728 -1.54029 0
M  V30 37039 C 3635.13 -0.567734 -1.50444 0
M  V30 37040 O 3636.32 -0.834928 -1.52888 0
M  V30 37041 C 3633.45 -1.73173 -2.93639 0
M  V30 37042 H 3634.65 -2.66017 -1.38474 0
M  V30 37043 H 3632.2 -1.40333 -0.68821 0
M  V30 37044 H 3632.94 -0.786133 -3.14627 0
M  V30 37045 H 3632.72 -2.55241 -2.97648 0
M  V30 37046 H 3634.21 -1.89813 -3.71969 0
M  V30 37047 N 3634.65 0.715001 -1.40447 0
M  V30 37048 C 3635.89 1.47707 -1.38962 0
M  V30 37049 C 3636.23 1.94198 0.00795285 0
M  V30 37050 O 3635.5 1.68199 0.976702 0
M  V30 37051 C 3635.78 2.70272 -2.3796 0
M  V30 37052 C 3635.64 2.29671 -3.86744 0
M  V30 37053 C 3636.96 3.72431 -2.34485 0
M  V30 37054 H 3634.08 0.535773 -0.506079 0
M  V30 37055 H 3636.72 0.815968 -1.71587 0
M  V30 37056 H 3634.87 3.26679 -2.1027 0
M  V30 37057 H 3636.54 1.78742 -4.25263 0
M  V30 37058 H 3634.78 1.61667 -4.0255 0
M  V30 37059 H 3635.45 3.1753 -4.51529 0
M  V30 37060 H 3637.93 3.25655 -2.59013 0
M  V30 37061 H 3636.81 4.55827 -3.05799 0
M  V30 37062 H 3637.07 4.20769 -1.35668 0
M  V30 37063 N 3636.13 1.25954 0.947281 0
M  V30 37064 C 3637.06 1.01301 2.04483 0
M  V30 37065 C 3638.04 -0.0602114 1.62488 0
M  V30 37066 O 3639.22 0.0809568 1.88326 0
M  V30 37067 C 3636.35 0.532792 3.34483 0
M  V30 37068 C 3635.39 1.59765 3.95446 0
M  V30 37069 S 3636.23 3.18491 4.30492 0
M  V30 37070 C 3637.38 2.72223 5.636 0
M  V30 37071 H 3637.62 1.94232 2.25081 0
M  V30 37072 H 3635.15 1.09566 1.08788 0
M  V30 37073 H 3637.11 0.262381 4.09661 0
M  V30 37074 H 3635.77 -0.376137 3.1184 0
M  V30 37075 H 3634.96 1.21251 4.89197 0
M  V30 37076 H 3634.56 1.81912 3.26778 0
M  V30 37077 H 3636.85 2.16307 6.42042 0
M  V30 37078 H 3637.8 3.64643 6.06993 0
M  V30 37079 H 3638.21 2.11983 5.23186 0
M  V30 37080 N 3637.6 -1.15097 1.07659 0
M  V30 37081 C 3638.85 -1.8559 0.800058 0
M  V30 37082 C 3639.17 -1.8291 -0.675941 0
M  V30 37083 O 3638.44 -1.2722 -1.48969 0
M  V30 37084 H 3637.02 -0.687152 0.29297 0
M  V30 37085 H 3639.69 -1.39511 1.36098 0
M  V30 37086 H 3638.78 -2.90637 1.13738 0
M  V30 37087 N 3639.08 -0.861145 -1.31993 0
M  V30 37088 C 3640.01 -0.326004 -2.31213 0
M  V30 37089 C 3640.99 0.578355 -1.59966 0
M  V30 37090 O 3642.18 0.497235 -1.87726 0
M  V30 37091 C 3639.31 0.48094 -3.43954 0
M  V30 37092 C 3638.26 -0.329549 -4.26729 0
M  V30 37093 C 3637.59 0.602534 -5.31294 0
M  V30 37094 C 3638.89 -1.55883 -4.98495 0
M  V30 37095 H 3640.58 -1.15508 -2.76221 0
M  V30 37096 H 3638.13 -0.556879 -1.32796 0
M  V30 37097 H 3640.08 0.865778 -4.1241 0
M  V30 37098 H 3638.81 1.34344 -2.9769 0
M  V30 37099 H 3637.46 -0.696222 -3.59928 0
M  V30 37100 H 3637.11 1.46207 -4.81282 0
M  V30 37101 H 3636.81 0.0642012 -5.87565 0
M  V30 37102 H 3638.34 0.984406 -6.02612 0
M  V30 37103 H 3639.75 -1.24593 -5.59598 0
M  V30 37104 H 3638.15 -2.03558 -5.64521 0
M  V30 37105 H 3639.22 -2.31653 -4.25987 0
M  V30 37106 N 3640.56 1.44905 -0.619713 0
M  V30 37107 C 3641.98 1.57046 -0.284365 0
M  V30 37108 C 3642.18 1.60913 1.21282 0
M  V30 37109 O 3641.23 1.54598 1.99639 0
M  V30 37110 C 3642.55 2.84753 -0.966229 0
M  V30 37111 C 3644.09 2.98448 -0.943291 0
M  V30 37112 C 3644.57 4.28942 -1.6054 0
M  V30 37113 N 3646.06 4.35729 -1.57145 0
M  V30 37114 C 3646.79 5.35395 -2.0528 0
M  V30 37115 N 3646.29 6.4153 -2.61554 0
M  V30 37116 N 3648.08 5.2683 -1.95976 0
M  V30 37117 H 3640.23 1.40638 -1.59169 0
M  V30 37118 H 3642.5 0.673192 -0.66747 0
M  V30 37119 H 3642.2 2.8784 -2.02091 0
M  V30 37120 H 3642.08 3.73912 -0.496946 0
M  V30 37121 H 3644.46 2.94921 0.10288 0
M  V30 37122 H 3644.55 2.10668 -1.45096 0
M  V30 37123 H 3644.19 4.33228 -2.65096 0
M  V30 37124 H 3644.12 5.1556 -1.07266 0
M  V30 37125 H 3646.61 3.5964 -1.16048 0
M  V30 37126 H 3646.92 7.13847 -2.96045 0
M  V30 37127 H 3645.27 6.42247 -2.656 0
M  V30 37128 H 3648.46 4.42823 -1.51742 0
M  V30 37129 H 3648.63 6.04352 -2.33801 0
M  V30 37130 N 3642.04 0.359579 1.53443 0
M  V30 37131 C 3643.28 -0.232331 2.01465 0
M  V30 37132 C 3643.62 -1.48909 1.24658 0
M  V30 37133 O 3642.89 -1.9153 0.338607 0
M  V30 37134 C 3643.18 -0.53034 3.56173 0
M  V30 37135 C 3643.03 0.739634 4.43677 0
M  V30 37136 C 3644.35 -1.3334 4.19415 0
M  V30 37137 H 3641.47 -0.0829673 0.732315 0
M  V30 37138 H 3644.11 0.483285 1.83751 0
M  V30 37139 H 3642.26 -1.13998 3.71398 0
M  V30 37140 H 3643.93 1.37727 4.4026 0
M  V30 37141 H 3642.17 1.36124 4.11889 0
M  V30 37142 H 3642.84 0.486158 5.49855 0
M  V30 37143 H 3645.32 -0.817745 4.07985 0
M  V30 37144 H 3644.2 -1.51066 5.27703 0
M  V30 37145 H 3644.46 -2.34018 3.75084 0
M  V30 37146 N 3643.52 -1.57351 0.0885919 0
M  V30 37147 C 3644.48 -2.12529 -0.858141 0
M  V30 37148 C 3645.48 -1.05307 -1.2152 0
M  V30 37149 O 3646.67 -1.31222 -1.14571 0
M  V30 37150 C 3643.8 -2.64052 -2.15614 0
M  V30 37151 H 3644.99 -2.97494 -0.379128 0
M  V30 37152 H 3642.55 -1.55476 -0.160327 0
M  V30 37153 H 3643.28 -1.82588 -2.68015 0
M  V30 37154 H 3643.07 -3.42441 -1.90989 0
M  V30 37155 H 3644.56 -3.06758 -2.83353 0
M  V30 37156 N 3644.99 0.185069 -1.5651 0
M  V30 37157 C 3645.93 1.25358 -1.9188 0
M  V30 37158 C 3646.94 1.41192 -0.810468 0
M  V30 37159 O 3648.13 1.4144 -1.0889 0
M  V30 37160 C 3645.23 2.6243 -2.14438 0
M  V30 37161 C 3644.4 2.68074 -3.45623 0
M  V30 37162 C 3643.46 3.86412 -3.57172 0
M  V30 37163 O 3642.49 3.73049 -4.29911 0
M  V30 37164 N 3643.69 5.02293 -2.91002 0
M  V30 37165 H 3646.45 0.953278 -2.84135 0
M  V30 37166 H 3644.01 0.374927 -1.57499 0
M  V30 37167 H 3646.01 3.4004 -2.19443 0
M  V30 37168 H 3644.58 2.84907 -1.28634 0
M  V30 37169 H 3643.8 1.76663 -3.52397 0
M  V30 37170 H 3645.08 2.68844 -4.31973 0
M  V30 37171 H 3644.48 5.1605 -2.31752 0
M  V30 37172 H 3643.04 5.77813 -3.01621 0
M  V30 37173 N 3646.47 1.50945 0.453144 0
M  V30 37174 C 3647.71 1.64478 1.21352 0
M  V30 37175 C 3648.08 0.345912 1.88858 0
M  V30 37176 O 3649.28 0.356855 2.66421 0
M  V30 37177 C 3647.55 2.80438 2.2156 0
M  V30 37178 S 3649.11 3.1421 3.06296 0
M  V30 37179 H 3645.93 0.579639 0.411752 0
M  V30 37180 H 3648.53 1.88796 0.507587 0
M  V30 37181 H 3647.23 3.73271 1.70578 0
M  V30 37182 H 3646.76 2.58262 2.96756 0
M  V30 37183 H 3648.78 2.59422 4.22983 0
M  V30 37184 N 3647.95 -0.707543 1.40825 0
M  V30 37185 C 3649.18 -1.50158 1.43064 0
M  V30 37186 C 3649.6 -1.88069 0.0342475 0
M  V30 37187 O 3648.96 -1.5382 -0.959646 0
M  V30 37188 C 3649.01 -2.74822 2.33463 0
M  V30 37189 O 3648.11 -3.71844 1.78342 0
M  V30 37190 H 3647.45 -0.452408 0.486028 0
M  V30 37191 H 3649.98 -0.87071 1.85148 0
M  V30 37192 H 3649.99 -3.23263 2.48928 0
M  V30 37193 H 3648.67 -2.46565 3.34931 0
M  V30 37194 H 3647.24 -3.30725 1.72266 0
M  V30 37195 N 3649.43 -1.26454 -0.940588 0
M  V30 37196 C 3650.36 -1.03856 -2.0432 0
M  V30 37197 C 3651.37 0.00119756 -1.628 0
M  V30 37198 O 3652.56 -0.238943 -1.76894 0
M  V30 37199 C 3649.66 -0.550848 -3.34393 0
M  V30 37200 C 3648.84 -1.65997 -4.04677 0
M  V30 37201 C 3647.89 -1.17021 -5.13023 0
M  V30 37202 O 3646.92 -1.8674 -5.37696 0
M  V30 37203 N 3648.12 -0.0189498 -5.80497 0
M  V30 37204 H 3650.89 -1.98801 -2.24273 0
M  V30 37205 H 3648.45 -1.17848 -1.11011 0
M  V30 37206 H 3650.44 -0.207376 -4.04168 0
M  V30 37207 H 3649.01 0.305035 -3.11108 0
M  V30 37208 H 3648.23 -2.17435 -3.28809 0
M  V30 37209 H 3649.52 -2.4047 -4.48388 0
M  V30 37210 H 3648.92 0.563269 -5.62889 0
M  V30 37211 H 3647.47 0.265441 -6.51259 0
M  V30 37212 N 3650.91 1.14525 -1.08268 0
M  V30 37213 C 3651.85 2.19564 -0.71137 0
M  V30 37214 C 3652.82 1.63336 0.301745 0
M  V30 37215 O 3654.01 1.8989 0.186076 0
M  V30 37216 C 3651.15 3.44872 -0.125315 0
M  V30 37217 C 3650.26 4.15257 -1.19104 0
M  V30 37218 C 3649.4 5.28144 -0.568994 0
M  V30 37219 C 3648.44 5.90359 -1.61685 0
M  V30 37220 N 3647.57 6.947 -1.01671 0
M  V30 37221 H 3652.41 2.50674 -1.61142 0
M  V30 37222 H 3649.95 1.23098 -0.805307 0
M  V30 37223 H 3651.91 4.16553 0.232174 0
M  V30 37224 H 3650.54 3.14249 0.738046 0
M  V30 37225 H 3649.59 3.41979 -1.66597 0
M  V30 37226 H 3650.9 4.57595 -1.98516 0
M  V30 37227 H 3650.06 6.0649 -0.159669 0
M  V30 37228 H 3648.79 4.87023 0.256798 0
M  V30 37229 H 3647.8 5.10718 -2.03585 0
M  V30 37230 H 3649.02 6.33555 -2.44509 0
M  V30 37231 H 3646.97 6.55657 -0.211987 0
M  V30 37232 H 3646.89 7.35515 -1.74794 0
M  V30 37233 H 3648.16 7.76924 -0.633197 0
M  V30 37234 N 3652.39 0.868133 1.31534 0
M  V30 37235 C 3653.8 0.530969 1.78991 0
M  V30 37236 C 3654.15 -0.952016 1.71555 0
M  V30 37237 O 3653.27 -1.74324 1.2822 0
M  V30 37238 C 3653.87 0.957038 3.25002 0
M  V30 37239 C 3652.43 0.67156 3.70361 0
M  V30 37240 C 3651.57 1.14937 2.52359 0
M  V30 37241 H 3654.52 1.05403 1.18642 0
M  V30 37242 H 3654.55 0.278949 3.79476 0
M  V30 37243 H 3654.06 2.03641 3.30382 0
M  V30 37244 H 3652.16 -0.396525 3.70484 0
M  V30 37245 H 3652.27 1.2473 4.62579 0
M  V30 37246 H 3650.64 0.569188 2.48259 0
M  V30 37247 H 3651.42 2.23612 2.60485 0
M  V30 37248 N 3653.86 -1.44574 0.627389 0
M  V30 37249 C 3655.1 -2.03963 0.13365 0
M  V30 37250 C 3655.47 -1.48254 -1.22003 0
M  V30 37251 O 3656.67 -1.99121 -1.80566 0
M  V30 37252 C 3654.94 -3.57212 0.115897 0
M  V30 37253 S 3656.5 -4.37677 -0.313766 0
M  V30 37254 H 3653.32 -0.708527 0.0592523 0
M  V30 37255 H 3655.92 -1.77009 0.82994 0
M  V30 37256 H 3654.62 -3.95264 1.10429 0
M  V30 37257 H 3654.15 -3.8877 -0.601759 0
M  V30 37258 H 3656.17 -4.71078 -1.55884 0
M  V30 37259 N 3655.34 -0.367711 -1.5325 0
M  V30 37260 C 3656.25 0.485628 -2.29519 0
M  V30 37261 C 3657.27 1.09073 -1.3557 0
M  V30 37262 O 3658.44 1.10121 -1.68628 0
M  V30 37263 C 3655.51 1.6087 -3.07118 0
M  V30 37264 C 3654.57 1.03092 -4.16738 0
M  V30 37265 C 3653.8 2.10048 -4.90628 0
M  V30 37266 O 3654.03 3.31195 -4.64399 0
M  V30 37267 O 3652.96 1.72986 -5.76506 0
M  V30 37268 H 3656.79 -0.135071 -3.03399 0
M  V30 37269 H 3654.37 -0.132031 -1.48815 0
M  V30 37270 H 3656.25 2.26161 -3.55568 0
M  V30 37271 H 3654.93 2.21477 -2.36072 0
M  V30 37272 H 3653.83 0.341862 -3.72535 0
M  V30 37273 H 3655.17 0.469387 -4.89957 0
M  V30 37274 N 3656.82 1.57302 -0.0969353 0
M  V30 37275 C 3658.1 1.85887 0.608704 0
M  V30 37276 C 3658.48 0.994129 1.86226 0
M  V30 37277 O 3657.82 0.0670377 2.28402 0
M  V30 37278 C 3658.03 3.36592 0.922326 0
M  V30 37279 C 3659.38 4.04689 1.28498 0
M  V30 37280 O 3660.41 3.41484 1.01328 0
M  V30 37281 O 3659.27 5.16218 1.79391 0
M  V30 37282 H 3656.36 0.768784 0.304795 0
M  V30 37283 H 3658.91 1.69203 -0.129772 0
M  V30 37284 H 3657.68 3.91286 0.03308 0
M  V30 37285 H 3657.3 3.58629 1.71672 0
M  V30 37286 N 3658.3 -0.176766 1.56606 0
M  V30 37287 C 3659.52 -0.914048 1.86172 0
M  V30 37288 C 3659.95 -1.75275 0.682651 0
M  V30 37289 O 3659.31 -1.77518 -0.36836 0
M  V30 37290 C 3659.35 -1.77105 3.14112 0
M  V30 37291 O 3658.46 -2.87204 2.95952 0
M  V30 37292 H 3657.8 -0.256369 0.612512 0
M  V30 37293 H 3660.33 -0.17655 2.03837 0
M  V30 37294 H 3660.34 -2.17207 3.45377 0
M  V30 37295 H 3659.01 -1.15495 3.99542 0
M  V30 37296 H 3657.59 -2.50724 2.76028 0
M  V30 37297 N 3659.78 -1.51183 -0.445132 0
M  V30 37298 C 3661.02 -1.6512 -1.20478 0
M  V30 37299 C 3661.38 -0.355923 -1.88672 0
M  V30 37300 O 3662.58 -0.370979 -2.66228 0
M  V30 37301 C 3660.85 -2.81609 -2.2007 0
M  V30 37302 S 3662.41 -3.1583 -3.04626 0
M  V30 37303 H 3659.23 -0.581815 -0.408672 0
M  V30 37304 H 3661.83 -1.89062 -0.497568 0
M  V30 37305 H 3660.53 -3.7417 -1.68596 0
M  V30 37306 H 3660.07 -2.59832 -2.95383 0
M  V30 37307 H 3662.08 -2.61661 -4.21602 0
M  V30 37308 N 3661.25 0.700065 -1.41198 0
M  V30 37309 C 3662.67 1.0101 -1.23568 0
M  V30 37310 C 3662.87 2.01131 -0.121856 0
M  V30 37311 O 3661.93 2.47188 0.515215 0
M  V30 37312 C 3663.24 1.539 -2.58332 0
M  V30 37313 C 3664.79 1.65806 -2.65476 0
M  V30 37314 C 3665.26 2.22099 -4.00545 0
M  V30 37315 N 3666.75 2.29465 -4.02368 0
M  V30 37316 C 3667.49 2.74039 -5.03677 0
M  V30 37317 N 3666.98 3.18251 -6.15376 0
M  V30 37318 N 3668.78 2.73563 -4.9104 0
M  V30 37319 H 3660.93 0.0367115 -2.12368 0
M  V30 37320 H 3663.19 0.0788629 -0.944714 0
M  V30 37321 H 3662.9 0.877904 -3.40567 0
M  V30 37322 H 3662.77 2.52185 -2.80504 0
M  V30 37323 H 3665.16 2.31029 -1.83602 0
M  V30 37324 H 3665.24 0.660788 -2.47118 0
M  V30 37325 H 3664.88 1.57493 -4.82865 0
M  V30 37326 H 3664.81 3.2257 -4.16241 0
M  V30 37327 H 3667.3 1.98259 -3.21717 0
M  V30 37328 H 3667.62 3.50876 -6.88554 0
M  V30 37329 H 3665.96 3.16171 -6.18919 0
M  V30 37330 H 3669.15 2.38369 -4.02862 0
M  V30 37331 H 3669.33 3.07983 -5.70132 0
M  V30 37332 N 3662.73 1.26951 0.933869 0
M  V30 37333 C 3663.96 1.15831 1.7204 0
M  V30 37334 C 3664.38 -0.281897 1.85976 0
M  V30 37335 O 3663.74 -1.20421 1.35531 0
M  V30 37336 C 3663.79 1.84025 3.10108 0
M  V30 37337 O 3662.89 1.13401 3.96502 0
M  V30 37338 H 3662.23 0.4032 0.527566 0
M  V30 37339 H 3664.76 1.67907 1.16911 0
M  V30 37340 H 3664.77 1.91139 3.60458 0
M  V30 37341 H 3663.45 2.88796 2.99282 0
M  V30 37342 H 3662.02 1.14313 3.54946 0
M  V30 37343 N 3664.21 -1.13949 1.08873 0
M  V30 37344 C 3665.46 -1.84731 0.819697 0
M  V30 37345 C 3665.78 -1.83617 -0.656502 0
M  V30 37346 O 3665.05 -1.28793 -1.47611 0
M  V30 37347 H 3663.63 -0.684006 0.300242 0
M  V30 37348 H 3666.29 -1.38059 1.3757 0
M  V30 37349 H 3665.39 -2.89415 1.16814 0
M  V30 37350 N 3665.69 -0.875096 -1.31072 0
M  V30 37351 C 3666.93 -0.488584 -1.96517 0
M  V30 37352 C 3667.26 0.960213 -1.69145 0
M  V30 37353 O 3666.52 1.69199 -0.983373 0
M  V30 37354 C 3666.82 -0.698412 -3.5051 0
M  V30 37355 C 3666.48 -2.12078 -3.97912 0
M  V30 37356 C 3665.14 -2.50975 -4.10566 0
M  V30 37357 C 3667.5 -3.04818 -4.22771 0
M  V30 37358 C 3664.82 -3.81843 -4.45435 0
M  V30 37359 C 3667.18 -4.35206 -4.59106 0
M  V30 37360 C 3665.84 -4.74011 -4.69968 0
M  V30 37361 H 3665.11 -0.178785 -0.719108 0
M  V30 37362 H 3667.76 -1.10906 -1.56115 0
M  V30 37363 H 3666.06 0.00517051 -3.918 0
M  V30 37364 H 3667.76 -0.379101 -3.99204 0
M  V30 37365 H 3664.35 -1.80881 -3.88562 0
M  V30 37366 H 3668.53 -2.7599 -4.12484 0
M  V30 37367 H 3663.79 -4.11663 -4.52043 0
M  V30 37368 H 3667.96 -5.07113 -4.77294 0
M  V30 37369 H 3665.59 -5.75457 -4.96743 0
M  V30 37370 N 3667.17 1.44239 -0.635047 0
M  V30 37371 C 3668.39 2.06368 -0.148296 0
M  V30 37372 C 3668.81 1.47484 1.17872 0
M  V30 37373 O 3668.17 0.599199 1.72383 0
M  V30 37374 C 3668.22 3.61486 -0.0315826 0
M  V30 37375 O 3667.94 4.18177 -1.30612 0
M  V30 37376 C 3669.44 4.40656 0.483401 0
M  V30 37377 H 3666.66 0.666034 -0.0814837 0
M  V30 37378 H 3669.2 1.85045 -0.870559 0
M  V30 37379 H 3667.36 3.82058 0.641141 0
M  V30 37380 H 3667.77 5.11659 -1.1535 0
M  V30 37381 H 3669.25 5.49601 0.514068 0
M  V30 37382 H 3669.72 4.12382 1.51122 0
M  V30 37383 H 3670.33 4.25013 -0.156206 0
M  V30 37384 N 3668.64 0.375833 1.53053 0
M  V30 37385 C 3669.87 -0.210792 2.05522 0
M  V30 37386 C 3670.28 -1.42168 1.24839 0
M  V30 37387 O 3669.63 -1.81481 0.284666 0
M  V30 37388 C 3669.69 -0.658485 3.53418 0
M  V30 37389 C 3669.35 0.437105 4.54905 0
M  V30 37390 C 3670.35 1.29025 5.03635 0
M  V30 37391 C 3668.03 0.600282 4.987 0
M  V30 37392 C 3670.03 2.29182 5.94773 0
M  V30 37393 C 3667.71 1.6052 5.89641 0
M  V30 37394 C 3668.71 2.4494 6.37568 0
M  V30 37395 O 3668.4 3.43716 7.26715 0
M  V30 37396 H 3668.13 -0.0386509 0.674894 0
M  V30 37397 H 3670.69 0.535569 1.98295 0
M  V30 37398 H 3668.92 -1.45661 3.58217 0
M  V30 37399 H 3670.61 -1.16926 3.88694 0
M  V30 37400 H 3671.37 1.17542 4.70541 0
M  V30 37401 H 3667.25 -0.0470536 4.60976 0
M  V30 37402 H 3670.79 2.9511 6.32104 0
M  V30 37403 H 3666.69 1.72046 6.2215 0
M  V30 37404 H 3667.46 3.39566 7.4474 0
M  V30 37405 N 3670.12 -1.57248 0.105276 0
M  V30 37406 C 3671.37 -1.95005 -0.556844 0
M  V30 37407 C 3671.7 -0.987848 -1.67198 0
M  V30 37408 O 3670.98 -0.0226502 -1.94487 0
M  V30 37409 C 3671.26 -3.42809 -1.10246 0
M  V30 37410 C 3671.11 -4.49799 0.00831815 0
M  V30 37411 C 3672.43 -3.9215 -1.99767 0
M  V30 37412 H 3669.55 -0.709077 -0.200946 0
M  V30 37413 H 3672.19 -1.89164 0.178052 0
M  V30 37414 H 3670.34 -3.47918 -1.72874 0
M  V30 37415 H 3672.01 -4.56796 0.643024 0
M  V30 37416 H 3670.26 -4.28542 0.673341 0
M  V30 37417 H 3670.93 -5.50442 -0.414442 0
M  V30 37418 H 3673.4 -3.89258 -1.47029 0
M  V30 37419 H 3672.28 -4.96114 -2.34866 0
M  V30 37420 H 3672.54 -3.32038 -2.91896 0
M  V30 37421 N 3671.6 0.168458 -1.56697 0
M  V30 37422 C 3672.53 1.21069 -1.99661 0
M  V30 37423 C 3673.51 1.4601 -0.872651 0
M  V30 37424 O 3674.7 1.57295 -1.13894 0
M  V30 37425 C 3671.83 2.54895 -2.35894 0
M  V30 37426 C 3670.78 2.44518 -3.51276 0
M  V30 37427 C 3670.11 3.8286 -3.73259 0
M  V30 37428 C 3671.41 1.94747 -4.84635 0
M  V30 37429 H 3673.1 0.853542 -2.86976 0
M  V30 37430 H 3670.65 0.409141 -1.38065 0
M  V30 37431 H 3672.6 3.28013 -2.64548 0
M  V30 37432 H 3671.32 2.92404 -1.45491 0
M  V30 37433 H 3669.98 1.73854 -3.22754 0
M  V30 37434 H 3669.63 4.17767 -2.80143 0
M  V30 37435 H 3669.33 3.76784 -4.50896 0
M  V30 37436 H 3670.85 4.57559 -4.04317 0
M  V30 37437 H 3672.27 2.57641 -5.12146 0
M  V30 37438 H 3670.67 1.99613 -5.65928 0
M  V30 37439 H 3671.74 0.901937 -4.76438 0
M  V30 37440 N 3673.08 1.51417 0.437109 0
M  V30 37441 C 3674.03 1.69132 1.529 0
M  V30 37442 C 3675.01 0.545306 1.51378 0
M  V30 37443 O 3676.2 0.801227 1.57827 0
M  V30 37444 C 3673.33 1.81995 2.91089 0
M  V30 37445 C 3672.42 3.02381 2.97366 0
M  V30 37446 N 3672.81 4.2555 2.73388 0
M  V30 37447 C 3671.11 3.0164 3.28526 0
M  V30 37448 C 3671.81 5.0681 2.85514 0
M  V30 37449 N 3670.79 4.41463 3.17193 0
M  V30 37450 H 3674.59 2.62027 1.33113 0
M  V30 37451 H 3672.1 1.49067 0.644418 0
M  V30 37452 H 3674.1 1.92796 3.69642 0
M  V30 37453 H 3672.76 0.902812 3.11896 0
M  V30 37454 H 3673.77 4.54491 2.48312 0
M  V30 37455 H 3670.45 2.19558 3.55106 0
M  V30 37456 H 3671.84 6.14856 2.70927 0
M  V30 37457 N 3674.56 -0.692567 1.41567 0
M  V30 37458 C 3675.47 -1.8362 1.46017 0
M  V30 37459 C 3676.48 -1.70434 0.350483 0
M  V30 37460 O 3677.66 -1.92296 0.598668 0
M  V30 37461 C 3674.72 -3.19626 1.34313 0
M  V30 37462 C 3673.78 -3.44899 2.55623 0
M  V30 37463 C 3673.02 -4.74417 2.44468 0
M  V30 37464 O 3673.24 -5.51109 1.47088 0
M  V30 37465 O 3672.17 -5.0054 3.34281 0
M  V30 37466 H 3676 -1.82822 2.42507 0
M  V30 37467 H 3673.59 -0.846018 1.23138 0
M  V30 37468 H 3675.47 -4.0082 1.30082 0
M  V30 37469 H 3674.14 -3.21101 0.409399 0
M  V30 37470 H 3673.05 -2.63623 2.65431 0
M  V30 37471 H 3674.38 -3.48241 3.47835 0
M  V30 37472 N 3676.03 -1.27445 -0.927123 0
M  V30 37473 C 3677.28 -1.13592 -1.67157 0
M  V30 37474 C 3677.6 0.318617 -1.92379 0
M  V30 37475 O 3676.87 1.22284 -1.53047 0
M  V30 37476 H 3675.45 -0.417382 -0.619517 0
M  V30 37477 H 3678.12 -1.59981 -1.1132 0
M  V30 37478 H 3677.21 -1.66542 -2.63951 0
M  V30 37479 N 3677.51 1.1337 -1.09476 0
M  V30 37480 C 3678.42 2.22399 -0.746713 0
M  V30 37481 C 3679.44 1.72172 0.251542 0
M  V30 37482 O 3680.61 2.01186 0.0927577 0
M  V30 37483 C 3677.68 3.46268 -0.173026 0
M  V30 37484 C 3676.74 4.11383 -1.22729 0
M  V30 37485 C 3675.97 5.29339 -0.680887 0
M  V30 37486 O 3676.2 5.68239 0.496036 0
M  V30 37487 O 3675.13 5.84515 -1.43615 0
M  V30 37488 H 3678.96 2.54544 -1.65654 0
M  V30 37489 H 3676.54 1.21513 -0.869194 0
M  V30 37490 H 3678.42 4.21155 0.143555 0
M  V30 37491 H 3677.1 3.15822 0.709798 0
M  V30 37492 H 3676.01 3.3832 -1.59658 0
M  V30 37493 H 3677.34 4.45961 -2.08278 0
M  V30 37494 N 3678.99 0.882035 1.30606 0
M  V30 37495 C 3680.23 0.505661 1.98047 0
M  V30 37496 C 3680.59 -0.927257 1.68125 0
M  V30 37497 O 3681.8 -1.4096 2.28875 0
M  V30 37498 C 3680.07 0.769428 3.49019 0
M  V30 37499 S 3681.63 0.494718 4.36002 0
M  V30 37500 H 3678.44 0.188264 0.685622 0
M  V30 37501 H 3681.05 1.14067 1.58774 0
M  V30 37502 H 3679.75 1.81086 3.68288 0
M  V30 37503 H 3679.28 0.12187 3.93211 0
M  V30 37504 H 3681.3 -0.667918 4.91684 0
M  V30 37505 N 3680.47 -1.439 0.642688 0
M  V30 37506 C 3681.71 -2.03809 0.155276 0
M  V30 37507 C 3682.07 -1.4954 -1.20423 0
M  V30 37508 O 3683.27 -2.01025 -1.78444 0
M  V30 37509 C 3681.54 -3.57069 0.153777 0
M  V30 37510 S 3683.1 -4.37985 -0.267327 0
M  V30 37511 H 3679.92 -0.707858 0.0667639 0
M  V30 37512 H 3682.52 -1.76119 0.848667 0
M  V30 37513 H 3681.23 -3.94071 1.14615 0
M  V30 37514 H 3680.76 -3.89387 -0.560491 0
M  V30 37515 H 3682.77 -4.72705 -1.50879 0
M  V30 37516 N 3681.95 -0.383945 -1.52852 0
M  V30 37517 C 3683.2 0.199559 -2.01112 0
M  V30 37518 C 3683.52 1.47767 -1.2724 0
M  V30 37519 O 3682.79 1.9196 -0.390907 0
M  V30 37520 H 3681.37 0.0767335 -0.743048 0
M  V30 37521 H 3684.03 -0.514403 -1.87989 0
M  V30 37522 H 3683.12 0.413573 -3.09348 0
M  V30 37523 N 3683.43 1.5719 -0.113614 0
M  V30 37524 C 3684.84 1.57739 0.242996 0
M  V30 37525 C 3685.04 1.126 1.67103 0
M  V30 37526 O 3684.1 0.810917 2.39124 0
M  V30 37527 C 3685.41 3.00696 0.0145762 0
M  V30 37528 C 3686.96 3.12895 0.0808935 0
M  V30 37529 C 3687.43 4.57843 -0.119765 0
M  V30 37530 N 3688.92 4.63154 -0.0655525 0
M  V30 37531 C 3689.66 5.73066 -0.195793 0
M  V30 37532 N 3689.16 6.91747 -0.381903 0
M  V30 37533 N 3690.95 5.61936 -0.135748 0
M  V30 37534 H 3683.1 1.84834 -1.04643 0
M  V30 37535 H 3685.36 0.853973 -0.411624 0
M  V30 37536 H 3685.07 3.37988 -0.972458 0
M  V30 37537 H 3684.94 3.69693 0.748817 0
M  V30 37538 H 3687.33 2.75465 1.05845 0
M  V30 37539 H 3687.41 2.46454 -0.68514 0
M  V30 37540 H 3687.05 4.95972 -1.09427 0
M  V30 37541 H 3686.98 5.22369 0.666189 0
M  V30 37542 H 3689.48 3.77826 0.0749985 0
M  V30 37543 H 3689.79 7.71355 -0.472293 0
M  V30 37544 H 3688.13 6.93743 -0.417808 0
M  V30 37545 H 3691.32 4.68099 0.00864782 0
M  V30 37546 H 3691.5 6.47553 -0.240693 0
M  V30 37547 N 3684.9 -0.160146 1.56784 0
M  V30 37548 C 3686.14 -0.881315 1.84424 0
M  V30 37549 C 3686.51 -1.78937 0.696101 0
M  V30 37550 O 3687.71 -2.54899 0.853219 0
M  V30 37551 C 3685.98 -1.64657 3.17211 0
M  V30 37552 S 3687.54 -2.41496 3.66367 0
M  V30 37553 H 3684.36 -0.294967 0.646928 0
M  V30 37554 H 3686.96 -0.142181 1.94982 0
M  V30 37555 H 3685.66 -0.970712 3.98755 0
M  V30 37556 H 3685.19 -2.42686 3.09624 0
M  V30 37557 H 3687.21 -3.66426 3.34584 0
M  V30 37558 N 3686.38 -1.51647 -0.429072 0
M  V30 37559 C 3687.31 -1.76508 -1.52863 0
M  V30 37560 C 3688.29 -0.615205 -1.58585 0
M  V30 37561 O 3689.48 -0.858772 -1.7418 0
M  V30 37562 C 3686.61 -1.89765 -2.90872 0
M  V30 37563 C 3685.56 -3.05252 -3.00008 0
M  V30 37564 C 3684.89 -3.03704 -4.40077 0
M  V30 37565 C 3686.19 -4.45073 -2.73327 0
M  V30 37566 H 3687.88 -2.68579 -1.3231 0
M  V30 37567 H 3685.43 -1.2924 -0.635069 0
M  V30 37568 H 3687.38 -2.05741 -3.67762 0
M  V30 37569 H 3686.1 -0.943497 -3.12675 0
M  V30 37570 H 3684.76 -2.88995 -2.2556 0
M  V30 37571 H 3684.41 -2.0605 -4.5886 0
M  V30 37572 H 3684.11 -3.8126 -4.47118 0
M  V30 37573 H 3685.64 -3.21784 -5.18929 0
M  V30 37574 H 3687.05 -4.61638 -3.39946 0
M  V30 37575 H 3685.45 -5.24396 -2.91768 0
M  V30 37576 H 3686.52 -4.54541 -1.68881 0
M  V30 37577 N 3687.86 0.685049 -1.41932 0
M  V30 37578 C 3689.27 1.26533 -1.37282 0
M  V30 37579 C 3689.62 1.96105 -0.0610434 0
M  V30 37580 O 3688.75 1.99412 0.840473 0
M  V30 37581 C 3689.34 2.30115 -2.48662 0
M  V30 37582 C 3687.9 2.83694 -2.47376 0
M  V30 37583 C 3687.05 1.57872 -2.27973 0
M  V30 37584 H 3690 0.479105 -1.51295 0
M  V30 37585 H 3690.02 3.11632 -2.18325 0
M  V30 37586 H 3689.53 1.7945 -3.44121 0
M  V30 37587 H 3687.63 3.38507 -1.55705 0
M  V30 37588 H 3687.75 3.33408 -3.44058 0
M  V30 37589 H 3686.11 1.84068 -1.76043 0
M  V30 37590 H 3686.89 1.09189 -3.25473 0
M  V30 37591 N 3689.34 1.27935 0.920351 0
M  V30 37592 C 3690.56 1.1765 1.70802 0
M  V30 37593 C 3690.99 -0.262156 1.86264 0
M  V30 37594 O 3690.35 -1.18976 1.368 0
M  V30 37595 C 3690.39 1.87304 3.08139 0
M  V30 37596 O 3689.5 1.176 3.95277 0
M  V30 37597 H 3688.84 0.408773 0.52326 0
M  V30 37598 H 3691.37 1.69138 1.15124 0
M  V30 37599 H 3691.38 1.94952 3.5841 0
M  V30 37600 H 3690.05 2.91954 2.96202 0
M  V30 37601 H 3688.63 1.18071 3.53714 0
M  V30 37602 N 3690.82 -1.12788 1.10076 0
M  V30 37603 C 3691.78 -2.16592 0.749708 0
M  V30 37604 C 3692.78 -1.59232 -0.224018 0
M  V30 37605 O 3693.97 -1.742 -0.00134042 0
M  V30 37606 C 3691.1 -3.40723 0.109855 0
M  V30 37607 H 3692.29 -2.49161 1.6691 0
M  V30 37608 H 3689.85 -1.27731 0.900804 0
M  V30 37609 H 3690.58 -3.1375 -0.820446 0
M  V30 37610 H 3690.37 -3.8363 0.810584 0
M  V30 37611 H 3691.86 -4.17427 -0.120125 0
M  V30 37612 N 3692.29 -0.888949 -1.30136 0
M  V30 37613 C 3693.53 -0.516157 -1.97776 0
M  V30 37614 C 3693.9 0.918328 -1.68614 0
M  V30 37615 O 3695.1 1.39744 -2.29619 0
M  V30 37616 C 3693.37 -0.787927 -3.48606 0
M  V30 37617 S 3694.93 -0.517833 -4.35734 0
M  V30 37618 H 3691.75 -0.191897 -0.684614 0
M  V30 37619 H 3694.35 -1.14907 -1.58166 0
M  V30 37620 H 3693.05 -1.83037 -3.67322 0
M  V30 37621 H 3692.58 -0.142721 -3.93141 0
M  V30 37622 H 3694.6 0.641833 -4.92031 0
M  V30 37623 N 3693.77 1.43557 -0.65031 0
M  V30 37624 C 3694.68 2.34559 0.0437664 0
M  V30 37625 C 3695.7 1.53717 0.815289 0
M  V30 37626 O 3696.87 1.86379 0.763197 0
M  V30 37627 C 3693.94 3.31959 1.00022 0
M  V30 37628 C 3693 4.28705 0.225951 0
M  V30 37629 C 3692.23 5.21451 1.13685 0
M  V30 37630 O 3692.46 5.18556 2.37605 0
M  V30 37631 O 3691.39 5.98793 0.610819 0
M  V30 37632 H 3695.22 2.95399 -0.705204 0
M  V30 37633 H 3692.8 1.4365 -0.410496 0
M  V30 37634 H 3694.68 3.9186 1.54997 0
M  V30 37635 H 3693.36 2.73626 1.72947 0
M  V30 37636 H 3692.26 3.72292 -0.367309 0
M  V30 37637 H 3693.6 4.90011 -0.463669 0
M  V30 37638 N 3695.25 0.392045 1.52646 0
M  V30 37639 C 3696.5 -0.189545 2.01912 0
M  V30 37640 C 3696.83 -1.46231 1.27789 0
M  V30 37641 O 3696.1 -1.90769 0.379157 0
M  V30 37642 C 3696.39 -0.454672 3.57218 0
M  V30 37643 C 3696.24 0.833578 4.42008 0
M  V30 37644 C 3697.56 -1.24413 4.22149 0
M  V30 37645 H 3694.68 -0.0674152 0.73391 0
M  V30 37646 H 3697.32 0.522153 1.82684 0
M  V30 37647 H 3695.47 -1.06094 3.73733 0
M  V30 37648 H 3697.14 1.47035 4.3724 0
M  V30 37649 H 3695.38 1.4483 4.08909 0
M  V30 37650 H 3696.06 0.602681 5.487 0
M  V30 37651 H 3698.53 -0.731021 4.09628 0
M  V30 37652 H 3697.41 -1.39838 5.30789 0
M  V30 37653 H 3697.67 -2.26009 3.79964 0
M  V30 37654 N 3696.73 -1.57127 0.121948 0
M  V30 37655 C 3697.97 -1.95585 -0.53613 0
M  V30 37656 C 3698.31 -1.00553 -1.66141 0
M  V30 37657 O 3697.58 -0.0432769 -1.94452 0
M  V30 37658 C 3697.87 -3.43959 -1.06604 0
M  V30 37659 C 3697.72 -4.49765 0.0560249 0
M  V30 37660 C 3699.04 -3.94246 -1.95596 0
M  V30 37661 H 3696.16 -0.711168 -0.193414 0
M  V30 37662 H 3698.8 -1.88964 0.198105 0
M  V30 37663 H 3696.95 -3.49732 -1.69174 0
M  V30 37664 H 3698.62 -4.56089 0.691437 0
M  V30 37665 H 3696.86 -4.27804 0.718755 0
M  V30 37666 H 3697.53 -5.50851 -0.356036 0
M  V30 37667 H 3700.01 -3.90795 -1.42892 0
M  V30 37668 H 3698.89 -4.98577 -2.29591 0
M  V30 37669 H 3699.15 -3.35115 -2.88358 0
M  V30 37670 N 3698.21 0.151829 -1.56867 0
M  V30 37671 C 3699.43 0.88031 -1.87238 0
M  V30 37672 C 3699.85 1.74958 -0.709595 0
M  V30 37673 O 3699.21 1.79659 0.320787 0
M  V30 37674 C 3699.26 1.74101 -3.16814 0
M  V30 37675 O 3698.98 0.906783 -4.28613 0
M  V30 37676 C 3700.48 2.57749 -3.60667 0
M  V30 37677 H 3697.7 0.254789 -0.620745 0
M  V30 37678 H 3700.24 0.146068 -2.03978 0
M  V30 37679 H 3698.4 2.42837 -3.01843 0
M  V30 37680 H 3698.81 1.49725 -5.02676 0
M  V30 37681 H 3700.29 3.13724 -4.54182 0
M  V30 37682 H 3700.76 3.33556 -2.85722 0
M  V30 37683 H 3701.37 1.94312 -3.78316 0
M  V30 37684 N 3699.68 1.51872 0.421024 0
M  V30 37685 C 3700.93 1.6502 1.16675 0
M  V30 37686 C 3701.25 0.37663 1.91328 0
M  V30 37687 O 3700.52 -0.608113 1.86222 0
M  V30 37688 H 3699.1 0.608214 0.433688 0
M  V30 37689 H 3701.77 1.88868 0.481117 0
M  V30 37690 H 3700.86 2.48565 1.88737 0
M  V30 37691 N 3701.16 -0.677513 1.42294 0
M  V30 37692 C 3702.39 -1.4709 1.46217 0
M  V30 37693 C 3702.81 -1.87954 0.074132 0
M  V30 37694 O 3702.17 -1.55821 -0.926803 0
M  V30 37695 C 3702.22 -2.69808 2.3924 0
M  V30 37696 O 3701.32 -3.67977 1.8619 0
M  V30 37697 H 3700.66 -0.441997 0.495515 0
M  V30 37698 H 3703.19 -0.831241 1.86953 0
M  V30 37699 H 3703.2 -3.1791 2.55729 0
M  V30 37700 H 3701.88 -2.39405 3.40086 0
M  V30 37701 H 3700.46 -3.26996 1.79243 0
M  V30 37702 N 3702.64 -1.28421 -0.913554 0
M  V30 37703 C 3704.05 -1.14097 -1.4778 0
M  V30 37704 C 3704.4 0.26897 -1.94348 0
M  V30 37705 O 3703.53 1.16325 -1.82476 0
M  V30 37706 C 3704.12 -2.06511 -2.68586 0
M  V30 37707 C 3702.68 -1.96251 -3.21189 0
M  V30 37708 C 3701.83 -1.98241 -1.93896 0
M  V30 37709 H 3704.78 -1.41108 -0.726246 0
M  V30 37710 H 3704.8 -1.62922 -3.43855 0
M  V30 37711 H 3704.31 -3.0912 -2.34662 0
M  V30 37712 H 3702.41 -0.9668 -3.59838 0
M  V30 37713 H 3702.53 -2.83217 -3.86426 0
M  V30 37714 H 3700.89 -1.42651 -2.11004 0
M  V30 37715 H 3701.67 -3.02529 -1.62268 0
M  V30 37716 N 3704.12 1.12202 -1.10672 0
M  V30 37717 C 3705.53 1.35767 -0.839012 0
M  V30 37718 C 3705.73 1.94121 0.540311 0
M  V30 37719 O 3704.79 2.169 1.2927 0
M  V30 37720 C 3706.1 2.29691 -1.94069 0
M  V30 37721 C 3707.65 2.43275 -1.96942 0
M  V30 37722 C 3708.13 3.40515 -3.0629 0
M  V30 37723 N 3709.62 3.48073 -3.05613 0
M  V30 37724 C 3710.35 4.23231 -3.86863 0
M  V30 37725 N 3709.85 5.01434 -4.78054 0
M  V30 37726 N 3711.64 4.18662 -3.75071 0
M  V30 37727 H 3703.79 0.726843 -1.99576 0
M  V30 37728 H 3706.06 0.382452 -0.86743 0
M  V30 37729 H 3705.76 1.93992 -2.9336 0
M  V30 37730 H 3705.64 3.29836 -1.82998 0
M  V30 37731 H 3708.02 2.78253 -0.982823 0
M  V30 37732 H 3708.1 1.4301 -2.12089 0
M  V30 37733 H 3707.75 3.06266 -4.05171 0
M  V30 37734 H 3707.68 4.40616 -2.88384 0
M  V30 37735 H 3710.17 2.92286 -2.39536 0
M  V30 37736 H 3710.48 5.56126 -5.36603 0
M  V30 37737 H 3708.83 5.00622 -4.82082 0
M  V30 37738 H 3712.02 3.56652 -3.03178 0
M  V30 37739 H 3712.19 4.76981 -4.38627 0
M  V30 37740 N 3705.6 0.895838 1.29663 0
M  V30 37741 C 3706.84 0.518759 1.95329 0
M  V30 37742 C 3707.17 -0.937292 1.70997 0
M  V30 37743 O 3706.44 -1.66041 1.03958 0
M  V30 37744 H 3705.02 0.188854 0.722733 0
M  V30 37745 H 3707.68 1.14129 1.57989 0
M  V30 37746 H 3706.77 0.69811 3.04192 0
M  V30 37747 N 3707.07 -1.43211 0.657914 0
M  V30 37748 C 3708.35 -1.95329 0.102929 0
M  V30 37749 C 3708.73 -1.59904 -1.37819 0
M  V30 37750 O 3708.08 -0.886542 -2.10601 0
M  V30 37751 C 3708.29 -3.47199 0.354136 0
M  V30 37752 C 3709.64 -4.23793 0.261585 0
M  V30 37753 O 3710.66 -3.55042 0.286951 0
M  V30 37754 O 3709.52 -5.46172 0.189305 0
M  V30 37755 H 3706.61 -0.826971 -0.00690831 0
M  V30 37756 H 3709.16 -1.53126 0.731477 0
M  V30 37757 H 3707.93 -3.66127 1.38082 0
M  V30 37758 H 3707.56 -3.96411 -0.307251 0
M  V30 37759 N 3708.55 -0.400135 -1.52436 0
M  V30 37760 C 3709.78 0.180825 -2.0661 0
M  V30 37761 C 3710.2 1.38843 -1.26903 0
M  V30 37762 O 3709.56 1.78853 -0.296894 0
M  V30 37763 C 3709.61 0.518532 -3.56852 0
M  V30 37764 O 3708.71 1.61089 -3.79637 0
M  V30 37765 H 3708.05 0.0181231 -0.663753 0
M  V30 37766 H 3710.58 -0.570736 -1.96478 0
M  V30 37767 H 3710.59 0.779746 -4.0048 0
M  V30 37768 H 3709.27 -0.364288 -4.14302 0
M  V30 37769 H 3707.85 1.34254 -3.47894 0
M  V30 37770 N 3710.03 1.57061 -0.13028 0
M  V30 37771 C 3710.96 2.12999 0.846404 0
M  V30 37772 C 3711.98 1.07538 1.22227 0
M  V30 37773 O 3713.16 1.34873 1.16925 0
M  V30 37774 C 3710.26 2.62399 2.14476 0
M  V30 37775 C 3709.44 3.92081 1.93885 0
M  V30 37776 C 3708.5 4.26962 3.07554 0
M  V30 37777 O 3707.52 4.95583 2.79975 0
M  V30 37778 N 3708.72 3.85191 4.3429 0
M  V30 37779 H 3711.49 2.97427 0.368419 0
M  V30 37780 H 3709.05 1.61811 0.0538071 0
M  V30 37781 H 3711.04 2.82757 2.89535 0
M  V30 37782 H 3709.61 1.82789 2.53588 0
M  V30 37783 H 3708.83 3.80518 1.02956 0
M  V30 37784 H 3710.12 4.76855 1.77446 0
M  V30 37785 H 3709.52 3.29867 4.5957 0
M  V30 37786 H 3708.08 4.10635 5.06184 0
M  V30 37787 N 3711.51 -0.143508 1.56945 0
M  V30 37788 C 3712.73 -0.874352 1.88069 0
M  V30 37789 C 3713.16 -1.73788 0.719676 0
M  V30 37790 O 3712.52 -1.7826 -0.330622 0
M  V30 37791 C 3712.57 -1.70402 3.17798 0
M  V30 37792 O 3711.67 -2.80862 3.01978 0
M  V30 37793 H 3711.01 -0.243319 0.617812 0
M  V30 37794 H 3713.54 -0.133273 2.04165 0
M  V30 37795 H 3713.55 -2.09832 3.49906 0
M  V30 37796 H 3712.23 -1.06994 4.01902 0
M  V30 37797 H 3710.8 -2.44813 2.81284 0
M  V30 37798 N 3712.99 -1.52093 -0.412964 0
M  V30 37799 C 3714.21 -1.70099 -1.18664 0
M  V30 37800 C 3714.64 -0.408045 -1.83621 0
M  V30 37801 O 3714 0.634144 -1.69848 0
M  V30 37802 C 3714.04 -2.83511 -2.22832 0
M  V30 37803 O 3713.15 -2.48813 -3.28886 0
M  V30 37804 H 3712.49 -0.566379 -0.346571 0
M  V30 37805 H 3715.02 -1.98778 -0.484607 0
M  V30 37806 H 3715.03 -3.08311 -2.67223 0
M  V30 37807 H 3713.7 -3.7732 -1.74936 0
M  V30 37808 H 3712.28 -2.34671 -2.898 0
M  V30 37809 N 3714.47 0.669957 -1.42651 0
M  V30 37810 C 3715.71 1.43057 -1.4459 0
M  V30 37811 C 3716.07 1.92297 -0.0629505 0
M  V30 37812 O 3715.36 1.68303 0.915678 0
M  V30 37813 C 3715.55 2.63995 -2.40918 0
M  V30 37814 C 3715.38 2.2659 -3.88442 0
M  V30 37815 C 3714.15 2.15717 -4.5694 0
M  V30 37816 C 3716.35 1.8793 -4.78735 0
M  V30 37817 N 3714.33 1.71466 -5.89468 0
M  V30 37818 C 3715.7 1.54635 -6.00407 0
M  V30 37819 C 3717.76 1.74965 -4.66146 0
M  V30 37820 C 3716.46 1.09675 -7.10889 0
M  V30 37821 C 3718.49 1.3141 -5.76615 0
M  V30 37822 C 3717.85 0.990418 -6.97402 0
M  V30 37823 H 3713.95 0.519784 -0.584251 0
M  V30 37824 H 3716.53 0.772648 -1.78713 0
M  V30 37825 H 3714.7 3.2747 -2.08848 0
M  V30 37826 H 3716.44 3.30613 -2.33404 0
M  V30 37827 H 3713.19 2.34941 -4.11217 0
M  V30 37828 H 3713.61 1.5175 -6.59773 0
M  V30 37829 H 3718.26 1.98634 -3.73235 0
M  V30 37830 H 3715.97 0.847525 -8.03643 0
M  V30 37831 H 3719.56 1.21892 -5.68888 0
M  V30 37832 H 3718.44 0.658516 -7.8143 0
M  V30 37833 N 3715.94 1.28904 0.90673 0
M  V30 37834 C 3716.89 1.13432 2.01002 0
M  V30 37835 C 3717.86 0.0295322 1.66074 0
M  V30 37836 O 3719.05 0.195761 1.89793 0
M  V30 37837 C 3716.19 0.809516 3.35471 0
M  V30 37838 C 3715.3 1.99405 3.83226 0
M  V30 37839 C 3714.43 1.60924 5.06238 0
M  V30 37840 C 3713.47 2.76 5.46343 0
M  V30 37841 N 3712.61 2.37964 6.60543 0
M  V30 37842 H 3717.45 2.07829 2.13568 0
M  V30 37843 H 3714.99 1.03429 1.04598 0
M  V30 37844 H 3716.94 0.601917 4.12835 0
M  V30 37845 H 3715.57 -0.0975329 3.22653 0
M  V30 37846 H 3714.63 2.31356 3.01958 0
M  V30 37847 H 3715.94 2.85657 4.08903 0
M  V30 37848 H 3715.09 1.36412 5.91166 0
M  V30 37849 H 3713.83 0.718106 4.82384 0
M  V30 37850 H 3712.84 3.01203 4.59953 0
M  V30 37851 H 3714.06 3.65767 5.72181 0
M  V30 37852 H 3712.01 1.51329 6.38307 0
M  V30 37853 H 3711.92 3.1775 6.85982 0
M  V30 37854 H 3713.19 2.16753 7.48758 0
M  V30 37855 N 3717.42 -1.11614 1.11266 0
M  V30 37856 C 3718.65 -1.8766 0.883093 0
M  V30 37857 C 3719.07 -1.79522 -0.561554 0
M  V30 37858 O 3718.43 -1.15632 -1.39638 0
M  V30 37859 C 3718.48 -3.34496 1.34703 0
M  V30 37860 O 3717.58 -4.09139 0.517584 0
M  V30 37861 H 3716.92 -0.582767 0.318244 0
M  V30 37862 H 3719.45 -1.41096 1.48166 0
M  V30 37863 H 3719.46 -3.85341 1.34075 0
M  V30 37864 H 3718.14 -3.39735 2.39902 0
M  V30 37865 H 3716.71 -3.68206 0.589816 0
M  V30 37866 N 3718.9 -0.902701 -1.29186 0
M  V30 37867 C 3720.15 -0.530943 -1.95726 0
M  V30 37868 C 3720.48 0.920984 -1.70972 0
M  V30 37869 O 3719.75 1.65337 -1.02439 0
M  V30 37870 C 3720.04 -0.827584 -3.50461 0
M  V30 37871 C 3719.89 -2.33143 -3.84661 0
M  V30 37872 C 3721.21 -0.31613 -4.38963 0
M  V30 37873 H 3718.33 -0.194374 -0.710906 0
M  V30 37874 H 3720.97 -1.12993 -1.5275 0
M  V30 37875 H 3719.12 -0.3178 -3.87198 0
M  V30 37876 H 3720.79 -2.91099 -3.57854 0
M  V30 37877 H 3719.03 -2.79094 -3.32098 0
M  V30 37878 H 3719.71 -2.48956 -4.92671 0
M  V30 37879 H 3722.18 -0.752692 -4.09236 0
M  V30 37880 H 3721.06 -0.552865 -5.46109 0
M  V30 37881 H 3721.32 0.783253 -4.35106 0
M  V30 37882 N 3720.38 1.4286 -0.6655 0
M  V30 37883 C 3721.63 2.01265 -0.183556 0
M  V30 37884 C 3721.95 1.52839 1.211 0
M  V30 37885 O 3721.22 0.746141 1.81134 0
M  V30 37886 H 3719.8 0.744178 -0.0648696 0
M  V30 37887 H 3722.46 1.74904 -0.859924 0
M  V30 37888 H 3721.55 3.11594 -0.177644 0
M  V30 37889 N 3721.86 0.408213 1.52221 0
M  V30 37890 C 3723.08 -0.169865 2.06703 0
M  V30 37891 C 3723.51 -1.38168 1.27637 0
M  V30 37892 O 3722.86 -1.78693 0.306374 0
M  V30 37893 C 3722.91 -0.4996 3.57122 0
M  V30 37894 O 3722.02 -1.59073 3.80486 0
M  V30 37895 H 3721.36 -0.0146028 0.663839 0
M  V30 37896 H 3723.89 0.581148 1.96173 0
M  V30 37897 H 3723.9 -0.758497 4.00888 0
M  V30 37898 H 3722.57 0.386255 4.14103 0
M  V30 37899 H 3721.15 -1.32407 3.48601 0
M  V30 37900 N 3723.33 -1.56989 0.138607 0
M  V30 37901 C 3724.27 -2.13445 -0.835096 0
M  V30 37902 C 3725.28 -1.08185 -1.21655 0
M  V30 37903 O 3726.47 -1.35491 -1.16208 0
M  V30 37904 C 3723.57 -2.63533 -2.13082 0
M  V30 37905 C 3722.74 -3.93103 -1.91803 0
M  V30 37906 C 3721.8 -4.28587 -3.05286 0
M  V30 37907 O 3720.83 -4.97061 -2.77343 0
M  V30 37908 N 3722.03 -3.87489 -4.32241 0
M  V30 37909 H 3724.79 -2.97618 -0.35264 0
M  V30 37910 H 3722.35 -1.61837 -0.0452251 0
M  V30 37911 H 3724.35 -2.84289 -2.88031 0
M  V30 37912 H 3722.92 -1.84131 -2.52615 0
M  V30 37913 H 3722.14 -3.81058 -1.00936 0
M  V30 37914 H 3723.42 -4.77789 -1.74914 0
M  V30 37915 H 3722.82 -3.323 -4.57814 0
M  V30 37916 H 3721.38 -4.13314 -5.03999 0
M  V30 37917 N 3724.81 0.135183 -1.57019 0
M  V30 37918 C 3726.06 0.842145 -1.85147 0
M  V30 37919 C 3726.41 1.7825 -0.724207 0
M  V30 37920 O 3725.71 1.89587 0.277009 0
M  V30 37921 C 3725.9 1.64368 -3.17361 0
M  V30 37922 C 3725.73 0.782439 -4.42841 0
M  V30 37923 C 3724.5 0.443493 -5.0335 0
M  V30 37924 C 3726.7 0.107385 -5.14188 0
M  V30 37925 N 3724.68 -0.430106 -6.12391 0
M  V30 37926 C 3726.05 -0.625868 -6.16833 0
M  V30 37927 C 3728.1 0.0292828 -4.97891 0
M  V30 37928 C 3726.81 -1.42987 -7.04945 0
M  V30 37929 C 3728.83 -0.761488 -5.86477 0
M  V30 37930 C 3728.2 -1.48298 -6.88612 0
M  V30 37931 H 3724.29 0.285611 -0.727977 0
M  V30 37932 H 3726.88 0.1068 -1.94407 0
M  V30 37933 H 3725.05 2.35018 -3.09227 0
M  V30 37934 H 3726.78 2.29472 -3.33354 0
M  V30 37935 H 3723.54 0.782016 -4.67099 0
M  V30 37936 H 3723.96 -0.858278 -6.71537 0
M  V30 37937 H 3728.6 0.57274 -4.18903 0
M  V30 37938 H 3726.32 -1.98454 -7.83353 0
M  V30 37939 H 3729.91 -0.824066 -5.75934 0
M  V30 37940 H 3728.79 -2.08505 -7.55973 0
M  V30 37941 N 3726.29 1.5231 0.404892 0
M  V30 37942 C 3727.25 1.75328 1.47624 0
M  V30 37943 C 3728.25 0.623179 1.48233 0
M  V30 37944 O 3729.44 0.891096 1.49683 0
M  V30 37945 C 3726.58 1.83952 2.87009 0
M  V30 37946 H 3727.77 2.70973 1.28505 0
M  V30 37947 H 3725.32 1.42791 0.635652 0
M  V30 37948 H 3726.06 0.902364 3.11493 0
M  V30 37949 H 3725.84 2.66113 2.8797 0
M  V30 37950 H 3727.33 2.03488 3.64668 0
M  V30 37951 N 3727.77 -0.662382 1.43004 0
M  V30 37952 C 3728.99 -1.45531 1.47769 0
M  V30 37953 C 3729.42 -1.87865 0.0940628 0
M  V30 37954 O 3728.78 -1.56795 -0.910224 0
M  V30 37955 C 3728.82 -2.67256 2.42089 0
M  V30 37956 O 3727.93 -3.65982 1.90082 0
M  V30 37957 H 3727.27 -0.436716 0.500175 0
M  V30 37958 H 3729.8 -0.811366 1.87824 0
M  V30 37959 H 3729.81 -3.1518 2.59086 0
M  V30 37960 H 3728.48 -2.35784 3.42606 0
M  V30 37961 H 3727.06 -3.25077 1.82701 0
M  V30 37962 N 3729.25 -1.29383 -0.899882 0
M  V30 37963 C 3730.66 -1.15657 -1.46561 0
M  V30 37964 C 3731.01 0.248341 -1.94622 0
M  V30 37965 O 3730.13 1.14383 -1.837 0
M  V30 37966 C 3730.73 -2.09349 -2.66381 0
M  V30 37967 C 3729.29 -1.99646 -3.1909 0
M  V30 37968 C 3728.43 -2.00286 -1.91783 0
M  V30 37969 H 3731.39 -1.4187 -0.711239 0
M  V30 37970 H 3731.41 -1.6656 -3.42108 0
M  V30 37971 H 3730.92 -3.11592 -2.31371 0
M  V30 37972 H 3729.02 -1.00491 -3.58793 0
M  V30 37973 H 3729.13 -2.873 -3.834 0
M  V30 37974 H 3727.5 -1.44881 -2.09479 0
M  V30 37975 H 3728.28 -3.04233 -1.5905 0
M  V30 37976 N 3730.72 1.11022 -1.11856 0
M  V30 37977 C 3731.63 2.20765 -0.793719 0
M  V30 37978 C 3732.65 1.72667 0.214965 0
M  V30 37979 O 3733.83 2.01338 0.0500622 0
M  V30 37980 C 3730.89 3.45823 -0.246436 0
M  V30 37981 C 3729.95 4.08687 -1.31428 0
M  V30 37982 C 3729.19 5.27775 -0.793014 0
M  V30 37983 O 3729.41 5.69163 0.375392 0
M  V30 37984 O 3728.34 5.81338 -1.55981 0
M  V30 37985 H 3732.17 2.50973 -1.71015 0
M  V30 37986 H 3729.75 1.19642 -0.894773 0
M  V30 37987 H 3731.64 4.21365 0.0541891 0
M  V30 37988 H 3730.31 3.17257 0.642647 0
M  V30 37989 H 3729.22 3.34857 -1.66798 0
M  V30 37990 H 3730.55 4.41443 -2.17691 0
M  V30 37991 N 3732.2 0.90954 1.28706 0
M  V30 37992 C 3733.15 0.384796 2.29395 0
M  V30 37993 C 3734.14 -0.52129 1.6118 0
M  V30 37994 O 3735.35 -0.403001 1.75431 0
M  V30 37995 H 3731.73 0.105827 0.744516 0
M  V30 37996 H 3733.7 1.24719 2.71086 0
M  V30 37997 C 3732.45 -0.363734 3.45792 0
M  V30 37998 H 3731.77 0.324268 3.98483 0
M  V30 37999 H 3733.21 -0.695607 4.18255 0
M  V30 38000 C 3731.67 -1.57007 2.98078 0
M  V30 38001 O 3732.2 -2.66923 3.00191 0
M  V30 38002 N 3730.4 -1.41561 2.53789 0
M  V30 38003 H 3729.95 -0.521371 2.52269 0
M  V30 38004 H 3729.91 -2.22404 2.22224 0
M  V30 38005 N 3733.68 -1.42505 0.673067 0
M  V30 38006 C 3735.09 -1.84707 0.272082 0
M  V30 38007 C 3735.44 -1.5634 -1.18542 0
M  V30 38008 O 3734.57 -1.02235 -1.90728 0
M  V30 38009 C 3735.16 -3.35281 0.487036 0
M  V30 38010 C 3733.72 -3.76139 0.140188 0
M  V30 38011 C 3732.87 -2.66094 0.780323 0
M  V30 38012 H 3735.82 -1.32376 0.875352 0
M  V30 38013 H 3735.84 -3.79601 -0.261376 0
M  V30 38014 H 3735.35 -3.55895 1.5479 0
M  V30 38015 H 3733.45 -3.61132 -0.917303 0
M  V30 38016 H 3733.57 -4.75582 0.579501 0
M  V30 38017 H 3731.93 -2.53818 0.2118 0
M  V30 38018 H 3732.71 -2.89532 1.84461 0
M  V30 38019 N 3735.16 -0.41628 -1.52003 0
M  V30 38020 C 3736.4 0.156602 -2.03799 0
M  V30 38021 C 3736.76 1.41772 -1.29478 0
M  V30 38022 O 3737.96 2.0695 -1.71537 0
M  V30 38023 C 3736.23 0.391249 -3.55252 0
M  V30 38024 S 3737.79 0.930555 -4.28819 0
M  V30 38025 H 3734.61 0.0417051 -0.709776 0
M  V30 38026 H 3737.21 -0.570845 -1.8698 0
M  V30 38027 H 3735.92 -0.533277 -4.06921 0
M  V30 38028 H 3735.45 1.14637 -3.76327 0
M  V30 38029 H 3737.46 2.21038 -4.44248 0
M  V30 38030 N 3736.64 1.56914 -0.146931 0
M  V30 38031 C 3737.57 2.1977 0.788886 0
M  V30 38032 C 3738.55 1.14591 1.2571 0
M  V30 38033 O 3739.73 1.42934 1.31467 0
M  V30 38034 C 3736.86 2.81925 2.02819 0
M  V30 38035 C 3735.82 3.9293 1.69676 0
M  V30 38036 C 3735.14 4.4202 3.0087 0
M  V30 38037 C 3736.44 5.13708 0.943469 0
M  V30 38038 H 3738.14 2.98225 0.265024 0
M  V30 38039 H 3735.68 1.43447 0.126032 0
M  V30 38040 H 3737.64 3.24564 2.68768 0
M  V30 38041 H 3736.36 2.00801 2.57578 0
M  V30 38042 H 3735.02 3.50909 1.06106 0
M  V30 38043 H 3734.67 3.57719 3.53619 0
M  V30 38044 H 3734.37 5.16892 2.79457 0
M  V30 38045 H 3735.89 4.8733 3.67889 0
M  V30 38046 H 3737.3 5.53192 1.50504 0
M  V30 38047 H 3735.7 5.94342 0.829282 0
M  V30 38048 H 3736.77 4.84857 -0.0648081 0
M  V30 38049 N 3738.11 -0.126854 1.57089 0
M  V30 38050 C 3739.36 -0.83455 1.83625 0
M  V30 38051 C 3739.68 -1.81412 0.731363 0
M  V30 38052 O 3740.88 -2.56743 0.882905 0
M  V30 38053 C 3739.34 -1.53484 3.25531 0
M  V30 38054 C 3738.95 -0.596652 4.44009 0
M  V30 38055 C 3740.69 -2.22813 3.61323 0
M  V30 38056 C 3738.6 -1.29972 5.76941 0
M  V30 38057 H 3737.53 -0.315402 0.684863 0
M  V30 38058 H 3740.18 -0.0872728 1.83292 0
M  V30 38059 H 3738.56 -2.32846 3.2031 0
M  V30 38060 H 3739.73 0.16319 4.60511 0
M  V30 38061 H 3738.05 -0.0107349 4.16399 0
M  V30 38062 H 3740.65 -2.7609 4.57907 0
M  V30 38063 H 3740.99 -3.00249 2.88369 0
M  V30 38064 H 3741.52 -1.50347 3.68294 0
M  V30 38065 H 3738.26 -0.56681 6.53045 0
M  V30 38066 H 3737.78 -2.03177 5.6434 0
M  V30 38067 H 3739.46 -1.83509 6.2043 0
M  V30 38068 N 3739.59 -1.52523 -0.396809 0
M  V30 38069 C 3740.54 -1.77373 -1.50471 0
M  V30 38070 C 3741.53 -0.641335 -1.5679 0
M  V30 38071 O 3742.74 -0.823649 -1.6005 0
M  V30 38072 H 3739.12 -0.561112 -0.500657 0
M  V30 38073 H 3741.09 -2.70165 -1.26701 0
M  V30 38074 C 3739.84 -1.95256 -2.87699 0
M  V30 38075 H 3739.16 -2.81817 -2.83583 0
M  V30 38076 H 3740.6 -2.16637 -3.64478 0
M  V30 38077 C 3739.06 -0.722962 -3.29051 0
M  V30 38078 O 3739.59 0.103327 -4.01567 0
M  V30 38079 N 3737.79 -0.555314 -2.85245 0
M  V30 38080 H 3737.34 -1.22883 -2.26401 0
M  V30 38081 H 3737.3 0.266058 -3.13272 0
M  V30 38082 N 3741.07 0.654789 -1.43354 0
M  V30 38083 C 3741.98 1.79684 -1.50834 0
M  V30 38084 C 3743 1.69444 -0.395547 0
M  V30 38085 O 3744.17 1.90642 -0.649442 0
M  V30 38086 C 3741.24 3.15953 -1.4274 0
M  V30 38087 C 3740.3 3.38001 -2.64677 0
M  V30 38088 C 3739.53 4.67768 -2.5696 0
M  V30 38089 O 3739.76 5.47016 -1.61648 0
M  V30 38090 O 3738.69 4.91501 -3.47434 0
M  V30 38091 H 3742.52 1.76328 -2.47269 0
M  V30 38092 H 3740.1 0.813073 -1.25338 0
M  V30 38093 H 3741.98 3.9723 -1.40663 0
M  V30 38094 H 3740.66 3.19902 -0.49439 0
M  V30 38095 H 3739.56 2.56493 -2.72327 0
M  V30 38096 H 3740.9 3.38896 -3.56946 0
M  V30 38097 N 3742.55 1.29858 0.893007 0
M  V30 38098 C 3743.79 1.19492 1.65834 0
M  V30 38099 C 3744.15 -0.24816 1.9039 0
M  V30 38100 O 3745.35 -0.474917 2.64571 0
M  V30 38101 C 3743.63 1.99255 2.96702 0
M  V30 38102 S 3745.18 2.05498 3.87706 0
M  V30 38103 H 3742 0.425966 0.569275 0
M  V30 38104 H 3744.6 1.64231 1.06059 0
M  V30 38105 H 3743.31 3.03231 2.76549 0
M  V30 38106 H 3742.84 1.55147 3.61515 0
M  V30 38107 H 3744.85 1.17653 4.8205 0
M  V30 38108 N 3744.03 -1.10427 1.12443 0
M  V30 38109 C 3745.27 -1.8266 0.881094 0
M  V30 38110 C 3745.61 -1.84969 -0.591603 0
M  V30 38111 O 3744.88 -1.3104 -1.43732 0
M  V30 38112 C 3745.16 -3.29323 1.45664 0
M  V30 38113 C 3745.02 -3.35346 2.99771 0
M  V30 38114 C 3746.34 -4.25708 1.11628 0
M  V30 38115 H 3743.46 -0.663166 0.321527 0
M  V30 38116 H 3746.1 -1.29421 1.39105 0
M  V30 38117 H 3744.25 -3.74791 1.02293 0
M  V30 38118 H 3745.92 -2.98359 3.51823 0
M  V30 38119 H 3744.16 -2.75243 3.35296 0
M  V30 38120 H 3744.83 -4.38621 3.35136 0
M  V30 38121 H 3747.31 -3.88474 1.49088 0
M  V30 38122 H 3746.19 -5.2669 1.54561 0
M  V30 38123 H 3746.45 -4.42091 0.028487 0
M  V30 38124 N 3745.51 -0.916353 -1.28221 0
M  V30 38125 C 3746.92 -0.61489 -1.4728 0
M  V30 38126 C 3747.12 0.839079 -1.83199 0
M  V30 38127 O 3746.18 1.61794 -1.93853 0
M  V30 38128 C 3747.49 -1.55502 -2.5737 0
M  V30 38129 C 3749.04 -1.56202 -2.71238 0
M  V30 38130 C 3749.51 -2.48884 -3.84475 0
M  V30 38131 N 3751 -2.47026 -3.91832 0
M  V30 38132 C 3751.74 -3.15435 -4.78841 0
M  V30 38133 N 3751.24 -3.93183 -5.7042 0
M  V30 38134 N 3753.03 -3.04509 -4.72473 0
M  V30 38135 H 3745.18 -1.85651 -1.03187 0
M  V30 38136 H 3747.44 -0.796431 -0.514199 0
M  V30 38137 H 3747.15 -2.59174 -2.37743 0
M  V30 38138 H 3747.02 -1.28809 -3.54525 0
M  V30 38139 H 3749.41 -0.53267 -2.90253 0
M  V30 38140 H 3749.49 -1.8694 -1.74606 0
M  V30 38141 H 3749.13 -3.51923 -3.66214 0
M  V30 38142 H 3749.06 -2.15448 -4.8051 0
M  V30 38143 H 3751.56 -1.90552 -3.26341 0
M  V30 38144 H 3751.87 -4.42395 -6.33645 0
M  V30 38145 H 3750.21 -3.97288 -5.70252 0
M  V30 38146 H 3753.4 -2.43272 -3.99921 0
M  V30 38147 H 3753.58 -3.58095 -5.40066 0
M  V30 38148 N 3746.98 1.42146 -0.680615 0
M  V30 38149 C 3748.23 2.01755 -0.205602 0
M  V30 38150 C 3748.56 1.5372 1.18675 0
M  V30 38151 O 3747.84 0.741899 1.79795 0
M  V30 38152 C 3748.12 3.59254 -0.246678 0
M  V30 38153 C 3747.97 4.17453 -1.6749 0
M  V30 38154 C 3749.29 4.38261 0.401883 0
M  V30 38155 H 3746.41 0.733052 -0.0761846 0
M  V30 38156 H 3749.05 1.69091 -0.866503 0
M  V30 38157 H 3747.2 3.87212 0.316059 0
M  V30 38158 H 3748.88 4.00427 -2.29033 0
M  V30 38159 H 3747.12 3.73061 -2.21377 0
M  V30 38160 H 3747.79 5.26597 -1.65528 0
M  V30 38161 H 3750.27 4.16028 -0.0772081 0
M  V30 38162 H 3749.14 5.4783 0.342531 0
M  V30 38163 H 3749.4 4.16579 1.48036 0
M  V30 38164 N 3748.46 0.424336 1.5178 0
M  V30 38165 C 3749.41 -0.393628 2.27419 0
M  V30 38166 C 3750.38 -1.02805 1.30462 0
M  V30 38167 O 3751.56 -1.04944 1.59347 0
M  V30 38168 C 3748.7 -1.49605 3.10986 0
M  V30 38169 C 3747.82 -0.881049 4.2292 0
M  V30 38170 C 3746.95 -1.95743 4.9382 0
M  V30 38171 C 3745.99 -1.32017 5.97694 0
M  V30 38172 N 3745.13 -2.33736 6.62051 0
M  V30 38173 H 3749.97 0.257783 2.96883 0
M  V30 38174 H 3747.5 0.138968 1.46442 0
M  V30 38175 H 3749.46 -2.14636 3.57753 0
M  V30 38176 H 3748.09 -2.11728 2.43662 0
M  V30 38177 H 3747.14 -0.119378 3.80213 0
M  V30 38178 H 3748.46 -0.375676 4.97383 0
M  V30 38179 H 3747.61 -2.68466 5.44069 0
M  V30 38180 H 3746.35 -2.4965 4.18958 0
M  V30 38181 H 3745.35 -0.578348 5.4675 0
M  V30 38182 H 3746.58 -0.788604 6.74506 0
M  V30 38183 H 3744.53 -2.86747 5.9001 0
M  V30 38184 H 3744.44 -1.88053 7.32238 0
M  V30 38185 H 3745.71 -3.05982 7.16935 0
M  V30 38186 N 3749.94 -1.56833 0.15525 0
M  V30 38187 C 3750.85 -2.2075 -0.79414 0
M  V30 38188 C 3751.87 -1.19426 -1.26544 0
M  V30 38189 O 3753.04 -1.52032 -1.32092 0
M  V30 38190 C 3750.11 -2.82306 -2.01256 0
M  V30 38191 C 3749.17 -3.98782 -1.58969 0
M  V30 38192 C 3748.4 -4.57393 -2.75003 0
M  V30 38193 O 3748.62 -4.14885 -3.91441 0
M  V30 38194 O 3747.56 -5.47524 -2.50001 0
M  V30 38195 H 3751.38 -3.02406 -0.280011 0
M  V30 38196 H 3748.97 -1.49226 -0.0721785 0
M  V30 38197 H 3750.85 -3.21398 -2.72545 0
M  V30 38198 H 3749.53 -2.03657 -2.51606 0
M  V30 38199 H 3748.43 -3.6439 -0.846784 0
M  V30 38200 H 3749.77 -4.78976 -1.13327 0
M  V30 38201 N 3751.42 0.118521 -1.57154 0
M  V30 38202 C 3752.33 1.1642 -2.03675 0
M  V30 38203 C 3753.34 1.45304 -0.957229 0
M  V30 38204 O 3754.52 1.5641 -1.26877 0
M  V30 38205 C 3751.58 2.47077 -2.43215 0
M  V30 38206 C 3750.65 2.25587 -3.65252 0
M  V30 38207 C 3749.88 3.50014 -4.02897 0
M  V30 38208 O 3750.1 4.57338 -3.40879 0
M  V30 38209 O 3749.04 3.40987 -4.95995 0
M  V30 38210 H 3752.86 0.799154 -2.92997 0
M  V30 38211 H 3750.45 0.329351 -1.45725 0
M  V30 38212 H 3752.33 3.24056 -2.6938 0
M  V30 38213 H 3751 2.83055 -1.57039 0
M  V30 38214 H 3749.91 1.46465 -3.44237 0
M  V30 38215 H 3751.24 1.94513 -4.52135 0
M  V30 38216 N 3752.9 1.52731 0.388715 0
M  V30 38217 C 3754.14 1.68037 1.1354 0
M  V30 38218 C 3754.47 0.41921 1.89621 0
M  V30 38219 O 3753.75 -0.582998 1.85557 0
M  V30 38220 C 3754.03 2.9156 2.11341 0
M  V30 38221 C 3753.89 4.27777 1.39021 0
M  V30 38222 C 3755.2 3.10631 3.11764 0
M  V30 38223 H 3752.32 0.611492 0.411396 0
M  V30 38224 H 3754.97 1.85328 0.418749 0
M  V30 38225 H 3753.12 2.76949 2.72455 0
M  V30 38226 H 3754.79 4.54156 0.808695 0
M  V30 38227 H 3753.03 4.28244 0.692058 0
M  V30 38228 H 3753.7 5.10294 2.10486 0
M  V30 38229 H 3756.18 3.24275 2.6074 0
M  V30 38230 H 3755.05 3.98536 3.7744 0
M  V30 38231 H 3755.31 2.2486 3.80645 0
M  V30 38232 N 3754.37 -0.647178 1.43699 0
M  V30 38233 C 3755.62 -1.407 1.45636 0
M  V30 38234 C 3755.95 -1.94323 0.0828984 0
M  V30 38235 O 3755.2 -1.73098 -0.913003 0
M  V30 38236 C 3755.5 -2.60129 2.45087 0
M  V30 38237 C 3755.17 -2.24889 3.90814 0
M  V30 38238 C 3753.83 -2.1499 4.30503 0
M  V30 38239 C 3756.18 -1.96785 4.82623 0
M  V30 38240 C 3753.51 -1.75153 5.59945 0
M  V30 38241 C 3755.86 -1.58445 6.12436 0
M  V30 38242 C 3754.53 -1.47076 6.51095 0
M  V30 38243 H 3753.8 -0.514858 0.532919 0
M  V30 38244 H 3756.44 -0.735426 1.76816 0
M  V30 38245 H 3754.75 -3.32446 2.07333 0
M  V30 38246 H 3756.45 -3.18346 2.43838 0
M  V30 38247 H 3753.04 -2.33505 3.59407 0
M  V30 38248 H 3757.22 -2.03351 4.52727 0
M  V30 38249 H 3752.48 -1.64942 5.88731 0
M  V30 38250 H 3756.65 -1.35733 6.83044 0
M  V30 38251 H 3754.28 -1.15979 7.51301 0
M  V30 38252 N 3755.85 -1.3033 -0.886108 0
M  V30 38253 C 3757.1 -1.18454 -1.63253 0
M  V30 38254 C 3757.41 0.259982 -1.93865 0
M  V30 38255 O 3758.62 0.500241 -2.66852 0
M  V30 38256 C 3757.08 -2.07262 -2.94228 0
M  V30 38257 C 3756.68 -3.56617 -2.71161 0
M  V30 38258 C 3758.43 -2.04146 -3.72189 0
M  V30 38259 C 3756.34 -4.37485 -3.97946 0
M  V30 38260 H 3755.27 -0.43975 -0.612483 0
M  V30 38261 H 3757.92 -1.5507 -0.981102 0
M  V30 38262 H 3756.3 -1.63528 -3.60659 0
M  V30 38263 H 3757.47 -4.08492 -2.1324 0
M  V30 38264 H 3755.79 -3.61545 -2.06578 0
M  V30 38265 H 3758.38 -2.61817 -4.66215 0
M  V30 38266 H 3758.73 -1.02466 -4.03493 0
M  V30 38267 H 3759.26 -2.45995 -3.1262 0
M  V30 38268 H 3756 -5.39855 -3.71802 0
M  V30 38269 H 3755.52 -3.90374 -4.55377 0
M  V30 38270 H 3757.2 -4.4886 -4.65976 0
M  V30 38271 N 3757.33 1.0983 -1.13028 0
M  V30 38272 C 3758.26 2.16175 -0.761644 0
M  V30 38273 C 3759.28 1.61378 0.214681 0
M  V30 38274 O 3760.46 1.78499 -0.00490315 0
M  V30 38275 C 3757.56 3.38729 -0.107572 0
M  V30 38276 C 3756.74 4.22951 -1.11494 0
M  V30 38277 C 3755.8 5.23938 -0.487335 0
M  V30 38278 O 3754.82 5.57541 -1.14615 0
M  V30 38279 N 3756.02 5.75732 0.74247 0
M  V30 38280 H 3758.79 2.48406 -1.67673 0
M  V30 38281 H 3756.35 1.25507 -1.02273 0
M  V30 38282 H 3758.34 4.03397 0.324436 0
M  V30 38283 H 3756.91 3.04421 0.710384 0
M  V30 38284 H 3756.13 3.54484 -1.72438 0
M  V30 38285 H 3757.42 4.7605 -1.79593 0
M  V30 38286 H 3756.82 5.50641 1.29657 0
M  V30 38287 H 3755.38 6.42154 1.1172 0
M  V30 38288 N 3758.81 0.92314 1.27734 0
M  V30 38289 C 3759.74 0.376021 2.26094 0
M  V30 38290 C 3760.75 -0.490735 1.55228 0
M  V30 38291 O 3761.94 -0.304096 1.75891 0
M  V30 38292 C 3759.04 -0.480283 3.3548 0
M  V30 38293 C 3758.22 0.366126 4.35865 0
M  V30 38294 C 3757.27 -0.426788 5.24466 0
M  V30 38295 O 3756.3 0.163925 5.68964 0
M  V30 38296 N 3757.5 -1.72767 5.54195 0
M  V30 38297 H 3760.27 1.22152 2.73677 0
M  V30 38298 H 3757.83 0.790081 1.41313 0
M  V30 38299 H 3759.82 -1.01769 3.91695 0
M  V30 38300 H 3758.39 -1.22652 2.87533 0
M  V30 38301 H 3757.61 1.08486 3.78978 0
M  V30 38302 H 3758.9 0.944937 4.99948 0
M  V30 38303 H 3758.3 -2.22999 5.19892 0
M  V30 38304 H 3756.85 -2.21171 6.13129 0
M  V30 38305 N 3760.29 -1.41783 0.688143 0
M  V30 38306 C 3761.7 -1.55511 0.35897 0
M  V30 38307 C 3761.9 -1.66516 -1.13466 0
M  V30 38308 O 3760.96 -1.63947 -1.92036 0
M  V30 38309 C 3762.27 -2.79819 1.10099 0
M  V30 38310 C 3763.82 -2.93607 1.08461 0
M  V30 38311 C 3764.29 -4.20794 1.80822 0
M  V30 38312 N 3765.79 -4.27735 1.77755 0
M  V30 38313 C 3766.52 -5.24991 2.30591 0
M  V30 38314 N 3766.02 -6.28321 2.91865 0
M  V30 38315 N 3767.81 -5.1688 2.20889 0
M  V30 38316 H 3759.96 -1.32883 1.65698 0
M  V30 38317 H 3762.22 -0.64058 0.698829 0
M  V30 38318 H 3761.93 -2.77871 2.15594 0
M  V30 38319 H 3761.8 -3.71115 0.674778 0
M  V30 38320 H 3764.19 -2.95076 0.0379474 0
M  V30 38321 H 3764.27 -2.03505 1.54982 0
M  V30 38322 H 3763.92 -4.20087 2.85464 0
M  V30 38323 H 3763.85 -5.09855 1.31741 0
M  V30 38324 H 3766.34 -3.53694 1.33075 0
M  V30 38325 H 3766.65 -6.98909 3.29767 0
M  V30 38326 H 3764.99 -6.28844 2.9594 0
M  V30 38327 H 3768.19 -4.35079 1.72697 0
M  V30 38328 H 3768.36 -5.92509 2.62369 0
M  V30 38329 N 3761.76 -0.432379 -1.51553 0
M  V30 38330 C 3762.71 0.396003 -2.29204 0
M  V30 38331 C 3763.71 1.0253 -1.34848 0
M  V30 38332 O 3764.91 0.960834 -1.5221 0
M  V30 38333 H 3761.29 0.146512 -0.737589 0
M  V30 38334 H 3763.26 -0.279833 -2.97085 0
M  V30 38335 C 3762.01 1.48754 -3.14273 0
M  V30 38336 H 3761.33 1.01267 -3.86762 0
M  V30 38337 H 3762.77 2.04051 -3.71671 0
M  V30 38338 C 3761.23 2.46802 -2.29326 0
M  V30 38339 O 3761.76 3.51224 -1.94947 0
M  V30 38340 N 3759.97 2.17569 -1.92645 0
M  V30 38341 H 3759.51 1.32681 -2.20802 0
M  V30 38342 H 3759.47 2.83413 -1.36105 0
M  V30 38343 N 3763.24 1.56749 -0.163565 0
M  V30 38344 C 3764.49 1.96938 0.484085 0
M  V30 38345 C 3764.82 1.04922 1.63417 0
M  V30 38346 O 3764.1 0.0948171 1.94269 0
M  V30 38347 C 3764.38 3.46664 0.974471 0
M  V30 38348 C 3764.23 4.49458 -0.175252 0
M  V30 38349 C 3765.55 3.99294 1.85075 0
M  V30 38350 H 3762.67 0.716046 0.174491 0
M  V30 38351 H 3765.31 1.88373 -0.248136 0
M  V30 38352 H 3763.46 3.54094 1.59842 0
M  V30 38353 H 3765.13 4.54095 -0.812118 0
M  V30 38354 H 3763.38 4.25748 -0.831928 0
M  V30 38355 H 3764.05 5.51601 0.209863 0
M  V30 38356 H 3766.52 3.94446 1.32481 0
M  V30 38357 H 3765.4 5.04489 2.16291 0
M  V30 38358 H 3765.66 3.42642 2.79372 0
M  V30 38359 N 3764.72 -0.110185 1.57214 0
M  V30 38360 C 3765.95 -0.834263 1.89881 0
M  V30 38361 C 3766.37 -1.72222 0.756377 0
M  V30 38362 O 3765.73 -1.78921 -0.292736 0
M  V30 38363 C 3765.78 -1.63623 3.21341 0
M  V30 38364 O 3764.88 -2.74393 3.07867 0
M  V30 38365 H 3764.22 -0.23016 0.622834 0
M  V30 38366 H 3766.75 -0.0899367 2.04402 0
M  V30 38367 H 3766.76 -2.02363 3.54279 0
M  V30 38368 H 3765.44 -0.98445 4.04081 0
M  V30 38369 H 3764.01 -2.38792 2.86414 0
M  V30 38370 N 3766.2 -1.52935 -0.38061 0
M  V30 38371 C 3767.44 -1.70081 -1.13366 0
M  V30 38372 C 3767.8 -0.435625 -1.86993 0
M  V30 38373 O 3769 -0.483562 -2.64415 0
M  V30 38374 C 3767.27 -2.9069 -2.07928 0
M  V30 38375 S 3768.83 -3.28466 -2.90956 0
M  V30 38376 H 3765.65 -0.598624 -0.383628 0
M  V30 38377 H 3768.25 -1.91002 -0.416932 0
M  V30 38378 H 3766.96 -3.80984 -1.52574 0
M  V30 38379 H 3766.49 -2.72126 -2.84096 0
M  V30 38380 H 3768.5 -2.79307 -4.10124 0
M  V30 38381 N 3767.68 0.639548 -1.4404 0
M  V30 38382 C 3769.09 1.22102 -1.41238 0
M  V30 38383 C 3769.44 1.95812 -0.123402 0
M  V30 38384 O 3768.56 2.01985 0.776606 0
M  V30 38385 C 3769.16 2.22087 -2.55857 0
M  V30 38386 C 3767.72 2.7568 -2.56276 0
M  V30 38387 C 3766.86 1.5054 -2.3288 0
M  V30 38388 H 3769.82 0.430729 -1.52743 0
M  V30 38389 H 3769.84 3.04529 -2.28128 0
M  V30 38390 H 3769.35 1.68411 -3.49656 0
M  V30 38391 H 3767.45 3.33382 -1.66395 0
M  V30 38392 H 3767.56 3.22293 -3.54491 0
M  V30 38393 H 3765.93 1.78374 -1.8181 0
M  V30 38394 H 3766.71 0.987787 -3.28782 0
M  V30 38395 N 3769.15 1.30798 0.879184 0
M  V30 38396 C 3770.09 1.13486 1.99132 0
M  V30 38397 C 3771.1 0.0764778 1.6262 0
M  V30 38398 O 3772.29 0.323069 1.75552 0
M  V30 38399 C 3769.39 0.709764 3.31384 0
M  V30 38400 C 3768.56 1.85115 3.96297 0
M  V30 38401 C 3767.62 1.41365 5.06855 0
M  V30 38402 O 3766.65 2.12181 5.28174 0
M  V30 38403 N 3767.85 0.295891 5.79745 0
M  V30 38404 H 3770.61 2.09275 2.14532 0
M  V30 38405 H 3768.17 1.2301 1.05262 0
M  V30 38406 H 3770.17 0.399974 4.02719 0
M  V30 38407 H 3768.74 -0.156254 3.12209 0
M  V30 38408 H 3767.96 2.32875 3.18061 0
M  V30 38409 H 3769.24 2.6159 4.36404 0
M  V30 38410 H 3768.64 -0.294066 5.64935 0
M  V30 38411 H 3767.2 0.0455853 6.51784 0
M  V30 38412 N 3770.63 -1.09229 1.13608 0
M  V30 38413 C 3771.56 -2.17947 0.837947 0
M  V30 38414 C 3772.54 -1.68878 -0.203546 0
M  V30 38415 O 3773.73 -1.94101 -0.0620361 0
M  V30 38416 C 3770.86 -3.45955 0.305403 0
M  V30 38417 C 3769.81 -4.08368 1.28138 0
M  V30 38418 C 3769.14 -5.31226 0.608505 0
M  V30 38419 C 3770.44 -4.50631 2.64063 0
M  V30 38420 H 3772.13 -2.43143 1.74704 0
M  V30 38421 H 3769.68 -1.16859 0.84143 0
M  V30 38422 H 3771.63 -4.21315 0.0844856 0
M  V30 38423 H 3770.36 -3.20286 -0.639088 0
M  V30 38424 H 3769.02 -3.35029 1.48832 0
M  V30 38425 H 3768.66 -5.01839 -0.341525 0
M  V30 38426 H 3768.36 -5.73939 1.25966 0
M  V30 38427 H 3769.89 -6.09309 0.396916 0
M  V30 38428 H 3771.3 -5.17207 2.47325 0
M  V30 38429 H 3769.7 -5.04235 3.25373 0
M  V30 38430 H 3770.77 -3.62931 3.21573 0
M  V30 38431 N 3772.11 -0.929901 -1.27242 0
M  V30 38432 C 3773.02 -0.436395 -2.30505 0
M  V30 38433 C 3774.04 0.484024 -1.67132 0
M  V30 38434 O 3775.21 0.366297 -1.98041 0
M  V30 38435 C 3772.28 0.300881 -3.45392 0
M  V30 38436 C 3771.34 -0.654721 -4.24278 0
M  V30 38437 C 3770.57 0.0474642 -5.33679 0
M  V30 38438 O 3770.8 1.26645 -5.56163 0
M  V30 38439 O 3769.73 -0.625486 -5.98641 0
M  V30 38440 H 3773.56 -1.29387 -2.74759 0
M  V30 38441 H 3771.14 -0.695334 -1.32233 0
M  V30 38442 H 3773.02 0.716645 -4.15262 0
M  V30 38443 H 3771.7 1.13393 -3.03189 0
M  V30 38444 H 3770.6 -1.12021 -3.56934 0
M  V30 38445 H 3771.94 -1.45505 -4.70201 0
M  V30 38446 N 3773.59 1.41416 -0.695653 0
M  V30 38447 C 3774.84 2.01526 -0.226989 0
M  V30 38448 C 3775.17 1.5497 1.17038 0
M  V30 38449 O 3774.44 0.760927 1.78998 0
M  V30 38450 C 3774.73 3.58972 -0.284768 0
M  V30 38451 C 3774.58 4.15653 -1.71908 0
M  V30 38452 C 3775.9 4.38663 0.355377 0
M  V30 38453 H 3773.02 0.732203 -0.0839553 0
M  V30 38454 H 3775.66 1.68162 -0.884388 0
M  V30 38455 H 3773.81 3.87526 0.274972 0
M  V30 38456 H 3775.48 3.97975 -2.33267 0
M  V30 38457 H 3773.72 3.70692 -2.25321 0
M  V30 38458 H 3774.4 5.24812 -1.71104 0
M  V30 38459 H 3776.87 4.15923 -0.121329 0
M  V30 38460 H 3775.75 5.48163 0.284407 0
M  V30 38461 H 3776.01 4.18125 1.4361 0
M  V30 38462 N 3775.07 0.44041 1.51321 0
M  V30 38463 C 3776.48 -0.0219944 1.86687 0
M  V30 38464 C 3776.83 -1.41669 1.35736 0
M  V30 38465 O 3775.95 -2.0444 0.709444 0
M  V30 38466 C 3776.55 -0.0466882 3.38768 0
M  V30 38467 C 3775.11 -0.453515 3.73658 0
M  V30 38468 C 3774.26 0.351828 2.75059 0
M  V30 38469 H 3777.21 0.656115 1.44502 0
M  V30 38470 H 3777.23 -0.855524 3.70757 0
M  V30 38471 H 3776.74 0.968517 3.75821 0
M  V30 38472 H 3774.84 -1.47421 3.42196 0
M  V30 38473 H 3774.95 -0.176177 4.78776 0
M  V30 38474 H 3773.32 -0.190289 2.53988 0
M  V30 38475 H 3774.1 1.36597 3.14954 0
M  V30 38476 N 3776.55 -1.5666 0.171876 0
M  V30 38477 C 3777.79 -1.97192 -0.473634 0
M  V30 38478 C 3778.12 -1.05787 -1.62858 0
M  V30 38479 O 3777.4 -0.105118 -1.94216 0
M  V30 38480 C 3777.68 -3.47176 -0.956073 0
M  V30 38481 C 3777.54 -4.49359 0.199086 0
M  V30 38482 C 3778.85 -4.0027 -1.82954 0
M  V30 38483 H 3775.97 -0.716961 -0.170691 0
M  V30 38484 H 3778.62 -1.88238 0.258123 0
M  V30 38485 H 3776.77 -3.54937 -1.57962 0
M  V30 38486 H 3778.44 -4.53658 0.836188 0
M  V30 38487 H 3776.68 -4.25301 0.854494 0
M  V30 38488 H 3777.35 -5.51704 -0.180607 0
M  V30 38489 H 3779.83 -3.95143 -1.30387 0
M  V30 38490 H 3778.7 -5.05629 -2.13612 0
M  V30 38491 H 3778.96 -3.44119 -2.77551 0
M  V30 38492 N 3778.02 0.101846 -1.57271 0
M  V30 38493 C 3779.26 0.81226 -1.87568 0
M  V30 38494 C 3779.63 1.7623 -0.762032 0
M  V30 38495 O 3780.83 2.51557 -0.947235 0
M  V30 38496 C 3779.1 1.5277 -3.23104 0
M  V30 38497 S 3780.66 2.27733 -3.75078 0
M  V30 38498 H 3777.48 0.270753 -0.65743 0
M  V30 38499 H 3780.08 0.0697166 -1.95376 0
M  V30 38500 H 3778.78 0.822048 -4.02083 0
M  V30 38501 H 3778.31 2.31028 -3.18418 0
M  V30 38502 H 3780.33 3.53756 -3.47953 0
M  V30 38503 N 3779.5 1.53135 0.372494 0
M  V30 38504 C 3780.91 1.60744 0.949643 0
M  V30 38505 C 3781.26 0.470534 1.90474 0
M  V30 38506 O 3780.39 -0.404048 2.12594 0
M  V30 38507 C 3780.98 2.91353 1.72912 0
M  V30 38508 C 3779.54 3.01321 2.25572 0
M  V30 38509 C 3778.69 2.55988 1.06608 0
M  V30 38510 H 3781.64 1.57975 0.151505 0
M  V30 38511 H 3781.66 2.78767 2.58977 0
M  V30 38512 H 3781.17 3.7408 1.03373 0
M  V30 38513 H 3779.27 2.23167 2.98374 0
M  V30 38514 H 3779.39 4.06273 2.53928 0
M  V30 38515 H 3777.75 2.10699 1.43101 0
M  V30 38516 H 3778.53 3.41126 0.38578 0
M  V30 38517 N 3780.98 -0.6319 1.44377 0
M  V30 38518 C 3782.2 -1.42364 1.50822 0
M  V30 38519 C 3782.63 -1.87623 0.133891 0
M  V30 38520 O 3781.99 -1.5869 -0.876761 0
M  V30 38521 C 3782.04 -2.6206 2.47703 0
M  V30 38522 O 3781.14 -3.61867 1.97802 0
M  V30 38523 H 3780.48 -0.426009 0.509326 0
M  V30 38524 H 3783.01 -0.771343 1.89503 0
M  V30 38525 H 3783.02 -3.09613 2.65713 0
M  V30 38526 H 3781.7 -2.28464 3.4753 0
M  V30 38527 H 3780.27 -3.21128 1.89555 0
M  V30 38528 N 3782.46 -1.31262 -0.872235 0
M  V30 38529 C 3783.71 -1.20579 -1.62188 0
M  V30 38530 C 3784.03 0.236735 -1.93558 0
M  V30 38531 O 3783.3 1.15683 -1.58096 0
M  V30 38532 H 3781.88 -0.443282 -0.601257 0
M  V30 38533 H 3784.54 -1.64558 -1.04435 0
M  V30 38534 H 3783.63 -1.77587 -2.5665 0
M  V30 38535 N 3783.94 1.08625 -1.14186 0
M  V30 38536 C 3785.18 1.80967 -0.908696 0
M  V30 38537 C 3785.51 1.86118 0.564831 0
M  V30 38538 O 3784.77 1.33132 1.43438 0
M  V30 38539 C 3785.06 3.26578 -1.45196 0
M  V30 38540 C 3784.73 3.41547 -2.94374 0
M  V30 38541 C 3783.39 3.4534 -3.35102 0
M  V30 38542 C 3785.74 3.45409 -3.9031 0
M  V30 38543 C 3783.07 3.50583 -4.70434 0
M  V30 38544 C 3785.42 3.52187 -5.25497 0
M  V30 38545 C 3784.09 3.54252 -5.6574 0
M  V30 38546 H 3783.36 0.662204 -0.332515 0
M  V30 38547 H 3786.01 1.27911 -1.42516 0
M  V30 38548 H 3784.31 3.82326 -0.856375 0
M  V30 38549 H 3786.01 3.81101 -1.24752 0
M  V30 38550 H 3782.6 3.39285 -2.61885 0
M  V30 38551 H 3786.78 3.41711 -3.59927 0
M  V30 38552 H 3782.04 3.50473 -5.00978 0
M  V30 38553 H 3786.21 3.5412 -5.99643 0
M  V30 38554 H 3783.84 3.58067 -6.70591 0
M  V30 38555 N 3785.41 0.936635 1.26747 0
M  V30 38556 C 3786.35 0.399981 2.25683 0
M  V30 38557 C 3787.36 -0.474244 1.55739 0
M  V30 38558 O 3788.55 -0.285423 1.76203 0
M  V30 38559 C 3785.65 -0.444673 3.3597 0
M  V30 38560 C 3784.82 0.412335 4.35452 0
M  V30 38561 C 3783.88 -0.371138 5.2489 0
M  V30 38562 O 3782.91 0.224262 5.68758 0
M  V30 38563 N 3784.11 -1.6688 5.55996 0
M  V30 38564 H 3786.87 1.25048 2.72366 0
M  V30 38565 H 3784.43 0.805025 1.40467 0
M  V30 38566 H 3786.43 -0.97609 3.92753 0
M  V30 38567 H 3785 -1.19595 2.88818 0
M  V30 38568 H 3784.22 1.12499 3.77806 0
M  V30 38569 H 3785.5 0.99791 4.98918 0
M  V30 38570 H 3784.9 -2.17472 5.22228 0
M  V30 38571 H 3783.46 -2.14655 6.1544 0
M  V30 38572 N 3786.89 -1.41045 0.703143 0
M  V30 38573 C 3787.82 -2.3343 0.0571225 0
M  V30 38574 C 3788.8 -1.52227 -0.759015 0
M  V30 38575 O 3789.99 -1.80738 -0.710459 0
M  V30 38576 C 3787.12 -3.3611 -0.874482 0
M  V30 38577 C 3786.07 -4.27682 -0.164884 0
M  V30 38578 C 3785.4 -5.20798 -1.21136 0
M  V30 38579 C 3786.7 -5.13149 0.97341 0
M  V30 38580 H 3788.39 -2.87701 0.82875 0
M  V30 38581 H 3785.94 -1.38333 0.399981 0
M  V30 38582 H 3787.89 -3.99671 -1.33572 0
M  V30 38583 H 3786.62 -2.80206 -1.67786 0
M  V30 38584 H 3785.27 -3.65557 0.276396 0
M  V30 38585 H 3784.92 -4.61205 -2.00747 0
M  V30 38586 H 3784.62 -5.82902 -0.741531 0
M  V30 38587 H 3786.15 -5.87235 -1.67295 0
M  V30 38588 H 3787.56 -5.70234 0.592113 0
M  V30 38589 H 3785.96 -5.84233 1.37082 0
M  V30 38590 H 3787.03 -4.49865 1.80969 0
M  V30 38591 N 3788.37 -0.448429 -1.51086 0
M  V30 38592 C 3789.6 0.115002 -2.07081 0
M  V30 38593 C 3790.02 1.34735 -1.31256 0
M  V30 38594 O 3789.38 1.77817 -0.353644 0
M  V30 38595 C 3789.43 0.40474 -3.58321 0
M  V30 38596 O 3788.53 1.48929 -3.8457 0
M  V30 38597 H 3787.87 -0.00300285 -0.663993 0
M  V30 38598 H 3790.4 -0.632955 -1.94563 0
M  V30 38599 H 3790.41 0.651942 -4.02758 0
M  V30 38600 H 3789.09 -0.495911 -4.12933 0
M  V30 38601 H 3787.66 1.23118 -3.51989 0
M  V30 38602 N 3789.85 1.56567 -0.180181 0
M  V30 38603 C 3791.09 1.99044 0.464834 0
M  V30 38604 C 3791.45 1.06402 1.5982 0
M  V30 38605 O 3792.65 1.38056 2.30638 0
M  V30 38606 C 3790.92 3.45164 0.927166 0
M  V30 38607 S 3792.48 4.0967 1.57212 0
M  V30 38608 H 3789.3 0.695169 0.149203 0
M  V30 38609 H 3791.9 1.93488 -0.279733 0
M  V30 38610 H 3790.61 4.10297 0.0920093 0
M  V30 38611 H 3790.14 3.54506 1.70556 0
M  V30 38612 H 3792.15 4.05449 2.86052 0
M  V30 38613 N 3791.33 -0.0935042 1.57322 0
M  V30 38614 C 3792.27 -1.11332 2.02173 0
M  V30 38615 C 3793.24 -1.39711 0.89833 0
M  V30 38616 O 3794.43 -1.51147 1.16444 0
M  V30 38617 C 3791.57 -2.42791 2.45248 0
M  V30 38618 C 3790.68 -2.2113 3.71114 0
M  V30 38619 C 3789.82 -3.45998 4.03062 0
M  V30 38620 C 3788.86 -3.19605 5.22033 0
M  V30 38621 N 3787.99 -4.36745 5.49726 0
M  V30 38622 H 3792.83 -0.723873 2.89075 0
M  V30 38623 H 3790.37 -0.345894 1.42975 0
M  V30 38624 H 3792.33 -3.19513 2.68267 0
M  V30 38625 H 3790.96 -2.7958 1.61353 0
M  V30 38626 H 3790.01 -1.35202 3.55562 0
M  V30 38627 H 3791.32 -1.9762 4.57982 0
M  V30 38628 H 3790.48 -4.31127 4.26866 0
M  V30 38629 H 3789.21 -3.72563 3.14719 0
M  V30 38630 H 3788.22 -2.3287 4.98048 0
M  V30 38631 H 3789.44 -2.94385 6.11976 0
M  V30 38632 H 3787.39 -4.63383 4.64341 0
M  V30 38633 H 3787.31 -4.16432 6.30968 0
M  V30 38634 H 3788.58 -5.22934 5.78066 0
M  V30 38635 N 3792.8 -1.5333 -0.364368 0
M  V30 38636 C 3794.03 -1.73481 -1.12747 0
M  V30 38637 C 3794.45 -0.464332 -1.83001 0
M  V30 38638 O 3793.8 0.562833 -1.73604 0
M  V30 38639 C 3793.86 -2.90107 -2.15686 0
M  V30 38640 O 3793.58 -4.12239 -1.48291 0
M  V30 38641 C 3795.08 -3.22141 -3.04533 0
M  V30 38642 H 3792.3 -0.580192 -0.337073 0
M  V30 38643 H 3794.84 -2.00079 -0.422917 0
M  V30 38644 H 3793 -2.659 -2.81737 0
M  V30 38645 H 3793.41 -4.77556 -2.16887 0
M  V30 38646 H 3794.88 -4.07147 -3.7274 0
M  V30 38647 H 3795.36 -2.37556 -3.6941 0
M  V30 38648 H 3795.97 -3.48277 -2.44097 0
M  V30 38649 N 3794.28 0.624234 -1.4471 0
M  V30 38650 C 3795.51 1.41562 -1.51575 0
M  V30 38651 C 3795.93 1.87549 -0.143839 0
M  V30 38652 O 3795.29 1.59153 0.868333 0
M  V30 38653 C 3795.34 2.60743 -2.49089 0
M  V30 38654 O 3794.44 3.60813 -1.99719 0
M  V30 38655 H 3793.78 0.423302 -0.511578 0
M  V30 38656 H 3796.31 0.761282 -1.8991 0
M  V30 38657 H 3796.32 3.082 -2.67351 0
M  V30 38658 H 3795 2.26618 -3.48737 0
M  V30 38659 H 3793.58 3.20118 -1.91255 0
M  V30 38660 N 3795.76 1.31723 0.865262 0
M  V30 38661 C 3796.72 1.19722 1.95446 0
M  V30 38662 C 3797.72 0.123053 1.60328 0
M  V30 38663 O 3798.91 0.372673 1.70167 0
M  V30 38664 C 3796.05 0.838776 3.3042 0
M  V30 38665 H 3797.24 2.16509 2.07518 0
M  V30 38666 H 3794.79 1.15402 1.05414 0
M  V30 38667 H 3795.53 -0.12774 3.24048 0
M  V30 38668 H 3795.31 1.61528 3.57283 0
M  V30 38669 H 3796.8 0.778832 4.10273 0
M  V30 38670 N 3797.24 -1.08018 1.14761 0
M  V30 38671 C 3798.48 -1.82083 0.928717 0
M  V30 38672 C 3798.84 -1.84398 -0.534925 0
M  V30 38673 O 3800.04 -2.54266 -0.871901 0
M  V30 38674 C 3798.31 -3.23562 1.51796 0
M  V30 38675 S 3799.87 -4.14457 1.44122 0
M  V30 38676 H 3796.69 -0.627454 0.3344 0
M  V30 38677 H 3799.29 -1.2981 1.46184 0
M  V30 38678 H 3798 -3.19462 2.57628 0
M  V30 38679 H 3797.53 -3.8091 0.98341 0
M  V30 38680 H 3799.54 -4.94338 0.429452 0
M  V30 38681 N 3798.72 -0.943344 -1.26249 0
M  V30 38682 C 3799.96 -0.599576 -1.95408 0
M  V30 38683 C 3800.32 0.845987 -1.72357 0
M  V30 38684 O 3801.52 1.2988 -2.3534 0
M  V30 38685 C 3799.79 -0.935074 -3.44951 0
M  V30 38686 S 3801.35 -0.702177 -4.33145 0
M  V30 38687 H 3798.17 -0.220761 -0.675859 0
M  V30 38688 H 3800.77 -1.21512 -1.53151 0
M  V30 38689 H 3799.48 -1.98451 -3.59229 0
M  V30 38690 H 3799.01 -0.309337 -3.92182 0
M  V30 38691 H 3801.02 0.432568 -4.94311 0
M  V30 38692 N 3800.2 1.4067 -0.710613 0
M  V30 38693 C 3801.61 1.8392 -0.320958 0
M  V30 38694 C 3801.96 1.59428 1.14355 0
M  V30 38695 O 3801.08 1.07255 1.8795 0
M  V30 38696 C 3801.68 3.33872 -0.575759 0
M  V30 38697 C 3800.24 3.75635 -0.239865 0
M  V30 38698 C 3799.38 2.63932 -0.850599 0
M  V30 38699 H 3802.33 1.30008 -0.910141 0
M  V30 38700 H 3802.36 3.80161 0.16064 0
M  V30 38701 H 3801.87 3.51666 -1.64172 0
M  V30 38702 H 3799.97 3.63437 0.821233 0
M  V30 38703 H 3800.08 4.73879 -0.705389 0
M  V30 38704 H 3798.45 2.53167 -0.279021 0
M  V30 38705 H 3799.23 2.8454 -1.92073 0
M  V30 38706 N 3801.67 0.456435 1.50846 0
M  V30 38707 C 3802.9 -0.104018 2.07139 0
M  V30 38708 C 3803.32 -1.34037 1.31968 0
M  V30 38709 O 3802.68 -1.77627 0.363069 0
M  V30 38710 C 3802.73 -0.385731 3.58531 0
M  V30 38711 O 3801.83 -1.46888 3.85354 0
M  V30 38712 H 3801.17 0.00652413 0.663968 0
M  V30 38713 H 3803.7 0.643265 1.94225 0
M  V30 38714 H 3803.71 -0.630574 4.03098 0
M  V30 38715 H 3802.39 0.517803 4.12664 0
M  V30 38716 H 3800.97 -1.2125 3.52637 0
M  V30 38717 N 3803.15 -1.56469 0.188482 0
M  V30 38718 C 3804.39 -1.99288 -0.454272 0
M  V30 38719 C 3804.76 -1.07248 -1.59254 0
M  V30 38720 O 3805.96 -1.39277 -2.29903 0
M  V30 38721 C 3804.23 -3.45651 -0.908848 0
M  V30 38722 S 3805.79 -4.10498 -1.55037 0
M  V30 38723 H 3802.6 -0.69595 -0.145514 0
M  V30 38724 H 3805.21 -1.93337 0.28999 0
M  V30 38725 H 3803.91 -4.1034 -0.0702489 0
M  V30 38726 H 3803.44 -3.55405 -1.68674 0
M  V30 38727 H 3805.46 -4.0696 -2.83898 0
M  V30 38728 N 3804.63 0.0851597 -1.5737 0
M  V30 38729 C 3806.05 0.439624 -1.53426 0
M  V30 38730 C 3806.25 1.79948 -0.906695 0
M  V30 38731 O 3805.3 2.4743 -0.503458 0
M  V30 38732 C 3806.61 0.392975 -2.98121 0
M  V30 38733 C 3808.16 0.474121 -3.09388 0
M  V30 38734 C 3808.64 0.457518 -4.55709 0
M  V30 38735 N 3810.13 0.517984 -4.60295 0
M  V30 38736 C 3810.86 0.527136 -5.70972 0
M  V30 38737 N 3810.36 0.491901 -6.91051 0
M  V30 38738 N 3812.15 0.572693 -5.59175 0
M  V30 38739 H 3804.3 -0.805434 -1.96536 0
M  V30 38740 H 3806.57 -0.300852 -0.898995 0
M  V30 38741 H 3806.27 -0.539265 -3.47541 0
M  V30 38742 H 3806.15 1.20823 -3.57326 0
M  V30 38743 H 3808.53 1.39678 -2.5995 0
M  V30 38744 H 3808.61 -0.369455 -2.53118 0
M  V30 38745 H 3808.26 -0.461239 -5.05801 0
M  V30 38746 H 3808.19 1.31844 -5.09828 0
M  V30 38747 H 3810.68 0.550007 -3.73876 0
M  V30 38748 H 3810.99 0.502442 -7.71165 0
M  V30 38749 H 3809.34 0.458795 -6.93484 0
M  V30 38750 H 3812.53 0.59782 -4.64267 0
M  V30 38751 H 3812.7 0.576357 -6.45432 0
M  V30 38752 N 3806.11 1.53521 0.356231 0
M  V30 38753 C 3807.35 1.71863 1.10646 0
M  V30 38754 C 3807.71 0.465319 1.86276 0
M  V30 38755 O 3808.91 0.525566 2.63612 0
M  V30 38756 C 3807.18 2.93961 2.03277 0
M  V30 38757 S 3808.74 3.33054 2.85694 0
M  V30 38758 H 3805.56 0.604652 0.374055 0
M  V30 38759 H 3808.16 1.91642 0.386493 0
M  V30 38760 H 3806.87 3.83364 1.46494 0
M  V30 38761 H 3806.4 2.76612 2.79731 0
M  V30 38762 H 3808.41 2.85797 4.05629 0
M  V30 38763 N 3807.59 -0.616551 1.45039 0
M  V30 38764 C 3808.5 -1.75622 1.55545 0
M  V30 38765 C 3809.51 -1.68336 0.440333 0
M  V30 38766 O 3810.69 -1.88853 0.699759 0
M  V30 38767 C 3807.75 -3.12057 1.51067 0
M  V30 38768 C 3806.81 -3.30864 2.73546 0
M  V30 38769 C 3806.05 -4.60791 2.69272 0
M  V30 38770 O 3806.27 -5.42538 1.76094 0
M  V30 38771 O 3805.2 -4.82117 3.60343 0
M  V30 38772 H 3809.03 -1.6971 2.51857 0
M  V30 38773 H 3806.61 -0.779556 1.27449 0
M  V30 38774 H 3808.5 -3.93361 1.51145 0
M  V30 38775 H 3807.17 -3.18479 0.579032 0
M  V30 38776 H 3806.08 -2.49183 2.79032 0
M  V30 38777 H 3807.41 -3.29313 3.65805 0
M  V30 38778 N 3809.06 -1.3218 -0.858264 0
M  V30 38779 C 3810.48 -1.11092 -1.14589 0
M  V30 38780 C 3810.68 0.110963 -2.01194 0
M  V30 38781 O 3809.74 0.796908 -2.39595 0
M  V30 38782 C 3811.05 -2.38855 -1.82671 0
M  V30 38783 C 3812.6 -2.44578 -1.95322 0
M  V30 38784 C 3813.07 -3.72252 -2.66819 0
M  V30 38785 N 3814.56 -3.73213 -2.74347 0
M  V30 38786 C 3815.3 -4.68704 -3.30309 0
M  V30 38787 N 3814.79 -5.74558 -3.87111 0
M  V30 38788 N 3816.59 -4.56206 -3.28378 0
M  V30 38789 H 3808.74 -2.10527 -0.281434 0
M  V30 38790 H 3811 -0.929311 -0.18731 0
M  V30 38791 H 3810.71 -3.28167 -1.26489 0
M  V30 38792 H 3810.58 -2.49542 -2.82858 0
M  V30 38793 H 3812.97 -1.55728 -2.50665 0
M  V30 38794 H 3813.05 -2.37846 -0.941429 0
M  V30 38795 H 3812.69 -4.61475 -2.12141 0
M  V30 38796 H 3812.62 -3.76254 -3.6843 0
M  V30 38797 H 3815.11 -2.967 -2.34046 0
M  V30 38798 H 3815.43 -6.43484 -4.27958 0
M  V30 38799 H 3813.77 -5.78317 -3.85453 0
M  V30 38800 H 3816.96 -3.72677 -2.83248 0
M  V30 38801 H 3817.14 -5.308 -3.71692 0
M  V30 38802 N 3810.54 1.07407 -1.15332 0
M  V30 38803 C 3811.47 2.13974 -0.793115 0
M  V30 38804 C 3812.45 1.60962 0.230181 0
M  V30 38805 O 3813.64 1.88137 0.116871 0
M  V30 38806 C 3810.76 3.38225 -0.179291 0
M  V30 38807 C 3809.81 4.10013 -1.17439 0
M  V30 38808 S 3810.64 4.61502 -2.71618 0
M  V30 38809 C 3811.8 5.89028 -2.11654 0
M  V30 38810 H 3812.03 2.44198 -1.69572 0
M  V30 38811 H 3809.56 1.19672 -0.975603 0
M  V30 38812 H 3811.52 4.10154 0.168422 0
M  V30 38813 H 3810.18 3.0618 0.7009 0
M  V30 38814 H 3809.38 4.99211 -0.693115 0
M  V30 38815 H 3808.98 3.44044 -1.46661 0
M  V30 38816 H 3811.27 6.61176 -1.47824 0
M  V30 38817 H 3812.21 6.41868 -2.99017 0
M  V30 38818 H 3812.62 5.42522 -1.55981 0
M  V30 38819 N 3812.02 0.950026 1.25747 0
M  V30 38820 C 3812.93 0.473011 2.29782 0
M  V30 38821 C 3813.95 -0.457374 1.67881 0
M  V30 38822 O 3815.12 -0.334745 1.98599 0
M  V30 38823 C 3812.19 -0.245894 3.45827 0
M  V30 38824 C 3811.25 0.722137 4.23183 0
M  V30 38825 C 3810.48 0.0374455 5.33687 0
M  V30 38826 O 3810.7 -1.1778 5.58107 0
M  V30 38827 O 3809.64 0.720645 5.9757 0
M  V30 38828 H 3813.46 1.33742 2.72666 0
M  V30 38829 H 3811.05 0.716283 1.3111 0
M  V30 38830 H 3812.93 -0.65049 4.16349 0
M  V30 38831 H 3811.61 -1.08555 3.04955 0
M  V30 38832 H 3810.51 1.17685 3.55107 0
M  V30 38833 H 3811.85 1.52967 4.67827 0
M  V30 38834 N 3813.5 -1.40291 0.718063 0
M  V30 38835 C 3814.46 -2.29075 0.0757886 0
M  V30 38836 C 3815.46 -1.45489 -0.684805 0
M  V30 38837 O 3816.65 -1.66372 -0.516339 0
M  V30 38838 C 3813.78 -3.28737 -0.902476 0
M  V30 38839 H 3814.98 -2.87371 0.857779 0
M  V30 38840 H 3812.53 -1.48654 0.482865 0
M  V30 38841 H 3813.26 -2.75464 -1.71143 0
M  V30 38842 H 3813.05 -3.90444 -0.35994 0
M  V30 38843 H 3814.54 -3.95212 -1.34897 0
M  V30 38844 N 3814.98 -0.464428 -1.50602 0
M  V30 38845 C 3816.22 0.0916857 -2.04194 0
M  V30 38846 C 3816.58 1.37581 -1.33923 0
M  V30 38847 O 3817.78 2.01388 -1.78034 0
M  V30 38848 C 3816.05 0.27803 -3.56317 0
M  V30 38849 S 3817.61 0.793658 -4.31563 0
M  V30 38850 H 3814.43 0.019103 -0.710743 0
M  V30 38851 H 3817.03 -0.630042 -1.85069 0
M  V30 38852 H 3815.74 -0.662466 -4.05018 0
M  V30 38853 H 3815.27 1.02606 -3.79783 0
M  V30 38854 H 3817.28 2.06793 -4.51055 0
M  V30 38855 N 3816.45 1.56367 -0.196777 0
M  V30 38856 C 3817.39 2.15075 0.76277 0
M  V30 38857 C 3818.37 1.08794 1.20842 0
M  V30 38858 O 3819.55 1.36915 1.29563 0
M  V30 38859 C 3816.68 2.71099 2.03034 0
M  V30 38860 C 3815.72 3.89984 1.72669 0
M  V30 38861 S 3816.56 5.28331 0.87331 0
M  V30 38862 C 3817.71 5.87778 2.15099 0
M  V30 38863 H 3817.94 2.96128 0.263699 0
M  V30 38864 H 3815.48 1.54389 0.0182416 0
M  V30 38865 H 3817.44 3.04021 2.75828 0
M  V30 38866 H 3816.1 1.90084 2.50053 0
M  V30 38867 H 3815.29 4.27601 2.66784 0
M  V30 38868 H 3814.89 3.58081 1.07954 0
M  V30 38869 H 3817.18 6.02243 3.10338 0
M  V30 38870 H 3818.13 6.84334 1.81912 0
M  V30 38871 H 3818.53 5.16398 2.28022 0
M  V30 38872 N 3817.93 -0.0768128 1.57413 0
M  V30 38873 C 3818.86 -1.09223 2.0638 0
M  V30 38874 C 3819.84 -1.40673 0.956294 0
M  V30 38875 O 3821.03 -1.50388 1.22871 0
M  V30 38876 C 3818.16 -2.40708 2.50354 0
M  V30 38877 C 3817.11 -2.23622 3.64935 0
M  V30 38878 C 3816.44 -3.60446 3.94946 0
M  V30 38879 C 3817.74 -1.6616 4.95165 0
M  V30 38880 H 3819.43 -0.684775 2.91464 0
M  V30 38881 H 3816.98 -0.327949 1.40216 0
M  V30 38882 H 3818.93 -3.12031 2.83222 0
M  V30 38883 H 3817.66 -2.83424 1.62292 0
M  V30 38884 H 3816.31 -1.54741 3.32341 0
M  V30 38885 H 3815.96 -4.00723 3.04023 0
M  V30 38886 H 3815.66 -3.49855 4.72097 0
M  V30 38887 H 3817.19 -4.33208 4.30306 0
M  V30 38888 H 3818.6 -2.27344 5.26296 0
M  V30 38889 H 3817 -1.66278 5.76603 0
M  V30 38890 H 3818.07 -0.622626 4.80886 0
M  V30 38891 N 3819.41 -1.53708 -0.348084 0
M  V30 38892 C 3820.36 -1.82071 -1.44751 0
M  V30 38893 C 3821.35 -0.690892 -1.54671 0
M  V30 38894 O 3822.56 -0.874151 -1.57349 0
M  V30 38895 H 3818.93 -0.576756 -0.482552 0
M  V30 38896 H 3820.9 -2.7406 -1.18042 0
M  V30 38897 C 3819.65 -2.0431 -2.81341 0
M  V30 38898 H 3818.98 -2.90696 -2.74474 0
M  V30 38899 H 3820.42 -2.28123 -3.57401 0
M  V30 38900 C 3818.88 -0.827281 -3.26585 0
M  V30 38901 O 3819.41 -0.0244804 -4.01693 0
M  V30 38902 N 3817.61 -0.645781 -2.83334 0
M  V30 38903 H 3817.16 -1.30024 -2.22377 0
M  V30 38904 H 3817.12 0.166258 -3.1396 0
M  V30 38905 N 3820.89 0.608851 -1.45364 0
M  V30 38906 C 3822.14 1.36519 -1.4902 0
M  V30 38907 C 3822.46 1.94547 -0.132791 0
M  V30 38908 O 3821.73 1.77086 0.837692 0
M  V30 38909 H 3820.31 0.506799 -0.548784 0
M  V30 38910 H 3822.97 0.715036 -1.8131 0
M  V30 38911 H 3822.07 2.18525 -2.2283 0
M  V30 38912 N 3822.37 1.32633 0.851242 0
M  V30 38913 C 3823.59 1.26397 1.63803 0
M  V30 38914 C 3824.01 -0.167421 1.88056 0
M  V30 38915 O 3823.37 -1.10562 1.45198 0
M  V30 38916 C 3823.42 2.02386 2.99536 0
M  V30 38917 O 3823.14 3.3994 2.76355 0
M  V30 38918 C 3824.64 2.03214 3.93978 0
M  V30 38919 H 3821.86 0.435957 0.51008 0
M  V30 38920 H 3824.4 1.74811 1.0612 0
M  V30 38921 H 3822.56 1.57686 3.53856 0
M  V30 38922 H 3822.97 3.78877 3.62702 0
M  V30 38923 H 3824.45 2.6086 4.86473 0
M  V30 38924 H 3824.92 1.01926 4.27209 0
M  V30 38925 H 3825.53 2.47878 3.45596 0
M  V30 38926 N 3823.84 -1.06794 1.159 0
M  V30 38927 C 3825.09 -1.79764 0.93876 0
M  V30 38928 C 3825.42 -1.86758 -0.532457 0
M  V30 38929 O 3824.7 -1.35546 -1.3949 0
M  V30 38930 C 3824.98 -3.24523 1.56068 0
M  V30 38931 C 3824.83 -3.2564 3.10288 0
M  V30 38932 C 3826.15 -4.21941 1.25115 0
M  V30 38933 H 3823.27 -0.652601 0.342463 0
M  V30 38934 H 3825.91 -1.2493 1.43152 0
M  V30 38935 H 3824.06 -3.71347 1.14165 0
M  V30 38936 H 3825.74 -2.87015 3.61137 0
M  V30 38937 H 3823.98 -2.64437 3.43883 0
M  V30 38938 H 3824.65 -4.27737 3.4892 0
M  V30 38939 H 3827.13 -3.83534 1.61371 0
M  V30 38940 H 3826 -5.21506 1.71239 0
M  V30 38941 H 3826.26 -4.41776 0.16912 0
M  V30 38942 N 3825.32 -0.956681 -1.25241 0
M  V30 38943 C 3826.57 -0.608229 -1.92311 0
M  V30 38944 C 3826.88 0.859027 -1.75727 0
M  V30 38945 O 3828.09 1.31753 -2.37389 0
M  V30 38946 C 3826.55 -1.03714 -3.44632 0
M  V30 38947 C 3826.15 -2.52708 -3.69922 0
M  V30 38948 C 3827.9 -0.761315 -4.17617 0
M  V30 38949 C 3825.81 -2.89389 -5.1576 0
M  V30 38950 H 3824.74 -0.223773 -0.720029 0
M  V30 38951 H 3827.39 -1.16141 -1.42069 0
M  V30 38952 H 3825.77 -0.412356 -3.93847 0
M  V30 38953 H 3826.94 -3.20223 -3.31352 0
M  V30 38954 H 3825.26 -2.77784 -3.10202 0
M  V30 38955 H 3827.85 -1.01151 -5.25045 0
M  V30 38956 H 3828.2 0.302302 -4.15201 0
M  V30 38957 H 3828.73 -1.34654 -3.74317 0
M  V30 38958 H 3825.47 -3.94776 -5.23289 0
M  V30 38959 H 3824.99 -2.26549 -5.5537 0
M  V30 38960 H 3826.67 -2.78693 -5.839 0
M  V30 38961 N 3826.8 1.39908 -0.725493 0
M  V30 38962 C 3828.05 2.00305 -0.268754 0
M  V30 38963 C 3828.37 1.57838 1.14509 0
M  V30 38964 O 3827.64 0.822294 1.77806 0
M  V30 38965 H 3826.22 0.740757 -0.0963744 0
M  V30 38966 H 3828.88 1.71099 -0.933333 0
M  V30 38967 H 3827.98 3.1056 -0.309642 0
M  V30 38968 N 3828.28 0.472408 1.50353 0
M  V30 38969 C 3829.69 0.0176096 1.86692 0
M  V30 38970 C 3830.04 -1.38758 1.38711 0
M  V30 38971 O 3829.17 -2.0289 0.752649 0
M  V30 38972 C 3829.76 0.02518 3.38791 0
M  V30 38973 C 3828.32 -0.374154 3.74536 0
M  V30 38974 C 3827.47 0.410093 2.74251 0
M  V30 38975 H 3830.42 0.686619 1.43078 0
M  V30 38976 H 3830.44 -0.776688 3.72489 0
M  V30 38977 H 3829.95 1.04802 3.73682 0
M  V30 38978 H 3828.05 -1.40129 3.45246 0
M  V30 38979 H 3828.16 -0.0745824 4.79042 0
M  V30 38980 H 3826.53 -0.136372 2.54335 0
M  V30 38981 H 3827.31 1.43247 3.11986 0
M  V30 38982 N 3829.76 -1.5626 0.205067 0
M  V30 38983 C 3831.01 -1.97468 -0.430211 0
M  V30 38984 C 3831.33 -1.09345 -1.61458 0
M  V30 38985 O 3830.6 -0.166871 -1.95188 0
M  V30 38986 H 3829.18 -0.729237 -0.161932 0
M  V30 38987 H 3831.84 -1.92668 0.294123 0
M  V30 38988 H 3830.93 -3.02512 -0.767646 0
M  V30 38989 N 3831.24 0.0684638 -1.57451 0
M  V30 38990 C 3832.18 1.08102 -2.03918 0
M  V30 38991 C 3833.15 1.38264 -0.920443 0
M  V30 38992 O 3834.34 1.49275 -1.18834 0
M  V30 38993 C 3831.48 2.38859 -2.49079 0
M  V30 38994 C 3830.59 2.15198 -3.74585 0
M  V30 38995 C 3829.73 3.39542 -4.08515 0
M  V30 38996 C 3828.76 3.1126 -5.27052 0
M  V30 38997 N 3827.9 4.27944 -5.56604 0
M  V30 38998 H 3832.74 0.677792 -2.9019 0
M  V30 38999 H 3830.28 0.323104 -1.43508 0
M  V30 39000 H 3832.24 3.15205 -2.73316 0
M  V30 39001 H 3830.87 2.76978 -1.65781 0
M  V30 39002 H 3829.92 1.29529 -3.57668 0
M  V30 39003 H 3831.23 1.90309 -4.61068 0
M  V30 39004 H 3830.38 4.24282 -4.3367 0
M  V30 39005 H 3829.12 3.67509 -3.20606 0
M  V30 39006 H 3828.13 2.24917 -5.0169 0
M  V30 39007 H 3829.35 2.84612 -6.16582 0
M  V30 39008 H 3827.3 4.55937 -4.71654 0
M  V30 39009 H 3827.22 4.06341 -6.37513 0
M  V30 39010 H 3828.48 5.13671 -5.86313 0
M  V30 39011 N 3832.71 1.5389 0.339928 0
M  V30 39012 C 3833.94 1.75253 1.09972 0
M  V30 39013 C 3834.36 0.493387 1.82239 0
M  V30 39014 O 3833.71 -0.535143 1.74478 0
M  V30 39015 C 3833.76 2.93501 2.11043 0
M  V30 39016 O 3833.49 4.14546 1.41714 0
M  V30 39017 C 3834.99 3.26945 2.99369 0
M  V30 39018 H 3832.21 0.585481 0.3278 0
M  V30 39019 H 3834.75 2.00727 0.391033 0
M  V30 39020 H 3832.91 2.70349 2.77471 0
M  V30 39021 H 3833.32 4.80946 2.09262 0
M  V30 39022 H 3834.79 4.13026 3.66216 0
M  V30 39023 H 3835.27 2.43403 3.65584 0
M  V30 39024 H 3835.88 3.52116 2.38525 0
M  V30 39025 N 3834.19 -0.601133 1.45685 0
M  V30 39026 C 3835.44 -1.36197 1.50261 0
M  V30 39027 C 3835.77 -1.93647 0.146392 0
M  V30 39028 O 3835.05 -1.75428 -0.839954 0
M  V30 39029 C 3835.33 -2.50508 2.58684 0
M  V30 39030 C 3835.18 -1.98212 4.03772 0
M  V30 39031 C 3836.5 -3.5262 2.63339 0
M  V30 39032 H 3833.62 -0.493863 0.547054 0
M  V30 39033 H 3836.26 -0.677037 1.77528 0
M  V30 39034 H 3834.41 -3.08936 2.35564 0
M  V30 39035 H 3836.08 -1.44384 4.38122 0
M  V30 39036 H 3834.33 -1.29167 4.14124 0
M  V30 39037 H 3835 -2.80645 4.75334 0
M  V30 39038 H 3837.47 -3.04043 2.84072 0
M  V30 39039 H 3836.35 -4.30085 3.41054 0
M  V30 39040 H 3836.61 -4.08658 1.68676 0
M  V30 39041 N 3835.67 -1.33083 -0.844196 0
M  V30 39042 C 3836.6 -1.1723 -1.95787 0
M  V30 39043 C 3837.58 -0.0691007 -1.62453 0
M  V30 39044 O 3838.76 -0.230354 -1.87087 0
M  V30 39045 C 3835.89 -0.796905 -3.29192 0
M  V30 39046 C 3834.94 -1.90684 -3.81499 0
M  V30 39047 S 3835.77 -3.51693 -4.03822 0
M  V30 39048 C 3836.93 -3.16149 -5.40186 0
M  V30 39049 H 3837.16 -2.11504 -2.08934 0
M  V30 39050 H 3834.69 -1.17864 -0.997369 0
M  V30 39051 H 3836.65 -0.587089 -4.0628 0
M  V30 39052 H 3835.31 0.127144 -3.13843 0
M  V30 39053 H 3834.5 -1.59742 -4.78015 0
M  V30 39054 H 3834.11 -2.07305 -3.11289 0
M  V30 39055 H 3836.4 -2.66643 -6.22823 0
M  V30 39056 H 3837.34 -4.11725 -5.76097 0
M  V30 39057 H 3837.75 -2.52887 -5.04686 0
M  V30 39058 N 3837.15 1.06178 -1.16464 0
M  V30 39059 C 3838.4 1.78386 -0.941353 0
M  V30 39060 C 3838.71 1.88227 0.531962 0
M  V30 39061 O 3839.92 2.57075 0.873182 0
M  V30 39062 C 3838.37 3.2062 -1.63496 0
M  V30 39063 C 3837.98 3.18941 -3.14612 0
M  V30 39064 C 3839.72 3.97353 -1.49368 0
M  V30 39065 C 3837.63 4.55902 -3.76706 0
M  V30 39066 H 3836.56 0.668597 -0.34856 0
M  V30 39067 H 3839.21 1.19086 -1.39609 0
M  V30 39068 H 3837.59 3.80185 -1.10793 0
M  V30 39069 H 3838.77 2.68951 -3.74168 0
M  V30 39070 H 3837.08 2.55706 -3.28639 0
M  V30 39071 H 3839.68 4.98599 -1.9314 0
M  V30 39072 H 3840.02 4.13938 -0.442797 0
M  V30 39073 H 3840.56 3.44312 -1.99233 0
M  V30 39074 H 3837.29 4.44521 -4.81748 0
M  V30 39075 H 3836.81 5.06081 -3.21936 0
M  V30 39076 H 3838.49 5.24857 -3.7833 0
M  V30 39077 N 3838.63 0.96331 1.24732 0
M  V30 39078 C 3839.9 0.539843 1.88003 0
M  V30 39079 C 3840.28 -0.983003 1.86816 0
M  V30 39080 O 3839.63 -1.85249 1.33772 0
M  V30 39081 C 3839.84 1.12636 3.30324 0
M  V30 39082 C 3841.19 1.20855 4.07037 0
M  V30 39083 O 3842.21 1.07855 3.39479 0
M  V30 39084 O 3841.07 1.41351 5.27903 0
M  V30 39085 H 3838.17 0.179364 0.807315 0
M  V30 39086 H 3840.71 1.0573 1.32738 0
M  V30 39087 H 3839.48 2.16931 3.25664 0
M  V30 39088 H 3839.11 0.592683 3.93158 0
M  V30 39089 N 3840.1 -1.39522 0.732902 0
M  V30 39090 C 3841.35 -2.00853 0.280341 0
M  V30 39091 C 3841.68 -1.58019 -1.12888 0
M  V30 39092 O 3840.96 -0.808117 -1.76917 0
M  V30 39093 C 3841.24 -3.58091 0.379843 0
M  V30 39094 C 3841.09 -4.10949 1.82868 0
M  V30 39095 C 3842.41 -4.39451 -0.238949 0
M  V30 39096 H 3839.53 -0.729719 0.103339 0
M  V30 39097 H 3842.17 -1.65758 0.928663 0
M  V30 39098 H 3840.32 -3.88118 -0.17213 0
M  V30 39099 H 3842 -3.9165 2.43737 0
M  V30 39100 H 3840.24 -3.64588 2.3507 0
M  V30 39101 H 3840.91 -5.20091 1.84958 0
M  V30 39102 H 3843.39 -4.15455 0.231561 0
M  V30 39103 H 3842.26 -5.48724 -0.138971 0
M  V30 39104 H 3842.52 -4.21786 -1.32473 0
M  V30 39105 N 3841.58 -0.480375 -1.501 0
M  V30 39106 C 3842.82 0.070023 -2.0428 0
M  V30 39107 C 3843.19 1.36153 -1.35375 0
M  V30 39108 O 3844.39 1.99488 -1.8016 0
M  V30 39109 C 3842.66 0.240222 -3.56592 0
M  V30 39110 S 3844.22 0.74784 -4.3238 0
M  V30 39111 H 3841.03 0.0115636 -0.710906 0
M  V30 39112 H 3843.64 -0.649636 -1.84391 0
M  V30 39113 H 3842.34 -0.705386 -4.04293 0
M  V30 39114 H 3841.87 0.985725 -3.8085 0
M  V30 39115 H 3843.89 2.01997 -4.53223 0
M  V30 39116 N 3843.06 1.56149 -0.213351 0
M  V30 39117 C 3844.29 2.02474 0.425653 0
M  V30 39118 C 3844.7 1.09329 1.53924 0
M  V30 39119 O 3844.06 0.101396 1.82218 0
M  V30 39120 C 3844.11 3.48383 0.96496 0
M  V30 39121 O 3843.83 4.37976 -0.104222 0
M  V30 39122 C 3845.33 4.10314 1.67803 0
M  V30 39123 H 3842.55 0.662725 0.105053 0
M  V30 39124 H 3845.1 2.01862 -0.327404 0
M  V30 39125 H 3843.25 3.49637 1.66832 0
M  V30 39126 H 3843.67 5.23642 0.299893 0
M  V30 39127 H 3845.14 5.14203 2.00748 0
M  V30 39128 H 3845.62 3.54832 2.58826 0
M  V30 39129 H 3846.22 4.12886 1.02007 0
M  V30 39130 N 3844.54 -0.0601128 1.57485 0
M  V30 39131 C 3845.77 -0.769647 1.92052 0
M  V30 39132 C 3846.18 -1.70523 0.810394 0
M  V30 39133 O 3845.54 -1.81223 -0.215495 0
M  V30 39134 C 3845.59 -1.55334 3.26426 0
M  V30 39135 O 3845.31 -0.655346 4.33171 0
M  V30 39136 C 3846.81 -2.36283 3.75081 0
M  V30 39137 H 3844.03 -0.218164 0.634544 0
M  V30 39138 H 3846.58 -0.0268948 2.04482 0
M  V30 39139 H 3844.73 -2.24826 3.15487 0
M  V30 39140 H 3845.14 -1.20162 5.1055 0
M  V30 39141 H 3846.62 -2.8671 4.717 0
M  V30 39142 H 3847.1 -3.16331 3.04683 0
M  V30 39143 H 3847.7 -1.71925 3.89001 0
M  V30 39144 N 3846.02 -1.54068 -0.331762 0
M  V30 39145 C 3847.26 -1.73602 -1.07897 0
M  V30 39146 C 3847.62 -0.494895 -1.85512 0
M  V30 39147 O 3848.82 -0.567438 -2.62742 0
M  V30 39148 C 3847.09 -2.97158 -1.98575 0
M  V30 39149 S 3848.65 -3.37557 -2.80359 0
M  V30 39150 H 3845.47 -0.610526 -0.364389 0
M  V30 39151 H 3848.07 -1.92232 -0.355955 0
M  V30 39152 H 3846.78 -3.85646 -1.40377 0
M  V30 39153 H 3846.31 -2.81027 -2.75295 0
M  V30 39154 H 3848.32 -2.92214 -4.01031 0
M  V30 39155 N 3847.49 0.593399 -1.46002 0
M  V30 39156 C 3848.91 0.915655 -1.30721 0
M  V30 39157 C 3849.11 1.99673 -0.270714 0
M  V30 39158 O 3848.17 2.50329 0.330438 0
M  V30 39159 C 3849.48 1.34313 -2.69036 0
M  V30 39160 C 3851.03 1.45657 -2.77043 0
M  V30 39161 C 3851.5 1.91775 -4.15916 0
M  V30 39162 N 3852.99 1.98986 -4.18281 0
M  V30 39163 C 3853.73 2.35923 -5.22617 0
M  V30 39164 N 3853.22 2.71727 -6.37288 0
M  V30 39165 N 3855.02 2.36385 -5.09979 0
M  V30 39166 H 3847.17 -0.120919 -2.12056 0
M  V30 39167 H 3849.43 0.00856908 -0.947961 0
M  V30 39168 H 3849.14 0.622861 -3.46141 0
M  V30 39169 H 3849.01 2.30683 -2.98438 0
M  V30 39170 H 3851.4 2.16773 -2.00234 0
M  V30 39171 H 3851.48 0.475662 -2.51339 0
M  V30 39172 H 3851.12 1.21242 -4.93217 0
M  V30 39173 H 3851.05 2.90805 -4.39021 0
M  V30 39174 H 3853.54 1.73849 -3.35537 0
M  V30 39175 H 3853.86 2.98834 -7.12684 0
M  V30 39176 H 3852.2 2.6939 -6.40667 0
M  V30 39177 H 3855.39 2.07829 -4.19434 0
M  V30 39178 H 3855.57 2.64844 -5.91407 0
M  V30 39179 N 3848.97 1.33529 0.837127 0
M  V30 39180 C 3850.21 1.26418 1.60617 0
M  V30 39181 C 3850.58 -0.167186 1.91271 0
M  V30 39182 O 3851.78 -0.362276 2.66348 0
M  V30 39183 C 3850.05 2.1166 2.87984 0
M  V30 39184 S 3851.61 2.21757 3.78641 0
M  V30 39185 H 3848.43 0.449728 0.550696 0
M  V30 39186 H 3851.03 1.68582 0.989975 0
M  V30 39187 H 3849.73 3.14687 2.63439 0
M  V30 39188 H 3849.26 1.7034 3.54609 0
M  V30 39189 H 3851.28 1.37992 4.76626 0
M  V30 39190 N 3850.45 -1.05559 1.17026 0
M  V30 39191 C 3851.38 -2.12685 0.827057 0
M  V30 39192 C 3852.36 -1.61308 -0.204544 0
M  V30 39193 O 3853.55 -1.88299 -0.0869247 0
M  V30 39194 C 3850.67 -3.37897 0.233077 0
M  V30 39195 C 3849.72 -4.08092 1.23947 0
M  V30 39196 S 3850.55 -4.57122 2.78926 0
M  V30 39197 C 3851.71 -5.85586 2.20998 0
M  V30 39198 H 3851.94 -2.41469 1.73435 0
M  V30 39199 H 3849.47 -1.18105 0.994518 0
M  V30 39200 H 3851.43 -4.1037 -0.103149 0
M  V30 39201 H 3850.09 -3.07256 -0.6521 0
M  V30 39202 H 3849.29 -4.98045 0.772447 0
M  V30 39203 H 3848.89 -3.41667 1.52116 0
M  V30 39204 H 3851.18 -6.58741 1.58324 0
M  V30 39205 H 3852.12 -6.3703 3.09191 0
M  V30 39206 H 3852.53 -5.39972 1.64592 0
M  V30 39207 N 3851.93 -0.969911 -1.2422 0
M  V30 39208 C 3853.17 -0.633947 -1.92637 0
M  V30 39209 C 3853.51 0.829061 -1.75614 0
M  V30 39210 O 3852.78 1.59675 -1.11059 0
M  V30 39211 C 3853.07 -1.01219 -3.45582 0
M  V30 39212 C 3852.92 -2.53206 -3.71762 0
M  V30 39213 C 3854.24 -0.548371 -4.3667 0
M  V30 39214 H 3851.36 -0.231784 -0.699604 0
M  V30 39215 H 3854 -1.20931 -1.46546 0
M  V30 39216 H 3852.15 -0.522599 -3.84969 0
M  V30 39217 H 3853.82 -3.09659 -3.4192 0
M  V30 39218 H 3852.06 -2.96306 -3.16837 0
M  V30 39219 H 3852.73 -2.74721 -4.78782 0
M  V30 39220 H 3855.21 -0.96856 -4.0467 0
M  V30 39221 H 3854.09 -0.841568 -5.4241 0
M  V30 39222 H 3854.35 0.551511 -4.38647 0
M  V30 39223 N 3853.41 1.39131 -0.740291 0
M  V30 39224 C 3854.34 2.2911 -0.0641273 0
M  V30 39225 C 3855.35 1.47084 0.697871 0
M  V30 39226 O 3856.54 1.70099 0.541159 0
M  V30 39227 C 3853.64 3.25794 0.933369 0
M  V30 39228 C 3852.81 4.36785 0.23179 0
M  V30 39229 C 3851.87 5.13744 1.13814 0
M  V30 39230 O 3850.9 5.65883 0.613641 0
M  V30 39231 N 3852.1 5.25451 2.46742 0
M  V30 39232 H 3854.87 2.8778 -0.836824 0
M  V30 39233 H 3852.43 1.50769 -0.589955 0
M  V30 39234 H 3854.42 3.74154 1.54243 0
M  V30 39235 H 3852.99 2.68117 1.60724 0
M  V30 39236 H 3852.21 3.90233 -0.557816 0
M  V30 39237 H 3853.5 5.08165 -0.254205 0
M  V30 39238 H 3852.89 4.84618 2.91825 0
M  V30 39239 H 3851.45 5.77232 3.02731 0
M  V30 39240 N 3854.88 0.488329 1.49844 0
M  V30 39241 C 3856.13 -0.0607524 2.02709 0
M  V30 39242 C 3856.46 -1.37809 1.3683 0
M  V30 39243 O 3855.74 -1.87971 0.499712 0
M  V30 39244 C 3856.02 -0.226574 3.59386 0
M  V30 39245 C 3855.87 1.11299 4.35812 0
M  V30 39246 C 3857.19 -0.973143 4.29206 0
M  V30 39247 H 3854.31 -0.0206048 0.736712 0
M  V30 39248 H 3856.95 0.637276 1.78994 0
M  V30 39249 H 3855.1 -0.821115 3.79724 0
M  V30 39250 H 3856.78 1.74544 4.27004 0
M  V30 39251 H 3855.02 1.70542 3.98871 0
M  V30 39252 H 3855.69 0.950414 5.43756 0
M  V30 39253 H 3858.17 -0.469033 4.13448 0
M  V30 39254 H 3857.04 -1.05799 5.38607 0
M  V30 39255 H 3857.3 -2.01387 3.93568 0
M  V30 39256 N 3856.36 -1.56034 0.221629 0
M  V30 39257 C 3857.61 -1.97913 -0.409242 0
M  V30 39258 C 3857.93 -1.11052 -1.60289 0
M  V30 39259 O 3857.2 -0.187563 -1.95 0
M  V30 39260 H 3855.78 -0.730914 -0.154189 0
M  V30 39261 H 3858.44 -1.92345 0.314542 0
M  V30 39262 H 3857.54 -3.03309 -0.735517 0
M  V30 39263 N 3857.84 0.0517601 -1.57515 0
M  V30 39264 C 3859.09 0.748173 -1.88495 0
M  V30 39265 C 3859.42 1.762 -0.816525 0
M  V30 39266 O 3858.69 1.93746 0.17104 0
M  V30 39267 C 3858.98 1.43819 -3.30133 0
M  V30 39268 C 3858.83 0.439421 -4.47648 0
M  V30 39269 C 3860.15 2.37806 -3.70319 0
M  V30 39270 H 3857.27 0.270525 -0.685555 0
M  V30 39271 H 3859.91 0.0111123 -1.89997 0
M  V30 39272 H 3858.06 2.06645 -3.28983 0
M  V30 39273 H 3859.73 -0.185169 -4.60928 0
M  V30 39274 H 3857.98 -0.243457 -4.33116 0
M  V30 39275 H 3858.65 0.960254 -5.43584 0
M  V30 39276 H 3861.12 1.85043 -3.72691 0
M  V30 39277 H 3860 2.83079 -4.70274 0
M  V30 39278 H 3860.26 3.23495 -3.01336 0
M  V30 39279 N 3859.32 1.54242 0.323587 0
M  V30 39280 C 3860.57 1.71659 1.05906 0
M  V30 39281 C 3860.88 0.497184 1.89176 0
M  V30 39282 O 3862.09 0.552696 2.65815 0
M  V30 39283 C 3860.54 3.03622 1.93241 0
M  V30 39284 C 3860.15 4.32967 1.15082 0
M  V30 39285 C 3861.9 3.30402 2.66524 0
M  V30 39286 C 3859.8 5.55991 2.01563 0
M  V30 39287 H 3858.73 0.639713 0.399103 0
M  V30 39288 H 3861.38 1.80736 0.317306 0
M  V30 39289 H 3859.77 2.88452 2.71314 0
M  V30 39290 H 3860.94 4.58902 0.417796 0
M  V30 39291 H 3859.25 4.12951 0.53481 0
M  V30 39292 H 3861.85 4.1951 3.31535 0
M  V30 39293 H 3862.19 2.4828 3.3416 0
M  V30 39294 H 3862.73 3.46439 1.95512 0
M  V30 39295 H 3859.47 6.40715 1.38435 0
M  V30 39296 H 3858.99 5.34275 2.72599 0
M  V30 39297 H 3860.67 5.92395 2.60149 0
M  V30 39298 N 3860.8 -0.585648 1.46314 0
M  V30 39299 C 3862.02 -1.37493 1.55275 0
M  V30 39300 C 3862.45 -1.87102 0.193514 0
M  V30 39301 O 3861.81 -1.61399 -0.825831 0
M  V30 39302 C 3861.85 -2.54047 2.55915 0
M  V30 39303 O 3860.96 -3.55391 2.09215 0
M  V30 39304 H 3860.3 -0.409589 0.522621 0
M  V30 39305 H 3862.83 -0.710663 1.91861 0
M  V30 39306 H 3862.84 -3.01003 2.75429 0
M  V30 39307 H 3861.51 -2.17292 3.54622 0
M  V30 39308 H 3860.09 -3.14935 1.99676 0
M  V30 39309 N 3862.28 -1.33971 -0.830033 0
M  V30 39310 C 3863.52 -1.25678 -1.5827 0
M  V30 39311 C 3863.84 0.175037 -1.94213 0
M  V30 39312 O 3863.11 1.10595 -1.61696 0
M  V30 39313 H 3861.69 -0.462186 -0.58685 0
M  V30 39314 H 3864.36 -1.67797 -0.991466 0
M  V30 39315 H 3863.45 -1.85662 -2.5087 0
M  V30 39316 N 3863.75 1.04937 -1.17584 0
M  V30 39317 C 3865 1.77984 -0.965809 0
M  V30 39318 C 3865.33 1.87821 0.505333 0
M  V30 39319 O 3864.58 1.37628 1.3913 0
M  V30 39320 C 3864.88 3.21793 -1.55512 0
M  V30 39321 C 3864.55 3.32009 -3.05091 0
M  V30 39322 C 3863.21 3.34504 -3.45919 0
M  V30 39323 C 3865.56 3.32817 -4.01102 0
M  V30 39324 C 3862.89 3.35439 -4.8135 0
M  V30 39325 C 3865.24 3.3529 -5.36436 0
M  V30 39326 C 3863.91 3.36074 -5.76724 0
M  V30 39327 H 3863.18 0.65129 -0.353415 0
M  V30 39328 H 3865.82 1.23313 -1.46514 0
M  V30 39329 H 3864.13 3.79408 -0.977576 0
M  V30 39330 H 3865.83 3.76939 -1.36814 0
M  V30 39331 H 3862.42 3.30782 -2.72546 0
M  V30 39332 H 3866.6 3.30087 -3.70616 0
M  V30 39333 H 3861.86 3.34357 -5.11874 0
M  V30 39334 H 3866.03 3.34864 -6.10606 0
M  V30 39335 H 3863.66 3.36551 -6.81643 0
M  V30 39336 N 3865.23 0.976485 1.23703 0
M  V30 39337 C 3866.18 0.513195 2.25022 0
M  V30 39338 C 3867.15 -0.445875 1.60004 0
M  V30 39339 O 3868.33 -0.35429 1.87482 0
M  V30 39340 C 3865.47 -0.182027 3.4462 0
M  V30 39341 C 3864.59 0.816843 4.24207 0
M  V30 39342 C 3863.72 0.0968289 5.31112 0
M  V30 39343 C 3862.76 1.08518 6.02404 0
M  V30 39344 N 3861.9 0.394578 7.0099 0
M  V30 39345 H 3866.74 1.38199 2.64017 0
M  V30 39346 H 3864.27 0.692588 1.29775 0
M  V30 39347 H 3866.23 -0.601876 4.12836 0
M  V30 39348 H 3864.86 -1.01472 3.06436 0
M  V30 39349 H 3863.91 1.3551 3.55445 0
M  V30 39350 H 3865.23 1.57014 4.73443 0
M  V30 39351 H 3864.38 -0.38058 6.05505 0
M  V30 39352 H 3863.12 -0.689102 4.82807 0
M  V30 39353 H 3862.12 1.57337 5.26806 0
M  V30 39354 H 3863.35 1.8717 6.52797 0
M  V30 39355 H 3861.3 -0.372216 6.54943 0
M  V30 39356 H 3861.21 1.0866 7.4815 0
M  V30 39357 H 3862.48 -0.0605717 7.79476 0
M  V30 39358 N 3866.71 -1.38737 0.747659 0
M  V30 39359 C 3867.64 -2.3313 0.131358 0
M  V30 39360 C 3868.62 -1.54564 -0.710202 0
M  V30 39361 O 3869.81 -1.82906 -0.652599 0
M  V30 39362 C 3866.94 -3.38722 -0.767108 0
M  V30 39363 C 3865.89 -4.2799 -0.0287371 0
M  V30 39364 C 3865.22 -5.24388 -1.04506 0
M  V30 39365 C 3866.52 -5.09793 1.13617 0
M  V30 39366 H 3868.21 -2.84919 0.91986 0
M  V30 39367 H 3865.76 -1.36991 0.443788 0
M  V30 39368 H 3867.71 -4.03718 -1.20789 0
M  V30 39369 H 3866.43 -2.85402 -1.58787 0
M  V30 39370 H 3865.09 -3.64492 0.392555 0
M  V30 39371 H 3864.74 -4.67358 -1.85972 0
M  V30 39372 H 3864.44 -5.84966 -0.55571 0
M  V30 39373 H 3865.96 -5.9226 -1.48528 0
M  V30 39374 H 3867.38 -5.68062 0.773229 0
M  V30 39375 H 3865.77 -5.79576 1.55599 0
M  V30 39376 H 3866.84 -4.43879 1.9519 0
M  V30 39377 N 3868.19 -0.496268 -1.49583 0
M  V30 39378 C 3869.1 0.289363 -2.32809 0
M  V30 39379 C 3870.11 0.971908 -1.44326 0
M  V30 39380 O 3871.29 0.954335 -1.77354 0
M  V30 39381 C 3868.35 1.34263 -3.19647 0
M  V30 39382 C 3867.42 0.674025 -4.23976 0
M  V30 39383 C 3866.65 1.67711 -5.06664 0
M  V30 39384 O 3866.87 2.90645 -4.90797 0
M  V30 39385 O 3865.81 1.23504 -5.89093 0
M  V30 39386 H 3869.63 -0.391717 -3.01163 0
M  V30 39387 H 3867.22 -0.257678 -1.47161 0
M  V30 39388 H 3869.1 1.95213 -3.73457 0
M  V30 39389 H 3867.77 2.00672 -2.53993 0
M  V30 39390 H 3866.68 0.0249074 -3.74092 0
M  V30 39391 H 3868.01 0.0524577 -4.92172 0
M  V30 39392 N 3869.67 1.55914 -0.2299 0
M  V30 39393 C 3870.91 2.00422 0.401275 0
M  V30 39394 C 3871.27 1.11433 1.56354 0
M  V30 39395 O 3872.47 1.45323 2.2613 0
M  V30 39396 C 3870.74 3.47939 0.816885 0
M  V30 39397 S 3872.3 4.14465 1.44099 0
M  V30 39398 H 3869.12 0.699564 0.127011 0
M  V30 39399 H 3871.72 1.925 -0.341148 0
M  V30 39400 H 3870.42 4.10382 -0.0385701 0
M  V30 39401 H 3869.96 3.59752 1.59191 0
M  V30 39402 H 3871.97 4.14344 2.73008 0
M  V30 39403 N 3871.14 -0.043406 1.5754 0
M  V30 39404 C 3872.56 -0.398792 1.54537 0
M  V30 39405 C 3872.76 -1.77481 0.954086 0
M  V30 39406 O 3871.82 -2.46008 0.568883 0
M  V30 39407 C 3873.13 -0.313796 2.99058 0
M  V30 39408 C 3874.68 -0.391925 3.10537 0
M  V30 39409 C 3875.15 -0.336534 4.56762 0
M  V30 39410 N 3876.64 -0.395763 4.61506 0
M  V30 39411 C 3877.38 -0.375568 5.72169 0
M  V30 39412 N 3876.87 -0.308508 6.92113 0
M  V30 39413 N 3878.67 -0.424237 5.60497 0
M  V30 39414 H 3870.82 0.857259 1.94332 0
M  V30 39415 H 3873.08 0.324581 0.890702 0
M  V30 39416 H 3872.79 0.63122 3.45989 0
M  V30 39417 H 3872.66 -1.11306 3.60404 0
M  V30 39418 H 3875.05 -1.32737 2.63562 0
M  V30 39419 H 3875.13 0.436435 2.52049 0
M  V30 39420 H 3874.77 0.595181 5.04401 0
M  V30 39421 H 3874.7 -1.18281 5.13144 0
M  V30 39422 H 3877.19 -0.450687 3.75203 0
M  V30 39423 H 3877.51 -0.297805 7.72226 0
M  V30 39424 H 3875.85 -0.274769 6.94457 0
M  V30 39425 H 3879.04 -0.474517 4.65689 0
M  V30 39426 H 3879.22 -0.40503 6.46733 0
M  V30 39427 N 3872.62 -1.54412 -0.315402 0
M  V30 39428 C 3873.57 -1.84364 -1.38847 0
M  V30 39429 C 3874.54 -0.691376 -1.51027 0
M  V30 39430 O 3875.72 -0.938606 -1.66117 0
M  V30 39431 C 3872.86 -2.08384 -2.75082 0
M  V30 39432 C 3871.98 -3.3605 -2.71467 0
M  V30 39433 C 3871.11 -3.49988 -3.99602 0
M  V30 39434 C 3870.15 -4.71499 -3.90327 0
M  V30 39435 N 3869.29 -4.8232 -5.10208 0
M  V30 39436 H 3874.13 -2.75907 -1.12604 0
M  V30 39437 H 3871.66 -1.36634 -0.544926 0
M  V30 39438 H 3873.62 -2.20304 -3.54291 0
M  V30 39439 H 3872.25 -1.20125 -2.99616 0
M  V30 39440 H 3871.3 -3.32826 -1.84203 0
M  V30 39441 H 3872.62 -4.25372 -2.60499 0
M  V30 39442 H 3871.77 -3.61494 -4.87244 0
M  V30 39443 H 3870.51 -2.58773 -4.13386 0
M  V30 39444 H 3869.51 -4.60041 -3.01069 0
M  V30 39445 H 3870.74 -5.64107 -3.78101 0
M  V30 39446 H 3868.69 -3.94023 -5.24483 0
M  V30 39447 H 3868.6 -5.6562 -5.01607 0
M  V30 39448 H 3869.87 -4.98166 -5.99542 0
M  V30 39449 N 3874.1 0.57788 -1.46623 0
M  V30 39450 C 3875.33 1.36183 -1.55762 0
M  V30 39451 C 3875.74 1.87733 -0.200436 0
M  V30 39452 O 3875.1 1.63882 0.803062 0
M  V30 39453 C 3875.15 2.54603 -2.56631 0
M  V30 39454 O 3874.87 2.05188 -3.87078 0
M  V30 39455 C 3876.37 3.47092 -2.75757 0
M  V30 39456 H 3873.59 0.415857 -0.526597 0
M  V30 39457 H 3876.14 0.702057 -1.92071 0
M  V30 39458 H 3874.29 3.1656 -2.23312 0
M  V30 39459 H 3874.71 2.82345 -4.4202 0
M  V30 39460 H 3876.18 4.26653 -3.50245 0
M  V30 39461 H 3876.66 3.99334 -1.82836 0
M  V30 39462 H 3877.26 2.90967 -3.1019 0
M  V30 39463 N 3875.58 1.34409 0.822917 0
M  V30 39464 C 3876.81 1.29843 1.61085 0
M  V30 39465 C 3877.22 -0.127494 1.88369 0
M  V30 39466 O 3876.58 -1.07457 1.4751 0
M  V30 39467 C 3876.63 2.08694 2.95176 0
M  V30 39468 O 3876.35 3.45726 2.69083 0
M  V30 39469 C 3877.85 2.11525 3.89579 0
M  V30 39470 H 3875.07 0.446679 0.500718 0
M  V30 39471 H 3877.62 1.77023 1.02388 0
M  V30 39472 H 3875.77 1.65156 3.50431 0
M  V30 39473 H 3876.18 3.86485 3.54583 0
M  V30 39474 H 3877.66 2.7112 4.80831 0
M  V30 39475 H 3878.14 1.10965 4.24951 0
M  V30 39476 H 3878.74 2.55152 3.40261 0
M  V30 39477 N 3877.06 -1.04312 1.18139 0
M  V30 39478 C 3878.3 -1.79036 0.986176 0
M  V30 39479 C 3878.66 -1.86006 -0.47599 0
M  V30 39480 O 3879.86 -2.56911 -0.790566 0
M  V30 39481 C 3878.13 -3.18569 1.62013 0
M  V30 39482 S 3879.69 -4.09662 1.57234 0
M  V30 39483 H 3876.51 -0.616497 0.354192 0
M  V30 39484 H 3879.11 -1.25093 1.5024 0
M  V30 39485 H 3877.82 -3.11104 2.67661 0
M  V30 39486 H 3877.35 -3.77589 1.1041 0
M  V30 39487 H 3879.36 -4.92722 0.586505 0
M  V30 39488 N 3878.53 -0.983032 -1.23184 0
M  V30 39489 C 3879.48 -0.517886 -2.26761 0
M  V30 39490 C 3880.48 0.426431 -1.63945 0
M  V30 39491 O 3881.68 0.300034 -1.77482 0
M  V30 39492 H 3878.06 -0.149055 -0.73708 0
M  V30 39493 H 3880.03 -1.40312 -2.63354 0
M  V30 39494 C 3878.78 0.161509 -3.47325 0
M  V30 39495 H 3878.1 -0.556043 -3.95914 0
M  V30 39496 H 3879.54 0.450569 -4.21599 0
M  V30 39497 C 3878 1.39361 -3.06725 0
M  V30 39498 O 3878.53 2.48967 -3.15243 0
M  V30 39499 N 3876.74 1.26523 -2.61611 0
M  V30 39500 H 3876.28 0.373404 -2.54879 0
M  V30 39501 H 3876.24 2.0907 -2.34813 0
M  V30 39502 N 3880.01 1.38338 -0.755006 0
M  V30 39503 C 3881.42 1.82806 -0.379308 0
M  V30 39504 C 3881.77 1.62986 1.09225 0
M  V30 39505 O 3880.9 1.13181 1.84443 0
M  V30 39506 C 3881.49 3.31871 -0.681686 0
M  V30 39507 C 3880.05 3.74682 -0.359249 0
M  V30 39508 C 3879.2 2.61092 -0.934136 0
M  V30 39509 H 3882.15 1.27047 -0.951042 0
M  V30 39510 H 3882.17 3.80479 0.0396134 0
M  V30 39511 H 3881.68 3.46265 -1.75277 0
M  V30 39512 H 3879.79 3.65866 0.705192 0
M  V30 39513 H 3879.9 4.71395 -0.855793 0
M  V30 39514 H 3878.26 2.52151 -0.359423 0
M  V30 39515 H 3879.05 2.78285 -2.01028 0
M  V30 39516 N 3881.49 0.504194 1.49317 0
M  V30 39517 C 3882.73 -0.037515 2.04366 0
M  V30 39518 C 3883.09 -1.33982 1.37524 0
M  V30 39519 O 3884.3 -1.96597 1.83311 0
M  V30 39520 C 3882.57 -0.183461 3.56929 0
M  V30 39521 S 3884.13 -0.678958 4.33515 0
M  V30 39522 H 3880.94 -0.00025222 0.711 0
M  V30 39523 H 3883.55 0.678889 1.83334 0
M  V30 39524 H 3882.25 0.769616 4.03119 0
M  V30 39525 H 3881.78 -0.925011 3.8237 0
M  V30 39526 H 3883.8 -1.94762 4.5638 0
M  V30 39527 N 3882.97 -1.5579 0.238166 0
M  V30 39528 C 3884.38 -1.84786 -0.266623 0
M  V30 39529 C 3884.73 -1.15986 -1.58246 0
M  V30 39530 O 3883.86 -0.435217 -2.11978 0
M  V30 39531 C 3884.45 -3.3523 -0.490541 0
M  V30 39532 C 3883.01 -3.64484 -0.939608 0
M  V30 39533 C 3882.16 -2.77297 -0.0119195 0
M  V30 39534 H 3885.11 -1.51858 0.460951 0
M  V30 39535 H 3885.13 -3.56336 -1.33434 0
M  V30 39536 H 3884.64 -3.85276 0.467306 0
M  V30 39537 H 3882.74 -3.19908 -1.91023 0
M  V30 39538 H 3882.85 -4.72331 -0.802517 0
M  V30 39539 H 3881.22 -2.49299 -0.521723 0
M  V30 39540 H 3882 -3.30148 0.941143 0
M  V30 39541 N 3884.45 0.0350506 -1.57561 0
M  V30 39542 C 3885.38 1.03713 -2.09203 0
M  V30 39543 C 3886.36 1.38089 -0.993255 0
M  V30 39544 O 3887.54 1.47077 -1.26815 0
M  V30 39545 C 3884.67 2.33986 -2.56648 0
M  V30 39546 C 3883.63 2.13868 -3.70735 0
M  V30 39547 C 3882.95 3.49848 -4.04364 0
M  V30 39548 C 3884.25 1.52973 -4.99396 0
M  V30 39549 H 3885.95 0.607258 -2.93177 0
M  V30 39550 H 3883.49 0.290658 -1.41036 0
M  V30 39551 H 3885.45 3.04412 -2.91395 0
M  V30 39552 H 3884.17 2.79021 -1.69749 0
M  V30 39553 H 3882.83 1.45875 -3.36327 0
M  V30 39554 H 3882.48 3.92521 -3.14541 0
M  V30 39555 H 3882.18 3.37215 -4.81207 0
M  V30 39556 H 3883.7 4.21647 -4.41641 0
M  V30 39557 H 3885.11 2.1331 -5.32139 0
M  V30 39558 H 3883.51 1.50932 -5.80809 0
M  V30 39559 H 3884.58 0.494909 -4.82368 0
M  V30 39560 N 3885.92 1.54577 0.307209 0
M  V30 39561 C 3887.17 1.7322 1.04112 0
M  V30 39562 C 3887.49 0.517515 1.88007 0
M  V30 39563 O 3886.76 -0.468303 1.9022 0
M  V30 39564 H 3885.34 0.638708 0.387377 0
M  V30 39565 H 3888.01 1.91917 0.339693 0
M  V30 39566 H 3887.1 2.6188 1.69779 0
M  V30 39567 N 3887.4 -0.570096 1.46927 0
M  V30 39568 C 3888.63 -1.35159 1.56255 0
M  V30 39569 C 3889.04 -1.88063 0.207074 0
M  V30 39570 O 3888.38 -1.64984 -0.807842 0
M  V30 39571 C 3888.45 -2.56667 2.51719 0
M  V30 39572 C 3888.11 -2.2514 3.97695 0
M  V30 39573 C 3889.11 -1.8321 4.86549 0
M  V30 39574 C 3886.79 -2.36896 4.42929 0
M  V30 39575 C 3888.79 -1.53448 6.18654 0
M  V30 39576 C 3886.47 -2.06746 5.75064 0
M  V30 39577 C 3887.47 -1.65089 6.62748 0
M  V30 39578 O 3887.16 -1.35316 7.9243 0
M  V30 39579 H 3886.89 -0.418795 0.530648 0
M  V30 39580 H 3889.44 -0.698771 1.93149 0
M  V30 39581 H 3887.67 -3.24796 2.09868 0
M  V30 39582 H 3889.36 -3.1874 2.51315 0
M  V30 39583 H 3890.13 -1.73632 4.52854 0
M  V30 39584 H 3886.01 -2.68281 3.74895 0
M  V30 39585 H 3889.55 -1.2086 6.87051 0
M  V30 39586 H 3885.45 -2.15953 6.08305 0
M  V30 39587 H 3886.22 -1.49055 8.04814 0
M  V30 39588 N 3888.88 -1.34844 -0.815777 0
M  V30 39589 C 3889.83 -1.27009 -1.9271 0
M  V30 39590 C 3890.8 -0.143867 -1.65476 0
M  V30 39591 O 3891.98 -0.32604 -1.87994 0
M  V30 39592 C 3889.12 -1.03869 -3.29098 0
M  V30 39593 C 3888.24 -2.2533 -3.68579 0
M  V30 39594 C 3887.37 -1.95415 -4.9395 0
M  V30 39595 C 3886.41 -3.12981 -5.26032 0
M  V30 39596 N 3885.55 -2.82902 -6.42581 0
M  V30 39597 H 3890.39 -2.22047 -1.98743 0
M  V30 39598 H 3887.92 -1.10389 -0.972245 0
M  V30 39599 H 3889.88 -0.884881 -4.07708 0
M  V30 39600 H 3888.51 -0.124967 -3.22558 0
M  V30 39601 H 3887.56 -2.51608 -2.85303 0
M  V30 39602 H 3888.88 -3.13147 -3.88253 0
M  V30 39603 H 3888.03 -1.76812 -5.80364 0
M  V30 39604 H 3886.77 -1.0487 -4.76291 0
M  V30 39605 H 3885.77 -3.32172 -4.38111 0
M  V30 39606 H 3887 -4.04314 -5.45625 0
M  V30 39607 H 3884.95 -1.94941 -6.26366 0
M  V30 39608 H 3884.86 -3.64251 -6.62463 0
M  V30 39609 H 3886.13 -2.67818 -7.32048 0
M  V30 39610 N 3890.36 1.03684 -1.1869 0
M  V30 39611 C 3891.27 2.15271 -0.932511 0
M  V30 39612 C 3892.29 1.73685 0.10472 0
M  V30 39613 O 3893.46 2.01249 -0.0780824 0
M  V30 39614 C 3890.53 3.43556 -0.465867 0
M  V30 39615 C 3889.59 3.99502 -1.57153 0
M  V30 39616 C 3888.82 5.21664 -1.12705 0
M  V30 39617 O 3889.04 5.70399 0.0126654 0
M  V30 39618 O 3887.98 5.70241 -1.92637 0
M  V30 39619 H 3891.8 2.39589 -1.8663 0
M  V30 39620 H 3889.39 1.13709 -0.969049 0
M  V30 39621 H 3891.27 4.20857 -0.213893 0
M  V30 39622 H 3889.95 3.20701 0.439583 0
M  V30 39623 H 3888.85 3.23571 -1.87756 0
M  V30 39624 H 3890.19 4.26705 -2.45324 0
M  V30 39625 N 3891.84 0.989551 1.22661 0
M  V30 39626 C 3892.75 0.545875 2.28161 0
M  V30 39627 C 3893.76 -0.403732 1.69251 0
M  V30 39628 O 3894.94 -0.271392 1.99563 0
M  V30 39629 C 3892 -0.135747 3.46434 0
M  V30 39630 C 3891.07 0.856404 4.20671 0
M  V30 39631 C 3890.3 0.207215 5.33298 0
M  V30 39632 O 3890.52 -0.999651 5.61572 0
M  V30 39633 O 3889.46 0.910393 5.94975 0
M  V30 39634 H 3893.28 1.42349 2.68273 0
M  V30 39635 H 3890.87 0.757632 1.28765 0
M  V30 39636 H 3892.75 -0.517702 4.18208 0
M  V30 39637 H 3891.42 -0.987981 3.08254 0
M  V30 39638 H 3890.33 1.28923 3.51183 0
M  V30 39639 H 3891.66 1.67773 4.62723 0
M  V30 39640 N 3893.32 -1.37936 0.762332 0
M  V30 39641 C 3894.26 -2.32237 0.129938 0
M  V30 39642 C 3895.26 -1.54462 -0.69555 0
M  V30 39643 O 3896.46 -1.69928 -0.593667 0
M  V30 39644 H 3892.84 -0.751641 0.0232272 0
M  V30 39645 H 3894.81 -2.83168 0.941193 0
M  V30 39646 C 3893.56 -3.39687 -0.742175 0
M  V30 39647 H 3892.88 -3.99631 -0.116357 0
M  V30 39648 H 3894.32 -4.08056 -1.1518 0
M  V30 39649 C 3892.78 -2.78983 -1.88865 0
M  V30 39650 O 3893.31 -2.68984 -2.98346 0
M  V30 39651 N 3891.52 -2.36664 -1.68638 0
M  V30 39652 H 3891.06 -2.44996 -0.795902 0
M  V30 39653 H 3891.02 -1.96391 -2.45515 0
M  V30 39654 N 3894.79 -0.512106 -1.49048 0
M  V30 39655 C 3895.74 0.27395 -2.30981 0
M  V30 39656 C 3896.74 0.952378 -1.40093 0
M  V30 39657 O 3897.94 0.8788 -1.57089 0
M  V30 39658 H 3894.32 0.107208 -0.744319 0
M  V30 39659 H 3896.29 -0.436918 -2.95184 0
M  V30 39660 C 3895.04 1.31886 -3.21716 0
M  V30 39661 H 3894.36 0.806233 -3.91586 0
M  V30 39662 H 3895.8 1.84063 -3.81964 0
M  V30 39663 C 3894.26 2.34298 -2.42086 0
M  V30 39664 O 3894.79 3.40397 -2.13291 0
M  V30 39665 N 3892.99 2.07052 -2.03907 0
M  V30 39666 H 3892.54 1.2079 -2.27525 0
M  V30 39667 H 3892.5 2.758 -1.50937 0
M  V30 39668 N 3896.27 1.55662 -0.246424 0
M  V30 39669 C 3897.5 2.03332 0.382609 0
M  V30 39670 C 3897.91 1.12569 1.51571 0
M  V30 39671 O 3897.27 0.140024 1.81962 0
M  V30 39672 C 3897.32 3.50352 0.890845 0
M  V30 39673 O 3897.04 4.37656 -0.1971 0
M  V30 39674 C 3898.54 4.13781 1.59061 0
M  V30 39675 H 3895.76 0.664805 0.0909717 0
M  V30 39676 H 3898.31 2.01122 -0.370148 0
M  V30 39677 H 3896.46 3.53097 1.59378 0
M  V30 39678 H 3896.88 5.2416 0.188754 0
M  V30 39679 H 3898.35 5.18345 1.89796 0
M  V30 39680 H 3898.83 3.60242 2.51242 0
M  V30 39681 H 3899.43 4.14957 0.93226 0
M  V30 39682 N 3897.75 -0.0266943 1.57577 0
M  V30 39683 C 3899 -0.715612 1.89006 0
M  V30 39684 C 3899.32 -1.75769 0.844419 0
M  V30 39685 O 3898.59 -1.95522 -0.121659 0
M  V30 39686 H 3897.17 -0.267296 0.69754 0
M  V30 39687 H 3899.83 0.00791522 1.94898 0
M  V30 39688 H 3898.93 -1.20369 2.87954 0
M  V30 39689 N 3899.23 -1.54738 -0.299007 0
M  V30 39690 C 3900.14 -1.88886 -1.39137 0
M  V30 39691 C 3901.15 -0.783231 -1.55375 0
M  V30 39692 O 3902.33 -1.07988 -1.70002 0
M  V30 39693 C 3899.39 -2.13091 -2.73483 0
M  V30 39694 C 3898.46 -3.36792 -2.66213 0
M  V30 39695 C 3897.69 -3.59833 -3.94152 0
M  V30 39696 O 3897.91 -2.85849 -4.93605 0
M  V30 39697 O 3896.85 -4.53351 -3.95925 0
M  V30 39698 H 3900.67 -2.81823 -1.13179 0
M  V30 39699 H 3898.26 -1.40953 -0.495246 0
M  V30 39700 H 3900.14 -2.30201 -3.52966 0
M  V30 39701 H 3898.81 -1.23341 -2.9928 0
M  V30 39702 H 3897.72 -3.25044 -1.85195 0
M  V30 39703 H 3899.05 -4.26679 -2.45368 0
M  V30 39704 N 3900.71 0.562296 -1.47228 0
M  V30 39705 C 3901.95 1.33053 -1.55165 0
M  V30 39706 C 3902.31 1.90882 -0.2069 0
M  V30 39707 O 3903.51 2.68317 -0.161103 0
M  V30 39708 C 3901.78 2.41472 -2.63488 0
M  V30 39709 S 3903.34 3.2845 -2.90974 0
M  V30 39710 H 3900.16 0.453031 -0.547982 0
M  V30 39711 H 3902.76 0.644269 -1.84579 0
M  V30 39712 H 3901.46 1.97414 -3.598 0
M  V30 39713 H 3901 3.14845 -2.35873 0
M  V30 39714 H 3903.01 4.40819 -2.278 0
M  V30 39715 N 3902.18 1.35274 0.808615 0
M  V30 39716 C 3903.42 1.29797 1.57899 0
M  V30 39717 C 3903.79 -0.126577 1.91582 0
M  V30 39718 O 3904.99 -0.305698 2.67056 0
M  V30 39719 C 3903.26 2.17721 2.8343 0
M  V30 39720 S 3904.82 2.29739 3.73852 0
M  V30 39721 H 3901.64 0.461308 0.541033 0
M  V30 39722 H 3904.24 1.70644 0.953994 0
M  V30 39723 H 3902.94 3.20205 2.56704 0
M  V30 39724 H 3902.47 1.77824 3.50916 0
M  V30 39725 H 3904.49 1.48071 4.73592 0
M  V30 39726 N 3903.66 -1.03053 1.19239 0
M  V30 39727 C 3904.91 -1.76077 0.992039 0
M  V30 39728 C 3905.23 -1.89038 -0.478501 0
M  V30 39729 O 3904.5 -1.42276 -1.34664 0
M  V30 39730 H 3903.08 -0.652274 0.36407 0
M  V30 39731 H 3905.74 -1.24318 1.50103 0
M  V30 39732 H 3904.84 -2.76963 1.43867 0
M  V30 39733 N 3905.14 -0.996042 -1.22134 0
M  V30 39734 C 3906.56 -0.70731 -1.43071 0
M  V30 39735 C 3906.76 0.720873 -1.88164 0
M  V30 39736 O 3905.81 1.49138 -2.0375 0
M  V30 39737 C 3907.13 -1.71555 -2.4696 0
M  V30 39738 C 3908.67 -1.73136 -2.60755 0
M  V30 39739 C 3909.15 -2.72831 -3.67868 0
M  V30 39740 N 3910.64 -2.71445 -3.75329 0
M  V30 39741 C 3911.37 -3.45249 -4.57811 0
M  V30 39742 N 3910.87 -4.28664 -5.4426 0
M  V30 39743 N 3912.66 -3.3394 -4.52151 0
M  V30 39744 H 3904.81 -1.91837 -0.911717 0
M  V30 39745 H 3907.08 -0.82752 -0.462508 0
M  V30 39746 H 3906.78 -2.73769 -2.20779 0
M  V30 39747 H 3906.66 -1.51095 -3.45616 0
M  V30 39748 H 3909.04 -0.716182 -2.86278 0
M  V30 39749 H 3909.13 -1.97666 -1.62364 0
M  V30 39750 H 3908.77 -3.745 -3.43092 0
M  V30 39751 H 3908.7 -2.4557 -4.65836 0
M  V30 39752 H 3911.19 -2.1092 -3.13562 0
M  V30 39753 H 3911.5 -4.81797 -6.04228 0
M  V30 39754 H 3909.85 -4.3275 -5.43832 0
M  V30 39755 H 3913.04 -2.68213 -3.8364 0
M  V30 39756 H 3913.21 -3.91717 -5.162 0
M  V30 39757 N 3906.62 1.37529 -0.769636 0
M  V30 39758 C 3907.86 2.01584 -0.338142 0
M  V30 39759 C 3908.22 1.59775 1.06471 0
M  V30 39760 O 3909.42 2.16275 1.5962 0
M  V30 39761 C 3907.69 3.54234 -0.474634 0
M  V30 39762 S 3909.25 4.38613 -0.128092 0
M  V30 39763 H 3906.07 0.698973 -0.130224 0
M  V30 39764 H 3908.67 1.67763 -1.00379 0
M  V30 39765 H 3907.38 3.82151 -1.49629 0
M  V30 39766 H 3906.91 3.92852 0.207636 0
M  V30 39767 H 3908.92 4.84369 1.07707 0
M  V30 39768 N 3908.1 0.520003 1.48774 0
M  V30 39769 C 3909.03 -0.237172 2.32292 0
M  V30 39770 C 3910.01 -0.9446 1.41461 0
M  V30 39771 O 3911.19 -0.932319 1.70357 0
M  V30 39772 C 3908.32 -1.29062 3.22429 0
M  V30 39773 C 3907.28 -0.701937 4.22205 0
M  V30 39774 C 3906.6 -1.8573 5.01406 0
M  V30 39775 C 3907.9 0.319718 5.21321 0
M  V30 39776 H 3909.6 0.460001 2.95845 0
M  V30 39777 H 3907.14 0.222666 1.42268 0
M  V30 39778 H 3909.1 -1.82819 3.79678 0
M  V30 39779 H 3907.82 -2.01724 2.56856 0
M  V30 39780 H 3906.48 -0.185963 3.66128 0
M  V30 39781 H 3906.13 -2.57206 4.32266 0
M  V30 39782 H 3905.83 -1.46939 5.68931 0
M  V30 39783 H 3907.35 -2.39885 5.61505 0
M  V30 39784 H 3908.76 -0.130404 5.73152 0
M  V30 39785 H 3907.16 0.624482 5.96842 0
M  V30 39786 H 3908.23 1.22901 4.69066 0
M  V30 39787 N 3909.57 -1.55529 0.254676 0
M  V30 39788 C 3910.99 -1.85059 -0.247009 0
M  V30 39789 C 3911.34 -1.17658 -1.57007 0
M  V30 39790 O 3910.46 -0.457675 -2.11505 0
M  V30 39791 C 3911.06 -3.35731 -0.454958 0
M  V30 39792 C 3909.62 -3.6546 -0.900897 0
M  V30 39793 C 3908.76 -2.77294 0.0174923 0
M  V30 39794 H 3911.71 -1.51361 0.477032 0
M  V30 39795 H 3911.73 -3.57732 -1.29647 0
M  V30 39796 H 3911.25 -3.84759 0.508144 0
M  V30 39797 H 3909.35 -3.21916 -1.87619 0
M  V30 39798 H 3909.46 -4.73156 -0.752375 0
M  V30 39799 H 3907.82 -2.49839 -0.495252 0
M  V30 39800 H 3908.61 -3.29131 0.976107 0
M  V30 39801 N 3911.05 0.0183372 -1.57589 0
M  V30 39802 C 3912.28 0.718457 -1.94025 0
M  V30 39803 C 3912.7 1.68314 -0.85532 0
M  V30 39804 O 3912.05 1.81731 0.167371 0
M  V30 39805 C 3912.1 1.46625 -3.30429 0
M  V30 39806 O 3911.82 0.540268 -4.34756 0
M  V30 39807 C 3913.33 2.26255 -3.81213 0
M  V30 39808 H 3910.55 0.201263 -0.640105 0
M  V30 39809 H 3913.09 -0.0273295 -2.04482 0
M  V30 39810 H 3911.24 2.16382 -3.21337 0
M  V30 39811 H 3911.66 1.06584 -5.13556 0
M  V30 39812 H 3913.13 2.74103 -4.79136 0
M  V30 39813 H 3913.61 3.08141 -3.12963 0
M  V30 39814 H 3914.22 1.61551 -3.93423 0
M  V30 39815 N 3912.53 1.54894 0.290797 0
M  V30 39816 C 3913.49 1.85795 1.34212 0
M  V30 39817 C 3914.49 0.731418 1.43202 0
M  V30 39818 O 3915.68 0.999672 1.42661 0
M  V30 39819 C 3912.82 2.04735 2.72573 0
M  V30 39820 H 3914.01 2.79759 1.08051 0
M  V30 39821 H 3911.56 1.47112 0.527982 0
M  V30 39822 H 3912.3 1.13094 3.03941 0
M  V30 39823 H 3912.08 2.8674 2.67437 0
M  V30 39824 H 3913.57 2.29977 3.48569 0
M  V30 39825 N 3914.01 -0.55448 1.47524 0
M  V30 39826 C 3915.25 -1.32228 1.55869 0
M  V30 39827 C 3915.61 -1.9077 0.21702 0
M  V30 39828 O 3916.81 -2.68228 0.17533 0
M  V30 39829 C 3915.08 -2.40071 2.64765 0
M  V30 39830 S 3916.64 -3.26903 2.92712 0
M  V30 39831 H 3913.46 -0.450118 0.550377 0
M  V30 39832 H 3916.06 -0.634471 1.84918 0
M  V30 39833 H 3914.77 -1.95503 3.60842 0
M  V30 39834 H 3914.3 -3.1359 2.37539 0
M  V30 39835 H 3916.31 -4.39605 2.30135 0
M  V30 39836 N 3915.49 -1.35701 -0.80143 0
M  V30 39837 C 3916.71 -1.32389 -1.58999 0
M  V30 39838 C 3917.13 0.09751 -1.88548 0
M  V30 39839 O 3916.49 1.05097 -1.49201 0
M  V30 39840 C 3916.54 -2.13364 -2.91818 0
M  V30 39841 O 3916.26 -3.49963 -2.63548 0
M  V30 39842 C 3917.76 -2.17696 -3.86165 0
M  V30 39843 H 3914.98 -0.454588 -0.493549 0
M  V30 39844 H 3917.52 -1.78629 -0.995584 0
M  V30 39845 H 3915.68 -1.7071 -3.4776 0
M  V30 39846 H 3916.09 -3.92077 -3.4839 0
M  V30 39847 H 3917.57 -2.78735 -4.76456 0
M  V30 39848 H 3918.04 -1.17711 -4.23132 0
M  V30 39849 H 3918.65 -2.60533 -3.36158 0
M  V30 39850 N 3916.96 1.02419 -1.19783 0
M  V30 39851 C 3918.21 1.753 -0.997628 0
M  V30 39852 C 3918.53 1.89824 0.471809 0
M  V30 39853 O 3919.73 2.59723 0.790953 0
M  V30 39854 C 3918.19 3.15256 -1.73614 0
M  V30 39855 C 3917.8 3.0877 -3.246 0
M  V30 39856 C 3919.54 3.924 -1.61934 0
M  V30 39857 C 3917.45 4.43686 -3.9102 0
M  V30 39858 H 3916.38 0.657169 -0.369655 0
M  V30 39859 H 3919.03 1.14584 -1.43327 0
M  V30 39860 H 3917.41 3.76468 -1.22833 0
M  V30 39861 H 3918.58 2.56911 -3.82536 0
M  V30 39862 H 3916.9 2.45121 -3.36607 0
M  V30 39863 H 3919.5 4.92202 -2.08904 0
M  V30 39864 H 3919.84 4.1232 -0.574264 0
M  V30 39865 H 3920.37 3.378 -2.10086 0
M  V30 39866 H 3917.11 4.2897 -4.95646 0
M  V30 39867 H 3916.63 4.95582 -3.37873 0
M  V30 39868 H 3918.31 5.12555 -3.94837 0
M  V30 39869 N 3918.44 1.0025 1.21604 0
M  V30 39870 C 3919.38 0.519048 2.23245 0
M  V30 39871 C 3920.39 -0.391023 1.58034 0
M  V30 39872 O 3921.58 -0.19162 1.77468 0
M  V30 39873 C 3918.68 -0.265958 3.37855 0
M  V30 39874 C 3917.85 0.642579 4.32654 0
M  V30 39875 C 3916.91 -0.0923833 5.26119 0
M  V30 39876 O 3915.94 0.525433 5.6677 0
M  V30 39877 N 3917.14 -1.37173 5.6406 0
M  V30 39878 H 3919.9 1.3931 2.65354 0
M  V30 39879 H 3917.46 0.878351 1.36002 0
M  V30 39880 H 3919.46 -0.766528 3.97374 0
M  V30 39881 H 3918.03 -1.04118 2.94751 0
M  V30 39882 H 3917.25 1.32368 3.71312 0
M  V30 39883 H 3918.53 1.26097 4.92927 0
M  V30 39884 H 3917.93 -1.89484 5.33022 0
M  V30 39885 H 3916.49 -1.8173 6.25953 0
M  V30 39886 N 3919.92 -1.37119 0.776919 0
M  V30 39887 C 3920.85 -2.32799 0.180778 0
M  V30 39888 C 3921.83 -1.56036 -0.677256 0
M  V30 39889 O 3923.02 -1.8425 -0.613655 0
M  V30 39890 C 3920.15 -3.40273 -0.695088 0
M  V30 39891 C 3919.1 -4.27955 0.0620524 0
M  V30 39892 C 3918.43 -5.26487 -0.933595 0
M  V30 39893 C 3919.73 -5.07268 1.24405 0
M  V30 39894 H 3921.42 -2.82904 0.980089 0
M  V30 39895 H 3918.97 -1.36019 0.472746 0
M  V30 39896 H 3920.92 -4.06189 -1.12198 0
M  V30 39897 H 3919.64 -2.88706 -1.52697 0
M  V30 39898 H 3918.3 -3.63578 0.469781 0
M  V30 39899 H 3917.95 -4.71197 -1.76017 0
M  V30 39900 H 3917.65 -5.86013 -0.431505 0
M  V30 39901 H 3919.18 -5.95277 -1.35932 0
M  V30 39902 H 3920.59 -5.66294 0.893549 0
M  V30 39903 H 3918.99 -5.76146 1.67858 0
M  V30 39904 H 3920.06 -4.39639 2.04561 0
M  V30 39905 N 3921.4 -0.527886 -1.48496 0
M  V30 39906 C 3922.82 -0.185601 -1.58517 0
M  V30 39907 C 3923.02 1.31107 -1.53014 0
M  V30 39908 O 3922.07 2.08916 -1.41811 0
M  V30 39909 C 3923.38 -0.78627 -2.90238 0
M  V30 39910 C 3924.93 -0.754813 -3.03762 0
M  V30 39911 C 3925.41 -1.33402 -4.38141 0
M  V30 39912 N 3926.9 -1.2959 -4.44703 0
M  V30 39913 C 3927.63 -1.71398 -5.47184 0
M  V30 39914 N 3927.13 -2.20925 -6.56631 0
M  V30 39915 N 3928.92 -1.62648 -5.38054 0
M  V30 39916 H 3921.07 -1.50063 -1.50316 0
M  V30 39917 H 3923.34 -0.624066 -0.713614 0
M  V30 39918 H 3923.04 -1.83696 -2.99915 0
M  V30 39919 H 3922.92 -0.26215 -3.76288 0
M  V30 39920 H 3925.3 0.287105 -2.937 0
M  V30 39921 H 3925.38 -1.31638 -2.19329 0
M  V30 39922 H 3925.03 -2.37486 -4.48958 0
M  V30 39923 H 3924.96 -0.748155 -5.21258 0
M  V30 39924 H 3927.45 -0.93331 -3.66194 0
M  V30 39925 H 3927.76 -2.50826 -7.30962 0
M  V30 39926 H 3926.11 -2.24917 -6.576 0
M  V30 39927 H 3929.3 -1.23754 -4.51445 0
M  V30 39928 H 3929.47 -1.95551 -6.17789 0
M  V30 39929 N 3922.88 1.55391 -0.26292 0
M  V30 39930 C 3924.13 1.98929 0.356625 0
M  V30 39931 C 3924.45 1.15262 1.57288 0
M  V30 39932 O 3923.72 0.239198 1.94434 0
M  V30 39933 H 3922.3 0.734745 0.134755 0
M  V30 39934 H 3924.96 1.91444 -0.365428 0
M  V30 39935 H 3924.05 3.05153 0.654841 0
M  V30 39936 N 3924.36 -0.00997961 1.57597 0
M  V30 39937 C 3925.6 -0.695525 1.89755 0
M  V30 39938 C 3925.92 -1.74863 0.863014 0
M  V30 39939 O 3925.19 -1.9564 -0.100914 0
M  V30 39940 H 3923.77 -0.259883 0.700336 0
M  V30 39941 H 3926.44 0.0285864 1.94879 0
M  V30 39942 H 3925.53 -1.17308 2.89215 0
M  V30 39943 N 3925.83 -1.55046 -0.282578 0
M  V30 39944 C 3926.77 -1.83666 -1.37112 0
M  V30 39945 C 3927.78 -0.720588 -1.45984 0
M  V30 39946 O 3928.97 -0.99832 -1.47972 0
M  V30 39947 C 3926.07 -1.97607 -2.75326 0
M  V30 39948 C 3925.24 -3.28183 -2.89163 0
M  V30 39949 C 3924.3 -3.32309 -4.07991 0
M  V30 39950 O 3923.33 -4.05741 -3.99203 0
M  V30 39951 N 3924.53 -2.59022 -5.19507 0
M  V30 39952 H 3927.29 -2.77618 -1.12909 0
M  V30 39953 H 3924.85 -1.54846 -0.472684 0
M  V30 39954 H 3926.85 -1.97749 -3.53097 0
M  V30 39955 H 3925.42 -1.10566 -2.92394 0
M  V30 39956 H 3924.64 -3.4066 -1.98354 0
M  V30 39957 H 3925.92 -4.14315 -2.95331 0
M  V30 39958 H 3925.32 -1.99028 -5.29532 0
M  V30 39959 H 3923.88 -2.64897 -5.95544 0
M  V30 39960 N 3927.31 0.546649 -1.47816 0
M  V30 39961 C 3928.56 1.29973 -1.5424 0
M  V30 39962 C 3928.87 1.94427 -0.213903 0
M  V30 39963 O 3930.08 2.7105 -0.156234 0
M  V30 39964 C 3928.54 2.35745 -2.71942 0
M  V30 39965 C 3928.14 1.77434 -4.11365 0
M  V30 39966 C 3929.89 3.12167 -2.87667 0
M  V30 39967 C 3927.79 2.81048 -5.20352 0
M  V30 39968 H 3926.72 0.488744 -0.574148 0
M  V30 39969 H 3929.38 0.579354 -1.74114 0
M  V30 39970 H 3927.76 3.10743 -2.45468 0
M  V30 39971 H 3928.93 1.08736 -4.47787 0
M  V30 39972 H 3927.25 1.13561 -4.00616 0
M  V30 39973 H 3929.84 3.89562 -3.66259 0
M  V30 39974 H 3930.19 3.67006 -1.965 0
M  V30 39975 H 3930.72 2.44281 -3.13961 0
M  V30 39976 H 3927.46 2.3105 -6.1343 0
M  V30 39977 H 3926.98 3.48124 -4.88436 0
M  V30 39978 H 3928.66 3.44346 -5.47754 0
M  V30 39979 N 3928.79 1.36124 0.794222 0
M  V30 39980 C 3929.72 1.24416 1.91301 0
M  V30 39981 C 3930.7 0.129346 1.62085 0
M  V30 39982 O 3931.88 0.299632 1.86103 0
M  V30 39983 C 3929.01 0.918533 3.26007 0
M  V30 39984 C 3928.06 2.04712 3.74159 0
M  V30 39985 S 3928.89 3.66439 3.90491 0
M  V30 39986 C 3930.05 3.3598 5.2808 0
M  V30 39987 H 3930.28 2.19113 2.0094 0
M  V30 39988 H 3927.81 1.21484 0.952938 0
M  V30 39989 H 3929.77 0.737473 4.03821 0
M  V30 39990 H 3928.43 -0.0105756 3.14098 0
M  V30 39991 H 3927.62 1.77373 4.71757 0
M  V30 39992 H 3927.23 2.18715 3.0338 0
M  V30 39993 H 3929.52 2.89575 6.12497 0
M  V30 39994 H 3930.46 4.32823 5.6042 0
M  V30 39995 H 3930.87 2.71444 4.94953 0
M  V30 39996 N 3930.27 -1.01782 1.20325 0
M  V30 39997 C 3931.5 -1.78964 1.03824 0
M  V30 39998 C 3931.91 -1.84237 -0.41259 0
M  V30 39999 O 3931.27 -1.29445 -1.28648 0
M  V30 40000 C 3931.32 -3.2349 1.61358 0
M  V30 40001 O 3931.04 -3.18548 3.00764 0
M  V30 40002 C 3932.54 -4.17225 1.49793 0
M  V30 40003 H 3929.76 -0.562846 0.365301 0
M  V30 40004 H 3932.3 -1.28128 1.59385 0
M  V30 40005 H 3930.46 -3.71479 1.0992 0
M  V30 40006 H 3930.87 -4.09255 3.28041 0
M  V30 40007 H 3932.35 -5.16481 1.94811 0
M  V30 40008 H 3932.82 -4.36886 0.450219 0
M  V30 40009 H 3933.43 -3.75118 2.00416 0
M  V30 40010 N 3931.75 -1.00894 -1.21071 0
M  V30 40011 C 3932.68 -0.592936 -2.25846 0
M  V30 40012 C 3933.66 0.388211 -1.65611 0
M  V30 40013 O 3934.84 0.275327 -1.92238 0
M  V30 40014 C 3931.97 0.0772829 -3.47214 0
M  V30 40015 C 3930.93 -0.824053 -4.19992 0
M  V30 40016 C 3930.25 -0.0200281 -5.34696 0
M  V30 40017 C 3931.55 -2.12852 -4.76961 0
M  V30 40018 H 3933.25 -1.46877 -2.60897 0
M  V30 40019 H 3930.79 -0.707678 -1.25411 0
M  V30 40020 H 3932.74 0.379816 -4.19685 0
M  V30 40021 H 3931.47 0.987778 -3.11305 0
M  V30 40022 H 3930.13 -1.11047 -3.49377 0
M  V30 40023 H 3929.78 0.891878 -4.9503 0
M  V30 40024 H 3929.48 -0.620204 -5.84318 0
M  V30 40025 H 3931 0.276229 -6.09975 0
M  V30 40026 H 3932.41 -1.88887 -5.4129 0
M  V30 40027 H 3930.81 -2.67889 -5.36988 0
M  V30 40028 H 3931.88 -2.79666 -3.96125 0
M  V30 40029 N 3933.22 1.36705 -0.78418 0
M  V30 40030 C 3934.17 2.3012 -0.177085 0
M  V30 40031 C 3935.14 1.51718 0.676074 0
M  V30 40032 O 3936.33 1.80244 0.625846 0
M  V30 40033 C 3933.47 3.38207 0.686278 0
M  V30 40034 C 3932.58 4.31604 -0.184848 0
M  V30 40035 C 3931.71 5.26773 0.684392 0
M  V30 40036 C 3930.75 6.1181 -0.188509 0
M  V30 40037 N 3929.89 6.99182 0.639414 0
M  V30 40038 H 3934.73 2.81454 -0.979175 0
M  V30 40039 H 3932.27 1.38541 -0.494443 0
M  V30 40040 H 3934.23 3.99516 1.20178 0
M  V30 40041 H 3932.86 2.88207 1.45385 0
M  V30 40042 H 3931.91 3.71495 -0.818269 0
M  V30 40043 H 3933.22 4.91371 -0.857653 0
M  V30 40044 H 3932.37 5.93346 1.2659 0
M  V30 40045 H 3931.11 4.67447 1.39084 0
M  V30 40046 H 3930.12 5.44204 -0.78246 0
M  V30 40047 H 3931.34 6.7321 -0.892478 0
M  V30 40048 H 3929.29 6.42371 1.33025 0
M  V30 40049 H 3929.21 7.55996 0.0241768 0
M  V30 40050 H 3930.47 7.70131 1.20492 0
M  V30 40051 N 3934.7 0.535753 1.48214 0
M  V30 40052 C 3936.12 0.194005 1.58416 0
M  V30 40053 C 3936.32 -1.30293 1.53707 0
M  V30 40054 O 3935.37 -2.08161 1.42917 0
M  V30 40055 C 3936.69 0.801651 2.89817 0
M  V30 40056 C 3938.24 0.770912 3.03358 0
M  V30 40057 C 3938.71 1.35724 4.37428 0
M  V30 40058 N 3940.2 1.31946 4.44009 0
M  V30 40059 C 3940.94 1.74297 5.46267 0
M  V30 40060 N 3940.43 2.24404 6.5545 0
M  V30 40061 N 3942.23 1.65499 5.37184 0
M  V30 40062 H 3934.38 1.50858 1.49518 0
M  V30 40063 H 3936.64 0.627842 0.710295 0
M  V30 40064 H 3936.35 1.85284 2.98936 0
M  V30 40065 H 3936.22 0.282102 3.76144 0
M  V30 40066 H 3938.61 -0.271525 2.93848 0
M  V30 40067 H 3938.69 1.32799 2.18628 0
M  V30 40068 H 3938.33 2.39863 4.47692 0
M  V30 40069 H 3938.26 0.775788 5.20854 0
M  V30 40070 H 3940.75 0.952717 3.65693 0
M  V30 40071 H 3941.07 2.54699 7.29622 0
M  V30 40072 H 3939.41 2.28402 6.56398 0
M  V30 40073 H 3942.6 1.26146 4.50782 0
M  V30 40074 H 3942.77 1.98824 6.16744 0
M  V30 40075 N 3936.18 -1.5525 0.271158 0
M  V30 40076 C 3937.46 -1.91501 -0.398341 0
M  V30 40077 C 3937.84 -1.19494 -1.74024 0
M  V30 40078 O 3937.19 -0.320465 -2.26242 0
M  V30 40079 C 3937.4 -3.44757 -0.542529 0
M  V30 40080 C 3938.74 -4.16463 -0.827253 0
M  V30 40081 O 3939.77 -3.5063 -0.627486 0
M  V30 40082 O 3938.63 -5.32957 -1.20907 0
M  V30 40083 H 3935.72 -0.797896 -0.217465 0
M  V30 40084 H 3938.27 -1.66713 0.317018 0
M  V30 40085 H 3937.04 -3.8923 0.401995 0
M  V30 40086 H 3936.66 -3.75486 -1.30751 0
M  V30 40087 N 3937.66 0.00162173 -1.576 0
M  V30 40088 C 3938.57 1.00992 -2.1175 0
M  V30 40089 C 3939.58 1.37803 -1.06237 0
M  V30 40090 O 3940.76 1.46568 -1.3813 0
M  V30 40091 C 3937.83 2.28355 -2.60873 0
M  V30 40092 C 3936.89 1.97872 -3.80979 0
M  V30 40093 C 3936.12 3.19164 -4.2775 0
M  V30 40094 O 3936.34 4.30792 -3.73864 0
M  V30 40095 O 3935.28 3.03256 -5.19922 0
M  V30 40096 H 3939.1 0.579615 -2.98118 0
M  V30 40097 H 3936.69 0.220349 -1.47766 0
M  V30 40098 H 3938.57 3.03182 -2.92675 0
M  V30 40099 H 3937.24 2.70627 -1.77603 0
M  V30 40100 H 3936.15 1.20527 -3.54153 0
M  V30 40101 H 3937.48 1.60438 -4.65317 0
M  V30 40102 N 3939.14 1.55194 0.274352 0
M  V30 40103 C 3940.36 1.7976 1.0244 0
M  V30 40104 C 3940.78 0.570237 1.79983 0
M  V30 40105 O 3940.14 -0.460659 1.7659 0
M  V30 40106 C 3940.19 3.02188 1.98405 0
M  V30 40107 O 3939.91 4.20184 1.24004 0
M  V30 40108 C 3941.41 3.39348 2.85233 0
M  V30 40109 H 3938.63 0.598857 0.302673 0
M  V30 40110 H 3941.17 2.02205 0.305546 0
M  V30 40111 H 3939.33 2.81874 2.65755 0
M  V30 40112 H 3939.74 4.89389 1.88676 0
M  V30 40113 H 3941.22 4.28186 3.48368 0
M  V30 40114 H 3941.69 2.5869 3.54931 0
M  V30 40115 H 3942.3 3.61916 2.23376 0
M  V30 40116 N 3940.61 -0.538802 1.48104 0
M  V30 40117 C 3941.54 -1.6536 1.64859 0
M  V30 40118 C 3942.53 -1.62659 0.497607 0
M  V30 40119 O 3943.71 -1.79993 0.72912 0
M  V30 40120 C 3940.84 -3.03968 1.6799 0
M  V30 40121 C 3939.79 -3.21524 2.825 0
M  V30 40122 C 3939.12 -4.61105 2.70715 0
M  V30 40123 C 3940.42 -3.05137 4.23897 0
M  V30 40124 H 3942.11 -1.51593 2.58186 0
M  V30 40125 H 3939.66 -0.727864 1.2425 0
M  V30 40126 H 3941.61 -3.81821 1.783 0
M  V30 40127 H 3940.34 -3.18737 0.712355 0
M  V30 40128 H 3939 -2.46086 2.7173 0
M  V30 40129 H 3938.64 -4.72697 1.71948 0
M  V30 40130 H 3938.34 -4.73798 3.47547 0
M  V30 40131 H 3939.87 -5.41068 2.8298 0
M  V30 40132 H 3941.28 -3.7279 4.35547 0
M  V30 40133 H 3939.68 -3.29329 5.0166 0
M  V30 40134 H 3940.75 -2.01663 4.40976 0
M  V30 40135 N 3942.09 -1.36544 -0.786992 0
M  V30 40136 C 3943.02 -1.26934 -1.90841 0
M  V30 40137 C 3944.04 -0.188322 -1.61707 0
M  V30 40138 O 3945.23 -0.443235 -1.72909 0
M  V30 40139 C 3942.33 -0.936362 -3.25708 0
M  V30 40140 C 3941.5 -2.11976 -3.82603 0
M  V30 40141 C 3940.56 -1.75945 -4.95913 0
M  V30 40142 O 3939.58 -2.48062 -5.12302 0
M  V30 40143 N 3940.79 -0.694562 -5.7633 0
M  V30 40144 H 3943.55 -2.23556 -1.99606 0
M  V30 40145 H 3941.11 -1.29969 -0.965378 0
M  V30 40146 H 3943.1 -0.676448 -3.99007 0
M  V30 40147 H 3941.67 -0.0591913 -3.12544 0
M  V30 40148 H 3940.89 -2.54233 -3.01263 0
M  V30 40149 H 3942.18 -2.91031 -4.17347 0
M  V30 40150 H 3941.58 -0.095804 -5.65619 0
M  V30 40151 H 3940.14 -0.494477 -6.49922 0
M  V30 40152 N 3943.57 1.01143 -1.20863 0
M  V30 40153 C 3944.85 1.7203 -0.93087 0
M  V30 40154 C 3945.23 2.03564 0.559015 0
M  V30 40155 O 3944.58 1.70424 1.52211 0
M  V30 40156 C 3944.79 2.98441 -1.80926 0
M  V30 40157 C 3946.13 3.71601 -2.05422 0
M  V30 40158 O 3947.16 3.08408 -1.78221 0
M  V30 40159 O 3946.02 4.85248 -2.51389 0
M  V30 40160 H 3943.11 0.749984 -0.348501 0
M  V30 40161 H 3945.66 1.06944 -1.31761 0
M  V30 40162 H 3944.43 2.71498 -2.81788 0
M  V30 40163 H 3944.05 3.71267 -1.42292 0
M  V30 40164 N 3945.05 1.01535 1.20534 0
M  V30 40165 C 3946.3 0.702573 1.89495 0
M  V30 40166 C 3946.62 -0.770041 1.79152 0
M  V30 40167 O 3945.89 -1.55377 1.1931 0
M  V30 40168 H 3944.47 0.256881 0.701442 0
M  V30 40169 H 3947.13 1.28668 1.46392 0
M  V30 40170 H 3946.23 0.984869 2.96153 0
M  V30 40171 N 3946.53 -1.36288 0.791419 0
M  V30 40172 C 3947.77 -2.0102 0.370169 0
M  V30 40173 C 3948.13 -1.61448 -1.03915 0
M  V30 40174 O 3949.33 -2.18787 -1.56159 0
M  V30 40175 C 3947.6 -3.53434 0.53093 0
M  V30 40176 S 3949.16 -4.38354 0.197855 0
M  V30 40177 H 3945.98 -0.696812 0.141327 0
M  V30 40178 H 3948.58 -1.66145 1.03035 0
M  V30 40179 H 3947.29 -3.79722 1.5569 0
M  V30 40180 H 3946.82 -3.93132 -0.145111 0
M  V30 40181 H 3948.83 -4.86022 -0.99987 0
M  V30 40182 N 3948.01 -0.543606 -1.47928 0
M  V30 40183 C 3949.28 0.0505343 -1.95535 0
M  V30 40184 C 3949.66 1.49932 -1.48606 0
M  V30 40185 O 3949.01 2.16903 -0.718693 0
M  V30 40186 C 3949.22 -0.0808268 -3.48906 0
M  V30 40187 C 3950.57 0.0714925 -4.2454 0
M  V30 40188 O 3951.59 -0.00769961 -3.56199 0
M  V30 40189 O 3950.45 0.2395 -5.45975 0
M  V30 40190 H 3947.55 0.0717251 -0.823884 0
M  V30 40191 H 3950.09 -0.609168 -1.58389 0
M  V30 40192 H 3948.86 -1.08951 -3.75826 0
M  V30 40193 H 3948.49 0.617109 -3.92782 0
M  V30 40194 N 3949.48 1.55104 -0.279387 0
M  V30 40195 C 3950.71 2.04097 0.339393 0
M  V30 40196 C 3951.13 1.15759 1.49149 0
M  V30 40197 O 3950.48 0.17859 1.81624 0
M  V30 40198 C 3950.53 3.52162 0.81633 0
M  V30 40199 O 3950.26 4.3714 -0.289889 0
M  V30 40200 C 3951.76 4.17061 1.50249 0
M  V30 40201 H 3948.98 0.666585 0.0768498 0
M  V30 40202 H 3951.52 2.00292 -0.412726 0
M  V30 40203 H 3949.68 3.56398 1.51853 0
M  V30 40204 H 3950.09 5.24443 0.0775291 0
M  V30 40205 H 3951.56 5.22254 1.78758 0
M  V30 40206 H 3952.04 3.6549 2.43544 0
M  V30 40207 H 3952.65 4.16841 0.844032 0
M  V30 40208 N 3950.96 0.0067362 1.57599 0
M  V30 40209 C 3951.91 -0.991158 2.05329 0
M  V30 40210 C 3952.9 -1.2991 0.949325 0
M  V30 40211 O 3954.09 -1.28896 1.21305 0
M  V30 40212 C 3951.22 -2.28098 2.56567 0
M  V30 40213 C 3950.3 -2.00238 3.73852 0
M  V30 40214 N 3950.69 -1.42562 4.85294 0
M  V30 40215 C 3948.99 -2.30347 3.81912 0
M  V30 40216 C 3949.69 -1.31326 5.66682 0
M  V30 40217 N 3948.67 -1.80118 5.12892 0
M  V30 40218 H 3952.47 -0.539827 2.889 0
M  V30 40219 H 3949.98 -0.198807 1.61179 0
M  V30 40220 H 3951.98 -3.00435 2.8904 0
M  V30 40221 H 3950.64 -2.73877 1.74417 0
M  V30 40222 H 3951.65 -1.10354 5.06006 0
M  V30 40223 H 3948.33 -2.78955 3.10629 0
M  V30 40224 H 3949.72 -0.869185 6.66254 0
M  V30 40225 N 3952.44 -1.55337 -0.266118 0
M  V30 40226 C 3953.69 -1.76267 -0.9968 0
M  V30 40227 C 3954.01 -0.567586 -1.86034 0
M  V30 40228 O 3953.27 0.44972 -1.90463 0
M  V30 40229 C 3953.57 -3.02492 -1.90351 0
M  V30 40230 C 3953.23 -4.34724 -1.19691 0
M  V30 40231 C 3951.9 -4.70662 -1.00155 0
M  V30 40232 C 3954.25 -5.16551 -0.694612 0
M  V30 40233 C 3951.58 -5.85976 -0.291291 0
M  V30 40234 C 3953.93 -6.326 0.00209125 0
M  V30 40235 C 3952.59 -6.67172 0.209097 0
M  V30 40236 H 3951.86 -0.645008 -0.364755 0
M  V30 40237 H 3954.51 -1.89608 -0.268494 0
M  V30 40238 H 3952.81 -2.8408 -2.69826 0
M  V30 40239 H 3954.51 -3.15883 -2.47021 0
M  V30 40240 H 3951.1 -4.06481 -1.35909 0
M  V30 40241 H 3955.29 -4.89257 -0.833143 0
M  V30 40242 H 3950.54 -6.11282 -0.120251 0
M  V30 40243 H 3954.72 -6.95256 0.399031 0
M  V30 40244 H 3952.34 -7.56377 0.761434 0
M  V30 40245 N 3953.92 0.53094 -1.48387 0
M  V30 40246 C 3955.16 1.29732 -1.57953 0
M  V30 40247 C 3955.52 1.904 -0.247343 0
M  V30 40248 O 3956.72 2.67915 -0.217981 0
M  V30 40249 C 3954.99 2.35829 -2.68551 0
M  V30 40250 S 3956.55 3.22204 -2.97875 0
M  V30 40251 H 3953.37 0.441305 -0.557468 0
M  V30 40252 H 3955.97 0.604972 -1.85904 0
M  V30 40253 H 3954.68 1.89737 -3.63906 0
M  V30 40254 H 3954.21 3.09771 -2.42498 0
M  V30 40255 H 3956.22 4.35888 -2.37099 0
M  V30 40256 N 3955.4 1.36959 0.779739 0
M  V30 40257 C 3956.34 1.32074 1.89275 0
M  V30 40258 C 3957.31 0.187689 1.65036 0
M  V30 40259 O 3958.5 0.375769 1.87063 0
M  V30 40260 C 3955.64 1.12558 3.26228 0
M  V30 40261 C 3954.75 2.35023 3.62475 0
M  V30 40262 C 3953.89 2.08443 4.88595 0
M  V30 40263 C 3952.92 3.26817 5.17549 0
M  V30 40264 N 3952.06 2.99839 6.34855 0
M  V30 40265 H 3956.9 2.27239 1.92786 0
M  V30 40266 H 3954.44 1.12928 0.942636 0
M  V30 40267 H 3956.4 0.992666 4.05218 0
M  V30 40268 H 3955.03 0.210444 3.22113 0
M  V30 40269 H 3954.08 2.59084 2.78532 0
M  V30 40270 H 3955.39 3.2333 3.79814 0
M  V30 40271 H 3954.54 1.92137 5.75472 0
M  V30 40272 H 3953.28 1.17462 4.73343 0
M  V30 40273 H 3952.29 3.43671 4.2915 0
M  V30 40274 H 3953.51 4.18638 5.34714 0
M  V30 40275 H 3951.46 2.11479 6.20977 0
M  V30 40276 H 3951.38 3.81687 6.52573 0
M  V30 40277 H 3952.64 2.87133 7.24689 0
M  V30 40278 N 3956.87 -1.00501 1.21398 0
M  V30 40279 C 3958.12 -1.74535 1.03273 0
M  V30 40280 C 3958.45 -1.89318 -0.432712 0
M  V30 40281 O 3957.73 -1.4275 -1.32109 0
M  V30 40282 C 3958.01 -3.15793 1.73051 0
M  V30 40283 C 3957.86 -3.08734 3.27114 0
M  V30 40284 C 3959.18 -4.14716 1.47305 0
M  V30 40285 H 3956.3 -0.633531 0.376574 0
M  V30 40286 H 3958.94 -1.17167 1.49573 0
M  V30 40287 H 3957.09 -3.64773 1.33689 0
M  V30 40288 H 3958.77 -2.67468 3.75844 0
M  V30 40289 H 3957.01 -2.45836 3.57417 0
M  V30 40290 H 3957.68 -4.0864 3.71103 0
M  V30 40291 H 3960.16 -3.74441 1.81475 0
M  V30 40292 H 3959.03 -5.11696 1.98642 0
M  V30 40293 H 3959.29 -4.40259 0.403059 0
M  V30 40294 N 3958.35 -1.02172 -1.19994 0
M  V30 40295 C 3959.3 -0.589766 -2.24999 0
M  V30 40296 C 3960.29 0.374057 -1.65219 0
M  V30 40297 O 3961.5 0.243418 -1.78347 0
M  V30 40298 H 3957.87 -0.172429 -0.731965 0
M  V30 40299 H 3959.85 -1.48619 -2.58757 0
M  V30 40300 C 3958.59 0.0509285 -3.47663 0
M  V30 40301 H 3957.92 -0.681719 -3.93945 0
M  V30 40302 H 3959.36 0.316213 -4.22819 0
M  V30 40303 C 3957.82 1.29532 -3.11003 0
M  V30 40304 O 3958.35 2.38812 -3.23004 0
M  V30 40305 N 3956.55 1.18136 -2.65504 0
M  V30 40306 H 3956.1 0.292127 -2.55938 0
M  V30 40307 H 3956.06 2.01494 -2.41346 0
M  V30 40308 N 3959.83 1.35866 -0.798635 0
M  V30 40309 C 3960.74 2.33704 -0.204799 0
M  V30 40310 C 3961.76 1.61485 0.647972 0
M  V30 40311 O 3962.93 1.93412 0.561594 0
M  V30 40312 C 3960 3.40682 0.643165 0
M  V30 40313 C 3959.06 4.28688 -0.229174 0
M  V30 40314 C 3958.29 5.30556 0.578414 0
M  V30 40315 O 3958.51 5.40796 1.81372 0
M  V30 40316 O 3957.45 6.01894 -0.0265349 0
M  V30 40317 H 3961.27 2.86273 -1.01397 0
M  V30 40318 H 3958.86 1.38497 -0.560266 0
M  V30 40319 H 3960.74 4.06067 1.12641 0
M  V30 40320 H 3959.42 2.90397 1.43007 0
M  V30 40321 H 3958.32 3.66312 -0.759378 0
M  V30 40322 H 3959.66 4.82349 -0.979821 0
M  V30 40323 N 3961.31 0.551443 1.47638 0
M  V30 40324 C 3962.72 0.210796 1.58202 0
M  V30 40325 C 3962.92 -1.28656 1.5508 0
M  V30 40326 O 3961.98 -2.06634 1.45117 0
M  V30 40327 C 3963.29 0.832345 2.88951 0
M  V30 40328 C 3964.84 0.803043 3.02523 0
M  V30 40329 C 3965.32 1.40356 4.35964 0
M  V30 40330 N 3966.81 1.36648 4.42585 0
M  V30 40331 C 3967.54 1.80081 5.44388 0
M  V30 40332 N 3967.04 2.31343 6.53033 0
M  V30 40333 N 3968.83 1.71187 5.35398 0
M  V30 40334 H 3960.98 1.52435 1.4791 0
M  V30 40335 H 3963.24 0.63534 0.703596 0
M  V30 40336 H 3962.95 1.88444 2.96954 0
M  V30 40337 H 3962.82 0.321981 3.75823 0
M  V30 40338 H 3965.21 -0.240344 2.9412 0
M  V30 40339 H 3965.29 1.3511 2.17207 0
M  V30 40340 H 3964.94 2.44598 4.45123 0
M  V30 40341 H 3964.87 0.830988 5.20002 0
M  V30 40342 H 3967.36 0.99145 3.64662 0
M  V30 40343 H 3967.67 2.62423 7.26879 0
M  V30 40344 H 3966.02 2.35351 6.53938 0
M  V30 40345 H 3969.21 1.3092 4.49419 0
M  V30 40346 H 3969.38 2.05355 6.146 0
M  V30 40347 N 3962.79 -1.54953 0.287609 0
M  V30 40348 C 3964.03 -1.99471 -0.324932 0
M  V30 40349 C 3964.36 -1.1775 -1.55435 0
M  V30 40350 O 3963.63 -0.270101 -1.94029 0
M  V30 40351 H 3962.21 -0.736796 -0.123049 0
M  V30 40352 H 3964.87 -1.90838 0.395839 0
M  V30 40353 H 3963.96 -3.06156 -0.606211 0
M  V30 40354 N 3964.26 -0.0150939 -1.57593 0
M  V30 40355 C 3965.17 0.9874 -2.12809 0
M  V30 40356 C 3966.19 1.36668 -1.07693 0
M  V30 40357 O 3967.37 1.45095 -1.39676 0
M  V30 40358 C 3964.43 2.25576 -2.6328 0
M  V30 40359 C 3963.49 1.9382 -3.83056 0
M  V30 40360 C 3962.73 3.14609 -4.31111 0
M  V30 40361 O 3962.95 4.26803 -3.78412 0
M  V30 40362 O 3961.88 2.97725 -5.23109 0
M  V30 40363 H 3965.71 0.547963 -2.98716 0
M  V30 40364 H 3963.29 0.204664 -1.47992 0
M  V30 40365 H 3965.18 3.0006 -2.95874 0
M  V30 40366 H 3963.85 2.68728 -1.80463 0
M  V30 40367 H 3962.76 1.16764 -3.55411 0
M  V30 40368 H 3964.09 1.55494 -4.66993 0
M  V30 40369 N 3965.74 1.55476 0.257876 0
M  V30 40370 C 3966.97 1.80574 1.00382 0
M  V30 40371 C 3967.38 0.586947 1.79865 0
M  V30 40372 O 3966.72 -0.453715 1.78009 0
M  V30 40373 C 3966.79 2.9885 1.99822 0
M  V30 40374 C 3966.45 4.35305 1.39136 0
M  V30 40375 C 3967.45 5.13718 0.799366 0
M  V30 40376 C 3965.13 4.81986 1.41402 0
M  V30 40377 C 3967.13 6.36955 0.238116 0
M  V30 40378 C 3964.81 6.05175 0.848912 0
M  V30 40379 C 3965.81 6.82497 0.261977 0
M  V30 40380 O 3965.5 8.03361 -0.294434 0
M  V30 40381 H 3965.23 0.60502 0.301541 0
M  V30 40382 H 3967.78 2.03351 0.2894 0
M  V30 40383 H 3966.01 2.71801 2.75065 0
M  V30 40384 H 3967.7 3.11137 2.60669 0
M  V30 40385 H 3968.47 4.78777 0.774446 0
M  V30 40386 H 3964.35 4.21801 1.86025 0
M  V30 40387 H 3967.89 6.97251 -0.220641 0
M  V30 40388 H 3963.79 6.39595 0.871122 0
M  V30 40389 H 3964.56 8.1829 -0.185242 0
M  V30 40390 N 3967.22 -0.523064 1.48667 0
M  V30 40391 C 3968.47 -1.27851 1.57036 0
M  V30 40392 C 3968.8 -1.92922 0.24729 0
M  V30 40393 O 3968.05 -1.80212 -0.763017 0
M  V30 40394 C 3968.35 -2.38422 2.66251 0
M  V30 40395 C 3968.02 -1.90958 4.08468 0
M  V30 40396 C 3966.68 -1.77731 4.47174 0
M  V30 40397 C 3969.03 -1.55175 4.97564 0
M  V30 40398 C 3966.36 -1.27067 5.72775 0
M  V30 40399 C 3968.71 -1.05971 6.23661 0
M  V30 40400 C 3967.37 -0.913666 6.61217 0
M  V30 40401 H 3966.64 -0.46784 0.574636 0
M  V30 40402 H 3969.29 -0.582928 1.82412 0
M  V30 40403 H 3967.6 -3.13678 2.34762 0
M  V30 40404 H 3969.29 -2.96535 2.69941 0
M  V30 40405 H 3965.88 -2.02205 3.77903 0
M  V30 40406 H 3970.07 -1.6425 4.68333 0
M  V30 40407 H 3965.32 -1.14453 6.00592 0
M  V30 40408 H 3969.5 -0.773562 6.9209 0
M  V30 40409 H 3967.12 -0.518888 7.58427 0
M  V30 40410 N 3968.7 -1.37371 -0.772465 0
M  V30 40411 C 3969.94 -1.33743 -1.53246 0
M  V30 40412 C 3970.3 0.0778184 -1.92243 0
M  V30 40413 O 3969.59 1.03628 -1.61157 0
M  V30 40414 C 3969.79 -2.20971 -2.80903 0
M  V30 40415 C 3969.62 -3.70835 -2.54385 0
M  V30 40416 C 3968.39 -4.39945 -2.4855 0
M  V30 40417 C 3970.58 -4.63713 -2.2243 0
M  V30 40418 N 3968.57 -5.75353 -2.14107 0
M  V30 40419 C 3969.94 -5.87493 -1.9812 0
M  V30 40420 C 3971.99 -4.52105 -2.08579 0
M  V30 40421 C 3970.69 -7.00968 -1.61359 0
M  V30 40422 C 3972.72 -5.65464 -1.73218 0
M  V30 40423 C 3972.08 -6.88294 -1.49768 0
M  V30 40424 H 3968.18 -0.544682 -0.561111 0
M  V30 40425 H 3970.77 -1.72585 -0.901248 0
M  V30 40426 H 3968.94 -1.84346 -3.41864 0
M  V30 40427 H 3970.67 -2.08606 -3.46793 0
M  V30 40428 H 3967.42 -3.92939 -2.64379 0
M  V30 40429 H 3967.85 -6.46912 -1.99584 0
M  V30 40430 H 3972.49 -3.57712 -2.25392 0
M  V30 40431 H 3970.21 -7.95296 -1.43285 0
M  V30 40432 H 3973.79 -5.58453 -1.63161 0
M  V30 40433 H 3972.67 -7.74524 -1.22811 0
M  V30 40434 N 3970.18 0.998553 -1.21929 0
M  V30 40435 C 3971.09 2.12195 -1.00053 0
M  V30 40436 C 3972.1 1.7393 0.0494108 0
M  V30 40437 O 3973.28 2.00898 -0.142069 0
M  V30 40438 C 3970.34 3.419 -0.574931 0
M  V30 40439 C 3969.4 3.943 -1.69783 0
M  V30 40440 C 3968.64 5.17814 -1.29245 0
M  V30 40441 O 3968.86 5.7015 -0.168809 0
M  V30 40442 O 3967.79 5.63824 -2.10681 0
M  V30 40443 H 3971.62 2.3353 -1.94158 0
M  V30 40444 H 3969.21 1.10569 -1.00473 0
M  V30 40445 H 3971.09 4.19963 -0.347677 0
M  V30 40446 H 3969.76 3.21938 0.337332 0
M  V30 40447 H 3968.67 3.17434 -1.97955 0
M  V30 40448 H 3970 4.18684 -2.58775 0
M  V30 40449 N 3971.65 1.02807 1.1945 0
M  V30 40450 C 3972.6 0.608173 2.22643 0
M  V30 40451 C 3973.57 -0.37761 1.61751 0
M  V30 40452 O 3974.76 -0.274454 1.88816 0
M  V30 40453 C 3971.9 -0.0356983 3.45082 0
M  V30 40454 C 3971.01 0.996029 4.20361 0
M  V30 40455 C 3970.14 0.322004 5.30223 0
M  V30 40456 C 3969.18 1.3397 5.97259 0
M  V30 40457 N 3968.32 0.691537 6.98686 0
M  V30 40458 H 3973.16 1.49273 2.57918 0
M  V30 40459 H 3970.7 0.747007 1.26721 0
M  V30 40460 H 3972.66 -0.426236 4.15017 0
M  V30 40461 H 3971.29 -0.883835 3.10464 0
M  V30 40462 H 3970.34 1.50463 3.49378 0
M  V30 40463 H 3971.65 1.76953 4.66357 0
M  V30 40464 H 3970.8 -0.123422 6.06574 0
M  V30 40465 H 3969.54 -0.483707 4.85295 0
M  V30 40466 H 3968.55 1.79539 5.19659 0
M  V30 40467 H 3969.77 2.14689 6.44271 0
M  V30 40468 H 3967.72 -0.0940968 6.55933 0
M  V30 40469 H 3967.64 1.40294 7.42869 0
M  V30 40470 H 3968.9 0.270085 7.79032 0
M  V30 40471 N 3973.13 -1.35441 0.805829 0
M  V30 40472 C 3974.55 -1.51909 0.489475 0
M  V30 40473 C 3974.75 -1.75534 -0.989454 0
M  V30 40474 O 3973.8 -1.79632 -1.7745 0
M  V30 40475 C 3975.12 -2.69481 1.33418 0
M  V30 40476 C 3976.67 -2.83359 1.32954 0
M  V30 40477 C 3977.14 -4.03955 2.15834 0
M  V30 40478 N 3978.63 -4.11131 2.13367 0
M  V30 40479 C 3979.37 -5.0356 2.74254 0
M  V30 40480 N 3978.86 -6.01324 3.44065 0
M  V30 40481 N 3980.66 -4.963 2.639 0
M  V30 40482 H 3972.81 -1.18362 1.76364 0
M  V30 40483 H 3975.07 -0.579049 0.750604 0
M  V30 40484 H 3974.78 -2.58599 2.38368 0
M  V30 40485 H 3974.65 -3.64061 0.986873 0
M  V30 40486 H 3977.04 -2.93692 0.287889 0
M  V30 40487 H 3977.12 -1.89638 1.71671 0
M  V30 40488 H 3976.76 -3.94382 3.2004 0
M  V30 40489 H 3976.69 -4.96855 1.74478 0
M  V30 40490 H 3979.18 -3.41143 1.62572 0
M  V30 40491 H 3979.5 -6.68446 3.87813 0
M  V30 40492 H 3977.84 -6.01501 3.4817 0
M  V30 40493 H 3981.03 -4.18877 2.08949 0
M  V30 40494 H 3981.2 -5.68141 3.11641 0
M  V30 40495 N 3974.61 -0.559265 -1.47343 0
M  V30 40496 C 3975.86 -0.0360319 -2.02768 0
M  V30 40497 C 3976.19 1.31123 -1.43249 0
M  V30 40498 O 3975.46 1.85373 -0.588826 0
M  V30 40499 C 3975.75 0.0548478 -3.60058 0
M  V30 40500 C 3975.6 -1.31966 -4.30006 0
M  V30 40501 C 3976.92 0.767255 -4.3336 0
M  V30 40502 H 3974.04 -0.0145682 -0.736856 0
M  V30 40503 H 3976.68 -0.721951 -1.75749 0
M  V30 40504 H 3974.83 0.639009 -3.83209 0
M  V30 40505 H 3976.5 -1.94718 -4.1819 0
M  V30 40506 H 3974.75 -1.89378 -3.9028 0
M  V30 40507 H 3975.42 -1.20877 -5.38603 0
M  V30 40508 H 3977.89 0.271237 -4.15215 0
M  V30 40509 H 3976.77 0.799809 -5.43042 0
M  V30 40510 H 3977.03 1.8238 -4.02728 0
M  V30 40511 N 3976.09 1.54799 -0.295822 0
M  V30 40512 C 3977.32 2.04446 0.317727 0
M  V30 40513 C 3977.73 1.17334 1.47913 0
M  V30 40514 O 3977.09 0.197843 1.81424 0
M  V30 40515 C 3977.14 3.53008 0.778933 0
M  V30 40516 O 3976.86 4.36808 -0.336237 0
M  V30 40517 C 3978.36 4.18632 1.45817 0
M  V30 40518 H 3975.58 0.667362 0.0697754 0
M  V30 40519 H 3978.13 1.99843 -0.433947 0
M  V30 40520 H 3976.28 3.57988 1.48064 0
M  V30 40521 H 3976.69 5.24495 0.0219006 0
M  V30 40522 H 3978.17 5.24121 1.73209 0
M  V30 40523 H 3978.65 3.68053 2.39654 0
M  V30 40524 H 3979.25 4.17712 0.799773 0
M  V30 40525 N 3977.57 0.0234513 1.57583 0
M  V30 40526 C 3978.82 -0.655119 1.91187 0
M  V30 40527 C 3979.14 -1.72993 0.899911 0
M  V30 40528 O 3978.41 -1.9581 -0.0593934 0
M  V30 40529 H 3976.99 -0.244969 0.705691 0
M  V30 40530 H 3979.65 0.0699167 1.94775 0
M  V30 40531 H 3978.74 -1.11147 2.91638 0
M  V30 40532 N 3979.05 -1.5561 -0.249627 0
M  V30 40533 C 3980.29 -1.79077 -0.985435 0
M  V30 40534 C 3980.65 -0.592535 -1.82628 0
M  V30 40535 O 3981.85 -0.705915 -2.59365 0
M  V30 40536 C 3980.12 -3.07266 -1.82544 0
M  V30 40537 S 3981.68 -3.51943 -2.62071 0
M  V30 40538 H 3978.5 -0.628983 -0.331514 0
M  V30 40539 H 3981.1 -1.93849 -0.253557 0
M  V30 40540 H 3979.8 -3.92545 -1.19737 0
M  V30 40541 H 3979.34 -2.95225 -2.60011 0
M  V30 40542 H 3981.35 -3.13061 -3.84977 0
M  V30 40543 N 3980.52 0.515172 -1.48942 0
M  V30 40544 C 3981.93 1.09692 -1.51078 0
M  V30 40545 C 3982.29 1.94061 -0.288909 0
M  V30 40546 O 3981.41 2.0784 0.602629 0
M  V30 40547 C 3982.01 1.99604 -2.73758 0
M  V30 40548 C 3980.56 2.52969 -2.78718 0
M  V30 40549 C 3979.71 1.30261 -2.448 0
M  V30 40550 H 3982.66 0.299729 -1.55844 0
M  V30 40551 H 3982.68 2.84099 -2.53117 0
M  V30 40552 H 3982.2 1.38172 -3.62671 0
M  V30 40553 H 3980.3 3.1808 -1.94051 0
M  V30 40554 H 3980.41 2.9109 -3.8053 0
M  V30 40555 H 3978.77 1.62324 -1.96273 0
M  V30 40556 H 3979.56 0.705589 -3.35971 0
M  V30 40557 N 3982 1.37779 0.765169 0
M  V30 40558 C 3983.41 1.29814 1.34184 0
M  V30 40559 C 3983.76 -0.0513081 1.96133 0
M  V30 40560 O 3982.89 -0.953239 1.94274 0
M  V30 40561 C 3983.48 2.35082 2.43971 0
M  V30 40562 C 3982.04 2.30731 2.97389 0
M  V30 40563 C 3981.19 2.18562 1.70663 0
M  V30 40564 H 3984.14 1.48305 0.564922 0
M  V30 40565 H 3984.16 2.00129 3.23618 0
M  V30 40566 H 3983.67 3.33285 1.98853 0
M  V30 40567 H 3981.77 1.36073 3.46864 0
M  V30 40568 H 3981.89 3.2441 3.52555 0
M  V30 40569 H 3980.25 1.65218 1.93843 0
M  V30 40570 H 3981.03 3.18689 1.2764 0
M  V30 40571 N 3983.48 -0.992073 1.22457 0
M  V30 40572 C 3984.73 -1.73174 1.04963 0
M  V30 40573 C 3985.05 -1.90018 -0.415146 0
M  V30 40574 O 3984.31 -1.44109 -1.32405 0
M  V30 40575 C 3984.61 -3.14007 1.70688 0
M  V30 40576 C 3984.27 -3.17075 3.20585 0
M  V30 40577 C 3982.94 -3.17619 3.61485 0
M  V30 40578 C 3985.29 -3.133 4.16524 0
M  V30 40579 C 3982.62 -3.12091 4.96806 0
M  V30 40580 C 3984.97 -3.09314 5.51822 0
M  V30 40581 C 3983.63 -3.08175 5.92102 0
M  V30 40582 H 3982.9 -0.633687 0.384086 0
M  V30 40583 H 3985.55 -1.16182 1.5223 0
M  V30 40584 H 3983.85 -3.74312 1.15748 0
M  V30 40585 H 3985.55 -3.69982 1.54642 0
M  V30 40586 H 3982.14 -3.17401 2.88018 0
M  V30 40587 H 3986.33 -3.12029 3.85942 0
M  V30 40588 H 3981.58 -3.09555 5.27244 0
M  V30 40589 H 3985.76 -3.05349 6.25887 0
M  V30 40590 H 3983.38 -3.03646 6.96924 0
M  V30 40591 N 3984.96 -1.03439 -1.18904 0
M  V30 40592 C 3986.23 -0.648535 -1.84536 0
M  V30 40593 C 3986.61 0.872411 -1.9223 0
M  V30 40594 O 3985.96 1.77135 -1.44345 0
M  V30 40595 C 3986.17 -1.31703 -3.23195 0
M  V30 40596 C 3987.52 -1.44381 -3.99299 0
M  V30 40597 O 3988.54 -1.27464 -3.32613 0
M  V30 40598 O 3987.4 -1.71889 -5.18764 0
M  V30 40599 H 3984.5 -0.226128 -0.795484 0
M  V30 40600 H 3987.04 -1.13289 -1.26348 0
M  V30 40601 H 3985.82 -2.35549 -3.12462 0
M  V30 40602 H 3985.44 -0.820897 -3.89033 0
M  V30 40603 N 3986.44 1.35011 -0.813001 0
M  V30 40604 C 3987.35 2.33474 -0.229575 0
M  V30 40605 C 3988.36 1.62163 0.630808 0
M  V30 40606 O 3989.54 1.93996 0.541049 0
M  V30 40607 C 3986.6 3.41345 0.606995 0
M  V30 40608 C 3985.66 4.28421 -0.274629 0
M  V30 40609 C 3984.9 5.3114 0.522109 0
M  V30 40610 O 3985.12 5.42689 1.75626 0
M  V30 40611 O 3984.05 6.01832 -0.0903724 0
M  V30 40612 H 3987.88 2.85182 -1.04428 0
M  V30 40613 H 3985.46 1.37895 -0.574924 0
M  V30 40614 H 3987.35 4.07238 1.08328 0
M  V30 40615 H 3986.02 2.91898 1.39919 0
M  V30 40616 H 3984.93 3.65486 -0.798188 0
M  V30 40617 H 3986.26 4.81282 -1.03093 0
M  V30 40618 N 3987.91 0.567071 1.47044 0
M  V30 40619 C 3988.86 -0.195676 2.27159 0
M  V30 40620 C 3989.85 -0.876284 1.34945 0
M  V30 40621 O 3991.04 -0.772961 1.5923 0
M  V30 40622 C 3988.17 -1.21876 3.20938 0
M  V30 40623 C 3987.25 -0.541067 4.20634 0
M  V30 40624 N 3987.65 0.394484 5.04259 0
M  V30 40625 C 3985.94 -0.79377 4.3888 0
M  V30 40626 C 3986.64 0.789087 5.76323 0
M  V30 40627 N 3985.62 0.141708 5.43415 0
M  V30 40628 H 3989.42 0.523483 2.892 0
M  V30 40629 H 3986.94 0.387719 1.57704 0
M  V30 40630 H 3988.93 -1.77924 3.77026 0
M  V30 40631 H 3987.59 -1.93891 2.60454 0
M  V30 40632 H 3988.6 0.769185 5.12156 0
M  V30 40633 H 3985.28 -1.50168 3.89559 0
M  V30 40634 H 3986.67 1.5584 6.53577 0
M  V30 40635 N 3989.39 -1.5464 0.304027 0
M  V30 40636 C 3990.34 -2.23632 -0.570723 0
M  V30 40637 C 3991.31 -1.22 -1.12718 0
M  V30 40638 O 3992.49 -1.50628 -1.17114 0
M  V30 40639 C 3989.63 -2.98299 -1.73527 0
M  V30 40640 C 3988.75 -4.14711 -1.20992 0
M  V30 40641 C 3987.88 -4.76952 -2.33859 0
M  V30 40642 C 3986.92 -5.85503 -1.78473 0
M  V30 40643 N 3986.06 -6.41687 -2.84924 0
M  V30 40644 H 3990.9 -2.9799 0.0242204 0
M  V30 40645 H 3988.43 -1.47081 0.0237229 0
M  V30 40646 H 3990.39 -3.39823 -2.42025 0
M  V30 40647 H 3989.02 -2.26312 -2.3018 0
M  V30 40648 H 3988.07 -3.78106 -0.417114 0
M  V30 40649 H 3989.39 -4.92907 -0.76449 0
M  V30 40650 H 3988.54 -5.21345 -3.10297 0
M  V30 40651 H 3987.28 -3.98095 -2.8173 0
M  V30 40652 H 3986.28 -5.40532 -1.00524 0
M  V30 40653 H 3987.51 -6.66246 -1.31502 0
M  V30 40654 H 3985.46 -5.65712 -3.32123 0
M  V30 40655 H 3985.37 -7.15239 -2.44885 0
M  V30 40656 H 3986.64 -6.90737 -3.61251 0
M  V30 40657 N 3990.87 -0.0318079 -1.57568 0
M  V30 40658 C 3992.11 0.650373 -1.93777 0
M  V30 40659 C 3992.47 1.69138 -0.908647 0
M  V30 40660 O 3993.67 2.42624 -1.15702 0
M  V30 40661 C 3991.95 1.24837 -3.34889 0
M  V30 40662 S 3993.5 1.95125 -3.93029 0
M  V30 40663 H 3990.32 0.214062 -0.678011 0
M  V30 40664 H 3992.92 -0.0961161 -1.95264 0
M  V30 40665 H 3991.63 0.478323 -4.07603 0
M  V30 40666 H 3991.16 2.0321 -3.36852 0
M  V30 40667 H 3993.17 3.22994 -3.76682 0
M  V30 40668 N 3992.35 1.55741 0.241371 0
M  V30 40669 C 3993.28 1.93796 1.30252 0
M  V30 40670 C 3994.26 0.80359 1.49921 0
M  V30 40671 O 3995.44 1.06432 1.62437 0
M  V30 40672 C 3992.57 2.23747 2.65621 0
M  V30 40673 C 3991.53 3.39487 2.60639 0
M  V30 40674 C 3990.85 3.54993 3.99855 0
M  V30 40675 C 3992.15 4.75023 2.17143 0
M  V30 40676 H 3993.85 2.82682 0.986482 0
M  V30 40677 H 3991.39 1.36006 0.473101 0
M  V30 40678 H 3993.35 2.48959 3.39996 0
M  V30 40679 H 3992.07 1.31693 2.98872 0
M  V30 40680 H 3990.73 3.14293 1.88721 0
M  V30 40681 H 3990.38 2.6035 4.3038 0
M  V30 40682 H 3990.08 4.32829 3.97408 0
M  V30 40683 H 3991.6 3.82532 4.75922 0
M  V30 40684 H 3993.02 4.9957 2.81252 0
M  V30 40685 H 3991.41 5.56 2.25795 0
M  V30 40686 H 3992.48 4.71712 1.12321 0
M  V30 40687 N 3993.83 -0.507266 1.49213 0
M  V30 40688 C 3994.79 -1.59176 1.64911 0
M  V30 40689 C 3995.79 -1.52119 0.521203 0
M  V30 40690 O 3996.98 -1.55383 0.787519 0
M  V30 40691 C 3994.11 -2.98825 1.64062 0
M  V30 40692 H 3995.3 -1.46588 2.61633 0
M  V30 40693 H 3992.86 -0.731038 1.3815 0
M  V30 40694 H 3993.59 -3.16896 0.689012 0
M  V30 40695 H 3993.38 -3.05356 2.45968 0
M  V30 40696 H 3994.87 -3.7763 1.78285 0
M  V30 40697 N 3995.3 -1.38182 -0.757851 0
M  V30 40698 C 3996.21 -1.37292 -1.90231 0
M  V30 40699 C 3997.23 -0.270597 -1.71883 0
M  V30 40700 O 3998.41 -0.508313 -1.9488 0
M  V30 40701 C 3995.47 -1.19257 -3.25544 0
M  V30 40702 C 3994.53 -2.39256 -3.56448 0
M  V30 40703 C 3993.77 -2.22071 -4.85304 0
M  V30 40704 O 3993.99 -1.21219 -5.57371 0
M  V30 40705 O 3992.92 -3.10567 -5.15589 0
M  V30 40706 H 3996.75 -2.33715 -1.93936 0
M  V30 40707 H 3994.33 -1.19057 -0.902538 0
M  V30 40708 H 3996.22 -1.11242 -4.06452 0
M  V30 40709 H 3994.89 -0.259166 -3.22661 0
M  V30 40710 H 3993.8 -2.52844 -2.75718 0
M  V30 40711 H 3995.13 -3.31211 -3.64088 0
M  V30 40712 N 3996.78 0.985565 -1.22981 0
M  V30 40713 C 3998.03 1.72273 -1.05671 0
M  V30 40714 C 3998.35 1.90684 0.408012 0
M  V30 40715 O 3997.62 1.47176 1.2929 0
M  V30 40716 H 3996.2 0.638313 -0.388028 0
M  V30 40717 H 3998.86 1.18662 -1.54614 0
M  V30 40718 H 3997.96 2.71433 -1.54048 0
M  V30 40719 N 3998.26 1.04068 1.18353 0
M  V30 40720 C 3999.51 0.742609 1.87962 0
M  V30 40721 C 3999.83 -0.731867 1.80745 0
M  V30 40722 O 3999.1 -1.52811 1.22579 0
M  V30 40723 H 3997.68 0.271701 0.695836 0
M  V30 40724 H 4000.34 1.31744 1.4363 0
M  V30 40725 H 3999.44 1.04747 2.93998 0
M  V30 40726 N 3999.74 -1.34578 0.820149 0
M  V30 40727 C 4000.69 -2.29569 0.238035 0
M  V30 40728 C 4001.66 -1.53457 -0.63561 0
M  V30 40729 O 4002.84 -1.8184 -0.577838 0
M  V30 40730 C 3999.98 -3.39908 -0.596367 0
M  V30 40731 C 3999.09 -4.30963 0.299215 0
M  V30 40732 C 3998.23 -5.28402 -0.544487 0
M  V30 40733 C 3997.27 -6.11095 0.350654 0
M  V30 40734 N 3996.4 -7.00632 -0.453813 0
M  V30 40735 H 4001.24 -2.78759 1.05345 0
M  V30 40736 H 3998.78 -1.37182 0.531001 0
M  V30 40737 H 4000.74 -4.02562 -1.09543 0
M  V30 40738 H 3999.37 -2.9196 -1.37692 0
M  V30 40739 H 3998.42 -3.69195 0.916477 0
M  V30 40740 H 3999.73 -4.88925 0.98763 0
M  V30 40741 H 3998.89 -5.96494 -1.10814 0
M  V30 40742 H 3997.63 -4.7097 -1.26642 0
M  V30 40743 H 3996.63 -5.41938 0.926471 0
M  V30 40744 H 3997.86 -6.70607 1.07065 0
M  V30 40745 H 3995.8 -6.45672 -1.15947 0
M  V30 40746 H 3995.72 -7.55794 0.176271 0
M  V30 40747 H 3996.99 -7.73055 -1.00031 0
M  V30 40748 N 4001.22 -0.574861 -1.46742 0
M  V30 40749 C 4002.47 -0.0552078 -2.01624 0
M  V30 40750 C 4002.78 1.30967 -1.45282 0
M  V30 40751 O 4003.98 1.92023 -1.91936 0
M  V30 40752 C 4002.44 -0.048134 -3.59868 0
M  V30 40753 C 4002.05 -1.41085 -4.25205 0
M  V30 40754 C 4003.79 0.417986 -4.22437 0
M  V30 40755 C 4001.7 -1.36193 -5.75505 0
M  V30 40756 H 4000.63 -0.0168691 -0.753811 0
M  V30 40757 H 4003.28 -0.725342 -1.68556 0
M  V30 40758 H 4001.66 0.688007 -3.89978 0
M  V30 40759 H 4002.84 -2.1661 -4.06715 0
M  V30 40760 H 4001.15 -1.81635 -3.74697 0
M  V30 40761 H 4003.75 0.47326 -5.32601 0
M  V30 40762 H 4004.09 1.43384 -3.90828 0
M  V30 40763 H 4004.62 -0.263845 -3.96924 0
M  V30 40764 H 4001.36 -2.35434 -6.11761 0
M  V30 40765 H 4000.88 -0.64876 -5.96281 0
M  V30 40766 H 4002.56 -1.07148 -6.38066 0
M  V30 40767 N 4002.69 1.54476 -0.312224 0
M  V30 40768 C 4003.63 2.2014 0.601132 0
M  V30 40769 C 4004.61 1.17458 1.12439 0
M  V30 40770 O 4005.79 1.46149 1.1905 0
M  V30 40771 C 4002.92 2.85413 1.82365 0
M  V30 40772 C 4001.96 4.01718 1.43265 0
M  V30 40773 S 4002.8 5.33353 0.479001 0
M  V30 40774 C 4003.95 6.02115 1.70906 0
M  V30 40775 H 4004.18 2.97268 0.0433121 0
M  V30 40776 H 4001.72 1.54099 -0.0963309 0
M  V30 40777 H 4003.68 3.23644 2.52517 0
M  V30 40778 H 4002.34 2.08109 2.35265 0
M  V30 40779 H 4001.53 4.46212 2.34331 0
M  V30 40780 H 4001.13 3.65102 0.810955 0
M  V30 40781 H 4003.42 6.23604 2.6481 0
M  V30 40782 H 4004.37 6.95943 1.30649 0
M  V30 40783 H 4004.77 5.31889 1.89088 0
M  V30 40784 N 4004.17 0.0401637 1.57549 0
M  V30 40785 C 4005.12 -0.937976 2.10881 0
M  V30 40786 C 4006.09 -1.31595 1.0135 0
M  V30 40787 O 4007.27 -1.40735 1.28835 0
M  V30 40788 C 4004.41 -2.21133 2.64942 0
M  V30 40789 C 4003.53 -1.88882 3.8852 0
M  V30 40790 C 4002.66 -3.10594 4.30935 0
M  V30 40791 C 4001.7 -2.74213 5.47242 0
M  V30 40792 N 4000.84 -3.88584 5.84762 0
M  V30 40793 H 4005.68 -0.476276 2.94169 0
M  V30 40794 H 4003.22 -0.223477 1.45393 0
M  V30 40795 H 4005.17 -2.95628 2.9438 0
M  V30 40796 H 4003.8 -2.64899 1.84467 0
M  V30 40797 H 4002.86 -1.04582 3.65741 0
M  V30 40798 H 4004.17 -1.58095 4.73083 0
M  V30 40799 H 4003.32 -3.93399 4.61868 0
M  V30 40800 H 4002.06 -3.4455 3.45161 0
M  V30 40801 H 4001.07 -1.89822 5.15992 0
M  V30 40802 H 4002.29 -2.4146 6.34723 0
M  V30 40803 H 4000.24 -4.22362 5.01942 0
M  V30 40804 H 4000.15 -3.61459 6.63991 0
M  V30 40805 H 4001.42 -4.72061 6.20305 0
M  V30 40806 N 4005.65 -1.55866 -0.233109 0
M  V30 40807 C 4006.9 -1.77542 -0.957174 0
M  V30 40808 C 4007.21 -0.606633 -1.85955 0
M  V30 40809 O 4008.42 -0.706733 -2.6214 0
M  V30 40810 C 4006.87 -3.14372 -1.7521 0
M  V30 40811 C 4006.48 -4.3894 -0.896432 0
M  V30 40812 C 4008.23 -3.45379 -2.46807 0
M  V30 40813 C 4006.13 -5.66797 -1.68804 0
M  V30 40814 H 4005.06 -0.661894 -0.361127 0
M  V30 40815 H 4007.71 -1.82278 -0.211392 0
M  V30 40816 H 4006.1 -3.0378 -2.54035 0
M  V30 40817 H 4007.27 -4.60557 -0.149533 0
M  V30 40818 H 4005.59 -4.15367 -0.293138 0
M  V30 40819 H 4008.18 -4.38126 -3.06512 0
M  V30 40820 H 4008.53 -2.6734 -3.19116 0
M  V30 40821 H 4009.06 -3.57248 -1.74981 0
M  V30 40822 H 4005.8 -6.47696 -1.00844 0
M  V30 40823 H 4005.32 -5.49259 -2.40986 0
M  V30 40824 H 4007 -6.06555 -2.25168 0
M  V30 40825 N 4007.13 0.499346 -1.4948 0
M  V30 40826 C 4008.54 1.08084 -1.52233 0
M  V30 40827 C 4008.89 1.93744 -0.309476 0
M  V30 40828 O 4008.02 2.08467 0.580551 0
M  V30 40829 C 4008.61 1.96689 -2.7586 0
M  V30 40830 C 4007.17 2.49998 -2.81385 0
M  V30 40831 C 4006.32 1.27658 -2.46168 0
M  V30 40832 H 4009.27 0.283183 -1.56153 0
M  V30 40833 H 4009.29 2.81398 -2.56116 0
M  V30 40834 H 4008.8 1.34317 -3.64116 0
M  V30 40835 H 4006.9 3.16004 -1.97413 0
M  V30 40836 H 4007.02 2.87038 -3.83596 0
M  V30 40837 H 4005.38 1.60233 -1.97984 0
M  V30 40838 H 4006.16 0.669915 -3.367 0
M  V30 40839 N 4008.61 1.38582 0.750513 0
M  V30 40840 C 4009.86 1.34692 1.50673 0
M  V30 40841 C 4010.18 -0.0615072 1.94903 0
M  V30 40842 O 4009.45 -1.00979 1.67869 0
M  V30 40843 H 4008.03 0.495615 0.558905 0
M  V30 40844 H 4010.69 1.73293 0.891948 0
M  V30 40845 H 4009.78 1.99973 2.39619 0
M  V30 40846 N 4010.09 -0.979029 1.23502 0
M  V30 40847 C 4011.31 -1.7557 1.09465 0
M  V30 40848 C 4011.73 -1.85456 -0.353768 0
M  V30 40849 O 4011.09 -1.33472 -1.24465 0
M  V30 40850 C 4011.14 -3.18193 1.71568 0
M  V30 40851 O 4010.86 -3.08818 3.10746 0
M  V30 40852 C 4012.36 -4.12249 1.62991 0
M  V30 40853 H 4009.58 -0.55094 0.383023 0
M  V30 40854 H 4012.12 -1.22992 1.63381 0
M  V30 40855 H 4010.28 -3.67794 1.21682 0
M  V30 40856 H 4010.69 -3.98611 3.40895 0
M  V30 40857 H 4012.17 -5.10022 2.11144 0
M  V30 40858 H 4012.64 -4.35233 0.588984 0
M  V30 40859 H 4013.25 -3.68552 2.12248 0
M  V30 40860 N 4011.56 -1.04695 -1.178 0
M  V30 40861 C 4012.8 -0.763028 -1.89624 0
M  V30 40862 C 4013.17 0.696869 -1.78907 0
M  V30 40863 O 4014.37 1.09467 -2.455 0
M  V30 40864 C 4012.64 -1.22406 -3.35785 0
M  V30 40865 S 4014.2 -1.06674 -4.25636 0
M  V30 40866 H 4011.02 -0.277247 -0.654718 0
M  V30 40867 H 4013.62 -1.34054 -1.42301 0
M  V30 40868 H 4012.32 -2.28182 -3.41117 0
M  V30 40869 H 4011.85 -0.640601 -3.88149 0
M  V30 40870 H 4013.87 0.012081 -4.96199 0
M  V30 40871 N 4013.04 1.34141 -0.827275 0
M  V30 40872 C 4014.28 1.99968 -0.423336 0
M  V30 40873 C 4014.65 1.64147 0.995984 0
M  V30 40874 O 4015.85 2.2285 1.50304 0
M  V30 40875 C 4014.12 3.51903 -0.62445 0
M  V30 40876 S 4015.68 4.37675 -0.314007 0
M  V30 40877 H 4012.49 0.69282 -0.159752 0
M  V30 40878 H 4015.1 1.63354 -1.07404 0
M  V30 40879 H 4013.8 3.75461 -1.65703 0
M  V30 40880 H 4013.33 3.93379 0.0408278 0
M  V30 40881 H 4015.35 4.88502 0.870659 0
M  V30 40882 N 4014.52 0.582635 1.46435 0
M  V30 40883 C 4015.8 0.00132605 1.956 0
M  V30 40884 C 4016.18 -1.45939 1.52529 0
M  V30 40885 O 4015.52 -2.14922 0.775949 0
M  V30 40886 C 4015.73 0.173305 3.48569 0
M  V30 40887 C 4017.08 0.0410919 4.2458 0
M  V30 40888 O 4018.11 0.102137 3.56054 0
M  V30 40889 O 4016.97 -0.0946603 5.46418 0
M  V30 40890 H 4014.06 -0.0498561 0.825496 0
M  V30 40891 H 4016.61 0.650948 1.56719 0
M  V30 40892 H 4015.38 1.18877 3.72806 0
M  V30 40893 H 4015 -0.512752 3.9428 0
M  V30 40894 N 4016 -1.54309 0.320412 0
M  V30 40895 C 4017.23 -2.04925 -0.285161 0
M  V30 40896 C 4017.64 -1.19672 -1.46027 0
M  V30 40897 O 4017 -0.226681 -1.81087 0
M  V30 40898 C 4017.05 -3.54203 -0.722673 0
M  V30 40899 O 4016.77 -4.36218 0.405687 0
M  V30 40900 C 4018.27 -4.20898 -1.39138 0
M  V30 40901 H 4015.49 -0.668388 -0.0591494 0
M  V30 40902 H 4018.03 -1.99127 0.465685 0
M  V30 40903 H 4016.19 -3.60299 -1.4235 0
M  V30 40904 H 4016.6 -5.24464 0.0615448 0
M  V30 40905 H 4018.08 -5.2681 -1.64848 0
M  V30 40906 H 4018.55 -3.71819 -2.33768 0
M  V30 40907 H 4019.16 -4.18932 -0.733218 0
M  V30 40908 N 4017.48 -0.0485183 -1.57525 0
M  V30 40909 C 4018.72 0.629784 -1.94456 0
M  V30 40910 C 4019.08 1.68165 -0.926535 0
M  V30 40911 O 4020.28 2.41383 -1.18269 0
M  V30 40912 C 4018.55 1.21278 -3.36194 0
M  V30 40913 S 4020.11 1.90946 -3.95076 0
M  V30 40914 H 4016.93 0.206858 -0.680243 0
M  V30 40915 H 4019.53 -0.116821 -1.95151 0
M  V30 40916 H 4018.23 0.435064 -4.08087 0
M  V30 40917 H 4017.77 1.99626 -3.38988 0
M  V30 40918 H 4019.78 3.18981 -3.80086 0
M  V30 40919 N 4018.95 1.55988 0.224839 0
M  V30 40920 C 4019.86 1.95309 1.29967 0
M  V30 40921 C 4020.88 0.85647 1.51461 0
M  V30 40922 O 4022.06 1.15976 1.64656 0
M  V30 40923 C 4019.12 2.25897 2.63005 0
M  V30 40924 C 4018.18 3.4911 2.49841 0
M  V30 40925 C 4017.41 3.78229 3.76535 0
M  V30 40926 O 4017.64 3.09074 4.79405 0
M  V30 40927 O 4016.57 4.71725 3.73844 0
M  V30 40928 H 4020.4 2.86902 0.996042 0
M  V30 40929 H 4017.98 1.43155 0.427432 0
M  V30 40930 H 4019.86 2.4678 3.41581 0
M  V30 40931 H 4018.54 1.37479 2.93055 0
M  V30 40932 H 4017.45 3.3351 1.69476 0
M  V30 40933 H 4018.78 4.379 2.24731 0
M  V30 40934 N 4020.43 -0.491412 1.49743 0
M  V30 40935 C 4021.34 -1.61807 1.69869 0
M  V30 40936 C 4022.36 -1.63999 0.581415 0
M  V30 40937 O 4023.53 -1.82243 0.857295 0
M  V30 40938 C 4020.6 -2.98131 1.7697 0
M  V30 40939 C 4019.66 -3.06491 3.00603 0
M  V30 40940 C 4018.89 -4.36312 3.07356 0
M  V30 40941 O 4019.12 -5.25662 2.21441 0
M  V30 40942 O 4018.05 -4.49843 3.99906 0
M  V30 40943 H 4021.88 -1.47755 2.65334 0
M  V30 40944 H 4019.46 -0.668737 1.33597 0
M  V30 40945 H 4021.34 -3.79136 1.83939 0
M  V30 40946 H 4020.02 -3.12426 0.846862 0
M  V30 40947 H 4018.92 -2.24638 2.99146 0
M  V30 40948 H 4020.26 -2.97126 3.92399 0
M  V30 40949 N 4021.91 -1.38978 -0.743153 0
M  V30 40950 C 4023.32 -1.31932 -1.32102 0
M  V30 40951 C 4023.67 0.0200986 -1.9619 0
M  V30 40952 O 4022.8 0.922211 -1.95766 0
M  V30 40953 C 4023.39 -2.38934 -2.402 0
M  V30 40954 C 4021.95 -2.35433 -2.9368 0
M  V30 40955 C 4021.1 -2.2125 -1.67164 0
M  V30 40956 H 4024.05 -1.49185 -0.541256 0
M  V30 40957 H 4024.07 -2.05252 -3.20393 0
M  V30 40958 H 4023.58 -3.36406 -1.93526 0
M  V30 40959 H 4021.68 -1.41574 -3.44656 0
M  V30 40960 H 4021.8 -3.29977 -3.47349 0
M  V30 40961 H 4020.16 -1.68281 -1.9119 0
M  V30 40962 H 4020.94 -3.2068 -1.22554 0
M  V30 40963 N 4023.39 0.972465 -1.2402 0
M  V30 40964 C 4024.3 2.10025 -1.04531 0
M  V30 40965 C 4025.31 1.73996 0.0125066 0
M  V30 40966 O 4026.49 2.00552 -0.18465 0
M  V30 40967 C 4023.56 3.40603 -0.647324 0
M  V30 40968 C 4022.62 3.9061 -1.78108 0
M  V30 40969 C 4021.85 5.14956 -1.40199 0
M  V30 40970 O 4022.07 5.69664 -0.289708 0
M  V30 40971 O 4021.01 5.59228 -2.22593 0
M  V30 40972 H 4024.83 2.29359 -1.99068 0
M  V30 40973 H 4022.42 1.08413 -1.02796 0
M  V30 40974 H 4024.3 4.19131 -0.436679 0
M  V30 40975 H 4022.97 3.22581 0.268968 0
M  V30 40976 H 4021.88 3.13164 -2.04644 0
M  V30 40977 H 4023.21 4.13101 -2.67598 0
M  V30 40978 N 4024.87 1.05318 1.17243 0
M  V30 40979 C 4026.11 0.773074 1.89217 0
M  V30 40980 C 4026.47 -0.687371 1.79274 0
M  V30 40981 O 4027.67 -1.08164 2.46077 0
M  V30 40982 C 4025.94 1.24185 3.35131 0
M  V30 40983 S 4027.5 1.0893 4.25064 0
M  V30 40984 H 4024.32 0.280715 0.653238 0
M  V30 40985 H 4026.92 1.34807 1.41588 0
M  V30 40986 H 4025.63 2.29988 3.39902 0
M  V30 40987 H 4025.16 0.661176 3.87804 0
M  V30 40988 H 4027.17 0.0142337 4.96198 0
M  V30 40989 N 4026.34 -1.33701 0.834377 0
M  V30 40990 C 4027.29 -2.31222 0.252859 0
M  V30 40991 C 4028.29 -1.57932 -0.612695 0
M  V30 40992 O 4029.49 -1.72836 -0.502757 0
M  V30 40993 H 4025.87 -0.749353 0.0630375 0
M  V30 40994 H 4027.84 -2.77781 1.08997 0
M  V30 40995 C 4026.59 -3.43143 -0.561071 0
M  V30 40996 H 4025.91 -3.99686 0.0956426 0
M  V30 40997 H 4027.35 -4.13588 -0.933878 0
M  V30 40998 C 4025.81 -2.88602 -1.73812 0
M  V30 40999 O 4026.34 -2.8442 -2.83669 0
M  V30 41000 N 4024.55 -2.4527 -1.55856 0
M  V30 41001 H 4024.09 -2.48871 -0.664916 0
M  V30 41002 H 4024.05 -2.09129 -2.3476 0
M  V30 41003 N 4027.82 -0.590393 -1.46124 0
M  V30 41004 C 4029.1 -0.0116992 -1.95597 0
M  V30 41005 C 4029.48 1.45128 -1.53301 0
M  V30 41006 O 4028.83 2.14507 -0.787336 0
M  V30 41007 C 4029.04 -0.191788 -3.48473 0
M  V30 41008 C 4030.39 -0.0636078 -4.24552 0
M  V30 41009 O 4031.41 -0.121018 -3.55994 0
M  V30 41010 O 4030.27 0.0656811 -5.46461 0
M  V30 41011 H 4027.36 0.0454776 -0.825749 0
M  V30 41012 H 4029.91 -0.65925 -1.56371 0
M  V30 41013 H 4028.68 -1.20852 -3.7217 0
M  V30 41014 H 4028.3 0.491836 -3.94546 0
M  V30 41015 N 4029.3 1.54136 -0.328591 0
M  V30 41016 C 4030.55 1.99839 0.273392 0
M  V30 41017 C 4030.86 1.22052 1.52849 0
M  V30 41018 O 4032.07 1.58156 2.20678 0
M  V30 41019 C 4030.52 3.55861 0.537694 0
M  V30 41020 C 4030.13 4.42487 -0.70064 0
M  V30 41021 C 4031.88 4.10018 1.09936 0
M  V30 41022 C 4029.78 5.89991 -0.407964 0
M  V30 41023 H 4028.71 0.746521 0.105934 0
M  V30 41024 H 4031.36 1.78107 -0.441596 0
M  V30 41025 H 4029.75 3.73599 1.313 0
M  V30 41026 H 4030.92 4.36525 -1.4759 0
M  V30 41027 H 4029.24 3.99246 -1.18287 0
M  V30 41028 H 4031.83 5.17817 1.33303 0
M  V30 41029 H 4032.18 3.62311 2.05029 0
M  V30 41030 H 4032.71 3.95931 0.385113 0
M  V30 41031 H 4029.45 6.41903 -1.32821 0
M  V30 41032 H 4028.97 5.98894 0.329499 0
M  V30 41033 H 4030.65 6.46997 -0.0196528 0
M  V30 41034 N 4030.78 0.0568716 1.57497 0
M  V30 41035 C 4032.01 -0.625067 1.97232 0
M  V30 41036 C 4032.42 -1.64042 0.934651 0
M  V30 41037 O 4031.78 -1.82322 -0.0804743 0
M  V30 41038 C 4031.83 -1.30692 3.37049 0
M  V30 41039 O 4031.55 -0.332226 4.36838 0
M  V30 41040 C 4033.05 -2.07809 3.91574 0
M  V30 41041 H 4030.27 -0.170494 0.648978 0
M  V30 41042 H 4032.82 0.124859 2.04118 0
M  V30 41043 H 4030.97 -2.00804 3.31295 0
M  V30 41044 H 4031.38 -0.8196 5.18057 0
M  V30 41045 H 4032.86 -2.50931 4.91668 0
M  V30 41046 H 4033.34 -2.92858 3.27308 0
M  V30 41047 H 4033.94 -1.42596 4.00682 0
M  V30 41048 N 4032.26 -1.56105 -0.216564 0
M  V30 41049 C 4033.22 -1.91987 -1.25195 0
M  V30 41050 C 4034.22 -0.798909 -1.3955 0
M  V30 41051 O 4035.41 -1.0666 -1.37729 0
M  V30 41052 C 4032.54 -2.17507 -2.62495 0
M  V30 41053 H 4033.73 -2.84595 -0.945804 0
M  V30 41054 H 4031.29 -1.49464 -0.457192 0
M  V30 41055 H 4032.02 -1.27466 -2.98199 0
M  V30 41056 H 4031.81 -2.99174 -2.53451 0
M  V30 41057 H 4033.3 -2.46346 -3.37199 0
M  V30 41058 N 4033.73 0.483463 -1.50001 0
M  V30 41059 C 4035.15 0.816167 -1.37153 0
M  V30 41060 C 4035.35 1.97115 -0.418081 0
M  V30 41061 O 4034.41 2.5209 0.14384 0
M  V30 41062 C 4035.72 1.13987 -2.78258 0
M  V30 41063 C 4037.27 1.24705 -2.87085 0
M  V30 41064 C 4037.74 1.60395 -4.28996 0
M  V30 41065 N 4039.23 1.67411 -4.31889 0
M  V30 41066 C 4039.97 1.96506 -5.38677 0
M  V30 41067 N 4039.46 2.23706 -6.55689 0
M  V30 41068 N 4041.26 1.97905 -5.26108 0
M  V30 41069 H 4033.41 -0.277884 -2.10574 0
M  V30 41070 H 4035.67 -0.061772 -0.945985 0
M  V30 41071 H 4035.38 0.364387 -3.49807 0
M  V30 41072 H 4035.25 2.0791 -3.14727 0
M  V30 41073 H 4037.64 2.01323 -2.15762 0
M  V30 41074 H 4037.72 0.287914 -2.54175 0
M  V30 41075 H 4037.36 0.843222 -5.00851 0
M  V30 41076 H 4037.29 2.57439 -4.59383 0
M  V30 41077 H 4039.78 1.48481 -3.47508 0
M  V30 41078 H 4040.1 2.45145 -7.32887 0
M  V30 41079 H 4038.44 2.21125 -6.58885 0
M  V30 41080 H 4041.63 1.76143 -4.33695 0
M  V30 41081 H 4041.81 2.20245 -6.09423 0
M  V30 41082 N 4035.21 1.39371 0.735772 0
M  V30 41083 C 4036.14 1.40764 1.863 0
M  V30 41084 C 4037.12 0.2711 1.67926 0
M  V30 41085 O 4038.31 0.476806 1.88256 0
M  V30 41086 C 4035.44 1.2496 3.2404 0
M  V30 41087 C 4034.39 2.36006 3.57051 0
M  V30 41088 C 4033.72 2.05293 4.9372 0
M  V30 41089 C 4035.02 3.78316 3.60103 0
M  V30 41090 H 4036.71 2.35096 1.85392 0
M  V30 41091 H 4034.26 1.13161 0.890532 0
M  V30 41092 H 4036.21 1.24556 4.02571 0
M  V30 41093 H 4034.94 0.270959 3.25474 0
M  V30 41094 H 4033.59 2.35626 2.80849 0
M  V30 41095 H 4033.24 1.05868 4.91733 0
M  V30 41096 H 4032.94 2.79676 5.16774 0
M  V30 41097 H 4034.47 2.06537 5.74608 0
M  V30 41098 H 4035.88 3.8063 4.28712 0
M  V30 41099 H 4034.28 4.52053 3.94675 0
M  V30 41100 H 4035.35 4.0935 2.59925 0
M  V30 41101 N 4036.69 -0.965875 1.24534 0
M  V30 41102 C 4037.62 -2.06371 0.997179 0
M  V30 41103 C 4038.64 -1.62764 -0.0339975 0
M  V30 41104 O 4039.83 -1.77339 0.203254 0
M  V30 41105 C 4036.93 -3.35435 0.483364 0
M  V30 41106 C 4036.1 -4.0794 1.5781 0
M  V30 41107 C 4035.16 -5.15276 1.06661 0
M  V30 41108 O 4034.18 -5.41349 1.75869 0
M  V30 41109 N 4035.39 -5.80417 -0.0980099 0
M  V30 41110 H 4038.15 -2.28233 1.94242 0
M  V30 41111 H 4035.71 -1.13363 1.15588 0
M  V30 41112 H 4037.7 -4.04504 0.125904 0
M  V30 41113 H 4036.27 -3.1043 -0.367654 0
M  V30 41114 H 4035.49 -3.33123 2.10766 0
M  V30 41115 H 4036.78 -4.53141 2.31388 0
M  V30 41116 H 4036.18 -5.6164 -0.676563 0
M  V30 41117 H 4034.74 -6.50592 -0.3966 0
M  V30 41118 N 4038.17 -1.05938 -1.16683 0
M  V30 41119 C 4039.4 -0.793434 -1.90757 0
M  V30 41120 C 4039.81 0.655562 -1.7748 0
M  V30 41121 O 4039.15 1.46022 -1.1146 0
M  V30 41122 C 4039.21 -1.10412 -3.42125 0
M  V30 41123 C 4038.88 -2.55081 -3.79187 0
M  V30 41124 C 4039.87 -3.53307 -3.81406 0
M  V30 41125 C 4037.56 -2.90287 -4.09925 0
M  V30 41126 C 4039.55 -4.8478 -4.13845 0
M  V30 41127 C 4037.24 -4.21961 -4.42032 0
M  V30 41128 C 4038.24 -5.19017 -4.43971 0
M  V30 41129 O 4037.93 -6.48328 -4.75317 0
M  V30 41130 H 4037.66 -0.287428 -0.61185 0
M  V30 41131 H 4040.21 -1.4153 -1.48857 0
M  V30 41132 H 4038.44 -0.425173 -3.84356 0
M  V30 41133 H 4040.13 -0.822988 -3.97469 0
M  V30 41134 H 4040.9 -3.27449 -3.57774 0
M  V30 41135 H 4036.78 -2.154 -4.07583 0
M  V30 41136 H 4040.32 -5.6053 -4.15273 0
M  V30 41137 H 4036.22 -4.47578 -4.65128 0
M  V30 41138 H 4036.98 -6.53263 -4.93143 0
M  V30 41139 N 4039.65 1.33256 -0.841456 0
M  V30 41140 C 4040.89 1.9799 -0.439062 0
M  V30 41141 C 4041.23 1.6649 0.999737 0
M  V30 41142 O 4040.5 0.946149 1.69936 0
M  V30 41143 C 4040.78 3.5394 -0.663199 0
M  V30 41144 C 4040.64 3.95118 -2.14946 0
M  V30 41145 C 4041.96 4.3996 -0.111017 0
M  V30 41146 H 4039.08 0.7192 -0.160999 0
M  V30 41147 H 4041.72 1.57855 -1.05745 0
M  V30 41148 H 4039.87 3.88259 -0.136833 0
M  V30 41149 H 4041.54 3.71043 -2.74089 0
M  V30 41150 H 4039.78 3.44755 -2.63299 0
M  V30 41151 H 4040.45 5.03748 -2.25703 0
M  V30 41152 H 4042.93 4.12301 -0.560971 0
M  V30 41153 H 4041.81 5.48093 -0.297512 0
M  V30 41154 H 4042.07 4.30979 0.98537 0
M  V30 41155 N 4041.13 0.598134 1.45809 0
M  V30 41156 C 4042.07 -0.12622 2.30455 0
M  V30 41157 C 4043.04 -0.869196 1.41542 0
M  V30 41158 O 4044.23 -0.856811 1.7048 0
M  V30 41159 C 4041.37 -1.12387 3.26287 0
M  V30 41160 C 4040.48 -0.382749 4.30301 0
M  V30 41161 C 4039.62 -1.36928 5.13249 0
M  V30 41162 C 4038.65 -0.615438 6.08998 0
M  V30 41163 N 4037.79 -1.55079 6.84759 0
M  V30 41164 H 4042.63 0.601624 2.91864 0
M  V30 41165 H 4040.17 0.308492 1.43829 0
M  V30 41166 H 4042.13 -1.71532 3.80306 0
M  V30 41167 H 4040.76 -1.81924 2.66652 0
M  V30 41168 H 4039.81 0.324029 3.79017 0
M  V30 41169 H 4041.12 0.205868 4.98375 0
M  V30 41170 H 4040.27 -2.03308 5.71621 0
M  V30 41171 H 4039.01 -1.99183 4.45171 0
M  V30 41172 H 4038.02 0.0620407 5.49765 0
M  V30 41173 H 4039.24 0.00193188 6.791 0
M  V30 41174 H 4037.19 -2.16116 6.19379 0
M  V30 41175 H 4037.11 -1.01537 7.4915 0
M  V30 41176 H 4038.37 -2.20445 7.47679 0
M  V30 41177 N 4042.6 -1.5396 0.33676 0
M  V30 41178 C 4043.85 -2.01098 -0.262213 0
M  V30 41179 C 4044.18 -1.22434 -1.50743 0
M  V30 41180 O 4043.46 -0.310137 -1.92011 0
M  V30 41181 C 4043.74 -3.55347 -0.583156 0
M  V30 41182 C 4043.59 -4.44726 0.673688 0
M  V30 41183 C 4044.91 -4.17389 -1.39551 0
M  V30 41184 H 4042.03 -0.731003 -0.0938295 0
M  V30 41185 H 4044.67 -1.84448 0.455954 0
M  V30 41186 H 4042.82 -3.69665 -1.19499 0
M  V30 41187 H 4044.5 -4.42256 1.31176 0
M  V30 41188 H 4042.74 -4.13865 1.29994 0
M  V30 41189 H 4043.41 -5.50516 0.404478 0
M  V30 41190 H 4045.89 -4.06727 -0.87822 0
M  V30 41191 H 4044.76 -5.25402 -1.58883 0
M  V30 41192 H 4045.02 -3.71569 -2.3956 0
M  V30 41193 N 4044.08 -0.0652232 -1.57465 0
M  V30 41194 C 4045.33 0.604199 -1.92857 0
M  V30 41195 C 4045.65 1.70546 -0.945461 0
M  V30 41196 O 4044.92 1.95899 0.007457 0
M  V30 41197 H 4043.5 0.226173 -0.711937 0
M  V30 41198 H 4046.16 -0.121533 -1.94521 0
M  V30 41199 H 4045.26 1.03376 -2.94482 0
M  V30 41200 N 4045.56 1.56218 0.208282 0
M  V30 41201 C 4046.78 1.84292 0.951371 0
M  V30 41202 C 4047.21 0.647199 1.76615 0
M  V30 41203 O 4046.57 -0.40405 1.7674 0
M  V30 41204 C 4046.62 3.1048 1.83398 0
M  V30 41205 O 4045.72 2.90106 2.93108 0
M  V30 41206 H 4045.06 0.607222 0.268658 0
M  V30 41207 H 4047.59 2.0344 0.217582 0
M  V30 41208 H 4047.6 3.40931 2.24121 0
M  V30 41209 H 4046.28 3.97134 1.23521 0
M  V30 41210 H 4044.85 2.70921 2.56235 0
M  V30 41211 N 4047.04 -0.475502 1.50256 0
M  V30 41212 C 4048.28 -1.2378 1.62659 0
M  V30 41213 C 4048.64 -1.89351 0.317838 0
M  V30 41214 O 4049.84 -2.66921 0.317266 0
M  V30 41215 C 4048.11 -2.25699 2.77118 0
M  V30 41216 S 4049.67 -3.10927 3.09629 0
M  V30 41217 H 4046.49 -0.420311 0.573463 0
M  V30 41218 H 4049.09 -0.535558 1.88021 0
M  V30 41219 H 4047.8 -1.761 3.70698 0
M  V30 41220 H 4047.33 -3.00558 2.53828 0
M  V30 41221 H 4049.34 -4.26788 2.53114 0
M  V30 41222 N 4048.52 -1.39759 -0.72837 0
M  V30 41223 C 4049.46 -1.39008 -1.84243 0
M  V30 41224 C 4050.43 -0.248812 -1.64226 0
M  V30 41225 O 4051.62 -0.444937 -1.8554 0
M  V30 41226 C 4048.76 -1.24588 -3.21826 0
M  V30 41227 C 4047.87 -2.48315 -3.53502 0
M  V30 41228 C 4047.01 -2.26433 -4.80522 0
M  V30 41229 C 4046.04 -3.45801 -5.05063 0
M  V30 41230 N 4045.18 -3.23195 -6.23289 0
M  V30 41231 H 4050.02 -2.34237 -1.8422 0
M  V30 41232 H 4047.56 -1.16349 -0.900074 0
M  V30 41233 H 4049.52 -1.14238 -4.01255 0
M  V30 41234 H 4048.15 -0.329849 -3.2111 0
M  V30 41235 H 4047.2 -2.69243 -2.68724 0
M  V30 41236 H 4048.51 -3.37204 -3.67553 0
M  V30 41237 H 4047.66 -2.13363 -5.67945 0
M  V30 41238 H 4046.4 -1.34949 -4.68658 0
M  V30 41239 H 4045.41 -3.59362 -4.161 0
M  V30 41240 H 4046.63 -4.38195 -5.18808 0
M  V30 41241 H 4044.58 -2.34381 -6.127 0
M  V30 41242 H 4044.5 -4.05644 -6.37957 0
M  V30 41243 H 4045.76 -3.13832 -7.13533 0
M  V30 41244 N 4049.99 0.959257 -1.25044 0
M  V30 41245 C 4051.22 1.74339 -1.12342 0
M  V30 41246 C 4051.64 1.8537 0.319309 0
M  V30 41247 O 4051 1.33077 1.23127 0
M  V30 41248 C 4051.05 3.13753 -1.77739 0
M  V30 41249 O 4050.15 3.98706 -1.0539 0
M  V30 41250 H 4049.49 0.535582 -0.392489 0
M  V30 41251 H 4052.02 1.20271 -1.65518 0
M  V30 41252 H 4052.03 3.64236 -1.83838 0
M  V30 41253 H 4050.71 3.0504 -2.82707 0
M  V30 41254 H 4049.29 3.57177 -1.07138 0
M  V30 41255 N 4051.47 1.06556 1.16119 0
M  V30 41256 C 4052.38 0.689872 2.24227 0
M  V30 41257 C 4053.4 -0.295277 1.71476 0
M  V30 41258 O 4054.57 -0.143928 2.00885 0
M  V30 41259 C 4051.64 0.0848467 3.46596 0
M  V30 41260 C 4050.7 1.1222 4.14373 0
M  V30 41261 C 4049.93 0.545953 5.309 0
M  V30 41262 O 4050.16 -0.640488 5.66793 0
M  V30 41263 O 4049.09 1.28693 5.87981 0
M  V30 41264 H 4052.92 1.59122 2.58677 0
M  V30 41265 H 4050.5 0.837988 1.23686 0
M  V30 41266 H 4052.38 -0.25069 4.20654 0
M  V30 41267 H 4051.06 -0.789943 3.13913 0
M  V30 41268 H 4049.97 1.50996 3.42273 0
M  V30 41269 H 4051.3 1.96861 4.51117 0
M  V30 41270 N 4052.95 -1.32808 0.848511 0
M  V30 41271 C 4054.2 -1.97754 0.449556 0
M  V30 41272 C 4054.53 -1.67018 -0.990894 0
M  V30 41273 O 4053.8 -0.955148 -1.69432 0
M  V30 41274 C 4054.09 -3.53584 0.68196 0
M  V30 41275 C 4053.94 -3.93973 2.17038 0
M  V30 41276 C 4055.26 -4.39895 0.134348 0
M  V30 41277 H 4052.38 -0.718336 0.164811 0
M  V30 41278 H 4055.02 -1.57292 1.0658 0
M  V30 41279 H 4053.17 -3.88181 0.157421 0
M  V30 41280 H 4054.84 -3.69584 2.76053 0
M  V30 41281 H 4053.09 -3.43354 2.65123 0
M  V30 41282 H 4053.76 -5.02544 2.28371 0
M  V30 41283 H 4056.23 -4.11998 0.582828 0
M  V30 41284 H 4055.11 -5.47928 0.326575 0
M  V30 41285 H 4055.37 -4.31495 -0.9625 0
M  V30 41286 N 4054.43 -0.605858 -1.45489 0
M  V30 41287 C 4055.34 0.115874 -2.34314 0
M  V30 41288 C 4056.35 0.862173 -1.51138 0
M  V30 41289 O 4057.53 0.820149 -1.83944 0
M  V30 41290 C 4054.6 1.10183 -3.28726 0
M  V30 41291 C 4053.66 0.357674 -4.27807 0
M  V30 41292 C 4052.89 1.29666 -5.17709 0
M  V30 41293 O 4053.11 2.53439 -5.11004 0
M  V30 41294 O 4052.05 0.794662 -5.96631 0
M  V30 41295 H 4055.87 -0.614034 -2.97428 0
M  V30 41296 H 4053.46 -0.366129 -1.44844 0
M  V30 41297 H 4055.34 1.66973 -3.86908 0
M  V30 41298 H 4054.01 1.81279 -2.68178 0
M  V30 41299 H 4052.92 -0.252653 -3.73246 0
M  V30 41300 H 4054.25 -0.312768 -4.91205 0
M  V30 41301 N 4055.91 1.53779 -0.34492 0
M  V30 41302 C 4057.15 2.01234 0.251544 0
M  V30 41303 C 4057.49 1.23232 1.50092 0
M  V30 41304 O 4056.76 0.320316 1.91844 0
M  V30 41305 C 4057.04 3.55651 0.564303 0
M  V30 41306 C 4056.9 4.44363 -0.697264 0
M  V30 41307 C 4058.22 4.18123 1.37336 0
M  V30 41308 H 4055.33 0.73149 0.0899515 0
M  V30 41309 H 4057.98 1.84204 -0.465729 0
M  V30 41310 H 4056.13 3.70294 1.17537 0
M  V30 41311 H 4057.8 4.41554 -1.3352 0
M  V30 41312 H 4056.04 4.13169 -1.32187 0
M  V30 41313 H 4056.71 5.50294 -0.433668 0
M  V30 41314 H 4059.19 4.07187 0.856638 0
M  V30 41315 H 4058.06 5.26237 1.56094 0
M  V30 41316 H 4058.33 3.72834 2.37586 0
M  V30 41317 N 4057.38 0.0735731 1.57428 0
M  V30 41318 C 4058.66 -0.636232 1.84963 0
M  V30 41319 C 4059.04 -1.87682 0.966374 0
M  V30 41320 O 4058.39 -2.28476 0.0331239 0
M  V30 41321 C 4058.6 -0.972192 3.35186 0
M  V30 41322 C 4059.95 -1.34491 4.02737 0
M  V30 41323 O 4060.97 -1.06387 3.39942 0
M  V30 41324 O 4059.83 -1.87034 5.13498 0
M  V30 41325 H 4056.92 -0.316174 0.764175 0
M  V30 41326 H 4059.47 0.104639 1.69377 0
M  V30 41327 H 4058.24 -0.0911631 3.91194 0
M  V30 41328 H 4057.87 -1.76977 3.56041 0
M  V30 41329 N 4058.86 -1.56326 -0.199995 0
M  V30 41330 C 4060.11 -1.79532 -0.919299 0
M  V30 41331 C 4060.42 -0.645941 -1.84627 0
M  V30 41332 O 4061.63 -0.762178 -2.60582 0
M  V30 41333 C 4060.09 -3.18017 -1.68502 0
M  V30 41334 C 4059.69 -4.40742 -0.803125 0
M  V30 41335 C 4061.44 -3.50536 -2.39426 0
M  V30 41336 C 4059.35 -5.7025 -1.56743 0
M  V30 41337 H 4058.28 -0.669405 -0.347006 0
M  V30 41338 H 4060.93 -1.82686 -0.172681 0
M  V30 41339 H 4059.31 -3.091 -2.47535 0
M  V30 41340 H 4060.48 -4.60771 -0.0518079 0
M  V30 41341 H 4058.8 -4.15895 -0.204966 0
M  V30 41342 H 4061.39 -4.44529 -2.9715 0
M  V30 41343 H 4061.74 -2.74049 -3.13374 0
M  V30 41344 H 4062.27 -3.6088 -1.67364 0
M  V30 41345 H 4059.01 -6.4969 -0.870828 0
M  V30 41346 H 4058.53 -5.54248 -2.29281 0
M  V30 41347 H 4060.21 -6.11194 -2.12251 0
M  V30 41348 N 4060.34 0.467527 -1.50506 0
M  V30 41349 C 4061.29 1.56277 -1.66017 0
M  V30 41350 C 4062.27 1.52446 -0.514697 0
M  V30 41351 O 4063.47 1.59409 -0.769266 0
M  V30 41352 C 4060.6 2.94697 -1.76093 0
M  V30 41353 C 4059.68 3.03398 -2.96328 0
M  V30 41354 N 4060.07 2.81906 -4.19955 0
M  V30 41355 C 4058.37 3.34537 -2.94959 0
M  V30 41356 C 4059.07 2.95667 -5.00955 0
M  V30 41357 N 4058.05 3.26023 -4.34982 0
M  V30 41358 H 4061.85 1.38365 -2.59292 0
M  V30 41359 H 4059.36 0.674321 -1.47739 0
M  V30 41360 H 4061.36 3.73451 -1.8531 0
M  V30 41361 H 4060.02 3.13652 -0.839789 0
M  V30 41362 H 4061.03 2.57418 -4.49395 0
M  V30 41363 H 4057.71 3.59458 -2.12359 0
M  V30 41364 H 4059.1 2.8326 -6.09273 0
M  V30 41365 N 4061.82 1.40143 0.720948 0
M  V30 41366 C 4063.05 1.41229 1.50791 0
M  V30 41367 C 4063.46 0.00882748 1.89198 0
M  V30 41368 O 4062.8 -0.976309 1.55608 0
M  V30 41369 C 4062.86 2.23432 2.81635 0
M  V30 41370 C 4062.53 3.71908 2.65582 0
M  V30 41371 C 4063.52 4.64667 2.33196 0
M  V30 41372 C 4061.21 4.1566 2.82014 0
M  V30 41373 C 4063.2 5.99164 2.17443 0
M  V30 41374 C 4060.89 5.50228 2.65879 0
M  V30 41375 C 4061.89 6.41795 2.33641 0
M  V30 41376 O 4061.57 7.73883 2.17624 0
M  V30 41377 H 4061.31 0.483832 0.472104 0
M  V30 41378 H 4063.86 1.84761 0.897358 0
M  V30 41379 H 4062.09 1.74671 3.45003 0
M  V30 41380 H 4063.78 2.16524 3.43325 0
M  V30 41381 H 4064.55 4.32162 2.20139 0
M  V30 41382 H 4060.42 3.44712 3.06095 0
M  V30 41383 H 4063.97 6.706 1.92203 0
M  V30 41384 H 4059.87 5.82321 2.78519 0
M  V30 41385 H 4060.63 7.84759 2.32585 0
M  V30 41386 N 4063.3 -0.952612 1.25551 0
M  V30 41387 C 4064.54 -1.71228 1.11626 0
M  V30 41388 C 4064.9 -1.89025 -0.336704 0
M  V30 41389 O 4066.1 -2.62068 -0.597818 0
M  V30 41390 C 4064.37 -3.05674 1.85198 0
M  V30 41391 S 4065.93 -3.9687 1.87189 0
M  V30 41392 H 4062.75 -0.588526 0.398947 0
M  V30 41393 H 4065.35 -1.13604 1.59105 0
M  V30 41394 H 4064.06 -2.90393 2.9 0
M  V30 41395 H 4063.59 -3.68359 1.38114 0
M  V30 41396 H 4065.6 -4.87014 0.950378 0
M  V30 41397 N 4064.77 -1.0717 -1.15553 0
M  V30 41398 C 4065.71 -0.648323 -2.1984 0
M  V30 41399 C 4066.72 0.298219 -1.60045 0
M  V30 41400 O 4067.91 0.0878252 -1.78284 0
M  V30 41401 C 4065.01 0.0685265 -3.38831 0
M  V30 41402 C 4064.18 -0.893736 -4.28172 0
M  V30 41403 C 4063.24 -0.214516 -5.25763 0
M  V30 41404 O 4062.27 -0.854982 -5.62742 0
M  V30 41405 N 4063.47 1.04053 -5.71098 0
M  V30 41406 H 4066.23 -1.54543 -2.56781 0
M  V30 41407 H 4063.79 -0.95615 -1.3065 0
M  V30 41408 H 4065.79 0.533543 -4.01168 0
M  V30 41409 H 4064.36 0.867557 -3.0032 0
M  V30 41410 H 4063.58 -1.53791 -3.62963 0
M  V30 41411 H 4064.86 -1.54622 -4.84737 0
M  V30 41412 H 4064.26 1.58085 -5.43163 0
M  V30 41413 H 4062.82 1.44926 -6.35484 0
M  V30 41414 N 4066.25 1.32356 -0.855542 0
M  V30 41415 C 4067.5 1.96832 -0.458449 0
M  V30 41416 C 4067.82 1.68034 0.989431 0
M  V30 41417 O 4067.09 0.988025 1.69159 0
M  V30 41418 H 4065.67 0.728199 -0.16654 0
M  V30 41419 H 4068.33 1.61424 -1.09216 0
M  V30 41420 H 4067.43 3.06195 -0.604239 0
M  V30 41421 N 4067.73 0.613565 1.45166 0
M  V30 41422 C 4068.68 -0.101771 2.30576 0
M  V30 41423 C 4069.65 -0.854135 1.42456 0
M  V30 41424 O 4070.83 -0.838681 1.71379 0
M  V30 41425 C 4067.97 -1.0892 3.27461 0
M  V30 41426 C 4067.09 -0.337088 4.30683 0
M  V30 41427 C 4066.22 -1.31477 5.14672 0
M  V30 41428 C 4065.26 -0.550811 6.09617 0
M  V30 41429 N 4064.4 -1.47808 6.86365 0
M  V30 41430 H 4069.24 0.632546 2.91209 0
M  V30 41431 H 4066.77 0.32373 1.43494 0
M  V30 41432 H 4068.73 -1.67489 3.82104 0
M  V30 41433 H 4067.36 -1.79086 2.68567 0
M  V30 41434 H 4066.41 0.364211 3.78652 0
M  V30 41435 H 4067.73 0.258716 4.98129 0
M  V30 41436 H 4066.88 -1.97233 5.73746 0
M  V30 41437 H 4065.62 -1.94451 4.47259 0
M  V30 41438 H 4064.62 0.120347 5.49668 0
M  V30 41439 H 4065.85 0.0739594 6.7906 0
M  V30 41440 H 4063.8 -2.09534 6.21636 0
M  V30 41441 H 4063.71 -0.935857 7.50185 0
M  V30 41442 H 4064.98 -2.12503 7.49975 0
M  V30 41443 N 4069.21 -1.53594 0.353071 0
M  V30 41444 C 4070.45 -2.02977 -0.24074 0
M  V30 41445 C 4070.81 -1.23505 -1.47005 0
M  V30 41446 O 4072.01 -1.62833 -2.13866 0
M  V30 41447 C 4070.29 -3.5333 -0.537812 0
M  V30 41448 S 4071.84 -4.24605 -1.10708 0
M  V30 41449 H 4068.66 -0.707444 -0.0710188 0
M  V30 41450 H 4071.26 -1.89181 0.49304 0
M  V30 41451 H 4069.97 -4.08778 0.364559 0
M  V30 41452 H 4069.5 -3.71265 -1.301 0
M  V30 41453 H 4071.51 -4.34728 -2.39219 0
M  V30 41454 N 4070.69 -0.0819208 -1.57387 0
M  V30 41455 C 4071.65 0.867143 -2.12163 0
M  V30 41456 C 4072.65 1.21966 -1.0479 0
M  V30 41457 O 4073.84 1.15126 -1.30735 0
M  V30 41458 C 4070.97 2.16732 -2.63135 0
M  V30 41459 H 4072.17 0.391735 -2.97331 0
M  V30 41460 H 4069.72 0.166916 -1.55406 0
M  V30 41461 H 4070.45 2.68786 -1.81451 0
M  V30 41462 H 4070.24 1.92439 -3.41628 0
M  V30 41463 H 4071.73 2.84651 -3.05554 0
M  V30 41464 N 4072.17 1.5643 0.191702 0
M  V30 41465 C 4073.39 1.85291 0.931771 0
M  V30 41466 C 4073.82 0.665895 1.75919 0
M  V30 41467 O 4073.17 -0.385282 1.77159 0
M  V30 41468 C 4073.22 3.12407 1.80094 0
M  V30 41469 O 4072.33 2.93198 2.90015 0
M  V30 41470 H 4071.67 0.610038 0.262202 0
M  V30 41471 H 4074.2 2.03659 0.195992 0
M  V30 41472 H 4074.21 3.43288 2.20493 0
M  V30 41473 H 4072.88 3.98422 1.19302 0
M  V30 41474 H 4071.46 2.73623 2.53347 0
M  V30 41475 N 4073.64 -0.459538 1.50751 0
M  V30 41476 C 4074.59 -1.55606 1.70457 0
M  V30 41477 C 4075.56 -1.56871 0.545949 0
M  V30 41478 O 4076.75 -1.74224 0.777855 0
M  V30 41479 C 4073.89 -2.93498 1.81529 0
M  V30 41480 C 4073 -3.01933 3.08967 0
M  V30 41481 C 4072.13 -4.30811 3.10766 0
M  V30 41482 C 4071.17 -4.3303 4.3261 0
M  V30 41483 N 4070.31 -5.53397 4.32083 0
M  V30 41484 H 4075.15 -1.38108 2.64065 0
M  V30 41485 H 4072.69 -0.671284 1.3089 0
M  V30 41486 H 4074.64 -3.73478 1.8593 0
M  V30 41487 H 4073.27 -3.09605 0.9135 0
M  V30 41488 H 4072.33 -2.14753 3.13983 0
M  V30 41489 H 4073.64 -2.99433 3.98925 0
M  V30 41490 H 4072.79 -5.19147 3.1396 0
M  V30 41491 H 4071.53 -4.35936 2.18658 0
M  V30 41492 H 4070.54 -3.43089 4.29616 0
M  V30 41493 H 4071.76 -4.29587 5.25958 0
M  V30 41494 H 4069.71 -5.59286 3.42834 0
M  V30 41495 H 4069.62 -5.52686 5.15824 0
M  V30 41496 H 4070.89 -6.43827 4.39439 0
M  V30 41497 N 4075.12 -1.40523 -0.713506 0
M  V30 41498 C 4076.08 -1.40702 -1.8093 0
M  V30 41499 C 4077.08 -0.300477 -1.57968 0
M  V30 41500 O 4078.27 -0.559485 -1.64971 0
M  V30 41501 C 4075.41 -1.2008 -3.19051 0
M  V30 41502 H 4076.6 -2.38231 -1.8217 0
M  V30 41503 H 4074.15 -1.26403 -0.919352 0
M  V30 41504 H 4074.89 -0.233194 -3.23461 0
M  V30 41505 H 4074.67 -2.00235 -3.37117 0
M  V30 41506 H 4076.16 -1.22998 -3.99076 0
M  V30 41507 N 4076.6 0.94594 -1.26054 0
M  V30 41508 C 4077.53 2.04375 -1.01519 0
M  V30 41509 C 4078.51 1.62495 0.0584822 0
M  V30 41510 O 4079.69 1.88317 -0.0829609 0
M  V30 41511 C 4076.82 3.34426 -0.536351 0
M  V30 41512 C 4075.87 3.95275 -1.60186 0
M  V30 41513 S 4076.7 4.30153 -3.18949 0
M  V30 41514 C 4077.86 5.6331 -2.72823 0
M  V30 41515 H 4078.09 2.24874 -1.94471 0
M  V30 41516 H 4075.62 1.08671 -1.09681 0
M  V30 41517 H 4077.58 4.09632 -0.266741 0
M  V30 41518 H 4076.24 3.1188 0.372819 0
M  V30 41519 H 4075.43 4.89068 -1.21772 0
M  V30 41520 H 4075.04 3.26584 -1.8226 0
M  V30 41521 H 4077.33 6.41811 -2.1699 0
M  V30 41522 H 4078.27 6.06605 -3.65289 0
M  V30 41523 H 4078.68 5.2296 -2.12539 0
M  V30 41524 N 4078.08 1.07781 1.14983 0
M  V30 41525 C 4079.31 0.823682 1.8947 0
M  V30 41526 C 4079.72 -0.627243 1.785 0
M  V30 41527 O 4079.06 -1.4423 1.13769 0
M  V30 41528 C 4079.12 1.15841 3.40325 0
M  V30 41529 C 4078.78 2.61081 3.75081 0
M  V30 41530 C 4079.78 3.5933 3.75737 0
M  V30 41531 C 4077.47 2.96772 4.05255 0
M  V30 41532 C 4079.46 4.91302 4.0608 0
M  V30 41533 C 4077.15 4.2894 4.35263 0
M  V30 41534 C 4078.15 5.26015 4.35657 0
M  V30 41535 O 4077.83 6.55808 4.64942 0
M  V30 41536 H 4077.57 0.297126 0.6072 0
M  V30 41537 H 4080.12 1.4388 1.46587 0
M  V30 41538 H 4078.35 0.486267 3.8363 0
M  V30 41539 H 4080.04 0.886117 3.9611 0
M  V30 41540 H 4080.8 3.331 3.52519 0
M  V30 41541 H 4076.68 2.21857 4.04105 0
M  V30 41542 H 4080.23 5.67066 4.06303 0
M  V30 41543 H 4076.12 4.54921 4.57949 0
M  V30 41544 H 4076.89 6.61026 4.82688 0
M  V30 41545 N 4079.56 -1.31901 0.862549 0
M  V30 41546 C 4080.78 -2.01693 0.483195 0
M  V30 41547 C 4081.21 -1.64359 -0.91475 0
M  V30 41548 O 4080.56 -0.848337 -1.60228 0
M  V30 41549 C 4080.61 -3.54894 0.638973 0
M  V30 41550 O 4079.72 -4.11118 -0.32489 0
M  V30 41551 H 4079.06 -0.63529 0.193139 0
M  V30 41552 H 4081.59 -1.68268 1.16392 0
M  V30 41553 H 4081.6 -4.0455 0.529465 0
M  V30 41554 H 4080.27 -3.81408 1.65834 0
M  V30 41555 H 4078.85 -3.72508 -0.17096 0
M  V30 41556 N 4081.03 -0.621255 -1.44838 0
M  V30 41557 C 4082.28 -0.119325 -2.01347 0
M  V30 41558 C 4082.6 1.26279 -1.49375 0
M  V30 41559 O 4083.8 1.8582 -1.97948 0
M  V30 41560 C 4082.26 -0.162599 -3.59533 0
M  V30 41561 C 4081.87 -1.54541 -4.20501 0
M  V30 41562 C 4083.61 0.283379 -4.23553 0
M  V30 41563 C 4081.52 -1.54433 -5.7088 0
M  V30 41564 H 4080.45 -0.0408425 -0.752893 0
M  V30 41565 H 4083.1 -0.7786 -1.66163 0
M  V30 41566 H 4081.48 0.56359 -3.91969 0
M  V30 41567 H 4082.65 -2.2944 -3.99617 0
M  V30 41568 H 4080.97 -1.93464 -3.68729 0
M  V30 41569 H 4083.57 0.303577 -5.33838 0
M  V30 41570 H 4083.91 1.30877 -3.95192 0
M  V30 41571 H 4084.44 -0.389989 -3.95884 0
M  V30 41572 H 4081.18 -2.54777 -6.03961 0
M  V30 41573 H 4080.7 -0.838133 -5.93915 0
M  V30 41574 H 4082.38 -1.27394 -6.34334 0
M  V30 41575 N 4082.51 1.53405 -0.361211 0
M  V30 41576 C 4083.79 1.93498 0.286013 0
M  V30 41577 C 4084.17 1.29437 1.66761 0
M  V30 41578 O 4083.52 0.451825 2.23988 0
M  V30 41579 C 4083.73 3.47334 0.340602 0
M  V30 41580 C 4085.08 4.20578 0.583036 0
M  V30 41581 O 4086.1 3.53691 0.421992 0
M  V30 41582 O 4084.96 5.391 0.896288 0
M  V30 41583 H 4082.05 0.809218 0.170576 0
M  V30 41584 H 4084.6 1.64581 -0.413677 0
M  V30 41585 H 4083.37 3.86224 -0.628243 0
M  V30 41586 H 4082.99 3.82471 1.08636 0
M  V30 41587 N 4083.99 0.0902663 1.57341 0
M  V30 41588 C 4085.24 -0.574239 1.93353 0
M  V30 41589 C 4085.55 -1.69638 0.97377 0
M  V30 41590 O 4086.76 -2.42171 1.22742 0
M  V30 41591 C 4085.21 -1.07283 3.43538 0
M  V30 41592 C 4084.82 0.019295 4.47996 0
M  V30 41593 C 4086.57 -1.71035 3.88519 0
M  V30 41594 C 4084.47 -0.494383 5.8933 0
M  V30 41595 H 4083.4 -0.218275 0.721715 0
M  V30 41596 H 4086.05 0.165488 1.82752 0
M  V30 41597 H 4084.44 -1.8661 3.49275 0
M  V30 41598 H 4085.61 0.794607 4.53897 0
M  V30 41599 H 4083.93 0.5617 4.12594 0
M  V30 41600 H 4086.52 -2.10531 4.91509 0
M  V30 41601 H 4086.87 -2.57763 3.269 0
M  V30 41602 H 4087.4 -0.98299 3.85464 0
M  V30 41603 H 4084.14 0.336169 6.54637 0
M  V30 41604 H 4083.66 -1.23681 5.8691 0
M  V30 41605 H 4085.34 -0.964901 6.39765 0
M  V30 41606 N 4085.47 -1.56529 -0.183403 0
M  V30 41607 C 4086.42 -1.96372 -1.24663 0
M  V30 41608 C 4087.41 -0.850754 -1.46487 0
M  V30 41609 O 4088.62 -1.03582 -1.4721 0
M  V30 41610 H 4084.99 -0.624601 -0.418781 0
M  V30 41611 H 4086.96 -2.85016 -0.883647 0
M  V30 41612 C 4085.71 -2.32946 -2.5813 0
M  V30 41613 H 4085.03 -3.1812 -2.42156 0
M  V30 41614 H 4086.47 -2.64678 -3.31242 0
M  V30 41615 C 4084.93 -1.16838 -3.15991 0
M  V30 41616 O 4085.46 -0.449601 -3.99176 0
M  V30 41617 N 4083.67 -0.942108 -2.74905 0
M  V30 41618 H 4083.22 -1.52836 -2.07362 0
M  V30 41619 H 4083.17 -0.167055 -3.13956 0
M  V30 41620 N 4086.95 0.451537 -1.50993 0
M  V30 41621 C 4088.22 1.21247 -1.53488 0
M  V30 41622 C 4088.6 2.09087 -0.290846 0
M  V30 41623 O 4087.95 2.16699 0.72482 0
M  V30 41624 C 4088.16 2.02662 -2.84129 0
M  V30 41625 C 4089.51 2.60189 -3.3554 0
M  V30 41626 O 4090.53 2.12887 -2.85583 0
M  V30 41627 O 4089.39 3.46424 -4.22673 0
M  V30 41628 H 4086.49 0.551243 -0.616491 0
M  V30 41629 H 4089.03 0.461763 -1.63297 0
M  V30 41630 H 4087.8 1.38057 -3.66136 0
M  V30 41631 H 4087.43 2.84827 -2.77415 0
M  V30 41632 N 4088.42 1.409 0.706044 0
M  V30 41633 C 4089.67 1.399 1.46819 0
M  V30 41634 C 4090 0.00441269 1.94199 0
M  V30 41635 O 4089.28 -0.965972 1.68817 0
M  V30 41636 C 4089.56 2.39676 2.68752 0
M  V30 41637 C 4089.41 3.88199 2.27204 0
M  V30 41638 C 4090.73 2.36852 3.7093 0
M  V30 41639 H 4087.85 0.50948 0.53254 0
M  V30 41640 H 4090.49 1.72103 0.805026 0
M  V30 41641 H 4088.64 2.12346 3.25333 0
M  V30 41642 H 4090.32 4.26393 1.76031 0
M  V30 41643 H 4088.56 4.03571 1.59101 0
M  V30 41644 H 4089.23 4.53542 3.14648 0
M  V30 41645 H 4091.71 2.61081 3.24 0
M  V30 41646 H 4090.58 3.08695 4.5387 0
M  V30 41647 H 4090.84 1.38345 4.19897 0
M  V30 41648 N 4089.9 -0.939242 1.26554 0
M  V30 41649 C 4090.83 -2.04209 1.04073 0
M  V30 41650 C 4091.85 -1.628 0.000534908 0
M  V30 41651 O 4093.04 -1.76868 0.240825 0
M  V30 41652 C 4090.14 -3.34334 0.554406 0
M  V30 41653 C 4089.31 -4.04501 1.66427 0
M  V30 41654 C 4088.37 -5.12898 1.17567 0
M  V30 41655 O 4087.39 -5.37497 1.87312 0
M  V30 41656 N 4088.6 -5.80495 0.0251273 0
M  V30 41657 H 4091.36 -2.24061 1.9904 0
M  V30 41658 H 4088.92 -1.10885 1.17966 0
M  V30 41659 H 4090.91 -4.04146 0.211677 0
M  V30 41660 H 4089.48 -3.1114 -0.301724 0
M  V30 41661 H 4088.7 -3.28578 2.17785 0
M  V30 41662 H 4089.99 -4.48131 2.40947 0
M  V30 41663 H 4089.39 -5.62948 -0.557279 0
M  V30 41664 H 4087.95 -6.51287 -0.258511 0
M  V30 41665 N 4091.38 -1.08389 -1.14409 0
M  V30 41666 C 4092.66 -0.72622 -1.81619 0
M  V30 41667 C 4093.04 0.790095 -1.95757 0
M  V30 41668 O 4092.39 1.70853 -1.51728 0
M  V30 41669 C 4092.6 -1.45293 -3.17318 0
M  V30 41670 C 4093.94 -1.61186 -3.92816 0
M  V30 41671 O 4094.97 -1.41457 -3.26907 0
M  V30 41672 O 4093.83 -1.93737 -5.11007 0
M  V30 41673 H 4090.92 -0.259664 -0.785178 0
M  V30 41674 H 4093.47 -1.18546 -1.21429 0
M  V30 41675 H 4092.24 -2.48589 -3.0219 0
M  V30 41676 H 4091.86 -0.985161 -3.85202 0
M  V30 41677 N 4092.86 1.31442 -0.869532 0
M  V30 41678 C 4093.79 2.27456 -0.282209 0
M  V30 41679 C 4094.8 1.53066 0.554503 0
M  V30 41680 O 4095.99 1.74483 0.376567 0
M  V30 41681 C 4093.09 3.33207 0.618593 0
M  V30 41682 C 4092.27 4.37006 -0.185582 0
M  V30 41683 C 4091.32 5.22253 0.643291 0
M  V30 41684 O 4090.35 5.69155 0.0714827 0
M  V30 41685 N 4091.55 5.46577 1.95536 0
M  V30 41686 H 4094.32 2.78494 -1.10731 0
M  V30 41687 H 4091.88 1.44459 -0.730972 0
M  V30 41688 H 4093.87 3.87152 1.17879 0
M  V30 41689 H 4092.44 2.82215 1.34437 0
M  V30 41690 H 4091.66 3.8314 -0.927223 0
M  V30 41691 H 4092.95 5.03428 -0.737399 0
M  V30 41692 H 4092.35 5.10227 2.44306 0
M  V30 41693 H 4090.9 6.03459 2.46334 0
M  V30 41694 N 4094.34 0.628927 1.44507 0
M  V30 41695 C 4095.58 0.135821 2.03948 0
M  V30 41696 C 4095.94 -1.21845 1.48384 0
M  V30 41697 O 4097.14 -1.80354 1.99314 0
M  V30 41698 C 4095.41 0.119698 3.572 0
M  V30 41699 S 4096.97 -0.309109 4.3771 0
M  V30 41700 H 4093.79 0.0600063 0.708463 0
M  V30 41701 H 4096.39 0.831823 1.76921 0
M  V30 41702 H 4095.1 1.10849 3.95146 0
M  V30 41703 H 4094.63 -0.597622 3.88834 0
M  V30 41704 H 4096.64 -1.55382 4.71244 0
M  V30 41705 N 4095.82 -1.53211 0.369342 0
M  V30 41706 C 4097.04 -2.06204 -0.222415 0
M  V30 41707 C 4097.47 -1.2408 -1.41371 0
M  V30 41708 O 4096.82 -0.260799 -1.79414 0
M  V30 41709 C 4096.87 -3.55735 -0.590324 0
M  V30 41710 O 4095.98 -3.76314 -1.68705 0
M  V30 41711 H 4095.32 -0.663253 -0.0314924 0
M  V30 41712 H 4097.85 -1.97588 0.531035 0
M  V30 41713 H 4097.86 -3.98827 -0.860275 0
M  V30 41714 H 4096.53 -4.14951 0.280743 0
M  V30 41715 H 4095.11 -3.45118 -1.41236 0
M  V30 41716 N 4097.29 -0.0986092 -1.57291 0
M  V30 41717 C 4098.53 0.567601 -1.96361 0
M  V30 41718 C 4098.9 1.65132 -0.979566 0
M  V30 41719 O 4100.1 2.37498 -1.25889 0
M  V30 41720 C 4098.37 1.10521 -3.39882 0
M  V30 41721 S 4099.93 1.7828 -4.00951 0
M  V30 41722 H 4096.75 0.185112 -0.68648 0
M  V30 41723 H 4099.35 -0.178848 -1.9468 0
M  V30 41724 H 4098.05 0.305014 -4.09265 0
M  V30 41725 H 4097.58 1.88741 -3.45167 0
M  V30 41726 H 4099.6 3.06727 -3.90042 0
M  V30 41727 N 4098.77 1.56624 0.175099 0
M  V30 41728 C 4100.01 1.83575 0.898873 0
M  V30 41729 C 4100.38 0.678994 1.79593 0
M  V30 41730 O 4101.58 0.828857 2.55702 0
M  V30 41731 C 4099.85 3.15626 1.67676 0
M  V30 41732 S 4101.41 3.64046 2.44981 0
M  V30 41733 H 4098.22 0.644084 0.301127 0
M  V30 41734 H 4100.83 1.94838 0.16078 0
M  V30 41735 H 4099.53 3.9781 1.00872 0
M  V30 41736 H 4099.06 3.07294 2.4563 0
M  V30 41737 H 4101.08 3.31072 3.69602 0
M  V30 41738 N 4100.25 -0.443523 1.5123 0
M  V30 41739 C 4101.47 -1.22067 1.67673 0
M  V30 41740 C 4101.9 -1.84406 0.370967 0
M  V30 41741 O 4101.26 -1.68536 -0.668235 0
M  V30 41742 C 4101.31 -2.28498 2.78964 0
M  V30 41743 O 4100.41 -3.33832 2.42136 0
M  V30 41744 H 4099.75 -0.357911 0.559281 0
M  V30 41745 H 4102.28 -0.524557 1.97761 0
M  V30 41746 H 4102.29 -2.73381 3.02865 0
M  V30 41747 H 4100.97 -1.82502 3.73719 0
M  V30 41748 H 4099.54 -2.94469 2.28784 0
M  V30 41749 N 4101.73 -1.41272 -0.698562 0
M  V30 41750 C 4103.14 -1.36068 -1.27837 0
M  V30 41751 C 4103.49 -0.0423279 -1.96154 0
M  V30 41752 O 4102.61 0.859463 -1.98601 0
M  V30 41753 C 4103.21 -2.46455 -2.32477 0
M  V30 41754 C 4101.77 -2.44657 -2.86041 0
M  V30 41755 C 4100.92 -2.26456 -1.60041 0
M  V30 41756 H 4103.87 -1.50831 -0.49352 0
M  V30 41757 H 4103.89 -2.15341 -3.13701 0
M  V30 41758 H 4103.4 -3.42393 -1.82726 0
M  V30 41759 H 4101.5 -1.52467 -3.39977 0
M  V30 41760 H 4101.61 -3.40861 -3.36676 0
M  V30 41761 H 4099.98 -1.74279 -1.85739 0
M  V30 41762 H 4100.76 -3.24416 -1.12289 0
M  V30 41763 N 4103.21 0.932517 -1.27051 0
M  V30 41764 C 4104.43 1.71387 -1.15906 0
M  V30 41765 C 4104.85 1.86641 0.284693 0
M  V30 41766 O 4104.21 1.38 1.19425 0
M  V30 41767 C 4104.26 3.11606 -1.83259 0
M  V30 41768 O 4103.98 2.97072 -3.21993 0
M  V30 41769 C 4105.48 4.05915 -1.78179 0
M  V30 41770 H 4102.7 0.536344 -0.403207 0
M  V30 41771 H 4105.24 1.16844 -1.67833 0
M  V30 41772 H 4103.4 3.63024 -1.35249 0
M  V30 41773 H 4103.81 3.85684 -3.55454 0
M  V30 41774 H 4105.29 5.01834 -2.29928 0
M  V30 41775 H 4105.76 4.32747 -0.750112 0
M  V30 41776 H 4106.37 3.60421 -2.25781 0
M  V30 41777 N 4104.68 1.08995 1.13833 0
M  V30 41778 C 4106.1 0.818765 1.36998 0
M  V30 41779 C 4106.3 -0.569069 1.93297 0
M  V30 41780 O 4105.36 -1.32476 2.14957 0
M  V30 41781 C 4106.67 1.90638 2.32546 0
M  V30 41782 C 4108.22 1.93309 2.46172 0
M  V30 41783 C 4108.69 3.01201 3.45024 0
M  V30 41784 N 4110.18 3.00412 3.52572 0
M  V30 41785 C 4110.92 3.80537 4.28928 0
M  V30 41786 N 4110.41 4.70558 5.08475 0
M  V30 41787 N 4112.21 3.68815 4.24184 0
M  V30 41788 H 4104.36 1.98475 0.756391 0
M  V30 41789 H 4106.62 0.861657 0.395287 0
M  V30 41790 H 4106.33 2.90448 1.98326 0
M  V30 41791 H 4106.2 1.78082 3.32516 0
M  V30 41792 H 4108.59 0.941408 2.79681 0
M  V30 41793 H 4108.67 2.09943 1.46143 0
M  V30 41794 H 4108.31 4.0058 3.12247 0
M  V30 41795 H 4108.24 2.81811 4.44848 0
M  V30 41796 H 4110.73 2.3517 2.9581 0
M  V30 41797 H 4111.05 5.28289 5.64031 0
M  V30 41798 H 4109.39 4.74597 5.07723 0
M  V30 41799 H 4112.58 2.9785 3.61113 0
M  V30 41800 H 4112.76 4.31498 4.83439 0
M  V30 41801 N 4106.16 -1.30979 0.87649 0
M  V30 41802 C 4107.39 -2.00634 0.50535 0
M  V30 41803 C 4107.8 -1.65755 -0.903922 0
M  V30 41804 O 4107.16 -0.890192 -1.59317 0
M  V30 41805 C 4107.21 -3.55415 0.660505 0
M  V30 41806 O 4106.93 -3.89048 2.01428 0
M  V30 41807 C 4108.43 -4.42342 0.291235 0
M  V30 41808 H 4105.65 -0.641673 0.196206 0
M  V30 41809 H 4108.2 -1.6706 1.17945 0
M  V30 41810 H 4106.35 -3.87385 0.0338757 0
M  V30 41811 H 4106.77 -4.83759 2.02676 0
M  V30 41812 H 4108.24 -5.50157 0.450727 0
M  V30 41813 H 4108.72 -4.32396 -0.770112 0
M  V30 41814 H 4109.32 -4.15801 0.893835 0
M  V30 41815 N 4107.64 -0.636582 -1.44171 0
M  V30 41816 C 4108.55 0.0661465 -2.34507 0
M  V30 41817 C 4109.57 0.82992 -1.52932 0
M  V30 41818 O 4110.74 0.780947 -1.85643 0
M  V30 41819 C 4107.81 1.03185 -3.30989 0
M  V30 41820 C 4106.87 0.266849 -4.2847 0
M  V30 41821 C 4106.1 1.18655 -5.20343 0
M  V30 41822 O 4106.32 2.42543 -5.16265 0
M  V30 41823 O 4105.26 0.667929 -5.98183 0
M  V30 41824 H 4109.08 -0.676984 -2.96058 0
M  V30 41825 H 4106.67 -0.39677 -1.44035 0
M  V30 41826 H 4108.55 1.58729 -3.90363 0
M  V30 41827 H 4107.23 1.7555 -2.71963 0
M  V30 41828 H 4106.13 -0.331767 -3.72626 0
M  V30 41829 H 4107.47 -0.41689 -4.90431 0
M  V30 41830 N 4109.12 1.53013 -0.377462 0
M  V30 41831 C 4110.53 1.86436 0.099171 0
M  V30 41832 C 4110.88 1.29762 1.4716 0
M  V30 41833 O 4110 0.624301 2.07199 0
M  V30 41834 C 4110.6 3.38285 0.186729 0
M  V30 41835 C 4109.16 3.71463 0.607635 0
M  V30 41836 C 4108.31 2.76279 -0.237789 0
M  V30 41837 H 4111.26 1.47091 -0.595802 0
M  V30 41838 H 4111.28 3.66903 1.0081 0
M  V30 41839 H 4110.79 3.79504 -0.812286 0
M  V30 41840 H 4108.89 3.35807 1.61445 0
M  V30 41841 H 4109 4.77638 0.374002 0
M  V30 41842 H 4107.37 2.52984 0.295151 0
M  V30 41843 H 4108.15 3.20333 -1.23456 0
M  V30 41844 N 4110.6 0.106949 1.57237 0
M  V30 41845 C 4111.53 -0.884629 2.10356 0
M  V30 41846 C 4112.51 -1.26871 1.01698 0
M  V30 41847 O 4113.69 -1.37187 1.29274 0
M  V30 41848 C 4110.82 -2.18219 2.59033 0
M  V30 41849 C 4109.86 -1.94708 3.79461 0
M  V30 41850 S 4110.7 -1.1743 5.22466 0
M  V30 41851 C 4111.85 -2.48391 5.74502 0
M  V30 41852 H 4112.09 -0.432772 2.94133 0
M  V30 41853 H 4109.62 -0.106585 1.54032 0
M  V30 41854 H 4111.58 -2.92778 2.87734 0
M  V30 41855 H 4110.24 -2.60524 1.7546 0
M  V30 41856 H 4109.43 -2.90823 4.11629 0
M  V30 41857 H 4109.03 -1.28274 3.51314 0
M  V30 41858 H 4111.33 -3.44301 5.83492 0
M  V30 41859 H 4112.27 -2.20785 6.728 0
M  V30 41860 H 4112.68 -2.57207 5.02499 0
M  V30 41861 N 4112.07 -1.56715 -0.166791 0
M  V30 41862 C 4113.01 -1.9333 -1.2311 0
M  V30 41863 C 4114.02 -0.826891 -1.40237 0
M  V30 41864 O 4115.21 -1.10533 -1.40159 0
M  V30 41865 C 4112.31 -2.17486 -2.5991 0
M  V30 41866 C 4111.48 -3.48728 -2.64022 0
M  V30 41867 C 4110.54 -3.61658 -3.82218 0
M  V30 41868 O 4109.57 -4.34235 -3.68006 0
M  V30 41869 N 4110.77 -2.96844 -4.98862 0
M  V30 41870 H 4113.53 -2.85228 -0.920053 0
M  V30 41871 H 4111.09 -1.57926 -0.356521 0
M  V30 41872 H 4113.09 -2.23396 -3.37456 0
M  V30 41873 H 4111.66 -1.3195 -2.83387 0
M  V30 41874 H 4110.88 -3.54435 -1.72538 0
M  V30 41875 H 4112.16 -4.35081 -2.63784 0
M  V30 41876 H 4111.56 -2.37759 -5.1331 0
M  V30 41877 H 4110.12 -3.08344 -5.74254 0
M  V30 41878 N 4113.55 0.435497 -1.51463 0
M  V30 41879 C 4114.8 1.18653 -1.64466 0
M  V30 41880 C 4115.13 1.90821 -0.360702 0
M  V30 41881 O 4114.41 1.83676 0.639782 0
M  V30 41882 C 4114.69 2.20207 -2.84923 0
M  V30 41883 C 4114.54 1.5211 -4.233 0
M  V30 41884 C 4115.86 3.21168 -3.00897 0
M  V30 41885 H 4112.98 0.430005 -0.598552 0
M  V30 41886 H 4115.62 0.47554 -1.83953 0
M  V30 41887 H 4113.77 2.80842 -2.6844 0
M  V30 41888 H 4115.44 0.947968 -4.51455 0
M  V30 41889 H 4113.69 0.823418 -4.25913 0
M  V30 41890 H 4114.36 2.26078 -5.0358 0
M  V30 41891 H 4116.83 2.70588 -3.16103 0
M  V30 41892 H 4115.71 3.89516 -3.86741 0
M  V30 41893 H 4115.97 3.87379 -2.13048 0
M  V30 41894 N 4115.03 1.41641 0.69106 0
M  V30 41895 C 4115.99 1.43562 1.78669 0
M  V30 41896 C 4116.99 0.325571 1.5747 0
M  V30 41897 O 4118.18 0.58566 1.6406 0
M  V30 41898 C 4115.32 1.25141 3.171 0
M  V30 41899 H 4116.51 2.41099 1.78357 0
M  V30 41900 H 4114.06 1.27849 0.899126 0
M  V30 41901 H 4114.8 0.284624 3.23049 0
M  V30 41902 H 4114.58 2.05573 3.33889 0
M  V30 41903 H 4116.07 1.29331 3.97068 0
M  V30 41904 N 4116.51 -0.925766 1.27543 0
M  V30 41905 C 4117.44 -2.04361 1.12956 0
M  V30 41906 C 4118.42 -1.70073 0.030506 0
M  V30 41907 O 4119.6 -1.93111 0.205341 0
M  V30 41908 C 4116.73 -3.38473 0.778014 0
M  V30 41909 C 4115.69 -3.8688 1.83051 0
M  V30 41910 C 4115.01 -5.17821 1.33289 0
M  V30 41911 C 4116.31 -4.10059 3.23495 0
M  V30 41912 H 4118.01 -2.16823 2.06466 0
M  V30 41913 H 4115.55 -1.04184 0.994065 0
M  V30 41914 H 4117.51 -4.16155 0.662775 0
M  V30 41915 H 4116.23 -3.2603 -0.192794 0
M  V30 41916 H 4114.89 -3.11393 1.93469 0
M  V30 41917 H 4114.54 -5.0177 0.351487 0
M  V30 41918 H 4114.24 -5.51178 2.03657 0
M  V30 41919 H 4115.76 -5.9807 1.23063 0
M  V30 41920 H 4117.18 -4.78304 3.16067 0
M  V30 41921 H 4115.57 -4.54727 3.91591 0
M  V30 41922 H 4116.64 -3.15287 3.68405 0
M  V30 41923 N 4117.99 -1.09597 -1.13253 0
M  V30 41924 C 4118.94 -0.706363 -2.16782 0
M  V30 41925 C 4119.92 0.280154 -1.58442 0
M  V30 41926 O 4121.11 0.090246 -1.7677 0
M  V30 41927 C 4118.24 -0.130393 -3.43052 0
M  V30 41928 C 4117.33 -1.14343 -4.08395 0
M  V30 41929 N 4117.72 -2.33115 -4.48877 0
M  V30 41930 C 4116.02 -0.98197 -4.35056 0
M  V30 41931 C 4116.72 -2.9757 -4.99827 0
M  V30 41932 N 4115.69 -2.25123 -4.94793 0
M  V30 41933 H 4119.5 -1.61062 -2.45838 0
M  V30 41934 H 4117.01 -0.972438 -1.30067 0
M  V30 41935 H 4119.01 0.166751 -4.16566 0
M  V30 41936 H 4117.67 0.768693 -3.1547 0
M  V30 41937 H 4118.68 -2.70696 -4.41525 0
M  V30 41938 H 4115.35 -0.137714 -4.17273 0
M  V30 41939 H 4116.74 -3.98551 -5.40931 0
M  V30 41940 N 4119.46 1.30512 -0.883424 0
M  V30 41941 C 4120.7 1.97993 -0.507768 0
M  V30 41942 C 4121.07 1.68223 0.925467 0
M  V30 41943 O 4122.27 2.29025 1.40716 0
M  V30 41944 C 4120.54 3.48937 -0.773142 0
M  V30 41945 S 4122.1 4.35949 -0.499357 0
M  V30 41946 H 4118.92 0.685421 -0.188993 0
M  V30 41947 H 4121.52 1.58652 -1.14235 0
M  V30 41948 H 4120.22 3.68095 -1.81478 0
M  V30 41949 H 4119.75 3.93198 -0.126054 0
M  V30 41950 H 4121.77 4.91755 0.662685 0
M  V30 41951 N 4120.94 0.644219 1.43832 0
M  V30 41952 C 4122.17 0.161433 2.06269 0
M  V30 41953 C 4122.59 -1.16931 1.48232 0
M  V30 41954 O 4121.94 -1.71998 0.610163 0
M  V30 41955 C 4121.99 0.0545992 3.61459 0
M  V30 41956 O 4121.71 1.33272 4.17337 0
M  V30 41957 C 4123.22 -0.455333 4.40955 0
M  V30 41958 H 4120.44 0.0857229 0.665502 0
M  V30 41959 H 4122.98 0.882324 1.84487 0
M  V30 41960 H 4121.13 -0.616801 3.82458 0
M  V30 41961 H 4121.55 1.18606 5.10914 0
M  V30 41962 H 4123.02 -0.479062 5.49917 0
M  V30 41963 H 4123.5 -1.48493 4.13336 0
M  V30 41964 H 4124.11 0.183265 4.24905 0
M  V30 41965 N 4122.42 -1.52811 0.385571 0
M  V30 41966 C 4123.37 -2.27878 -0.466298 0
M  V30 41967 C 4124.36 -1.31631 -1.06628 0
M  V30 41968 O 4125.57 -1.49184 -1.00719 0
M  V30 41969 H 4121.94 -0.732735 -0.169124 0
M  V30 41970 H 4123.91 -2.97805 0.188345 0
M  V30 41971 C 4122.66 -3.0955 -1.58348 0
M  V30 41972 H 4121.99 -3.83465 -1.13112 0
M  V30 41973 H 4123.43 -3.6522 -2.15384 0
M  V30 41974 C 4121.89 -2.21629 -2.53737 0
M  V30 41975 O 4122.42 -1.84055 -3.57053 0
M  V30 41976 N 4120.62 -1.85863 -2.2339 0
M  V30 41977 H 4120.17 -2.16618 -1.39408 0
M  V30 41978 H 4120.13 -1.27326 -2.87464 0
M  V30 41979 N 4123.9 -0.115287 -1.57178 0
M  V30 41980 C 4125.15 0.542537 -1.94682 0
M  V30 41981 C 4125.47 1.67452 -0.99924 0
M  V30 41982 O 4124.74 1.95823 -0.0548704 0
M  V30 41983 H 4123.32 0.203409 -0.718773 0
M  V30 41984 H 4125.98 -0.183357 -1.94036 0
M  V30 41985 H 4125.08 0.939546 -2.97622 0
M  V30 41986 N 4125.38 1.56801 0.158477 0
M  V30 41987 C 4126.6 1.87226 0.892258 0
M  V30 41988 C 4127.03 0.70306 1.74467 0
M  V30 41989 O 4126.39 -0.347617 1.77936 0
M  V30 41990 C 4126.43 3.16157 1.73427 0
M  V30 41991 O 4125.54 2.99284 2.8373 0
M  V30 41992 H 4124.88 0.615462 0.249203 0
M  V30 41993 H 4127.41 2.04029 0.152749 0
M  V30 41994 H 4127.42 3.47888 2.13161 0
M  V30 41995 H 4126.09 4.00863 1.10824 0
M  V30 41996 H 4124.67 2.78936 2.47486 0
M  V30 41997 N 4126.86 -0.427458 1.51692 0
M  V30 41998 C 4128.1 -1.1778 1.65093 0
M  V30 41999 C 4128.43 -1.90627 0.370817 0
M  V30 42000 O 4127.71 -1.84013 -0.630032 0
M  V30 42001 C 4127.99 -2.18692 2.86087 0
M  V30 42002 C 4127.85 -1.49863 4.241 0
M  V30 42003 C 4129.16 -3.19568 3.02596 0
M  V30 42004 H 4126.28 -0.426825 0.600824 0
M  V30 42005 H 4128.93 -0.465778 1.84202 0
M  V30 42006 H 4127.08 -2.79415 2.69925 0
M  V30 42007 H 4128.75 -0.924013 4.51951 0
M  V30 42008 H 4126.99 -0.800819 4.26344 0
M  V30 42009 H 4127.66 -2.23404 5.04772 0
M  V30 42010 H 4130.14 -2.68908 3.17534 0
M  V30 42011 H 4129.01 -3.8746 3.88801 0
M  V30 42012 H 4129.27 -3.86244 2.151 0
M  V30 42013 N 4128.33 -1.42005 -0.683539 0
M  V30 42014 C 4129.58 -1.42218 -1.44575 0
M  V30 42015 C 4129.91 -0.0353076 -1.94168 0
M  V30 42016 O 4129.19 0.938993 -1.70333 0
M  V30 42017 C 4129.47 -2.43921 -2.64905 0
M  V30 42018 C 4129.32 -3.91764 -2.21 0
M  V30 42019 C 4130.64 -2.42723 -3.67115 0
M  V30 42020 H 4127.76 -0.517888 -0.524367 0
M  V30 42021 H 4130.4 -1.73362 -0.777544 0
M  V30 42022 H 4128.55 -2.17494 -3.21914 0
M  V30 42023 H 4130.23 -4.29139 -1.69225 0
M  V30 42024 H 4128.47 -4.06051 -1.5266 0
M  V30 42025 H 4129.14 -4.58491 -3.07393 0
M  V30 42026 H 4131.62 -2.66203 -3.19805 0
M  V30 42027 H 4130.49 -3.15877 -4.48902 0
M  V30 42028 H 4130.75 -1.45007 -4.17643 0
M  V30 42029 N 4129.81 0.918989 -1.28033 0
M  V30 42030 C 4131.04 1.69901 -1.17547 0
M  V30 42031 C 4131.45 1.87275 0.269188 0
M  V30 42032 O 4130.79 1.39579 1.1943 0
M  V30 42033 C 4130.85 3.11401 -1.79638 0
M  V30 42034 C 4130.52 3.17332 -3.28861 0
M  V30 42035 C 4131.52 2.98923 -4.25372 0
M  V30 42036 C 4129.2 3.40012 -3.69725 0
M  V30 42037 C 4131.19 3.03098 -5.60723 0
M  V30 42038 C 4128.88 3.4382 -5.05204 0
M  V30 42039 C 4129.88 3.25383 -6.00512 0
M  V30 42040 O 4129.57 3.28942 -7.33521 0
M  V30 42041 H 4129.3 0.538055 -0.409234 0
M  V30 42042 H 4131.85 1.15903 -1.69575 0
M  V30 42043 H 4130.08 3.66918 -1.22097 0
M  V30 42044 H 4131.77 3.71407 -1.63743 0
M  V30 42045 H 4132.54 2.81233 -3.95137 0
M  V30 42046 H 4128.42 3.53411 -2.96009 0
M  V30 42047 H 4131.96 2.88625 -6.35092 0
M  V30 42048 H 4127.86 3.61037 -5.35091 0
M  V30 42049 H 4128.63 3.45339 -7.42081 0
M  V30 42050 N 4131.29 1.10196 1.12671 0
M  V30 42051 C 4132.24 0.71785 2.16405 0
M  V30 42052 C 4133.22 -0.271747 1.58589 0
M  V30 42053 O 4134.42 -0.0808702 1.76815 0
M  V30 42054 C 4131.54 0.148584 3.42978 0
M  V30 42055 C 4130.63 1.16507 4.07783 0
M  V30 42056 N 4131.02 2.35493 4.47635 0
M  V30 42057 C 4129.32 1.00503 4.34529 0
M  V30 42058 C 4130.02 3.00217 4.98242 0
M  V30 42059 N 4129 2.27744 4.93592 0
M  V30 42060 H 4132.8 1.62364 2.4498 0
M  V30 42061 H 4130.31 0.979322 1.29549 0
M  V30 42062 H 4132.31 -0.144657 4.16649 0
M  V30 42063 H 4130.97 -0.751952 3.15873 0
M  V30 42064 H 4131.98 2.73034 4.40083 0
M  V30 42065 H 4128.66 0.159841 4.17194 0
M  V30 42066 H 4130.05 4.01414 5.3881 0
M  V30 42067 N 4132.77 -1.30042 0.890333 0
M  V30 42068 C 4133.68 -2.31738 0.365307 0
M  V30 42069 C 4134.69 -1.65565 -0.53519 0
M  V30 42070 O 4135.87 -1.96821 -0.427023 0
M  V30 42071 C 4132.93 -3.44303 -0.406949 0
M  V30 42072 C 4132 -4.26091 0.523943 0
M  V30 42073 C 4131.23 -5.33281 -0.211551 0
M  V30 42074 O 4131.45 -5.52006 -1.43687 0
M  V30 42075 O 4130.39 -6.00282 0.441104 0
M  V30 42076 H 4134.21 -2.78608 1.20877 0
M  V30 42077 H 4131.8 -1.34308 0.654343 0
M  V30 42078 H 4133.68 -4.12861 -0.844002 0
M  V30 42079 H 4132.35 -2.99559 -1.22662 0
M  V30 42080 H 4131.26 -3.6021 1.00992 0
M  V30 42081 H 4132.59 -4.74453 1.30977 0
M  V30 42082 N 4134.25 -0.651838 -1.43488 0
M  V30 42083 C 4135.49 -0.164912 -2.02128 0
M  V30 42084 C 4135.82 1.21748 -1.51298 0
M  V30 42085 O 4135.1 1.81253 -0.705524 0
M  V30 42086 C 4135.38 -0.174247 -3.59678 0
M  V30 42087 C 4135.24 -1.59045 -4.20743 0
M  V30 42088 C 4136.55 0.490101 -4.37363 0
M  V30 42089 H 4133.67 -0.0614 -0.734438 0
M  V30 42090 H 4136.32 -0.832259 -1.70802 0
M  V30 42091 H 4134.47 0.394009 -3.86497 0
M  V30 42092 H 4136.14 -2.20919 -4.0496 0
M  V30 42093 H 4134.38 -2.13815 -3.77446 0
M  V30 42094 H 4135.05 -1.54885 -5.29825 0
M  V30 42095 H 4137.53 0.00662701 -4.16099 0
M  V30 42096 H 4136.4 0.452836 -5.47029 0
M  V30 42097 H 4136.66 1.56399 -4.13511 0
M  V30 42098 N 4135.72 1.52604 -0.39367 0
M  V30 42099 C 4136.65 2.29493 0.430746 0
M  V30 42100 C 4137.63 1.3306 1.05968 0
M  V30 42101 O 4138.82 1.61957 1.07162 0
M  V30 42102 C 4135.95 3.10496 1.55593 0
M  V30 42103 C 4134.9 4.14849 1.05282 0
M  V30 42104 C 4134.23 4.84104 2.27042 0
M  V30 42105 C 4135.53 5.22167 0.117697 0
M  V30 42106 H 4137.22 2.98657 -0.210794 0
M  V30 42107 H 4134.77 1.43632 -0.10282 0
M  V30 42108 H 4136.72 3.63045 2.13953 0
M  V30 42109 H 4135.45 2.39073 2.22512 0
M  V30 42110 H 4134.11 3.63287 0.491724 0
M  V30 42111 H 4133.75 4.09224 2.9248 0
M  V30 42112 H 4133.45 5.54638 1.94037 0
M  V30 42113 H 4134.98 5.39459 2.86036 0
M  V30 42114 H 4136.39 5.7005 0.609618 0
M  V30 42115 H 4134.79 5.99974 -0.122794 0
M  V30 42116 H 4135.86 4.77706 -0.832137 0
M  V30 42117 N 4137.2 0.12362 1.57114 0
M  V30 42118 C 4138.15 -0.842158 2.16819 0
M  V30 42119 C 4139.14 -1.27209 1.11867 0
M  V30 42120 O 4140.35 -1.24329 1.30163 0
M  V30 42121 H 4136.72 -0.289709 0.693954 0
M  V30 42122 H 4138.7 -0.314169 2.96742 0
M  V30 42123 C 4137.44 -2.08057 2.78581 0
M  V30 42124 H 4136.77 -1.75869 3.5904 0
M  V30 42125 H 4138.21 -2.73628 3.23888 0
M  V30 42126 C 4136.67 -2.87336 1.75897 0
M  V30 42127 O 4137.2 -3.8288 1.21515 0
M  V30 42128 N 4135.4 -2.51417 1.45732 0
M  V30 42129 H 4134.95 -1.73788 1.90146 0
M  V30 42130 H 4134.91 -3.04757 0.772708 0
M  V30 42131 N 4138.68 -1.56883 -0.15016 0
M  V30 42132 C 4139.64 -1.97124 -1.16939 0
M  V30 42133 C 4140.64 -0.857377 -1.36036 0
M  V30 42134 O 4141.83 -1.12406 -1.33081 0
M  V30 42135 C 4138.96 -2.28444 -2.53033 0
M  V30 42136 H 4140.16 -2.88351 -0.824246 0
M  V30 42137 H 4137.71 -1.51268 -0.393388 0
M  V30 42138 H 4138.45 -1.39999 -2.92525 0
M  V30 42139 H 4138.23 -3.09654 -2.40534 0
M  V30 42140 H 4139.72 -2.60426 -3.26447 0
M  V30 42141 N 4140.16 0.419408 -1.51917 0
M  V30 42142 C 4141.09 1.5309 -1.6923 0
M  V30 42143 C 4142.07 1.53377 -0.539841 0
M  V30 42144 O 4143.25 1.72238 -0.765924 0
M  V30 42145 C 4140.38 2.91644 -1.72225 0
M  V30 42146 C 4139.43 3.0931 -2.93648 0
M  V30 42147 S 4140.26 2.83709 -4.54169 0
M  V30 42148 C 4141.42 4.24512 -4.59936 0
M  V30 42149 H 4141.65 1.38174 -2.6324 0
M  V30 42150 H 4139.18 0.610305 -1.41826 0
M  V30 42151 H 4141.14 3.715 -1.74636 0
M  V30 42152 H 4139.8 3.03909 -0.793607 0
M  V30 42153 H 4138.99 4.10654 -2.92197 0
M  V30 42154 H 4138.6 2.37305 -2.89072 0
M  V30 42155 H 4140.89 5.17993 -4.3668 0
M  V30 42156 H 4141.83 4.3099 -5.6183 0
M  V30 42157 H 4142.24 4.09003 -3.89072 0
M  V30 42158 N 4141.64 1.42366 0.675998 0
M  V30 42159 C 4142.55 1.4815 1.81903 0
M  V30 42160 C 4143.56 0.37035 1.70013 0
M  V30 42161 O 4144.74 0.621069 1.91585 0
M  V30 42162 C 4141.8 1.38034 3.18037 0
M  V30 42163 C 4140.86 2.59631 3.41892 0
M  V30 42164 C 4140.1 2.49988 4.71531 0
M  V30 42165 O 4140.32 1.53509 5.49355 0
M  V30 42166 O 4139.25 3.40099 4.96605 0
M  V30 42167 H 4143.08 2.44624 1.7998 0
M  V30 42168 H 4140.67 1.24117 0.831589 0
M  V30 42169 H 4142.55 1.34751 3.99275 0
M  V30 42170 H 4141.22 0.446845 3.20601 0
M  V30 42171 H 4140.13 2.68489 2.60508 0
M  V30 42172 H 4141.46 3.51875 3.44158 0
M  V30 42173 N 4143.11 -0.912187 1.28518 0
M  V30 42174 C 4144.35 -1.6759 1.17017 0
M  V30 42175 C 4144.72 -1.9 -0.276396 0
M  V30 42176 O 4145.92 -2.63837 -0.51414 0
M  V30 42177 C 4144.19 -2.99627 1.94829 0
M  V30 42178 S 4145.75 -3.90714 1.9972 0
M  V30 42179 H 4142.57 -0.575536 0.417468 0
M  V30 42180 H 4145.17 -1.08485 1.62638 0
M  V30 42181 H 4143.87 -2.8102 2.99092 0
M  V30 42182 H 4143.4 -3.63778 1.49763 0
M  V30 42183 H 4145.42 -4.83744 1.10484 0
M  V30 42184 N 4144.59 -1.10792 -1.12085 0
M  V30 42185 C 4145.54 -0.760102 -2.17924 0
M  V30 42186 C 4146.51 0.265287 -1.63968 0
M  V30 42187 O 4147.69 0.143731 -1.90258 0
M  V30 42188 C 4144.83 -0.202106 -3.44508 0
M  V30 42189 C 4143.95 -1.28324 -4.12501 0
M  V30 42190 C 4143.08 -0.686499 -5.26745 0
M  V30 42191 C 4142.12 -1.74796 -5.86611 0
M  V30 42192 N 4141.26 -1.1712 -6.92262 0
M  V30 42193 H 4146.1 -1.66685 -2.47022 0
M  V30 42194 H 4143.64 -0.832528 -1.21274 0
M  V30 42195 H 4145.59 0.139327 -4.16967 0
M  V30 42196 H 4144.22 0.667863 -3.15816 0
M  V30 42197 H 4143.28 -1.74174 -3.38183 0
M  V30 42198 H 4144.59 -2.08659 -4.53059 0
M  V30 42199 H 4143.74 -0.294728 -6.05984 0
M  V30 42200 H 4142.48 0.148248 -4.87475 0
M  V30 42201 H 4141.49 -2.14911 -5.06057 0
M  V30 42202 H 4142.71 -2.58561 -6.27951 0
M  V30 42203 H 4140.66 -0.357985 -6.55022 0
M  V30 42204 H 4140.57 -1.91135 -7.31439 0
M  V30 42205 H 4141.84 -0.806102 -7.75321 0
M  V30 42206 N 4146.07 1.29568 -0.897217 0
M  V30 42207 C 4147.31 1.97443 -0.52874 0
M  V30 42208 C 4147.67 1.69195 0.907573 0
M  V30 42209 O 4148.88 2.30504 1.38279 0
M  V30 42210 C 4147.15 3.48098 -0.810108 0
M  V30 42211 S 4148.71 4.35395 -0.545568 0
M  V30 42212 H 4145.52 0.683378 -0.196253 0
M  V30 42213 H 4148.13 1.57432 -1.15912 0
M  V30 42214 H 4146.83 3.66149 -1.85372 0
M  V30 42215 H 4146.36 3.93042 -0.167751 0
M  V30 42216 H 4148.38 4.9243 0.610491 0
M  V30 42217 N 4147.55 0.659438 1.4314 0
M  V30 42218 C 4148.77 0.181679 2.06603 0
M  V30 42219 C 4149.2 -1.14626 1.49139 0
M  V30 42220 O 4148.56 -1.70951 0.603769 0
M  V30 42221 C 4148.6 0.110725 3.6043 0
M  V30 42222 O 4147.71 -0.925273 4.01886 0
M  V30 42223 H 4147.05 0.0977236 0.656769 0
M  V30 42224 H 4149.58 0.904118 1.8354 0
M  V30 42225 H 4149.59 -0.0705372 4.07939 0
M  V30 42226 H 4148.26 1.08009 4.0163 0
M  V30 42227 H 4146.84 -0.716296 3.65956 0
M  V30 42228 N 4149.03 -1.52393 0.401757 0
M  V30 42229 C 4150.44 -1.86571 -0.0694981 0
M  V30 42230 C 4150.79 -1.32087 -1.45077 0
M  V30 42231 O 4149.91 -0.657185 -2.0618 0
M  V30 42232 C 4150.51 -3.38539 -0.132887 0
M  V30 42233 C 4149.07 -3.72383 -0.548462 0
M  V30 42234 C 4148.21 -2.75865 0.281713 0
M  V30 42235 H 4151.17 -1.46125 0.619128 0
M  V30 42236 H 4151.19 -3.6846 -0.949602 0
M  V30 42237 H 4150.7 -3.78164 0.872559 0
M  V30 42238 H 4148.8 -3.38333 -1.56082 0
M  V30 42239 H 4148.91 -4.78173 -0.297966 0
M  V30 42240 H 4147.28 -2.53422 -0.254866 0
M  V30 42241 H 4148.06 -3.18329 1.28537 0
M  V30 42242 N 4150.5 -0.131951 -1.57047 0
M  V30 42243 C 4151.92 0.22457 -1.58012 0
M  V30 42244 C 4152.12 1.65778 -1.14543 0
M  V30 42245 O 4151.18 2.38162 -0.838768 0
M  V30 42246 C 4152.49 -0.0205174 -3.00693 0
M  V30 42247 C 4154.04 0.0443717 -3.12969 0
M  V30 42248 C 4154.51 -0.173189 -4.57672 0
M  V30 42249 N 4156 -0.1196 -4.63046 0
M  V30 42250 C 4156.74 -0.262659 -5.72798 0
M  V30 42251 N 4156.23 -0.462607 -6.91254 0
M  V30 42252 N 4158.03 -0.20132 -5.61739 0
M  V30 42253 H 4150.18 -1.06793 -1.836 0
M  V30 42254 H 4152.44 -0.421562 -0.849111 0
M  V30 42255 H 4152.15 -1.01184 -3.3683 0
M  V30 42256 H 4152.02 0.705621 -3.70541 0
M  V30 42257 H 4154.41 1.02623 -2.76681 0
M  V30 42258 H 4154.49 -0.713856 -2.45637 0
M  V30 42259 H 4154.13 -1.15208 -4.94661 0
M  V30 42260 H 4154.06 0.605181 -5.23111 0
M  V30 42261 H 4156.55 0.0308995 -3.77887 0
M  V30 42262 H 4156.87 -0.562281 -7.70752 0
M  V30 42263 H 4155.21 -0.498743 -6.93208 0
M  V30 42264 H 4158.4 -0.045982 -4.68077 0
M  V30 42265 H 4158.58 -0.316249 -6.47228 0
M  V30 42266 N 4151.98 1.5696 0.141838 0
M  V30 42267 C 4152.93 1.98653 1.17497 0
M  V30 42268 C 4153.9 0.854943 1.42408 0
M  V30 42269 O 4155.08 1.11741 1.54656 0
M  V30 42270 C 4152.22 2.37666 2.50218 0
M  V30 42271 C 4151.34 3.64139 2.32437 0
M  V30 42272 C 4150.47 3.92231 3.58229 0
M  V30 42273 C 4149.51 5.11958 3.35507 0
M  V30 42274 N 4148.65 5.36035 4.53443 0
M  V30 42275 H 4153.49 2.86712 0.812423 0
M  V30 42276 H 4151.03 1.41844 0.389697 0
M  V30 42277 H 4152.98 2.58315 3.27612 0
M  V30 42278 H 4151.61 1.5268 2.8441 0
M  V30 42279 H 4150.67 3.51237 1.46072 0
M  V30 42280 H 4151.98 4.51689 2.1161 0
M  V30 42281 H 4151.13 4.13406 4.4405 0
M  V30 42282 H 4149.87 3.03113 3.82065 0
M  V30 42283 H 4148.88 4.90651 2.48075 0
M  V30 42284 H 4150.1 6.02634 3.13064 0
M  V30 42285 H 4148.05 4.49872 4.77442 0
M  V30 42286 H 4147.96 6.17864 4.35637 0
M  V30 42287 H 4149.23 5.61712 5.40462 0
M  V30 42288 N 4153.46 -0.411345 1.52137 0
M  V30 42289 C 4154.7 -1.1677 1.67762 0
M  V30 42290 C 4155.06 -1.87833 0.397862 0
M  V30 42291 O 4156.27 -2.65335 0.43019 0
M  V30 42292 C 4154.54 -2.13743 2.86442 0
M  V30 42293 S 4156.1 -2.97515 3.22538 0
M  V30 42294 H 4152.91 -0.395611 0.590773 0
M  V30 42295 H 4155.52 -0.45533 1.90124 0
M  V30 42296 H 4154.22 -1.60219 3.77833 0
M  V30 42297 H 4153.75 -2.89521 2.66347 0
M  V30 42298 H 4155.77 -4.15668 2.70988 0
M  V30 42299 N 4154.94 -1.42722 -0.668439 0
M  V30 42300 C 4156.16 -1.4715 -1.46156 0
M  V30 42301 C 4156.59 -0.0860982 -1.87903 0
M  V30 42302 O 4155.95 0.916863 -1.56408 0
M  V30 42303 C 4156 -2.40953 -2.68279 0
M  V30 42304 O 4155.1 -1.88529 -3.66784 0
M  V30 42305 H 4154.44 -0.498319 -0.438833 0
M  V30 42306 H 4156.97 -1.87479 -0.81932 0
M  V30 42307 H 4156.98 -2.57748 -3.16275 0
M  V30 42308 H 4155.66 -3.41603 -2.37234 0
M  V30 42309 H 4154.23 -1.81321 -3.25848 0
M  V30 42310 N 4156.42 0.905358 -1.29 0
M  V30 42311 C 4157.36 2.00881 -1.13646 0
M  V30 42312 C 4158.33 1.66071 -0.0312995 0
M  V30 42313 O 4159.52 1.89772 -0.19778 0
M  V30 42314 C 4156.66 3.35385 -0.813086 0
M  V30 42315 C 4155.77 3.83013 -1.99812 0
M  V30 42316 C 4154.91 5.06066 -1.61463 0
M  V30 42317 C 4153.95 5.46049 -2.76581 0
M  V30 42318 N 4153.08 6.6029 -2.38666 0
M  V30 42319 H 4157.92 2.13346 -2.08056 0
M  V30 42320 H 4155.46 1.04488 -1.03541 0
M  V30 42321 H 4157.42 4.12771 -0.60631 0
M  V30 42322 H 4156.05 3.22663 0.0940993 0
M  V30 42323 H 4155.1 3.01711 -2.31677 0
M  V30 42324 H 4156.41 4.08599 -2.86092 0
M  V30 42325 H 4155.57 5.9102 -1.37041 0
M  V30 42326 H 4154.31 4.82308 -0.723239 0
M  V30 42327 H 4153.31 4.59632 -3.01692 0
M  V30 42328 H 4154.54 5.71792 -3.66375 0
M  V30 42329 H 4152.48 6.38145 -1.52008 0
M  V30 42330 H 4152.4 6.85643 -3.1848 0
M  V30 42331 H 4153.67 7.48527 -2.1755 0
M  V30 42332 O 4157.93 1.23506 1.0406 0
M  V30 42333 H 4158.63 1.00689 1.65473 0
M  V30 END ATOM
M  V30 BEGIN BOND
M  V30 END BOND
M  V30 END CTAB
M  END
$$$$
