drugbank_target|P62312 U6 snRNA-associated Sm-like protein LSm6 (DB02745; DB03685; DB04272)
 OpenBabel12092120533D

  0  0  0     0  0            999 V3000
M  V30 BEGIN CTAB
M  V30 COUNTS 1781 1898 0 0 0
M  V30 BEGIN ATOM
M  V30 1 H -2.588 8.49073 -0.0679273 0
M  V30 2 O -1.492 9.37262 0.0843559 0
M  V30 3 P 0 8.791 0 0
M  V30 4 O 1.422 9.31096 0.027933 0
M  V30 5 O -0.36 7.77869 -1.04071 0
M  V30 6 O -0.323 8.09533 1.41463 0
M  V30 7 C -0.483 9.0349 2.53943 0
M  V30 8 C 0.057 8.35226 3.79016 0
M  V30 9 O -0.999 7.57992 4.15078 0
M  V30 10 C 1.275 7.45087 3.67298 0
M  V30 11 O 2.013 7.27796 4.85194 0
M  V30 12 C 0.606 6.17323 3.12027 0
M  V30 13 O 1.405 5.04231 3.47188 0
M  V30 14 C -0.731 6.19961 3.81809 0
M  V30 15 H -0.699 5.58218 4.73051 0
M  V30 16 H 0.484 6.21726 2.02589 0
M  V30 17 H 1.968 7.86112 2.9231 0
M  V30 18 H 0.274 9.11627 4.55076 0
M  V30 19 H 0.084 9.9573 2.34194 0
M  V30 20 H -1.546 9.2792 2.67832 0
M  V30 21 H 1.093 4.67702 4.28772 0
M  V30 22 P 2.95057 7.39546 4.75277 0
M  V30 23 O 4.37257 7.81777 5.05738 0
M  V30 24 O 2.59057 7.1065 3.32998 0
M  V30 25 O 2.62757 6.04542 5.56673 0
M  V30 26 C 2.46757 6.22772 7.02095 0
M  V30 27 C 3.00757 4.97725 7.70406 0
M  V30 28 O 1.95157 4.13256 7.58987 0
M  V30 29 C 4.22557 4.28231 7.11815 0
M  V30 30 O 4.96357 3.49945 8.01648 0
M  V30 31 C 3.55657 3.5063 5.96244 0
M  V30 32 O 4.35557 2.36482 5.64681 0
M  V30 33 C 2.21957 3.15122 6.56374 0
M  V30 34 H 2.25157 2.13853 6.99751 0
M  V30 35 H 3.43457 4.13501 5.06559 0
M  V30 36 H 4.91857 5.03285 6.70911 0
M  V30 37 H 3.22457 5.20877 8.75697 0
M  V30 38 H 3.03457 7.11046 7.35349 0
M  V30 39 H 1.40457 6.35815 7.26986 0
M  V30 40 H 4.04357 1.61644 6.13565 0
M  V30 41 P 5.90114 3.65191 7.99657 0
M  V30 42 O 7.32314 3.8425 8.48115 0
M  V30 43 O 5.54114 4.17805 6.64342 0
M  V30 44 O 5.57814 2.07613 7.95143 0
M  V30 45 C 5.41814 1.44328 9.27336 0
M  V30 46 C 5.95814 0.0220036 9.17197 0
M  V30 47 O 4.90214 -0.626867 8.61923 0
M  V30 48 C 7.17614 -0.24586 8.30336 0
M  V30 49 O 7.91414 -1.39011 8.63583 0
M  V30 50 C 6.50714 -0.273849 6.91158 0
M  V30 51 O 7.30614 -1.06348 6.02892 0
M  V30 52 C 5.17014 -0.897649 7.22545 0
M  V30 53 H 5.20214 -1.9841 7.04286 0
M  V30 54 H 6.38514 0.739928 6.497 0
M  V30 55 H 7.86914 0.60668 8.36503 0
M  V30 56 H 6.17514 -0.352479 10.1829 0
M  V30 57 H 5.98514 2.00611 10.0304 0
M  V30 58 H 4.35514 1.41843 9.55327 0
M  V30 59 H 6.99414 -1.95734 6.03555 0
M  V30 60 P 8.85171 -1.25109 8.70152 0
M  V30 61 O 10.2727 -1.35288 9.2132 0
M  V30 62 O 8.49171 -0.0769065 7.84762 0
M  V30 63 O 8.52871 -2.55232 7.81161 0
M  V30 64 C 8.36771 -3.79979 8.58246 0
M  V30 65 C 8.90871 -4.94023 7.72785 0
M  V30 66 O 7.85371 -5.18666 6.91125 0
M  V30 67 C 10.1267 -4.69597 6.85231 0
M  V30 68 O 10.8647 -5.83832 6.51337 0
M  V30 69 C 9.45871 -3.96706 5.66633 0
M  V30 70 O 10.2567 -4.14896 4.5003 0
M  V30 71 C 8.12071 -4.66153 5.59313 0
M  V30 72 N 7.07771 -3.71582 5.24027 0
M  V30 73 C 7.24671 -2.39715 5.48833 0
M  V30 74 N 6.21971 -1.65863 5.12845 0
M  V30 75 C 5.33471 -2.57637 4.5973 0
M  V30 76 C 4.06771 -2.40278 4.01027 0
M  V30 77 N 3.50271 -3.57711 3.59575 0
M  V30 78 C 4.10471 -4.80324 3.70476 0
M  V30 79 N 5.28171 -5.01121 4.23801 0
M  V30 80 C 5.85671 -3.84757 4.66372 0
M  V30 81 H 9.33571 -2.8955 5.86187 0
M  V30 82 H 10.8187 -4.0121 7.36511 0
M  V30 83 H 9.12471 -5.81019 8.37003 0
M  V30 84 H 8.93471 -3.73517 9.52265 0
M  V30 85 H 7.30471 -3.97163 8.80359 0
M  V30 86 H 8.14671 -1.98804 5.94332 0
M  V30 87 H 9.94471 -4.90891 4.01857 0
M  V30 88 P 11.8023 -5.75688 6.64379 0
M  V30 89 O 13.2243 -6.11849 7.01846 0
M  V30 90 O 11.4423 -4.30744 6.56026 0
M  V30 91 O 11.4793 -6.37042 5.19165 0
M  V30 92 C 11.3193 -7.83578 5.16515 0
M  V30 93 C 11.8593 -8.33398 3.83019 0
M  V30 94 O 10.8033 -8.10074 3.01034 0
M  V30 95 C 13.0773 -7.65514 3.2257 0
M  V30 96 O 13.8153 -8.4329 2.32297 0
M  V30 97 C 12.4083 -6.40075 2.62207 0
M  V30 98 O 13.2073 -5.92589 1.53712 0
M  V30 99 C 11.0713 -6.9454 2.18503 0
M  V30 100 H 11.1033 -7.23063 1.12091 0
M  V30 101 H 12.2863 -5.6025 3.37201 0
M  V30 102 H 13.7703 -7.35707 4.02681 0
M  V30 103 H 12.0763 -9.40912 3.9095 0
M  V30 104 H 11.8863 -8.29056 5.99158 0
M  V30 105 H 10.2563 -8.10073 5.25882 0
M  V30 106 H 12.8953 -6.30324 0.726794 0
M  V30 107 P 14.7528 -8.4349 2.47671 0
M  V30 108 O 16.1748 -8.94167 2.5964 0
M  V30 109 O 14.3928 -7.1704 3.19006 0
M  V30 110 O 14.4298 -8.16596 0.923387 0
M  V30 111 C 14.2698 -9.38437 0.108857 0
M  V30 112 C 14.8098 -9.08175 -1.28353 0
M  V30 113 O 13.7538 -8.44229 -1.84713 0
M  V30 114 C 16.0278 -8.18386 -1.42505 0
M  V30 115 O 16.7659 -8.3501 -2.60497 0
M  V30 116 C 15.3588 -6.80225 -1.25468 0
M  V30 117 O 16.1578 -5.81621 -1.91066 0
M  V30 118 C 14.0218 -7.02416 -1.9168 0
M  V30 119 H 14.0538 -6.6888 -2.96621 0
M  V30 120 H 15.2368 -6.53617 -0.192223 0
M  V30 121 H 16.7208 -8.36622 -0.589963 0
M  V30 122 H 15.0268 -10.0291 -1.79807 0
M  V30 123 H 14.8368 -10.2138 0.558219 0
M  V30 124 H 13.2068 -9.6579 0.0444202 0
M  V30 125 H 15.8458 -5.69556 -2.79637 0
M  V30 126 P 17.7034 -8.4349 -2.47671 0
M  V30 127 O 19.1254 -8.92593 -2.65 0
M  V30 128 O 17.3434 -7.7568 -1.19296 0
M  V30 129 O 17.3804 -7.36886 -3.63805 0
M  V30 130 C 17.2204 -7.95349 -4.982 0
M  V30 131 C 17.7604 -6.94612 -5.98974 0
M  V30 132 O 16.7044 -6.10347 -6.11815 0
M  V30 133 C 18.9784 -6.11426 -5.62335 0
M  V30 134 O 19.7164 -5.6162 -6.70584 0
M  V30 135 C 18.3094 -5.04409 -4.73308 0
M  V30 136 O 19.1084 -3.85992 -4.75183 0
M  V30 137 C 16.9724 -4.8728 -5.41006 0
M  V30 138 H 17.0044 -4.02333 -6.11157 0
M  V30 139 H 18.1874 -5.39466 -3.69543 0
M  V30 140 H 19.6714 -6.71916 -5.01943 0
M  V30 141 H 17.9774 -7.4649 -6.93477 0
M  V30 142 H 17.7874 -8.89416 -5.05237 0
M  V30 143 H 16.1574 -8.14876 -5.18409 0
M  V30 144 H 18.7964 -3.27957 -5.4317 0
M  V30 145 P 20.654 -5.75688 -6.64379 0
M  V30 146 O 22.076 -6.07627 -7.05504 0
M  V30 147 O 20.294 -5.88047 -5.19722 0
M  V30 148 O 20.331 -4.2322 -7.04443 0
M  V30 149 C 20.171 -3.99743 -8.4911 0
M  V30 150 C 20.711 -2.60516 -8.79425 0
M  V30 151 O 19.655 -1.82684 -8.4467 0
M  V30 152 C 21.929 -2.10343 -8.03628 0
M  V30 153 O 22.667 -1.09919 -8.67766 0
M  V30 154 C 21.26 -1.68446 -6.70876 0
M  V30 155 O 22.059 -0.678137 -6.08433 0
M  V30 156 C 19.923 -1.17436 -7.18567 0
M  V30 157 H 19.955 -0.0804732 -7.31656 0
M  V30 158 H 21.138 -2.54037 -6.02537 0
M  V30 159 H 22.622 -2.93881 -7.85526 0
M  V30 160 H 20.928 -2.53065 -9.86973 0
M  V30 161 H 20.738 -4.75072 -9.05887 0
M  V30 162 H 19.108 -4.05244 -8.76668 0
M  V30 163 H 21.747 0.177647 -6.34251 0
M  V30 164 P 23.6046 -1.25109 -8.70152 0
M  V30 165 O 25.0266 -1.29744 -9.22016 0
M  V30 166 O 23.2446 -2.13714 -7.55141 0
M  V30 167 O 23.2816 0.248149 -8.21425 0
M  V30 168 C 23.1216 1.22779 -9.30434 0
M  V30 169 C 23.6616 2.56293 -8.80664 0
M  V30 170 O 22.6056 3.02979 -8.09349 0
M  V30 171 C 24.8796 2.57523 -7.89775 0
M  V30 172 O 25.6176 3.7668 -7.89438 0
M  V30 173 C 24.2106 2.20997 -6.55446 0
M  V30 174 O 25.0096 2.71895 -5.48509 0
M  V30 175 C 22.8736 2.89693 -6.67988 0
M  V30 176 H 22.9056 3.88793 -6.19859 0
M  V30 177 H 24.0886 1.12046 -6.44229 0
M  V30 178 H 25.5726 1.7746 -8.19711 0
M  V30 179 H 23.8786 3.20706 -9.67112 0
M  V30 180 H 23.6886 0.901032 -10.1892 0
M  V30 181 H 22.0586 1.33049 -9.56592 0
M  V30 182 H 24.6976 3.57847 -5.23962 0
M  V30 183 P 26.5551 3.65191 -7.99657 0
M  V30 184 O 27.9771 3.89332 -8.45794 0
M  V30 185 O 26.1951 2.28472 -7.50807 0
M  V30 186 O 26.2321 4.64972 -6.77611 0
M  V30 187 C 26.0721 6.06319 -7.16352 0
M  V30 188 C 26.6121 6.91731 -6.02299 0
M  V30 189 O 25.5561 6.92449 -5.17064 0
M  V30 190 C 27.8301 6.43627 -5.25174 0
M  V30 191 O 28.5681 7.43686 -4.60469 0
M  V30 192 C 27.1611 5.40275 -4.31916 0
M  V30 193 O 27.9601 5.25279 -3.14438 0
M  V30 194 C 25.8241 6.04847 -4.05327 0
M  V30 195 H 25.8561 6.62195 -3.11261 0
M  V30 196 H 27.0391 4.42556 -4.81383 0
M  V30 197 H 28.5231 5.92458 -5.93643 0
M  V30 198 H 26.8291 7.92655 -6.402 0
M  V30 199 H 26.6391 6.26671 -8.0846 0
M  V30 200 H 25.0091 6.29101 -7.32804 0
M  V30 201 H 27.6481 5.84315 -2.47318 0
M  V30 202 P 29.5057 7.39546 -4.75277 0
M  V30 203 O 30.9277 7.84798 -5.01039 0
M  V30 204 O 29.1457 5.9812 -5.08098 0
M  V30 205 O 29.1827 7.57503 -3.1866 0
M  V30 206 C 29.0227 8.97357 -2.74833 0
M  V30 207 C 29.5627 9.07548 -1.32709 0
M  V30 208 O 28.5067 8.62072 -0.606159 0
M  V30 209 C 30.7807 8.25383 -0.938334 0
M  V30 210 O 31.5187 8.74577 0.146954 0
M  V30 211 C 30.1117 6.8802 -0.712559 0
M  V30 212 O 30.9107 6.1189 0.194655 0
M  V30 213 C 28.7747 7.27966 -0.139777 0
M  V30 214 H 28.8067 7.25354 0.961601 0
M  V30 215 H 29.9897 6.32557 -1.65702 0
M  V30 216 H 31.4737 8.19355 -1.79097 0
M  V30 217 H 29.7797 10.1294 -1.10029 0
M  V30 218 H 29.5897 9.64276 -3.41316 0
M  V30 219 H 27.9597 9.25417 -2.76357 0
M  V30 220 H 30.5987 6.25267 1.07847 0
M  V30 221 P 32.4563 8.791 -9.96115e-15 0
M  V30 222 O 33.8783 9.31096 0.027933 0
M  V30 223 O 32.0963 7.77869 -1.04071 0
M  V30 224 O 32.1333 8.09533 1.41463 0
M  V30 225 C 31.9733 9.0349 2.53943 0
M  V30 226 C 32.5133 8.35226 3.79016 0
M  V30 227 O 31.4573 7.57992 4.15078 0
M  V30 228 C 33.7313 7.45087 3.67298 0
M  V30 229 O 34.4693 7.27796 4.85194 0
M  V30 230 C 33.0623 6.17323 3.12027 0
M  V30 231 O 33.8613 5.04231 3.47188 0
M  V30 232 C 31.7253 6.19961 3.81809 0
M  V30 233 H 31.7573 5.58218 4.73051 0
M  V30 234 H 32.9403 6.21726 2.02589 0
M  V30 235 H 34.4243 7.86112 2.9231 0
M  V30 236 H 32.7303 9.11627 4.55076 0
M  V30 237 H 32.5403 9.9573 2.34194 0
M  V30 238 H 30.9103 9.2792 2.67832 0
M  V30 239 H 33.5493 4.67702 4.28772 0
M  V30 240 P 35.4068 7.39546 4.75277 0
M  V30 241 O 36.8288 7.81777 5.05738 0
M  V30 242 O 35.0468 7.1065 3.32998 0
M  V30 243 O 35.0838 6.04542 5.56673 0
M  V30 244 C 34.9238 6.22772 7.02095 0
M  V30 245 C 35.4638 4.97725 7.70406 0
M  V30 246 O 34.4078 4.13256 7.58987 0
M  V30 247 C 36.6818 4.28231 7.11815 0
M  V30 248 O 37.4198 3.49945 8.01648 0
M  V30 249 C 36.0128 3.5063 5.96244 0
M  V30 250 O 36.8118 2.36482 5.64681 0
M  V30 251 C 34.6758 3.15122 6.56374 0
M  V30 252 H 34.7078 2.13853 6.99751 0
M  V30 253 H 35.8908 4.13501 5.06559 0
M  V30 254 H 37.3748 5.03285 6.70911 0
M  V30 255 H 35.6808 5.20877 8.75697 0
M  V30 256 H 35.4908 7.11046 7.35349 0
M  V30 257 H 33.8608 6.35815 7.26986 0
M  V30 258 H 36.4998 1.61644 6.13565 0
M  V30 259 P 38.3574 3.65191 7.99657 0
M  V30 260 O 39.7794 3.8425 8.48115 0
M  V30 261 O 37.9974 4.17805 6.64342 0
M  V30 262 O 38.0344 2.07613 7.95143 0
M  V30 263 C 37.8744 1.44328 9.27336 0
M  V30 264 C 38.4144 0.0220036 9.17197 0
M  V30 265 O 37.3584 -0.626867 8.61923 0
M  V30 266 C 39.6324 -0.24586 8.30336 0
M  V30 267 O 40.3704 -1.39011 8.63583 0
M  V30 268 C 38.9634 -0.273849 6.91158 0
M  V30 269 O 39.7624 -1.06348 6.02892 0
M  V30 270 C 37.6264 -0.897649 7.22545 0
M  V30 271 H 37.6584 -1.9841 7.04286 0
M  V30 272 H 38.8414 0.739928 6.497 0
M  V30 273 H 40.3254 0.60668 8.36503 0
M  V30 274 H 38.6314 -0.352479 10.1829 0
M  V30 275 H 38.4414 2.00611 10.0304 0
M  V30 276 H 36.8114 1.41843 9.55327 0
M  V30 277 H 39.4504 -1.95734 6.03555 0
M  V30 278 P 41.308 -1.25109 8.70152 0
M  V30 279 O 42.73 -1.35274 9.21221 0
M  V30 280 O 40.948 -0.0769065 7.84762 0
M  V30 281 O 40.985 -2.55232 7.81161 0
M  V30 282 C 40.825 -3.79939 8.58154 0
M  V30 283 C 41.365 -4.94023 7.72785 0
M  V30 284 O 40.309 -5.18726 6.91205 0
M  V30 285 C 42.583 -4.69597 6.85231 0
M  V30 286 O 43.321 -5.83832 6.51337 0
M  V30 287 C 41.914 -3.96706 5.66633 0
M  V30 288 O 42.713 -4.15414 4.49689 0
M  V30 289 C 40.577 -4.66153 5.59313 0
M  V30 290 H 40.609 -5.47679 4.85214 0
M  V30 291 H 41.792 -2.89008 5.86566 0
M  V30 292 H 43.276 -4.0121 7.36511 0
M  V30 293 H 41.582 -5.80182 8.37584 0
M  V30 294 H 41.392 -3.73517 9.52265 0
M  V30 295 H 39.762 -3.97163 8.80359 0
M  V30 296 H 42.401 -4.90969 4.01921 0
M  V30 297 P 44.2585 -5.75688 6.64379 0
M  V30 298 O 45.6805 -6.11849 7.01846 0
M  V30 299 O 43.8985 -4.30744 6.56026 0
M  V30 300 O 43.9355 -6.37042 5.19165 0
M  V30 301 C 43.7755 -7.83578 5.16515 0
M  V30 302 C 44.3155 -8.33398 3.83019 0
M  V30 303 O 43.2595 -8.10074 3.01034 0
M  V30 304 C 45.5335 -7.65514 3.2257 0
M  V30 305 O 46.2715 -8.4329 2.32297 0
M  V30 306 C 44.8645 -6.40075 2.62207 0
M  V30 307 O 45.6635 -5.92589 1.53712 0
M  V30 308 C 43.5275 -6.9454 2.18503 0
M  V30 309 H 43.5595 -7.23063 1.12091 0
M  V30 310 H 44.7425 -5.6025 3.37201 0
M  V30 311 H 46.2265 -7.35707 4.02681 0
M  V30 312 H 44.5325 -9.40912 3.9095 0
M  V30 313 H 44.3425 -8.29056 5.99158 0
M  V30 314 H 42.7125 -8.10073 5.25882 0
M  V30 315 H 45.3515 -6.30324 0.726794 0
M  V30 316 P 47.2091 -8.4349 2.47671 0
M  V30 317 O 48.6311 -8.94359 2.59696 0
M  V30 318 O 46.8491 -7.1704 3.19006 0
M  V30 319 O 46.8861 -8.16596 0.923387 0
M  V30 320 C 46.7261 -9.38437 0.108857 0
M  V30 321 C 47.2661 -9.08076 -1.28339 0
M  V30 322 O 46.2111 -8.44229 -1.84713 0
M  V30 323 C 48.4841 -8.18386 -1.42505 0
M  V30 324 O 49.2221 -8.3501 -2.60497 0
M  V30 325 C 47.8161 -6.80225 -1.25468 0
M  V30 326 O 48.6141 -5.81526 -1.91035 0
M  V30 327 C 46.4781 -7.02416 -1.9168 0
M  V30 328 N 45.4351 -6.31033 -1.20314 0
M  V30 329 C 45.4971 -6.18781 0.121293 0
M  V30 330 N 44.4521 -5.49762 0.588272 0
M  V30 331 C 43.7181 -5.22015 -0.488988 0
M  V30 332 C 42.4121 -4.61966 -0.596448 0
M  V30 333 O 41.6791 -4.19162 0.309059 0
M  V30 334 N 41.9821 -4.53773 -1.878 0
M  V30 335 C 42.7311 -4.99623 -2.99082 0
M  V30 336 N 42.1341 -4.78912 -4.21227 0
M  V30 337 N 43.8841 -5.59957 -2.91093 0
M  V30 338 C 44.3411 -5.70225 -1.64218 0
M  V30 339 H 46.5101 -6.6888 -2.96621 0
M  V30 340 H 47.6931 -6.53517 -0.192194 0
M  V30 341 H 49.1781 -8.36563 -0.598329 0
M  V30 342 H 47.4831 -10.0291 -1.79807 0
M  V30 343 H 47.2931 -10.2138 0.558219 0
M  V30 344 H 45.6621 -9.6579 0.0444202 0
M  V30 345 H 41.0861 -4.12883 -2.05283 0
M  V30 346 H 46.2931 -6.59596 0.745856 0
M  V30 347 H 41.2231 -4.31425 -4.2628 0
M  V30 348 H 42.5991 -5.11219 -5.07148 0
M  V30 349 H 48.3031 -5.69466 -2.79593 0
M  V30 350 P 50.1597 -8.4349 -2.47671 0
M  V30 351 O 51.5807 -8.92689 -2.65029 0
M  V30 352 O 49.7997 -7.7568 -1.19296 0
M  V30 353 O 49.8367 -7.36886 -3.63805 0
M  V30 354 C 49.6757 -7.95433 -4.98253 0
M  V30 355 C 50.2167 -6.94612 -5.98974 0
M  V30 356 O 49.1617 -6.10277 -6.11744 0
M  V30 357 C 51.4347 -6.11426 -5.62335 0
M  V30 358 O 52.1727 -5.6162 -6.70584 0
M  V30 359 C 50.7667 -5.04409 -4.73308 0
M  V30 360 O 51.5647 -3.86404 -4.74719 0
M  V30 361 C 49.4287 -4.8728 -5.41006 0
M  V30 362 N 48.3857 -4.65812 -4.42377 0
M  V30 363 C 48.5547 -5.09132 -3.15382 0
M  V30 364 N 47.5277 -4.84021 -2.3716 0
M  V30 365 C 46.6427 -4.18386 -3.20441 0
M  V30 366 C 45.3757 -3.6275 -2.94905 0
M  V30 367 N 44.8107 -3.05008 -4.05243 0
M  V30 368 C 45.4127 -2.98348 -5.28159 0
M  V30 369 N 46.5897 -3.48171 -5.56333 0
M  V30 370 C 47.1647 -4.06869 -4.47212 0
M  V30 371 H 50.6437 -5.39013 -3.70026 0
M  V30 372 H 52.1267 -6.71916 -5.01943 0
M  V30 373 H 50.4327 -7.45796 -6.94223 0
M  V30 374 H 50.2427 -8.89416 -5.05237 0
M  V30 375 H 48.6127 -8.14876 -5.18409 0
M  V30 376 H 49.4547 -5.59989 -2.81362 0
M  V30 377 H 51.2527 -3.27906 -5.43085 0
M  V30 378 P 53.1103 -5.75688 -6.64379 0
M  V30 379 O 54.5323 -6.07627 -7.05504 0
M  V30 380 O 52.7503 -5.88047 -5.19722 0
M  V30 381 O 52.7873 -4.2322 -7.04443 0
M  V30 382 C 52.6273 -3.99743 -8.4911 0
M  V30 383 C 53.1673 -2.60516 -8.79425 0
M  V30 384 O 52.1113 -1.82684 -8.4467 0
M  V30 385 C 54.3853 -2.10343 -8.03628 0
M  V30 386 O 55.1233 -1.09919 -8.67766 0
M  V30 387 C 53.7163 -1.68446 -6.70876 0
M  V30 388 O 54.5153 -0.678137 -6.08433 0
M  V30 389 C 52.3793 -1.17436 -7.18567 0
M  V30 390 H 52.4113 -0.0804732 -7.31656 0
M  V30 391 H 53.5943 -2.54037 -6.02537 0
M  V30 392 H 55.0783 -2.93881 -7.85526 0
M  V30 393 H 53.3843 -2.53065 -9.86973 0
M  V30 394 H 53.1943 -4.75072 -9.05887 0
M  V30 395 H 51.5643 -4.05244 -8.76668 0
M  V30 396 H 54.2033 0.177647 -6.34251 0
M  V30 397 P 56.0608 -1.25109 -8.70152 0
M  V30 398 O 57.4828 -1.29744 -9.22016 0
M  V30 399 O 55.7008 -2.13714 -7.55141 0
M  V30 400 O 55.7378 0.248149 -8.21425 0
M  V30 401 C 55.5778 1.22779 -9.30434 0
M  V30 402 C 56.1178 2.56293 -8.80664 0
M  V30 403 O 55.0618 3.02979 -8.09349 0
M  V30 404 C 57.3358 2.57523 -7.89775 0
M  V30 405 O 58.0738 3.7668 -7.89438 0
M  V30 406 C 56.6668 2.20997 -6.55446 0
M  V30 407 O 57.4658 2.71895 -5.48509 0
M  V30 408 C 55.3298 2.89693 -6.67988 0
M  V30 409 H 55.3618 3.88793 -6.19859 0
M  V30 410 H 56.5448 1.12046 -6.44229 0
M  V30 411 H 58.0288 1.7746 -8.19711 0
M  V30 412 H 56.3348 3.20706 -9.67112 0
M  V30 413 H 56.1448 0.901032 -10.1892 0
M  V30 414 H 54.5148 1.33049 -9.56592 0
M  V30 415 H 57.1538 3.57847 -5.23962 0
M  V30 416 P 59.0114 3.65191 -7.99657 0
M  V30 417 O 60.4334 3.89332 -8.45794 0
M  V30 418 O 58.6514 2.28472 -7.50807 0
M  V30 419 O 58.6884 4.64972 -6.77611 0
M  V30 420 C 58.5284 6.06319 -7.16352 0
M  V30 421 C 59.0684 6.91731 -6.02299 0
M  V30 422 O 58.0124 6.92449 -5.17064 0
M  V30 423 C 60.2864 6.43627 -5.25174 0
M  V30 424 O 61.0244 7.43686 -4.60469 0
M  V30 425 C 59.6174 5.40275 -4.31916 0
M  V30 426 O 60.4164 5.25279 -3.14438 0
M  V30 427 C 58.2804 6.04847 -4.05327 0
M  V30 428 H 58.3124 6.62195 -3.11261 0
M  V30 429 H 59.4954 4.42556 -4.81383 0
M  V30 430 H 60.9794 5.92458 -5.93643 0
M  V30 431 H 59.2854 7.92655 -6.402 0
M  V30 432 H 59.0954 6.26671 -8.0846 0
M  V30 433 H 57.4654 6.29101 -7.32804 0
M  V30 434 H 60.1044 5.84315 -2.47318 0
M  V30 435 P 61.962 7.39546 -4.75277 0
M  V30 436 O 63.384 7.84798 -5.01039 0
M  V30 437 O 61.602 5.9812 -5.08098 0
M  V30 438 O 61.639 7.57503 -3.1866 0
M  V30 439 C 61.479 8.97357 -2.74833 0
M  V30 440 C 62.019 9.07548 -1.32709 0
M  V30 441 O 60.963 8.62072 -0.606159 0
M  V30 442 C 63.237 8.25383 -0.938334 0
M  V30 443 O 63.975 8.74577 0.146954 0
M  V30 444 C 62.568 6.8802 -0.712559 0
M  V30 445 O 63.367 6.1189 0.194655 0
M  V30 446 C 61.231 7.27966 -0.139777 0
M  V30 447 H 61.263 7.25354 0.961601 0
M  V30 448 H 62.446 6.32557 -1.65702 0
M  V30 449 H 63.93 8.19355 -1.79097 0
M  V30 450 H 62.236 10.1294 -1.10029 0
M  V30 451 H 62.046 9.64276 -3.41316 0
M  V30 452 H 60.416 9.25417 -2.76357 0
M  V30 453 H 63.055 6.25267 1.07847 0
M  V30 454 P 64.9125 8.791 -3.55383e-14 0
M  V30 455 O 66.3345 9.31096 0.027933 0
M  V30 456 O 64.5525 7.77869 -1.04071 0
M  V30 457 O 64.5895 8.09533 1.41463 0
M  V30 458 C 64.4295 9.0349 2.53943 0
M  V30 459 C 64.9695 8.35226 3.79016 0
M  V30 460 O 63.9135 7.57992 4.15078 0
M  V30 461 C 66.1875 7.45087 3.67298 0
M  V30 462 O 66.9255 7.27796 4.85194 0
M  V30 463 C 65.5185 6.17323 3.12027 0
M  V30 464 O 66.3175 5.04231 3.47188 0
M  V30 465 C 64.1815 6.19961 3.81809 0
M  V30 466 H 64.2135 5.58218 4.73051 0
M  V30 467 H 65.3965 6.21726 2.02589 0
M  V30 468 H 66.8805 7.86112 2.9231 0
M  V30 469 H 65.1865 9.11627 4.55076 0
M  V30 470 H 64.9965 9.9573 2.34194 0
M  V30 471 H 63.3665 9.2792 2.67832 0
M  V30 472 H 66.0055 4.67702 4.28772 0
M  V30 473 P 67.8631 7.39546 4.75277 0
M  V30 474 O 69.2851 7.81777 5.05738 0
M  V30 475 O 67.5031 7.1065 3.32998 0
M  V30 476 O 67.5401 6.04542 5.56673 0
M  V30 477 C 67.3801 6.22772 7.02095 0
M  V30 478 C 67.9201 4.97725 7.70406 0
M  V30 479 O 66.8641 4.13256 7.58987 0
M  V30 480 C 69.1381 4.28231 7.11815 0
M  V30 481 O 69.8761 3.49945 8.01648 0
M  V30 482 C 68.4691 3.5063 5.96244 0
M  V30 483 O 69.2681 2.36482 5.64681 0
M  V30 484 C 67.1321 3.15122 6.56374 0
M  V30 485 H 67.1641 2.13853 6.99751 0
M  V30 486 H 68.3471 4.13501 5.06559 0
M  V30 487 H 69.8311 5.03285 6.70911 0
M  V30 488 H 68.1371 5.20877 8.75697 0
M  V30 489 H 67.9471 7.11046 7.35349 0
M  V30 490 H 66.3171 6.35815 7.26986 0
M  V30 491 H 68.9561 1.61644 6.13565 0
M  V30 492 P 70.8137 3.65191 7.99657 0
M  V30 493 O 72.2357 3.8425 8.48115 0
M  V30 494 O 70.4537 4.17805 6.64342 0
M  V30 495 O 70.4907 2.07613 7.95143 0
M  V30 496 C 70.3307 1.44328 9.27336 0
M  V30 497 C 70.8707 0.0220036 9.17197 0
M  V30 498 O 69.8147 -0.626867 8.61923 0
M  V30 499 C 72.0887 -0.24586 8.30336 0
M  V30 500 O 72.8267 -1.39011 8.63583 0
M  V30 501 C 71.4197 -0.273849 6.91158 0
M  V30 502 O 72.2187 -1.06348 6.02892 0
M  V30 503 C 70.0827 -0.897649 7.22545 0
M  V30 504 H 70.1147 -1.9841 7.04286 0
M  V30 505 H 71.2977 0.739928 6.497 0
M  V30 506 H 72.7817 0.60668 8.36503 0
M  V30 507 H 71.0877 -0.352479 10.1829 0
M  V30 508 H 70.8977 2.00611 10.0304 0
M  V30 509 H 69.2677 1.41843 9.55327 0
M  V30 510 H 71.9067 -1.95734 6.03555 0
M  V30 511 P 73.7642 -1.25109 8.70152 0
M  V30 512 O 75.1862 -1.35274 9.21221 0
M  V30 513 O 73.4042 -0.0769065 7.84762 0
M  V30 514 O 73.4412 -2.55232 7.81161 0
M  V30 515 C 73.2812 -3.79939 8.58154 0
M  V30 516 C 73.8212 -4.94023 7.72785 0
M  V30 517 O 72.7652 -5.18726 6.91205 0
M  V30 518 C 75.0392 -4.69597 6.85231 0
M  V30 519 O 75.7772 -5.83832 6.51337 0
M  V30 520 C 74.3702 -3.96706 5.66633 0
M  V30 521 O 75.1692 -4.15414 4.49689 0
M  V30 522 C 73.0332 -4.66153 5.59313 0
M  V30 523 H 73.0652 -5.47679 4.85214 0
M  V30 524 H 74.2482 -2.89008 5.86566 0
M  V30 525 H 75.7322 -4.0121 7.36511 0
M  V30 526 H 74.0382 -5.80182 8.37584 0
M  V30 527 H 73.8482 -3.73517 9.52265 0
M  V30 528 H 72.2182 -3.97163 8.80359 0
M  V30 529 H 74.8572 -4.90969 4.01921 0
M  V30 530 P 76.7148 -5.75688 6.64379 0
M  V30 531 O 78.1368 -6.11981 7.01997 0
M  V30 532 O 76.3548 -4.30744 6.56026 0
M  V30 533 O 76.3918 -6.37042 5.19165 0
M  V30 534 C 76.2318 -7.83578 5.16515 0
M  V30 535 C 76.7718 -8.33307 3.82977 0
M  V30 536 O 75.7168 -8.10074 3.01034 0
M  V30 537 C 77.9898 -7.65514 3.2257 0
M  V30 538 O 78.7278 -8.4329 2.32297 0
M  V30 539 C 77.3218 -6.40075 2.62207 0
M  V30 540 O 78.1198 -5.92492 1.53687 0
M  V30 541 C 75.9838 -6.9454 2.18503 0
M  V30 542 N 74.9408 -5.95905 2.39948 0
M  V30 543 C 75.0028 -5.13994 3.44742 0
M  V30 544 N 73.9578 -4.30684 3.46712 0
M  V30 545 C 73.2238 -4.65583 2.41086 0
M  V30 546 C 71.9178 -4.20877 1.99581 0
M  V30 547 O 71.1848 -3.35913 2.52616 0
M  V30 548 N 71.4878 -4.83271 0.873406 0
M  V30 549 C 72.2368 -5.82006 0.185129 0
M  V30 550 N 71.6398 -6.30619 -0.95439 0
M  V30 551 N 73.3898 -6.28443 0.578524 0
M  V30 552 C 73.8468 -5.68486 1.70138 0
M  V30 553 H 76.0158 -7.23063 1.12091 0
M  V30 554 H 77.1988 -5.60165 3.3715 0
M  V30 555 H 78.6838 -7.3611 4.01946 0
M  V30 556 H 76.9888 -9.40912 3.9095 0
M  V30 557 H 76.7988 -8.29056 5.99158 0
M  V30 558 H 75.1678 -8.10073 5.25882 0
M  V30 559 H 70.5918 -4.58323 0.505262 0
M  V30 560 H 75.7988 -5.14564 4.1935 0
M  V30 561 H 70.7288 -5.93402 -1.25364 0
M  V30 562 H 72.1048 -7.0425 -1.50254 0
M  V30 563 H 77.8088 -6.30224 0.72668 0
M  V30 564 P 79.6654 -8.4349 2.47671 0
M  V30 565 O 81.0874 -8.94167 2.5964 0
M  V30 566 O 79.3054 -7.1704 3.19006 0
M  V30 567 O 79.3424 -8.16596 0.923387 0
M  V30 568 C 79.1824 -9.38437 0.108857 0
M  V30 569 C 79.7224 -9.08175 -1.28353 0
M  V30 570 O 78.6664 -8.44229 -1.84713 0
M  V30 571 C 80.9404 -8.18386 -1.42505 0
M  V30 572 O 81.6784 -8.3501 -2.60497 0
M  V30 573 C 80.2714 -6.80225 -1.25468 0
M  V30 574 O 81.0704 -5.81621 -1.91066 0
M  V30 575 C 78.9344 -7.02416 -1.9168 0
M  V30 576 H 78.9664 -6.6888 -2.96621 0
M  V30 577 H 80.1494 -6.53617 -0.192223 0
M  V30 578 H 81.6334 -8.36622 -0.589963 0
M  V30 579 H 79.9394 -10.0291 -1.79807 0
M  V30 580 H 79.7494 -10.2138 0.558219 0
M  V30 581 H 78.1194 -9.6579 0.0444202 0
M  V30 582 H 80.7584 -5.69556 -2.79637 0
M  V30 583 P 82.616 -8.4349 -2.47671 0
M  V30 584 O 84.038 -8.92593 -2.65 0
M  V30 585 O 82.256 -7.7568 -1.19296 0
M  V30 586 O 82.293 -7.36886 -3.63805 0
M  V30 587 C 82.133 -7.95349 -4.982 0
M  V30 588 C 82.673 -6.94612 -5.98974 0
M  V30 589 O 81.617 -6.10347 -6.11815 0
M  V30 590 C 83.891 -6.11426 -5.62335 0
M  V30 591 O 84.629 -5.6162 -6.70584 0
M  V30 592 C 83.222 -5.04409 -4.73308 0
M  V30 593 O 84.021 -3.85992 -4.75183 0
M  V30 594 C 81.885 -4.8728 -5.41006 0
M  V30 595 H 81.917 -4.02333 -6.11157 0
M  V30 596 H 83.1 -5.39466 -3.69543 0
M  V30 597 H 84.584 -6.71916 -5.01943 0
M  V30 598 H 82.89 -7.4649 -6.93477 0
M  V30 599 H 82.7 -8.89416 -5.05237 0
M  V30 600 H 81.07 -8.14876 -5.18409 0
M  V30 601 H 83.709 -3.27957 -5.4317 0
M  V30 602 P 85.5665 -5.75688 -6.64379 0
M  V30 603 O 86.9675 -6.14823 -7.06682 0
M  V30 604 O 85.1885 -5.93957 -5.20728 0
M  V30 605 O 85.2435 -4.23169 -7.04357 0
M  V30 606 C 85.0835 -3.99743 -8.4911 0
M  V30 607 C 85.6235 -2.60487 -8.79329 0
M  V30 608 O 84.5675 -1.82663 -8.44573 0
M  V30 609 C 86.8405 -2.10343 -8.03628 0
M  V30 610 O 87.5795 -1.09919 -8.67766 0
M  V30 611 C 86.1735 -1.68446 -6.70876 0
M  V30 612 O 86.9715 -0.678026 -6.08333 0
M  V30 613 C 84.8355 -1.17436 -7.18567 0
M  V30 614 N 83.7925 -1.52699 -6.23988 0
M  V30 615 C 82.7575 -0.643793 -6.05085 0
M  V30 616 O 82.7965 0.459118 -6.64315 0
M  V30 617 N 81.7455 -0.976931 -5.22038 0
M  V30 618 C 81.7935 -2.14429 -4.56662 0
M  V30 619 C 82.8895 -3.04203 -4.71481 0
M  V30 620 C 83.8555 -2.69669 -5.56838 0
M  V30 621 H 84.8675 -0.0804622 -7.31556 0
M  V30 622 H 86.0505 -2.53396 -6.02698 0
M  V30 623 H 87.5345 -2.9313 -7.85914 0
M  V30 624 H 85.8405 -2.52078 -9.87225 0
M  V30 625 H 85.6495 -4.75072 -9.05887 0
M  V30 626 H 84.0195 -4.05202 -8.76577 0
M  V30 627 H 82.9375 -3.97309 -4.15519 0
M  V30 628 H 84.7015 -3.36869 -5.72318 0
M  V30 629 H 86.7555 0.167718 -6.44882 0
M  V30 630 P 88.5171 -1.25109 -8.70152 0
M  V30 631 O 89.9381 -1.29758 -9.22115 0
M  V30 632 O 88.1571 -2.13714 -7.55141 0
M  V30 633 O 88.1941 0.248149 -8.21425 0
M  V30 634 C 88.0331 1.22792 -9.30533 0
M  V30 635 C 88.5741 2.56293 -8.80664 0
M  V30 636 O 87.5191 3.02944 -8.09255 0
M  V30 637 C 89.7921 2.57523 -7.89775 0
M  V30 638 O 90.5301 3.7668 -7.89438 0
M  V30 639 C 89.1241 2.20997 -6.55446 0
M  V30 640 O 89.9221 2.71302 -5.48691 0
M  V30 641 C 87.7861 2.89693 -6.67988 0
M  V30 642 N 86.7431 2.08895 -6.07487 0
M  V30 643 C 86.9121 0.753809 -5.94137 0
M  V30 644 N 85.8851 0.146592 -5.38801 0
M  V30 645 C 85.0001 1.1768 -5.13693 0
M  V30 646 C 83.7331 1.17563 -4.52477 0
M  V30 647 N 83.1681 2.41918 -4.45789 0
M  V30 648 C 83.7701 3.56493 -4.90792 0
M  V30 649 N 84.9471 3.61423 -5.47817 0
M  V30 650 C 85.5221 2.37779 -5.5588 0
M  V30 651 H 89.0011 1.12673 -6.44018 0
M  V30 652 H 90.4841 1.7746 -8.19711 0
M  V30 653 H 88.7901 3.21673 -9.66791 0
M  V30 654 H 88.6001 0.901032 -10.1892 0
M  V30 655 H 86.9701 1.33049 -9.56592 0
M  V30 656 H 87.8121 0.233081 -6.26266 0
M  V30 657 H 89.6101 3.5779 -5.23879 0
M  V30 658 P 91.4677 3.65191 -7.99657 0
M  V30 659 O 92.8897 3.89416 -8.45976 0
M  V30 660 O 91.1077 2.28472 -7.50807 0
M  V30 661 O 91.1447 4.64972 -6.77611 0
M  V30 662 C 90.9847 6.06319 -7.16352 0
M  V30 663 C 91.5247 6.91655 -6.02234 0
M  V30 664 O 90.4697 6.92449 -5.17064 0
M  V30 665 C 92.7427 6.43627 -5.25174 0
M  V30 666 O 93.4807 7.43686 -4.60469 0
M  V30 667 C 92.0747 5.40275 -4.31916 0
M  V30 668 O 92.8727 5.25193 -3.14386 0
M  V30 669 C 90.7367 6.04847 -4.05327 0
M  V30 670 N 89.6937 5.04166 -3.98114 0
M  V30 671 C 89.7557 3.96049 -4.75587 0
M  V30 672 N 88.7107 3.15559 -4.54006 0
M  V30 673 C 87.9767 3.78802 -3.62491 0
M  V30 674 C 86.6707 3.476 -3.10071 0
M  V30 675 O 85.9377 2.51136 -3.37021 0
M  V30 676 N 86.2407 4.39088 -2.19956 0
M  V30 677 C 86.9897 5.53215 -1.81733 0
M  V30 678 N 86.3927 6.31963 -0.860928 0
M  V30 679 N 88.1427 5.86688 -2.32562 0
M  V30 680 C 88.5997 4.97525 -3.23407 0
M  V30 681 H 90.7687 6.62195 -3.11261 0
M  V30 682 H 91.9517 4.42488 -4.8131 0
M  V30 683 H 93.4367 5.93051 -5.9305 0
M  V30 684 H 91.7417 7.92655 -6.402 0
M  V30 685 H 91.5517 6.26671 -8.0846 0
M  V30 686 H 89.9207 6.29101 -7.32804 0
M  V30 687 H 85.3447 4.25523 -1.77604 0
M  V30 688 H 90.5517 3.75576 -5.47333 0
M  V30 689 H 85.4817 6.04684 -0.468946 0
M  V30 690 H 86.8577 7.18054 -0.542422 0
M  V30 691 H 92.5617 5.84223 -2.47279 0
M  V30 692 P 94.4182 7.39546 -4.75277 0
M  V30 693 O 95.8402 7.84798 -5.01039 0
M  V30 694 O 94.0582 5.9812 -5.08098 0
M  V30 695 O 94.0952 7.57503 -3.1866 0
M  V30 696 C 93.9352 8.97357 -2.74833 0
M  V30 697 C 94.4752 9.07548 -1.32709 0
M  V30 698 O 93.4192 8.62072 -0.606159 0
M  V30 699 C 95.6932 8.25383 -0.938334 0
M  V30 700 O 96.4312 8.74577 0.146954 0
M  V30 701 C 95.0242 6.8802 -0.712559 0
M  V30 702 O 95.8232 6.1189 0.194655 0
M  V30 703 C 93.6872 7.27966 -0.139777 0
M  V30 704 H 93.7192 7.25354 0.961601 0
M  V30 705 H 94.9022 6.32557 -1.65702 0
M  V30 706 H 96.3862 8.19355 -1.79097 0
M  V30 707 H 94.6922 10.1294 -1.10029 0
M  V30 708 H 94.5022 9.64276 -3.41316 0
M  V30 709 H 92.8722 9.25417 -2.76357 0
M  V30 710 H 95.5112 6.25267 1.07847 0
M  V30 711 P 97.3688 8.791 -6.89233e-14 0
M  V30 712 O 98.7908 9.31096 0.027933 0
M  V30 713 O 97.0088 7.77869 -1.04071 0
M  V30 714 O 97.0458 8.09533 1.41463 0
M  V30 715 C 96.8858 9.0349 2.53943 0
M  V30 716 C 97.4258 8.35226 3.79016 0
M  V30 717 O 96.3698 7.57992 4.15078 0
M  V30 718 C 98.6438 7.45087 3.67298 0
M  V30 719 O 99.3818 7.27796 4.85194 0
M  V30 720 C 97.9748 6.17323 3.12027 0
M  V30 721 O 98.7738 5.04231 3.47188 0
M  V30 722 C 96.6378 6.19961 3.81809 0
M  V30 723 H 96.6698 5.58218 4.73051 0
M  V30 724 H 97.8528 6.21726 2.02589 0
M  V30 725 H 99.3368 7.86112 2.9231 0
M  V30 726 H 97.6428 9.11627 4.55076 0
M  V30 727 H 97.4528 9.9573 2.34194 0
M  V30 728 H 95.8228 9.2792 2.67832 0
M  V30 729 H 98.4618 4.67702 4.28772 0
M  V30 730 P 100.319 7.39546 4.75277 0
M  V30 731 O 101.74 7.81861 5.05793 0
M  V30 732 O 99.9594 7.1065 3.32998 0
M  V30 733 O 99.9964 6.04542 5.56673 0
M  V30 734 C 99.8354 6.22839 7.02169 0
M  V30 735 C 100.376 4.97725 7.70406 0
M  V30 736 O 99.3214 4.13208 7.58899 0
M  V30 737 C 101.594 4.28231 7.11815 0
M  V30 738 O 102.332 3.49945 8.01648 0
M  V30 739 C 100.926 3.5063 5.96244 0
M  V30 740 O 101.724 2.37008 5.64352 0
M  V30 741 C 99.5884 3.15122 6.56374 0
M  V30 742 N 98.5454 3.22311 5.55692 0
M  V30 743 C 98.7144 3.99655 4.46046 0
M  V30 744 N 97.6874 3.97599 3.63918 0
M  V30 745 C 96.8024 3.11159 4.25334 0
M  V30 746 C 95.5354 2.64972 3.85157 0
M  V30 747 N 94.9364 3.02132 2.69405 0
M  V30 748 N 94.9704 1.78482 4.74759 0
M  V30 749 C 95.5724 1.37463 5.90819 0
M  V30 750 N 96.7494 1.7733 6.31889 0
M  V30 751 C 97.3244 2.64393 5.43725 0
M  V30 752 H 99.6204 2.13823 6.99656 0
M  V30 753 H 100.803 4.12931 5.06895 0
M  V30 754 H 102.286 5.03285 6.70911 0
M  V30 755 H 100.592 5.20001 8.76217 0
M  V30 756 H 100.402 7.11046 7.35349 0
M  V30 757 H 98.7724 6.35815 7.26986 0
M  V30 758 H 95.0364 0.66574 6.53015 0
M  V30 759 H 99.6144 4.58037 4.27732 0
M  V30 760 H 94.0064 2.64828 2.45331 0
M  V30 761 H 95.4104 3.67472 2.05644 0
M  V30 762 H 101.412 1.61619 6.13468 0
M  V30 763 P 103.27 3.65191 7.99657 0
M  V30 764 O 104.671 3.90823 8.51272 0
M  V30 765 O 102.892 4.23191 6.66972 0
M  V30 766 O 102.947 2.07587 7.95046 0
M  V30 767 C 102.787 1.44328 9.27336 0
M  V30 768 C 103.327 0.0220012 9.17097 0
M  V30 769 O 102.271 -0.626794 8.61824 0
M  V30 770 C 104.544 -0.24586 8.30336 0
M  V30 771 O 105.283 -1.39011 8.63583 0
M  V30 772 C 103.877 -0.273849 6.91158 0
M  V30 773 O 104.675 -1.06331 6.02794 0
M  V30 774 C 102.539 -0.897649 7.22545 0
M  V30 775 N 101.496 -0.292839 6.41732 0
M  V30 776 C 100.461 -1.08701 5.98712 0
M  V30 777 O 100.5 -2.31211 6.24471 0
M  V30 778 N 99.4489 -0.533391 5.28415 0
M  V30 779 C 99.4969 0.770866 4.98576 0
M  V30 780 N 98.4869 1.29482 4.30134 0
M  V30 781 C 100.593 1.59049 5.38086 0
M  V30 782 C 101.559 1.01866 6.10256 0
M  V30 783 H 102.571 -1.98383 7.04189 0
M  V30 784 H 103.754 0.733318 6.49674 0
M  V30 785 H 105.238 0.598386 8.36663 0
M  V30 786 H 103.544 -0.362662 10.1825 0
M  V30 787 H 103.353 2.00611 10.0304 0
M  V30 788 H 101.723 1.41828 9.55228 0
M  V30 789 H 100.641 2.6415 5.10622 0
M  V30 790 H 102.405 1.61983 6.44042 0
M  V30 791 H 97.6969 0.69888 4.01361 0
M  V30 792 H 98.4919 2.29327 4.05781 0
M  V30 793 H 104.459 -1.97777 6.14035 0
M  V30 794 P 106.221 -1.25109 8.70152 0
M  V30 795 O 107.643 -1.35274 9.21221 0
M  V30 796 O 105.861 -0.0769065 7.84762 0
M  V30 797 O 105.898 -2.55232 7.81161 0
M  V30 798 C 105.738 -3.79939 8.58154 0
M  V30 799 C 106.278 -4.94023 7.72785 0
M  V30 800 O 105.222 -5.18726 6.91205 0
M  V30 801 C 107.496 -4.69597 6.85231 0
M  V30 802 O 108.234 -5.83832 6.51337 0
M  V30 803 C 106.827 -3.96706 5.66633 0
M  V30 804 O 107.626 -4.15414 4.49689 0
M  V30 805 C 105.49 -4.66153 5.59313 0
M  V30 806 H 105.522 -5.47679 4.85214 0
M  V30 807 H 106.705 -2.89008 5.86566 0
M  V30 808 H 108.189 -4.0121 7.36511 0
M  V30 809 H 106.495 -5.80182 8.37584 0
M  V30 810 H 106.305 -3.73517 9.52265 0
M  V30 811 H 104.675 -3.97163 8.80359 0
M  V30 812 H 107.314 -4.90969 4.01921 0
M  V30 813 P 109.171 -5.75688 6.64379 0
M  V30 814 O 110.593 -6.11849 7.01846 0
M  V30 815 O 108.811 -4.30744 6.56026 0
M  V30 816 O 108.848 -6.37042 5.19165 0
M  V30 817 C 108.688 -7.83578 5.16515 0
M  V30 818 C 109.228 -8.33398 3.83019 0
M  V30 819 O 108.172 -8.10074 3.01034 0
M  V30 820 C 110.446 -7.65514 3.2257 0
M  V30 821 O 111.184 -8.4329 2.32297 0
M  V30 822 C 109.777 -6.40075 2.62207 0
M  V30 823 O 110.576 -5.92589 1.53712 0
M  V30 824 C 108.44 -6.9454 2.18503 0
M  V30 825 H 108.472 -7.23063 1.12091 0
M  V30 826 H 109.655 -5.6025 3.37201 0
M  V30 827 H 111.139 -7.35707 4.02681 0
M  V30 828 H 109.445 -9.40912 3.9095 0
M  V30 829 H 109.255 -8.29056 5.99158 0
M  V30 830 H 107.625 -8.10073 5.25882 0
M  V30 831 H 110.264 -6.30324 0.726794 0
M  V30 832 P 112.122 -8.4349 2.47671 0
M  V30 833 O 113.544 -8.94359 2.59696 0
M  V30 834 O 111.762 -7.1704 3.19006 0
M  V30 835 O 111.799 -8.16596 0.923387 0
M  V30 836 C 111.639 -9.38437 0.108857 0
M  V30 837 C 112.179 -9.08076 -1.28339 0
M  V30 838 O 111.124 -8.44229 -1.84713 0
M  V30 839 C 113.397 -8.18386 -1.42505 0
M  V30 840 O 114.135 -8.3501 -2.60497 0
M  V30 841 C 112.729 -6.80225 -1.25468 0
M  V30 842 O 113.527 -5.81526 -1.91035 0
M  V30 843 C 111.391 -7.02416 -1.9168 0
M  V30 844 N 110.348 -6.31033 -1.20314 0
M  V30 845 C 110.41 -6.18781 0.121293 0
M  V30 846 N 109.365 -5.49762 0.588272 0
M  V30 847 C 108.631 -5.22015 -0.488988 0
M  V30 848 C 107.325 -4.61966 -0.596448 0
M  V30 849 O 106.592 -4.19162 0.309059 0
M  V30 850 N 106.895 -4.53773 -1.878 0
M  V30 851 C 107.644 -4.99623 -2.99082 0
M  V30 852 N 107.047 -4.78912 -4.21227 0
M  V30 853 N 108.797 -5.59957 -2.91093 0
M  V30 854 C 109.254 -5.70225 -1.64218 0
M  V30 855 H 111.423 -6.6888 -2.96621 0
M  V30 856 H 112.606 -6.53517 -0.192194 0
M  V30 857 H 114.091 -8.36563 -0.598329 0
M  V30 858 H 112.396 -10.0291 -1.79807 0
M  V30 859 H 112.206 -10.2138 0.558219 0
M  V30 860 H 110.575 -9.6579 0.0444202 0
M  V30 861 H 105.999 -4.12883 -2.05283 0
M  V30 862 H 111.206 -6.59596 0.745856 0
M  V30 863 H 106.136 -4.31425 -4.2628 0
M  V30 864 H 107.512 -5.11219 -5.07148 0
M  V30 865 H 113.216 -5.69466 -2.79593 0
M  V30 866 P 115.072 -8.4349 -2.47671 0
M  V30 867 O 116.473 -8.99283 -2.62101 0
M  V30 868 O 114.694 -7.81195 -1.16947 0
M  V30 869 O 114.749 -7.36797 -3.63761 0
M  V30 870 C 114.589 -7.95349 -4.982 0
M  V30 871 C 115.129 -6.94537 -5.98908 0
M  V30 872 O 114.073 -6.10277 -6.11744 0
M  V30 873 C 116.346 -6.11426 -5.62335 0
M  V30 874 O 117.085 -5.6162 -6.70584 0
M  V30 875 C 115.679 -5.04409 -4.73308 0
M  V30 876 O 116.477 -3.85929 -4.75106 0
M  V30 877 C 114.341 -4.8728 -5.41006 0
M  V30 878 N 113.298 -4.65812 -4.42377 0
M  V30 879 C 112.263 -3.81293 -4.74224 0
M  V30 880 O 112.302 -3.20533 -5.83679 0
M  V30 881 N 111.251 -3.6442 -3.86349 0
M  V30 882 C 111.299 -4.2728 -2.6824 0
M  V30 883 C 112.395 -5.10813 -2.3217 0
M  V30 884 C 113.361 -5.27909 -3.22647 0
M  V30 885 H 114.373 -4.02278 -6.11074 0
M  V30 886 H 115.556 -5.39013 -3.70026 0
M  V30 887 H 117.04 -6.71494 -5.02675 0
M  V30 888 H 115.346 -7.45796 -6.94223 0
M  V30 889 H 115.155 -8.89416 -5.05237 0
M  V30 890 H 113.525 -8.14791 -5.18355 0
M  V30 891 H 112.443 -5.58884 -1.34755 0
M  V30 892 H 114.207 -5.92811 -2.9934 0
M  V30 893 H 116.261 -3.3454 -5.51577 0
M  V30 894 P 118.023 -5.75688 -6.64379 0
M  V30 895 O 119.445 -6.07627 -7.05504 0
M  V30 896 O 117.663 -5.88047 -5.19722 0
M  V30 897 O 117.7 -4.2322 -7.04443 0
M  V30 898 C 117.54 -3.99743 -8.4911 0
M  V30 899 C 118.08 -2.60516 -8.79425 0
M  V30 900 O 117.024 -1.82684 -8.4467 0
M  V30 901 C 119.298 -2.10343 -8.03628 0
M  V30 902 O 120.036 -1.09919 -8.67766 0
M  V30 903 C 118.629 -1.68446 -6.70876 0
M  V30 904 O 119.428 -0.678137 -6.08433 0
M  V30 905 C 117.292 -1.17436 -7.18567 0
M  V30 906 H 117.324 -0.0804732 -7.31656 0
M  V30 907 H 118.507 -2.54037 -6.02537 0
M  V30 908 H 119.991 -2.93881 -7.85526 0
M  V30 909 H 118.297 -2.53065 -9.86973 0
M  V30 910 H 118.107 -4.75072 -9.05887 0
M  V30 911 H 116.477 -4.05244 -8.76668 0
M  V30 912 H 119.116 0.177647 -6.34251 0
M  V30 913 P 120.973 -1.25109 -8.70152 0
M  V30 914 O 122.395 -1.29744 -9.22016 0
M  V30 915 O 120.613 -2.13714 -7.55141 0
M  V30 916 O 120.65 0.248149 -8.21425 0
M  V30 917 C 120.49 1.22779 -9.30434 0
M  V30 918 C 121.03 2.56293 -8.80664 0
M  V30 919 O 119.974 3.02979 -8.09349 0
M  V30 920 C 122.248 2.57523 -7.89775 0
M  V30 921 O 122.986 3.7668 -7.89438 0
M  V30 922 C 121.579 2.20997 -6.55446 0
M  V30 923 O 122.378 2.71895 -5.48509 0
M  V30 924 C 120.242 2.89693 -6.67988 0
M  V30 925 H 120.274 3.88793 -6.19859 0
M  V30 926 H 121.457 1.12046 -6.44229 0
M  V30 927 H 122.941 1.7746 -8.19711 0
M  V30 928 H 121.247 3.20706 -9.67112 0
M  V30 929 H 121.057 0.901032 -10.1892 0
M  V30 930 H 119.427 1.33049 -9.56592 0
M  V30 931 H 122.066 3.57847 -5.23962 0
M  V30 932 P 123.924 3.65191 -7.99657 0
M  V30 933 O 125.346 3.89332 -8.45794 0
M  V30 934 O 123.564 2.28472 -7.50807 0
M  V30 935 O 123.601 4.64972 -6.77611 0
M  V30 936 C 123.441 6.06319 -7.16352 0
M  V30 937 C 123.981 6.91731 -6.02299 0
M  V30 938 O 122.925 6.92449 -5.17064 0
M  V30 939 C 125.199 6.43627 -5.25174 0
M  V30 940 O 125.937 7.43686 -4.60469 0
M  V30 941 C 124.53 5.40275 -4.31916 0
M  V30 942 O 125.329 5.25279 -3.14438 0
M  V30 943 C 123.193 6.04847 -4.05327 0
M  V30 944 H 123.225 6.62195 -3.11261 0
M  V30 945 H 124.408 4.42556 -4.81383 0
M  V30 946 H 125.892 5.92458 -5.93643 0
M  V30 947 H 124.198 7.92655 -6.402 0
M  V30 948 H 124.008 6.26671 -8.0846 0
M  V30 949 H 122.378 6.29101 -7.32804 0
M  V30 950 H 125.017 5.84315 -2.47318 0
M  V30 951 P 126.875 7.39546 -4.75277 0
M  V30 952 O 128.296 7.84882 -5.01092 0
M  V30 953 O 126.515 5.9812 -5.08098 0
M  V30 954 O 126.552 7.57503 -3.1866 0
M  V30 955 C 126.391 8.97452 -2.74862 0
M  V30 956 C 126.932 9.07548 -1.32709 0
M  V30 957 O 125.877 8.61972 -0.606089 0
M  V30 958 C 128.15 8.25383 -0.938334 0
M  V30 959 O 128.888 8.74577 0.146954 0
M  V30 960 C 127.482 6.8802 -0.712559 0
M  V30 961 O 128.28 6.1181 0.188505 0
M  V30 962 C 126.144 7.27966 -0.139777 0
M  V30 963 N 125.101 6.39368 -0.623421 0
M  V30 964 C 125.27 5.71761 -1.78245 0
M  V30 965 N 124.243 4.962 -2.10491 0
M  V30 966 C 123.358 5.16158 -1.0635 0
M  V30 967 C 122.091 4.60425 -0.810266 0
M  V30 968 N 121.492 3.7057 -1.62914 0
M  V30 969 N 121.526 5.06 0.348685 0
M  V30 970 C 122.128 5.94532 1.20395 0
M  V30 971 N 123.305 6.48452 1.01191 0
M  V30 972 C 123.88 6.04423 -0.146291 0
M  V30 973 H 126.176 7.25255 0.961469 0
M  V30 974 H 127.359 6.32625 -1.65044 0
M  V30 975 H 128.842 8.19355 -1.79097 0
M  V30 976 H 127.148 10.1305 -1.09016 0
M  V30 977 H 126.958 9.64276 -3.41316 0
M  V30 978 H 125.328 9.25417 -2.76357 0
M  V30 979 H 121.592 6.21659 2.10714 0
M  V30 980 H 126.17 5.79354 -2.38959 0
M  V30 981 H 120.562 3.33174 -1.38982 0
M  V30 982 H 121.966 3.39714 -2.48836 0
M  V30 983 H 127.968 6.25169 1.0783 0
M  V30 984 P 129.825 8.791 -1.02308e-13 0
M  V30 985 O 131.247 9.31096 0.027933 0
M  V30 986 O 129.465 7.77869 -1.04071 0
M  V30 987 O 129.502 8.09533 1.41463 0
M  V30 988 C 129.342 9.0349 2.53943 0
M  V30 989 C 129.882 8.35226 3.79016 0
M  V30 990 O 128.826 7.57992 4.15078 0
M  V30 991 C 131.1 7.45087 3.67298 0
M  V30 992 O 131.838 7.27796 4.85194 0
M  V30 993 C 130.431 6.17323 3.12027 0
M  V30 994 O 131.23 5.04231 3.47188 0
M  V30 995 C 129.094 6.19961 3.81809 0
M  V30 996 H 129.126 5.58218 4.73051 0
M  V30 997 H 130.309 6.21726 2.02589 0
M  V30 998 H 131.793 7.86112 2.9231 0
M  V30 999 H 130.099 9.11627 4.55076 0
M  V30 1000 H 129.909 9.9573 2.34194 0
M  V30 1001 H 128.279 9.2792 2.67832 0
M  V30 1002 H 130.918 4.67702 4.28772 0
M  V30 1003 P 132.776 7.39546 4.75277 0
M  V30 1004 O 134.198 7.81777 5.05738 0
M  V30 1005 O 132.416 7.1065 3.32998 0
M  V30 1006 O 132.453 6.04542 5.56673 0
M  V30 1007 C 132.293 6.22772 7.02095 0
M  V30 1008 C 132.833 4.97725 7.70406 0
M  V30 1009 O 131.777 4.13256 7.58987 0
M  V30 1010 C 134.051 4.28231 7.11815 0
M  V30 1011 O 134.789 3.49945 8.01648 0
M  V30 1012 C 133.382 3.5063 5.96244 0
M  V30 1013 O 134.181 2.36482 5.64681 0
M  V30 1014 C 132.045 3.15122 6.56374 0
M  V30 1015 H 132.077 2.13853 6.99751 0
M  V30 1016 H 133.26 4.13501 5.06559 0
M  V30 1017 H 134.744 5.03285 6.70911 0
M  V30 1018 H 133.05 5.20877 8.75697 0
M  V30 1019 H 132.86 7.11046 7.35349 0
M  V30 1020 H 131.23 6.35815 7.26986 0
M  V30 1021 H 133.869 1.61644 6.13565 0
M  V30 1022 P 135.726 3.65191 7.99657 0
M  V30 1023 O 137.148 3.8425 8.48115 0
M  V30 1024 O 135.366 4.17805 6.64342 0
M  V30 1025 O 135.403 2.07613 7.95143 0
M  V30 1026 C 135.243 1.44328 9.27336 0
M  V30 1027 C 135.783 0.0220036 9.17197 0
M  V30 1028 O 134.727 -0.626867 8.61923 0
M  V30 1029 C 137.001 -0.24586 8.30336 0
M  V30 1030 O 137.739 -1.39011 8.63583 0
M  V30 1031 C 136.332 -0.273849 6.91158 0
M  V30 1032 O 137.131 -1.06348 6.02892 0
M  V30 1033 C 134.995 -0.897649 7.22545 0
M  V30 1034 H 135.027 -1.9841 7.04286 0
M  V30 1035 H 136.21 0.739928 6.497 0
M  V30 1036 H 137.694 0.60668 8.36503 0
M  V30 1037 H 136 -0.352479 10.1829 0
M  V30 1038 H 135.81 2.00611 10.0304 0
M  V30 1039 H 134.18 1.41843 9.55327 0
M  V30 1040 H 136.819 -1.95734 6.03555 0
M  V30 1041 P 138.677 -1.25109 8.70152 0
M  V30 1042 O 140.099 -1.35274 9.21221 0
M  V30 1043 O 138.317 -0.0769065 7.84762 0
M  V30 1044 O 138.354 -2.55232 7.81161 0
M  V30 1045 C 138.194 -3.79939 8.58154 0
M  V30 1046 C 138.734 -4.94023 7.72785 0
M  V30 1047 O 137.678 -5.18726 6.91205 0
M  V30 1048 C 139.952 -4.69597 6.85231 0
M  V30 1049 O 140.69 -5.83832 6.51337 0
M  V30 1050 C 139.283 -3.96706 5.66633 0
M  V30 1051 O 140.082 -4.15414 4.49689 0
M  V30 1052 C 137.946 -4.66153 5.59313 0
M  V30 1053 H 137.978 -5.47679 4.85214 0
M  V30 1054 H 139.161 -2.89008 5.86566 0
M  V30 1055 H 140.645 -4.0121 7.36511 0
M  V30 1056 H 138.951 -5.80182 8.37584 0
M  V30 1057 H 138.761 -3.73517 9.52265 0
M  V30 1058 H 137.131 -3.97163 8.80359 0
M  V30 1059 H 139.77 -4.90969 4.01921 0
M  V30 1060 P 141.627 -5.75688 6.64379 0
M  V30 1061 O 143.049 -6.11849 7.01846 0
M  V30 1062 O 141.267 -4.30744 6.56026 0
M  V30 1063 O 141.304 -6.37042 5.19165 0
M  V30 1064 C 141.144 -7.83578 5.16515 0
M  V30 1065 C 141.684 -8.33398 3.83019 0
M  V30 1066 O 140.628 -8.10074 3.01034 0
M  V30 1067 C 142.902 -7.65514 3.2257 0
M  V30 1068 O 143.64 -8.4329 2.32297 0
M  V30 1069 C 142.233 -6.40075 2.62207 0
M  V30 1070 O 143.032 -5.92589 1.53712 0
M  V30 1071 C 140.896 -6.9454 2.18503 0
M  V30 1072 H 140.928 -7.23063 1.12091 0
M  V30 1073 H 142.111 -5.6025 3.37201 0
M  V30 1074 H 143.595 -7.35707 4.02681 0
M  V30 1075 H 141.901 -9.40912 3.9095 0
M  V30 1076 H 141.711 -8.29056 5.99158 0
M  V30 1077 H 140.081 -8.10073 5.25882 0
M  V30 1078 H 142.72 -6.30324 0.726794 0
M  V30 1079 P 144.578 -8.4349 2.47671 0
M  V30 1080 O 146 -8.94167 2.5964 0
M  V30 1081 O 144.218 -7.1704 3.19006 0
M  V30 1082 O 144.255 -8.16596 0.923387 0
M  V30 1083 C 144.095 -9.38437 0.108857 0
M  V30 1084 C 144.635 -9.08175 -1.28353 0
M  V30 1085 O 143.579 -8.44229 -1.84713 0
M  V30 1086 C 145.853 -8.18386 -1.42505 0
M  V30 1087 O 146.591 -8.3501 -2.60497 0
M  V30 1088 C 145.184 -6.80225 -1.25468 0
M  V30 1089 O 145.983 -5.81621 -1.91066 0
M  V30 1090 C 143.847 -7.02416 -1.9168 0
M  V30 1091 H 143.879 -6.6888 -2.96621 0
M  V30 1092 H 145.062 -6.53617 -0.192223 0
M  V30 1093 H 146.546 -8.36622 -0.589963 0
M  V30 1094 H 144.852 -10.0291 -1.79807 0
M  V30 1095 H 144.662 -10.2138 0.558219 0
M  V30 1096 H 143.032 -9.6579 0.0444202 0
M  V30 1097 H 145.671 -5.69556 -2.79637 0
M  V30 1098 P 147.528 -8.4349 -2.47671 0
M  V30 1099 O 148.929 -8.99283 -2.62101 0
M  V30 1100 O 147.15 -7.81195 -1.16947 0
M  V30 1101 O 147.205 -7.36797 -3.63761 0
M  V30 1102 C 147.045 -7.95349 -4.982 0
M  V30 1103 C 147.585 -6.94537 -5.98908 0
M  V30 1104 O 146.529 -6.10277 -6.11744 0
M  V30 1105 C 148.802 -6.11426 -5.62335 0
M  V30 1106 O 149.541 -5.6162 -6.70584 0
M  V30 1107 C 148.135 -5.04409 -4.73308 0
M  V30 1108 O 148.933 -3.85929 -4.75106 0
M  V30 1109 C 146.797 -4.8728 -5.41006 0
M  V30 1110 N 145.754 -4.65812 -4.42377 0
M  V30 1111 C 144.719 -3.81293 -4.74224 0
M  V30 1112 O 144.758 -3.20533 -5.83679 0
M  V30 1113 N 143.707 -3.6442 -3.86349 0
M  V30 1114 C 143.755 -4.2728 -2.6824 0
M  V30 1115 C 144.851 -5.10813 -2.3217 0
M  V30 1116 C 145.817 -5.27909 -3.22647 0
M  V30 1117 H 146.829 -4.02278 -6.11074 0
M  V30 1118 H 148.012 -5.39013 -3.70026 0
M  V30 1119 H 149.496 -6.71494 -5.02675 0
M  V30 1120 H 147.802 -7.45796 -6.94223 0
M  V30 1121 H 147.611 -8.89416 -5.05237 0
M  V30 1122 H 145.981 -8.14791 -5.18355 0
M  V30 1123 H 144.899 -5.58884 -1.34755 0
M  V30 1124 H 146.663 -5.92811 -2.9934 0
M  V30 1125 H 148.717 -3.3454 -5.51577 0
M  V30 1126 P 150.479 -5.75688 -6.64379 0
M  V30 1127 O 151.901 -6.07627 -7.05504 0
M  V30 1128 O 150.119 -5.88047 -5.19722 0
M  V30 1129 O 150.156 -4.2322 -7.04443 0
M  V30 1130 C 149.996 -3.99743 -8.4911 0
M  V30 1131 C 150.536 -2.60516 -8.79425 0
M  V30 1132 O 149.48 -1.82684 -8.4467 0
M  V30 1133 C 151.754 -2.10343 -8.03628 0
M  V30 1134 O 152.492 -1.09919 -8.67766 0
M  V30 1135 C 151.085 -1.68446 -6.70876 0
M  V30 1136 O 151.884 -0.678137 -6.08433 0
M  V30 1137 C 149.748 -1.17436 -7.18567 0
M  V30 1138 H 149.78 -0.0804732 -7.31656 0
M  V30 1139 H 150.963 -2.54037 -6.02537 0
M  V30 1140 H 152.447 -2.93881 -7.85526 0
M  V30 1141 H 150.753 -2.53065 -9.86973 0
M  V30 1142 H 150.563 -4.75072 -9.05887 0
M  V30 1143 H 148.933 -4.05244 -8.76668 0
M  V30 1144 H 151.572 0.177647 -6.34251 0
M  V30 1145 P 153.43 -1.25109 -8.70152 0
M  V30 1146 O 154.852 -1.29744 -9.22016 0
M  V30 1147 O 153.07 -2.13714 -7.55141 0
M  V30 1148 O 153.107 0.248149 -8.21425 0
M  V30 1149 C 152.947 1.22779 -9.30434 0
M  V30 1150 C 153.487 2.56293 -8.80664 0
M  V30 1151 O 152.431 3.02979 -8.09349 0
M  V30 1152 C 154.705 2.57523 -7.89775 0
M  V30 1153 O 155.443 3.7668 -7.89438 0
M  V30 1154 C 154.036 2.20997 -6.55446 0
M  V30 1155 O 154.835 2.71895 -5.48509 0
M  V30 1156 C 152.699 2.89693 -6.67988 0
M  V30 1157 H 152.731 3.88793 -6.19859 0
M  V30 1158 H 153.914 1.12046 -6.44229 0
M  V30 1159 H 155.398 1.7746 -8.19711 0
M  V30 1160 H 153.704 3.20706 -9.67112 0
M  V30 1161 H 153.514 0.901032 -10.1892 0
M  V30 1162 H 151.884 1.33049 -9.56592 0
M  V30 1163 H 154.523 3.57847 -5.23962 0
M  V30 1164 P 156.38 3.65191 -7.99657 0
M  V30 1165 O 157.802 3.89416 -8.45976 0
M  V30 1166 O 156.02 2.28472 -7.50807 0
M  V30 1167 O 156.057 4.64972 -6.77611 0
M  V30 1168 C 155.897 6.06319 -7.16352 0
M  V30 1169 C 156.437 6.91655 -6.02234 0
M  V30 1170 O 155.382 6.92449 -5.17064 0
M  V30 1171 C 157.655 6.43627 -5.25174 0
M  V30 1172 O 158.393 7.43686 -4.60469 0
M  V30 1173 C 156.987 5.40275 -4.31916 0
M  V30 1174 O 157.785 5.25193 -3.14386 0
M  V30 1175 C 155.649 6.04847 -4.05327 0
M  V30 1176 N 154.606 5.04166 -3.98114 0
M  V30 1177 C 154.668 3.96049 -4.75587 0
M  V30 1178 N 153.623 3.15559 -4.54006 0
M  V30 1179 C 152.889 3.78802 -3.62491 0
M  V30 1180 C 151.583 3.476 -3.10071 0
M  V30 1181 O 150.85 2.51136 -3.37021 0
M  V30 1182 N 151.153 4.39088 -2.19956 0
M  V30 1183 C 151.902 5.53215 -1.81733 0
M  V30 1184 N 151.305 6.31963 -0.860928 0
M  V30 1185 N 153.055 5.86688 -2.32562 0
M  V30 1186 C 153.512 4.97525 -3.23407 0
M  V30 1187 H 155.681 6.62195 -3.11261 0
M  V30 1188 H 156.864 4.42488 -4.8131 0
M  V30 1189 H 158.349 5.93051 -5.9305 0
M  V30 1190 H 156.654 7.92655 -6.402 0
M  V30 1191 H 156.464 6.26671 -8.0846 0
M  V30 1192 H 154.833 6.29101 -7.32804 0
M  V30 1193 H 150.257 4.25523 -1.77604 0
M  V30 1194 H 155.464 3.75576 -5.47333 0
M  V30 1195 H 150.394 6.04684 -0.468946 0
M  V30 1196 H 151.77 7.18054 -0.542422 0
M  V30 1197 H 157.474 5.84223 -2.47279 0
M  V30 1198 P 159.331 7.39546 -4.75277 0
M  V30 1199 O 160.753 7.84798 -5.01039 0
M  V30 1200 O 158.971 5.9812 -5.08098 0
M  V30 1201 O 159.008 7.57503 -3.1866 0
M  V30 1202 C 158.848 8.97357 -2.74833 0
M  V30 1203 C 159.388 9.07548 -1.32709 0
M  V30 1204 O 158.332 8.62072 -0.606159 0
M  V30 1205 C 160.606 8.25383 -0.938334 0
M  V30 1206 O 161.344 8.74577 0.146954 0
M  V30 1207 C 159.937 6.8802 -0.712559 0
M  V30 1208 O 160.736 6.1189 0.194655 0
M  V30 1209 C 158.6 7.27966 -0.139777 0
M  V30 1210 H 158.632 7.25354 0.961601 0
M  V30 1211 H 159.815 6.32557 -1.65702 0
M  V30 1212 H 161.299 8.19355 -1.79097 0
M  V30 1213 H 159.605 10.1294 -1.10029 0
M  V30 1214 H 159.415 9.64276 -3.41316 0
M  V30 1215 H 157.785 9.25417 -2.76357 0
M  V30 1216 H 160.424 6.25267 1.07847 0
M  V30 1217 P 162.281 8.791 -1.35693e-13 0
M  V30 1218 O 163.703 9.31096 0.027933 0
M  V30 1219 O 161.921 7.77869 -1.04071 0
M  V30 1220 O 161.958 8.09533 1.41463 0
M  V30 1221 C 161.798 9.0349 2.53943 0
M  V30 1222 C 162.338 8.35226 3.79016 0
M  V30 1223 O 161.282 7.57992 4.15078 0
M  V30 1224 C 163.556 7.45087 3.67298 0
M  V30 1225 O 164.294 7.27796 4.85194 0
M  V30 1226 C 162.887 6.17323 3.12027 0
M  V30 1227 O 163.686 5.04231 3.47188 0
M  V30 1228 C 161.55 6.19961 3.81809 0
M  V30 1229 H 161.582 5.58218 4.73051 0
M  V30 1230 H 162.765 6.21726 2.02589 0
M  V30 1231 H 164.249 7.86112 2.9231 0
M  V30 1232 H 162.555 9.11627 4.55076 0
M  V30 1233 H 162.365 9.9573 2.34194 0
M  V30 1234 H 160.735 9.2792 2.67832 0
M  V30 1235 H 163.374 4.67702 4.28772 0
M  V30 1236 P 165.232 7.39546 4.75277 0
M  V30 1237 O 166.654 7.81777 5.05738 0
M  V30 1238 O 164.872 7.1065 3.32998 0
M  V30 1239 O 164.909 6.04542 5.56673 0
M  V30 1240 C 164.749 6.22772 7.02095 0
M  V30 1241 C 165.289 4.97725 7.70406 0
M  V30 1242 O 164.233 4.13256 7.58987 0
M  V30 1243 C 166.507 4.28231 7.11815 0
M  V30 1244 O 167.245 3.49945 8.01648 0
M  V30 1245 C 165.838 3.5063 5.96244 0
M  V30 1246 O 166.637 2.36482 5.64681 0
M  V30 1247 C 164.501 3.15122 6.56374 0
M  V30 1248 H 164.533 2.13853 6.99751 0
M  V30 1249 H 165.716 4.13501 5.06559 0
M  V30 1250 H 167.2 5.03285 6.70911 0
M  V30 1251 H 165.506 5.20877 8.75697 0
M  V30 1252 H 165.316 7.11046 7.35349 0
M  V30 1253 H 163.686 6.35815 7.26986 0
M  V30 1254 H 166.325 1.61644 6.13565 0
M  V30 1255 P 168.182 3.65191 7.99657 0
M  V30 1256 O 169.604 3.8425 8.48115 0
M  V30 1257 O 167.822 4.17805 6.64342 0
M  V30 1258 O 167.859 2.07613 7.95143 0
M  V30 1259 C 167.699 1.44328 9.27336 0
M  V30 1260 C 168.239 0.0220036 9.17197 0
M  V30 1261 O 167.183 -0.626867 8.61923 0
M  V30 1262 C 169.457 -0.24586 8.30336 0
M  V30 1263 O 170.195 -1.39011 8.63583 0
M  V30 1264 C 168.788 -0.273849 6.91158 0
M  V30 1265 O 169.587 -1.06348 6.02892 0
M  V30 1266 C 167.451 -0.897649 7.22545 0
M  V30 1267 H 167.483 -1.9841 7.04286 0
M  V30 1268 H 168.666 0.739928 6.497 0
M  V30 1269 H 170.15 0.60668 8.36503 0
M  V30 1270 H 168.456 -0.352479 10.1829 0
M  V30 1271 H 168.266 2.00611 10.0304 0
M  V30 1272 H 166.636 1.41843 9.55327 0
M  V30 1273 H 169.275 -1.95734 6.03555 0
M  V30 1274 P 171.133 -1.25109 8.70152 0
M  V30 1275 O 172.555 -1.35274 9.21221 0
M  V30 1276 O 170.773 -0.0769065 7.84762 0
M  V30 1277 O 170.81 -2.55232 7.81161 0
M  V30 1278 C 170.65 -3.79939 8.58154 0
M  V30 1279 C 171.19 -4.94023 7.72785 0
M  V30 1280 O 170.134 -5.18726 6.91205 0
M  V30 1281 C 172.408 -4.69597 6.85231 0
M  V30 1282 O 173.146 -5.83832 6.51337 0
M  V30 1283 C 171.739 -3.96706 5.66633 0
M  V30 1284 O 172.538 -4.15414 4.49689 0
M  V30 1285 C 170.402 -4.66153 5.59313 0
M  V30 1286 H 170.434 -5.47679 4.85214 0
M  V30 1287 H 171.617 -2.89008 5.86566 0
M  V30 1288 H 173.101 -4.0121 7.36511 0
M  V30 1289 H 171.407 -5.80182 8.37584 0
M  V30 1290 H 171.217 -3.73517 9.52265 0
M  V30 1291 H 169.587 -3.97163 8.80359 0
M  V30 1292 H 172.226 -4.90969 4.01921 0
M  V30 1293 P 174.084 -5.75688 6.64379 0
M  V30 1294 O 175.485 -6.11991 7.09136 0
M  V30 1295 O 173.706 -4.30899 6.62018 0
M  V30 1296 O 173.761 -6.36965 5.19102 0
M  V30 1297 C 173.601 -7.83578 5.16515 0
M  V30 1298 C 174.141 -8.33307 3.82977 0
M  V30 1299 O 173.085 -8.0998 3.00999 0
M  V30 1300 C 175.358 -7.65514 3.2257 0
M  V30 1301 O 176.097 -8.4329 2.32297 0
M  V30 1302 C 174.691 -6.40075 2.62207 0
M  V30 1303 O 175.489 -5.92492 1.53687 0
M  V30 1304 C 173.353 -6.9454 2.18503 0
M  V30 1305 N 172.31 -5.95905 2.39948 0
M  V30 1306 C 171.275 -5.89764 1.49837 0
M  V30 1307 O 171.314 -6.64088 0.490975 0
M  V30 1308 N 170.263 -5.02821 1.70992 0
M  V30 1309 C 170.311 -4.21498 2.77236 0
M  V30 1310 C 171.407 -4.23389 3.68205 0
M  V30 1311 C 172.373 -5.12792 3.46171 0
M  V30 1312 H 173.385 -7.22964 1.12076 0
M  V30 1313 H 174.568 -5.60502 3.36589 0
M  V30 1314 H 176.052 -7.36197 4.01993 0
M  V30 1315 H 174.358 -9.41302 3.90009 0
M  V30 1316 H 174.167 -8.29056 5.99158 0
M  V30 1317 H 172.537 -8.09989 5.25828 0
M  V30 1318 H 171.455 -3.54747 4.52399 0
M  V30 1319 H 173.219 -5.18551 4.1489 0
M  V30 1320 H 175.273 -6.40705 0.751752 0
M  V30 1321 P 177.034 -8.4349 2.47671 0
M  V30 1322 O 178.456 -8.94359 2.59696 0
M  V30 1323 O 176.674 -7.1704 3.19006 0
M  V30 1324 O 176.711 -8.16596 0.923387 0
M  V30 1325 C 176.551 -9.38437 0.108857 0
M  V30 1326 C 177.091 -9.08076 -1.28339 0
M  V30 1327 O 176.036 -8.44229 -1.84713 0
M  V30 1328 C 178.309 -8.18386 -1.42505 0
M  V30 1329 O 179.047 -8.3501 -2.60497 0
M  V30 1330 C 177.641 -6.80225 -1.25468 0
M  V30 1331 O 178.439 -5.81526 -1.91035 0
M  V30 1332 C 176.303 -7.02416 -1.9168 0
M  V30 1333 N 175.26 -6.31033 -1.20314 0
M  V30 1334 C 175.322 -6.18781 0.121293 0
M  V30 1335 N 174.277 -5.49762 0.588272 0
M  V30 1336 C 173.543 -5.22015 -0.488988 0
M  V30 1337 C 172.237 -4.61966 -0.596448 0
M  V30 1338 O 171.504 -4.19162 0.309059 0
M  V30 1339 N 171.807 -4.53773 -1.878 0
M  V30 1340 C 172.556 -4.99623 -2.99082 0
M  V30 1341 N 171.959 -4.78912 -4.21227 0
M  V30 1342 N 173.709 -5.59957 -2.91093 0
M  V30 1343 C 174.166 -5.70225 -1.64218 0
M  V30 1344 H 176.335 -6.6888 -2.96621 0
M  V30 1345 H 177.518 -6.53517 -0.192194 0
M  V30 1346 H 179.003 -8.36563 -0.598329 0
M  V30 1347 H 177.308 -10.0291 -1.79807 0
M  V30 1348 H 177.118 -10.2138 0.558219 0
M  V30 1349 H 175.487 -9.6579 0.0444202 0
M  V30 1350 H 170.911 -4.12883 -2.05283 0
M  V30 1351 H 176.118 -6.59596 0.745856 0
M  V30 1352 H 171.048 -4.31425 -4.2628 0
M  V30 1353 H 172.424 -5.11219 -5.07148 0
M  V30 1354 H 178.128 -5.69466 -2.79593 0
M  V30 1355 P 179.985 -8.4349 -2.47671 0
M  V30 1356 O 181.407 -8.92593 -2.65 0
M  V30 1357 O 179.625 -7.7568 -1.19296 0
M  V30 1358 O 179.662 -7.36886 -3.63805 0
M  V30 1359 C 179.502 -7.95349 -4.982 0
M  V30 1360 C 180.042 -6.94612 -5.98974 0
M  V30 1361 O 178.986 -6.10347 -6.11815 0
M  V30 1362 C 181.26 -6.11426 -5.62335 0
M  V30 1363 O 181.998 -5.6162 -6.70584 0
M  V30 1364 C 180.591 -5.04409 -4.73308 0
M  V30 1365 O 181.39 -3.85992 -4.75183 0
M  V30 1366 C 179.254 -4.8728 -5.41006 0
M  V30 1367 H 179.286 -4.02333 -6.11157 0
M  V30 1368 H 180.469 -5.39466 -3.69543 0
M  V30 1369 H 181.953 -6.71916 -5.01943 0
M  V30 1370 H 180.259 -7.4649 -6.93477 0
M  V30 1371 H 180.069 -8.89416 -5.05237 0
M  V30 1372 H 178.439 -8.14876 -5.18409 0
M  V30 1373 H 181.078 -3.27957 -5.4317 0
M  V30 1374 P 182.935 -5.75688 -6.64379 0
M  V30 1375 O 184.356 -6.07692 -7.0558 0
M  V30 1376 O 182.575 -5.88047 -5.19722 0
M  V30 1377 O 182.612 -4.2322 -7.04443 0
M  V30 1378 C 182.451 -3.99785 -8.49201 0
M  V30 1379 C 182.992 -2.60516 -8.79425 0
M  V30 1380 O 181.937 -1.82663 -8.44573 0
M  V30 1381 C 184.21 -2.10343 -8.03628 0
M  V30 1382 O 184.948 -1.09919 -8.67766 0
M  V30 1383 C 183.542 -1.68446 -6.70876 0
M  V30 1384 O 184.34 -0.684109 -6.08265 0
M  V30 1385 C 182.204 -1.17436 -7.18567 0
M  V30 1386 N 181.161 -1.52699 -6.23988 0
M  V30 1387 C 181.33 -2.578 -5.40574 0
M  V30 1388 N 180.303 -2.78966 -4.61193 0
M  V30 1389 C 179.418 -1.78725 -4.95769 0
M  V30 1390 C 178.151 -1.45727 -4.44207 0
M  V30 1391 N 177.552 -2.13994 -3.43613 0
M  V30 1392 N 177.586 -0.374977 -5.05812 0
M  V30 1393 C 178.188 0.345585 -6.05615 0
M  V30 1394 N 179.365 0.0787651 -6.56253 0
M  V30 1395 C 179.94 -1.00499 -5.96189 0
M  V30 1396 H 182.236 -0.0804622 -7.31556 0
M  V30 1397 H 183.419 -2.53396 -6.02698 0
M  V30 1398 H 184.902 -2.93881 -7.85526 0
M  V30 1399 H 183.208 -2.52078 -9.87225 0
M  V30 1400 H 183.018 -4.75072 -9.05887 0
M  V30 1401 H 181.388 -4.05244 -8.76668 0
M  V30 1402 H 177.652 1.20098 -6.4532 0
M  V30 1403 H 182.23 -3.18977 -5.3945 0
M  V30 1404 H 176.622 -1.84983 -3.10004 0
M  V30 1405 H 178.026 -2.9465 -3.00843 0
M  V30 1406 H 184.028 0.177619 -6.34151 0
M  V30 1407 P 185.886 -1.25109 -8.70152 0
M  V30 1408 O 187.308 -1.29744 -9.22016 0
M  V30 1409 O 185.526 -2.13714 -7.55141 0
M  V30 1410 O 185.563 0.248149 -8.21425 0
M  V30 1411 C 185.403 1.22779 -9.30434 0
M  V30 1412 C 185.943 2.56293 -8.80664 0
M  V30 1413 O 184.887 3.02979 -8.09349 0
M  V30 1414 C 187.161 2.57523 -7.89775 0
M  V30 1415 O 187.899 3.7668 -7.89438 0
M  V30 1416 C 186.492 2.20997 -6.55446 0
M  V30 1417 O 187.291 2.71895 -5.48509 0
M  V30 1418 C 185.155 2.89693 -6.67988 0
M  V30 1419 H 185.187 3.88793 -6.19859 0
M  V30 1420 H 186.37 1.12046 -6.44229 0
M  V30 1421 H 187.854 1.7746 -8.19711 0
M  V30 1422 H 186.16 3.20706 -9.67112 0
M  V30 1423 H 185.97 0.901032 -10.1892 0
M  V30 1424 H 184.34 1.33049 -9.56592 0
M  V30 1425 H 186.979 3.57847 -5.23962 0
M  V30 1426 P 188.836 3.65191 -7.99657 0
M  V30 1427 O 190.258 3.89332 -8.45794 0
M  V30 1428 O 188.476 2.28472 -7.50807 0
M  V30 1429 O 188.513 4.64972 -6.77611 0
M  V30 1430 C 188.353 6.06319 -7.16352 0
M  V30 1431 C 188.893 6.91731 -6.02299 0
M  V30 1432 O 187.837 6.92449 -5.17064 0
M  V30 1433 C 190.111 6.43627 -5.25174 0
M  V30 1434 O 190.849 7.43686 -4.60469 0
M  V30 1435 C 189.442 5.40275 -4.31916 0
M  V30 1436 O 190.241 5.25279 -3.14438 0
M  V30 1437 C 188.105 6.04847 -4.05327 0
M  V30 1438 H 188.137 6.62195 -3.11261 0
M  V30 1439 H 189.32 4.42556 -4.81383 0
M  V30 1440 H 190.804 5.92458 -5.93643 0
M  V30 1441 H 189.11 7.92655 -6.402 0
M  V30 1442 H 188.92 6.26671 -8.0846 0
M  V30 1443 H 187.29 6.29101 -7.32804 0
M  V30 1444 H 189.929 5.84315 -2.47318 0
M  V30 1445 P 191.787 7.39546 -4.75277 0
M  V30 1446 O 193.208 7.84882 -5.01092 0
M  V30 1447 O 191.427 5.9812 -5.08098 0
M  V30 1448 O 191.464 7.57503 -3.1866 0
M  V30 1449 C 191.303 8.97452 -2.74862 0
M  V30 1450 C 191.844 9.07548 -1.32709 0
M  V30 1451 O 190.789 8.61972 -0.606089 0
M  V30 1452 C 193.062 8.25383 -0.938334 0
M  V30 1453 O 193.8 8.74577 0.146954 0
M  V30 1454 C 192.394 6.8802 -0.712559 0
M  V30 1455 O 193.192 6.1181 0.188505 0
M  V30 1456 C 191.056 7.27966 -0.139777 0
M  V30 1457 N 190.013 6.39368 -0.623421 0
M  V30 1458 C 190.182 5.71761 -1.78245 0
M  V30 1459 N 189.155 4.962 -2.10491 0
M  V30 1460 C 188.27 5.16158 -1.0635 0
M  V30 1461 C 187.003 4.60425 -0.810266 0
M  V30 1462 N 186.438 5.06 0.348685 0
M  V30 1463 C 187.04 5.94532 1.20395 0
M  V30 1464 N 188.217 6.48452 1.01191 0
M  V30 1465 C 188.792 6.04423 -0.146291 0
M  V30 1466 H 192.271 6.32625 -1.65044 0
M  V30 1467 H 193.754 8.19355 -1.79097 0
M  V30 1468 H 192.06 10.1305 -1.09016 0
M  V30 1469 H 191.87 9.64276 -3.41316 0
M  V30 1470 H 190.24 9.25417 -2.76357 0
M  V30 1471 H 191.082 5.79354 -2.38959 0
M  V30 1472 H 192.88 6.25169 1.0783 0
M  V30 1473 P 194.738 8.791 1.12009e-13 0
M  V30 1474 O 196.16 9.31296 0.027939 0
M  V30 1475 O 194.378 7.77869 -1.04071 0
M  V30 1476 O 194.415 8.09533 1.41463 0
M  V30 1477 C 194.255 9.0349 2.53943 0
M  V30 1478 C 194.795 8.35135 3.78975 0
M  V30 1479 O 193.74 7.57992 4.15078 0
M  V30 1480 C 196.013 7.45087 3.67298 0
M  V30 1481 O 196.751 7.27796 4.85194 0
M  V30 1482 C 195.345 6.17323 3.12027 0
M  V30 1483 O 196.143 5.04149 3.47132 0
M  V30 1484 C 194.007 6.19961 3.81809 0
M  V30 1485 N 192.964 5.71575 2.93223 0
M  V30 1486 C 193.026 5.97133 1.62693 0
M  V30 1487 N 191.981 5.44066 0.984414 0
M  V30 1488 C 191.247 4.87093 1.93987 0
M  V30 1489 C 189.941 4.26449 1.8738 0
M  V30 1490 O 189.208 4.1089 0.884377 0
M  V30 1491 N 189.511 3.82483 3.08036 0
M  V30 1492 C 190.26 3.95124 4.27727 0
M  V30 1493 N 189.663 3.4084 5.39089 0
M  V30 1494 N 191.413 4.55264 4.3706 0
M  V30 1495 C 191.87 5.00861 3.18217 0
M  V30 1496 H 194.039 5.58218 4.73051 0
M  V30 1497 H 195.222 6.21631 2.02558 0
M  V30 1498 H 196.707 7.85819 2.93096 0
M  V30 1499 H 195.012 9.11627 4.55076 0
M  V30 1500 H 194.822 9.9573 2.34194 0
M  V30 1501 H 193.191 9.2792 2.67832 0
M  V30 1502 H 188.615 3.38323 3.1329 0
M  V30 1503 H 193.822 6.53891 1.14265 0
M  V30 1504 H 188.752 2.93852 5.30559 0
M  V30 1505 H 190.128 3.47631 6.30632 0
M  V30 1506 H 195.832 4.67628 4.28704 0
M  V30 1507 P 197.688 7.39546 4.75277 0
M  V30 1508 O 199.11 7.81777 5.05738 0
M  V30 1509 O 197.328 7.1065 3.32998 0
M  V30 1510 O 197.365 6.04542 5.56673 0
M  V30 1511 C 197.205 6.22772 7.02095 0
M  V30 1512 C 197.745 4.97725 7.70406 0
M  V30 1513 O 196.689 4.13256 7.58987 0
M  V30 1514 C 198.963 4.28231 7.11815 0
M  V30 1515 O 199.701 3.49945 8.01648 0
M  V30 1516 C 198.294 3.5063 5.96244 0
M  V30 1517 O 199.093 2.36482 5.64681 0
M  V30 1518 C 196.957 3.15122 6.56374 0
M  V30 1519 H 196.989 2.13853 6.99751 0
M  V30 1520 H 198.172 4.13501 5.06559 0
M  V30 1521 H 199.656 5.03285 6.70911 0
M  V30 1522 H 197.962 5.20877 8.75697 0
M  V30 1523 H 197.772 7.11046 7.35349 0
M  V30 1524 H 196.142 6.35815 7.26986 0
M  V30 1525 H 198.781 1.61644 6.13565 0
M  V30 1526 P 200.639 3.65191 7.99657 0
M  V30 1527 O 202.061 3.8425 8.48115 0
M  V30 1528 O 200.279 4.17805 6.64342 0
M  V30 1529 O 200.316 2.07613 7.95143 0
M  V30 1530 C 200.156 1.44328 9.27336 0
M  V30 1531 C 200.696 0.0220036 9.17197 0
M  V30 1532 O 199.64 -0.626867 8.61923 0
M  V30 1533 C 201.914 -0.24586 8.30336 0
M  V30 1534 O 202.652 -1.39011 8.63583 0
M  V30 1535 C 201.245 -0.273849 6.91158 0
M  V30 1536 O 202.044 -1.06348 6.02892 0
M  V30 1537 C 199.908 -0.897649 7.22545 0
M  V30 1538 H 199.94 -1.9841 7.04286 0
M  V30 1539 H 201.123 0.739928 6.497 0
M  V30 1540 H 202.607 0.60668 8.36503 0
M  V30 1541 H 200.913 -0.352479 10.1829 0
M  V30 1542 H 200.723 2.00611 10.0304 0
M  V30 1543 H 199.093 1.41843 9.55327 0
M  V30 1544 H 201.732 -1.95734 6.03555 0
M  V30 1545 P 203.589 -1.25109 8.70152 0
M  V30 1546 O 205.011 -1.35274 9.21221 0
M  V30 1547 O 203.229 -0.0769065 7.84762 0
M  V30 1548 O 203.266 -2.55232 7.81161 0
M  V30 1549 C 203.106 -3.79939 8.58154 0
M  V30 1550 C 203.646 -4.94023 7.72785 0
M  V30 1551 O 202.59 -5.18726 6.91205 0
M  V30 1552 C 204.864 -4.69597 6.85231 0
M  V30 1553 O 205.602 -5.83832 6.51337 0
M  V30 1554 C 204.195 -3.96706 5.66633 0
M  V30 1555 O 204.994 -4.15414 4.49689 0
M  V30 1556 C 202.858 -4.66153 5.59313 0
M  V30 1557 H 202.89 -5.47679 4.85214 0
M  V30 1558 H 204.073 -2.89008 5.86566 0
M  V30 1559 H 205.557 -4.0121 7.36511 0
M  V30 1560 H 203.863 -5.80182 8.37584 0
M  V30 1561 H 203.673 -3.73517 9.52265 0
M  V30 1562 H 202.043 -3.97163 8.80359 0
M  V30 1563 H 204.682 -4.90969 4.01921 0
M  V30 1564 P 206.54 -5.75688 6.64379 0
M  V30 1565 O 207.962 -6.11849 7.01846 0
M  V30 1566 O 206.18 -4.30744 6.56026 0
M  V30 1567 O 206.217 -6.37042 5.19165 0
M  V30 1568 C 206.057 -7.83578 5.16515 0
M  V30 1569 C 206.597 -8.33398 3.83019 0
M  V30 1570 O 205.541 -8.10074 3.01034 0
M  V30 1571 C 207.815 -7.65514 3.2257 0
M  V30 1572 O 208.553 -8.4329 2.32297 0
M  V30 1573 C 207.146 -6.40075 2.62207 0
M  V30 1574 O 207.945 -5.92589 1.53712 0
M  V30 1575 C 205.809 -6.9454 2.18503 0
M  V30 1576 H 205.841 -7.23063 1.12091 0
M  V30 1577 H 207.024 -5.6025 3.37201 0
M  V30 1578 H 208.508 -7.35707 4.02681 0
M  V30 1579 H 206.814 -9.40912 3.9095 0
M  V30 1580 H 206.624 -8.29056 5.99158 0
M  V30 1581 H 204.994 -8.10073 5.25882 0
M  V30 1582 H 207.633 -6.30324 0.726794 0
M  V30 1583 P 209.49 -8.4349 2.47671 0
M  V30 1584 O 210.891 -8.98227 2.65696 0
M  V30 1585 O 209.112 -7.20409 3.23964 0
M  V30 1586 O 209.167 -8.16496 0.923275 0
M  V30 1587 C 209.007 -9.38437 0.108857 0
M  V30 1588 C 209.547 -9.08076 -1.28339 0
M  V30 1589 O 208.491 -8.44131 -1.84692 0
M  V30 1590 C 210.764 -8.18386 -1.42505 0
M  V30 1591 O 211.503 -8.3501 -2.60497 0
M  V30 1592 C 210.097 -6.80225 -1.25468 0
M  V30 1593 O 210.895 -5.81526 -1.91035 0
M  V30 1594 C 208.759 -7.02416 -1.9168 0
M  V30 1595 N 207.716 -6.31033 -1.20314 0
M  V30 1596 C 206.681 -5.77149 -1.928 0
M  V30 1597 O 206.72 -5.8521 -3.17729 0
M  V30 1598 N 205.669 -5.15445 -1.27997 0
M  V30 1599 C 205.717 -5.04472 0.0534726 0
M  V30 1600 C 206.813 -5.55244 0.808522 0
M  V30 1601 C 207.779 -6.18542 0.13981 0
M  V30 1602 H 208.791 -6.68789 -2.9658 0
M  V30 1603 H 209.974 -6.53498 -0.198729 0
M  V30 1604 H 211.458 -8.36663 -0.5984 0
M  V30 1605 H 209.764 -10.0273 -1.8081 0
M  V30 1606 H 209.573 -10.2138 0.558219 0
M  V30 1607 H 207.943 -9.6569 0.0444156 0
M  V30 1608 H 206.861 -5.43017 1.88792 0
M  V30 1609 H 208.625 -6.60539 0.686773 0
M  V30 1610 H 210.679 -5.79638 -2.8315 0
M  V30 1611 P 212.441 -8.4349 -2.47671 0
M  V30 1612 O 213.863 -8.92593 -2.65 0
M  V30 1613 O 212.081 -7.7568 -1.19296 0
M  V30 1614 O 212.118 -7.36886 -3.63805 0
M  V30 1615 C 211.958 -7.95349 -4.982 0
M  V30 1616 C 212.498 -6.94612 -5.98974 0
M  V30 1617 O 211.442 -6.10347 -6.11815 0
M  V30 1618 C 213.716 -6.11426 -5.62335 0
M  V30 1619 O 214.454 -5.6162 -6.70584 0
M  V30 1620 C 213.047 -5.04409 -4.73308 0
M  V30 1621 O 213.846 -3.85992 -4.75183 0
M  V30 1622 C 211.71 -4.8728 -5.41006 0
M  V30 1623 H 211.742 -4.02333 -6.11157 0
M  V30 1624 H 212.925 -5.39466 -3.69543 0
M  V30 1625 H 214.409 -6.71916 -5.01943 0
M  V30 1626 H 212.715 -7.4649 -6.93477 0
M  V30 1627 H 212.525 -8.89416 -5.05237 0
M  V30 1628 H 210.895 -8.14876 -5.18409 0
M  V30 1629 H 213.534 -3.27957 -5.4317 0
M  V30 1630 P 215.392 -5.75688 -6.64379 0
M  V30 1631 O 216.814 -6.07627 -7.05504 0
M  V30 1632 O 215.032 -5.88047 -5.19722 0
M  V30 1633 O 215.069 -4.2322 -7.04443 0
M  V30 1634 C 214.909 -3.99743 -8.4911 0
M  V30 1635 C 215.449 -2.60516 -8.79425 0
M  V30 1636 O 214.393 -1.82684 -8.4467 0
M  V30 1637 C 216.667 -2.10343 -8.03628 0
M  V30 1638 O 217.405 -1.09919 -8.67766 0
M  V30 1639 C 215.998 -1.68446 -6.70876 0
M  V30 1640 O 216.797 -0.678137 -6.08433 0
M  V30 1641 C 214.661 -1.17436 -7.18567 0
M  V30 1642 H 214.693 -0.0804732 -7.31656 0
M  V30 1643 H 215.876 -2.54037 -6.02537 0
M  V30 1644 H 217.36 -2.93881 -7.85526 0
M  V30 1645 H 215.666 -2.53065 -9.86973 0
M  V30 1646 H 215.476 -4.75072 -9.05887 0
M  V30 1647 H 213.846 -4.05244 -8.76668 0
M  V30 1648 H 216.485 0.177647 -6.34251 0
M  V30 1649 P 218.342 -1.25109 -8.70152 0
M  V30 1650 O 219.764 -1.29744 -9.22016 0
M  V30 1651 O 217.982 -2.13714 -7.55141 0
M  V30 1652 O 218.019 0.248149 -8.21425 0
M  V30 1653 C 217.859 1.22779 -9.30434 0
M  V30 1654 C 218.399 2.56293 -8.80664 0
M  V30 1655 O 217.343 3.02979 -8.09349 0
M  V30 1656 C 219.617 2.57523 -7.89775 0
M  V30 1657 O 220.355 3.7668 -7.89438 0
M  V30 1658 C 218.948 2.20997 -6.55446 0
M  V30 1659 O 219.747 2.71895 -5.48509 0
M  V30 1660 C 217.611 2.89693 -6.67988 0
M  V30 1661 H 217.643 3.88793 -6.19859 0
M  V30 1662 H 218.826 1.12046 -6.44229 0
M  V30 1663 H 220.31 1.7746 -8.19711 0
M  V30 1664 H 218.616 3.20706 -9.67112 0
M  V30 1665 H 218.426 0.901032 -10.1892 0
M  V30 1666 H 216.796 1.33049 -9.56592 0
M  V30 1667 H 219.435 3.57847 -5.23962 0
M  V30 1668 P 221.293 3.65191 -7.99657 0
M  V30 1669 O 222.715 3.89332 -8.45794 0
M  V30 1670 O 220.933 2.28472 -7.50807 0
M  V30 1671 O 220.97 4.64972 -6.77611 0
M  V30 1672 C 220.81 6.06319 -7.16352 0
M  V30 1673 C 221.35 6.91731 -6.02299 0
M  V30 1674 O 220.294 6.92449 -5.17064 0
M  V30 1675 C 222.568 6.43627 -5.25174 0
M  V30 1676 O 223.306 7.43686 -4.60469 0
M  V30 1677 C 221.899 5.40275 -4.31916 0
M  V30 1678 O 222.698 5.25279 -3.14438 0
M  V30 1679 C 220.562 6.04847 -4.05327 0
M  V30 1680 H 220.594 6.62195 -3.11261 0
M  V30 1681 H 221.777 4.42556 -4.81383 0
M  V30 1682 H 223.261 5.92458 -5.93643 0
M  V30 1683 H 221.567 7.92655 -6.402 0
M  V30 1684 H 221.377 6.26671 -8.0846 0
M  V30 1685 H 219.747 6.29101 -7.32804 0
M  V30 1686 H 222.386 5.84315 -2.47318 0
M  V30 1687 P 224.243 7.39546 -4.75277 0
M  V30 1688 O 225.665 7.84798 -5.01039 0
M  V30 1689 O 223.883 5.9812 -5.08098 0
M  V30 1690 O 223.92 7.57503 -3.1866 0
M  V30 1691 C 223.76 8.97357 -2.74833 0
M  V30 1692 C 224.3 9.07548 -1.32709 0
M  V30 1693 O 223.244 8.62072 -0.606159 0
M  V30 1694 C 225.518 8.25383 -0.938334 0
M  V30 1695 O 226.256 8.74577 0.146954 0
M  V30 1696 C 224.849 6.8802 -0.712559 0
M  V30 1697 O 225.648 6.1189 0.194655 0
M  V30 1698 C 223.512 7.27966 -0.139777 0
M  V30 1699 H 223.544 7.25354 0.961601 0
M  V30 1700 H 224.727 6.32557 -1.65702 0
M  V30 1701 H 226.211 8.19355 -1.79097 0
M  V30 1702 H 224.517 10.1294 -1.10029 0
M  V30 1703 H 224.327 9.64276 -3.41316 0
M  V30 1704 H 222.697 9.25417 -2.76357 0
M  V30 1705 H 225.336 6.25267 1.07847 0
M  V30 1706 P 227.194 8.791 4.22174e-13 0
M  V30 1707 O 228.615 9.31196 0.027936 0
M  V30 1708 O 226.834 7.77869 -1.04071 0
M  V30 1709 O 226.871 8.09533 1.41463 0
M  V30 1710 C 226.71 9.03587 2.5397 0
M  V30 1711 C 227.251 8.35226 3.79016 0
M  V30 1712 O 226.196 7.57904 4.1503 0
M  V30 1713 C 228.469 7.45087 3.67298 0
M  V30 1714 O 229.207 7.27796 4.85194 0
M  V30 1715 C 227.801 6.17323 3.12027 0
M  V30 1716 O 228.599 5.04496 3.46627 0
M  V30 1717 C 226.463 6.19961 3.81809 0
M  V30 1718 N 225.42 5.71575 2.93223 0
M  V30 1719 C 225.589 5.77362 1.59168 0
M  V30 1720 N 224.562 5.3123 0.911893 0
M  V30 1721 C 223.677 4.91717 1.89588 0
M  V30 1722 C 222.41 4.3114 1.8076 0
M  V30 1723 N 221.845 4.06823 3.02898 0
M  V30 1724 C 222.447 4.35062 4.22711 0
M  V30 1725 N 223.624 4.90805 4.35707 0
M  V30 1726 C 224.199 5.16382 3.14469 0
M  V30 1727 H 227.678 6.21428 2.0318 0
M  V30 1728 H 229.161 7.86112 2.9231 0
M  V30 1729 H 227.467 9.11171 4.55987 0
M  V30 1730 H 227.277 9.9573 2.34194 0
M  V30 1731 H 225.647 9.2792 2.67832 0
M  V30 1732 H 226.489 6.16575 1.12198 0
M  V30 1733 H 228.287 4.67628 4.28704 0
M  V30 1734 P 230.144 7.39546 4.75277 0
M  V30 1735 O 231.565 7.81861 5.05793 0
M  V30 1736 O 229.784 7.1065 3.32998 0
M  V30 1737 O 229.821 6.04542 5.56673 0
M  V30 1738 C 229.66 6.22839 7.02169 0
M  V30 1739 C 230.201 4.97725 7.70406 0
M  V30 1740 O 229.146 4.13208 7.58899 0
M  V30 1741 C 231.419 4.28231 7.11815 0
M  V30 1742 O 232.157 3.49945 8.01648 0
M  V30 1743 C 230.751 3.5063 5.96244 0
M  V30 1744 O 231.549 2.37008 5.64352 0
M  V30 1745 C 229.413 3.15122 6.56374 0
M  V30 1746 N 228.37 3.22311 5.55692 0
M  V30 1747 C 228.539 3.99655 4.46046 0
M  V30 1748 N 227.512 3.97599 3.63918 0
M  V30 1749 C 226.627 3.11159 4.25334 0
M  V30 1750 C 225.36 2.64972 3.85157 0
M  V30 1751 N 224.795 1.78482 4.74759 0
M  V30 1752 C 225.397 1.37463 5.90819 0
M  V30 1753 N 226.574 1.7733 6.31889 0
M  V30 1754 C 227.149 2.64393 5.43725 0
M  V30 1755 H 230.628 4.12931 5.06895 0
M  V30 1756 H 232.111 5.03285 6.70911 0
M  V30 1757 H 230.417 5.20001 8.76217 0
M  V30 1758 H 230.227 7.11046 7.35349 0
M  V30 1759 H 228.597 6.35815 7.26986 0
M  V30 1760 H 229.439 4.58037 4.27732 0
M  V30 1761 H 231.237 1.61619 6.13468 0
M  V30 1762 P 233.095 3.65191 7.99657 0
M  V30 1763 O 234.517 3.8425 8.48115 0
M  V30 1764 O 232.735 4.17805 6.64342 0
M  V30 1765 O 232.772 2.07613 7.95143 0
M  V30 1766 C 232.612 1.44328 9.27336 0
M  V30 1767 C 233.152 0.0220036 9.17197 0
M  V30 1768 O 232.096 -0.626867 8.61923 0
M  V30 1769 C 234.37 -0.24586 8.30336 0
M  V30 1770 O 235.108 -1.39011 8.63583 0
M  V30 1771 C 233.701 -0.273849 6.91158 0
M  V30 1772 O 234.5 -1.06348 6.02892 0
M  V30 1773 C 232.364 -0.897649 7.22545 0
M  V30 1774 H 232.396 -1.9841 7.04286 0
M  V30 1775 H 233.579 0.739928 6.497 0
M  V30 1776 H 235.063 0.60668 8.36503 0
M  V30 1777 H 233.369 -0.352479 10.1829 0
M  V30 1778 H 233.179 2.00611 10.0304 0
M  V30 1779 H 231.549 1.41843 9.55327 0
M  V30 1780 H 234.188 -1.95734 6.03555 0
M  V30 1781 H 236.741 -1.1387 8.16296 0
M  V30 END ATOM
M  V30 BEGIN BOND
M  V30 END BOND
M  V30 END CTAB
M  END
$$$$
