drugbank_target|P0AF12 5'-methylthioadenosine/S-adenosylhomocysteine nucleosidase (DB00173; DB02158; DB02281; DB02933; DB08606)
 OpenBabel12092120033D

  0  0  0     0  0            999 V3000
M  V30 BEGIN CTAB
M  V30 COUNTS 3437 3461 0 0 0
M  V30 BEGIN ATOM
M  V30 1 H -0.908 1.98254 -0.117106 0
M  V30 2 N 0 1.576 0 0
M  V30 3 C 0.933 2.03868 1.02534 0
M  V30 4 C 1.911 0.928543 1.3348 0
M  V30 5 O 3.095 1.19667 1.45644 0
M  V30 6 C 0.222 2.43627 2.35294 0
M  V30 7 C -0.732 3.65373 2.2001 0
M  V30 8 S 0.101 5.13292 1.52614 0
M  V30 9 C 1.257 5.56322 2.86805 0
M  V30 10 H 1.49 2.90518 0.631377 0
M  V30 11 H -0.977 1.52953 0.210867 0
M  V30 12 H 0.981 2.67203 3.11629 0
M  V30 13 H -0.358 1.57376 2.7183 0
M  V30 14 H -1.165 3.90944 3.18086 0
M  V30 15 H -1.563 3.418 1.51819 0
M  V30 16 H 0.729 5.58782 3.83104 0
M  V30 17 H 1.672 6.56266 2.65933 0
M  V30 18 H 2.08 4.83886 2.90714 0
M  V30 19 N 1.4781 -0.272755 1.55222 0
M  V30 20 C 2.4251 -1.33716 1.88119 0
M  V30 21 C 3.3951 -1.49066 0.73271 0
M  V30 22 O 4.5801 -1.63469 0.984002 0
M  V30 23 C 1.7201 -2.69238 2.15882 0
M  V30 24 C 0.8331 -2.62108 3.43399 0
M  V30 25 C -0.0319 -3.89811 3.60861 0
M  V30 26 C -0.9929 -3.77193 4.8207 0
M  V30 27 N -1.8559 -4.9673 4.96189 0
M  V30 28 H 2.9841 -1.04962 2.78903 0
M  V30 29 H 0.5211 -0.507088 1.38083 0
M  V30 30 H 2.4791 -3.48089 2.29978 0
M  V30 31 H 1.1091 -2.96194 1.28331 0
M  V30 32 H 0.1611 -1.74967 3.37773 0
M  V30 33 H 1.4731 -2.48685 4.32386 0
M  V30 34 H 0.6271 -4.77103 3.74777 0
M  V30 35 H -0.6339 -4.06102 2.7006 0
M  V30 36 H -1.6289 -2.88284 4.68159 0
M  V30 37 H -0.4039 -3.62421 5.74307 0
M  V30 38 H -2.4579 -5.13431 4.08319 0
M  V30 39 H -2.5409 -4.85839 5.79221 0
M  V30 40 H -1.2729 -5.85594 5.1449 0
M  V30 41 N 2.9562 -1.48159 -0.537278 0
M  V30 42 C 4.2052 -1.5506 -1.28993 0
M  V30 43 C 4.5182 -0.226211 -1.94288 0
M  V30 44 O 5.7242 -0.173395 -2.70946 0
M  V30 45 C 4.1802 -2.73429 -2.34018 0
M  V30 46 C 3.7882 -4.1248 -1.74825 0
M  V30 47 C 5.5322 -2.89638 -3.10339 0
M  V30 48 C 3.4392 -5.22121 -2.77747 0
M  V30 49 H 2.3692 -0.577231 -0.485098 0
M  V30 50 H 5.0202 -1.74478 -0.568317 0
M  V30 51 H 3.4022 -2.47431 -3.09182 0
M  V30 52 H 4.5762 -4.48466 -1.05899 0
M  V30 53 H 2.8912 -4.01327 -1.11022 0
M  V30 54 H 5.4882 -3.68718 -3.87235 0
M  V30 55 H 5.8312 -1.9882 -3.65754 0
M  V30 56 H 6.3642 -3.15502 -2.42288 0
M  V30 57 H 3.1032 -6.1488 -2.27161 0
M  V30 58 H 2.6232 -4.90631 -3.45024 0
M  V30 59 H 4.3022 -5.49924 -3.4087 0
M  V30 60 N 4.4343 0.785586 -1.36625 0
M  V30 61 C 5.6823 1.54057 -1.30808 0
M  V30 62 C 6.0033 1.94683 0.111157 0
M  V30 63 O 5.2733 1.65241 1.05224 0
M  V30 64 H 3.8533 0.571354 -0.481211 0
M  V30 65 H 6.5153 0.935821 -1.70963 0
M  V30 66 H 5.6113 2.44637 -1.93801 0
M  V30 67 N 5.9124 1.20967 1.01018 0
M  V30 68 C 7.1614 1.01796 1.74128 0
M  V30 69 C 7.4744 -0.449691 1.90361 0
M  V30 70 O 8.6804 -0.76068 2.60626 0
M  V30 71 C 7.1364 1.7727 3.13215 0
M  V30 72 C 6.7444 3.28171 3.04972 0
M  V30 73 C 8.4884 1.66489 3.90489 0
M  V30 74 C 6.3954 3.96156 4.39107 0
M  V30 75 H 5.3254 0.377276 0.652824 0
M  V30 76 H 7.9764 1.44651 1.12909 0
M  V30 77 H 6.3584 1.27205 3.75013 0
M  V30 78 H 7.5324 3.85499 2.52443 0
M  V30 79 H 5.8474 3.39437 2.41188 0
M  V30 80 H 8.4444 2.14617 4.89738 0
M  V30 81 H 8.7874 0.6222 4.11624 0
M  V30 82 H 9.3204 2.14003 3.35332 0
M  V30 83 H 6.0594 5.00604 4.23174 0
M  V30 84 H 5.5794 3.43617 4.91617 0
M  V30 85 H 7.2584 4.00774 5.07926 0
M  V30 86 N 7.3905 -1.2043 1.01659 0
M  V30 87 C 8.6395 -1.89118 0.701237 0
M  V30 88 C 8.9525 -1.79705 -0.772358 0
M  V30 89 O 10.1585 -2.43528 -1.20026 0
M  V30 90 C 8.6145 -3.39168 1.20388 0
M  V30 91 C 8.2225 -3.57166 2.70438 0
M  V30 92 C 9.9665 -4.1341 0.963953 0
M  V30 93 C 7.8735 -5.01042 3.14183 0
M  V30 94 H 6.8035 -0.708267 0.2586 0
M  V30 95 H 9.4545 -1.36239 1.22927 0
M  V30 96 H 7.8365 -3.91369 0.603824 0
M  V30 97 H 9.0105 -3.15351 3.35992 0
M  V30 98 H 7.3255 -2.96294 2.92572 0
M  V30 99 H 9.9225 -5.19491 1.26621 0
M  V30 100 H 10.2655 -4.16181 -0.099578 0
M  V30 101 H 10.7985 -3.67309 1.52738 0
M  V30 102 H 7.5375 -5.03426 4.19812 0
M  V30 103 H 7.0575 -5.43668 2.53348 0
M  V30 104 H 8.7365 -5.69623 3.0682 0
M  V30 105 N 8.8686 -0.792821 -1.36206 0
M  V30 106 C 10.1166 -0.366062 -1.98757 0
M  V30 107 C 10.4376 1.0668 -1.63231 0
M  V30 108 O 9.7076 1.73587 -0.907978 0
M  V30 109 H 8.2876 -0.132364 -0.735179 0
M  V30 110 H 10.9496 -1.01562 -1.66347 0
M  V30 111 H 10.0456 -0.460638 -3.08682 0
M  V30 112 N 10.3467 1.47872 -0.545128 0
M  V30 113 C 11.3097 2.28337 0.198717 0
M  V30 114 C 12.3097 1.36255 0.853888 0
M  V30 115 O 13.4997 1.59003 0.711606 0
M  V30 116 C 10.6317 3.15585 1.28915 0
M  V30 117 H 11.8247 2.95567 -0.507941 0
M  V30 118 H 9.3777 1.53362 -0.301616 0
M  V30 119 H 10.1127 2.53019 2.02859 0
M  V30 120 H 9.8977 3.83337 0.824309 0
M  V30 121 H 11.3877 3.76243 1.81194 0
M  V30 122 N 11.8248 0.280983 1.55075 0
M  V30 123 C 12.7578 -0.645439 2.18882 0
M  V30 124 C 13.7358 -1.14786 1.15165 0
M  V30 125 O 14.9198 -1.21975 1.43716 0
M  V30 126 C 12.0468 -1.88088 2.81674 0
M  V30 127 C 11.0928 -1.51343 3.98745 0
M  V30 128 S 11.9258 -0.586548 5.32278 0
M  V30 129 C 13.0818 -1.83024 5.98543 0
M  V30 130 H 13.3148 -0.1033 2.9712 0
M  V30 131 H 10.8478 0.0652099 1.54262 0
M  V30 132 H 12.8058 -2.58997 3.18482 0
M  V30 133 H 11.4668 -2.39417 2.03318 0
M  V30 134 H 10.6598 -2.43289 4.41392 0
M  V30 135 H 10.2618 -0.884477 3.63391 0
M  V30 136 H 12.5538 -2.77342 6.18133 0
M  V30 137 H 13.4968 -1.44668 6.93164 0
M  V30 138 H 13.9048 -1.99785 5.27964 0
M  V30 139 N 13.3029 -1.57598 0.00835791 0
M  V30 140 C 14.2129 -2.12385 -0.996487 0
M  V30 141 C 15.2289 -1.07108 -1.37127 0
M  V30 142 O 16.4049 -1.39055 -1.4569 0
M  V30 143 C 13.4699 -2.62314 -2.26699 0
M  V30 144 C 12.5309 -3.82225 -1.95456 0
M  V30 145 C 11.7639 -4.29763 -3.16449 0
M  V30 146 O 11.9869 -3.76584 -4.28416 0
M  V30 147 O 10.9209 -5.21832 -2.99958 0
M  V30 148 H 14.7469 -2.98479 -0.560725 0
M  V30 149 H 12.3319 -1.47903 -0.210987 0
M  V30 150 H 14.2139 -2.94589 -3.01322 0
M  V30 151 H 12.8889 -1.79313 -2.69497 0
M  V30 152 H 11.7959 -3.54909 -1.18282 0
M  V30 153 H 13.1289 -4.66324 -1.57489 0
M  V30 154 N 14.781 0.264519 -1.55364 0
M  V30 155 C 15.691 1.34902 -1.91934 0
M  V30 156 C 16.707 1.53595 -0.817593 0
M  V30 157 O 17.883 1.67558 -1.11742 0
M  V30 158 C 14.948 2.68676 -2.19121 0
M  V30 159 C 14.009 2.58657 -3.4263 0
M  V30 160 C 13.242 3.86051 -3.68511 0
M  V30 161 O 13.465 4.87126 -2.96757 0
M  V30 162 O 12.399 3.85744 -4.62045 0
M  V30 163 H 16.225 1.06883 -2.8427 0
M  V30 164 H 13.81 0.463775 -1.42019 0
M  V30 165 H 15.692 3.47759 -2.37995 0
M  V30 166 H 14.367 2.96463 -1.29966 0
M  V30 167 H 13.274 1.7792 -3.29082 0
M  V30 168 H 14.607 2.35818 -4.32031 0
M  V30 169 N 16.2591 1.48442 0.529413 0
M  V30 170 C 17.1691 1.6569 1.66084 0
M  V30 171 C 18.1851 0.539432 1.65427 0
M  V30 172 O 19.3611 0.810572 1.84368 0
M  V30 173 C 16.4261 1.69315 3.02545 0
M  V30 174 C 15.4871 2.92694 3.14052 0
M  V30 175 C 14.7201 2.96137 4.44003 0
M  V30 176 O 14.9431 2.07973 5.31134 0
M  V30 177 O 13.8771 3.88312 4.59888 0
M  V30 178 H 17.7031 2.61483 1.54469 0
M  V30 179 H 15.2881 1.3185 0.702567 0
M  V30 180 H 17.1701 1.74217 3.83701 0
M  V30 181 H 15.8451 0.766966 3.14483 0
M  V30 182 H 14.7521 2.93324 2.32189 0
M  V30 183 H 16.0851 3.84699 3.0703 0
M  V30 184 N 17.7372 -0.778329 1.37039 0
M  V30 185 C 18.9832 -1.53892 1.32079 0
M  V30 186 C 19.3162 -1.9396 -0.0965386 0
M  V30 187 O 18.5912 -1.63568 -1.05242 0
M  V30 188 C 18.8742 -2.80847 2.25382 0
M  V30 189 C 18.7272 -2.47076 3.75864 0
M  V30 190 C 20.0462 -3.82741 2.1725 0
M  V30 191 H 17.1652 -0.558303 0.48111 0
M  V30 192 H 19.8072 -0.893397 1.67685 0
M  V30 193 H 17.9572 -3.35931 1.95148 0
M  V30 194 H 19.6292 -1.97957 4.16666 0
M  V30 195 H 17.8722 -1.79863 3.94755 0
M  V30 196 H 18.5432 -3.37798 4.36574 0
M  V30 197 H 21.0192 -3.37133 2.43887 0
M  V30 198 H 19.8952 -4.69303 2.84686 0
M  V30 199 H 20.1562 -4.2652 1.16331 0
M  V30 200 N 19.2153 -1.21501 -1.00376 0
M  V30 201 C 20.4433 -1.059 -1.77744 0
M  V30 202 C 20.8583 0.391125 -1.84704 0
M  V30 203 O 20.2153 1.27133 -1.30933 0
M  V30 204 C 20.2663 -1.65111 -3.21591 0
M  V30 205 O 19.9873 -3.0445 -3.15027 0
M  V30 206 C 21.4883 -1.54637 -4.15454 0
M  V30 207 H 18.7083 -0.371825 -0.558558 0
M  V30 208 H 21.2523 -1.60865 -1.26264 0
M  V30 209 H 19.4073 -1.14235 -3.70175 0
M  V30 210 H 19.8213 -3.3278 -4.0541 0
M  V30 211 H 21.2953 -2.00808 -5.14179 0
M  V30 212 H 21.7723 -0.501022 -4.36333 0
M  V30 213 H 22.3783 -2.04767 -3.72761 0
M  V30 214 N 20.6934 1.19889 -1.02296 0
M  V30 215 C 21.6234 2.25141 -0.619174 0
M  V30 216 C 22.6044 1.66051 0.368915 0
M  V30 217 O 23.7894 1.92546 0.252941 0
M  V30 218 C 20.9194 3.4728 0.0368783 0
M  V30 219 C 19.8734 4.19005 -0.872865 0
M  V30 220 C 19.1994 5.34637 -0.0822402 0
M  V30 221 C 20.4994 4.74452 -2.18387 0
M  V30 222 H 22.1934 2.59171 -1.49903 0
M  V30 223 H 19.7394 1.24579 -0.722222 0
M  V30 224 H 21.6924 4.20098 0.330958 0
M  V30 225 H 20.4164 3.12433 0.95149 0
M  V30 226 H 19.0754 3.48061 -1.15105 0
M  V30 227 H 18.7234 4.96034 0.83422 0
M  V30 228 H 18.4234 5.83557 -0.688149 0
M  V30 229 H 19.9474 6.10255 0.205238 0
M  V30 230 H 21.3614 5.39055 -1.95172 0
M  V30 231 H 19.7584 5.33834 -2.74119 0
M  V30 232 H 20.8284 3.92844 -2.84257 0
M  V30 233 N 22.1715 0.800033 1.35784 0
M  V30 234 C 23.1015 0.220184 2.3246 0
M  V30 235 C 24.0825 -0.65073 1.57161 0
M  V30 236 O 25.2675 -0.582359 1.85263 0
M  V30 237 C 22.3975 -0.637353 3.41402 0
M  V30 238 C 21.3515 0.134531 4.27789 0
M  V30 239 C 20.6775 -0.844285 5.27992 0
M  V30 240 C 21.9775 1.32979 5.05088 0
M  V30 241 H 23.6715 1.02787 2.81203 0
M  V30 242 H 21.2175 0.495717 1.35199 0
M  V30 243 H 23.1705 -1.05302 4.08031 0
M  V30 244 H 21.8945 -1.47785 2.91251 0
M  V30 245 H 20.5535 0.531296 3.6273 0
M  V30 246 H 20.2015 -1.68011 4.74111 0
M  V30 247 H 19.9015 -0.332184 5.8666 0
M  V30 248 H 21.4255 -1.2583 5.97494 0
M  V30 249 H 22.8395 0.98934 5.64699 0
M  V30 250 H 21.2365 1.77593 5.7322 0
M  V30 251 H 22.3065 2.11978 4.36111 0
M  V30 252 N 23.6496 -1.47581 0.552962 0
M  V30 253 C 25.0656 -1.5818 0.212424 0
M  V30 254 C 25.2656 -1.55213 -1.28496 0
M  V30 255 O 24.3216 -1.45329 -2.06484 0
M  V30 256 C 25.6346 -2.88865 0.835318 0
M  V30 257 C 27.1826 -3.0244 0.806156 0
M  V30 258 C 27.6576 -4.35819 1.40804 0
M  V30 259 N 29.1486 -4.42444 1.37103 0
M  V30 260 C 29.8836 -5.44202 1.80641 0
M  V30 261 N 29.3796 -6.52795 2.32015 0
M  V30 262 N 31.1726 -5.35222 1.71738 0
M  V30 263 H 23.3236 -1.47753 1.52587 0
M  V30 264 H 25.5866 -0.702941 0.636064 0
M  V30 265 H 25.2926 -2.9676 1.88749 0
M  V30 266 H 25.1666 -3.7579 0.325848 0
M  V30 267 H 27.5536 -2.94144 -0.237317 0
M  V30 268 H 27.6346 -2.17068 1.35334 0
M  V30 269 H 27.2786 -4.44871 2.45056 0
M  V30 270 H 27.2086 -5.19916 0.836338 0
M  V30 271 H 29.6996 -3.6456 0.995202 0
M  V30 272 H 30.0126 -7.26609 2.63171 0
M  V30 273 H 28.3576 -6.53696 2.36023 0
M  V30 274 H 31.5486 -4.49284 1.31382 0
M  V30 275 H 31.7216 -6.14389 2.05987 0
M  V30 276 N 25.1277 -0.289203 -1.54924 0
M  V30 277 C 26.4047 0.376032 -1.91951 0
M  V30 278 C 26.7847 1.72622 -1.21511 0
M  V30 279 O 26.1327 2.25853 -0.346767 0
M  V30 280 C 26.3427 0.502378 -3.45365 0
M  V30 281 C 27.6907 0.778741 -4.17398 0
M  V30 282 O 28.7147 0.586647 -3.51336 0
M  V30 283 O 27.5737 1.14698 -5.34328 0
M  V30 284 H 24.6677 0.208167 -0.800372 0
M  V30 285 H 27.2137 -0.336394 -1.66332 0
M  V30 286 H 25.9857 -0.447255 -3.88736 0
M  V30 287 H 25.6087 1.26373 -3.76982 0
M  V30 288 N 26.6058 1.57591 -0.0167156 0
M  V30 289 C 27.5528 2.09462 0.969251 0
M  V30 290 C 28.5228 0.99381 1.33089 0
M  V30 291 O 29.7078 1.26726 1.42636 0
M  V30 292 C 26.8478 2.61622 2.25051 0
M  V30 293 C 25.9608 3.85666 1.94642 0
M  V30 294 C 25.0958 4.26266 3.16972 0
M  V30 295 C 24.1348 5.43101 2.82326 0
M  V30 296 N 23.2718 5.78915 3.97243 0
M  V30 297 H 28.1118 2.93428 0.519997 0
M  V30 298 H 25.6488 1.45044 0.245087 0
M  V30 299 H 27.6068 2.89949 2.99976 0
M  V30 300 H 26.2368 1.80505 2.67615 0
M  V30 301 H 25.2888 3.64145 1.10013 0
M  V30 302 H 26.6008 4.70678 1.65117 0
M  V30 303 H 25.7548 4.55963 4.00228 0
M  V30 304 H 24.4938 3.39996 3.49648 0
M  V30 305 H 23.4988 5.1311 1.97479 0
M  V30 306 H 24.7238 6.3106 2.50879 0
M  V30 307 H 22.6698 4.95602 4.29785 0
M  V30 308 H 22.5868 6.58539 3.71299 0
M  V30 309 H 23.8548 6.13212 4.81239 0
M  V30 310 N 28.0839 -0.256276 1.55502 0
M  V30 311 C 29.3329 -0.983486 1.76098 0
M  V30 312 C 29.6459 -1.86837 0.578896 0
M  V30 313 O 30.8519 -2.63163 0.667648 0
M  V30 314 C 29.3079 -1.79868 3.1173 0
M  V30 315 C 28.9159 -0.961648 4.37557 0
M  V30 316 C 30.6599 -2.51919 3.41668 0
M  V30 317 C 28.5669 -1.77219 5.64223 0
M  V30 318 H 27.4969 -0.370936 0.656447 0
M  V30 319 H 30.1479 -0.238492 1.81944 0
M  V30 320 H 28.5299 -2.58527 2.99966 0
M  V30 321 H 29.7039 -0.218048 4.60284 0
M  V30 322 H 28.0189 -0.354913 4.14885 0
M  V30 323 H 30.6159 -3.12998 4.33516 0
M  V30 324 H 30.9589 -3.23059 2.62562 0
M  V30 325 H 31.4919 -1.80278 3.54605 0
M  V30 326 H 28.2309 -1.10471 6.46124 0
M  V30 327 H 27.7509 -2.49132 5.45613 0
M  V30 328 H 29.4299 -2.34169 6.03137 0
M  V30 329 N 29.562 -1.4872 -0.521534 0
M  V30 330 C 30.472 -1.66569 -1.65203 0
M  V30 331 C 31.488 -0.548197 -1.65139 0
M  V30 332 O 32.664 -0.820339 -1.83936 0
M  V30 333 C 29.729 -1.70917 -3.01642 0
M  V30 334 C 28.79 -2.94356 -3.12495 0
M  V30 335 C 28.023 -2.98487 -4.42426 0
M  V30 336 O 28.246 -2.10786 -5.30024 0
M  V30 337 O 27.18 -3.90746 -4.57822 0
M  V30 338 H 31.006 -2.62298 -1.5308 0
M  V30 339 H 28.591 -1.3222 -0.695565 0
M  V30 340 H 30.473 -1.7625 -3.82771 0
M  V30 341 H 29.148 -0.783633 -3.14071 0
M  V30 342 H 28.055 -2.94552 -2.3063 0
M  V30 343 H 29.388 -3.86322 -3.04986 0
M  V30 344 N 31.0401 0.771051 -1.3745 0
M  V30 345 C 31.9881 1.90574 -1.33358 0
M  V30 346 C 32.9821 1.67936 -0.22224 0
M  V30 347 O 34.1881 1.75717 -0.390304 0
M  V30 348 H 30.5631 0.626714 -0.415612 0
M  V30 349 H 32.5341 1.91142 -2.29144 0
M  V30 350 C 31.2831 3.27845 -1.15813 0
M  V30 351 H 30.6061 3.45842 -2.00583 0
M  V30 352 H 32.0461 4.07538 -1.17 0
M  V30 353 C 30.5051 3.36625 0.136165 0
M  V30 354 O 31.0351 3.85785 1.11949 0
M  V30 355 N 29.2411 2.89997 0.187099 0
M  V30 356 H 28.7881 2.50182 -0.613753 0
M  V30 357 H 28.7461 2.96252 1.05272 0
M  V30 358 N 32.5182 1.22032 0.997298 0
M  V30 359 C 33.9342 0.979326 1.26021 0
M  V30 360 C 34.1342 -0.32972 1.98784 0
M  V30 361 O 33.1902 -1.05345 2.29475 0
M  V30 362 C 34.5032 2.17509 2.07631 0
M  V30 363 C 36.0512 2.21817 2.2083 0
M  V30 364 C 36.5262 3.40933 3.05825 0
M  V30 365 N 38.0172 3.41067 3.13412 0
M  V30 366 C 38.7522 4.29885 3.79455 0
M  V30 367 N 38.2482 5.28914 4.47462 0
M  V30 368 N 40.0412 4.17673 3.76173 0
M  V30 369 H 32.1922 2.06202 0.509352 0
M  V30 370 H 34.4552 0.90334 0.287541 0
M  V30 371 H 34.1612 3.12415 1.61524 0
M  V30 372 H 34.0352 2.17206 3.08385 0
M  V30 373 H 36.4222 1.27462 2.66153 0
M  V30 374 H 36.5032 2.2616 1.1952 0
M  V30 375 H 36.1472 4.35586 2.61203 0
M  V30 376 H 36.0772 3.33829 4.07266 0
M  V30 377 H 38.5682 2.69406 2.65007 0
M  V30 378 H 38.8812 5.92973 4.95583 0
M  V30 379 H 37.2262 5.32831 4.46224 0
M  V30 380 H 40.4172 3.39564 3.22202 0
M  V30 381 H 40.5902 4.87098 4.27363 0
M  V30 382 N 33.9963 -1.19345 1.0293 0
M  V30 383 C 34.9283 -2.22036 0.56857 0
M  V30 384 C 35.9413 -1.58865 -0.355779 0
M  V30 385 O 37.1303 -1.77851 -0.152103 0
M  V30 386 C 34.2303 -3.38363 -0.190752 0
M  V30 387 C 33.4033 -4.31118 0.738643 0
M  V30 388 C 32.4623 -5.26194 0.0246497 0
M  V30 389 O 31.4883 -5.65461 0.651354 0
M  V30 390 N 32.6903 -5.66971 -1.24594 0
M  V30 391 H 35.4553 -2.6219 1.45177 0
M  V30 392 H 33.0163 -1.34015 0.908381 0
M  V30 393 H 35.0083 -3.98981 -0.677961 0
M  V30 394 H 33.5783 -2.96994 -0.975366 0
M  V30 395 H 32.7983 -3.68276 1.40593 0
M  V30 396 H 34.0863 -4.90001 1.37029 0
M  V30 397 H 33.4843 -5.37104 -1.77583 0
M  V30 398 H 32.0413 -6.2984 -1.67764 0
M  V30 399 N 35.4744 -0.807222 -1.35358 0
M  V30 400 C 36.7024 -0.400377 -2.02989 0
M  V30 401 C 37.1174 0.988859 -1.60832 0
M  V30 402 O 36.4744 1.63729 -0.806175 0
M  V30 403 C 36.5254 -0.474867 -3.58368 0
M  V30 404 O 36.2464 -1.80933 -3.98992 0
M  V30 405 C 37.7474 -0.0609112 -4.43258 0
M  V30 406 H 34.9674 -0.162587 -0.651004 0
M  V30 407 H 37.5114 -1.09102 -1.72965 0
M  V30 408 H 35.6664 0.167534 -3.87038 0
M  V30 409 H 36.0804 -1.77256 -4.9364 0
M  V30 410 H 37.5544 -0.164145 -5.51756 0
M  V30 411 H 38.0314 0.993831 -4.27808 0
M  V30 412 H 38.6374 -0.676492 -4.19885 0
M  V30 413 N 36.9525 1.47285 -0.560781 0
M  V30 414 C 38.2015 2.01668 -0.035895 0
M  V30 415 C 38.5145 1.44021 1.32353 0
M  V30 416 O 39.7205 1.90088 1.93853 0
M  V30 417 C 38.1765 3.59897 -0.0136659 0
M  V30 418 C 37.7845 4.26536 -1.37006 0
M  V30 419 C 39.5285 4.22017 0.458425 0
M  V30 420 C 37.4355 5.76782 -1.30675 0
M  V30 421 H 36.3655 0.753938 -0.00964879 0
M  V30 422 H 39.0165 1.69243 -0.709166 0
M  V30 423 H 37.3985 3.89301 0.725325 0
M  V30 424 H 38.5725 4.0877 -2.12705 0
M  V30 425 H 36.8875 3.76419 -1.78038 0
M  V30 426 H 39.4845 5.32124 0.524247 0
M  V30 427 H 39.8275 3.89437 1.4712 0
M  V30 428 H 40.3605 3.97159 -0.225818 0
M  V30 429 H 37.0995 6.13988 -2.29564 0
M  V30 430 H 36.6195 5.96875 -0.591622 0
M  V30 431 H 38.2985 6.39063 -1.01033 0
M  V30 432 N 38.4306 0.297415 1.54768 0
M  V30 433 C 39.6556 -0.318435 2.04941 0
M  V30 434 C 40.0806 -1.4701 1.17345 0
M  V30 435 O 39.4386 -1.80436 0.176758 0
M  V30 436 C 39.4866 -0.755749 3.52592 0
M  V30 437 O 38.5906 -1.86088 3.68028 0
M  V30 438 H 37.9316 -0.062421 0.661059 0
M  V30 439 H 40.4616 0.438215 1.99852 0
M  V30 440 H 40.4716 -1.04552 3.94376 0
M  V30 441 H 39.1466 0.0867233 4.1581 0
M  V30 442 H 37.7236 -1.57193 3.38149 0
M  V30 443 N 39.9087 -1.5758 0.0250728 0
M  V30 444 C 40.8387 -2.13007 -0.956575 0
M  V30 445 C 41.8197 -1.0452 -1.342 0
M  V30 446 O 43.0047 -1.32332 -1.42133 0
M  V30 447 C 40.1347 -2.65386 -2.24026 0
M  V30 448 C 39.0887 -3.78623 -1.99571 0
M  V30 449 C 38.4147 -4.17414 -3.3417 0
M  V30 450 C 39.7147 -5.04867 -1.33814 0
M  V30 451 H 41.4087 -2.9528 -0.494991 0
M  V30 452 H 38.9547 -1.42042 -0.236651 0
M  V30 453 H 40.9077 -3.02794 -2.93076 0
M  V30 454 H 39.6317 -1.80268 -2.72343 0
M  V30 455 H 38.2907 -3.41646 -1.32941 0
M  V30 456 H 37.9387 -3.29284 -3.80238 0
M  V30 457 H 37.6387 -4.93719 -3.18615 0
M  V30 458 H 39.1627 -4.57402 -4.04495 0
M  V30 459 H 40.5767 -5.39888 -1.92857 0
M  V30 460 H 38.9737 -5.86144 -1.28669 0
M  V30 461 H 40.0437 -4.83904 -0.310561 0
M  V30 462 N 41.3868 0.248026 -1.55636 0
M  V30 463 C 42.6348 0.974295 -1.77065 0
M  V30 464 C 42.9558 1.85897 -0.588849 0
M  V30 465 O 42.2258 1.91868 0.395407 0
M  V30 466 H 40.8058 0.362733 -0.653019 0
M  V30 467 H 43.4678 0.266244 -1.93073 0
M  V30 468 H 42.5638 1.59667 -2.68166 0
M  V30 469 N 42.8649 1.48995 0.513639 0
M  V30 470 C 44.1129 1.57531 1.26604 0
M  V30 471 C 44.4339 0.258236 1.93283 0
M  V30 472 O 43.7039 -0.721502 1.8213 0
M  V30 473 H 42.2839 0.580387 0.470276 0
M  V30 474 H 44.9459 1.85552 0.596373 0
M  V30 475 H 44.0419 2.36486 2.03669 0
M  V30 476 N 44.343 -0.763751 1.37857 0
M  V30 477 C 45.583 -1.53551 1.34913 0
M  V30 478 C 45.947 -1.91895 -0.0635882 0
M  V30 479 O 47.148 -2.67916 -0.217825 0
M  V30 480 C 45.419 -2.76126 2.26912 0
M  V30 481 S 46.978 -3.66105 2.41893 0
M  V30 482 H 43.796 -0.52559 0.478828 0
M  V30 483 H 46.398 -0.897435 1.73685 0
M  V30 484 H 45.102 -2.4605 3.28463 0
M  V30 485 H 44.633 -3.44887 1.89253 0
M  V30 486 H 46.648 -4.68473 1.63545 0
M  V30 487 N 45.8211 -1.22559 -0.990812 0
M  V30 488 C 46.7311 -1.01394 -2.11557 0
M  V30 489 C 47.7471 0.0383962 -1.73958 0
M  V30 490 O 48.9231 -0.154787 -2.00804 0
M  V30 491 C 45.9881 -0.596569 -3.41529 0
M  V30 492 C 45.0491 -1.72276 -3.93217 0
M  V30 493 C 44.2821 -1.32521 -5.16985 0
M  V30 494 O 44.5051 -0.204909 -5.70032 0
M  V30 495 O 43.4391 -2.14247 -5.62478 0
M  V30 496 H 47.2651 -1.95633 -2.32296 0
M  V30 497 H 44.8501 -1.01172 -1.0993 0
M  V30 498 H 46.7321 -0.374263 -4.19735 0
M  V30 499 H 45.4071 0.316939 -3.22145 0
M  V30 500 H 44.3141 -1.99961 -3.16174 0
M  V30 501 H 45.6471 -2.61421 -4.17037 0
M  V30 502 N 47.2992 1.18797 -1.03562 0
M  V30 503 C 48.5482 1.87978 -0.731235 0
M  V30 504 C 48.8612 1.80911 0.743671 0
M  V30 505 O 50.0672 2.45407 1.16137 0
M  V30 506 C 48.5232 3.3721 -1.25768 0
M  V30 507 C 48.1312 3.52818 -2.76085 0
M  V30 508 C 49.8752 4.11825 -1.0296 0
M  V30 509 C 47.7822 4.9598 -3.22114 0
M  V30 510 H 46.7122 0.704063 -0.269835 0
M  V30 511 H 49.3632 1.34266 -1.25079 0
M  V30 512 H 47.7452 3.90359 -0.666011 0
M  V30 513 H 48.9192 3.09965 -3.40966 0
M  V30 514 H 47.2342 2.91602 -2.97249 0
M  V30 515 H 49.8312 5.17411 -1.34869 0
M  V30 516 H 50.1742 4.16287 0.0333546 0
M  V30 517 H 50.7072 3.64833 -1.58562 0
M  V30 518 H 47.4462 4.96684 -4.27768 0
M  V30 519 H 46.9662 5.39569 -2.61965 0
M  V30 520 H 48.6452 5.6467 -3.15844 0
M  V30 521 N 48.7773 0.814389 1.34928 0
M  V30 522 C 50.0073 0.41054 2.0248 0
M  V30 523 C 50.4153 -0.985625 1.61499 0
M  V30 524 O 49.7583 -1.64781 0.811976 0
M  V30 525 C 49.8203 0.423384 3.56998 0
M  V30 526 C 49.4843 1.77141 4.21272 0
M  V30 527 C 50.4813 2.73093 4.42398 0
M  V30 528 C 48.1663 2.05755 4.58225 0
M  V30 529 C 50.1603 3.95838 4.9959 0
M  V30 530 C 47.8473 3.28762 5.1513 0
M  V30 531 C 48.8453 4.23621 5.35755 0
M  V30 532 O 48.5333 5.44456 5.91458 0
M  V30 533 H 48.2653 0.163997 0.655806 0
M  V30 534 H 50.8193 1.10155 1.73364 0
M  V30 535 H 49.0493 -0.324276 3.85338 0
M  V30 536 H 50.7383 0.0407683 4.0588 0
M  V30 537 H 51.5043 2.5228 4.14222 0
M  V30 538 H 47.3833 1.32727 4.4148 0
M  V30 539 H 50.9273 4.69891 5.15605 0
M  V30 540 H 46.8243 3.49443 5.42734 0
M  V30 541 H 47.5923 5.4586 6.09901 0
M  V30 542 N 50.2554 -1.46986 0.568584 0
M  V30 543 C 51.4834 -2.0683 0.0539956 0
M  V30 544 C 51.8984 -1.41953 -1.24478 0
M  V30 545 O 51.2554 -0.519933 -1.74937 0
M  V30 546 C 51.3064 -3.61254 -0.133362 0
M  V30 547 O 51.0274 -4.237 1.11399 0
M  V30 548 C 52.5284 -4.37992 -0.683927 0
M  V30 549 H 49.7484 -0.669058 0.0510141 0
M  V30 550 H 52.2924 -1.88824 0.785234 0
M  V30 551 H 50.4474 -3.78735 -0.81477 0
M  V30 552 H 50.8614 -5.16388 0.91888 0
M  V30 553 H 52.3354 -5.46684 -0.764263 0
M  V30 554 H 52.8124 -4.05058 -1.69778 0
M  V30 555 H 53.4184 -4.25283 -0.0378494 0
M  V30 556 N 51.7335 -0.305618 -1.54608 0
M  V30 557 C 52.9815 0.301701 -1.99835 0
M  V30 558 C 53.3025 1.54054 -1.19551 0
M  V30 559 O 52.5725 1.93702 -0.292658 0
M  V30 560 H 51.1525 0.114468 -0.738178 0
M  V30 561 H 53.8145 -0.418016 -1.90364 0
M  V30 562 H 52.9105 0.570548 -3.06841 0
M  V30 563 N 53.2116 1.57565 -0.0334293 0
M  V30 564 C 54.1436 2.0739 0.975811 0
M  V30 565 C 55.1566 0.998166 1.2861 0
M  V30 566 O 56.3456 1.27426 1.25 0
M  V30 567 C 53.4456 2.4871 2.30209 0
M  V30 568 C 52.6186 3.79413 2.17634 0
M  V30 569 C 51.6776 4.07237 3.33233 0
M  V30 570 O 50.7036 4.77425 3.09927 0
M  V30 571 N 51.9056 3.5775 4.5716 0
M  V30 572 H 54.6706 2.94598 0.55066 0
M  V30 573 H 52.2316 1.61173 0.15323 0
M  V30 574 H 54.2236 2.64413 3.06378 0
M  V30 575 H 52.7936 1.66845 2.64351 0
M  V30 576 H 52.0136 3.73465 1.26165 0
M  V30 577 H 53.3016 4.65038 2.0644 0
M  V30 578 H 52.6996 3.00976 4.78989 0
M  V30 579 H 51.2566 3.78724 5.30482 0
M  V30 580 N 54.6897 -0.239769 1.55765 0
M  V30 581 C 55.6197 -1.30052 1.9393 0
M  V30 582 C 56.6007 -1.49839 0.805132 0
M  V30 583 O 57.7857 -1.62328 1.06599 0
M  V30 584 C 54.9157 -2.65391 2.2402 0
M  V30 585 C 53.8697 -2.60289 3.39755 0
M  V30 586 C 53.1957 -3.99489 3.55405 0
M  V30 587 C 54.4957 -2.16654 4.75246 0
M  V30 588 H 56.1897 -0.983573 2.82783 0
M  V30 589 H 53.7357 -0.471701 1.36055 0
M  V30 590 H 55.6887 -3.3974 2.49308 0
M  V30 591 H 54.4127 -2.98736 1.32 0
M  V30 592 H 53.0717 -1.88398 3.14487 0
M  V30 593 H 52.7197 -4.30112 2.60793 0
M  V30 594 H 52.4197 -3.96962 4.33238 0
M  V30 595 H 53.9437 -4.75528 3.83022 0
M  V30 596 H 55.3577 -2.80737 4.99859 0
M  V30 597 H 53.7547 -2.25223 5.56232 0
M  V30 598 H 54.8247 -1.11835 4.71827 0
M  V30 599 N 56.1678 -1.49265 -0.50573 0
M  V30 600 C 57.1158 -1.66065 -1.62866 0
M  V30 601 C 58.1098 -0.526636 -1.61006 0
M  V30 602 O 59.3158 -0.706126 -1.65571 0
M  V30 603 H 55.6908 -0.52356 -0.539805 0
M  V30 604 H 57.6618 -2.60329 -1.45848 0
M  V30 605 C 56.4108 -1.74008 -3.01026 0
M  V30 606 H 55.7338 -2.6064 -3.03161 0
M  V30 607 H 57.1738 -1.89798 -3.79147 0
M  V30 608 C 55.6328 -0.483868 -3.33407 0
M  V30 609 O 56.1628 0.392548 -3.99777 0
M  V30 610 N 54.3688 -0.348236 -2.88506 0
M  V30 611 H 53.9158 -1.06242 -2.34671 0
M  V30 612 H 53.8738 0.491204 -3.10539 0
M  V30 613 N 57.6459 0.756429 -1.3826 0
M  V30 614 C 58.8939 1.51248 -1.34047 0
M  V30 615 C 59.2149 1.94875 0.0698372 0
M  V30 616 O 58.4849 1.67436 1.01696 0
M  V30 617 H 57.0649 0.561018 -0.493222 0
M  V30 618 H 59.7269 0.899347 -1.7291 0
M  V30 619 H 58.8229 2.40472 -1.98947 0
M  V30 620 N 59.124 1.23083 0.984299 0
M  V30 621 C 60.352 1.08714 1.76037 0
M  V30 622 C 60.767 -0.361691 1.85303 0
M  V30 623 O 60.124 -1.25034 1.32939 0
M  V30 624 C 60.175 1.70206 3.18923 0
M  V30 625 O 59.896 3.09423 3.10144 0
M  V30 626 C 61.397 1.61227 4.12941 0
M  V30 627 H 58.617 0.380664 0.552572 0
M  V30 628 H 61.161 1.62853 1.23689 0
M  V30 629 H 59.316 1.20109 3.6831 0
M  V30 630 H 59.73 3.39188 4.00065 0
M  V30 631 H 61.204 2.08962 5.10919 0
M  V30 632 H 61.681 0.570375 4.35481 0
M  V30 633 H 62.287 2.10671 3.69456 0
M  V30 634 N 60.6021 -1.18246 1.0419 0
M  V30 635 C 61.5121 -2.25574 0.644476 0
M  V30 636 C 62.5281 -1.70845 -0.329826 0
M  V30 637 O 63.7041 -2.00554 -0.184443 0
M  V30 638 C 60.7691 -3.46697 0.014877 0
M  V30 639 C 59.8301 -4.16554 1.03834 0
M  V30 640 C 59.0631 -5.31894 0.438692 0
M  V30 641 O 59.2861 -5.65385 -0.754752 0
M  V30 642 O 58.2201 -5.90459 1.168 0
M  V30 643 H 62.0461 -2.61836 1.53869 0
M  V30 644 H 59.6311 -1.25352 0.812854 0
M  V30 645 H 61.5131 -4.20062 -0.335538 0
M  V30 646 H 60.1881 -3.12255 -0.853138 0
M  V30 647 H 59.0951 -3.45251 1.44057 0
M  V30 648 H 60.4281 -4.54998 1.87716 0
M  V30 649 N 62.0802 -0.821533 -1.34494 0
M  V30 650 C 63.3262 -0.409552 -1.98622 0
M  V30 651 C 63.6592 1.0244 -1.64984 0
M  V30 652 O 62.9342 1.71325 -0.920758 0
M  V30 653 C 63.2172 -0.610458 -3.54888 0
M  V30 654 C 63.0702 -2.09043 -3.98273 0
M  V30 655 C 64.3892 -0.0455379 -4.40076 0
M  V30 656 H 61.5082 -0.15028 -0.721516 0
M  V30 657 H 64.1502 -1.03384 -1.59411 0
M  V30 658 H 62.3002 -0.079044 -3.8842 0
M  V30 659 H 63.9722 -2.68537 -3.75081 0
M  V30 660 H 62.2152 -2.58139 -3.48635 0
M  V30 661 H 62.8862 -2.18182 -5.07051 0
M  V30 662 H 65.3622 -0.499557 -4.1309 0
M  V30 663 H 64.2382 -0.215922 -5.48475 0
M  V30 664 H 64.4992 1.04939 -4.29465 0
M  V30 665 N 63.5583 1.46682 -0.576371 0
M  V30 666 C 64.5213 2.28707 0.150239 0
M  V30 667 C 65.5213 1.38035 0.824794 0
M  V30 668 O 66.7113 1.60476 0.677719 0
M  V30 669 C 63.8433 3.18248 1.22192 0
M  V30 670 H 65.0363 2.94423 -0.570521 0
M  V30 671 H 62.5893 1.52688 -0.334078 0
M  V30 672 H 63.3243 2.57265 1.97447 0
M  V30 673 H 63.1093 3.85 0.742812 0
M  V30 674 H 64.5993 3.80001 1.73172 0
M  V30 675 N 65.0364 0.313813 1.54444 0
M  V30 676 C 65.9664 -0.549454 2.26943 0
M  V30 677 C 66.9474 -1.12741 1.27372 0
M  V30 678 O 68.1324 -1.15436 1.56167 0
M  V30 679 C 65.2624 -1.71523 3.01989 0
M  V30 680 C 64.2164 -1.26703 4.08816 0
M  V30 681 C 63.5424 -2.51898 4.71647 0
M  V30 682 C 64.8424 -0.388962 5.2085 0
M  V30 683 H 66.5364 0.0552661 2.99349 0
M  V30 684 H 64.0824 0.0280207 1.43973 0
M  V30 685 H 66.0354 -2.32535 3.51433 0
M  V30 686 H 64.7594 -2.34639 2.27183 0
M  V30 687 H 63.4184 -0.679896 3.6024 0
M  V30 688 H 63.0664 -3.13356 3.93468 0
M  V30 689 H 62.7664 -2.22605 5.43802 0
M  V30 690 H 64.2904 -3.1369 5.23861 0
M  V30 691 H 65.7044 -0.905107 5.6611 0
M  V30 692 H 64.1014 -0.18924 5.99802 0
M  V30 693 H 65.1714 0.582699 4.81386 0
M  V30 694 N 66.5145 -1.57545 0.0417849 0
M  V30 695 C 67.4445 -2.14009 -0.933929 0
M  V30 696 C 68.4255 -1.05938 -1.33083 0
M  V30 697 O 69.6105 -1.33833 -1.40721 0
M  V30 698 C 66.7405 -2.67747 -2.21199 0
M  V30 699 C 65.6945 -3.80718 -1.95544 0
M  V30 700 C 65.0205 -4.20935 -3.29724 0
M  V30 701 C 66.3205 -5.06258 -1.28452 0
M  V30 702 H 68.0145 -2.95788 -0.463645 0
M  V30 703 H 65.5605 -1.42285 -0.221573 0
M  V30 704 H 67.5135 -3.05886 -2.89848 0
M  V30 705 H 66.2375 -1.83147 -2.70416 0
M  V30 706 H 64.8965 -3.43037 -1.2931 0
M  V30 707 H 64.5445 -3.33298 -3.76724 0
M  V30 708 H 64.2445 -4.9707 -3.13361 0
M  V30 709 H 65.7685 -4.61666 -3.9962 0
M  V30 710 H 67.1825 -5.41903 -1.8712 0
M  V30 711 H 65.5795 -5.87475 -1.22445 0
M  V30 712 H 66.6495 -4.84207 -0.259219 0
M  V30 713 N 67.9926 0.231505 -1.5589 0
M  V30 714 C 68.9396 1.28682 -1.91598 0
M  V30 715 C 69.9096 1.47071 -0.771974 0
M  V30 716 O 71.0946 1.60802 -1.027 0
M  V30 717 C 68.2346 2.6342 -2.22944 0
M  V30 718 C 67.3476 2.52912 -3.50228 0
M  V30 719 C 66.4826 3.80106 -3.7107 0
M  V30 720 C 65.5216 3.64279 -4.91902 0
M  V30 721 N 64.6586 4.834 -5.09184 0
M  V30 722 H 69.4986 0.975305 -2.81588 0
M  V30 723 H 67.0356 0.470299 -1.39379 0
M  V30 724 H 68.9936 3.41869 -2.39126 0
M  V30 725 H 67.6236 2.92687 -1.36139 0
M  V30 726 H 66.6756 1.6595 -3.42294 0
M  V30 727 H 67.9876 2.37133 -4.38827 0
M  V30 728 H 67.1416 4.66999 -3.87295 0
M  V30 729 H 65.8806 3.98799 -2.80733 0
M  V30 730 H 64.8856 2.7577 -4.75637 0
M  V30 731 H 66.1106 3.47067 -5.83714 0
M  V30 732 H 64.0566 5.02425 -4.21788 0
M  V30 733 H 63.9736 4.70311 -5.91898 0
M  V30 734 H 65.2416 5.71747 -5.29835 0
M  V30 735 N 69.4707 1.49531 0.497807 0
M  V30 736 C 70.6957 1.63159 1.28039 0
M  V30 737 C 71.1207 0.30418 1.85624 0
M  V30 738 O 70.4787 -0.728618 1.66015 0
M  V30 739 C 70.5267 2.70537 2.38416 0
M  V30 740 O 69.6307 2.29931 3.42353 0
M  V30 741 H 68.9717 0.546001 0.377861 0
M  V30 742 H 71.5017 1.9574 0.59558 0
M  V30 743 H 71.5117 2.92802 2.84132 0
M  V30 744 H 70.1867 3.6689 1.95869 0
M  V30 745 H 68.7637 2.18009 3.02533 0
M  V30 746 N 70.9488 -0.749086 1.3866 0
M  V30 747 C 72.1968 -1.50535 1.34847 0
M  V30 748 C 72.5178 -1.94909 -0.0595016 0
M  V30 749 O 71.7878 -1.67973 -1.00806 0
M  V30 750 H 70.3678 -0.558395 0.49619 0
M  V30 751 H 73.0298 -0.890165 1.73384 0
M  V30 752 H 72.1258 -2.39413 2.00219 0
M  V30 753 N 72.4269 -1.23603 -0.977757 0
M  V30 754 C 73.6759 -1.06377 -1.71368 0
M  V30 755 C 73.9889 0.399062 -1.91486 0
M  V30 756 O 75.1949 0.691312 -2.62551 0
M  V30 757 C 73.6509 -1.85512 -3.08404 0
M  V30 758 C 73.2589 -3.36141 -2.96164 0
M  V30 759 C 75.0029 -1.76783 -3.85938 0
M  V30 760 C 72.9099 -4.07659 -4.28449 0
M  V30 761 H 71.8399 -0.394452 -0.642591 0
M  V30 762 H 74.4909 -1.47594 -1.09034 0
M  V30 763 H 72.8729 -1.37103 -3.71509 0
M  V30 764 H 74.0469 -3.92056 -2.42133 0
M  V30 765 H 72.3619 -3.45712 -2.32104 0
M  V30 766 H 74.9589 -2.27526 -4.83876 0
M  V30 767 H 75.3019 -0.731116 -4.0983 0
M  V30 768 H 75.8349 -2.22818 -3.2954 0
M  V30 769 H 72.5739 -5.11648 -4.09752 0
M  V30 770 H 72.0939 -3.5653 -4.82334 0
M  V30 771 H 73.7729 -4.141 -4.97122 0
M  V30 772 N 73.905 1.17692 -1.04816 0
M  V30 773 C 75.153 1.87488 -0.754497 0
M  V30 774 C 75.474 1.81205 0.720407 0
M  V30 775 O 74.744 1.23544 1.52032 0
M  V30 776 H 73.324 0.694101 -0.276102 0
M  V30 777 H 75.986 1.42793 -1.32651 0
M  V30 778 H 75.082 2.93328 -1.06606 0
M  V30 779 N 75.3831 0.828654 1.34056 0
M  V30 780 C 76.3301 0.252567 2.29414 0
M  V30 781 C 77.3001 -0.62588 1.53857 0
M  V30 782 O 78.4851 -0.566312 1.82202 0
M  V30 783 C 75.6251 -0.574831 3.40279 0
M  V30 784 C 74.7381 0.326499 4.30764 0
M  V30 785 C 73.8731 -0.511016 5.28736 0
M  V30 786 C 72.9121 0.389342 6.1086 0
M  V30 787 N 72.0491 -0.409439 7.00905 0
M  V30 788 H 76.8891 1.07108 2.78086 0
M  V30 789 H 74.4261 0.539677 1.36843 0
M  V30 790 H 76.3841 -1.06992 4.03248 0
M  V30 791 H 75.0141 -1.35841 2.92826 0
M  V30 792 H 74.0661 0.939837 3.68607 0
M  V30 793 H 75.3781 1.01857 4.88289 0
M  V30 794 H 74.5321 -1.07035 5.97184 0
M  V30 795 H 73.2711 -1.23657 4.71763 0
M  V30 796 H 72.2761 0.960769 5.4134 0
M  V30 797 H 73.5011 1.1131 6.69916 0
M  V30 798 H 71.4471 -1.11856 6.46393 0
M  V30 799 H 71.3641 0.224126 7.55668 0
M  V30 800 H 72.6321 -0.951336 7.73673 0
M  V30 801 N 76.8612 -1.46375 0.584142 0
M  V30 802 C 78.1072 -2.02678 0.0703716 0
M  V30 803 C 78.4402 -1.4545 -1.28678 0
M  V30 804 O 77.7152 -0.62014 -1.84349 0
M  V30 805 C 77.9982 -3.60099 0.00614674 0
M  V30 806 C 77.8512 -4.27709 1.3923 0
M  V30 807 C 79.1702 -4.34598 -0.693742 0
M  V30 808 H 76.2892 -0.736504 0.027047 0
M  V30 809 H 78.9312 -1.74501 0.751615 0
M  V30 810 H 77.0812 -3.84236 -0.574009 0
M  V30 811 H 78.7532 -4.14832 2.01773 0
M  V30 812 H 76.9962 -3.87016 1.95962 0
M  V30 813 H 77.6672 -5.36478 1.29982 0
M  V30 814 H 80.1432 -4.15615 -0.200869 0
M  V30 815 H 79.0192 -5.44318 -0.707714 0
M  V30 816 H 79.2802 -4.05759 -1.75533 0
M  V30 817 N 78.3393 -0.321999 -1.54275 0
M  V30 818 C 79.3023 0.531975 -2.22941 0
M  V30 819 C 80.3023 1.04478 -1.22234 0
M  V30 820 O 81.4923 0.937452 -1.46825 0
M  V30 821 C 78.6243 1.73874 -2.93224 0
M  V30 822 H 79.8173 -0.0682612 -2.99822 0
M  V30 823 H 77.3703 -0.0730644 -1.56129 0
M  V30 824 H 78.1053 2.37825 -2.20476 0
M  V30 825 H 77.8903 1.37847 -3.6707 0
M  V30 826 H 79.3803 2.34496 -3.45545 0
M  V30 827 N 79.8174 1.5752 -0.0501392 0
M  V30 828 C 80.7804 2.1037 0.909786 0
M  V30 829 C 81.7804 1.02308 1.24056 0
M  V30 830 O 82.9704 1.28385 1.17741 0
M  V30 831 C 80.1024 2.58708 2.21998 0
M  V30 832 H 81.2954 2.96479 0.451665 0
M  V30 833 H 78.8484 1.55038 0.198248 0
M  V30 834 H 79.5834 1.75989 2.72394 0
M  V30 835 H 79.3684 3.37675 1.99295 0
M  V30 836 H 80.8584 2.99747 2.9076 0
M  V30 837 N 81.2955 -0.223234 1.56011 0
M  V30 838 C 82.2585 -1.26014 1.9145 0
M  V30 839 C 83.2585 -1.3989 0.792937 0
M  V30 840 O 84.4485 -1.38184 1.0607 0
M  V30 841 C 81.5805 -2.63422 2.16383 0
M  V30 842 H 82.7735 -0.95796 2.84189 0
M  V30 843 H 80.3265 -0.463576 1.49267 0
M  V30 844 H 81.0615 -2.98741 1.2619 0
M  V30 845 H 80.8465 -2.54728 2.98088 0
M  V30 846 H 82.3365 -3.38249 2.44903 0
M  V30 847 N 82.7736 -1.49793 -0.48987 0
M  V30 848 C 83.7036 -1.70201 -1.59856 0
M  V30 849 C 84.6846 -0.55076 -1.60937 0
M  V30 850 O 85.8696 -0.787841 -1.77501 0
M  V30 851 C 82.9996 -1.77882 -2.98287 0
M  V30 852 C 81.9536 -2.92907 -3.12073 0
M  V30 853 C 81.2796 -2.85712 -4.51965 0
M  V30 854 C 82.5796 -4.3369 -2.91051 0
M  V30 855 H 84.2736 -2.63025 -1.43032 0
M  V30 856 H 81.8196 -1.26574 -0.686664 0
M  V30 857 H 83.7726 -1.90744 -3.75759 0
M  V30 858 H 82.4966 -0.816653 -3.16225 0
M  V30 859 H 81.1556 -2.79665 -2.37029 0
M  V30 860 H 80.8036 -1.8738 -4.66795 0
M  V30 861 H 80.5036 -3.62921 -4.62128 0
M  V30 862 H 82.0276 -3.00598 -5.31482 0
M  V30 863 H 83.4416 -4.47555 -3.58284 0
M  V30 864 H 81.8386 -5.12205 -3.12675 0
M  V30 865 H 82.9086 -4.47362 -1.87071 0
M  V30 866 N 84.2517 0.741722 -1.39055 0
M  V30 867 C 85.4997 1.49818 -1.35643 0
M  V30 868 C 85.8207 1.94938 0.0491642 0
M  V30 869 O 85.0907 1.68505 0.999141 0
M  V30 870 H 83.6707 0.555755 -0.499144 0
M  V30 871 H 86.3327 0.880957 -1.73854 0
M  V30 872 H 85.4287 2.38348 -2.01486 0
M  V30 873 N 85.7298 1.2412 0.971189 0
M  V30 874 C 86.6928 1.03156 2.04674 0
M  V30 875 C 87.6928 -0.00990322 1.60797 0
M  V30 876 O 88.8828 0.230729 1.72665 0
M  V30 877 C 86.0148 0.562765 3.36223 0
M  V30 878 H 87.2078 1.98614 2.24705 0
M  V30 879 H 84.7608 1.06293 1.14593 0
M  V30 880 H 85.4958 -0.395176 3.21883 0
M  V30 881 H 85.2808 1.31441 3.69413 0
M  V30 882 H 86.7708 0.437015 4.15307 0
M  V30 883 N 87.2079 -1.17134 1.05439 0
M  V30 884 C 88.4359 -1.91372 0.786414 0
M  V30 885 C 88.8509 -1.76955 -0.658202 0
M  V30 886 O 88.2079 -1.10838 -1.44987 0
M  V30 887 C 88.2589 -3.42356 1.1608 0
M  V30 888 O 87.9799 -3.56332 2.54871 0
M  V30 889 C 89.4809 -4.33663 0.919322 0
M  V30 890 H 86.7009 -0.607118 0.285743 0
M  V30 891 H 89.2449 -1.48525 1.40572 0
M  V30 892 H 87.3999 -3.82939 0.586191 0
M  V30 893 H 87.8139 -4.49896 2.69618 0
M  V30 894 H 89.2879 -5.38099 1.231 0
M  V30 895 H 89.7649 -4.38959 -0.145359 0
M  V30 896 H 90.3709 -3.98796 1.47789 0
M  V30 897 N 88.686 -0.835752 -1.33615 0
M  V30 898 C 89.616 -0.281739 -2.31794 0
M  V30 899 C 90.597 0.608833 -1.58831 0
M  V30 900 O 91.782 0.533035 -1.86741 0
M  V30 901 C 88.912 0.546612 -3.42971 0
M  V30 902 C 87.866 -0.247904 -4.27281 0
M  V30 903 C 87.192 0.704001 -5.30045 0
M  V30 904 C 88.492 -1.46324 -5.01385 0
M  V30 905 H 90.186 -1.10206 -2.78379 0
M  V30 906 H 87.732 -0.531388 -1.33837 0
M  V30 907 H 89.685 0.944467 -4.1068 0
M  V30 908 H 88.409 1.40011 -2.95067 0
M  V30 909 H 87.068 -0.627281 -3.61194 0
M  V30 910 H 86.716 1.55381 -4.78399 0
M  V30 911 H 86.416 0.176524 -5.87335 0
M  V30 912 H 87.94 1.09944 -6.0062 0
M  V30 913 H 89.354 -1.13871 -5.61877 0
M  V30 914 H 87.751 -1.92728 -5.6831 0
M  V30 915 H 88.821 -2.23467 -4.30338 0
M  V30 916 N 90.1641 1.46063 -0.591896 0
M  V30 917 C 91.0941 2.33172 0.123673 0
M  V30 918 C 92.0751 1.45897 0.87453 0
M  V30 919 O 93.2601 1.74698 0.848181 0
M  V30 920 C 90.3901 3.28336 1.13194 0
M  V30 921 C 89.3441 4.25124 0.495324 0
M  V30 922 C 88.6701 5.09863 1.61071 0
M  V30 923 C 89.9701 5.19143 -0.573425 0
M  V30 924 H 91.6641 2.93252 -0.603646 0
M  V30 925 H 89.2101 1.41014 -0.291741 0
M  V30 926 H 91.1631 3.88137 1.64097 0
M  V30 927 H 89.8871 2.66383 1.88965 0
M  V30 928 H 88.5461 3.66599 0.00729452 0
M  V30 929 H 88.1941 4.44288 2.35832 0
M  V30 930 H 87.8941 5.75417 1.19035 0
M  V30 931 H 89.4181 5.72529 2.12233 0
M  V30 932 H 90.8321 5.73106 -0.1491 0
M  V30 933 H 89.2291 5.93089 -0.914636 0
M  V30 934 H 90.2991 4.62519 -1.45617 0
M  V30 935 N 91.6422 0.330177 1.54103 0
M  V30 936 C 92.5722 -0.525353 2.27513 0
M  V30 937 C 93.5532 -1.11383 1.2856 0
M  V30 938 O 94.7382 -1.13773 1.57383 0
M  V30 939 C 91.8682 -1.6831 3.03791 0
M  V30 940 C 90.8222 -1.2236 4.10137 0
M  V30 941 C 90.1482 -2.46882 4.74293 0
M  V30 942 C 91.4482 -0.333697 5.21233 0
M  V30 943 H 93.1422 0.087013 2.99274 0
M  V30 944 H 90.6882 0.0432893 1.43935 0
M  V30 945 H 92.6412 -2.28795 3.5388 0
M  V30 946 H 91.3652 -2.32216 2.29659 0
M  V30 947 H 90.0242 -0.64165 3.60941 0
M  V30 948 H 89.6722 -3.09165 3.96769 0
M  V30 949 H 89.3722 -2.16825 5.46133 0
M  V30 950 H 90.8962 -3.08117 5.27159 0
M  V30 951 H 92.3102 -0.845013 5.67038 0
M  V30 952 H 90.7072 -0.125612 5.99969 0
M  V30 953 H 91.7772 0.633724 4.80741 0
M  V30 954 N 93.1203 -1.57491 0.0584922 0
M  V30 955 C 94.0303 -2.15448 -0.928414 0
M  V30 956 C 95.0463 -1.11416 -1.3365 0
M  V30 957 O 96.2223 -1.4362 -1.41193 0
M  V30 958 C 93.2873 -2.69393 -2.18239 0
M  V30 959 C 92.3483 -3.88249 -1.83196 0
M  V30 960 C 91.5813 -4.39613 -3.02616 0
M  V30 961 O 91.8043 -3.90023 -4.16219 0
M  V30 962 O 90.7383 -5.31111 -2.83204 0
M  V30 963 H 94.5643 -3.00112 -0.465483 0
M  V30 964 H 92.1493 -1.48499 -0.163826 0
M  V30 965 H 94.0313 -3.04026 -2.91798 0
M  V30 966 H 92.7063 -1.87796 -2.63656 0
M  V30 967 H 91.6133 -3.58492 -1.06931 0
M  V30 968 H 92.9463 -4.71098 -1.42573 0
M  V30 969 N 94.5984 0.214957 -1.56127 0
M  V30 970 C 95.5484 1.27006 -1.8935 0
M  V30 971 C 96.5324 1.41969 -0.757202 0
M  V30 972 O 97.7244 1.44673 -1.01973 0
M  V30 973 C 94.8534 2.61911 -2.2194 0
M  V30 974 C 93.9394 2.50822 -3.41978 0
M  V30 975 N 94.3304 2.09391 -4.60423 0
M  V30 976 C 92.6284 2.81765 -3.45723 0
M  V30 977 C 93.3294 2.09712 -5.42582 0
M  V30 978 N 92.3054 2.50454 -4.82466 0
M  V30 979 H 96.1074 0.940734 -2.78437 0
M  V30 980 H 93.6214 0.423492 -1.56781 0
M  V30 981 H 95.6184 3.38096 -2.43919 0
M  V30 982 H 94.2784 2.95684 -1.34169 0
M  V30 983 H 95.2894 1.80416 -4.85459 0
M  V30 984 H 91.9664 3.19865 -2.68314 0
M  V30 985 H 93.3564 1.79748 -6.4741 0
M  V30 986 N 96.0765 1.50051 0.48192 0
M  V30 987 C 97.3165 1.62128 1.24474 0
M  V30 988 C 97.6805 0.309742 1.89485 0
M  V30 989 O 98.8815 0.305854 2.67054 0
M  V30 990 C 97.1525 2.76151 2.26882 0
M  V30 991 S 98.7115 3.08297 3.12247 0
M  V30 992 H 95.5295 0.571661 0.422759 0
M  V30 993 H 98.1315 1.87791 0.54359 0
M  V30 994 H 96.8355 3.69942 1.77683 0
M  V30 995 H 96.3665 2.52541 3.0164 0
M  V30 996 H 98.3815 2.51287 4.27866 0
M  V30 997 N 97.5546 -0.734337 1.39446 0
M  V30 998 C 98.5016 -1.84835 1.38219 0
M  V30 999 C 99.4716 -1.64331 0.24179 0
M  V30 1000 O 100.657 -1.85728 0.437002 0
M  V30 1001 C 97.7966 -3.22355 1.23212 0
M  V30 1002 C 96.9096 -3.5456 2.46801 0
M  V30 1003 C 96.0446 -4.81485 2.24377 0
M  V30 1004 C 95.0836 -5.06536 3.43639 0
M  V30 1005 N 94.2206 -6.24665 3.20528 0
M  V30 1006 H 99.0606 -1.85219 2.33448 0
M  V30 1007 H 96.5976 -0.905039 1.15963 0
M  V30 1008 H 98.5556 -4.0174 1.12522 0
M  V30 1009 H 97.1856 -3.21248 0.316121 0
M  V30 1010 H 96.2376 -2.69872 2.68092 0
M  V30 1011 H 97.5496 -3.6899 3.3563 0
M  V30 1012 H 96.7036 -5.68852 2.10933 0
M  V30 1013 H 95.4426 -4.6923 1.32944 0
M  V30 1014 H 94.4476 -4.17632 3.5758 0
M  V30 1015 H 95.6726 -5.20676 4.35974 0
M  V30 1016 H 93.6186 -6.13696 2.3176 0
M  V30 1017 H 93.5356 -6.39685 4.02913 0
M  V30 1018 H 94.8036 -7.14868 3.10779 0
M  V30 1019 N 99.0327 -1.24633 -0.964593 0
M  V30 1020 C 100.444 -1.08045 -1.5226 0
M  V30 1021 C 100.795 0.347116 -1.93105 0
M  V30 1022 O 99.9197 1.23588 -1.77637 0
M  V30 1023 C 100.515 -1.95514 -2.76695 0
M  V30 1024 C 99.0737 -1.8314 -3.28841 0
M  V30 1025 C 98.2207 -1.90262 -2.01732 0
M  V30 1026 H 101.172 -1.38064 -0.782553 0
M  V30 1027 H 101.193 -1.48925 -3.50145 0
M  V30 1028 H 100.705 -2.99407 -2.46936 0
M  V30 1029 H 98.8057 -0.82092 -3.63444 0
M  V30 1030 H 98.9187 -2.67406 -3.97531 0
M  V30 1031 H 97.2827 -1.34027 -2.16584 0
M  V30 1032 H 98.0657 -2.9574 -1.74334 0
M  V30 1033 N 100.511 1.16574 -1.06058 0
M  V30 1034 C 101.788 1.83048 -0.689416 0
M  V30 1035 C 102.168 1.94122 0.829443 0
M  V30 1036 O 101.516 1.48249 1.7388 0
M  V30 1037 C 101.726 3.20186 -1.38859 0
M  V30 1038 C 103.074 3.95989 -1.53226 0
M  V30 1039 O 104.098 3.29696 -1.3483 0
M  V30 1040 O 102.957 5.14813 -1.83384 0
M  V30 1041 H 100.051 0.790258 -0.243764 0
M  V30 1042 H 102.597 1.23797 -1.16071 0
M  V30 1043 H 101.369 3.07146 -2.4244 0
M  V30 1044 H 100.992 3.87112 -0.907216 0
M  V30 1045 N 101.989 0.842826 1.3317 0
M  V30 1046 C 103.235 0.441099 1.97945 0
M  V30 1047 C 103.568 -0.998024 1.66593 0
M  V30 1048 O 102.843 -1.69839 0.947898 0
M  V30 1049 C 103.126 0.666841 3.53872 0
M  V30 1050 C 102.979 2.15352 3.94897 0
M  V30 1051 C 104.298 0.115544 4.39948 0
M  V30 1052 H 101.417 0.161739 0.719034 0
M  V30 1053 H 104.059 1.05907 1.57746 0
M  V30 1054 H 102.209 0.140828 3.88245 0
M  V30 1055 H 103.881 2.7447 3.70761 0
M  V30 1056 H 102.124 2.63653 3.44484 0
M  V30 1057 H 102.795 2.26221 5.03516 0
M  V30 1058 H 105.271 0.565213 4.12243 0
M  V30 1059 H 104.147 0.303152 5.48062 0
M  V30 1060 H 104.408 -0.980935 4.3108 0
M  V30 1061 N 103.467 -1.45747 0.599634 0
M  V30 1062 C 104.716 -2.01502 0.0893511 0
M  V30 1063 C 105.029 -1.4748 -1.28488 0
M  V30 1064 O 106.235 -1.95161 -1.88745 0
M  V30 1065 C 104.691 -3.59735 0.109082 0
M  V30 1066 C 104.299 -4.22754 1.48267 0
M  V30 1067 C 106.043 -4.23085 -0.346374 0
M  V30 1068 C 103.95 -5.73115 1.45921 0
M  V30 1069 H 102.88 -0.753417 0.0296347 0
M  V30 1070 H 105.531 -1.67303 0.753788 0
M  V30 1071 H 103.913 -3.91087 -0.621854 0
M  V30 1072 H 105.087 -4.02987 2.23468 0
M  V30 1073 H 103.402 -3.71567 1.87955 0
M  V30 1074 H 105.999 -5.33327 -0.38298 0
M  V30 1075 H 106.342 -3.93201 -1.36743 0
M  V30 1076 H 106.875 -3.9642 0.331038 0
M  V30 1077 H 103.614 -6.07685 2.45762 0
M  V30 1078 H 103.134 -5.95097 0.749665 0
M  V30 1079 H 104.813 -6.3616 1.17941 0
M  V30 1080 N 104.945 -0.338344 -1.53925 0
M  V30 1081 C 106.194 0.260732 -2.00008 0
M  V30 1082 C 106.507 1.52073 -1.23017 0
M  V30 1083 O 107.713 2.19672 -1.5955 0
M  V30 1084 C 106.169 0.51515 -3.56194 0
M  V30 1085 C 105.777 -0.728645 -4.42035 0
M  V30 1086 C 107.521 1.07337 -4.10706 0
M  V30 1087 C 105.428 -0.445315 -5.89721 0
M  V30 1088 H 104.358 0.101205 -0.747177 0
M  V30 1089 H 107.009 -0.452866 -1.77824 0
M  V30 1090 H 105.391 1.28932 -3.74423 0
M  V30 1091 H 106.565 -1.50352 -4.35581 0
M  V30 1092 H 104.88 -1.20813 -3.98489 0
M  V30 1093 H 107.477 1.30022 -5.18651 0
M  V30 1094 H 107.82 2.0273 -3.63602 0
M  V30 1095 H 108.353 0.360034 -3.96167 0
M  V30 1096 H 105.092 -1.36883 -6.41049 0
M  V30 1097 H 104.612 0.291569 -5.99091 0
M  V30 1098 H 106.291 -0.0606218 -6.46972 0
M  V30 1099 N 106.423 1.57458 -0.0668435 0
M  V30 1100 C 107.371 2.13639 0.919851 0
M  V30 1101 C 108.365 1.07204 1.31163 0
M  V30 1102 O 109.571 1.25591 1.28945 0
M  V30 1103 H 105.946 0.683048 0.314562 0
M  V30 1104 H 107.917 2.95415 0.421047 0
M  V30 1105 C 106.666 2.70892 2.17975 0
M  V30 1106 H 105.989 3.5246 1.88711 0
M  V30 1107 H 107.429 3.13803 2.85138 0
M  V30 1108 C 105.888 1.65414 2.93496 0
M  V30 1109 O 106.418 1.07619 3.87015 0
M  V30 1110 N 104.624 1.36564 2.56512 0
M  V30 1111 H 104.171 1.83751 1.80536 0
M  V30 1112 H 104.129 0.66223 3.07347 0
M  V30 1113 N 107.901 -0.206675 1.56239 0
M  V30 1114 C 109.129 -0.945345 1.8404 0
M  V30 1115 C 109.544 -1.77336 0.647885 0
M  V30 1116 O 108.901 -1.78425 -0.383511 0
M  V30 1117 C 108.952 -1.8509 3.10522 0
M  V30 1118 O 108.673 -1.05634 4.25174 0
M  V30 1119 C 110.174 -2.70222 3.51418 0
M  V30 1120 H 107.394 -0.276372 0.61144 0
M  V30 1121 H 109.938 -0.217417 2.03341 0
M  V30 1122 H 108.093 -2.53259 2.93153 0
M  V30 1123 H 108.507 -1.67238 4.97124 0
M  V30 1124 H 109.981 -3.29438 4.42916 0
M  V30 1125 H 110.458 -3.43358 2.73864 0
M  V30 1126 H 111.064 -2.07443 3.71278 0
M  V30 1127 N 109.379 -1.50304 -0.473955 0
M  V30 1128 C 110.627 -1.60832 -1.22382 0
M  V30 1129 C 110.948 -0.30939 -1.9253 0
M  V30 1130 O 110.218 0.67296 -1.83978 0
M  V30 1131 H 108.798 -0.592652 -0.454723 0
M  V30 1132 H 111.46 -1.87068 -0.546968 0
M  V30 1133 H 110.556 -2.41803 -1.97327 0
M  V30 1134 N 110.857 0.726932 -1.39834 0
M  V30 1135 C 112.082 1.52121 -1.40976 0
M  V30 1136 C 112.507 1.88098 -0.00826029 0
M  V30 1137 O 111.865 1.52479 0.980807 0
M  V30 1138 C 111.913 2.78021 -2.29644 0
M  V30 1139 O 111.017 3.74272 -1.73188 0
M  V30 1140 H 110.358 0.45908 -0.479731 0
M  V30 1141 H 112.888 0.896207 -1.83927 0
M  V30 1142 H 112.898 3.26671 -2.44438 0
M  V30 1143 H 111.573 2.51169 -3.31492 0
M  V30 1144 H 110.15 3.33073 -1.6768 0
M  V30 1145 N 112.336 1.25143 0.95797 0
M  V30 1146 C 113.299 1.05321 2.03569 0
M  V30 1147 C 114.299 0.007152 1.60798 0
M  V30 1148 O 115.489 0.24903 1.72411 0
M  V30 1149 C 112.621 0.598394 3.35607 0
M  V30 1150 H 113.814 2.00986 2.22586 0
M  V30 1151 H 111.367 1.07502 1.13459 0
M  V30 1152 H 112.102 -0.361014 3.22284 0
M  V30 1153 H 111.887 1.35351 3.67998 0
M  V30 1154 H 113.377 0.48104 4.1482 0
M  V30 1155 N 113.814 -1.1601 1.06675 0
M  V30 1156 C 115.062 -1.86264 0.784229 0
M  V30 1157 C 115.383 -1.82328 -0.691488 0
M  V30 1158 O 114.653 -1.25947 -1.50047 0
M  V30 1159 H 113.233 -0.689621 0.28711 0
M  V30 1160 H 115.895 -1.40664 1.34906 0
M  V30 1161 H 114.991 -2.91595 1.11259 0
M  V30 1162 N 115.292 -0.849877 -1.32721 0
M  V30 1163 C 116.54 -0.450032 -1.97026 0
M  V30 1164 C 116.861 0.996604 -1.67609 0
M  V30 1165 O 116.131 1.6958 -0.980786 0
M  V30 1166 H 114.711 -0.163426 -0.728904 0
M  V30 1167 H 117.373 -1.08526 -1.6189 0
M  V30 1168 H 116.469 -0.591146 -3.0645 0
M  V30 1169 N 116.77 1.45427 -0.607355 0
M  V30 1170 C 117.7 2.3329 0.0989352 0
M  V30 1171 C 118.681 1.46816 0.859007 0
M  V30 1172 O 119.866 1.75588 0.829604 0
M  V30 1173 C 116.996 3.29518 1.09705 0
M  V30 1174 C 115.95 4.25626 0.450206 0
M  V30 1175 C 115.276 5.11542 1.55655 0
M  V30 1176 C 116.576 5.18505 -0.628455 0
M  V30 1177 H 118.27 2.92595 -0.634716 0
M  V30 1178 H 115.816 1.40696 -0.306681 0
M  V30 1179 H 117.769 3.89855 1.59971 0
M  V30 1180 H 116.493 2.68372 1.86129 0
M  V30 1181 H 115.152 3.66586 -0.0315886 0
M  V30 1182 H 114.8 4.46765 2.31107 0
M  V30 1183 H 114.5 5.76647 1.12925 0
M  V30 1184 H 116.024 5.74748 2.06148 0
M  V30 1185 H 117.438 5.72916 -0.209877 0
M  V30 1186 H 115.835 5.92085 -0.977489 0
M  V30 1187 H 116.905 4.60948 -1.50514 0
M  V30 1188 N 118.248 0.346503 1.53744 0
M  V30 1189 C 119.211 -0.496439 2.23759 0
M  V30 1190 C 120.211 -1.0252 1.2388 0
M  V30 1191 O 121.401 -0.913974 1.48297 0
M  V30 1192 C 118.533 -1.69187 2.95954 0
M  V30 1193 H 119.726 0.115952 2.99676 0
M  V30 1194 H 117.279 0.0978939 1.55993 0
M  V30 1195 H 118.014 -2.34288 2.24231 0
M  V30 1196 H 117.799 -1.31989 3.69217 0
M  V30 1197 H 119.289 -2.28969 3.49232 0
M  V30 1198 N 119.726 -1.57421 0.075193 0
M  V30 1199 C 121.137 -1.81021 -0.456964 0
M  V30 1200 C 121.488 -0.98936 -1.69429 0
M  V30 1201 O 120.613 -0.212865 -2.15351 0
M  V30 1202 C 121.208 -3.28329 -0.83581 0
M  V30 1203 C 119.767 -3.52764 -1.31281 0
M  V30 1204 C 118.914 -2.75676 -0.299648 0
M  V30 1205 H 121.865 -1.55822 0.300856 0
M  V30 1206 H 121.886 -3.40564 -1.69696 0
M  V30 1207 H 121.398 -3.88046 0.0649238 0
M  V30 1208 H 119.499 -2.98355 -2.23193 0
M  V30 1209 H 119.612 -4.61451 -1.28839 0
M  V30 1210 H 117.976 -2.42538 -0.777641 0
M  V30 1211 H 118.759 -3.38132 0.593417 0
M  V30 1212 N 121.204 0.198386 -1.56346 0
M  V30 1213 C 122.432 0.935572 -1.84539 0
M  V30 1214 C 122.847 1.76989 -0.657281 0
M  V30 1215 O 122.204 1.78626 0.374043 0
M  V30 1216 C 122.255 1.8344 -3.11499 0
M  V30 1217 O 121.976 1.03377 -4.25728 0
M  V30 1218 C 123.477 2.68355 -3.52846 0
M  V30 1219 H 120.697 0.273126 -0.612897 0
M  V30 1220 H 123.241 0.20663 -2.03453 0
M  V30 1221 H 121.396 2.51701 -2.94492 0
M  V30 1222 H 121.81 1.64599 -4.98003 0
M  V30 1223 H 123.284 3.27085 -4.44657 0
M  V30 1224 H 123.761 3.41901 -2.75681 0
M  V30 1225 H 124.367 2.05471 -3.72373 0
M  V30 1226 N 122.682 1.50554 0.465978 0
M  V30 1227 C 123.612 1.72722 1.57128 0
M  V30 1228 C 124.593 0.576294 1.6004 0
M  V30 1229 O 125.778 0.81598 1.76225 0
M  V30 1230 C 122.908 1.82605 2.95419 0
M  V30 1231 C 121.862 2.97835 3.07373 0
M  V30 1232 C 121.188 2.92867 4.47363 0
M  V30 1233 C 122.488 4.38265 2.84114 0
M  V30 1234 H 124.182 2.65267 1.38829 0
M  V30 1235 H 121.728 1.2765 0.666441 0
M  V30 1236 H 123.681 1.96698 3.72677 0
M  V30 1237 H 122.405 0.866858 3.14886 0
M  V30 1238 H 121.064 2.83401 2.3255 0
M  V30 1239 H 120.712 1.94783 4.63755 0
M  V30 1240 H 120.412 3.70227 4.56296 0
M  V30 1241 H 121.936 3.09015 5.26633 0
M  V30 1242 H 123.35 4.53198 3.51118 0
M  V30 1243 H 121.747 5.17115 3.04487 0
M  V30 1244 H 122.817 4.50281 1.7993 0
M  V30 1245 N 124.16 -0.719506 1.40217 0
M  V30 1246 C 125.107 -1.83359 1.40172 0
M  V30 1247 C 126.077 -1.64065 0.259206 0
M  V30 1248 O 127.262 -1.85254 0.456677 0
M  V30 1249 C 124.402 -3.2103 1.26624 0
M  V30 1250 C 123.515 -3.51923 2.50548 0
M  V30 1251 C 122.65 -4.79079 2.29471 0
M  V30 1252 C 121.689 -5.02863 3.48992 0
M  V30 1253 N 120.826 -6.2123 3.27135 0
M  V30 1254 H 125.666 -1.82733 2.35399 0
M  V30 1255 H 123.203 -0.892688 1.16917 0
M  V30 1256 H 125.161 -4.00524 1.16776 0
M  V30 1257 H 123.791 -3.20895 0.350176 0
M  V30 1258 H 122.843 -2.67014 2.70939 0
M  V30 1259 H 124.155 -3.6541 3.39525 0
M  V30 1260 H 123.309 -5.66582 2.16955 0
M  V30 1261 H 122.048 -4.67794 1.37913 0
M  V30 1262 H 121.053 -4.13816 3.6199 0
M  V30 1263 H 122.278 -5.16023 4.41472 0
M  V30 1264 H 120.224 -6.11204 2.38256 0
M  V30 1265 H 120.141 -6.35375 4.09675 0
M  V30 1266 H 121.409 -7.11532 3.18344 0
M  V30 1267 N 125.638 -1.25649 -0.95132 0
M  V30 1268 C 126.884 -1.10757 -1.69884 0
M  V30 1269 C 127.217 0.350061 -1.91019 0
M  V30 1270 O 126.492 1.25783 -1.48354 0
M  V30 1271 C 126.775 -1.86606 -3.07978 0
M  V30 1272 C 126.628 -3.40217 -2.94232 0
M  V30 1273 C 127.947 -1.65182 -4.07925 0
M  V30 1274 H 125.066 -0.40374 -0.616574 0
M  V30 1275 H 127.708 -1.54521 -1.10558 0
M  V30 1276 H 125.858 -1.49409 -3.58621 0
M  V30 1277 H 127.53 -3.87108 -2.50889 0
M  V30 1278 H 125.773 -3.67759 -2.30078 0
M  V30 1279 H 126.444 -3.88505 -3.92133 0
M  V30 1280 H 128.92 -1.9757 -3.66204 0
M  V30 1281 H 127.796 -2.20683 -5.02583 0
M  V30 1282 H 128.057 -0.593933 -4.38092 0
M  V30 1283 N 127.117 1.15442 -1.07289 0
M  V30 1284 C 128.365 1.85845 -0.794096 0
M  V30 1285 C 128.686 1.82692 0.681809 0
M  V30 1286 O 127.956 1.26741 1.49377 0
M  V30 1287 H 126.536 0.688089 -0.290763 0
M  V30 1288 H 129.198 1.39947 -1.3565 0
M  V30 1289 H 128.294 2.91001 -1.12804 0
M  V30 1290 N 128.595 0.856903 1.32268 0
M  V30 1291 C 129.872 0.382583 1.91822 0
M  V30 1292 C 130.252 -1.13407 1.78051 0
M  V30 1293 O 129.6 -1.95673 1.18001 0
M  V30 1294 C 129.81 0.849446 3.38505 0
M  V30 1295 C 131.158 0.867936 4.15634 0
M  V30 1296 O 132.182 0.794232 3.47232 0
M  V30 1297 O 131.041 0.972286 5.37781 0
M  V30 1298 H 128.135 0.112014 0.819379 0
M  V30 1299 H 130.681 0.943952 1.41024 0
M  V30 1300 H 129.453 1.89267 3.42482 0
M  V30 1301 H 129.076 0.265652 3.96712 0
M  V30 1302 N 130.073 -1.45103 0.615059 0
M  V30 1303 C 131.322 -2.01396 0.110718 0
M  V30 1304 C 131.635 -1.48834 -1.26916 0
M  V30 1305 O 132.841 -1.97152 -1.86664 0
M  V30 1306 C 131.297 -3.59599 0.14723 0
M  V30 1307 C 130.905 -4.21158 1.52743 0
M  V30 1308 C 132.649 -4.23428 -0.30148 0
M  V30 1309 C 130.556 -5.71535 1.51992 0
M  V30 1310 H 129.486 -0.753061 0.0376241 0
M  V30 1311 H 132.137 -1.66494 0.77149 0
M  V30 1312 H 130.519 -3.91724 -0.580339 0
M  V30 1313 H 131.693 -4.00594 2.2773 0
M  V30 1314 H 130.008 -3.69552 1.91886 0
M  V30 1315 H 132.605 -5.33703 -0.326392 0
M  V30 1316 H 132.948 -3.94629 -1.32565 0
M  V30 1317 H 133.481 -3.96047 0.373065 0
M  V30 1318 H 130.22 -6.05044 2.52193 0
M  V30 1319 H 129.74 -5.94268 0.81274 0
M  V30 1320 H 131.419 -6.34873 1.24681 0
M  V30 1321 N 131.551 -0.354651 -1.53558 0
M  V30 1322 C 132.797 0.238797 -2.01389 0
M  V30 1323 C 133.13 1.49309 -1.2418 0
M  V30 1324 O 132.405 1.91638 -0.332457 0
M  V30 1325 C 132.688 0.541771 -3.56001 0
M  V30 1326 C 132.541 -0.725388 -4.43912 0
M  V30 1327 C 133.86 1.34685 -4.18984 0
M  V30 1328 H 130.979 0.0853177 -0.732045 0
M  V30 1329 H 133.621 -0.477384 -1.83905 0
M  V30 1330 H 131.771 1.15189 -3.71031 0
M  V30 1331 H 133.443 -1.36313 -4.407 0
M  V30 1332 H 131.686 -1.34801 -4.12324 0
M  V30 1333 H 132.357 -0.468505 -5.50008 0
M  V30 1334 H 134.833 0.830837 -4.07721 0
M  V30 1335 H 133.709 1.52759 -5.27215 0
M  V30 1336 H 133.97 2.35221 -3.74331 0
M  V30 1337 N 133.029 1.57378 -0.0835403 0
M  V30 1338 C 134.275 1.94217 0.583733 0
M  V30 1339 C 134.608 0.964653 1.68547 0
M  V30 1340 O 133.883 -0.00422258 1.945 0
M  V30 1341 C 134.166 3.41253 1.14972 0
M  V30 1342 C 134.019 4.49768 0.0538277 0
M  V30 1343 C 135.338 3.89352 2.05166 0
M  V30 1344 H 132.457 0.706233 0.210724 0
M  V30 1345 H 135.099 1.89392 -0.1519 0
M  V30 1346 H 133.249 3.45496 1.77665 0
M  V30 1347 H 134.921 4.57641 -0.579851 0
M  V30 1348 H 133.164 4.29432 -0.614068 0
M  V30 1349 H 133.835 5.49817 0.490452 0
M  V30 1350 H 136.311 3.87189 1.52393 0
M  V30 1351 H 135.187 4.92822 2.41698 0
M  V30 1352 H 135.448 3.27973 2.96456 0
M  V30 1353 N 134.507 -0.190092 1.56449 0
M  V30 1354 C 135.732 -0.929864 1.85387 0
M  V30 1355 C 136.157 -1.7585 0.667704 0
M  V30 1356 O 135.515 -1.77198 -0.383459 0
M  V30 1357 C 135.563 -1.79773 3.12593 0
M  V30 1358 O 134.667 -2.89713 2.93496 0
M  V30 1359 H 134.008 -0.261574 0.610307 0
M  V30 1360 H 136.538 -0.193896 2.03679 0
M  V30 1361 H 136.548 -2.20139 3.43515 0
M  V30 1362 H 135.223 -1.18892 3.98544 0
M  V30 1363 H 133.8 -2.53065 2.73884 0
M  V30 1364 N 135.985 -1.50799 -0.457987 0
M  V30 1365 C 137.262 -1.52968 -1.21902 0
M  V30 1366 C 137.642 -0.281906 -2.09209 0
M  V30 1367 O 136.99 0.734076 -2.16388 0
M  V30 1368 C 137.2 -2.8326 -2.03875 0
M  V30 1369 C 138.548 -3.34425 -2.6162 0
M  V30 1370 O 139.572 -2.8467 -2.14106 0
M  V30 1371 O 138.431 -4.21188 -3.48228 0
M  V30 1372 H 135.525 -0.614129 -0.553873 0
M  V30 1373 H 138.071 -1.63098 -0.468739 0
M  V30 1374 H 136.843 -3.65543 -1.39621 0
M  V30 1375 H 136.466 -2.76195 -2.8601 0
M  V30 1376 N 137.463 0.71206 -1.40597 0
M  V30 1377 C 138.373 1.8562 -1.43466 0
M  V30 1378 C 139.389 1.70902 -0.326902 0
M  V30 1379 O 140.565 1.93105 -0.572043 0
M  V30 1380 C 137.63 3.21451 -1.29884 0
M  V30 1381 C 136.691 3.48398 -2.50833 0
M  V30 1382 C 135.924 4.77749 -2.3789 0
M  V30 1383 O 136.147 5.53089 -1.39459 0
M  V30 1384 O 135.081 5.05111 -3.27333 0
M  V30 1385 H 138.907 1.86155 -2.39958 0
M  V30 1386 H 136.492 0.86295 -1.21957 0
M  V30 1387 H 138.374 4.02579 -1.24531 0
M  V30 1388 H 137.049 3.21636 -0.364997 0
M  V30 1389 H 135.956 2.67265 -2.61763 0
M  V30 1390 H 137.289 3.53014 -3.4299 0
M  V30 1391 N 138.941 1.26152 0.944643 0
M  V30 1392 C 139.904 1.07474 2.0244 0
M  V30 1393 C 140.904 0.0242064 1.60782 0
M  V30 1394 O 142.094 0.267302 1.72137 0
M  V30 1395 C 139.226 0.633956 3.34953 0
M  V30 1396 H 140.419 2.03336 2.20442 0
M  V30 1397 H 137.972 1.087 1.12312 0
M  V30 1398 H 138.707 -0.326811 3.22649 0
M  V30 1399 H 138.492 1.39247 3.66542 0
M  V30 1400 H 139.982 0.52501 4.14287 0
M  V30 1401 N 140.419 -1.14872 1.07899 0
M  V30 1402 C 141.835 -1.37776 0.805606 0
M  V30 1403 C 142.035 -1.92743 -0.587555 0
M  V30 1404 O 141.091 -2.13678 -1.34528 0
M  V30 1405 C 142.404 -2.34361 1.88402 0
M  V30 1406 C 143.952 -2.48012 1.90942 0
M  V30 1407 C 144.427 -3.47893 2.97883 0
M  V30 1408 N 145.918 -3.55433 2.97021 0
M  V30 1409 C 146.653 -4.32553 3.76412 0
M  V30 1410 N 146.149 -5.12959 4.65666 0
M  V30 1411 N 147.942 -4.27697 3.64735 0
M  V30 1412 H 140.093 -0.775365 1.97742 0
M  V30 1413 H 142.356 -0.403521 0.857831 0
M  V30 1414 H 142.062 -2.01098 2.88535 0
M  V30 1415 H 141.936 -3.34206 1.74889 0
M  V30 1416 H 144.323 -2.8057 0.914579 0
M  V30 1417 H 144.404 -1.48147 2.08534 0
M  V30 1418 H 144.048 -3.16069 3.97571 0
M  V30 1419 H 143.978 -4.47527 2.77538 0
M  V30 1420 H 146.469 -2.98048 2.32326 0
M  V30 1421 H 146.782 -5.69065 5.22862 0
M  V30 1422 H 145.127 -5.12245 4.69712 0
M  V30 1423 H 148.318 -3.63949 2.94378 0
M  V30 1424 H 148.491 -4.8755 4.26848 0
M  V30 1425 N 141.898 -0.863906 -1.31812 0
M  V30 1426 C 143.128 -0.485406 -2.00817 0
M  V30 1427 C 143.536 0.925007 -1.65046 0
M  V30 1428 O 142.879 1.61653 -0.872574 0
M  V30 1429 C 142.941 -0.555589 -3.55181 0
M  V30 1430 C 142.605 -1.92654 -4.14407 0
M  V30 1431 C 143.602 -2.89324 -4.31958 0
M  V30 1432 C 141.287 -2.2262 -4.50273 0
M  V30 1433 C 143.281 -4.14108 -4.84555 0
M  V30 1434 C 140.968 -3.47654 -5.02573 0
M  V30 1435 C 141.966 -4.43214 -5.19664 0
M  V30 1436 O 141.654 -5.66033 -5.70843 0
M  V30 1437 H 141.386 -0.188224 -0.649267 0
M  V30 1438 H 143.94 -1.16514 -1.69156 0
M  V30 1439 H 142.17 0.181037 -3.86276 0
M  V30 1440 H 143.859 -0.19138 -4.05449 0
M  V30 1441 H 144.625 -2.6748 -4.04573 0
M  V30 1442 H 140.504 -1.4902 -4.3625 0
M  V30 1443 H 144.048 -4.88703 -4.9781 0
M  V30 1444 H 139.945 -3.69345 -5.29391 0
M  V30 1445 H 140.713 -5.6812 -5.89222 0
M  V30 1446 N 143.376 1.44774 -0.622745 0
M  V30 1447 C 144.326 2.2774 0.108889 0
M  V30 1448 C 145.31 1.38189 0.824175 0
M  V30 1449 O 146.502 1.62063 0.711664 0
M  V30 1450 C 143.631 3.25353 1.09546 0
M  V30 1451 C 142.717 4.22392 0.380232 0
M  V30 1452 N 143.108 5.02388 -0.586535 0
M  V30 1453 C 141.406 4.41588 0.625792 0
M  V30 1454 C 142.107 5.72894 -1.00834 0
M  V30 1455 N 141.083 5.42479 -0.348878 0
M  V30 1456 H 144.885 2.86993 -0.63341 0
M  V30 1457 H 142.399 1.5611 -0.447589 0
M  V30 1458 H 144.396 3.83538 1.63414 0
M  V30 1459 H 143.056 2.6766 1.83815 0
M  V30 1460 H 144.067 5.0885 -0.963975 0
M  V30 1461 H 140.744 3.95003 1.352 0
M  V30 1462 H 142.134 6.47158 -1.80656 0
M  V30 1463 N 144.854 0.36279 1.53368 0
M  V30 1464 C 146.131 -0.284021 1.93527 0
M  V30 1465 C 146.511 -1.66628 1.29608 0
M  V30 1466 O 145.859 -2.23942 0.45413 0
M  V30 1467 C 146.069 -0.337028 3.47369 0
M  V30 1468 C 147.417 -0.578708 4.20638 0
M  V30 1469 O 148.441 -0.418352 3.53735 0
M  V30 1470 O 147.3 -0.89074 5.39192 0
M  V30 1471 H 144.394 -0.169743 0.809393 0
M  V30 1472 H 146.94 0.41537 1.64538 0
M  V30 1473 H 145.712 0.632217 3.86159 0
M  V30 1474 H 145.335 -1.08243 3.82582 0
M  V30 1475 N 146.332 -1.57332 0.0918853 0
M  V30 1476 C 147.295 -2.12708 -0.85369 0
M  V30 1477 C 148.295 -1.05561 -1.213 0
M  V30 1478 O 149.485 -1.31461 -1.14296 0
M  V30 1479 C 146.617 -2.64503 -2.15061 0
M  V30 1480 H 147.81 -2.97573 -0.3729 0
M  V30 1481 H 145.363 -1.55509 -0.157072 0
M  V30 1482 H 146.098 -1.83149 -2.67632 0
M  V30 1483 H 145.883 -3.4284 -1.90272 0
M  V30 1484 H 147.373 -3.07351 -2.82711 0
M  V30 1485 N 147.81 0.181792 -1.56548 0
M  V30 1486 C 149.087 0.926765 -1.72251 0
M  V30 1487 C 149.467 2.00831 -0.650386 0
M  V30 1488 O 148.815 2.26008 0.336521 0
M  V30 1489 C 149.025 1.50106 -3.1507 0
M  V30 1490 C 150.373 1.97805 -3.75711 0
M  V30 1491 O 151.397 1.59922 -3.18282 0
M  V30 1492 O 150.256 2.67555 -4.76525 0
M  V30 1493 H 147.35 0.435506 -0.703039 0
M  V30 1494 H 149.896 0.170443 -1.68842 0
M  V30 1495 H 148.668 0.72212 -3.84579 0
M  V30 1496 H 148.291 2.32186 -3.22763 0
M  V30 1497 N 149.288 1.51039 0.449983 0
M  V30 1498 C 150.534 1.63322 1.20223 0
M  V30 1499 C 150.867 0.34241 1.91158 0
M  V30 1500 O 150.142 -0.657344 1.83055 0
M  V30 1501 C 150.425 2.82801 2.22925 0
M  V30 1502 C 150.278 4.21823 1.56157 0
M  V30 1503 C 151.597 2.97807 3.24035 0
M  V30 1504 H 148.716 0.594407 0.435718 0
M  V30 1505 H 151.358 1.83489 0.493136 0
M  V30 1506 H 149.508 2.65738 2.834 0
M  V30 1507 H 151.18 4.50526 0.991162 0
M  V30 1508 H 149.423 4.25105 0.864172 0
M  V30 1509 H 150.094 5.01391 2.30891 0
M  V30 1510 H 152.57 3.13497 2.73603 0
M  V30 1511 H 151.446 3.82992 3.93202 0
M  V30 1512 H 151.707 2.09328 3.89402 0
M  V30 1513 N 150.766 -0.704594 1.40972 0
M  V30 1514 C 151.994 -1.49354 1.43182 0
M  V30 1515 C 152.409 -1.88768 0.0345508 0
M  V30 1516 O 151.766 -1.56184 -0.944081 0
M  V30 1517 C 151.817 -2.76187 2.33244 0
M  V30 1518 O 151.538 -2.38436 3.67532 0
M  V30 1519 C 153.039 -3.7 2.44162 0
M  V30 1520 H 150.259 -0.460559 0.487982 0
M  V30 1521 H 152.803 -0.868261 1.85153 0
M  V30 1522 H 150.958 -3.34974 1.94606 0
M  V30 1523 H 151.372 -3.20126 4.15475 0
M  V30 1524 H 152.846 -4.55803 3.11364 0
M  V30 1525 H 153.323 -4.13867 1.47006 0
M  V30 1526 H 153.929 -3.17121 2.83398 0
M  V30 1527 N 152.244 -1.26651 -0.937939 0
M  V30 1528 C 153.207 -1.08546 -2.01867 0
M  V30 1529 C 154.207 -0.0327327 -1.60767 0
M  V30 1530 O 155.397 -0.276427 -1.71993 0
M  V30 1531 C 152.529 -0.651711 -3.34613 0
M  V30 1532 H 153.722 -2.04502 -2.1936 0
M  V30 1533 H 151.275 -1.09294 -1.11734 0
M  V30 1534 H 152.01 0.309696 -3.22818 0
M  V30 1535 H 151.795 -1.41189 -3.65798 0
M  V30 1536 H 153.285 -0.546973 -4.14002 0
M  V30 1537 N 153.722 1.14298 -1.08507 0
M  V30 1538 C 154.969 1.85359 -0.815373 0
M  V30 1539 C 155.297 1.83001 0.658865 0
M  V30 1540 O 154.552 1.25655 1.50031 0
M  V30 1541 C 154.851 3.33547 -1.28379 0
M  V30 1542 C 154.517 3.56093 -2.76602 0
M  V30 1543 C 153.179 3.61955 -3.17084 0
M  V30 1544 C 155.531 3.64834 -3.72217 0
M  V30 1545 C 152.859 3.74082 -4.51973 0
M  V30 1546 C 155.211 3.78487 -5.06883 0
M  V30 1547 C 153.875 3.82598 -5.46969 0
M  V30 1548 H 153.145 0.678276 -0.298366 0
M  V30 1549 H 155.792 1.35002 -1.35819 0
M  V30 1550 H 154.097 3.86191 -0.660593 0
M  V30 1551 H 155.794 3.86959 -1.05186 0
M  V30 1552 H 152.384 3.52179 -2.4427 0
M  V30 1553 H 156.568 3.59595 -3.42061 0
M  V30 1554 H 151.824 3.75527 -4.82483 0
M  V30 1555 H 155.998 3.84193 -5.80834 0
M  V30 1556 H 153.625 3.91747 -6.51489 0
M  V30 1557 N 155.201 0.870884 1.31352 0
M  V30 1558 C 156.449 0.48132 1.96285 0
M  V30 1559 C 156.77 -0.969813 1.69173 0
M  V30 1560 O 156.04 -1.67998 1.00764 0
M  V30 1561 H 154.62 0.175002 0.726212 0
M  V30 1562 H 157.282 1.11087 1.60143 0
M  V30 1563 H 156.378 0.639825 3.05471 0
M  V30 1564 N 156.679 -1.44442 0.630414 0
M  V30 1565 C 157.909 -2.06115 0.141465 0
M  V30 1566 C 158.317 -1.47179 -1.1889 0
M  V30 1567 O 157.66 -0.588873 -1.74006 0
M  V30 1568 C 157.722 -3.59467 -0.0484355 0
M  V30 1569 C 157.386 -4.40864 1.20366 0
M  V30 1570 C 158.383 -4.74391 2.12719 0
M  V30 1571 C 156.068 -4.8125 1.43887 0
M  V30 1572 C 158.062 -5.47186 3.26904 0
M  V30 1573 C 155.749 -5.53795 2.5837 0
M  V30 1574 C 156.747 -5.86682 3.49705 0
M  V30 1575 O 156.435 -6.57749 4.62191 0
M  V30 1576 H 156.167 -0.671648 0.0765792 0
M  V30 1577 H 158.721 -1.86312 0.864695 0
M  V30 1578 H 156.951 -3.77758 -0.826803 0
M  V30 1579 H 158.64 -4.02909 -0.491849 0
M  V30 1580 H 159.406 -4.43728 1.95781 0
M  V30 1581 H 155.285 -4.55073 0.736853 0
M  V30 1582 H 158.829 -5.72773 3.98217 0
M  V30 1583 H 154.726 -5.83872 2.75251 0
M  V30 1584 H 155.494 -6.76217 4.61164 0
M  V30 1585 N 158.157 -0.370918 -1.53173 0
M  V30 1586 C 159.067 0.480823 -2.2962 0
M  V30 1587 C 160.083 1.08789 -1.35798 0
M  V30 1588 O 161.259 1.09768 -1.68858 0
M  V30 1589 C 158.324 1.60227 -3.07454 0
M  V30 1590 C 157.385 1.0222 -4.16953 0
M  V30 1591 C 156.618 2.0902 -4.91066 0
M  V30 1592 O 156.841 3.30222 -4.65091 0
M  V30 1593 O 155.775 1.71778 -5.76867 0
M  V30 1594 H 159.601 -0.141421 -3.03371 0
M  V30 1595 H 157.186 -0.135146 -1.48787 0
M  V30 1596 H 159.068 2.25417 -3.56041 0
M  V30 1597 H 157.743 2.20982 -2.36535 0
M  V30 1598 H 156.65 0.334064 -3.72605 0
M  V30 1599 H 157.983 0.459131 -4.90054 0
M  V30 1600 N 159.635 1.57281 -0.100228 0
M  V30 1601 C 160.865 1.98591 0.569681 0
M  V30 1602 C 161.273 0.978315 1.61943 0
M  V30 1603 O 160.616 -0.0396108 1.83657 0
M  V30 1604 C 160.678 3.36282 1.271 0
M  V30 1605 C 160.342 4.55488 0.371409 0
M  V30 1606 C 161.339 5.18491 -0.382504 0
M  V30 1607 C 159.024 5.01474 0.287965 0
M  V30 1608 C 161.018 6.25852 -1.20779 0
M  V30 1609 C 158.705 6.08701 -0.540965 0
M  V30 1610 C 159.703 6.70755 -1.28749 0
M  V30 1611 O 159.391 7.75914 -2.10269 0
M  V30 1612 H 159.123 0.65752 0.156982 0
M  V30 1613 H 161.677 2.0463 -0.177734 0
M  V30 1614 H 159.907 3.26941 2.0651 0
M  V30 1615 H 161.596 3.62005 1.83595 0
M  V30 1616 H 162.362 4.83891 -0.3278 0
M  V30 1617 H 158.241 4.52932 0.858689 0
M  V30 1618 H 161.785 6.74218 -1.79096 0
M  V30 1619 H 157.682 6.42732 -0.597131 0
M  V30 1620 H 158.45 7.92925 -2.03007 0
M  V30 1621 N 161.113 -0.173488 1.56642 0
M  V30 1622 C 162.361 -0.888706 1.81512 0
M  V30 1623 C 162.682 -1.82875 0.676872 0
M  V30 1624 O 161.952 -1.93536 -0.303414 0
M  V30 1625 H 160.532 -0.331164 0.669582 0
M  V30 1626 H 163.194 -0.173823 1.94123 0
M  V30 1627 H 162.29 -1.46691 2.75478 0
M  V30 1628 N 162.591 -1.51276 -0.441967 0
M  V30 1629 C 163.523 -1.68444 -1.55433 0
M  V30 1630 C 164.536 -0.565187 -1.52674 0
M  V30 1631 O 165.725 -0.839356 -1.57534 0
M  V30 1632 C 162.825 -1.67966 -2.94348 0
M  V30 1633 C 161.998 -2.964 -3.21661 0
M  V30 1634 C 161.057 -2.88171 -4.40277 0
M  V30 1635 O 160.083 -3.62119 -4.39157 0
M  V30 1636 N 161.285 -2.03706 -5.43584 0
M  V30 1637 H 164.05 -2.644 -1.41112 0
M  V30 1638 H 161.611 -1.49104 -0.630838 0
M  V30 1639 H 163.603 -1.60035 -3.71713 0
M  V30 1640 H 162.173 -0.796225 -3.0229 0
M  V30 1641 H 161.393 -3.18234 -2.32638 0
M  V30 1642 H 162.681 -3.81427 -3.36736 0
M  V30 1643 H 162.079 -1.42995 -5.47329 0
M  V30 1644 H 160.636 -2.01658 -6.1982 0
M  V30 1645 N 164.069 0.697108 -1.41344 0
M  V30 1646 C 164.999 1.82353 -1.45841 0
M  V30 1647 C 165.98 1.67115 -0.317247 0
M  V30 1648 O 167.165 1.86871 -0.528474 0
M  V30 1649 C 164.295 3.20476 -1.33838 0
M  V30 1650 C 163.249 3.50415 -2.4575 0
M  V30 1651 C 162.575 4.87878 -2.18813 0
M  V30 1652 C 163.875 3.49546 -3.88091 0
M  V30 1653 H 165.569 1.78846 -2.40113 0
M  V30 1654 H 163.115 0.859028 -1.15571 0
M  V30 1655 H 165.068 3.98988 -1.35596 0
M  V30 1656 H 163.792 3.24604 -0.360498 0
M  V30 1657 H 162.451 2.74253 -2.43271 0
M  V30 1658 H 162.099 4.8863 -1.19371 0
M  V30 1659 H 161.799 5.08875 -2.93803 0
M  V30 1660 H 163.323 5.68702 -2.22284 0
M  V30 1661 H 164.737 4.18066 -3.92293 0
M  V30 1662 H 163.134 3.82075 -4.62751 0
M  V30 1663 H 164.204 2.48552 -4.16353 0
M  V30 1664 N 165.547 1.27147 0.931209 0
M  V30 1665 C 166.958 1.12044 1.49342 0
M  V30 1666 C 167.309 -0.295795 1.93957 0
M  V30 1667 O 166.434 -1.18835 1.80852 0
M  V30 1668 C 167.029 2.02781 2.71414 0
M  V30 1669 C 165.588 1.91794 3.2387 0
M  V30 1670 C 164.735 1.95543 1.96617 0
M  V30 1671 H 167.686 1.40091 0.745672 0
M  V30 1672 H 167.707 1.58156 3.46074 0
M  V30 1673 H 167.219 3.05848 2.38911 0
M  V30 1674 H 165.32 0.916992 3.6114 0
M  V30 1675 H 165.433 2.77852 3.90302 0
M  V30 1676 H 163.797 1.39722 2.12955 0
M  V30 1677 H 164.58 3.00259 1.66432 0
M  V30 1678 N 167.025 -1.13721 1.09112 0
M  V30 1679 C 168.273 -1.84559 0.823562 0
M  V30 1680 C 168.594 -1.83754 -0.652658 0
M  V30 1681 O 167.864 -1.29102 -1.47342 0
M  V30 1682 H 166.444 -0.683376 0.301673 0
M  V30 1683 H 169.106 -1.37771 1.37859 0
M  V30 1684 H 168.202 -2.8917 1.17419 0
M  V30 1685 N 168.503 -0.877838 -1.30888 0
M  V30 1686 C 169.743 -0.499301 -1.98208 0
M  V30 1687 C 170.107 0.932649 -1.67826 0
M  V30 1688 O 171.308 1.41694 -2.28421 0
M  V30 1689 C 169.579 -0.758221 -3.49265 0
M  V30 1690 S 171.138 -0.480719 -4.36159 0
M  V30 1691 H 167.956 -0.186062 -0.686223 0
M  V30 1692 H 170.558 -1.13556 -1.59139 0
M  V30 1693 H 169.262 -1.79903 -3.68867 0
M  V30 1694 H 168.793 -0.109247 -3.93248 0
M  V30 1695 H 170.808 0.683698 -4.91467 0
M  V30 1696 N 169.982 1.44106 -0.638065 0
M  V30 1697 C 171.393 1.85316 -0.226894 0
M  V30 1698 C 171.744 1.53399 1.22324 0
M  V30 1699 O 170.869 0.975463 1.93167 0
M  V30 1700 C 171.464 3.3637 -0.405013 0
M  V30 1701 C 170.023 3.76369 -0.0482902 0
M  V30 1702 C 169.17 2.67921 -0.715108 0
M  V30 1703 H 172.121 1.34474 -0.842764 0
M  V30 1704 H 172.142 3.7885 0.354 0
M  V30 1705 H 171.654 3.59569 -1.46053 0
M  V30 1706 H 169.755 3.58784 1.00522 0
M  V30 1707 H 169.868 4.76856 -0.463187 0
M  V30 1708 H 168.232 2.54259 -0.149753 0
M  V30 1709 H 169.015 2.93951 -1.77335 0
M  V30 1710 N 171.46 0.379036 1.52974 0
M  V30 1711 C 172.423 -0.448865 2.24762 0
M  V30 1712 C 173.423 -0.998689 1.26027 0
M  V30 1713 O 174.613 -0.882313 1.50203 0
M  V30 1714 C 171.745 -1.62872 2.99476 0
M  V30 1715 H 172.938 0.179491 2.99362 0
M  V30 1716 H 170.491 0.13096 1.5575 0
M  V30 1717 H 171.226 -2.29479 2.29151 0
M  V30 1718 H 171.011 -1.24128 3.71934 0
M  V30 1719 H 172.501 -2.2151 3.5401 0
M  V30 1720 N 172.938 -1.57226 0.108567 0
M  V30 1721 C 174.186 -1.94448 -0.550853 0
M  V30 1722 C 174.507 -0.992074 -1.67878 0
M  V30 1723 O 173.777 -0.0465 -1.95845 0
M  V30 1724 H 172.357 -0.717897 -0.206479 0
M  V30 1725 H 175.019 -1.94112 0.175062 0
M  V30 1726 H 174.115 -2.97218 -0.952259 0
M  V30 1727 N 174.416 0.165178 -1.56732 0
M  V30 1728 C 175.663 0.880807 -1.8234 0
M  V30 1729 C 175.991 1.81977 -0.686621 0
M  V30 1730 O 175.246 1.92971 0.325697 0
M  V30 1731 C 175.545 1.70405 -3.1416 0
M  V30 1732 C 175.211 0.913475 -4.4155 0
M  V30 1733 C 173.873 0.695303 -4.7615 0
M  V30 1734 C 176.225 0.359349 -5.1996 0
M  V30 1735 C 173.553 -0.0879947 -5.86634 0
M  V30 1736 C 175.905 -0.410893 -6.31264 0
M  V30 1737 C 174.569 -0.639808 -6.64427 0
M  V30 1738 H 173.839 0.32231 -0.667231 0
M  V30 1739 H 176.486 0.145402 -1.90947 0
M  V30 1740 H 174.791 2.50903 -3.00923 0
M  V30 1741 H 176.488 2.26091 -3.31186 0
M  V30 1742 H 173.078 1.09357 -4.14414 0
M  V30 1743 H 177.262 0.515228 -4.93618 0
M  V30 1744 H 172.518 -0.27503 -6.10781 0
M  V30 1745 H 176.692 -0.847494 -6.91224 0
M  V30 1746 H 174.319 -1.24864 -7.49875 0
M  V30 1747 N 175.894 1.51508 0.433938 0
M  V30 1748 C 176.841 1.73068 1.52696 0
M  V30 1749 C 177.811 0.572441 1.55924 0
M  V30 1750 O 178.996 0.807253 1.72882 0
M  V30 1751 C 176.136 1.86474 2.90381 0
M  V30 1752 C 175.249 3.14037 2.96656 0
M  V30 1753 C 174.384 3.18019 4.25485 0
M  V30 1754 C 173.423 4.39882 4.2564 0
M  V30 1755 N 172.56 4.41394 5.45999 0
M  V30 1756 H 177.4 2.66366 1.33615 0
M  V30 1757 H 174.937 1.32008 0.649018 0
M  V30 1758 H 176.895 1.92229 3.70275 0
M  V30 1759 H 175.525 0.965809 3.08013 0
M  V30 1760 H 174.577 3.17575 2.09404 0
M  V30 1761 H 175.889 4.0394 2.92633 0
M  V30 1762 H 175.043 3.22708 5.13755 0
M  V30 1763 H 173.782 2.2601 4.3217 0
M  V30 1764 H 172.787 4.35366 3.35763 0
M  V30 1765 H 174.012 5.33159 4.20617 0
M  V30 1766 H 171.958 3.52258 5.53399 0
M  V30 1767 H 171.875 5.25111 5.4387 0
M  V30 1768 H 173.143 4.50281 6.36292 0
M  V30 1769 N 177.372 -0.689602 1.41712 0
M  V30 1770 C 178.335 -1.78521 1.43746 0
M  V30 1771 C 179.335 -1.57436 0.327191 0
M  V30 1772 O 180.525 -1.64 0.587348 0
M  V30 1773 C 177.657 -3.16971 1.25467 0
M  V30 1774 H 178.85 -1.78108 2.41283 0
M  V30 1775 H 176.403 -0.89781 1.27942 0
M  V30 1776 H 177.138 -3.23019 0.287948 0
M  V30 1777 H 176.923 -3.33678 2.05917 0
M  V30 1778 H 178.413 -3.96935 1.2974 0
M  V30 1779 N 178.85 -1.27639 -0.924453 0
M  V30 1780 C 180.127 -1.04887 -1.651 0
M  V30 1781 C 180.507 0.415327 -2.06974 0
M  V30 1782 O 179.855 1.39923 -1.80648 0
M  V30 1783 C 180.065 -2.01348 -2.85061 0
M  V30 1784 C 181.413 -2.30899 -3.56329 0
M  V30 1785 O 182.437 -1.99348 -2.95193 0
M  V30 1786 O 181.296 -2.84699 -4.66485 0
M  V30 1787 H 178.39 -0.400083 -0.723784 0
M  V30 1788 H 180.936 -1.38916 -0.974703 0
M  V30 1789 H 179.708 -3.0008 -2.51133 0
M  V30 1790 H 179.331 -1.679 -3.6041 0
M  V30 1791 N 180.328 1.1314 -1.09713 0
M  V30 1792 C 181.605 1.80762 -0.747302 0
M  V30 1793 C 181.985 1.96663 0.767265 0
M  V30 1794 O 181.333 1.53706 1.69076 0
M  V30 1795 C 181.543 3.15606 -1.48975 0
M  V30 1796 C 182.891 3.90914 -1.65746 0
M  V30 1797 O 183.915 3.25239 -1.45251 0
M  V30 1798 O 182.774 5.08718 -1.9967 0
M  V30 1799 H 179.868 0.782103 -0.268782 0
M  V30 1800 H 182.414 1.20041 -1.19951 0
M  V30 1801 H 181.186 2.99278 -2.52088 0
M  V30 1802 H 180.809 3.84029 -1.02991 0
M  V30 1803 N 181.806 0.884767 1.30421 0
M  V30 1804 C 182.753 0.349642 2.28136 0
M  V30 1805 C 183.723 -0.560061 1.56373 0
M  V30 1806 O 184.908 -0.488524 1.8444 0
M  V30 1807 C 182.048 -0.42999 3.42411 0
M  V30 1808 C 181.161 0.508907 4.28992 0
M  V30 1809 C 180.296 -0.286301 5.30428 0
M  V30 1810 C 179.335 0.648079 6.08659 0
M  V30 1811 N 178.472 -0.111792 7.02011 0
M  V30 1812 H 183.312 1.18807 2.73293 0
M  V30 1813 H 180.849 0.597231 1.3443 0
M  V30 1814 H 182.807 -0.897923 4.07423 0
M  V30 1815 H 181.437 -1.23299 2.98324 0
M  V30 1816 H 180.489 1.09533 3.64289 0
M  V30 1817 H 181.801 1.22475 4.8353 0
M  V30 1818 H 180.955 -0.816098 6.01186 0
M  V30 1819 H 179.694 -1.03536 4.76583 0
M  V30 1820 H 178.699 1.18951 5.36778 0
M  V30 1821 H 179.924 1.39623 6.64592 0
M  V30 1822 H 177.87 -0.843395 6.50556 0
M  V30 1823 H 177.787 0.544429 7.54037 0
M  V30 1824 H 179.055 -0.622339 7.77012 0
M  V30 1825 N 183.284 -1.43765 0.645699 0
M  V30 1826 C 184.214 -2.33471 -0.0370477 0
M  V30 1827 C 185.195 -1.49042 -0.819779 0
M  V30 1828 O 186.38 -1.77726 -0.782758 0
M  V30 1829 C 183.51 -3.32311 -1.0093 0
M  V30 1830 C 182.464 -4.2667 -0.337201 0
M  V30 1831 C 181.79 -5.1549 -1.42037 0
M  V30 1832 C 183.09 -5.16657 0.765706 0
M  V30 1833 H 184.784 -2.90809 0.712069 0
M  V30 1834 H 182.33 -1.39834 0.343876 0
M  V30 1835 H 184.283 -3.9396 -1.49578 0
M  V30 1836 H 183.007 -2.73213 -1.78948 0
M  V30 1837 H 181.666 -3.66374 0.128771 0
M  V30 1838 H 181.314 -4.52735 -2.1918 0
M  V30 1839 H 181.014 -5.79438 -0.975966 0
M  V30 1840 H 182.538 -5.80012 -1.90838 0
M  V30 1841 H 183.952 -5.72158 0.361702 0
M  V30 1842 H 182.349 -5.89286 1.13413 0
M  V30 1843 H 183.419 -4.56796 1.62683 0
M  V30 1844 N 184.763 -0.387143 -1.52771 0
M  V30 1845 C 186.012 0.19697 -2.00736 0
M  V30 1846 C 186.325 1.48082 -1.27793 0
M  V30 1847 O 187.531 2.14485 -1.66458 0
M  V30 1848 C 185.987 0.401568 -3.57653 0
M  V30 1849 C 185.595 -0.868907 -4.39493 0
M  V30 1850 C 187.339 0.942164 -4.13912 0
M  V30 1851 C 185.246 -0.632705 -5.88006 0
M  V30 1852 H 184.176 0.0773827 -0.750019 0
M  V30 1853 H 186.827 -0.50921 -1.76293 0
M  V30 1854 H 185.209 1.16954 -3.78335 0
M  V30 1855 H 186.383 -1.64133 -4.30577 0
M  V30 1856 H 184.698 -1.33429 -3.94443 0
M  V30 1857 H 187.295 1.13455 -5.22525 0
M  V30 1858 H 187.638 1.9106 -3.69867 0
M  V30 1859 H 188.171 0.233814 -3.97112 0
M  V30 1860 H 184.91 -1.57208 -6.36369 0
M  V30 1861 H 184.43 0.100825 -5.99715 0
M  V30 1862 H 186.109 -0.26642 -6.46451 0
M  V30 1863 N 186.241 1.57166 -0.116904 0
M  V30 1864 C 187.204 2.14039 0.819742 0
M  V30 1865 C 188.204 1.07477 1.19605 0
M  V30 1866 O 189.394 1.33263 1.1219 0
M  V30 1867 C 186.526 2.67891 2.10826 0
M  V30 1868 H 187.719 2.98128 0.325511 0
M  V30 1869 H 185.272 1.55739 0.132312 0
M  V30 1870 H 186.007 1.87384 2.64685 0
M  V30 1871 H 185.792 3.45823 1.84793 0
M  V30 1872 H 187.282 3.11809 2.77785 0
M  V30 1873 N 187.719 -0.156864 1.56817 0
M  V30 1874 C 188.682 -1.17781 1.96622 0
M  V30 1875 C 189.682 -1.36401 0.851555 0
M  V30 1876 O 190.872 -1.33561 1.11836 0
M  V30 1877 C 188.004 -2.54008 2.27361 0
M  V30 1878 H 189.197 -0.836564 2.87996 0
M  V30 1879 H 186.75 -0.39985 1.51099 0
M  V30 1880 H 187.485 -2.9312 1.38748 0
M  V30 1881 H 187.27 -2.41856 3.08623 0
M  V30 1882 H 188.76 -3.27558 2.59029 0
M  V30 1883 N 189.197 -1.51736 -0.425897 0
M  V30 1884 C 190.16 -1.73271 -1.50032 0
M  V30 1885 C 191.16 -0.602639 -1.4908 0
M  V30 1886 O 192.35 -0.87033 -1.509 0
M  V30 1887 C 189.482 -1.79969 -2.89523 0
M  V30 1888 H 190.675 -2.69172 -1.32237 0
M  V30 1889 H 188.228 -1.41899 -0.65532 0
M  V30 1890 H 188.963 -0.859241 -3.1271 0
M  V30 1891 H 188.748 -2.62109 -2.91619 0
M  V30 1892 H 190.238 -1.9843 -3.67444 0
M  V30 1893 N 190.675 0.682077 -1.42076 0
M  V30 1894 C 191.585 1.82535 -1.47371 0
M  V30 1895 C 192.601 1.7017 -0.363079 0
M  V30 1896 O 193.777 1.91848 -0.612875 0
M  V30 1897 C 190.842 3.18624 -1.36674 0
M  V30 1898 C 189.903 3.42999 -2.58167 0
M  V30 1899 C 189.136 4.72595 -2.4797 0
M  V30 1900 O 189.359 5.50006 -1.5116 0
M  V30 1901 O 188.293 4.98054 -3.37974 0
M  V30 1902 H 192.119 1.81023 -2.43853 0
M  V30 1903 H 189.704 0.836887 -1.2376 0
M  V30 1904 H 191.586 3.99847 -1.33043 0
M  V30 1905 H 190.261 3.20789 -0.433138 0
M  V30 1906 H 189.168 2.61653 -2.67373 0
M  V30 1907 H 190.501 3.45659 -3.50401 0
M  V30 1908 N 192.153 1.28127 0.917671 0
M  V30 1909 C 193.116 1.11744 2.00115 0
M  V30 1910 C 194.116 0.0583052 1.60694 0
M  V30 1911 O 195.306 0.303755 1.71531 0
M  V30 1912 C 192.438 0.704862 3.33533 0
M  V30 1913 H 193.631 2.07966 2.16079 0
M  V30 1914 H 191.184 1.11058 1.09981 0
M  V30 1915 H 191.919 -0.258299 3.2327 0
M  V30 1916 H 191.704 1.4699 3.63505 0
M  V30 1917 H 193.194 0.612768 4.1308 0
M  V30 1918 N 193.631 -1.12557 1.10312 0
M  V30 1919 C 194.871 -1.8568 0.854543 0
M  V30 1920 C 195.235 -1.82091 -0.608843 0
M  V30 1921 O 196.436 -2.50544 -0.973717 0
M  V30 1922 C 194.707 -3.2942 1.38626 0
M  V30 1923 S 196.266 -4.19931 1.27293 0
M  V30 1924 H 193.084 -0.640427 0.308827 0
M  V30 1925 H 195.686 -1.35599 1.40831 0
M  V30 1926 H 194.39 -3.2959 2.44537 0
M  V30 1927 H 193.921 -3.84566 0.82902 0
M  V30 1928 H 195.936 -4.95668 0.229776 0
M  V30 1929 N 195.109 -0.891671 -1.2995 0
M  V30 1930 C 196.358 -0.509521 -1.95158 0
M  V30 1931 C 196.671 0.947388 -1.71125 0
M  V30 1932 O 197.877 1.43669 -2.30372 0
M  V30 1933 C 196.333 -0.860315 -3.49466 0
M  V30 1934 C 195.941 -2.33545 -3.8231 0
M  V30 1935 C 197.685 -0.547687 -4.20952 0
M  V30 1936 C 195.592 -2.62752 -5.29826 0
M  V30 1937 H 194.522 -0.18682 -0.730489 0
M  V30 1938 H 197.173 -1.08756 -1.47798 0
M  V30 1939 H 195.555 -0.211285 -3.95436 0
M  V30 1940 H 196.729 -3.02936 -3.47227 0
M  V30 1941 H 195.044 -2.61629 -3.23944 0
M  V30 1942 H 197.641 -0.742854 -5.29515 0
M  V30 1943 H 197.984 0.51332 -4.13123 0
M  V30 1944 H 198.517 -1.1542 -3.80688 0
M  V30 1945 H 195.256 -3.6762 -5.42712 0
M  V30 1946 H 194.776 -1.97977 -5.66185 0
M  V30 1947 H 196.455 -2.48601 -5.97333 0
M  V30 1948 N 196.587 1.43421 -0.653314 0
M  V30 1949 C 197.55 2.29182 0.0287951 0
M  V30 1950 C 198.55 1.42213 0.750465 0
M  V30 1951 O 199.74 1.63843 0.591701 0
M  V30 1952 C 196.872 3.24278 1.05151 0
M  V30 1953 H 198.065 2.90985 -0.725786 0
M  V30 1954 H 195.618 1.50702 -0.414545 0
M  V30 1955 H 196.353 2.6737 1.83532 0
M  V30 1956 H 196.138 3.88396 0.537687 0
M  V30 1957 H 197.628 3.88647 1.52786 0
M  V30 1958 N 198.065 0.39524 1.52563 0
M  V30 1959 C 198.975 -0.444232 2.30356 0
M  V30 1960 C 199.991 -1.06615 1.37511 0
M  V30 1961 O 201.167 -1.07067 1.70583 0
M  V30 1962 C 198.232 -1.55315 3.09964 0
M  V30 1963 C 197.293 -0.955734 4.18526 0
M  V30 1964 C 196.526 -2.01181 4.9433 0
M  V30 1965 O 196.749 -3.22781 4.70285 0
M  V30 1966 O 195.683 -1.62579 5.79527 0
M  V30 1967 H 199.509 0.189667 3.03107 0
M  V30 1968 H 197.094 0.1588 1.48554 0
M  V30 1969 H 198.976 -2.19724 3.59582 0
M  V30 1970 H 197.651 -2.17191 2.4002 0
M  V30 1971 H 196.558 -0.274743 3.7309 0
M  V30 1972 H 197.891 -0.381109 4.90722 0
M  V30 1973 N 199.544 -1.57102 0.125237 0
M  V30 1974 C 200.474 -2.18659 -0.819174 0
M  V30 1975 C 201.455 -1.12843 -1.27281 0
M  V30 1976 O 202.64 -1.41104 -1.33429 0
M  V30 1977 C 199.77 -2.79096 -2.06695 0
M  V30 1978 C 198.724 -3.90548 -1.75088 0
M  V30 1979 C 198.05 -4.37821 -3.06948 0
M  V30 1980 C 199.35 -5.12356 -1.01435 0
M  V30 1981 H 201.044 -2.9783 -0.306202 0
M  V30 1982 H 198.59 -1.4326 -0.145839 0
M  V30 1983 H 200.543 -3.2082 -2.73226 0
M  V30 1984 H 199.267 -1.97223 -2.60328 0
M  V30 1985 H 197.926 -3.49409 -1.10944 0
M  V30 1986 H 197.574 -3.52799 -3.58527 0
M  V30 1987 H 197.274 -5.12982 -2.86571 0
M  V30 1988 H 198.798 -4.822 -3.74587 0
M  V30 1989 H 200.212 -5.5106 -1.58132 0
M  V30 1990 H 198.609 -5.9314 -0.911319 0
M  V30 1991 H 199.679 -4.849 -0.00218681 0
M  V30 1992 N 201.022 0.148545 -1.56898 0
M  V30 1993 C 201.97 1.20265 -1.99096 0
M  V30 1994 C 202.964 1.44559 -0.883123 0
M  V30 1995 O 204.17 1.4487 -1.0683 0
M  V30 1996 H 200.545 0.404786 -0.63376 0
M  V30 1997 H 202.516 0.82004 -2.86911 0
M  V30 1998 C 201.265 2.52886 -2.3863 0
M  V30 1999 H 200.588 2.35021 -3.23427 0
M  V30 2000 H 202.028 3.25274 -2.7198 0
M  V30 2001 C 200.487 3.13315 -1.23837 0
M  V30 2002 O 201.017 3.98077 -0.538268 0
M  V30 2003 N 199.223 2.72742 -1.00301 0
M  V30 2004 H 198.77 2.03912 -1.5741 0
M  V30 2005 H 198.728 3.13507 -0.236838 0
M  V30 2006 N 202.5 1.5196 0.417844 0
M  V30 2007 C 203.43 1.77634 1.51554 0
M  V30 2008 C 204.411 0.626918 1.58126 0
M  V30 2009 O 205.596 0.871632 1.7354 0
M  V30 2010 C 202.726 1.91911 2.8946 0
M  V30 2011 C 201.68 3.07463 2.97743 0
M  V30 2012 C 201.006 3.06951 4.37819 0
M  V30 2013 C 202.306 4.47082 2.70027 0
M  V30 2014 H 204 2.6955 1.3032 0
M  V30 2015 H 201.546 1.29706 0.625492 0
M  V30 2016 H 203.499 2.08455 3.6623 0
M  V30 2017 H 202.223 0.966598 3.11969 0
M  V30 2018 H 200.882 2.90656 2.23416 0
M  V30 2019 H 200.53 2.09438 4.57323 0
M  V30 2020 H 200.23 3.84556 4.44286 0
M  V30 2021 H 201.754 3.25613 5.16535 0
M  V30 2022 H 203.168 4.6414 3.36522 0
M  V30 2023 H 201.565 5.2654 2.87881 0
M  V30 2024 H 202.635 4.55777 1.65514 0
M  V30 2025 N 203.978 -0.674533 1.42435 0
M  V30 2026 C 204.926 -1.80934 1.46169 0
M  V30 2027 C 205.92 -1.66006 0.3374 0
M  V30 2028 O 207.126 -1.72611 0.510425 0
M  V30 2029 H 203.501 -0.596594 0.457798 0
M  V30 2030 H 205.472 -1.74903 2.41767 0
M  V30 2031 C 204.221 -3.19088 1.38123 0
M  V30 2032 H 203.544 -3.31203 2.23931 0
M  V30 2033 H 204.984 -3.9851 1.44797 0
M  V30 2034 C 203.443 -3.36763 0.0960517 0
M  V30 2035 O 203.973 -3.92581 -0.851073 0
M  V30 2036 N 202.179 -2.90597 0.0131186 0
M  V30 2037 H 201.726 -2.45359 0.784639 0
M  V30 2038 H 201.684 -3.028 -0.846133 0
M  V30 2039 N 205.456 -1.28612 -0.910864 0
M  V30 2040 C 206.419 -1.12803 -1.9952 0
M  V30 2041 C 207.419 -0.0668264 -1.60661 0
M  V30 2042 O 208.609 -0.312847 -1.71368 0
M  V30 2043 C 205.741 -0.72254 -3.33155 0
M  V30 2044 H 206.934 -2.09109 -2.14973 0
M  V30 2045 H 204.487 -1.11639 -1.09391 0
M  V30 2046 H 205.222 0.241152 -3.23402 0
M  V30 2047 H 205.007 -1.48916 -3.62721 0
M  V30 2048 H 206.497 -0.634666 -4.12749 0
M  V30 2049 N 206.934 1.1197 -1.10907 0
M  V30 2050 C 208.18 1.8386 -0.855773 0
M  V30 2051 C 208.513 1.84134 0.617103 0
M  V30 2052 O 207.788 1.29041 1.45529 0
M  V30 2053 C 208.071 3.31305 -1.411 0
M  V30 2054 C 207.924 3.39456 -2.9511 0
M  V30 2055 C 209.243 4.2721 -1.05736 0
M  V30 2056 H 206.362 0.667545 -0.312334 0
M  V30 2057 H 209.004 1.31331 -1.37303 0
M  V30 2058 H 207.154 3.76169 -0.97105 0
M  V30 2059 H 208.826 3.03191 -3.47668 0
M  V30 2060 H 207.069 2.79849 -3.31462 0
M  V30 2061 H 207.74 4.43209 -3.29044 0
M  V30 2062 H 210.216 3.90497 -1.43706 0
M  V30 2063 H 209.092 5.28775 -1.47269 0
M  V30 2064 H 209.353 4.42088 0.0325958 0
M  V30 2065 N 208.412 0.89855 1.29475 0
M  V30 2066 C 209.828 0.594483 1.48115 0
M  V30 2067 C 210.028 -0.86431 1.82022 0
M  V30 2068 O 209.084 -1.64457 1.91599 0
M  V30 2069 C 210.397 1.51932 2.59494 0
M  V30 2070 C 211.945 1.5244 2.7337 0
M  V30 2071 C 212.42 2.43548 3.87877 0
M  V30 2072 N 213.911 2.41589 3.95208 0
M  V30 2073 C 214.646 3.08789 4.83153 0
M  V30 2074 N 214.142 3.85265 5.75798 0
M  V30 2075 N 215.935 2.97952 4.76635 0
M  V30 2076 H 208.086 1.84207 1.05742 0
M  V30 2077 H 210.349 0.789251 0.525154 0
M  V30 2078 H 210.055 2.55865 2.41301 0
M  V30 2079 H 209.929 1.23899 3.56271 0
M  V30 2080 H 212.316 0.492518 2.90961 0
M  V30 2081 H 212.397 1.8451 1.77172 0
M  V30 2082 H 212.041 3.46829 3.71041 0
M  V30 2083 H 211.971 2.08788 4.83441 0
M  V30 2084 H 214.462 1.86025 3.28943 0
M  V30 2085 H 214.775 4.33598 6.39697 0
M  V30 2086 H 213.12 3.89371 5.75687 0
M  V30 2087 H 216.311 2.37723 4.03244 0
M  V30 2088 H 216.484 3.50599 5.44962 0
M  V30 2089 N 209.89 -1.43072 0.660911 0
M  V30 2090 C 211.138 -2.01323 0.177094 0
M  V30 2091 C 211.459 -1.5245 -1.2159 0
M  V30 2092 O 210.729 -0.740322 -1.81373 0
M  V30 2093 H 209.309 -0.744382 0.0624804 0
M  V30 2094 H 211.971 -1.75179 0.854305 0
M  V30 2095 H 211.067 -3.11649 0.167641 0
M  V30 2096 N 211.368 -0.403325 -1.52352 0
M  V30 2097 C 212.298 0.416205 -2.29761 0
M  V30 2098 C 213.279 1.05123 -1.33728 0
M  V30 2099 O 214.464 1.06134 -1.62632 0
M  V30 2100 C 211.594 1.53624 -3.11475 0
M  V30 2101 C 210.548 1.02653 -4.15507 0
M  V30 2102 C 209.874 2.23971 -4.85532 0
M  V30 2103 C 211.174 0.08463 -5.22231 0
M  V30 2104 H 212.868 -0.229701 -2.98518 0
M  V30 2105 H 210.414 -0.111913 -1.43564 0
M  V30 2106 H 212.367 2.1165 -3.64393 0
M  V30 2107 H 211.091 2.20994 -2.40477 0
M  V30 2108 H 209.75 0.46871 -3.63591 0
M  V30 2109 H 209.398 2.89883 -4.11068 0
M  V30 2110 H 209.098 1.90521 -5.55856 0
M  V30 2111 H 210.622 2.82614 -5.41259 0
M  V30 2112 H 212.036 0.573509 -5.70424 0
M  V30 2113 H 210.433 -0.160783 -5.99885 0
M  V30 2114 H 211.503 -0.86237 -4.7717 0
M  V30 2115 N 212.846 1.57033 -0.133567 0
M  V30 2116 C 214.095 1.94861 0.520768 0
M  V30 2117 C 214.408 1.02012 1.66892 0
M  V30 2118 O 215.614 1.29365 2.38699 0
M  V30 2119 C 214.07 3.46362 0.977809 0
M  V30 2120 C 213.678 4.47773 -0.142674 0
M  V30 2121 C 215.422 3.93083 1.60269 0
M  V30 2122 C 213.329 5.90468 0.331883 0
M  V30 2123 H 212.259 0.727453 0.198315 0
M  V30 2124 H 214.91 1.82227 -0.215759 0
M  V30 2125 H 213.292 3.54282 1.7692 0
M  V30 2126 H 214.466 4.51536 -0.919317 0
M  V30 2127 H 212.781 4.10891 -0.675124 0
M  V30 2128 H 215.378 4.97121 1.96914 0
M  V30 2129 H 215.721 3.33876 2.48662 0
M  V30 2130 H 216.254 3.88025 0.876453 0
M  V30 2131 H 212.993 6.53463 -0.516341 0
M  V30 2132 H 212.513 5.90094 1.07469 0
M  V30 2133 H 214.192 6.42179 0.788332 0
M  V30 2134 N 214.325 -0.140222 1.56975 0
M  V30 2135 C 215.571 -0.852949 1.83991 0
M  V30 2136 C 215.904 -1.80512 0.716187 0
M  V30 2137 O 215.179 -1.92479 -0.279681 0
M  V30 2138 C 215.462 -1.6215 3.21527 0
M  V30 2139 C 215.315 -0.690363 4.4447 0
M  V30 2140 C 216.634 -2.58247 3.56366 0
M  V30 2141 H 213.753 -0.308634 0.669264 0
M  V30 2142 H 216.395 -0.117898 1.89634 0
M  V30 2143 H 214.545 -2.24812 3.16847 0
M  V30 2144 H 216.217 -0.0742264 4.6124 0
M  V30 2145 H 214.46 -0.000396433 4.338 0
M  V30 2146 H 215.131 -1.2643 5.37326 0
M  V30 2147 H 217.607 -2.05701 3.61699 0
M  V30 2148 H 216.483 -3.09067 4.53617 0
M  V30 2149 H 216.744 -3.39923 2.82674 0
M  V30 2150 N 215.803 -1.52179 -0.40978 0
M  V30 2151 C 217.028 -1.70347 -1.18308 0
M  V30 2152 C 217.453 -0.411887 -1.83535 0
M  V30 2153 O 216.811 0.630587 -1.6998 0
M  V30 2154 C 216.859 -2.83977 -2.22238 0
M  V30 2155 O 215.963 -2.495 -3.28365 0
M  V30 2156 H 215.304 -0.567103 -0.345384 0
M  V30 2157 H 217.834 -1.98879 -0.480445 0
M  V30 2158 H 217.844 -3.0887 -2.66577 0
M  V30 2159 H 216.519 -3.77685 -1.74146 0
M  V30 2160 H 215.096 -2.35277 -2.89308 0
M  V30 2161 N 217.281 0.66697 -1.42791 0
M  V30 2162 C 218.529 1.42417 -1.43394 0
M  V30 2163 C 218.85 1.94925 -0.0542373 0
M  V30 2164 O 218.12 1.73564 0.908415 0
M  V30 2165 H 216.7 0.528515 -0.527902 0
M  V30 2166 H 219.362 0.787562 -1.78279 0
M  V30 2167 H 218.458 2.27333 -2.13837 0
M  V30 2168 N 218.759 1.29093 0.90403 0
M  V30 2169 C 220.036 1.075 1.63411 0
M  V30 2170 C 220.416 -0.382346 2.07609 0
M  V30 2171 O 219.764 -1.37031 1.82851 0
M  V30 2172 C 219.974 2.05858 2.81822 0
M  V30 2173 C 221.322 2.36539 3.52611 0
M  V30 2174 O 222.346 2.04019 2.91984 0
M  V30 2175 O 221.205 2.92085 4.61897 0
M  V30 2176 H 218.299 0.411547 0.717327 0
M  V30 2177 H 220.845 1.40449 0.952479 0
M  V30 2178 H 219.617 3.04037 2.46327 0
M  V30 2179 H 219.24 1.73613 3.57693 0
M  V30 2180 N 220.237 -1.11381 1.11499 0
M  V30 2181 C 221.2 -2.15622 0.777153 0
M  V30 2182 C 222.2 -1.59504 -0.203779 0
M  V30 2183 O 223.39 -1.74188 0.020782 0
M  V30 2184 C 220.522 -3.40556 0.153116 0
M  V30 2185 H 221.715 -2.47021 1.70061 0
M  V30 2186 H 219.268 -1.26577 0.916952 0
M  V30 2187 H 220.003 -3.14767 -0.780536 0
M  V30 2188 H 219.788 -3.8257 0.859238 0
M  V30 2189 H 221.278 -4.17546 -0.0671044 0
M  V30 2190 N 221.715 -0.905404 -1.28997 0
M  V30 2191 C 222.962 -0.534248 -1.95325 0
M  V30 2192 C 223.29 0.920535 -1.71337 0
M  V30 2193 O 222.545 1.66861 -1.02254 0
M  V30 2194 C 222.844 -0.779906 -3.48787 0
M  V30 2195 C 222.51 -2.21293 -3.92861 0
M  V30 2196 C 221.172 -2.60475 -4.04606 0
M  V30 2197 C 223.524 -3.14587 -4.15553 0
M  V30 2198 C 220.852 -3.9212 -4.36416 0
M  V30 2199 C 223.204 -4.45787 -4.48839 0
M  V30 2200 C 221.868 -4.84834 -4.58794 0
M  V30 2201 H 221.138 -0.195495 -0.714747 0
M  V30 2202 H 223.785 -1.14514 -1.53488 0
M  V30 2203 H 222.09 -0.0861365 -3.91705 0
M  V30 2204 H 223.787 -0.472029 -3.98212 0
M  V30 2205 H 220.377 -1.89887 -3.84241 0
M  V30 2206 H 224.561 -2.85528 -4.0594 0
M  V30 2207 H 219.817 -4.22086 -4.42327 0
M  V30 2208 H 223.991 -5.18098 -4.65346 0
M  V30 2209 H 221.618 -5.86877 -4.83197 0
M  V30 2210 N 223.193 1.4272 -0.668489 0
M  V30 2211 C 224.442 2.00846 -0.185389 0
M  V30 2212 C 224.755 1.53442 1.21305 0
M  V30 2213 O 225.961 2.03944 1.79218 0
M  V30 2214 C 224.417 3.58805 -0.280591 0
M  V30 2215 C 224.025 4.15198 -1.68268 0
M  V30 2216 C 225.769 4.24255 0.14412 0
M  V30 2217 C 223.676 5.655 -1.73099 0
M  V30 2218 H 222.606 0.751145 -0.0655475 0
M  V30 2219 H 225.257 1.63516 -0.832752 0
M  V30 2220 H 223.639 3.93608 0.434553 0
M  V30 2221 H 224.813 3.91866 -2.42441 0
M  V30 2222 H 223.128 3.62176 -2.05469 0
M  V30 2223 H 225.725 5.34547 0.128086 0
M  V30 2224 H 226.068 3.99277 1.17827 0
M  V30 2225 H 226.601 3.94389 -0.519798 0
M  V30 2226 H 223.34 5.95268 -2.74475 0
M  V30 2227 H 222.86 5.90842 -1.03274 0
M  V30 2228 H 224.539 6.29808 -1.48158 0
M  V30 2229 N 224.671 0.411399 1.52136 0
M  V30 2230 C 225.619 -0.427633 2.28635 0
M  V30 2231 C 226.613 -1.04383 1.33419 0
M  V30 2232 O 227.819 -0.981772 1.50868 0
M  V30 2233 H 224.194 -0.156689 0.735495 0
M  V30 2234 H 226.165 0.238761 2.97443 0
M  V30 2235 C 224.914 -1.53082 3.12188 0
M  V30 2236 H 224.237 -1.06601 3.85326 0
M  V30 2237 H 225.677 -2.09167 3.68816 0
M  V30 2238 C 224.136 -2.49946 2.25895 0
M  V30 2239 O 224.666 -3.53884 1.90076 0
M  V30 2240 N 222.872 -2.2021 1.8962 0
M  V30 2241 H 222.419 -1.35719 2.18948 0
M  V30 2242 H 222.377 -2.85266 1.32176 0
M  V30 2243 N 226.149 -1.5696 0.141893 0
M  V30 2244 C 227.397 -1.95573 -0.509484 0
M  V30 2245 C 227.718 -1.02746 -1.65736 0
M  V30 2246 O 226.988 -0.0880311 -1.95702 0
M  V30 2247 H 225.568 -0.722115 -0.191205 0
M  V30 2248 H 228.23 -1.93697 0.216196 0
M  V30 2249 H 227.326 -2.99171 -0.889 0
M  V30 2250 N 227.627 0.131896 -1.57047 0
M  V30 2251 C 228.852 0.860418 -1.8871 0
M  V30 2252 C 229.277 1.73251 -0.73251 0
M  V30 2253 O 228.635 1.785 0.317429 0
M  V30 2254 C 228.683 1.68047 -3.19049 0
M  V30 2255 O 227.787 2.7862 -3.04047 0
M  V30 2256 H 227.128 0.238743 -0.619595 0
M  V30 2257 H 229.658 0.118169 -2.04258 0
M  V30 2258 H 229.668 2.07238 -3.51449 0
M  V30 2259 H 228.343 1.04018 -4.02682 0
M  V30 2260 H 226.92 2.42726 -2.83088 0
M  V30 2261 N 229.106 1.52395 0.401703 0
M  V30 2262 C 230.352 1.67065 1.14966 0
M  V30 2263 C 230.685 0.403052 1.89971 0
M  V30 2264 O 229.96 -0.598774 1.85054 0
M  V30 2265 C 230.243 2.8975 2.13815 0
M  V30 2266 C 230.096 4.26578 1.42658 0
M  V30 2267 C 231.415 3.07965 3.14397 0
M  V30 2268 H 228.534 0.607968 0.416587 0
M  V30 2269 H 231.176 1.84965 0.434511 0
M  V30 2270 H 229.326 2.74619 2.74803 0
M  V30 2271 H 230.998 4.53451 0.847329 0
M  V30 2272 H 229.241 4.27639 0.72849 0
M  V30 2273 H 229.912 5.08483 2.14823 0
M  V30 2274 H 232.388 3.22043 2.63491 0
M  V30 2275 H 231.264 3.95308 3.80819 0
M  V30 2276 H 231.525 2.21611 3.82545 0
M  V30 2277 N 230.584 -0.659388 1.43143 0
M  V30 2278 C 231.832 -1.41654 1.44147 0
M  V30 2279 C 232.153 -1.94893 0.0645739 0
M  V30 2280 O 231.423 -1.74044 -0.899198 0
M  V30 2281 H 230.003 -0.525708 0.530697 0
M  V30 2282 H 232.665 -0.778097 1.78694 0
M  V30 2283 H 231.761 -2.26195 2.1504 0
M  V30 2284 N 232.062 -1.29571 -0.897171 0
M  V30 2285 C 232.992 -1.17473 -2.01798 0
M  V30 2286 C 233.973 -0.068323 -1.69963 0
M  V30 2287 O 235.158 -0.248239 -1.92607 0
M  V30 2288 C 232.288 -0.853099 -3.36659 0
M  V30 2289 C 231.242 -1.9161 -3.82713 0
M  V30 2290 C 230.568 -1.44773 -5.14728 0
M  V30 2291 C 231.868 -3.32535 -4.02763 0
M  V30 2292 H 233.562 -2.11237 -2.12177 0
M  V30 2293 H 231.108 -1.01699 -1.01948 0
M  V30 2294 H 233.061 -0.755165 -4.14578 0
M  V30 2295 H 231.785 0.120236 -3.26379 0
M  V30 2296 H 230.444 -2.00346 -3.07013 0
M  V30 2297 H 230.092 -0.462995 -5.00865 0
M  V30 2298 H 229.792 -2.15865 -5.46513 0
M  V30 2299 H 231.316 -1.36334 -5.95185 0
M  V30 2300 H 232.73 -3.26626 -4.71156 0
M  V30 2301 H 231.127 -4.01607 -4.45905 0
M  V30 2302 H 232.197 -3.75326 -3.07016 0
M  V30 2303 N 233.54 1.10788 -1.12088 0
M  V30 2304 C 234.503 2.15207 -0.788577 0
M  V30 2305 C 235.503 1.59609 0.195317 0
M  V30 2306 O 236.693 1.74174 -0.0300193 0
M  V30 2307 C 233.825 3.4047 -0.171174 0
M  V30 2308 H 235.018 2.46116 -1.71368 0
M  V30 2309 H 232.571 1.26089 -0.923652 0
M  V30 2310 H 233.306 3.15176 0.763832 0
M  V30 2311 H 233.091 3.82109 -0.879514 0
M  V30 2312 H 234.581 4.17576 0.04496 0
M  V30 2313 N 235.018 0.912232 1.28515 0
M  V30 2314 C 235.965 0.397954 2.27343 0
M  V30 2315 C 236.935 -0.526766 1.57526 0
M  V30 2316 O 238.12 -0.449292 1.85435 0
M  V30 2317 C 235.26 -0.357263 3.43246 0
M  V30 2318 C 234.373 0.599788 4.27816 0
M  V30 2319 C 233.508 -0.173725 5.30916 0
M  V30 2320 C 232.547 0.777039 6.07148 0
M  V30 2321 N 231.684 0.0371398 7.0209 0
M  V30 2322 H 236.524 1.24577 2.70711 0
M  V30 2323 H 234.061 0.625612 1.33133 0
M  V30 2324 H 236.019 -0.8113 4.09236 0
M  V30 2325 H 234.649 -1.16943 3.00872 0
M  V30 2326 H 233.701 1.17235 3.61884 0
M  V30 2327 H 235.013 1.32704 4.80823 0
M  V30 2328 H 234.167 -0.688394 6.02782 0
M  V30 2329 H 232.906 -0.934041 4.78672 0
M  V30 2330 H 231.911 1.3031 5.34134 0
M  V30 2331 H 233.136 1.53689 6.61481 0
M  V30 2332 H 231.082 -0.705213 6.52198 0
M  V30 2333 H 230.999 0.704249 7.52713 0
M  V30 2334 H 232.267 -0.457383 7.78157 0
M  V30 2335 N 236.496 -1.42363 0.676048 0
M  V30 2336 C 237.745 -2.00745 0.196037 0
M  V30 2337 C 238.058 -1.54083 -1.20489 0
M  V30 2338 O 239.264 -2.04891 -1.78134 0
M  V30 2339 C 237.72 -3.58651 0.299616 0
M  V30 2340 C 237.328 -4.143 1.70468 0
M  V30 2341 C 239.072 -4.24326 -0.121619 0
M  V30 2342 C 236.979 -5.64574 1.76096 0
M  V30 2343 H 235.909 -0.750787 0.0695301 0
M  V30 2344 H 238.56 -1.63072 0.841412 0
M  V30 2345 H 236.942 -3.93833 -0.413673 0
M  V30 2346 H 238.116 -3.90575 2.44515 0
M  V30 2347 H 236.431 -3.61081 2.07387 0
M  V30 2348 H 239.028 -5.34607 -0.0997362 0
M  V30 2349 H 239.371 -3.99897 -1.15708 0
M  V30 2350 H 239.904 -3.94108 0.540706 0
M  V30 2351 H 236.643 -5.93804 2.77628 0
M  V30 2352 H 236.163 -5.90286 1.06406 0
M  V30 2353 H 237.842 -6.29013 1.51496 0
M  V30 2354 N 237.974 -0.419461 -1.51915 0
M  V30 2355 C 239.39 -0.0708431 -1.59443 0
M  V30 2356 C 239.59 1.41796 -1.43164 0
M  V30 2357 O 238.646 2.18596 -1.26381 0
M  V30 2358 C 239.959 -0.574991 -2.95151 0
M  V30 2359 C 241.507 -0.533867 -3.08413 0
M  V30 2360 C 241.982 -1.01469 -4.46618 0
M  V30 2361 N 243.473 -0.971939 -4.52888 0
M  V30 2362 C 244.208 -1.31505 -5.58116 0
M  V30 2363 N 243.704 -1.73014 -6.70849 0
M  V30 2364 N 245.497 -1.23436 -5.48379 0
M  V30 2365 H 237.648 -1.38836 -1.60743 0
M  V30 2366 H 239.911 -0.570998 -0.756747 0
M  V30 2367 H 239.617 -1.61597 -3.12377 0
M  V30 2368 H 239.491 0.00979777 -3.77199 0
M  V30 2369 H 241.878 0.498086 -2.90866 0
M  V30 2370 H 241.959 -1.15484 -2.28248 0
M  V30 2371 H 241.603 -2.04502 -4.6491 0
M  V30 2372 H 241.533 -0.370433 -5.25295 0
M  V30 2373 H 244.024 -0.666893 -3.71969 0
M  V30 2374 H 244.337 -1.97479 -7.47143 0
M  V30 2375 H 242.682 -1.76926 -6.72103 0
M  V30 2376 H 245.873 -0.908869 -4.59192 0
M  V30 2377 H 246.046 -1.50506 -6.30279 0
M  V30 2378 N 239.452 1.56882 -0.150215 0
M  V30 2379 C 240.402 2.13501 0.800071 0
M  V30 2380 C 241.386 1.06368 1.20726 0
M  V30 2381 O 242.578 1.32538 1.17314 0
M  V30 2382 C 239.707 2.76271 2.03787 0
M  V30 2383 C 238.793 3.90533 1.65364 0
M  V30 2384 N 239.184 4.96259 0.977794 0
M  V30 2385 C 237.482 4.013 1.94613 0
M  V30 2386 C 238.183 5.76286 0.791794 0
M  V30 2387 N 237.159 5.27163 1.32666 0
M  V30 2388 H 240.961 2.92615 0.274517 0
M  V30 2389 H 238.475 1.62319 0.0512144 0
M  V30 2390 H 240.472 3.15197 2.72867 0
M  V30 2391 H 239.132 1.98631 2.56857 0
M  V30 2392 H 240.143 5.13953 0.638193 0
M  V30 2393 H 236.82 3.3474 2.4951 0
M  V30 2394 H 238.21 6.71401 0.258894 0
M  V30 2395 N 240.93 -0.123565 1.57115 0
M  V30 2396 C 241.878 -1.17082 2.00984 0
M  V30 2397 C 242.872 -1.43136 0.906009 0
M  V30 2398 O 244.078 -1.43152 1.09121 0
M  V30 2399 H 240.453 -0.394653 0.64012 0
M  V30 2400 H 242.424 -0.774292 2.88179 0
M  V30 2401 C 241.173 -2.49057 2.42623 0
M  V30 2402 H 240.496 -2.29846 3.27125 0
M  V30 2403 H 241.936 -3.20906 2.7712 0
M  V30 2404 C 240.395 -3.11305 1.28805 0
M  V30 2405 O 240.925 -3.97171 0.60153 0
M  V30 2406 N 239.131 -2.71111 1.04628 0
M  V30 2407 H 238.678 -2.01382 1.60634 0
M  V30 2408 H 238.636 -3.1309 0.286685 0
M  V30 2409 N 242.408 -1.52605 -0.393616 0
M  V30 2410 C 243.655 -1.67424 -1.1391 0
M  V30 2411 C 243.983 -0.411859 -1.90089 0
M  V30 2412 O 243.238 0.605626 -1.86093 0
M  V30 2413 C 243.537 -2.85721 -2.14705 0
M  V30 2414 C 243.203 -4.23342 -1.55218 0
M  V30 2415 C 241.865 -4.60771 -1.3872 0
M  V30 2416 C 244.217 -5.09041 -1.11924 0
M  V30 2417 C 241.545 -5.81563 -0.774689 0
M  V30 2418 C 243.897 -6.30452 -0.520853 0
M  V30 2419 C 242.561 -6.66617 -0.343134 0
M  V30 2420 H 241.831 -0.612648 -0.416826 0
M  V30 2421 H 244.478 -1.8674 -0.424315 0
M  V30 2422 H 242.783 -2.60803 -2.92385 0
M  V30 2423 H 244.48 -2.94382 -2.72288 0
M  V30 2424 H 241.07 -3.93855 -1.69045 0
M  V30 2425 H 245.254 -4.80695 -1.23473 0
M  V30 2426 H 240.51 -6.08196 -0.625154 0
M  V30 2427 H 244.684 -6.96175 -0.177065 0
M  V30 2428 H 242.311 -7.60083 0.133571 0
M  V30 2429 N 243.887 0.651787 -1.4349 0
M  V30 2430 C 245.298 1.233 -1.40193 0
M  V30 2431 C 245.649 1.9591 -0.106727 0
M  V30 2432 O 244.774 2.01316 0.793773 0
M  V30 2433 C 245.369 2.24257 -2.53957 0
M  V30 2434 C 243.928 2.77852 -2.5392 0
M  V30 2435 C 243.075 1.52517 -2.3159 0
M  V30 2436 H 246.026 0.443717 -1.52371 0
M  V30 2437 H 246.047 3.0646 -2.25528 0
M  V30 2438 H 245.559 1.71382 -3.4821 0
M  V30 2439 H 243.66 3.34786 -1.63551 0
M  V30 2440 H 243.773 3.25299 -3.51735 0
M  V30 2441 H 242.137 1.79915 -1.80285 0
M  V30 2442 H 242.92 1.01574 -3.27929 0
M  V30 2443 N 245.365 1.30045 0.890287 0
M  V30 2444 C 246.297 1.11786 2.00091 0
M  V30 2445 C 247.31 0.0626307 1.62679 0
M  V30 2446 O 248.499 0.308112 1.75821 0
M  V30 2447 C 245.599 0.681527 3.31977 0
M  V30 2448 C 244.772 1.81735 3.97858 0
M  V30 2449 C 243.831 1.37045 5.08041 0
M  V30 2450 O 242.857 2.07677 5.29961 0
M  V30 2451 N 244.059 0.246525 5.79976 0
M  V30 2452 H 246.824 2.07441 2.16306 0
M  V30 2453 H 244.385 1.2211 1.06305 0
M  V30 2454 H 246.377 0.365675 4.03045 0
M  V30 2455 H 244.947 -0.182828 3.12065 0
M  V30 2456 H 244.167 2.30159 3.20032 0
M  V30 2457 H 245.455 2.57865 4.38615 0
M  V30 2458 H 244.853 -0.34215 5.64664 0
M  V30 2459 H 243.41 -0.00990438 6.51799 0
M  V30 2460 N 246.843 -1.10192 1.12674 0
M  V30 2461 C 247.806 -2.14786 0.799979 0
M  V30 2462 C 248.806 -1.59711 -0.18685 0
M  V30 2463 O 249.996 -1.74156 0.0392558 0
M  V30 2464 C 247.128 -3.40374 0.189228 0
M  V30 2465 H 248.321 -2.45203 1.72671 0
M  V30 2466 H 245.874 -1.25597 0.930326 0
M  V30 2467 H 246.609 -3.15577 -0.747107 0
M  V30 2468 H 246.394 -3.81637 0.899766 0
M  V30 2469 H 247.884 -4.17594 -0.0228143 0
M  V30 2470 N 248.321 -0.919034 -1.28029 0
M  V30 2471 C 249.57 -0.550802 -1.94034 0
M  V30 2472 C 249.883 0.910877 -1.73096 0
M  V30 2473 O 251.089 1.3875 -2.33368 0
M  V30 2474 C 249.545 -0.934249 -3.47563 0
M  V30 2475 C 249.153 -2.41602 -3.7727 0
M  V30 2476 C 250.897 -0.636854 -4.19696 0
M  V30 2477 C 248.804 -2.73932 -5.24133 0
M  V30 2478 H 247.734 -0.202273 -0.726362 0
M  V30 2479 H 250.385 -1.11867 -1.45458 0
M  V30 2480 H 248.767 -0.295115 -3.94899 0
M  V30 2481 H 249.941 -3.10233 -3.40723 0
M  V30 2482 H 248.256 -2.68441 -3.18321 0
M  V30 2483 H 250.853 -0.855005 -5.2782 0
M  V30 2484 H 251.196 0.425575 -4.14119 0
M  V30 2485 H 251.729 -1.23469 -3.78154 0
M  V30 2486 H 248.468 -3.79049 -5.34792 0
M  V30 2487 H 247.988 -2.09942 -5.61858 0
M  V30 2488 H 249.667 -2.61215 -5.91925 0
M  V30 2489 N 249.799 1.42003 -0.683588 0
M  V30 2490 C 250.762 2.29191 -0.0198243 0
M  V30 2491 C 251.762 1.43773 0.72013 0
M  V30 2492 O 252.952 1.65061 0.556815 0
M  V30 2493 C 250.084 3.26435 0.982487 0
M  V30 2494 H 251.277 2.8938 -0.787345 0
M  V30 2495 H 248.83 1.49789 -0.446418 0
M  V30 2496 H 249.565 2.71203 1.77819 0
M  V30 2497 H 249.35 3.89449 0.455182 0
M  V30 2498 H 250.84 3.918 1.44508 0
M  V30 2499 N 251.277 0.427512 1.51691 0
M  V30 2500 C 252.523 -0.142439 2.02299 0
M  V30 2501 C 252.856 -1.43214 1.31162 0
M  V30 2502 O 252.131 -1.89833 0.423511 0
M  V30 2503 C 252.414 -0.371301 3.58181 0
M  V30 2504 C 252.267 0.936358 4.39946 0
M  V30 2505 C 253.586 -1.14542 4.24933 0
M  V30 2506 H 250.705 -0.0502937 0.735282 0
M  V30 2507 H 253.347 0.564584 1.81418 0
M  V30 2508 H 251.497 -0.973559 3.76104 0
M  V30 2509 H 253.169 1.57184 4.33694 0
M  V30 2510 H 251.412 1.5432 4.05423 0
M  V30 2511 H 252.083 0.730388 5.47147 0
M  V30 2512 H 254.559 -0.635362 4.11221 0
M  V30 2513 H 253.435 -1.27431 5.33903 0
M  V30 2514 H 253.696 -2.17093 3.85127 0
M  V30 2515 N 252.755 -1.56801 0.158532 0
M  V30 2516 C 253.665 -2.20916 -0.789518 0
M  V30 2517 C 254.681 -1.1969 -1.26294 0
M  V30 2518 O 255.857 -1.52308 -1.31773 0
M  V30 2519 C 252.922 -2.82727 -2.00665 0
M  V30 2520 C 251.983 -3.99114 -1.58134 0
M  V30 2521 C 251.216 -4.57968 -2.74045 0
M  V30 2522 O 251.439 -4.15704 -3.90572 0
M  V30 2523 O 250.373 -5.48047 -2.48855 0
M  V30 2524 H 254.199 -3.02464 -0.273681 0
M  V30 2525 H 251.784 -1.4924 -0.0690548 0
M  V30 2526 H 253.666 -3.21968 -2.71872 0
M  V30 2527 H 252.341 -2.04184 -2.51179 0
M  V30 2528 H 251.248 -3.64567 -0.839155 0
M  V30 2529 H 252.581 -4.79212 -1.12325 0
M  V30 2530 N 254.233 0.115231 -1.57178 0
M  V30 2531 C 255.166 1.17166 -1.95825 0
M  V30 2532 C 256.144 1.39912 -0.828463 0
M  V30 2533 O 257.328 1.54004 -1.08697 0
M  V30 2534 C 254.455 2.52478 -2.25771 0
M  V30 2535 C 253.501 2.46136 -3.48309 0
M  V30 2536 S 254.334 1.89736 -5.0076 0
M  V30 2537 C 255.49 3.26713 -5.33863 0
M  V30 2538 H 255.723 0.842103 -2.85124 0
M  V30 2539 H 253.256 0.322136 -1.51002 0
M  V30 2540 H 255.214 3.30332 -2.43702 0
M  V30 2541 H 253.875 2.82609 -1.37079 0
M  V30 2542 H 253.068 3.45819 -3.66641 0
M  V30 2543 H 252.67 1.76404 -3.29784 0
M  V30 2544 H 254.962 4.22935 -5.29275 0
M  V30 2545 H 255.905 3.13205 -6.35065 0
M  V30 2546 H 256.313 3.25316 -4.61335 0
M  V30 2547 N 255.711 1.52812 0.385517 0
M  V30 2548 C 256.621 1.80766 1.49535 0
M  V30 2549 C 257.637 0.694651 1.59532 0
M  V30 2550 O 258.813 0.982611 1.75803 0
M  V30 2551 C 255.878 1.97381 2.85029 0
M  V30 2552 C 254.939 3.21295 2.84724 0
M  V30 2553 C 254.172 3.37108 4.13756 0
M  V30 2554 O 254.395 2.5765 5.08893 0
M  V30 2555 O 253.329 4.30378 4.20783 0
M  V30 2556 H 257.155 2.75015 1.28842 0
M  V30 2557 H 254.74 1.37946 0.573697 0
M  V30 2558 H 256.622 2.09996 3.65349 0
M  V30 2559 H 255.297 1.06322 3.05741 0
M  V30 2560 H 254.204 3.1412 2.03174 0
M  V30 2561 H 255.537 4.12212 2.68965 0
M  V30 2562 N 257.189 -0.644168 1.43834 0
M  V30 2563 C 258.152 -1.73857 1.49353 0
M  V30 2564 C 259.152 -1.56315 0.377112 0
M  V30 2565 O 260.342 -1.62048 0.639226 0
M  V30 2566 C 257.474 -3.12819 1.35488 0
M  V30 2567 H 258.667 -1.70342 2.46827 0
M  V30 2568 H 256.22 -0.856652 1.30733 0
M  V30 2569 H 256.955 -3.2194 0.390569 0
M  V30 2570 H 256.74 -3.26958 2.16428 0
M  V30 2571 H 258.23 -3.92606 1.42302 0
M  V30 2572 N 258.668 -1.30515 -0.883378 0
M  V30 2573 C 259.896 -1.22359 -1.66841 0
M  V30 2574 C 260.311 0.213296 -1.87591 0
M  V30 2575 O 259.668 1.14075 -1.42454 0
M  V30 2576 C 259.719 -1.95011 -3.04389 0
M  V30 2577 O 259.44 -3.3309 -2.84575 0
M  V30 2578 C 260.941 -1.93532 -3.98824 0
M  V30 2579 H 258.161 -0.423371 -0.520575 0
M  V30 2580 H 260.705 -1.72167 -1.10357 0
M  V30 2581 H 258.86 -1.48997 -3.57601 0
M  V30 2582 H 259.274 -3.69907 -3.71846 0
M  V30 2583 H 260.748 -2.48902 -4.92699 0
M  V30 2584 H 261.225 -0.914627 -4.29571 0
M  V30 2585 H 261.831 -2.39364 -3.51547 0
M  V30 2586 N 260.146 1.09593 -1.13257 0
M  V30 2587 C 261.109 2.14359 -0.811358 0
M  V30 2588 C 262.109 1.59808 0.178377 0
M  V30 2589 O 263.299 1.74132 -0.0484911 0
M  V30 2590 C 260.431 3.40269 -0.207276 0
M  V30 2591 H 261.624 2.44284 -1.73969 0
M  V30 2592 H 259.177 1.25102 -0.936973 0
M  V30 2593 H 259.912 3.15969 0.73036 0
M  V30 2594 H 259.697 3.81154 -0.919992 0
M  V30 2595 H 261.187 4.176 0.000667944 0
M  V30 2596 N 261.624 0.925811 1.2754 0
M  V30 2597 C 262.873 0.561084 1.93739 0
M  V30 2598 C 263.186 -0.901685 1.73577 0
M  V30 2599 O 264.392 -1.37511 2.34101 0
M  V30 2600 C 262.848 0.952668 3.47062 0
M  V30 2601 C 262.456 2.43599 3.75983 0
M  V30 2602 C 264.2 0.659103 4.19352 0
M  V30 2603 C 262.107 2.76707 5.22673 0
M  V30 2604 H 261.037 0.206122 0.725279 0
M  V30 2605 H 263.688 1.12637 1.44863 0
M  V30 2606 H 262.07 0.316053 3.94737 0
M  V30 2607 H 263.244 3.12035 3.39073 0
M  V30 2608 H 261.559 2.70125 3.16893 0
M  V30 2609 H 264.156 0.882985 5.27359 0
M  V30 2610 H 264.499 -0.403607 4.14339 0
M  V30 2611 H 265.032 1.25473 3.77494 0
M  V30 2612 H 261.771 3.8188 5.32774 0
M  V30 2613 H 261.291 2.12919 5.60737 0
M  V30 2614 H 262.97 2.6435 5.90532 0
M  V30 2615 N 263.102 -1.41638 0.69111 0
M  V30 2616 C 264.065 -2.29178 0.0319786 0
M  V30 2617 C 265.065 -1.44153 -0.712496 0
M  V30 2618 O 266.255 -1.65354 -0.548053 0
M  V30 2619 C 263.387 -3.26952 -0.965161 0
M  V30 2620 H 264.58 -2.88959 0.802681 0
M  V30 2621 H 262.133 -1.4955 0.454356 0
M  V30 2622 H 262.868 -2.72142 -1.76378 0
M  V30 2623 H 262.653 -3.89685 -0.434522 0
M  V30 2624 H 264.143 -3.92561 -1.42428 0
M  V30 2625 N 264.58 -0.43555 -1.51462 0
M  V30 2626 C 265.53 0.394701 -2.24558 0
M  V30 2627 C 266.514 0.99157 -1.26715 0
M  V30 2628 O 267.706 0.910007 -1.51815 0
M  V30 2629 C 264.835 1.4963 -3.08975 0
M  V30 2630 C 263.921 0.908912 -4.14246 0
M  V30 2631 N 264.312 0.0505335 -5.05775 0
M  V30 2632 C 262.61 1.17668 -4.30198 0
M  V30 2633 C 263.311 -0.279161 -5.8103 0
M  V30 2634 N 262.287 0.336767 -5.42556 0
M  V30 2635 H 266.089 -0.267106 -2.92684 0
M  V30 2636 H 263.603 -0.247518 -1.60503 0
M  V30 2637 H 265.6 2.10394 -3.59917 0
M  V30 2638 H 264.26 2.16046 -2.42393 0
M  V30 2639 H 265.271 -0.31577 -5.16936 0
M  V30 2640 H 261.948 1.83847 -3.74842 0
M  V30 2641 H 263.338 -0.977553 -6.64751 0
M  V30 2642 N 266.058 1.56714 -0.166846 0
M  V30 2643 C 267.304 1.97039 0.479962 0
M  V30 2644 C 267.637 1.05264 1.63197 0
M  V30 2645 O 266.912 0.0988833 1.94248 0
M  V30 2646 C 267.195 3.46867 0.967212 0
M  V30 2647 C 267.048 4.49421 -0.18466 0
M  V30 2648 C 268.367 3.9968 1.84238 0
M  V30 2649 H 265.486 0.71641 0.172992 0
M  V30 2650 H 268.128 1.8832 -0.252079 0
M  V30 2651 H 266.278 3.54428 1.59101 0
M  V30 2652 H 267.95 4.53924 -0.821621 0
M  V30 2653 H 266.193 4.25573 -0.840837 0
M  V30 2654 H 266.864 5.51644 0.198317 0
M  V30 2655 H 269.34 3.94723 1.31655 0
M  V30 2656 H 268.216 5.04941 2.15234 0
M  V30 2657 H 268.477 3.43226 2.78654 0
M  V30 2658 N 267.536 -0.106894 1.57237 0
M  V30 2659 C 268.776 -0.818277 1.87306 0
M  V30 2660 C 269.14 -1.76474 0.756371 0
M  V30 2661 O 270.341 -2.5186 0.939155 0
M  V30 2662 C 268.612 -1.53806 3.22612 0
M  V30 2663 S 270.171 -2.28935 3.74345 0
M  V30 2664 H 266.989 -0.272862 0.656557 0
M  V30 2665 H 269.591 -0.075988 1.95352 0
M  V30 2666 H 268.295 -0.834951 4.01817 0
M  V30 2667 H 267.826 -2.32049 3.17674 0
M  V30 2668 H 269.841 -3.54871 3.46815 0
M  V30 2669 N 269.014 -1.53014 -0.377408 0
M  V30 2670 C 269.964 -1.74996 -1.46152 0
M  V30 2671 C 270.948 -0.604236 -1.49123 0
M  V30 2672 O 272.14 -0.862489 -1.54564 0
M  V30 2673 C 269.269 -1.93267 -2.8373 0
M  V30 2674 C 268.355 -3.13807 -2.85283 0
M  V30 2675 N 268.746 -4.35941 -2.56493 0
M  V30 2676 C 267.044 -3.14288 -3.16448 0
M  V30 2677 C 267.745 -5.17615 -2.65424 0
M  V30 2678 N 266.721 -4.53559 -2.99641 0
M  V30 2679 H 270.523 -2.67044 -1.22738 0
M  V30 2680 H 268.037 -1.51479 -0.585479 0
M  V30 2681 H 270.034 -2.0714 -3.61799 0
M  V30 2682 H 268.694 -1.0244 -3.08117 0
M  V30 2683 H 269.705 -4.63876 -2.30302 0
M  V30 2684 H 266.382 -2.33312 -3.46225 0
M  V30 2685 H 267.772 -6.25006 -2.46612 0
M  V30 2686 N 270.492 0.636531 -1.44174 0
M  V30 2687 C 271.44 1.76995 -1.50915 0
M  V30 2688 C 272.434 1.65053 -0.381295 0
M  V30 2689 O 273.64 1.71197 -0.55601 0
M  V30 2690 H 270.015 0.584247 -0.473455 0
M  V30 2691 H 271.986 1.68432 -2.4632 0
M  V30 2692 C 270.735 3.15314 -1.46534 0
M  V30 2693 H 270.058 3.25149 -2.32633 0
M  V30 2694 H 271.498 3.9453 -1.55312 0
M  V30 2695 C 269.957 3.3639 -0.185305 0
M  V30 2696 O 270.487 3.94699 0.746688 0
M  V30 2697 N 268.693 2.9046 -0.0901606 0
M  V30 2698 H 268.24 2.43193 -0.849416 0
M  V30 2699 H 268.198 3.04937 0.765553 0
M  V30 2700 N 271.97 1.30982 0.876444 0
M  V30 2701 C 273.217 1.20296 1.62896 0
M  V30 2702 C 273.545 -0.240395 1.93009 0
M  V30 2703 O 272.8 -1.18733 1.55567 0
M  V30 2704 C 273.099 1.98572 2.9716 0
M  V30 2705 C 272.765 3.48125 2.86566 0
M  V30 2706 C 271.427 3.88905 2.83383 0
M  V30 2707 C 273.779 4.43322 2.74071 0
M  V30 2708 C 271.107 5.2316 2.65556 0
M  V30 2709 C 273.459 5.77695 2.57781 0
M  V30 2710 C 272.123 6.17704 2.52979 0
M  V30 2711 H 271.393 0.440193 0.59608 0
M  V30 2712 H 274.04 1.62177 1.01837 0
M  V30 2713 H 272.345 1.49352 3.62217 0
M  V30 2714 H 274.042 1.8769 3.54364 0
M  V30 2715 H 270.632 3.15723 2.89856 0
M  V30 2716 H 274.816 4.12752 2.75589 0
M  V30 2717 H 270.072 5.53241 2.60259 0
M  V30 2718 H 274.246 6.51091 2.47089 0
M  V30 2719 H 271.873 7.21678 2.38924 0
M  V30 2720 N 273.449 -1.08991 1.13837 0
M  V30 2721 C 274.397 -2.17841 0.815347 0
M  V30 2722 C 275.391 -1.68164 -0.204233 0
M  V30 2723 O 276.597 -1.79897 -0.0609304 0
M  V30 2724 H 272.972 -0.710654 0.245915 0
M  V30 2725 H 274.943 -2.42315 1.74143 0
M  V30 2726 C 273.692 -3.46381 0.302614 0
M  V30 2727 H 273.015 -3.84979 1.0785 0
M  V30 2728 H 274.455 -4.23844 0.115074 0
M  V30 2729 C 272.914 -3.22556 -0.972591 0
M  V30 2730 O 273.444 -3.45599 -2.04754 0
M  V30 2731 N 271.65 -2.76134 -0.905455 0
M  V30 2732 H 271.197 -2.57582 -0.0305421 0
M  V30 2733 H 271.155 -2.60571 -1.75926 0
M  V30 2734 N 274.927 -0.932562 -1.27047 0
M  V30 2735 C 276.173 -0.576412 -1.94436 0
M  V30 2736 C 276.506 0.880891 -1.73072 0
M  V30 2737 O 275.781 1.62905 -1.06264 0
M  V30 2738 C 276.064 -0.909031 -3.48437 0
M  V30 2739 C 275.917 -2.42044 -3.79123 0
M  V30 2740 C 277.236 -0.418341 -4.38107 0
M  V30 2741 H 274.355 -0.210888 -0.706184 0
M  V30 2742 H 276.997 -1.16522 -1.50075 0
M  V30 2743 H 275.147 -0.407947 -3.86352 0
M  V30 2744 H 276.819 -2.99359 -3.50973 0
M  V30 2745 H 275.062 -2.86758 -3.25503 0
M  V30 2746 H 275.733 -2.6037 -4.86736 0
M  V30 2747 H 278.209 -0.847856 -4.0737 0
M  V30 2748 H 277.085 -0.679981 -5.44672 0
M  V30 2749 H 277.346 0.681642 -4.36814 0
M  V30 2750 N 276.405 1.4127 -0.698611 0
M  V30 2751 C 277.816 1.84187 -0.305289 0
M  V30 2752 C 278.167 1.58449 1.15708 0
M  V30 2753 O 277.292 1.05651 1.88856 0
M  V30 2754 C 277.887 3.3435 -0.547314 0
M  V30 2755 C 276.446 3.75826 -0.207878 0
M  V30 2756 C 275.593 2.64647 -0.828099 0
M  V30 2757 H 278.544 1.30778 -0.89904 0
M  V30 2758 H 278.565 3.8001 0.192998 0
M  V30 2759 H 278.077 3.53051 -1.61172 0
M  V30 2760 H 276.178 3.62725 0.852143 0
M  V30 2761 H 276.291 4.74462 -0.665021 0
M  V30 2762 H 274.655 2.53395 -0.257458 0
M  V30 2763 H 275.438 2.86165 -1.89643 0
M  V30 2764 N 277.883 0.443576 1.51229 0
M  V30 2765 C 279.13 -0.120796 2.02139 0
M  V30 2766 C 279.458 -1.42166 1.32736 0
M  V30 2767 O 278.713 -1.90849 0.43301 0
M  V30 2768 C 279.012 -0.380579 3.55368 0
M  V30 2769 C 278.678 0.83523 4.43097 0
M  V30 2770 C 277.34 1.16864 4.66794 0
M  V30 2771 C 279.692 1.64601 4.94526 0
M  V30 2772 C 277.02 2.31339 5.39165 0
M  V30 2773 C 279.372 2.78181 5.68153 0
M  V30 2774 C 278.036 3.11969 5.90112 0
M  V30 2775 H 277.306 -0.0442023 0.73968 0
M  V30 2776 H 279.953 0.592046 1.82118 0
M  V30 2777 H 278.258 -1.17538 3.73754 0
M  V30 2778 H 279.955 -0.830777 3.923 0
M  V30 2779 H 276.545 0.565437 4.24854 0
M  V30 2780 H 280.729 1.40163 4.76097 0
M  V30 2781 H 275.985 2.57823 5.5438 0
M  V30 2782 H 280.159 3.41371 6.06992 0
M  V30 2783 H 277.786 4.00784 6.45969 0
M  V30 2784 N 279.361 -1.56624 0.175154 0
M  V30 2785 C 280.607 -1.9729 -0.469506 0
M  V30 2786 C 280.94 -1.06128 -1.62636 0
M  V30 2787 O 280.215 -0.109183 -1.94193 0
M  V30 2788 C 280.498 -3.47375 -0.948804 0
M  V30 2789 C 280.351 -4.49317 0.208491 0
M  V30 2790 C 281.67 -4.00652 -1.82116 0
M  V30 2791 H 278.789 -0.717317 -0.16919 0
M  V30 2792 H 281.431 -1.88184 0.262062 0
M  V30 2793 H 279.581 -3.55267 -1.57219 0
M  V30 2794 H 281.253 -4.53482 0.845682 0
M  V30 2795 H 279.496 -4.25121 0.863395 0
M  V30 2796 H 280.167 -5.51741 -0.169059 0
M  V30 2797 H 282.643 -3.95416 -1.2956 0
M  V30 2798 H 281.519 -5.06075 -2.12554 0
M  V30 2799 H 281.78 -3.44699 -2.7683 0
M  V30 2800 N 280.839 0.0985539 -1.57292 0
M  V30 2801 C 282.085 0.803867 -1.86188 0
M  V30 2802 C 282.418 1.78549 -0.763794 0
M  V30 2803 O 281.693 1.93153 0.22855 0
M  V30 2804 C 281.976 1.53568 -3.25713 0
M  V30 2805 C 281.829 0.572277 -4.46145 0
M  V30 2806 C 283.148 2.48708 -3.63087 0
M  V30 2807 H 280.267 0.290781 -0.677211 0
M  V30 2808 H 282.909 0.0675783 -1.8988 0
M  V30 2809 H 281.059 2.16332 -3.22696 0
M  V30 2810 H 282.731 -0.0480894 -4.61275 0
M  V30 2811 H 280.974 -0.114618 -4.33649 0
M  V30 2812 H 281.645 1.12139 -5.40489 0
M  V30 2813 H 284.121 1.96039 -3.67026 0
M  V30 2814 H 282.997 2.96932 -4.61652 0
M  V30 2815 H 283.258 3.32309 -2.91588 0
M  V30 2816 N 282.317 1.53212 0.369288 0
M  V30 2817 C 283.563 1.69466 1.11397 0
M  V30 2818 C 283.896 0.443257 1.89074 0
M  V30 2819 O 283.171 -0.559386 1.86282 0
M  V30 2820 C 283.454 2.9422 2.07621 0
M  V30 2821 C 283.307 4.29508 1.33577 0
M  V30 2822 C 284.626 3.14565 3.07794 0
M  V30 2823 H 281.745 0.616667 0.403597 0
M  V30 2824 H 284.387 1.85845 0.395179 0
M  V30 2825 H 282.537 2.80387 2.68916 0
M  V30 2826 H 284.209 4.55147 0.750955 0
M  V30 2827 H 282.452 4.29088 0.637618 0
M  V30 2828 H 283.123 5.12926 2.03989 0
M  V30 2829 H 285.599 3.2756 2.56601 0
M  V30 2830 H 284.475 4.03297 3.72348 0
M  V30 2831 H 284.736 2.29675 3.77759 0
M  V30 2832 N 283.795 -0.628877 1.44509 0
M  V30 2833 C 285.211 -0.947305 1.28446 0
M  V30 2834 C 285.411 -2.00275 0.221872 0
M  V30 2835 O 284.467 -2.49447 -0.391471 0
M  V30 2836 C 285.78 -1.40843 2.65676 0
M  V30 2837 C 287.328 -1.52379 2.73404 0
M  V30 2838 C 287.803 -2.01875 4.11109 0
M  V30 2839 N 289.294 -2.09142 4.13296 0
M  V30 2840 C 290.029 -2.48615 5.16699 0
M  V30 2841 N 289.525 -2.87209 6.30462 0
M  V30 2842 N 291.318 -2.48768 5.04054 0
M  V30 2843 H 283.469 0.0690977 2.12288 0
M  V30 2844 H 285.732 -0.0317164 0.947469 0
M  V30 2845 H 285.438 -0.707206 3.44516 0
M  V30 2846 H 285.312 -2.37902 2.92716 0
M  V30 2847 H 287.699 -2.21598 1.9488 0
M  V30 2848 H 287.78 -0.536898 2.50102 0
M  V30 2849 H 287.424 -1.3325 4.90109 0
M  V30 2850 H 287.354 -3.0144 4.31789 0
M  V30 2851 H 289.845 -1.81991 3.31191 0
M  V30 2852 H 290.158 -3.16149 7.05174 0
M  V30 2853 H 288.503 -2.84955 6.33897 0
M  V30 2854 H 291.694 -2.18009 4.14234 0
M  V30 2855 H 291.867 -2.79207 5.84763 0
M  V30 2856 N 285.273 -1.31445 -0.869486 0
M  V30 2857 C 286.236 -1.19094 -1.9583 0
M  V30 2858 C 287.236 -0.117906 -1.60367 0
M  V30 2859 O 288.426 -0.367208 -1.70286 0
M  V30 2860 C 285.558 -0.828165 -3.30688 0
M  V30 2861 H 286.751 -2.15842 -2.08212 0
M  V30 2862 H 284.304 -1.15063 -1.05784 0
M  V30 2863 H 285.039 0.138142 -3.24006 0
M  V30 2864 H 284.824 -1.6038 -3.578 0
M  V30 2865 H 286.314 -0.765658 -4.10521 0
M  V30 2866 N 286.751 1.08385 -1.14413 0
M  V30 2867 C 288 1.80153 -0.907076 0
M  V30 2868 C 288.313 1.87176 0.567851 0
M  V30 2869 O 289.519 2.55359 0.922172 0
M  V30 2870 C 287.975 3.23687 -1.57336 0
M  V30 2871 C 287.583 3.24897 -3.08457 0
M  V30 2872 C 289.327 4.00136 -1.41744 0
M  V30 2873 C 287.234 4.6302 -3.67921 0
M  V30 2874 H 286.164 0.675139 -0.335714 0
M  V30 2875 H 288.815 1.21733 -1.37307 0
M  V30 2876 H 287.197 3.82234 -1.03505 0
M  V30 2877 H 288.371 2.76055 -3.68958 0
M  V30 2878 H 286.686 2.61943 -3.2369 0
M  V30 2879 H 289.283 5.02201 -1.83572 0
M  V30 2880 H 289.626 4.14709 -0.363576 0
M  V30 2881 H 290.159 3.48058 -1.92614 0
M  V30 2882 H 286.898 4.5365 -4.73161 0
M  V30 2883 H 286.418 5.12143 -3.12201 0
M  V30 2884 H 288.097 5.31994 -3.68227 0
M  V30 2885 N 288.23 0.939286 1.26551 0
M  V30 2886 C 289.455 0.602008 1.98471 0
M  V30 2887 C 289.88 -0.815624 1.69497 0
M  V30 2888 O 289.238 -1.54912 0.941905 0
M  V30 2889 C 289.286 0.848407 3.50477 0
M  V30 2890 O 288.39 -0.0804009 4.12322 0
M  V30 2891 H 287.731 0.23049 0.622712 0
M  V30 2892 H 290.261 1.2617 1.61066 0
M  V30 2893 H 290.271 0.768553 4.00696 0
M  V30 2894 H 288.946 1.88171 3.70897 0
M  V30 2895 H 287.523 0.0503508 3.72866 0
M  V30 2896 N 289.708 -1.40897 0.706093 0
M  V30 2897 C 290.985 -1.94868 0.169099 0
M  V30 2898 C 291.365 -1.64485 -1.32318 0
M  V30 2899 O 290.713 -0.95744 -2.07474 0
M  V30 2900 C 290.923 -3.45798 0.471654 0
M  V30 2901 C 292.271 -4.22663 0.405127 0
M  V30 2902 O 293.295 -3.53865 0.407168 0
M  V30 2903 O 292.154 -5.45216 0.374383 0
M  V30 2904 H 289.248 -0.82673 0.0211352 0
M  V30 2905 H 291.794 -1.50558 0.782976 0
M  V30 2906 H 290.566 -3.61235 1.50416 0
M  V30 2907 H 290.189 -3.97225 -0.172666 0
M  V30 2908 N 291.186 -0.45159 -1.50991 0
M  V30 2909 C 292.432 0.110237 -2.025 0
M  V30 2910 C 292.765 1.41109 -1.33424 0
M  V30 2911 O 292.04 1.89135 -0.453659 0
M  V30 2912 C 292.323 0.314271 -3.58726 0
M  V30 2913 C 292.176 -1.00623 -4.38401 0
M  V30 2914 C 293.495 1.07767 -4.26702 0
M  V30 2915 H 290.614 0.0385897 -0.735989 0
M  V30 2916 H 293.256 -0.593374 -1.80497 0
M  V30 2917 H 291.406 0.913601 -3.77605 0
M  V30 2918 H 293.078 -1.64064 -4.31139 0
M  V30 2919 H 291.321 -1.6075 -4.02917 0
M  V30 2920 H 291.992 -0.817341 -5.45915 0
M  V30 2921 H 294.468 0.56986 -4.12179 0
M  V30 2922 H 293.344 1.18921 -5.35863 0
M  V30 2923 H 293.605 2.10939 -3.88532 0
M  V30 2924 N 292.664 1.56529 -0.183458 0
M  V30 2925 C 293.627 2.17324 0.728223 0
M  V30 2926 C 294.627 1.12453 1.14939 0
M  V30 2927 O 295.817 1.37902 1.06437 0
M  V30 2928 C 292.949 2.76591 1.99274 0
M  V30 2929 H 294.142 2.99241 0.198772 0
M  V30 2930 H 291.695 1.5616 0.0661391 0
M  V30 2931 H 292.43 1.98441 2.56499 0
M  V30 2932 H 292.215 3.5335 1.69959 0
M  V30 2933 H 293.705 3.23311 2.6431 0
M  V30 2934 N 294.142 -0.090211 1.57342 0
M  V30 2935 C 295.419 -0.824761 1.77361 0
M  V30 2936 C 295.799 -1.96698 0.76637 0
M  V30 2937 O 295.147 -2.27586 -0.204179 0
M  V30 2938 C 295.357 -1.31481 3.23286 0
M  V30 2939 C 296.705 -1.75563 3.86604 0
M  V30 2940 O 297.729 -1.41093 3.27065 0
M  V30 2941 O 296.588 -2.39317 4.91314 0
M  V30 2942 H 293.682 -0.393776 0.727234 0
M  V30 2943 H 296.228 -0.0717138 1.69548 0
M  V30 2944 H 295 -0.496671 3.88135 0
M  V30 2945 H 294.623 -2.12973 3.35751 0
M  V30 2946 N 295.62 -1.53406 -0.361157 0
M  V30 2947 C 296.552 -1.76446 -1.46286 0
M  V30 2948 C 297.565 -0.645322 -1.49464 0
M  V30 2949 O 298.754 -0.921681 -1.52864 0
M  V30 2950 C 295.854 -1.83332 -2.85031 0
M  V30 2951 C 295.027 -3.13033 -3.05498 0
M  V30 2952 C 294.086 -3.11104 -4.24383 0
M  V30 2953 O 293.112 -3.84888 -4.19344 0
M  V30 2954 N 294.314 -2.32234 -5.32022 0
M  V30 2955 H 297.079 -2.71508 -1.26899 0
M  V30 2956 H 294.64 -1.52238 -0.550915 0
M  V30 2957 H 296.632 -1.79514 -3.62708 0
M  V30 2958 H 295.202 -0.955342 -2.97644 0
M  V30 2959 H 294.422 -3.30119 -2.15442 0
M  V30 2960 H 295.71 -3.9874 -3.16044 0
M  V30 2961 H 295.108 -1.71807 -5.38979 0
M  V30 2962 H 293.665 -2.3423 -6.08259 0
M  V30 2963 N 297.098 0.621204 -1.44841 0
M  V30 2964 C 298.03 1.74615 -1.48466 0
M  V30 2965 C 299.043 1.58377 -0.37691 0
M  V30 2966 O 300.232 1.66508 -0.643215 0
M  V30 2967 C 297.332 3.12459 -1.31236 0
M  V30 2968 C 296.505 3.55064 -2.55438 0
M  V30 2969 C 295.564 4.71821 -2.32963 0
M  V30 2970 O 294.59 4.79628 -3.06505 0
M  V30 2971 N 295.792 5.64186 -1.36654 0
M  V30 2972 H 298.557 1.71973 -2.45449 0
M  V30 2973 H 296.118 0.806077 -1.40407 0
M  V30 2974 H 298.11 3.88302 -1.14032 0
M  V30 2975 H 296.68 3.09686 -0.4258 0
M  V30 2976 H 295.9 2.69324 -2.87851 0
M  V30 2977 H 297.188 3.80284 -3.38026 0
M  V30 2978 H 296.586 5.6058 -0.759344 0
M  V30 2979 H 295.143 6.39618 -1.25425 0
M  V30 2980 N 298.576 1.31904 0.862503 0
M  V30 2981 C 299.801 1.25135 1.65397 0
M  V30 2982 C 300.226 -0.179 1.87246 0
M  V30 2983 O 299.584 -1.1277 1.4196 0
M  V30 2984 C 299.632 2.00832 2.99498 0
M  V30 2985 O 298.736 1.35075 3.89652 0
M  V30 2986 H 298.077 0.431655 0.504549 0
M  V30 2987 H 300.607 1.74094 1.07483 0
M  V30 2988 H 300.617 2.10709 3.49379 0
M  V30 2989 H 299.292 3.04847 2.82916 0
M  V30 2990 H 297.869 1.33696 3.48109 0
M  V30 2991 N 300.054 -1.07777 1.14986 0
M  V30 2992 C 301.004 -2.13082 0.811181 0
M  V30 2993 C 301.988 -1.59619 -0.202597 0
M  V30 2994 O 303.18 -1.77 -0.00398275 0
M  V30 2995 C 300.309 -3.42009 0.297439 0
M  V30 2996 C 299.395 -4.02337 1.34112 0
M  V30 2997 N 299.786 -4.36982 2.54716 0
M  V30 2998 C 298.084 -4.29752 1.19285 0
M  V30 2999 C 298.785 -4.84729 3.21578 0
M  V30 3000 N 297.761 -4.83233 2.48972 0
M  V30 3001 H 301.563 -2.37696 1.72853 0
M  V30 3002 H 299.077 -1.25173 1.03468 0
M  V30 3003 H 301.074 -4.16884 0.0364777 0
M  V30 3004 H 299.734 -3.18841 -0.614022 0
M  V30 3005 H 300.745 -4.27807 2.91894 0
M  V30 3006 H 297.422 -4.16106 0.340926 0
M  V30 3007 H 298.812 -5.20863 4.24442 0
M  V30 3008 N 301.532 -0.945985 -1.26051 0
M  V30 3009 C 302.462 -0.477172 -2.28572 0
M  V30 3010 C 303.443 0.472032 -1.63419 0
M  V30 3011 O 304.628 0.372853 -1.90587 0
M  V30 3012 C 301.758 0.253975 -3.4637 0
M  V30 3013 C 300.712 -0.609135 -4.23643 0
M  V30 3014 C 300.038 0.252252 -5.34105 0
M  V30 3015 C 301.338 -1.8829 -4.8718 0
M  V30 3016 H 303.032 -1.33402 -2.68038 0
M  V30 3017 H 300.578 -0.642904 -1.28852 0
M  V30 3018 H 302.531 0.593016 -4.17207 0
M  V30 3019 H 301.255 1.145 -3.05871 0
M  V30 3020 H 299.914 -0.931138 -3.54578 0
M  V30 3021 H 299.562 1.14278 -4.89846 0
M  V30 3022 H 299.262 -0.32188 -5.86718 0
M  V30 3023 H 300.786 0.586454 -6.07777 0
M  V30 3024 H 302.2 -1.61081 -5.50205 0
M  V30 3025 H 300.597 -2.40199 -5.49931 0
M  V30 3026 H 301.667 -2.59134 -4.09851 0
M  V30 3027 N 303.011 1.40521 -0.713556 0
M  V30 3028 C 304.236 2.05759 -0.26035 0
M  V30 3029 C 304.661 1.53403 1.08854 0
M  V30 3030 O 304.019 0.668535 1.68524 0
M  V30 3031 C 304.067 3.59745 -0.248122 0
M  V30 3032 O 303.171 4.05123 0.77131 0
M  V30 3033 H 302.512 0.652564 -0.122703 0
M  V30 3034 H 305.042 1.79958 -0.973467 0
M  V30 3035 H 305.052 4.07911 -0.0851129 0
M  V30 3036 H 303.727 3.97218 -1.2325 0
M  V30 3037 H 302.304 3.68422 0.57619 0
M  V30 3038 N 304.489 0.459591 1.5075 0
M  V30 3039 C 305.736 -0.0993495 2.02256 0
M  V30 3040 C 306.064 -1.40751 1.34237 0
M  V30 3041 O 305.319 -1.90379 0.453228 0
M  V30 3042 C 305.618 -0.342866 3.55752 0
M  V30 3043 C 305.284 0.88218 4.42186 0
M  V30 3044 C 303.946 1.21808 4.65528 0
M  V30 3045 C 306.298 1.69837 4.92752 0
M  V30 3046 C 303.626 2.37045 5.36681 0
M  V30 3047 C 305.978 2.84192 5.65171 0
M  V30 3048 C 304.642 3.1821 5.8677 0
M  V30 3049 H 303.912 -0.0363545 0.740108 0
M  V30 3050 H 306.559 0.611329 1.8148 0
M  V30 3051 H 304.864 -1.13567 3.7498 0
M  V30 3052 H 306.561 -0.789121 3.93159 0
M  V30 3053 H 303.151 0.610467 4.2423 0
M  V30 3054 H 307.335 1.45205 4.74583 0
M  V30 3055 H 302.591 2.63689 5.51614 0
M  V30 3056 H 306.765 3.4779 6.03337 0
M  V30 3057 H 304.392 4.07613 6.41682 0
M  V30 3058 N 305.967 -1.56429 0.191757 0
M  V30 3059 C 307.244 -1.89224 -0.495332 0
M  V30 3060 C 307.624 -1.10478 -1.79883 0
M  V30 3061 O 306.972 -0.204852 -2.2758 0
M  V30 3062 C 307.182 -3.41548 -0.717367 0
M  V30 3063 C 308.53 -4.11711 -1.03823 0
M  V30 3064 O 309.554 -3.4698 -0.805204 0
M  V30 3065 O 308.413 -5.2611 -1.47887 0
M  V30 3066 H 305.507 -0.785788 -0.25781 0
M  V30 3067 H 308.053 -1.68111 0.231721 0
M  V30 3068 H 306.825 -3.90772 0.203287 0
M  V30 3069 H 306.448 -3.68342 -1.497 0
M  V30 3070 N 307.445 0.0818655 -1.57387 0
M  V30 3071 C 308.355 1.11642 -2.06333 0
M  V30 3072 C 309.371 1.43033 -0.99083 0
M  V30 3073 O 310.547 1.53411 -1.30488 0
M  V30 3074 C 307.612 2.41342 -2.48907 0
M  V30 3075 C 306.673 2.17014 -3.7041 0
M  V30 3076 C 305.906 3.4053 -4.10944 0
M  V30 3077 O 306.129 4.4927 -3.51444 0
M  V30 3078 O 305.063 3.29336 -5.03807 0
M  V30 3079 H 308.889 0.730657 -2.9478 0
M  V30 3080 H 306.474 0.295301 -1.46452 0
M  V30 3081 H 308.356 3.17691 -2.76858 0
M  V30 3082 H 307.031 2.79319 -1.63593 0
M  V30 3083 H 305.938 1.38403 -3.47556 0
M  V30 3084 H 307.271 1.83923 -4.56545 0
M  V30 3085 N 308.923 1.53595 0.353017 0
M  V30 3086 C 310.17 1.70385 1.09431 0
M  V30 3087 C 310.498 0.462113 1.88931 0
M  V30 3088 O 309.753 -0.556074 1.87633 0
M  V30 3089 C 310.052 2.91313 2.07054 0
M  V30 3090 C 309.718 4.27308 1.43939 0
M  V30 3091 C 308.38 4.64287 1.26454 0
M  V30 3092 C 310.732 5.11829 0.983883 0
M  V30 3093 C 308.06 5.83412 0.620226 0
M  V30 3094 C 310.412 6.31611 0.353516 0
M  V30 3095 C 309.076 6.67293 0.166272 0
M  V30 3096 H 308.346 0.623484 0.400436 0
M  V30 3097 H 310.993 1.87799 0.374655 0
M  V30 3098 H 309.298 2.68463 2.85368 0
M  V30 3099 H 310.995 3.01497 2.64387 0
M  V30 3100 H 307.585 3.98198 1.58543 0
M  V30 3101 H 311.769 4.838 1.10685 0
M  V30 3102 H 307.025 6.09639 0.463681 0
M  V30 3103 H 311.199 6.964 -0.00757555 0
M  V30 3104 H 308.826 7.59461 -0.335047 0
M  V30 3105 N 310.401 -0.613514 1.45168 0
M  V30 3106 C 311.331 -1.7354 1.56225 0
M  V30 3107 C 312.312 -1.64981 0.41414 0
M  V30 3108 O 313.497 -1.83472 0.636526 0
M  V30 3109 C 310.627 -3.12128 1.52295 0
M  V30 3110 C 309.581 -3.35491 2.65762 0
M  V30 3111 C 308.907 -4.74291 2.46885 0
M  V30 3112 C 310.207 -3.26325 4.0781 0
M  V30 3113 H 311.901 -1.64543 2.50132 0
M  V30 3114 H 309.447 -0.790185 1.20383 0
M  V30 3115 H 311.4 -3.90404 1.58628 0
M  V30 3116 H 310.124 -3.2195 0.549139 0
M  V30 3117 H 308.783 -2.59603 2.58847 0
M  V30 3118 H 308.431 -4.80839 1.47657 0
M  V30 3119 H 308.131 -4.9088 3.22972 0
M  V30 3120 H 309.655 -5.54775 2.55063 0
M  V30 3121 H 311.069 -3.94483 4.16 0
M  V30 3122 H 309.466 -3.54445 4.8424 0
M  V30 3123 H 310.536 -2.23855 4.30136 0
M  V30 3124 N 311.879 -1.3236 -0.855495 0
M  V30 3125 C 312.842 -1.21164 -1.94556 0
M  V30 3126 C 313.842 -0.134908 -1.60233 0
M  V30 3127 O 315.032 -0.385249 -1.69887 0
M  V30 3128 C 312.164 -0.863192 -3.29791 0
M  V30 3129 H 313.357 -2.18038 -2.05911 0
M  V30 3130 H 310.91 -1.16179 -1.04557 0
M  V30 3131 H 311.645 0.103769 -3.24134 0
M  V30 3132 H 311.43 -1.64166 -3.56078 0
M  V30 3133 H 312.92 -0.809156 -4.09686 0
M  V30 3134 N 313.357 1.07166 -1.15556 0
M  V30 3135 C 314.603 1.80065 -0.932984 0
M  V30 3136 C 314.936 1.86586 0.53845 0
M  V30 3137 O 314.211 1.35098 1.39924 0
M  V30 3138 C 314.494 3.25022 -1.55025 0
M  V30 3139 C 314.347 3.26634 -3.09242 0
M  V30 3140 C 315.666 4.22341 -1.2376 0
M  V30 3141 H 312.785 0.653697 -0.340366 0
M  V30 3142 H 315.427 1.25389 -1.4275 0
M  V30 3143 H 313.577 3.71712 -1.12972 0
M  V30 3144 H 315.249 2.88173 -3.60214 0
M  V30 3145 H 313.492 2.65539 -3.43033 0
M  V30 3146 H 314.163 4.28854 -3.47546 0
M  V30 3147 H 316.639 3.8405 -1.60139 0
M  V30 3148 H 315.515 5.22053 -1.69564 0
M  V30 3149 H 315.776 4.41828 -0.154938 0
M  V30 3150 N 314.835 0.952656 1.25548 0
M  V30 3151 C 315.798 0.475794 2.24207 0
M  V30 3152 C 316.798 -0.419428 1.55234 0
M  V30 3153 O 317.988 -0.216994 1.72843 0
M  V30 3154 C 315.12 -0.312814 3.39462 0
M  V30 3155 H 316.313 1.34779 2.67908 0
M  V30 3156 H 313.866 0.735739 1.37901 0
M  V30 3157 H 314.601 -1.20257 3.01179 0
M  V30 3158 H 314.386 0.329404 3.90714 0
M  V30 3159 H 315.876 -0.635986 4.12729 0
M  V30 3160 N 316.313 -1.40141 0.720998 0
M  V30 3161 C 317.276 -2.29058 0.0805834 0
M  V30 3162 C 318.276 -1.45632 -0.681758 0
M  V30 3163 O 319.466 -1.6648 -0.512856 0
M  V30 3164 C 316.598 -3.28925 -0.895593 0
M  V30 3165 H 317.791 -2.87191 0.863793 0
M  V30 3166 H 315.344 -1.48553 0.485975 0
M  V30 3167 H 316.079 -2.75822 -1.70566 0
M  V30 3168 H 315.864 -3.90519 -0.351766 0
M  V30 3169 H 317.354 -3.95494 -1.34069 0
M  V30 3170 N 317.792 -0.46758 -1.50504 0
M  V30 3171 C 318.739 0.328413 -2.28452 0
M  V30 3172 C 319.709 0.990313 -1.33349 0
M  V30 3173 O 320.894 1.00343 -1.62284 0
M  V30 3174 C 318.034 1.40648 -3.15138 0
M  V30 3175 C 317.147 0.759709 -4.25267 0
M  V30 3176 C 316.282 1.81537 -4.99217 0
M  V30 3177 C 315.321 1.14866 -6.01226 0
M  V30 3178 N 314.458 2.14702 -6.68467 0
M  V30 3179 H 319.298 -0.342603 -2.96024 0
M  V30 3180 H 316.835 -0.180801 -1.45985 0
M  V30 3181 H 318.793 2.04315 -3.63746 0
M  V30 3182 H 317.423 2.04671 -2.49619 0
M  V30 3183 H 316.475 0.0105671 -3.80399 0
M  V30 3184 H 317.787 0.233243 -4.98254 0
M  V30 3185 H 316.941 2.52793 -5.51526 0
M  V30 3186 H 315.68 2.37564 -4.25928 0
M  V30 3187 H 314.685 0.42171 -5.4818 0
M  V30 3188 H 315.91 0.595334 -6.76485 0
M  V30 3189 H 313.856 2.69752 -5.97972 0
M  V30 3190 H 313.773 1.6703 -7.37317 0
M  V30 3191 H 315.041 2.85348 -7.25394 0
M  V30 3192 N 319.27 1.56325 -0.20005 0
M  V30 3193 C 320.202 2.16555 0.750771 0
M  V30 3194 C 321.215 1.12871 1.1732 0
M  V30 3195 O 322.404 1.39943 1.10807 0
M  V30 3196 C 319.504 2.71684 2.02586 0
M  V30 3197 C 318.677 4.00321 1.76244 0
M  V30 3198 C 317.736 4.40227 2.88248 0
M  V30 3199 O 316.762 5.07552 2.57642 0
M  V30 3200 N 317.964 4.04138 4.16717 0
M  V30 3201 H 320.729 2.98772 0.235685 0
M  V30 3202 H 318.29 1.6189 -0.0182594 0
M  V30 3203 H 320.282 2.95363 2.76664 0
M  V30 3204 H 318.852 1.93893 2.45202 0
M  V30 3205 H 318.072 3.84723 0.85919 0
M  V30 3206 H 319.36 4.84279 1.56048 0
M  V30 3207 H 318.758 3.49993 4.44434 0
M  V30 3208 H 317.315 4.32756 4.87407 0
M  V30 3209 N 320.748 -0.0735177 1.57428 0
M  V30 3210 C 321.973 -0.789787 1.91774 0
M  V30 3211 C 322.398 -1.70413 0.796306 0
M  V30 3212 O 321.756 -1.79555 -0.250961 0
M  V30 3213 C 321.804 -1.5609 3.25067 0
M  V30 3214 O 320.908 -2.67144 3.14178 0
M  V30 3215 H 320.249 -0.215582 0.628029 0
M  V30 3216 H 322.779 -0.0422781 2.04556 0
M  V30 3217 H 322.789 -1.94052 3.58898 0
M  V30 3218 H 321.464 -0.890015 4.06265 0
M  V30 3219 H 320.041 -2.32052 2.91901 0
M  V30 3220 N 322.226 -1.5378 -0.344866 0
M  V30 3221 C 323.451 -1.75211 -1.10977 0
M  V30 3222 C 323.876 -0.48936 -1.81623 0
M  V30 3223 O 323.234 0.557925 -1.72502 0
M  V30 3224 C 323.282 -2.93147 -2.09993 0
M  V30 3225 O 322.386 -2.63203 -3.17487 0
M  V30 3226 H 321.727 -0.581241 -0.321021 0
M  V30 3227 H 324.257 -2.00738 -0.395661 0
M  V30 3228 H 324.267 -3.19898 -2.53237 0
M  V30 3229 H 322.942 -3.84731 -1.5797 0
M  V30 3230 H 321.519 -2.47336 -2.79069 0
M  V30 3231 N 323.704 0.605807 -1.45491 0
M  V30 3232 C 324.634 1.72709 -1.57143 0
M  V30 3233 C 325.615 1.6476 -0.422884 0
M  V30 3234 O 326.8 1.83132 -0.646247 0
M  V30 3235 C 323.93 3.11316 -1.53948 0
M  V30 3236 C 322.884 3.34077 -2.67537 0
M  V30 3237 C 322.21 4.72975 -2.49397 0
M  V30 3238 C 323.51 3.24158 -4.09535 0
M  V30 3239 H 325.204 1.63214 -2.51001 0
M  V30 3240 H 322.75 0.78379 -1.208 0
M  V30 3241 H 324.703 3.89557 -1.60696 0
M  V30 3242 H 323.427 3.21655 -0.566205 0
M  V30 3243 H 322.086 2.58227 -2.6022 0
M  V30 3244 H 321.734 4.8005 -1.50205 0
M  V30 3245 H 321.434 4.8916 -3.25571 0
M  V30 3246 H 322.958 5.53414 -2.58002 0
M  V30 3247 H 324.372 3.92271 -4.18086 0
M  V30 3248 H 322.769 3.51872 -4.86113 0
M  V30 3249 H 323.839 2.2157 -4.31317 0
M  V30 3250 N 325.182 1.32811 0.848464 0
M  V30 3251 C 326.115 1.16601 1.96162 0
M  V30 3252 C 327.093 0.0638855 1.62474 0
M  V30 3253 O 328.277 0.224348 1.8716 0
M  V30 3254 C 325.404 0.786333 3.29446 0
M  V30 3255 C 324.45 1.89459 3.8211 0
M  V30 3256 S 325.283 3.50395 4.04949 0
M  V30 3257 C 326.439 3.14413 5.41198 0
M  V30 3258 H 326.672 2.10832 2.09612 0
M  V30 3259 H 324.205 1.17543 1.00115 0
M  V30 3260 H 326.163 0.574044 4.06466 0
M  V30 3261 H 324.824 -0.137218 3.138 0
M  V30 3262 H 324.017 1.58207 4.78526 0
M  V30 3263 H 323.619 2.06304 3.11953 0
M  V30 3264 H 325.911 2.64642 6.23675 0
M  V30 3265 H 326.854 4.09874 5.77416 0
M  V30 3266 H 327.262 2.51266 5.05495 0
M  V30 3267 N 326.66 -1.06551 1.16123 0
M  V30 3268 C 327.906 -1.79567 0.94252 0
M  V30 3269 C 328.239 -1.86869 -0.528547 0
M  V30 3270 O 327.514 -1.35838 -1.39206 0
M  V30 3271 C 327.797 -3.24195 1.56747 0
M  V30 3272 C 327.65 -3.24989 3.10969 0
M  V30 3273 C 328.969 -4.21678 1.25998 0
M  V30 3274 H 326.088 -0.651883 0.343828 0
M  V30 3275 H 328.73 -1.2463 1.43413 0
M  V30 3276 H 326.88 -3.71107 1.14942 0
M  V30 3277 H 328.552 -2.86258 3.61737 0
M  V30 3278 H 326.795 -2.63716 3.44436 0
M  V30 3279 H 327.466 -4.27005 3.49815 0
M  V30 3280 H 329.942 -3.83196 1.62174 0
M  V30 3281 H 328.818 -5.21146 1.7233 0
M  V30 3282 H 329.079 -4.4174 0.178367 0
M  V30 3283 N 328.138 -0.959301 -1.25041 0
M  V30 3284 C 329.048 -0.489994 -2.29426 0
M  V30 3285 C 330.064 0.444944 -1.68215 0
M  V30 3286 O 331.24 0.320046 -1.98841 0
M  V30 3287 C 328.305 0.220309 -3.45999 0
M  V30 3288 C 327.366 -0.753418 -4.22637 0
M  V30 3289 C 326.599 -0.076918 -5.33645 0
M  V30 3290 O 326.822 1.13649 -5.58963 0
M  V30 3291 O 325.756 -0.764824 -5.97021 0
M  V30 3292 H 329.582 -1.35755 -2.71669 0
M  V30 3293 H 327.167 -0.725961 -1.30576 0
M  V30 3294 H 329.049 0.619677 -4.16819 0
M  V30 3295 H 327.724 1.06296 -3.0575 0
M  V30 3296 H 326.631 -1.20308 -3.54227 0
M  V30 3297 H 327.964 -1.56423 -4.66683 0
M  V30 3298 N 329.616 1.39756 -0.72842 0
M  V30 3299 C 330.841 2.05472 -0.282159 0
M  V30 3300 C 331.266 1.54549 1.07221 0
M  V30 3301 O 330.624 0.686372 1.67805 0
M  V30 3302 C 330.672 3.59462 -0.286264 0
M  V30 3303 O 329.776 4.05918 0.728298 0
M  V30 3304 H 329.117 0.651226 -0.129618 0
M  V30 3305 H 331.647 1.78915 -0.992499 0
M  V30 3306 H 331.657 4.07798 -0.128373 0
M  V30 3307 H 330.332 3.95889 -1.27456 0
M  V30 3308 H 328.909 3.69012 0.537081 0
M  V30 3309 N 331.094 0.475555 1.50254 0
M  V30 3310 C 332.024 -0.30611 2.31485 0
M  V30 3311 C 333.005 -0.986228 1.38591 0
M  V30 3312 O 334.19 -0.982541 1.67511 0
M  V30 3313 C 331.32 -1.38588 3.1845 0
M  V30 3314 C 330.274 -0.827115 4.19932 0
M  V30 3315 C 329.6 -2.00551 4.95665 0
M  V30 3316 C 330.9 0.16463 5.2204 0
M  V30 3317 H 332.594 0.371866 2.97082 0
M  V30 3318 H 330.14 0.180282 1.42867 0
M  V30 3319 H 332.093 -1.94023 3.74076 0
M  V30 3320 H 330.817 -2.09269 2.50747 0
M  V30 3321 H 329.476 -0.294702 3.65414 0
M  V30 3322 H 329.124 -2.6994 4.2443 0
M  V30 3323 H 328.824 -1.63784 5.64313 0
M  V30 3324 H 330.348 -2.56468 5.54127 0
M  V30 3325 H 331.762 -0.300699 5.72511 0
M  V30 3326 H 330.159 0.446813 5.98434 0
M  V30 3327 H 331.229 1.08905 4.72512 0
M  V30 3328 N 332.573 -1.56217 0.208337 0
M  V30 3329 C 333.819 -1.98242 -0.427552 0
M  V30 3330 C 334.152 -1.09554 -1.60348 0
M  V30 3331 O 333.427 -0.15035 -1.93918 0
M  V30 3332 C 333.71 -3.4931 -0.874907 0
M  V30 3333 C 333.563 -4.48773 0.303751 0
M  V30 3334 C 334.882 -4.04424 -1.73577 0
M  V30 3335 H 332.001 -0.720744 -0.153936 0
M  V30 3336 H 334.643 -1.87586 0.30192 0
M  V30 3337 H 332.793 -3.58522 -1.49648 0
M  V30 3338 H 334.465 -4.51586 0.941682 0
M  V30 3339 H 332.708 -4.23194 0.953375 0
M  V30 3340 H 333.379 -5.51976 -0.0519883 0
M  V30 3341 H 335.855 -3.98075 -1.21143 0
M  V30 3342 H 334.731 -5.1047 -2.01771 0
M  V30 3343 H 334.992 -3.50494 -2.69456 0
M  V30 3344 N 334.051 0.0651679 -1.57465 0
M  V30 3345 C 334.983 1.10359 -2.00882 0
M  V30 3346 C 335.996 1.346 -0.915788 0
M  V30 3347 O 337.185 1.32723 -1.1936 0
M  V30 3348 C 334.285 2.45312 -2.33828 0
M  V30 3349 C 333.458 2.40934 -3.65061 0
M  V30 3350 C 332.517 3.58047 -3.85602 0
M  V30 3351 O 331.543 3.39175 -4.57109 0
M  V30 3352 N 332.745 4.78637 -3.28462 0
M  V30 3353 H 335.51 0.733807 -2.90578 0
M  V30 3354 H 333.071 0.253719 -1.599 0
M  V30 3355 H 335.063 3.22314 -2.44737 0
M  V30 3356 H 333.633 2.74267 -1.49988 0
M  V30 3357 H 332.853 1.49273 -3.64844 0
M  V30 3358 H 334.141 2.35117 -4.51218 0
M  V30 3359 H 333.539 4.96872 -2.70433 0
M  V30 3360 H 332.096 5.53127 -3.44809 0
M  V30 3361 N 335.529 1.53961 0.336706 0
M  V30 3362 C 336.476 1.82428 1.41381 0
M  V30 3363 C 337.446 0.670444 1.51968 0
M  V30 3364 O 338.631 0.915565 1.67398 0
M  V30 3365 C 335.771 2.04564 2.77934 0
M  V30 3366 C 334.884 3.32267 2.76084 0
M  V30 3367 C 334.019 3.44434 4.04399 0
M  V30 3368 C 333.058 4.66061 3.96804 0
M  V30 3369 N 332.195 4.75224 5.16823 0
M  V30 3370 H 337.035 2.74324 1.16405 0
M  V30 3371 H 334.572 1.35869 0.563752 0
M  V30 3372 H 336.53 2.15388 3.57301 0
M  V30 3373 H 335.16 1.15974 3.01247 0
M  V30 3374 H 334.212 3.3025 1.88784 0
M  V30 3375 H 335.524 4.21733 2.66351 0
M  V30 3376 H 334.678 3.54728 4.92192 0
M  V30 3377 H 333.417 2.53037 4.16921 0
M  V30 3378 H 332.422 4.55838 3.07396 0
M  V30 3379 H 333.647 5.58829 3.85858 0
M  V30 3380 H 331.593 3.86739 5.29876 0
M  V30 3381 H 331.51 5.58636 5.09374 0
M  V30 3382 H 332.778 4.89835 6.06367 0
M  V30 3383 N 337.007 -0.598083 1.45811 0
M  V30 3384 C 337.937 -1.71873 1.58057 0
M  V30 3385 C 338.918 -1.64533 0.431615 0
M  V30 3386 O 340.103 -1.82787 0.65595 0
M  V30 3387 C 337.233 -3.10495 1.55597 0
M  V30 3388 C 336.187 -3.32654 2.69305 0
M  V30 3389 C 335.513 -4.71646 2.51902 0
M  V30 3390 C 336.813 -3.21981 4.11248 0
M  V30 3391 H 338.507 -1.61881 2.51863 0
M  V30 3392 H 336.053 -0.777372 1.21214 0
M  V30 3393 H 338.006 -3.88699 1.6276 0
M  V30 3394 H 336.73 -3.2135 0.583255 0
M  V30 3395 H 335.389 -2.56843 2.61586 0
M  V30 3396 H 335.037 -4.79246 1.52748 0
M  V30 3397 H 334.737 -4.87426 3.2816 0
M  V30 3398 H 336.261 -5.52038 2.60933 0
M  V30 3399 H 337.675 -3.90049 4.20161 0
M  V30 3400 H 336.072 -3.49289 4.87972 0
M  V30 3401 H 337.142 -2.1928 4.32486 0
M  V30 3402 N 338.485 -1.33259 -0.841409 0
M  V30 3403 C 339.448 -1.23221 -1.9326 0
M  V30 3404 C 340.448 -0.151895 -1.60081 0
M  V30 3405 O 341.638 -0.403246 -1.69468 0
M  V30 3406 C 338.77 -0.898123 -3.28856 0
M  V30 3407 H 339.963 -2.2021 -2.03587 0
M  V30 3408 H 337.516 -1.17281 -1.03319 0
M  V30 3409 H 338.251 0.0693841 -3.24226 0
M  V30 3410 H 338.036 -1.67934 -3.54317 0
M  V30 3411 H 339.526 -0.852563 -4.08805 0
M  V30 3412 N 339.963 1.05934 -1.16686 0
M  V30 3413 C 340.913 2.11764 -0.844978 0
M  V30 3414 C 341.897 1.59922 0.177178 0
M  V30 3415 O 343.089 1.76983 -0.0241768 0
M  V30 3416 C 340.218 3.41493 -0.351812 0
M  V30 3417 C 339.304 4.00152 -1.40496 0
M  V30 3418 N 339.695 4.32874 -2.61636 0
M  V30 3419 C 337.993 4.278 -1.26106 0
M  V30 3420 C 338.694 4.79552 -3.29249 0
M  V30 3421 N 337.67 4.79211 -2.56628 0
M  V30 3422 H 341.472 2.34916 -1.76612 0
M  V30 3423 H 338.986 1.23511 -1.05446 0
M  V30 3424 H 340.983 4.16773 -0.102796 0
M  V30 3425 H 339.643 3.19778 0.56322 0
M  V30 3426 H 340.654 4.23109 -2.98663 0
M  V30 3427 H 337.331 4.15511 -0.407081 0
M  V30 3428 H 338.721 5.14045 -4.32675 0
M  V30 3429 N 341.441 0.965919 1.2453 0
M  V30 3430 C 342.689 0.625593 1.92174 0
M  V30 3431 C 343.01 -0.841652 1.75901 0
M  V30 3432 O 342.28 -1.60061 1.12948 0
M  V30 3433 H 340.86 0.228388 0.71123 0
M  V30 3434 H 343.522 1.2266 1.51461 0
M  V30 3435 H 342.618 0.864653 2.99884 0
M  V30 3436 O 342.958 -1.35835 0.873561 0
M  V30 3437 H 343.649 -1.87797 0.474551 0
M  V30 END ATOM
M  V30 BEGIN BOND
M  V30 END BOND
M  V30 END CTAB
M  END
$$$$
